levomethadone
  CDK     0628171801

 50 51  0  0  0  0  0  0  0  0999 V2000
    0.9159    0.2544    2.2099 C   0  0  1  0  0  0  0  0  0  0  0  0
    1.3061   -0.7914    1.0742 C   0  0  2  0  0  0  0  0  0  0  0  0
   -0.5541    0.0378    2.5486 C   0  0  0  0  0  0  0  0  0  0  0  0
    1.8431   -0.0398    3.3903 C   0  0  0  0  0  0  0  0  0  0  0  0
    0.9326    1.7319    1.8173 C   0  0  0  0  0  0  0  0  0  0  0  0
    2.7902   -0.9059    0.5574 C   0  0  2  0  0  0  0  0  0  0  0  0
   -1.6624    0.0714    1.5509 C   0  0  2  0  0  0  0  0  0  0  0  0
   -0.9284   -0.1388    3.7345 O   0  0  0  0  0  0  0  0  0  0  0  0
    2.9342    0.8013    3.7575 C   0  0  0  0  0  0  0  0  0  0  0  0
    1.6979   -1.2392    4.1434 C   0  0  0  0  0  0  0  0  0  0  0  0
    1.2119    2.2087    0.5092 C   0  0  0  0  0  0  0  0  0  0  0  0
    0.6202    2.7211    2.7954 C   0  0  0  0  0  0  0  0  0  0  0  0
    2.8960   -1.4026   -0.8656 N   0  0  1  0  0  0  0  0  0  0  0  0
    3.7120   -1.8217    1.4162 C   0  0  0  0  0  0  0  0  0  0  0  0
   -2.2729   -1.3258    1.3025 C   0  0  0  0  0  0  0  0  0  0  0  0
    3.7744    0.4996    4.8442 C   0  0  0  0  0  0  0  0  0  0  0  0
    2.5419   -1.5526    5.2219 C   0  0  0  0  0  0  0  0  0  0  0  0
    1.1907    3.5802    0.1938 C   0  0  0  0  0  0  0  0  0  0  0  0
    0.5999    4.0944    2.4924 C   0  0  0  0  0  0  0  0  0  0  0  0
    2.1893   -2.6732   -1.2128 C   0  0  0  0  0  0  0  0  0  0  0  0
    2.7689   -0.3733   -1.9324 C   0  0  0  0  0  0  0  0  0  0  0  0
    3.5751   -0.6756    5.5832 C   0  0  0  0  0  0  0  0  0  0  0  0
    0.8758    4.5239    1.1845 C   0  0  0  0  0  0  0  0  0  0  0  0
    0.6869   -0.5860    0.2017 H   0  0  0  0  0  0  0  0  0  0  0  0
    1.0063   -1.7907    1.4007 H   0  0  0  0  0  0  0  0  0  0  0  0
    3.2411    0.0903    0.6099 H   0  0  0  0  0  0  0  0  0  0  0  0
   -1.3249    0.4816    0.5973 H   0  0  0  0  0  0  0  0  0  0  0  0
   -2.4498    0.7378    1.9133 H   0  0  0  0  0  0  0  0  0  0  0  0
    3.1521    1.6426    3.2219 H   0  0  0  0  0  0  0  0  0  0  0  0
    0.9659   -1.9109    3.9080 H   0  0  0  0  0  0  0  0  0  0  0  0
    1.4250    1.5662   -0.2454 H   0  0  0  0  0  0  0  0  0  0  0  0
    0.3992    2.4426    3.7551 H   0  0  0  0  0  0  0  0  0  0  0  0
    4.6400   -2.0373    0.8801 H   0  0  0  0  0  0  0  0  0  0  0  0
    3.2241   -2.7684    1.6533 H   0  0  0  0  0  0  0  0  0  0  0  0
    3.9887   -1.3406    2.3493 H   0  0  0  0  0  0  0  0  0  0  0  0
   -3.0434   -1.2598    0.5334 H   0  0  0  0  0  0  0  0  0  0  0  0
   -1.5092   -2.0285    0.9650 H   0  0  0  0  0  0  0  0  0  0  0  0
   -2.7307   -1.7099    2.2154 H   0  0  0  0  0  0  0  0  0  0  0  0
    4.5394    1.1329    5.0907 H   0  0  0  0  0  0  0  0  0  0  0  0
    2.4073   -2.4222    5.7409 H   0  0  0  0  0  0  0  0  0  0  0  0
    1.3994    3.8909   -0.7579 H   0  0  0  0  0  0  0  0  0  0  0  0
    0.3804    4.7770    3.2220 H   0  0  0  0  0  0  0  0  0  0  0  0
    2.5963   -3.0812   -2.1406 H   0  0  0  0  0  0  0  0  0  0  0  0
    2.3241   -3.4313   -0.4421 H   0  0  0  0  0  0  0  0  0  0  0  0
    1.1189   -2.5036   -1.3484 H   0  0  0  0  0  0  0  0  0  0  0  0
    3.4191    0.4778   -1.7268 H   0  0  0  0  0  0  0  0  0  0  0  0
    3.0726   -0.7832   -2.8968 H   0  0  0  0  0  0  0  0  0  0  0  0
    1.7389   -0.0240   -2.0170 H   0  0  0  0  0  0  0  0  0  0  0  0
    4.1840   -0.8967    6.3745 H   0  0  0  0  0  0  0  0  0  0  0  0
    0.8409    5.5185    0.9537 H   0  0  0  0  0  0  0  0  0  0  0  0
  1  2  1  0  0  0  0 
  1  3  1  0  0  0  0 
  1  4  1  0  0  0  0 
  1  5  1  0  0  0  0 
  6  2  1  0  0  0  0 
  3  7  1  0  0  0  0 
  3  8  2  0  0  0  0 
  4  9  2  0  0  0  0 
  4 10  1  0  0  0  0 
  5 11  2  0  0  0  0 
  5 12  1  0  0  0  0 
  6 13  1  0  0  0  0 
  6 14  1  0  0  0  0 
  7 15  1  0  0  0  0 
  9 16  1  0  0  0  0 
 10 17  2  0  0  0  0 
 11 18  1  0  0  0  0 
 12 19  2  0  0  0  0 
 13 20  1  0  0  0  0 
 13 21  1  0  0  0  0 
 16 22  2  0  0  0  0 
 17 22  1  0  0  0  0 
 18 23  2  0  0  0  0 
 19 23  1  0  0  0  0 
  2 24  1  0  0  0  0 
  2 25  1  0  0  0  0 
  6 26  1  0  0  0  0 
  7 27  1  0  0  0  0 
  7 28  1  0  0  0  0 
  9 29  1  0  0  0  0 
 10 30  1  0  0  0  0 
 11 31  1  0  0  0  0 
 12 32  1  0  0  0  0 
 14 33  1  0  0  0  0 
 14 34  1  0  0  0  0 
 14 35  1  0  0  0  0 
 15 36  1  0  0  0  0 
 15 37  1  0  0  0  0 
 15 38  1  0  0  0  0 
 16 39  1  0  0  0  0 
 17 40  1  0  0  0  0 
 18 41  1  0  0  0  0 
 19 42  1  0  0  0  0 
 20 43  1  0  0  0  0 
 20 44  1  0  0  0  0 
 20 45  1  0  0  0  0 
 21 46  1  0  0  0  0 
 21 47  1  0  0  0  0 
 21 48  1  0  0  0  0 
 22 49  1  0  0  0  0 
 23 50  1  0  0  0  0 
M  END
> <cdk:Title>
levomethadone

> <Conformer>
1

> <SuperDrugID>
SD003641

$$$$
