safinamide
  CDK     0628171802

 41 42  0  0  0  0  0  0  0  0999 V2000
    1.7977   -0.0980    2.1818 C   0  0  0  0  0  0  0  0  0  0  0  0
    3.0979    0.2125    2.6202 C   0  0  0  0  0  0  0  0  0  0  0  0
    4.1507    0.2983    1.6928 C   0  0  0  0  0  0  0  0  0  0  0  0
    3.9011    0.0921    0.3235 C   0  0  0  0  0  0  0  0  0  0  0  0
    2.5980   -0.2171   -0.1142 C   0  0  0  0  0  0  0  0  0  0  0  0
    1.5328   -0.3346    0.8107 C   0  0  0  0  0  0  0  0  0  0  0  0
    4.8789    0.1761   -0.5371 F   0  0  0  0  0  0  0  0  0  0  0  0
    0.1789   -0.7259    0.3447 C   0  0  1  0  0  0  0  0  0  0  0  0
   -0.4296    0.3533   -0.3989 O   0  0  0  0  0  0  0  0  0  0  0  0
   -1.7324    0.0807   -0.7366 C   0  0  0  0  0  0  0  0  0  0  0  0
   -2.0488   -0.5275   -1.9684 C   0  0  0  0  0  0  0  0  0  0  0  0
   -3.3857   -0.8282   -2.2894 C   0  0  0  0  0  0  0  0  0  0  0  0
   -4.4337   -0.5259   -1.3891 C   0  0  0  0  0  0  0  0  0  0  0  0
   -4.1089    0.1037   -0.1638 C   0  0  0  0  0  0  0  0  0  0  0  0
   -2.7738    0.4141    0.1529 C   0  0  0  0  0  0  0  0  0  0  0  0
   -5.8377   -0.8813   -1.7247 C   0  0  1  0  0  0  0  0  0  0  0  0
   -6.0864   -2.3379   -1.5983 N   0  0  1  0  0  0  0  0  0  0  0  0
   -6.1345   -2.9246   -0.2304 C   0  0  2  0  0  0  0  0  0  0  0  0
   -6.1191   -4.3969   -0.3972 C   0  0  0  0  0  0  0  0  0  0  0  0
   -7.3889   -2.4836    0.5740 C   0  0  0  0  0  0  0  0  0  0  0  0
   -5.0951   -5.1446    0.0519 N   0  0  0  0  0  0  0  0  0  0  0  0
   -7.0673   -4.9886   -0.9628 O   0  0  0  0  0  0  0  0  0  0  0  0
    1.0475   -0.1527    2.8747 H   0  0  0  0  0  0  0  0  0  0  0  0
    3.2781    0.3713    3.6140 H   0  0  0  0  0  0  0  0  0  0  0  0
    5.0967    0.5083    2.0186 H   0  0  0  0  0  0  0  0  0  0  0  0
    2.4309   -0.3711   -1.1118 H   0  0  0  0  0  0  0  0  0  0  0  0
    0.2765   -1.6153   -0.2860 H   0  0  0  0  0  0  0  0  0  0  0  0
   -0.4448   -1.0026    1.2028 H   0  0  0  0  0  0  0  0  0  0  0  0
   -1.3075   -0.7578   -2.6331 H   0  0  0  0  0  0  0  0  0  0  0  0
   -3.5900   -1.2698   -3.1894 H   0  0  0  0  0  0  0  0  0  0  0  0
   -4.8414    0.3302    0.5128 H   0  0  0  0  0  0  0  0  0  0  0  0
   -2.5569    0.8785    1.0372 H   0  0  0  0  0  0  0  0  0  0  0  0
   -6.5455   -0.3224   -1.1088 H   0  0  0  0  0  0  0  0  0  0  0  0
   -6.0425   -0.5965   -2.7617 H   0  0  0  0  0  0  0  0  0  0  0  0
   -6.9971   -2.5184   -2.0240 H   0  0  0  0  0  0  0  0  0  0  0  0
   -5.2433   -2.6242    0.3325 H   0  0  0  0  0  0  0  0  0  0  0  0
   -7.5197   -3.0972    1.4683 H   0  0  0  0  0  0  0  0  0  0  0  0
   -8.2854   -2.5613   -0.0451 H   0  0  0  0  0  0  0  0  0  0  0  0
   -7.2832   -1.4488    0.9014 H   0  0  0  0  0  0  0  0  0  0  0  0
   -5.1188   -6.1087   -0.0545 H   0  0  0  0  0  0  0  0  0  0  0  0
   -4.3345   -4.7250    0.4828 H   0  0  0  0  0  0  0  0  0  0  0  0
  1  2  2  0  0  0  0 
  1  6  1  0  0  0  0 
  2  3  1  0  0  0  0 
  3  4  2  0  0  0  0 
  4  5  1  0  0  0  0 
  5  6  2  0  0  0  0 
  4  7  1  0  0  0  0 
  6  8  1  0  0  0  0 
  8  9  1  0  0  0  0 
  9 10  1  0  0  0  0 
 11 12  1  0  0  0  0 
 12 13  2  0  0  0  0 
 13 14  1  0  0  0  0 
 14 15  2  0  0  0  0 
 10 11  2  0  0  0  0 
 10 15  1  0  0  0  0 
 13 16  1  0  0  0  0 
 16 17  1  0  0  0  0 
 17 18  1  0  0  0  0 
 18 19  1  0  0  0  0 
 18 20  1  0  0  0  0 
 19 21  1  0  0  0  0 
 19 22  2  0  0  0  0 
  1 23  1  0  0  0  0 
  2 24  1  0  0  0  0 
  3 25  1  0  0  0  0 
  5 26  1  0  0  0  0 
  8 27  1  0  0  0  0 
  8 28  1  0  0  0  0 
 11 29  1  0  0  0  0 
 12 30  1  0  0  0  0 
 14 31  1  0  0  0  0 
 15 32  1  0  0  0  0 
 16 33  1  0  0  0  0 
 16 34  1  0  0  0  0 
 17 35  1  0  0  0  0 
 18 36  1  0  0  0  0 
 20 37  1  0  0  0  0 
 20 38  1  0  0  0  0 
 20 39  1  0  0  0  0 
 21 40  1  0  0  0  0 
 21 41  1  0  0  0  0 
M  END
> <cdk:Title>
safinamide

> <Conformer>
1

> <SuperDrugID>
SD003850

$$$$
