proparacaine
  CDK     0628171801

 47 47  0  0  0  0  0  0  0  0999 V2000
   -2.5087    0.2914    0.1448 C   0  0  0  0  0  0  0  0  0  0  0  0
   -1.2356    0.4797   -0.3168 O   0  0  0  0  0  0  0  0  0  0  0  0
   -2.7222   -0.5937    1.0082 O   0  0  0  0  0  0  0  0  0  0  0  0
   -3.5724    1.0715   -0.3855 C   0  0  0  0  0  0  0  0  0  0  0  0
   -0.0589   -0.2539    0.0392 C   0  0  2  0  0  0  0  0  0  0  0  0
   -3.3126    2.1706   -1.2423 C   0  0  0  0  0  0  0  0  0  0  0  0
   -4.9245    0.7616   -0.0929 C   0  0  0  0  0  0  0  0  0  0  0  0
    1.1212    0.2535   -0.8235 C   0  0  2  0  0  0  0  0  0  0  0  0
   -4.3593    2.9179   -1.8175 C   0  0  0  0  0  0  0  0  0  0  0  0
   -5.9738    1.4886   -0.6791 C   0  0  0  0  0  0  0  0  0  0  0  0
    2.3551   -0.6043   -0.7057 N   0  0  1  0  0  0  0  0  0  0  0  0
   -4.0654    3.9703   -2.6093 N   0  0  0  0  0  0  0  0  0  0  0  0
   -5.6984    2.5472   -1.5659 C   0  0  0  0  0  0  0  0  0  0  0  0
    2.2810   -1.8100   -1.6076 C   0  0  1  0  0  0  0  0  0  0  0  0
    3.6443    0.1644   -0.8236 C   0  0  1  0  0  0  0  0  0  0  0  0
   -6.7458    3.1832   -2.1774 O   0  0  0  0  0  0  0  0  0  0  0  0
    3.3226   -2.9198   -1.3317 C   0  0  0  0  0  0  0  0  0  0  0  0
    3.9418    1.0923    0.3784 C   0  0  0  0  0  0  0  0  0  0  0  0
   -7.1172    2.5491   -3.4229 C   0  0  1  0  0  0  0  0  0  0  0  0
   -8.3320    3.2724   -4.0477 C   0  0  1  0  0  0  0  0  0  0  0  0
   -9.6182    3.1607   -3.2005 C   0  0  0  0  0  0  0  0  0  0  0  0
   -0.2458   -1.3142   -0.1355 H   0  0  0  0  0  0  0  0  0  0  0  0
    0.1658   -0.1091    1.0990 H   0  0  0  0  0  0  0  0  0  0  0  0
   -2.3485    2.4332   -1.4616 H   0  0  0  0  0  0  0  0  0  0  0  0
   -5.1631   -0.0113    0.5347 H   0  0  0  0  0  0  0  0  0  0  0  0
    1.3062    1.2794   -0.5013 H   0  0  0  0  0  0  0  0  0  0  0  0
    0.8006    0.3170   -1.8668 H   0  0  0  0  0  0  0  0  0  0  0  0
   -6.9420    1.2287   -0.4775 H   0  0  0  0  0  0  0  0  0  0  0  0
   -3.1410    4.1818   -2.8134 H   0  0  0  0  0  0  0  0  0  0  0  0
   -4.7758    4.5200   -2.9714 H   0  0  0  0  0  0  0  0  0  0  0  0
    1.3081   -2.2930   -1.4951 H   0  0  0  0  0  0  0  0  0  0  0  0
    2.3663   -1.5018   -2.6543 H   0  0  0  0  0  0  0  0  0  0  0  0
    4.4918   -0.5202   -0.8662 H   0  0  0  0  0  0  0  0  0  0  0  0
    3.6568    0.7529   -1.7454 H   0  0  0  0  0  0  0  0  0  0  0  0
    4.3060   -2.6324   -1.7077 H   0  0  0  0  0  0  0  0  0  0  0  0
    3.3887   -3.1195   -0.2599 H   0  0  0  0  0  0  0  0  0  0  0  0
    3.0255   -3.8383   -1.8438 H   0  0  0  0  0  0  0  0  0  0  0  0
    4.9815    1.4282    0.3375 H   0  0  0  0  0  0  0  0  0  0  0  0
    3.7852    0.5585    1.3182 H   0  0  0  0  0  0  0  0  0  0  0  0
    3.3022    1.9753    0.3584 H   0  0  0  0  0  0  0  0  0  0  0  0
   -6.2881    2.6079   -4.1341 H   0  0  0  0  0  0  0  0  0  0  0  0
   -7.3686    1.4918   -3.2790 H   0  0  0  0  0  0  0  0  0  0  0  0
   -8.0850    4.3285   -4.1821 H   0  0  0  0  0  0  0  0  0  0  0  0
   -8.5341    2.8444   -5.0341 H   0  0  0  0  0  0  0  0  0  0  0  0
  -10.4434    3.6466   -3.7242 H   0  0  0  0  0  0  0  0  0  0  0  0
   -9.4839    3.6482   -2.2331 H   0  0  0  0  0  0  0  0  0  0  0  0
   -9.8791    2.1129   -3.0388 H   0  0  0  0  0  0  0  0  0  0  0  0
  1  2  1  0  0  0  0 
  1  3  2  0  0  0  0 
  1  4  1  0  0  0  0 
  2  5  1  0  0  0  0 
  4  6  2  0  0  0  0 
  4  7  1  0  0  0  0 
  5  8  1  0  0  0  0 
  6  9  1  0  0  0  0 
  7 10  2  0  0  0  0 
  8 11  1  0  0  0  0 
  9 12  1  0  0  0  0 
  9 13  2  0  0  0  0 
 10 13  1  0  0  0  0 
 11 14  1  0  0  0  0 
 11 15  1  0  0  0  0 
 13 16  1  0  0  0  0 
 14 17  1  0  0  0  0 
 15 18  1  0  0  0  0 
 16 19  1  0  0  0  0 
 19 20  1  0  0  0  0 
 20 21  1  0  0  0  0 
  5 22  1  0  0  0  0 
  5 23  1  0  0  0  0 
  6 24  1  0  0  0  0 
  7 25  1  0  0  0  0 
  8 26  1  0  0  0  0 
  8 27  1  0  0  0  0 
 10 28  1  0  0  0  0 
 12 29  1  0  0  0  0 
 12 30  1  0  0  0  0 
 14 31  1  0  0  0  0 
 14 32  1  0  0  0  0 
 15 33  1  0  0  0  0 
 15 34  1  0  0  0  0 
 17 35  1  0  0  0  0 
 17 36  1  0  0  0  0 
 17 37  1  0  0  0  0 
 18 38  1  0  0  0  0 
 18 39  1  0  0  0  0 
 18 40  1  0  0  0  0 
 19 41  1  0  0  0  0 
 19 42  1  0  0  0  0 
 20 43  1  0  0  0  0 
 20 44  1  0  0  0  0 
 21 45  1  0  0  0  0 
 21 46  1  0  0  0  0 
 21 47  1  0  0  0  0 
M  END
> <cdk:Title>
proparacaine

> <Conformer>
1

> <SuperDrugID>
SD002059

$$$$
