zafirlukast
  CDK     0628171801

 74 78  0  0  0  0  0  0  0  0999 V2000
   -2.4805   -3.6808    6.9142 C   0  0  1  0  0  0  0  0  0  0  0  0
   -1.2928   -4.1555    7.6607 C   0  0  0  0  0  0  0  0  0  0  0  0
   -2.0708   -2.8340    5.7593 C   0  0  0  0  0  0  0  0  0  0  0  0
   -0.6610   -5.3946    7.5729 C   0  0  0  0  0  0  0  0  0  0  0  0
   -0.5578   -3.4295    8.6022 C   0  0  0  0  0  0  0  0  0  0  0  0
   -1.9733   -3.3549    4.4446 C   0  0  0  0  0  0  0  0  0  0  0  0
   -1.7408   -1.4766    5.9672 C   0  0  0  0  0  0  0  0  0  0  0  0
    0.3878   -5.3915    8.4946 C   0  0  0  0  0  0  0  0  0  0  0  0
   -0.9079   -6.5105    6.7498 C   0  0  0  0  0  0  0  0  0  0  0  0
    0.4586   -4.1784    9.0853 N   0  0  0  0  0  0  0  0  0  0  0  0
   -2.3097   -4.6547    4.1683 O   0  0  0  0  0  0  0  0  0  0  0  0
   -1.4897   -2.5461    3.3950 C   0  0  0  0  0  0  0  0  0  0  0  0
   -1.2884   -0.6713    4.9085 C   0  0  0  0  0  0  0  0  0  0  0  0
    1.1823   -6.5386    8.6730 C   0  0  0  0  0  0  0  0  0  0  0  0
   -0.0805   -7.6545    6.8747 C   0  0  0  0  0  0  0  0  0  0  0  0
    1.4507   -3.7482   10.0261 C   0  0  0  0  0  0  0  0  0  0  0  0
   -3.6459   -4.7913    3.6505 C   0  0  0  0  0  0  0  0  0  0  0  0
   -1.1352   -1.1893    3.5985 C   0  0  0  0  0  0  0  0  0  0  0  0
    0.9293   -7.6674    7.8685 C   0  0  0  0  0  0  0  0  0  0  0  0
   -0.1793   -8.7811    6.1101 N   0  0  0  0  0  0  0  0  0  0  0  0
   -0.6583   -0.3636    2.5339 C   0  0  0  0  0  0  0  0  0  0  0  0
   -0.6602   -8.9382    4.8504 C   0  0  0  0  0  0  0  0  0  0  0  0
   -0.5510   -0.8273    1.2586 N   0  0  0  0  0  0  0  0  0  0  0  0
   -0.3377    0.8286    2.7611 O   0  0  0  0  0  0  0  0  0  0  0  0
   -0.6343  -10.2208    4.3885 O   0  0  0  0  0  0  0  0  0  0  0  0
   -1.0856   -7.9948    4.1415 O   0  0  0  0  0  0  0  0  0  0  0  0
   -0.1319    0.1370   -0.0995 S   0  0  1  0  0  0  0  0  0  0  0  0
   -0.9766  -10.7166    3.0870 C   0  0  2  0  0  0  0  0  0  0  0  0
    1.4218    0.5188    0.0307 O   0  0  0  0  0  0  0  0  0  0  0  0
   -0.3274   -0.7475   -1.4241 O   0  0  0  0  0  0  0  0  0  0  0  0
   -1.1637    1.5875   -0.1743 C   0  0  0  0  0  0  0  0  0  0  0  0
   -2.3042  -11.4925    3.1198 C   0  0  2  0  0  0  0  0  0  0  0  0
    0.0683  -11.7371    2.5739 C   0  0  2  0  0  0  0  0  0  0  0  0
   -2.5820    1.5634   -0.0156 C   0  0  0  0  0  0  0  0  0  0  0  0
   -0.5136    2.8278   -0.3668 C   0  0  0  0  0  0  0  0  0  0  0  0
   -2.1943  -12.4520    1.9269 C   0  0  2  0  0  0  0  0  0  0  0  0
   -0.7234  -12.9033    1.9340 C   0  0  2  0  0  0  0  0  0  0  0  0
   -3.3892    0.3290    0.1740 C   0  0  0  0  0  0  0  0  0  0  0  0
   -3.2920    2.7903   -0.0201 C   0  0  0  0  0  0  0  0  0  0  0  0
   -1.2365    4.0318   -0.3733 C   0  0  0  0  0  0  0  0  0  0  0  0
   -2.6274    4.0141   -0.1989 C   0  0  0  0  0  0  0  0  0  0  0  0
   -3.0629   -4.5426    6.5847 H   0  0  0  0  0  0  0  0  0  0  0  0
   -3.1373   -3.1228    7.5860 H   0  0  0  0  0  0  0  0  0  0  0  0
   -0.7594   -2.4658    8.8808 H   0  0  0  0  0  0  0  0  0  0  0  0
   -1.8257   -1.0586    6.8973 H   0  0  0  0  0  0  0  0  0  0  0  0
   -1.6753   -6.4861    6.0804 H   0  0  0  0  0  0  0  0  0  0  0  0
   -1.4024   -2.9759    2.4727 H   0  0  0  0  0  0  0  0  0  0  0  0
   -1.0661    0.3054    5.1170 H   0  0  0  0  0  0  0  0  0  0  0  0
    1.9306   -6.5579    9.3699 H   0  0  0  0  0  0  0  0  0  0  0  0
    2.4421   -3.8483    9.5764 H   0  0  0  0  0  0  0  0  0  0  0  0
    1.3134   -2.7023   10.3144 H   0  0  0  0  0  0  0  0  0  0  0  0
    1.4058   -4.3637   10.9270 H   0  0  0  0  0  0  0  0  0  0  0  0
   -3.8313   -5.8614    3.5598 H   0  0  0  0  0  0  0  0  0  0  0  0
   -4.3952   -4.4033    4.4090 H   0  0  0  0  0  0  0  0  0  0  0  0
   -3.6820   -4.3723    2.5977 H   0  0  0  0  0  0  0  0  0  0  0  0
    1.5032   -8.5036    8.0044 H   0  0  0  0  0  0  0  0  0  0  0  0
    0.1903   -9.5850    6.5061 H   0  0  0  0  0  0  0  0  0  0  0  0
   -0.7505   -1.7577    1.0859 H   0  0  0  0  0  0  0  0  0  0  0  0
   -1.0643   -9.8989    2.3647 H   0  0  0  0  0  0  0  0  0  0  0  0
   -3.1626  -10.8250    3.0165 H   0  0  0  0  0  0  0  0  0  0  0  0
   -2.4000  -12.0583    4.0521 H   0  0  0  0  0  0  0  0  0  0  0  0
    0.6885  -12.1104    3.3949 H   0  0  0  0  0  0  0  0  0  0  0  0
    0.7249  -11.2657    1.8387 H   0  0  0  0  0  0  0  0  0  0  0  0
    0.4988    2.8729   -0.4968 H   0  0  0  0  0  0  0  0  0  0  0  0
   -2.4204  -11.9152    1.0010 H   0  0  0  0  0  0  0  0  0  0  0  0
   -2.8775  -13.2972    2.0258 H   0  0  0  0  0  0  0  0  0  0  0  0
   -0.6194  -13.8112    2.5365 H   0  0  0  0  0  0  0  0  0  0  0  0
   -0.3757  -13.1196    0.9213 H   0  0  0  0  0  0  0  0  0  0  0  0
   -3.7671    0.2988    1.1984 H   0  0  0  0  0  0  0  0  0  0  0  0
   -2.8308   -0.5842   -0.0132 H   0  0  0  0  0  0  0  0  0  0  0  0
   -4.2390    0.3266   -0.5121 H   0  0  0  0  0  0  0  0  0  0  0  0
   -4.3085    2.8045    0.1064 H   0  0  0  0  0  0  0  0  0  0  0  0
   -0.7484    4.9218   -0.5000 H   0  0  0  0  0  0  0  0  0  0  0  0
   -3.1554    4.8902   -0.2021 H   0  0  0  0  0  0  0  0  0  0  0  0
  1  2  1  0  0  0  0 
  1  3  1  0  0  0  0 
  2  4  1  0  0  0  0 
  2  5  2  0  0  0  0 
  3  6  2  0  0  0  0 
  3  7  1  0  0  0  0 
  4  8  1  0  0  0  0 
  4  9  2  0  0  0  0 
  5 10  1  0  0  0  0 
  6 11  1  0  0  0  0 
  6 12  1  0  0  0  0 
  7 13  2  0  0  0  0 
  8 10  1  0  0  0  0 
  8 14  2  0  0  0  0 
  9 15  1  0  0  0  0 
 10 16  1  0  0  0  0 
 11 17  1  0  0  0  0 
 12 18  2  0  0  0  0 
 13 18  1  0  0  0  0 
 14 19  1  0  0  0  0 
 15 19  2  0  0  0  0 
 15 20  1  0  0  0  0 
 18 21  1  0  0  0  0 
 20 22  1  0  0  0  0 
 21 23  1  0  0  0  0 
 21 24  2  0  0  0  0 
 22 25  1  0  0  0  0 
 22 26  2  0  0  0  0 
 23 27  1  0  0  0  0 
 25 28  1  0  0  0  0 
 27 29  2  0  0  0  0 
 27 30  2  0  0  0  0 
 27 31  1  0  0  0  0 
 28 32  1  0  0  0  0 
 28 33  1  0  0  0  0 
 31 34  2  0  0  0  0 
 31 35  1  0  0  0  0 
 32 36  1  0  0  0  0 
 33 37  1  0  0  0  0 
 34 38  1  0  0  0  0 
 34 39  1  0  0  0  0 
 35 40  2  0  0  0  0 
 36 37  1  0  0  0  0 
 39 41  2  0  0  0  0 
 40 41  1  0  0  0  0 
 42  1  1  0  0  0  0 
 43  1  1  0  0  0  0 
 44  5  1  0  0  0  0 
 45  7  1  0  0  0  0 
 46  9  1  0  0  0  0 
 47 12  1  0  0  0  0 
 48 13  1  0  0  0  0 
 49 14  1  0  0  0  0 
 50 16  1  0  0  0  0 
 51 16  1  0  0  0  0 
 52 16  1  0  0  0  0 
 53 17  1  0  0  0  0 
 54 17  1  0  0  0  0 
 55 17  1  0  0  0  0 
 56 19  1  0  0  0  0 
 57 20  1  0  0  0  0 
 58 23  1  0  0  0  0 
 59 28  1  0  0  0  0 
 60 32  1  0  0  0  0 
 61 32  1  0  0  0  0 
 62 33  1  0  0  0  0 
 63 33  1  0  0  0  0 
 64 35  1  0  0  0  0 
 65 36  1  0  0  0  0 
 66 36  1  0  0  0  0 
 67 37  1  0  0  0  0 
 68 37  1  0  0  0  0 
 69 38  1  0  0  0  0 
 70 38  1  0  0  0  0 
 71 38  1  0  0  0  0 
 72 39  1  0  0  0  0 
 73 40  1  0  0  0  0 
 74 41  1  0  0  0  0 
M  END
> <cdk:Title>
zafirlukast

> <Conformer>
1

> <SuperDrugID>
SD002572

$$$$
