cotinine
  CDK     0628171802

 25 26  0  0  0  0  0  0  0  0999 V2000
    2.1300   -4.0396    0.3112 C   0  0  0  0  0  0  0  0  0  0  0  0
    1.8090   -2.6435    0.4392 N   0  0  0  0  0  0  0  0  0  0  0  0
    2.7156   -1.5870    0.1044 C   0  0  1  0  0  0  0  0  0  0  0  0
    0.6300   -2.1714    0.9076 C   0  0  0  0  0  0  0  0  0  0  0  0
    1.8715   -0.2878    0.2295 C   0  0  1  0  0  0  0  0  0  0  0  0
    3.9329   -1.6120    0.9759 C   0  0  0  0  0  0  0  0  0  0  0  0
   -0.3135   -2.8824    1.3269 O   0  0  0  0  0  0  0  0  0  0  0  0
    0.5484   -0.7143    0.8953 C   0  0  2  0  0  0  0  0  0  0  0  0
    5.2249   -1.7750    0.4205 C   0  0  0  0  0  0  0  0  0  0  0  0
    3.8371   -1.5061    2.3863 C   0  0  0  0  0  0  0  0  0  0  0  0
    6.3576   -1.8625    1.2499 C   0  0  0  0  0  0  0  0  0  0  0  0
    4.9475   -1.6005    3.1605 N   0  0  0  0  0  0  0  0  0  0  0  0
    6.1873   -1.7836    2.6422 C   0  0  0  0  0  0  0  0  0  0  0  0
    1.2733   -4.6048   -0.0620 H   0  0  0  0  0  0  0  0  0  0  0  0
    2.4221   -4.4407    1.2822 H   0  0  0  0  0  0  0  0  0  0  0  0
    2.9567   -4.1923   -0.3864 H   0  0  0  0  0  0  0  0  0  0  0  0
    2.9936   -1.7110   -0.9485 H   0  0  0  0  0  0  0  0  0  0  0  0
    2.3675    0.4900    0.8181 H   0  0  0  0  0  0  0  0  0  0  0  0
    1.6666    0.1233   -0.7645 H   0  0  0  0  0  0  0  0  0  0  0  0
    0.4716   -0.3273    1.9138 H   0  0  0  0  0  0  0  0  0  0  0  0
   -0.3130   -0.3831    0.3091 H   0  0  0  0  0  0  0  0  0  0  0  0
    5.3515   -1.8433   -0.5927 H   0  0  0  0  0  0  0  0  0  0  0  0
    2.9345   -1.3640    2.8431 H   0  0  0  0  0  0  0  0  0  0  0  0
    7.2879   -1.9854    0.8476 H   0  0  0  0  0  0  0  0  0  0  0  0
    6.9890   -1.8628    3.2695 H   0  0  0  0  0  0  0  0  0  0  0  0
  1  2  1  0  0  0  0 
  3  2  1  0  0  0  0 
  2  4  1  0  0  0  0 
  3  5  1  0  0  0  0 
  3  6  1  0  0  0  0 
  4  7  2  0  0  0  0 
  4  8  1  0  0  0  0 
  5  8  1  0  0  0  0 
  6  9  2  0  0  0  0 
  6 10  1  0  0  0  0 
  9 11  1  0  0  0  0 
 10 12  2  0  0  0  0 
 11 13  2  0  0  0  0 
 12 13  1  0  0  0  0 
  1 14  1  0  0  0  0 
  1 15  1  0  0  0  0 
  1 16  1  0  0  0  0 
  3 17  1  0  0  0  0 
  5 18  1  0  0  0  0 
  5 19  1  0  0  0  0 
  8 20  1  0  0  0  0 
  8 21  1  0  0  0  0 
  9 22  1  0  0  0  0 
 10 23  1  0  0  0  0 
 11 24  1  0  0  0  0 
 13 25  1  0  0  0  0 
M  END
> <cdk:Title>
cotinine

> <Conformer>
1

> <SuperDrugID>
SD000648

$$$$
