diosmin
  CDK     0628171801

 75 79  0  0  0  0  0  0  0  0999 V2000
    4.6688   -9.1586   -1.3072 O   0  0  0  0  0  0  0  0  0  0  0  0
    3.5823   -8.5422   -1.4123 C   0  0  0  0  0  0  0  0  0  0  0  0
    3.2202   -7.8707   -2.6064 C   0  0  0  0  0  0  0  0  0  0  0  0
    2.7276   -8.5386   -0.2931 C   0  0  0  0  0  0  0  0  0  0  0  0
    1.9783   -7.1801   -2.6170 C   0  0  0  0  0  0  0  0  0  0  0  0
    4.0161   -7.8478   -3.7816 C   0  0  0  0  0  0  0  0  0  0  0  0
    1.5007   -7.8476   -0.3530 C   0  0  0  0  0  0  0  0  0  0  0  0
    1.1850   -7.1873   -1.5060 O   0  0  0  0  0  0  0  0  0  0  0  0
    1.5427   -6.4938   -3.7653 C   0  0  0  0  0  0  0  0  0  0  0  0
    5.2061   -8.4931   -3.8666 O   0  0  0  0  0  0  0  0  0  0  0  0
    3.5807   -7.1487   -4.9235 C   0  0  0  0  0  0  0  0  0  0  0  0
    0.5918   -7.8165    0.7316 C   0  0  0  0  0  0  0  0  0  0  0  0
    2.3469   -6.4697   -4.9212 C   0  0  0  0  0  0  0  0  0  0  0  0
    0.1727   -9.0080    1.3703 C   0  0  0  0  0  0  0  0  0  0  0  0
    0.0824   -6.5829    1.1953 C   0  0  0  0  0  0  0  0  0  0  0  0
    1.9267   -5.8086   -6.0466 O   0  0  0  0  0  0  0  0  0  0  0  0
   -0.7183   -8.9626    2.4610 C   0  0  0  0  0  0  0  0  0  0  0  0
   -0.7888   -6.5352    2.2988 C   0  0  0  0  0  0  0  0  0  0  0  0
    2.4013   -4.4471   -6.1266 C   0  0  2  0  0  0  0  0  0  0  0  0
   -1.1047  -10.1191    3.0495 O   0  0  0  0  0  0  0  0  0  0  0  0
   -1.2015   -7.7240    2.9338 C   0  0  0  0  0  0  0  0  0  0  0  0
    1.8131   -3.6717   -5.0575 O   0  0  0  0  0  0  0  0  0  0  0  0
    1.9822   -3.8608   -7.5012 C   0  0  2  0  0  0  0  0  0  0  0  0
   -2.0246   -7.6773    4.0280 O   0  0  0  0  0  0  0  0  0  0  0  0
    2.1931   -2.2788   -5.0300 C   0  0  2  0  0  0  0  0  0  0  0  0
    2.6256   -4.5777   -8.5528 O   0  0  0  0  0  0  0  0  0  0  0  0
    2.3336   -2.3501   -7.5824 C   0  0  2  0  0  0  0  0  0  0  0  0
   -3.4138   -7.4845    3.7060 C   0  0  0  0  0  0  0  0  0  0  0  0
    1.5287   -1.6526   -3.7805 C   0  0  1  0  0  0  0  0  0  0  0  0
    1.7704   -1.5783   -6.3567 C   0  0  2  0  0  0  0  0  0  0  0  0
    1.8202   -1.7896   -8.7897 O   0  0  0  0  0  0  0  0  0  0  0  0
    2.0890   -2.2591   -2.5979 O   0  0  0  0  0  0  0  0  0  0  0  0
    2.2355   -0.2295   -6.3867 O   0  0  0  0  0  0  0  0  0  0  0  0
    1.5081   -1.8250   -1.3512 C   0  0  1  0  0  0  0  0  0  0  0  0
    2.2076   -2.5859   -0.1970 C   0  0  2  0  0  0  0  0  0  0  0  0
    1.7166   -0.4021   -1.1809 O   0  0  0  0  0  0  0  0  0  0  0  0
    2.0415   -3.9916   -0.3663 O   0  0  0  0  0  0  0  0  0  0  0  0
    1.6626   -2.1093    1.1793 C   0  0  2  0  0  0  0  0  0  0  0  0
    1.2389    0.1908    0.0503 C   0  0  2  0  0  0  0  0  0  0  0  0
    0.3068   -2.5179    1.3753 O   0  0  0  0  0  0  0  0  0  0  0  0
    1.7699   -0.5618    1.3128 C   0  0  2  0  0  0  0  0  0  0  0  0
   -0.2976    0.4082    0.0295 C   0  0  0  0  0  0  0  0  0  0  0  0
    3.1422   -0.2211    1.5236 O   0  0  0  0  0  0  0  0  0  0  0  0
    3.0055   -9.0263    0.5638 H   0  0  0  0  0  0  0  0  0  0  0  0
    0.6395   -6.0131   -3.7626 H   0  0  0  0  0  0  0  0  0  0  0  0
    4.9695   -9.4442   -3.8906 H   0  0  0  0  0  0  0  0  0  0  0  0
    4.1619   -7.1379   -5.7674 H   0  0  0  0  0  0  0  0  0  0  0  0
    0.5066   -9.9183    1.0404 H   0  0  0  0  0  0  0  0  0  0  0  0
    0.3507   -5.7094    0.7390 H   0  0  0  0  0  0  0  0  0  0  0  0
   -1.1273   -5.6324    2.6376 H   0  0  0  0  0  0  0  0  0  0  0  0
    3.4963   -4.4258   -6.0494 H   0  0  0  0  0  0  0  0  0  0  0  0
   -0.5163  -10.2103    3.8261 H   0  0  0  0  0  0  0  0  0  0  0  0
    0.9026   -3.9819   -7.6226 H   0  0  0  0  0  0  0  0  0  0  0  0
    3.2789   -2.1956   -4.9074 H   0  0  0  0  0  0  0  0  0  0  0  0
    2.2886   -4.1683   -9.3772 H   0  0  0  0  0  0  0  0  0  0  0  0
    3.4221   -2.2377   -7.6099 H   0  0  0  0  0  0  0  0  0  0  0  0
   -3.9764   -7.4699    4.6393 H   0  0  0  0  0  0  0  0  0  0  0  0
   -3.5817   -6.5309    3.1993 H   0  0  0  0  0  0  0  0  0  0  0  0
   -3.8000   -8.2996    3.0892 H   0  0  0  0  0  0  0  0  0  0  0  0
    1.7177   -0.5761   -3.7678 H   0  0  0  0  0  0  0  0  0  0  0  0
    0.4484   -1.8217   -3.8223 H   0  0  0  0  0  0  0  0  0  0  0  0
    0.6782   -1.5593   -6.4195 H   0  0  0  0  0  0  0  0  0  0  0  0
    0.8463   -1.8809   -8.7236 H   0  0  0  0  0  0  0  0  0  0  0  0
    3.2113   -0.2998   -6.3242 H   0  0  0  0  0  0  0  0  0  0  0  0
    0.4403   -2.0723   -1.3549 H   0  0  0  0  0  0  0  0  0  0  0  0
    3.2818   -2.3756   -0.2398 H   0  0  0  0  0  0  0  0  0  0  0  0
    2.5568   -4.3927    0.3642 H   0  0  0  0  0  0  0  0  0  0  0  0
    2.2537   -2.5797    1.9707 H   0  0  0  0  0  0  0  0  0  0  0  0
    1.6702    1.1963    0.0734 H   0  0  0  0  0  0  0  0  0  0  0  0
    0.3164   -3.4976    1.3491 H   0  0  0  0  0  0  0  0  0  0  0  0
    1.2255   -0.2330    2.2029 H   0  0  0  0  0  0  0  0  0  0  0  0
   -0.6127    0.9829    0.9036 H   0  0  0  0  0  0  0  0  0  0  0  0
   -0.5804    0.9629   -0.8668 H   0  0  0  0  0  0  0  0  0  0  0  0
   -0.8317   -0.5397    0.0245 H   0  0  0  0  0  0  0  0  0  0  0  0
    3.1540    0.7491    1.6685 H   0  0  0  0  0  0  0  0  0  0  0  0
  1  2  2  0  0  0  0 
  2  3  1  0  0  0  0 
  2  4  1  0  0  0  0 
  3  5  1  0  0  0  0 
  3  6  2  0  0  0  0 
  4  7  2  0  0  0  0 
  5  8  1  0  0  0  0 
  5  9  2  0  0  0  0 
  6 10  1  0  0  0  0 
  6 11  1  0  0  0  0 
  7  8  1  0  0  0  0 
  7 12  1  0  0  0  0 
  9 13  1  0  0  0  0 
 11 13  2  0  0  0  0 
 12 14  2  0  0  0  0 
 12 15  1  0  0  0  0 
 13 16  1  0  0  0  0 
 14 17  1  0  0  0  0 
 15 18  2  0  0  0  0 
 17 20  1  0  0  0  0 
 17 21  2  0  0  0  0 
 18 21  1  0  0  0  0 
 19 16  1  0  0  0  0 
 19 22  1  0  0  0  0 
 23 19  1  0  0  0  0 
 21 24  1  0  0  0  0 
 25 22  1  0  0  0  0 
 23 26  1  0  0  0  0 
 23 27  1  0  0  0  0 
 24 28  1  0  0  0  0 
 25 29  1  0  0  0  0 
 30 25  1  0  0  0  0 
 27 30  1  0  0  0  0 
 27 31  1  0  0  0  0 
 29 32  1  0  0  0  0 
 30 33  1  0  0  0  0 
 34 32  1  0  0  0  0 
 35 34  1  0  0  0  0 
 34 36  1  0  0  0  0 
 35 37  1  0  0  0  0 
 35 38  1  0  0  0  0 
 39 36  1  0  0  0  0 
 38 40  1  0  0  0  0 
 38 41  1  0  0  0  0 
 41 39  1  0  0  0  0 
 39 42  1  0  0  0  0 
 41 43  1  0  0  0  0 
 44  4  1  0  0  0  0 
 45  9  1  0  0  0  0 
 46 10  1  0  0  0  0 
 47 11  1  0  0  0  0 
 48 14  1  0  0  0  0 
 49 15  1  0  0  0  0 
 50 18  1  0  0  0  0 
 19 51  1  0  0  0  0 
 52 20  1  0  0  0  0 
 23 53  1  0  0  0  0 
 25 54  1  0  0  0  0 
 55 26  1  0  0  0  0 
 27 56  1  0  0  0  0 
 57 28  1  0  0  0  0 
 58 28  1  0  0  0  0 
 59 28  1  0  0  0  0 
 60 29  1  0  0  0  0 
 61 29  1  0  0  0  0 
 30 62  1  0  0  0  0 
 63 31  1  0  0  0  0 
 64 33  1  0  0  0  0 
 34 65  1  0  0  0  0 
 35 66  1  0  0  0  0 
 67 37  1  0  0  0  0 
 38 68  1  0  0  0  0 
 39 69  1  0  0  0  0 
 70 40  1  0  0  0  0 
 41 71  1  0  0  0  0 
 72 42  1  0  0  0  0 
 73 42  1  0  0  0  0 
 74 42  1  0  0  0  0 
 75 43  1  0  0  0  0 
M  END
> <cdk:Title>
diosmin

> <Conformer>
1

> <SuperDrugID>
SD002733

$$$$
