taurolidine
  CDK     0628171801

 33 34  0  0  0  0  0  0  0  0999 V2000
    5.8357    6.0369   -2.7356 C   0  0  1  0  0  0  0  0  0  0  0  0
    6.4312    4.7466   -2.2615 N   0  0  1  0  0  0  0  0  0  0  0  0
    6.6934    7.2392   -2.4797 N   0  0  1  0  0  0  0  0  0  0  0  0
    5.4499    3.6135   -2.3584 C   0  0  2  0  0  0  0  0  0  0  0  0
    7.7714    4.4570   -2.8768 C   0  0  1  0  0  0  0  0  0  0  0  0
    6.1437    8.4621   -3.1542 C   0  0  2  0  0  0  0  0  0  0  0  0
    7.0225    7.4262   -1.0245 C   0  0  1  0  0  0  0  0  0  0  0  0
    5.9199    2.3430   -1.6202 C   0  0  2  0  0  0  0  0  0  0  0  0
    8.5046    3.3701   -2.1985 N   0  0  1  0  0  0  0  0  0  0  0  0
    7.1368    9.6417   -3.1606 C   0  0  2  0  0  0  0  0  0  0  0  0
    8.0947    8.4109   -0.7712 N   0  0  2  0  0  0  0  0  0  0  0  0
    7.5683    1.8845   -2.2515 S   0  0  1  0  0  0  0  0  0  0  0  0
    7.6483    9.9733   -1.4419 S   0  0  1  0  0  0  0  0  0  0  0  0
    8.2532    0.7700   -1.3277 O   0  0  0  0  0  0  0  0  0  0  0  0
    7.4644    1.3795   -3.7686 O   0  0  0  0  0  0  0  0  0  0  0  0
    8.9036   10.9674   -1.4004 O   0  0  0  0  0  0  0  0  0  0  0  0
    6.4220   10.5803   -0.6080 O   0  0  0  0  0  0  0  0  0  0  0  0
    5.6438    5.9430   -3.8099 H   0  0  0  0  0  0  0  0  0  0  0  0
    4.8701    6.1955   -2.2430 H   0  0  0  0  0  0  0  0  0  0  0  0
    5.2488    3.3700   -3.4062 H   0  0  0  0  0  0  0  0  0  0  0  0
    4.5027    3.9061   -1.8961 H   0  0  0  0  0  0  0  0  0  0  0  0
    7.6762    4.2360   -3.9428 H   0  0  0  0  0  0  0  0  0  0  0  0
    8.4179    5.3307   -2.7893 H   0  0  0  0  0  0  0  0  0  0  0  0
    5.2104    8.7754   -2.6763 H   0  0  0  0  0  0  0  0  0  0  0  0
    5.9229    8.2370   -4.2023 H   0  0  0  0  0  0  0  0  0  0  0  0
    6.1305    7.6941   -0.4534 H   0  0  0  0  0  0  0  0  0  0  0  0
    7.3981    6.4904   -0.6084 H   0  0  0  0  0  0  0  0  0  0  0  0
    5.2228    1.5199   -1.7791 H   0  0  0  0  0  0  0  0  0  0  0  0
    5.9950    2.5435   -0.5510 H   0  0  0  0  0  0  0  0  0  0  0  0
    9.3680    3.2017   -2.7173 H   0  0  0  0  0  0  0  0  0  0  0  0
    6.6782   10.5315   -3.5933 H   0  0  0  0  0  0  0  0  0  0  0  0
    8.0172    9.3800   -3.7471 H   0  0  0  0  0  0  0  0  0  0  0  0
    8.9152    8.0936   -1.2918 H   0  0  0  0  0  0  0  0  0  0  0  0
  1  2  1  0  0  0  0 
  1  3  1  0  0  0  0 
  2  4  1  0  0  0  0 
  2  5  1  0  0  0  0 
  3  6  1  0  0  0  0 
  3  7  1  0  0  0  0 
  4  8  1  0  0  0  0 
  5  9  1  0  0  0  0 
  6 10  1  0  0  0  0 
  7 11  1  0  0  0  0 
  8 12  1  0  0  0  0 
  9 12  1  0  0  0  0 
 10 13  1  0  0  0  0 
 11 13  1  0  0  0  0 
 12 14  2  0  0  0  0 
 12 15  2  0  0  0  0 
 13 16  2  0  0  0  0 
 13 17  2  0  0  0  0 
 18  1  1  0  0  0  0 
 19  1  1  0  0  0  0 
 20  4  1  0  0  0  0 
 21  4  1  0  0  0  0 
 22  5  1  0  0  0  0 
 23  5  1  0  0  0  0 
 24  6  1  0  0  0  0 
 25  6  1  0  0  0  0 
 26  7  1  0  0  0  0 
 27  7  1  0  0  0  0 
 28  8  1  0  0  0  0 
 29  8  1  0  0  0  0 
 30  9  1  0  0  0  0 
 31 10  1  0  0  0  0 
 32 10  1  0  0  0  0 
 33 11  1  0  0  0  0 
M  END
> <cdk:Title>
taurolidine

> <Conformer>
1

> <SuperDrugID>
SD002310

$$$$
