cetylpyridinium
  CDK     0628171801

 60 60  0  0  0  0  0  0  0  0999 V2000
    1.5044    3.6498   12.7370 C   0  0  2  0  0  0  0  0  0  0  0  0
    0.4655    3.4751   11.5973 C   0  0  2  0  0  0  0  0  0  0  0  0
    1.0626    2.9466   13.9248 N   0  0  0  0  0  0  0  0  0  0  0  0
    0.8646    4.1998   10.2877 C   0  0  1  0  0  0  0  0  0  0  0  0
    1.4003    1.6288   14.1093 C   0  0  0  0  0  0  0  0  0  0  0  0
    0.2650    3.5833   14.8434 C   0  0  0  0  0  0  0  0  0  0  0  0
   -0.1949    4.0045    9.1706 C   0  0  2  0  0  0  0  0  0  0  0  0
    0.9305    0.9066   15.2225 C   0  0  0  0  0  0  0  0  0  0  0  0
   -0.2299    2.9038   15.9730 C   0  0  0  0  0  0  0  0  0  0  0  0
    0.1974    4.7269    7.8582 C   0  0  2  0  0  0  0  0  0  0  0  0
    0.1043    1.5522   16.1560 C   0  0  0  0  0  0  0  0  0  0  0  0
   -0.8484    4.5455    6.7254 C   0  0  2  0  0  0  0  0  0  0  0  0
   -0.4269    5.2801    5.4259 C   0  0  1  0  0  0  0  0  0  0  0  0
   -1.4588    5.1118    4.2795 C   0  0  1  0  0  0  0  0  0  0  0  0
   -1.0247    5.8518    2.9847 C   0  0  2  0  0  0  0  0  0  0  0  0
   -2.0652    5.6762    1.8447 C   0  0  1  0  0  0  0  0  0  0  0  0
   -1.6474    6.4103    0.5404 C   0  0  2  0  0  0  0  0  0  0  0  0
   -2.6825    6.2403   -0.6063 C   0  0  2  0  0  0  0  0  0  0  0  0
   -2.2782    6.9691   -1.9173 C   0  0  2  0  0  0  0  0  0  0  0  0
   -3.3240    6.7884   -3.0522 C   0  0  1  0  0  0  0  0  0  0  0  0
   -2.9223    7.5157   -4.3632 C   0  0  1  0  0  0  0  0  0  0  0  0
   -3.9588    7.3403   -5.4976 C   0  0  0  0  0  0  0  0  0  0  0  0
    1.6405    4.7177   12.9426 H   0  0  0  0  0  0  0  0  0  0  0  0
    2.4780    3.2750   12.4009 H   0  0  0  0  0  0  0  0  0  0  0  0
   -0.4991    3.8656   11.9367 H   0  0  0  0  0  0  0  0  0  0  0  0
    0.3487    2.4070   11.3881 H   0  0  0  0  0  0  0  0  0  0  0  0
    0.9798    5.2680   10.4923 H   0  0  0  0  0  0  0  0  0  0  0  0
    1.8269    3.8102    9.9437 H   0  0  0  0  0  0  0  0  0  0  0  0
    1.9934    1.1434   13.4297 H   0  0  0  0  0  0  0  0  0  0  0  0
    0.0055    4.5656   14.7149 H   0  0  0  0  0  0  0  0  0  0  0  0
   -1.1564    4.3925    9.5187 H   0  0  0  0  0  0  0  0  0  0  0  0
   -0.3093    2.9355    8.9699 H   0  0  0  0  0  0  0  0  0  0  0  0
    1.1799   -0.0764   15.3480 H   0  0  0  0  0  0  0  0  0  0  0  0
   -0.8294    3.3826   16.6473 H   0  0  0  0  0  0  0  0  0  0  0  0
    1.1601    4.3375    7.5158 H   0  0  0  0  0  0  0  0  0  0  0  0
    0.3131    5.7945    8.0645 H   0  0  0  0  0  0  0  0  0  0  0  0
   -0.2575    1.0388   16.9638 H   0  0  0  0  0  0  0  0  0  0  0  0
   -1.8135    4.9356    7.0620 H   0  0  0  0  0  0  0  0  0  0  0  0
   -0.9666    3.4788    6.5133 H   0  0  0  0  0  0  0  0  0  0  0  0
   -0.3062    6.3455    5.6451 H   0  0  0  0  0  0  0  0  0  0  0  0
    0.5408    4.8888    5.0965 H   0  0  0  0  0  0  0  0  0  0  0  0
   -1.5779    4.0455    4.0647 H   0  0  0  0  0  0  0  0  0  0  0  0
   -2.4250    5.5024    4.6134 H   0  0  0  0  0  0  0  0  0  0  0  0
   -0.0599    5.3632    2.6326 H   0  0  0  0  0  0  0  0  0  0  0  0
   -0.9888    6.9608    3.2342 H   0  0  0  0  0  0  0  0  0  0  0  0
   -2.1855    4.6097    1.6309 H   0  0  0  0  0  0  0  0  0  0  0  0
   -3.0318    6.0654    2.1792 H   0  0  0  0  0  0  0  0  0  0  0  0
   -0.6816    6.0203    0.2064 H   0  0  0  0  0  0  0  0  0  0  0  0
   -1.5281    7.4763    0.7547 H   0  0  0  0  0  0  0  0  0  0  0  0
   -3.6473    6.6296   -0.2699 H   0  0  0  0  0  0  0  0  0  0  0  0
   -2.8012    5.1742   -0.8181 H   0  0  0  0  0  0  0  0  0  0  0  0
   -1.3146    6.5811   -2.2590 H   0  0  0  0  0  0  0  0  0  0  0  0
   -2.1608    8.0366   -1.7109 H   0  0  0  0  0  0  0  0  0  0  0  0
   -3.4417    5.7212   -3.2599 H   0  0  0  0  0  0  0  0  0  0  0  0
   -4.2880    7.1768   -2.7117 H   0  0  0  0  0  0  0  0  0  0  0  0
   -2.8067    8.5844   -4.1639 H   0  0  0  0  0  0  0  0  0  0  0  0
   -1.9608    7.1295   -4.7118 H   0  0  0  0  0  0  0  0  0  0  0  0
   -3.6245    7.8715   -6.3919 H   0  0  0  0  0  0  0  0  0  0  0  0
   -4.0770    6.2837   -5.7465 H   0  0  0  0  0  0  0  0  0  0  0  0
   -4.9269    7.7455   -5.1960 H   0  0  0  0  0  0  0  0  0  0  0  0
  1  2  1  0  0  0  0 
  1  3  1  0  0  0  0 
  2  4  1  0  0  0  0 
  3  5  2  0  0  0  0 
  3  6  1  0  0  0  0 
  4  7  1  0  0  0  0 
  5  8  1  0  0  0  0 
  6  9  2  0  0  0  0 
  7 10  1  0  0  0  0 
  8 11  2  0  0  0  0 
  9 11  1  0  0  0  0 
 10 12  1  0  0  0  0 
 12 13  1  0  0  0  0 
 13 14  1  0  0  0  0 
 14 15  1  0  0  0  0 
 15 16  1  0  0  0  0 
 16 17  1  0  0  0  0 
 17 18  1  0  0  0  0 
 18 19  1  0  0  0  0 
 19 20  1  0  0  0  0 
 20 21  1  0  0  0  0 
 21 22  1  0  0  0  0 
  1 23  1  0  0  0  0 
  1 24  1  0  0  0  0 
  2 25  1  0  0  0  0 
  2 26  1  0  0  0  0 
  4 27  1  0  0  0  0 
  4 28  1  0  0  0  0 
  5 29  1  0  0  0  0 
  6 30  1  0  0  0  0 
  7 31  1  0  0  0  0 
  7 32  1  0  0  0  0 
  8 33  1  0  0  0  0 
  9 34  1  0  0  0  0 
 10 35  1  0  0  0  0 
 10 36  1  0  0  0  0 
 11 37  1  0  0  0  0 
 12 38  1  0  0  0  0 
 12 39  1  0  0  0  0 
 13 40  1  0  0  0  0 
 13 41  1  0  0  0  0 
 14 42  1  0  0  0  0 
 14 43  1  0  0  0  0 
 15 44  1  0  0  0  0 
 15 45  1  0  0  0  0 
 16 46  1  0  0  0  0 
 16 47  1  0  0  0  0 
 17 48  1  0  0  0  0 
 17 49  1  0  0  0  0 
 18 50  1  0  0  0  0 
 18 51  1  0  0  0  0 
 19 52  1  0  0  0  0 
 19 53  1  0  0  0  0 
 20 54  1  0  0  0  0 
 20 55  1  0  0  0  0 
 21 56  1  0  0  0  0 
 21 57  1  0  0  0  0 
 22 58  1  0  0  0  0 
 22 59  1  0  0  0  0 
 22 60  1  0  0  0  0 
M  CHG  1   3   1
M  END
> <cdk:Title>
cetylpyridinium

> <Conformer>
1

> <SuperDrugID>
SD002678

$$$$
