ganciclovir
  CDK     0628171801

 31 32  0  0  0  0  0  0  0  0999 V2000
    0.0639   -0.8215    0.2475 C   0  0  2  0  0  0  0  0  0  0  0  0
   -0.4652    0.4231   -0.2494 O   0  0  0  0  0  0  0  0  0  0  0  0
    1.4072   -0.6360    0.7036 N   0  0  0  0  0  0  0  0  0  0  0  0
   -1.8500    0.4206   -0.6731 C   0  0  2  0  0  0  0  0  0  0  0  0
    2.4435   -0.1753   -0.0168 C   0  0  0  0  0  0  0  0  0  0  0  0
    1.8994   -0.9174    1.9317 C   0  0  0  0  0  0  0  0  0  0  0  0
   -2.0745   -0.3452   -2.0088 C   0  0  1  0  0  0  0  0  0  0  0  0
   -2.2680    1.9068   -0.8105 C   0  0  2  0  0  0  0  0  0  0  0  0
    3.5694   -0.2150    0.7977 C   0  0  0  0  0  0  0  0  0  0  0  0
    2.5162    0.2735   -1.2956 N   0  0  0  0  0  0  0  0  0  0  0  0
    3.2222   -0.6704    2.0089 N   0  0  0  0  0  0  0  0  0  0  0  0
   -2.0827   -1.7546   -1.8135 O   0  0  0  0  0  0  0  0  0  0  0  0
   -2.1205    2.5946    0.4281 O   0  0  0  0  0  0  0  0  0  0  0  0
    4.8044    0.1941    0.2710 C   0  0  0  0  0  0  0  0  0  0  0  0
    3.7157    0.6916   -1.7873 C   0  0  0  0  0  0  0  0  0  0  0  0
    5.8504    0.1538    0.9559 O   0  0  0  0  0  0  0  0  0  0  0  0
    4.8390    0.6410   -1.0148 N   0  0  0  0  0  0  0  0  0  0  0  0
    3.7986    1.1691   -3.0364 N   0  0  0  0  0  0  0  0  0  0  0  0
    0.0934   -1.5669   -0.5476 H   0  0  0  0  0  0  0  0  0  0  0  0
   -0.5674   -1.2018    1.0568 H   0  0  0  0  0  0  0  0  0  0  0  0
   -2.4856   -0.0224    0.1018 H   0  0  0  0  0  0  0  0  0  0  0  0
    1.3503   -1.2849    2.7126 H   0  0  0  0  0  0  0  0  0  0  0  0
   -3.0388   -0.0833   -2.4474 H   0  0  0  0  0  0  0  0  0  0  0  0
   -1.2873   -0.0950   -2.7216 H   0  0  0  0  0  0  0  0  0  0  0  0
   -3.3150    1.9788   -1.1115 H   0  0  0  0  0  0  0  0  0  0  0  0
   -1.6516    2.4054   -1.5614 H   0  0  0  0  0  0  0  0  0  0  0  0
   -2.1698   -2.1315   -2.7146 H   0  0  0  0  0  0  0  0  0  0  0  0
   -2.4318    3.5073    0.2486 H   0  0  0  0  0  0  0  0  0  0  0  0
    5.6840    0.9362   -1.3892 H   0  0  0  0  0  0  0  0  0  0  0  0
    3.0052    1.2262   -3.5908 H   0  0  0  0  0  0  0  0  0  0  0  0
    4.6534    1.4718   -3.3806 H   0  0  0  0  0  0  0  0  0  0  0  0
  1  2  1  0  0  0  0 
  1  3  1  0  0  0  0 
  2  4  1  0  0  0  0 
  3  5  1  0  0  0  0 
  3  6  1  0  0  0  0 
  4  7  1  0  0  0  0 
  4  8  1  0  0  0  0 
  5  9  2  0  0  0  0 
  5 10  1  0  0  0  0 
  6 11  2  0  0  0  0 
  7 12  1  0  0  0  0 
  8 13  1  0  0  0  0 
  9 11  1  0  0  0  0 
  9 14  1  0  0  0  0 
 10 15  2  0  0  0  0 
 14 16  2  0  0  0  0 
 14 17  1  0  0  0  0 
 15 17  1  0  0  0  0 
 15 18  1  0  0  0  0 
 19  1  1  0  0  0  0 
 20  1  1  0  0  0  0 
 21  4  1  0  0  0  0 
 22  6  1  0  0  0  0 
 23  7  1  0  0  0  0 
 24  7  1  0  0  0  0 
 25  8  1  0  0  0  0 
 26  8  1  0  0  0  0 
 27 12  1  0  0  0  0 
 28 13  1  0  0  0  0 
 29 17  1  0  0  0  0 
 30 18  1  0  0  0  0 
 31 18  1  0  0  0  0 
M  END
> <cdk:Title>
ganciclovir

> <Conformer>
1

> <SuperDrugID>
SD001139

$$$$
