antimony pentasulfide
  CDK     0628171802

  7  6  0  0  0  0  0  0  0  0999 V2000
    2.4676    0.2766    0.0000 Sb  0  0  0  0  0  0  0  0  0  0  0  0
    0.0132    0.0187    0.0000 S   0  0  0  0  0  0  0  0  0  0  0  0
   -0.5618    2.4187    0.0000 Sb  0  0  0  0  0  0  0  0  0  0  0  0
    3.6731   -0.1332   -2.1064 S   0  0  0  0  0  0  0  0  0  0  0  0
    3.6731   -0.1332    2.1064 S   0  0  0  0  0  0  0  0  0  0  0  0
   -1.3500    3.4186    2.1064 S   0  0  0  0  0  0  0  0  0  0  0  0
   -1.3500    3.4186   -2.1064 S   0  0  0  0  0  0  0  0  0  0  0  0
  1  2  1  0  0  0  0 
  2  3  1  0  0  0  0 
  1  4  2  0  0  0  0 
  1  5  2  0  0  0  0 
  3  6  2  0  0  0  0 
  3  7  2  0  0  0  0 
M  END
> <cdk:Title>
antimony pentasulfide

> <Conformer>
1

> <SuperDrugID>
SD003798

$$$$
