Padimate A
  CDK     0628171802

 38 38  0  0  0  0  0  0  0  0999 V2000
    4.4932    1.7868    0.6708 C   0  0  0  0  0  0  0  0  0  0  0  0
    5.3979    1.3056   -0.2436 O   0  0  0  0  0  0  0  0  0  0  0  0
    4.8808    2.6054    1.5404 O   0  0  0  0  0  0  0  0  0  0  0  0
    3.1420    1.3384    0.6440 C   0  0  0  0  0  0  0  0  0  0  0  0
    6.8024    1.5893   -0.3054 C   0  0  2  0  0  0  0  0  0  0  0  0
    2.2147    1.7102    1.6497 C   0  0  0  0  0  0  0  0  0  0  0  0
    2.6867    0.4834   -0.3878 C   0  0  0  0  0  0  0  0  0  0  0  0
    7.4665    0.8048   -1.4698 C   0  0  2  0  0  0  0  0  0  0  0  0
    0.8953    1.2207    1.6384 C   0  0  0  0  0  0  0  0  0  0  0  0
    1.3687   -0.0036   -0.3983 C   0  0  0  0  0  0  0  0  0  0  0  0
    9.0327    0.8727   -1.5037 C   0  0  2  0  0  0  0  0  0  0  0  0
    0.4526    0.3427    0.6210 C   0  0  0  0  0  0  0  0  0  0  0  0
    9.5943    0.4254   -2.8858 C   0  0  0  0  0  0  0  0  0  0  0  0
    9.6992    0.0377   -0.3689 C   0  0  0  0  0  0  0  0  0  0  0  0
   -0.8320   -0.1683    0.6083 N   0  0  0  0  0  0  0  0  0  0  0  0
   -1.9660    0.6999    0.8074 C   0  0  0  0  0  0  0  0  0  0  0  0
   -1.0734   -1.5846    0.4469 C   0  0  0  0  0  0  0  0  0  0  0  0
    7.2447    1.3039    0.6477 H   0  0  0  0  0  0  0  0  0  0  0  0
    6.9453    2.6612   -0.4500 H   0  0  0  0  0  0  0  0  0  0  0  0
    2.4907    2.3361    2.4113 H   0  0  0  0  0  0  0  0  0  0  0  0
    3.3099    0.1971   -1.1439 H   0  0  0  0  0  0  0  0  0  0  0  0
    7.0653    1.2179   -2.4017 H   0  0  0  0  0  0  0  0  0  0  0  0
    7.1546   -0.2429   -1.4154 H   0  0  0  0  0  0  0  0  0  0  0  0
    0.2620    1.5067    2.3883 H   0  0  0  0  0  0  0  0  0  0  0  0
    1.0814   -0.6177   -1.1638 H   0  0  0  0  0  0  0  0  0  0  0  0
    9.3295    1.9180   -1.3660 H   0  0  0  0  0  0  0  0  0  0  0  0
    9.1976    1.0561   -3.6827 H   0  0  0  0  0  0  0  0  0  0  0  0
   10.6828    0.5123   -2.9067 H   0  0  0  0  0  0  0  0  0  0  0  0
    9.3276   -0.6110   -3.0981 H   0  0  0  0  0  0  0  0  0  0  0  0
    9.3970    0.3962    0.6146 H   0  0  0  0  0  0  0  0  0  0  0  0
   10.7873    0.1170   -0.4237 H   0  0  0  0  0  0  0  0  0  0  0  0
    9.4261   -1.0158   -0.4527 H   0  0  0  0  0  0  0  0  0  0  0  0
   -2.8793    0.2768    0.3833 H   0  0  0  0  0  0  0  0  0  0  0  0
   -2.1264    0.8526    1.8765 H   0  0  0  0  0  0  0  0  0  0  0  0
   -1.8082    1.6732    0.3332 H   0  0  0  0  0  0  0  0  0  0  0  0
   -1.7420   -1.9423    1.2317 H   0  0  0  0  0  0  0  0  0  0  0  0
   -0.1606   -2.1821    0.5041 H   0  0  0  0  0  0  0  0  0  0  0  0
   -1.5431   -1.7719   -0.5207 H   0  0  0  0  0  0  0  0  0  0  0  0
  1  2  1  0  0  0  0 
  1  3  2  0  0  0  0 
  1  4  1  0  0  0  0 
  2  5  1  0  0  0  0 
  4  6  2  0  0  0  0 
  4  7  1  0  0  0  0 
  5  8  1  0  0  0  0 
  6  9  1  0  0  0  0 
  7 10  2  0  0  0  0 
  8 11  1  0  0  0  0 
  9 12  2  0  0  0  0 
 10 12  1  0  0  0  0 
 11 13  1  0  0  0  0 
 11 14  1  0  0  0  0 
 12 15  1  0  0  0  0 
 15 16  1  0  0  0  0 
 15 17  1  0  0  0  0 
  5 18  1  0  0  0  0 
  5 19  1  0  0  0  0 
  6 20  1  0  0  0  0 
  7 21  1  0  0  0  0 
  8 22  1  0  0  0  0 
  8 23  1  0  0  0  0 
  9 24  1  0  0  0  0 
 10 25  1  0  0  0  0 
 11 26  1  0  0  0  0 
 13 27  1  0  0  0  0 
 13 28  1  0  0  0  0 
 13 29  1  0  0  0  0 
 14 30  1  0  0  0  0 
 14 31  1  0  0  0  0 
 14 32  1  0  0  0  0 
 16 33  1  0  0  0  0 
 16 34  1  0  0  0  0 
 16 35  1  0  0  0  0 
 17 36  1  0  0  0  0 
 17 37  1  0  0  0  0 
 17 38  1  0  0  0  0 
M  END
> <cdk:Title>
Padimate A

> <Conformer>
1

> <SuperDrugID>
SD003675

$$$$
