rociverine
  CDK     0628171801

 61 62  0  0  0  0  0  0  0  0999 V2000
   -3.3411    0.9626    0.2030 O   0  0  0  0  0  0  0  0  0  0  0  0
   -2.0567    0.7257   -0.3902 C   0  0  1  0  0  0  0  0  0  0  0  0
   -2.1313    1.2783   -1.8800 C   0  0  1  0  0  0  0  0  0  0  0  0
   -1.0124    1.6102    0.3947 C   0  0  1  0  0  0  0  0  0  0  0  0
   -1.7713   -0.8452   -0.2596 C   0  0  1  0  0  0  0  0  0  0  0  0
   -2.8835    2.5694   -2.0394 C   0  0  0  0  0  0  0  0  0  0  0  0
   -0.7217    1.3466   -2.5499 C   0  0  2  0  0  0  0  0  0  0  0  0
    0.3901    1.6554   -0.2683 C   0  0  2  0  0  0  0  0  0  0  0  0
   -1.7326   -1.3634    1.2256 C   0  0  2  0  0  0  0  0  0  0  0  0
   -2.7564   -1.7665   -1.0676 C   0  0  1  0  0  0  0  0  0  0  0  0
   -2.4313    3.7366   -1.4812 O   0  0  0  0  0  0  0  0  0  0  0  0
   -3.9581    2.5748   -2.6885 O   0  0  0  0  0  0  0  0  0  0  0  0
    0.3090    2.1593   -1.7276 C   0  0  1  0  0  0  0  0  0  0  0  0
   -1.4423   -2.8809    1.3664 C   0  0  2  0  0  0  0  0  0  0  0  0
   -2.4650   -3.2861   -0.9203 C   0  0  2  0  0  0  0  0  0  0  0  0
   -3.0303    5.0477   -1.5120 C   0  0  2  0  0  0  0  0  0  0  0  0
   -2.4388   -3.7386    0.5567 C   0  0  1  0  0  0  0  0  0  0  0  0
   -2.0454    6.0519   -2.1856 C   0  0  2  0  0  0  0  0  0  0  0  0
   -3.3922    5.4614   -0.0638 C   0  0  0  0  0  0  0  0  0  0  0  0
   -1.5878    5.6409   -3.5617 N   0  0  2  0  0  0  0  0  0  0  0  0
   -0.3125    6.3051   -4.0204 C   0  0  1  0  0  0  0  0  0  0  0  0
   -2.6837    5.7689   -4.5932 C   0  0  1  0  0  0  0  0  0  0  0  0
    0.9697    5.9836   -3.2111 C   0  0  0  0  0  0  0  0  0  0  0  0
   -2.5081    4.8412   -5.8148 C   0  0  0  0  0  0  0  0  0  0  0  0
   -3.2332    0.7671    1.1556 H   0  0  0  0  0  0  0  0  0  0  0  0
   -2.6951    0.5678   -2.4809 H   0  0  0  0  0  0  0  0  0  0  0  0
   -1.3795    2.6328    0.4722 H   0  0  0  0  0  0  0  0  0  0  0  0
   -0.8999    1.2864    1.4252 H   0  0  0  0  0  0  0  0  0  0  0  0
   -0.7804   -1.0347   -0.6760 H   0  0  0  0  0  0  0  0  0  0  0  0
   -0.8016    1.7725   -3.5545 H   0  0  0  0  0  0  0  0  0  0  0  0
   -0.3373    0.3307   -2.6688 H   0  0  0  0  0  0  0  0  0  0  0  0
    0.8474    0.6639   -0.2508 H   0  0  0  0  0  0  0  0  0  0  0  0
    1.0406    2.3239    0.2989 H   0  0  0  0  0  0  0  0  0  0  0  0
   -2.6847   -1.1459    1.7167 H   0  0  0  0  0  0  0  0  0  0  0  0
   -0.9438   -0.8628    1.7851 H   0  0  0  0  0  0  0  0  0  0  0  0
   -3.7852   -1.5690   -0.7548 H   0  0  0  0  0  0  0  0  0  0  0  0
   -2.6831   -1.5656   -2.1361 H   0  0  0  0  0  0  0  0  0  0  0  0
    1.2922    2.0847   -2.1986 H   0  0  0  0  0  0  0  0  0  0  0  0
    0.0293    3.2121   -1.7296 H   0  0  0  0  0  0  0  0  0  0  0  0
   -1.5034   -3.1668    2.4197 H   0  0  0  0  0  0  0  0  0  0  0  0
   -0.4258   -3.0887    1.0206 H   0  0  0  0  0  0  0  0  0  0  0  0
   -1.4972   -3.5130   -1.3787 H   0  0  0  0  0  0  0  0  0  0  0  0
   -3.2298   -3.8586   -1.4535 H   0  0  0  0  0  0  0  0  0  0  0  0
   -3.9747    5.0337   -2.0564 H   0  0  0  0  0  0  0  0  0  0  0  0
   -2.1383   -4.7894    0.6091 H   0  0  0  0  0  0  0  0  0  0  0  0
   -3.4402   -3.6515    0.9878 H   0  0  0  0  0  0  0  0  0  0  0  0
   -1.1945    6.1218   -1.5092 H   0  0  0  0  0  0  0  0  0  0  0  0
   -2.5023    7.0456   -2.2339 H   0  0  0  0  0  0  0  0  0  0  0  0
   -3.8034    6.4744   -0.0412 H   0  0  0  0  0  0  0  0  0  0  0  0
   -4.1450    4.7809    0.3410 H   0  0  0  0  0  0  0  0  0  0  0  0
   -2.5099    5.4237    0.5769 H   0  0  0  0  0  0  0  0  0  0  0  0
   -0.0932    5.9880   -5.0420 H   0  0  0  0  0  0  0  0  0  0  0  0
   -0.4467    7.3894   -4.0457 H   0  0  0  0  0  0  0  0  0  0  0  0
   -3.6539    5.5000   -4.1767 H   0  0  0  0  0  0  0  0  0  0  0  0
   -2.7727    6.8050   -4.9333 H   0  0  0  0  0  0  0  0  0  0  0  0
    1.0352    4.8604   -3.1393 H   0  0  0  0  0  0  0  0  0  0  0  0
    1.8479    6.2700   -3.8673 H   0  0  0  0  0  0  0  0  0  0  0  0
    0.9040    6.5646   -2.1960 H   0  0  0  0  0  0  0  0  0  0  0  0
   -3.4440    4.7930   -6.3753 H   0  0  0  0  0  0  0  0  0  0  0  0
   -2.2370    3.8352   -5.4902 H   0  0  0  0  0  0  0  0  0  0  0  0
   -1.7397    5.2228   -6.4875 H   0  0  0  0  0  0  0  0  0  0  0  0
  2  1  1  0  0  0  0 
  3  2  1  0  0  0  0 
  2  4  1  0  0  0  0 
  2  5  1  0  0  0  0 
  3  6  1  0  0  0  0 
  3  7  1  0  0  0  0 
  4  8  1  0  0  0  0 
  5  9  1  0  0  0  0 
  5 10  1  0  0  0  0 
  6 11  1  0  0  0  0 
  6 12  2  0  0  0  0 
  7 13  1  0  0  0  0 
  8 13  1  0  0  0  0 
  9 14  1  0  0  0  0 
 10 15  1  0  0  0  0 
 11 16  1  0  0  0  0 
 14 17  1  0  0  0  0 
 15 17  1  0  0  0  0 
 16 18  1  0  0  0  0 
 16 19  1  0  0  0  0 
 18 20  1  0  0  0  0 
 20 21  1  0  0  0  0 
 20 22  1  0  0  0  0 
 21 23  1  0  0  0  0 
 22 24  1  0  0  0  0 
  1 25  1  0  0  0  0 
  3 26  1  0  0  0  0 
  4 27  1  0  0  0  0 
  4 28  1  0  0  0  0 
  5 29  1  0  0  0  0 
  7 30  1  0  0  0  0 
  7 31  1  0  0  0  0 
  8 32  1  0  0  0  0 
  8 33  1  0  0  0  0 
  9 34  1  0  0  0  0 
  9 35  1  0  0  0  0 
 10 36  1  0  0  0  0 
 10 37  1  0  0  0  0 
 13 38  1  0  0  0  0 
 13 39  1  0  0  0  0 
 14 40  1  0  0  0  0 
 14 41  1  0  0  0  0 
 15 42  1  0  0  0  0 
 15 43  1  0  0  0  0 
 16 44  1  0  0  0  0 
 17 45  1  0  0  0  0 
 17 46  1  0  0  0  0 
 18 47  1  0  0  0  0 
 18 48  1  0  0  0  0 
 19 49  1  0  0  0  0 
 19 50  1  0  0  0  0 
 19 51  1  0  0  0  0 
 21 52  1  0  0  0  0 
 21 53  1  0  0  0  0 
 22 54  1  0  0  0  0 
 22 55  1  0  0  0  0 
 23 56  1  0  0  0  0 
 23 57  1  0  0  0  0 
 23 58  1  0  0  0  0 
 24 59  1  0  0  0  0 
 24 60  1  0  0  0  0 
 24 61  1  0  0  0  0 
M  END
> <cdk:Title>
rociverine

> <Conformer>
1

> <SuperDrugID>
SD002155

$$$$
