santonin
  Mrv0541 09131710103D              74.45965

 36 38  0  0  0  0            999 V2000
    1.5446    5.0421   -1.5524 C   0  0  0  0  0  0  0  0  0  0  0  0
    0.8469    4.4468   -0.3059 C   0  0  1  0  0  0  0  0  0  0  0  0
   -0.0440    3.2162   -0.6173 C   0  0  2  0  0  0  0  0  0  0  0  0
   -1.4870    3.4569   -1.1233 C   0  0  2  0  0  0  0  0  0  0  0  0
   -2.2002    2.0828   -1.2721 C   0  0  1  0  0  0  0  0  0  0  0  0
   -2.0620    1.1167   -0.0259 C   0  0  1  0  0  0  0  0  0  0  0  0
   -3.0436    1.5485    1.1220 C   0  0  0  0  0  0  0  0  0  0  0  0
   -2.5460   -0.2049   -0.4619 C   0  0  0  0  0  0  0  0  0  0  0  0
   -1.8459   -1.3311   -0.2810 C   0  0  0  0  0  0  0  0  0  0  0  0
   -0.6069   -1.3007    0.3295 C   0  0  0  0  0  0  0  0  0  0  0  0
   -0.0791   -2.4196    0.5389 O   0  0  0  0  0  0  0  0  0  0  0  0
    0.0293   -0.0894    0.6764 C   0  0  0  0  0  0  0  0  0  0  0  0
   -0.6401    1.0877    0.4856 C   0  0  0  0  0  0  0  0  0  0  0  0
   -0.0609    2.4304    0.7169 C   0  0  1  0  0  0  0  0  0  0  0  0
    1.2791    2.6602    1.1561 O   0  0  0  0  0  0  0  0  0  0  0  0
    1.7560    3.8358    0.6778 C   0  0  0  0  0  0  0  0  0  0  0  0
    2.8339    4.3360    1.0663 O   0  0  0  0  0  0  0  0  0  0  0  0
    1.3984   -0.1408    1.2071 C   0  0  0  0  0  0  0  0  0  0  0  0
    2.1198    4.2835   -2.0882 H   0  0  0  0  0  0  0  0  0  0  0  0
    0.7931    5.4538   -2.2264 H   0  0  0  0  0  0  0  0  0  0  0  0
    2.2176    5.8463   -1.2544 H   0  0  0  0  0  0  0  0  0  0  0  0
    0.2684    5.2291    0.1944 H   0  0  0  0  0  0  0  0  0  0  0  0
    0.4717    2.6048   -1.3727 H   0  0  0  0  0  0  0  0  0  0  0  0
   -1.4581    3.9617   -2.0922 H   0  0  0  0  0  0  0  0  0  0  0  0
   -2.0353    4.0934   -0.4261 H   0  0  0  0  0  0  0  0  0  0  0  0
   -3.2538    2.2679   -1.4953 H   0  0  0  0  0  0  0  0  0  0  0  0
   -1.7739    1.5976   -2.1577 H   0  0  0  0  0  0  0  0  0  0  0  0
   -2.8883    2.5808    1.4314 H   0  0  0  0  0  0  0  0  0  0  0  0
   -2.9108    0.9107    2.0006 H   0  0  0  0  0  0  0  0  0  0  0  0
   -4.0869    1.4782    0.8030 H   0  0  0  0  0  0  0  0  0  0  0  0
   -3.4368   -0.2755   -0.9039 H   0  0  0  0  0  0  0  0  0  0  0  0
   -2.2328   -2.1950   -0.5917 H   0  0  0  0  0  0  0  0  0  0  0  0
   -0.6723    2.9451    1.4639 H   0  0  0  0  0  0  0  0  0  0  0  0
    1.7951   -1.1475    1.3305 H   0  0  0  0  0  0  0  0  0  0  0  0
    1.4353    0.3266    2.1929 H   0  0  0  0  0  0  0  0  0  0  0  0
    2.0803    0.3731    0.5285 H   0  0  0  0  0  0  0  0  0  0  0  0
  2  1  1  0  0  0  0
  2  3  1  0  0  0  0
  3  4  1  0  0  0  0
  4  5  1  0  0  0  0
  5  6  1  0  0  0  0
  6  7  1  0  0  0  0
  6  8  1  0  0  0  0
  8  9  2  0  0  0  0
  9 10  1  0  0  0  0
 10 11  2  0  0  0  0
 10 12  1  0  0  0  0
 12 13  2  0  0  0  0
 14 13  1  0  0  0  0
 14 15  1  0  0  0  0
 15 16  1  0  0  0  0
 16 17  2  0  0  0  0
 12 18  1  0  0  0  0
 16  2  1  0  0  0  0
 14  3  1  0  0  0  0
 13  6  1  0  0  0  0
  1 19  1  0  0  0  0
  1 20  1  0  0  0  0
  1 21  1  0  0  0  0
  2 22  1  0  0  0  0
  3 23  1  0  0  0  0
  4 24  1  0  0  0  0
  4 25  1  0  0  0  0
  5 26  1  0  0  0  0
  5 27  1  0  0  0  0
  7 28  1  0  0  0  0
  7 29  1  0  0  0  0
  7 30  1  0  0  0  0
  8 31  1  0  0  0  0
  9 32  1  0  0  0  0
 14 33  1  0  0  0  0
 18 34  1  0  0  0  0
 18 35  1  0  0  0  0
 18 36  1  0  0  0  0
M  END
>  <SuperDrugID>
SD006032

>  <_MOLCOUNT>
1

$$$$
