oxypendyl
  CDK     0628171801

 52 55  0  0  0  0  0  0  0  0999 V2000
   -0.3424   -0.3229    0.2411 C   0  0  1  0  0  0  0  0  0  0  0  0
   -1.6554   -1.0826    0.6052 C   0  0  1  0  0  0  0  0  0  0  0  0
    0.8164   -1.1264   -0.1537 N   0  0  0  0  0  0  0  0  0  0  0  0
   -2.0863   -2.1734   -0.4111 C   0  0  2  0  0  0  0  0  0  0  0  0
    1.5788   -0.7817   -1.2823 C   0  0  0  0  0  0  0  0  0  0  0  0
    1.1584   -2.2333    0.6184 C   0  0  0  0  0  0  0  0  0  0  0  0
   -2.1289   -1.7194   -1.8401 N   0  0  1  0  0  0  0  0  0  0  0  0
    2.2099   -1.7697   -2.0868 C   0  0  0  0  0  0  0  0  0  0  0  0
    1.7895    0.5727   -1.6599 C   0  0  0  0  0  0  0  0  0  0  0  0
    1.7129   -3.4101    0.0571 C   0  0  0  0  0  0  0  0  0  0  0  0
    0.9387   -2.2288    1.9661 N   0  0  0  0  0  0  0  0  0  0  0  0
   -2.1202   -2.8686   -2.7957 C   0  0  1  0  0  0  0  0  0  0  0  0
   -3.2447   -0.7702   -2.1447 C   0  0  1  0  0  0  0  0  0  0  0  0
    2.0560   -3.4678   -1.6624 S   0  0  0  0  0  0  0  0  0  0  0  0
    2.9874   -1.4286   -3.2124 C   0  0  0  0  0  0  0  0  0  0  0  0
    2.5549    0.9211   -2.7898 C   0  0  0  0  0  0  0  0  0  0  0  0
    1.9941   -4.5244    0.8711 C   0  0  0  0  0  0  0  0  0  0  0  0
    1.1966   -3.2805    2.7844 C   0  0  0  0  0  0  0  0  0  0  0  0
   -2.0564   -2.3804   -4.2616 C   0  0  1  0  0  0  0  0  0  0  0  0
   -3.1738   -0.2738   -3.6102 C   0  0  2  0  0  0  0  0  0  0  0  0
    3.1513   -0.0819   -3.5687 C   0  0  0  0  0  0  0  0  0  0  0  0
    1.7254   -4.4657    2.2483 C   0  0  0  0  0  0  0  0  0  0  0  0
   -3.1537   -1.4115   -4.5798 N   0  0  1  0  0  0  0  0  0  0  0  0
   -3.1237   -1.0077   -6.0268 C   0  0  2  0  0  0  0  0  0  0  0  0
   -4.3010   -0.1230   -6.5092 C   0  0  2  0  0  0  0  0  0  0  0  0
   -4.3030   -0.0256   -7.9299 O   0  0  0  0  0  0  0  0  0  0  0  0
   -0.6313    0.3617   -0.5590 H   0  0  0  0  0  0  0  0  0  0  0  0
   -0.0596    0.3014    1.0943 H   0  0  0  0  0  0  0  0  0  0  0  0
   -1.5538   -1.5466    1.5895 H   0  0  0  0  0  0  0  0  0  0  0  0
   -2.4623   -0.3535    0.7081 H   0  0  0  0  0  0  0  0  0  0  0  0
   -3.0644   -2.5619   -0.1138 H   0  0  0  0  0  0  0  0  0  0  0  0
   -1.3806   -3.0012   -0.3004 H   0  0  0  0  0  0  0  0  0  0  0  0
    1.3959    1.3356   -1.1066 H   0  0  0  0  0  0  0  0  0  0  0  0
   -1.2459   -3.5005   -2.6155 H   0  0  0  0  0  0  0  0  0  0  0  0
   -3.0116   -3.4866   -2.6575 H   0  0  0  0  0  0  0  0  0  0  0  0
   -4.2094   -1.2551   -1.9691 H   0  0  0  0  0  0  0  0  0  0  0  0
   -3.1886    0.1064   -1.4969 H   0  0  0  0  0  0  0  0  0  0  0  0
    3.4439   -2.1534   -3.7727 H   0  0  0  0  0  0  0  0  0  0  0  0
    2.6827    1.9040   -3.0422 H   0  0  0  0  0  0  0  0  0  0  0  0
    2.3968   -5.3750    0.4694 H   0  0  0  0  0  0  0  0  0  0  0  0
    1.0028   -3.2049    3.7843 H   0  0  0  0  0  0  0  0  0  0  0  0
   -1.0787   -1.9216   -4.4355 H   0  0  0  0  0  0  0  0  0  0  0  0
   -2.1333   -3.2576   -4.9095 H   0  0  0  0  0  0  0  0  0  0  0  0
   -2.2800    0.3420   -3.7362 H   0  0  0  0  0  0  0  0  0  0  0  0
   -4.0474    0.3561   -3.7886 H   0  0  0  0  0  0  0  0  0  0  0  0
    3.7101    0.1680   -4.3881 H   0  0  0  0  0  0  0  0  0  0  0  0
    1.9166   -5.2696    2.8495 H   0  0  0  0  0  0  0  0  0  0  0  0
   -3.1487   -1.9178   -6.6355 H   0  0  0  0  0  0  0  0  0  0  0  0
   -2.1887   -0.4846   -6.2522 H   0  0  0  0  0  0  0  0  0  0  0  0
   -4.2066    0.8892   -6.1118 H   0  0  0  0  0  0  0  0  0  0  0  0
   -5.2544   -0.5475   -6.1889 H   0  0  0  0  0  0  0  0  0  0  0  0
   -5.0664    0.5543   -8.1335 H   0  0  0  0  0  0  0  0  0  0  0  0
  1  2  1  0  0  0  0 
  1  3  1  0  0  0  0 
  2  4  1  0  0  0  0 
  3  5  1  0  0  0  0 
  3  6  1  0  0  0  0 
  4  7  1  0  0  0  0 
  5  8  2  0  0  0  0 
  5  9  1  0  0  0  0 
  6 10  2  0  0  0  0 
  6 11  1  0  0  0  0 
  7 12  1  0  0  0  0 
  7 13  1  0  0  0  0 
  8 14  1  0  0  0  0 
  8 15  1  0  0  0  0 
  9 16  2  0  0  0  0 
 10 14  1  0  0  0  0 
 10 17  1  0  0  0  0 
 11 18  2  0  0  0  0 
 12 19  1  0  0  0  0 
 13 20  1  0  0  0  0 
 15 21  2  0  0  0  0 
 16 21  1  0  0  0  0 
 17 22  2  0  0  0  0 
 18 22  1  0  0  0  0 
 19 23  1  0  0  0  0 
 20 23  1  0  0  0  0 
 23 24  1  0  0  0  0 
 24 25  1  0  0  0  0 
 25 26  1  0  0  0  0 
  1 27  1  0  0  0  0 
  1 28  1  0  0  0  0 
  2 29  1  0  0  0  0 
  2 30  1  0  0  0  0 
  4 31  1  0  0  0  0 
  4 32  1  0  0  0  0 
  9 33  1  0  0  0  0 
 12 34  1  0  0  0  0 
 12 35  1  0  0  0  0 
 13 36  1  0  0  0  0 
 13 37  1  0  0  0  0 
 15 38  1  0  0  0  0 
 16 39  1  0  0  0  0 
 17 40  1  0  0  0  0 
 18 41  1  0  0  0  0 
 19 42  1  0  0  0  0 
 19 43  1  0  0  0  0 
 20 44  1  0  0  0  0 
 20 45  1  0  0  0  0 
 21 46  1  0  0  0  0 
 22 47  1  0  0  0  0 
 24 48  1  0  0  0  0 
 24 49  1  0  0  0  0 
 25 50  1  0  0  0  0 
 25 51  1  0  0  0  0 
 26 52  1  0  0  0  0 
M  END
> <cdk:Title>
oxypendyl

> <Conformer>
1

> <SuperDrugID>
SD002941

$$$$
