sulfamazone
  CDK     0628171801

 62 65  0  0  0  0  0  0  0  0999 V2000
   -2.2808   -3.1837   -2.1400 C   0  0  2  0  0  0  0  0  0  0  0  0
   -2.5583   -2.2589   -3.1971 N   0  0  0  0  0  0  0  0  0  0  0  0
   -0.7854   -4.1455   -2.5800 S   0  0  1  0  0  0  0  0  0  0  0  0
   -3.4279   -4.0677   -1.8063 C   0  0  0  0  0  0  0  0  0  0  0  0
   -3.4982   -1.2654   -3.1913 C   0  0  0  0  0  0  0  0  0  0  0  0
   -0.9424   -4.8618   -4.0048 O   0  0  0  0  0  0  0  0  0  0  0  0
    0.4937   -3.1806   -2.6230 O   0  0  0  0  0  0  0  0  0  0  0  0
   -0.4973   -5.3409   -1.3933 O   0  0  0  0  0  0  0  0  0  0  0  0
   -4.0727   -4.9578   -2.6535 C   0  0  0  0  0  0  0  0  0  0  0  0
   -4.1604   -4.1024   -0.6165 C   0  0  0  0  0  0  0  0  0  0  0  0
   -3.0802    0.0309   -3.5636 C   0  0  0  0  0  0  0  0  0  0  0  0
   -4.8600   -1.4595   -2.8597 C   0  0  0  0  0  0  0  0  0  0  0  0
   -3.7375   -5.2041   -3.8358 O   0  0  0  0  0  0  0  0  0  0  0  0
   -5.1321   -5.4831   -2.0011 N   0  0  0  0  0  0  0  0  0  0  0  0
   -3.8659   -3.2588    0.5707 C   0  0  0  0  0  0  0  0  0  0  0  0
   -5.1866   -4.9794   -0.7865 N   0  0  0  0  0  0  0  0  0  0  0  0
   -3.9879    1.1080   -3.5833 C   0  0  0  0  0  0  0  0  0  0  0  0
   -5.7652   -0.3851   -2.8665 C   0  0  0  0  0  0  0  0  0  0  0  0
   -5.9967   -6.3863   -2.5720 C   0  0  0  0  0  0  0  0  0  0  0  0
   -6.1893   -5.2538    0.2147 C   0  0  0  0  0  0  0  0  0  0  0  0
   -5.3412    0.9030   -3.2472 C   0  0  0  0  0  0  0  0  0  0  0  0
   -6.7407   -6.0436   -3.7261 C   0  0  0  0  0  0  0  0  0  0  0  0
   -6.1639   -7.6745   -2.0151 C   0  0  0  0  0  0  0  0  0  0  0  0
   -6.4934    2.2518   -3.3060 S   0  0  2  0  0  0  0  0  0  0  0  0
   -7.6252   -6.9689   -4.3120 C   0  0  0  0  0  0  0  0  0  0  0  0
   -7.0566   -8.5964   -2.5933 C   0  0  0  0  0  0  0  0  0  0  0  0
   -8.1086    1.6732   -3.2320 N   0  0  0  0  0  0  0  0  0  0  0  0
   -6.2997    3.0782   -4.6690 O   0  0  0  0  0  0  0  0  0  0  0  0
   -6.2364    3.2403   -2.0678 O   0  0  0  0  0  0  0  0  0  0  0  0
   -7.7824   -8.2469   -3.7465 C   0  0  0  0  0  0  0  0  0  0  0  0
   -9.2124    2.4356   -3.3981 C   0  0  0  0  0  0  0  0  0  0  0  0
  -10.4762    1.8135   -3.4221 C   0  0  0  0  0  0  0  0  0  0  0  0
   -9.1629    3.7885   -3.5454 N   0  0  0  0  0  0  0  0  0  0  0  0
  -11.6241    2.6004   -3.6125 C   0  0  0  0  0  0  0  0  0  0  0  0
  -10.2339    4.5240   -3.7215 N   0  0  0  0  0  0  0  0  0  0  0  0
  -11.4840    3.9915   -3.7725 C   0  0  0  0  0  0  0  0  0  0  0  0
  -12.5807    4.7881   -3.9547 O   0  0  0  0  0  0  0  0  0  0  0  0
  -12.9163    4.9646   -5.3425 C   0  0  0  0  0  0  0  0  0  0  0  0
   -1.9938   -2.5930   -1.2685 H   0  0  0  0  0  0  0  0  0  0  0  0
   -1.9438   -2.2686   -3.9461 H   0  0  0  0  0  0  0  0  0  0  0  0
   -1.0372   -6.1081   -1.6784 H   0  0  0  0  0  0  0  0  0  0  0  0
   -2.1024    0.2038   -3.8092 H   0  0  0  0  0  0  0  0  0  0  0  0
   -5.2274   -2.3781   -2.6262 H   0  0  0  0  0  0  0  0  0  0  0  0
   -3.9043   -2.2011    0.2931 H   0  0  0  0  0  0  0  0  0  0  0  0
   -4.5820   -3.4124    1.3760 H   0  0  0  0  0  0  0  0  0  0  0  0
   -2.8691   -3.4948    0.9496 H   0  0  0  0  0  0  0  0  0  0  0  0
   -3.6540    2.0400   -3.8370 H   0  0  0  0  0  0  0  0  0  0  0  0
   -6.7353   -0.5595   -2.5939 H   0  0  0  0  0  0  0  0  0  0  0  0
   -6.6317   -4.3278    0.5893 H   0  0  0  0  0  0  0  0  0  0  0  0
   -7.0108   -5.8560   -0.1697 H   0  0  0  0  0  0  0  0  0  0  0  0
   -5.7325   -5.7944    1.0467 H   0  0  0  0  0  0  0  0  0  0  0  0
   -6.6461   -5.1143   -4.1430 H   0  0  0  0  0  0  0  0  0  0  0  0
   -5.6370   -7.9481   -1.1829 H   0  0  0  0  0  0  0  0  0  0  0  0
   -8.1562   -6.7112   -5.1471 H   0  0  0  0  0  0  0  0  0  0  0  0
   -7.1765   -9.5207   -2.1749 H   0  0  0  0  0  0  0  0  0  0  0  0
   -8.2441    0.7282   -3.0696 H   0  0  0  0  0  0  0  0  0  0  0  0
   -8.4243   -8.9198   -4.1713 H   0  0  0  0  0  0  0  0  0  0  0  0
  -10.5663    0.7987   -3.3101 H   0  0  0  0  0  0  0  0  0  0  0  0
  -12.5482    2.1648   -3.6371 H   0  0  0  0  0  0  0  0  0  0  0  0
  -13.8393    5.5429   -5.3982 H   0  0  0  0  0  0  0  0  0  0  0  0
  -12.1338    5.5192   -5.8649 H   0  0  0  0  0  0  0  0  0  0  0  0
  -13.0867    4.0087   -5.8465 H   0  0  0  0  0  0  0  0  0  0  0  0
  1  2  1  0  0  0  0 
  1  3  1  0  0  0  0 
  1  4  1  0  0  0  0 
  2  5  1  0  0  0  0 
  3  6  2  0  0  0  0 
  3  7  2  0  0  0  0 
  3  8  1  0  0  0  0 
  4  9  1  0  0  0  0 
  4 10  2  0  0  0  0 
  5 11  2  0  0  0  0 
  5 12  1  0  0  0  0 
  9 13  2  0  0  0  0 
  9 14  1  0  0  0  0 
 10 15  1  0  0  0  0 
 10 16  1  0  0  0  0 
 11 17  1  0  0  0  0 
 12 18  2  0  0  0  0 
 14 16  1  0  0  0  0 
 14 19  1  0  0  0  0 
 16 20  1  0  0  0  0 
 17 21  2  0  0  0  0 
 18 21  1  0  0  0  0 
 19 22  2  0  0  0  0 
 19 23  1  0  0  0  0 
 21 24  1  0  0  0  0 
 22 25  1  0  0  0  0 
 23 26  2  0  0  0  0 
 24 27  1  0  0  0  0 
 24 28  2  0  0  0  0 
 24 29  2  0  0  0  0 
 25 30  2  0  0  0  0 
 26 30  1  0  0  0  0 
 27 31  1  0  0  0  0 
 31 32  2  0  0  0  0 
 31 33  1  0  0  0  0 
 32 34  1  0  0  0  0 
 33 35  2  0  0  0  0 
 34 36  2  0  0  0  0 
 35 36  1  0  0  0  0 
 36 37  1  0  0  0  0 
 37 38  1  0  0  0  0 
  1 39  1  0  0  0  0 
  2 40  1  0  0  0  0 
  8 41  1  0  0  0  0 
 11 42  1  0  0  0  0 
 12 43  1  0  0  0  0 
 15 44  1  0  0  0  0 
 15 45  1  0  0  0  0 
 15 46  1  0  0  0  0 
 17 47  1  0  0  0  0 
 18 48  1  0  0  0  0 
 20 49  1  0  0  0  0 
 20 50  1  0  0  0  0 
 20 51  1  0  0  0  0 
 22 52  1  0  0  0  0 
 23 53  1  0  0  0  0 
 25 54  1  0  0  0  0 
 26 55  1  0  0  0  0 
 27 56  1  0  0  0  0 
 30 57  1  0  0  0  0 
 32 58  1  0  0  0  0 
 34 59  1  0  0  0  0 
 38 60  1  0  0  0  0 
 38 61  1  0  0  0  0 
 38 62  1  0  0  0  0 
M  END
> <cdk:Title>
sulfamazone

> <Conformer>
1

> <SuperDrugID>
SD002255

$$$$
