buphenine
  CDK     0628171801

 47 48  0  0  0  0  0  0  0  0999 V2000
   -0.3691   -0.1790    4.6479 C   0  0  1  0  0  0  0  0  0  0  0  0
   -1.0001    0.9116    3.7173 C   0  0  2  0  0  0  0  0  0  0  0  0
    0.9050   -0.5889    4.1432 O   0  0  0  0  0  0  0  0  0  0  0  0
   -0.3171    0.2485    6.0831 C   0  0  0  0  0  0  0  0  0  0  0  0
   -1.1613    0.4754    2.3026 N   0  0  1  0  0  0  0  0  0  0  0  0
   -0.1786    2.2312    3.6782 C   0  0  0  0  0  0  0  0  0  0  0  0
   -1.4976    0.2255    6.8679 C   0  0  0  0  0  0  0  0  0  0  0  0
    0.8779    0.7051    6.6918 C   0  0  0  0  0  0  0  0  0  0  0  0
   -2.0264   -0.6860    1.9549 C   0  0  2  0  0  0  0  0  0  0  0  0
   -1.4820    0.6304    8.2157 C   0  0  0  0  0  0  0  0  0  0  0  0
    0.8956    1.1089    8.0409 C   0  0  0  0  0  0  0  0  0  0  0  0
   -1.9750   -0.8679    0.4050 C   0  0  2  0  0  0  0  0  0  0  0  0
   -3.4960   -0.5048    2.4379 C   0  0  0  0  0  0  0  0  0  0  0  0
   -0.2835    1.0641    8.8072 C   0  0  0  0  0  0  0  0  0  0  0  0
   -0.5930   -1.2500   -0.2053 C   0  0  2  0  0  0  0  0  0  0  0  0
   -0.2756    1.4389   10.1090 O   0  0  0  0  0  0  0  0  0  0  0  0
    0.4763   -0.2206   -0.0671 C   0  0  0  0  0  0  0  0  0  0  0  0
    1.6437   -0.4929    0.6858 C   0  0  0  0  0  0  0  0  0  0  0  0
    0.3555    1.0481   -0.6853 C   0  0  0  0  0  0  0  0  0  0  0  0
    2.6441    0.4821    0.8512 C   0  0  0  0  0  0  0  0  0  0  0  0
    1.3598    2.0238   -0.5301 C   0  0  0  0  0  0  0  0  0  0  0  0
    2.5007    1.7415    0.2428 C   0  0  0  0  0  0  0  0  0  0  0  0
   -0.9898   -1.0779    4.6112 H   0  0  0  0  0  0  0  0  0  0  0  0
   -1.9889    1.1708    4.1026 H   0  0  0  0  0  0  0  0  0  0  0  0
    0.7236   -0.9402    3.2452 H   0  0  0  0  0  0  0  0  0  0  0  0
   -1.5419    1.2750    1.7916 H   0  0  0  0  0  0  0  0  0  0  0  0
   -0.6868    2.9726    3.0561 H   0  0  0  0  0  0  0  0  0  0  0  0
   -0.0775    2.6554    4.6788 H   0  0  0  0  0  0  0  0  0  0  0  0
    0.8187    2.0604    3.2658 H   0  0  0  0  0  0  0  0  0  0  0  0
   -2.3821   -0.0902    6.4616 H   0  0  0  0  0  0  0  0  0  0  0  0
    1.7470    0.7566    6.1547 H   0  0  0  0  0  0  0  0  0  0  0  0
   -1.6238   -1.5939    2.4119 H   0  0  0  0  0  0  0  0  0  0  0  0
   -2.3438    0.6055    8.7647 H   0  0  0  0  0  0  0  0  0  0  0  0
    1.7661    1.4389    8.4607 H   0  0  0  0  0  0  0  0  0  0  0  0
   -2.3390    0.0458   -0.0723 H   0  0  0  0  0  0  0  0  0  0  0  0
   -2.6664   -1.6679    0.1287 H   0  0  0  0  0  0  0  0  0  0  0  0
   -3.8938    0.4549    2.1003 H   0  0  0  0  0  0  0  0  0  0  0  0
   -3.5536   -0.5440    3.5270 H   0  0  0  0  0  0  0  0  0  0  0  0
   -4.1324   -1.3028    2.0498 H   0  0  0  0  0  0  0  0  0  0  0  0
   -0.7239   -1.4402   -1.2738 H   0  0  0  0  0  0  0  0  0  0  0  0
   -0.2785   -2.1957    0.2429 H   0  0  0  0  0  0  0  0  0  0  0  0
    0.3503    0.8215   10.5470 H   0  0  0  0  0  0  0  0  0  0  0  0
    1.7773   -1.4068    1.1226 H   0  0  0  0  0  0  0  0  0  0  0  0
   -0.4689    1.2707   -1.2487 H   0  0  0  0  0  0  0  0  0  0  0  0
    3.4750    0.2741    1.4120 H   0  0  0  0  0  0  0  0  0  0  0  0
    1.2620    2.9389   -0.9775 H   0  0  0  0  0  0  0  0  0  0  0  0
    3.2276    2.4509    0.3609 H   0  0  0  0  0  0  0  0  0  0  0  0
  1  2  1  0  0  0  0 
  1  3  1  0  0  0  0 
  1  4  1  0  0  0  0 
  2  5  1  0  0  0  0 
  2  6  1  0  0  0  0 
  4  7  2  0  0  0  0 
  4  8  1  0  0  0  0 
  5  9  1  0  0  0  0 
  7 10  1  0  0  0  0 
  8 11  2  0  0  0  0 
  9 12  1  0  0  0  0 
  9 13  1  0  0  0  0 
 10 14  2  0  0  0  0 
 11 14  1  0  0  0  0 
 12 15  1  0  0  0  0 
 14 16  1  0  0  0  0 
 15 17  1  0  0  0  0 
 17 18  2  0  0  0  0 
 17 19  1  0  0  0  0 
 18 20  1  0  0  0  0 
 19 21  2  0  0  0  0 
 20 22  2  0  0  0  0 
 21 22  1  0  0  0  0 
  1 23  1  0  0  0  0 
  2 24  1  0  0  0  0 
  3 25  1  0  0  0  0 
  5 26  1  0  0  0  0 
  6 27  1  0  0  0  0 
  6 28  1  0  0  0  0 
  6 29  1  0  0  0  0 
  7 30  1  0  0  0  0 
  8 31  1  0  0  0  0 
  9 32  1  0  0  0  0 
 10 33  1  0  0  0  0 
 11 34  1  0  0  0  0 
 12 35  1  0  0  0  0 
 12 36  1  0  0  0  0 
 13 37  1  0  0  0  0 
 13 38  1  0  0  0  0 
 13 39  1  0  0  0  0 
 15 40  1  0  0  0  0 
 15 41  1  0  0  0  0 
 16 42  1  0  0  0  0 
 18 43  1  0  0  0  0 
 19 44  1  0  0  0  0 
 20 45  1  0  0  0  0 
 21 46  1  0  0  0  0 
 22 47  1  0  0  0  0 
M  END
> <cdk:Title>
buphenine

> <Conformer>
1

> <SuperDrugID>
SD001767

$$$$
