brallobarbital
  CDK     0628171801

 27 27  0  0  0  0  0  0  0  0999 V2000
    2.1506    2.6312   -0.6299 C   0  0  2  0  0  0  0  0  0  0  0  0
    2.3286    4.0789   -0.5193 C   0  0  0  0  0  0  0  0  0  0  0  0
    3.1710    1.8885   -1.5755 C   0  0  1  0  0  0  0  0  0  0  0  0
    3.5342    4.7382    0.7001 Br  0  0  0  0  0  0  0  0  0  0  0  0
    1.6430    4.9599   -1.2593 C   0  0  0  0  0  0  0  0  0  0  0  0
    2.9176    0.3324   -1.6182 C   0  0  2  0  0  0  0  0  0  0  0  0
    2.9928    2.3986   -2.9840 C   0  0  0  0  0  0  0  0  0  0  0  0
    4.5846    2.1422   -1.1168 C   0  0  0  0  0  0  0  0  0  0  0  0
    3.0128   -0.3665   -0.3398 C   0  0  0  0  0  0  0  0  0  0  0  0
    1.8974    2.2792   -3.5799 O   0  0  0  0  0  0  0  0  0  0  0  0
    3.9905    2.9964   -3.6834 N   0  0  0  0  0  0  0  0  0  0  0  0
    4.9605    1.8274    0.0364 O   0  0  0  0  0  0  0  0  0  0  0  0
    5.5120    2.7471   -1.9012 N   0  0  0  0  0  0  0  0  0  0  0  0
    4.0164   -1.1895   -0.0081 C   0  0  0  0  0  0  0  0  0  0  0  0
    5.2252    3.1660   -3.1557 C   0  0  0  0  0  0  0  0  0  0  0  0
    6.1141    3.7170   -3.8411 O   0  0  0  0  0  0  0  0  0  0  0  0
    1.1291    2.4100   -0.9589 H   0  0  0  0  0  0  0  0  0  0  0  0
    2.2249    2.2236    0.3807 H   0  0  0  0  0  0  0  0  0  0  0  0
    1.7920    5.9334   -1.1482 H   0  0  0  0  0  0  0  0  0  0  0  0
    0.9753    4.6599   -1.9278 H   0  0  0  0  0  0  0  0  0  0  0  0
    3.6119   -0.1152   -2.3395 H   0  0  0  0  0  0  0  0  0  0  0  0
    1.9117    0.1340   -2.0019 H   0  0  0  0  0  0  0  0  0  0  0  0
    2.2869   -0.2233    0.3272 H   0  0  0  0  0  0  0  0  0  0  0  0
    3.8175    3.3059   -4.5855 H   0  0  0  0  0  0  0  0  0  0  0  0
    6.4048    2.8860   -1.5506 H   0  0  0  0  0  0  0  0  0  0  0  0
    4.0262   -1.6251    0.8821 H   0  0  0  0  0  0  0  0  0  0  0  0
    4.7638   -1.3745   -0.6332 H   0  0  0  0  0  0  0  0  0  0  0  0
  1  2  1  0  0  0  0 
  1  3  1  0  0  0  0 
  2  4  1  0  0  0  0 
  2  5  2  0  0  0  0 
  3  6  1  0  0  0  0 
  3  7  1  0  0  0  0 
  3  8  1  0  0  0  0 
  6  9  1  0  0  0  0 
  7 10  2  0  0  0  0 
  7 11  1  0  0  0  0 
  8 12  2  0  0  0  0 
  8 13  1  0  0  0  0 
  9 14  2  0  0  0  0 
 11 15  1  0  0  0  0 
 13 15  1  0  0  0  0 
 15 16  2  0  0  0  0 
 17  1  1  0  0  0  0 
 18  1  1  0  0  0  0 
 19  5  1  0  0  0  0 
 20  5  1  0  0  0  0 
 21  6  1  0  0  0  0 
 22  6  1  0  0  0  0 
 23  9  1  0  0  0  0 
 24 11  1  0  0  0  0 
 25 13  1  0  0  0  0 
 26 14  1  0  0  0  0 
 27 14  1  0  0  0  0 
M  END
> <cdk:Title>
brallobarbital

> <Conformer>
1

> <SuperDrugID>
SD000335

$$$$
