iopentol
  CDK     0628171801

 63 63  0  0  0  0  0  0  0  0999 V2000
   -1.3648    6.4616   -3.0837 N   0  0  0  0  0  0  0  0  0  0  0  0
   -0.1498    7.1776   -3.4620 C   0  0  2  0  0  0  0  0  0  0  0  0
   -2.5863    6.5879   -3.7481 C   0  0  0  0  0  0  0  0  0  0  0  0
   -1.3496    5.7075   -1.9244 C   0  0  0  0  0  0  0  0  0  0  0  0
    0.3686    6.9357   -4.9212 C   0  0  2  0  0  0  0  0  0  0  0  0
   -2.8674    7.5491   -4.8398 C   0  0  0  0  0  0  0  0  0  0  0  0
   -3.5713    5.8885   -3.3984 O   0  0  0  0  0  0  0  0  0  0  0  0
   -1.8233    6.2976   -0.7269 C   0  0  0  0  0  0  0  0  0  0  0  0
   -0.9149    4.3603   -1.9172 C   0  0  0  0  0  0  0  0  0  0  0  0
    1.8921    6.6862   -5.0553 C   0  0  1  0  0  0  0  0  0  0  0  0
    0.0519    8.0629   -5.7404 O   0  0  0  0  0  0  0  0  0  0  0  0
   -2.3285    8.3008   -0.7182 I   0  0  0  0  0  0  0  0  0  0  0  0
   -1.9492    5.5249    0.4512 C   0  0  0  0  0  0  0  0  0  0  0  0
   -0.1774    3.5270   -3.6545 I   0  0  0  0  0  0  0  0  0  0  0  0
   -0.9943    3.5914   -0.7284 C   0  0  0  0  0  0  0  0  0  0  0  0
    2.1939    6.3918   -6.4363 O   0  0  0  0  0  0  0  0  0  0  0  0
   -2.4940    6.0970    1.6200 C   0  0  0  0  0  0  0  0  0  0  0  0
   -1.5485    4.1662    0.4444 C   0  0  0  0  0  0  0  0  0  0  0  0
   -0.5264    2.2595   -0.6974 C   0  0  0  0  0  0  0  0  0  0  0  0
    3.5671    6.0488   -6.6776 C   0  0  0  0  0  0  0  0  0  0  0  0
   -1.7041    6.2656    2.7166 N   0  0  0  0  0  0  0  0  0  0  0  0
   -3.7041    6.4260    1.6163 O   0  0  0  0  0  0  0  0  0  0  0  0
   -1.8615    3.0013    2.1271 I   0  0  0  0  0  0  0  0  0  0  0  0
    0.4934    1.9551    0.1511 N   0  0  0  0  0  0  0  0  0  0  0  0
   -1.0759    1.3921   -1.4169 O   0  0  0  0  0  0  0  0  0  0  0  0
   -2.1231    6.7389    4.0016 C   0  0  2  0  0  0  0  0  0  0  0  0
    1.0623    0.6666    0.3836 C   0  0  1  0  0  0  0  0  0  0  0  0
   -1.6821    5.7424    5.1073 C   0  0  2  0  0  0  0  0  0  0  0  0
    2.6105    0.7650    0.4315 C   0  0  1  0  0  0  0  0  0  0  0  0
   -2.2197    6.1088    6.5116 C   0  0  1  0  0  0  0  0  0  0  0  0
   -0.2553    5.6790    5.1639 O   0  0  0  0  0  0  0  0  0  0  0  0
    3.2886   -0.5210    0.9608 C   0  0  2  0  0  0  0  0  0  0  0  0
    3.1140    1.0398   -0.8752 O   0  0  0  0  0  0  0  0  0  0  0  0
   -3.6415    6.0287    6.5483 O   0  0  0  0  0  0  0  0  0  0  0  0
    2.9404   -0.7644    2.3205 O   0  0  0  0  0  0  0  0  0  0  0  0
    0.6596    6.9249   -2.7699 H   0  0  0  0  0  0  0  0  0  0  0  0
   -0.3305    8.2466   -3.3151 H   0  0  0  0  0  0  0  0  0  0  0  0
   -0.1354    6.0607   -5.3355 H   0  0  0  0  0  0  0  0  0  0  0  0
   -3.9312    7.5564   -5.0963 H   0  0  0  0  0  0  0  0  0  0  0  0
   -2.5922    8.5599   -4.5270 H   0  0  0  0  0  0  0  0  0  0  0  0
   -2.3196    7.2751   -5.7402 H   0  0  0  0  0  0  0  0  0  0  0  0
    2.4389    7.5774   -4.7290 H   0  0  0  0  0  0  0  0  0  0  0  0
    2.1704    5.8403   -4.4191 H   0  0  0  0  0  0  0  0  0  0  0  0
    0.2981    7.8039   -6.6519 H   0  0  0  0  0  0  0  0  0  0  0  0
    3.6711    5.9197   -7.7556 H   0  0  0  0  0  0  0  0  0  0  0  0
    3.7754    5.0369   -6.2106 H   0  0  0  0  0  0  0  0  0  0  0  0
    4.2281    6.9248   -6.3932 H   0  0  0  0  0  0  0  0  0  0  0  0
   -0.7693    6.0202    2.6240 H   0  0  0  0  0  0  0  0  0  0  0  0
    0.8627    2.6877    0.6691 H   0  0  0  0  0  0  0  0  0  0  0  0
   -3.2066    6.8761    4.0471 H   0  0  0  0  0  0  0  0  0  0  0  0
   -1.6538    7.7093    4.1742 H   0  0  0  0  0  0  0  0  0  0  0  0
    0.6864    0.3277    1.3515 H   0  0  0  0  0  0  0  0  0  0  0  0
    0.7606   -0.0623   -0.3744 H   0  0  0  0  0  0  0  0  0  0  0  0
   -2.0518    4.7442    4.8569 H   0  0  0  0  0  0  0  0  0  0  0  0
    2.9017    1.5939    1.0838 H   0  0  0  0  0  0  0  0  0  0  0  0
   -1.8242    5.4047    7.2454 H   0  0  0  0  0  0  0  0  0  0  0  0
   -1.9040    7.1158    6.7922 H   0  0  0  0  0  0  0  0  0  0  0  0
    0.0282    5.3857    4.2709 H   0  0  0  0  0  0  0  0  0  0  0  0
    4.3735   -0.4098    0.9057 H   0  0  0  0  0  0  0  0  0  0  0  0
    2.9960   -1.3824    0.3566 H   0  0  0  0  0  0  0  0  0  0  0  0
    2.7196    1.9020   -1.1284 H   0  0  0  0  0  0  0  0  0  0  0  0
   -3.8848    6.1814    7.4854 H   0  0  0  0  0  0  0  0  0  0  0  0
    3.4259   -1.5828    2.5607 H   0  0  0  0  0  0  0  0  0  0  0  0
  1  2  1  0  0  0  0 
  1  3  1  0  0  0  0 
  1  4  1  0  0  0  0 
  2  5  1  0  0  0  0 
  3  6  1  0  0  0  0 
  3  7  2  0  0  0  0 
  4  8  2  0  0  0  0 
  4  9  1  0  0  0  0 
  5 10  1  0  0  0  0 
  5 11  1  0  0  0  0 
  8 12  1  0  0  0  0 
  8 13  1  0  0  0  0 
  9 14  1  0  0  0  0 
  9 15  2  0  0  0  0 
 10 16  1  0  0  0  0 
 13 17  1  0  0  0  0 
 13 18  2  0  0  0  0 
 15 18  1  0  0  0  0 
 15 19  1  0  0  0  0 
 16 20  1  0  0  0  0 
 17 21  1  0  0  0  0 
 17 22  2  0  0  0  0 
 18 23  1  0  0  0  0 
 19 24  1  0  0  0  0 
 19 25  2  0  0  0  0 
 21 26  1  0  0  0  0 
 24 27  1  0  0  0  0 
 26 28  1  0  0  0  0 
 27 29  1  0  0  0  0 
 28 30  1  0  0  0  0 
 28 31  1  0  0  0  0 
 29 32  1  0  0  0  0 
 29 33  1  0  0  0  0 
 30 34  1  0  0  0  0 
 32 35  1  0  0  0  0 
  2 36  1  0  0  0  0 
  2 37  1  0  0  0  0 
  5 38  1  0  0  0  0 
  6 39  1  0  0  0  0 
  6 40  1  0  0  0  0 
  6 41  1  0  0  0  0 
 10 42  1  0  0  0  0 
 10 43  1  0  0  0  0 
 11 44  1  0  0  0  0 
 20 45  1  0  0  0  0 
 20 46  1  0  0  0  0 
 20 47  1  0  0  0  0 
 21 48  1  0  0  0  0 
 24 49  1  0  0  0  0 
 26 50  1  0  0  0  0 
 26 51  1  0  0  0  0 
 27 52  1  0  0  0  0 
 27 53  1  0  0  0  0 
 28 54  1  0  0  0  0 
 29 55  1  0  0  0  0 
 30 56  1  0  0  0  0 
 30 57  1  0  0  0  0 
 31 58  1  0  0  0  0 
 32 59  1  0  0  0  0 
 32 60  1  0  0  0  0 
 33 61  1  0  0  0  0 
 34 62  1  0  0  0  0 
 35 63  1  0  0  0  0 
M  END
> <cdk:Title>
iopentol

> <Conformer>
1

> <SuperDrugID>
SD001298

$$$$
