apremilast
  CDK     0628171802

 56 58  0  0  0  0  0  0  0  0999 V2000
   -1.4514    0.2324   -2.2511 C   0  0  1  0  0  0  0  0  0  0  0  0
   -1.7436    0.4203   -0.7297 C   0  0  1  0  0  0  0  0  0  0  0  0
   -0.2288    0.4909    0.3072 S   0  0  1  0  0  0  0  0  0  0  0  0
   -0.6918    0.6808    2.0684 C   0  0  0  0  0  0  0  0  0  0  0  0
    0.6352   -0.8493    0.1384 O   0  0  0  0  0  0  0  0  0  0  0  0
    0.6632    1.7494   -0.1323 O   0  0  0  0  0  0  0  0  0  0  0  0
   -0.7594   -0.9947   -2.6001 N   0  0  0  0  0  0  0  0  0  0  0  0
   -1.0538   -2.2720   -2.2034 C   0  0  0  0  0  0  0  0  0  0  0  0
   -1.9872   -2.6288   -1.4500 O   0  0  0  0  0  0  0  0  0  0  0  0
   -0.1227   -3.1576   -2.7482 C   0  0  0  0  0  0  0  0  0  0  0  0
    0.7571   -2.3869   -3.5011 C   0  0  0  0  0  0  0  0  0  0  0  0
    0.3394   -1.0647   -3.4111 C   0  0  0  0  0  0  0  0  0  0  0  0
    0.8959   -0.1088   -4.0016 O   0  0  0  0  0  0  0  0  0  0  0  0
    1.8463   -2.9651   -4.1763 C   0  0  0  0  0  0  0  0  0  0  0  0
    2.0154   -4.3607   -4.0957 C   0  0  0  0  0  0  0  0  0  0  0  0
    1.1187   -5.1457   -3.3382 C   0  0  0  0  0  0  0  0  0  0  0  0
    0.0404   -4.5560   -2.6263 C   0  0  0  0  0  0  0  0  0  0  0  0
   -0.8344   -5.2782   -1.8652 N   0  0  0  0  0  0  0  0  0  0  0  0
   -0.5483   -6.3663   -1.0936 C   0  0  0  0  0  0  0  0  0  0  0  0
   -1.6434   -7.0586   -0.3938 C   0  0  0  0  0  0  0  0  0  0  0  0
    0.6228   -6.7823   -0.9271 O   0  0  0  0  0  0  0  0  0  0  0  0
   -2.6686    0.4278   -3.1084 C   0  0  0  0  0  0  0  0  0  0  0  0
   -3.8189   -0.3881   -2.9807 C   0  0  0  0  0  0  0  0  0  0  0  0
   -4.9673   -0.1698   -3.7704 C   0  0  0  0  0  0  0  0  0  0  0  0
   -6.0598   -0.9782   -3.6168 O   0  0  0  0  0  0  0  0  0  0  0  0
   -6.9538   -0.5402   -2.5755 C   0  0  1  0  0  0  0  0  0  0  0  0
   -8.0858   -1.5743   -2.4469 C   0  0  0  0  0  0  0  0  0  0  0  0
   -4.9714    0.8582   -4.7362 C   0  0  0  0  0  0  0  0  0  0  0  0
   -3.8380    1.6795   -4.8751 C   0  0  0  0  0  0  0  0  0  0  0  0
   -2.7005    1.4601   -4.0786 C   0  0  0  0  0  0  0  0  0  0  0  0
   -6.0783    1.0865   -5.5101 O   0  0  0  0  0  0  0  0  0  0  0  0
   -6.0570    0.3647   -6.7547 C   0  0  0  0  0  0  0  0  0  0  0  0
   -0.7649    1.0568   -2.4689 H   0  0  0  0  0  0  0  0  0  0  0  0
   -2.2722    1.3649   -0.5822 H   0  0  0  0  0  0  0  0  0  0  0  0
   -2.3835   -0.3737   -0.3488 H   0  0  0  0  0  0  0  0  0  0  0  0
   -1.2157    1.6256    2.2135 H   0  0  0  0  0  0  0  0  0  0  0  0
   -1.3420   -0.1409    2.3680 H   0  0  0  0  0  0  0  0  0  0  0  0
    0.2058    0.6703    2.6867 H   0  0  0  0  0  0  0  0  0  0  0  0
    2.5013   -2.3916   -4.7122 H   0  0  0  0  0  0  0  0  0  0  0  0
    2.7907   -4.8079   -4.5891 H   0  0  0  0  0  0  0  0  0  0  0  0
    1.2590   -6.1564   -3.3222 H   0  0  0  0  0  0  0  0  0  0  0  0
   -1.7528   -4.9656   -1.8458 H   0  0  0  0  0  0  0  0  0  0  0  0
   -1.2623   -7.8687    0.2345 H   0  0  0  0  0  0  0  0  0  0  0  0
   -2.1844   -6.3514    0.2401 H   0  0  0  0  0  0  0  0  0  0  0  0
   -2.3310   -7.4880   -1.1244 H   0  0  0  0  0  0  0  0  0  0  0  0
   -3.8407   -1.1486   -2.3029 H   0  0  0  0  0  0  0  0  0  0  0  0
   -6.4375   -0.4704   -1.6118 H   0  0  0  0  0  0  0  0  0  0  0  0
   -7.3877    0.4348   -2.8208 H   0  0  0  0  0  0  0  0  0  0  0  0
   -8.6370   -1.6475   -3.3868 H   0  0  0  0  0  0  0  0  0  0  0  0
   -8.7758   -1.2786   -1.6550 H   0  0  0  0  0  0  0  0  0  0  0  0
   -7.6682   -2.5536   -2.2027 H   0  0  0  0  0  0  0  0  0  0  0  0
   -3.8377    2.4412   -5.5567 H   0  0  0  0  0  0  0  0  0  0  0  0
   -1.8909    2.0693   -4.2159 H   0  0  0  0  0  0  0  0  0  0  0  0
   -6.9712    0.6019   -7.3015 H   0  0  0  0  0  0  0  0  0  0  0  0
   -5.2052    0.6616   -7.3726 H   0  0  0  0  0  0  0  0  0  0  0  0
   -6.0298   -0.7160   -6.5897 H   0  0  0  0  0  0  0  0  0  0  0  0
  1  2  1  0  0  0  0 
  1  7  1  0  0  0  0 
  1 22  1  0  0  0  0 
  2  3  1  0  0  0  0 
  3  4  1  0  0  0  0 
  3  5  2  0  0  0  0 
  3  6  2  0  0  0  0 
  7  8  1  0  0  0  0 
  7 12  1  0  0  0  0 
  8  9  2  0  0  0  0 
  8 10  1  0  0  0  0 
 10 11  2  0  0  0  0 
 10 17  1  0  0  0  0 
 11 14  1  0  0  0  0 
 12 11  1  0  0  0  0 
 12 13  2  0  0  0  0 
 14 15  2  0  0  0  0 
 16 15  1  0  0  0  0 
 17 16  2  0  0  0  0 
 17 18  1  0  0  0  0 
 18 19  1  0  0  0  0 
 19 20  1  0  0  0  0 
 19 21  2  0  0  0  0 
 22 23  2  0  0  0  0 
 22 30  1  0  0  0  0 
 23 24  1  0  0  0  0 
 24 25  1  0  0  0  0 
 24 28  2  0  0  0  0 
 25 26  1  0  0  0  0 
 26 27  1  0  0  0  0 
 28 31  1  0  0  0  0 
 29 28  1  0  0  0  0 
 30 29  2  0  0  0  0 
 31 32  1  0  0  0  0 
  1 33  1  0  0  0  0 
  2 34  1  0  0  0  0 
  2 35  1  0  0  0  0 
  4 36  1  0  0  0  0 
  4 37  1  0  0  0  0 
  4 38  1  0  0  0  0 
 14 39  1  0  0  0  0 
 15 40  1  0  0  0  0 
 16 41  1  0  0  0  0 
 18 42  1  0  0  0  0 
 20 43  1  0  0  0  0 
 20 44  1  0  0  0  0 
 20 45  1  0  0  0  0 
 23 46  1  0  0  0  0 
 26 47  1  0  0  0  0 
 26 48  1  0  0  0  0 
 27 49  1  0  0  0  0 
 27 50  1  0  0  0  0 
 27 51  1  0  0  0  0 
 29 52  1  0  0  0  0 
 30 53  1  0  0  0  0 
 32 54  1  0  0  0  0 
 32 55  1  0  0  0  0 
 32 56  1  0  0  0  0 
M  END
> <cdk:Title>
apremilast

> <Conformer>
1

> <SuperDrugID>
SD003790

$$$$
