clorprenaline
  CDK     0628171802

 30 30  0  0  0  0  0  0  0  0999 V2000
    0.0689    0.8772    0.4026 C   0  0  1  0  0  0  0  0  0  0  0  0
   -0.0150   -0.6504    0.6586 C   0  0  2  0  0  0  0  0  0  0  0  0
    0.2727    1.5591    1.6426 O   0  0  0  0  0  0  0  0  0  0  0  0
    1.1405    1.2203   -0.5891 C   0  0  0  0  0  0  0  0  0  0  0  0
   -0.2368   -1.3716   -0.6172 N   0  0  1  0  0  0  0  0  0  0  0  0
    0.8777    1.4187   -1.9754 C   0  0  0  0  0  0  0  0  0  0  0  0
    2.4847    1.3120   -0.1492 C   0  0  0  0  0  0  0  0  0  0  0  0
   -0.3913   -2.8455   -0.5581 C   0  0  1  0  0  0  0  0  0  0  0  0
   -0.6770    1.3184   -2.6521 Cl  0  0  0  0  0  0  0  0  0  0  0  0
    1.9353    1.6940   -2.8689 C   0  0  0  0  0  0  0  0  0  0  0  0
    3.5305    1.6016   -1.0415 C   0  0  0  0  0  0  0  0  0  0  0  0
   -0.8415   -3.2987   -1.9686 C   0  0  0  0  0  0  0  0  0  0  0  0
    0.9196   -3.5612   -0.1377 C   0  0  0  0  0  0  0  0  0  0  0  0
    3.2574    1.7829   -2.4045 C   0  0  0  0  0  0  0  0  0  0  0  0
   -0.9074    1.2143    0.0517 H   0  0  0  0  0  0  0  0  0  0  0  0
   -0.8487   -0.8573    1.3378 H   0  0  0  0  0  0  0  0  0  0  0  0
    0.9100   -0.9852    1.1310 H   0  0  0  0  0  0  0  0  0  0  0  0
   -0.4885    1.3013    2.2072 H   0  0  0  0  0  0  0  0  0  0  0  0
   -1.1006   -0.9946   -1.0146 H   0  0  0  0  0  0  0  0  0  0  0  0
    2.7200    1.1687    0.8348 H   0  0  0  0  0  0  0  0  0  0  0  0
   -1.1845   -3.1070    0.1507 H   0  0  0  0  0  0  0  0  0  0  0  0
    1.7527    1.8260   -3.8672 H   0  0  0  0  0  0  0  0  0  0  0  0
    4.4883    1.6775   -0.6962 H   0  0  0  0  0  0  0  0  0  0  0  0
   -1.0044   -4.3777   -1.9932 H   0  0  0  0  0  0  0  0  0  0  0  0
   -0.0831   -3.0414   -2.7124 H   0  0  0  0  0  0  0  0  0  0  0  0
   -1.7767   -2.8057   -2.2425 H   0  0  0  0  0  0  0  0  0  0  0  0
    0.8184   -4.6415   -0.2574 H   0  0  0  0  0  0  0  0  0  0  0  0
    1.1396   -3.3637    0.9117 H   0  0  0  0  0  0  0  0  0  0  0  0
    1.7547   -3.2121   -0.7506 H   0  0  0  0  0  0  0  0  0  0  0  0
    4.0209    1.9719   -3.0563 H   0  0  0  0  0  0  0  0  0  0  0  0
  1  2  1  0  0  0  0 
  1  3  1  0  0  0  0 
  1  4  1  0  0  0  0 
  2  5  1  0  0  0  0 
  4  6  2  0  0  0  0 
  4  7  1  0  0  0  0 
  5  8  1  0  0  0  0 
  6  9  1  0  0  0  0 
  6 10  1  0  0  0  0 
  7 11  2  0  0  0  0 
  8 12  1  0  0  0  0 
  8 13  1  0  0  0  0 
 10 14  2  0  0  0  0 
 11 14  1  0  0  0  0 
  1 15  1  0  0  0  0 
  2 16  1  0  0  0  0 
  2 17  1  0  0  0  0 
  3 18  1  0  0  0  0 
  5 19  1  0  0  0  0 
  7 20  1  0  0  0  0 
  8 21  1  0  0  0  0 
 10 22  1  0  0  0  0 
 11 23  1  0  0  0  0 
 12 24  1  0  0  0  0 
 12 25  1  0  0  0  0 
 12 26  1  0  0  0  0 
 13 27  1  0  0  0  0 
 13 28  1  0  0  0  0 
 13 29  1  0  0  0  0 
 14 30  1  0  0  0  0 
M  END
> <cdk:Title>
clorprenaline

> <Conformer>
1

> <SuperDrugID>
SD000631

$$$$
