acarbose
  CDK     0628171801

 87 90  0  0  0  0  0  0  0  0999 V2000
    4.2887    5.8884   -1.7926 O   0  0  0  0  0  0  0  0  0  0  0  0
    5.1961    5.9344   -2.9133 C   0  0  2  0  0  0  0  0  0  0  0  0
    3.3539    6.9366   -1.4766 C   0  0  2  0  0  0  0  0  0  0  0  0
    4.5959    6.1375   -4.3499 C   0  0  1  0  0  0  0  0  0  0  0  0
    5.8701    4.5315   -2.8061 C   0  0  2  0  0  0  0  0  0  0  0  0
    3.0463    6.8704    0.0424 C   0  0  2  0  0  0  0  0  0  0  0  0
    2.1060    6.7693   -2.1886 O   0  0  0  0  0  0  0  0  0  0  0  0
    4.1999    7.6014   -4.6847 C   0  0  1  0  0  0  0  0  0  0  0  0
    5.5730    5.7987   -5.3644 O   0  0  0  0  0  0  0  0  0  0  0  0
    6.5608    4.4054   -1.5626 O   0  0  0  0  0  0  0  0  0  0  0  0
    6.8475    4.2328   -3.9684 C   0  0  2  0  0  0  0  0  0  0  0  0
    4.2318    7.1241    0.7960 O   0  0  0  0  0  0  0  0  0  0  0  0
    2.4609    5.4764    0.3933 C   0  0  1  0  0  0  0  0  0  0  0  0
    1.4786    5.4735   -2.0221 C   0  0  1  0  0  0  0  0  0  0  0  0
    3.7634    7.7042   -6.0379 O   0  0  0  0  0  0  0  0  0  0  0  0
    6.0913    4.4574   -5.3362 C   0  0  1  0  0  0  0  0  0  0  0  0
    7.2506    2.8657   -3.9039 O   0  0  0  0  0  0  0  0  0  0  0  0
    2.0884    5.4307    1.7702 O   0  0  0  0  0  0  0  0  0  0  0  0
    1.2355    5.1238   -0.5115 C   0  0  1  0  0  0  0  0  0  0  0  0
    0.1648    5.4796   -2.8425 C   0  0  0  0  0  0  0  0  0  0  0  0
    5.0242    3.4516   -5.5450 O   0  0  0  0  0  0  0  0  0  0  0  0
    0.6614    3.7566   -0.3123 N   0  0  1  0  0  0  0  0  0  0  0  0
    4.5051    2.9439   -6.8418 C   0  0  1  0  0  0  0  0  0  0  0  0
    1.5335    2.5599   -0.1101 C   0  0  1  0  0  0  0  0  0  0  0  0
    3.5302    1.7952   -6.4526 C   0  0  1  0  0  0  0  0  0  0  0  0
    3.7913    4.0322   -7.7195 C   0  0  1  0  0  0  0  0  0  0  0  0
    0.7195    1.4518    0.3818 C   0  0  0  0  0  0  0  0  0  0  0  0
    2.3667    2.1832   -1.3735 C   0  0  2  0  0  0  0  0  0  0  0  0
    2.7081    1.2864   -7.6629 C   0  0  2  0  0  0  0  0  0  0  0  0
    4.2567    0.7113   -5.8721 O   0  0  0  0  0  0  0  0  0  0  0  0
    4.7719    4.9597   -8.4855 C   0  0  1  0  0  0  0  0  0  0  0  0
    2.9841    3.4454   -8.7682 O   0  0  0  0  0  0  0  0  0  0  0  0
    0.9207    0.1465    0.0914 C   0  0  0  0  0  0  0  0  0  0  0  0
    1.5490    2.1938   -2.5456 O   0  0  0  0  0  0  0  0  0  0  0  0
    3.0346    0.7977   -1.2044 C   0  0  2  0  0  0  0  0  0  0  0  0
    2.0029    2.4851   -8.3433 C   0  0  1  0  0  0  0  0  0  0  0  0
    1.7510    0.3177   -7.2364 O   0  0  0  0  0  0  0  0  0  0  0  0
    4.0591    5.9848   -9.1696 O   0  0  0  0  0  0  0  0  0  0  0  0
    0.0728   -0.8851    0.6915 C   0  0  2  0  0  0  0  0  0  0  0  0
    1.9890   -0.2922   -0.8242 C   0  0  2  0  0  0  0  0  0  0  0  0
    4.0623    0.8780   -0.2127 O   0  0  0  0  0  0  0  0  0  0  0  0
    1.2948    2.0516   -9.5000 O   0  0  0  0  0  0  0  0  0  0  0  0
    0.8385   -1.6720    1.5986 O   0  0  0  0  0  0  0  0  0  0  0  0
    1.3974   -0.8261   -2.0112 O   0  0  0  0  0  0  0  0  0  0  0  0
    5.9514    6.7043   -2.7282 H   0  0  0  0  0  0  0  0  0  0  0  0
    5.3360    2.5134   -7.4086 H   0  0  0  0  0  0  0  0  0  0  0  0
    2.2211    2.7654    0.7129 H   0  0  0  0  0  0  0  0  0  0  0  0
    3.7775    7.9188   -1.6976 H   0  0  0  0  0  0  0  0  0  0  0  0
    3.7091    5.5074   -4.4703 H   0  0  0  0  0  0  0  0  0  0  0  0
    5.0884    3.7643   -2.8110 H   0  0  0  0  0  0  0  0  0  0  0  0
    2.3173    7.6472    0.2931 H   0  0  0  0  0  0  0  0  0  0  0  0
    3.3838    7.9492   -4.0577 H   0  0  0  0  0  0  0  0  0  0  0  0
    5.0558    8.2665   -4.5464 H   0  0  0  0  0  0  0  0  0  0  0  0
    7.2589    5.0925   -1.5931 H   0  0  0  0  0  0  0  0  0  0  0  0
    7.7780    4.8434   -3.7935 H   0  0  0  0  0  0  0  0  0  0  0  0
    3.9446    7.1274    1.7341 H   0  0  0  0  0  0  0  0  0  0  0  0
    3.2562    4.7416    0.2535 H   0  0  0  0  0  0  0  0  0  0  0  0
    2.1299    4.7342   -2.4844 H   0  0  0  0  0  0  0  0  0  0  0  0
    3.5422    8.6510   -6.1651 H   0  0  0  0  0  0  0  0  0  0  0  0
    6.8308    4.3530   -6.1327 H   0  0  0  0  0  0  0  0  0  0  0  0
    7.8741    2.7512   -4.6519 H   0  0  0  0  0  0  0  0  0  0  0  0
    1.3999    6.1207    1.8692 H   0  0  0  0  0  0  0  0  0  0  0  0
    0.4387    5.7971   -0.1823 H   0  0  0  0  0  0  0  0  0  0  0  0
   -0.5432    6.2006   -2.4286 H   0  0  0  0  0  0  0  0  0  0  0  0
    0.3710    5.7517   -3.8798 H   0  0  0  0  0  0  0  0  0  0  0  0
   -0.2964    4.4899   -2.8329 H   0  0  0  0  0  0  0  0  0  0  0  0
    0.0744    3.8229    0.5230 H   0  0  0  0  0  0  0  0  0  0  0  0
    2.8357    2.1609   -5.6887 H   0  0  0  0  0  0  0  0  0  0  0  0
    3.1529    4.6479   -7.0768 H   0  0  0  0  0  0  0  0  0  0  0  0
   -0.0139    1.6900    1.0124 H   0  0  0  0  0  0  0  0  0  0  0  0
    3.1619    2.9148   -1.5170 H   0  0  0  0  0  0  0  0  0  0  0  0
    3.3819    0.8091   -8.3820 H   0  0  0  0  0  0  0  0  0  0  0  0
    4.8507    0.3899   -6.5832 H   0  0  0  0  0  0  0  0  0  0  0  0
    5.4737    5.4465   -7.8192 H   0  0  0  0  0  0  0  0  0  0  0  0
    5.3426    4.3819   -9.2167 H   0  0  0  0  0  0  0  0  0  0  0  0
    0.7905    1.6096   -2.3391 H   0  0  0  0  0  0  0  0  0  0  0  0
    3.5324    0.5246   -2.1400 H   0  0  0  0  0  0  0  0  0  0  0  0
    1.2818    2.9495   -7.6626 H   0  0  0  0  0  0  0  0  0  0  0  0
    1.3251    0.0027   -8.0618 H   0  0  0  0  0  0  0  0  0  0  0  0
    4.7483    6.4998   -9.6387 H   0  0  0  0  0  0  0  0  0  0  0  0
   -0.3366   -1.5349   -0.0840 H   0  0  0  0  0  0  0  0  0  0  0  0
   -0.7742   -0.4728    1.2463 H   0  0  0  0  0  0  0  0  0  0  0  0
    2.5374   -1.1175   -0.3622 H   0  0  0  0  0  0  0  0  0  0  0  0
    3.6080    1.1297    0.6182 H   0  0  0  0  0  0  0  0  0  0  0  0
    0.8640    2.8620   -9.8464 H   0  0  0  0  0  0  0  0  0  0  0  0
    0.2155   -2.3467    1.9406 H   0  0  0  0  0  0  0  0  0  0  0  0
    0.8860   -0.0918   -2.4084 H   0  0  0  0  0  0  0  0  0  0  0  0
  2  1  1  0  0  0  0 
  2  4  1  0  0  0  0 
  5  2  1  0  0  0  0 
  2 45  1  0  0  0  0 
  3  1  1  0  0  0  0 
  6  3  1  0  0  0  0 
  3  7  1  0  0  0  0 
  4  8  1  0  0  0  0 
  4  9  1  0  0  0  0 
  5 10  1  0  0  0  0 
 11  5  1  0  0  0  0 
  6 12  1  0  0  0  0 
 13  6  1  0  0  0  0 
 14  7  1  0  0  0  0 
  8 15  1  0  0  0  0 
 16  9  1  0  0  0  0 
 16 11  1  0  0  0  0 
 11 17  1  0  0  0  0 
 13 18  1  0  0  0  0 
 19 13  1  0  0  0  0 
 19 14  1  0  0  0  0 
 14 20  1  0  0  0  0 
 16 21  1  0  0  0  0 
 19 22  1  0  0  0  0 
 23 21  1  0  0  0  0 
 24 22  1  0  0  0  0 
 25 23  1  0  0  0  0 
 23 26  1  0  0  0  0 
 23 46  1  0  0  0  0 
 24 27  1  0  0  0  0 
 28 24  1  0  0  0  0 
 24 47  1  0  0  0  0 
 29 25  1  0  0  0  0 
 25 30  1  0  0  0  0 
 26 31  1  0  0  0  0 
 26 32  1  0  0  0  0 
 27 33  2  0  0  0  0 
 28 34  1  0  0  0  0 
 28 35  1  0  0  0  0 
 29 36  1  0  0  0  0 
 29 37  1  0  0  0  0 
 31 38  1  0  0  0  0 
 33 39  1  0  0  0  0 
 40 33  1  0  0  0  0 
 35 40  1  0  0  0  0 
 35 41  1  0  0  0  0 
 36 42  1  0  0  0  0 
 39 43  1  0  0  0  0 
 40 44  1  0  0  0  0 
 32 36  1  0  0  0  0 
  3 48  1  0  0  0  0 
  4 49  1  0  0  0  0 
  5 50  1  0  0  0  0 
  6 51  1  0  0  0  0 
  8 52  1  0  0  0  0 
  8 53  1  0  0  0  0 
 10 54  1  0  0  0  0 
 11 55  1  0  0  0  0 
 12 56  1  0  0  0  0 
 13 57  1  0  0  0  0 
 14 58  1  0  0  0  0 
 15 59  1  0  0  0  0 
 16 60  1  0  0  0  0 
 17 61  1  0  0  0  0 
 18 62  1  0  0  0  0 
 19 63  1  0  0  0  0 
 20 64  1  0  0  0  0 
 20 65  1  0  0  0  0 
 20 66  1  0  0  0  0 
 22 67  1  0  0  0  0 
 25 68  1  0  0  0  0 
 26 69  1  0  0  0  0 
 27 70  1  0  0  0  0 
 28 71  1  0  0  0  0 
 29 72  1  0  0  0  0 
 30 73  1  0  0  0  0 
 31 74  1  0  0  0  0 
 31 75  1  0  0  0  0 
 34 76  1  0  0  0  0 
 35 77  1  0  0  0  0 
 36 78  1  0  0  0  0 
 37 79  1  0  0  0  0 
 38 80  1  0  0  0  0 
 39 81  1  0  0  0  0 
 39 82  1  0  0  0  0 
 40 83  1  0  0  0  0 
 41 84  1  0  0  0  0 
 42 85  1  0  0  0  0 
 43 86  1  0  0  0  0 
 44 87  1  0  0  0  0 
M  END
> <cdk:Title>
acarbose

> <Conformer>
1

> <SuperDrugID>
SD000017

$$$$
