docarpamine
  CDK     0628171802

 62 62  0  0  0  0  0  0  0  0999 V2000
    1.0696   12.9354    0.0799 O   0  0  0  0  0  0  0  0  0  0  0  0
    1.2053   14.2638    0.3578 C   0  0  0  0  0  0  0  0  0  0  0  0
    1.1550   11.7919    0.8188 C   0  0  0  0  0  0  0  0  0  0  0  0
    1.0162   14.7975    1.6027 O   0  0  0  0  0  0  0  0  0  0  0  0
    1.4481   14.9990   -0.6265 O   0  0  0  0  0  0  0  0  0  0  0  0
    0.8075   10.5531    0.2167 C   0  0  0  0  0  0  0  0  0  0  0  0
    1.6232   11.7984    2.1508 C   0  0  0  0  0  0  0  0  0  0  0  0
    1.0550   16.1910    1.9619 C   0  0  2  0  0  0  0  0  0  0  0  0
    0.3137   10.3400   -1.0481 O   0  0  0  0  0  0  0  0  0  0  0  0
    0.9775    9.3568    0.9470 C   0  0  0  0  0  0  0  0  0  0  0  0
    1.7594   10.5993    2.8694 C   0  0  0  0  0  0  0  0  0  0  0  0
    2.1401   16.4666    3.0183 C   0  0  0  0  0  0  0  0  0  0  0  0
    0.0626   11.0831   -2.1640 C   0  0  0  0  0  0  0  0  0  0  0  0
    1.4504    9.3552    2.2775 C   0  0  0  0  0  0  0  0  0  0  0  0
   -0.4286   10.3861   -3.2240 O   0  0  0  0  0  0  0  0  0  0  0  0
    0.2787   12.3097   -2.2703 O   0  0  0  0  0  0  0  0  0  0  0  0
    1.6489    8.0792    3.0265 C   0  0  1  0  0  0  0  0  0  0  0  0
   -0.6994   10.9012   -4.5322 C   0  0  2  0  0  0  0  0  0  0  0  0
    0.3998    7.1525    3.0906 C   0  0  2  0  0  0  0  0  0  0  0  0
   -1.1327    9.7452   -5.4498 C   0  0  0  0  0  0  0  0  0  0  0  0
    0.4205    6.1154    2.1040 N   0  0  0  0  0  0  0  0  0  0  0  0
   -0.5864    5.2167    1.9096 C   0  0  0  0  0  0  0  0  0  0  0  0
   -0.4902    4.1017    0.9245 C   0  0  2  0  0  0  0  0  0  0  0  0
   -1.6239    5.3057    2.6119 O   0  0  0  0  0  0  0  0  0  0  0  0
    0.6575    3.0953    1.2536 C   0  0  1  0  0  0  0  0  0  0  0  0
   -0.6269    4.5323   -0.4398 N   0  0  0  0  0  0  0  0  0  0  0  0
    0.6735    1.8624    0.3152 C   0  0  1  0  0  0  0  0  0  0  0  0
    0.2581    5.0757   -1.3258 C   0  0  0  0  0  0  0  0  0  0  0  0
    1.9497    0.6798    0.8563 S   0  0  0  0  0  0  0  0  0  0  0  0
    1.6760    5.4368   -1.1306 C   0  0  0  0  0  0  0  0  0  0  0  0
   -0.2097    5.2559   -2.4734 O   0  0  0  0  0  0  0  0  0  0  0  0
    1.7122   -0.7342   -0.2606 C   0  0  0  0  0  0  0  0  0  0  0  0
    1.8865   12.6712    2.6089 H   0  0  0  0  0  0  0  0  0  0  0  0
    0.0801   16.4647    2.3716 H   0  0  0  0  0  0  0  0  0  0  0  0
    1.2459   16.8252    1.0910 H   0  0  0  0  0  0  0  0  0  0  0  0
    0.7605    8.4649    0.4928 H   0  0  0  0  0  0  0  0  0  0  0  0
    2.1026   10.6440    3.8311 H   0  0  0  0  0  0  0  0  0  0  0  0
    3.1053   16.0950    2.6713 H   0  0  0  0  0  0  0  0  0  0  0  0
    2.2170   17.5416    3.1921 H   0  0  0  0  0  0  0  0  0  0  0  0
    1.8856   15.9778    3.9600 H   0  0  0  0  0  0  0  0  0  0  0  0
    2.4922    7.5475    2.5781 H   0  0  0  0  0  0  0  0  0  0  0  0
    1.9420    8.3027    4.0563 H   0  0  0  0  0  0  0  0  0  0  0  0
    0.2118   11.3510   -4.9339 H   0  0  0  0  0  0  0  0  0  0  0  0
   -1.4846   11.6639   -4.4868 H   0  0  0  0  0  0  0  0  0  0  0  0
   -0.5141    7.7445    2.9854 H   0  0  0  0  0  0  0  0  0  0  0  0
    0.3740    6.6696    4.0708 H   0  0  0  0  0  0  0  0  0  0  0  0
   -0.3895    8.9447   -5.4182 H   0  0  0  0  0  0  0  0  0  0  0  0
   -1.2215   10.1021   -6.4775 H   0  0  0  0  0  0  0  0  0  0  0  0
   -2.0968    9.3518   -5.1216 H   0  0  0  0  0  0  0  0  0  0  0  0
    1.2197    6.0282    1.5696 H   0  0  0  0  0  0  0  0  0  0  0  0
   -1.4031    3.5096    1.0572 H   0  0  0  0  0  0  0  0  0  0  0  0
    1.6519    3.6173    1.1110 H   0  0  0  0  0  0  0  0  0  0  0  0
    0.4328    2.6950    2.2973 H   0  0  0  0  0  0  0  0  0  0  0  0
   -1.5168    4.3957   -0.8079 H   0  0  0  0  0  0  0  0  0  0  0  0
   -0.2949    1.3597    0.3365 H   0  0  0  0  0  0  0  0  0  0  0  0
    0.8901    2.1638   -0.7111 H   0  0  0  0  0  0  0  0  0  0  0  0
    2.3106    4.7176   -1.6516 H   0  0  0  0  0  0  0  0  0  0  0  0
    1.8607    6.4303   -1.5422 H   0  0  0  0  0  0  0  0  0  0  0  0
    1.9653    5.4590   -0.0892 H   0  0  0  0  0  0  0  0  0  0  0  0
    2.4287   -1.5138   -0.0042 H   0  0  0  0  0  0  0  0  0  0  0  0
    1.8733   -0.4211   -1.2924 H   0  0  0  0  0  0  0  0  0  0  0  0
    0.7004   -1.1266   -0.1519 H   0  0  0  0  0  0  0  0  0  0  0  0
  1  2  1  0  0  0  0 
  1  3  1  0  0  0  0 
  2  4  1  0  0  0  0 
  2  5  2  0  0  0  0 
  3  6  2  0  0  0  0 
  3  7  1  0  0  0  0 
  4  8  1  0  0  0  0 
  6  9  1  0  0  0  0 
  6 10  1  0  0  0  0 
  7 11  2  0  0  0  0 
  8 12  1  0  0  0  0 
  9 13  1  0  0  0  0 
 10 14  2  0  0  0  0 
 11 14  1  0  0  0  0 
 13 15  1  0  0  0  0 
 13 16  2  0  0  0  0 
 14 17  1  0  0  0  0 
 15 18  1  0  0  0  0 
 17 19  1  0  0  0  0 
 18 20  1  0  0  0  0 
 19 21  1  0  0  0  0 
 21 22  1  0  0  0  0 
 23 22  1  0  0  0  0 
 22 24  2  0  0  0  0 
 23 25  1  0  0  0  0 
 23 26  1  0  0  0  0 
 25 27  1  0  0  0  0 
 26 28  1  0  0  0  0 
 27 29  1  0  0  0  0 
 28 30  1  0  0  0  0 
 28 31  2  0  0  0  0 
 29 32  1  0  0  0  0 
  7 33  1  0  0  0  0 
  8 34  1  0  0  0  0 
  8 35  1  0  0  0  0 
 10 36  1  0  0  0  0 
 11 37  1  0  0  0  0 
 12 38  1  0  0  0  0 
 12 39  1  0  0  0  0 
 12 40  1  0  0  0  0 
 17 41  1  0  0  0  0 
 17 42  1  0  0  0  0 
 18 43  1  0  0  0  0 
 18 44  1  0  0  0  0 
 19 45  1  0  0  0  0 
 19 46  1  0  0  0  0 
 20 47  1  0  0  0  0 
 20 48  1  0  0  0  0 
 20 49  1  0  0  0  0 
 21 50  1  0  0  0  0 
 23 51  1  0  0  0  0 
 25 52  1  0  0  0  0 
 25 53  1  0  0  0  0 
 26 54  1  0  0  0  0 
 27 55  1  0  0  0  0 
 27 56  1  0  0  0  0 
 30 57  1  0  0  0  0 
 30 58  1  0  0  0  0 
 30 59  1  0  0  0  0 
 32 60  1  0  0  0  0 
 32 61  1  0  0  0  0 
 32 62  1  0  0  0  0 
M  END
> <cdk:Title>
docarpamine

> <Conformer>
1

> <SuperDrugID>
SD000833

$$$$
