vorapaxar
  CDK     0628171802

 69 73  0  0  0  0  0  0  0  0999 V2000
    4.0666    3.0498    0.2956 C   0  0  0  0  0  0  0  0  0  0  0  0
    2.7343    2.9316    0.4405 C   0  0  0  0  0  0  0  0  0  0  0  0
    2.0203    1.7331    0.4469 C   0  0  0  0  0  0  0  0  0  0  0  0
    0.6114    1.7265    0.5778 C   0  0  0  0  0  0  0  0  0  0  0  0
   -0.0930    0.5097    0.5097 C   0  0  0  0  0  0  0  0  0  0  0  0
    0.5851   -0.7190    0.3190 C   0  0  0  0  0  0  0  0  0  0  0  0
    1.9960   -0.6592    0.2265 C   0  0  0  0  0  0  0  0  0  0  0  0
    2.6452    0.5319    0.2924 N   0  0  0  0  0  0  0  0  0  0  0  0
   -0.1343   -1.9484    0.1994 C   0  0  0  0  0  0  0  0  0  0  0  0
   -1.2049   -2.2626    1.0747 C   0  0  0  0  0  0  0  0  0  0  0  0
   -1.9429   -3.4527    0.9225 C   0  0  0  0  0  0  0  0  0  0  0  0
   -2.9300   -3.7209    1.7326 F   0  0  0  0  0  0  0  0  0  0  0  0
   -1.6192   -4.3527   -0.1084 C   0  0  0  0  0  0  0  0  0  0  0  0
   -0.5533   -4.0659   -0.9771 C   0  0  0  0  0  0  0  0  0  0  0  0
    0.1857   -2.8791   -0.8211 C   0  0  0  0  0  0  0  0  0  0  0  0
    4.8021    4.3285    0.2138 C   0  0  2  0  0  0  0  0  0  0  0  0
    4.8413    5.2103    1.5255 C   0  0  1  0  0  0  0  0  0  0  0  0
    3.6685    6.2229    1.6864 C   0  0  1  0  0  0  0  0  0  0  0  0
    2.9696    6.6692    0.3712 C   0  0  1  0  0  0  0  0  0  0  0  0
    3.9731    6.6358   -0.8133 C   0  0  1  0  0  0  0  0  0  0  0  0
    4.4281    5.1606   -1.0930 C   0  0  1  0  0  0  0  0  0  0  0  0
    5.5508    5.1491   -2.1918 C   0  0  1  0  0  0  0  0  0  0  0  0
    5.4742    6.3078   -3.2336 C   0  0  2  0  0  0  0  0  0  0  0  0
    4.0529    6.8990   -3.4304 C   0  0  2  0  0  0  0  0  0  0  0  0
    3.4040    7.3499   -2.0838 C   0  0  1  0  0  0  0  0  0  0  0  0
    3.2173    5.9314   -4.0816 N   0  0  0  0  0  0  0  0  0  0  0  0
    2.4669    6.1570   -5.1835 C   0  0  0  0  0  0  0  0  0  0  0  0
    2.4685    7.3762   -5.7974 O   0  0  0  0  0  0  0  0  0  0  0  0
    1.7171    7.7333   -6.9587 C   0  0  2  0  0  0  0  0  0  0  0  0
    1.9992    9.2017   -7.3249 C   0  0  0  0  0  0  0  0  0  0  0  0
    1.7604    5.2111   -5.6011 O   0  0  0  0  0  0  0  0  0  0  0  0
    2.8282    5.5606    2.6857 C   0  0  0  0  0  0  0  0  0  0  0  0
    3.5055    4.6157    3.3675 O   0  0  0  0  0  0  0  0  0  0  0  0
    4.8389    4.4468    2.8882 C   0  0  2  0  0  0  0  0  0  0  0  0
    5.8372    5.0109    3.9273 C   0  0  0  0  0  0  0  0  0  0  0  0
    1.6326    5.8448    2.9214 O   0  0  0  0  0  0  0  0  0  0  0  0
    4.6039    2.2133    0.2166 H   0  0  0  0  0  0  0  0  0  0  0  0
    2.2110    3.7659    0.5269 H   0  0  0  0  0  0  0  0  0  0  0  0
    0.0864    2.5989    0.7056 H   0  0  0  0  0  0  0  0  0  0  0  0
   -1.1154    0.5351    0.5783 H   0  0  0  0  0  0  0  0  0  0  0  0
    2.5539   -1.5078    0.1075 H   0  0  0  0  0  0  0  0  0  0  0  0
   -1.4571   -1.6252    1.8345 H   0  0  0  0  0  0  0  0  0  0  0  0
   -2.1557   -5.2142   -0.2299 H   0  0  0  0  0  0  0  0  0  0  0  0
   -0.3192   -4.7180   -1.7283 H   0  0  0  0  0  0  0  0  0  0  0  0
    0.9502   -2.6926   -1.4737 H   0  0  0  0  0  0  0  0  0  0  0  0
    5.8467    4.0094    0.1070 H   0  0  0  0  0  0  0  0  0  0  0  0
    5.7643    5.7998    1.4491 H   0  0  0  0  0  0  0  0  0  0  0  0
    4.0666    7.1266    2.1622 H   0  0  0  0  0  0  0  0  0  0  0  0
    2.1116    6.0326    0.1419 H   0  0  0  0  0  0  0  0  0  0  0  0
    2.5900    7.6861    0.5040 H   0  0  0  0  0  0  0  0  0  0  0  0
    4.8646    7.2003   -0.5116 H   0  0  0  0  0  0  0  0  0  0  0  0
    3.5590    4.6816   -1.5606 H   0  0  0  0  0  0  0  0  0  0  0  0
    6.5380    5.2081   -1.7233 H   0  0  0  0  0  0  0  0  0  0  0  0
    5.5085    4.1934   -2.7243 H   0  0  0  0  0  0  0  0  0  0  0  0
    5.8662    5.9647   -4.1959 H   0  0  0  0  0  0  0  0  0  0  0  0
    6.1210    7.1245   -2.8982 H   0  0  0  0  0  0  0  0  0  0  0  0
    4.1680    7.7902   -4.0586 H   0  0  0  0  0  0  0  0  0  0  0  0
    2.3200    7.2057   -2.1406 H   0  0  0  0  0  0  0  0  0  0  0  0
    3.5652    8.4267   -1.9636 H   0  0  0  0  0  0  0  0  0  0  0  0
    3.1770    5.0441   -3.6943 H   0  0  0  0  0  0  0  0  0  0  0  0
    0.6522    7.6070   -6.7525 H   0  0  0  0  0  0  0  0  0  0  0  0
    1.9986    7.0863   -7.7952 H   0  0  0  0  0  0  0  0  0  0  0  0
    1.4529    9.4676   -8.2322 H   0  0  0  0  0  0  0  0  0  0  0  0
    1.6812    9.8625   -6.5143 H   0  0  0  0  0  0  0  0  0  0  0  0
    3.0681    9.3436   -7.4989 H   0  0  0  0  0  0  0  0  0  0  0  0
    5.0423    3.3830    2.7587 H   0  0  0  0  0  0  0  0  0  0  0  0
    5.6341    6.0658    4.1210 H   0  0  0  0  0  0  0  0  0  0  0  0
    5.7468    4.4608    4.8642 H   0  0  0  0  0  0  0  0  0  0  0  0
    6.8595    4.9120    3.5577 H   0  0  0  0  0  0  0  0  0  0  0  0
  1  2  2  0  0  0  0 
  2  3  1  0  0  0  0 
  3  4  2  0  0  0  0 
  3  8  1  0  0  0  0 
  4  5  1  0  0  0  0 
  5  6  2  0  0  0  0 
  6  9  1  0  0  0  0 
  7  6  1  0  0  0  0 
  8  7  2  0  0  0  0 
  9 10  2  0  0  0  0 
  9 15  1  0  0  0  0 
 10 11  1  0  0  0  0 
 11 12  1  0  0  0  0 
 11 13  2  0  0  0  0 
 14 13  1  0  0  0  0 
 15 14  2  0  0  0  0 
 16  1  1  0  0  0  0 
 17 16  1  0  0  0  0 
 16 21  1  0  0  0  0 
 17 18  1  0  0  0  0 
 17 34  1  0  0  0  0 
 18 19  1  0  0  0  0 
 18 32  1  0  0  0  0 
 20 19  1  0  0  0  0 
 20 25  1  0  0  0  0 
 21 20  1  0  0  0  0 
 21 22  1  0  0  0  0 
 22 23  1  0  0  0  0 
 24 23  1  0  0  0  0 
 24 26  1  0  0  0  0 
 24 25  1  0  0  0  0 
 26 27  1  0  0  0  0 
 27 28  1  0  0  0  0 
 27 31  2  0  0  0  0 
 28 29  1  0  0  0  0 
 29 30  1  0  0  0  0 
 32 33  1  0  0  0  0 
 32 36  2  0  0  0  0 
 34 33  1  0  0  0  0 
 34 35  1  0  0  0  0 
  1 37  1  0  0  0  0 
 38  2  1  0  0  0  0 
 39  4  1  0  0  0  0 
 40  5  1  0  0  0  0 
 41  7  1  0  0  0  0 
 42 10  1  0  0  0  0 
 43 13  1  0  0  0  0 
 44 14  1  0  0  0  0 
 45 15  1  0  0  0  0 
 16 46  1  0  0  0  0 
 17 47  1  0  0  0  0 
 18 48  1  0  0  0  0 
 49 19  1  0  0  0  0 
 50 19  1  0  0  0  0 
 20 51  1  0  0  0  0 
 21 52  1  0  0  0  0 
 53 22  1  0  0  0  0 
 54 22  1  0  0  0  0 
 55 23  1  0  0  0  0 
 56 23  1  0  0  0  0 
 24 57  1  0  0  0  0 
 58 25  1  0  0  0  0 
 59 25  1  0  0  0  0 
 60 26  1  0  0  0  0 
 61 29  1  0  0  0  0 
 62 29  1  0  0  0  0 
 63 30  1  0  0  0  0 
 64 30  1  0  0  0  0 
 65 30  1  0  0  0  0 
 34 66  1  0  0  0  0 
 67 35  1  0  0  0  0 
 68 35  1  0  0  0  0 
 69 35  1  0  0  0  0 
M  END
> <cdk:Title>
vorapaxar

> <Conformer>
1

> <SuperDrugID>
SD003813

$$$$
