parsalmide
  CDK     0628171801

 36 36  0  0  0  0  0  0  0  0999 V2000
   -2.9135    2.9629    0.2001 C   0  0  0  0  0  0  0  0  0  0  0  0
   -3.8037    4.0518    0.2477 C   0  0  0  0  0  0  0  0  0  0  0  0
   -3.6521    5.1198   -0.6559 C   0  0  0  0  0  0  0  0  0  0  0  0
   -2.6125    5.0957   -1.5994 C   0  0  0  0  0  0  0  0  0  0  0  0
   -1.6991    4.0212   -1.6250 C   0  0  0  0  0  0  0  0  0  0  0  0
   -1.8526    2.9205   -0.7368 C   0  0  0  0  0  0  0  0  0  0  0  0
   -4.7995    4.0618    1.1528 N   0  0  0  0  0  0  0  0  0  0  0  0
   -0.6689    4.0804   -2.5270 O   0  0  0  0  0  0  0  0  0  0  0  0
    0.4893    4.7572   -2.0002 C   0  0  1  0  0  0  0  0  0  0  0  0
    1.4854    4.6476   -2.9227 C   0  0  0  0  0  0  0  0  0  0  0  0
    2.3544    4.5458   -3.7347 C   0  0  0  0  0  0  0  0  0  0  0  0
   -0.9852    1.7916   -0.7769 C   0  0  0  0  0  0  0  0  0  0  0  0
   -0.4324    1.4782   -1.8587 O   0  0  0  0  0  0  0  0  0  0  0  0
   -0.7495    1.0376    0.3392 N   0  0  0  0  0  0  0  0  0  0  0  0
    0.1133   -0.0996    0.4218 C   0  0  2  0  0  0  0  0  0  0  0  0
    1.6167    0.2539    0.2799 C   0  0  2  0  0  0  0  0  0  0  0  0
    2.1141    1.2928    1.3213 C   0  0  1  0  0  0  0  0  0  0  0  0
    3.5533    1.7698    1.0293 C   0  0  0  0  0  0  0  0  0  0  0  0
   -3.0542    2.1897    0.8538 H   0  0  0  0  0  0  0  0  0  0  0  0
   -4.2923    5.9170   -0.6317 H   0  0  0  0  0  0  0  0  0  0  0  0
   -2.5152    5.8699   -2.2633 H   0  0  0  0  0  0  0  0  0  0  0  0
   -4.8929    3.3263    1.7782 H   0  0  0  0  0  0  0  0  0  0  0  0
   -5.4245    4.8016    1.1821 H   0  0  0  0  0  0  0  0  0  0  0  0
    0.2861    5.8194   -1.8281 H   0  0  0  0  0  0  0  0  0  0  0  0
    0.8402    4.3019   -1.0688 H   0  0  0  0  0  0  0  0  0  0  0  0
    3.0224    4.4662   -4.3632 H   0  0  0  0  0  0  0  0  0  0  0  0
   -1.1947    1.3009    1.1604 H   0  0  0  0  0  0  0  0  0  0  0  0
   -0.1650   -0.8240   -0.3483 H   0  0  0  0  0  0  0  0  0  0  0  0
   -0.0521   -0.5752    1.3918 H   0  0  0  0  0  0  0  0  0  0  0  0
    1.8006    0.6318   -0.7295 H   0  0  0  0  0  0  0  0  0  0  0  0
    2.1969   -0.6652    0.3924 H   0  0  0  0  0  0  0  0  0  0  0  0
    1.4623    2.1712    1.3161 H   0  0  0  0  0  0  0  0  0  0  0  0
    2.0788    0.8524    2.3208 H   0  0  0  0  0  0  0  0  0  0  0  0
    3.8697    2.4821    1.7930 H   0  0  0  0  0  0  0  0  0  0  0  0
    3.5957    2.2630    0.0562 H   0  0  0  0  0  0  0  0  0  0  0  0
    4.2486    0.9279    1.0299 H   0  0  0  0  0  0  0  0  0  0  0  0
  1  2  2  0  0  0  0 
  2  3  1  0  0  0  0 
  3  4  2  0  0  0  0 
  4  5  1  0  0  0  0 
  5  6  2  0  0  0  0 
  1  6  1  0  0  0  0 
  2  7  1  0  0  0  0 
  5  8  1  0  0  0  0 
  8  9  1  0  0  0  0 
  9 10  1  0  0  0  0 
 10 11  3  0  0  0  0 
  6 12  1  0  0  0  0 
 12 13  2  0  0  0  0 
 12 14  1  0  0  0  0 
 14 15  1  0  0  0  0 
 15 16  1  0  0  0  0 
 16 17  1  0  0  0  0 
 17 18  1  0  0  0  0 
  1 19  1  0  0  0  0 
  3 20  1  0  0  0  0 
  4 21  1  0  0  0  0 
  7 22  1  0  0  0  0 
  7 23  1  0  0  0  0 
  9 24  1  0  0  0  0 
  9 25  1  0  0  0  0 
 11 26  1  0  0  0  0 
 14 27  1  0  0  0  0 
 15 28  1  0  0  0  0 
 15 29  1  0  0  0  0 
 16 30  1  0  0  0  0 
 16 31  1  0  0  0  0 
 17 32  1  0  0  0  0 
 17 33  1  0  0  0  0 
 18 34  1  0  0  0  0 
 18 35  1  0  0  0  0 
 18 36  1  0  0  0  0 
M  END
> <cdk:Title>
parsalmide

> <Conformer>
1

> <SuperDrugID>
SD002944

$$$$
