cyfluthrin
  CDK     0628171801

 47 49  0  0  0  0  0  0  0  0999 V2000
    1.8901   -1.0956    1.0305 C   0  0  0  0  0  0  0  0  0  0  0  0
    0.8805   -1.5714    1.8164 O   0  0  0  0  0  0  0  0  0  0  0  0
    3.0677   -1.0030    1.4496 O   0  0  0  0  0  0  0  0  0  0  0  0
    1.5738   -0.6932   -0.3476 C   0  0  1  0  0  0  0  0  0  0  0  0
    0.9439   -1.8943    3.2125 C   0  0  2  0  0  0  0  0  0  0  0  0
    0.3426    0.2276   -0.5477 C   0  0  1  0  0  0  0  0  0  0  0  0
    1.7749    0.7805   -0.7855 C   0  0  1  0  0  0  0  0  0  0  0  0
   -0.2658   -2.4340    3.5574 C   0  0  0  0  0  0  0  0  0  0  0  0
    1.2489   -0.6826    4.0307 C   0  0  0  0  0  0  0  0  0  0  0  0
   -0.5502   -0.0934   -1.6459 C   0  0  0  0  0  0  0  0  0  0  0  0
    0.6597    0.5668    3.7181 C   0  0  0  0  0  0  0  0  0  0  0  0
    2.1672   -0.7405    5.1046 C   0  0  0  0  0  0  0  0  0  0  0  0
   -1.3978   -1.1357   -1.6485 C   0  0  0  0  0  0  0  0  0  0  0  0
    1.0159    1.7424    4.4124 C   0  0  0  0  0  0  0  0  0  0  0  0
    2.5355    0.4277    5.7958 C   0  0  0  0  0  0  0  0  0  0  0  0
   -2.4089   -1.3884   -2.9447 Cl  0  0  0  0  0  0  0  0  0  0  0  0
   -1.5351   -2.2274   -0.3980 Cl  0  0  0  0  0  0  0  0  0  0  0  0
    0.4583    2.9437    4.0532 O   0  0  0  0  0  0  0  0  0  0  0  0
    1.9847    1.6705    5.4354 C   0  0  0  0  0  0  0  0  0  0  0  0
   -0.7488    3.1526    4.6704 C   0  0  0  0  0  0  0  0  0  0  0  0
    2.3806    2.7490    6.0541 F   0  0  0  0  0  0  0  0  0  0  0  0
   -0.8006    3.7615    5.9430 C   0  0  0  0  0  0  0  0  0  0  0  0
   -1.9542    2.7869    4.0313 C   0  0  0  0  0  0  0  0  0  0  0  0
   -2.0336    3.9498    6.5928 C   0  0  0  0  0  0  0  0  0  0  0  0
   -3.1888    2.9791    4.6795 C   0  0  0  0  0  0  0  0  0  0  0  0
   -3.2278    3.5514    5.9647 C   0  0  0  0  0  0  0  0  0  0  0  0
   -1.2784   -2.8947    3.8418 N   0  0  0  0  0  0  0  0  0  0  0  0
    2.2918    1.8120    0.2573 C   0  0  0  0  0  0  0  0  0  0  0  0
    2.3208    0.9643   -2.2273 C   0  0  0  0  0  0  0  0  0  0  0  0
    1.7464   -1.4398   -1.1260 H   0  0  0  0  0  0  0  0  0  0  0  0
    1.7003   -2.6719    3.3511 H   0  0  0  0  0  0  0  0  0  0  0  0
   -0.1415    0.5638    0.3741 H   0  0  0  0  0  0  0  0  0  0  0  0
   -0.5454    0.5201   -2.4264 H   0  0  0  0  0  0  0  0  0  0  0  0
   -0.0239    0.6296    2.9587 H   0  0  0  0  0  0  0  0  0  0  0  0
    2.5832   -1.6320    5.3855 H   0  0  0  0  0  0  0  0  0  0  0  0
    3.2140    0.3703    6.5585 H   0  0  0  0  0  0  0  0  0  0  0  0
    0.0599    4.0652    6.4018 H   0  0  0  0  0  0  0  0  0  0  0  0
   -1.9350    2.3769    3.0949 H   0  0  0  0  0  0  0  0  0  0  0  0
   -2.0619    4.3764    7.5216 H   0  0  0  0  0  0  0  0  0  0  0  0
   -4.0572    2.7024    4.2164 H   0  0  0  0  0  0  0  0  0  0  0  0
   -4.1234    3.6804    6.4413 H   0  0  0  0  0  0  0  0  0  0  0  0
    1.8364    1.6828    1.2387 H   0  0  0  0  0  0  0  0  0  0  0  0
    2.0699    2.8239   -0.0790 H   0  0  0  0  0  0  0  0  0  0  0  0
    3.3726    1.7130    0.3620 H   0  0  0  0  0  0  0  0  0  0  0  0
    1.9267    0.2228   -2.9226 H   0  0  0  0  0  0  0  0  0  0  0  0
    2.0602    1.9556   -2.5955 H   0  0  0  0  0  0  0  0  0  0  0  0
    3.4065    0.8739   -2.2153 H   0  0  0  0  0  0  0  0  0  0  0  0
  1  2  1  0  0  0  0 
  1  3  2  0  0  0  0 
  1  4  1  0  0  0  0 
  2  5  1  0  0  0  0 
  4  6  1  0  0  0  0 
  4  7  1  0  0  0  0 
  5  8  1  0  0  0  0 
  5  9  1  0  0  0  0 
  6  7  1  0  0  0  0 
  6 10  1  0  0  0  0 
  9 11  2  0  0  0  0 
  9 12  1  0  0  0  0 
 10 13  2  0  0  0  0 
 11 14  1  0  0  0  0 
 12 15  2  0  0  0  0 
 13 16  1  0  0  0  0 
 13 17  1  0  0  0  0 
 14 18  1  0  0  0  0 
 14 19  2  0  0  0  0 
 15 19  1  0  0  0  0 
 18 20  1  0  0  0  0 
 19 21  1  0  0  0  0 
 20 22  2  0  0  0  0 
 20 23  1  0  0  0  0 
 22 24  1  0  0  0  0 
 23 25  2  0  0  0  0 
 24 26  2  0  0  0  0 
 25 26  1  0  0  0  0 
  8 27  3  0  0  0  0 
  7 28  1  0  0  0  0 
  7 29  1  0  0  0  0 
  4 30  1  0  0  0  0 
  5 31  1  0  0  0  0 
  6 32  1  0  0  0  0 
 10 33  1  0  0  0  0 
 11 34  1  0  0  0  0 
 12 35  1  0  0  0  0 
 15 36  1  0  0  0  0 
 22 37  1  0  0  0  0 
 23 38  1  0  0  0  0 
 24 39  1  0  0  0  0 
 25 40  1  0  0  0  0 
 26 41  1  0  0  0  0 
 28 42  1  0  0  0  0 
 28 43  1  0  0  0  0 
 28 44  1  0  0  0  0 
 29 45  1  0  0  0  0 
 29 46  1  0  0  0  0 
 29 47  1  0  0  0  0 
M  END
> <cdk:Title>
cyfluthrin

> <Conformer>
1

> <SuperDrugID>
SD003547

$$$$
