ketazolam
  CDK     0628171801

 43 46  0  0  0  0  0  0  0  0999 V2000
   -0.4990   -3.7507   -2.3556 O   0  0  0  0  0  0  0  0  0  0  0  0
   -0.3422   -3.0495   -1.3253 C   0  0  0  0  0  0  0  0  0  0  0  0
   -0.8793   -1.7761   -1.2217 N   0  0  0  0  0  0  0  0  0  0  0  0
    0.3595   -3.6234   -0.2902 C   0  0  0  0  0  0  0  0  0  0  0  0
   -0.6652   -1.0114    0.0157 C   0  0  1  0  0  0  0  0  0  0  0  0
   -1.7148   -1.2963   -2.3156 C   0  0  1  0  0  0  0  0  0  0  0  0
    0.6462   -2.9087    0.8082 C   0  0  0  0  0  0  0  0  0  0  0  0
   -2.0410   -0.9405    0.6517 C   0  0  0  0  0  0  0  0  0  0  0  0
    0.3177   -1.6054    0.9156 O   0  0  0  0  0  0  0  0  0  0  0  0
    0.0354    0.3042   -0.2292 C   0  0  0  0  0  0  0  0  0  0  0  0
   -2.2472    0.0867   -2.2186 C   0  0  0  0  0  0  0  0  0  0  0  0
    1.3423   -3.5098    1.9281 C   0  0  0  0  0  0  0  0  0  0  0  0
   -3.1076   -0.2126    0.0288 C   0  0  0  0  0  0  0  0  0  0  0  0
   -2.3241   -1.6491    1.8517 C   0  0  0  0  0  0  0  0  0  0  0  0
    1.1131    0.3622   -1.1527 C   0  0  0  0  0  0  0  0  0  0  0  0
   -0.3101    1.5049    0.4456 C   0  0  0  0  0  0  0  0  0  0  0  0
   -2.0645    0.8216   -3.2213 O   0  0  0  0  0  0  0  0  0  0  0  0
   -2.9247    0.5675   -1.1080 N   0  0  0  0  0  0  0  0  0  0  0  0
   -4.4085   -0.2885    0.5854 C   0  0  0  0  0  0  0  0  0  0  0  0
   -3.6189   -1.6913    2.3980 C   0  0  0  0  0  0  0  0  0  0  0  0
    1.7689    1.5737   -1.4405 C   0  0  0  0  0  0  0  0  0  0  0  0
    0.3425    2.7188    0.1594 C   0  0  0  0  0  0  0  0  0  0  0  0
   -3.4363    1.9266   -1.1442 C   0  0  0  0  0  0  0  0  0  0  0  0
   -4.6647   -1.0177    1.7536 C   0  0  0  0  0  0  0  0  0  0  0  0
   -3.9317   -2.5623    3.8158 Cl  0  0  0  0  0  0  0  0  0  0  0  0
    1.3750    2.7554   -0.7917 C   0  0  0  0  0  0  0  0  0  0  0  0
    0.6466   -4.5743   -0.3589 H   0  0  0  0  0  0  0  0  0  0  0  0
   -1.1576   -1.3991   -3.2542 H   0  0  0  0  0  0  0  0  0  0  0  0
   -2.5901   -1.9475   -2.3829 H   0  0  0  0  0  0  0  0  0  0  0  0
    0.7209   -4.2914    2.3714 H   0  0  0  0  0  0  0  0  0  0  0  0
    1.5616   -2.7672    2.6982 H   0  0  0  0  0  0  0  0  0  0  0  0
    2.2884   -3.9446    1.5980 H   0  0  0  0  0  0  0  0  0  0  0  0
   -1.5911   -2.1629    2.3409 H   0  0  0  0  0  0  0  0  0  0  0  0
    1.4270   -0.4837   -1.6353 H   0  0  0  0  0  0  0  0  0  0  0  0
   -1.0477    1.5121    1.1522 H   0  0  0  0  0  0  0  0  0  0  0  0
   -5.1937    0.1884    0.1375 H   0  0  0  0  0  0  0  0  0  0  0  0
    2.5323    1.5949   -2.1215 H   0  0  0  0  0  0  0  0  0  0  0  0
    0.0638    3.5766    0.6426 H   0  0  0  0  0  0  0  0  0  0  0  0
   -4.2061    2.0096   -1.9155 H   0  0  0  0  0  0  0  0  0  0  0  0
   -2.6315    2.6255   -1.3787 H   0  0  0  0  0  0  0  0  0  0  0  0
   -3.8705    2.2568   -0.1975 H   0  0  0  0  0  0  0  0  0  0  0  0
   -5.6155   -1.0523    2.1287 H   0  0  0  0  0  0  0  0  0  0  0  0
    1.8410    3.6391   -1.0064 H   0  0  0  0  0  0  0  0  0  0  0  0
  1  2  2  0  0  0  0 
  2  3  1  0  0  0  0 
  2  4  1  0  0  0  0 
  5  3  1  0  0  0  0 
  3  6  1  0  0  0  0 
  4  7  2  0  0  0  0 
  5  8  1  0  0  0  0 
  5  9  1  0  0  0  0 
  5 10  1  0  0  0  0 
  6 11  1  0  0  0  0 
  7  9  1  0  0  0  0 
  7 12  1  0  0  0  0 
  8 13  2  0  0  0  0 
  8 14  1  0  0  0  0 
 10 15  2  0  0  0  0 
 10 16  1  0  0  0  0 
 11 17  2  0  0  0  0 
 11 18  1  0  0  0  0 
 13 18  1  0  0  0  0 
 13 19  1  0  0  0  0 
 14 20  2  0  0  0  0 
 15 21  1  0  0  0  0 
 16 22  2  0  0  0  0 
 18 23  1  0  0  0  0 
 19 24  2  0  0  0  0 
 20 24  1  0  0  0  0 
 20 25  1  0  0  0  0 
 21 26  2  0  0  0  0 
 22 26  1  0  0  0  0 
  4 27  1  0  0  0  0 
  6 28  1  0  0  0  0 
  6 29  1  0  0  0  0 
 12 30  1  0  0  0  0 
 12 31  1  0  0  0  0 
 12 32  1  0  0  0  0 
 14 33  1  0  0  0  0 
 15 34  1  0  0  0  0 
 16 35  1  0  0  0  0 
 19 36  1  0  0  0  0 
 21 37  1  0  0  0  0 
 22 38  1  0  0  0  0 
 23 39  1  0  0  0  0 
 23 40  1  0  0  0  0 
 23 41  1  0  0  0  0 
 24 42  1  0  0  0  0 
 26 43  1  0  0  0  0 
M  END
> <cdk:Title>
ketazolam

> <Conformer>
1

> <SuperDrugID>
SD001348

$$$$
