chenodiol
  CDK     0628171801

 68 71  0  0  0  0  0  0  0  0999 V2000
   -0.9076    7.1725    7.5972 C   0  0  0  0  0  0  0  0  0  0  0  0
   -0.3599    8.5750    8.0674 C   0  0  2  0  0  0  0  0  0  0  0  0
    0.5982    9.2666    7.0366 C   0  0  2  0  0  0  0  0  0  0  0  0
    0.6176    8.4102    9.2988 C   0  0  1  0  0  0  0  0  0  0  0  0
   -1.5445    9.5840    8.2689 C   0  0  2  0  0  0  0  0  0  0  0  0
   -0.0447    9.5004    5.6263 C   0  0  1  0  0  0  0  0  0  0  0  0
    1.9022    8.4538    7.1307 C   0  0  1  0  0  0  0  0  0  0  0  0
    0.2292    7.4426   10.4907 C   0  0  1  0  0  0  0  0  0  0  0  0
    1.9763    8.0357    8.6183 C   0  0  2  0  0  0  0  0  0  0  0  0
   -2.2738    9.9322    6.9383 C   0  0  2  0  0  0  0  0  0  0  0  0
   -1.3314   10.4032    5.7724 C   0  0  2  0  0  0  0  0  0  0  0  0
    0.9576   10.0840    4.5785 C   0  0  2  0  0  0  0  0  0  0  0  0
    1.3430    7.2997   11.5939 C   0  0  2  0  0  0  0  0  0  0  0  0
   -1.1362    7.7944   11.1547 C   0  0  0  0  0  0  0  0  0  0  0  0
   -2.0674   10.6499    4.3802 C   0  0  2  0  0  0  0  0  0  0  0  0
    1.6556   11.2153    5.0988 O   0  0  0  0  0  0  0  0  0  0  0  0
    0.2804   10.4175    3.2158 C   0  0  2  0  0  0  0  0  0  0  0  0
    1.6032    8.5595   12.4699 C   0  0  2  0  0  0  0  0  0  0  0  0
   -2.6754    9.3150    3.7964 C   0  0  0  0  0  0  0  0  0  0  0  0
   -1.0268   11.2716    3.3542 C   0  0  2  0  0  0  0  0  0  0  0  0
   -3.2954   11.6386    4.4919 C   0  0  2  0  0  0  0  0  0  0  0  0
    2.6857    8.3602   13.4511 C   0  0  0  0  0  0  0  0  0  0  0  0
   -0.6929   12.7803    3.6359 C   0  0  1  0  0  0  0  0  0  0  0  0
   -2.9199   13.0964    4.8519 C   0  0  1  0  0  0  0  0  0  0  0  0
    3.9658    8.1974   13.0382 O   0  0  0  0  0  0  0  0  0  0  0  0
    2.4464    8.3651   14.6815 O   0  0  0  0  0  0  0  0  0  0  0  0
   -1.9460   13.6756    3.8000 C   0  0  1  0  0  0  0  0  0  0  0  0
   -1.5576   14.9903    4.1965 O   0  0  0  0  0  0  0  0  0  0  0  0
   -0.3267    8.5241    5.2387 H   0  0  0  0  0  0  0  0  0  0  0  0
   -0.9574   11.3701    6.1183 H   0  0  0  0  0  0  0  0  0  0  0  0
    0.8572   10.2683    7.4124 H   0  0  0  0  0  0  0  0  0  0  0  0
   -1.4932   11.2655    2.3606 H   0  0  0  0  0  0  0  0  0  0  0  0
    0.7473    9.4040    9.7425 H   0  0  0  0  0  0  0  0  0  0  0  0
   -0.1016    6.4530    7.4526 H   0  0  0  0  0  0  0  0  0  0  0  0
   -1.5971    6.7583    8.3303 H   0  0  0  0  0  0  0  0  0  0  0  0
   -1.4575    7.2285    6.6612 H   0  0  0  0  0  0  0  0  0  0  0  0
   -1.1754   10.5134    8.7143 H   0  0  0  0  0  0  0  0  0  0  0  0
   -2.2873    9.1816    8.9568 H   0  0  0  0  0  0  0  0  0  0  0  0
    1.8589    7.5763    6.4797 H   0  0  0  0  0  0  0  0  0  0  0  0
    2.7659    9.0578    6.8450 H   0  0  0  0  0  0  0  0  0  0  0  0
    0.1161    6.4364   10.0747 H   0  0  0  0  0  0  0  0  0  0  0  0
    2.1668    6.9607    8.6720 H   0  0  0  0  0  0  0  0  0  0  0  0
    2.8018    8.5514    9.1182 H   0  0  0  0  0  0  0  0  0  0  0  0
   -2.9852   10.7253    7.1760 H   0  0  0  0  0  0  0  0  0  0  0  0
   -2.8586    9.0679    6.6291 H   0  0  0  0  0  0  0  0  0  0  0  0
    1.7223    9.3286    4.3783 H   0  0  0  0  0  0  0  0  0  0  0  0
    2.2791    6.9901   11.1216 H   0  0  0  0  0  0  0  0  0  0  0  0
    1.0558    6.4786   12.2604 H   0  0  0  0  0  0  0  0  0  0  0  0
   -1.9673    7.5308   10.5018 H   0  0  0  0  0  0  0  0  0  0  0  0
   -1.1921    8.8627   11.3772 H   0  0  0  0  0  0  0  0  0  0  0  0
   -1.2791    7.2363   12.0843 H   0  0  0  0  0  0  0  0  0  0  0  0
    2.3084   11.4551    4.4083 H   0  0  0  0  0  0  0  0  0  0  0  0
   -0.0241    9.4187    2.7614 H   0  0  0  0  0  0  0  0  0  0  0  0
    1.0338   11.0254    2.6128 H   0  0  0  0  0  0  0  0  0  0  0  0
    0.6879    8.8165   13.0059 H   0  0  0  0  0  0  0  0  0  0  0  0
    1.8731    9.4092   11.8423 H   0  0  0  0  0  0  0  0  0  0  0  0
   -3.0916    9.4816    2.7998 H   0  0  0  0  0  0  0  0  0  0  0  0
   -3.4846    8.9377    4.4230 H   0  0  0  0  0  0  0  0  0  0  0  0
   -1.9434    8.5168    3.7038 H   0  0  0  0  0  0  0  0  0  0  0  0
   -4.0263   11.2757    5.2171 H   0  0  0  0  0  0  0  0  0  0  0  0
   -3.8239   11.6753    3.5326 H   0  0  0  0  0  0  0  0  0  0  0  0
   -0.0937   12.8814    4.5399 H   0  0  0  0  0  0  0  0  0  0  0  0
   -0.0989   13.1777    2.8082 H   0  0  0  0  0  0  0  0  0  0  0  0
   -3.8279   13.7030    4.8731 H   0  0  0  0  0  0  0  0  0  0  0  0
   -2.4764   13.1413    5.8487 H   0  0  0  0  0  0  0  0  0  0  0  0
    4.6851    8.0887   13.6943 H   0  0  0  0  0  0  0  0  0  0  0  0
   -2.4608   13.7548    2.8375 H   0  0  0  0  0  0  0  0  0  0  0  0
   -0.9653   15.3066    3.4828 H   0  0  0  0  0  0  0  0  0  0  0  0
  2  1  1  0  0  0  0 
  3  2  1  0  0  0  0 
  2  4  1  0  0  0  0 
  2  5  1  0  0  0  0 
  6  3  1  0  0  0  0 
  3  7  1  0  0  0  0 
  3 31  1  0  0  0  0 
  4  8  1  0  0  0  0 
  4  9  1  0  0  0  0 
  4 33  1  0  0  0  0 
  5 10  1  0  0  0  0 
 11  6  1  0  0  0  0 
  6 12  1  0  0  0  0 
  6 29  1  0  0  0  0 
  7  9  1  0  0  0  0 
  8 13  1  0  0  0  0 
  8 14  1  0  0  0  0 
 11 10  1  0  0  0  0 
 15 11  1  0  0  0  0 
 11 30  1  0  0  0  0 
 12 16  1  0  0  0  0 
 12 17  1  0  0  0  0 
 13 18  1  0  0  0  0 
 15 19  1  0  0  0  0 
 15 20  1  0  0  0  0 
 15 21  1  0  0  0  0 
 20 17  1  0  0  0  0 
 18 22  1  0  0  0  0 
 20 23  1  0  0  0  0 
 20 32  1  0  0  0  0 
 21 24  1  0  0  0  0 
 22 25  1  0  0  0  0 
 22 26  2  0  0  0  0 
 27 23  1  0  0  0  0 
 27 24  1  0  0  0  0 
 27 28  1  0  0  0  0 
  1 34  1  0  0  0  0 
  1 35  1  0  0  0  0 
  1 36  1  0  0  0  0 
  5 37  1  0  0  0  0 
  5 38  1  0  0  0  0 
  7 39  1  0  0  0  0 
  7 40  1  0  0  0  0 
  8 41  1  0  0  0  0 
  9 42  1  0  0  0  0 
  9 43  1  0  0  0  0 
 10 44  1  0  0  0  0 
 10 45  1  0  0  0  0 
 12 46  1  0  0  0  0 
 13 47  1  0  0  0  0 
 13 48  1  0  0  0  0 
 14 49  1  0  0  0  0 
 14 50  1  0  0  0  0 
 14 51  1  0  0  0  0 
 16 52  1  0  0  0  0 
 17 53  1  0  0  0  0 
 17 54  1  0  0  0  0 
 18 55  1  0  0  0  0 
 18 56  1  0  0  0  0 
 19 57  1  0  0  0  0 
 19 58  1  0  0  0  0 
 19 59  1  0  0  0  0 
 21 60  1  0  0  0  0 
 21 61  1  0  0  0  0 
 23 62  1  0  0  0  0 
 23 63  1  0  0  0  0 
 24 64  1  0  0  0  0 
 24 65  1  0  0  0  0 
 25 66  1  0  0  0  0 
 27 67  1  0  0  0  0 
 28 68  1  0  0  0  0 
M  END
> <cdk:Title>
chenodiol

> <Conformer>
1

> <SuperDrugID>
SD003518

$$$$
