isonixin
  CDK     0628171801

 32 33  0  0  0  0  0  0  0  0999 V2000
    0.4599   -0.1520   -0.0706 N   0  0  0  0  0  0  0  0  0  0  0  0
   -0.2324    0.9335   -0.5212 C   0  0  0  0  0  0  0  0  0  0  0  0
    0.8407   -0.3472    1.2279 C   0  0  0  0  0  0  0  0  0  0  0  0
   -0.4859    1.8896    0.2527 O   0  0  0  0  0  0  0  0  0  0  0  0
   -0.6912    1.0003   -1.8637 C   0  0  0  0  0  0  0  0  0  0  0  0
    0.0712   -1.2242    2.0416 C   0  0  0  0  0  0  0  0  0  0  0  0
    1.9923    0.3018    1.7575 C   0  0  0  0  0  0  0  0  0  0  0  0
   -1.1992   -0.1281   -2.5594 C   0  0  0  0  0  0  0  0  0  0  0  0
   -0.6787    2.2336   -2.5597 C   0  0  0  0  0  0  0  0  0  0  0  0
   -1.1025   -1.9526    1.4956 C   0  0  0  0  0  0  0  0  0  0  0  0
    0.4348   -1.3986    3.3968 C   0  0  0  0  0  0  0  0  0  0  0  0
    2.8618    1.1574    0.9082 C   0  0  0  0  0  0  0  0  0  0  0  0
    2.3232    0.1073    3.1194 C   0  0  0  0  0  0  0  0  0  0  0  0
   -1.2823   -1.2641   -2.0383 O   0  0  0  0  0  0  0  0  0  0  0  0
   -1.6571   -0.0100   -3.8340 N   0  0  0  0  0  0  0  0  0  0  0  0
   -1.1519    2.3244   -3.8796 C   0  0  0  0  0  0  0  0  0  0  0  0
    1.5483   -0.7328    3.9328 C   0  0  0  0  0  0  0  0  0  0  0  0
   -1.6459    1.1681   -4.5032 C   0  0  0  0  0  0  0  0  0  0  0  0
    0.6592   -0.8584   -0.7052 H   0  0  0  0  0  0  0  0  0  0  0  0
   -0.3144    3.0819   -2.1167 H   0  0  0  0  0  0  0  0  0  0  0  0
   -1.5531   -2.6280    2.2246 H   0  0  0  0  0  0  0  0  0  0  0  0
   -1.8633   -1.2385    1.1782 H   0  0  0  0  0  0  0  0  0  0  0  0
   -0.7932   -2.5490    0.6361 H   0  0  0  0  0  0  0  0  0  0  0  0
   -0.1089   -2.0130    4.0090 H   0  0  0  0  0  0  0  0  0  0  0  0
    3.2358    0.5745    0.0650 H   0  0  0  0  0  0  0  0  0  0  0  0
    3.7274    1.5396    1.4526 H   0  0  0  0  0  0  0  0  0  0  0  0
    2.3031    2.0141    0.5293 H   0  0  0  0  0  0  0  0  0  0  0  0
    3.1367    0.5730    3.5335 H   0  0  0  0  0  0  0  0  0  0  0  0
   -2.0122   -0.7951   -4.2802 H   0  0  0  0  0  0  0  0  0  0  0  0
   -1.1390    3.2182   -4.3748 H   0  0  0  0  0  0  0  0  0  0  0  0
    1.7977   -0.8625    4.9166 H   0  0  0  0  0  0  0  0  0  0  0  0
   -1.9967    1.2107   -5.4602 H   0  0  0  0  0  0  0  0  0  0  0  0
  1  2  1  0  0  0  0 
  1  3  1  0  0  0  0 
  2  4  2  0  0  0  0 
  2  5  1  0  0  0  0 
  3  6  2  0  0  0  0 
  3  7  1  0  0  0  0 
  5  8  1  0  0  0  0 
  5  9  2  0  0  0  0 
  6 10  1  0  0  0  0 
  6 11  1  0  0  0  0 
  7 12  1  0  0  0  0 
  7 13  2  0  0  0  0 
  8 14  2  0  0  0  0 
  8 15  1  0  0  0  0 
  9 16  1  0  0  0  0 
 11 17  2  0  0  0  0 
 13 17  1  0  0  0  0 
 15 18  1  0  0  0  0 
 16 18  2  0  0  0  0 
  1 19  1  0  0  0  0 
  9 20  1  0  0  0  0 
 10 21  1  0  0  0  0 
 10 22  1  0  0  0  0 
 10 23  1  0  0  0  0 
 11 24  1  0  0  0  0 
 12 25  1  0  0  0  0 
 12 26  1  0  0  0  0 
 12 27  1  0  0  0  0 
 13 28  1  0  0  0  0 
 15 29  1  0  0  0  0 
 16 30  1  0  0  0  0 
 17 31  1  0  0  0  0 
 18 32  1  0  0  0  0 
M  END
> <cdk:Title>
isonixin

> <Conformer>
1

> <SuperDrugID>
SD001328

$$$$
