dezocine
  CDK     0628171802

 41 43  0  0  0  0  0  0  0  0999 V2000
   -3.6788    0.2736   -0.7420 C   0  0  0  0  0  0  0  0  0  0  0  0
   -3.4912   -0.1695    0.7645 C   0  0  1  0  0  0  0  0  0  0  0  0
   -2.1204    0.2837    1.2382 C   0  0  0  0  0  0  0  0  0  0  0  0
   -4.6750    0.5500    1.5537 C   0  0  1  0  0  0  0  0  0  0  0  0
   -3.5733   -1.7533    0.8080 C   0  0  1  0  0  0  0  0  0  0  0  0
   -1.9375    1.0891    2.4015 C   0  0  0  0  0  0  0  0  0  0  0  0
   -0.9519   -0.1258    0.5355 C   0  0  0  0  0  0  0  0  0  0  0  0
   -6.0059   -0.0562    1.3692 N   0  0  2  0  0  0  0  0  0  0  0  0
   -4.4359    0.8441    3.0629 C   0  0  2  0  0  0  0  0  0  0  0  0
   -2.8451   -2.5508    1.9373 C   0  0  1  0  0  0  0  0  0  0  0  0
   -3.0645    1.5637    3.2449 C   0  0  2  0  0  0  0  0  0  0  0  0
   -0.6364    1.4912    2.7880 C   0  0  0  0  0  0  0  0  0  0  0  0
    0.3390    0.2440    0.9523 C   0  0  0  0  0  0  0  0  0  0  0  0
   -4.7778   -0.2729    4.1141 C   0  0  2  0  0  0  0  0  0  0  0  0
   -3.0403   -2.1186    3.4155 C   0  0  2  0  0  0  0  0  0  0  0  0
    0.4928    1.0719    2.0722 C   0  0  0  0  0  0  0  0  0  0  0  0
    1.4378   -0.1922    0.2864 O   0  0  0  0  0  0  0  0  0  0  0  0
   -4.4980   -1.7693    3.8170 C   0  0  2  0  0  0  0  0  0  0  0  0
   -5.1631    1.6289    3.3168 H   0  0  0  0  0  0  0  0  0  0  0  0
   -3.5463    1.3526   -0.8535 H   0  0  0  0  0  0  0  0  0  0  0  0
   -4.6761    0.0155   -1.1057 H   0  0  0  0  0  0  0  0  0  0  0  0
   -2.9675   -0.2056   -1.4150 H   0  0  0  0  0  0  0  0  0  0  0  0
   -4.7950    1.5501    1.1170 H   0  0  0  0  0  0  0  0  0  0  0  0
   -4.6156   -2.0752    0.7743 H   0  0  0  0  0  0  0  0  0  0  0  0
   -3.1386   -2.1550   -0.1135 H   0  0  0  0  0  0  0  0  0  0  0  0
   -1.0245   -0.7190   -0.2931 H   0  0  0  0  0  0  0  0  0  0  0  0
   -6.2214   -0.0250    0.3720 H   0  0  0  0  0  0  0  0  0  0  0  0
   -6.6836    0.5555    1.8312 H   0  0  0  0  0  0  0  0  0  0  0  0
   -3.1649   -3.5944    1.8519 H   0  0  0  0  0  0  0  0  0  0  0  0
   -1.7696   -2.5480    1.7387 H   0  0  0  0  0  0  0  0  0  0  0  0
   -3.1896    2.6238    3.0009 H   0  0  0  0  0  0  0  0  0  0  0  0
   -2.7798    1.5237    4.2993 H   0  0  0  0  0  0  0  0  0  0  0  0
   -0.5006    2.0915    3.6050 H   0  0  0  0  0  0  0  0  0  0  0  0
   -5.8522   -0.2168    4.3191 H   0  0  0  0  0  0  0  0  0  0  0  0
   -4.2887   -0.0276    5.0601 H   0  0  0  0  0  0  0  0  0  0  0  0
   -2.3672   -1.2956    3.6563 H   0  0  0  0  0  0  0  0  0  0  0  0
   -2.7068   -2.9572    4.0366 H   0  0  0  0  0  0  0  0  0  0  0  0
    1.4234    1.3687    2.3735 H   0  0  0  0  0  0  0  0  0  0  0  0
    1.1340   -0.9486   -0.2595 H   0  0  0  0  0  0  0  0  0  0  0  0
   -5.2092   -2.1401    3.0762 H   0  0  0  0  0  0  0  0  0  0  0  0
   -4.7268   -2.3085    4.7425 H   0  0  0  0  0  0  0  0  0  0  0  0
  2  1  1  0  0  0  0 
  2  3  1  0  0  0  0 
  2  4  1  0  0  0  0 
  2  5  1  0  0  0  0 
  3  6  2  0  0  0  0 
  3  7  1  0  0  0  0 
  4  8  1  0  0  0  0 
  9  4  1  0  0  0  0 
  5 10  1  0  0  0  0 
  6 11  1  0  0  0  0 
  6 12  1  0  0  0  0 
  7 13  2  0  0  0  0 
  9 11  1  0  0  0  0 
  9 14  1  0  0  0  0 
 10 15  1  0  0  0  0 
 12 16  2  0  0  0  0 
 13 16  1  0  0  0  0 
 13 17  1  0  0  0  0 
 14 18  1  0  0  0  0 
 15 18  1  0  0  0  0 
  9 19  1  0  0  0  0 
  1 20  1  0  0  0  0 
  1 21  1  0  0  0  0 
  1 22  1  0  0  0  0 
  4 23  1  0  0  0  0 
  5 24  1  0  0  0  0 
  5 25  1  0  0  0  0 
  7 26  1  0  0  0  0 
  8 27  1  0  0  0  0 
  8 28  1  0  0  0  0 
 10 29  1  0  0  0  0 
 10 30  1  0  0  0  0 
 11 31  1  0  0  0  0 
 11 32  1  0  0  0  0 
 12 33  1  0  0  0  0 
 14 34  1  0  0  0  0 
 14 35  1  0  0  0  0 
 15 36  1  0  0  0  0 
 15 37  1  0  0  0  0 
 16 38  1  0  0  0  0 
 17 39  1  0  0  0  0 
 18 40  1  0  0  0  0 
 18 41  1  0  0  0  0 
M  END
> <cdk:Title>
dezocine

> <Conformer>
1

> <SuperDrugID>
SD000751

$$$$
