methestrol dipropionate
  CDK     0628171801

 64 65  0  0  0  0  0  0  0  0999 V2000
   -4.2153    3.1816    2.2935 C   0  0  1  0  0  0  0  0  0  0  0  0
   -5.0495    3.8574    3.4560 C   0  0  2  0  0  0  0  0  0  0  0  0
   -3.8863    4.1548    1.1033 C   0  0  1  0  0  0  0  0  0  0  0  0
   -2.9771    2.5069    2.8277 C   0  0  0  0  0  0  0  0  0  0  0  0
   -5.4917    2.8571    4.5934 C   0  0  2  0  0  0  0  0  0  0  0  0
   -6.2549    4.6066    2.9457 C   0  0  0  0  0  0  0  0  0  0  0  0
   -3.1920    3.4843   -0.1080 C   0  0  0  0  0  0  0  0  0  0  0  0
   -1.8883    3.2544    3.3353 C   0  0  0  0  0  0  0  0  0  0  0  0
   -2.8797    1.0975    2.8826 C   0  0  0  0  0  0  0  0  0  0  0  0
   -4.5616    2.8117    5.8332 C   0  0  0  0  0  0  0  0  0  0  0  0
   -7.3187    3.9444    2.2828 C   0  0  0  0  0  0  0  0  0  0  0  0
   -6.3503    6.0056    3.1144 C   0  0  0  0  0  0  0  0  0  0  0  0
   -0.7474    2.6348    3.8990 C   0  0  0  0  0  0  0  0  0  0  0  0
   -1.7671    0.4650    3.4643 C   0  0  0  0  0  0  0  0  0  0  0  0
   -8.4523    4.6433    1.7959 C   0  0  0  0  0  0  0  0  0  0  0  0
   -7.4743    6.7102    2.6588 C   0  0  0  0  0  0  0  0  0  0  0  0
    0.3510    3.5159    4.3780 C   0  0  0  0  0  0  0  0  0  0  0  0
   -0.6987    1.2185    3.9999 C   0  0  0  0  0  0  0  0  0  0  0  0
   -9.4764    3.8799    1.0375 C   0  0  0  0  0  0  0  0  0  0  0  0
   -8.5356    6.0447    2.0187 C   0  0  0  0  0  0  0  0  0  0  0  0
    0.3877    0.6587    4.6361 O   0  0  0  0  0  0  0  0  0  0  0  0
   -9.5729    6.8560    1.6431 O   0  0  0  0  0  0  0  0  0  0  0  0
    0.6851   -0.5969    5.0981 C   0  0  0  0  0  0  0  0  0  0  0  0
  -10.9073    6.7614    1.9270 C   0  0  0  0  0  0  0  0  0  0  0  0
    1.9842   -0.7983    5.7749 C   0  0  1  0  0  0  0  0  0  0  0  0
   -0.1036   -1.5646    4.9955 O   0  0  0  0  0  0  0  0  0  0  0  0
  -11.8338    7.7509    1.3394 C   0  0  2  0  0  0  0  0  0  0  0  0
  -11.3466    5.8801    2.7033 O   0  0  0  0  0  0  0  0  0  0  0  0
    2.0964    0.0114    7.0854 C   0  0  0  0  0  0  0  0  0  0  0  0
  -12.2522    7.2621   -0.1015 C   0  0  0  0  0  0  0  0  0  0  0  0
   -4.8685    2.4151    1.8646 H   0  0  0  0  0  0  0  0  0  0  0  0
   -4.3748    4.5846    3.9206 H   0  0  0  0  0  0  0  0  0  0  0  0
   -4.8112    4.5921    0.7197 H   0  0  0  0  0  0  0  0  0  0  0  0
   -3.2689    4.9883    1.4480 H   0  0  0  0  0  0  0  0  0  0  0  0
   -5.5810    1.8452    4.1890 H   0  0  0  0  0  0  0  0  0  0  0  0
   -6.4829    3.1175    4.9789 H   0  0  0  0  0  0  0  0  0  0  0  0
   -2.1655    3.2059    0.1408 H   0  0  0  0  0  0  0  0  0  0  0  0
   -3.1652    4.1814   -0.9503 H   0  0  0  0  0  0  0  0  0  0  0  0
   -3.7395    2.5915   -0.4169 H   0  0  0  0  0  0  0  0  0  0  0  0
   -1.9277    4.2762    3.3039 H   0  0  0  0  0  0  0  0  0  0  0  0
   -3.6305    0.5118    2.5131 H   0  0  0  0  0  0  0  0  0  0  0  0
   -4.9555    2.1019    6.5657 H   0  0  0  0  0  0  0  0  0  0  0  0
   -4.5062    3.7966    6.3031 H   0  0  0  0  0  0  0  0  0  0  0  0
   -3.5553    2.4947    5.5621 H   0  0  0  0  0  0  0  0  0  0  0  0
   -7.2622    2.9317    2.1409 H   0  0  0  0  0  0  0  0  0  0  0  0
   -5.5975    6.5255    3.5715 H   0  0  0  0  0  0  0  0  0  0  0  0
   -1.7514   -0.5533    3.4880 H   0  0  0  0  0  0  0  0  0  0  0  0
   -7.5189    7.7209    2.8054 H   0  0  0  0  0  0  0  0  0  0  0  0
    1.2161    2.9567    4.7382 H   0  0  0  0  0  0  0  0  0  0  0  0
    0.6873    4.1570    3.5591 H   0  0  0  0  0  0  0  0  0  0  0  0
   -0.0117    4.1467    5.1947 H   0  0  0  0  0  0  0  0  0  0  0  0
   -9.9691    3.1648    1.6980 H   0  0  0  0  0  0  0  0  0  0  0  0
   -9.0008    3.3341    0.2205 H   0  0  0  0  0  0  0  0  0  0  0  0
  -10.2359    4.5196    0.5911 H   0  0  0  0  0  0  0  0  0  0  0  0
    2.1346   -1.8554    6.0080 H   0  0  0  0  0  0  0  0  0  0  0  0
    2.7850   -0.4935    5.0989 H   0  0  0  0  0  0  0  0  0  0  0  0
  -11.2231    8.6907    1.1592 H   0  0  0  0  0  0  0  0  0  0  0  0
  -12.7094    7.8673    2.1009 H   0  0  0  0  0  0  0  0  0  0  0  0
    3.0310   -0.2360    7.5916 H   0  0  0  0  0  0  0  0  0  0  0  0
    2.0902    1.0837    6.8747 H   0  0  0  0  0  0  0  0  0  0  0  0
    1.2663   -0.2272    7.7549 H   0  0  0  0  0  0  0  0  0  0  0  0
  -12.9662    7.9711   -0.5229 H   0  0  0  0  0  0  0  0  0  0  0  0
  -11.3860    7.2073   -0.7658 H   0  0  0  0  0  0  0  0  0  0  0  0
  -12.7285    6.2813   -0.0501 H   0  0  0  0  0  0  0  0  0  0  0  0
  1  2  1  0  0  0  0 
  1  3  1  0  0  0  0 
  1  4  1  0  0  0  0 
  2  5  1  0  0  0  0 
  2  6  1  0  0  0  0 
  3  7  1  0  0  0  0 
  4  8  2  0  0  0  0 
  4  9  1  0  0  0  0 
  5 10  1  0  0  0  0 
  6 11  2  0  0  0  0 
  6 12  1  0  0  0  0 
  8 13  1  0  0  0  0 
  9 14  2  0  0  0  0 
 11 15  1  0  0  0  0 
 12 16  2  0  0  0  0 
 13 17  1  0  0  0  0 
 13 18  2  0  0  0  0 
 14 18  1  0  0  0  0 
 15 19  1  0  0  0  0 
 15 20  2  0  0  0  0 
 16 20  1  0  0  0  0 
 18 21  1  0  0  0  0 
 20 22  1  0  0  0  0 
 21 23  1  0  0  0  0 
 22 24  1  0  0  0  0 
 23 25  1  0  0  0  0 
 23 26  2  0  0  0  0 
 24 27  1  0  0  0  0 
 24 28  2  0  0  0  0 
 25 29  1  0  0  0  0 
 27 30  1  0  0  0  0 
  1 31  1  0  0  0  0 
  2 32  1  0  0  0  0 
  3 33  1  0  0  0  0 
  3 34  1  0  0  0  0 
  5 35  1  0  0  0  0 
  5 36  1  0  0  0  0 
  7 37  1  0  0  0  0 
  7 38  1  0  0  0  0 
  7 39  1  0  0  0  0 
  8 40  1  0  0  0  0 
  9 41  1  0  0  0  0 
 10 42  1  0  0  0  0 
 10 43  1  0  0  0  0 
 10 44  1  0  0  0  0 
 11 45  1  0  0  0  0 
 12 46  1  0  0  0  0 
 14 47  1  0  0  0  0 
 16 48  1  0  0  0  0 
 17 49  1  0  0  0  0 
 17 50  1  0  0  0  0 
 17 51  1  0  0  0  0 
 19 52  1  0  0  0  0 
 19 53  1  0  0  0  0 
 19 54  1  0  0  0  0 
 25 55  1  0  0  0  0 
 25 56  1  0  0  0  0 
 27 57  1  0  0  0  0 
 27 58  1  0  0  0  0 
 29 59  1  0  0  0  0 
 29 60  1  0  0  0  0 
 29 61  1  0  0  0  0 
 30 62  1  0  0  0  0 
 30 63  1  0  0  0  0 
 30 64  1  0  0  0  0 
M  END
> <cdk:Title>
methestrol dipropionate

> <Conformer>
1

> <SuperDrugID>
SD002053

$$$$
