benorilate
  CDK     0628171801

 38 39  0  0  0  0  0  0  0  0999 V2000
   -0.2062   -3.3725   -3.9836 C   0  0  0  0  0  0  0  0  0  0  0  0
    0.9449   -2.6566   -3.7685 O   0  0  0  0  0  0  0  0  0  0  0  0
   -0.2781   -4.5810   -3.6570 O   0  0  0  0  0  0  0  0  0  0  0  0
   -1.3690   -2.7138   -4.4625 C   0  0  0  0  0  0  0  0  0  0  0  0
    2.2032   -3.0535   -3.3795 C   0  0  0  0  0  0  0  0  0  0  0  0
   -1.3316   -1.8359   -5.5831 C   0  0  0  0  0  0  0  0  0  0  0  0
   -2.5991   -2.9261   -3.7887 C   0  0  0  0  0  0  0  0  0  0  0  0
    2.7564   -4.3286   -3.6329 C   0  0  0  0  0  0  0  0  0  0  0  0
    2.9864   -2.1071   -2.6912 C   0  0  0  0  0  0  0  0  0  0  0  0
   -0.1400   -1.6933   -6.2636 O   0  0  0  0  0  0  0  0  0  0  0  0
   -2.5248   -1.1774   -5.9735 C   0  0  0  0  0  0  0  0  0  0  0  0
   -3.7648   -2.2463   -4.1819 C   0  0  0  0  0  0  0  0  0  0  0  0
    4.0687   -4.6376   -3.2198 C   0  0  0  0  0  0  0  0  0  0  0  0
    4.2901   -2.4229   -2.2660 C   0  0  0  0  0  0  0  0  0  0  0  0
    0.2495   -0.9332   -7.3380 C   0  0  0  0  0  0  0  0  0  0  0  0
   -3.7253   -1.3648   -5.2711 C   0  0  0  0  0  0  0  0  0  0  0  0
    4.8645   -3.6823   -2.5417 C   0  0  0  0  0  0  0  0  0  0  0  0
    1.6108   -1.1153   -7.8576 C   0  0  0  0  0  0  0  0  0  0  0  0
   -0.4861   -0.0824   -7.8888 O   0  0  0  0  0  0  0  0  0  0  0  0
    6.1526   -3.8736   -2.1092 N   0  0  0  0  0  0  0  0  0  0  0  0
    7.1045   -4.7353   -2.5759 C   0  0  0  0  0  0  0  0  0  0  0  0
    8.4297   -4.7369   -1.9287 C   0  0  0  0  0  0  0  0  0  0  0  0
    6.9116   -5.5061   -3.5451 O   0  0  0  0  0  0  0  0  0  0  0  0
   -2.6619   -3.5683   -2.9932 H   0  0  0  0  0  0  0  0  0  0  0  0
    2.2162   -5.0366   -4.1314 H   0  0  0  0  0  0  0  0  0  0  0  0
    2.6046   -1.1814   -2.4871 H   0  0  0  0  0  0  0  0  0  0  0  0
   -2.5473   -0.5518   -6.7745 H   0  0  0  0  0  0  0  0  0  0  0  0
   -4.6420   -2.3901   -3.6773 H   0  0  0  0  0  0  0  0  0  0  0  0
    4.4269   -5.5730   -3.4119 H   0  0  0  0  0  0  0  0  0  0  0  0
    4.8237   -1.7168   -1.7543 H   0  0  0  0  0  0  0  0  0  0  0  0
   -4.5728   -0.8668   -5.5573 H   0  0  0  0  0  0  0  0  0  0  0  0
    1.7863   -0.4910   -8.7380 H   0  0  0  0  0  0  0  0  0  0  0  0
    2.3318   -0.8466   -7.0847 H   0  0  0  0  0  0  0  0  0  0  0  0
    1.7518   -2.1606   -8.1355 H   0  0  0  0  0  0  0  0  0  0  0  0
    6.4374   -3.2852   -1.3906 H   0  0  0  0  0  0  0  0  0  0  0  0
    9.1111   -5.4521   -2.3992 H   0  0  0  0  0  0  0  0  0  0  0  0
    8.8719   -3.7409   -1.9969 H   0  0  0  0  0  0  0  0  0  0  0  0
    8.3244   -5.0064   -0.8766 H   0  0  0  0  0  0  0  0  0  0  0  0
  1  2  1  0  0  0  0 
  1  3  2  0  0  0  0 
  1  4  1  0  0  0  0 
  2  5  1  0  0  0  0 
  4  6  2  0  0  0  0 
  4  7  1  0  0  0  0 
  5  8  2  0  0  0  0 
  5  9  1  0  0  0  0 
  6 10  1  0  0  0  0 
  6 11  1  0  0  0  0 
  7 12  2  0  0  0  0 
  8 13  1  0  0  0  0 
  9 14  2  0  0  0  0 
 10 15  1  0  0  0  0 
 11 16  2  0  0  0  0 
 12 16  1  0  0  0  0 
 13 17  2  0  0  0  0 
 14 17  1  0  0  0  0 
 15 18  1  0  0  0  0 
 15 19  2  0  0  0  0 
 17 20  1  0  0  0  0 
 20 21  1  0  0  0  0 
 21 22  1  0  0  0  0 
 21 23  2  0  0  0  0 
  7 24  1  0  0  0  0 
  8 25  1  0  0  0  0 
  9 26  1  0  0  0  0 
 11 27  1  0  0  0  0 
 12 28  1  0  0  0  0 
 13 29  1  0  0  0  0 
 14 30  1  0  0  0  0 
 16 31  1  0  0  0  0 
 18 32  1  0  0  0  0 
 18 33  1  0  0  0  0 
 18 34  1  0  0  0  0 
 20 35  1  0  0  0  0 
 22 36  1  0  0  0  0 
 22 37  1  0  0  0  0 
 22 38  1  0  0  0  0 
M  END
> <cdk:Title>
benorilate

> <Conformer>
1

> <SuperDrugID>
SD000259

$$$$
