pheniprazine
  CDK     0628171801

 25 25  0  0  0  0  0  0  0  0999 V2000
    1.2150    1.4471   -0.2537 C   0  0  0  0  0  0  0  0  0  0  0  0
    0.2376    0.5344   -0.6898 C   0  0  0  0  0  0  0  0  0  0  0  0
   -0.8775    0.9905   -1.4150 C   0  0  0  0  0  0  0  0  0  0  0  0
   -1.0153    2.3589   -1.7059 C   0  0  0  0  0  0  0  0  0  0  0  0
   -0.0370    3.2710   -1.2714 C   0  0  0  0  0  0  0  0  0  0  0  0
    1.0865    2.8314   -0.5291 C   0  0  0  0  0  0  0  0  0  0  0  0
    2.1115    3.8005   -0.0498 C   0  0  2  0  0  0  0  0  0  0  0  0
    2.1838    3.9502    1.5018 C   0  0  2  0  0  0  0  0  0  0  0  0
    0.9270    4.4977    2.0696 N   0  0  1  0  0  0  0  0  0  0  0  0
    3.3363    4.9029    1.9152 C   0  0  0  0  0  0  0  0  0  0  0  0
   -0.0951    3.5439    2.1666 N   0  0  2  0  0  0  0  0  0  0  0  0
    2.0220    1.0976    0.2683 H   0  0  0  0  0  0  0  0  0  0  0  0
    0.3359   -0.4613   -0.4787 H   0  0  0  0  0  0  0  0  0  0  0  0
   -1.5898    0.3282   -1.7290 H   0  0  0  0  0  0  0  0  0  0  0  0
   -1.8276    2.6913   -2.2309 H   0  0  0  0  0  0  0  0  0  0  0  0
   -0.1532    4.2617   -1.4966 H   0  0  0  0  0  0  0  0  0  0  0  0
    1.9268    4.7899   -0.4752 H   0  0  0  0  0  0  0  0  0  0  0  0
    3.0806    3.4726   -0.4358 H   0  0  0  0  0  0  0  0  0  0  0  0
    2.4047    2.9765    1.9537 H   0  0  0  0  0  0  0  0  0  0  0  0
    1.1335    4.7843    3.0291 H   0  0  0  0  0  0  0  0  0  0  0  0
    4.2901    4.5470    1.5191 H   0  0  0  0  0  0  0  0  0  0  0  0
    3.1557    5.9133    1.5416 H   0  0  0  0  0  0  0  0  0  0  0  0
    3.4130    4.9425    3.0040 H   0  0  0  0  0  0  0  0  0  0  0  0
   -0.8486    3.9750    2.7085 H   0  0  0  0  0  0  0  0  0  0  0  0
    0.2654    2.7708    2.7268 H   0  0  0  0  0  0  0  0  0  0  0  0
  1  2  2  0  0  0  0 
  2  3  1  0  0  0  0 
  3  4  2  0  0  0  0 
  4  5  1  0  0  0  0 
  5  6  2  0  0  0  0 
  1  6  1  0  0  0  0 
  6  7  1  0  0  0  0 
  8  7  1  0  0  0  0 
  8  9  1  0  0  0  0 
  8 10  1  0  0  0  0 
  9 11  1  0  0  0  0 
  1 12  1  0  0  0  0 
  2 13  1  0  0  0  0 
  3 14  1  0  0  0  0 
  4 15  1  0  0  0  0 
  5 16  1  0  0  0  0 
  7 17  1  0  0  0  0 
  7 18  1  0  0  0  0 
  8 19  1  0  0  0  0 
  9 20  1  0  0  0  0 
 10 21  1  0  0  0  0 
 10 22  1  0  0  0  0 
 10 23  1  0  0  0  0 
 11 24  1  0  0  0  0 
 11 25  1  0  0  0  0 
M  END
> <cdk:Title>
pheniprazine

> <Conformer>
1

> <SuperDrugID>
SD001911

$$$$
