exatecan
  CDK     0628171801

 54 59  0  0  0  0  0  0  0  0999 V2000
   -2.1346   -4.3080   -1.0272 N   0  0  1  0  0  0  0  0  0  0  0  0
   -2.2006   -3.7043    0.3143 C   0  0  2  0  0  0  0  0  0  0  0  0
   -2.8594   -2.3737    0.2101 C   0  0  0  0  0  0  0  0  0  0  0  0
   -0.7896   -3.5869    0.9382 C   0  0  2  0  0  0  0  0  0  0  0  0
   -4.2701   -2.2790    0.1570 C   0  0  0  0  0  0  0  0  0  0  0  0
   -2.0945   -1.1692    0.1197 C   0  0  0  0  0  0  0  0  0  0  0  0
    0.0489   -2.4826    0.2466 C   0  0  1  0  0  0  0  0  0  0  0  0
   -4.8761   -1.0364    0.0236 C   0  0  0  0  0  0  0  0  0  0  0  0
   -5.3092   -3.3232    0.2073 C   0  0  1  0  0  0  0  0  0  0  0  0
   -2.7947    0.0664   -0.0106 C   0  0  0  0  0  0  0  0  0  0  0  0
   -0.6676   -1.1692    0.1388 C   0  0  0  0  0  0  0  0  0  0  0  0
   -6.2458   -1.2319   -0.0237 C   0  0  0  0  0  0  0  0  0  0  0  0
   -4.1537    0.1030   -0.0521 N   0  0  0  0  0  0  0  0  0  0  0  0
   -6.5130   -2.5535    0.0681 N   0  0  0  0  0  0  0  0  0  0  0  0
   -2.0920    1.2735   -0.1138 C   0  0  0  0  0  0  0  0  0  0  0  0
    0.0427    0.0663    0.0080 C   0  0  0  0  0  0  0  0  0  0  0  0
   -7.2676   -0.2812   -0.1494 C   0  0  0  0  0  0  0  0  0  0  0  0
   -7.7918   -3.0279    0.0289 C   0  0  0  0  0  0  0  0  0  0  0  0
   -0.6895    1.2764   -0.1091 C   0  0  0  0  0  0  0  0  0  0  0  0
    1.5332    0.1065   -0.0301 C   0  0  0  0  0  0  0  0  0  0  0  0
   -8.6142   -0.7245   -0.2132 C   0  0  0  0  0  0  0  0  0  0  0  0
   -7.9904   -4.2629    0.1274 O   0  0  0  0  0  0  0  0  0  0  0  0
   -8.8782   -2.1228   -0.1173 C   0  0  0  0  0  0  0  0  0  0  0  0
   -0.1045    2.4420   -0.2284 F   0  0  0  0  0  0  0  0  0  0  0  0
   -9.7105    0.2906   -0.3838 C   0  0  2  0  0  0  0  0  0  0  0  0
  -10.2726   -2.6378   -0.1606 C   0  0  2  0  0  0  0  0  0  0  0  0
   -9.5427    1.1241   -1.7005 C   0  0  1  0  0  0  0  0  0  0  0  0
   -9.6115    1.1789    0.7333 O   0  0  0  0  0  0  0  0  0  0  0  0
  -11.0780   -0.2945   -0.3332 C   0  0  0  0  0  0  0  0  0  0  0  0
  -11.2872   -1.6339   -0.2541 O   0  0  0  0  0  0  0  0  0  0  0  0
   -9.5267    0.2871   -3.0047 C   0  0  0  0  0  0  0  0  0  0  0  0
  -12.0965    0.4340   -0.3782 O   0  0  0  0  0  0  0  0  0  0  0  0
   -1.7517   -5.2513   -0.9225 H   0  0  0  0  0  0  0  0  0  0  0  0
   -3.0951   -4.4145   -1.3638 H   0  0  0  0  0  0  0  0  0  0  0  0
   -2.7864   -4.3715    0.9515 H   0  0  0  0  0  0  0  0  0  0  0  0
   -0.2704   -4.5465    0.8710 H   0  0  0  0  0  0  0  0  0  0  0  0
   -0.8877   -3.3409    2.0001 H   0  0  0  0  0  0  0  0  0  0  0  0
    0.9694   -2.3891    0.8248 H   0  0  0  0  0  0  0  0  0  0  0  0
    0.3194   -2.8083   -0.7622 H   0  0  0  0  0  0  0  0  0  0  0  0
   -5.1898   -4.0261   -0.6196 H   0  0  0  0  0  0  0  0  0  0  0  0
   -5.2860   -3.8516    1.1636 H   0  0  0  0  0  0  0  0  0  0  0  0
   -2.6044    2.1563   -0.2018 H   0  0  0  0  0  0  0  0  0  0  0  0
   -7.0256    0.7122   -0.1981 H   0  0  0  0  0  0  0  0  0  0  0  0
    1.8909   -0.5081   -0.8555 H   0  0  0  0  0  0  0  0  0  0  0  0
    1.9447   -0.2701    0.9047 H   0  0  0  0  0  0  0  0  0  0  0  0
    1.9402    1.1069   -0.1706 H   0  0  0  0  0  0  0  0  0  0  0  0
  -10.4690   -3.2114    0.7494 H   0  0  0  0  0  0  0  0  0  0  0  0
  -10.3866   -3.3032   -1.0209 H   0  0  0  0  0  0  0  0  0  0  0  0
  -10.3495    1.8595   -1.7744 H   0  0  0  0  0  0  0  0  0  0  0  0
   -8.6160    1.6998   -1.6626 H   0  0  0  0  0  0  0  0  0  0  0  0
  -10.2927    1.8690    0.5899 H   0  0  0  0  0  0  0  0  0  0  0  0
   -9.4323    0.9525   -3.8668 H   0  0  0  0  0  0  0  0  0  0  0  0
  -10.4528   -0.2854   -3.1048 H   0  0  0  0  0  0  0  0  0  0  0  0
   -8.6774   -0.4014   -3.0116 H   0  0  0  0  0  0  0  0  0  0  0  0
  2  1  1  0  0  0  0 
  2  3  1  0  0  0  0 
  2  4  1  0  0  0  0 
  3  5  1  0  0  0  0 
  3  6  2  0  0  0  0 
  4  7  1  0  0  0  0 
  5  8  2  0  0  0  0 
  5  9  1  0  0  0  0 
  6 10  1  0  0  0  0 
  6 11  1  0  0  0  0 
  7 11  1  0  0  0  0 
  8 12  1  0  0  0  0 
  8 13  1  0  0  0  0 
  9 14  1  0  0  0  0 
 10 13  2  0  0  0  0 
 10 15  1  0  0  0  0 
 11 16  2  0  0  0  0 
 12 14  1  0  0  0  0 
 12 17  2  0  0  0  0 
 14 18  1  0  0  0  0 
 15 19  2  0  0  0  0 
 16 19  1  0  0  0  0 
 16 20  1  0  0  0  0 
 17 21  1  0  0  0  0 
 18 22  2  0  0  0  0 
 18 23  1  0  0  0  0 
 19 24  1  0  0  0  0 
 21 23  2  0  0  0  0 
 25 21  1  0  0  0  0 
 23 26  1  0  0  0  0 
 25 27  1  0  0  0  0 
 25 28  1  0  0  0  0 
 25 29  1  0  0  0  0 
 26 30  1  0  0  0  0 
 27 31  1  0  0  0  0 
 29 30  1  0  0  0  0 
 29 32  2  0  0  0  0 
  1 33  1  0  0  0  0 
  1 34  1  0  0  0  0 
  2 35  1  0  0  0  0 
  4 36  1  0  0  0  0 
  4 37  1  0  0  0  0 
  7 38  1  0  0  0  0 
  7 39  1  0  0  0  0 
  9 40  1  0  0  0  0 
  9 41  1  0  0  0  0 
 15 42  1  0  0  0  0 
 17 43  1  0  0  0  0 
 20 44  1  0  0  0  0 
 20 45  1  0  0  0  0 
 20 46  1  0  0  0  0 
 26 47  1  0  0  0  0 
 26 48  1  0  0  0  0 
 27 49  1  0  0  0  0 
 27 50  1  0  0  0  0 
 28 51  1  0  0  0  0 
 31 52  1  0  0  0  0 
 31 53  1  0  0  0  0 
 31 54  1  0  0  0  0 
M  END
> <cdk:Title>
exatecan

> <Conformer>
1

> <SuperDrugID>
SD001001

$$$$
