suloctidil
  CDK     0628171801

 58 58  0  0  0  0  0  0  0  0999 V2000
    1.3643    0.8284    1.4368 C   0  0  1  0  0  0  0  0  0  0  0  0
    1.0119    1.0737   -0.0703 C   0  0  1  0  0  0  0  0  0  0  0  0
    2.0452   -0.4203    1.5987 O   0  0  0  0  0  0  0  0  0  0  0  0
    2.1292    1.9431    2.0755 C   0  0  0  0  0  0  0  0  0  0  0  0
    0.2393    2.3242   -0.3136 N   0  0  1  0  0  0  0  0  0  0  0  0
    2.2664    1.1240   -0.9803 C   0  0  0  0  0  0  0  0  0  0  0  0
    3.5459    1.9505    2.1290 C   0  0  0  0  0  0  0  0  0  0  0  0
    1.4382    3.0480    2.6303 C   0  0  0  0  0  0  0  0  0  0  0  0
   -1.2103    2.3127    0.0063 C   0  0  1  0  0  0  0  0  0  0  0  0
    4.2425    3.0275    2.7073 C   0  0  0  0  0  0  0  0  0  0  0  0
    2.1308    4.1315    3.1994 C   0  0  0  0  0  0  0  0  0  0  0  0
   -1.8627    3.6848   -0.3094 C   0  0  2  0  0  0  0  0  0  0  0  0
    3.5381    4.1209    3.2462 C   0  0  0  0  0  0  0  0  0  0  0  0
   -1.8517    4.0544   -1.8178 C   0  0  2  0  0  0  0  0  0  0  0  0
    4.4246    5.4585    3.9583 S   0  0  0  0  0  0  0  0  0  0  0  0
   -2.4962    5.4354   -2.1202 C   0  0  1  0  0  0  0  0  0  0  0  0
    4.3907    5.1593    5.7644 C   0  0  1  0  0  0  0  0  0  0  0  0
   -2.4956    5.7617   -3.6380 C   0  0  1  0  0  0  0  0  0  0  0  0
    5.0456    3.8025    6.1316 C   0  0  0  0  0  0  0  0  0  0  0  0
    5.0830    6.3484    6.4754 C   0  0  0  0  0  0  0  0  0  0  0  0
   -3.1180    7.1429   -3.9742 C   0  0  2  0  0  0  0  0  0  0  0  0
   -3.2095    7.4411   -5.4961 C   0  0  2  0  0  0  0  0  0  0  0  0
   -1.8487    7.5663   -6.2204 C   0  0  0  0  0  0  0  0  0  0  0  0
    0.4274    0.6971    1.9830 H   0  0  0  0  0  0  0  0  0  0  0  0
    0.4117    0.2254   -0.4172 H   0  0  0  0  0  0  0  0  0  0  0  0
    1.4407   -1.0997    1.2344 H   0  0  0  0  0  0  0  0  0  0  0  0
    0.6698    3.0707    0.2355 H   0  0  0  0  0  0  0  0  0  0  0  0
    1.9615    1.1550   -2.0293 H   0  0  0  0  0  0  0  0  0  0  0  0
    2.8871    0.2369   -0.8335 H   0  0  0  0  0  0  0  0  0  0  0  0
    2.8646    2.0120   -0.7666 H   0  0  0  0  0  0  0  0  0  0  0  0
    4.0873    1.1720    1.7463 H   0  0  0  0  0  0  0  0  0  0  0  0
    0.4173    3.0742    2.6216 H   0  0  0  0  0  0  0  0  0  0  0  0
   -1.7145    1.5287   -0.5661 H   0  0  0  0  0  0  0  0  0  0  0  0
   -1.3549    2.1051    1.0698 H   0  0  0  0  0  0  0  0  0  0  0  0
    5.2645    3.0071    2.7342 H   0  0  0  0  0  0  0  0  0  0  0  0
    1.6046    4.9234    3.5785 H   0  0  0  0  0  0  0  0  0  0  0  0
   -1.3390    4.4616    0.2572 H   0  0  0  0  0  0  0  0  0  0  0  0
   -2.8987    3.6564    0.0419 H   0  0  0  0  0  0  0  0  0  0  0  0
   -2.3930    3.2826   -2.3697 H   0  0  0  0  0  0  0  0  0  0  0  0
   -0.8184    4.0658   -2.1746 H   0  0  0  0  0  0  0  0  0  0  0  0
   -3.5268    5.4375   -1.7568 H   0  0  0  0  0  0  0  0  0  0  0  0
   -1.9422    6.2111   -1.5859 H   0  0  0  0  0  0  0  0  0  0  0  0
    3.3464    5.1326    6.0884 H   0  0  0  0  0  0  0  0  0  0  0  0
   -1.4642    5.7416   -3.9962 H   0  0  0  0  0  0  0  0  0  0  0  0
   -3.0603    4.9888   -4.1662 H   0  0  0  0  0  0  0  0  0  0  0  0
    5.1146    3.6934    7.2153 H   0  0  0  0  0  0  0  0  0  0  0  0
    6.0497    3.7272    5.7108 H   0  0  0  0  0  0  0  0  0  0  0  0
    4.4446    2.9746    5.7516 H   0  0  0  0  0  0  0  0  0  0  0  0
    5.0425    6.2175    7.5591 H   0  0  0  0  0  0  0  0  0  0  0  0
    4.5754    7.2838    6.2273 H   0  0  0  0  0  0  0  0  0  0  0  0
    6.1294    6.4243    6.1701 H   0  0  0  0  0  0  0  0  0  0  0  0
   -2.5391    7.9322   -3.4875 H   0  0  0  0  0  0  0  0  0  0  0  0
   -4.1323    7.1751   -3.5653 H   0  0  0  0  0  0  0  0  0  0  0  0
   -3.7491    8.3827   -5.6264 H   0  0  0  0  0  0  0  0  0  0  0  0
   -3.7959    6.6574   -5.9813 H   0  0  0  0  0  0  0  0  0  0  0  0
   -1.3412    6.6018   -6.2515 H   0  0  0  0  0  0  0  0  0  0  0  0
   -2.0079    7.9014   -7.2467 H   0  0  0  0  0  0  0  0  0  0  0  0
   -1.2096    8.2903   -5.7142 H   0  0  0  0  0  0  0  0  0  0  0  0
  2  1  1  0  0  0  0 
  1  3  1  0  0  0  0 
  1  4  1  0  0  0  0 
  2  5  1  0  0  0  0 
  2  6  1  0  0  0  0 
  4  7  2  0  0  0  0 
  4  8  1  0  0  0  0 
  5  9  1  0  0  0  0 
  7 10  1  0  0  0  0 
  8 11  2  0  0  0  0 
  9 12  1  0  0  0  0 
 10 13  2  0  0  0  0 
 11 13  1  0  0  0  0 
 12 14  1  0  0  0  0 
 13 15  1  0  0  0  0 
 14 16  1  0  0  0  0 
 15 17  1  0  0  0  0 
 16 18  1  0  0  0  0 
 17 19  1  0  0  0  0 
 17 20  1  0  0  0  0 
 18 21  1  0  0  0  0 
 21 22  1  0  0  0  0 
 22 23  1  0  0  0  0 
  1 24  1  0  0  0  0 
  2 25  1  0  0  0  0 
  3 26  1  0  0  0  0 
  5 27  1  0  0  0  0 
  6 28  1  0  0  0  0 
  6 29  1  0  0  0  0 
  6 30  1  0  0  0  0 
  7 31  1  0  0  0  0 
  8 32  1  0  0  0  0 
  9 33  1  0  0  0  0 
  9 34  1  0  0  0  0 
 10 35  1  0  0  0  0 
 11 36  1  0  0  0  0 
 12 37  1  0  0  0  0 
 12 38  1  0  0  0  0 
 14 39  1  0  0  0  0 
 14 40  1  0  0  0  0 
 16 41  1  0  0  0  0 
 16 42  1  0  0  0  0 
 17 43  1  0  0  0  0 
 18 44  1  0  0  0  0 
 18 45  1  0  0  0  0 
 19 46  1  0  0  0  0 
 19 47  1  0  0  0  0 
 19 48  1  0  0  0  0 
 20 49  1  0  0  0  0 
 20 50  1  0  0  0  0 
 20 51  1  0  0  0  0 
 21 52  1  0  0  0  0 
 21 53  1  0  0  0  0 
 22 54  1  0  0  0  0 
 22 55  1  0  0  0  0 
 23 56  1  0  0  0  0 
 23 57  1  0  0  0  0 
 23 58  1  0  0  0  0 
M  END
> <cdk:Title>
suloctidil

> <Conformer>
1

> <SuperDrugID>
SD002281

$$$$
