hydroxyzine
  CDK     0628171801

 53 55  0  0  0  0  0  0  0  0999 V2000
    2.0785   -0.5872   -2.2634 C   0  0  2  0  0  0  0  0  0  0  0  0
    3.0000   -1.2759   -1.2819 N   0  0  1  0  0  0  0  0  0  0  0  0
    2.5456   -0.7135   -3.6873 C   0  0  0  0  0  0  0  0  0  0  0  0
    1.8341    0.8688   -1.9543 C   0  0  0  0  0  0  0  0  0  0  0  0
    2.5679   -1.1922    0.1517 C   0  0  1  0  0  0  0  0  0  0  0  0
    3.3720   -2.6974   -1.6004 C   0  0  1  0  0  0  0  0  0  0  0  0
    3.7606   -0.1270   -4.1212 C   0  0  0  0  0  0  0  0  0  0  0  0
    1.8043   -1.4684   -4.6326 C   0  0  0  0  0  0  0  0  0  0  0  0
    2.8622    1.7090   -1.4508 C   0  0  0  0  0  0  0  0  0  0  0  0
    0.5495    1.4400   -2.1382 C   0  0  0  0  0  0  0  0  0  0  0  0
    3.7247   -1.6201    1.0820 C   0  0  1  0  0  0  0  0  0  0  0  0
    4.5217   -3.1846   -0.6809 C   0  0  2  0  0  0  0  0  0  0  0  0
    4.1979   -0.2487   -5.4520 C   0  0  0  0  0  0  0  0  0  0  0  0
    2.2491   -1.6155   -5.9592 C   0  0  0  0  0  0  0  0  0  0  0  0
    2.6115    3.0509   -1.1121 C   0  0  0  0  0  0  0  0  0  0  0  0
    0.2973    2.7857   -1.8095 C   0  0  0  0  0  0  0  0  0  0  0  0
    4.2212   -2.9981    0.7752 N   0  0  1  0  0  0  0  0  0  0  0  0
    3.4435   -0.9972   -6.3748 C   0  0  0  0  0  0  0  0  0  0  0  0
    1.3256    3.5887   -1.2885 C   0  0  0  0  0  0  0  0  0  0  0  0
    5.3670   -3.4488    1.6389 C   0  0  1  0  0  0  0  0  0  0  0  0
    3.9683   -1.1491   -7.9769 Cl  0  0  0  0  0  0  0  0  0  0  0  0
    5.0950   -3.4160    3.1625 C   0  0  1  0  0  0  0  0  0  0  0  0
    3.8771   -4.1342    3.4350 O   0  0  0  0  0  0  0  0  0  0  0  0
    3.4277   -4.0413    4.7999 C   0  0  1  0  0  0  0  0  0  0  0  0
    2.2083   -4.9585    5.0251 C   0  0  2  0  0  0  0  0  0  0  0  0
    1.7955   -4.8913    6.3883 O   0  0  0  0  0  0  0  0  0  0  0  0
    1.1182   -1.1062   -2.1686 H   0  0  0  0  0  0  0  0  0  0  0  0
    2.2961   -0.1757    0.4380 H   0  0  0  0  0  0  0  0  0  0  0  0
    1.6918   -1.8251    0.3298 H   0  0  0  0  0  0  0  0  0  0  0  0
    2.5064   -3.3563   -1.4870 H   0  0  0  0  0  0  0  0  0  0  0  0
    3.7242   -2.7965   -2.6282 H   0  0  0  0  0  0  0  0  0  0  0  0
    4.3466    0.3961   -3.4702 H   0  0  0  0  0  0  0  0  0  0  0  0
    0.9331   -1.9310   -4.3608 H   0  0  0  0  0  0  0  0  0  0  0  0
    3.8067    1.3463   -1.3079 H   0  0  0  0  0  0  0  0  0  0  0  0
   -0.2190    0.8746   -2.5069 H   0  0  0  0  0  0  0  0  0  0  0  0
    4.5423   -0.8974    1.0028 H   0  0  0  0  0  0  0  0  0  0  0  0
    3.3308   -1.5786    2.0988 H   0  0  0  0  0  0  0  0  0  0  0  0
    5.4340   -2.6451   -0.9513 H   0  0  0  0  0  0  0  0  0  0  0  0
    4.6953   -4.2458   -0.8825 H   0  0  0  0  0  0  0  0  0  0  0  0
    5.0674    0.2087   -5.7402 H   0  0  0  0  0  0  0  0  0  0  0  0
    1.6995   -2.1742   -6.6184 H   0  0  0  0  0  0  0  0  0  0  0  0
    3.3623    3.6326   -0.7314 H   0  0  0  0  0  0  0  0  0  0  0  0
   -0.6365    3.1795   -1.9422 H   0  0  0  0  0  0  0  0  0  0  0  0
    1.1399    4.5619   -1.0351 H   0  0  0  0  0  0  0  0  0  0  0  0
    5.6145   -4.4837    1.3845 H   0  0  0  0  0  0  0  0  0  0  0  0
    6.2559   -2.8450    1.4314 H   0  0  0  0  0  0  0  0  0  0  0  0
    5.9307   -3.8908    3.6866 H   0  0  0  0  0  0  0  0  0  0  0  0
    5.0252   -2.3768    3.4990 H   0  0  0  0  0  0  0  0  0  0  0  0
    4.2234   -4.3489    5.4851 H   0  0  0  0  0  0  0  0  0  0  0  0
    3.1364   -3.0104    5.0240 H   0  0  0  0  0  0  0  0  0  0  0  0
    2.4682   -5.9917    4.7852 H   0  0  0  0  0  0  0  0  0  0  0  0
    1.3791   -4.6465    4.3863 H   0  0  0  0  0  0  0  0  0  0  0  0
    1.0357   -5.5069    6.4656 H   0  0  0  0  0  0  0  0  0  0  0  0
  1  2  1  0  0  0  0 
  1  3  1  0  0  0  0 
  1  4  1  0  0  0  0 
  2  5  1  0  0  0  0 
  2  6  1  0  0  0  0 
  3  7  2  0  0  0  0 
  3  8  1  0  0  0  0 
  4  9  2  0  0  0  0 
  4 10  1  0  0  0  0 
  5 11  1  0  0  0  0 
  6 12  1  0  0  0  0 
  7 13  1  0  0  0  0 
  8 14  2  0  0  0  0 
  9 15  1  0  0  0  0 
 10 16  2  0  0  0  0 
 11 17  1  0  0  0  0 
 12 17  1  0  0  0  0 
 13 18  2  0  0  0  0 
 14 18  1  0  0  0  0 
 15 19  2  0  0  0  0 
 16 19  1  0  0  0  0 
 17 20  1  0  0  0  0 
 18 21  1  0  0  0  0 
 20 22  1  0  0  0  0 
 22 23  1  0  0  0  0 
 23 24  1  0  0  0  0 
 24 25  1  0  0  0  0 
 25 26  1  0  0  0  0 
  1 27  1  0  0  0  0 
  5 28  1  0  0  0  0 
  5 29  1  0  0  0  0 
  6 30  1  0  0  0  0 
  6 31  1  0  0  0  0 
  7 32  1  0  0  0  0 
  8 33  1  0  0  0  0 
  9 34  1  0  0  0  0 
 10 35  1  0  0  0  0 
 11 36  1  0  0  0  0 
 11 37  1  0  0  0  0 
 12 38  1  0  0  0  0 
 12 39  1  0  0  0  0 
 13 40  1  0  0  0  0 
 14 41  1  0  0  0  0 
 15 42  1  0  0  0  0 
 16 43  1  0  0  0  0 
 19 44  1  0  0  0  0 
 20 45  1  0  0  0  0 
 20 46  1  0  0  0  0 
 22 47  1  0  0  0  0 
 22 48  1  0  0  0  0 
 24 49  1  0  0  0  0 
 24 50  1  0  0  0  0 
 25 51  1  0  0  0  0 
 25 52  1  0  0  0  0 
 26 53  1  0  0  0  0 
M  END
> <cdk:Title>
hydroxyzine

> <Conformer>
1

> <SuperDrugID>
SD001244

$$$$
