menadione
  CDK     0628171801

 21 22  0  0  0  0  0  0  0  0999 V2000
   -1.1765    2.3487   -0.0869 O   0  0  0  0  0  0  0  0  0  0  0  0
   -1.2599    1.1026    0.0511 C   0  0  0  0  0  0  0  0  0  0  0  0
   -2.5510    0.4832    0.1272 C   0  0  0  0  0  0  0  0  0  0  0  0
   -0.0859    0.3243    0.1308 C   0  0  0  0  0  0  0  0  0  0  0  0
   -2.6206   -0.9318    0.2877 C   0  0  0  0  0  0  0  0  0  0  0  0
   -3.7548    1.2282    0.0489 C   0  0  0  0  0  0  0  0  0  0  0  0
    1.2274    0.9643    0.0532 C   0  0  0  0  0  0  0  0  0  0  0  0
   -0.1822   -1.0178    0.2798 C   0  0  0  0  0  0  0  0  0  0  0  0
   -1.4043   -1.6735    0.3608 C   0  0  0  0  0  0  0  0  0  0  0  0
   -3.8845   -1.5634    0.3699 C   0  0  0  0  0  0  0  0  0  0  0  0
   -5.0025    0.5855    0.1307 C   0  0  0  0  0  0  0  0  0  0  0  0
   -1.4038   -2.9207    0.4979 O   0  0  0  0  0  0  0  0  0  0  0  0
   -5.0677   -0.8085    0.2918 C   0  0  0  0  0  0  0  0  0  0  0  0
   -3.7358    2.2450   -0.0683 H   0  0  0  0  0  0  0  0  0  0  0  0
    2.0582    0.2568    0.1271 H   0  0  0  0  0  0  0  0  0  0  0  0
    1.3246    1.4908   -0.8984 H   0  0  0  0  0  0  0  0  0  0  0  0
    1.3336    1.6854    0.8662 H   0  0  0  0  0  0  0  0  0  0  0  0
    0.6447   -1.5699    0.3353 H   0  0  0  0  0  0  0  0  0  0  0  0
   -3.9566   -2.5783    0.4873 H   0  0  0  0  0  0  0  0  0  0  0  0
   -5.8641    1.1328    0.0732 H   0  0  0  0  0  0  0  0  0  0  0  0
   -5.9759   -1.2753    0.3521 H   0  0  0  0  0  0  0  0  0  0  0  0
  1  2  2  0  0  0  0 
  2  3  1  0  0  0  0 
  2  4  1  0  0  0  0 
  3  5  2  0  0  0  0 
  3  6  1  0  0  0  0 
  4  7  1  0  0  0  0 
  4  8  2  0  0  0  0 
  5  9  1  0  0  0  0 
  5 10  1  0  0  0  0 
  6 11  2  0  0  0  0 
  8  9  1  0  0  0  0 
  9 12  2  0  0  0  0 
 10 13  2  0  0  0  0 
 11 13  1  0  0  0  0 
 14  6  1  0  0  0  0 
 15  7  1  0  0  0  0 
 16  7  1  0  0  0  0 
 17  7  1  0  0  0  0 
 18  8  1  0  0  0  0 
 19 10  1  0  0  0  0 
 20 11  1  0  0  0  0 
 21 13  1  0  0  0  0 
M  END
> <cdk:Title>
menadione

> <Conformer>
1

> <SuperDrugID>
SD001487

$$$$
