tenofovir alafenamide
  CDK     0628171802

 62 64  0  0  0  0  0  0  0  0999 V2000
    0.5664   -3.0167   -4.7894 C   0  0  2  0  0  0  0  0  0  0  0  0
    1.0383   -3.0053   -3.3001 C   0  0  2  0  0  0  0  0  0  0  0  0
    0.4727   -1.8858   -2.5794 O   0  0  0  0  0  0  0  0  0  0  0  0
   -0.8721   -2.0546   -2.0839 C   0  0  2  0  0  0  0  0  0  0  0  0
   -1.4185   -0.5387   -1.5036 P   0  0  2  0  0  0  0  0  0  0  0  0
   -0.6293   -0.2392   -0.1381 O   0  0  0  0  0  0  0  0  0  0  0  0
   -0.8571    1.0101    0.3701 C   0  0  0  0  0  0  0  0  0  0  0  0
   -1.7488    1.1590    1.4513 C   0  0  0  0  0  0  0  0  0  0  0  0
   -2.0293    2.4340    1.9738 C   0  0  0  0  0  0  0  0  0  0  0  0
   -1.3843    3.5676    1.4481 C   0  0  0  0  0  0  0  0  0  0  0  0
   -0.4542    3.4274    0.4019 C   0  0  0  0  0  0  0  0  0  0  0  0
   -0.1836    2.1508   -0.1257 C   0  0  0  0  0  0  0  0  0  0  0  0
   -3.0543   -0.4967   -1.2587 N   0  0  1  0  0  0  0  0  0  0  0  0
   -3.8360   -1.7056   -0.8981 C   0  0  2  0  0  0  0  0  0  0  0  0
   -5.2466   -1.4133   -1.2490 C   0  0  0  0  0  0  0  0  0  0  0  0
   -5.9576   -0.5007   -0.5125 O   0  0  0  0  0  0  0  0  0  0  0  0
   -7.3333   -0.0980   -0.6672 C   0  0  1  0  0  0  0  0  0  0  0  0
   -8.3209   -1.2714   -0.4495 C   0  0  0  0  0  0  0  0  0  0  0  0
   -7.6160    1.0639    0.3162 C   0  0  0  0  0  0  0  0  0  0  0  0
   -5.7748   -1.9960   -2.2258 O   0  0  0  0  0  0  0  0  0  0  0  0
   -3.7083   -2.0950    0.5968 C   0  0  0  0  0  0  0  0  0  0  0  0
   -1.0859    0.5026   -2.4924 O   0  0  0  0  0  0  0  0  0  0  0  0
    2.5782   -2.8885   -3.1948 C   0  0  0  0  0  0  0  0  0  0  0  0
    0.9199   -4.2159   -5.4995 N   0  0  0  0  0  0  0  0  0  0  0  0
    0.4715   -5.4566   -5.2434 C   0  0  0  0  0  0  0  0  0  0  0  0
    1.0380   -6.3152   -6.1790 C   0  0  0  0  0  0  0  0  0  0  0  0
    1.8267   -5.6063   -6.9997 N   0  0  0  0  0  0  0  0  0  0  0  0
    1.7435   -4.3308   -6.5675 C   0  0  0  0  0  0  0  0  0  0  0  0
    0.7219   -7.6845   -6.1256 C   0  0  0  0  0  0  0  0  0  0  0  0
    1.2138   -8.5648   -7.0163 N   0  0  0  0  0  0  0  0  0  0  0  0
   -0.1191   -8.1061   -5.1392 N   0  0  0  0  0  0  0  0  0  0  0  0
   -0.6619   -7.2443   -4.2309 C   0  0  0  0  0  0  0  0  0  0  0  0
   -0.3719   -5.9165   -4.2846 N   0  0  0  0  0  0  0  0  0  0  0  0
    0.9697   -2.1345   -5.2969 H   0  0  0  0  0  0  0  0  0  0  0  0
   -0.5201   -2.9261   -4.8329 H   0  0  0  0  0  0  0  0  0  0  0  0
    0.7595   -3.9422   -2.8073 H   0  0  0  0  0  0  0  0  0  0  0  0
   -0.8894   -2.7733   -1.2611 H   0  0  0  0  0  0  0  0  0  0  0  0
   -1.5490   -2.3805   -2.8723 H   0  0  0  0  0  0  0  0  0  0  0  0
   -2.2035    0.3393    1.8539 H   0  0  0  0  0  0  0  0  0  0  0  0
   -2.7020    2.5356    2.7355 H   0  0  0  0  0  0  0  0  0  0  0  0
   -1.5914    4.4924    1.8292 H   0  0  0  0  0  0  0  0  0  0  0  0
    0.0298    4.2500    0.0302 H   0  0  0  0  0  0  0  0  0  0  0  0
    0.5007    2.0549   -0.8771 H   0  0  0  0  0  0  0  0  0  0  0  0
   -3.2714    0.2455   -0.5914 H   0  0  0  0  0  0  0  0  0  0  0  0
   -3.5103   -2.5577   -1.4998 H   0  0  0  0  0  0  0  0  0  0  0  0
   -7.4767    0.2787   -1.6838 H   0  0  0  0  0  0  0  0  0  0  0  0
   -8.2049   -2.0147   -1.2377 H   0  0  0  0  0  0  0  0  0  0  0  0
   -8.1426   -1.7513    0.5147 H   0  0  0  0  0  0  0  0  0  0  0  0
   -9.3486   -0.9067   -0.4871 H   0  0  0  0  0  0  0  0  0  0  0  0
   -6.9353    1.8912    0.1098 H   0  0  0  0  0  0  0  0  0  0  0  0
   -7.4721    0.7417    1.3501 H   0  0  0  0  0  0  0  0  0  0  0  0
   -8.6409    1.4237    0.2007 H   0  0  0  0  0  0  0  0  0  0  0  0
   -4.3607   -2.9428    0.8238 H   0  0  0  0  0  0  0  0  0  0  0  0
   -3.9945   -1.2583    1.2368 H   0  0  0  0  0  0  0  0  0  0  0  0
   -2.6809   -2.3783    0.8339 H   0  0  0  0  0  0  0  0  0  0  0  0
    2.8722   -2.9061   -2.1433 H   0  0  0  0  0  0  0  0  0  0  0  0
    2.9282   -1.9539   -3.6400 H   0  0  0  0  0  0  0  0  0  0  0  0
    3.0641   -3.7255   -3.7021 H   0  0  0  0  0  0  0  0  0  0  0  0
    2.2486   -3.5540   -7.0011 H   0  0  0  0  0  0  0  0  0  0  0  0
    1.8018   -8.2632   -7.7267 H   0  0  0  0  0  0  0  0  0  0  0  0
    0.9754   -9.5040   -6.9557 H   0  0  0  0  0  0  0  0  0  0  0  0
   -1.2869   -7.5932   -3.5035 H   0  0  0  0  0  0  0  0  0  0  0  0
  2  1  1  0  0  0  0 
  1 24  1  0  0  0  0 
  2  3  1  0  0  0  0 
  2 23  1  0  0  0  0 
  3  4  1  0  0  0  0 
  5  4  1  0  0  0  0 
  5  6  1  0  0  0  0 
  5 13  1  0  0  0  0 
  5 22  2  0  0  0  0 
  6  7  1  0  0  0  0 
  7  8  2  0  0  0  0 
  7 12  1  0  0  0  0 
  8  9  1  0  0  0  0 
  9 10  2  0  0  0  0 
 11 10  1  0  0  0  0 
 12 11  2  0  0  0  0 
 14 13  1  0  0  0  0 
 14 15  1  0  0  0  0 
 14 21  1  0  0  0  0 
 15 16  1  0  0  0  0 
 15 20  2  0  0  0  0 
 16 17  1  0  0  0  0 
 17 18  1  0  0  0  0 
 17 19  1  0  0  0  0 
 24 25  1  0  0  0  0 
 24 28  1  0  0  0  0 
 25 26  1  0  0  0  0 
 25 33  2  0  0  0  0 
 26 27  1  0  0  0  0 
 26 29  2  0  0  0  0 
 28 27  2  0  0  0  0 
 29 30  1  0  0  0  0 
 29 31  1  0  0  0  0 
 32 31  2  0  0  0  0 
 33 32  1  0  0  0  0 
 34  1  1  0  0  0  0 
 35  1  1  0  0  0  0 
  2 36  1  0  0  0  0 
 37  4  1  0  0  0  0 
 38  4  1  0  0  0  0 
 39  8  1  0  0  0  0 
 40  9  1  0  0  0  0 
 41 10  1  0  0  0  0 
 42 11  1  0  0  0  0 
 43 12  1  0  0  0  0 
 44 13  1  0  0  0  0 
 14 45  1  0  0  0  0 
 46 17  1  0  0  0  0 
 47 18  1  0  0  0  0 
 48 18  1  0  0  0  0 
 49 18  1  0  0  0  0 
 50 19  1  0  0  0  0 
 51 19  1  0  0  0  0 
 52 19  1  0  0  0  0 
 53 21  1  0  0  0  0 
 54 21  1  0  0  0  0 
 55 21  1  0  0  0  0 
 56 23  1  0  0  0  0 
 57 23  1  0  0  0  0 
 58 23  1  0  0  0  0 
 59 28  1  0  0  0  0 
 60 30  1  0  0  0  0 
 61 30  1  0  0  0  0 
 62 32  1  0  0  0  0 
M  END
> <cdk:Title>
tenofovir alafenamide

> <Conformer>
1

> <SuperDrugID>
SD003860

$$$$
