moroxydine
  CDK     0628171801

 25 25  0  0  0  0  0  0  0  0999 V2000
   -0.7005   -3.6107    1.1392 C   0  0  0  0  0  0  0  0  0  0  0  0
   -0.1868   -4.6066    1.7807 N   0  0  0  0  0  0  0  0  0  0  0  0
   -1.3830   -2.6697    1.7830 N   0  0  0  0  0  0  0  0  0  0  0  0
   -0.5201   -3.5230   -0.2048 N   0  0  0  0  0  0  0  0  0  0  0  0
   -0.1854   -4.9701    3.0230 C   0  0  0  0  0  0  0  0  0  0  0  0
   -1.4514   -2.8223   -1.0753 C   0  0  1  0  0  0  0  0  0  0  0  0
    0.6057   -4.1493   -0.8848 C   0  0  2  0  0  0  0  0  0  0  0  0
    0.8361   -5.6149    3.4386 N   0  0  0  0  0  0  0  0  0  0  0  0
   -1.1737   -4.7415    3.8630 N   0  0  0  0  0  0  0  0  0  0  0  0
   -1.9464   -3.7906   -2.1790 C   0  0  1  0  0  0  0  0  0  0  0  0
    0.0776   -5.0951   -1.9929 C   0  0  2  0  0  0  0  0  0  0  0  0
   -0.8356   -4.4017   -2.8679 O   0  0  0  0  0  0  0  0  0  0  0  0
   -1.7764   -1.9298    1.2947 H   0  0  0  0  0  0  0  0  0  0  0  0
   -1.4886   -2.7104    2.7435 H   0  0  0  0  0  0  0  0  0  0  0  0
   -2.3328   -2.4283   -0.5625 H   0  0  0  0  0  0  0  0  0  0  0  0
   -0.9410   -1.9735   -1.5398 H   0  0  0  0  0  0  0  0  0  0  0  0
    1.2625   -4.7242   -0.2248 H   0  0  0  0  0  0  0  0  0  0  0  0
    1.2253   -3.3710   -1.3409 H   0  0  0  0  0  0  0  0  0  0  0  0
    0.8906   -5.9087    4.3248 H   0  0  0  0  0  0  0  0  0  0  0  0
   -1.9909   -4.3215    3.5522 H   0  0  0  0  0  0  0  0  0  0  0  0
   -1.0913   -4.9985    4.7958 H   0  0  0  0  0  0  0  0  0  0  0  0
   -2.5926   -4.5593   -1.7416 H   0  0  0  0  0  0  0  0  0  0  0  0
   -2.5349   -3.2347   -2.9114 H   0  0  0  0  0  0  0  0  0  0  0  0
   -0.4124   -5.9624   -1.5401 H   0  0  0  0  0  0  0  0  0  0  0  0
    0.9142   -5.4571   -2.5939 H   0  0  0  0  0  0  0  0  0  0  0  0
  1  2  2  0  0  0  0 
  1  3  1  0  0  0  0 
  1  4  1  0  0  0  0 
  2  5  1  0  0  0  0 
  4  6  1  0  0  0  0 
  4  7  1  0  0  0  0 
  5  8  2  0  0  0  0 
  5  9  1  0  0  0  0 
  6 10  1  0  0  0  0 
  7 11  1  0  0  0  0 
 10 12  1  0  0  0  0 
 11 12  1  0  0  0  0 
 13  3  1  0  0  0  0 
 14  3  1  0  0  0  0 
 15  6  1  0  0  0  0 
 16  6  1  0  0  0  0 
 17  7  1  0  0  0  0 
 18  7  1  0  0  0  0 
 19  8  1  0  0  0  0 
 20  9  1  0  0  0  0 
 21  9  1  0  0  0  0 
 22 10  1  0  0  0  0 
 23 10  1  0  0  0  0 
 24 11  1  0  0  0  0 
 25 11  1  0  0  0  0 
M  END
> <cdk:Title>
moroxydine

> <Conformer>
1

> <SuperDrugID>
SD001642

$$$$
