aminobenzoic acid
  CDK     0628171801

 17 17  0  0  0  0  0  0  0  0999 V2000
    0.0688   -5.5107   -1.1596 N   0  0  0  0  0  0  0  0  0  0  0  0
    0.1766   -4.1976   -0.8751 C   0  0  0  0  0  0  0  0  0  0  0  0
   -0.9708   -3.4226   -0.6224 C   0  0  0  0  0  0  0  0  0  0  0  0
   -0.8522   -2.0508   -0.3237 C   0  0  0  0  0  0  0  0  0  0  0  0
    0.4148   -1.4180   -0.2751 C   0  0  0  0  0  0  0  0  0  0  0  0
    1.5590   -2.2157   -0.5284 C   0  0  0  0  0  0  0  0  0  0  0  0
    1.4433   -3.5868   -0.8242 C   0  0  0  0  0  0  0  0  0  0  0  0
    0.5343   -0.0315    0.0191 C   0  0  0  0  0  0  0  0  0  0  0  0
   -0.5457    0.7505    0.2632 O   0  0  0  0  0  0  0  0  0  0  0  0
    1.6485    0.5394    0.0664 O   0  0  0  0  0  0  0  0  0  0  0  0
   -0.8034   -5.9307   -1.2092 H   0  0  0  0  0  0  0  0  0  0  0  0
    0.8674   -6.0407   -1.3192 H   0  0  0  0  0  0  0  0  0  0  0  0
   -1.8989   -3.8522   -0.6513 H   0  0  0  0  0  0  0  0  0  0  0  0
   -1.7075   -1.5215   -0.1419 H   0  0  0  0  0  0  0  0  0  0  0  0
    2.4963   -1.8091   -0.5021 H   0  0  0  0  0  0  0  0  0  0  0  0
    2.2879   -4.1367   -1.0013 H   0  0  0  0  0  0  0  0  0  0  0  0
   -0.4317    1.7032    0.4664 H   0  0  0  0  0  0  0  0  0  0  0  0
  1  2  1  0  0  0  0 
  2  3  2  0  0  0  0 
  3  4  1  0  0  0  0 
  4  5  2  0  0  0  0 
  5  6  1  0  0  0  0 
  6  7  2  0  0  0  0 
  2  7  1  0  0  0  0 
  5  8  1  0  0  0  0 
  8  9  1  0  0  0  0 
  8 10  2  0  0  0  0 
  1 11  1  0  0  0  0 
  1 12  1  0  0  0  0 
  3 13  1  0  0  0  0 
  4 14  1  0  0  0  0 
  6 15  1  0  0  0  0 
  7 16  1  0  0  0  0 
  9 17  1  0  0  0  0 
M  END
> <cdk:Title>
aminobenzoic acid

> <Conformer>
1

> <SuperDrugID>
SD001836

$$$$
