cetamolol
  CDK     0628171801

 48 48  0  0  0  0  0  0  0  0999 V2000
   -4.0868   -1.3985    0.2433 O   0  0  0  0  0  0  0  0  0  0  0  0
   -4.4388   -0.5412    1.3493 C   0  0  1  0  0  0  0  0  0  0  0  0
   -3.8566   -2.6974    0.6109 C   0  0  0  0  0  0  0  0  0  0  0  0
   -4.4886    0.9350    0.8821 C   0  0  2  0  0  0  0  0  0  0  0  0
   -2.5436   -3.1299    0.9123 C   0  0  0  0  0  0  0  0  0  0  0  0
   -4.9224   -3.6186    0.6555 C   0  0  0  0  0  0  0  0  0  0  0  0
   -3.1447    1.3982    0.2648 C   0  0  1  0  0  0  0  0  0  0  0  0
   -4.8167    1.7692    1.9919 O   0  0  0  0  0  0  0  0  0  0  0  0
   -1.4793   -2.2690    0.8410 O   0  0  0  0  0  0  0  0  0  0  0  0
   -2.3190   -4.4697    1.2932 C   0  0  0  0  0  0  0  0  0  0  0  0
   -4.6889   -4.9571    1.0229 C   0  0  0  0  0  0  0  0  0  0  0  0
   -3.2229    2.8123   -0.1767 N   0  0  2  0  0  0  0  0  0  0  0  0
   -0.8316   -2.2913   -0.4472 C   0  0  1  0  0  0  0  0  0  0  0  0
   -3.3871   -5.3817    1.3417 C   0  0  0  0  0  0  0  0  0  0  0  0
   -2.0174    3.4503   -0.7907 C   0  0  2  0  0  0  0  0  0  0  0  0
    0.4709   -1.6100   -0.3490 C   0  0  0  0  0  0  0  0  0  0  0  0
   -1.4928    2.6581   -2.0335 C   0  0  0  0  0  0  0  0  0  0  0  0
   -0.8883    3.6442    0.2704 C   0  0  0  0  0  0  0  0  0  0  0  0
   -2.5071    4.8536   -1.2584 C   0  0  0  0  0  0  0  0  0  0  0  0
    0.5180   -0.2611   -0.1748 N   0  0  0  0  0  0  0  0  0  0  0  0
    1.5211   -2.2881   -0.4482 O   0  0  0  0  0  0  0  0  0  0  0  0
    1.7179    0.5052   -0.1113 C   0  0  0  0  0  0  0  0  0  0  0  0
   -5.4235   -0.8209    1.7333 H   0  0  0  0  0  0  0  0  0  0  0  0
   -3.7121   -0.6231    2.1648 H   0  0  0  0  0  0  0  0  0  0  0  0
   -5.2774    1.0454    0.1342 H   0  0  0  0  0  0  0  0  0  0  0  0
   -5.8703   -3.3157    0.4199 H   0  0  0  0  0  0  0  0  0  0  0  0
   -2.3499    1.2693    1.0033 H   0  0  0  0  0  0  0  0  0  0  0  0
   -2.9242    0.7683   -0.5990 H   0  0  0  0  0  0  0  0  0  0  0  0
   -5.6870    1.4448    2.3027 H   0  0  0  0  0  0  0  0  0  0  0  0
   -1.3736   -4.7826    1.5268 H   0  0  0  0  0  0  0  0  0  0  0  0
   -5.4648   -5.6202    1.0581 H   0  0  0  0  0  0  0  0  0  0  0  0
   -3.4665    3.3700    0.6467 H   0  0  0  0  0  0  0  0  0  0  0  0
   -0.6695   -3.3183   -0.7954 H   0  0  0  0  0  0  0  0  0  0  0  0
   -1.4473   -1.7771   -1.1899 H   0  0  0  0  0  0  0  0  0  0  0  0
   -3.2165   -6.3535    1.6072 H   0  0  0  0  0  0  0  0  0  0  0  0
   -0.7165    3.2207   -2.5564 H   0  0  0  0  0  0  0  0  0  0  0  0
   -2.3057    2.4675   -2.7365 H   0  0  0  0  0  0  0  0  0  0  0  0
   -1.0705    1.6956   -1.7416 H   0  0  0  0  0  0  0  0  0  0  0  0
   -0.5182    2.6859    0.6330 H   0  0  0  0  0  0  0  0  0  0  0  0
   -0.0435    4.1853   -0.1595 H   0  0  0  0  0  0  0  0  0  0  0  0
   -1.2586    4.2129    1.1274 H   0  0  0  0  0  0  0  0  0  0  0  0
   -1.6910    5.4187   -1.7141 H   0  0  0  0  0  0  0  0  0  0  0  0
   -3.3108    4.7572   -1.9930 H   0  0  0  0  0  0  0  0  0  0  0  0
   -2.8893    5.4304   -0.4118 H   0  0  0  0  0  0  0  0  0  0  0  0
   -0.3240    0.2109   -0.0795 H   0  0  0  0  0  0  0  0  0  0  0  0
    2.4367    0.1729   -0.8634 H   0  0  0  0  0  0  0  0  0  0  0  0
    1.4880    1.5551   -0.2981 H   0  0  0  0  0  0  0  0  0  0  0  0
    2.1643    0.4075    0.8787 H   0  0  0  0  0  0  0  0  0  0  0  0
  1  2  1  0  0  0  0 
  1  3  1  0  0  0  0 
  4  2  1  0  0  0  0 
  3  5  2  0  0  0  0 
  3  6  1  0  0  0  0 
  4  7  1  0  0  0  0 
  4  8  1  0  0  0  0 
  5  9  1  0  0  0  0 
  5 10  1  0  0  0  0 
  6 11  2  0  0  0  0 
  7 12  1  0  0  0  0 
  9 13  1  0  0  0  0 
 10 14  2  0  0  0  0 
 11 14  1  0  0  0  0 
 12 15  1  0  0  0  0 
 13 16  1  0  0  0  0 
 15 17  1  0  0  0  0 
 15 18  1  0  0  0  0 
 15 19  1  0  0  0  0 
 16 20  1  0  0  0  0 
 16 21  2  0  0  0  0 
 20 22  1  0  0  0  0 
  2 23  1  0  0  0  0 
  2 24  1  0  0  0  0 
  4 25  1  0  0  0  0 
  6 26  1  0  0  0  0 
  7 27  1  0  0  0  0 
  7 28  1  0  0  0  0 
  8 29  1  0  0  0  0 
 10 30  1  0  0  0  0 
 11 31  1  0  0  0  0 
 12 32  1  0  0  0  0 
 13 33  1  0  0  0  0 
 13 34  1  0  0  0  0 
 14 35  1  0  0  0  0 
 17 36  1  0  0  0  0 
 17 37  1  0  0  0  0 
 17 38  1  0  0  0  0 
 18 39  1  0  0  0  0 
 18 40  1  0  0  0  0 
 18 41  1  0  0  0  0 
 19 42  1  0  0  0  0 
 19 43  1  0  0  0  0 
 19 44  1  0  0  0  0 
 20 45  1  0  0  0  0 
 22 46  1  0  0  0  0 
 22 47  1  0  0  0  0 
 22 48  1  0  0  0  0 
M  END
> <cdk:Title>
cetamolol

> <Conformer>
1

> <SuperDrugID>
SD002674

$$$$
