2-(4-chlorphenoxy)-ethanol
  CDK     0628171801

 20 20  0  0  0  0  0  0  0  0999 V2000
   -0.0367    2.1000    1.1342 O   0  0  0  0  0  0  0  0  0  0  0  0
   -0.5536    1.4199   -0.0298 C   0  0  1  0  0  0  0  0  0  0  0  0
    1.3308    2.1178    1.1681 C   0  0  0  0  0  0  0  0  0  0  0  0
   -2.0933    1.4212    0.0145 C   0  0  1  0  0  0  0  0  0  0  0  0
    2.0391    3.1851    0.5776 C   0  0  0  0  0  0  0  0  0  0  0  0
    2.0385    1.0727    1.7979 C   0  0  0  0  0  0  0  0  0  0  0  0
   -2.5623    0.7479    1.1787 O   0  0  0  0  0  0  0  0  0  0  0  0
    3.4467    3.1799    0.5705 C   0  0  0  0  0  0  0  0  0  0  0  0
    3.4459    1.0679    1.7905 C   0  0  0  0  0  0  0  0  0  0  0  0
    4.1538    2.1176    1.1693 C   0  0  0  0  0  0  0  0  0  0  0  0
    5.8475    2.1079    1.1529 Cl  0  0  0  0  0  0  0  0  0  0  0  0
   -0.2336    1.9254   -0.9479 H   0  0  0  0  0  0  0  0  0  0  0  0
   -0.2077    0.3811   -0.0640 H   0  0  0  0  0  0  0  0  0  0  0  0
   -2.4632    2.4483    0.0243 H   0  0  0  0  0  0  0  0  0  0  0  0
   -2.4900    0.9149   -0.8683 H   0  0  0  0  0  0  0  0  0  0  0  0
    1.5303    3.9605    0.1458 H   0  0  0  0  0  0  0  0  0  0  0  0
    1.5292    0.3112    2.2538 H   0  0  0  0  0  0  0  0  0  0  0  0
   -3.5394    0.7980    1.1202 H   0  0  0  0  0  0  0  0  0  0  0  0
    3.9505    3.9509    0.1248 H   0  0  0  0  0  0  0  0  0  0  0  0
    3.9495    0.2966    2.2356 H   0  0  0  0  0  0  0  0  0  0  0  0
  1  2  1  0  0  0  0 
  1  3  1  0  0  0  0 
  2  4  1  0  0  0  0 
  3  5  2  0  0  0  0 
  3  6  1  0  0  0  0 
  4  7  1  0  0  0  0 
  5  8  1  0  0  0  0 
  6  9  2  0  0  0  0 
  8 10  2  0  0  0  0 
  9 10  1  0  0  0  0 
 10 11  1  0  0  0  0 
  2 12  1  0  0  0  0 
  2 13  1  0  0  0  0 
  4 14  1  0  0  0  0 
  4 15  1  0  0  0  0 
  5 16  1  0  0  0  0 
  6 17  1  0  0  0  0 
  7 18  1  0  0  0  0 
  8 19  1  0  0  0  0 
  9 20  1  0  0  0  0 
M  END
> <cdk:Title>
2-(4-chlorphenoxy)-ethanol

> <Conformer>
1

> <SuperDrugID>
SD003501

$$$$
