ephedrine
  CDK     0628171801

 27 27  0  0  0  0  0  0  0  0999 V2000
   -0.3397   -1.0625   -1.7023 C   0  0  2  0  0  0  0  0  0  0  0  0
    0.5337   -0.8437   -2.9825 C   0  0  1  0  0  0  0  0  0  0  0  0
   -0.7016    0.1815   -1.0997 O   0  0  0  0  0  0  0  0  0  0  0  0
    0.2953   -1.9751   -0.7061 C   0  0  0  0  0  0  0  0  0  0  0  0
    1.9061   -0.3356   -2.7119 N   0  0  2  0  0  0  0  0  0  0  0  0
    0.6950   -2.1483   -3.8080 C   0  0  0  0  0  0  0  0  0  0  0  0
   -0.0421   -3.3499   -0.6808 C   0  0  0  0  0  0  0  0  0  0  0  0
    1.2613   -1.5006    0.2135 C   0  0  0  0  0  0  0  0  0  0  0  0
    2.0249    1.1049   -2.4179 C   0  0  0  0  0  0  0  0  0  0  0  0
    0.5833   -4.2291    0.2208 C   0  0  0  0  0  0  0  0  0  0  0  0
    1.8814   -2.3774    1.1217 C   0  0  0  0  0  0  0  0  0  0  0  0
    1.5466   -3.7428    1.1210 C   0  0  0  0  0  0  0  0  0  0  0  0
   -1.2912   -1.4892   -2.0305 H   0  0  0  0  0  0  0  0  0  0  0  0
    0.0081   -0.1362   -3.6314 H   0  0  0  0  0  0  0  0  0  0  0  0
   -1.3196   -0.0509   -0.3750 H   0  0  0  0  0  0  0  0  0  0  0  0
    2.4471   -0.4849   -3.5693 H   0  0  0  0  0  0  0  0  0  0  0  0
    1.1917   -1.9314   -4.7564 H   0  0  0  0  0  0  0  0  0  0  0  0
    1.2974   -2.8803   -3.2647 H   0  0  0  0  0  0  0  0  0  0  0  0
   -0.2798   -2.5886   -4.0270 H   0  0  0  0  0  0  0  0  0  0  0  0
   -0.7407   -3.7247   -1.3282 H   0  0  0  0  0  0  0  0  0  0  0  0
    1.5196   -0.5123    0.2324 H   0  0  0  0  0  0  0  0  0  0  0  0
    3.0828    1.3652   -2.4046 H   0  0  0  0  0  0  0  0  0  0  0  0
    1.5307    1.7039   -3.1852 H   0  0  0  0  0  0  0  0  0  0  0  0
    1.6037    1.3415   -1.4421 H   0  0  0  0  0  0  0  0  0  0  0  0
    0.3392   -5.2211    0.2172 H   0  0  0  0  0  0  0  0  0  0  0  0
    2.5757   -2.0209    1.7803 H   0  0  0  0  0  0  0  0  0  0  0  0
    2.0029   -4.3822    1.7746 H   0  0  0  0  0  0  0  0  0  0  0  0
  2  1  1  0  0  0  0 
  1  3  1  0  0  0  0 
  1  4  1  0  0  0  0 
  2  5  1  0  0  0  0 
  2  6  1  0  0  0  0 
  4  7  2  0  0  0  0 
  4  8  1  0  0  0  0 
  5  9  1  0  0  0  0 
  7 10  1  0  0  0  0 
  8 11  2  0  0  0  0 
 10 12  2  0  0  0  0 
 11 12  1  0  0  0  0 
  1 13  1  0  0  0  0 
  2 14  1  0  0  0  0 
  3 15  1  0  0  0  0 
  5 16  1  0  0  0  0 
  6 17  1  0  0  0  0 
  6 18  1  0  0  0  0 
  6 19  1  0  0  0  0 
  7 20  1  0  0  0  0 
  8 21  1  0  0  0  0 
  9 22  1  0  0  0  0 
  9 23  1  0  0  0  0 
  9 24  1  0  0  0  0 
 10 25  1  0  0  0  0 
 11 26  1  0  0  0  0 
 12 27  1  0  0  0  0 
M  END
> <cdk:Title>
ephedrine

> <Conformer>
1

> <SuperDrugID>
SD000911

$$$$
