bromochlorosalicylanilide
  CDK     0628171801

 27 28  0  0  0  0  0  0  0  0999 V2000
    1.9362    1.2518   -0.1024 C   0  0  0  0  0  0  0  0  0  0  0  0
    1.1551    0.1394    0.0484 N   0  0  0  0  0  0  0  0  0  0  0  0
    1.4269    2.3108   -0.5416 O   0  0  0  0  0  0  0  0  0  0  0  0
    3.3212    1.2230    0.2449 C   0  0  0  0  0  0  0  0  0  0  0  0
   -0.1468   -0.0264   -0.3256 C   0  0  0  0  0  0  0  0  0  0  0  0
    4.2663    2.1056   -0.3519 C   0  0  0  0  0  0  0  0  0  0  0  0
    3.8043    0.2866    1.1968 C   0  0  0  0  0  0  0  0  0  0  0  0
   -0.6655    0.4608   -1.5487 C   0  0  0  0  0  0  0  0  0  0  0  0
   -0.9954   -0.7606    0.5314 C   0  0  0  0  0  0  0  0  0  0  0  0
    3.9247    3.0199   -1.2956 O   0  0  0  0  0  0  0  0  0  0  0  0
    5.6299    2.0452   -0.0052 C   0  0  0  0  0  0  0  0  0  0  0  0
    5.1692    0.2173    1.5285 C   0  0  0  0  0  0  0  0  0  0  0  0
   -2.0089    0.2346   -1.8972 C   0  0  0  0  0  0  0  0  0  0  0  0
   -2.3406   -0.9883    0.1820 C   0  0  0  0  0  0  0  0  0  0  0  0
    6.0823    1.0986    0.9285 C   0  0  0  0  0  0  0  0  0  0  0  0
    5.7622   -1.0448    2.7592 Br  0  0  0  0  0  0  0  0  0  0  0  0
   -2.8506   -0.4927   -1.0345 C   0  0  0  0  0  0  0  0  0  0  0  0
   -4.4609   -0.7775   -1.4732 Cl  0  0  0  0  0  0  0  0  0  0  0  0
    1.5673   -0.6208    0.4858 H   0  0  0  0  0  0  0  0  0  0  0  0
    3.1663   -0.3596    1.6679 H   0  0  0  0  0  0  0  0  0  0  0  0
   -0.0665    0.9696   -2.2019 H   0  0  0  0  0  0  0  0  0  0  0  0
   -0.6418   -1.1273    1.4209 H   0  0  0  0  0  0  0  0  0  0  0  0
    3.2476    2.5751   -1.8473 H   0  0  0  0  0  0  0  0  0  0  0  0
    6.2993    2.6854   -0.4393 H   0  0  0  0  0  0  0  0  0  0  0  0
   -2.3633    0.5941   -2.7864 H   0  0  0  0  0  0  0  0  0  0  0  0
   -2.9409   -1.5194    0.8163 H   0  0  0  0  0  0  0  0  0  0  0  0
    7.0748    1.0497    1.1682 H   0  0  0  0  0  0  0  0  0  0  0  0
  1  2  1  0  0  0  0 
  1  3  2  0  0  0  0 
  1  4  1  0  0  0  0 
  2  5  1  0  0  0  0 
  4  6  2  0  0  0  0 
  4  7  1  0  0  0  0 
  5  8  2  0  0  0  0 
  5  9  1  0  0  0  0 
  6 10  1  0  0  0  0 
  6 11  1  0  0  0  0 
  7 12  2  0  0  0  0 
  8 13  1  0  0  0  0 
  9 14  2  0  0  0  0 
 11 15  2  0  0  0  0 
 12 15  1  0  0  0  0 
 12 16  1  0  0  0  0 
 13 17  2  0  0  0  0 
 14 17  1  0  0  0  0 
 17 18  1  0  0  0  0 
  2 19  1  0  0  0  0 
  7 20  1  0  0  0  0 
  8 21  1  0  0  0  0 
  9 22  1  0  0  0  0 
 10 23  1  0  0  0  0 
 11 24  1  0  0  0  0 
 13 25  1  0  0  0  0 
 14 26  1  0  0  0  0 
 15 27  1  0  0  0  0 
M  END
> <cdk:Title>
bromochlorosalicylanilide

> <Conformer>
1

> <SuperDrugID>
SD002640

$$$$
