nomifensine
  CDK     0628171801

 36 38  0  0  0  0  0  0  0  0999 V2000
   -2.5491    1.9714   -0.9954 N   0  0  0  0  0  0  0  0  0  0  0  0
   -2.7537    0.6685   -1.2864 C   0  0  0  0  0  0  0  0  0  0  0  0
   -2.5662   -0.3583   -0.3232 C   0  0  0  0  0  0  0  0  0  0  0  0
   -3.1727    0.3487   -2.5931 C   0  0  0  0  0  0  0  0  0  0  0  0
   -2.8406   -1.7092   -0.6810 C   0  0  0  0  0  0  0  0  0  0  0  0
   -2.1160   -0.0179    1.0598 C   0  0  1  0  0  0  0  0  0  0  0  0
   -3.4287   -0.9842   -2.9493 C   0  0  0  0  0  0  0  0  0  0  0  0
   -2.7127   -2.8270    0.3048 C   0  0  2  0  0  0  0  0  0  0  0  0
   -3.2663   -2.0044   -1.9989 C   0  0  0  0  0  0  0  0  0  0  0  0
   -1.7371   -1.1846    1.9145 N   0  0  2  0  0  0  0  0  0  0  0  0
   -2.6875   -2.3205    1.7788 C   0  0  1  0  0  0  0  0  0  0  0  0
   -1.5410   -3.7094   -0.0170 C   0  0  0  0  0  0  0  0  0  0  0  0
   -1.4311   -0.8197    3.3266 C   0  0  0  0  0  0  0  0  0  0  0  0
   -1.7338   -5.0801   -0.3249 C   0  0  0  0  0  0  0  0  0  0  0  0
   -0.2134   -3.2077   -0.0159 C   0  0  0  0  0  0  0  0  0  0  0  0
   -0.6383   -5.9261   -0.5832 C   0  0  0  0  0  0  0  0  0  0  0  0
    0.8823   -4.0528   -0.2736 C   0  0  0  0  0  0  0  0  0  0  0  0
    0.6703   -5.4145   -0.5478 C   0  0  0  0  0  0  0  0  0  0  0  0
   -2.7034    2.6491   -1.6709 H   0  0  0  0  0  0  0  0  0  0  0  0
   -2.2551    2.2367   -0.1101 H   0  0  0  0  0  0  0  0  0  0  0  0
   -3.2997    1.0848   -3.2917 H   0  0  0  0  0  0  0  0  0  0  0  0
   -1.2347    0.6262    0.9874 H   0  0  0  0  0  0  0  0  0  0  0  0
   -2.9196    0.5487    1.5405 H   0  0  0  0  0  0  0  0  0  0  0  0
   -3.7398   -1.2105   -3.8967 H   0  0  0  0  0  0  0  0  0  0  0  0
   -3.6396   -3.4092    0.2371 H   0  0  0  0  0  0  0  0  0  0  0  0
   -3.4680   -2.9693   -2.2749 H   0  0  0  0  0  0  0  0  0  0  0  0
   -3.6895   -1.9909    2.0763 H   0  0  0  0  0  0  0  0  0  0  0  0
   -2.4081   -3.1480    2.4378 H   0  0  0  0  0  0  0  0  0  0  0  0
   -2.3271   -0.4673    3.8423 H   0  0  0  0  0  0  0  0  0  0  0  0
   -0.6726   -0.0348    3.3614 H   0  0  0  0  0  0  0  0  0  0  0  0
   -1.0335   -1.6829    3.8649 H   0  0  0  0  0  0  0  0  0  0  0  0
   -2.6766   -5.4771   -0.3596 H   0  0  0  0  0  0  0  0  0  0  0  0
   -0.0284   -2.2214    0.1744 H   0  0  0  0  0  0  0  0  0  0  0  0
   -0.7949   -6.9136   -0.7951 H   0  0  0  0  0  0  0  0  0  0  0  0
    1.8322   -3.6735   -0.2597 H   0  0  0  0  0  0  0  0  0  0  0  0
    1.4670   -6.0313   -0.7239 H   0  0  0  0  0  0  0  0  0  0  0  0
  1  2  1  0  0  0  0 
  2  3  2  0  0  0  0 
  2  4  1  0  0  0  0 
  3  5  1  0  0  0  0 
  3  6  1  0  0  0  0 
  4  7  2  0  0  0  0 
  8  5  1  0  0  0  0 
  5  9  2  0  0  0  0 
  6 10  1  0  0  0  0 
  7  9  1  0  0  0  0 
  8 11  1  0  0  0  0 
  8 12  1  0  0  0  0 
 10 11  1  0  0  0  0 
 10 13  1  0  0  0  0 
 12 14  2  0  0  0  0 
 12 15  1  0  0  0  0 
 14 16  1  0  0  0  0 
 15 17  2  0  0  0  0 
 16 18  2  0  0  0  0 
 17 18  1  0  0  0  0 
  1 19  1  0  0  0  0 
  1 20  1  0  0  0  0 
  4 21  1  0  0  0  0 
  6 22  1  0  0  0  0 
  6 23  1  0  0  0  0 
  7 24  1  0  0  0  0 
  8 25  1  0  0  0  0 
  9 26  1  0  0  0  0 
 11 27  1  0  0  0  0 
 11 28  1  0  0  0  0 
 13 29  1  0  0  0  0 
 13 30  1  0  0  0  0 
 13 31  1  0  0  0  0 
 14 32  1  0  0  0  0 
 15 33  1  0  0  0  0 
 16 34  1  0  0  0  0 
 17 35  1  0  0  0  0 
 18 36  1  0  0  0  0 
M  END
> <cdk:Title>
nomifensine

> <Conformer>
1

> <SuperDrugID>
SD001750

$$$$
