lobenzarit
  CDK     0628171801

 30 31  0  0  0  0  0  0  0  0999 V2000
   -1.5810    1.3392   -1.3897 N   0  0  0  0  0  0  0  0  0  0  0  0
   -1.9390    1.9985   -2.5408 C   0  0  0  0  0  0  0  0  0  0  0  0
   -0.5701    1.5907   -0.4992 C   0  0  0  0  0  0  0  0  0  0  0  0
   -2.7977    1.3581   -3.4858 C   0  0  0  0  0  0  0  0  0  0  0  0
   -1.5281    3.3350   -2.7782 C   0  0  0  0  0  0  0  0  0  0  0  0
    0.7858    1.9167   -0.8164 C   0  0  0  0  0  0  0  0  0  0  0  0
   -0.9624    1.4892    0.8559 C   0  0  0  0  0  0  0  0  0  0  0  0
   -3.2318    0.0074   -3.3537 C   0  0  0  0  0  0  0  0  0  0  0  0
   -3.2369    2.0906   -4.6182 C   0  0  0  0  0  0  0  0  0  0  0  0
   -1.9519    4.0355   -3.9226 C   0  0  0  0  0  0  0  0  0  0  0  0
    1.3073    1.8958   -2.1408 C   0  0  0  0  0  0  0  0  0  0  0  0
    1.6682    2.2326    0.2502 C   0  0  0  0  0  0  0  0  0  0  0  0
   -0.0620    1.7738    1.8962 C   0  0  0  0  0  0  0  0  0  0  0  0
   -4.3884   -0.4245   -3.9136 O   0  0  0  0  0  0  0  0  0  0  0  0
   -2.5657   -0.8552   -2.7389 O   0  0  0  0  0  0  0  0  0  0  0  0
   -2.8226    3.4157   -4.8333 C   0  0  0  0  0  0  0  0  0  0  0  0
   -1.4262    5.6199   -4.2042 Cl  0  0  0  0  0  0  0  0  0  0  0  0
    0.7804    1.1156   -3.1108 O   0  0  0  0  0  0  0  0  0  0  0  0
    2.2992    2.5869   -2.4712 O   0  0  0  0  0  0  0  0  0  0  0  0
    1.2511    2.1599    1.5903 C   0  0  0  0  0  0  0  0  0  0  0  0
   -2.1785    0.6201   -1.1292 H   0  0  0  0  0  0  0  0  0  0  0  0
   -0.9259    3.8166   -2.1067 H   0  0  0  0  0  0  0  0  0  0  0  0
   -1.9203    1.2190    1.1013 H   0  0  0  0  0  0  0  0  0  0  0  0
   -3.8568    1.6637   -5.3130 H   0  0  0  0  0  0  0  0  0  0  0  0
    2.6399    2.4981    0.0654 H   0  0  0  0  0  0  0  0  0  0  0  0
   -0.3644    1.7107    2.8717 H   0  0  0  0  0  0  0  0  0  0  0  0
   -4.6710   -1.3575   -3.8123 H   0  0  0  0  0  0  0  0  0  0  0  0
   -3.1577    3.9189   -5.6593 H   0  0  0  0  0  0  0  0  0  0  0  0
    1.1629    1.1274   -4.0130 H   0  0  0  0  0  0  0  0  0  0  0  0
    1.9063    2.3780    2.3437 H   0  0  0  0  0  0  0  0  0  0  0  0
  1  2  1  0  0  0  0 
  1  3  1  0  0  0  0 
  2  4  2  0  0  0  0 
  2  5  1  0  0  0  0 
  3  6  2  0  0  0  0 
  3  7  1  0  0  0  0 
  4  8  1  0  0  0  0 
  4  9  1  0  0  0  0 
  5 10  2  0  0  0  0 
  6 11  1  0  0  0  0 
  6 12  1  0  0  0  0 
  7 13  2  0  0  0  0 
  8 14  1  0  0  0  0 
  8 15  2  0  0  0  0 
  9 16  2  0  0  0  0 
 10 16  1  0  0  0  0 
 10 17  1  0  0  0  0 
 11 18  1  0  0  0  0 
 11 19  2  0  0  0  0 
 12 20  2  0  0  0  0 
 13 20  1  0  0  0  0 
  1 21  1  0  0  0  0 
  5 22  1  0  0  0  0 
  7 23  1  0  0  0  0 
  9 24  1  0  0  0  0 
 12 25  1  0  0  0  0 
 13 26  1  0  0  0  0 
 14 27  1  0  0  0  0 
 16 28  1  0  0  0  0 
 18 29  1  0  0  0  0 
 20 30  1  0  0  0  0 
M  END
> <cdk:Title>
lobenzarit

> <Conformer>
1

> <SuperDrugID>
SD001405

$$$$
