pasireotide
  CDK     0628171801

143150  0  0  0  0  0  0  0  0999 V2000
   -0.8112  -11.5408   -4.3312 C   0  0  0  0  0  0  0  0  0  0  0  0
    0.0145  -11.4167   -3.2553 N   0  0  0  0  0  0  0  0  0  0  0  0
   -2.4749  -11.2560   -0.9452 N   0  0  0  0  0  0  0  0  0  0  0  0
   -5.8893  -10.4103   -1.3662 N   0  0  0  0  0  0  0  0  0  0  0  0
   -6.2557   -7.5853   -3.2173 N   0  0  0  0  0  0  0  0  0  0  0  0
   -3.0009   -8.0514   -4.6345 N   0  0  0  0  0  0  0  0  0  0  0  0
   -0.1695  -11.0013   -1.8926 C   0  0  1  0  0  0  0  0  0  0  0  0
   -1.4592  -10.4513   -1.3857 C   0  0  0  0  0  0  0  0  0  0  0  0
   -1.5507   -9.2071   -1.2662 O   0  0  0  0  0  0  0  0  0  0  0  0
   -3.6216  -10.8562   -0.1660 C   0  0  2  0  0  0  0  0  0  0  0  0
   -3.5354  -11.5978    1.2076 C   0  0  2  0  0  0  0  0  0  0  0  0
   -4.4034  -11.0385    2.2679 C   0  0  0  0  0  0  0  0  0  0  0  0
   -4.0955   -9.9349    3.0699 C   0  0  0  0  0  0  0  0  0  0  0  0
   -5.0955   -9.7175    3.9388 N   0  0  0  0  0  0  0  0  0  0  0  0
   -6.0501  -10.6352    3.7377 C   0  0  0  0  0  0  0  0  0  0  0  0
   -5.6558  -11.4825    2.7008 C   0  0  0  0  0  0  0  0  0  0  0  0
   -6.4832  -12.5453    2.2887 C   0  0  0  0  0  0  0  0  0  0  0  0
   -7.7143  -12.7346    2.9549 C   0  0  0  0  0  0  0  0  0  0  0  0
   -8.1082  -11.8746    4.0068 C   0  0  0  0  0  0  0  0  0  0  0  0
   -7.2739  -10.8093    4.4042 C   0  0  0  0  0  0  0  0  0  0  0  0
   -4.8620  -11.1906   -0.9171 C   0  0  0  0  0  0  0  0  0  0  0  0
   -5.0394  -12.3995   -1.1889 O   0  0  0  0  0  0  0  0  0  0  0  0
   -0.2306  -12.0129   -5.3353 O   0  0  0  0  0  0  0  0  0  0  0  0
   -2.2751  -11.2893   -4.4281 C   0  0  2  0  0  0  0  0  0  0  0  0
   -3.0252  -12.6032   -4.0720 C   0  0  1  0  0  0  0  0  0  0  0  0
   -3.9940  -12.8584   -5.2370 C   0  0  2  0  0  0  0  0  0  0  0  0
   -3.3192  -12.1090   -6.3906 C   0  0  1  0  0  0  0  0  0  0  0  0
   -2.7284  -10.9621   -5.7614 N   0  0  0  0  0  0  0  0  0  0  0  0
   -5.3027  -12.3222   -4.9690 O   0  0  0  0  0  0  0  0  0  0  0  0
   -6.2331  -12.8535   -4.1228 C   0  0  0  0  0  0  0  0  0  0  0  0
   -7.2827  -12.1962   -3.9451 O   0  0  0  0  0  0  0  0  0  0  0  0
   -6.0174  -14.0511   -3.5118 N   0  0  0  0  0  0  0  0  0  0  0  0
   -6.9176  -14.7557   -2.6581 C   0  0  1  0  0  0  0  0  0  0  0  0
   -7.1413  -16.1801   -3.2098 C   0  0  2  0  0  0  0  0  0  0  0  0
   -7.9905  -16.9534   -2.3017 N   0  0  1  0  0  0  0  0  0  0  0  0
    0.3436  -12.0633   -0.9708 C   0  0  0  0  0  0  0  0  0  0  0  0
    1.3754  -14.0576    0.7677 C   0  0  0  0  0  0  0  0  0  0  0  0
    0.5535  -14.4242   -0.3124 C   0  0  0  0  0  0  0  0  0  0  0  0
    0.0339  -13.4337   -1.1674 C   0  0  0  0  0  0  0  0  0  0  0  0
    1.1579  -11.7156    0.1348 C   0  0  0  0  0  0  0  0  0  0  0  0
    1.6713  -12.7026    0.9951 C   0  0  0  0  0  0  0  0  0  0  0  0
   -0.6057   -2.1744    0.0120 C   0  0  1  0  0  0  0  0  0  0  0  0
    0.1637   -0.9962    0.4881 C   0  0  0  0  0  0  0  0  0  0  0  0
    2.2185    0.3436    0.4859 C   0  0  0  0  0  0  0  0  0  0  0  0
    1.4645   -0.7402   -0.0068 C   0  0  0  0  0  0  0  0  0  0  0  0
   -0.3669   -0.1356    1.4804 C   0  0  0  0  0  0  0  0  0  0  0  0
    0.3862    0.9430    1.9776 C   0  0  0  0  0  0  0  0  0  0  0  0
    1.6812    1.1789    1.4842 C   0  0  0  0  0  0  0  0  0  0  0  0
   -6.8484   -8.3897   -2.2741 C   0  0  0  0  0  0  0  0  0  0  0  0
   -6.0018   -6.0442    1.4885 C   0  0  2  0  0  0  0  0  0  0  0  0
   -6.6948   -7.0421    0.5239 C   0  0  2  0  0  0  0  0  0  0  0  0
   -5.8414   -8.2985    0.1828 C   0  0  2  0  0  0  0  0  0  0  0  0
   -6.3955   -9.1123   -1.0301 C   0  0  2  0  0  0  0  0  0  0  0  0
   -6.1206   -3.7691    2.4823 N   0  0  1  0  0  0  0  0  0  0  0  0
   -6.8461   -4.7611    1.6841 C   0  0  1  0  0  0  0  0  0  0  0  0
   -8.0572   -8.5404   -2.5760 O   0  0  0  0  0  0  0  0  0  0  0  0
   -4.3196   -7.7061   -4.6179 C   0  0  0  0  0  0  0  0  0  0  0  0
   -0.7061   -2.2160   -1.4342 O   0  0  0  0  0  0  0  0  0  0  0  0
   -3.1434   -5.5326   -2.2881 C   0  0  0  0  0  0  0  0  0  0  0  0
   -1.7391   -5.6871   -2.2018 C   0  0  0  0  0  0  0  0  0  0  0  0
   -0.9092   -4.5681   -1.9888 C   0  0  0  0  0  0  0  0  0  0  0  0
   -1.4691   -3.2811   -1.8508 C   0  0  0  0  0  0  0  0  0  0  0  0
   -4.0680   -6.7044   -2.2305 C   0  0  2  0  0  0  0  0  0  0  0  0
   -2.8469   -3.1030   -2.0794 C   0  0  0  0  0  0  0  0  0  0  0  0
   -3.6768   -4.2185   -2.2908 C   0  0  0  0  0  0  0  0  0  0  0  0
   -4.9564   -7.0175   -3.4644 C   0  0  2  0  0  0  0  0  0  0  0  0
   -5.0193   -7.8840   -5.6461 O   0  0  0  0  0  0  0  0  0  0  0  0
   -2.6671   -9.7258   -6.3991 C   0  0  0  0  0  0  0  0  0  0  0  0
   -0.7387   -8.2291   -5.5492 C   0  0  2  0  0  0  0  0  0  0  0  0
    0.0627   -8.1319   -6.8011 C   0  0  0  0  0  0  0  0  0  0  0  0
    0.5168   -9.2944   -7.4657 C   0  0  0  0  0  0  0  0  0  0  0  0
    1.2807   -9.2002   -8.6425 C   0  0  0  0  0  0  0  0  0  0  0  0
    1.5805   -7.9387   -9.1852 C   0  0  0  0  0  0  0  0  0  0  0  0
    1.1258   -6.7725   -8.5449 C   0  0  0  0  0  0  0  0  0  0  0  0
    0.3744   -6.8687   -7.3593 C   0  0  0  0  0  0  0  0  0  0  0  0
   -2.2615   -8.4074   -5.8115 C   0  0  2  0  0  0  0  0  0  0  0  0
   -3.0181   -9.6655   -7.6045 O   0  0  0  0  0  0  0  0  0  0  0  0
    0.9328  -11.6709   -3.4487 H   0  0  0  0  0  0  0  0  0  0  0  0
   -2.3871  -12.2042   -1.1199 H   0  0  0  0  0  0  0  0  0  0  0  0
   -6.4707  -10.8740   -1.9915 H   0  0  0  0  0  0  0  0  0  0  0  0
   -6.8835   -7.3210   -3.9104 H   0  0  0  0  0  0  0  0  0  0  0  0
   -2.5063   -7.9816   -3.8044 H   0  0  0  0  0  0  0  0  0  0  0  0
    0.5472  -10.1714   -1.8483 H   0  0  0  0  0  0  0  0  0  0  0  0
   -3.5673   -9.7927    0.0185 H   0  0  0  0  0  0  0  0  0  0  0  0
   -2.5049  -11.5544    1.5754 H   0  0  0  0  0  0  0  0  0  0  0  0
   -3.7655  -12.6573    1.0750 H   0  0  0  0  0  0  0  0  0  0  0  0
   -3.2415   -9.3787    3.0115 H   0  0  0  0  0  0  0  0  0  0  0  0
   -5.1211   -9.0144    4.6064 H   0  0  0  0  0  0  0  0  0  0  0  0
   -6.2030  -13.1732    1.5319 H   0  0  0  0  0  0  0  0  0  0  0  0
   -8.3248  -13.5063    2.6795 H   0  0  0  0  0  0  0  0  0  0  0  0
   -8.9988  -12.0253    4.4880 H   0  0  0  0  0  0  0  0  0  0  0  0
   -7.5491  -10.1801    5.1606 H   0  0  0  0  0  0  0  0  0  0  0  0
   -2.5868  -10.4998   -3.7508 H   0  0  0  0  0  0  0  0  0  0  0  0
   -2.3604  -13.4685   -3.9681 H   0  0  0  0  0  0  0  0  0  0  0  0
   -3.5613  -12.4990   -3.1379 H   0  0  0  0  0  0  0  0  0  0  0  0
   -4.0685  -13.9227   -5.4797 H   0  0  0  0  0  0  0  0  0  0  0  0
   -2.5348  -12.7272   -6.8392 H   0  0  0  0  0  0  0  0  0  0  0  0
   -4.0565  -11.8710   -7.1617 H   0  0  0  0  0  0  0  0  0  0  0  0
   -5.1645  -14.4772   -3.6807 H   0  0  0  0  0  0  0  0  0  0  0  0
   -6.4636  -14.8201   -1.6656 H   0  0  0  0  0  0  0  0  0  0  0  0
   -7.8827  -14.2497   -2.5648 H   0  0  0  0  0  0  0  0  0  0  0  0
   -6.1880  -16.7040   -3.3124 H   0  0  0  0  0  0  0  0  0  0  0  0
   -7.6220  -16.1263   -4.1899 H   0  0  0  0  0  0  0  0  0  0  0  0
   -8.1039  -17.8758   -2.7204 H   0  0  0  0  0  0  0  0  0  0  0  0
   -7.4587  -17.0887   -1.4385 H   0  0  0  0  0  0  0  0  0  0  0  0
    1.7547  -14.7741    1.3907 H   0  0  0  0  0  0  0  0  0  0  0  0
    0.3360  -15.4102   -0.4783 H   0  0  0  0  0  0  0  0  0  0  0  0
   -0.5690  -13.7225   -1.9408 H   0  0  0  0  0  0  0  0  0  0  0  0
    1.3833  -10.7355    0.3210 H   0  0  0  0  0  0  0  0  0  0  0  0
    2.2624  -12.4328    1.7843 H   0  0  0  0  0  0  0  0  0  0  0  0
   -0.0884   -3.0674    0.3748 H   0  0  0  0  0  0  0  0  0  0  0  0
   -1.6074   -2.1719    0.4583 H   0  0  0  0  0  0  0  0  0  0  0  0
    3.1583    0.5220    0.1206 H   0  0  0  0  0  0  0  0  0  0  0  0
    1.8706   -1.3469   -0.7251 H   0  0  0  0  0  0  0  0  0  0  0  0
   -1.3034   -0.2949    1.8607 H   0  0  0  0  0  0  0  0  0  0  0  0
   -0.0084    1.5523    2.6997 H   0  0  0  0  0  0  0  0  0  0  0  0
    2.2277    1.9597    1.8531 H   0  0  0  0  0  0  0  0  0  0  0  0
   -5.0250   -5.7623    1.0873 H   0  0  0  0  0  0  0  0  0  0  0  0
   -5.8436   -6.5269    2.4550 H   0  0  0  0  0  0  0  0  0  0  0  0
   -6.9325   -6.5035   -0.3948 H   0  0  0  0  0  0  0  0  0  0  0  0
   -7.6387   -7.3715    0.9674 H   0  0  0  0  0  0  0  0  0  0  0  0
   -5.8507   -8.9420    1.0632 H   0  0  0  0  0  0  0  0  0  0  0  0
   -4.8092   -8.0130    0.0310 H   0  0  0  0  0  0  0  0  0  0  0  0
   -7.3361   -9.4582   -0.5832 H   0  0  0  0  0  0  0  0  0  0  0  0
   -5.3109   -3.4839    1.9284 H   0  0  0  0  0  0  0  0  0  0  0  0
   -6.7258   -2.9499    2.5629 H   0  0  0  0  0  0  0  0  0  0  0  0
   -7.0828   -4.3146    0.7155 H   0  0  0  0  0  0  0  0  0  0  0  0
   -7.7833   -5.0022    2.1896 H   0  0  0  0  0  0  0  0  0  0  0  0
   -1.3143   -6.6170   -2.2494 H   0  0  0  0  0  0  0  0  0  0  0  0
    0.1004   -4.6942   -1.8892 H   0  0  0  0  0  0  0  0  0  0  0  0
   -4.7468   -6.4318   -1.4329 H   0  0  0  0  0  0  0  0  0  0  0  0
   -3.5425   -7.6128   -1.9311 H   0  0  0  0  0  0  0  0  0  0  0  0
   -3.2527   -2.1653   -2.0474 H   0  0  0  0  0  0  0  0  0  0  0  0
   -4.6845   -4.0680   -2.3939 H   0  0  0  0  0  0  0  0  0  0  0  0
   -5.2177   -6.0353   -3.8670 H   0  0  0  0  0  0  0  0  0  0  0  0
   -0.5920   -7.3119   -4.9692 H   0  0  0  0  0  0  0  0  0  0  0  0
   -0.3578   -9.0300   -4.9230 H   0  0  0  0  0  0  0  0  0  0  0  0
    0.2946  -10.2188   -7.0988 H   0  0  0  0  0  0  0  0  0  0  0  0
    1.6162  -10.0489   -9.1032 H   0  0  0  0  0  0  0  0  0  0  0  0
    2.1277   -7.8699  -10.0453 H   0  0  0  0  0  0  0  0  0  0  0  0
    1.3406   -5.8552   -8.9413 H   0  0  0  0  0  0  0  0  0  0  0  0
    0.0519   -6.0093   -6.9077 H   0  0  0  0  0  0  0  0  0  0  0  0
   -2.5062   -7.6186   -6.5387 H   0  0  0  0  0  0  0  0  0  0  0  0
  1  2  1  0  0  0  0 
  8  3  1  0  0  0  0 
 21  4  1  0  0  0  0 
 49  5  1  0  0  0  0 
 57  6  1  0  0  0  0 
  2  7  1  0  0  0  0 
  7  8  1  0  0  0  0 
  8  9  2  0  0  0  0 
 10  3  1  0  0  0  0 
 10 11  1  0  0  0  0 
 11 12  1  0  0  0  0 
 12 13  2  0  0  0  0 
 13 14  1  0  0  0  0 
 14 15  1  0  0  0  0 
 15 16  1  0  0  0  0 
 12 16  1  0  0  0  0 
 16 17  2  0  0  0  0 
 17 18  1  0  0  0  0 
 18 19  2  0  0  0  0 
 19 20  1  0  0  0  0 
 15 20  2  0  0  0  0 
 10 21  1  0  0  0  0 
 21 22  2  0  0  0  0 
  1 23  2  0  0  0  0 
 24  1  1  0  0  0  0 
 26 25  1  0  0  0  0 
 26 27  1  0  0  0  0 
 27 28  1  0  0  0  0 
 24 25  1  0  0  0  0 
 24 28  1  0  0  0  0 
 26 29  1  0  0  0  0 
 29 30  1  0  0  0  0 
 30 31  2  0  0  0  0 
 30 32  1  0  0  0  0 
 32 33  1  0  0  0  0 
 33 34  1  0  0  0  0 
 34 35  1  0  0  0  0 
 28 68  1  0  0  0  0 
  7 36  1  0  0  0  0 
 37 38  2  0  0  0  0 
 38 39  1  0  0  0  0 
 40 41  2  0  0  0  0 
 37 41  1  0  0  0  0 
 39 36  2  0  0  0  0 
 36 40  1  0  0  0  0 
 58 42  1  0  0  0  0 
 42 43  1  0  0  0  0 
 44 45  1  0  0  0  0 
 46 47  2  0  0  0  0 
 47 48  1  0  0  0  0 
 44 48  2  0  0  0  0 
 45 43  2  0  0  0  0 
 43 46  1  0  0  0  0 
 54 55  1  0  0  0  0 
 55 50  1  0  0  0  0 
 50 51  1  0  0  0  0 
 51 52  1  0  0  0  0 
 53 52  1  0  0  0  0 
 53  4  1  0  0  0  0 
 53 49  1  0  0  0  0 
 49 56  2  0  0  0  0 
 66  5  1  0  0  0  0 
 66 63  1  0  0  0  0 
 63 59  1  0  0  0  0 
 59 60  2  0  0  0  0 
 60 61  1  0  0  0  0 
 61 62  2  0  0  0  0 
 62 58  1  0  0  0  0 
 62 64  1  0  0  0  0 
 64 65  2  0  0  0  0 
 59 65  1  0  0  0  0 
 66 57  1  0  0  0  0 
 57 67  2  0  0  0  0 
 76  6  1  0  0  0  0 
 76 69  1  0  0  0  0 
 69 70  1  0  0  0  0 
 70 71  2  0  0  0  0 
 71 72  1  0  0  0  0 
 72 73  2  0  0  0  0 
 73 74  1  0  0  0  0 
 74 75  2  0  0  0  0 
 70 75  1  0  0  0  0 
 76 68  1  0  0  0  0 
 68 77  2  0  0  0  0 
 78  2  1  0  0  0  0 
 79  3  1  0  0  0  0 
 80  4  1  0  0  0  0 
 81  5  1  0  0  0  0 
 82  6  1  0  0  0  0 
 83  7  1  0  0  0  0 
 10 84  1  0  0  0  0 
 85 11  1  0  0  0  0 
 86 11  1  0  0  0  0 
 87 13  1  0  0  0  0 
 88 14  1  0  0  0  0 
 89 17  1  0  0  0  0 
 90 18  1  0  0  0  0 
 91 19  1  0  0  0  0 
 92 20  1  0  0  0  0 
 24 93  1  0  0  0  0 
 94 25  1  0  0  0  0 
 95 25  1  0  0  0  0 
 26 96  1  0  0  0  0 
 97 27  1  0  0  0  0 
 98 27  1  0  0  0  0 
 99 32  1  0  0  0  0 
100 33  1  0  0  0  0 
101 33  1  0  0  0  0 
102 34  1  0  0  0  0 
103 34  1  0  0  0  0 
104 35  1  0  0  0  0 
105 35  1  0  0  0  0 
106 37  1  0  0  0  0 
107 38  1  0  0  0  0 
108 39  1  0  0  0  0 
109 40  1  0  0  0  0 
110 41  1  0  0  0  0 
111 42  1  0  0  0  0 
112 42  1  0  0  0  0 
113 44  1  0  0  0  0 
114 45  1  0  0  0  0 
115 46  1  0  0  0  0 
116 47  1  0  0  0  0 
117 48  1  0  0  0  0 
118 50  1  0  0  0  0 
119 50  1  0  0  0  0 
120 51  1  0  0  0  0 
121 51  1  0  0  0  0 
122 52  1  0  0  0  0 
123 52  1  0  0  0  0 
 53124  1  0  0  0  0 
125 54  1  0  0  0  0 
126 54  1  0  0  0  0 
127 55  1  0  0  0  0 
128 55  1  0  0  0  0 
129 60  1  0  0  0  0 
130 61  1  0  0  0  0 
131 63  1  0  0  0  0 
132 63  1  0  0  0  0 
133 64  1  0  0  0  0 
134 65  1  0  0  0  0 
 66135  1  0  0  0  0 
136 69  1  0  0  0  0 
137 69  1  0  0  0  0 
138 71  1  0  0  0  0 
139 72  1  0  0  0  0 
140 73  1  0  0  0  0 
141 74  1  0  0  0  0 
142 75  1  0  0  0  0 
 76143  1  0  0  0  0 
M  END
> <cdk:Title>
pasireotide

> <Conformer>
1

> <SuperDrugID>
SD003502

$$$$
