bromisoval
  CDK     0628171801

 22 21  0  0  0  0  0  0  0  0999 V2000
   -1.9199   -1.0149    0.3817 C   0  0  0  0  0  0  0  0  0  0  0  0
   -2.6746   -2.2893    0.2738 C   0  0  1  0  0  0  0  0  0  0  0  0
   -0.5573   -1.0190    0.3027 N   0  0  0  0  0  0  0  0  0  0  0  0
   -2.5671    0.0473    0.5383 O   0  0  0  0  0  0  0  0  0  0  0  0
   -2.4499   -3.0502   -1.0772 C   0  0  2  0  0  0  0  0  0  0  0  0
   -2.1605   -3.3600    1.8018 Br  0  0  0  0  0  0  0  0  0  0  0  0
    0.2758    0.0506    0.4063 C   0  0  0  0  0  0  0  0  0  0  0  0
   -2.7618   -2.1560   -2.3120 C   0  0  0  0  0  0  0  0  0  0  0  0
   -3.2805   -4.3652   -1.1665 C   0  0  0  0  0  0  0  0  0  0  0  0
    1.5989   -0.1463    0.2831 N   0  0  0  0  0  0  0  0  0  0  0  0
   -0.1198    1.2215    0.6144 O   0  0  0  0  0  0  0  0  0  0  0  0
   -3.7469   -2.0833    0.3765 H   0  0  0  0  0  0  0  0  0  0  0  0
   -0.1342   -1.8805    0.1583 H   0  0  0  0  0  0  0  0  0  0  0  0
   -1.3959   -3.3347   -1.1373 H   0  0  0  0  0  0  0  0  0  0  0  0
   -2.1257   -1.2688   -2.3177 H   0  0  0  0  0  0  0  0  0  0  0  0
   -2.5715   -2.7019   -3.2393 H   0  0  0  0  0  0  0  0  0  0  0  0
   -3.8067   -1.8353   -2.3020 H   0  0  0  0  0  0  0  0  0  0  0  0
   -3.0148   -5.0493   -0.3592 H   0  0  0  0  0  0  0  0  0  0  0  0
   -3.0789   -4.8785   -2.1108 H   0  0  0  0  0  0  0  0  0  0  0  0
   -4.3515   -4.1544   -1.1079 H   0  0  0  0  0  0  0  0  0  0  0  0
    1.9499   -1.0364    0.1183 H   0  0  0  0  0  0  0  0  0  0  0  0
    2.2105    0.6053    0.3570 H   0  0  0  0  0  0  0  0  0  0  0  0
  2  1  1  0  0  0  0 
  1  3  1  0  0  0  0 
  1  4  2  0  0  0  0 
  2  5  1  0  0  0  0 
  2  6  1  0  0  0  0 
  3  7  1  0  0  0  0 
  5  8  1  0  0  0  0 
  5  9  1  0  0  0  0 
  7 10  1  0  0  0  0 
  7 11  2  0  0  0  0 
  2 12  1  0  0  0  0 
  3 13  1  0  0  0  0 
  5 14  1  0  0  0  0 
  8 15  1  0  0  0  0 
  8 16  1  0  0  0  0 
  8 17  1  0  0  0  0 
  9 18  1  0  0  0  0 
  9 19  1  0  0  0  0 
  9 20  1  0  0  0  0 
 10 21  1  0  0  0  0 
 10 22  1  0  0  0  0 
M  END
> <cdk:Title>
bromisoval

> <Conformer>
1

> <SuperDrugID>
SD002639

$$$$
