mupirocin
  CDK     0628171801

 79 80  0  0  0  0  0  0  0  0999 V2000
   13.2676   -6.0086    1.2111 O   0  0  0  0  0  0  0  0  0  0  0  0
   12.7352   -7.2188    1.7497 C   0  0  2  0  0  0  0  0  0  0  0  0
   11.4114   -7.6337    1.0256 C   0  0  1  0  0  0  0  0  0  0  0  0
   12.6130   -7.0644    3.2863 C   0  0  0  0  0  0  0  0  0  0  0  0
   10.2902   -6.5701    1.1783 C   0  0  2  0  0  0  0  0  0  0  0  0
    9.6058   -6.6115    2.4377 O   0  0  0  0  0  0  0  0  0  0  0  0
    8.8321   -6.9858    1.2879 C   0  0  1  0  0  0  0  0  0  0  0  0
   11.6461   -7.9053   -0.4855 C   0  0  0  0  0  0  0  0  0  0  0  0
   10.4848   -5.5527    0.8328 H   0  0  0  0  0  0  0  0  0  0  0  0
    8.6090   -8.0539    1.2553 H   0  0  0  0  0  0  0  0  0  0  0  0
    7.7217   -5.9773    0.9041 C   0  0  1  0  0  0  0  0  0  0  0  0
    6.4518   -6.0308    1.8140 C   0  0  1  0  0  0  0  0  0  0  0  0
    5.6508   -5.6298    4.1765 O   0  0  0  0  0  0  0  0  0  0  0  0
    6.7979   -5.8291    3.3237 C   0  0  1  0  0  0  0  0  0  0  0  0
    5.3942   -4.9792    1.3435 C   0  0  2  0  0  0  0  0  0  0  0  0
    4.2367   -4.8037    2.3651 C   0  0  2  0  0  0  0  0  0  0  0  0
    4.7698   -4.5478    3.8072 C   0  0  2  0  0  0  0  0  0  0  0  0
    5.3849   -3.1284    4.0533 C   0  0  2  0  0  0  0  0  0  0  0  0
    4.8601   -5.3596    0.0728 O   0  0  0  0  0  0  0  0  0  0  0  0
    3.4285   -5.9828    2.3730 O   0  0  0  0  0  0  0  0  0  0  0  0
    5.8652   -2.9314    5.4378 C   0  0  0  0  0  0  0  0  0  0  0  0
    4.9567   -2.7064    6.4185 C   0  0  0  0  0  0  0  0  0  0  0  0
    7.3026   -3.0211    5.7090 C   0  0  0  0  0  0  0  0  0  0  0  0
    5.1622   -2.5479    7.7885 C   0  0  0  0  0  0  0  0  0  0  0  0
    6.3813   -2.6856    8.4048 O   0  0  0  0  0  0  0  0  0  0  0  0
    4.1584   -2.2989    8.5012 O   0  0  0  0  0  0  0  0  0  0  0  0
    6.6235   -2.6047    9.8199 C   0  0  1  0  0  0  0  0  0  0  0  0
    8.1011   -2.9003   10.1709 C   0  0  2  0  0  0  0  0  0  0  0  0
    9.1078   -1.7629    9.8448 C   0  0  1  0  0  0  0  0  0  0  0  0
   10.5699   -2.2118   10.1292 C   0  0  1  0  0  0  0  0  0  0  0  0
   11.6049   -1.0570   10.1574 C   0  0  1  0  0  0  0  0  0  0  0  0
   13.0409   -1.5952   10.4082 C   0  0  2  0  0  0  0  0  0  0  0  0
   14.1388   -0.4984   10.3833 C   0  0  2  0  0  0  0  0  0  0  0  0
   15.5601   -1.0837   10.6313 C   0  0  1  0  0  0  0  0  0  0  0  0
   16.5957    0.0253   10.5844 C   0  0  0  0  0  0  0  0  0  0  0  0
   17.6029   -0.0380    9.6823 O   0  0  0  0  0  0  0  0  0  0  0  0
   16.5507    0.9927   11.3786 O   0  0  0  0  0  0  0  0  0  0  0  0
   12.6020   -5.3207    1.4226 H   0  0  0  0  0  0  0  0  0  0  0  0
   13.4781   -8.0004    1.5704 H   0  0  0  0  0  0  0  0  0  0  0  0
   11.0735   -8.5763    1.4685 H   0  0  0  0  0  0  0  0  0  0  0  0
   13.5993   -6.8932    3.7201 H   0  0  0  0  0  0  0  0  0  0  0  0
   12.1943   -7.9673    3.7338 H   0  0  0  0  0  0  0  0  0  0  0  0
   11.9809   -6.2142    3.5437 H   0  0  0  0  0  0  0  0  0  0  0  0
   10.7239   -8.2512   -0.9578 H   0  0  0  0  0  0  0  0  0  0  0  0
   11.9785   -6.9998   -0.9980 H   0  0  0  0  0  0  0  0  0  0  0  0
   12.4041   -8.6795   -0.6202 H   0  0  0  0  0  0  0  0  0  0  0  0
    8.1268   -4.9620    0.9183 H   0  0  0  0  0  0  0  0  0  0  0  0
    7.4346   -6.1966   -0.1264 H   0  0  0  0  0  0  0  0  0  0  0  0
    6.0052   -7.0255    1.7102 H   0  0  0  0  0  0  0  0  0  0  0  0
    7.2944   -6.7257    3.6991 H   0  0  0  0  0  0  0  0  0  0  0  0
    7.4956   -4.9992    3.4437 H   0  0  0  0  0  0  0  0  0  0  0  0
    5.8776   -4.0095    1.2032 H   0  0  0  0  0  0  0  0  0  0  0  0
    3.5949   -3.9757    2.0530 H   0  0  0  0  0  0  0  0  0  0  0  0
    3.9046   -4.6302    4.4719 H   0  0  0  0  0  0  0  0  0  0  0  0
    4.6247   -2.3751    3.8231 H   0  0  0  0  0  0  0  0  0  0  0  0
    6.1873   -2.9519    3.3347 H   0  0  0  0  0  0  0  0  0  0  0  0
    4.2533   -4.6330   -0.1815 H   0  0  0  0  0  0  0  0  0  0  0  0
    4.0286   -6.7041    2.6612 H   0  0  0  0  0  0  0  0  0  0  0  0
    4.0027   -2.6505    6.1326 H   0  0  0  0  0  0  0  0  0  0  0  0
    7.9076   -3.0892    4.8047 H   0  0  0  0  0  0  0  0  0  0  0  0
    7.6435   -2.1307    6.2408 H   0  0  0  0  0  0  0  0  0  0  0  0
    7.5132   -3.9057    6.3121 H   0  0  0  0  0  0  0  0  0  0  0  0
    6.3274   -1.6254   10.2038 H   0  0  0  0  0  0  0  0  0  0  0  0
    6.0040   -3.3612   10.3124 H   0  0  0  0  0  0  0  0  0  0  0  0
    8.4008   -3.8106    9.6465 H   0  0  0  0  0  0  0  0  0  0  0  0
    8.1512   -3.1021   11.2455 H   0  0  0  0  0  0  0  0  0  0  0  0
    9.0162   -1.4785    8.7927 H   0  0  0  0  0  0  0  0  0  0  0  0
    8.8623   -0.8896   10.4563 H   0  0  0  0  0  0  0  0  0  0  0  0
   10.6102   -2.7233   11.0952 H   0  0  0  0  0  0  0  0  0  0  0  0
   10.8577   -2.9343    9.3580 H   0  0  0  0  0  0  0  0  0  0  0  0
   11.5738   -0.5204    9.2055 H   0  0  0  0  0  0  0  0  0  0  0  0
   11.3452   -0.3576   10.9577 H   0  0  0  0  0  0  0  0  0  0  0  0
   13.2763   -2.3394    9.6419 H   0  0  0  0  0  0  0  0  0  0  0  0
   13.0658   -2.0907   11.3836 H   0  0  0  0  0  0  0  0  0  0  0  0
   13.9070    0.2461   11.1525 H   0  0  0  0  0  0  0  0  0  0  0  0
   14.1244   -0.0025    9.4082 H   0  0  0  0  0  0  0  0  0  0  0  0
   15.5776   -1.4315   11.7109 H   0  0  0  0  0  0  0  0  0  0  0  0
   15.6860   -1.9381    9.8349 H   0  0  0  0  0  0  0  0  0  0  0  0
   18.2782    0.6721    9.6535 H   0  0  0  0  0  0  0  0  0  0  0  0
  1  2  1  0  0  0  0 
  2  3  1  0  0  0  0 
  2  4  1  0  0  0  0 
  3  5  1  0  0  0  0 
  6  5  1  0  0  0  0 
  5  7  1  0  0  0  0 
  7  6  1  0  0  0  0 
  3  8  1  0  0  0  0 
  5  9  1  0  0  0  0 
  7 10  1  0  0  0  0 
  7 11  1  0  0  0  0 
 12 11  1  0  0  0  0 
 14 12  1  0  0  0  0 
 12 15  1  0  0  0  0 
 13 14  1  0  0  0  0 
 15 16  1  0  0  0  0 
 16 17  1  0  0  0  0 
 13 17  1  0  0  0  0 
 17 18  1  0  0  0  0 
 15 19  1  0  0  0  0 
 16 20  1  0  0  0  0 
 18 21  1  0  0  0  0 
 21 22  2  0  0  0  0 
 21 23  1  0  0  0  0 
 22 24  1  0  0  0  0 
 24 25  1  0  0  0  0 
 24 26  2  0  0  0  0 
 25 27  1  0  0  0  0 
 27 28  1  0  0  0  0 
 28 29  1  0  0  0  0 
 29 30  1  0  0  0  0 
 30 31  1  0  0  0  0 
 31 32  1  0  0  0  0 
 32 33  1  0  0  0  0 
 33 34  1  0  0  0  0 
 34 35  1  0  0  0  0 
 35 36  1  0  0  0  0 
 35 37  2  0  0  0  0 
  1 38  1  0  0  0  0 
  2 39  1  0  0  0  0 
  3 40  1  0  0  0  0 
  4 41  1  0  0  0  0 
  4 42  1  0  0  0  0 
  4 43  1  0  0  0  0 
  8 44  1  0  0  0  0 
  8 45  1  0  0  0  0 
  8 46  1  0  0  0  0 
 11 47  1  0  0  0  0 
 11 48  1  0  0  0  0 
 12 49  1  0  0  0  0 
 14 50  1  0  0  0  0 
 14 51  1  0  0  0  0 
 15 52  1  0  0  0  0 
 16 53  1  0  0  0  0 
 17 54  1  0  0  0  0 
 18 55  1  0  0  0  0 
 18 56  1  0  0  0  0 
 19 57  1  0  0  0  0 
 20 58  1  0  0  0  0 
 22 59  1  0  0  0  0 
 23 60  1  0  0  0  0 
 23 61  1  0  0  0  0 
 23 62  1  0  0  0  0 
 27 63  1  0  0  0  0 
 27 64  1  0  0  0  0 
 28 65  1  0  0  0  0 
 28 66  1  0  0  0  0 
 29 67  1  0  0  0  0 
 29 68  1  0  0  0  0 
 30 69  1  0  0  0  0 
 30 70  1  0  0  0  0 
 31 71  1  0  0  0  0 
 31 72  1  0  0  0  0 
 32 73  1  0  0  0  0 
 32 74  1  0  0  0  0 
 33 75  1  0  0  0  0 
 33 76  1  0  0  0  0 
 34 77  1  0  0  0  0 
 34 78  1  0  0  0  0 
 36 79  1  0  0  0  0 
M  END
> <cdk:Title>
mupirocin

> <Conformer>
1

> <SuperDrugID>
SD001653

$$$$
