betanidine
  CDK     0628171801

 28 28  0  0  0  0  0  0  0  0999 V2000
    1.9475    0.2720   -0.2356 C   0  0  0  0  0  0  0  0  0  0  0  0
    0.5588    0.3063   -0.2541 N   0  0  0  0  0  0  0  0  0  0  0  0
   -0.2410    1.2576    0.0898 C   0  0  0  0  0  0  0  0  0  0  0  0
   -1.5636    1.0609    0.0231 N   0  0  0  0  0  0  0  0  0  0  0  0
   -2.2125   -0.1433   -0.3929 C   0  0  2  0  0  0  0  0  0  0  0  0
   -3.6788   -0.0032   -0.2206 C   0  0  0  0  0  0  0  0  0  0  0  0
   -4.3499   -0.6276    0.8571 C   0  0  0  0  0  0  0  0  0  0  0  0
   -5.7419   -0.4915    1.0117 C   0  0  0  0  0  0  0  0  0  0  0  0
   -6.4805    0.2724    0.0907 C   0  0  0  0  0  0  0  0  0  0  0  0
   -5.8264    0.9047   -0.9812 C   0  0  0  0  0  0  0  0  0  0  0  0
   -4.4328    0.7730   -1.1316 C   0  0  0  0  0  0  0  0  0  0  0  0
    0.2454    2.4302    0.5165 N   0  0  0  0  0  0  0  0  0  0  0  0
   -0.5275    3.5482    0.9404 C   0  0  0  0  0  0  0  0  0  0  0  0
    2.2811   -0.6866   -0.6322 H   0  0  0  0  0  0  0  0  0  0  0  0
    2.3095    0.3711    0.7896 H   0  0  0  0  0  0  0  0  0  0  0  0
    2.3657    1.0714   -0.8500 H   0  0  0  0  0  0  0  0  0  0  0  0
   -2.1359    1.7980    0.2900 H   0  0  0  0  0  0  0  0  0  0  0  0
   -1.8286   -0.9806    0.1979 H   0  0  0  0  0  0  0  0  0  0  0  0
   -1.9820   -0.3469   -1.4424 H   0  0  0  0  0  0  0  0  0  0  0  0
   -3.8268   -1.1829    1.5391 H   0  0  0  0  0  0  0  0  0  0  0  0
   -6.2190   -0.9477    1.7930 H   0  0  0  0  0  0  0  0  0  0  0  0
   -7.4916    0.3680    0.2027 H   0  0  0  0  0  0  0  0  0  0  0  0
   -6.3642    1.4584   -1.6514 H   0  0  0  0  0  0  0  0  0  0  0  0
   -3.9699    1.2433   -1.9134 H   0  0  0  0  0  0  0  0  0  0  0  0
    1.2086    2.5330    0.5374 H   0  0  0  0  0  0  0  0  0  0  0  0
    0.1470    4.3483    1.2417 H   0  0  0  0  0  0  0  0  0  0  0  0
   -1.1521    3.9131    0.1238 H   0  0  0  0  0  0  0  0  0  0  0  0
   -1.1562    3.2739    1.7905 H   0  0  0  0  0  0  0  0  0  0  0  0
  2  1  1  0  0  0  0 
  2  3  2  0  0  0  0 
  3  4  1  0  0  0  0 
  4  5  1  0  0  0  0 
  5  6  1  0  0  0  0 
  6  7  2  0  0  0  0 
  7  8  1  0  0  0  0 
  8  9  2  0  0  0  0 
  9 10  1  0  0  0  0 
 10 11  2  0  0  0  0 
  6 11  1  0  0  0  0 
  3 12  1  0  0  0  0 
 12 13  1  0  0  0  0 
 14  1  1  0  0  0  0 
 15  1  1  0  0  0  0 
 16  1  1  0  0  0  0 
 17  4  1  0  0  0  0 
 18  5  1  0  0  0  0 
 19  5  1  0  0  0  0 
 20  7  1  0  0  0  0 
 21  8  1  0  0  0  0 
 22  9  1  0  0  0  0 
 23 10  1  0  0  0  0 
 24 11  1  0  0  0  0 
 25 12  1  0  0  0  0 
 26 13  1  0  0  0  0 
 27 13  1  0  0  0  0 
 28 13  1  0  0  0  0 
M  END
> <cdk:Title>
betanidine

> <Conformer>
1

> <SuperDrugID>
SD000304

$$$$
