doxorubicin
  CDK     0628171802

 68 72  0  0  0  0  0  0  0  0999 V2000
    1.0278   -4.9852   -0.5417 O   0  0  0  0  0  0  0  0  0  0  0  0
    1.3510   -4.9928    0.7805 C   0  0  0  0  0  0  0  0  0  0  0  0
    1.1059   -3.8119    1.5186 C   0  0  0  0  0  0  0  0  0  0  0  0
    1.9108   -6.1501    1.3864 C   0  0  0  0  0  0  0  0  0  0  0  0
    1.5173   -3.7374    2.8765 C   0  0  0  0  0  0  0  0  0  0  0  0
    0.4131   -2.6616    0.8521 C   0  0  1  0  0  0  0  0  0  0  0  0
    2.2537   -6.1150    2.7691 C   0  0  0  0  0  0  0  0  0  0  0  0
    2.1239   -7.3572    0.6420 C   0  0  0  0  0  0  0  0  0  0  0  0
    1.3673   -2.4645    3.6717 C   0  0  1  0  0  0  0  0  0  0  0  0
    2.0433   -4.9045    3.4933 C   0  0  0  0  0  0  0  0  0  0  0  0
   -0.2895   -1.6805    1.8420 C   0  0  2  0  0  0  0  0  0  0  0  0
    2.8031   -7.3010    3.3787 C   0  0  0  0  0  0  0  0  0  0  0  0
    1.7457   -7.4450   -0.5521 O   0  0  0  0  0  0  0  0  0  0  0  0
    2.7383   -8.4990    1.2365 C   0  0  0  0  0  0  0  0  0  0  0  0
    2.6542   -2.1163    4.2540 O   0  0  0  0  0  0  0  0  0  0  0  0
    0.7943   -1.2537    2.8666 C   0  0  1  0  0  0  0  0  0  0  0  0
    2.3348   -4.8263    4.8212 O   0  0  0  0  0  0  0  0  0  0  0  0
   -1.5155   -2.2396    2.5081 C   0  0  0  0  0  0  0  0  0  0  0  0
   -0.7054   -0.5381    1.0876 O   0  0  0  0  0  0  0  0  0  0  0  0
    3.0319   -7.3195    4.6115 O   0  0  0  0  0  0  0  0  0  0  0  0
    3.0857   -8.4841    2.6177 C   0  0  0  0  0  0  0  0  0  0  0  0
    2.9980   -9.6599    0.4639 C   0  0  0  0  0  0  0  0  0  0  0  0
    2.6415   -1.1740    5.3585 C   0  0  1  0  0  0  0  0  0  0  0  0
   -2.3381   -1.4703    3.4740 C   0  0  2  0  0  0  0  0  0  0  0  0
   -1.8857   -3.4132    2.2624 O   0  0  0  0  0  0  0  0  0  0  0  0
    3.6925   -9.6466    3.1844 C   0  0  0  0  0  0  0  0  0  0  0  0
    3.5593  -10.8051    1.0426 C   0  0  0  0  0  0  0  0  0  0  0  0
    3.9343   -1.3137    6.2098 C   0  0  1  0  0  0  0  0  0  0  0  0
    2.4530    0.1920    4.9187 O   0  0  0  0  0  0  0  0  0  0  0  0
   -2.7718   -0.2370    2.9137 O   0  0  0  0  0  0  0  0  0  0  0  0
    4.0826   -9.7241    4.4981 O   0  0  0  0  0  0  0  0  0  0  0  0
    3.8962  -10.7999    2.4004 C   0  0  0  0  0  0  0  0  0  0  0  0
    5.1647   -0.6586    5.5253 C   0  0  2  0  0  0  0  0  0  0  0  0
    3.5508    0.7490    4.1596 C   0  0  2  0  0  0  0  0  0  0  0  0
    5.4793   -9.4310    4.6901 C   0  0  0  0  0  0  0  0  0  0  0  0
    6.3107   -0.6497    6.4488 N   0  0  2  0  0  0  0  0  0  0  0  0
    4.8361    0.7807    5.0384 C   0  0  1  0  0  0  0  0  0  0  0  0
    3.1362    2.1466    3.6407 C   0  0  0  0  0  0  0  0  0  0  0  0
    4.6598    1.6472    6.1622 O   0  0  0  0  0  0  0  0  0  0  0  0
    1.8095   -1.4090    6.0292 H   0  0  0  0  0  0  0  0  0  0  0  0
    1.8841   -4.8907   -1.0097 H   0  0  0  0  0  0  0  0  0  0  0  0
    1.1640   -2.1236    0.2635 H   0  0  0  0  0  0  0  0  0  0  0  0
   -0.3460   -3.0188    0.1483 H   0  0  0  0  0  0  0  0  0  0  0  0
    0.6513   -2.7006    4.4682 H   0  0  0  0  0  0  0  0  0  0  0  0
    0.3786   -0.5126    3.5514 H   0  0  0  0  0  0  0  0  0  0  0  0
    1.6097   -0.7616    2.3279 H   0  0  0  0  0  0  0  0  0  0  0  0
    1.8868   -5.5943    5.2347 H   0  0  0  0  0  0  0  0  0  0  0  0
    0.1077   -0.1682    0.6841 H   0  0  0  0  0  0  0  0  0  0  0  0
    2.7733   -9.6930   -0.5334 H   0  0  0  0  0  0  0  0  0  0  0  0
   -1.7648   -1.2676    4.3795 H   0  0  0  0  0  0  0  0  0  0  0  0
   -3.2276   -2.0339    3.7647 H   0  0  0  0  0  0  0  0  0  0  0  0
    3.7219  -11.6405    0.4756 H   0  0  0  0  0  0  0  0  0  0  0  0
    3.7658   -0.8294    7.1766 H   0  0  0  0  0  0  0  0  0  0  0  0
    4.1362   -2.3728    6.3948 H   0  0  0  0  0  0  0  0  0  0  0  0
   -3.2534    0.2169    3.6370 H   0  0  0  0  0  0  0  0  0  0  0  0
    4.3011  -11.6404    2.8185 H   0  0  0  0  0  0  0  0  0  0  0  0
    5.4535   -1.2653    4.6620 H   0  0  0  0  0  0  0  0  0  0  0  0
    3.7487    0.1298    3.2768 H   0  0  0  0  0  0  0  0  0  0  0  0
    5.7009   -9.5156    5.7534 H   0  0  0  0  0  0  0  0  0  0  0  0
    6.1177  -10.1385    4.1554 H   0  0  0  0  0  0  0  0  0  0  0  0
    5.7178   -8.4140    4.3718 H   0  0  0  0  0  0  0  0  0  0  0  0
    7.1057   -0.2359    5.9556 H   0  0  0  0  0  0  0  0  0  0  0  0
    6.5545   -1.6245    6.6350 H   0  0  0  0  0  0  0  0  0  0  0  0
    5.6752    1.1572    4.4446 H   0  0  0  0  0  0  0  0  0  0  0  0
    2.7990    2.7789    4.4640 H   0  0  0  0  0  0  0  0  0  0  0  0
    2.3189    2.0518    2.9221 H   0  0  0  0  0  0  0  0  0  0  0  0
    3.9782    2.6322    3.1409 H   0  0  0  0  0  0  0  0  0  0  0  0
    4.5061    2.5369    5.7827 H   0  0  0  0  0  0  0  0  0  0  0  0
  1  2  1  0  0  0  0 
  2  3  2  0  0  0  0 
  2  4  1  0  0  0  0 
  3  5  1  0  0  0  0 
  3  6  1  0  0  0  0 
  4  7  2  0  0  0  0 
  4  8  1  0  0  0  0 
  9  5  1  0  0  0  0 
  5 10  2  0  0  0  0 
 11  6  1  0  0  0  0 
  7 10  1  0  0  0  0 
  7 12  1  0  0  0  0 
  8 13  2  0  0  0  0 
  8 14  1  0  0  0  0 
  9 15  1  0  0  0  0 
  9 16  1  0  0  0  0 
 10 17  1  0  0  0  0 
 11 16  1  0  0  0  0 
 11 18  1  0  0  0  0 
 11 19  1  0  0  0  0 
 12 20  2  0  0  0  0 
 12 21  1  0  0  0  0 
 14 21  2  0  0  0  0 
 14 22  1  0  0  0  0 
 23 15  1  0  0  0  0 
 18 24  1  0  0  0  0 
 18 25  2  0  0  0  0 
 21 26  1  0  0  0  0 
 22 27  2  0  0  0  0 
 23 28  1  0  0  0  0 
 23 29  1  0  0  0  0 
 23 40  1  0  0  0  0 
 24 30  1  0  0  0  0 
 26 31  1  0  0  0  0 
 26 32  2  0  0  0  0 
 27 32  1  0  0  0  0 
 33 28  1  0  0  0  0 
 34 29  1  0  0  0  0 
 31 35  1  0  0  0  0 
 33 36  1  0  0  0  0 
 37 33  1  0  0  0  0 
 37 34  1  0  0  0  0 
 34 38  1  0  0  0  0 
 37 39  1  0  0  0  0 
  1 41  1  0  0  0  0 
  6 42  1  0  0  0  0 
  6 43  1  0  0  0  0 
  9 44  1  0  0  0  0 
 16 45  1  0  0  0  0 
 16 46  1  0  0  0  0 
 17 47  1  0  0  0  0 
 19 48  1  0  0  0  0 
 22 49  1  0  0  0  0 
 24 50  1  0  0  0  0 
 24 51  1  0  0  0  0 
 27 52  1  0  0  0  0 
 28 53  1  0  0  0  0 
 28 54  1  0  0  0  0 
 30 55  1  0  0  0  0 
 32 56  1  0  0  0  0 
 33 57  1  0  0  0  0 
 34 58  1  0  0  0  0 
 35 59  1  0  0  0  0 
 35 60  1  0  0  0  0 
 35 61  1  0  0  0  0 
 36 62  1  0  0  0  0 
 36 63  1  0  0  0  0 
 37 64  1  0  0  0  0 
 38 65  1  0  0  0  0 
 38 66  1  0  0  0  0 
 38 67  1  0  0  0  0 
 39 68  1  0  0  0  0 
M  END
> <cdk:Title>
doxorubicin

> <Conformer>
1

> <SuperDrugID>
SD000852

$$$$
