buspirone
  CDK     0628171801

 59 62  0  0  0  0  0  0  0  0999 V2000
   -3.3669    0.7879    1.2077 O   0  0  0  0  0  0  0  0  0  0  0  0
   -2.5419    1.5843    0.6993 C   0  0  0  0  0  0  0  0  0  0  0  0
   -2.9127    3.0210    0.7125 C   0  0  2  0  0  0  0  0  0  0  0  0
   -1.3517    1.1568    0.1244 N   0  0  0  0  0  0  0  0  0  0  0  0
   -1.6723    3.9003    1.0734 C   0  0  2  0  0  0  0  0  0  0  0  0
   -1.1056   -0.2599   -0.1257 C   0  0  2  0  0  0  0  0  0  0  0  0
   -0.4061    2.1054   -0.2529 C   0  0  0  0  0  0  0  0  0  0  0  0
   -0.5487    3.5577    0.0331 C   0  0  1  0  0  0  0  0  0  0  0  0
   -1.2176    3.6706    2.5615 C   0  0  1  0  0  0  0  0  0  0  0  0
   -2.0371    5.4226    1.0130 C   0  0  1  0  0  0  0  0  0  0  0  0
    0.1339   -0.8732    0.5892 C   0  0  2  0  0  0  0  0  0  0  0  0
    0.6194    1.7931   -0.9052 O   0  0  0  0  0  0  0  0  0  0  0  0
   -1.1396    5.0557    3.2320 C   0  0  1  0  0  0  0  0  0  0  0  0
   -2.1774    5.8928    2.4700 C   0  0  2  0  0  0  0  0  0  0  0  0
    0.1431   -0.7273    2.1341 C   0  0  2  0  0  0  0  0  0  0  0  0
   -0.9391   -1.5764    2.8552 C   0  0  2  0  0  0  0  0  0  0  0  0
   -0.6639   -1.8118    4.3074 N   0  0  1  0  0  0  0  0  0  0  0  0
   -0.6071   -0.5753    5.1510 C   0  0  1  0  0  0  0  0  0  0  0  0
   -1.5713   -2.8498    4.8975 C   0  0  1  0  0  0  0  0  0  0  0  0
   -0.1994   -0.9377    6.6005 C   0  0  1  0  0  0  0  0  0  0  0  0
   -1.1875   -3.1605    6.3644 C   0  0  2  0  0  0  0  0  0  0  0  0
   -1.1288   -1.9228    7.1194 N   0  0  0  0  0  0  0  0  0  0  0  0
   -1.9475   -1.6755    8.2091 C   0  0  0  0  0  0  0  0  0  0  0  0
   -1.9837   -0.4540    8.8161 N   0  0  0  0  0  0  0  0  0  0  0  0
   -2.7781   -2.6373    8.7067 N   0  0  0  0  0  0  0  0  0  0  0  0
   -2.8084   -0.1655    9.8542 C   0  0  0  0  0  0  0  0  0  0  0  0
   -3.6283   -2.4209    9.7398 C   0  0  0  0  0  0  0  0  0  0  0  0
   -3.6754   -1.1546   10.3437 C   0  0  0  0  0  0  0  0  0  0  0  0
   -3.7406    3.2133    1.4032 H   0  0  0  0  0  0  0  0  0  0  0  0
   -3.2639    3.2741   -0.2933 H   0  0  0  0  0  0  0  0  0  0  0  0
   -0.9772   -0.3886   -1.2037 H   0  0  0  0  0  0  0  0  0  0  0  0
   -1.9672   -0.8783    0.1358 H   0  0  0  0  0  0  0  0  0  0  0  0
   -0.7732    4.0447   -0.9211 H   0  0  0  0  0  0  0  0  0  0  0  0
    0.4061    3.9604    0.3852 H   0  0  0  0  0  0  0  0  0  0  0  0
   -1.9450    3.0690    3.1174 H   0  0  0  0  0  0  0  0  0  0  0  0
   -0.2540    3.1587    2.6335 H   0  0  0  0  0  0  0  0  0  0  0  0
   -1.2407    6.0070    0.5394 H   0  0  0  0  0  0  0  0  0  0  0  0
   -2.9610    5.6209    0.4593 H   0  0  0  0  0  0  0  0  0  0  0  0
    1.0456   -0.4154    0.1983 H   0  0  0  0  0  0  0  0  0  0  0  0
    0.1910   -1.9353    0.3324 H   0  0  0  0  0  0  0  0  0  0  0  0
   -1.3715    5.0063    4.3006 H   0  0  0  0  0  0  0  0  0  0  0  0
   -0.1391    5.4815    3.1051 H   0  0  0  0  0  0  0  0  0  0  0  0
   -3.1846    5.6734    2.8373 H   0  0  0  0  0  0  0  0  0  0  0  0
   -1.9850    6.9650    2.5665 H   0  0  0  0  0  0  0  0  0  0  0  0
    0.0265    0.3284    2.3921 H   0  0  0  0  0  0  0  0  0  0  0  0
    1.1252   -1.0467    2.4922 H   0  0  0  0  0  0  0  0  0  0  0  0
   -0.9708   -2.5477    2.3567 H   0  0  0  0  0  0  0  0  0  0  0  0
   -1.9181   -1.1100    2.7241 H   0  0  0  0  0  0  0  0  0  0  0  0
    0.1343    0.1271    4.7640 H   0  0  0  0  0  0  0  0  0  0  0  0
   -1.5818   -0.0747    5.1611 H   0  0  0  0  0  0  0  0  0  0  0  0
   -2.6108   -2.5054    4.8635 H   0  0  0  0  0  0  0  0  0  0  0  0
   -1.5018   -3.7816    4.3286 H   0  0  0  0  0  0  0  0  0  0  0  0
    0.8125   -1.3575    6.6016 H   0  0  0  0  0  0  0  0  0  0  0  0
   -0.1574   -0.0185    7.1875 H   0  0  0  0  0  0  0  0  0  0  0  0
   -0.2101   -3.6518    6.3880 H   0  0  0  0  0  0  0  0  0  0  0  0
   -1.9107   -3.8814    6.7521 H   0  0  0  0  0  0  0  0  0  0  0  0
   -2.7970    0.7675   10.2686 H   0  0  0  0  0  0  0  0  0  0  0  0
   -4.2300   -3.1773   10.0666 H   0  0  0  0  0  0  0  0  0  0  0  0
   -4.3178   -0.9611   11.1143 H   0  0  0  0  0  0  0  0  0  0  0  0
  1  2  2  0  0  0  0 
  2  3  1  0  0  0  0 
  2  4  1  0  0  0  0 
  3  5  1  0  0  0  0 
  4  6  1  0  0  0  0 
  4  7  1  0  0  0  0 
  5  8  1  0  0  0  0 
  5  9  1  0  0  0  0 
  5 10  1  0  0  0  0 
  6 11  1  0  0  0  0 
  7  8  1  0  0  0  0 
  7 12  2  0  0  0  0 
  9 13  1  0  0  0  0 
 10 14  1  0  0  0  0 
 11 15  1  0  0  0  0 
 13 14  1  0  0  0  0 
 15 16  1  0  0  0  0 
 16 17  1  0  0  0  0 
 17 18  1  0  0  0  0 
 17 19  1  0  0  0  0 
 18 20  1  0  0  0  0 
 19 21  1  0  0  0  0 
 20 22  1  0  0  0  0 
 21 22  1  0  0  0  0 
 22 23  1  0  0  0  0 
 23 24  2  0  0  0  0 
 23 25  1  0  0  0  0 
 24 26  1  0  0  0  0 
 25 27  2  0  0  0  0 
 26 28  2  0  0  0  0 
 27 28  1  0  0  0  0 
  3 29  1  0  0  0  0 
  3 30  1  0  0  0  0 
  6 31  1  0  0  0  0 
  6 32  1  0  0  0  0 
  8 33  1  0  0  0  0 
  8 34  1  0  0  0  0 
  9 35  1  0  0  0  0 
  9 36  1  0  0  0  0 
 10 37  1  0  0  0  0 
 10 38  1  0  0  0  0 
 11 39  1  0  0  0  0 
 11 40  1  0  0  0  0 
 13 41  1  0  0  0  0 
 13 42  1  0  0  0  0 
 14 43  1  0  0  0  0 
 14 44  1  0  0  0  0 
 15 45  1  0  0  0  0 
 15 46  1  0  0  0  0 
 16 47  1  0  0  0  0 
 16 48  1  0  0  0  0 
 18 49  1  0  0  0  0 
 18 50  1  0  0  0  0 
 19 51  1  0  0  0  0 
 19 52  1  0  0  0  0 
 20 53  1  0  0  0  0 
 20 54  1  0  0  0  0 
 21 55  1  0  0  0  0 
 21 56  1  0  0  0  0 
 26 57  1  0  0  0  0 
 27 58  1  0  0  0  0 
 28 59  1  0  0  0  0 
M  END
> <cdk:Title>
buspirone

> <Conformer>
1

> <SuperDrugID>
SD000379

$$$$
