propicillin
  CDK     0628171801

 48 50  0  0  0  0  0  0  0  0999 V2000
   -4.5359   -4.3538    4.7990 C   0  0  0  0  0  0  0  0  0  0  0  0
   -5.4531   -4.2347    5.7883 O   0  0  0  0  0  0  0  0  0  0  0  0
   -4.6402   -5.3198    4.0081 O   0  0  0  0  0  0  0  0  0  0  0  0
   -3.4500   -3.3525    4.6772 C   0  0  2  0  0  0  0  0  0  0  0  0
   -3.4554   -2.8001    3.3669 N   0  0  0  0  0  0  0  0  0  0  0  0
   -1.9587   -3.8554    4.8261 C   0  0  2  0  0  0  0  0  0  0  0  0
   -2.8098   -3.3387    2.2354 C   0  0  2  0  0  0  0  0  0  0  0  0
   -3.6627   -1.5894    2.8575 C   0  0  0  0  0  0  0  0  0  0  0  0
   -1.7864   -5.2419    5.5141 C   0  0  0  0  0  0  0  0  0  0  0  0
   -1.0839   -2.8005    5.5720 C   0  0  0  0  0  0  0  0  0  0  0  0
   -1.3283   -3.9549    3.0971 S   0  0  0  0  0  0  0  0  0  0  0  0
   -2.9390   -1.9056    1.6274 C   0  0  1  0  0  0  0  0  0  0  0  0
   -4.1511   -0.5337    3.3154 O   0  0  0  0  0  0  0  0  0  0  0  0
   -1.7165   -1.1777    1.5379 N   0  0  0  0  0  0  0  0  0  0  0  0
   -1.3264   -0.3727    0.5137 C   0  0  0  0  0  0  0  0  0  0  0  0
   -0.0483    0.3628    0.6472 C   0  0  2  0  0  0  0  0  0  0  0  0
   -2.0272   -0.2268   -0.5156 O   0  0  0  0  0  0  0  0  0  0  0  0
    0.9491   -0.6876    0.6525 O   0  0  0  0  0  0  0  0  0  0  0  0
   -0.1143    1.2977    1.9070 C   0  0  1  0  0  0  0  0  0  0  0  0
    2.2244   -0.3347    0.9857 C   0  0  0  0  0  0  0  0  0  0  0  0
    0.8136    2.5352    1.8559 C   0  0  0  0  0  0  0  0  0  0  0  0
    2.6763   -0.6583    2.2797 C   0  0  0  0  0  0  0  0  0  0  0  0
    3.0876    0.3249    0.0845 C   0  0  0  0  0  0  0  0  0  0  0  0
    3.9656   -0.2820    2.6935 C   0  0  0  0  0  0  0  0  0  0  0  0
    4.3822    0.6960    0.4987 C   0  0  0  0  0  0  0  0  0  0  0  0
    4.8190    0.3941    1.8026 C   0  0  0  0  0  0  0  0  0  0  0  0
   -3.4046   -4.1148    1.7454 H   0  0  0  0  0  0  0  0  0  0  0  0
   -6.1729   -4.8933    5.8766 H   0  0  0  0  0  0  0  0  0  0  0  0
   -3.6577   -2.5603    5.4027 H   0  0  0  0  0  0  0  0  0  0  0  0
   -2.2626   -6.0288    4.9289 H   0  0  0  0  0  0  0  0  0  0  0  0
   -2.2380   -5.2236    6.5083 H   0  0  0  0  0  0  0  0  0  0  0  0
   -0.7301   -5.5033    5.6182 H   0  0  0  0  0  0  0  0  0  0  0  0
   -1.1638   -1.8198    5.0964 H   0  0  0  0  0  0  0  0  0  0  0  0
   -1.4038   -2.7032    6.6130 H   0  0  0  0  0  0  0  0  0  0  0  0
   -0.0309   -3.0928    5.5687 H   0  0  0  0  0  0  0  0  0  0  0  0
   -3.5878   -1.8668    0.7482 H   0  0  0  0  0  0  0  0  0  0  0  0
   -1.1134   -1.2442    2.2944 H   0  0  0  0  0  0  0  0  0  0  0  0
    0.1049    0.9751   -0.2488 H   0  0  0  0  0  0  0  0  0  0  0  0
   -1.1309    1.6877    2.0310 H   0  0  0  0  0  0  0  0  0  0  0  0
    0.1168    0.7186    2.8051 H   0  0  0  0  0  0  0  0  0  0  0  0
    1.8624    2.2490    1.8380 H   0  0  0  0  0  0  0  0  0  0  0  0
    0.5962    3.1349    0.9700 H   0  0  0  0  0  0  0  0  0  0  0  0
    0.6484    3.1512    2.7416 H   0  0  0  0  0  0  0  0  0  0  0  0
    2.0610   -1.1592    2.9252 H   0  0  0  0  0  0  0  0  0  0  0  0
    2.7745    0.5426   -0.8638 H   0  0  0  0  0  0  0  0  0  0  0  0
    4.2793   -0.4997    3.6414 H   0  0  0  0  0  0  0  0  0  0  0  0
    5.0050    1.1873   -0.1461 H   0  0  0  0  0  0  0  0  0  0  0  0
    5.7579    0.6639    2.1028 H   0  0  0  0  0  0  0  0  0  0  0  0
  1  2  1  0  0  0  0 
  1  3  2  0  0  0  0 
  4  1  1  0  0  0  0 
  4  5  1  0  0  0  0 
  4  6  1  0  0  0  0 
  7  5  1  0  0  0  0 
  5  8  1  0  0  0  0 
  6  9  1  0  0  0  0 
  6 10  1  0  0  0  0 
  6 11  1  0  0  0  0 
  7 11  1  0  0  0  0 
 12  7  1  0  0  0  0 
  7 27  1  0  0  0  0 
 12  8  1  0  0  0  0 
  8 13  2  0  0  0  0 
 12 14  1  0  0  0  0 
 14 15  1  0  0  0  0 
 15 16  1  0  0  0  0 
 15 17  2  0  0  0  0 
 16 18  1  0  0  0  0 
 16 19  1  0  0  0  0 
 18 20  1  0  0  0  0 
 19 21  1  0  0  0  0 
 20 22  2  0  0  0  0 
 20 23  1  0  0  0  0 
 22 24  1  0  0  0  0 
 23 25  2  0  0  0  0 
 24 26  2  0  0  0  0 
 25 26  1  0  0  0  0 
  2 28  1  0  0  0  0 
  4 29  1  0  0  0  0 
  9 30  1  0  0  0  0 
  9 31  1  0  0  0  0 
  9 32  1  0  0  0  0 
 10 33  1  0  0  0  0 
 10 34  1  0  0  0  0 
 10 35  1  0  0  0  0 
 12 36  1  0  0  0  0 
 14 37  1  0  0  0  0 
 16 38  1  0  0  0  0 
 19 39  1  0  0  0  0 
 19 40  1  0  0  0  0 
 21 41  1  0  0  0  0 
 21 42  1  0  0  0  0 
 21 43  1  0  0  0  0 
 22 44  1  0  0  0  0 
 23 45  1  0  0  0  0 
 24 46  1  0  0  0  0 
 25 47  1  0  0  0  0 
 26 48  1  0  0  0  0 
M  END
> <cdk:Title>
propicillin

> <Conformer>
1

> <SuperDrugID>
SD002062

$$$$
