dimethylthiambutene
  CDK     0628171801

 34 35  0  0  0  0  0  0  0  0999 V2000
   -2.2285   -0.7545   -0.2843 C   0  0  0  0  0  0  0  0  0  0  0  0
   -3.3501   -0.0146   -0.4400 C   0  0  0  0  0  0  0  0  0  0  0  0
   -1.4662   -0.6916    0.8680 C   0  0  0  0  0  0  0  0  0  0  0  0
   -1.7972   -1.6260   -1.2867 C   0  0  0  0  0  0  0  0  0  0  0  0
   -3.8826    0.9977    0.4797 C   0  0  2  0  0  0  0  0  0  0  0  0
   -1.7899   -1.2170    2.1260 C   0  0  0  0  0  0  0  0  0  0  0  0
    0.1253    0.0356    1.0192 S   0  0  0  0  0  0  0  0  0  0  0  0
   -1.0906   -2.8356   -1.1417 C   0  0  0  0  0  0  0  0  0  0  0  0
   -2.0359   -1.4224   -3.0181 S   0  0  0  0  0  0  0  0  0  0  0  0
   -4.9655    0.4288    1.3620 N   0  0  1  0  0  0  0  0  0  0  0  0
   -4.2852    2.2731   -0.3142 C   0  0  0  0  0  0  0  0  0  0  0  0
   -0.8145   -1.0360    3.1226 C   0  0  0  0  0  0  0  0  0  0  0  0
    0.3357   -0.3541    2.7157 C   0  0  0  0  0  0  0  0  0  0  0  0
   -0.7967   -3.5259   -2.3313 C   0  0  0  0  0  0  0  0  0  0  0  0
   -1.2397   -2.9047   -3.4980 C   0  0  0  0  0  0  0  0  0  0  0  0
   -5.2944    1.2417    2.5681 C   0  0  0  0  0  0  0  0  0  0  0  0
   -6.2018   -0.0830    0.6966 C   0  0  0  0  0  0  0  0  0  0  0  0
   -3.8855   -0.1538   -1.2686 H   0  0  0  0  0  0  0  0  0  0  0  0
   -3.0707    1.3300    1.1319 H   0  0  0  0  0  0  0  0  0  0  0  0
   -2.6671   -1.7083    2.3062 H   0  0  0  0  0  0  0  0  0  0  0  0
   -0.8145   -3.2097   -0.2307 H   0  0  0  0  0  0  0  0  0  0  0  0
   -4.6058    3.0611    0.3690 H   0  0  0  0  0  0  0  0  0  0  0  0
   -3.4305    2.6475   -0.8853 H   0  0  0  0  0  0  0  0  0  0  0  0
   -5.0977    2.0618   -1.0127 H   0  0  0  0  0  0  0  0  0  0  0  0
   -0.9380   -1.3839    4.0751 H   0  0  0  0  0  0  0  0  0  0  0  0
    1.1468   -0.1287    3.2936 H   0  0  0  0  0  0  0  0  0  0  0  0
   -0.3037   -4.4210   -2.3437 H   0  0  0  0  0  0  0  0  0  0  0  0
   -1.1264   -3.2464   -4.4526 H   0  0  0  0  0  0  0  0  0  0  0  0
   -5.9454    2.0830    2.3165 H   0  0  0  0  0  0  0  0  0  0  0  0
   -4.3946    1.6257    3.0493 H   0  0  0  0  0  0  0  0  0  0  0  0
   -5.8043    0.6087    3.2960 H   0  0  0  0  0  0  0  0  0  0  0  0
   -6.7497    0.7304    0.2171 H   0  0  0  0  0  0  0  0  0  0  0  0
   -6.8659   -0.5605    1.4215 H   0  0  0  0  0  0  0  0  0  0  0  0
   -5.9560   -0.8401   -0.0464 H   0  0  0  0  0  0  0  0  0  0  0  0
  1  2  2  0  0  0  0 
  1  3  1  0  0  0  0 
  1  4  1  0  0  0  0 
  5  2  1  0  0  0  0 
  3  6  2  0  0  0  0 
  3  7  1  0  0  0  0 
  4  8  2  0  0  0  0 
  4  9  1  0  0  0  0 
  5 10  1  0  0  0  0 
  5 11  1  0  0  0  0 
  6 12  1  0  0  0  0 
  7 13  1  0  0  0  0 
  8 14  1  0  0  0  0 
  9 15  1  0  0  0  0 
 10 16  1  0  0  0  0 
 10 17  1  0  0  0  0 
 12 13  2  0  0  0  0 
 14 15  2  0  0  0  0 
  2 18  1  0  0  0  0 
  5 19  1  0  0  0  0 
  6 20  1  0  0  0  0 
  8 21  1  0  0  0  0 
 11 22  1  0  0  0  0 
 11 23  1  0  0  0  0 
 11 24  1  0  0  0  0 
 12 25  1  0  0  0  0 
 13 26  1  0  0  0  0 
 14 27  1  0  0  0  0 
 15 28  1  0  0  0  0 
 16 29  1  0  0  0  0 
 16 30  1  0  0  0  0 
 16 31  1  0  0  0  0 
 17 32  1  0  0  0  0 
 17 33  1  0  0  0  0 
 17 34  1  0  0  0  0 
M  END
> <cdk:Title>
dimethylthiambutene

> <Conformer>
1

> <SuperDrugID>
SD002732

$$$$
