meloxicam
  CDK     0628171801

 36 38  0  0  0  0  0  0  0  0999 V2000
   -6.4713   -0.5636    1.3329 O   0  0  0  0  0  0  0  0  0  0  0  0
   -6.9295   -0.7165    0.1724 C   0  0  0  0  0  0  0  0  0  0  0  0
   -8.0923   -1.5479    0.0108 C   0  0  0  0  0  0  0  0  0  0  0  0
   -6.2647    0.0312   -0.9539 C   0  0  1  0  0  0  0  0  0  0  0  0
   -8.6139   -1.8734   -1.2686 C   0  0  0  0  0  0  0  0  0  0  0  0
   -8.7680   -2.0893    1.1380 C   0  0  0  0  0  0  0  0  0  0  0  0
   -4.9054    0.5255   -0.5686 C   0  0  0  0  0  0  0  0  0  0  0  0
   -6.1918   -0.7754   -2.2219 N   0  0  1  0  0  0  0  0  0  0  0  0
   -7.8191   -1.2631   -2.7175 S   0  0  1  0  0  0  0  0  0  0  0  0
   -9.7562   -2.6874   -1.4162 C   0  0  0  0  0  0  0  0  0  0  0  0
   -9.9056   -2.9057    0.9958 C   0  0  0  0  0  0  0  0  0  0  0  0
   -3.8965   -0.3748   -0.3694 N   0  0  0  0  0  0  0  0  0  0  0  0
   -4.7105    1.7623   -0.4751 O   0  0  0  0  0  0  0  0  0  0  0  0
   -5.4950   -0.1483   -3.3821 C   0  0  0  0  0  0  0  0  0  0  0  0
   -7.7245   -2.4010   -3.8435 O   0  0  0  0  0  0  0  0  0  0  0  0
   -8.6281    0.0021   -3.2808 O   0  0  0  0  0  0  0  0  0  0  0  0
  -10.4014   -3.2046   -0.2826 C   0  0  0  0  0  0  0  0  0  0  0  0
   -2.5902   -0.0799   -0.1453 C   0  0  0  0  0  0  0  0  0  0  0  0
   -2.0191    1.1345    0.0321 N   0  0  0  0  0  0  0  0  0  0  0  0
   -1.2844   -1.2530   -0.1227 S   0  0  0  0  0  0  0  0  0  0  0  0
   -0.6649    1.1659    0.1459 C   0  0  0  0  0  0  0  0  0  0  0  0
   -0.0054   -0.0665    0.0648 C   0  0  0  0  0  0  0  0  0  0  0  0
    1.4435   -0.3117    0.0727 C   0  0  0  0  0  0  0  0  0  0  0  0
   -6.8997    0.9044   -1.1461 H   0  0  0  0  0  0  0  0  0  0  0  0
   -8.4392   -1.8963    2.0867 H   0  0  0  0  0  0  0  0  0  0  0  0
  -10.1217   -2.9127   -2.3446 H   0  0  0  0  0  0  0  0  0  0  0  0
  -10.3715   -3.2849    1.8234 H   0  0  0  0  0  0  0  0  0  0  0  0
   -4.1220   -1.3162   -0.4346 H   0  0  0  0  0  0  0  0  0  0  0  0
   -5.9509    0.8081   -3.6470 H   0  0  0  0  0  0  0  0  0  0  0  0
   -5.5268   -0.8076   -4.2519 H   0  0  0  0  0  0  0  0  0  0  0  0
   -4.4416    0.0179   -3.1550 H   0  0  0  0  0  0  0  0  0  0  0  0
  -11.2267   -3.8002   -0.3879 H   0  0  0  0  0  0  0  0  0  0  0  0
   -0.1613    2.0466    0.2680 H   0  0  0  0  0  0  0  0  0  0  0  0
    1.9610    0.4612    0.6444 H   0  0  0  0  0  0  0  0  0  0  0  0
    1.6599   -1.2836    0.5171 H   0  0  0  0  0  0  0  0  0  0  0  0
    1.8134   -0.2991   -0.9532 H   0  0  0  0  0  0  0  0  0  0  0  0
  1  2  2  0  0  0  0 
  2  3  1  0  0  0  0 
  2  4  1  0  0  0  0 
  3  5  2  0  0  0  0 
  3  6  1  0  0  0  0 
  4  7  1  0  0  0  0 
  4  8  1  0  0  0  0 
  5  9  1  0  0  0  0 
  5 10  1  0  0  0  0 
  6 11  2  0  0  0  0 
  7 12  1  0  0  0  0 
  7 13  2  0  0  0  0 
  8  9  1  0  0  0  0 
  8 14  1  0  0  0  0 
  9 15  2  0  0  0  0 
  9 16  2  0  0  0  0 
 10 17  2  0  0  0  0 
 11 17  1  0  0  0  0 
 12 18  1  0  0  0  0 
 18 19  2  0  0  0  0 
 18 20  1  0  0  0  0 
 19 21  1  0  0  0  0 
 20 22  1  0  0  0  0 
 21 22  2  0  0  0  0 
 22 23  1  0  0  0  0 
 24  4  1  0  0  0  0 
 25  6  1  0  0  0  0 
 26 10  1  0  0  0  0 
 27 11  1  0  0  0  0 
 28 12  1  0  0  0  0 
 29 14  1  0  0  0  0 
 30 14  1  0  0  0  0 
 31 14  1  0  0  0  0 
 32 17  1  0  0  0  0 
 33 21  1  0  0  0  0 
 34 23  1  0  0  0  0 
 35 23  1  0  0  0  0 
 36 23  1  0  0  0  0 
M  END
> <cdk:Title>
meloxicam

> <Conformer>
1

> <SuperDrugID>
SD001482

$$$$
