pimavanserin
  CDK     0628171802

 65 67  0  0  0  0  0  0  0  0999 V2000
   -0.2147  -11.8867    2.8396 C   0  0  0  0  0  0  0  0  0  0  0  0
   -0.6407  -11.2439    4.0514 C   0  0  0  0  0  0  0  0  0  0  0  0
   -0.5043   -9.8448    4.1188 C   0  0  0  0  0  0  0  0  0  0  0  0
    0.0296   -9.1044    3.0495 C   0  0  0  0  0  0  0  0  0  0  0  0
    0.4648   -9.7389    1.8649 C   0  0  0  0  0  0  0  0  0  0  0  0
    0.3444  -11.1447    1.7346 C   0  0  0  0  0  0  0  0  0  0  0  0
    1.0556   -8.9083    0.7779 C   0  0  1  0  0  0  0  0  0  0  0  0
    2.2252   -8.1007    1.1452 N   0  0  0  0  0  0  0  0  0  0  0  0
    2.1734   -6.7060    0.9718 C   0  0  0  0  0  0  0  0  0  0  0  0
    3.4617   -8.7720    1.5878 C   0  0  1  0  0  0  0  0  0  0  0  0
    5.3770  -10.8951    2.4539 N   0  0  2  0  0  0  0  0  0  0  0  0
    4.8198   -9.9168    3.4438 C   0  0  2  0  0  0  0  0  0  0  0  0
    3.4231   -9.3730    3.0303 C   0  0  2  0  0  0  0  0  0  0  0  0
    4.0020   -9.8436    0.5921 C   0  0  2  0  0  0  0  0  0  0  0  0
    5.3889  -10.3744    1.0483 C   0  0  2  0  0  0  0  0  0  0  0  0
   -1.1621  -11.8413    5.1489 F   0  0  0  0  0  0  0  0  0  0  0  0
    4.8641  -12.2880    2.5938 C   0  0  0  0  0  0  0  0  0  0  0  0
    3.2850   -5.8955    0.9317 N   0  0  0  0  0  0  0  0  0  0  0  0
    1.0706   -6.1284    0.8034 O   0  0  0  0  0  0  0  0  0  0  0  0
    3.3001   -4.4880    0.6544 C   0  0  1  0  0  0  0  0  0  0  0  0
    4.6931   -3.9669    0.5277 C   0  0  0  0  0  0  0  0  0  0  0  0
    6.5223   -2.5168    1.2915 C   0  0  0  0  0  0  0  0  0  0  0  0
    5.2045   -2.9944    1.4201 C   0  0  0  0  0  0  0  0  0  0  0  0
    5.5410   -4.4330   -0.5060 C   0  0  0  0  0  0  0  0  0  0  0  0
    6.8575   -3.9485   -0.6394 C   0  0  0  0  0  0  0  0  0  0  0  0
    7.3572   -2.9841    0.2581 C   0  0  0  0  0  0  0  0  0  0  0  0
    8.6475   -2.5222    0.1540 O   0  0  0  0  0  0  0  0  0  0  0  0
    8.7593   -1.2739   -0.5628 C   0  0  1  0  0  0  0  0  0  0  0  0
   10.2135   -0.7235   -0.5068 C   0  0  2  0  0  0  0  0  0  0  0  0
   10.3035    0.6869   -1.1513 C   0  0  0  0  0  0  0  0  0  0  0  0
   11.2411   -1.6847   -1.1615 C   0  0  0  0  0  0  0  0  0  0  0  0
   -0.3130  -12.9001    2.7558 H   0  0  0  0  0  0  0  0  0  0  0  0
   -0.7876   -9.3512    4.9675 H   0  0  0  0  0  0  0  0  0  0  0  0
    0.1164   -8.0890    3.1486 H   0  0  0  0  0  0  0  0  0  0  0  0
    0.6883  -11.5598    0.8036 H   0  0  0  0  0  0  0  0  0  0  0  0
    1.3474   -9.5257   -0.0726 H   0  0  0  0  0  0  0  0  0  0  0  0
    0.2301   -8.3127    0.3816 H   0  0  0  0  0  0  0  0  0  0  0  0
    4.2618   -8.0331    1.6455 H   0  0  0  0  0  0  0  0  0  0  0  0
    5.5146   -9.0767    3.5274 H   0  0  0  0  0  0  0  0  0  0  0  0
    4.7562  -10.3642    4.4395 H   0  0  0  0  0  0  0  0  0  0  0  0
    2.7226  -10.2050    3.0925 H   0  0  0  0  0  0  0  0  0  0  0  0
    3.1037   -8.6069    3.7424 H   0  0  0  0  0  0  0  0  0  0  0  0
    4.0924   -9.4050   -0.4039 H   0  0  0  0  0  0  0  0  0  0  0  0
    3.3145  -10.6886    0.5289 H   0  0  0  0  0  0  0  0  0  0  0  0
    5.7304  -11.1441    0.3510 H   0  0  0  0  0  0  0  0  0  0  0  0
    6.1169   -9.5597    0.9900 H   0  0  0  0  0  0  0  0  0  0  0  0
    3.8075  -12.3563    2.3288 H   0  0  0  0  0  0  0  0  0  0  0  0
    4.9908  -12.6390    3.6197 H   0  0  0  0  0  0  0  0  0  0  0  0
    5.4318  -12.9608    1.9481 H   0  0  0  0  0  0  0  0  0  0  0  0
    4.1482   -6.3037    1.0680 H   0  0  0  0  0  0  0  0  0  0  0  0
    2.7770   -4.2993   -0.2896 H   0  0  0  0  0  0  0  0  0  0  0  0
    2.7538   -3.9699    1.4492 H   0  0  0  0  0  0  0  0  0  0  0  0
    6.8774   -1.8211    1.9495 H   0  0  0  0  0  0  0  0  0  0  0  0
    4.6217   -2.6209    2.1716 H   0  0  0  0  0  0  0  0  0  0  0  0
    5.2008   -5.1288   -1.1737 H   0  0  0  0  0  0  0  0  0  0  0  0
    7.4532   -4.2982   -1.3921 H   0  0  0  0  0  0  0  0  0  0  0  0
    8.4610   -1.4189   -1.6044 H   0  0  0  0  0  0  0  0  0  0  0  0
    8.0961   -0.5270   -0.1149 H   0  0  0  0  0  0  0  0  0  0  0  0
   10.4881   -0.6171    0.5467 H   0  0  0  0  0  0  0  0  0  0  0  0
    9.6165    1.3777   -0.6600 H   0  0  0  0  0  0  0  0  0  0  0  0
   11.3127    1.0893   -1.0460 H   0  0  0  0  0  0  0  0  0  0  0  0
   10.0547    0.6457   -2.2140 H   0  0  0  0  0  0  0  0  0  0  0  0
   11.2274   -2.6573   -0.6681 H   0  0  0  0  0  0  0  0  0  0  0  0
   12.2495   -1.2756   -1.0699 H   0  0  0  0  0  0  0  0  0  0  0  0
   11.0212   -1.8259   -2.2214 H   0  0  0  0  0  0  0  0  0  0  0  0
  1  2  2  0  0  0  0 
  1  6  1  0  0  0  0 
  2  3  1  0  0  0  0 
  3  4  2  0  0  0  0 
  4  5  1  0  0  0  0 
  5  6  2  0  0  0  0 
  5  7  1  0  0  0  0 
  7  8  1  0  0  0  0 
  8  9  1  0  0  0  0 
  8 10  1  0  0  0  0 
 11 12  1  0  0  0  0 
 12 13  1  0  0  0  0 
 14 15  1  0  0  0  0 
 11 15  1  0  0  0  0 
 13 10  1  0  0  0  0 
 10 14  1  0  0  0  0 
  2 16  1  0  0  0  0 
 11 17  1  0  0  0  0 
  9 18  1  0  0  0  0 
  9 19  2  0  0  0  0 
 18 20  1  0  0  0  0 
 20 21  1  0  0  0  0 
 22 23  1  0  0  0  0 
 24 25  2  0  0  0  0 
 25 26  1  0  0  0  0 
 22 26  2  0  0  0  0 
 23 21  2  0  0  0  0 
 21 24  1  0  0  0  0 
 26 27  1  0  0  0  0 
 27 28  1  0  0  0  0 
 28 29  1  0  0  0  0 
 29 30  1  0  0  0  0 
 29 31  1  0  0  0  0 
 32  1  1  0  0  0  0 
 33  3  1  0  0  0  0 
 34  4  1  0  0  0  0 
 35  6  1  0  0  0  0 
 36  7  1  0  0  0  0 
 37  7  1  0  0  0  0 
 38 10  1  0  0  0  0 
 39 12  1  0  0  0  0 
 40 12  1  0  0  0  0 
 41 13  1  0  0  0  0 
 42 13  1  0  0  0  0 
 43 14  1  0  0  0  0 
 44 14  1  0  0  0  0 
 45 15  1  0  0  0  0 
 46 15  1  0  0  0  0 
 47 17  1  0  0  0  0 
 48 17  1  0  0  0  0 
 49 17  1  0  0  0  0 
 50 18  1  0  0  0  0 
 51 20  1  0  0  0  0 
 52 20  1  0  0  0  0 
 53 22  1  0  0  0  0 
 54 23  1  0  0  0  0 
 55 24  1  0  0  0  0 
 56 25  1  0  0  0  0 
 57 28  1  0  0  0  0 
 58 28  1  0  0  0  0 
 59 29  1  0  0  0  0 
 60 30  1  0  0  0  0 
 61 30  1  0  0  0  0 
 62 30  1  0  0  0  0 
 63 31  1  0  0  0  0 
 64 31  1  0  0  0  0 
 65 31  1  0  0  0  0 
M  END
> <cdk:Title>
pimavanserin

> <Conformer>
1

> <SuperDrugID>
SD003916

$$$$
