tertatolol
  CDK     0628171801

 45 46  0  0  0  0  0  0  0  0999 V2000
    0.8194   -0.1628   -0.7716 O   0  0  0  0  0  0  0  0  0  0  0  0
   -0.3847   -0.5282   -1.4801 C   0  0  2  0  0  0  0  0  0  0  0  0
    0.6133    0.2209    0.5289 C   0  0  0  0  0  0  0  0  0  0  0  0
   -0.0225   -1.1924   -2.8351 C   0  0  2  0  0  0  0  0  0  0  0  0
    0.6887   -0.7100    1.5957 C   0  0  0  0  0  0  0  0  0  0  0  0
    0.3667    1.5815    0.7968 C   0  0  0  0  0  0  0  0  0  0  0  0
    0.8524   -2.4601   -2.6606 C   0  0  2  0  0  0  0  0  0  0  0  0
    0.6635   -0.2544   -3.6633 O   0  0  0  0  0  0  0  0  0  0  0  0
    0.4927   -0.2735    2.9367 C   0  0  0  0  0  0  0  0  0  0  0  0
    1.0504   -2.3898    1.1981 S   0  0  0  0  0  0  0  0  0  0  0  0
    0.1803    2.0211    2.1161 C   0  0  0  0  0  0  0  0  0  0  0  0
    1.1888   -3.0520   -3.9799 N   0  0  1  0  0  0  0  0  0  0  0  0
    0.2391    1.1000    3.1745 C   0  0  0  0  0  0  0  0  0  0  0  0
    0.5076   -1.1920    4.1147 C   0  0  2  0  0  0  0  0  0  0  0  0
    0.7227   -3.3290    2.7194 C   0  0  1  0  0  0  0  0  0  0  0  0
    2.0913   -4.2436   -4.0446 C   0  0  2  0  0  0  0  0  0  0  0  0
    1.2453   -2.5424    3.9346 C   0  0  2  0  0  0  0  0  0  0  0  0
    1.4785   -5.4693   -3.2961 C   0  0  0  0  0  0  0  0  0  0  0  0
    3.5168   -3.9117   -3.4981 C   0  0  0  0  0  0  0  0  0  0  0  0
    2.2089   -4.5868   -5.5623 C   0  0  0  0  0  0  0  0  0  0  0  0
   -0.9855    0.3653   -1.6703 H   0  0  0  0  0  0  0  0  0  0  0  0
   -0.9928   -1.2300   -0.9002 H   0  0  0  0  0  0  0  0  0  0  0  0
   -0.9495   -1.4739   -3.3446 H   0  0  0  0  0  0  0  0  0  0  0  0
    0.3250    2.2566    0.0285 H   0  0  0  0  0  0  0  0  0  0  0  0
    0.3052   -3.1877   -2.0578 H   0  0  0  0  0  0  0  0  0  0  0  0
    1.7681   -2.1845   -2.1357 H   0  0  0  0  0  0  0  0  0  0  0  0
    0.0232    0.4752   -3.7996 H   0  0  0  0  0  0  0  0  0  0  0  0
    0.0033    3.0103    2.3055 H   0  0  0  0  0  0  0  0  0  0  0  0
    0.3060   -3.3176   -4.4227 H   0  0  0  0  0  0  0  0  0  0  0  0
    0.0964    1.4433    4.1291 H   0  0  0  0  0  0  0  0  0  0  0  0
   -0.5311   -1.3932    4.3928 H   0  0  0  0  0  0  0  0  0  0  0  0
    0.9809   -0.6907    4.9650 H   0  0  0  0  0  0  0  0  0  0  0  0
   -0.3513   -3.5045    2.8114 H   0  0  0  0  0  0  0  0  0  0  0  0
    1.2285   -4.2941    2.6485 H   0  0  0  0  0  0  0  0  0  0  0  0
    1.0980   -3.1479    4.8341 H   0  0  0  0  0  0  0  0  0  0  0  0
    2.3185   -2.3632    3.8228 H   0  0  0  0  0  0  0  0  0  0  0  0
    2.0657   -6.3711   -3.4792 H   0  0  0  0  0  0  0  0  0  0  0  0
    1.4545   -5.3012   -2.2185 H   0  0  0  0  0  0  0  0  0  0  0  0
    0.4564   -5.6513   -3.6344 H   0  0  0  0  0  0  0  0  0  0  0  0
    3.9015   -3.0026   -3.9664 H   0  0  0  0  0  0  0  0  0  0  0  0
    4.2142   -4.7262   -3.7062 H   0  0  0  0  0  0  0  0  0  0  0  0
    3.5015   -3.7578   -2.4179 H   0  0  0  0  0  0  0  0  0  0  0  0
    2.6266   -3.7444   -6.1189 H   0  0  0  0  0  0  0  0  0  0  0  0
    1.2285   -4.8178   -5.9851 H   0  0  0  0  0  0  0  0  0  0  0  0
    2.8577   -5.4521   -5.7204 H   0  0  0  0  0  0  0  0  0  0  0  0
  1  2  1  0  0  0  0 
  1  3  1  0  0  0  0 
  4  2  1  0  0  0  0 
  3  5  2  0  0  0  0 
  3  6  1  0  0  0  0 
  4  7  1  0  0  0  0 
  4  8  1  0  0  0  0 
  5  9  1  0  0  0  0 
  5 10  1  0  0  0  0 
  6 11  2  0  0  0  0 
  7 12  1  0  0  0  0 
  9 13  2  0  0  0  0 
  9 14  1  0  0  0  0 
 10 15  1  0  0  0  0 
 11 13  1  0  0  0  0 
 12 16  1  0  0  0  0 
 14 17  1  0  0  0  0 
 15 17  1  0  0  0  0 
 16 18  1  0  0  0  0 
 16 19  1  0  0  0  0 
 16 20  1  0  0  0  0 
  2 21  1  0  0  0  0 
  2 22  1  0  0  0  0 
  4 23  1  0  0  0  0 
  6 24  1  0  0  0  0 
  7 25  1  0  0  0  0 
  7 26  1  0  0  0  0 
  8 27  1  0  0  0  0 
 11 28  1  0  0  0  0 
 12 29  1  0  0  0  0 
 13 30  1  0  0  0  0 
 14 31  1  0  0  0  0 
 14 32  1  0  0  0  0 
 15 33  1  0  0  0  0 
 15 34  1  0  0  0  0 
 17 35  1  0  0  0  0 
 17 36  1  0  0  0  0 
 18 37  1  0  0  0  0 
 18 38  1  0  0  0  0 
 18 39  1  0  0  0  0 
 19 40  1  0  0  0  0 
 19 41  1  0  0  0  0 
 19 42  1  0  0  0  0 
 20 43  1  0  0  0  0 
 20 44  1  0  0  0  0 
 20 45  1  0  0  0  0 
M  END
> <cdk:Title>
tertatolol

> <Conformer>
1

> <SuperDrugID>
SD002344

$$$$
