doconexent
  CDK     0628171801

 56 55  0  0  0  0  0  0  0  0999 V2000
    1.5296   -1.5402    5.2227 C   0  0  0  0  0  0  0  0  0  0  0  0
    1.4198   -0.1359    5.6003 C   0  0  2  0  0  0  0  0  0  0  0  0
    0.6231   -2.2817    4.5591 C   0  0  0  0  0  0  0  0  0  0  0  0
    0.2514    0.2121    6.4013 C   0  0  0  0  0  0  0  0  0  0  0  0
   -0.6610   -1.8319    4.0377 C   0  0  2  0  0  0  0  0  0  0  0  0
   -0.0347   -0.2199    7.6434 C   0  0  0  0  0  0  0  0  0  0  0  0
   -0.9571   -2.3902    2.7223 C   0  0  0  0  0  0  0  0  0  0  0  0
    0.7663   -1.1304    8.4480 C   0  0  1  0  0  0  0  0  0  0  0  0
   -0.3414   -2.0598    1.5712 C   0  0  0  0  0  0  0  0  0  0  0  0
    0.4912   -2.5312    8.1512 C   0  0  0  0  0  0  0  0  0  0  0  0
    0.7482   -1.0974    1.4702 C   0  0  2  0  0  0  0  0  0  0  0  0
    1.3834   -3.5407    8.1536 C   0  0  0  0  0  0  0  0  0  0  0  0
    1.2689   -0.8362    0.0320 C   0  0  2  0  0  0  0  0  0  0  0  0
    2.8011   -3.4645    8.4846 C   0  0  2  0  0  0  0  0  0  0  0  0
    2.3982    0.1179    0.0376 C   0  0  0  0  0  0  0  0  0  0  0  0
    3.0737   -3.0344    9.8497 C   0  0  0  0  0  0  0  0  0  0  0  0
    2.2963    1.3358   -0.5427 O   0  0  0  0  0  0  0  0  0  0  0  0
    3.4818   -0.1811    0.5897 O   0  0  0  0  0  0  0  0  0  0  0  0
    2.8022   -3.7111   10.9814 C   0  0  0  0  0  0  0  0  0  0  0  0
    2.1948   -5.0334   11.0874 C   0  0  1  0  0  0  0  0  0  0  0  0
    3.1128   -6.1414   10.8467 C   0  0  0  0  0  0  0  0  0  0  0  0
    2.7907   -7.4444   10.9673 C   0  0  0  0  0  0  0  0  0  0  0  0
    1.4714   -7.9501   11.3311 C   0  0  2  0  0  0  0  0  0  0  0  0
    1.4183   -9.4790   11.5713 C   0  0  0  0  0  0  0  0  0  0  0  0
    2.3751   -1.9993    5.4772 H   0  0  0  0  0  0  0  0  0  0  0  0
    1.4198    0.4615    4.6842 H   0  0  0  0  0  0  0  0  0  0  0  0
    2.3139    0.1577    6.1587 H   0  0  0  0  0  0  0  0  0  0  0  0
    0.8530   -3.2403    4.4092 H   0  0  0  0  0  0  0  0  0  0  0  0
   -0.4012    0.8409    5.9869 H   0  0  0  0  0  0  0  0  0  0  0  0
   -0.7279   -0.7443    3.9713 H   0  0  0  0  0  0  0  0  0  0  0  0
   -1.4312   -2.1524    4.7462 H   0  0  0  0  0  0  0  0  0  0  0  0
   -0.8820    0.1088    8.0508 H   0  0  0  0  0  0  0  0  0  0  0  0
   -1.6704   -3.0824    2.6780 H   0  0  0  0  0  0  0  0  0  0  0  0
    1.8214   -0.8809    8.3270 H   0  0  0  0  0  0  0  0  0  0  0  0
    0.5194   -0.9670    9.5006 H   0  0  0  0  0  0  0  0  0  0  0  0
   -0.6517   -2.5127    0.7412 H   0  0  0  0  0  0  0  0  0  0  0  0
   -0.4528   -2.7742    7.9369 H   0  0  0  0  0  0  0  0  0  0  0  0
    1.5830   -1.4642    2.0732 H   0  0  0  0  0  0  0  0  0  0  0  0
    0.4154   -0.1408    1.8821 H   0  0  0  0  0  0  0  0  0  0  0  0
    1.0381   -4.4417    7.9070 H   0  0  0  0  0  0  0  0  0  0  0  0
    0.4559   -0.4323   -0.5785 H   0  0  0  0  0  0  0  0  0  0  0  0
    1.6020   -1.7750   -0.4212 H   0  0  0  0  0  0  0  0  0  0  0  0
    3.2884   -2.7839    7.7795 H   0  0  0  0  0  0  0  0  0  0  0  0
    3.2672   -4.4415    8.3301 H   0  0  0  0  0  0  0  0  0  0  0  0
    3.5030   -2.1415    9.9544 H   0  0  0  0  0  0  0  0  0  0  0  0
    3.0547    1.9565   -0.5087 H   0  0  0  0  0  0  0  0  0  0  0  0
    3.0557   -3.2665   11.8364 H   0  0  0  0  0  0  0  0  0  0  0  0
    1.8088   -5.1298   12.1055 H   0  0  0  0  0  0  0  0  0  0  0  0
    1.3368   -5.1086   10.4166 H   0  0  0  0  0  0  0  0  0  0  0  0
    4.0493   -5.9329   10.5771 H   0  0  0  0  0  0  0  0  0  0  0  0
    3.5118   -8.1056   10.7799 H   0  0  0  0  0  0  0  0  0  0  0  0
    0.7697   -7.7016   10.5297 H   0  0  0  0  0  0  0  0  0  0  0  0
    1.1336   -7.4633   12.2508 H   0  0  0  0  0  0  0  0  0  0  0  0
    2.0819   -9.7565   12.3956 H   0  0  0  0  0  0  0  0  0  0  0  0
    0.3980   -9.7720   11.8333 H   0  0  0  0  0  0  0  0  0  0  0  0
    1.7165  -10.0241   10.6711 H   0  0  0  0  0  0  0  0  0  0  0  0
  1  2  1  0  0  0  0 
  1  3  2  0  0  0  0 
  2  4  1  0  0  0  0 
  3  5  1  0  0  0  0 
  4  6  2  0  0  0  0 
  5  7  1  0  0  0  0 
  6  8  1  0  0  0  0 
  7  9  2  0  0  0  0 
  8 10  1  0  0  0  0 
  9 11  1  0  0  0  0 
 10 12  2  0  0  0  0 
 11 13  1  0  0  0  0 
 12 14  1  0  0  0  0 
 13 15  1  0  0  0  0 
 14 16  1  0  0  0  0 
 15 17  1  0  0  0  0 
 15 18  2  0  0  0  0 
 16 19  2  0  0  0  0 
 19 20  1  0  0  0  0 
 20 21  1  0  0  0  0 
 21 22  2  0  0  0  0 
 22 23  1  0  0  0  0 
 23 24  1  0  0  0  0 
  1 25  1  0  0  0  0 
  2 26  1  0  0  0  0 
  2 27  1  0  0  0  0 
  3 28  1  0  0  0  0 
  4 29  1  0  0  0  0 
  5 30  1  0  0  0  0 
  5 31  1  0  0  0  0 
  6 32  1  0  0  0  0 
  7 33  1  0  0  0  0 
  8 34  1  0  0  0  0 
  8 35  1  0  0  0  0 
  9 36  1  0  0  0  0 
 10 37  1  0  0  0  0 
 11 38  1  0  0  0  0 
 11 39  1  0  0  0  0 
 12 40  1  0  0  0  0 
 13 41  1  0  0  0  0 
 13 42  1  0  0  0  0 
 14 43  1  0  0  0  0 
 14 44  1  0  0  0  0 
 16 45  1  0  0  0  0 
 17 46  1  0  0  0  0 
 19 47  1  0  0  0  0 
 20 48  1  0  0  0  0 
 20 49  1  0  0  0  0 
 21 50  1  0  0  0  0 
 22 51  1  0  0  0  0 
 23 52  1  0  0  0  0 
 23 53  1  0  0  0  0 
 24 54  1  0  0  0  0 
 24 55  1  0  0  0  0 
 24 56  1  0  0  0  0 
M  END
> <cdk:Title>
doconexent

> <Conformer>
1

> <SuperDrugID>
SD003477

$$$$
