levmetamfetamine
  CDK     0628171802

 26 26  0  0  0  0  0  0  0  0999 V2000
    1.0302    5.3172   -1.0330 C   0  0  1  0  0  0  0  0  0  0  0  0
    1.6295    4.0873   -1.7826 C   0  0  2  0  0  0  0  0  0  0  0  0
    0.8265    5.0941    0.4260 C   0  0  0  0  0  0  0  0  0  0  0  0
    0.8034    2.8586   -1.6416 N   0  0  1  0  0  0  0  0  0  0  0  0
    3.0673    3.7473   -1.3105 C   0  0  0  0  0  0  0  0  0  0  0  0
    1.8045    5.5116    1.3604 C   0  0  0  0  0  0  0  0  0  0  0  0
   -0.3342    4.4416    0.9071 C   0  0  0  0  0  0  0  0  0  0  0  0
   -0.4093    2.7869   -2.4810 C   0  0  0  0  0  0  0  0  0  0  0  0
    1.6315    5.2759    2.7356 C   0  0  0  0  0  0  0  0  0  0  0  0
   -0.5075    4.2081    2.2831 C   0  0  0  0  0  0  0  0  0  0  0  0
    0.4739    4.6263    3.1989 C   0  0  0  0  0  0  0  0  0  0  0  0
    1.6924    6.1735   -1.1921 H   0  0  0  0  0  0  0  0  0  0  0  0
    0.0821    5.5990   -1.4978 H   0  0  0  0  0  0  0  0  0  0  0  0
    1.7098    4.3507   -2.8427 H   0  0  0  0  0  0  0  0  0  0  0  0
    1.3913    2.0748   -1.9338 H   0  0  0  0  0  0  0  0  0  0  0  0
    3.7112    4.6268   -1.3750 H   0  0  0  0  0  0  0  0  0  0  0  0
    3.0662    3.3859   -0.2795 H   0  0  0  0  0  0  0  0  0  0  0  0
    3.4906    2.9678   -1.9473 H   0  0  0  0  0  0  0  0  0  0  0  0
    2.6569    5.9814    1.0450 H   0  0  0  0  0  0  0  0  0  0  0  0
   -1.0638    4.1308    0.2624 H   0  0  0  0  0  0  0  0  0  0  0  0
   -0.8814    1.8183   -2.3189 H   0  0  0  0  0  0  0  0  0  0  0  0
   -0.1521    2.8735   -3.5372 H   0  0  0  0  0  0  0  0  0  0  0  0
   -1.1236    3.5659   -2.2159 H   0  0  0  0  0  0  0  0  0  0  0  0
    2.3512    5.5731    3.3967 H   0  0  0  0  0  0  0  0  0  0  0  0
   -1.3483    3.7313    2.6166 H   0  0  0  0  0  0  0  0  0  0  0  0
    0.3473    4.4552    4.1988 H   0  0  0  0  0  0  0  0  0  0  0  0
  2  1  1  0  0  0  0 
  1  3  1  0  0  0  0 
  2  4  1  0  0  0  0 
  2  5  1  0  0  0  0 
  3  6  2  0  0  0  0 
  3  7  1  0  0  0  0 
  4  8  1  0  0  0  0 
  6  9  1  0  0  0  0 
  7 10  2  0  0  0  0 
  9 11  2  0  0  0  0 
 10 11  1  0  0  0  0 
  1 12  1  0  0  0  0 
  1 13  1  0  0  0  0 
  2 14  1  0  0  0  0 
  4 15  1  0  0  0  0 
  5 16  1  0  0  0  0 
  5 17  1  0  0  0  0 
  5 18  1  0  0  0  0 
  6 19  1  0  0  0  0 
  7 20  1  0  0  0  0 
  8 21  1  0  0  0  0 
  8 22  1  0  0  0  0 
  8 23  1  0  0  0  0 
  9 24  1  0  0  0  0 
 10 25  1  0  0  0  0 
 11 26  1  0  0  0  0 
M  END
> <cdk:Title>
levmetamfetamine

> <Conformer>
1

> <SuperDrugID>
SD003678

$$$$
