tigemonam
  CDK     0628171801

 43 44  0  0  0  0  0  0  0  0999 V2000
    2.8432    2.4800    1.0797 N   0  0  0  0  0  0  0  0  0  0  0  0
    1.7660    1.6676    0.8985 C   0  0  0  0  0  0  0  0  0  0  0  0
    3.1766    3.1509    2.2972 C   0  0  1  0  0  0  0  0  0  0  0  0
    1.4765    1.1180   -0.3562 C   0  0  0  0  0  0  0  0  0  0  0  0
    1.0254    1.4060    1.8782 O   0  0  0  0  0  0  0  0  0  0  0  0
    4.3416    4.2089    2.2260 C   0  0  2  0  0  0  0  0  0  0  0  0
    2.3262    4.3100    2.5622 C   0  0  0  0  0  0  0  0  0  0  0  0
    0.9849   -0.0692   -0.4515 N   0  0  0  0  0  0  0  0  0  0  0  0
    1.7005    1.8171   -1.5559 C   0  0  0  0  0  0  0  0  0  0  0  0
    5.0140    4.4179    0.8376 C   0  0  0  0  0  0  0  0  0  0  0  0
    5.3896    4.0601    3.3645 C   0  0  0  0  0  0  0  0  0  0  0  0
    3.3272    5.1820    2.4894 N   0  0  0  0  0  0  0  0  0  0  0  0
    1.1001    4.4393    2.7706 O   0  0  0  0  0  0  0  0  0  0  0  0
    0.7528   -0.9053    0.4917 O   0  0  0  0  0  0  0  0  0  0  0  0
    2.1809    3.0996   -1.5840 N   0  0  0  0  0  0  0  0  0  0  0  0
    1.4634    1.2861   -2.8427 C   0  0  0  0  0  0  0  0  0  0  0  0
    3.3371    6.4915    2.5399 O   0  0  0  0  0  0  0  0  0  0  0  0
   -0.4471   -1.6473    0.2334 C   0  0  2  0  0  0  0  0  0  0  0  0
    2.3960    3.6898   -2.7793 C   0  0  0  0  0  0  0  0  0  0  0  0
    1.9169    2.5250   -3.9969 S   0  0  0  0  0  0  0  0  0  0  0  0
    3.4693    7.0529    4.1539 S   0  0  1  0  0  0  0  0  0  0  0  0
   -0.5287   -2.7558    1.1951 C   0  0  0  0  0  0  0  0  0  0  0  0
    2.8899    4.9183   -2.9937 N   0  0  0  0  0  0  0  0  0  0  0  0
    3.0652    5.9399    5.2307 O   0  0  0  0  0  0  0  0  0  0  0  0
    4.9627    7.5732    4.4056 O   0  0  0  0  0  0  0  0  0  0  0  0
    2.3970    8.3707    4.3177 O   0  0  0  0  0  0  0  0  0  0  0  0
   -0.5728   -4.0374    0.7574 O   0  0  0  0  0  0  0  0  0  0  0  0
   -0.5523   -2.5310    2.4261 O   0  0  0  0  0  0  0  0  0  0  0  0
    3.4238    2.6241    0.3168 H   0  0  0  0  0  0  0  0  0  0  0  0
    3.2318    2.4782    3.1583 H   0  0  0  0  0  0  0  0  0  0  0  0
    4.2720    4.6390    0.0679 H   0  0  0  0  0  0  0  0  0  0  0  0
    5.7167    5.2518    0.8804 H   0  0  0  0  0  0  0  0  0  0  0  0
    5.5574    3.5158    0.5492 H   0  0  0  0  0  0  0  0  0  0  0  0
    6.0058    3.1777    3.1818 H   0  0  0  0  0  0  0  0  0  0  0  0
    4.9039    3.9482    4.3358 H   0  0  0  0  0  0  0  0  0  0  0  0
    6.0379    4.9370    3.4025 H   0  0  0  0  0  0  0  0  0  0  0  0
    1.1017    0.3607   -3.0810 H   0  0  0  0  0  0  0  0  0  0  0  0
   -0.4515   -2.0591   -0.7812 H   0  0  0  0  0  0  0  0  0  0  0  0
   -1.3223   -1.0033    0.3573 H   0  0  0  0  0  0  0  0  0  0  0  0
    3.1170    5.4902   -2.2434 H   0  0  0  0  0  0  0  0  0  0  0  0
    3.0249    5.2360   -3.9012 H   0  0  0  0  0  0  0  0  0  0  0  0
    1.5570    8.0600    3.9183 H   0  0  0  0  0  0  0  0  0  0  0  0
   -0.6145   -4.7794    1.3965 H   0  0  0  0  0  0  0  0  0  0  0  0
  1  2  1  0  0  0  0 
  2  4  1  0  0  0  0 
  2  5  2  0  0  0  0 
  3  1  1  0  0  0  0 
  3  6  1  0  0  0  0 
  3  7  1  0  0  0  0 
  4  8  2  0  0  0  0 
  4  9  1  0  0  0  0 
  6 10  1  0  0  0  0 
  6 11  1  0  0  0  0 
  6 12  1  0  0  0  0 
  7 12  1  0  0  0  0 
  7 13  2  0  0  0  0 
  8 14  1  0  0  0  0 
  9 15  1  0  0  0  0 
  9 16  2  0  0  0  0 
 12 17  1  0  0  0  0 
 14 18  1  0  0  0  0 
 15 19  2  0  0  0  0 
 16 20  1  0  0  0  0 
 17 21  1  0  0  0  0 
 18 22  1  0  0  0  0 
 19 20  1  0  0  0  0 
 19 23  1  0  0  0  0 
 21 24  2  0  0  0  0 
 21 25  2  0  0  0  0 
 21 26  1  0  0  0  0 
 22 27  1  0  0  0  0 
 22 28  2  0  0  0  0 
  1 29  1  0  0  0  0 
  3 30  1  0  0  0  0 
 10 31  1  0  0  0  0 
 10 32  1  0  0  0  0 
 10 33  1  0  0  0  0 
 11 34  1  0  0  0  0 
 11 35  1  0  0  0  0 
 11 36  1  0  0  0  0 
 16 37  1  0  0  0  0 
 18 38  1  0  0  0  0 
 18 39  1  0  0  0  0 
 23 40  1  0  0  0  0 
 23 41  1  0  0  0  0 
 26 42  1  0  0  0  0 
 27 43  1  0  0  0  0 
M  END
> <cdk:Title>
tigemonam

> <Conformer>
1

> <SuperDrugID>
SD003276

$$$$
