terazosin
  CDK     0628171801

 53 56  0  0  0  0  0  0  0  0999 V2000
    1.5200   -0.0897   -0.0541 C   0  0  0  0  0  0  0  0  0  0  0  0
    0.0840   -0.1689    0.0226 O   0  0  0  0  0  0  0  0  0  0  0  0
   -0.4085    0.4737    1.1269 C   0  0  0  0  0  0  0  0  0  0  0  0
   -0.7569    1.8360    1.0411 C   0  0  0  0  0  0  0  0  0  0  0  0
   -1.2003    2.5266    2.1852 C   0  0  0  0  0  0  0  0  0  0  0  0
   -1.3123    1.8544    3.4303 C   0  0  0  0  0  0  0  0  0  0  0  0
   -0.9967    0.4772    3.4972 C   0  0  0  0  0  0  0  0  0  0  0  0
   -0.5683   -0.2193    2.3483 C   0  0  0  0  0  0  0  0  0  0  0  0
   -0.2786   -1.5566    2.4295 O   0  0  0  0  0  0  0  0  0  0  0  0
   -1.4264   -2.3846    2.1665 C   0  0  0  0  0  0  0  0  0  0  0  0
   -1.7303    2.6290    4.5381 C   0  0  0  0  0  0  0  0  0  0  0  0
   -1.8404    2.1334    5.7870 N   0  0  0  0  0  0  0  0  0  0  0  0
   -2.0210    3.9440    4.3659 N   0  0  0  0  0  0  0  0  0  0  0  0
   -1.9201    4.5897    3.1704 C   0  0  0  0  0  0  0  0  0  0  0  0
   -1.5075    3.8462    2.1052 N   0  0  0  0  0  0  0  0  0  0  0  0
   -2.1896    5.9444    3.0435 N   0  0  0  0  0  0  0  0  0  0  0  0
   -1.9605    6.6712    1.8106 C   0  0  2  0  0  0  0  0  0  0  0  0
   -0.8796    7.7487    2.0770 C   0  0  2  0  0  0  0  0  0  0  0  0
   -1.2925    8.6298    3.1570 N   0  0  0  0  0  0  0  0  0  0  0  0
   -1.6512    7.9397    4.3901 C   0  0  1  0  0  0  0  0  0  0  0  0
   -2.6497    6.7735    4.1427 C   0  0  2  0  0  0  0  0  0  0  0  0
   -1.3286   10.0193    3.0528 C   0  0  0  0  0  0  0  0  0  0  0  0
   -1.6542   10.7050    4.0524 O   0  0  0  0  0  0  0  0  0  0  0  0
   -0.9835   10.8047    1.8335 C   0  0  1  0  0  0  0  0  0  0  0  0
   -2.0602   10.7457    0.7259 C   0  0  2  0  0  0  0  0  0  0  0  0
   -1.7567   12.0205   -0.0657 C   0  0  2  0  0  0  0  0  0  0  0  0
   -1.3657   12.9824    1.0678 C   0  0  2  0  0  0  0  0  0  0  0  0
   -0.7816   12.2017    2.1201 O   0  0  0  0  0  0  0  0  0  0  0  0
    1.9960   -0.5492    0.8173 H   0  0  0  0  0  0  0  0  0  0  0  0
    1.8376   -0.6352   -0.9418 H   0  0  0  0  0  0  0  0  0  0  0  0
    1.8594    0.9459   -0.1496 H   0  0  0  0  0  0  0  0  0  0  0  0
   -0.6740    2.3233    0.1458 H   0  0  0  0  0  0  0  0  0  0  0  0
   -1.0749   -0.0357    4.3777 H   0  0  0  0  0  0  0  0  0  0  0  0
   -1.1248   -3.4270    2.2649 H   0  0  0  0  0  0  0  0  0  0  0  0
   -2.2291   -2.1960    2.8846 H   0  0  0  0  0  0  0  0  0  0  0  0
   -1.8015   -2.2336    1.1508 H   0  0  0  0  0  0  0  0  0  0  0  0
   -2.1268    2.7108    6.5110 H   0  0  0  0  0  0  0  0  0  0  0  0
   -1.6306    1.2048    5.9707 H   0  0  0  0  0  0  0  0  0  0  0  0
   -2.8907    7.1498    1.4866 H   0  0  0  0  0  0  0  0  0  0  0  0
   -1.6276    6.0438    0.9806 H   0  0  0  0  0  0  0  0  0  0  0  0
   -0.6683    8.2549    1.1391 H   0  0  0  0  0  0  0  0  0  0  0  0
    0.0479    7.2441    2.3666 H   0  0  0  0  0  0  0  0  0  0  0  0
   -0.7383    7.5234    4.8221 H   0  0  0  0  0  0  0  0  0  0  0  0
   -2.0860    8.6029    5.1418 H   0  0  0  0  0  0  0  0  0  0  0  0
   -2.7747    6.2205    5.0753 H   0  0  0  0  0  0  0  0  0  0  0  0
   -3.6278    7.1908    3.8896 H   0  0  0  0  0  0  0  0  0  0  0  0
   -0.0272   10.4452    1.4440 H   0  0  0  0  0  0  0  0  0  0  0  0
   -3.0687   10.7993    1.1521 H   0  0  0  0  0  0  0  0  0  0  0  0
   -1.9793    9.8578    0.0963 H   0  0  0  0  0  0  0  0  0  0  0  0
   -2.6192   12.3704   -0.6385 H   0  0  0  0  0  0  0  0  0  0  0  0
   -0.9101   11.8646   -0.7423 H   0  0  0  0  0  0  0  0  0  0  0  0
   -2.2533   13.4844    1.4655 H   0  0  0  0  0  0  0  0  0  0  0  0
   -0.6562   13.7392    0.7258 H   0  0  0  0  0  0  0  0  0  0  0  0
  1  2  1  0  0  0  0 
  2  3  1  0  0  0  0 
  3  4  1  0  0  0  0 
  4  5  2  0  0  0  0 
  5  6  1  0  0  0  0 
  6  7  2  0  0  0  0 
  7  8  1  0  0  0  0 
  3  8  2  0  0  0  0 
  8  9  1  0  0  0  0 
  9 10  1  0  0  0  0 
  6 11  1  0  0  0  0 
 11 12  1  0  0  0  0 
 11 13  2  0  0  0  0 
 13 14  1  0  0  0  0 
 14 15  2  0  0  0  0 
  5 15  1  0  0  0  0 
 14 16  1  0  0  0  0 
 16 17  1  0  0  0  0 
 17 18  1  0  0  0  0 
 18 19  1  0  0  0  0 
 19 20  1  0  0  0  0 
 20 21  1  0  0  0  0 
 16 21  1  0  0  0  0 
 19 22  1  0  0  0  0 
 22 23  2  0  0  0  0 
 24 22  1  0  0  0  0 
 24 25  1  0  0  0  0 
 25 26  1  0  0  0  0 
 26 27  1  0  0  0  0 
 27 28  1  0  0  0  0 
 24 28  1  0  0  0  0 
  1 29  1  0  0  0  0 
  1 30  1  0  0  0  0 
  1 31  1  0  0  0  0 
  4 32  1  0  0  0  0 
  7 33  1  0  0  0  0 
 10 34  1  0  0  0  0 
 10 35  1  0  0  0  0 
 10 36  1  0  0  0  0 
 12 37  1  0  0  0  0 
 12 38  1  0  0  0  0 
 17 39  1  0  0  0  0 
 17 40  1  0  0  0  0 
 18 41  1  0  0  0  0 
 18 42  1  0  0  0  0 
 20 43  1  0  0  0  0 
 20 44  1  0  0  0  0 
 21 45  1  0  0  0  0 
 21 46  1  0  0  0  0 
 24 47  1  0  0  0  0 
 25 48  1  0  0  0  0 
 25 49  1  0  0  0  0 
 26 50  1  0  0  0  0 
 26 51  1  0  0  0  0 
 27 52  1  0  0  0  0 
 27 53  1  0  0  0  0 
M  END
> <cdk:Title>
terazosin

> <Conformer>
1

> <SuperDrugID>
SD003079

$$$$
