hydroxyamfetamine
  CDK     0628171801

 24 24  0  0  0  0  0  0  0  0999 V2000
    3.6172   -4.9720   -0.5110 N   0  0  2  0  0  0  0  0  0  0  0  0
    2.4140   -4.5331    0.2140 C   0  0  2  0  0  0  0  0  0  0  0  0
    1.4919   -5.7581    0.4284 C   0  0  0  0  0  0  0  0  0  0  0  0
    1.6968   -3.3727   -0.5360 C   0  0  1  0  0  0  0  0  0  0  0  0
    2.5701   -2.1791   -0.7063 C   0  0  0  0  0  0  0  0  0  0  0  0
    3.4022   -2.0526   -1.8455 C   0  0  0  0  0  0  0  0  0  0  0  0
    4.2654   -0.9530   -1.9885 C   0  0  0  0  0  0  0  0  0  0  0  0
    4.3030    0.0449   -0.9963 C   0  0  0  0  0  0  0  0  0  0  0  0
    5.1358    1.1037   -1.1328 O   0  0  0  0  0  0  0  0  0  0  0  0
    3.4723   -0.0581    0.1345 C   0  0  0  0  0  0  0  0  0  0  0  0
    2.6124   -1.1634    0.2782 C   0  0  0  0  0  0  0  0  0  0  0  0
    4.0904   -5.6580    0.0814 H   0  0  0  0  0  0  0  0  0  0  0  0
    4.2405   -4.1650   -0.5754 H   0  0  0  0  0  0  0  0  0  0  0  0
    2.7294   -4.1743    1.1980 H   0  0  0  0  0  0  0  0  0  0  0  0
    0.6114   -5.4731    1.0081 H   0  0  0  0  0  0  0  0  0  0  0  0
    1.1656   -6.1710   -0.5290 H   0  0  0  0  0  0  0  0  0  0  0  0
    2.0275   -6.5353    0.9786 H   0  0  0  0  0  0  0  0  0  0  0  0
    1.3520   -3.7235   -1.5128 H   0  0  0  0  0  0  0  0  0  0  0  0
    0.8006   -3.0895    0.0244 H   0  0  0  0  0  0  0  0  0  0  0  0
    3.3866   -2.7656   -2.5776 H   0  0  0  0  0  0  0  0  0  0  0  0
    4.8664   -0.8828   -2.8134 H   0  0  0  0  0  0  0  0  0  0  0  0
    5.9728    0.8207   -0.7063 H   0  0  0  0  0  0  0  0  0  0  0  0
    3.4897    0.6700    0.8538 H   0  0  0  0  0  0  0  0  0  0  0  0
    2.0206   -1.2226    1.1101 H   0  0  0  0  0  0  0  0  0  0  0  0
  2  1  1  0  0  0  0 
  2  3  1  0  0  0  0 
  2  4  1  0  0  0  0 
  4  5  1  0  0  0  0 
  5  6  2  0  0  0  0 
  6  7  1  0  0  0  0 
  7  8  2  0  0  0  0 
  8  9  1  0  0  0  0 
  8 10  1  0  0  0  0 
 10 11  2  0  0  0  0 
  5 11  1  0  0  0  0 
  1 12  1  0  0  0  0 
  1 13  1  0  0  0  0 
  2 14  1  0  0  0  0 
  3 15  1  0  0  0  0 
  3 16  1  0  0  0  0 
  3 17  1  0  0  0  0 
  4 18  1  0  0  0  0 
  4 19  1  0  0  0  0 
  6 20  1  0  0  0  0 
  7 21  1  0  0  0  0 
  9 22  1  0  0  0  0 
 10 23  1  0  0  0  0 
 11 24  1  0  0  0  0 
M  END
> <cdk:Title>
hydroxyamfetamine

> <Conformer>
1

> <SuperDrugID>
SD001239

$$$$
