ramifenazone
  CDK     0628171801

 37 38  0  0  0  0  0  0  0  0999 V2000
   -0.3536   -3.8061   -0.7161 O   0  0  0  0  0  0  0  0  0  0  0  0
   -0.7489   -3.0446    0.1956 C   0  0  0  0  0  0  0  0  0  0  0  0
   -0.3030   -3.0412    1.4713 N   0  0  0  0  0  0  0  0  0  0  0  0
   -1.6505   -1.9941    0.0431 C   0  0  0  0  0  0  0  0  0  0  0  0
   -0.9867   -2.1553    2.1587 N   0  0  0  0  0  0  0  0  0  0  0  0
    0.7946   -3.7499    1.9045 C   0  0  0  0  0  0  0  0  0  0  0  0
   -2.3182   -1.5780   -1.0753 N   0  0  0  0  0  0  0  0  0  0  0  0
   -1.7496   -1.4190    1.3109 C   0  0  0  0  0  0  0  0  0  0  0  0
   -1.0356   -2.0389    3.5955 C   0  0  0  0  0  0  0  0  0  0  0  0
    1.8543   -3.0739    2.5551 C   0  0  0  0  0  0  0  0  0  0  0  0
    0.8929   -5.1510    1.7257 C   0  0  0  0  0  0  0  0  0  0  0  0
   -2.5634   -2.3534   -2.2585 C   0  0  1  0  0  0  0  0  0  0  0  0
   -2.5941   -0.2631    1.6895 C   0  0  0  0  0  0  0  0  0  0  0  0
    2.9648   -3.7812    3.0478 C   0  0  0  0  0  0  0  0  0  0  0  0
    2.0131   -5.8581    2.2038 C   0  0  0  0  0  0  0  0  0  0  0  0
   -3.6349   -3.4391   -1.9722 C   0  0  0  0  0  0  0  0  0  0  0  0
   -2.9898   -1.4172   -3.4170 C   0  0  0  0  0  0  0  0  0  0  0  0
    3.0450   -5.1740    2.8720 C   0  0  0  0  0  0  0  0  0  0  0  0
   -2.7139   -0.6922   -1.0473 H   0  0  0  0  0  0  0  0  0  0  0  0
   -0.6163   -1.0805    3.9085 H   0  0  0  0  0  0  0  0  0  0  0  0
   -2.0683   -2.1057    3.9401 H   0  0  0  0  0  0  0  0  0  0  0  0
   -0.4814   -2.8357    4.0931 H   0  0  0  0  0  0  0  0  0  0  0  0
    1.8212   -2.0586    2.6728 H   0  0  0  0  0  0  0  0  0  0  0  0
    0.1466   -5.6658    1.2531 H   0  0  0  0  0  0  0  0  0  0  0  0
   -1.6447   -2.8445   -2.5880 H   0  0  0  0  0  0  0  0  0  0  0  0
   -1.9770    0.4896    2.1804 H   0  0  0  0  0  0  0  0  0  0  0  0
   -3.0743    0.1993    0.8278 H   0  0  0  0  0  0  0  0  0  0  0  0
   -3.3720   -0.5878    2.3802 H   0  0  0  0  0  0  0  0  0  0  0  0
    3.7104   -3.2814    3.5378 H   0  0  0  0  0  0  0  0  0  0  0  0
    2.0737   -6.8712    2.0748 H   0  0  0  0  0  0  0  0  0  0  0  0
   -3.3096   -4.0894   -1.1588 H   0  0  0  0  0  0  0  0  0  0  0  0
   -4.5831   -2.9798   -1.6866 H   0  0  0  0  0  0  0  0  0  0  0  0
   -3.7983   -4.0597   -2.8545 H   0  0  0  0  0  0  0  0  0  0  0  0
   -3.9123   -0.8874   -3.1722 H   0  0  0  0  0  0  0  0  0  0  0  0
   -2.2057   -0.6822   -3.6104 H   0  0  0  0  0  0  0  0  0  0  0  0
   -3.1478   -1.9931   -4.3323 H   0  0  0  0  0  0  0  0  0  0  0  0
    3.8531   -5.6885    3.2314 H   0  0  0  0  0  0  0  0  0  0  0  0
  1  2  2  0  0  0  0 
  2  3  1  0  0  0  0 
  2  4  1  0  0  0  0 
  3  5  1  0  0  0  0 
  3  6  1  0  0  0  0 
  4  7  1  0  0  0  0 
  4  8  2  0  0  0  0 
  5  8  1  0  0  0  0 
  5  9  1  0  0  0  0 
  6 10  2  0  0  0  0 
  6 11  1  0  0  0  0 
  7 12  1  0  0  0  0 
  8 13  1  0  0  0  0 
 10 14  1  0  0  0  0 
 11 15  2  0  0  0  0 
 12 16  1  0  0  0  0 
 12 17  1  0  0  0  0 
 14 18  2  0  0  0  0 
 15 18  1  0  0  0  0 
  7 19  1  0  0  0  0 
  9 20  1  0  0  0  0 
  9 21  1  0  0  0  0 
  9 22  1  0  0  0  0 
 10 23  1  0  0  0  0 
 11 24  1  0  0  0  0 
 12 25  1  0  0  0  0 
 13 26  1  0  0  0  0 
 13 27  1  0  0  0  0 
 13 28  1  0  0  0  0 
 14 29  1  0  0  0  0 
 15 30  1  0  0  0  0 
 16 31  1  0  0  0  0 
 16 32  1  0  0  0  0 
 16 33  1  0  0  0  0 
 17 34  1  0  0  0  0 
 17 35  1  0  0  0  0 
 17 36  1  0  0  0  0 
 18 37  1  0  0  0  0 
M  END
> <cdk:Title>
ramifenazone

> <Conformer>
1

> <SuperDrugID>
SD003027

$$$$
