amlodipine
  CDK     0628171801

 53 54  0  0  0  0  0  0  0  0999 V2000
   -3.2902    2.4601   -1.7647 N   0  0  0  0  0  0  0  0  0  0  0  0
   -4.1366    3.4232   -2.1463 C   0  0  0  0  0  0  0  0  0  0  0  0
   -4.6847    4.2511   -1.2150 C   0  0  0  0  0  0  0  0  0  0  0  0
   -4.2907    4.0461    0.2106 C   0  0  1  0  0  0  0  0  0  0  0  0
   -3.4794    2.8359    0.5291 C   0  0  0  0  0  0  0  0  0  0  0  0
   -3.0000    2.1006   -0.5088 C   0  0  0  0  0  0  0  0  0  0  0  0
   -3.6416    5.2792    0.8095 C   0  0  0  0  0  0  0  0  0  0  0  0
   -4.2766    5.9133    1.9123 C   0  0  0  0  0  0  0  0  0  0  0  0
   -3.7587    7.0849    2.4903 C   0  0  0  0  0  0  0  0  0  0  0  0
   -2.5921    7.6627    1.9691 C   0  0  0  0  0  0  0  0  0  0  0  0
   -1.9269    7.0465    0.8972 C   0  0  0  0  0  0  0  0  0  0  0  0
   -2.4279    5.8548    0.3292 C   0  0  0  0  0  0  0  0  0  0  0  0
   -4.3796    3.4611   -3.5866 C   0  0  0  0  0  0  0  0  0  0  0  0
   -5.6181    5.2715   -1.5126 C   0  0  0  0  0  0  0  0  0  0  0  0
   -6.1344    5.4244   -2.6450 O   0  0  0  0  0  0  0  0  0  0  0  0
   -6.0110    6.1507   -0.5390 O   0  0  0  0  0  0  0  0  0  0  0  0
   -6.9032    7.2635   -0.6526 C   0  0  0  0  0  0  0  0  0  0  0  0
   -2.1794    0.8962   -0.4079 C   0  0  1  0  0  0  0  0  0  0  0  0
   -0.8339    1.2778   -0.0577 O   0  0  0  0  0  0  0  0  0  0  0  0
    0.0885    0.1750    0.0408 C   0  0  1  0  0  0  0  0  0  0  0  0
    1.4840    0.7096    0.4221 C   0  0  1  0  0  0  0  0  0  0  0  0
    2.4249   -0.4001    0.6175 N   0  0  2  0  0  0  0  0  0  0  0  0
   -3.2840    2.4976    1.8867 C   0  0  0  0  0  0  0  0  0  0  0  0
   -2.2893    1.6646    2.3261 O   0  0  0  0  0  0  0  0  0  0  0  0
   -4.0630    2.9530    2.7592 O   0  0  0  0  0  0  0  0  0  0  0  0
   -2.0198    1.2969    3.6871 C   0  0  1  0  0  0  0  0  0  0  0  0
   -0.9378    0.2061    3.7463 C   0  0  0  0  0  0  0  0  0  0  0  0
   -1.5025    5.1755   -0.9199 Cl  0  0  0  0  0  0  0  0  0  0  0  0
   -2.8642    1.9506   -2.4715 H   0  0  0  0  0  0  0  0  0  0  0  0
   -5.2550    3.8532    0.6996 H   0  0  0  0  0  0  0  0  0  0  0  0
   -5.1360    5.5266    2.3104 H   0  0  0  0  0  0  0  0  0  0  0  0
   -4.2320    7.5181    3.2872 H   0  0  0  0  0  0  0  0  0  0  0  0
   -2.2241    8.5278    2.3732 H   0  0  0  0  0  0  0  0  0  0  0  0
   -1.0691    7.4755    0.5388 H   0  0  0  0  0  0  0  0  0  0  0  0
   -4.1451    4.4516   -3.9800 H   0  0  0  0  0  0  0  0  0  0  0  0
   -3.7702    2.7374   -4.1374 H   0  0  0  0  0  0  0  0  0  0  0  0
   -5.4226    3.2215   -3.7952 H   0  0  0  0  0  0  0  0  0  0  0  0
   -7.9074    6.9229   -0.9111 H   0  0  0  0  0  0  0  0  0  0  0  0
   -6.9366    7.7760    0.3089 H   0  0  0  0  0  0  0  0  0  0  0  0
   -6.5472    7.9625   -1.4110 H   0  0  0  0  0  0  0  0  0  0  0  0
   -2.6132    0.2131    0.3263 H   0  0  0  0  0  0  0  0  0  0  0  0
   -2.1599    0.3504   -1.3584 H   0  0  0  0  0  0  0  0  0  0  0  0
   -0.2462   -0.5352    0.8029 H   0  0  0  0  0  0  0  0  0  0  0  0
    0.1632   -0.3469   -0.9188 H   0  0  0  0  0  0  0  0  0  0  0  0
    1.8605    1.3584   -0.3731 H   0  0  0  0  0  0  0  0  0  0  0  0
    1.4261    1.2864    1.3476 H   0  0  0  0  0  0  0  0  0  0  0  0
    2.0997   -0.9314    1.4295 H   0  0  0  0  0  0  0  0  0  0  0  0
    3.3217    0.0134    0.8804 H   0  0  0  0  0  0  0  0  0  0  0  0
   -1.6798    2.1771    4.2378 H   0  0  0  0  0  0  0  0  0  0  0  0
   -2.9327    0.9148    4.1532 H   0  0  0  0  0  0  0  0  0  0  0  0
   -0.7452   -0.0697    4.7848 H   0  0  0  0  0  0  0  0  0  0  0  0
   -1.2734   -0.6770    3.2000 H   0  0  0  0  0  0  0  0  0  0  0  0
   -0.0118    0.5703    3.3022 H   0  0  0  0  0  0  0  0  0  0  0  0
  1  2  1  0  0  0  0 
  2  3  2  0  0  0  0 
  4  3  1  0  0  0  0 
  4  5  1  0  0  0  0 
  5  6  2  0  0  0  0 
  1  6  1  0  0  0  0 
  4  7  1  0  0  0  0 
  8  9  1  0  0  0  0 
  9 10  2  0  0  0  0 
 10 11  1  0  0  0  0 
 11 12  2  0  0  0  0 
  7  8  2  0  0  0  0 
  7 12  1  0  0  0  0 
  2 13  1  0  0  0  0 
  3 14  1  0  0  0  0 
 14 15  2  0  0  0  0 
 14 16  1  0  0  0  0 
 16 17  1  0  0  0  0 
  6 18  1  0  0  0  0 
 18 19  1  0  0  0  0 
 19 20  1  0  0  0  0 
 20 21  1  0  0  0  0 
 21 22  1  0  0  0  0 
  5 23  1  0  0  0  0 
 23 24  1  0  0  0  0 
 23 25  2  0  0  0  0 
 24 26  1  0  0  0  0 
 26 27  1  0  0  0  0 
 12 28  1  0  0  0  0 
 29  1  1  0  0  0  0 
 30  4  1  0  0  0  0 
 31  8  1  0  0  0  0 
 32  9  1  0  0  0  0 
 33 10  1  0  0  0  0 
 34 11  1  0  0  0  0 
 35 13  1  0  0  0  0 
 36 13  1  0  0  0  0 
 37 13  1  0  0  0  0 
 38 17  1  0  0  0  0 
 39 17  1  0  0  0  0 
 40 17  1  0  0  0  0 
 41 18  1  0  0  0  0 
 42 18  1  0  0  0  0 
 43 20  1  0  0  0  0 
 44 20  1  0  0  0  0 
 45 21  1  0  0  0  0 
 46 21  1  0  0  0  0 
 47 22  1  0  0  0  0 
 48 22  1  0  0  0  0 
 49 26  1  0  0  0  0 
 50 26  1  0  0  0  0 
 51 27  1  0  0  0  0 
 52 27  1  0  0  0  0 
 53 27  1  0  0  0  0 
M  END
> <cdk:Title>
amlodipine

> <Conformer>
1

> <SuperDrugID>
SD000148

$$$$
