doxifluridine
  CDK     0628171802

 28 29  0  0  0  0  0  0  0  0999 V2000
    1.2115    1.6542    1.7056 O   0  0  0  0  0  0  0  0  0  0  0  0
    2.4385    1.3802    2.3883 C   0  0  1  0  0  0  0  0  0  0  0  0
    3.5770    1.0104    1.3941 C   0  0  1  0  0  0  0  0  0  0  0  0
    2.9707    2.6526    3.0716 C   0  0  2  0  0  0  0  0  0  0  0  0
    4.5448    2.0746    1.4337 O   0  0  0  0  0  0  0  0  0  0  0  0
    4.2328   -0.2559    1.6856 N   0  0  0  0  0  0  0  0  0  0  0  0
    1.9407    3.5584    3.4633 O   0  0  0  0  0  0  0  0  0  0  0  0
    3.9032    3.2297    1.9879 C   0  0  2  0  0  0  0  0  0  0  0  0
    4.1517   -1.3319    0.8314 C   0  0  0  0  0  0  0  0  0  0  0  0
    4.9739   -0.3873    2.8359 C   0  0  0  0  0  0  0  0  0  0  0  0
    4.9663    4.2236    2.5082 C   0  0  0  0  0  0  0  0  0  0  0  0
    3.4832   -1.3213   -0.2294 O   0  0  0  0  0  0  0  0  0  0  0  0
    4.8105   -2.4866    1.1041 N   0  0  0  0  0  0  0  0  0  0  0  0
    5.6749   -1.5720    3.1294 C   0  0  0  0  0  0  0  0  0  0  0  0
    5.5747   -2.6314    2.2123 C   0  0  0  0  0  0  0  0  0  0  0  0
    6.4027   -1.6703    4.2101 F   0  0  0  0  0  0  0  0  0  0  0  0
    6.1734   -3.7152    2.3957 O   0  0  0  0  0  0  0  0  0  0  0  0
    0.9478    0.8072    1.2891 H   0  0  0  0  0  0  0  0  0  0  0  0
    2.2505    0.5888    3.1206 H   0  0  0  0  0  0  0  0  0  0  0  0
    3.1741    1.0280    0.3756 H   0  0  0  0  0  0  0  0  0  0  0  0
    3.5494    2.3784    3.9574 H   0  0  0  0  0  0  0  0  0  0  0  0
    2.4139    4.3359    3.8261 H   0  0  0  0  0  0  0  0  0  0  0  0
    3.3083    3.7257    1.2098 H   0  0  0  0  0  0  0  0  0  0  0  0
    5.0385    0.3880    3.5033 H   0  0  0  0  0  0  0  0  0  0  0  0
    5.6079    4.5410    1.6833 H   0  0  0  0  0  0  0  0  0  0  0  0
    4.4849    5.1067    2.9323 H   0  0  0  0  0  0  0  0  0  0  0  0
    5.5907    3.7547    3.2714 H   0  0  0  0  0  0  0  0  0  0  0  0
    4.7361   -3.2293    0.4849 H   0  0  0  0  0  0  0  0  0  0  0  0
  2  1  1  0  0  0  0 
  2  3  1  0  0  0  0 
  2  4  1  0  0  0  0 
  3  5  1  0  0  0  0 
  3  6  1  0  0  0  0 
  4  7  1  0  0  0  0 
  4  8  1  0  0  0  0 
  8  5  1  0  0  0  0 
  6  9  1  0  0  0  0 
  6 10  1  0  0  0  0 
  8 11  1  0  0  0  0 
  9 12  2  0  0  0  0 
  9 13  1  0  0  0  0 
 10 14  2  0  0  0  0 
 13 15  1  0  0  0  0 
 14 15  1  0  0  0  0 
 14 16  1  0  0  0  0 
 15 17  2  0  0  0  0 
 18  1  1  0  0  0  0 
  2 19  1  0  0  0  0 
  3 20  1  0  0  0  0 
  4 21  1  0  0  0  0 
 22  7  1  0  0  0  0 
  8 23  1  0  0  0  0 
 24 10  1  0  0  0  0 
 25 11  1  0  0  0  0 
 26 11  1  0  0  0  0 
 27 11  1  0  0  0  0 
 28 13  1  0  0  0  0 
M  END
> <cdk:Title>
doxifluridine

> <Conformer>
1

> <SuperDrugID>
SD000850

$$$$
