amperozide
  CDK     0628171801

 58 60  0  0  0  0  0  0  0  0999 V2000
    0.8597   -1.4094   -9.2886 C   0  0  2  0  0  0  0  0  0  0  0  0
    2.2325   -1.2316   -8.5552 C   0  0  2  0  0  0  0  0  0  0  0  0
    0.9788   -2.1096  -10.6181 C   0  0  0  0  0  0  0  0  0  0  0  0
    0.0557   -0.1453   -9.4159 C   0  0  0  0  0  0  0  0  0  0  0  0
    2.2050   -0.4439   -7.2056 C   0  0  1  0  0  0  0  0  0  0  0  0
    0.3645   -3.3730  -10.8226 C   0  0  0  0  0  0  0  0  0  0  0  0
    1.6827   -1.5467  -11.7149 C   0  0  0  0  0  0  0  0  0  0  0  0
   -1.3013   -0.1127   -9.0052 C   0  0  0  0  0  0  0  0  0  0  0  0
    0.6173    1.0534   -9.9248 C   0  0  0  0  0  0  0  0  0  0  0  0
    1.2729   -1.0263   -6.1054 C   0  0  2  0  0  0  0  0  0  0  0  0
    0.4125   -4.0221  -12.0710 C   0  0  0  0  0  0  0  0  0  0  0  0
    1.7314   -2.1902  -12.9666 C   0  0  0  0  0  0  0  0  0  0  0  0
   -2.0586    1.0709   -9.0816 C   0  0  0  0  0  0  0  0  0  0  0  0
   -0.1423    2.2317  -10.0257 C   0  0  0  0  0  0  0  0  0  0  0  0
    1.4270   -0.3539   -4.7725 N   0  0  1  0  0  0  0  0  0  0  0  0
    1.0889   -3.4266  -13.1492 C   0  0  0  0  0  0  0  0  0  0  0  0
   -1.4800    2.2446   -9.5962 C   0  0  0  0  0  0  0  0  0  0  0  0
    0.8426    1.0237   -4.6880 C   0  0  1  0  0  0  0  0  0  0  0  0
    0.9564   -1.1975   -3.6291 C   0  0  1  0  0  0  0  0  0  0  0  0
    1.1210   -4.0190  -14.3124 F   0  0  0  0  0  0  0  0  0  0  0  0
   -2.1828    3.3409   -9.6792 F   0  0  0  0  0  0  0  0  0  0  0  0
    1.1929    1.6830   -3.3298 C   0  0  1  0  0  0  0  0  0  0  0  0
    1.2793   -0.5219   -2.2710 C   0  0  2  0  0  0  0  0  0  0  0  0
    0.7847    0.8455   -2.2166 N   0  0  0  0  0  0  0  0  0  0  0  0
    0.0040    1.3058   -1.1596 C   0  0  0  0  0  0  0  0  0  0  0  0
   -0.4017    2.6095   -1.0392 N   0  0  0  0  0  0  0  0  0  0  0  0
   -0.3463    0.5082   -0.2553 O   0  0  0  0  0  0  0  0  0  0  0  0
   -1.1826    3.1546    0.0299 C   0  0  1  0  0  0  0  0  0  0  0  0
   -0.3445    3.3996    1.3032 C   0  0  0  0  0  0  0  0  0  0  0  0
    0.3045   -2.0786   -8.6235 H   0  0  0  0  0  0  0  0  0  0  0  0
    2.9317   -0.7171   -9.2177 H   0  0  0  0  0  0  0  0  0  0  0  0
    2.6570   -2.2229   -8.3685 H   0  0  0  0  0  0  0  0  0  0  0  0
    3.2249   -0.4194   -6.8096 H   0  0  0  0  0  0  0  0  0  0  0  0
    1.9220    0.5876   -7.4126 H   0  0  0  0  0  0  0  0  0  0  0  0
   -0.1348   -3.8375  -10.0608 H   0  0  0  0  0  0  0  0  0  0  0  0
    2.1678   -0.6553  -11.6211 H   0  0  0  0  0  0  0  0  0  0  0  0
   -1.7525   -0.9551   -8.6411 H   0  0  0  0  0  0  0  0  0  0  0  0
    1.5940    1.0916  -10.2162 H   0  0  0  0  0  0  0  0  0  0  0  0
    1.5324   -2.0859   -6.0142 H   0  0  0  0  0  0  0  0  0  0  0  0
    0.2301   -0.9668   -6.4266 H   0  0  0  0  0  0  0  0  0  0  0  0
   -0.0506   -4.9266  -12.1941 H   0  0  0  0  0  0  0  0  0  0  0  0
    2.2324   -1.7537  -13.7450 H   0  0  0  0  0  0  0  0  0  0  0  0
   -3.0313    1.0739   -8.7646 H   0  0  0  0  0  0  0  0  0  0  0  0
    0.2829    3.0789  -10.4099 H   0  0  0  0  0  0  0  0  0  0  0  0
    1.2356    1.6647   -5.4806 H   0  0  0  0  0  0  0  0  0  0  0  0
   -0.2474    0.9871   -4.7913 H   0  0  0  0  0  0  0  0  0  0  0  0
   -0.1239   -1.3711   -3.6994 H   0  0  0  0  0  0  0  0  0  0  0  0
    1.4579   -2.1692   -3.6486 H   0  0  0  0  0  0  0  0  0  0  0  0
    2.2740    1.8346   -3.2786 H   0  0  0  0  0  0  0  0  0  0  0  0
    0.7399    2.6726   -3.3228 H   0  0  0  0  0  0  0  0  0  0  0  0
    2.3650   -0.4994   -2.1382 H   0  0  0  0  0  0  0  0  0  0  0  0
    0.8747   -1.1637   -1.4844 H   0  0  0  0  0  0  0  0  0  0  0  0
   -0.1195    3.2308   -1.7256 H   0  0  0  0  0  0  0  0  0  0  0  0
   -1.5894    4.1084   -0.3089 H   0  0  0  0  0  0  0  0  0  0  0  0
   -2.0242    2.4968    0.2584 H   0  0  0  0  0  0  0  0  0  0  0  0
   -0.9584    3.8815    2.0650 H   0  0  0  0  0  0  0  0  0  0  0  0
    0.0243    2.4516    1.7012 H   0  0  0  0  0  0  0  0  0  0  0  0
    0.5065    4.0477    1.0785 H   0  0  0  0  0  0  0  0  0  0  0  0
  1  2  1  0  0  0  0 
  1  3  1  0  0  0  0 
  1  4  1  0  0  0  0 
  2  5  1  0  0  0  0 
  3  6  2  0  0  0  0 
  3  7  1  0  0  0  0 
  4  8  2  0  0  0  0 
  4  9  1  0  0  0  0 
  5 10  1  0  0  0  0 
  6 11  1  0  0  0  0 
  7 12  2  0  0  0  0 
  8 13  1  0  0  0  0 
  9 14  2  0  0  0  0 
 10 15  1  0  0  0  0 
 11 16  2  0  0  0  0 
 12 16  1  0  0  0  0 
 13 17  2  0  0  0  0 
 14 17  1  0  0  0  0 
 15 18  1  0  0  0  0 
 15 19  1  0  0  0  0 
 16 20  1  0  0  0  0 
 17 21  1  0  0  0  0 
 18 22  1  0  0  0  0 
 19 23  1  0  0  0  0 
 22 24  1  0  0  0  0 
 23 24  1  0  0  0  0 
 24 25  1  0  0  0  0 
 25 26  1  0  0  0  0 
 25 27  2  0  0  0  0 
 26 28  1  0  0  0  0 
 28 29  1  0  0  0  0 
 30  1  1  0  0  0  0 
 31  2  1  0  0  0  0 
 32  2  1  0  0  0  0 
 33  5  1  0  0  0  0 
 34  5  1  0  0  0  0 
 35  6  1  0  0  0  0 
 36  7  1  0  0  0  0 
 37  8  1  0  0  0  0 
 38  9  1  0  0  0  0 
 39 10  1  0  0  0  0 
 40 10  1  0  0  0  0 
 41 11  1  0  0  0  0 
 42 12  1  0  0  0  0 
 43 13  1  0  0  0  0 
 44 14  1  0  0  0  0 
 45 18  1  0  0  0  0 
 46 18  1  0  0  0  0 
 47 19  1  0  0  0  0 
 48 19  1  0  0  0  0 
 49 22  1  0  0  0  0 
 50 22  1  0  0  0  0 
 51 23  1  0  0  0  0 
 52 23  1  0  0  0  0 
 53 26  1  0  0  0  0 
 54 28  1  0  0  0  0 
 55 28  1  0  0  0  0 
 56 29  1  0  0  0  0 
 57 29  1  0  0  0  0 
 58 29  1  0  0  0  0 
M  END
> <cdk:Title>
amperozide

> <Conformer>
1

> <SuperDrugID>
SD000158

$$$$
