enrofloxacin
  CDK     0628171801

 48 51  0  0  0  0  0  0  0  0999 V2000
    3.0791   -3.7198   -0.8529 O   0  0  0  0  0  0  0  0  0  0  0  0
    1.8577   -3.8835   -0.6123 C   0  0  0  0  0  0  0  0  0  0  0  0
    1.0125   -2.7516   -0.5142 C   0  0  0  0  0  0  0  0  0  0  0  0
    1.3439   -5.1893   -0.4351 C   0  0  0  0  0  0  0  0  0  0  0  0
   -0.3841   -2.9388   -0.2798 C   0  0  0  0  0  0  0  0  0  0  0  0
    1.5402   -1.4436   -0.6312 C   0  0  0  0  0  0  0  0  0  0  0  0
    2.1511   -6.3652   -0.5084 C   0  0  0  0  0  0  0  0  0  0  0  0
   -0.0399   -5.3011   -0.1808 C   0  0  0  0  0  0  0  0  0  0  0  0
   -0.8829   -4.2219   -0.1533 N   0  0  0  0  0  0  0  0  0  0  0  0
   -1.1992   -1.7769   -0.1772 C   0  0  0  0  0  0  0  0  0  0  0  0
    0.7121   -0.3185   -0.5274 C   0  0  0  0  0  0  0  0  0  0  0  0
    1.6104   -7.6059   -0.4209 O   0  0  0  0  0  0  0  0  0  0  0  0
    3.3929   -6.3288   -0.6675 O   0  0  0  0  0  0  0  0  0  0  0  0
   -2.2909   -4.4960    0.0546 C   0  0  1  0  0  0  0  0  0  0  0  0
   -0.6744   -0.4728   -0.3204 C   0  0  0  0  0  0  0  0  0  0  0  0
    1.2572    0.8671   -0.6231 F   0  0  0  0  0  0  0  0  0  0  0  0
   -3.2339   -4.1701   -1.1227 C   0  0  2  0  0  0  0  0  0  0  0  0
   -3.0095   -5.6255   -0.7169 C   0  0  1  0  0  0  0  0  0  0  0  0
   -1.4967    0.6296   -0.2937 N   0  0  0  0  0  0  0  0  0  0  0  0
   -2.3387    0.9366    0.8379 C   0  0  2  0  0  0  0  0  0  0  0  0
   -1.5607    1.5177   -1.4320 C   0  0  1  0  0  0  0  0  0  0  0  0
   -3.8062    1.1494    0.3831 C   0  0  2  0  0  0  0  0  0  0  0  0
   -3.0241    1.6622   -1.9088 C   0  0  2  0  0  0  0  0  0  0  0  0
   -3.9037    2.0973   -0.7776 N   0  0  1  0  0  0  0  0  0  0  0  0
   -5.3264    2.3816   -1.1586 C   0  0  2  0  0  0  0  0  0  0  0  0
   -5.5122    3.5476   -2.1607 C   0  0  0  0  0  0  0  0  0  0  0  0
    2.5406   -1.2940   -0.7882 H   0  0  0  0  0  0  0  0  0  0  0  0
   -0.4250   -6.2353   -0.0153 H   0  0  0  0  0  0  0  0  0  0  0  0
   -2.2016   -1.8673   -0.0047 H   0  0  0  0  0  0  0  0  0  0  0  0
    2.1782   -8.4031   -0.4797 H   0  0  0  0  0  0  0  0  0  0  0  0
   -2.7181   -4.2522    1.0298 H   0  0  0  0  0  0  0  0  0  0  0  0
   -2.7665   -3.8777   -2.0649 H   0  0  0  0  0  0  0  0  0  0  0  0
   -4.2135   -3.7637   -0.8659 H   0  0  0  0  0  0  0  0  0  0  0  0
   -2.4229   -6.2114   -1.4253 H   0  0  0  0  0  0  0  0  0  0  0  0
   -3.8432   -6.1043   -0.2029 H   0  0  0  0  0  0  0  0  0  0  0  0
   -1.9733    1.8543    1.3057 H   0  0  0  0  0  0  0  0  0  0  0  0
   -2.3137    0.1548    1.6028 H   0  0  0  0  0  0  0  0  0  0  0  0
   -1.1715    2.4986   -1.1432 H   0  0  0  0  0  0  0  0  0  0  0  0
   -0.9621    1.1622   -2.2783 H   0  0  0  0  0  0  0  0  0  0  0  0
   -4.3686    1.5434    1.2352 H   0  0  0  0  0  0  0  0  0  0  0  0
   -4.2348    0.1777    0.1162 H   0  0  0  0  0  0  0  0  0  0  0  0
   -3.3627    0.7050   -2.3184 H   0  0  0  0  0  0  0  0  0  0  0  0
   -3.0298    2.3988   -2.7136 H   0  0  0  0  0  0  0  0  0  0  0  0
   -5.8796    2.6601   -0.2559 H   0  0  0  0  0  0  0  0  0  0  0  0
   -5.7953    1.4817   -1.5703 H   0  0  0  0  0  0  0  0  0  0  0  0
   -6.5690    3.8159   -2.2261 H   0  0  0  0  0  0  0  0  0  0  0  0
   -4.9524    4.4251   -1.8284 H   0  0  0  0  0  0  0  0  0  0  0  0
   -5.1796    3.2585   -3.1605 H   0  0  0  0  0  0  0  0  0  0  0  0
  1  2  2  0  0  0  0 
  2  3  1  0  0  0  0 
  2  4  1  0  0  0  0 
  3  5  1  0  0  0  0 
  3  6  2  0  0  0  0 
  4  7  1  0  0  0  0 
  4  8  2  0  0  0  0 
  5  9  1  0  0  0  0 
  5 10  2  0  0  0  0 
  6 11  1  0  0  0  0 
  7 12  1  0  0  0  0 
  7 13  2  0  0  0  0 
  8  9  1  0  0  0  0 
  9 14  1  0  0  0  0 
 10 15  1  0  0  0  0 
 11 15  2  0  0  0  0 
 11 16  1  0  0  0  0 
 14 17  1  0  0  0  0 
 14 18  1  0  0  0  0 
 15 19  1  0  0  0  0 
 17 18  1  0  0  0  0 
 19 20  1  0  0  0  0 
 19 21  1  0  0  0  0 
 20 22  1  0  0  0  0 
 21 23  1  0  0  0  0 
 22 24  1  0  0  0  0 
 23 24  1  0  0  0  0 
 24 25  1  0  0  0  0 
 25 26  1  0  0  0  0 
  6 27  1  0  0  0  0 
  8 28  1  0  0  0  0 
 10 29  1  0  0  0  0 
 12 30  1  0  0  0  0 
 14 31  1  0  0  0  0 
 17 32  1  0  0  0  0 
 17 33  1  0  0  0  0 
 18 34  1  0  0  0  0 
 18 35  1  0  0  0  0 
 20 36  1  0  0  0  0 
 20 37  1  0  0  0  0 
 21 38  1  0  0  0  0 
 21 39  1  0  0  0  0 
 22 40  1  0  0  0  0 
 22 41  1  0  0  0  0 
 23 42  1  0  0  0  0 
 23 43  1  0  0  0  0 
 25 44  1  0  0  0  0 
 25 45  1  0  0  0  0 
 26 46  1  0  0  0  0 
 26 47  1  0  0  0  0 
 26 48  1  0  0  0  0 
M  END
> <cdk:Title>
enrofloxacin

> <Conformer>
1

> <SuperDrugID>
SD000904

$$$$
