ibuprofen guaiacol ester
  CDK     0628171801

 47 48  0  0  0  0  0  0  0  0999 V2000
   -7.5193    1.3781   12.8687 O   0  0  0  0  0  0  0  0  0  0  0  0
   -6.8647    2.5657   12.6631 C   0  0  0  0  0  0  0  0  0  0  0  0
   -8.5280    0.9452   13.7001 C   0  0  0  0  0  0  0  0  0  0  0  0
   -5.6954    2.6335   11.7425 C   0  0  1  0  0  0  0  0  0  0  0  0
   -7.2700    3.6353   13.1701 O   0  0  0  0  0  0  0  0  0  0  0  0
   -8.9167    1.5070   14.9494 C   0  0  0  0  0  0  0  0  0  0  0  0
   -9.1838   -0.2207   13.2453 C   0  0  0  0  0  0  0  0  0  0  0  0
   -4.9575    1.2724   11.5901 C   0  0  0  0  0  0  0  0  0  0  0  0
   -6.0608    3.2149   10.4070 C   0  0  0  0  0  0  0  0  0  0  0  0
   -8.3366    2.6411   15.4568 O   0  0  0  0  0  0  0  0  0  0  0  0
   -9.8971    0.8515   15.7310 C   0  0  0  0  0  0  0  0  0  0  0  0
  -10.1928   -0.8334   14.0089 C   0  0  0  0  0  0  0  0  0  0  0  0
   -7.0166    2.5815    9.5764 C   0  0  0  0  0  0  0  0  0  0  0  0
   -5.4536    4.4028    9.9292 C   0  0  0  0  0  0  0  0  0  0  0  0
   -9.2062    3.7957   15.4530 C   0  0  0  0  0  0  0  0  0  0  0  0
  -10.5445   -0.3012   15.2586 C   0  0  0  0  0  0  0  0  0  0  0  0
   -7.3298    3.0963    8.3053 C   0  0  0  0  0  0  0  0  0  0  0  0
   -5.7773    4.9256    8.6616 C   0  0  0  0  0  0  0  0  0  0  0  0
   -6.7039    4.2669    7.8211 C   0  0  0  0  0  0  0  0  0  0  0  0
   -7.0201    4.7798    6.4559 C   0  0  2  0  0  0  0  0  0  0  0  0
   -6.4011    3.9308    5.2967 C   0  0  2  0  0  0  0  0  0  0  0  0
   -4.8450    3.9186    5.3260 C   0  0  0  0  0  0  0  0  0  0  0  0
   -6.9191    4.4294    3.9184 C   0  0  0  0  0  0  0  0  0  0  0  0
   -4.9691    3.2864   12.2376 H   0  0  0  0  0  0  0  0  0  0  0  0
   -8.9284   -0.6342   12.3446 H   0  0  0  0  0  0  0  0  0  0  0  0
   -4.0458    1.3990   11.0004 H   0  0  0  0  0  0  0  0  0  0  0  0
   -5.5903    0.5303   11.0981 H   0  0  0  0  0  0  0  0  0  0  0  0
   -4.6745    0.8873   12.5738 H   0  0  0  0  0  0  0  0  0  0  0  0
  -10.1450    1.2162   16.6527 H   0  0  0  0  0  0  0  0  0  0  0  0
  -10.6674   -1.6682   13.6586 H   0  0  0  0  0  0  0  0  0  0  0  0
   -7.4895    1.7310    9.8897 H   0  0  0  0  0  0  0  0  0  0  0  0
   -4.7615    4.8962   10.4994 H   0  0  0  0  0  0  0  0  0  0  0  0
   -8.6325    4.6622   15.7847 H   0  0  0  0  0  0  0  0  0  0  0  0
   -9.5798    4.0015   14.4481 H   0  0  0  0  0  0  0  0  0  0  0  0
  -10.0546    3.6753   16.1309 H   0  0  0  0  0  0  0  0  0  0  0  0
  -11.2671   -0.7504   15.8261 H   0  0  0  0  0  0  0  0  0  0  0  0
   -8.0227    2.6087    7.7331 H   0  0  0  0  0  0  0  0  0  0  0  0
   -5.3213    5.7864    8.3484 H   0  0  0  0  0  0  0  0  0  0  0  0
   -6.6853    5.8160    6.3500 H   0  0  0  0  0  0  0  0  0  0  0  0
   -8.1093    4.7981    6.3491 H   0  0  0  0  0  0  0  0  0  0  0  0
   -6.7384    2.8954    5.4060 H   0  0  0  0  0  0  0  0  0  0  0  0
   -4.4492    4.9300    5.2181 H   0  0  0  0  0  0  0  0  0  0  0  0
   -4.4506    3.3037    4.5144 H   0  0  0  0  0  0  0  0  0  0  0  0
   -4.4784    3.5001    6.2648 H   0  0  0  0  0  0  0  0  0  0  0  0
   -6.6281    5.4679    3.7492 H   0  0  0  0  0  0  0  0  0  0  0  0
   -8.0079    4.3627    3.8740 H   0  0  0  0  0  0  0  0  0  0  0  0
   -6.5139    3.8185    3.1097 H   0  0  0  0  0  0  0  0  0  0  0  0
  1  2  1  0  0  0  0 
  1  3  1  0  0  0  0 
  4  2  1  0  0  0  0 
  2  5  2  0  0  0  0 
  3  6  2  0  0  0  0 
  3  7  1  0  0  0  0 
  4  8  1  0  0  0  0 
  4  9  1  0  0  0  0 
  6 10  1  0  0  0  0 
  6 11  1  0  0  0  0 
  7 12  2  0  0  0  0 
  9 13  2  0  0  0  0 
  9 14  1  0  0  0  0 
 10 15  1  0  0  0  0 
 11 16  2  0  0  0  0 
 12 16  1  0  0  0  0 
 13 17  1  0  0  0  0 
 14 18  2  0  0  0  0 
 17 19  2  0  0  0  0 
 18 19  1  0  0  0  0 
 19 20  1  0  0  0  0 
 20 21  1  0  0  0  0 
 21 22  1  0  0  0  0 
 21 23  1  0  0  0  0 
  4 24  1  0  0  0  0 
  7 25  1  0  0  0  0 
  8 26  1  0  0  0  0 
  8 27  1  0  0  0  0 
  8 28  1  0  0  0  0 
 11 29  1  0  0  0  0 
 12 30  1  0  0  0  0 
 13 31  1  0  0  0  0 
 14 32  1  0  0  0  0 
 15 33  1  0  0  0  0 
 15 34  1  0  0  0  0 
 15 35  1  0  0  0  0 
 16 36  1  0  0  0  0 
 17 37  1  0  0  0  0 
 18 38  1  0  0  0  0 
 20 39  1  0  0  0  0 
 20 40  1  0  0  0  0 
 21 41  1  0  0  0  0 
 22 42  1  0  0  0  0 
 22 43  1  0  0  0  0 
 22 44  1  0  0  0  0 
 23 45  1  0  0  0  0 
 23 46  1  0  0  0  0 
 23 47  1  0  0  0  0 
M  END
> <cdk:Title>
ibuprofen guaiacol ester

> <Conformer>
1

> <SuperDrugID>
SD001252

$$$$
