coumarin
  CDK     0628171802

 17 18  0  0  0  0  0  0  0  0999 V2000
    1.2226   -0.0092    0.0000 O   0  0  0  0  0  0  0  0  0  0  0  0
   -0.0287   -0.0068    0.0000 C   0  0  0  0  0  0  0  0  0  0  0  0
   -0.7114   -1.1906    0.0000 O   0  0  0  0  0  0  0  0  0  0  0  0
   -2.0770   -1.2628    0.0000 C   0  0  0  0  0  0  0  0  0  0  0  0
   -2.7273   -2.5125    0.0000 C   0  0  0  0  0  0  0  0  0  0  0  0
   -4.1339   -2.5696    0.0000 C   0  0  0  0  0  0  0  0  0  0  0  0
   -4.8908   -1.3832    0.0000 C   0  0  0  0  0  0  0  0  0  0  0  0
   -4.2462   -0.1324    0.0000 C   0  0  0  0  0  0  0  0  0  0  0  0
   -2.8366   -0.0622    0.0000 C   0  0  0  0  0  0  0  0  0  0  0  0
   -2.1459    1.1684    0.0000 C   0  0  0  0  0  0  0  0  0  0  0  0
   -0.7418    1.2038    0.0000 C   0  0  0  0  0  0  0  0  0  0  0  0
   -2.1816   -3.3777    0.0000 H   0  0  0  0  0  0  0  0  0  0  0  0
   -4.6085   -3.4745    0.0000 H   0  0  0  0  0  0  0  0  0  0  0  0
   -5.9120   -1.4272    0.0000 H   0  0  0  0  0  0  0  0  0  0  0  0
   -4.8103    0.7212    0.0000 H   0  0  0  0  0  0  0  0  0  0  0  0
   -2.6622    2.0524    0.0000 H   0  0  0  0  0  0  0  0  0  0  0  0
   -0.2531    2.1017    0.0000 H   0  0  0  0  0  0  0  0  0  0  0  0
  1  2  2  0  0  0  0 
  2  3  1  0  0  0  0 
  3  4  1  0  0  0  0 
  4  5  2  0  0  0  0 
  5  6  1  0  0  0  0 
  6  7  2  0  0  0  0 
  7  8  1  0  0  0  0 
  8  9  2  0  0  0  0 
  4  9  1  0  0  0  0 
  9 10  1  0  0  0  0 
 10 11  2  0  0  0  0 
  2 11  1  0  0  0  0 
  5 12  1  0  0  0  0 
  6 13  1  0  0  0  0 
  7 14  1  0  0  0  0 
  8 15  1  0  0  0  0 
 10 16  1  0  0  0  0 
 11 17  1  0  0  0  0 
M  END
> <cdk:Title>
coumarin

> <Conformer>
1

> <SuperDrugID>
SD000649

$$$$
