isoetarine
  CDK     0628171801

 38 38  0  0  0  0  0  0  0  0999 V2000
   -0.3111   -1.0385   -0.7861 C   0  0  1  0  0  0  0  0  0  0  0  0
    0.4662   -2.3654   -1.0829 C   0  0  2  0  0  0  0  0  0  0  0  0
    0.3132   -0.3142    0.2691 O   0  0  0  0  0  0  0  0  0  0  0  0
   -0.5103   -0.1196   -1.9478 C   0  0  0  0  0  0  0  0  0  0  0  0
    1.8442   -2.1941   -1.6254 N   0  0  2  0  0  0  0  0  0  0  0  0
   -0.3102   -3.2871   -2.0712 C   0  0  1  0  0  0  0  0  0  0  0  0
    0.5689    0.6177   -2.4914 C   0  0  0  0  0  0  0  0  0  0  0  0
   -1.7932    0.0636   -2.5199 C   0  0  0  0  0  0  0  0  0  0  0  0
    2.9844   -1.8480   -0.7335 C   0  0  1  0  0  0  0  0  0  0  0  0
    0.2962   -4.7046   -2.1941 C   0  0  0  0  0  0  0  0  0  0  0  0
    0.3779    1.4967   -3.5770 C   0  0  0  0  0  0  0  0  0  0  0  0
   -1.9871    0.9447   -3.5990 C   0  0  0  0  0  0  0  0  0  0  0  0
    3.2736   -2.9440    0.3287 C   0  0  0  0  0  0  0  0  0  0  0  0
    4.2234   -1.6283   -1.6405 C   0  0  0  0  0  0  0  0  0  0  0  0
    1.4183    2.1981   -4.0861 O   0  0  0  0  0  0  0  0  0  0  0  0
   -0.9030    1.6581   -4.1349 C   0  0  0  0  0  0  0  0  0  0  0  0
   -1.1158    2.4916   -5.1844 O   0  0  0  0  0  0  0  0  0  0  0  0
   -1.2857   -1.3279   -0.3802 H   0  0  0  0  0  0  0  0  0  0  0  0
    0.5172   -2.9139   -0.1393 H   0  0  0  0  0  0  0  0  0  0  0  0
    0.3791   -0.9543    1.0075 H   0  0  0  0  0  0  0  0  0  0  0  0
    1.8037   -1.5144   -2.3875 H   0  0  0  0  0  0  0  0  0  0  0  0
   -1.3418   -3.4031   -1.7297 H   0  0  0  0  0  0  0  0  0  0  0  0
   -0.3310   -2.8278   -3.0627 H   0  0  0  0  0  0  0  0  0  0  0  0
    1.5050    0.5259   -2.0904 H   0  0  0  0  0  0  0  0  0  0  0  0
   -2.6006   -0.4447   -2.1569 H   0  0  0  0  0  0  0  0  0  0  0  0
    2.7793   -0.9063   -0.2218 H   0  0  0  0  0  0  0  0  0  0  0  0
   -0.2932   -5.3016   -2.8916 H   0  0  0  0  0  0  0  0  0  0  0  0
    1.3223   -4.6547   -2.5633 H   0  0  0  0  0  0  0  0  0  0  0  0
    0.2910   -5.2009   -1.2216 H   0  0  0  0  0  0  0  0  0  0  0  0
   -2.9192    1.0681   -3.9986 H   0  0  0  0  0  0  0  0  0  0  0  0
    2.5145   -2.9249    1.1118 H   0  0  0  0  0  0  0  0  0  0  0  0
    4.2424   -2.7824    0.8074 H   0  0  0  0  0  0  0  0  0  0  0  0
    3.2766   -3.9323   -0.1353 H   0  0  0  0  0  0  0  0  0  0  0  0
    4.0338   -0.8234   -2.3541 H   0  0  0  0  0  0  0  0  0  0  0  0
    5.0971   -1.3526   -1.0447 H   0  0  0  0  0  0  0  0  0  0  0  0
    4.4564   -2.5389   -2.1978 H   0  0  0  0  0  0  0  0  0  0  0  0
    2.2102    1.8357   -3.6422 H   0  0  0  0  0  0  0  0  0  0  0  0
   -0.2518    2.5766   -5.6364 H   0  0  0  0  0  0  0  0  0  0  0  0
  1  2  1  0  0  0  0 
  1  3  1  0  0  0  0 
  1  4  1  0  0  0  0 
  2  5  1  0  0  0  0 
  2  6  1  0  0  0  0 
  4  7  2  0  0  0  0 
  4  8  1  0  0  0  0 
  5  9  1  0  0  0  0 
  6 10  1  0  0  0  0 
  7 11  1  0  0  0  0 
  8 12  2  0  0  0  0 
  9 13  1  0  0  0  0 
  9 14  1  0  0  0  0 
 11 15  1  0  0  0  0 
 11 16  2  0  0  0  0 
 12 16  1  0  0  0  0 
 16 17  1  0  0  0  0 
  1 18  1  0  0  0  0 
  2 19  1  0  0  0  0 
  3 20  1  0  0  0  0 
  5 21  1  0  0  0  0 
  6 22  1  0  0  0  0 
  6 23  1  0  0  0  0 
  7 24  1  0  0  0  0 
  8 25  1  0  0  0  0 
  9 26  1  0  0  0  0 
 10 27  1  0  0  0  0 
 10 28  1  0  0  0  0 
 10 29  1  0  0  0  0 
 12 30  1  0  0  0  0 
 13 31  1  0  0  0  0 
 13 32  1  0  0  0  0 
 13 33  1  0  0  0  0 
 14 34  1  0  0  0  0 
 14 35  1  0  0  0  0 
 14 36  1  0  0  0  0 
 15 37  1  0  0  0  0 
 17 38  1  0  0  0  0 
M  END
> <cdk:Title>
isoetarine

> <Conformer>
1

> <SuperDrugID>
SD001321

$$$$
