leflunomide
  CDK     0628171801

 28 29  0  0  0  0  0  0  0  0999 V2000
   -0.1757   -3.1410    0.2090 C   0  0  0  0  0  0  0  0  0  0  0  0
    1.1527   -2.5077    0.2276 C   0  0  0  0  0  0  0  0  0  0  0  0
    1.4865   -1.1641    0.0240 C   0  0  0  0  0  0  0  0  0  0  0  0
    2.8744   -1.1492    0.1516 C   0  0  0  0  0  0  0  0  0  0  0  0
    3.3146   -2.3891    0.4113 N   0  0  0  0  0  0  0  0  0  0  0  0
    2.2934   -3.2000    0.4570 O   0  0  0  0  0  0  0  0  0  0  0  0
    0.6427   -0.0583   -0.2655 C   0  0  0  0  0  0  0  0  0  0  0  0
   -0.5859   -0.2526   -0.4212 O   0  0  0  0  0  0  0  0  0  0  0  0
    1.1877    1.1869   -0.4239 N   0  0  0  0  0  0  0  0  0  0  0  0
    0.5755    2.3639   -0.7622 C   0  0  0  0  0  0  0  0  0  0  0  0
    1.3498    3.3005   -1.4810 C   0  0  0  0  0  0  0  0  0  0  0  0
    0.8047    4.5325   -1.8883 C   0  0  0  0  0  0  0  0  0  0  0  0
   -0.5272    4.8839   -1.5619 C   0  0  0  0  0  0  0  0  0  0  0  0
   -1.2914    3.9565   -0.8106 C   0  0  0  0  0  0  0  0  0  0  0  0
   -0.7516    2.7151   -0.4212 C   0  0  0  0  0  0  0  0  0  0  0  0
   -1.0668    6.2040   -2.0019 C   0  0  2  0  0  0  0  0  0  0  0  0
   -1.0672    6.2875   -3.3737 F   0  0  0  0  0  0  0  0  0  0  0  0
   -0.2828    7.2184   -1.5080 F   0  0  0  0  0  0  0  0  0  0  0  0
   -2.3512    6.4577   -1.5814 F   0  0  0  0  0  0  0  0  0  0  0  0
   -0.8104   -2.7013    0.9795 H   0  0  0  0  0  0  0  0  0  0  0  0
   -0.0817   -4.2126    0.4026 H   0  0  0  0  0  0  0  0  0  0  0  0
   -0.6411   -3.0015   -0.7675 H   0  0  0  0  0  0  0  0  0  0  0  0
    3.4791   -0.3306    0.0592 H   0  0  0  0  0  0  0  0  0  0  0  0
    2.1520    1.2385   -0.3290 H   0  0  0  0  0  0  0  0  0  0  0  0
    2.3208    3.0865   -1.7274 H   0  0  0  0  0  0  0  0  0  0  0  0
    1.3927    5.1769   -2.4258 H   0  0  0  0  0  0  0  0  0  0  0  0
   -2.2521    4.1748   -0.5371 H   0  0  0  0  0  0  0  0  0  0  0  0
   -1.3338    2.0814    0.1286 H   0  0  0  0  0  0  0  0  0  0  0  0
  1  2  1  0  0  0  0 
  2  3  2  0  0  0  0 
  3  4  1  0  0  0  0 
  4  5  2  0  0  0  0 
  5  6  1  0  0  0  0 
  2  6  1  0  0  0  0 
  3  7  1  0  0  0  0 
  7  8  2  0  0  0  0 
  7  9  1  0  0  0  0 
  9 10  1  0  0  0  0 
 10 11  2  0  0  0  0 
 11 12  1  0  0  0  0 
 12 13  2  0  0  0  0 
 13 14  1  0  0  0  0 
 14 15  2  0  0  0  0 
 10 15  1  0  0  0  0 
 13 16  1  0  0  0  0 
 16 17  1  0  0  0  0 
 16 18  1  0  0  0  0 
 16 19  1  0  0  0  0 
  1 20  1  0  0  0  0 
  1 21  1  0  0  0  0 
  1 22  1  0  0  0  0 
  4 23  1  0  0  0  0 
  9 24  1  0  0  0  0 
 11 25  1  0  0  0  0 
 12 26  1  0  0  0  0 
 14 27  1  0  0  0  0 
 15 28  1  0  0  0  0 
M  END
> <cdk:Title>
leflunomide

> <Conformer>
1

> <SuperDrugID>
SD001371

$$$$
