isoleucine
  CDK     0628171801

 22 21  0  0  0  0  0  0  0  0999 V2000
    3.0933   -0.2822    1.5296 C   0  0  0  0  0  0  0  0  0  0  0  0
    3.2280    1.2365    1.2620 C   0  0  1  0  0  0  0  0  0  0  0  0
    3.2874    1.6512   -0.2463 C   0  0  2  0  0  0  0  0  0  0  0  0
    3.6478    3.1624   -0.3687 C   0  0  0  0  0  0  0  0  0  0  0  0
    2.0138    1.2507   -1.0672 C   0  0  1  0  0  0  0  0  0  0  0  0
    0.7570    1.8380   -0.5574 C   0  0  0  0  0  0  0  0  0  0  0  0
    0.4789    3.0482   -0.7236 O   0  0  0  0  0  0  0  0  0  0  0  0
   -0.1244    1.0574    0.1108 O   0  0  0  0  0  0  0  0  0  0  0  0
    2.1600    1.5606   -2.4980 N   0  0  2  0  0  0  0  0  0  0  0  0
    2.1471   -0.6743    1.1509 H   0  0  0  0  0  0  0  0  0  0  0  0
    3.1226   -0.4659    2.6060 H   0  0  0  0  0  0  0  0  0  0  0  0
    3.9161   -0.8249    1.0608 H   0  0  0  0  0  0  0  0  0  0  0  0
    2.3963    1.7489    1.7506 H   0  0  0  0  0  0  0  0  0  0  0  0
    4.1475    1.5677    1.7551 H   0  0  0  0  0  0  0  0  0  0  0  0
    4.1280    1.1097   -0.6917 H   0  0  0  0  0  0  0  0  0  0  0  0
    3.7112    3.4651   -1.4130 H   0  0  0  0  0  0  0  0  0  0  0  0
    2.9045    3.7907    0.1261 H   0  0  0  0  0  0  0  0  0  0  0  0
    4.6209    3.3597    0.0867 H   0  0  0  0  0  0  0  0  0  0  0  0
    1.9120    0.1641   -1.0265 H   0  0  0  0  0  0  0  0  0  0  0  0
   -0.9504    1.4410    0.4712 H   0  0  0  0  0  0  0  0  0  0  0  0
    1.3458    1.1647   -2.9742 H   0  0  0  0  0  0  0  0  0  0  0  0
    2.9768    1.0452   -2.8362 H   0  0  0  0  0  0  0  0  0  0  0  0
  1  2  1  0  0  0  0 
  2  3  1  0  0  0  0 
  3  4  1  0  0  0  0 
  3  5  1  0  0  0  0 
  5  6  1  0  0  0  0 
  6  7  2  0  0  0  0 
  6  8  1  0  0  0  0 
  5  9  1  0  0  0  0 
  1 10  1  0  0  0  0 
  1 11  1  0  0  0  0 
  1 12  1  0  0  0  0 
  2 13  1  0  0  0  0 
  2 14  1  0  0  0  0 
  3 15  1  0  0  0  0 
  4 16  1  0  0  0  0 
  4 17  1  0  0  0  0 
  4 18  1  0  0  0  0 
  5 19  1  0  0  0  0 
  8 20  1  0  0  0  0 
  9 21  1  0  0  0  0 
  9 22  1  0  0  0  0 
M  END
> <cdk:Title>
isoleucine

> <Conformer>
1

> <SuperDrugID>
SD003372

$$$$
