propatylnitrate
  CDK     0628171801

 29 28  0  0  0  0  0  0  0  0999 V2000
   -0.2415    2.6875    0.3536 C   0  0  1  0  0  0  0  0  0  0  0  0
    0.0696    1.2199   -0.1112 C   0  0  1  0  0  0  0  0  0  0  0  0
    1.0001    3.2627    1.1246 C   0  0  1  0  0  0  0  0  0  0  0  0
   -0.4979    3.5739   -0.9217 C   0  0  1  0  0  0  0  0  0  0  0  0
   -1.5317    2.7248    1.2653 C   0  0  1  0  0  0  0  0  0  0  0  0
   -1.0662    0.6410   -0.7932 O   0  0  0  0  0  0  0  0  0  0  0  0
    0.7536    4.6178    1.5642 O   0  0  0  0  0  0  0  0  0  0  0  0
    0.6660    3.5912   -1.7786 O   0  0  0  0  0  0  0  0  0  0  0  0
   -1.5121    1.9139    2.5890 C   0  0  0  0  0  0  0  0  0  0  0  0
   -0.8656   -0.5636   -1.1743 N   0  0  0  0  0  0  0  0  0  0  0  0
    1.7178    5.1100    2.2457 N   0  0  0  0  0  0  0  0  0  0  0  0
    0.5202    4.2805   -2.8448 N   0  0  0  0  0  0  0  0  0  0  0  0
   -0.3050   -0.8064   -2.2857 O   0  0  0  0  0  0  0  0  0  0  0  0
   -1.2499   -1.4537   -0.5255 O   0  0  0  0  0  0  0  0  0  0  0  0
    1.7304    4.9961    3.5081 O   0  0  0  0  0  0  0  0  0  0  0  0
    2.5668    5.7150    1.7206 O   0  0  0  0  0  0  0  0  0  0  0  0
    0.8797    5.3899   -2.8812 O   0  0  0  0  0  0  0  0  0  0  0  0
    0.0590    3.7457   -3.8977 O   0  0  0  0  0  0  0  0  0  0  0  0
    0.9377    1.2228   -0.7797 H   0  0  0  0  0  0  0  0  0  0  0  0
    0.3335    0.6064    0.7564 H   0  0  0  0  0  0  0  0  0  0  0  0
    1.2330    2.6231    1.9820 H   0  0  0  0  0  0  0  0  0  0  0  0
    1.8772    3.2507    0.4679 H   0  0  0  0  0  0  0  0  0  0  0  0
   -1.3590    3.1863   -1.4761 H   0  0  0  0  0  0  0  0  0  0  0  0
   -0.7384    4.5983   -0.6184 H   0  0  0  0  0  0  0  0  0  0  0  0
   -1.7528    3.7613    1.5329 H   0  0  0  0  0  0  0  0  0  0  0  0
   -2.3891    2.3676    0.6890 H   0  0  0  0  0  0  0  0  0  0  0  0
   -0.7253    2.2675    3.2581 H   0  0  0  0  0  0  0  0  0  0  0  0
   -2.4695    2.0395    3.1003 H   0  0  0  0  0  0  0  0  0  0  0  0
   -1.3700    0.8484    2.3984 H   0  0  0  0  0  0  0  0  0  0  0  0
  1  2  1  0  0  0  0 
  1  3  1  0  0  0  0 
  1  4  1  0  0  0  0 
  1  5  1  0  0  0  0 
  2  6  1  0  0  0  0 
  3  7  1  0  0  0  0 
  4  8  1  0  0  0  0 
  5  9  1  0  0  0  0 
  6 10  1  0  0  0  0 
  7 11  1  0  0  0  0 
  8 12  1  0  0  0  0 
 10 13  1  0  0  0  0 
 10 14  2  0  0  0  0 
 11 15  1  0  0  0  0 
 11 16  2  0  0  0  0 
 12 17  2  0  0  0  0 
 12 18  1  0  0  0  0 
  2 19  1  0  0  0  0 
  2 20  1  0  0  0  0 
  3 21  1  0  0  0  0 
  3 22  1  0  0  0  0 
  4 23  1  0  0  0  0 
  4 24  1  0  0  0  0 
  5 25  1  0  0  0  0 
  5 26  1  0  0  0  0 
  9 27  1  0  0  0  0 
  9 28  1  0  0  0  0 
  9 29  1  0  0  0  0 
M  CHG  1  10   1
M  CHG  1  11   1
M  CHG  1  12   1
M  CHG  1  13  -1
M  CHG  1  15  -1
M  CHG  1  18  -1
M  END
> <cdk:Title>
propatylnitrate

> <Conformer>
1

> <SuperDrugID>
SD002060

$$$$
