fenoprofen
  CDK     0628171801

 32 33  0  0  0  0  0  0  0  0999 V2000
   -1.3566    3.2003   -5.1165 O   0  0  0  0  0  0  0  0  0  0  0  0
   -1.3939    2.5510   -3.9091 C   0  0  0  0  0  0  0  0  0  0  0  0
   -1.9582    2.4570   -6.0975 C   0  0  0  0  0  0  0  0  0  0  0  0
   -2.4736    2.7570   -3.0252 C   0  0  0  0  0  0  0  0  0  0  0  0
   -0.3456    1.6892   -3.5276 C   0  0  0  0  0  0  0  0  0  0  0  0
   -3.3372    2.6070   -6.3607 C   0  0  0  0  0  0  0  0  0  0  0  0
   -1.1997    1.5498   -6.8691 C   0  0  0  0  0  0  0  0  0  0  0  0
   -2.5417    2.0924   -1.7740 C   0  0  0  0  0  0  0  0  0  0  0  0
   -0.3938    1.0151   -2.2969 C   0  0  0  0  0  0  0  0  0  0  0  0
   -3.9586    1.8298   -7.3564 C   0  0  0  0  0  0  0  0  0  0  0  0
   -1.8197    0.7740   -7.8664 C   0  0  0  0  0  0  0  0  0  0  0  0
   -3.6989    2.2979   -0.8437 C   0  0  2  0  0  0  0  0  0  0  0  0
   -1.4833    1.2162   -1.4286 C   0  0  0  0  0  0  0  0  0  0  0  0
   -3.1996    0.9117   -8.1057 C   0  0  0  0  0  0  0  0  0  0  0  0
   -4.9493    1.7647   -1.4432 C   0  0  0  0  0  0  0  0  0  0  0  0
   -3.8433    3.7739   -0.3829 C   0  0  0  0  0  0  0  0  0  0  0  0
   -5.5015    0.6186   -0.9750 O   0  0  0  0  0  0  0  0  0  0  0  0
   -5.5215    2.3422   -2.3958 O   0  0  0  0  0  0  0  0  0  0  0  0
   -3.2200    3.3965   -3.3053 H   0  0  0  0  0  0  0  0  0  0  0  0
    0.4535    1.5471   -4.1478 H   0  0  0  0  0  0  0  0  0  0  0  0
   -3.8910    3.2783   -5.8237 H   0  0  0  0  0  0  0  0  0  0  0  0
   -0.1960    1.4492   -6.7017 H   0  0  0  0  0  0  0  0  0  0  0  0
    0.3632    0.3802   -2.0301 H   0  0  0  0  0  0  0  0  0  0  0  0
   -4.9606    1.9326   -7.5352 H   0  0  0  0  0  0  0  0  0  0  0  0
   -1.2677    0.1110   -8.4161 H   0  0  0  0  0  0  0  0  0  0  0  0
   -3.5285    1.7304    0.0759 H   0  0  0  0  0  0  0  0  0  0  0  0
   -1.4940    0.7150   -0.5363 H   0  0  0  0  0  0  0  0  0  0  0  0
   -3.6509    0.3456   -8.8270 H   0  0  0  0  0  0  0  0  0  0  0  0
   -4.6538    3.8698    0.3434 H   0  0  0  0  0  0  0  0  0  0  0  0
   -2.9197    4.1168    0.0905 H   0  0  0  0  0  0  0  0  0  0  0  0
   -4.0611    4.4340   -1.2239 H   0  0  0  0  0  0  0  0  0  0  0  0
   -6.3100    0.2495   -1.3906 H   0  0  0  0  0  0  0  0  0  0  0  0
  1  2  1  0  0  0  0 
  1  3  1  0  0  0  0 
  2  4  2  0  0  0  0 
  2  5  1  0  0  0  0 
  3  6  2  0  0  0  0 
  3  7  1  0  0  0  0 
  4  8  1  0  0  0  0 
  5  9  2  0  0  0  0 
  6 10  1  0  0  0  0 
  7 11  2  0  0  0  0 
 12  8  1  0  0  0  0 
  8 13  2  0  0  0  0 
  9 13  1  0  0  0  0 
 10 14  2  0  0  0  0 
 11 14  1  0  0  0  0 
 12 15  1  0  0  0  0 
 12 16  1  0  0  0  0 
 15 17  1  0  0  0  0 
 15 18  2  0  0  0  0 
  4 19  1  0  0  0  0 
  5 20  1  0  0  0  0 
  6 21  1  0  0  0  0 
  7 22  1  0  0  0  0 
  9 23  1  0  0  0  0 
 10 24  1  0  0  0  0 
 11 25  1  0  0  0  0 
 12 26  1  0  0  0  0 
 13 27  1  0  0  0  0 
 14 28  1  0  0  0  0 
 16 29  1  0  0  0  0 
 16 30  1  0  0  0  0 
 16 31  1  0  0  0  0 
 17 32  1  0  0  0  0 
M  END
> <cdk:Title>
fenoprofen

> <Conformer>
1

> <SuperDrugID>
SD001031

$$$$
