bornaprine
  CDK     0628171801

 55 57  0  0  0  0  0  0  0  0999 V2000
    0.1747   -2.2006    0.5304 C   0  0  0  0  0  0  0  0  0  0  0  0
   -0.4228   -3.3834    0.8725 O   0  0  0  0  0  0  0  0  0  0  0  0
    1.3447   -1.9601    0.9191 O   0  0  0  0  0  0  0  0  0  0  0  0
   -0.5507   -1.1779   -0.2919 C   0  0  1  0  0  0  0  0  0  0  0  0
    0.1546   -4.4169    1.6755 C   0  0  1  0  0  0  0  0  0  0  0  0
   -2.0686   -1.5503   -0.5538 C   0  0  1  0  0  0  0  0  0  0  0  0
   -0.7837    0.1205    0.5845 C   0  0  1  0  0  0  0  0  0  0  0  0
    0.2245   -1.0856   -1.5958 C   0  0  0  0  0  0  0  0  0  0  0  0
   -0.8758   -5.5456    1.9165 C   0  0  1  0  0  0  0  0  0  0  0  0
   -2.7933   -1.1768    0.7533 C   0  0  2  0  0  0  0  0  0  0  0  0
   -2.7630   -0.5913   -1.5681 C   0  0  2  0  0  0  0  0  0  0  0  0
   -2.3285    0.2776    0.6383 C   0  0  2  0  0  0  0  0  0  0  0  0
    0.9745    0.0475   -2.0141 C   0  0  0  0  0  0  0  0  0  0  0  0
    0.2099   -2.2039   -2.4770 C   0  0  0  0  0  0  0  0  0  0  0  0
   -0.2961   -6.6788    2.8024 C   0  0  2  0  0  0  0  0  0  0  0  0
   -2.8957    0.7087   -0.7415 C   0  0  2  0  0  0  0  0  0  0  0  0
    1.6057    0.0869   -3.2722 C   0  0  0  0  0  0  0  0  0  0  0  0
    0.8438   -2.1714   -3.7313 C   0  0  0  0  0  0  0  0  0  0  0  0
   -1.2462   -7.8377    2.9616 N   0  0  1  0  0  0  0  0  0  0  0  0
    1.5288   -1.0164   -4.1372 C   0  0  0  0  0  0  0  0  0  0  0  0
   -0.5614   -9.1765    2.9356 C   0  0  1  0  0  0  0  0  0  0  0  0
   -2.2087   -7.6334    4.1016 C   0  0  1  0  0  0  0  0  0  0  0  0
   -0.0583   -9.5752    1.5249 C   0  0  0  0  0  0  0  0  0  0  0  0
   -3.3995   -8.6204    4.1708 C   0  0  0  0  0  0  0  0  0  0  0  0
    1.0398   -4.8125    1.1689 H   0  0  0  0  0  0  0  0  0  0  0  0
    0.4603   -3.9899    2.6344 H   0  0  0  0  0  0  0  0  0  0  0  0
   -2.2349   -2.5971   -0.8240 H   0  0  0  0  0  0  0  0  0  0  0  0
   -0.4159    0.0064    1.6122 H   0  0  0  0  0  0  0  0  0  0  0  0
   -0.3396    1.0322    0.1932 H   0  0  0  0  0  0  0  0  0  0  0  0
   -1.7572   -5.1135    2.3934 H   0  0  0  0  0  0  0  0  0  0  0  0
   -1.1798   -5.9669    0.9556 H   0  0  0  0  0  0  0  0  0  0  0  0
   -2.4136   -1.6923    1.6415 H   0  0  0  0  0  0  0  0  0  0  0  0
   -3.8820   -1.2924    0.7073 H   0  0  0  0  0  0  0  0  0  0  0  0
   -3.7462   -0.9789   -1.8501 H   0  0  0  0  0  0  0  0  0  0  0  0
   -2.1859   -0.4404   -2.4815 H   0  0  0  0  0  0  0  0  0  0  0  0
   -2.6659    0.9111    1.4642 H   0  0  0  0  0  0  0  0  0  0  0  0
    1.0826    0.8701   -1.4242 H   0  0  0  0  0  0  0  0  0  0  0  0
   -0.2778   -3.0643   -2.2157 H   0  0  0  0  0  0  0  0  0  0  0  0
   -0.0154   -6.2748    3.7811 H   0  0  0  0  0  0  0  0  0  0  0  0
    0.6347   -6.9950    2.3283 H   0  0  0  0  0  0  0  0  0  0  0  0
   -3.9435    1.0105   -0.6540 H   0  0  0  0  0  0  0  0  0  0  0  0
   -2.3238    1.5312   -1.1784 H   0  0  0  0  0  0  0  0  0  0  0  0
    2.1222    0.9186   -3.5634 H   0  0  0  0  0  0  0  0  0  0  0  0
    0.8004   -2.9869   -4.3484 H   0  0  0  0  0  0  0  0  0  0  0  0
    1.9738   -0.9820   -5.0561 H   0  0  0  0  0  0  0  0  0  0  0  0
    0.2738   -9.1910    3.6420 H   0  0  0  0  0  0  0  0  0  0  0  0
   -1.2509   -9.9630    3.2373 H   0  0  0  0  0  0  0  0  0  0  0  0
   -1.6710   -7.6685    5.0521 H   0  0  0  0  0  0  0  0  0  0  0  0
   -2.6500   -6.6376    4.0145 H   0  0  0  0  0  0  0  0  0  0  0  0
    0.1684  -10.6434    1.4958 H   0  0  0  0  0  0  0  0  0  0  0  0
    0.8506   -9.0318    1.2639 H   0  0  0  0  0  0  0  0  0  0  0  0
   -0.8239   -9.3648    0.7757 H   0  0  0  0  0  0  0  0  0  0  0  0
   -4.1774   -8.2194    4.8258 H   0  0  0  0  0  0  0  0  0  0  0  0
   -3.0835   -9.5817    4.5799 H   0  0  0  0  0  0  0  0  0  0  0  0
   -3.8263   -8.7750    3.1784 H   0  0  0  0  0  0  0  0  0  0  0  0
  1  2  1  0  0  0  0 
  1  3  2  0  0  0  0 
  1  4  1  0  0  0  0 
  2  5  1  0  0  0  0 
  4  6  1  0  0  0  0 
  4  7  1  0  0  0  0 
  4  8  1  0  0  0  0 
  5  9  1  0  0  0  0 
  6 10  1  0  0  0  0 
  6 11  1  0  0  0  0 
  7 12  1  0  0  0  0 
  8 13  2  0  0  0  0 
  8 14  1  0  0  0  0 
  9 15  1  0  0  0  0 
 10 12  1  0  0  0  0 
 11 16  1  0  0  0  0 
 12 16  1  0  0  0  0 
 13 17  1  0  0  0  0 
 14 18  2  0  0  0  0 
 15 19  1  0  0  0  0 
 17 20  2  0  0  0  0 
 18 20  1  0  0  0  0 
 19 21  1  0  0  0  0 
 19 22  1  0  0  0  0 
 21 23  1  0  0  0  0 
 22 24  1  0  0  0  0 
  5 25  1  0  0  0  0 
  5 26  1  0  0  0  0 
  6 27  1  0  0  0  0 
  7 28  1  0  0  0  0 
  7 29  1  0  0  0  0 
  9 30  1  0  0  0  0 
  9 31  1  0  0  0  0 
 10 32  1  0  0  0  0 
 10 33  1  0  0  0  0 
 11 34  1  0  0  0  0 
 11 35  1  0  0  0  0 
 12 36  1  0  0  0  0 
 13 37  1  0  0  0  0 
 14 38  1  0  0  0  0 
 15 39  1  0  0  0  0 
 15 40  1  0  0  0  0 
 16 41  1  0  0  0  0 
 16 42  1  0  0  0  0 
 17 43  1  0  0  0  0 
 18 44  1  0  0  0  0 
 20 45  1  0  0  0  0 
 21 46  1  0  0  0  0 
 21 47  1  0  0  0  0 
 22 48  1  0  0  0  0 
 22 49  1  0  0  0  0 
 23 50  1  0  0  0  0 
 23 51  1  0  0  0  0 
 23 52  1  0  0  0  0 
 24 53  1  0  0  0  0 
 24 54  1  0  0  0  0 
 24 55  1  0  0  0  0 
M  END
> <cdk:Title>
bornaprine

> <Conformer>
1

> <SuperDrugID>
SD000332

$$$$
