thalidomide
  CDK     0628171801

 29 31  0  0  0  0  0  0  0  0999 V2000
    1.2437    0.2023   -0.0669 O   0  0  0  0  0  0  0  0  0  0  0  0
   -0.0077    0.1423   -0.0691 C   0  0  0  0  0  0  0  0  0  0  0  0
   -0.7704   -0.9117    0.3492 N   0  0  0  0  0  0  0  0  0  0  0  0
   -0.8470    1.1784   -0.4677 C   0  0  0  0  0  0  0  0  0  0  0  0
   -2.0848   -0.5627    0.2061 C   0  0  0  0  0  0  0  0  0  0  0  0
   -0.2533   -2.1410    0.9172 C   0  0  2  0  0  0  0  0  0  0  0  0
   -2.1541    0.7312   -0.3069 C   0  0  0  0  0  0  0  0  0  0  0  0
   -0.5736    2.4755   -0.9409 C   0  0  0  0  0  0  0  0  0  0  0  0
   -3.0771   -1.2688    0.4989 O   0  0  0  0  0  0  0  0  0  0  0  0
   -0.8524   -3.4095    0.4104 C   0  0  0  0  0  0  0  0  0  0  0  0
   -0.3770   -2.0734    2.4677 C   0  0  1  0  0  0  0  0  0  0  0  0
   -3.2497    1.5542   -0.6308 C   0  0  0  0  0  0  0  0  0  0  0  0
   -1.6627    3.3060   -1.2858 C   0  0  0  0  0  0  0  0  0  0  0  0
   -1.2957   -3.4914   -0.7571 O   0  0  0  0  0  0  0  0  0  0  0  0
   -0.8820   -4.5351    1.1793 N   0  0  0  0  0  0  0  0  0  0  0  0
    0.1049   -3.3800    3.1502 C   0  0  1  0  0  0  0  0  0  0  0  0
   -2.9922    2.8472   -1.1360 C   0  0  0  0  0  0  0  0  0  0  0  0
   -0.4220   -4.5800    2.4593 C   0  0  0  0  0  0  0  0  0  0  0  0
   -0.4369   -5.6793    3.0569 O   0  0  0  0  0  0  0  0  0  0  0  0
    0.8137   -2.2277    0.6888 H   0  0  0  0  0  0  0  0  0  0  0  0
    0.3896    2.8090   -1.0311 H   0  0  0  0  0  0  0  0  0  0  0  0
    0.2167   -1.2355    2.8463 H   0  0  0  0  0  0  0  0  0  0  0  0
   -1.4216   -1.9018    2.7491 H   0  0  0  0  0  0  0  0  0  0  0  0
   -4.2089    1.2242   -0.5048 H   0  0  0  0  0  0  0  0  0  0  0  0
   -1.4881    4.2443   -1.6505 H   0  0  0  0  0  0  0  0  0  0  0  0
   -1.2451   -5.3514    0.7968 H   0  0  0  0  0  0  0  0  0  0  0  0
    1.1962   -3.4139    3.1404 H   0  0  0  0  0  0  0  0  0  0  0  0
   -0.2263   -3.3779    4.1923 H   0  0  0  0  0  0  0  0  0  0  0  0
   -3.7722    3.4553   -1.3942 H   0  0  0  0  0  0  0  0  0  0  0  0
  1  2  2  0  0  0  0 
  2  3  1  0  0  0  0 
  2  4  1  0  0  0  0 
  3  5  1  0  0  0  0 
  6  3  1  0  0  0  0 
  4  7  2  0  0  0  0 
  4  8  1  0  0  0  0 
  5  7  1  0  0  0  0 
  5  9  2  0  0  0  0 
  6 10  1  0  0  0  0 
  6 11  1  0  0  0  0 
  7 12  1  0  0  0  0 
  8 13  2  0  0  0  0 
 10 14  2  0  0  0  0 
 10 15  1  0  0  0  0 
 11 16  1  0  0  0  0 
 12 17  2  0  0  0  0 
 13 17  1  0  0  0  0 
 15 18  1  0  0  0  0 
 16 18  1  0  0  0  0 
 18 19  2  0  0  0  0 
  6 20  1  0  0  0  0 
  8 21  1  0  0  0  0 
 11 22  1  0  0  0  0 
 11 23  1  0  0  0  0 
 12 24  1  0  0  0  0 
 13 25  1  0  0  0  0 
 15 26  1  0  0  0  0 
 16 27  1  0  0  0  0 
 16 28  1  0  0  0  0 
 17 29  1  0  0  0  0 
M  END
> <cdk:Title>
thalidomide

> <Conformer>
1

> <SuperDrugID>
SD002354

$$$$
