olaparib
  CDK     0628171802

 55 59  0  0  0  0  0  0  0  0999 V2000
    7.7626    1.2299   -4.3205 C   0  0  0  0  0  0  0  0  0  0  0  0
    8.7704    0.7531   -5.1721 C   0  0  0  0  0  0  0  0  0  0  0  0
    8.5026    0.5721   -6.5390 C   0  0  0  0  0  0  0  0  0  0  0  0
    7.2177    0.8590   -7.0640 C   0  0  0  0  0  0  0  0  0  0  0  0
    6.1746    1.3077   -6.1963 C   0  0  0  0  0  0  0  0  0  0  0  0
    6.4796    1.5026   -4.8261 C   0  0  0  0  0  0  0  0  0  0  0  0
    6.9329    0.7169   -8.4420 C   0  0  0  0  0  0  0  0  0  0  0  0
    5.6863    0.9903   -8.8939 N   0  0  0  0  0  0  0  0  0  0  0  0
    4.7295    1.3668   -8.0906 N   0  0  0  0  0  0  0  0  0  0  0  0
    4.8823    1.5383   -6.7507 C   0  0  0  0  0  0  0  0  0  0  0  0
    7.7888    0.3495   -9.2794 O   0  0  0  0  0  0  0  0  0  0  0  0
    3.6596    1.8949   -5.9794 C   0  0  2  0  0  0  0  0  0  0  0  0
    3.0965    0.6753   -5.3388 C   0  0  0  0  0  0  0  0  0  0  0  0
    2.4547   -0.3004   -6.1362 C   0  0  0  0  0  0  0  0  0  0  0  0
    1.9758   -1.4898   -5.5675 C   0  0  0  0  0  0  0  0  0  0  0  0
    2.1504   -1.7351   -4.1958 C   0  0  0  0  0  0  0  0  0  0  0  0
    2.7813   -0.7737   -3.3659 C   0  0  0  0  0  0  0  0  0  0  0  0
    3.2070    0.4456   -3.9465 C   0  0  0  0  0  0  0  0  0  0  0  0
    1.7184   -2.8767   -3.7244 F   0  0  0  0  0  0  0  0  0  0  0  0
    2.9496   -1.0301   -1.9785 C   0  0  0  0  0  0  0  0  0  0  0  0
    1.8876   -1.3639   -1.3986 O   0  0  0  0  0  0  0  0  0  0  0  0
    4.1397   -0.9608   -1.2567 N   0  0  0  0  0  0  0  0  0  0  0  0
    5.4335   -0.6036   -1.8259 C   0  0  1  0  0  0  0  0  0  0  0  0
    6.5528   -1.6199   -1.4512 C   0  0  1  0  0  0  0  0  0  0  0  0
    6.4743   -2.0051   -0.0514 N   0  0  0  0  0  0  0  0  0  0  0  0
    5.1650   -2.4641    0.3668 C   0  0  2  0  0  0  0  0  0  0  0  0
    4.1674   -1.3016    0.1562 C   0  0  1  0  0  0  0  0  0  0  0  0
    7.5559   -1.9110    0.8169 C   0  0  0  0  0  0  0  0  0  0  0  0
    7.5083   -2.2942    2.2496 C   0  0  2  0  0  0  0  0  0  0  0  0
    8.6741   -1.5110    0.4143 O   0  0  0  0  0  0  0  0  0  0  0  0
    6.5959   -1.4449    3.1608 C   0  0  1  0  0  0  0  0  0  0  0  0
    8.1141   -1.3791    3.3345 C   0  0  1  0  0  0  0  0  0  0  0  0
    7.9653    1.3812   -3.3306 H   0  0  0  0  0  0  0  0  0  0  0  0
    9.7003    0.5454   -4.7980 H   0  0  0  0  0  0  0  0  0  0  0  0
    9.2554    0.2294   -7.1440 H   0  0  0  0  0  0  0  0  0  0  0  0
    5.7808    1.8557   -4.1741 H   0  0  0  0  0  0  0  0  0  0  0  0
    5.4946    0.8916   -9.8407 H   0  0  0  0  0  0  0  0  0  0  0  0
    2.8969    2.3167   -6.6397 H   0  0  0  0  0  0  0  0  0  0  0  0
    3.8862    2.6811   -5.2567 H   0  0  0  0  0  0  0  0  0  0  0  0
    2.3317   -0.1518   -7.1403 H   0  0  0  0  0  0  0  0  0  0  0  0
    1.5067   -2.1823   -6.1561 H   0  0  0  0  0  0  0  0  0  0  0  0
    3.6181    1.1691   -3.3503 H   0  0  0  0  0  0  0  0  0  0  0  0
    5.4191   -0.5460   -2.9141 H   0  0  0  0  0  0  0  0  0  0  0  0
    5.7154    0.3849   -1.4491 H   0  0  0  0  0  0  0  0  0  0  0  0
    6.4297   -2.5196   -2.0601 H   0  0  0  0  0  0  0  0  0  0  0  0
    7.5160   -1.1802   -1.7277 H   0  0  0  0  0  0  0  0  0  0  0  0
    5.1064   -2.7879    1.4045 H   0  0  0  0  0  0  0  0  0  0  0  0
    4.8644   -3.3236   -0.2410 H   0  0  0  0  0  0  0  0  0  0  0  0
    4.4902   -0.4312    0.7334 H   0  0  0  0  0  0  0  0  0  0  0  0
    3.2028   -1.6098    0.5665 H   0  0  0  0  0  0  0  0  0  0  0  0
    7.5011   -3.3641    2.4815 H   0  0  0  0  0  0  0  0  0  0  0  0
    6.1380   -0.5582    2.7153 H   0  0  0  0  0  0  0  0  0  0  0  0
    6.0381   -2.0067    3.9151 H   0  0  0  0  0  0  0  0  0  0  0  0
    8.4786   -1.8676    4.2397 H   0  0  0  0  0  0  0  0  0  0  0  0
    8.5690   -0.4353    3.0224 H   0  0  0  0  0  0  0  0  0  0  0  0
  1  2  2  0  0  0  0 
  1  6  1  0  0  0  0 
  2  3  1  0  0  0  0 
  3  4  2  0  0  0  0 
  4  5  1  0  0  0  0 
  5  6  2  0  0  0  0 
  7  8  1  0  0  0  0 
  8  9  1  0  0  0  0 
  9 10  2  0  0  0  0 
  4  7  1  0  0  0  0 
  5 10  1  0  0  0  0 
  7 11  2  0  0  0  0 
 10 12  1  0  0  0  0 
 12 13  1  0  0  0  0 
 14 15  1  0  0  0  0 
 15 16  2  0  0  0  0 
 16 17  1  0  0  0  0 
 17 18  2  0  0  0  0 
 13 14  2  0  0  0  0 
 13 18  1  0  0  0  0 
 16 19  1  0  0  0  0 
 17 20  1  0  0  0  0 
 20 21  2  0  0  0  0 
 20 22  1  0  0  0  0 
 23 24  1  0  0  0  0 
 24 25  1  0  0  0  0 
 25 26  1  0  0  0  0 
 26 27  1  0  0  0  0 
 22 23  1  0  0  0  0 
 22 27  1  0  0  0  0 
 25 28  1  0  0  0  0 
 28 29  1  0  0  0  0 
 28 30  2  0  0  0  0 
 31 32  1  0  0  0  0 
 29 31  1  0  0  0  0 
 32 29  1  0  0  0  0 
 33  1  1  0  0  0  0 
 34  2  1  0  0  0  0 
 35  3  1  0  0  0  0 
 36  6  1  0  0  0  0 
 37  8  1  0  0  0  0 
 38 12  1  0  0  0  0 
 39 12  1  0  0  0  0 
 40 14  1  0  0  0  0 
 41 15  1  0  0  0  0 
 42 18  1  0  0  0  0 
 43 23  1  0  0  0  0 
 44 23  1  0  0  0  0 
 45 24  1  0  0  0  0 
 46 24  1  0  0  0  0 
 47 26  1  0  0  0  0 
 48 26  1  0  0  0  0 
 49 27  1  0  0  0  0 
 50 27  1  0  0  0  0 
 51 29  1  0  0  0  0 
 52 31  1  0  0  0  0 
 53 31  1  0  0  0  0 
 54 32  1  0  0  0  0 
 55 32  1  0  0  0  0 
M  END
> <cdk:Title>
olaparib

> <Conformer>
1

> <SuperDrugID>
SD003842

$$$$
