chloroquine
  CDK     0628171802

 48 49  0  0  0  0  0  0  0  0999 V2000
    4.1519    0.3698   -0.8303 N   0  0  0  0  0  0  0  0  0  0  0  0
    3.2557   -0.7560   -0.8890 C   0  0  2  0  0  0  0  0  0  0  0  0
    3.8734    1.7158   -0.8965 C   0  0  0  0  0  0  0  0  0  0  0  0
    3.8575   -1.9533   -0.0888 C   0  0  1  0  0  0  0  0  0  0  0  0
    3.0042   -1.1336   -2.3719 C   0  0  0  0  0  0  0  0  0  0  0  0
    4.9430    2.6603   -0.9239 C   0  0  0  0  0  0  0  0  0  0  0  0
    2.5437    2.2054   -0.9359 C   0  0  0  0  0  0  0  0  0  0  0  0
    3.9404   -1.6753    1.4385 C   0  0  2  0  0  0  0  0  0  0  0  0
    4.6240    4.0495   -0.9767 C   0  0  0  0  0  0  0  0  0  0  0  0
    6.3158    2.3021   -0.9076 C   0  0  0  0  0  0  0  0  0  0  0  0
    2.2947    3.5861   -0.9785 C   0  0  0  0  0  0  0  0  0  0  0  0
    4.4159   -2.8802    2.3037 C   0  0  1  0  0  0  0  0  0  0  0  0
    3.3299    4.4529   -0.9995 N   0  0  0  0  0  0  0  0  0  0  0  0
    5.6359    5.0291   -1.0157 C   0  0  0  0  0  0  0  0  0  0  0  0
    7.3259    3.2825   -0.9494 C   0  0  0  0  0  0  0  0  0  0  0  0
    5.7564   -3.4992    2.0025 N   0  0  1  0  0  0  0  0  0  0  0  0
    6.9888    4.6468   -1.0045 C   0  0  0  0  0  0  0  0  0  0  0  0
    6.9260   -2.5538    2.0683 C   0  0  2  0  0  0  0  0  0  0  0  0
    5.9570   -4.7570    2.8148 C   0  0  2  0  0  0  0  0  0  0  0  0
    8.2041    5.8237   -1.0510 Cl  0  0  0  0  0  0  0  0  0  0  0  0
    7.8270   -2.6994    0.8206 C   0  0  0  0  0  0  0  0  0  0  0  0
    7.1755   -5.6297    2.4310 C   0  0  0  0  0  0  0  0  0  0  0  0
    5.0870    0.1342   -0.7587 H   0  0  0  0  0  0  0  0  0  0  0  0
    2.2916   -0.5197   -0.4328 H   0  0  0  0  0  0  0  0  0  0  0  0
    3.2304   -2.8355   -0.2412 H   0  0  0  0  0  0  0  0  0  0  0  0
    4.8514   -2.1875   -0.4762 H   0  0  0  0  0  0  0  0  0  0  0  0
    2.5052   -0.3137   -2.8913 H   0  0  0  0  0  0  0  0  0  0  0  0
    3.9443   -1.3457   -2.8851 H   0  0  0  0  0  0  0  0  0  0  0  0
    2.3671   -2.0175   -2.4381 H   0  0  0  0  0  0  0  0  0  0  0  0
    1.7409    1.5777   -0.9323 H   0  0  0  0  0  0  0  0  0  0  0  0
    2.9410   -1.3976    1.7901 H   0  0  0  0  0  0  0  0  0  0  0  0
    4.5772   -0.8100    1.6206 H   0  0  0  0  0  0  0  0  0  0  0  0
    6.6065    1.3241   -0.8689 H   0  0  0  0  0  0  0  0  0  0  0  0
    1.3382    3.9445   -0.9942 H   0  0  0  0  0  0  0  0  0  0  0  0
    4.4038   -2.5615    3.3509 H   0  0  0  0  0  0  0  0  0  0  0  0
    3.6447   -3.6490    2.1915 H   0  0  0  0  0  0  0  0  0  0  0  0
    5.3866    6.0218   -1.0533 H   0  0  0  0  0  0  0  0  0  0  0  0
    8.3092    2.9966   -0.9430 H   0  0  0  0  0  0  0  0  0  0  0  0
    7.5239   -2.7165    2.9699 H   0  0  0  0  0  0  0  0  0  0  0  0
    6.6203   -1.5087    2.1118 H   0  0  0  0  0  0  0  0  0  0  0  0
    5.0800   -5.4037    2.7136 H   0  0  0  0  0  0  0  0  0  0  0  0
    6.0450   -4.4969    3.8745 H   0  0  0  0  0  0  0  0  0  0  0  0
    8.7258   -2.0934    0.9458 H   0  0  0  0  0  0  0  0  0  0  0  0
    7.2954   -2.3586   -0.0681 H   0  0  0  0  0  0  0  0  0  0  0  0
    8.1317   -3.7324    0.6604 H   0  0  0  0  0  0  0  0  0  0  0  0
    7.1860   -6.5414    3.0310 H   0  0  0  0  0  0  0  0  0  0  0  0
    8.1097   -5.0983    2.6164 H   0  0  0  0  0  0  0  0  0  0  0  0
    7.1195   -5.9094    1.3786 H   0  0  0  0  0  0  0  0  0  0  0  0
  2  1  1  0  0  0  0 
  1  3  1  0  0  0  0 
  2  4  1  0  0  0  0 
  2  5  1  0  0  0  0 
  3  6  2  0  0  0  0 
  3  7  1  0  0  0  0 
  4  8  1  0  0  0  0 
  6  9  1  0  0  0  0 
  6 10  1  0  0  0  0 
  7 11  2  0  0  0  0 
  8 12  1  0  0  0  0 
  9 13  2  0  0  0  0 
  9 14  1  0  0  0  0 
 10 15  2  0  0  0  0 
 11 13  1  0  0  0  0 
 12 16  1  0  0  0  0 
 14 17  2  0  0  0  0 
 15 17  1  0  0  0  0 
 16 18  1  0  0  0  0 
 16 19  1  0  0  0  0 
 17 20  1  0  0  0  0 
 18 21  1  0  0  0  0 
 19 22  1  0  0  0  0 
  1 23  1  0  0  0  0 
  2 24  1  0  0  0  0 
  4 25  1  0  0  0  0 
  4 26  1  0  0  0  0 
  5 27  1  0  0  0  0 
  5 28  1  0  0  0  0 
  5 29  1  0  0  0  0 
  7 30  1  0  0  0  0 
  8 31  1  0  0  0  0 
  8 32  1  0  0  0  0 
 10 33  1  0  0  0  0 
 11 34  1  0  0  0  0 
 12 35  1  0  0  0  0 
 12 36  1  0  0  0  0 
 14 37  1  0  0  0  0 
 15 38  1  0  0  0  0 
 18 39  1  0  0  0  0 
 18 40  1  0  0  0  0 
 19 41  1  0  0  0  0 
 19 42  1  0  0  0  0 
 21 43  1  0  0  0  0 
 21 44  1  0  0  0  0 
 21 45  1  0  0  0  0 
 22 46  1  0  0  0  0 
 22 47  1  0  0  0  0 
 22 48  1  0  0  0  0 
M  END
> <cdk:Title>
chloroquine

> <Conformer>
1

> <SuperDrugID>
SD000529

$$$$
