methscopolamine
  CDK     0628171801

 47 50  0  0  0  0  0  0  0  0999 V2000
   -0.8152   -5.3347    1.8200 C   0  0  0  0  0  0  0  0  0  0  0  0
   -1.3397   -4.8760    0.4622 N   0  0  1  0  0  0  0  0  0  0  0  0
   -1.8821   -6.1607   -0.1585 C   0  0  0  0  0  0  0  0  0  0  0  0
   -2.3634   -3.7604    0.5079 C   0  0  2  0  0  0  0  0  0  0  0  0
   -0.3320   -4.1610   -0.4143 C   0  0  1  0  0  0  0  0  0  0  0  0
   -2.4769   -3.1744   -0.9350 C   0  0  1  0  0  0  0  0  0  0  0  0
   -1.9229   -2.5845    1.4515 C   0  0  1  0  0  0  0  0  0  0  0  0
   -1.1235   -3.4512   -1.5560 C   0  0  2  0  0  0  0  0  0  0  0  0
    0.4451   -3.0302    0.3532 C   0  0  1  0  0  0  0  0  0  0  0  0
   -2.3356   -3.9668   -2.1173 O   0  0  0  0  0  0  0  0  0  0  0  0
   -0.5093   -2.0025    1.0722 C   0  0  1  0  0  0  0  0  0  0  0  0
   -0.7637   -0.8390    0.2677 O   0  0  0  0  0  0  0  0  0  0  0  0
    0.0782    0.1472   -0.1718 C   0  0  0  0  0  0  0  0  0  0  0  0
   -0.4692    1.3138   -0.9214 C   0  0  2  0  0  0  0  0  0  0  0  0
    1.3113    0.0652    0.0385 O   0  0  0  0  0  0  0  0  0  0  0  0
    0.0480    2.6663   -0.3452 C   0  0  1  0  0  0  0  0  0  0  0  0
   -1.9693    1.2827   -0.9996 C   0  0  0  0  0  0  0  0  0  0  0  0
   -0.5914    3.7864   -0.9556 O   0  0  0  0  0  0  0  0  0  0  0  0
   -2.7637    1.4106    0.1683 C   0  0  0  0  0  0  0  0  0  0  0  0
   -2.6283    1.1003   -2.2397 C   0  0  0  0  0  0  0  0  0  0  0  0
   -4.1665    1.3309    0.1019 C   0  0  0  0  0  0  0  0  0  0  0  0
   -4.0307    1.0118   -2.3064 C   0  0  0  0  0  0  0  0  0  0  0  0
   -4.8003    1.1240   -1.1349 C   0  0  0  0  0  0  0  0  0  0  0  0
   -1.6238   -5.7487    2.4288 H   0  0  0  0  0  0  0  0  0  0  0  0
   -0.0448   -6.1037    1.7106 H   0  0  0  0  0  0  0  0  0  0  0  0
   -0.3618   -4.5523    2.4220 H   0  0  0  0  0  0  0  0  0  0  0  0
   -2.7230   -6.5441    0.4280 H   0  0  0  0  0  0  0  0  0  0  0  0
   -2.2439   -6.0726   -1.1770 H   0  0  0  0  0  0  0  0  0  0  0  0
   -1.1168   -6.9430   -0.1937 H   0  0  0  0  0  0  0  0  0  0  0  0
   -3.3433   -4.1261    0.8298 H   0  0  0  0  0  0  0  0  0  0  0  0
    0.3908   -4.8578   -0.8498 H   0  0  0  0  0  0  0  0  0  0  0  0
   -2.8202   -2.1477   -1.0864 H   0  0  0  0  0  0  0  0  0  0  0  0
   -2.6861   -1.7993    1.4226 H   0  0  0  0  0  0  0  0  0  0  0  0
   -1.9214   -2.9277    2.4885 H   0  0  0  0  0  0  0  0  0  0  0  0
   -0.6939   -2.5816   -2.0615 H   0  0  0  0  0  0  0  0  0  0  0  0
    1.1123   -3.4846    1.0871 H   0  0  0  0  0  0  0  0  0  0  0  0
    1.1065   -2.5109   -0.3444 H   0  0  0  0  0  0  0  0  0  0  0  0
   -0.0262   -1.6526    1.9880 H   0  0  0  0  0  0  0  0  0  0  0  0
   -0.0534    1.2359   -1.9303 H   0  0  0  0  0  0  0  0  0  0  0  0
   -0.1197    2.7220    0.7317 H   0  0  0  0  0  0  0  0  0  0  0  0
    1.1210    2.7636   -0.5274 H   0  0  0  0  0  0  0  0  0  0  0  0
   -0.2232    4.5714   -0.4978 H   0  0  0  0  0  0  0  0  0  0  0  0
   -2.3220    1.5521    1.0797 H   0  0  0  0  0  0  0  0  0  0  0  0
   -2.0913    1.0230   -3.1057 H   0  0  0  0  0  0  0  0  0  0  0  0
   -4.7267    1.4200    0.9531 H   0  0  0  0  0  0  0  0  0  0  0  0
   -4.4914    0.8627   -3.2072 H   0  0  0  0  0  0  0  0  0  0  0  0
   -5.8199    1.0541   -1.1838 H   0  0  0  0  0  0  0  0  0  0  0  0
  1  2  1  0  0  0  0 
  2  3  1  0  0  0  0 
  4  2  1  0  0  0  0 
  6  4  1  0  0  0  0 
  4  7  1  0  0  0  0 
  5  2  1  0  0  0  0 
  8  5  1  0  0  0  0 
  5  9  1  0  0  0  0 
  8  6  1  0  0  0  0 
  6 10  1  0  0  0  0 
 11  7  1  0  0  0  0 
  8 10  1  0  0  0  0 
 11  9  1  0  0  0  0 
 11 12  1  0  0  0  0 
 12 13  1  0  0  0  0 
 14 13  1  0  0  0  0 
 13 15  2  0  0  0  0 
 14 16  1  0  0  0  0 
 14 17  1  0  0  0  0 
 16 18  1  0  0  0  0 
 17 19  2  0  0  0  0 
 17 20  1  0  0  0  0 
 19 21  1  0  0  0  0 
 20 22  2  0  0  0  0 
 21 23  2  0  0  0  0 
 22 23  1  0  0  0  0 
  1 24  1  0  0  0  0 
  1 25  1  0  0  0  0 
  1 26  1  0  0  0  0 
  3 27  1  0  0  0  0 
  3 28  1  0  0  0  0 
  3 29  1  0  0  0  0 
  4 30  1  0  0  0  0 
  5 31  1  0  0  0  0 
  6 32  1  0  0  0  0 
  7 33  1  0  0  0  0 
  7 34  1  0  0  0  0 
  8 35  1  0  0  0  0 
  9 36  1  0  0  0  0 
  9 37  1  0  0  0  0 
 11 38  1  0  0  0  0 
 14 39  1  0  0  0  0 
 16 40  1  0  0  0  0 
 16 41  1  0  0  0  0 
 18 42  1  0  0  0  0 
 19 43  1  0  0  0  0 
 20 44  1  0  0  0  0 
 21 45  1  0  0  0  0 
 22 46  1  0  0  0  0 
 23 47  1  0  0  0  0 
M  CHG  1   2   1
M  END
> <cdk:Title>
methscopolamine

> <Conformer>
1

> <SuperDrugID>
SD001557

$$$$
