acediasulfone
  CDK     0628171801

 35 36  0  0  0  0  0  0  0  0999 V2000
   -2.8128    1.7699   -5.2883 S   0  0  1  0  0  0  0  0  0  0  0  0
   -2.3613    2.3259   -6.7258 O   0  0  0  0  0  0  0  0  0  0  0  0
   -3.0971    0.1948   -5.4209 O   0  0  0  0  0  0  0  0  0  0  0  0
   -1.5216    2.0818   -4.1090 C   0  0  0  0  0  0  0  0  0  0  0  0
   -4.2709    2.6192   -4.7330 C   0  0  0  0  0  0  0  0  0  0  0  0
   -0.9986    3.3850   -3.9964 C   0  0  0  0  0  0  0  0  0  0  0  0
   -1.0553    1.0676   -3.2496 C   0  0  0  0  0  0  0  0  0  0  0  0
   -4.4885    3.9656   -5.0916 C   0  0  0  0  0  0  0  0  0  0  0  0
   -5.1819    1.9742   -3.8693 C   0  0  0  0  0  0  0  0  0  0  0  0
   -0.0319    3.6791   -3.0194 C   0  0  0  0  0  0  0  0  0  0  0  0
   -0.0891    1.3636   -2.2706 C   0  0  0  0  0  0  0  0  0  0  0  0
   -5.5914    4.6687   -4.5717 C   0  0  0  0  0  0  0  0  0  0  0  0
   -6.2864    2.6768   -3.3528 C   0  0  0  0  0  0  0  0  0  0  0  0
    0.4315    2.6703   -2.1412 C   0  0  0  0  0  0  0  0  0  0  0  0
   -6.4879    4.0295   -3.6927 C   0  0  0  0  0  0  0  0  0  0  0  0
    1.3620    2.8727   -1.1647 N   0  0  0  0  0  0  0  0  0  0  0  0
   -7.5273    4.7143   -3.1750 N   0  0  0  0  0  0  0  0  0  0  0  0
    2.0774    4.0795   -0.9068 C   0  0  2  0  0  0  0  0  0  0  0  0
    3.0828    3.8523    0.1407 C   0  0  0  0  0  0  0  0  0  0  0  0
    4.3987    4.0071   -0.1317 O   0  0  0  0  0  0  0  0  0  0  0  0
    2.7381    3.5066    1.2927 O   0  0  0  0  0  0  0  0  0  0  0  0
   -1.3261    4.1300   -4.6170 H   0  0  0  0  0  0  0  0  0  0  0  0
   -1.4171    0.1144   -3.3189 H   0  0  0  0  0  0  0  0  0  0  0  0
   -3.8399    4.4471   -5.7181 H   0  0  0  0  0  0  0  0  0  0  0  0
   -5.0383    0.9985   -3.6007 H   0  0  0  0  0  0  0  0  0  0  0  0
    0.3222    4.6354   -2.9553 H   0  0  0  0  0  0  0  0  0  0  0  0
    0.2348    0.6182   -1.6481 H   0  0  0  0  0  0  0  0  0  0  0  0
   -5.7299    5.6481   -4.8311 H   0  0  0  0  0  0  0  0  0  0  0  0
   -6.9354    2.1994   -2.7222 H   0  0  0  0  0  0  0  0  0  0  0  0
    1.5565    2.1158   -0.5906 H   0  0  0  0  0  0  0  0  0  0  0  0
   -8.1437    4.2781   -2.5650 H   0  0  0  0  0  0  0  0  0  0  0  0
   -7.6568    5.6483   -3.4057 H   0  0  0  0  0  0  0  0  0  0  0  0
    1.3875    4.8629   -0.5850 H   0  0  0  0  0  0  0  0  0  0  0  0
    2.5769    4.4081   -1.8205 H   0  0  0  0  0  0  0  0  0  0  0  0
    5.0722    3.8396    0.5577 H   0  0  0  0  0  0  0  0  0  0  0  0
  1  2  2  0  0  0  0 
  1  3  2  0  0  0  0 
  1  4  1  0  0  0  0 
  1  5  1  0  0  0  0 
  4  6  2  0  0  0  0 
  4  7  1  0  0  0  0 
  5  8  2  0  0  0  0 
  5  9  1  0  0  0  0 
  6 10  1  0  0  0  0 
  7 11  2  0  0  0  0 
  8 12  1  0  0  0  0 
  9 13  2  0  0  0  0 
 10 14  2  0  0  0  0 
 11 14  1  0  0  0  0 
 12 15  2  0  0  0  0 
 13 15  1  0  0  0  0 
 14 16  1  0  0  0  0 
 15 17  1  0  0  0  0 
 16 18  1  0  0  0  0 
 18 19  1  0  0  0  0 
 19 20  1  0  0  0  0 
 19 21  2  0  0  0  0 
  6 22  1  0  0  0  0 
  7 23  1  0  0  0  0 
  8 24  1  0  0  0  0 
  9 25  1  0  0  0  0 
 10 26  1  0  0  0  0 
 11 27  1  0  0  0  0 
 12 28  1  0  0  0  0 
 13 29  1  0  0  0  0 
 16 30  1  0  0  0  0 
 17 31  1  0  0  0  0 
 17 32  1  0  0  0  0 
 18 33  1  0  0  0  0 
 18 34  1  0  0  0  0 
 20 35  1  0  0  0  0 
M  END
> <cdk:Title>
acediasulfone

> <Conformer>
1

> <SuperDrugID>
SD000021

$$$$
