zabofloxacin
  Mrv0541 09131710093D             227.37312

 49 53  0  0  0  0            999 V2000
    1.5268   -0.0254   -0.0331 C   0  0  0  0  0  0  0  0  0  0  0  0
    0.0923   -0.0768   -0.0912 O   0  0  0  0  0  0  0  0  0  0  0  0
   -0.4022    0.5095    0.9327 N   0  0  0  0  0  0  0  0  0  0  0  0
   -1.6540    0.6739    1.1780 C   0  0  0  0  0  0  0  0  0  0  0  0
   -2.7297    0.2166    0.3331 C   0  0  1  0  0  0  0  0  0  0  0  0
   -3.9334    0.7017    0.9434 N   0  0  0  0  0  0  0  0  0  0  0  0
   -3.6768    1.2996    2.2194 C   0  0  1  0  0  0  0  0  0  0  0  0
   -2.1347    1.3594    2.3595 C   0  0  1  0  0  0  0  0  0  0  0  0
   -1.5465    0.9237    3.7227 C   0  0  2  0  0  0  0  0  0  0  0  0
   -1.0097    2.2781    3.9535 N   0  0  1  0  0  0  0  0  0  0  0  0
   -1.5253    2.7517    2.6551 C   0  0  1  0  0  0  0  0  0  0  0  0
   -5.1887    0.5951    0.3547 C   0  0  0  0  0  0  0  0  0  0  0  0
   -5.2824    0.0769   -0.9044 N   0  0  0  0  0  0  0  0  0  0  0  0
   -6.4198   -0.0315   -1.6502 C   0  0  0  0  0  0  0  0  0  0  0  0
   -7.6276    0.4636   -1.0952 C   0  0  0  0  0  0  0  0  0  0  0  0
   -7.6005    0.9705    0.2221 C   0  0  0  0  0  0  0  0  0  0  0  0
   -6.4043    1.0162    0.9554 C   0  0  0  0  0  0  0  0  0  0  0  0
   -6.4902    1.4676    2.1774 F   0  0  0  0  0  0  0  0  0  0  0  0
   -8.8065    0.4306   -1.8751 C   0  0  0  0  0  0  0  0  0  0  0  0
   -9.8664    0.8919   -1.3861 O   0  0  0  0  0  0  0  0  0  0  0  0
   -8.7898   -0.1037   -3.1886 C   0  0  0  0  0  0  0  0  0  0  0  0
   -7.5517   -0.5954   -3.6668 C   0  0  0  0  0  0  0  0  0  0  0  0
   -6.4099   -0.5793   -2.9089 N   0  0  0  0  0  0  0  0  0  0  0  0
   -5.1954   -1.1035   -3.4878 C   0  0  1  0  0  0  0  0  0  0  0  0
   -4.4333   -2.2270   -2.7545 C   0  0  2  0  0  0  0  0  0  0  0  0
   -5.1998   -2.5467   -4.0372 C   0  0  1  0  0  0  0  0  0  0  0  0
   -9.9516   -0.1604   -4.0176 C   0  0  0  0  0  0  0  0  0  0  0  0
   -9.9284   -0.6994   -5.2609 O   0  0  0  0  0  0  0  0  0  0  0  0
  -11.0688    0.2700   -3.6514 O   0  0  0  0  0  0  0  0  0  0  0  0
    1.9091   -0.5400    0.8530 H   0  0  0  0  0  0  0  0  0  0  0  0
    1.9259   -0.5282   -0.9147 H   0  0  0  0  0  0  0  0  0  0  0  0
    1.8909    1.0060   -0.0376 H   0  0  0  0  0  0  0  0  0  0  0  0
   -2.6116    0.6256   -0.6745 H   0  0  0  0  0  0  0  0  0  0  0  0
   -2.7383   -0.8758    0.2926 H   0  0  0  0  0  0  0  0  0  0  0  0
   -4.1124    2.3027    2.2557 H   0  0  0  0  0  0  0  0  0  0  0  0
   -4.1274    0.6821    3.0027 H   0  0  0  0  0  0  0  0  0  0  0  0
   -0.7459    0.1830    3.6572 H   0  0  0  0  0  0  0  0  0  0  0  0
   -2.2870    0.6499    4.4790 H   0  0  0  0  0  0  0  0  0  0  0  0
   -1.5913    2.7080    4.6778 H   0  0  0  0  0  0  0  0  0  0  0  0
   -0.7184    3.0452    1.9797 H   0  0  0  0  0  0  0  0  0  0  0  0
   -2.2506    3.5588    2.7858 H   0  0  0  0  0  0  0  0  0  0  0  0
   -8.4568    1.3193    0.6602 H   0  0  0  0  0  0  0  0  0  0  0  0
   -7.5106   -0.9801   -4.6161 H   0  0  0  0  0  0  0  0  0  0  0  0
   -4.5602   -0.4096   -4.0425 H   0  0  0  0  0  0  0  0  0  0  0  0
   -4.8838   -2.6399   -1.8498 H   0  0  0  0  0  0  0  0  0  0  0  0
   -3.3466   -2.2338   -2.8599 H   0  0  0  0  0  0  0  0  0  0  0  0
   -6.1014   -3.1448   -3.8846 H   0  0  0  0  0  0  0  0  0  0  0  0
   -4.5740   -2.7411   -4.9117 H   0  0  0  0  0  0  0  0  0  0  0  0
  -10.7481   -0.7339   -5.8001 H   0  0  0  0  0  0  0  0  0  0  0  0
  1  2  1  0  0  0  0
  3  2  1  0  0  0  0
  3  4  2  0  0  0  0
  4  5  1  0  0  0  0
  5  6  1  0  0  0  0
  6  7  1  0  0  0  0
  7  8  1  0  0  0  0
  8  9  1  0  0  0  0
  9 10  1  0  0  0  0
 10 11  1  0  0  0  0
  6 12  1  0  0  0  0
 12 13  2  0  0  0  0
 13 14  1  0  0  0  0
 14 15  2  0  0  0  0
 15 16  1  0  0  0  0
 16 17  2  0  0  0  0
 17 18  1  0  0  0  0
 15 19  1  0  0  0  0
 19 20  2  0  0  0  0
 19 21  1  0  0  0  0
 21 22  2  0  0  0  0
 22 23  1  0  0  0  0
 23 24  1  0  0  0  0
 24 25  1  0  0  0  0
 25 26  1  0  0  0  0
 21 27  1  0  0  0  0
 27 28  1  0  0  0  0
 27 29  2  0  0  0  0
  8  4  1  0  0  0  0
 11  8  1  0  0  0  0
 17 12  1  0  0  0  0
 26 24  1  0  0  0  0
 23 14  1  0  0  0  0
  1 30  1  0  0  0  0
  1 31  1  0  0  0  0
  1 32  1  0  0  0  0
  5 33  1  0  0  0  0
  5 34  1  0  0  0  0
  7 35  1  0  0  0  0
  7 36  1  0  0  0  0
  9 37  1  0  0  0  0
  9 38  1  0  0  0  0
 10 39  1  0  0  0  0
 11 40  1  0  0  0  0
 11 41  1  0  0  0  0
 16 42  1  0  0  0  0
 22 43  1  0  0  0  0
 24 44  1  0  0  0  0
 25 45  1  0  0  0  0
 25 46  1  0  0  0  0
 26 47  1  0  0  0  0
 26 48  1  0  0  0  0
 28 49  1  0  0  0  0
M  END
>  <SuperDrugID>
SD006012

>  <_MOLCOUNT>
1

$$$$
