haloperidol decanoate
  CDK     0628171801

 78 80  0  0  0  0  0  0  0  0999 V2000
    2.5157   -3.9957    2.7325 O   0  0  0  0  0  0  0  0  0  0  0  0
    2.7207   -3.0916    3.7417 C   0  0  0  0  0  0  0  0  0  0  0  0
    1.3046   -4.7220    2.4060 C   0  0  1  0  0  0  0  0  0  0  0  0
    3.5049   -1.8726    3.4568 C   0  0  2  0  0  0  0  0  0  0  0  0
    2.1972   -3.2345    4.8719 O   0  0  0  0  0  0  0  0  0  0  0  0
    0.3354   -3.6816    1.7329 C   0  0  2  0  0  0  0  0  0  0  0  0
    1.6656   -5.7710    1.2973 C   0  0  1  0  0  0  0  0  0  0  0  0
    0.7562   -5.4166    3.6368 C   0  0  0  0  0  0  0  0  0  0  0  0
    2.5490   -0.6453    3.5174 C   0  0  1  0  0  0  0  0  0  0  0  0
    0.8961   -3.0709    0.4162 C   0  0  1  0  0  0  0  0  0  0  0  0
    2.2248   -5.1119    0.0041 C   0  0  1  0  0  0  0  0  0  0  0  0
   -0.5222   -5.1413    4.1925 C   0  0  0  0  0  0  0  0  0  0  0  0
    1.5586   -6.3687    4.3175 C   0  0  0  0  0  0  0  0  0  0  0  0
    3.0726    0.6797    2.8907 C   0  0  1  0  0  0  0  0  0  0  0  0
    1.2753   -4.1185   -0.5902 N   0  0  1  0  0  0  0  0  0  0  0  0
   -0.9682   -5.7723    5.3673 C   0  0  0  0  0  0  0  0  0  0  0  0
    1.1067   -7.0280    5.4746 C   0  0  0  0  0  0  0  0  0  0  0  0
    1.8464    1.6319    2.5348 C   0  0  2  0  0  0  0  0  0  0  0  0
    0.1428   -4.7510   -1.3498 C   0  0  1  0  0  0  0  0  0  0  0  0
   -0.1540   -6.7184    6.0126 C   0  0  0  0  0  0  0  0  0  0  0  0
    2.2388    2.9935    1.8960 C   0  0  2  0  0  0  0  0  0  0  0  0
   -0.5164   -3.8072   -2.3882 C   0  0  1  0  0  0  0  0  0  0  0  0
   -0.6921   -7.4717    7.4297 Cl  0  0  0  0  0  0  0  0  0  0  0  0
    0.9930    3.7796    1.3867 C   0  0  1  0  0  0  0  0  0  0  0  0
   -1.6134   -4.5282   -3.2236 C   0  0  2  0  0  0  0  0  0  0  0  0
    1.3167    5.1497    0.7260 C   0  0  2  0  0  0  0  0  0  0  0  0
   -2.4054   -3.5820   -4.0492 C   0  0  0  0  0  0  0  0  0  0  0  0
    0.0470    5.8537    0.1665 C   0  0  1  0  0  0  0  0  0  0  0  0
   -3.6240   -3.4535   -3.7763 O   0  0  0  0  0  0  0  0  0  0  0  0
   -1.8492   -2.7865   -5.0878 C   0  0  0  0  0  0  0  0  0  0  0  0
    0.3414    7.2334   -0.4660 C   0  0  0  0  0  0  0  0  0  0  0  0
   -0.8761   -3.2971   -5.9828 C   0  0  0  0  0  0  0  0  0  0  0  0
   -2.2786   -1.4467   -5.2553 C   0  0  0  0  0  0  0  0  0  0  0  0
   -0.3596   -2.4959   -7.0197 C   0  0  0  0  0  0  0  0  0  0  0  0
   -1.7619   -0.6461   -6.2902 C   0  0  0  0  0  0  0  0  0  0  0  0
   -0.8082   -1.1719   -7.1804 C   0  0  0  0  0  0  0  0  0  0  0  0
   -0.3439   -0.4319   -8.1513 F   0  0  0  0  0  0  0  0  0  0  0  0
    3.9382   -1.9496    2.4563 H   0  0  0  0  0  0  0  0  0  0  0  0
    4.3198   -1.7678    4.1771 H   0  0  0  0  0  0  0  0  0  0  0  0
    0.1213   -2.8646    2.4249 H   0  0  0  0  0  0  0  0  0  0  0  0
   -0.6151   -4.1648    1.4975 H   0  0  0  0  0  0  0  0  0  0  0  0
    2.4190   -6.4749    1.6566 H   0  0  0  0  0  0  0  0  0  0  0  0
    0.7722   -6.3510    1.0392 H   0  0  0  0  0  0  0  0  0  0  0  0
    1.6237   -0.9171    3.0022 H   0  0  0  0  0  0  0  0  0  0  0  0
    2.2911   -0.4493    4.5623 H   0  0  0  0  0  0  0  0  0  0  0  0
    0.1646   -2.3719    0.0085 H   0  0  0  0  0  0  0  0  0  0  0  0
    1.7777   -2.4686    0.6495 H   0  0  0  0  0  0  0  0  0  0  0  0
    3.1701   -4.6086    0.2309 H   0  0  0  0  0  0  0  0  0  0  0  0
    2.4664   -5.8962   -0.7180 H   0  0  0  0  0  0  0  0  0  0  0  0
   -1.1553   -4.4676    3.7646 H   0  0  0  0  0  0  0  0  0  0  0  0
    2.4970   -6.5898    3.9782 H   0  0  0  0  0  0  0  0  0  0  0  0
    3.8582    1.0879    3.5810 H   0  0  0  0  0  0  0  0  0  0  0  0
    3.5771    0.4440    1.9503 H   0  0  0  0  0  0  0  0  0  0  0  0
   -1.8875   -5.5365    5.7487 H   0  0  0  0  0  0  0  0  0  0  0  0
    1.7034   -7.7287    5.9207 H   0  0  0  0  0  0  0  0  0  0  0  0
    1.2726    1.8265    3.4465 H   0  0  0  0  0  0  0  0  0  0  0  0
    1.2003    1.0960    1.8326 H   0  0  0  0  0  0  0  0  0  0  0  0
    0.5075   -5.6185   -1.9088 H   0  0  0  0  0  0  0  0  0  0  0  0
   -0.6186   -5.1181   -0.6580 H   0  0  0  0  0  0  0  0  0  0  0  0
    2.9178    2.8110    1.0576 H   0  0  0  0  0  0  0  0  0  0  0  0
    2.7658    3.5971    2.6398 H   0  0  0  0  0  0  0  0  0  0  0  0
   -0.9710   -2.9603   -1.8695 H   0  0  0  0  0  0  0  0  0  0  0  0
    0.2635   -3.4253   -3.0546 H   0  0  0  0  0  0  0  0  0  0  0  0
    0.4731    3.1554    0.6547 H   0  0  0  0  0  0  0  0  0  0  0  0
    0.3147    3.9503    2.2291 H   0  0  0  0  0  0  0  0  0  0  0  0
   -2.2855   -5.0563   -2.5382 H   0  0  0  0  0  0  0  0  0  0  0  0
   -1.1541   -5.2865   -3.8616 H   0  0  0  0  0  0  0  0  0  0  0  0
    2.0248    4.9943   -0.0934 H   0  0  0  0  0  0  0  0  0  0  0  0
    1.7890    5.7989    1.4692 H   0  0  0  0  0  0  0  0  0  0  0  0
   -0.4140    5.2207   -0.5970 H   0  0  0  0  0  0  0  0  0  0  0  0
   -0.6790    5.9882    0.9740 H   0  0  0  0  0  0  0  0  0  0  0  0
    1.0444    7.1395   -1.2960 H   0  0  0  0  0  0  0  0  0  0  0  0
    0.7596    7.9124    0.2799 H   0  0  0  0  0  0  0  0  0  0  0  0
   -0.5864    7.6642   -0.8476 H   0  0  0  0  0  0  0  0  0  0  0  0
   -0.5433   -4.2613   -5.9041 H   0  0  0  0  0  0  0  0  0  0  0  0
   -2.9696   -1.0373   -4.6196 H   0  0  0  0  0  0  0  0  0  0  0  0
    0.3370   -2.8811   -7.6624 H   0  0  0  0  0  0  0  0  0  0  0  0
   -2.0856    0.3187   -6.3951 H   0  0  0  0  0  0  0  0  0  0  0  0
  1  2  1  0  0  0  0 
  1  3  1  0  0  0  0 
  2  4  1  0  0  0  0 
  2  5  2  0  0  0  0 
  3  6  1  0  0  0  0 
  3  7  1  0  0  0  0 
  3  8  1  0  0  0  0 
  4  9  1  0  0  0  0 
  6 10  1  0  0  0  0 
  7 11  1  0  0  0  0 
  8 12  2  0  0  0  0 
  8 13  1  0  0  0  0 
  9 14  1  0  0  0  0 
 10 15  1  0  0  0  0 
 11 15  1  0  0  0  0 
 12 16  1  0  0  0  0 
 13 17  2  0  0  0  0 
 14 18  1  0  0  0  0 
 15 19  1  0  0  0  0 
 16 20  2  0  0  0  0 
 17 20  1  0  0  0  0 
 18 21  1  0  0  0  0 
 19 22  1  0  0  0  0 
 20 23  1  0  0  0  0 
 21 24  1  0  0  0  0 
 22 25  1  0  0  0  0 
 24 26  1  0  0  0  0 
 25 27  1  0  0  0  0 
 26 28  1  0  0  0  0 
 27 29  2  0  0  0  0 
 27 30  1  0  0  0  0 
 28 31  1  0  0  0  0 
 30 32  2  0  0  0  0 
 30 33  1  0  0  0  0 
 32 34  1  0  0  0  0 
 33 35  2  0  0  0  0 
 34 36  2  0  0  0  0 
 35 36  1  0  0  0  0 
 36 37  1  0  0  0  0 
 38  4  1  0  0  0  0 
 39  4  1  0  0  0  0 
 40  6  1  0  0  0  0 
 41  6  1  0  0  0  0 
 42  7  1  0  0  0  0 
 43  7  1  0  0  0  0 
 44  9  1  0  0  0  0 
 45  9  1  0  0  0  0 
 46 10  1  0  0  0  0 
 47 10  1  0  0  0  0 
 48 11  1  0  0  0  0 
 49 11  1  0  0  0  0 
 50 12  1  0  0  0  0 
 51 13  1  0  0  0  0 
 52 14  1  0  0  0  0 
 53 14  1  0  0  0  0 
 54 16  1  0  0  0  0 
 55 17  1  0  0  0  0 
 56 18  1  0  0  0  0 
 57 18  1  0  0  0  0 
 58 19  1  0  0  0  0 
 59 19  1  0  0  0  0 
 60 21  1  0  0  0  0 
 61 21  1  0  0  0  0 
 62 22  1  0  0  0  0 
 63 22  1  0  0  0  0 
 64 24  1  0  0  0  0 
 65 24  1  0  0  0  0 
 66 25  1  0  0  0  0 
 67 25  1  0  0  0  0 
 68 26  1  0  0  0  0 
 69 26  1  0  0  0  0 
 70 28  1  0  0  0  0 
 71 28  1  0  0  0  0 
 72 31  1  0  0  0  0 
 73 31  1  0  0  0  0 
 74 31  1  0  0  0  0 
 75 32  1  0  0  0  0 
 76 33  1  0  0  0  0 
 77 34  1  0  0  0  0 
 78 35  1  0  0  0  0 
M  END
> <cdk:Title>
haloperidol decanoate

> <Conformer>
1

> <SuperDrugID>
SD003595

$$$$
