magnesium peroxide
  CDK     0628171801

  3  3  0  0  0  0  0  0  0  0999 V2000
    0.6550    2.0643    0.0000 Mg  0  0  0  0  0  0  0  0  0  0  0  0
    0.0104   -0.0083    0.0000 O   0  0  0  0  0  0  0  0  0  0  0  0
    1.2996   -0.0083    0.0000 O   0  0  0  0  0  0  0  0  0  0  0  0
  1  2  1  0  0  0  0 
  1  3  1  0  0  0  0 
  2  3  1  0  0  0  0 
M  END
> <cdk:Title>
magnesium peroxide

> <Conformer>
1

> <SuperDrugID>
SD003645

$$$$
