dithiazanine
  CDK     0628171802

 50 53  0  0  0  0  0  0  0  0999 V2000
   -5.0271    3.5023    6.9229 C   0  0  2  0  0  0  0  0  0  0  0  0
   -6.2986    3.6644    6.0535 C   0  0  0  0  0  0  0  0  0  0  0  0
   -5.0536    2.2974    7.7266 N   0  0  0  0  0  0  0  0  0  0  0  0
   -5.8451    2.1845    8.8584 C   0  0  0  0  0  0  0  0  0  0  0  0
   -4.2832    1.1910    7.4493 C   0  0  0  0  0  0  0  0  0  0  0  0
   -5.7706    0.9555    9.5430 C   0  0  0  0  0  0  0  0  0  0  0  0
   -6.7137    3.1622    9.4103 C   0  0  0  0  0  0  0  0  0  0  0  0
   -3.3775    0.9290    6.4371 C   0  0  0  0  0  0  0  0  0  0  0  0
   -4.5906   -0.0106    8.6933 S   0  0  0  0  0  0  0  0  0  0  0  0
   -6.5306    0.6423   10.6796 C   0  0  0  0  0  0  0  0  0  0  0  0
   -7.5067    2.8756   10.5421 C   0  0  0  0  0  0  0  0  0  0  0  0
   -3.6787    0.9553    5.1253 C   0  0  0  0  0  0  0  0  0  0  0  0
   -7.4239    1.6143   11.1661 C   0  0  0  0  0  0  0  0  0  0  0  0
   -2.7577    0.6864    4.1570 C   0  0  0  0  0  0  0  0  0  0  0  0
   -3.0689    0.2235    2.9314 C   0  0  0  0  0  0  0  0  0  0  0  0
   -2.1148   -0.0444    2.0051 C   0  0  0  0  0  0  0  0  0  0  0  0
   -1.9705    0.6205    0.8438 C   0  0  0  0  0  0  0  0  0  0  0  0
   -1.0070    0.4847   -0.1193 N   0  0  0  0  0  0  0  0  0  0  0  0
   -2.9723    1.9830    0.3903 S   0  0  0  0  0  0  0  0  0  0  0  0
   -0.2056   -0.7087   -0.3681 C   0  0  2  0  0  0  0  0  0  0  0  0
   -0.8379    1.6370   -0.9087 C   0  0  0  0  0  0  0  0  0  0  0  0
   -1.8641    2.5948   -0.8186 C   0  0  0  0  0  0  0  0  0  0  0  0
   -0.8216   -2.1032   -0.0771 C   0  0  0  0  0  0  0  0  0  0  0  0
    0.2534    1.9492   -1.7603 C   0  0  0  0  0  0  0  0  0  0  0  0
   -1.8875    3.7951   -1.5448 C   0  0  0  0  0  0  0  0  0  0  0  0
    0.2673    3.1518   -2.4996 C   0  0  0  0  0  0  0  0  0  0  0  0
   -0.8042    4.0634   -2.4031 C   0  0  0  0  0  0  0  0  0  0  0  0
   -4.9159    4.3736    7.5719 H   0  0  0  0  0  0  0  0  0  0  0  0
   -4.1619    3.5273    6.2584 H   0  0  0  0  0  0  0  0  0  0  0  0
   -6.2360    4.5927    5.4837 H   0  0  0  0  0  0  0  0  0  0  0  0
   -6.3871    2.8291    5.3594 H   0  0  0  0  0  0  0  0  0  0  0  0
   -7.1991    3.6992    6.6675 H   0  0  0  0  0  0  0  0  0  0  0  0
   -6.7837    4.0921    8.9981 H   0  0  0  0  0  0  0  0  0  0  0  0
   -2.4600    0.6689    6.7276 H   0  0  0  0  0  0  0  0  0  0  0  0
   -6.4403   -0.2657   11.1372 H   0  0  0  0  0  0  0  0  0  0  0  0
   -8.1432    3.5867   10.9108 H   0  0  0  0  0  0  0  0  0  0  0  0
   -4.6115    1.1704    4.8491 H   0  0  0  0  0  0  0  0  0  0  0  0
   -8.0125    1.4049   11.9763 H   0  0  0  0  0  0  0  0  0  0  0  0
   -1.7954    0.8456    4.3717 H   0  0  0  0  0  0  0  0  0  0  0  0
   -4.0203    0.0659    2.6805 H   0  0  0  0  0  0  0  0  0  0  0  0
   -1.4631   -0.7508    2.2376 H   0  0  0  0  0  0  0  0  0  0  0  0
    0.7369   -0.6146    0.1753 H   0  0  0  0  0  0  0  0  0  0  0  0
    0.0402   -0.7485   -1.4324 H   0  0  0  0  0  0  0  0  0  0  0  0
   -0.3740   -2.8574   -0.7290 H   0  0  0  0  0  0  0  0  0  0  0  0
   -0.6151   -2.4072    0.9492 H   0  0  0  0  0  0  0  0  0  0  0  0
   -1.8992   -2.0997   -0.2480 H   0  0  0  0  0  0  0  0  0  0  0  0
    1.0500    1.3143   -1.8470 H   0  0  0  0  0  0  0  0  0  0  0  0
   -2.6605    4.4580   -1.4491 H   0  0  0  0  0  0  0  0  0  0  0  0
    1.0632    3.3646   -3.1053 H   0  0  0  0  0  0  0  0  0  0  0  0
   -0.7891    4.9237   -2.9551 H   0  0  0  0  0  0  0  0  0  0  0  0
  1  2  1  0  0  0  0 
  1  3  1  0  0  0  0 
  3  4  1  0  0  0  0 
  3  5  2  0  0  0  0 
  4  6  1  0  0  0  0 
  4  7  2  0  0  0  0 
  5  8  1  0  0  0  0 
  5  9  1  0  0  0  0 
  6  9  1  0  0  0  0 
  6 10  2  0  0  0  0 
  7 11  1  0  0  0  0 
  8 12  2  0  0  0  0 
 10 13  1  0  0  0  0 
 11 13  2  0  0  0  0 
 12 14  1  0  0  0  0 
 14 15  2  0  0  0  0 
 15 16  1  0  0  0  0 
 16 17  2  0  0  0  0 
 17 18  1  0  0  0  0 
 17 19  1  0  0  0  0 
 18 20  1  0  0  0  0 
 18 21  1  0  0  0  0 
 19 22  1  0  0  0  0 
 20 23  1  0  0  0  0 
 21 22  2  0  0  0  0 
 21 24  1  0  0  0  0 
 22 25  1  0  0  0  0 
 24 26  2  0  0  0  0 
 25 27  2  0  0  0  0 
 26 27  1  0  0  0  0 
  1 28  1  0  0  0  0 
  1 29  1  0  0  0  0 
  2 30  1  0  0  0  0 
  2 31  1  0  0  0  0 
  2 32  1  0  0  0  0 
  7 33  1  0  0  0  0 
  8 34  1  0  0  0  0 
 10 35  1  0  0  0  0 
 11 36  1  0  0  0  0 
 12 37  1  0  0  0  0 
 13 38  1  0  0  0  0 
 14 39  1  0  0  0  0 
 15 40  1  0  0  0  0 
 16 41  1  0  0  0  0 
 20 42  1  0  0  0  0 
 20 43  1  0  0  0  0 
 23 44  1  0  0  0  0 
 23 45  1  0  0  0  0 
 23 46  1  0  0  0  0 
 24 47  1  0  0  0  0 
 25 48  1  0  0  0  0 
 26 49  1  0  0  0  0 
 27 50  1  0  0  0  0 
M  CHG  1   3   1
M  END
> <cdk:Title>
dithiazanine

> <Conformer>
1

> <SuperDrugID>
SD000827

$$$$
