butoctamide
  CDK     0628171801

 40 39  0  0  0  0  0  0  0  0999 V2000
    1.2083   -1.7086   -0.5885 C   0  0  2  0  0  0  0  0  0  0  0  0
    1.9165   -0.3555   -0.9252 C   0  0  2  0  0  0  0  0  0  0  0  0
   -0.2920   -1.5182   -0.1777 C   0  0  2  0  0  0  0  0  0  0  0  0
    2.0632   -2.5577    0.4128 C   0  0  1  0  0  0  0  0  0  0  0  0
    1.6068    0.0830   -2.2516 N   0  0  0  0  0  0  0  0  0  0  0  0
   -0.5566   -0.8408    1.2002 C   0  0  1  0  0  0  0  0  0  0  0  0
    1.4756   -3.9482    0.7531 C   0  0  0  0  0  0  0  0  0  0  0  0
    1.2991    1.3480   -2.6414 C   0  0  0  0  0  0  0  0  0  0  0  0
   -2.0417   -0.9312    1.6427 C   0  0  1  0  0  0  0  0  0  0  0  0
    1.1405    1.6456   -4.0823 C   0  0  2  0  0  0  0  0  0  0  0  0
    1.2003    2.2845   -1.8119 O   0  0  0  0  0  0  0  0  0  0  0  0
   -2.3188   -0.1691    2.9611 C   0  0  0  0  0  0  0  0  0  0  0  0
   -0.3083    2.0105   -4.5108 C   0  0  2  0  0  0  0  0  0  0  0  0
   -0.3777    2.3726   -6.0142 C   0  0  0  0  0  0  0  0  0  0  0  0
   -0.8257    3.1115   -3.7630 O   0  0  0  0  0  0  0  0  0  0  0  0
    1.1938   -2.2948   -1.5158 H   0  0  0  0  0  0  0  0  0  0  0  0
    2.9997   -0.4879   -0.9061 H   0  0  0  0  0  0  0  0  0  0  0  0
    1.6789    0.3990   -0.1732 H   0  0  0  0  0  0  0  0  0  0  0  0
   -0.7761   -2.4975   -0.1861 H   0  0  0  0  0  0  0  0  0  0  0  0
   -0.7909   -0.9235   -0.9474 H   0  0  0  0  0  0  0  0  0  0  0  0
    3.0494   -2.7315   -0.0309 H   0  0  0  0  0  0  0  0  0  0  0  0
    2.2255   -1.9999    1.3393 H   0  0  0  0  0  0  0  0  0  0  0  0
    1.6496   -0.5906   -2.9483 H   0  0  0  0  0  0  0  0  0  0  0  0
    0.0526   -1.3113    1.9723 H   0  0  0  0  0  0  0  0  0  0  0  0
   -0.2730    0.2132    1.1394 H   0  0  0  0  0  0  0  0  0  0  0  0
    0.5674   -3.8435    1.3485 H   0  0  0  0  0  0  0  0  0  0  0  0
    1.2435   -4.4977   -0.1625 H   0  0  0  0  0  0  0  0  0  0  0  0
    2.1965   -4.5293    1.3325 H   0  0  0  0  0  0  0  0  0  0  0  0
   -2.6814   -0.5210    0.8550 H   0  0  0  0  0  0  0  0  0  0  0  0
   -2.3086   -1.9820    1.7835 H   0  0  0  0  0  0  0  0  0  0  0  0
    1.4590    0.7763   -4.6666 H   0  0  0  0  0  0  0  0  0  0  0  0
    1.8171    2.4668   -4.3319 H   0  0  0  0  0  0  0  0  0  0  0  0
   -1.6834   -0.5508    3.7637 H   0  0  0  0  0  0  0  0  0  0  0  0
   -2.1250    0.8984    2.8309 H   0  0  0  0  0  0  0  0  0  0  0  0
   -3.3630   -0.3010    3.2513 H   0  0  0  0  0  0  0  0  0  0  0  0
   -0.9654    1.1524   -4.3325 H   0  0  0  0  0  0  0  0  0  0  0  0
    0.2226    3.2631   -6.2162 H   0  0  0  0  0  0  0  0  0  0  0  0
    0.0012    1.5457   -6.6208 H   0  0  0  0  0  0  0  0  0  0  0  0
   -1.4103    2.5722   -6.3098 H   0  0  0  0  0  0  0  0  0  0  0  0
   -0.8965    2.7873   -2.8413 H   0  0  0  0  0  0  0  0  0  0  0  0
  1  2  1  0  0  0  0 
  1  3  1  0  0  0  0 
  1  4  1  0  0  0  0 
  2  5  1  0  0  0  0 
  3  6  1  0  0  0  0 
  4  7  1  0  0  0  0 
  5  8  1  0  0  0  0 
  6  9  1  0  0  0  0 
  8 10  1  0  0  0  0 
  8 11  2  0  0  0  0 
  9 12  1  0  0  0  0 
 10 13  1  0  0  0  0 
 13 14  1  0  0  0  0 
 13 15  1  0  0  0  0 
  1 16  1  0  0  0  0 
  2 17  1  0  0  0  0 
  2 18  1  0  0  0  0 
  3 19  1  0  0  0  0 
  3 20  1  0  0  0  0 
  4 21  1  0  0  0  0 
  4 22  1  0  0  0  0 
  5 23  1  0  0  0  0 
  6 24  1  0  0  0  0 
  6 25  1  0  0  0  0 
  7 26  1  0  0  0  0 
  7 27  1  0  0  0  0 
  7 28  1  0  0  0  0 
  9 29  1  0  0  0  0 
  9 30  1  0  0  0  0 
 10 31  1  0  0  0  0 
 10 32  1  0  0  0  0 
 12 33  1  0  0  0  0 
 12 34  1  0  0  0  0 
 12 35  1  0  0  0  0 
 13 36  1  0  0  0  0 
 14 37  1  0  0  0  0 
 14 38  1  0  0  0  0 
 14 39  1  0  0  0  0 
 15 40  1  0  0  0  0 
M  END
> <cdk:Title>
butoctamide

> <Conformer>
1

> <SuperDrugID>
SD000393

$$$$
