udenafil
  CDK     0628171801

 72 75  0  0  0  0  0  0  0  0999 V2000
    0.1270    1.4528   -0.8154 C   0  0  0  0  0  0  0  0  0  0  0  0
    0.2639   -0.0589   -0.5258 C   0  0  1  0  0  0  0  0  0  0  0  0
    1.4389   -0.7260   -1.2776 C   0  0  2  0  0  0  0  0  0  0  0  0
    1.2511   -0.6116   -2.7061 O   0  0  0  0  0  0  0  0  0  0  0  0
    2.3349   -1.0618   -3.4207 C   0  0  0  0  0  0  0  0  0  0  0  0
    2.3315   -2.3913   -3.8894 C   0  0  0  0  0  0  0  0  0  0  0  0
    3.4339   -2.9005   -4.5985 C   0  0  0  0  0  0  0  0  0  0  0  0
    4.5597   -2.0900   -4.8423 C   0  0  0  0  0  0  0  0  0  0  0  0
    4.5711   -0.7675   -4.3546 C   0  0  0  0  0  0  0  0  0  0  0  0
    3.4503   -0.2250   -3.6869 C   0  0  0  0  0  0  0  0  0  0  0  0
    3.4532    1.1413   -3.3270 C   0  0  0  0  0  0  0  0  0  0  0  0
    4.5034    1.6961   -2.6438 N   0  0  0  0  0  0  0  0  0  0  0  0
    4.5176    3.0115   -2.2830 C   0  0  0  0  0  0  0  0  0  0  0  0
    5.4889    3.4647   -1.6371 O   0  0  0  0  0  0  0  0  0  0  0  0
    3.4267    3.8221   -2.6534 C   0  0  0  0  0  0  0  0  0  0  0  0
    3.1144    5.1247   -2.4772 N   0  0  0  0  0  0  0  0  0  0  0  0
    3.8832    6.1023   -1.7766 C   0  0  0  0  0  0  0  0  0  0  0  0
    1.9747    5.3737   -3.0629 N   0  0  0  0  0  0  0  0  0  0  0  0
    1.4862    4.2542   -3.6344 C   0  0  0  0  0  0  0  0  0  0  0  0
    0.2050    4.1708   -4.4487 C   0  0  1  0  0  0  0  0  0  0  0  0
    0.5546    4.5159   -5.9253 C   0  0  2  0  0  0  0  0  0  0  0  0
   -0.6642    4.4522   -6.8755 C   0  0  0  0  0  0  0  0  0  0  0  0
    2.3915    3.2382   -3.3661 C   0  0  0  0  0  0  0  0  0  0  0  0
    2.3957    1.9241   -3.6885 N   0  0  0  0  0  0  0  0  0  0  0  0
    5.9374   -2.7484   -5.7411 S   0  0  2  0  0  0  0  0  0  0  0  0
    5.4558   -3.5770   -7.0271 O   0  0  0  0  0  0  0  0  0  0  0  0
    6.7572   -3.7426   -4.7845 O   0  0  0  0  0  0  0  0  0  0  0  0
    7.0536   -1.4870   -6.2615 N   0  0  1  0  0  0  0  0  0  0  0  0
    6.5152   -0.5687   -7.2862 C   0  0  1  0  0  0  0  0  0  0  0  0
    7.4979    0.6189   -7.4480 C   0  0  1  0  0  0  0  0  0  0  0  0
    6.9594    1.8440   -8.2517 C   0  0  2  0  0  0  0  0  0  0  0  0
    6.2021    1.4971   -9.5537 C   0  0  2  0  0  0  0  0  0  0  0  0
    6.2753    2.7924  -10.3786 C   0  0  2  0  0  0  0  0  0  0  0  0
    7.6016    3.4473   -9.9489 C   0  0  2  0  0  0  0  0  0  0  0  0
    8.0706    2.7051   -8.7482 N   0  0  1  0  0  0  0  0  0  0  0  0
    8.7913    3.5294   -7.7422 C   0  0  0  0  0  0  0  0  0  0  0  0
    1.0576    1.9727   -0.5789 H   0  0  0  0  0  0  0  0  0  0  0  0
   -0.1195    1.6215   -1.8652 H   0  0  0  0  0  0  0  0  0  0  0  0
   -0.6717    1.8693   -0.1998 H   0  0  0  0  0  0  0  0  0  0  0  0
    0.4176   -0.1945    0.5481 H   0  0  0  0  0  0  0  0  0  0  0  0
   -0.6682   -0.5610   -0.7968 H   0  0  0  0  0  0  0  0  0  0  0  0
    1.4806   -1.7826   -0.9891 H   0  0  0  0  0  0  0  0  0  0  0  0
    2.3703   -0.2441   -0.9576 H   0  0  0  0  0  0  0  0  0  0  0  0
    1.5247   -2.9950   -3.7116 H   0  0  0  0  0  0  0  0  0  0  0  0
    3.4107   -3.8702   -4.9251 H   0  0  0  0  0  0  0  0  0  0  0  0
    5.3982   -0.1869   -4.4993 H   0  0  0  0  0  0  0  0  0  0  0  0
    5.2612    1.1366   -2.4026 H   0  0  0  0  0  0  0  0  0  0  0  0
    4.0699    5.7649   -0.7554 H   0  0  0  0  0  0  0  0  0  0  0  0
    3.3591    7.0592   -1.7298 H   0  0  0  0  0  0  0  0  0  0  0  0
    4.8387    6.2577   -2.2815 H   0  0  0  0  0  0  0  0  0  0  0  0
   -0.0836    3.0739   -4.4489 H   0  0  0  0  0  0  0  0  0  0  0  0
   -0.6541    4.9097   -4.1471 H   0  0  0  0  0  0  0  0  0  0  0  0
    1.3107    3.8195   -6.3010 H   0  0  0  0  0  0  0  0  0  0  0  0
    0.9748    5.5250   -5.9733 H   0  0  0  0  0  0  0  0  0  0  0  0
   -0.3454    4.6784   -7.8954 H   0  0  0  0  0  0  0  0  0  0  0  0
   -1.4176    5.1827   -6.5767 H   0  0  0  0  0  0  0  0  0  0  0  0
   -1.1102    3.4557   -6.8661 H   0  0  0  0  0  0  0  0  0  0  0  0
    7.2539   -0.9277   -5.4300 H   0  0  0  0  0  0  0  0  0  0  0  0
    6.4182   -1.1037   -8.2364 H   0  0  0  0  0  0  0  0  0  0  0  0
    5.5345   -0.1857   -6.9947 H   0  0  0  0  0  0  0  0  0  0  0  0
    7.7638    0.9779   -6.4466 H   0  0  0  0  0  0  0  0  0  0  0  0
    8.4113    0.2461   -7.9222 H   0  0  0  0  0  0  0  0  0  0  0  0
    6.2831    2.4209   -7.6050 H   0  0  0  0  0  0  0  0  0  0  0  0
    5.1621    1.2128   -9.3603 H   0  0  0  0  0  0  0  0  0  0  0  0
    6.7085    0.6867  -10.0893 H   0  0  0  0  0  0  0  0  0  0  0  0
    5.4359    3.4464  -10.1186 H   0  0  0  0  0  0  0  0  0  0  0  0
    6.2496    2.5856  -11.4527 H   0  0  0  0  0  0  0  0  0  0  0  0
    7.4392    4.5125   -9.7518 H   0  0  0  0  0  0  0  0  0  0  0  0
    8.3511    3.3496  -10.7395 H   0  0  0  0  0  0  0  0  0  0  0  0
    8.1185    4.2610   -7.2926 H   0  0  0  0  0  0  0  0  0  0  0  0
    9.6184    4.0569   -8.2204 H   0  0  0  0  0  0  0  0  0  0  0  0
    9.2102    2.9017   -6.9544 H   0  0  0  0  0  0  0  0  0  0  0  0
  1  2  1  0  0  0  0 
  2  3  1  0  0  0  0 
  3  4  1  0  0  0  0 
  4  5  1  0  0  0  0 
  5  6  2  0  0  0  0 
  6  7  1  0  0  0  0 
  7  8  2  0  0  0  0 
  8  9  1  0  0  0  0 
  9 10  2  0  0  0  0 
  5 10  1  0  0  0  0 
 10 11  1  0  0  0  0 
 11 12  1  0  0  0  0 
 12 13  1  0  0  0  0 
 13 14  2  0  0  0  0 
 13 15  1  0  0  0  0 
 15 16  1  0  0  0  0 
 16 17  1  0  0  0  0 
 16 18  1  0  0  0  0 
 18 19  2  0  0  0  0 
 19 20  1  0  0  0  0 
 20 21  1  0  0  0  0 
 21 22  1  0  0  0  0 
 19 23  1  0  0  0  0 
 15 23  2  0  0  0  0 
 23 24  1  0  0  0  0 
 11 24  2  0  0  0  0 
  8 25  1  0  0  0  0 
 25 26  2  0  0  0  0 
 25 27  2  0  0  0  0 
 25 28  1  0  0  0  0 
 28 29  1  0  0  0  0 
 29 30  1  0  0  0  0 
 31 30  1  0  0  0  0 
 31 32  1  0  0  0  0 
 32 33  1  0  0  0  0 
 33 34  1  0  0  0  0 
 34 35  1  0  0  0  0 
 31 35  1  0  0  0  0 
 35 36  1  0  0  0  0 
 37  1  1  0  0  0  0 
 38  1  1  0  0  0  0 
 39  1  1  0  0  0  0 
 40  2  1  0  0  0  0 
 41  2  1  0  0  0  0 
 42  3  1  0  0  0  0 
 43  3  1  0  0  0  0 
 44  6  1  0  0  0  0 
 45  7  1  0  0  0  0 
 46  9  1  0  0  0  0 
 47 12  1  0  0  0  0 
 48 17  1  0  0  0  0 
 49 17  1  0  0  0  0 
 50 17  1  0  0  0  0 
 51 20  1  0  0  0  0 
 52 20  1  0  0  0  0 
 53 21  1  0  0  0  0 
 54 21  1  0  0  0  0 
 55 22  1  0  0  0  0 
 56 22  1  0  0  0  0 
 57 22  1  0  0  0  0 
 58 28  1  0  0  0  0 
 59 29  1  0  0  0  0 
 60 29  1  0  0  0  0 
 61 30  1  0  0  0  0 
 62 30  1  0  0  0  0 
 63 31  1  0  0  0  0 
 64 32  1  0  0  0  0 
 65 32  1  0  0  0  0 
 66 33  1  0  0  0  0 
 67 33  1  0  0  0  0 
 68 34  1  0  0  0  0 
 69 34  1  0  0  0  0 
 70 36  1  0  0  0  0 
 71 36  1  0  0  0  0 
 72 36  1  0  0  0  0 
M  END
> <cdk:Title>
udenafil

> <Conformer>
1

> <SuperDrugID>
SD003379

$$$$
