tyrosine
  CDK     0628171801

 24 24  0  0  0  0  0  0  0  0999 V2000
   -0.1829    0.9442   -0.5723 C   0  0  1  0  0  0  0  0  0  0  0  0
   -0.4346    1.7367    0.7464 C   0  0  1  0  0  0  0  0  0  0  0  0
   -1.0418   -0.2670   -0.7108 C   0  0  0  0  0  0  0  0  0  0  0  0
    0.0114    1.0506    1.9795 C   0  0  0  0  0  0  0  0  0  0  0  0
    0.2411    3.0406    0.6931 N   0  0  2  0  0  0  0  0  0  0  0  0
   -0.4891   -1.5696   -0.6667 C   0  0  0  0  0  0  0  0  0  0  0  0
   -2.4384   -0.1319   -0.9026 C   0  0  0  0  0  0  0  0  0  0  0  0
    0.9012    0.0294    1.9575 O   0  0  0  0  0  0  0  0  0  0  0  0
   -0.4205    1.4239    3.0936 O   0  0  0  0  0  0  0  0  0  0  0  0
   -1.3077   -2.7035   -0.8254 C   0  0  0  0  0  0  0  0  0  0  0  0
   -3.2549   -1.2656   -1.0684 C   0  0  0  0  0  0  0  0  0  0  0  0
   -2.6896   -2.5522   -1.0455 C   0  0  0  0  0  0  0  0  0  0  0  0
   -3.4821   -3.6341   -1.2451 O   0  0  0  0  0  0  0  0  0  0  0  0
   -0.3830    1.5955   -1.4279 H   0  0  0  0  0  0  0  0  0  0  0  0
    0.8773    0.6792   -0.6307 H   0  0  0  0  0  0  0  0  0  0  0  0
   -1.5046    1.9403    0.8354 H   0  0  0  0  0  0  0  0  0  0  0  0
   -0.1008    3.5208   -0.1422 H   0  0  0  0  0  0  0  0  0  0  0  0
    1.2382    2.8629    0.5502 H   0  0  0  0  0  0  0  0  0  0  0  0
    0.5140   -1.7044   -0.5196 H   0  0  0  0  0  0  0  0  0  0  0  0
   -2.8693    0.7960   -0.9330 H   0  0  0  0  0  0  0  0  0  0  0  0
    1.1787   -0.4023    2.7929 H   0  0  0  0  0  0  0  0  0  0  0  0
   -0.8929   -3.6371   -0.7843 H   0  0  0  0  0  0  0  0  0  0  0  0
   -4.2606   -1.1502   -1.2140 H   0  0  0  0  0  0  0  0  0  0  0  0
   -2.8850   -4.3302   -1.5918 H   0  0  0  0  0  0  0  0  0  0  0  0
  2  1  1  0  0  0  0 
  1  3  1  0  0  0  0 
  2  4  1  0  0  0  0 
  2  5  1  0  0  0  0 
  3  6  2  0  0  0  0 
  3  7  1  0  0  0  0 
  4  8  1  0  0  0  0 
  4  9  2  0  0  0  0 
  6 10  1  0  0  0  0 
  7 11  2  0  0  0  0 
 10 12  2  0  0  0  0 
 11 12  1  0  0  0  0 
 12 13  1  0  0  0  0 
  1 14  1  0  0  0  0 
  1 15  1  0  0  0  0 
  2 16  1  0  0  0  0 
  5 17  1  0  0  0  0 
  5 18  1  0  0  0  0 
  6 19  1  0  0  0  0 
  7 20  1  0  0  0  0 
  8 21  1  0  0  0  0 
 10 22  1  0  0  0  0 
 11 23  1  0  0  0  0 
 13 24  1  0  0  0  0 
M  END
> <cdk:Title>
tyrosine

> <Conformer>
1

> <SuperDrugID>
SD002515

$$$$
