loperamide oxide
  CDK     0628171801

 68 71  0  0  0  0  0  0  0  0999 V2000
   -0.9788   -0.5474   -1.7850 C   0  0  2  0  0  0  0  0  0  0  0  0
   -2.1408   -0.1516   -0.7790 C   0  0  1  0  0  0  0  0  0  0  0  0
    0.1929    0.3267   -1.3457 C   0  0  0  0  0  0  0  0  0  0  0  0
   -1.4488   -0.3680   -3.2355 C   0  0  0  0  0  0  0  0  0  0  0  0
   -0.5798   -2.0202   -1.7962 C   0  0  0  0  0  0  0  0  0  0  0  0
   -2.7029    1.3113   -0.8480 C   0  0  2  0  0  0  0  0  0  0  0  0
    1.2510   -0.0038   -0.4915 N   0  0  0  0  0  0  0  0  0  0  0  0
    0.1641    1.5214   -1.7365 O   0  0  0  0  0  0  0  0  0  0  0  0
   -2.6614   -0.9690   -3.6873 C   0  0  0  0  0  0  0  0  0  0  0  0
   -0.6804    0.2998   -4.2316 C   0  0  0  0  0  0  0  0  0  0  0  0
    0.5366   -2.4397   -2.5756 C   0  0  0  0  0  0  0  0  0  0  0  0
   -1.2879   -3.0415   -1.1011 C   0  0  0  0  0  0  0  0  0  0  0  0
   -4.1205    1.5105   -0.3554 N   0  0  1  0  0  0  0  0  0  0  0  0
    2.4650    0.7904   -0.4813 C   0  0  0  0  0  0  0  0  0  0  0  0
    1.2164   -1.0981    0.4540 C   0  0  0  0  0  0  0  0  0  0  0  0
   -3.0885   -0.8862   -5.0267 C   0  0  0  0  0  0  0  0  0  0  0  0
   -1.1074    0.4007   -5.5679 C   0  0  0  0  0  0  0  0  0  0  0  0
    0.9195   -3.7895   -2.6624 C   0  0  0  0  0  0  0  0  0  0  0  0
   -0.9163   -4.3962   -1.1969 C   0  0  0  0  0  0  0  0  0  0  0  0
   -4.9113    0.7716   -1.1899 O   0  0  0  0  0  0  0  0  0  0  0  0
   -4.3872    1.0112    1.0405 C   0  0  2  0  0  0  0  0  0  0  0  0
   -4.5931    2.9385   -0.4972 C   0  0  1  0  0  0  0  0  0  0  0  0
   -2.3116   -0.1953   -5.9687 C   0  0  0  0  0  0  0  0  0  0  0  0
    0.1896   -4.7710   -1.9749 C   0  0  0  0  0  0  0  0  0  0  0  0
   -3.7505    1.9096    2.1321 C   0  0  2  0  0  0  0  0  0  0  0  0
   -4.0637    3.9003    0.6118 C   0  0  1  0  0  0  0  0  0  0  0  0
   -4.3120    3.3726    2.0704 C   0  0  2  0  0  0  0  0  0  0  0  0
   -3.5153    4.1907    2.9348 O   0  0  0  0  0  0  0  0  0  0  0  0
   -5.7209    3.4760    2.6238 C   0  0  0  0  0  0  0  0  0  0  0  0
   -5.9833    3.0253    3.9467 C   0  0  0  0  0  0  0  0  0  0  0  0
   -6.8235    4.0253    1.9142 C   0  0  0  0  0  0  0  0  0  0  0  0
   -7.2694    3.0730    4.5136 C   0  0  0  0  0  0  0  0  0  0  0  0
   -8.1150    4.0753    2.4729 C   0  0  0  0  0  0  0  0  0  0  0  0
   -8.3423    3.6015    3.7765 C   0  0  0  0  0  0  0  0  0  0  0  0
   -9.8906    3.6815    4.4574 Cl  0  0  0  0  0  0  0  0  0  0  0  0
   -2.9834   -0.8216   -0.9189 H   0  0  0  0  0  0  0  0  0  0  0  0
   -1.8031   -0.3179    0.2470 H   0  0  0  0  0  0  0  0  0  0  0  0
   -2.6547    1.6460   -1.8875 H   0  0  0  0  0  0  0  0  0  0  0  0
   -2.0193    1.9567   -0.2920 H   0  0  0  0  0  0  0  0  0  0  0  0
   -3.2496   -1.5041   -3.0483 H   0  0  0  0  0  0  0  0  0  0  0  0
    0.2287    0.7060   -4.0127 H   0  0  0  0  0  0  0  0  0  0  0  0
    1.0864   -1.7537   -3.0997 H   0  0  0  0  0  0  0  0  0  0  0  0
   -2.0918   -2.8289   -0.5126 H   0  0  0  0  0  0  0  0  0  0  0  0
    2.4484    1.4806    0.3645 H   0  0  0  0  0  0  0  0  0  0  0  0
    2.5950    1.3741   -1.3948 H   0  0  0  0  0  0  0  0  0  0  0  0
    3.3497    0.1573   -0.3955 H   0  0  0  0  0  0  0  0  0  0  0  0
    1.7064   -0.8232    1.3913 H   0  0  0  0  0  0  0  0  0  0  0  0
    0.2067   -1.3928    0.7275 H   0  0  0  0  0  0  0  0  0  0  0  0
    1.7374   -1.9629    0.0417 H   0  0  0  0  0  0  0  0  0  0  0  0
   -3.9596   -1.3374   -5.3201 H   0  0  0  0  0  0  0  0  0  0  0  0
   -0.5326    0.8984   -6.2529 H   0  0  0  0  0  0  0  0  0  0  0  0
    1.7260   -4.0566   -3.2318 H   0  0  0  0  0  0  0  0  0  0  0  0
   -1.4538   -5.1103   -0.7011 H   0  0  0  0  0  0  0  0  0  0  0  0
   -4.0300   -0.0120    1.1759 H   0  0  0  0  0  0  0  0  0  0  0  0
   -5.4665    0.9753    1.2248 H   0  0  0  0  0  0  0  0  0  0  0  0
   -4.3101    3.3459   -1.4730 H   0  0  0  0  0  0  0  0  0  0  0  0
   -5.6851    2.9621   -0.4774 H   0  0  0  0  0  0  0  0  0  0  0  0
   -2.6161   -0.1352   -6.9429 H   0  0  0  0  0  0  0  0  0  0  0  0
    0.4589   -5.7558   -2.0435 H   0  0  0  0  0  0  0  0  0  0  0  0
   -2.6670    1.9254    1.9949 H   0  0  0  0  0  0  0  0  0  0  0  0
   -3.9177    1.4463    3.1052 H   0  0  0  0  0  0  0  0  0  0  0  0
   -2.9884    4.0232    0.4579 H   0  0  0  0  0  0  0  0  0  0  0  0
   -4.4960    4.8964    0.4839 H   0  0  0  0  0  0  0  0  0  0  0  0
   -2.5951    4.1083    2.6071 H   0  0  0  0  0  0  0  0  0  0  0  0
   -5.2282    2.6545    4.5265 H   0  0  0  0  0  0  0  0  0  0  0  0
   -6.7129    4.4107    0.9782 H   0  0  0  0  0  0  0  0  0  0  0  0
   -7.4160    2.7254    5.4645 H   0  0  0  0  0  0  0  0  0  0  0  0
   -8.8885    4.4635    1.9266 H   0  0  0  0  0  0  0  0  0  0  0  0
  1  2  1  0  0  0  0 
  1  3  1  0  0  0  0 
  1  4  1  0  0  0  0 
  1  5  1  0  0  0  0 
  2  6  1  0  0  0  0 
  3  7  1  0  0  0  0 
  3  8  2  0  0  0  0 
  4  9  2  0  0  0  0 
  4 10  1  0  0  0  0 
  5 11  2  0  0  0  0 
  5 12  1  0  0  0  0 
 13  6  1  0  0  0  0 
  7 14  1  0  0  0  0 
  7 15  1  0  0  0  0 
  9 16  1  0  0  0  0 
 10 17  2  0  0  0  0 
 11 18  1  0  0  0  0 
 12 19  2  0  0  0  0 
 13 20  1  0  0  0  0 
 13 21  1  0  0  0  0 
 13 22  1  0  0  0  0 
 16 23  2  0  0  0  0 
 17 23  1  0  0  0  0 
 18 24  2  0  0  0  0 
 19 24  1  0  0  0  0 
 21 25  1  0  0  0  0 
 22 26  1  0  0  0  0 
 27 25  1  0  0  0  0 
 27 26  1  0  0  0  0 
 27 28  1  0  0  0  0 
 27 29  1  0  0  0  0 
 29 30  2  0  0  0  0 
 29 31  1  0  0  0  0 
 30 32  1  0  0  0  0 
 31 33  2  0  0  0  0 
 32 34  2  0  0  0  0 
 33 34  1  0  0  0  0 
 34 35  1  0  0  0  0 
  2 36  1  0  0  0  0 
  2 37  1  0  0  0  0 
  6 38  1  0  0  0  0 
  6 39  1  0  0  0  0 
  9 40  1  0  0  0  0 
 10 41  1  0  0  0  0 
 11 42  1  0  0  0  0 
 12 43  1  0  0  0  0 
 14 44  1  0  0  0  0 
 14 45  1  0  0  0  0 
 14 46  1  0  0  0  0 
 15 47  1  0  0  0  0 
 15 48  1  0  0  0  0 
 15 49  1  0  0  0  0 
 16 50  1  0  0  0  0 
 17 51  1  0  0  0  0 
 18 52  1  0  0  0  0 
 19 53  1  0  0  0  0 
 21 54  1  0  0  0  0 
 21 55  1  0  0  0  0 
 22 56  1  0  0  0  0 
 22 57  1  0  0  0  0 
 23 58  1  0  0  0  0 
 24 59  1  0  0  0  0 
 25 60  1  0  0  0  0 
 25 61  1  0  0  0  0 
 26 62  1  0  0  0  0 
 26 63  1  0  0  0  0 
 28 64  1  0  0  0  0 
 30 65  1  0  0  0  0 
 31 66  1  0  0  0  0 
 32 67  1  0  0  0  0 
 33 68  1  0  0  0  0 
M  CHG  1  13   1
M  CHG  1  20  -1
M  END
> <cdk:Title>
loperamide oxide

> <Conformer>
1

> <SuperDrugID>
SD001414

$$$$
