retinol
  CDK     0628171801

 51 51  0  0  0  0  0  0  0  0999 V2000
   -0.2786   -6.0133   -0.4036 C   0  0  0  0  0  0  0  0  0  0  0  0
    0.7729   -5.1964   -0.6080 C   0  0  0  0  0  0  0  0  0  0  0  0
   -1.5920   -5.6619   -0.6045 C   0  0  0  0  0  0  0  0  0  0  0  0
    2.0716   -5.5465   -0.3264 C   0  0  0  0  0  0  0  0  0  0  0  0
   -2.2080   -5.9688   -1.9436 C   0  0  2  0  0  0  0  0  0  0  0  0
   -2.2936   -5.1367    0.4455 C   0  0  0  0  0  0  0  0  0  0  0  0
    2.8039   -4.7373    0.4791 C   0  0  0  0  0  0  0  0  0  0  0  0
    2.6281   -6.7813   -0.8944 C   0  0  0  0  0  0  0  0  0  0  0  0
   -3.7015   -5.4724   -2.0663 C   0  0  1  0  0  0  0  0  0  0  0  0
   -1.6827   -4.8581    1.7579 C   0  0  0  0  0  0  0  0  0  0  0  0
   -3.7309   -4.8446    0.3509 C   0  0  1  0  0  0  0  0  0  0  0  0
    4.0841   -4.9634    0.9076 C   0  0  0  0  0  0  0  0  0  0  0  0
   -4.4759   -5.6337   -0.7461 C   0  0  1  0  0  0  0  0  0  0  0  0
    4.9148   -3.9825    1.3095 C   0  0  0  0  0  0  0  0  0  0  0  0
    6.1667   -4.2192    1.8049 C   0  0  0  0  0  0  0  0  0  0  0  0
    6.3743   -4.0230    3.1269 C   0  0  0  0  0  0  0  0  0  0  0  0
    7.2270   -4.6587    0.8942 C   0  0  0  0  0  0  0  0  0  0  0  0
    7.6309   -4.2245    3.8254 C   0  0  2  0  0  0  0  0  0  0  0  0
    7.9814   -5.6021    3.8657 O   0  0  0  0  0  0  0  0  0  0  0  0
   -2.1778   -7.5221   -2.1831 C   0  0  0  0  0  0  0  0  0  0  0  0
   -1.4308   -5.2751   -3.1192 C   0  0  0  0  0  0  0  0  0  0  0  0
   -0.1185   -6.9315   -0.0509 H   0  0  0  0  0  0  0  0  0  0  0  0
    0.6051   -4.2763   -0.9512 H   0  0  0  0  0  0  0  0  0  0  0  0
    2.3762   -3.8983    0.8126 H   0  0  0  0  0  0  0  0  0  0  0  0
    3.5436   -6.5622   -1.4498 H   0  0  0  0  0  0  0  0  0  0  0  0
    1.9442   -7.2823   -1.5843 H   0  0  0  0  0  0  0  0  0  0  0  0
    2.8624   -7.4846   -0.0916 H   0  0  0  0  0  0  0  0  0  0  0  0
   -3.7334   -4.4085   -2.3284 H   0  0  0  0  0  0  0  0  0  0  0  0
   -4.2357   -6.0015   -2.8620 H   0  0  0  0  0  0  0  0  0  0  0  0
   -1.4358   -5.8018    2.2487 H   0  0  0  0  0  0  0  0  0  0  0  0
   -2.3402   -4.2977    2.4279 H   0  0  0  0  0  0  0  0  0  0  0  0
   -0.7749   -4.2634    1.6464 H   0  0  0  0  0  0  0  0  0  0  0  0
   -4.2370   -5.0773    1.2931 H   0  0  0  0  0  0  0  0  0  0  0  0
   -3.8492   -3.7718    0.1707 H   0  0  0  0  0  0  0  0  0  0  0  0
    4.4160   -5.9007    0.9465 H   0  0  0  0  0  0  0  0  0  0  0  0
   -5.4906   -5.2423   -0.8601 H   0  0  0  0  0  0  0  0  0  0  0  0
   -4.5474   -6.6899   -0.4706 H   0  0  0  0  0  0  0  0  0  0  0  0
    4.6085   -3.0346    1.2752 H   0  0  0  0  0  0  0  0  0  0  0  0
    5.6119   -3.7171    3.6951 H   0  0  0  0  0  0  0  0  0  0  0  0
    8.0425   -3.9329    0.8875 H   0  0  0  0  0  0  0  0  0  0  0  0
    6.8758   -4.7658   -0.1349 H   0  0  0  0  0  0  0  0  0  0  0  0
    7.6246   -5.6267    1.2060 H   0  0  0  0  0  0  0  0  0  0  0  0
    7.5426   -3.8727    4.8549 H   0  0  0  0  0  0  0  0  0  0  0  0
    8.4329   -3.6616    3.3457 H   0  0  0  0  0  0  0  0  0  0  0  0
    8.8317   -5.6265    4.3545 H   0  0  0  0  0  0  0  0  0  0  0  0
   -2.6442   -8.0560   -1.3530 H   0  0  0  0  0  0  0  0  0  0  0  0
   -2.7061   -7.7956   -3.0987 H   0  0  0  0  0  0  0  0  0  0  0  0
   -1.1542   -7.8902   -2.2826 H   0  0  0  0  0  0  0  0  0  0  0  0
   -0.4225   -5.6778   -3.2309 H   0  0  0  0  0  0  0  0  0  0  0  0
   -1.3499   -4.1988   -2.9442 H   0  0  0  0  0  0  0  0  0  0  0  0
   -1.9473   -5.4221   -4.0733 H   0  0  0  0  0  0  0  0  0  0  0  0
  1  2  2  0  0  0  0 
  1  3  1  0  0  0  0 
  2  4  1  0  0  0  0 
  3  5  1  0  0  0  0 
  3  6  2  0  0  0  0 
  4  7  2  0  0  0  0 
  4  8  1  0  0  0  0 
  5  9  1  0  0  0  0 
  6 10  1  0  0  0  0 
  6 11  1  0  0  0  0 
  7 12  1  0  0  0  0 
  9 13  1  0  0  0  0 
 11 13  1  0  0  0  0 
 12 14  2  0  0  0  0 
 14 15  1  0  0  0  0 
 15 16  2  0  0  0  0 
 15 17  1  0  0  0  0 
 16 18  1  0  0  0  0 
 18 19  1  0  0  0  0 
  5 20  1  0  0  0  0 
  5 21  1  0  0  0  0 
  1 22  1  0  0  0  0 
  2 23  1  0  0  0  0 
  7 24  1  0  0  0  0 
  8 25  1  0  0  0  0 
  8 26  1  0  0  0  0 
  8 27  1  0  0  0  0 
  9 28  1  0  0  0  0 
  9 29  1  0  0  0  0 
 10 30  1  0  0  0  0 
 10 31  1  0  0  0  0 
 10 32  1  0  0  0  0 
 11 33  1  0  0  0  0 
 11 34  1  0  0  0  0 
 12 35  1  0  0  0  0 
 13 36  1  0  0  0  0 
 13 37  1  0  0  0  0 
 14 38  1  0  0  0  0 
 16 39  1  0  0  0  0 
 17 40  1  0  0  0  0 
 17 41  1  0  0  0  0 
 17 42  1  0  0  0  0 
 18 43  1  0  0  0  0 
 18 44  1  0  0  0  0 
 19 45  1  0  0  0  0 
 20 46  1  0  0  0  0 
 20 47  1  0  0  0  0 
 20 48  1  0  0  0  0 
 21 49  1  0  0  0  0 
 21 50  1  0  0  0  0 
 21 51  1  0  0  0  0 
M  END
> <cdk:Title>
retinol

> <Conformer>
1

> <SuperDrugID>
SD002554

$$$$
