lysergide
  CDK     0628171801

 49 52  0  0  0  0  0  0  0  0999 V2000
    0.7041   -0.0292   -0.6514 C   0  0  0  0  0  0  0  0  0  0  0  0
   -0.4373   -0.1281    0.3165 N   0  0  2  0  0  0  0  0  0  0  0  0
   -0.0754   -0.1229    1.7830 C   0  0  1  0  0  0  0  0  0  0  0  0
   -1.3585   -1.2689    0.0260 C   0  0  1  0  0  0  0  0  0  0  0  0
    0.5301   -1.4143    2.2461 C   0  0  0  0  0  0  0  0  0  0  0  0
    0.6027    1.2331    2.2320 C   0  0  1  0  0  0  0  0  0  0  0  0
   -0.7217   -2.6326    0.4466 C   0  0  1  0  0  0  0  0  0  0  0  0
    1.4117   -1.4170    3.3616 C   0  0  0  0  0  0  0  0  0  0  0  0
    0.1711   -2.5560    1.6055 C   0  0  0  0  0  0  0  0  0  0  0  0
    1.4741    1.0703    3.4029 C   0  0  0  0  0  0  0  0  0  0  0  0
   -1.7492   -3.7282    0.5279 C   0  0  0  0  0  0  0  0  0  0  0  0
    1.8217   -0.1748    3.8769 C   0  0  0  0  0  0  0  0  0  0  0  0
    1.9451   -2.5443    4.0546 C   0  0  0  0  0  0  0  0  0  0  0  0
    2.1391    1.9954    4.2088 C   0  0  0  0  0  0  0  0  0  0  0  0
   -2.8490   -3.7993    1.3939 N   0  0  0  0  0  0  0  0  0  0  0  0
   -1.5981   -4.6392   -0.3260 O   0  0  0  0  0  0  0  0  0  0  0  0
    2.6754    0.0026    4.9573 C   0  0  0  0  0  0  0  0  0  0  0  0
    2.8164   -2.3967    5.1634 C   0  0  0  0  0  0  0  0  0  0  0  0
    2.8500    1.3231    5.1391 N   0  0  0  0  0  0  0  0  0  0  0  0
   -3.9167   -4.7606    1.1263 C   0  0  1  0  0  0  0  0  0  0  0  0
   -3.0297   -2.9058    2.5291 C   0  0  1  0  0  0  0  0  0  0  0  0
    3.1875   -1.1166    5.6292 C   0  0  0  0  0  0  0  0  0  0  0  0
   -3.6184   -6.2006    1.6061 C   0  0  0  0  0  0  0  0  0  0  0  0
   -3.1148   -3.6064    3.9041 C   0  0  0  0  0  0  0  0  0  0  0  0
   -1.0259   -0.0965    2.3287 H   0  0  0  0  0  0  0  0  0  0  0  0
    1.5180   -0.7068   -0.3872 H   0  0  0  0  0  0  0  0  0  0  0  0
    1.0918    0.9873   -0.6767 H   0  0  0  0  0  0  0  0  0  0  0  0
    0.3875   -0.2575   -1.6713 H   0  0  0  0  0  0  0  0  0  0  0  0
   -2.2946   -1.0866    0.5581 H   0  0  0  0  0  0  0  0  0  0  0  0
   -1.6285   -1.2932   -1.0345 H   0  0  0  0  0  0  0  0  0  0  0  0
    1.2256    1.6607    1.4496 H   0  0  0  0  0  0  0  0  0  0  0  0
   -0.1717    1.9689    2.4714 H   0  0  0  0  0  0  0  0  0  0  0  0
   -0.0365   -2.8811   -0.3730 H   0  0  0  0  0  0  0  0  0  0  0  0
    0.5478   -3.4250    1.8975 H   0  0  0  0  0  0  0  0  0  0  0  0
    1.7080   -3.4954    3.7745 H   0  0  0  0  0  0  0  0  0  0  0  0
    2.1017    3.0114    4.1117 H   0  0  0  0  0  0  0  0  0  0  0  0
    3.1805   -3.2268    5.6352 H   0  0  0  0  0  0  0  0  0  0  0  0
    3.4038    1.7290    5.8247 H   0  0  0  0  0  0  0  0  0  0  0  0
   -4.8580   -4.4464    1.5888 H   0  0  0  0  0  0  0  0  0  0  0  0
   -4.1258   -4.7933    0.0526 H   0  0  0  0  0  0  0  0  0  0  0  0
   -2.2265   -2.1841    2.6279 H   0  0  0  0  0  0  0  0  0  0  0  0
   -3.9421   -2.3244    2.3726 H   0  0  0  0  0  0  0  0  0  0  0  0
    3.8107   -1.0051    6.4313 H   0  0  0  0  0  0  0  0  0  0  0  0
   -4.4507   -6.8521    1.3307 H   0  0  0  0  0  0  0  0  0  0  0  0
   -2.7087   -6.5878    1.1444 H   0  0  0  0  0  0  0  0  0  0  0  0
   -3.5026   -6.2322    2.6890 H   0  0  0  0  0  0  0  0  0  0  0  0
   -3.1450   -2.8505    4.6930 H   0  0  0  0  0  0  0  0  0  0  0  0
   -4.0197   -4.2126    3.9753 H   0  0  0  0  0  0  0  0  0  0  0  0
   -2.2401   -4.2405    4.0620 H   0  0  0  0  0  0  0  0  0  0  0  0
  1  2  1  0  0  0  0 
  3  2  1  0  0  0  0 
  2  4  1  0  0  0  0 
  3  5  1  0  0  0  0 
  3  6  1  0  0  0  0 
  3 25  1  0  0  0  0 
  7  4  1  0  0  0  0 
  5  8  1  0  0  0  0 
  5  9  2  0  0  0  0 
  6 10  1  0  0  0  0 
  7  9  1  0  0  0  0 
  7 11  1  0  0  0  0 
  8 12  2  0  0  0  0 
  8 13  1  0  0  0  0 
 10 12  1  0  0  0  0 
 10 14  2  0  0  0  0 
 11 15  1  0  0  0  0 
 11 16  2  0  0  0  0 
 12 17  1  0  0  0  0 
 13 18  2  0  0  0  0 
 14 19  1  0  0  0  0 
 15 20  1  0  0  0  0 
 15 21  1  0  0  0  0 
 17 19  1  0  0  0  0 
 17 22  2  0  0  0  0 
 18 22  1  0  0  0  0 
 20 23  1  0  0  0  0 
 21 24  1  0  0  0  0 
  1 26  1  0  0  0  0 
  1 27  1  0  0  0  0 
  1 28  1  0  0  0  0 
  4 29  1  0  0  0  0 
  4 30  1  0  0  0  0 
  6 31  1  0  0  0  0 
  6 32  1  0  0  0  0 
  7 33  1  0  0  0  0 
  9 34  1  0  0  0  0 
 13 35  1  0  0  0  0 
 14 36  1  0  0  0  0 
 18 37  1  0  0  0  0 
 19 38  1  0  0  0  0 
 20 39  1  0  0  0  0 
 20 40  1  0  0  0  0 
 21 41  1  0  0  0  0 
 21 42  1  0  0  0  0 
 22 43  1  0  0  0  0 
 23 44  1  0  0  0  0 
 23 45  1  0  0  0  0 
 23 46  1  0  0  0  0 
 24 47  1  0  0  0  0 
 24 48  1  0  0  0  0 
 24 49  1  0  0  0  0 
M  END
> <cdk:Title>
lysergide

> <Conformer>
1

> <SuperDrugID>
SD001435

$$$$
