fotemustine
  CDK     0628171801

 38 37  0  0  0  0  0  0  0  0999 V2000
   -1.8072    1.6361   -0.7052 P   0  0  2  0  0  0  0  0  0  0  0  0
   -1.7282    3.2738   -0.1746 C   0  0  2  0  0  0  0  0  0  0  0  0
   -0.3267    1.1424   -1.0601 O   0  0  0  0  0  0  0  0  0  0  0  0
   -2.7179    1.6335   -2.0261 O   0  0  0  0  0  0  0  0  0  0  0  0
   -2.4218    0.8063    0.3411 O   0  0  0  0  0  0  0  0  0  0  0  0
   -3.0867    3.7098   -0.0721 N   0  0  0  0  0  0  0  0  0  0  0  0
   -0.9229    4.1709   -1.1490 C   0  0  0  0  0  0  0  0  0  0  0  0
   -0.0818   -0.2710   -0.9413 C   0  0  1  0  0  0  0  0  0  0  0  0
   -3.1208    0.3683   -2.5747 C   0  0  2  0  0  0  0  0  0  0  0  0
   -3.5725    4.7594    0.6482 C   0  0  0  0  0  0  0  0  0  0  0  0
    1.3715   -0.5590   -1.3606 C   0  0  0  0  0  0  0  0  0  0  0  0
   -4.3598    0.6030   -3.4594 C   0  0  0  0  0  0  0  0  0  0  0  0
   -4.9319    5.0091    0.6592 N   0  0  0  0  0  0  0  0  0  0  0  0
   -2.7667    5.4703    1.2966 O   0  0  0  0  0  0  0  0  0  0  0  0
   -5.5452    6.0549    1.4483 C   0  0  1  0  0  0  0  0  0  0  0  0
   -5.7097    4.2419   -0.0060 N   0  0  0  0  0  0  0  0  0  0  0  0
   -6.4182    7.0358    0.6254 C   0  0  2  0  0  0  0  0  0  0  0  0
   -5.9394    4.4163   -1.1382 O   0  0  0  0  0  0  0  0  0  0  0  0
   -7.0650    8.3106    1.6556 Cl  0  0  0  0  0  0  0  0  0  0  0  0
   -1.2485    3.2890    0.8084 H   0  0  0  0  0  0  0  0  0  0  0  0
   -3.7400    3.2027   -0.5788 H   0  0  0  0  0  0  0  0  0  0  0  0
   -1.3641    4.1576   -2.1477 H   0  0  0  0  0  0  0  0  0  0  0  0
   -0.9119    5.2028   -0.7948 H   0  0  0  0  0  0  0  0  0  0  0  0
    0.1127    3.8317   -1.2178 H   0  0  0  0  0  0  0  0  0  0  0  0
   -0.2136   -0.6005    0.0939 H   0  0  0  0  0  0  0  0  0  0  0  0
   -0.7457   -0.8523   -1.5842 H   0  0  0  0  0  0  0  0  0  0  0  0
   -3.3932   -0.3597   -1.8051 H   0  0  0  0  0  0  0  0  0  0  0  0
   -2.3207   -0.0404   -3.1946 H   0  0  0  0  0  0  0  0  0  0  0  0
    1.5573   -1.6351   -1.3558 H   0  0  0  0  0  0  0  0  0  0  0  0
    1.5588   -0.1763   -2.3658 H   0  0  0  0  0  0  0  0  0  0  0  0
    2.0646   -0.0799   -0.6663 H   0  0  0  0  0  0  0  0  0  0  0  0
   -4.6980   -0.3430   -3.8883 H   0  0  0  0  0  0  0  0  0  0  0  0
   -5.1719    1.0267   -2.8631 H   0  0  0  0  0  0  0  0  0  0  0  0
   -4.1236    1.2932   -4.2725 H   0  0  0  0  0  0  0  0  0  0  0  0
   -6.1704    5.5811    2.2115 H   0  0  0  0  0  0  0  0  0  0  0  0
   -4.7931    6.6447    1.9797 H   0  0  0  0  0  0  0  0  0  0  0  0
   -7.2668    6.5115    0.1794 H   0  0  0  0  0  0  0  0  0  0  0  0
   -5.8249    7.4875   -0.1730 H   0  0  0  0  0  0  0  0  0  0  0  0
  2  1  1  0  0  0  0 
  1  3  1  0  0  0  0 
  1  4  1  0  0  0  0 
  1  5  2  0  0  0  0 
  2  6  1  0  0  0  0 
  2  7  1  0  0  0  0 
  3  8  1  0  0  0  0 
  4  9  1  0  0  0  0 
  6 10  1  0  0  0  0 
  8 11  1  0  0  0  0 
  9 12  1  0  0  0  0 
 10 13  1  0  0  0  0 
 10 14  2  0  0  0  0 
 13 15  1  0  0  0  0 
 13 16  1  0  0  0  0 
 15 17  1  0  0  0  0 
 16 18  2  0  0  0  0 
 17 19  1  0  0  0  0 
 20  2  1  0  0  0  0 
 21  6  1  0  0  0  0 
 22  7  1  0  0  0  0 
 23  7  1  0  0  0  0 
 24  7  1  0  0  0  0 
 25  8  1  0  0  0  0 
 26  8  1  0  0  0  0 
 27  9  1  0  0  0  0 
 28  9  1  0  0  0  0 
 29 11  1  0  0  0  0 
 30 11  1  0  0  0  0 
 31 11  1  0  0  0  0 
 32 12  1  0  0  0  0 
 33 12  1  0  0  0  0 
 34 12  1  0  0  0  0 
 35 15  1  0  0  0  0 
 36 15  1  0  0  0  0 
 37 17  1  0  0  0  0 
 38 17  1  0  0  0  0 
M  END
> <cdk:Title>
fotemustine

> <Conformer>
1

> <SuperDrugID>
SD001120

$$$$
