fexofenadine
  CDK     0628171801

 76 79  0  0  0  0  0  0  0  0999 V2000
   -7.2947   -0.4861   -3.5067 C   0  0  1  0  0  0  0  0  0  0  0  0
   -7.1926   -1.4002   -4.6159 O   0  0  0  0  0  0  0  0  0  0  0  0
   -5.9083   -0.6612   -2.7531 C   0  0  2  0  0  0  0  0  0  0  0  0
   -7.4844    0.9206   -4.0319 C   0  0  0  0  0  0  0  0  0  0  0  0
   -8.5185   -0.8796   -2.7054 C   0  0  0  0  0  0  0  0  0  0  0  0
   -4.6910   -0.2153   -3.6365 C   0  0  2  0  0  0  0  0  0  0  0  0
   -5.7091   -2.1086   -2.1727 C   0  0  1  0  0  0  0  0  0  0  0  0
   -7.5614    1.2017   -5.4239 C   0  0  0  0  0  0  0  0  0  0  0  0
   -7.5638    2.0275   -3.1453 C   0  0  0  0  0  0  0  0  0  0  0  0
   -9.6215   -1.5194   -3.3322 C   0  0  0  0  0  0  0  0  0  0  0  0
   -8.6239   -0.6375   -1.3087 C   0  0  0  0  0  0  0  0  0  0  0  0
   -3.3271   -0.5595   -2.9887 C   0  0  1  0  0  0  0  0  0  0  0  0
   -4.2798   -2.3701   -1.6317 C   0  0  1  0  0  0  0  0  0  0  0  0
   -7.6961    2.5162   -5.9045 C   0  0  0  0  0  0  0  0  0  0  0  0
   -7.7029    3.3443   -3.6224 C   0  0  0  0  0  0  0  0  0  0  0  0
  -10.7303   -1.9679   -2.5930 C   0  0  0  0  0  0  0  0  0  0  0  0
   -9.7290   -1.0881   -0.5647 C   0  0  0  0  0  0  0  0  0  0  0  0
   -3.2201   -2.0082   -2.6237 N   0  0  1  0  0  0  0  0  0  0  0  0
   -7.7649    3.5893   -5.0033 C   0  0  0  0  0  0  0  0  0  0  0  0
  -10.7789   -1.7649   -1.2050 C   0  0  0  0  0  0  0  0  0  0  0  0
   -3.0799   -3.0020   -3.7449 C   0  0  1  0  0  0  0  0  0  0  0  0
   -1.9072   -2.7581   -4.7289 C   0  0  1  0  0  0  0  0  0  0  0  0
   -0.5100   -2.6984   -4.0457 C   0  0  2  0  0  0  0  0  0  0  0  0
    0.6361   -2.2015   -4.9729 C   0  0  2  0  0  0  0  0  0  0  0  0
    1.8961   -2.4309   -4.3429 O   0  0  0  0  0  0  0  0  0  0  0  0
    0.4886   -0.7611   -5.3368 C   0  0  0  0  0  0  0  0  0  0  0  0
    0.9353    0.2758   -4.4881 C   0  0  0  0  0  0  0  0  0  0  0  0
   -0.1453   -0.3983   -6.5424 C   0  0  0  0  0  0  0  0  0  0  0  0
    0.7656    1.6284   -4.8429 C   0  0  0  0  0  0  0  0  0  0  0  0
   -0.3528    0.9494   -6.8715 C   0  0  0  0  0  0  0  0  0  0  0  0
    0.1074    2.0059   -6.0436 C   0  0  0  0  0  0  0  0  0  0  0  0
   -0.1513    3.4433   -6.4553 C   0  0  1  0  0  0  0  0  0  0  0  0
   -1.6322    3.6454   -6.3893 C   0  0  0  0  0  0  0  0  0  0  0  0
   -2.2653    3.6014   -5.1903 O   0  0  0  0  0  0  0  0  0  0  0  0
   -2.3396    3.8523   -7.4021 O   0  0  0  0  0  0  0  0  0  0  0  0
    0.4961    4.5313   -5.5284 C   0  0  0  0  0  0  0  0  0  0  0  0
    0.4326    3.7050   -7.8915 C   0  0  0  0  0  0  0  0  0  0  0  0
   -7.2477   -2.3015   -4.2383 H   0  0  0  0  0  0  0  0  0  0  0  0
   -5.8907    0.0124   -1.8926 H   0  0  0  0  0  0  0  0  0  0  0  0
   -4.7247    0.8676   -3.7895 H   0  0  0  0  0  0  0  0  0  0  0  0
   -4.7388   -0.6846   -4.6211 H   0  0  0  0  0  0  0  0  0  0  0  0
   -6.4101   -2.2834   -1.3530 H   0  0  0  0  0  0  0  0  0  0  0  0
   -5.9191   -2.8603   -2.9329 H   0  0  0  0  0  0  0  0  0  0  0  0
   -7.5133    0.4530   -6.1176 H   0  0  0  0  0  0  0  0  0  0  0  0
   -7.5142    1.8901   -2.1349 H   0  0  0  0  0  0  0  0  0  0  0  0
   -9.6270   -1.6754   -4.3429 H   0  0  0  0  0  0  0  0  0  0  0  0
   -7.8907   -0.1416   -0.8016 H   0  0  0  0  0  0  0  0  0  0  0  0
   -2.5179   -0.2562   -3.6539 H   0  0  0  0  0  0  0  0  0  0  0  0
   -3.2101    0.0431   -2.0812 H   0  0  0  0  0  0  0  0  0  0  0  0
   -4.1332   -1.7851   -0.7191 H   0  0  0  0  0  0  0  0  0  0  0  0
   -4.1924   -3.4207   -1.3410 H   0  0  0  0  0  0  0  0  0  0  0  0
   -7.7400    2.6895   -6.9117 H   0  0  0  0  0  0  0  0  0  0  0  0
   -7.7548    4.1247   -2.9637 H   0  0  0  0  0  0  0  0  0  0  0  0
  -11.4986   -2.4464   -3.0688 H   0  0  0  0  0  0  0  0  0  0  0  0
   -9.7688   -0.9282    0.4444 H   0  0  0  0  0  0  0  0  0  0  0  0
   -7.8586    4.5453   -5.3527 H   0  0  0  0  0  0  0  0  0  0  0  0
  -11.5780   -2.1070   -0.6659 H   0  0  0  0  0  0  0  0  0  0  0  0
   -2.9336   -3.9961   -3.3146 H   0  0  0  0  0  0  0  0  0  0  0  0
   -3.9993   -3.0416   -4.3335 H   0  0  0  0  0  0  0  0  0  0  0  0
   -1.9003   -3.5681   -5.4644 H   0  0  0  0  0  0  0  0  0  0  0  0
   -2.1152   -1.8397   -5.2762 H   0  0  0  0  0  0  0  0  0  0  0  0
   -0.2621   -3.7054   -3.7012 H   0  0  0  0  0  0  0  0  0  0  0  0
   -0.5531   -2.0581   -3.1631 H   0  0  0  0  0  0  0  0  0  0  0  0
    0.6469   -2.8213   -5.8740 H   0  0  0  0  0  0  0  0  0  0  0  0
    2.5659   -2.1502   -5.0023 H   0  0  0  0  0  0  0  0  0  0  0  0
    1.3908    0.0501   -3.6005 H   0  0  0  0  0  0  0  0  0  0  0  0
   -0.4839   -1.1165   -7.1865 H   0  0  0  0  0  0  0  0  0  0  0  0
    1.1291    2.3275   -4.1943 H   0  0  0  0  0  0  0  0  0  0  0  0
   -0.8574    1.1504   -7.7362 H   0  0  0  0  0  0  0  0  0  0  0  0
   -3.2320    3.7410   -5.1300 H   0  0  0  0  0  0  0  0  0  0  0  0
    0.2563    5.5388   -5.8790 H   0  0  0  0  0  0  0  0  0  0  0  0
    1.5844    4.4302   -5.5139 H   0  0  0  0  0  0  0  0  0  0  0  0
    0.1359    4.4534   -4.4999 H   0  0  0  0  0  0  0  0  0  0  0  0
    0.2900    4.7460   -8.1921 H   0  0  0  0  0  0  0  0  0  0  0  0
    1.5027    3.4874   -7.9168 H   0  0  0  0  0  0  0  0  0  0  0  0
   -0.0479    3.0915   -8.6540 H   0  0  0  0  0  0  0  0  0  0  0  0
  1  2  1  0  0  0  0 
  1  3  1  0  0  0  0 
  1  4  1  0  0  0  0 
  1  5  1  0  0  0  0 
  3  6  1  0  0  0  0 
  3  7  1  0  0  0  0 
  4  8  2  0  0  0  0 
  4  9  1  0  0  0  0 
  5 10  2  0  0  0  0 
  5 11  1  0  0  0  0 
  6 12  1  0  0  0  0 
  7 13  1  0  0  0  0 
  8 14  1  0  0  0  0 
  9 15  2  0  0  0  0 
 10 16  1  0  0  0  0 
 11 17  2  0  0  0  0 
 12 18  1  0  0  0  0 
 13 18  1  0  0  0  0 
 14 19  2  0  0  0  0 
 15 19  1  0  0  0  0 
 16 20  2  0  0  0  0 
 17 20  1  0  0  0  0 
 18 21  1  0  0  0  0 
 21 22  1  0  0  0  0 
 22 23  1  0  0  0  0 
 24 23  1  0  0  0  0 
 24 25  1  0  0  0  0 
 24 26  1  0  0  0  0 
 26 27  2  0  0  0  0 
 26 28  1  0  0  0  0 
 27 29  1  0  0  0  0 
 28 30  2  0  0  0  0 
 29 31  2  0  0  0  0 
 30 31  1  0  0  0  0 
 31 32  1  0  0  0  0 
 32 33  1  0  0  0  0 
 33 34  1  0  0  0  0 
 33 35  2  0  0  0  0 
 32 36  1  0  0  0  0 
 32 37  1  0  0  0  0 
  2 38  1  0  0  0  0 
  3 39  1  0  0  0  0 
  6 40  1  0  0  0  0 
  6 41  1  0  0  0  0 
  7 42  1  0  0  0  0 
  7 43  1  0  0  0  0 
  8 44  1  0  0  0  0 
  9 45  1  0  0  0  0 
 10 46  1  0  0  0  0 
 11 47  1  0  0  0  0 
 12 48  1  0  0  0  0 
 12 49  1  0  0  0  0 
 13 50  1  0  0  0  0 
 13 51  1  0  0  0  0 
 14 52  1  0  0  0  0 
 15 53  1  0  0  0  0 
 16 54  1  0  0  0  0 
 17 55  1  0  0  0  0 
 19 56  1  0  0  0  0 
 20 57  1  0  0  0  0 
 21 58  1  0  0  0  0 
 21 59  1  0  0  0  0 
 22 60  1  0  0  0  0 
 22 61  1  0  0  0  0 
 23 62  1  0  0  0  0 
 23 63  1  0  0  0  0 
 24 64  1  0  0  0  0 
 25 65  1  0  0  0  0 
 27 66  1  0  0  0  0 
 28 67  1  0  0  0  0 
 29 68  1  0  0  0  0 
 30 69  1  0  0  0  0 
 34 70  1  0  0  0  0 
 36 71  1  0  0  0  0 
 36 72  1  0  0  0  0 
 36 73  1  0  0  0  0 
 37 74  1  0  0  0  0 
 37 75  1  0  0  0  0 
 37 76  1  0  0  0  0 
M  END
> <cdk:Title>
fexofenadine

> <Conformer>
1

> <SuperDrugID>
SD001047

$$$$
