actinoquinol
  CDK     0628171801

 28 29  0  0  0  0  0  0  0  0999 V2000
    1.4874    0.7566    0.1921 O   0  0  0  0  0  0  0  0  0  0  0  0
    2.3006    1.3211   -0.8586 C   0  0  1  0  0  0  0  0  0  0  0  0
    1.2475    1.6498    1.2044 C   0  0  0  0  0  0  0  0  0  0  0  0
    2.5162    0.2680   -1.9596 C   0  0  0  0  0  0  0  0  0  0  0  0
    0.1224    2.4986    1.1743 C   0  0  0  0  0  0  0  0  0  0  0  0
    2.1364    1.7270    2.2897 C   0  0  0  0  0  0  0  0  0  0  0  0
   -0.0995    3.4592    2.2058 C   0  0  0  0  0  0  0  0  0  0  0  0
   -0.7460    2.3982    0.1330 N   0  0  0  0  0  0  0  0  0  0  0  0
    1.9326    2.6684    3.3112 C   0  0  0  0  0  0  0  0  0  0  0  0
    0.8246    3.5429    3.2852 C   0  0  0  0  0  0  0  0  0  0  0  0
   -1.2431    4.2865    2.0740 C   0  0  0  0  0  0  0  0  0  0  0  0
   -1.8399    3.1847    0.0027 C   0  0  0  0  0  0  0  0  0  0  0  0
    0.6553    4.7091    4.6133 S   0  0  1  0  0  0  0  0  0  0  0  0
   -2.1112    4.1568    0.9772 C   0  0  0  0  0  0  0  0  0  0  0  0
    0.6698    6.2119    4.0545 O   0  0  0  0  0  0  0  0  0  0  0  0
   -0.7189    4.4661    5.4029 O   0  0  0  0  0  0  0  0  0  0  0  0
    1.9246    4.5619    5.7518 O   0  0  0  0  0  0  0  0  0  0  0  0
    1.8138    2.1946   -1.3060 H   0  0  0  0  0  0  0  0  0  0  0  0
    3.2787    1.6247   -0.4708 H   0  0  0  0  0  0  0  0  0  0  0  0
    3.0310   -0.6021   -1.5491 H   0  0  0  0  0  0  0  0  0  0  0  0
    3.1224    0.6900   -2.7637 H   0  0  0  0  0  0  0  0  0  0  0  0
    1.5552   -0.0462   -2.3701 H   0  0  0  0  0  0  0  0  0  0  0  0
    2.9432    1.1015    2.3299 H   0  0  0  0  0  0  0  0  0  0  0  0
    2.6113    2.7086    4.0727 H   0  0  0  0  0  0  0  0  0  0  0  0
   -1.4639    4.9996    2.7681 H   0  0  0  0  0  0  0  0  0  0  0  0
   -2.4573    3.0682   -0.8034 H   0  0  0  0  0  0  0  0  0  0  0  0
   -2.9280    4.7642    0.8906 H   0  0  0  0  0  0  0  0  0  0  0  0
    2.7436    4.7304    5.2381 H   0  0  0  0  0  0  0  0  0  0  0  0
  1  2  1  0  0  0  0 
  1  3  1  0  0  0  0 
  2  4  1  0  0  0  0 
  3  5  2  0  0  0  0 
  3  6  1  0  0  0  0 
  5  7  1  0  0  0  0 
  5  8  1  0  0  0  0 
  6  9  2  0  0  0  0 
  7 10  2  0  0  0  0 
  7 11  1  0  0  0  0 
  8 12  2  0  0  0  0 
  9 10  1  0  0  0  0 
 10 13  1  0  0  0  0 
 11 14  2  0  0  0  0 
 12 14  1  0  0  0  0 
 13 15  2  0  0  0  0 
 13 16  2  0  0  0  0 
 13 17  1  0  0  0  0 
  2 18  1  0  0  0  0 
  2 19  1  0  0  0  0 
  4 20  1  0  0  0  0 
  4 21  1  0  0  0  0 
  4 22  1  0  0  0  0 
  6 23  1  0  0  0  0 
  9 24  1  0  0  0  0 
 11 25  1  0  0  0  0 
 12 26  1  0  0  0  0 
 14 27  1  0  0  0  0 
 17 28  1  0  0  0  0 
M  END
> <cdk:Title>
actinoquinol

> <Conformer>
1

> <SuperDrugID>
SD003135

$$$$
