glybuthiazol
  CDK     0628171801

 36 37  0  0  0  0  0  0  0  0999 V2000
    2.1401    2.5130   -2.3324 N   0  0  0  0  0  0  0  0  0  0  0  0
    2.8609    4.0656   -2.2247 S   0  0  1  0  0  0  0  0  0  0  0  0
    2.8251    1.3767   -2.0929 C   0  0  0  0  0  0  0  0  0  0  0  0
    4.2645    4.0431   -3.0034 O   0  0  0  0  0  0  0  0  0  0  0  0
    1.8958    5.1233   -2.9499 O   0  0  0  0  0  0  0  0  0  0  0  0
    3.0844    4.5375   -0.5320 C   0  0  0  0  0  0  0  0  0  0  0  0
    2.3562   -0.2312   -2.6080 S   0  0  0  0  0  0  0  0  0  0  0  0
    4.0139    1.2194   -1.4688 N   0  0  0  0  0  0  0  0  0  0  0  0
    2.0757    4.2569    0.4114 C   0  0  0  0  0  0  0  0  0  0  0  0
    4.2541    5.2075   -0.1173 C   0  0  0  0  0  0  0  0  0  0  0  0
    3.8272   -0.9987   -2.0278 C   0  0  0  0  0  0  0  0  0  0  0  0
    4.5186    0.0076   -1.4371 N   0  0  0  0  0  0  0  0  0  0  0  0
    2.2367    4.6348    1.7567 C   0  0  0  0  0  0  0  0  0  0  0  0
    4.4161    5.5874    1.2288 C   0  0  0  0  0  0  0  0  0  0  0  0
    4.2511   -2.4217   -2.2038 C   0  0  2  0  0  0  0  0  0  0  0  0
    3.4079    5.2991    2.1713 C   0  0  0  0  0  0  0  0  0  0  0  0
    5.6313   -2.6708   -1.5165 C   0  0  0  0  0  0  0  0  0  0  0  0
    4.3823   -2.7260   -3.7297 C   0  0  0  0  0  0  0  0  0  0  0  0
    3.2007   -3.3861   -1.5723 C   0  0  0  0  0  0  0  0  0  0  0  0
    3.5520    5.6553    3.4618 N   0  0  0  0  0  0  0  0  0  0  0  0
    1.2165    2.4499   -2.6189 H   0  0  0  0  0  0  0  0  0  0  0  0
    1.2180    3.7788    0.1246 H   0  0  0  0  0  0  0  0  0  0  0  0
    4.9916    5.4249   -0.7914 H   0  0  0  0  0  0  0  0  0  0  0  0
    1.4943    4.4258    2.4285 H   0  0  0  0  0  0  0  0  0  0  0  0
    5.2679    6.0765    1.5142 H   0  0  0  0  0  0  0  0  0  0  0  0
    5.9555   -3.7044   -1.6571 H   0  0  0  0  0  0  0  0  0  0  0  0
    6.3987   -2.0161   -1.9358 H   0  0  0  0  0  0  0  0  0  0  0  0
    5.5681   -2.4801   -0.4425 H   0  0  0  0  0  0  0  0  0  0  0  0
    4.7285   -3.7494   -3.8908 H   0  0  0  0  0  0  0  0  0  0  0  0
    5.0967   -2.0484   -4.2033 H   0  0  0  0  0  0  0  0  0  0  0  0
    3.4217   -2.6165   -4.2375 H   0  0  0  0  0  0  0  0  0  0  0  0
    3.5178   -4.4258   -1.6899 H   0  0  0  0  0  0  0  0  0  0  0  0
    2.2271   -3.2773   -2.0541 H   0  0  0  0  0  0  0  0  0  0  0  0
    3.0821   -3.1865   -0.5050 H   0  0  0  0  0  0  0  0  0  0  0  0
    2.8473    5.4555    4.0985 H   0  0  0  0  0  0  0  0  0  0  0  0
    4.3541    6.1146    3.7560 H   0  0  0  0  0  0  0  0  0  0  0  0
  1  2  1  0  0  0  0 
  1  3  1  0  0  0  0 
  2  4  2  0  0  0  0 
  2  5  2  0  0  0  0 
  2  6  1  0  0  0  0 
  3  7  1  0  0  0  0 
  3  8  2  0  0  0  0 
  6  9  2  0  0  0  0 
  6 10  1  0  0  0  0 
  7 11  1  0  0  0  0 
  8 12  1  0  0  0  0 
  9 13  1  0  0  0  0 
 10 14  2  0  0  0  0 
 11 12  2  0  0  0  0 
 11 15  1  0  0  0  0 
 13 16  2  0  0  0  0 
 14 16  1  0  0  0  0 
 15 17  1  0  0  0  0 
 15 18  1  0  0  0  0 
 15 19  1  0  0  0  0 
 16 20  1  0  0  0  0 
  1 21  1  0  0  0  0 
  9 22  1  0  0  0  0 
 10 23  1  0  0  0  0 
 13 24  1  0  0  0  0 
 14 25  1  0  0  0  0 
 17 26  1  0  0  0  0 
 17 27  1  0  0  0  0 
 17 28  1  0  0  0  0 
 18 29  1  0  0  0  0 
 18 30  1  0  0  0  0 
 18 31  1  0  0  0  0 
 19 32  1  0  0  0  0 
 19 33  1  0  0  0  0 
 19 34  1  0  0  0  0 
 20 35  1  0  0  0  0 
 20 36  1  0  0  0  0 
M  END
> <cdk:Title>
glybuthiazol

> <Conformer>
1

> <SuperDrugID>
SD002823

$$$$
