acadesine
  CDK     0628171801

 32 33  0  0  0  0  0  0  0  0999 V2000
    2.7935   -0.7582    0.5293 O   0  0  0  0  0  0  0  0  0  0  0  0
    4.1057   -1.3221    0.4800 C   0  0  1  0  0  0  0  0  0  0  0  0
    4.2042   -2.3653   -0.6595 C   0  0  1  0  0  0  0  0  0  0  0  0
    5.1555   -0.2838    0.0659 C   0  0  2  0  0  0  0  0  0  0  0  0
    4.6964   -1.6753   -1.8236 O   0  0  0  0  0  0  0  0  0  0  0  0
    5.0308   -3.4928   -0.3083 N   0  0  0  0  0  0  0  0  0  0  0  0
    4.8850    1.0140    0.5907 O   0  0  0  0  0  0  0  0  0  0  0  0
    5.0756   -0.3370   -1.4749 C   0  0  2  0  0  0  0  0  0  0  0  0
    4.7309   -4.4579    0.5865 C   0  0  0  0  0  0  0  0  0  0  0  0
    6.2442   -3.7998   -0.8105 C   0  0  0  0  0  0  0  0  0  0  0  0
    6.3870    0.0327   -2.2032 C   0  0  2  0  0  0  0  0  0  0  0  0
    3.6024   -4.5279    1.3265 N   0  0  0  0  0  0  0  0  0  0  0  0
    5.7955   -5.3642    0.6124 C   0  0  0  0  0  0  0  0  0  0  0  0
    6.7157   -4.9271   -0.2612 N   0  0  0  0  0  0  0  0  0  0  0  0
    6.7166    1.4033   -2.0057 O   0  0  0  0  0  0  0  0  0  0  0  0
    5.9371   -6.5334    1.3854 C   0  0  0  0  0  0  0  0  0  0  0  0
    7.0426   -7.2953    1.3055 N   0  0  0  0  0  0  0  0  0  0  0  0
    5.0411   -6.9090    2.1731 O   0  0  0  0  0  0  0  0  0  0  0  0
    2.2104   -1.5063    0.7802 H   0  0  0  0  0  0  0  0  0  0  0  0
    4.3398   -1.7408    1.4634 H   0  0  0  0  0  0  0  0  0  0  0  0
    3.2106   -2.7459   -0.9156 H   0  0  0  0  0  0  0  0  0  0  0  0
    6.1408   -0.6075    0.4161 H   0  0  0  0  0  0  0  0  0  0  0  0
    5.5791    1.5941    0.2133 H   0  0  0  0  0  0  0  0  0  0  0  0
    4.2801    0.3299   -1.8210 H   0  0  0  0  0  0  0  0  0  0  0  0
    6.7552   -3.2596   -1.5115 H   0  0  0  0  0  0  0  0  0  0  0  0
    6.2688   -0.1429   -3.2747 H   0  0  0  0  0  0  0  0  0  0  0  0
    7.2092   -0.5874   -1.8411 H   0  0  0  0  0  0  0  0  0  0  0  0
    2.9263   -3.8361    1.2486 H   0  0  0  0  0  0  0  0  0  0  0  0
    3.4626   -5.2642    1.9408 H   0  0  0  0  0  0  0  0  0  0  0  0
    7.5283    1.5389   -2.5381 H   0  0  0  0  0  0  0  0  0  0  0  0
    7.1175   -8.0990    1.8462 H   0  0  0  0  0  0  0  0  0  0  0  0
    7.7669   -7.0418    0.7125 H   0  0  0  0  0  0  0  0  0  0  0  0
  2  1  1  0  0  0  0 
  2  3  1  0  0  0  0 
  4  2  1  0  0  0  0 
  3  5  1  0  0  0  0 
  3  6  1  0  0  0  0 
  4  7  1  0  0  0  0 
  8  4  1  0  0  0  0 
  8  5  1  0  0  0  0 
  6  9  1  0  0  0  0 
  6 10  1  0  0  0  0 
  8 11  1  0  0  0  0 
  9 12  1  0  0  0  0 
  9 13  2  0  0  0  0 
 10 14  2  0  0  0  0 
 11 15  1  0  0  0  0 
 13 14  1  0  0  0  0 
 13 16  1  0  0  0  0 
 16 17  1  0  0  0  0 
 16 18  2  0  0  0  0 
  1 19  1  0  0  0  0 
  2 20  1  0  0  0  0 
  3 21  1  0  0  0  0 
  4 22  1  0  0  0  0 
  7 23  1  0  0  0  0 
  8 24  1  0  0  0  0 
 10 25  1  0  0  0  0 
 11 26  1  0  0  0  0 
 11 27  1  0  0  0  0 
 12 28  1  0  0  0  0 
 12 29  1  0  0  0  0 
 15 30  1  0  0  0  0 
 17 31  1  0  0  0  0 
 17 32  1  0  0  0  0 
M  END
> <cdk:Title>
acadesine

> <Conformer>
1

> <SuperDrugID>
SD000015

$$$$
