moquizone
  CDK     0628171801

 47 50  0  0  0  0  0  0  0  0999 V2000
   -1.9670   -0.7570    1.3180 C   0  0  0  0  0  0  0  0  0  0  0  0
   -1.0665   -0.2033    0.2674 C   0  0  1  0  0  0  0  0  0  0  0  0
   -2.1015   -0.0416    2.3401 O   0  0  0  0  0  0  0  0  0  0  0  0
   -2.6407   -1.9830    1.2381 N   0  0  0  0  0  0  0  0  0  0  0  0
   -0.6857    1.2379    0.4660 N   0  0  1  0  0  0  0  0  0  0  0  0
   -3.5247   -2.3967    2.2287 C   0  0  0  0  0  0  0  0  0  0  0  0
   -2.4368   -2.9388    0.1565 C   0  0  1  0  0  0  0  0  0  0  0  0
    0.4176    1.4726    1.4521 C   0  0  1  0  0  0  0  0  0  0  0  0
   -0.4787    2.0170   -0.7952 C   0  0  2  0  0  0  0  0  0  0  0  0
   -3.4957   -3.7575    2.6389 C   0  0  0  0  0  0  0  0  0  0  0  0
   -4.4580   -1.5233    2.8438 C   0  0  0  0  0  0  0  0  0  0  0  0
   -2.3307   -4.3179    0.6003 N   0  0  0  0  0  0  0  0  0  0  0  0
    0.5474    2.9901    1.7272 C   0  0  1  0  0  0  0  0  0  0  0  0
   -0.2821    3.5199   -0.4721 C   0  0  2  0  0  0  0  0  0  0  0  0
   -2.7149   -4.6691    1.8800 C   0  0  0  0  0  0  0  0  0  0  0  0
   -4.2994   -4.1836    3.7223 C   0  0  0  0  0  0  0  0  0  0  0  0
   -5.2799   -1.9649    3.8946 C   0  0  0  0  0  0  0  0  0  0  0  0
   -1.9760   -5.2883   -0.3108 C   0  0  0  0  0  0  0  0  0  0  0  0
    0.7660    3.7139    0.4990 O   0  0  0  0  0  0  0  0  0  0  0  0
   -2.4560   -5.8094    2.3395 O   0  0  0  0  0  0  0  0  0  0  0  0
   -5.1920   -3.2929    4.3398 C   0  0  0  0  0  0  0  0  0  0  0  0
   -2.9336   -6.2555   -0.7042 C   0  0  0  0  0  0  0  0  0  0  0  0
   -0.6843   -5.3377   -0.8852 C   0  0  0  0  0  0  0  0  0  0  0  0
   -2.6100   -7.2472   -1.6464 C   0  0  0  0  0  0  0  0  0  0  0  0
   -0.3607   -6.3272   -1.8318 C   0  0  0  0  0  0  0  0  0  0  0  0
   -1.3220   -7.2824   -2.2098 C   0  0  0  0  0  0  0  0  0  0  0  0
   -0.1675   -0.8217    0.2083 H   0  0  0  0  0  0  0  0  0  0  0  0
   -1.6021   -0.3041   -0.6801 H   0  0  0  0  0  0  0  0  0  0  0  0
   -3.2964   -2.8682   -0.5191 H   0  0  0  0  0  0  0  0  0  0  0  0
   -1.5520   -2.6928   -0.4325 H   0  0  0  0  0  0  0  0  0  0  0  0
    0.2181    0.9703    2.3992 H   0  0  0  0  0  0  0  0  0  0  0  0
    1.3645    1.0889    1.0607 H   0  0  0  0  0  0  0  0  0  0  0  0
   -1.3497    1.9235   -1.4490 H   0  0  0  0  0  0  0  0  0  0  0  0
    0.3975    1.6393   -1.3320 H   0  0  0  0  0  0  0  0  0  0  0  0
   -4.5513   -0.5560    2.5297 H   0  0  0  0  0  0  0  0  0  0  0  0
   -0.3501    3.3608    2.2316 H   0  0  0  0  0  0  0  0  0  0  0  0
    1.3980    3.1699    2.3858 H   0  0  0  0  0  0  0  0  0  0  0  0
   -1.2193    3.9501   -0.1061 H   0  0  0  0  0  0  0  0  0  0  0  0
   -0.0055    4.0505   -1.3848 H   0  0  0  0  0  0  0  0  0  0  0  0
   -4.2603   -5.1496    4.0556 H   0  0  0  0  0  0  0  0  0  0  0  0
   -5.9369   -1.3194    4.3392 H   0  0  0  0  0  0  0  0  0  0  0  0
   -5.7862   -3.6179    5.1053 H   0  0  0  0  0  0  0  0  0  0  0  0
   -3.8779   -6.2399   -0.3109 H   0  0  0  0  0  0  0  0  0  0  0  0
    0.0290   -4.6560   -0.6192 H   0  0  0  0  0  0  0  0  0  0  0  0
   -3.3135   -7.9377   -1.9228 H   0  0  0  0  0  0  0  0  0  0  0  0
    0.5732   -6.3504   -2.2473 H   0  0  0  0  0  0  0  0  0  0  0  0
   -1.0850   -8.0027   -2.8950 H   0  0  0  0  0  0  0  0  0  0  0  0
  1  2  1  0  0  0  0 
  1  3  2  0  0  0  0 
  1  4  1  0  0  0  0 
  2  5  1  0  0  0  0 
  4  6  1  0  0  0  0 
  4  7  1  0  0  0  0 
  5  8  1  0  0  0  0 
  5  9  1  0  0  0  0 
  6 10  2  0  0  0  0 
  6 11  1  0  0  0  0 
  7 12  1  0  0  0  0 
  8 13  1  0  0  0  0 
  9 14  1  0  0  0  0 
 10 15  1  0  0  0  0 
 10 16  1  0  0  0  0 
 11 17  2  0  0  0  0 
 12 15  1  0  0  0  0 
 12 18  1  0  0  0  0 
 13 19  1  0  0  0  0 
 14 19  1  0  0  0  0 
 15 20  2  0  0  0  0 
 16 21  2  0  0  0  0 
 17 21  1  0  0  0  0 
 18 22  2  0  0  0  0 
 18 23  1  0  0  0  0 
 22 24  1  0  0  0  0 
 23 25  2  0  0  0  0 
 24 26  2  0  0  0  0 
 25 26  1  0  0  0  0 
  2 27  1  0  0  0  0 
  2 28  1  0  0  0  0 
  7 29  1  0  0  0  0 
  7 30  1  0  0  0  0 
  8 31  1  0  0  0  0 
  8 32  1  0  0  0  0 
  9 33  1  0  0  0  0 
  9 34  1  0  0  0  0 
 11 35  1  0  0  0  0 
 13 36  1  0  0  0  0 
 13 37  1  0  0  0  0 
 14 38  1  0  0  0  0 
 14 39  1  0  0  0  0 
 16 40  1  0  0  0  0 
 17 41  1  0  0  0  0 
 21 42  1  0  0  0  0 
 22 43  1  0  0  0  0 
 23 44  1  0  0  0  0 
 24 45  1  0  0  0  0 
 25 46  1  0  0  0  0 
 26 47  1  0  0  0  0 
M  END
> <cdk:Title>
moquizone

> <Conformer>
1

> <SuperDrugID>
SD003229

$$$$
