bevonium
  CDK     0628171801

 54 56  0  0  0  0  0  0  0  0999 V2000
    3.5593   -0.0680   -2.0872 C   0  0  1  0  0  0  0  0  0  0  0  0
    2.5746   -0.2585   -0.9665 C   0  0  0  0  0  0  0  0  0  0  0  0
    4.5620    0.8308   -1.5722 O   0  0  0  0  0  0  0  0  0  0  0  0
    4.1710   -1.3975   -2.4513 C   0  0  0  0  0  0  0  0  0  0  0  0
    3.0169    0.6244   -3.3215 C   0  0  0  0  0  0  0  0  0  0  0  0
    1.5536   -1.1754   -1.0477 O   0  0  0  0  0  0  0  0  0  0  0  0
    2.6672    0.4243    0.0840 O   0  0  0  0  0  0  0  0  0  0  0  0
    3.5002   -2.2954   -3.3254 C   0  0  0  0  0  0  0  0  0  0  0  0
    5.4333   -1.8013   -1.9433 C   0  0  0  0  0  0  0  0  0  0  0  0
    3.9187    1.1294   -4.2996 C   0  0  0  0  0  0  0  0  0  0  0  0
    1.6290    0.7719   -3.5915 C   0  0  0  0  0  0  0  0  0  0  0  0
    0.4706   -1.3436   -0.1076 C   0  0  1  0  0  0  0  0  0  0  0  0
    4.0810   -3.5182   -3.7098 C   0  0  0  0  0  0  0  0  0  0  0  0
    6.0144   -3.0268   -2.3206 C   0  0  0  0  0  0  0  0  0  0  0  0
    3.4640    1.7697   -5.4669 C   0  0  0  0  0  0  0  0  0  0  0  0
    1.1727    1.3968   -4.7683 C   0  0  0  0  0  0  0  0  0  0  0  0
   -0.5123   -2.5148   -0.4663 C   0  0  2  0  0  0  0  0  0  0  0  0
    5.3399   -3.8835   -3.2061 C   0  0  0  0  0  0  0  0  0  0  0  0
    2.0880    1.8988   -5.7084 C   0  0  0  0  0  0  0  0  0  0  0  0
   -0.0979   -3.9400   -0.0615 N   0  0  1  0  0  0  0  0  0  0  0  0
   -0.9260   -2.3758   -1.9723 C   0  0  1  0  0  0  0  0  0  0  0  0
    1.2414   -4.3362   -0.6462 C   0  0  0  0  0  0  0  0  0  0  0  0
    0.0205   -4.0746    1.4476 C   0  0  0  0  0  0  0  0  0  0  0  0
   -1.1833   -4.9220   -0.4958 C   0  0  2  0  0  0  0  0  0  0  0  0
   -1.9785   -3.4211   -2.4114 C   0  0  1  0  0  0  0  0  0  0  0  0
   -1.5745   -4.8542   -1.9957 C   0  0  1  0  0  0  0  0  0  0  0  0
    5.2924    0.8354   -2.2271 H   0  0  0  0  0  0  0  0  0  0  0  0
    2.5812   -2.0574   -3.7063 H   0  0  0  0  0  0  0  0  0  0  0  0
    5.9474   -1.2051   -1.2910 H   0  0  0  0  0  0  0  0  0  0  0  0
    4.9295    1.0350   -4.1723 H   0  0  0  0  0  0  0  0  0  0  0  0
    0.9220    0.4156   -2.9474 H   0  0  0  0  0  0  0  0  0  0  0  0
    0.8736   -1.4672    0.8962 H   0  0  0  0  0  0  0  0  0  0  0  0
   -0.0974   -0.4071   -0.1042 H   0  0  0  0  0  0  0  0  0  0  0  0
    3.5891   -4.1393   -4.3561 H   0  0  0  0  0  0  0  0  0  0  0  0
    6.9294   -3.2936   -1.9484 H   0  0  0  0  0  0  0  0  0  0  0  0
    4.1363    2.1392   -6.1413 H   0  0  0  0  0  0  0  0  0  0  0  0
    0.1696    1.4831   -4.9421 H   0  0  0  0  0  0  0  0  0  0  0  0
   -1.4275   -2.2837    0.0957 H   0  0  0  0  0  0  0  0  0  0  0  0
    5.7634   -4.7716   -3.4818 H   0  0  0  0  0  0  0  0  0  0  0  0
    1.7546    2.3512   -6.5650 H   0  0  0  0  0  0  0  0  0  0  0  0
   -1.3455   -1.3785   -2.1480 H   0  0  0  0  0  0  0  0  0  0  0  0
   -0.0471   -2.4822   -2.6128 H   0  0  0  0  0  0  0  0  0  0  0  0
    1.2596   -4.2573   -1.7332 H   0  0  0  0  0  0  0  0  0  0  0  0
    1.4972   -5.3699   -0.3898 H   0  0  0  0  0  0  0  0  0  0  0  0
    2.0468   -3.7015   -0.2670 H   0  0  0  0  0  0  0  0  0  0  0  0
   -0.8833   -3.7287    1.9573 H   0  0  0  0  0  0  0  0  0  0  0  0
    0.1774   -5.1173    1.7455 H   0  0  0  0  0  0  0  0  0  0  0  0
    0.8606   -3.5062    1.8536 H   0  0  0  0  0  0  0  0  0  0  0  0
   -2.1046   -4.7510    0.0766 H   0  0  0  0  0  0  0  0  0  0  0  0
   -0.8852   -5.9555   -0.2846 H   0  0  0  0  0  0  0  0  0  0  0  0
   -2.9471   -3.1708   -1.9673 H   0  0  0  0  0  0  0  0  0  0  0  0
   -2.0894   -3.3841   -3.4997 H   0  0  0  0  0  0  0  0  0  0  0  0
   -0.7382   -5.1930   -2.6116 H   0  0  0  0  0  0  0  0  0  0  0  0
   -2.4158   -5.5299   -2.1810 H   0  0  0  0  0  0  0  0  0  0  0  0
  1  2  1  0  0  0  0 
  1  3  1  0  0  0  0 
  1  4  1  0  0  0  0 
  1  5  1  0  0  0  0 
  2  6  1  0  0  0  0 
  2  7  2  0  0  0  0 
  4  8  2  0  0  0  0 
  4  9  1  0  0  0  0 
  5 10  2  0  0  0  0 
  5 11  1  0  0  0  0 
  6 12  1  0  0  0  0 
  8 13  1  0  0  0  0 
  9 14  2  0  0  0  0 
 10 15  1  0  0  0  0 
 11 16  2  0  0  0  0 
 12 17  1  0  0  0  0 
 13 18  2  0  0  0  0 
 14 18  1  0  0  0  0 
 15 19  2  0  0  0  0 
 16 19  1  0  0  0  0 
 17 20  1  0  0  0  0 
 17 21  1  0  0  0  0 
 20 22  1  0  0  0  0 
 20 23  1  0  0  0  0 
 20 24  1  0  0  0  0 
 21 25  1  0  0  0  0 
 24 26  1  0  0  0  0 
 25 26  1  0  0  0  0 
  3 27  1  0  0  0  0 
  8 28  1  0  0  0  0 
  9 29  1  0  0  0  0 
 10 30  1  0  0  0  0 
 11 31  1  0  0  0  0 
 12 32  1  0  0  0  0 
 12 33  1  0  0  0  0 
 13 34  1  0  0  0  0 
 14 35  1  0  0  0  0 
 15 36  1  0  0  0  0 
 16 37  1  0  0  0  0 
 17 38  1  0  0  0  0 
 18 39  1  0  0  0  0 
 19 40  1  0  0  0  0 
 21 41  1  0  0  0  0 
 21 42  1  0  0  0  0 
 22 43  1  0  0  0  0 
 22 44  1  0  0  0  0 
 22 45  1  0  0  0  0 
 23 46  1  0  0  0  0 
 23 47  1  0  0  0  0 
 23 48  1  0  0  0  0 
 24 49  1  0  0  0  0 
 24 50  1  0  0  0  0 
 25 51  1  0  0  0  0 
 25 52  1  0  0  0  0 
 26 53  1  0  0  0  0 
 26 54  1  0  0  0  0 
M  CHG  1  20   1
M  END
> <cdk:Title>
bevonium

> <Conformer>
1

> <SuperDrugID>
SD002628

$$$$
