cefotetan
  CDK     0628171802

 53 56  0  0  0  0  0  0  0  0999 V2000
    1.8955   -9.1260    0.8334 N   0  0  0  0  0  0  0  0  0  0  0  0
    3.0979   -9.7341    1.0304 C   0  0  0  0  0  0  0  0  0  0  0  0
    1.1886   -8.4227    1.8632 C   0  0  1  0  0  0  0  0  0  0  0  0
    3.6669   -9.6919    2.1469 O   0  0  0  0  0  0  0  0  0  0  0  0
    3.7716  -10.4999   -0.0286 C   0  0  1  0  0  0  0  0  0  0  0  0
    0.9383   -9.1675    3.0788 O   0  0  0  0  0  0  0  0  0  0  0  0
    1.7513   -6.9996    2.1895 C   0  0  2  0  0  0  0  0  0  0  0  0
    0.0074   -7.6744    1.4263 C   0  0  0  0  0  0  0  0  0  0  0  0
    3.1904  -10.3218   -1.7719 S   0  0  0  0  0  0  0  0  0  0  0  0
    5.3588   -9.7527   -0.5980 S   0  0  0  0  0  0  0  0  0  0  0  0
    0.1844  -10.3851    2.9393 C   0  0  0  0  0  0  0  0  0  0  0  0
    0.4988   -6.4793    1.7837 N   0  0  0  0  0  0  0  0  0  0  0  0
    2.9181   -6.1521    1.0781 S   0  0  0  0  0  0  0  0  0  0  0  0
   -1.0764   -8.0336    0.9126 O   0  0  0  0  0  0  0  0  0  0  0  0
    4.7739   -9.7743   -2.2369 C   0  0  0  0  0  0  0  0  0  0  0  0
    0.0497   -5.2094    1.7426 C   0  0  0  0  0  0  0  0  0  0  0  0
    2.3890   -4.4212    1.3627 C   0  0  1  0  0  0  0  0  0  0  0  0
    5.3601   -9.5202   -3.4261 C   0  0  0  0  0  0  0  0  0  0  0  0
   -1.3232   -5.0522    1.9476 C   0  0  0  0  0  0  0  0  0  0  0  0
    0.9400   -4.1900    1.5566 C   0  0  0  0  0  0  0  0  0  0  0  0
    4.6725   -9.7036   -4.6338 C   0  0  0  0  0  0  0  0  0  0  0  0
    6.6863   -9.0864   -3.4550 C   0  0  0  0  0  0  0  0  0  0  0  0
   -1.9688   -5.8602    2.8265 O   0  0  0  0  0  0  0  0  0  0  0  0
   -2.0218   -4.1978    1.3585 O   0  0  0  0  0  0  0  0  0  0  0  0
    0.5421   -2.7751    1.5566 C   0  0  1  0  0  0  0  0  0  0  0  0
    5.0532   -9.1236   -5.7894 N   0  0  0  0  0  0  0  0  0  0  0  0
    3.6519  -10.4219   -4.7333 O   0  0  0  0  0  0  0  0  0  0  0  0
    7.5572   -9.5030   -4.4075 O   0  0  0  0  0  0  0  0  0  0  0  0
    7.1487   -8.2869   -2.6093 O   0  0  0  0  0  0  0  0  0  0  0  0
   -0.0319   -2.2742   -0.1020 S   0  0  0  0  0  0  0  0  0  0  0  0
   -0.5436   -0.6132    0.1249 C   0  0  0  0  0  0  0  0  0  0  0  0
    0.1438    0.4983   -0.1717 N   0  0  0  0  0  0  0  0  0  0  0  0
   -1.7170   -0.2373    0.6430 N   0  0  0  0  0  0  0  0  0  0  0  0
    1.4507    0.5847   -0.7334 C   0  0  0  0  0  0  0  0  0  0  0  0
   -0.6015    1.5020    0.1570 N   0  0  0  0  0  0  0  0  0  0  0  0
   -1.7153    1.0559    0.6462 N   0  0  0  0  0  0  0  0  0  0  0  0
    1.9630   -6.8208    3.2482 H   0  0  0  0  0  0  0  0  0  0  0  0
    1.4922   -9.1772   -0.0481 H   0  0  0  0  0  0  0  0  0  0  0  0
    3.9098  -11.5512    0.2269 H   0  0  0  0  0  0  0  0  0  0  0  0
    0.0388  -10.8029    3.9352 H   0  0  0  0  0  0  0  0  0  0  0  0
    0.7249  -11.1159    2.3351 H   0  0  0  0  0  0  0  0  0  0  0  0
   -0.7999  -10.2062    2.5031 H   0  0  0  0  0  0  0  0  0  0  0  0
    2.9147   -4.0764    2.2562 H   0  0  0  0  0  0  0  0  0  0  0  0
    2.7542   -3.8407    0.5137 H   0  0  0  0  0  0  0  0  0  0  0  0
   -2.9278   -5.7538    2.9935 H   0  0  0  0  0  0  0  0  0  0  0  0
   -0.2429   -2.5814    2.2893 H   0  0  0  0  0  0  0  0  0  0  0  0
    1.3744   -2.1180    1.8265 H   0  0  0  0  0  0  0  0  0  0  0  0
    5.8221   -8.5372   -5.8068 H   0  0  0  0  0  0  0  0  0  0  0  0
    4.5568   -9.2888   -6.6058 H   0  0  0  0  0  0  0  0  0  0  0  0
    7.2730  -10.1333   -5.1014 H   0  0  0  0  0  0  0  0  0  0  0  0
    1.7351    1.6257   -0.9026 H   0  0  0  0  0  0  0  0  0  0  0  0
    1.4825    0.0551   -1.6879 H   0  0  0  0  0  0  0  0  0  0  0  0
    2.1747    0.1330   -0.0524 H   0  0  0  0  0  0  0  0  0  0  0  0
  1  2  1  0  0  0  0 
  3  1  1  0  0  0  0 
  2  4  2  0  0  0  0 
  2  5  1  0  0  0  0 
  3  6  1  0  0  0  0 
  7  3  1  0  0  0  0 
  3  8  1  0  0  0  0 
  5  9  1  0  0  0  0 
  5 10  1  0  0  0  0 
  6 11  1  0  0  0  0 
  7 12  1  0  0  0  0 
  7 13  1  0  0  0  0 
  7 37  1  0  0  0  0 
  8 12  1  0  0  0  0 
  8 14  2  0  0  0  0 
  9 15  1  0  0  0  0 
 10 15  1  0  0  0  0 
 12 16  1  0  0  0  0 
 13 17  1  0  0  0  0 
 15 18  2  0  0  0  0 
 16 19  1  0  0  0  0 
 16 20  2  0  0  0  0 
 17 20  1  0  0  0  0 
 18 21  1  0  0  0  0 
 18 22  1  0  0  0  0 
 19 23  1  0  0  0  0 
 19 24  2  0  0  0  0 
 20 25  1  0  0  0  0 
 21 26  1  0  0  0  0 
 21 27  2  0  0  0  0 
 22 28  1  0  0  0  0 
 22 29  2  0  0  0  0 
 25 30  1  0  0  0  0 
 30 31  1  0  0  0  0 
 31 32  1  0  0  0  0 
 31 33  2  0  0  0  0 
 32 34  1  0  0  0  0 
 32 35  1  0  0  0  0 
 33 36  1  0  0  0  0 
 35 36  2  0  0  0  0 
  1 38  1  0  0  0  0 
  5 39  1  0  0  0  0 
 11 40  1  0  0  0  0 
 11 41  1  0  0  0  0 
 11 42  1  0  0  0  0 
 17 43  1  0  0  0  0 
 17 44  1  0  0  0  0 
 23 45  1  0  0  0  0 
 25 46  1  0  0  0  0 
 25 47  1  0  0  0  0 
 26 48  1  0  0  0  0 
 26 49  1  0  0  0  0 
 28 50  1  0  0  0  0 
 34 51  1  0  0  0  0 
 34 52  1  0  0  0  0 
 34 53  1  0  0  0  0 
M  END
> <cdk:Title>
cefotetan

> <Conformer>
1

> <SuperDrugID>
SD000475

$$$$
