escitalopram
  CDK     0628171801

 45 47  0  0  0  0  0  0  0  0999 V2000
    0.4226    2.1078    0.5223 C   0  0  1  0  0  0  0  0  0  0  0  0
   -0.2371    0.9938   -0.3487 C   0  0  2  0  0  0  0  0  0  0  0  0
   -0.2900    2.3966    1.8863 C   0  0  2  0  0  0  0  0  0  0  0  0
    0.3250    0.9462   -1.7976 C   0  0  2  0  0  0  0  0  0  0  0  0
    0.4032    3.4598    2.6443 C   0  0  0  0  0  0  0  0  0  0  0  0
   -0.0633    1.2068    2.6896 O   0  0  0  0  0  0  0  0  0  0  0  0
   -1.7591    2.7312    1.7730 C   0  0  0  0  0  0  0  0  0  0  0  0
    0.2440    2.2539   -2.5315 N   0  0  1  0  0  0  0  0  0  0  0  0
    0.9190    2.9474    3.8255 C   0  0  0  0  0  0  0  0  0  0  0  0
    0.5783    4.8239    2.3312 C   0  0  0  0  0  0  0  0  0  0  0  0
    0.6260    1.5271    3.9121 C   0  0  1  0  0  0  0  0  0  0  0  0
   -2.7252    2.1217    2.6153 C   0  0  0  0  0  0  0  0  0  0  0  0
   -2.2333    3.6796    0.8274 C   0  0  0  0  0  0  0  0  0  0  0  0
    1.2018    2.3393   -3.6732 C   0  0  0  0  0  0  0  0  0  0  0  0
   -1.1378    2.6648   -2.9214 C   0  0  0  0  0  0  0  0  0  0  0  0
    1.6131    3.7612    4.7405 C   0  0  0  0  0  0  0  0  0  0  0  0
    1.2591    5.6603    3.2378 C   0  0  0  0  0  0  0  0  0  0  0  0
   -4.0950    2.4257    2.5072 C   0  0  0  0  0  0  0  0  0  0  0  0
   -3.6028    3.9801    0.7061 C   0  0  0  0  0  0  0  0  0  0  0  0
    1.7836    5.1345    4.4432 C   0  0  0  0  0  0  0  0  0  0  0  0
   -4.5367    3.3483    1.5437 C   0  0  0  0  0  0  0  0  0  0  0  0
    2.4226    5.9180    5.2668 C   0  0  0  0  0  0  0  0  0  0  0  0
   -5.8085    3.6159    1.4280 F   0  0  0  0  0  0  0  0  0  0  0  0
    2.9885    6.6146    5.9841 N   0  0  0  0  0  0  0  0  0  0  0  0
    1.4640    1.8199    0.7152 H   0  0  0  0  0  0  0  0  0  0  0  0
    0.4618    3.0341   -0.0531 H   0  0  0  0  0  0  0  0  0  0  0  0
   -1.3168    1.1369   -0.3997 H   0  0  0  0  0  0  0  0  0  0  0  0
   -0.0731    0.0209    0.1236 H   0  0  0  0  0  0  0  0  0  0  0  0
   -0.2067    0.1719   -2.3614 H   0  0  0  0  0  0  0  0  0  0  0  0
    1.3689    0.6269   -1.7175 H   0  0  0  0  0  0  0  0  0  0  0  0
    0.2167    5.2139    1.4606 H   0  0  0  0  0  0  0  0  0  0  0  0
   -0.0144    1.3142    4.7701 H   0  0  0  0  0  0  0  0  0  0  0  0
    1.5490    0.9481    3.9840 H   0  0  0  0  0  0  0  0  0  0  0  0
   -2.4439    1.4472    3.3269 H   0  0  0  0  0  0  0  0  0  0  0  0
   -1.5860    4.1634    0.2029 H   0  0  0  0  0  0  0  0  0  0  0  0
    1.1295    3.3061   -4.1754 H   0  0  0  0  0  0  0  0  0  0  0  0
    2.2279    2.2430   -3.3119 H   0  0  0  0  0  0  0  0  0  0  0  0
    1.0148    1.5496   -4.4062 H   0  0  0  0  0  0  0  0  0  0  0  0
   -1.5581    1.9855   -3.6662 H   0  0  0  0  0  0  0  0  0  0  0  0
   -1.8026    2.6830   -2.0588 H   0  0  0  0  0  0  0  0  0  0  0  0
   -1.1292    3.6759   -3.3364 H   0  0  0  0  0  0  0  0  0  0  0  0
    1.9847    3.3521    5.6014 H   0  0  0  0  0  0  0  0  0  0  0  0
    1.3674    6.6528    3.0062 H   0  0  0  0  0  0  0  0  0  0  0  0
   -4.7668    1.9709    3.1307 H   0  0  0  0  0  0  0  0  0  0  0  0
   -3.9191    4.6574    0.0061 H   0  0  0  0  0  0  0  0  0  0  0  0
  1  2  1  0  0  0  0 
  2  4  1  0  0  0  0 
  3  1  1  0  0  0  0 
  3  5  1  0  0  0  0 
  3  6  1  0  0  0  0 
  3  7  1  0  0  0  0 
  4  8  1  0  0  0  0 
  5  9  2  0  0  0  0 
  5 10  1  0  0  0  0 
  6 11  1  0  0  0  0 
  7 12  2  0  0  0  0 
  7 13  1  0  0  0  0 
  8 14  1  0  0  0  0 
  8 15  1  0  0  0  0 
  9 11  1  0  0  0  0 
  9 16  1  0  0  0  0 
 10 17  2  0  0  0  0 
 12 18  1  0  0  0  0 
 13 19  2  0  0  0  0 
 16 20  2  0  0  0  0 
 17 20  1  0  0  0  0 
 18 21  2  0  0  0  0 
 19 21  1  0  0  0  0 
 20 22  1  0  0  0  0 
 21 23  1  0  0  0  0 
 22 24  3  0  0  0  0 
  1 25  1  0  0  0  0 
  1 26  1  0  0  0  0 
  2 27  1  0  0  0  0 
  2 28  1  0  0  0  0 
  4 29  1  0  0  0  0 
  4 30  1  0  0  0  0 
 10 31  1  0  0  0  0 
 11 32  1  0  0  0  0 
 11 33  1  0  0  0  0 
 12 34  1  0  0  0  0 
 13 35  1  0  0  0  0 
 14 36  1  0  0  0  0 
 14 37  1  0  0  0  0 
 14 38  1  0  0  0  0 
 15 39  1  0  0  0  0 
 15 40  1  0  0  0  0 
 15 41  1  0  0  0  0 
 16 42  1  0  0  0  0 
 17 43  1  0  0  0  0 
 18 44  1  0  0  0  0 
 19 45  1  0  0  0  0 
M  END
> <cdk:Title>
escitalopram

> <Conformer>
1

> <SuperDrugID>
SD000938

$$$$
