gamolenic acid
  CDK     0628171801

 50 49  0  0  0  0  0  0  0  0999 V2000
    7.2166  -11.0811    3.6360 C   0  0  0  0  0  0  0  0  0  0  0  0
    6.3040  -10.1461    4.4615 C   0  0  2  0  0  0  0  0  0  0  0  0
    4.8203  -10.2310    4.0187 C   0  0  2  0  0  0  0  0  0  0  0  0
    3.8963   -9.2302    4.7627 C   0  0  2  0  0  0  0  0  0  0  0  0
    2.4158   -9.3489    4.3075 C   0  0  2  0  0  0  0  0  0  0  0  0
    1.5743   -8.2934    4.8566 C   0  0  0  0  0  0  0  0  0  0  0  0
    1.3556   -7.0757    4.3263 C   0  0  0  0  0  0  0  0  0  0  0  0
    1.8919   -6.5434    3.0772 C   0  0  1  0  0  0  0  0  0  0  0  0
    1.4710   -7.2470    1.8709 C   0  0  0  0  0  0  0  0  0  0  0  0
    0.2102   -7.4299    1.4363 C   0  0  0  0  0  0  0  0  0  0  0  0
   -1.0115   -6.9344    2.0577 C   0  0  2  0  0  0  0  0  0  0  0  0
   -1.9208   -6.3318    1.0934 C   0  0  0  0  0  0  0  0  0  0  0  0
   -1.7468   -5.1490    0.4755 C   0  0  0  0  0  0  0  0  0  0  0  0
   -0.6073   -4.2649    0.6810 C   0  0  1  0  0  0  0  0  0  0  0  0
   -0.6734   -2.9576   -0.1548 C   0  0  1  0  0  0  0  0  0  0  0  0
    0.6043   -2.0938    0.0071 C   0  0  1  0  0  0  0  0  0  0  0  0
    0.5409   -0.7866   -0.8239 C   0  0  2  0  0  0  0  0  0  0  0  0
    1.7718    0.0148   -0.7044 C   0  0  0  0  0  0  0  0  0  0  0  0
    2.9600   -0.4893   -1.1110 O   0  0  0  0  0  0  0  0  0  0  0  0
    1.7418    1.1777   -0.2414 O   0  0  0  0  0  0  0  0  0  0  0  0
    8.2481  -10.9915    3.9794 H   0  0  0  0  0  0  0  0  0  0  0  0
    6.9018  -12.1201    3.7472 H   0  0  0  0  0  0  0  0  0  0  0  0
    7.1796  -10.8116    2.5791 H   0  0  0  0  0  0  0  0  0  0  0  0
    6.6619   -9.1203    4.3446 H   0  0  0  0  0  0  0  0  0  0  0  0
    6.3854  -10.4169    5.5174 H   0  0  0  0  0  0  0  0  0  0  0  0
    4.4585  -11.2490    4.1904 H   0  0  0  0  0  0  0  0  0  0  0  0
    4.7604  -10.0230    2.9473 H   0  0  0  0  0  0  0  0  0  0  0  0
    4.2552   -8.2160    4.5740 H   0  0  0  0  0  0  0  0  0  0  0  0
    3.9535   -9.4146    5.8407 H   0  0  0  0  0  0  0  0  0  0  0  0
    2.0250  -10.3115    4.6501 H   0  0  0  0  0  0  0  0  0  0  0  0
    2.3545   -9.3685    3.2203 H   0  0  0  0  0  0  0  0  0  0  0  0
    1.1262   -8.4898    5.7257 H   0  0  0  0  0  0  0  0  0  0  0  0
    0.7626   -6.4674    4.8468 H   0  0  0  0  0  0  0  0  0  0  0  0
    1.6013   -5.4935    2.9749 H   0  0  0  0  0  0  0  0  0  0  0  0
    2.9844   -6.5535    3.1395 H   0  0  0  0  0  0  0  0  0  0  0  0
    2.1967   -7.6365    1.3116 H   0  0  0  0  0  0  0  0  0  0  0  0
    0.1001   -7.9673    0.6034 H   0  0  0  0  0  0  0  0  0  0  0  0
   -0.8268   -6.2107    2.8531 H   0  0  0  0  0  0  0  0  0  0  0  0
   -1.5072   -7.7905    2.5233 H   0  0  0  0  0  0  0  0  0  0  0  0
   -2.7414   -6.8474    0.8606 H   0  0  0  0  0  0  0  0  0  0  0  0
   -2.4530   -4.8678   -0.1685 H   0  0  0  0  0  0  0  0  0  0  0  0
   -0.5473   -3.9973    1.7396 H   0  0  0  0  0  0  0  0  0  0  0  0
    0.3043   -4.8015    0.4107 H   0  0  0  0  0  0  0  0  0  0  0  0
   -0.7984   -3.2094   -1.2128 H   0  0  0  0  0  0  0  0  0  0  0  0
   -1.5427   -2.3754    0.1644 H   0  0  0  0  0  0  0  0  0  0  0  0
    0.7335   -1.8442    1.0647 H   0  0  0  0  0  0  0  0  0  0  0  0
    1.4685   -2.6828   -0.3161 H   0  0  0  0  0  0  0  0  0  0  0  0
   -0.3169   -0.1928   -0.4982 H   0  0  0  0  0  0  0  0  0  0  0  0
    0.4007   -1.0326   -1.8779 H   0  0  0  0  0  0  0  0  0  0  0  0
    3.7718    0.0535   -1.0369 H   0  0  0  0  0  0  0  0  0  0  0  0
  1  2  1  0  0  0  0 
  2  3  1  0  0  0  0 
  3  4  1  0  0  0  0 
  4  5  1  0  0  0  0 
  5  6  1  0  0  0  0 
  6  7  2  0  0  0  0 
  7  8  1  0  0  0  0 
  8  9  1  0  0  0  0 
  9 10  2  0  0  0  0 
 10 11  1  0  0  0  0 
 11 12  1  0  0  0  0 
 12 13  2  0  0  0  0 
 13 14  1  0  0  0  0 
 14 15  1  0  0  0  0 
 15 16  1  0  0  0  0 
 16 17  1  0  0  0  0 
 17 18  1  0  0  0  0 
 18 19  1  0  0  0  0 
 18 20  2  0  0  0  0 
  1 21  1  0  0  0  0 
  1 22  1  0  0  0  0 
  1 23  1  0  0  0  0 
  2 24  1  0  0  0  0 
  2 25  1  0  0  0  0 
  3 26  1  0  0  0  0 
  3 27  1  0  0  0  0 
  4 28  1  0  0  0  0 
  4 29  1  0  0  0  0 
  5 30  1  0  0  0  0 
  5 31  1  0  0  0  0 
  6 32  1  0  0  0  0 
  7 33  1  0  0  0  0 
  8 34  1  0  0  0  0 
  8 35  1  0  0  0  0 
  9 36  1  0  0  0  0 
 10 37  1  0  0  0  0 
 11 38  1  0  0  0  0 
 11 39  1  0  0  0  0 
 12 40  1  0  0  0  0 
 13 41  1  0  0  0  0 
 14 42  1  0  0  0  0 
 14 43  1  0  0  0  0 
 15 44  1  0  0  0  0 
 15 45  1  0  0  0  0 
 16 46  1  0  0  0  0 
 16 47  1  0  0  0  0 
 17 48  1  0  0  0  0 
 17 49  1  0  0  0  0 
 19 50  1  0  0  0  0 
M  END
> <cdk:Title>
gamolenic acid

> <Conformer>
1

> <SuperDrugID>
SD001138

$$$$
