norepinephrine
  CDK     0628171801

 23 23  0  0  0  0  0  0  0  0999 V2000
   -0.8191    0.0284    1.1523 C   0  0  2  0  0  0  0  0  0  0  0  0
    0.2148    0.7879    0.2844 C   0  0  2  0  0  0  0  0  0  0  0  0
   -1.1591   -1.2195    0.5406 O   0  0  0  0  0  0  0  0  0  0  0  0
   -2.0293    0.8718    1.3816 C   0  0  0  0  0  0  0  0  0  0  0  0
    1.4166   -0.0185    0.0544 N   0  0  1  0  0  0  0  0  0  0  0  0
   -3.1200    0.8454    0.4793 C   0  0  0  0  0  0  0  0  0  0  0  0
   -2.1008    1.7453    2.4936 C   0  0  0  0  0  0  0  0  0  0  0  0
   -4.2551    1.6508    0.6902 C   0  0  0  0  0  0  0  0  0  0  0  0
   -3.2303    2.5577    2.7024 C   0  0  0  0  0  0  0  0  0  0  0  0
   -5.2898    1.5991   -0.1805 O   0  0  0  0  0  0  0  0  0  0  0  0
   -4.3106    2.5108    1.8041 C   0  0  0  0  0  0  0  0  0  0  0  0
   -5.3987    3.2881    2.0177 O   0  0  0  0  0  0  0  0  0  0  0  0
   -0.3559   -0.2148    2.1130 H   0  0  0  0  0  0  0  0  0  0  0  0
    0.5214    1.7024    0.7952 H   0  0  0  0  0  0  0  0  0  0  0  0
   -0.2196    1.0516   -0.6837 H   0  0  0  0  0  0  0  0  0  0  0  0
   -0.3065   -1.6877    0.4118 H   0  0  0  0  0  0  0  0  0  0  0  0
    2.0713    0.5691   -0.4669 H   0  0  0  0  0  0  0  0  0  0  0  0
    1.8348   -0.1910    0.9714 H   0  0  0  0  0  0  0  0  0  0  0  0
   -3.0907    0.2360   -0.3417 H   0  0  0  0  0  0  0  0  0  0  0  0
   -1.3260    1.7968    3.1597 H   0  0  0  0  0  0  0  0  0  0  0  0
   -3.2678    3.1847    3.5089 H   0  0  0  0  0  0  0  0  0  0  0  0
   -5.8459    0.8598    0.1437 H   0  0  0  0  0  0  0  0  0  0  0  0
   -6.0011    2.7247    2.5479 H   0  0  0  0  0  0  0  0  0  0  0  0
  1  2  1  0  0  0  0 
  1  3  1  0  0  0  0 
  1  4  1  0  0  0  0 
  2  5  1  0  0  0  0 
  4  6  2  0  0  0  0 
  4  7  1  0  0  0  0 
  6  8  1  0  0  0  0 
  7  9  2  0  0  0  0 
  8 10  1  0  0  0  0 
  8 11  2  0  0  0  0 
  9 11  1  0  0  0  0 
 11 12  1  0  0  0  0 
  1 13  1  0  0  0  0 
  2 14  1  0  0  0  0 
  2 15  1  0  0  0  0 
  3 16  1  0  0  0  0 
  5 17  1  0  0  0  0 
  5 18  1  0  0  0  0 
  6 19  1  0  0  0  0 
  7 20  1  0  0  0  0 
  9 21  1  0  0  0  0 
 10 22  1  0  0  0  0 
 12 23  1  0  0  0  0 
M  END
> <cdk:Title>
norepinephrine

> <Conformer>
1

> <SuperDrugID>
SD001752

$$$$
