urapidil
  CDK     0628171801

 57 59  0  0  0  0  0  0  0  0999 V2000
   -2.3715    0.6100  -12.4316 O   0  0  0  0  0  0  0  0  0  0  0  0
   -1.3956    1.6568  -12.5698 C   0  0  0  0  0  0  0  0  0  0  0  0
   -3.6138    0.9509  -12.9015 C   0  0  0  0  0  0  0  0  0  0  0  0
   -4.6611    1.2873  -12.0012 C   0  0  0  0  0  0  0  0  0  0  0  0
   -3.8532    0.9384  -14.2945 C   0  0  0  0  0  0  0  0  0  0  0  0
   -5.9236    1.6369  -12.5397 C   0  0  0  0  0  0  0  0  0  0  0  0
   -4.5046    1.2532  -10.6265 N   0  0  0  0  0  0  0  0  0  0  0  0
   -5.1150    1.2821  -14.8064 C   0  0  0  0  0  0  0  0  0  0  0  0
   -6.1512    1.6328  -13.9267 C   0  0  0  0  0  0  0  0  0  0  0  0
   -4.8703    2.3876   -9.8018 C   0  0  1  0  0  0  0  0  0  0  0  0
   -4.0862    0.0449   -9.9484 C   0  0  1  0  0  0  0  0  0  0  0  0
   -3.8249    2.6635   -8.6925 C   0  0  1  0  0  0  0  0  0  0  0  0
   -3.0042    0.3403   -8.8791 C   0  0  2  0  0  0  0  0  0  0  0  0
   -3.4872    1.4088   -7.9483 N   0  0  1  0  0  0  0  0  0  0  0  0
   -2.6207    1.6561   -6.7513 C   0  0  2  0  0  0  0  0  0  0  0  0
   -2.6541    0.4976   -5.7142 C   0  0  2  0  0  0  0  0  0  0  0  0
   -2.1921    0.9334   -4.3012 C   0  0  1  0  0  0  0  0  0  0  0  0
   -2.1334   -0.1776   -3.4018 N   0  0  0  0  0  0  0  0  0  0  0  0
   -1.6062   -0.1906   -2.1284 C   0  0  0  0  0  0  0  0  0  0  0  0
   -1.4542   -1.3794   -1.4419 N   0  0  0  0  0  0  0  0  0  0  0  0
   -1.2182    1.0141   -1.5059 C   0  0  0  0  0  0  0  0  0  0  0  0
   -1.8715   -2.6232   -2.0775 C   0  0  0  0  0  0  0  0  0  0  0  0
   -0.9127   -1.3735   -0.1710 C   0  0  0  0  0  0  0  0  0  0  0  0
   -0.7000    0.9812   -0.2062 C   0  0  0  0  0  0  0  0  0  0  0  0
   -0.7622   -2.4607    0.4400 O   0  0  0  0  0  0  0  0  0  0  0  0
   -0.5340   -0.2072    0.4530 N   0  0  0  0  0  0  0  0  0  0  0  0
   -0.4020    2.0832    0.3159 O   0  0  0  0  0  0  0  0  0  0  0  0
    0.0424   -0.1834    1.7842 C   0  0  0  0  0  0  0  0  0  0  0  0
   -0.4674    1.3125  -12.1149 H   0  0  0  0  0  0  0  0  0  0  0  0
   -1.1965    1.8731  -13.6222 H   0  0  0  0  0  0  0  0  0  0  0  0
   -1.7088    2.5717  -12.0596 H   0  0  0  0  0  0  0  0  0  0  0  0
   -3.1043    0.6792  -14.9400 H   0  0  0  0  0  0  0  0  0  0  0  0
   -6.6939    1.8846  -11.9183 H   0  0  0  0  0  0  0  0  0  0  0  0
   -5.2767    1.2751  -15.8173 H   0  0  0  0  0  0  0  0  0  0  0  0
   -7.0722    1.8800  -14.2950 H   0  0  0  0  0  0  0  0  0  0  0  0
   -4.9891    3.3013  -10.3942 H   0  0  0  0  0  0  0  0  0  0  0  0
   -5.8330    2.1728   -9.3288 H   0  0  0  0  0  0  0  0  0  0  0  0
   -4.9600   -0.3791   -9.4473 H   0  0  0  0  0  0  0  0  0  0  0  0
   -3.7126   -0.7206  -10.6352 H   0  0  0  0  0  0  0  0  0  0  0  0
   -2.9206    3.0985   -9.1326 H   0  0  0  0  0  0  0  0  0  0  0  0
   -4.2528    3.4011   -8.0068 H   0  0  0  0  0  0  0  0  0  0  0  0
   -2.0772    0.6540   -9.3705 H   0  0  0  0  0  0  0  0  0  0  0  0
   -2.8043   -0.5866   -8.3369 H   0  0  0  0  0  0  0  0  0  0  0  0
   -2.9715    2.5574   -6.2402 H   0  0  0  0  0  0  0  0  0  0  0  0
   -1.5904    1.8470   -7.0639 H   0  0  0  0  0  0  0  0  0  0  0  0
   -2.0077   -0.3107   -6.0638 H   0  0  0  0  0  0  0  0  0  0  0  0
   -3.6730    0.1094   -5.6405 H   0  0  0  0  0  0  0  0  0  0  0  0
   -1.2055    1.3967   -4.3800 H   0  0  0  0  0  0  0  0  0  0  0  0
   -2.8966    1.6704   -3.9068 H   0  0  0  0  0  0  0  0  0  0  0  0
   -2.5088   -1.0108   -3.7267 H   0  0  0  0  0  0  0  0  0  0  0  0
   -1.3151    1.9141   -1.9817 H   0  0  0  0  0  0  0  0  0  0  0  0
   -1.6501   -3.5226   -1.4988 H   0  0  0  0  0  0  0  0  0  0  0  0
   -1.3706   -2.7438   -3.0414 H   0  0  0  0  0  0  0  0  0  0  0  0
   -2.9515   -2.6115   -2.2450 H   0  0  0  0  0  0  0  0  0  0  0  0
    1.0446    0.2458    1.7377 H   0  0  0  0  0  0  0  0  0  0  0  0
   -0.5708    0.4280    2.4485 H   0  0  0  0  0  0  0  0  0  0  0  0
    0.1356   -1.1637    2.2501 H   0  0  0  0  0  0  0  0  0  0  0  0
  1  2  1  0  0  0  0 
  1  3  1  0  0  0  0 
  3  4  2  0  0  0  0 
  3  5  1  0  0  0  0 
  4  6  1  0  0  0  0 
  4  7  1  0  0  0  0 
  5  8  2  0  0  0  0 
  6  9  2  0  0  0  0 
  7 10  1  0  0  0  0 
  7 11  1  0  0  0  0 
  8  9  1  0  0  0  0 
 10 12  1  0  0  0  0 
 11 13  1  0  0  0  0 
 12 14  1  0  0  0  0 
 13 14  1  0  0  0  0 
 14 15  1  0  0  0  0 
 15 16  1  0  0  0  0 
 16 17  1  0  0  0  0 
 17 18  1  0  0  0  0 
 18 19  1  0  0  0  0 
 19 20  1  0  0  0  0 
 19 21  2  0  0  0  0 
 20 22  1  0  0  0  0 
 20 23  1  0  0  0  0 
 21 24  1  0  0  0  0 
 23 25  2  0  0  0  0 
 23 26  1  0  0  0  0 
 24 26  1  0  0  0  0 
 24 27  2  0  0  0  0 
 26 28  1  0  0  0  0 
  2 29  1  0  0  0  0 
  2 30  1  0  0  0  0 
  2 31  1  0  0  0  0 
  5 32  1  0  0  0  0 
  6 33  1  0  0  0  0 
  8 34  1  0  0  0  0 
  9 35  1  0  0  0  0 
 10 36  1  0  0  0  0 
 10 37  1  0  0  0  0 
 11 38  1  0  0  0  0 
 11 39  1  0  0  0  0 
 12 40  1  0  0  0  0 
 12 41  1  0  0  0  0 
 13 42  1  0  0  0  0 
 13 43  1  0  0  0  0 
 15 44  1  0  0  0  0 
 15 45  1  0  0  0  0 
 16 46  1  0  0  0  0 
 16 47  1  0  0  0  0 
 17 48  1  0  0  0  0 
 17 49  1  0  0  0  0 
 18 50  1  0  0  0  0 
 21 51  1  0  0  0  0 
 22 52  1  0  0  0  0 
 22 53  1  0  0  0  0 
 22 54  1  0  0  0  0 
 28 55  1  0  0  0  0 
 28 56  1  0  0  0  0 
 28 57  1  0  0  0  0 
M  END
> <cdk:Title>
urapidil

> <Conformer>
1

> <SuperDrugID>
SD002521

$$$$
