naproxen
  CDK     0628171801

 31 32  0  0  0  0  0  0  0  0999 V2000
    4.7724   -2.1823   -3.8358 C   0  0  1  0  0  0  0  0  0  0  0  0
    5.8520   -3.0676   -3.3302 C   0  0  0  0  0  0  0  0  0  0  0  0
    5.2740   -0.7460   -4.1506 C   0  0  0  0  0  0  0  0  0  0  0  0
    4.0667   -2.8135   -4.9972 C   0  0  0  0  0  0  0  0  0  0  0  0
    5.6906   -3.7414   -2.1654 O   0  0  0  0  0  0  0  0  0  0  0  0
    6.9223   -3.2302   -3.9602 O   0  0  0  0  0  0  0  0  0  0  0  0
    4.7289   -3.0383   -6.2288 C   0  0  0  0  0  0  0  0  0  0  0  0
    2.7118   -3.2070   -4.8882 C   0  0  0  0  0  0  0  0  0  0  0  0
    4.0646   -3.6323   -7.3241 C   0  0  0  0  0  0  0  0  0  0  0  0
    2.0386   -3.8053   -5.9666 C   0  0  0  0  0  0  0  0  0  0  0  0
    2.7027   -4.0210   -7.1921 C   0  0  0  0  0  0  0  0  0  0  0  0
    4.7331   -3.8427   -8.5512 C   0  0  0  0  0  0  0  0  0  0  0  0
    2.0376   -4.6137   -8.2888 C   0  0  0  0  0  0  0  0  0  0  0  0
    4.0589   -4.4252   -9.6367 C   0  0  0  0  0  0  0  0  0  0  0  0
    2.7123   -4.8194   -9.5088 C   0  0  0  0  0  0  0  0  0  0  0  0
    2.0590   -5.3833  -10.5710 O   0  0  0  0  0  0  0  0  0  0  0  0
    2.1527   -6.8189  -10.5832 C   0  0  0  0  0  0  0  0  0  0  0  0
    4.0619   -2.0586   -3.0124 H   0  0  0  0  0  0  0  0  0  0  0  0
    4.4401   -0.1177   -4.4727 H   0  0  0  0  0  0  0  0  0  0  0  0
    5.7129   -0.2955   -3.2572 H   0  0  0  0  0  0  0  0  0  0  0  0
    6.0294   -0.7487   -4.9400 H   0  0  0  0  0  0  0  0  0  0  0  0
    6.3951   -4.3349   -1.8332 H   0  0  0  0  0  0  0  0  0  0  0  0
    5.7103   -2.7664   -6.3290 H   0  0  0  0  0  0  0  0  0  0  0  0
    2.1977   -3.0597   -4.0153 H   0  0  0  0  0  0  0  0  0  0  0  0
    1.0594   -4.0825   -5.8476 H   0  0  0  0  0  0  0  0  0  0  0  0
    5.7128   -3.5712   -8.6627 H   0  0  0  0  0  0  0  0  0  0  0  0
    1.0583   -4.8995   -8.2105 H   0  0  0  0  0  0  0  0  0  0  0  0
    4.5503   -4.5641  -10.5229 H   0  0  0  0  0  0  0  0  0  0  0  0
    1.5987   -7.1849  -11.4467 H   0  0  0  0  0  0  0  0  0  0  0  0
    3.1900   -7.1494  -10.6779 H   0  0  0  0  0  0  0  0  0  0  0  0
    1.7102   -7.2563   -9.6846 H   0  0  0  0  0  0  0  0  0  0  0  0
  1  2  1  0  0  0  0 
  1  3  1  0  0  0  0 
  1  4  1  0  0  0  0 
  2  5  1  0  0  0  0 
  2  6  2  0  0  0  0 
  4  7  1  0  0  0  0 
  4  8  2  0  0  0  0 
  7  9  2  0  0  0  0 
  8 10  1  0  0  0  0 
  9 11  1  0  0  0  0 
  9 12  1  0  0  0  0 
 10 11  2  0  0  0  0 
 11 13  1  0  0  0  0 
 12 14  2  0  0  0  0 
 13 15  2  0  0  0  0 
 14 15  1  0  0  0  0 
 15 16  1  0  0  0  0 
 16 17  1  0  0  0  0 
  1 18  1  0  0  0  0 
  3 19  1  0  0  0  0 
  3 20  1  0  0  0  0 
  3 21  1  0  0  0  0 
  5 22  1  0  0  0  0 
  7 23  1  0  0  0  0 
  8 24  1  0  0  0  0 
 10 25  1  0  0  0  0 
 12 26  1  0  0  0  0 
 13 27  1  0  0  0  0 
 14 28  1  0  0  0  0 
 17 29  1  0  0  0  0 
 17 30  1  0  0  0  0 
 17 31  1  0  0  0  0 
M  END
> <cdk:Title>
naproxen

> <Conformer>
1

> <SuperDrugID>
SD001679

$$$$
