bumadizone
  CDK     0628171801

 46 47  0  0  0  0  0  0  0  0999 V2000
   -1.8089   -1.5118   -0.7240 N   0  0  0  0  0  0  0  0  0  0  0  0
   -2.4613   -1.0588   -1.8548 C   0  0  0  0  0  0  0  0  0  0  0  0
   -0.4551   -1.3668   -0.6118 N   0  0  1  0  0  0  0  0  0  0  0  0
   -2.4527   -2.1734    0.2849 C   0  0  0  0  0  0  0  0  0  0  0  0
   -3.9471   -0.9234   -1.9631 C   0  0  2  0  0  0  0  0  0  0  0  0
   -1.7636   -0.6691   -2.8235 O   0  0  0  0  0  0  0  0  0  0  0  0
   -0.0794   -0.2454    0.1603 C   0  0  0  0  0  0  0  0  0  0  0  0
   -2.5465   -3.5818    0.2274 C   0  0  0  0  0  0  0  0  0  0  0  0
   -3.0385   -1.4810    1.3681 C   0  0  0  0  0  0  0  0  0  0  0  0
   -4.5043   -1.0406   -3.4193 C   0  0  2  0  0  0  0  0  0  0  0  0
   -4.3184    0.3655   -1.3309 C   0  0  0  0  0  0  0  0  0  0  0  0
    0.4535   -0.4409    1.4503 C   0  0  0  0  0  0  0  0  0  0  0  0
   -0.2123    1.0696   -0.3373 C   0  0  0  0  0  0  0  0  0  0  0  0
   -3.2460   -4.2854    1.2243 C   0  0  0  0  0  0  0  0  0  0  0  0
   -3.7271   -2.1897    2.3708 C   0  0  0  0  0  0  0  0  0  0  0  0
   -6.0544   -0.9304   -3.4969 C   0  0  1  0  0  0  0  0  0  0  0  0
   -3.8947    1.5386   -1.8582 O   0  0  0  0  0  0  0  0  0  0  0  0
   -5.0344    0.4009   -0.3045 O   0  0  0  0  0  0  0  0  0  0  0  0
    0.8302    0.6611    2.2393 C   0  0  0  0  0  0  0  0  0  0  0  0
    0.1678    2.1723    0.4492 C   0  0  0  0  0  0  0  0  0  0  0  0
   -3.8388   -3.5909    2.2939 C   0  0  0  0  0  0  0  0  0  0  0  0
   -6.6270   -1.2227   -4.9077 C   0  0  1  0  0  0  0  0  0  0  0  0
    0.6875    1.9684    1.7403 C   0  0  0  0  0  0  0  0  0  0  0  0
   -8.1652   -1.0561   -4.9543 C   0  0  0  0  0  0  0  0  0  0  0  0
   -0.0795   -2.2185   -0.1867 H   0  0  0  0  0  0  0  0  0  0  0  0
   -4.4141   -1.7392   -1.4019 H   0  0  0  0  0  0  0  0  0  0  0  0
   -2.1114   -4.1002   -0.5417 H   0  0  0  0  0  0  0  0  0  0  0  0
   -2.9751   -0.4614    1.4276 H   0  0  0  0  0  0  0  0  0  0  0  0
   -4.2023   -2.0125   -3.8220 H   0  0  0  0  0  0  0  0  0  0  0  0
   -4.0658   -0.2673   -4.0579 H   0  0  0  0  0  0  0  0  0  0  0  0
    0.5658   -1.3863    1.8212 H   0  0  0  0  0  0  0  0  0  0  0  0
   -0.5756    1.2307   -1.2767 H   0  0  0  0  0  0  0  0  0  0  0  0
   -3.3245   -5.3028    1.1652 H   0  0  0  0  0  0  0  0  0  0  0  0
   -4.1497   -1.6870    3.1541 H   0  0  0  0  0  0  0  0  0  0  0  0
   -6.4950   -1.6376   -2.7892 H   0  0  0  0  0  0  0  0  0  0  0  0
   -6.3566    0.0789   -3.2030 H   0  0  0  0  0  0  0  0  0  0  0  0
   -4.1445    2.3881   -1.4400 H   0  0  0  0  0  0  0  0  0  0  0  0
    1.2136    0.5101    3.1741 H   0  0  0  0  0  0  0  0  0  0  0  0
    0.0679    3.1205    0.0814 H   0  0  0  0  0  0  0  0  0  0  0  0
   -4.3495   -4.1045    3.0155 H   0  0  0  0  0  0  0  0  0  0  0  0
   -6.1745   -0.5422   -5.6352 H   0  0  0  0  0  0  0  0  0  0  0  0
   -6.3726   -2.2475   -5.1928 H   0  0  0  0  0  0  0  0  0  0  0  0
    0.9603    2.7696    2.3144 H   0  0  0  0  0  0  0  0  0  0  0  0
   -8.6438   -1.6942   -4.2077 H   0  0  0  0  0  0  0  0  0  0  0  0
   -8.4405   -0.0176   -4.7562 H   0  0  0  0  0  0  0  0  0  0  0  0
   -8.5423   -1.3347   -5.9399 H   0  0  0  0  0  0  0  0  0  0  0  0
  1  2  1  0  0  0  0 
  1  3  1  0  0  0  0 
  1  4  1  0  0  0  0 
  5  2  1  0  0  0  0 
  2  6  2  0  0  0  0 
  3  7  1  0  0  0  0 
  4  8  2  0  0  0  0 
  4  9  1  0  0  0  0 
  5 10  1  0  0  0  0 
  5 11  1  0  0  0  0 
  7 12  2  0  0  0  0 
  7 13  1  0  0  0  0 
  8 14  1  0  0  0  0 
  9 15  2  0  0  0  0 
 10 16  1  0  0  0  0 
 11 17  1  0  0  0  0 
 11 18  2  0  0  0  0 
 12 19  1  0  0  0  0 
 13 20  2  0  0  0  0 
 14 21  2  0  0  0  0 
 15 21  1  0  0  0  0 
 16 22  1  0  0  0  0 
 19 23  2  0  0  0  0 
 20 23  1  0  0  0  0 
 22 24  1  0  0  0  0 
 25  3  1  0  0  0  0 
 26  5  1  0  0  0  0 
 27  8  1  0  0  0  0 
 28  9  1  0  0  0  0 
 29 10  1  0  0  0  0 
 30 10  1  0  0  0  0 
 31 12  1  0  0  0  0 
 32 13  1  0  0  0  0 
 33 14  1  0  0  0  0 
 34 15  1  0  0  0  0 
 35 16  1  0  0  0  0 
 36 16  1  0  0  0  0 
 37 17  1  0  0  0  0 
 38 19  1  0  0  0  0 
 39 20  1  0  0  0  0 
 40 21  1  0  0  0  0 
 41 22  1  0  0  0  0 
 42 22  1  0  0  0  0 
 43 23  1  0  0  0  0 
 44 24  1  0  0  0  0 
 45 24  1  0  0  0  0 
 46 24  1  0  0  0  0 
M  END
> <cdk:Title>
bumadizone

> <Conformer>
1

> <SuperDrugID>
SD000368

$$$$
