etynodiol
  CDK     0628171801

 60 63  0  0  0  0  0  0  0  0999 V2000
   -3.1331   -6.0497    6.0315 C   0  0  0  0  0  0  0  0  0  0  0  0
   -2.4738   -6.8262    4.8194 C   0  0  2  0  0  0  0  0  0  0  0  0
   -3.0270   -6.4207    3.4124 C   0  0  2  0  0  0  0  0  0  0  0  0
   -2.9183   -8.3450    4.8780 C   0  0  1  0  0  0  0  0  0  0  0  0
   -0.9350   -6.5039    4.8240 C   0  0  2  0  0  0  0  0  0  0  0  0
   -2.8246   -4.9128    3.0607 C   0  0  1  0  0  0  0  0  0  0  0  0
   -4.4560   -7.0059    3.4011 C   0  0  1  0  0  0  0  0  0  0  0  0
   -2.0970   -9.2004    4.1538 C   0  0  0  0  0  0  0  0  0  0  0  0
   -2.9366   -8.8327    6.2401 O   0  0  0  0  0  0  0  0  0  0  0  0
   -4.3537   -8.3067    4.2429 C   0  0  2  0  0  0  0  0  0  0  0  0
   -0.6237   -5.0158    4.4647 C   0  0  2  0  0  0  0  0  0  0  0  0
   -1.2913   -4.5304    3.1316 C   0  0  2  0  0  0  0  0  0  0  0  0
   -3.3962   -4.5440    1.6537 C   0  0  1  0  0  0  0  0  0  0  0  0
   -1.4091   -9.9502    3.5279 C   0  0  0  0  0  0  0  0  0  0  0  0
   -1.1381   -2.9884    2.8187 C   0  0  2  0  0  0  0  0  0  0  0  0
   -3.1166   -3.0601    1.2879 C   0  0  2  0  0  0  0  0  0  0  0  0
   -1.6923   -2.7601    1.4635 C   0  0  0  0  0  0  0  0  0  0  0  0
    0.2858   -2.3635    2.9973 C   0  0  1  0  0  0  0  0  0  0  0  0
   -0.9339   -2.3694    0.4143 C   0  0  0  0  0  0  0  0  0  0  0  0
    1.1746   -2.6410    1.7650 C   0  0  2  0  0  0  0  0  0  0  0  0
    0.4973   -2.0886    0.4803 C   0  0  2  0  0  0  0  0  0  0  0  0
    0.7207   -0.6672    0.4097 O   0  0  0  0  0  0  0  0  0  0  0  0
   -3.3807   -4.3120    3.7852 H   0  0  0  0  0  0  0  0  0  0  0  0
   -0.7723   -5.0822    2.3373 H   0  0  0  0  0  0  0  0  0  0  0  0
   -2.4717   -6.9699    2.6388 H   0  0  0  0  0  0  0  0  0  0  0  0
   -1.7654   -2.4504    3.5396 H   0  0  0  0  0  0  0  0  0  0  0  0
    0.4901    0.1608   -0.6545 C   0  0  0  0  0  0  0  0  0  0  0  0
    0.7211    1.6040   -0.5250 C   0  0  0  0  0  0  0  0  0  0  0  0
    0.0920   -0.2919   -1.7533 O   0  0  0  0  0  0  0  0  0  0  0  0
   -3.3802  -10.0308    6.7373 C   0  0  0  0  0  0  0  0  0  0  0  0
   -3.8652  -10.9074    5.9835 O   0  0  0  0  0  0  0  0  0  0  0  0
   -3.2851  -10.2999    8.1794 C   0  0  0  0  0  0  0  0  0  0  0  0
   -4.1903   -6.2872    6.1491 H   0  0  0  0  0  0  0  0  0  0  0  0
   -2.6372   -6.3206    6.9658 H   0  0  0  0  0  0  0  0  0  0  0  0
   -3.0615   -4.9688    5.9331 H   0  0  0  0  0  0  0  0  0  0  0  0
   -0.4116   -7.1293    4.0952 H   0  0  0  0  0  0  0  0  0  0  0  0
   -0.5072   -6.7339    5.8048 H   0  0  0  0  0  0  0  0  0  0  0  0
   -5.1584   -6.3034    3.8583 H   0  0  0  0  0  0  0  0  0  0  0  0
   -4.7922   -7.2183    2.3831 H   0  0  0  0  0  0  0  0  0  0  0  0
   -5.1140   -8.2839    5.0285 H   0  0  0  0  0  0  0  0  0  0  0  0
   -4.5726   -9.1823    3.6214 H   0  0  0  0  0  0  0  0  0  0  0  0
    0.4625   -4.9391    4.3724 H   0  0  0  0  0  0  0  0  0  0  0  0
   -0.9195   -4.3600    5.2864 H   0  0  0  0  0  0  0  0  0  0  0  0
   -2.9506   -5.1890    0.8885 H   0  0  0  0  0  0  0  0  0  0  0  0
   -4.4771   -4.7053    1.6372 H   0  0  0  0  0  0  0  0  0  0  0  0
   -0.8803  -10.5329    3.0461 H   0  0  0  0  0  0  0  0  0  0  0  0
   -3.7016   -2.4049    1.9404 H   0  0  0  0  0  0  0  0  0  0  0  0
   -3.4641   -2.8826    0.2643 H   0  0  0  0  0  0  0  0  0  0  0  0
    0.1838   -1.2783    3.1113 H   0  0  0  0  0  0  0  0  0  0  0  0
    0.7797   -2.7225    3.9001 H   0  0  0  0  0  0  0  0  0  0  0  0
   -1.3623   -2.2588   -0.4758 H   0  0  0  0  0  0  0  0  0  0  0  0
    1.3254   -3.7209    1.6721 H   0  0  0  0  0  0  0  0  0  0  0  0
    2.1567   -2.1764    1.8986 H   0  0  0  0  0  0  0  0  0  0  0  0
    0.9920   -2.5600   -0.3750 H   0  0  0  0  0  0  0  0  0  0  0  0
   -0.1873    2.1434   -0.7948 H   0  0  0  0  0  0  0  0  0  0  0  0
    0.9904    1.8615    0.4999 H   0  0  0  0  0  0  0  0  0  0  0  0
    1.5299    1.9086   -1.1904 H   0  0  0  0  0  0  0  0  0  0  0  0
   -4.3172  -10.5985    8.5419 H   0  0  0  0  0  0  0  0  0  0  0  0
   -2.7783   -9.4204    8.6856 H   0  0  0  0  0  0  0  0  0  0  0  0
   -2.6302  -11.1613    8.3203 H   0  0  0  0  0  0  0  0  0  0  0  0
  2  1  1  0  0  0  0 
  3  2  1  0  0  0  0 
  2  4  1  0  0  0  0 
  2  5  1  0  0  0  0 
  6  3  1  0  0  0  0 
  3  7  1  0  0  0  0 
  3 25  1  0  0  0  0 
  4  8  1  0  0  0  0 
  4  9  1  0  0  0  0 
  4 10  1  0  0  0  0 
  5 11  1  0  0  0  0 
 12  6  1  0  0  0  0 
  6 13  1  0  0  0  0 
  6 23  1  0  0  0  0 
  7 10  1  0  0  0  0 
  8 14  3  0  0  0  0 
 12 11  1  0  0  0  0 
 15 12  1  0  0  0  0 
 12 24  1  0  0  0  0 
 13 16  1  0  0  0  0 
 15 17  1  0  0  0  0 
 15 18  1  0  0  0  0 
 15 26  1  0  0  0  0 
 16 17  1  0  0  0  0 
 17 19  2  0  0  0  0 
 18 20  1  0  0  0  0 
 21 19  1  0  0  0  0 
 21 20  1  0  0  0  0 
 21 22  1  0  0  0  0 
 22 27  1  0  0  0  0 
 27 28  1  0  0  0  0 
 27 29  2  0  0  0  0 
  9 30  1  0  0  0  0 
 30 31  2  0  0  0  0 
 30 32  1  0  0  0  0 
  1 33  1  0  0  0  0 
  1 34  1  0  0  0  0 
  1 35  1  0  0  0  0 
  5 36  1  0  0  0  0 
  5 37  1  0  0  0  0 
  7 38  1  0  0  0  0 
  7 39  1  0  0  0  0 
 10 40  1  0  0  0  0 
 10 41  1  0  0  0  0 
 11 42  1  0  0  0  0 
 11 43  1  0  0  0  0 
 13 44  1  0  0  0  0 
 13 45  1  0  0  0  0 
 14 46  1  0  0  0  0 
 16 47  1  0  0  0  0 
 16 48  1  0  0  0  0 
 18 49  1  0  0  0  0 
 18 50  1  0  0  0  0 
 19 51  1  0  0  0  0 
 20 52  1  0  0  0  0 
 20 53  1  0  0  0  0 
 21 54  1  0  0  0  0 
 28 55  1  0  0  0  0 
 28 56  1  0  0  0  0 
 28 57  1  0  0  0  0 
 32 58  1  0  0  0  0 
 32 59  1  0  0  0  0 
 32 60  1  0  0  0  0 
M  END
> <cdk:Title>
etynodiol

> <Conformer>
1

> <SuperDrugID>
SD000977

$$$$
