succinimide
  CDK     0628171802

 12 12  0  0  0  0  0  0  0  0999 V2000
   -0.7440    1.0472   -0.1986 N   0  0  0  0  0  0  0  0  0  0  0  0
   -1.9988    0.7438    0.1426 C   0  0  0  0  0  0  0  0  0  0  0  0
   -2.1626   -0.6881    0.4079 C   0  0  2  0  0  0  0  0  0  0  0  0
   -0.7424   -1.2481    0.1594 C   0  0  1  0  0  0  0  0  0  0  0  0
    0.0184   -0.0495   -0.2056 C   0  0  0  0  0  0  0  0  0  0  0  0
   -2.9204    1.5877    0.2187 O   0  0  0  0  0  0  0  0  0  0  0  0
    1.2370   -0.0452   -0.4913 O   0  0  0  0  0  0  0  0  0  0  0  0
   -0.4309    1.9400   -0.4149 H   0  0  0  0  0  0  0  0  0  0  0  0
   -2.8881   -1.1218   -0.2845 H   0  0  0  0  0  0  0  0  0  0  0  0
   -2.4847   -0.8527    1.4396 H   0  0  0  0  0  0  0  0  0  0  0  0
   -0.3268   -1.7047    1.0610 H   0  0  0  0  0  0  0  0  0  0  0  0
   -0.7343   -1.9703   -0.6608 H   0  0  0  0  0  0  0  0  0  0  0  0
  1  2  1  0  0  0  0 
  1  5  1  0  0  0  0 
  2  3  1  0  0  0  0 
  3  4  1  0  0  0  0 
  4  5  1  0  0  0  0 
  2  6  2  0  0  0  0 
  5  7  2  0  0  0  0 
  1  8  1  0  0  0  0 
  3  9  1  0  0  0  0 
  3 10  1  0  0  0  0 
  4 11  1  0  0  0  0 
  4 12  1  0  0  0  0 
M  END
> <cdk:Title>
succinimide

> <Conformer>
1

> <SuperDrugID>
SD003730

$$$$
