dapagliflozin
  CDK     0628171801

 53 55  0  0  0  0  0  0  0  0999 V2000
    4.2790    7.8778    7.4115 O   0  0  0  0  0  0  0  0  0  0  0  0
    3.7186    9.0486    6.8134 C   0  0  1  0  0  0  0  0  0  0  0  0
    2.1659    8.9319    6.7567 C   0  0  1  0  0  0  0  0  0  0  0  0
    4.1590   10.3026    7.6168 C   0  0  1  0  0  0  0  0  0  0  0  0
    1.5634   10.1718    6.3163 O   0  0  0  0  0  0  0  0  0  0  0  0
    1.7414    7.8273    5.8414 C   0  0  0  0  0  0  0  0  0  0  0  0
    5.5739   10.4568    7.4981 O   0  0  0  0  0  0  0  0  0  0  0  0
    3.4374   11.5807    7.1107 C   0  0  1  0  0  0  0  0  0  0  0  0
    1.8949   11.3522    7.0769 C   0  0  1  0  0  0  0  0  0  0  0  0
    1.5634    6.5106    6.3287 C   0  0  0  0  0  0  0  0  0  0  0  0
    1.5314    8.0623    4.4625 C   0  0  0  0  0  0  0  0  0  0  0  0
    3.7747   12.6736    7.9658 O   0  0  0  0  0  0  0  0  0  0  0  0
    1.1157   12.5287    6.4379 C   0  0  1  0  0  0  0  0  0  0  0  0
    1.1799    5.4420    5.4788 C   0  0  0  0  0  0  0  0  0  0  0  0
    1.1055    7.0291    3.6144 C   0  0  0  0  0  0  0  0  0  0  0  0
    1.5027   12.7387    5.0834 O   0  0  0  0  0  0  0  0  0  0  0  0
    1.1102    4.0622    6.0442 C   0  0  2  0  0  0  0  0  0  0  0  0
    0.9127    5.7270    4.1111 C   0  0  0  0  0  0  0  0  0  0  0  0
    2.4374    3.3905    5.9482 C   0  0  0  0  0  0  0  0  0  0  0  0
    0.3609    4.5670    2.9992 Cl  0  0  0  0  0  0  0  0  0  0  0  0
    3.3904    3.5092    6.9875 C   0  0  0  0  0  0  0  0  0  0  0  0
    2.7820    2.6281    4.8071 C   0  0  0  0  0  0  0  0  0  0  0  0
    4.6433    2.8736    6.8951 C   0  0  0  0  0  0  0  0  0  0  0  0
    4.0380    2.0030    4.7087 C   0  0  0  0  0  0  0  0  0  0  0  0
    4.9667    2.1000    5.7633 C   0  0  0  0  0  0  0  0  0  0  0  0
    6.1722    1.4534    5.6818 O   0  0  0  0  0  0  0  0  0  0  0  0
    6.1020    0.0950    6.1673 C   0  0  1  0  0  0  0  0  0  0  0  0
    7.4734   -0.5921    6.0267 C   0  0  0  0  0  0  0  0  0  0  0  0
    1.7937    8.7231    7.7667 H   0  0  0  0  0  0  0  0  0  0  0  0
    5.2504    8.0103    7.3779 H   0  0  0  0  0  0  0  0  0  0  0  0
    4.1095    9.1284    5.7943 H   0  0  0  0  0  0  0  0  0  0  0  0
    3.9250   10.1542    8.6769 H   0  0  0  0  0  0  0  0  0  0  0  0
    5.7928   11.2500    8.0315 H   0  0  0  0  0  0  0  0  0  0  0  0
    3.7968   11.8127    6.1034 H   0  0  0  0  0  0  0  0  0  0  0  0
    1.5274   11.2312    8.1015 H   0  0  0  0  0  0  0  0  0  0  0  0
    1.7269    6.3242    7.3234 H   0  0  0  0  0  0  0  0  0  0  0  0
    1.6778    8.9936    4.0643 H   0  0  0  0  0  0  0  0  0  0  0  0
    3.3797   13.4628    7.5400 H   0  0  0  0  0  0  0  0  0  0  0  0
    0.0452   12.3129    6.4557 H   0  0  0  0  0  0  0  0  0  0  0  0
    1.2855   13.4473    7.0006 H   0  0  0  0  0  0  0  0  0  0  0  0
    0.9382    7.2397    2.6285 H   0  0  0  0  0  0  0  0  0  0  0  0
    0.9589   13.4951    4.7801 H   0  0  0  0  0  0  0  0  0  0  0  0
    0.3429    3.4702    5.5395 H   0  0  0  0  0  0  0  0  0  0  0  0
    0.7847    4.0961    7.0877 H   0  0  0  0  0  0  0  0  0  0  0  0
    3.1764    4.0604    7.8211 H   0  0  0  0  0  0  0  0  0  0  0  0
    2.1177    2.5213    4.0387 H   0  0  0  0  0  0  0  0  0  0  0  0
    5.3187    2.9727    7.6543 H   0  0  0  0  0  0  0  0  0  0  0  0
    4.2758    1.4687    3.8710 H   0  0  0  0  0  0  0  0  0  0  0  0
    5.8161    0.0804    7.2243 H   0  0  0  0  0  0  0  0  0  0  0  0
    5.3711   -0.4859    5.5945 H   0  0  0  0  0  0  0  0  0  0  0  0
    7.7728   -0.6267    4.9768 H   0  0  0  0  0  0  0  0  0  0  0  0
    7.4149   -1.6144    6.4091 H   0  0  0  0  0  0  0  0  0  0  0  0
    8.2293   -0.0465    6.5956 H   0  0  0  0  0  0  0  0  0  0  0  0
  2  1  1  0  0  0  0 
  2  3  1  0  0  0  0 
  4  2  1  0  0  0  0 
  3  5  1  0  0  0  0 
  3  6  1  0  0  0  0 
  4  7  1  0  0  0  0 
  8  4  1  0  0  0  0 
  9  5  1  0  0  0  0 
  6 10  2  0  0  0  0 
  6 11  1  0  0  0  0 
  9  8  1  0  0  0  0 
  8 12  1  0  0  0  0 
  9 13  1  0  0  0  0 
 10 14  1  0  0  0  0 
 11 15  2  0  0  0  0 
 13 16  1  0  0  0  0 
 14 17  1  0  0  0  0 
 14 18  2  0  0  0  0 
 15 18  1  0  0  0  0 
 17 19  1  0  0  0  0 
 18 20  1  0  0  0  0 
 19 21  2  0  0  0  0 
 19 22  1  0  0  0  0 
 21 23  1  0  0  0  0 
 22 24  2  0  0  0  0 
 23 25  2  0  0  0  0 
 24 25  1  0  0  0  0 
 25 26  1  0  0  0  0 
 26 27  1  0  0  0  0 
 27 28  1  0  0  0  0 
  3 29  1  0  0  0  0 
  1 30  1  0  0  0  0 
  2 31  1  0  0  0  0 
  4 32  1  0  0  0  0 
  7 33  1  0  0  0  0 
  8 34  1  0  0  0  0 
  9 35  1  0  0  0  0 
 10 36  1  0  0  0  0 
 11 37  1  0  0  0  0 
 12 38  1  0  0  0  0 
 13 39  1  0  0  0  0 
 13 40  1  0  0  0  0 
 15 41  1  0  0  0  0 
 16 42  1  0  0  0  0 
 17 43  1  0  0  0  0 
 17 44  1  0  0  0  0 
 21 45  1  0  0  0  0 
 22 46  1  0  0  0  0 
 23 47  1  0  0  0  0 
 24 48  1  0  0  0  0 
 27 49  1  0  0  0  0 
 27 50  1  0  0  0  0 
 28 51  1  0  0  0  0 
 28 52  1  0  0  0  0 
 28 53  1  0  0  0  0 
M  END
> <cdk:Title>
dapagliflozin

> <Conformer>
1

> <SuperDrugID>
SD003487

$$$$
