disulfiram
  CDK     0628171802

 36 35  0  0  0  0  0  0  0  0999 V2000
   -2.4274    1.1584   -4.3232 N   0  0  0  0  0  0  0  0  0  0  0  0
   -1.7387    0.8274   -3.2243 C   0  0  0  0  0  0  0  0  0  0  0  0
   -3.6626    1.9133   -4.2183 C   0  0  2  0  0  0  0  0  0  0  0  0
   -1.9828    0.6397   -5.6037 C   0  0  1  0  0  0  0  0  0  0  0  0
   -0.2672    1.6344   -2.8469 S   0  0  0  0  0  0  0  0  0  0  0  0
   -2.3127   -0.3748   -2.1646 S   0  0  0  0  0  0  0  0  0  0  0  0
   -3.6856    3.0271   -3.1398 C   0  0  0  0  0  0  0  0  0  0  0  0
   -1.1004    1.6370   -6.3893 C   0  0  0  0  0  0  0  0  0  0  0  0
    1.1977    0.1847   -3.2915 S   0  0  0  0  0  0  0  0  0  0  0  0
    1.9714   -0.0465   -1.7674 C   0  0  0  0  0  0  0  0  0  0  0  0
    1.5953   -1.0015   -0.8756 N   0  0  0  0  0  0  0  0  0  0  0  0
    3.2375    1.0598   -1.4866 S   0  0  0  0  0  0  0  0  0  0  0  0
    1.1702   -2.3143   -1.3419 C   0  0  1  0  0  0  0  0  0  0  0  0
    1.6503   -0.7369    0.5556 C   0  0  2  0  0  0  0  0  0  0  0  0
    2.3385   -3.1014   -1.9816 C   0  0  0  0  0  0  0  0  0  0  0  0
    0.7211    0.4185    0.9951 C   0  0  0  0  0  0  0  0  0  0  0  0
   -4.4751    1.2137   -4.0062 H   0  0  0  0  0  0  0  0  0  0  0  0
   -3.8945    2.3902   -5.1755 H   0  0  0  0  0  0  0  0  0  0  0  0
   -1.4123   -0.2878   -5.4738 H   0  0  0  0  0  0  0  0  0  0  0  0
   -2.8484    0.3800   -6.2211 H   0  0  0  0  0  0  0  0  0  0  0  0
   -4.6409    3.5544   -3.1619 H   0  0  0  0  0  0  0  0  0  0  0  0
   -3.5557    2.5988   -2.1439 H   0  0  0  0  0  0  0  0  0  0  0  0
   -2.8847    3.7447   -3.3240 H   0  0  0  0  0  0  0  0  0  0  0  0
   -0.7581    1.1719   -7.3165 H   0  0  0  0  0  0  0  0  0  0  0  0
   -0.2197    1.9129   -5.8091 H   0  0  0  0  0  0  0  0  0  0  0  0
   -1.6617    2.5383   -6.6386 H   0  0  0  0  0  0  0  0  0  0  0  0
    0.7774   -2.9319   -0.5289 H   0  0  0  0  0  0  0  0  0  0  0  0
    0.3517   -2.2264   -2.0621 H   0  0  0  0  0  0  0  0  0  0  0  0
    2.6781   -0.5131    0.8504 H   0  0  0  0  0  0  0  0  0  0  0  0
    1.3634   -1.6106    1.1469 H   0  0  0  0  0  0  0  0  0  0  0  0
    2.0218   -4.1222   -2.2009 H   0  0  0  0  0  0  0  0  0  0  0  0
    2.6551   -2.6285   -2.9126 H   0  0  0  0  0  0  0  0  0  0  0  0
    3.1864   -3.1377   -1.2939 H   0  0  0  0  0  0  0  0  0  0  0  0
    0.7123    0.4908    2.0828 H   0  0  0  0  0  0  0  0  0  0  0  0
    1.0681    1.3702    0.5932 H   0  0  0  0  0  0  0  0  0  0  0  0
   -0.2971    0.2370    0.6470 H   0  0  0  0  0  0  0  0  0  0  0  0
  1  2  1  0  0  0  0 
  1  3  1  0  0  0  0 
  1  4  1  0  0  0  0 
  2  5  1  0  0  0  0 
  2  6  2  0  0  0  0 
  3  7  1  0  0  0  0 
  4  8  1  0  0  0  0 
  5  9  1  0  0  0  0 
  9 10  1  0  0  0  0 
 10 11  1  0  0  0  0 
 10 12  2  0  0  0  0 
 11 13  1  0  0  0  0 
 11 14  1  0  0  0  0 
 13 15  1  0  0  0  0 
 14 16  1  0  0  0  0 
  3 17  1  0  0  0  0 
  3 18  1  0  0  0  0 
  4 19  1  0  0  0  0 
  4 20  1  0  0  0  0 
  7 21  1  0  0  0  0 
  7 22  1  0  0  0  0 
  7 23  1  0  0  0  0 
  8 24  1  0  0  0  0 
  8 25  1  0  0  0  0 
  8 26  1  0  0  0  0 
 13 27  1  0  0  0  0 
 13 28  1  0  0  0  0 
 14 29  1  0  0  0  0 
 14 30  1  0  0  0  0 
 15 31  1  0  0  0  0 
 15 32  1  0  0  0  0 
 15 33  1  0  0  0  0 
 16 34  1  0  0  0  0 
 16 35  1  0  0  0  0 
 16 36  1  0  0  0  0 
M  END
> <cdk:Title>
disulfiram

> <Conformer>
1

> <SuperDrugID>
SD000825

$$$$
