amprotropine
  CDK     0628171801

 51 51  0  0  0  0  0  0  0  0999 V2000
    0.3522   -4.7800   -6.0109 C   0  0  1  0  0  0  0  0  0  0  0  0
    1.2284   -3.6521   -5.6225 C   0  0  0  0  0  0  0  0  0  0  0  0
    0.4187   -5.9484   -4.9805 C   0  0  2  0  0  0  0  0  0  0  0  0
   -1.0225   -4.2423   -6.2781 C   0  0  0  0  0  0  0  0  0  0  0  0
    1.0825   -3.1031   -4.3831 O   0  0  0  0  0  0  0  0  0  0  0  0
    2.0979   -3.2277   -6.4195 O   0  0  0  0  0  0  0  0  0  0  0  0
    1.7391   -6.4803   -4.9020 O   0  0  0  0  0  0  0  0  0  0  0  0
   -1.4241   -3.9458   -7.6069 C   0  0  0  0  0  0  0  0  0  0  0  0
   -1.9428   -3.9634   -5.2347 C   0  0  0  0  0  0  0  0  0  0  0  0
    1.7782   -1.9904   -3.8068 C   0  0  1  0  0  0  0  0  0  0  0  0
   -2.6964   -3.4113   -7.8841 C   0  0  0  0  0  0  0  0  0  0  0  0
   -3.2232   -3.4459   -5.5107 C   0  0  0  0  0  0  0  0  0  0  0  0
    2.9695   -2.4311   -2.8905 C   0  0  1  0  0  0  0  0  0  0  0  0
   -3.6012   -3.1736   -6.8367 C   0  0  0  0  0  0  0  0  0  0  0  0
    2.5262   -3.4520   -1.7765 C   0  0  1  0  0  0  0  0  0  0  0  0
    4.0785   -3.0994   -3.7755 C   0  0  0  0  0  0  0  0  0  0  0  0
    3.5927   -1.1548   -2.2379 C   0  0  0  0  0  0  0  0  0  0  0  0
    1.4838   -2.9434   -0.8036 N   0  0  1  0  0  0  0  0  0  0  0  0
    0.0735   -3.3667   -1.1163 C   0  0  1  0  0  0  0  0  0  0  0  0
    1.8476   -3.1640    0.6397 C   0  0  1  0  0  0  0  0  0  0  0  0
   -1.0010   -2.3980   -0.5641 C   0  0  0  0  0  0  0  0  0  0  0  0
    2.8775   -2.1351    1.1544 C   0  0  0  0  0  0  0  0  0  0  0  0
    0.7414   -5.2028   -6.9427 H   0  0  0  0  0  0  0  0  0  0  0  0
   -0.2586   -6.7524   -5.2766 H   0  0  0  0  0  0  0  0  0  0  0  0
    0.1401   -5.6146   -3.9794 H   0  0  0  0  0  0  0  0  0  0  0  0
    1.7037   -7.1506   -4.1866 H   0  0  0  0  0  0  0  0  0  0  0  0
   -0.7857   -4.1054   -8.3902 H   0  0  0  0  0  0  0  0  0  0  0  0
   -1.6909   -4.1319   -4.2598 H   0  0  0  0  0  0  0  0  0  0  0  0
    2.1237   -1.3177   -4.5978 H   0  0  0  0  0  0  0  0  0  0  0  0
    1.0469   -1.4305   -3.2208 H   0  0  0  0  0  0  0  0  0  0  0  0
   -2.9650   -3.1941   -8.8470 H   0  0  0  0  0  0  0  0  0  0  0  0
   -3.8800   -3.2670   -4.7472 H   0  0  0  0  0  0  0  0  0  0  0  0
   -4.5321   -2.8013   -7.0401 H   0  0  0  0  0  0  0  0  0  0  0  0
    2.1767   -4.3756   -2.2480 H   0  0  0  0  0  0  0  0  0  0  0  0
    3.4376   -3.7435   -1.2441 H   0  0  0  0  0  0  0  0  0  0  0  0
    4.3668   -2.4527   -4.6077 H   0  0  0  0  0  0  0  0  0  0  0  0
    4.9770   -3.3054   -3.1901 H   0  0  0  0  0  0  0  0  0  0  0  0
    3.7364   -4.0480   -4.1918 H   0  0  0  0  0  0  0  0  0  0  0  0
    3.8808   -0.4268   -2.9999 H   0  0  0  0  0  0  0  0  0  0  0  0
    4.4861   -1.4072   -1.6632 H   0  0  0  0  0  0  0  0  0  0  0  0
    2.8817   -0.6741   -1.5656 H   0  0  0  0  0  0  0  0  0  0  0  0
   -0.0871   -3.4078   -2.1920 H   0  0  0  0  0  0  0  0  0  0  0  0
   -0.1137   -4.3739   -0.7340 H   0  0  0  0  0  0  0  0  0  0  0  0
    0.9785   -3.0750    1.2948 H   0  0  0  0  0  0  0  0  0  0  0  0
    2.2400   -4.1756    0.7865 H   0  0  0  0  0  0  0  0  0  0  0  0
   -1.1025   -2.4955    0.5167 H   0  0  0  0  0  0  0  0  0  0  0  0
   -0.7437   -1.3656   -0.8050 H   0  0  0  0  0  0  0  0  0  0  0  0
   -1.9711   -2.6275   -1.0085 H   0  0  0  0  0  0  0  0  0  0  0  0
    3.0342   -2.2768    2.2260 H   0  0  0  0  0  0  0  0  0  0  0  0
    2.5131   -1.1189    0.9876 H   0  0  0  0  0  0  0  0  0  0  0  0
    3.8359   -2.2578    0.6502 H   0  0  0  0  0  0  0  0  0  0  0  0
  1  2  1  0  0  0  0 
  1  3  1  0  0  0  0 
  1  4  1  0  0  0  0 
  2  5  1  0  0  0  0 
  2  6  2  0  0  0  0 
  3  7  1  0  0  0  0 
  4  8  2  0  0  0  0 
  4  9  1  0  0  0  0 
  5 10  1  0  0  0  0 
  8 11  1  0  0  0  0 
  9 12  2  0  0  0  0 
 10 13  1  0  0  0  0 
 11 14  2  0  0  0  0 
 12 14  1  0  0  0  0 
 13 15  1  0  0  0  0 
 13 16  1  0  0  0  0 
 13 17  1  0  0  0  0 
 15 18  1  0  0  0  0 
 18 19  1  0  0  0  0 
 18 20  1  0  0  0  0 
 19 21  1  0  0  0  0 
 20 22  1  0  0  0  0 
  1 23  1  0  0  0  0 
  3 24  1  0  0  0  0 
  3 25  1  0  0  0  0 
  7 26  1  0  0  0  0 
  8 27  1  0  0  0  0 
  9 28  1  0  0  0  0 
 10 29  1  0  0  0  0 
 10 30  1  0  0  0  0 
 11 31  1  0  0  0  0 
 12 32  1  0  0  0  0 
 14 33  1  0  0  0  0 
 15 34  1  0  0  0  0 
 15 35  1  0  0  0  0 
 16 36  1  0  0  0  0 
 16 37  1  0  0  0  0 
 16 38  1  0  0  0  0 
 17 39  1  0  0  0  0 
 17 40  1  0  0  0  0 
 17 41  1  0  0  0  0 
 19 42  1  0  0  0  0 
 19 43  1  0  0  0  0 
 20 44  1  0  0  0  0 
 20 45  1  0  0  0  0 
 21 46  1  0  0  0  0 
 21 47  1  0  0  0  0 
 21 48  1  0  0  0  0 
 22 49  1  0  0  0  0 
 22 50  1  0  0  0  0 
 22 51  1  0  0  0  0 
M  END
> <cdk:Title>
amprotropine

> <Conformer>
1

> <SuperDrugID>
SD003144

$$$$
