metesculetol
  CDK     0628171801

 28 29  0  0  0  0  0  0  0  0999 V2000
    2.2713   -4.4162    5.1824 C   0  0  0  0  0  0  0  0  0  0  0  0
    0.9430   -4.9932    4.8411 C   0  0  0  0  0  0  0  0  0  0  0  0
    0.2098   -4.5654    3.6958 C   0  0  0  0  0  0  0  0  0  0  0  0
    0.3969   -5.9946    5.6791 C   0  0  0  0  0  0  0  0  0  0  0  0
   -1.0462   -5.1777    3.4329 C   0  0  0  0  0  0  0  0  0  0  0  0
    0.6548   -3.5613    2.7988 C   0  0  0  0  0  0  0  0  0  0  0  0
   -0.8491   -6.5639    5.3751 C   0  0  0  0  0  0  0  0  0  0  0  0
   -1.8165   -4.8073    2.3157 C   0  0  0  0  0  0  0  0  0  0  0  0
   -1.5231   -6.1423    4.2709 O   0  0  0  0  0  0  0  0  0  0  0  0
   -0.1286   -3.1616    1.6972 C   0  0  0  0  0  0  0  0  0  0  0  0
   -1.3457   -7.4563    6.0980 O   0  0  0  0  0  0  0  0  0  0  0  0
   -1.3624   -3.7976    1.4497 C   0  0  0  0  0  0  0  0  0  0  0  0
    0.3267   -2.1706    0.8677 O   0  0  0  0  0  0  0  0  0  0  0  0
   -2.1258   -3.4433    0.3873 O   0  0  0  0  0  0  0  0  0  0  0  0
   -0.0423   -0.8496    1.3136 C   0  0  1  0  0  0  0  0  0  0  0  0
    0.5060    0.1443    0.3808 C   0  0  0  0  0  0  0  0  0  0  0  0
   -0.3165    1.0069   -0.2606 O   0  0  0  0  0  0  0  0  0  0  0  0
    1.7390    0.2138    0.1753 O   0  0  0  0  0  0  0  0  0  0  0  0
    2.9708   -4.5893    4.3634 H   0  0  0  0  0  0  0  0  0  0  0  0
    2.7058   -4.8528    6.0836 H   0  0  0  0  0  0  0  0  0  0  0  0
    2.1732   -3.3424    5.3469 H   0  0  0  0  0  0  0  0  0  0  0  0
    0.8984   -6.3195    6.5084 H   0  0  0  0  0  0  0  0  0  0  0  0
    1.5531   -3.0973    2.9377 H   0  0  0  0  0  0  0  0  0  0  0  0
   -2.7084   -5.2731    2.1312 H   0  0  0  0  0  0  0  0  0  0  0  0
   -1.6169   -3.7353   -0.3975 H   0  0  0  0  0  0  0  0  0  0  0  0
   -1.1317   -0.7488    1.3454 H   0  0  0  0  0  0  0  0  0  0  0  0
    0.3589   -0.6360    2.3093 H   0  0  0  0  0  0  0  0  0  0  0  0
    0.0467    1.6807   -0.8731 H   0  0  0  0  0  0  0  0  0  0  0  0
  1  2  1  0  0  0  0 
  2  3  1  0  0  0  0 
  2  4  2  0  0  0  0 
  3  5  1  0  0  0  0 
  3  6  2  0  0  0  0 
  4  7  1  0  0  0  0 
  5  8  2  0  0  0  0 
  5  9  1  0  0  0  0 
  6 10  1  0  0  0  0 
  7  9  1  0  0  0  0 
  7 11  2  0  0  0  0 
  8 12  1  0  0  0  0 
 10 12  2  0  0  0  0 
 10 13  1  0  0  0  0 
 12 14  1  0  0  0  0 
 13 15  1  0  0  0  0 
 15 16  1  0  0  0  0 
 16 17  1  0  0  0  0 
 16 18  2  0  0  0  0 
  1 19  1  0  0  0  0 
  1 20  1  0  0  0  0 
  1 21  1  0  0  0  0 
  4 22  1  0  0  0  0 
  6 23  1  0  0  0  0 
  8 24  1  0  0  0  0 
 14 25  1  0  0  0  0 
 15 26  1  0  0  0  0 
 15 27  1  0  0  0  0 
 17 28  1  0  0  0  0 
M  END
> <cdk:Title>
metesculetol

> <Conformer>
1

> <SuperDrugID>
SD001525

$$$$
