cefetamet
  CDK     0628171801

 41 43  0  0  0  0  0  0  0  0999 V2000
   -2.8627    2.0639   -3.8451 C   0  0  0  0  0  0  0  0  0  0  0  0
   -3.7749    2.8802   -3.2626 O   0  0  0  0  0  0  0  0  0  0  0  0
   -2.1276    2.5829   -4.7171 O   0  0  0  0  0  0  0  0  0  0  0  0
   -2.7109    0.7206   -3.4913 C   0  0  0  0  0  0  0  0  0  0  0  0
   -1.4459    0.2540   -3.4293 N   0  0  0  0  0  0  0  0  0  0  0  0
   -3.7562   -0.1140   -3.2144 C   0  0  0  0  0  0  0  0  0  0  0  0
   -0.9374   -1.0608   -3.5722 C   0  0  1  0  0  0  0  0  0  0  0  0
   -0.2509    0.7817   -3.1165 C   0  0  0  0  0  0  0  0  0  0  0  0
   -5.1521    0.3358   -3.2784 C   0  0  0  0  0  0  0  0  0  0  0  0
   -3.5883   -1.5290   -2.8261 C   0  0  2  0  0  0  0  0  0  0  0  0
    0.4600   -0.4991   -3.1616 C   0  0  1  0  0  0  0  0  0  0  0  0
   -1.8971   -2.0826   -2.4120 S   0  0  0  0  0  0  0  0  0  0  0  0
    0.1265    1.9403   -2.8269 O   0  0  0  0  0  0  0  0  0  0  0  0
    0.9227   -0.9498   -1.8888 N   0  0  0  0  0  0  0  0  0  0  0  0
    1.9433   -0.4131   -1.1626 C   0  0  0  0  0  0  0  0  0  0  0  0
    2.1314   -0.8151    0.1632 C   0  0  0  0  0  0  0  0  0  0  0  0
    2.6929    0.4578   -1.6691 O   0  0  0  0  0  0  0  0  0  0  0  0
    3.3128   -0.9723    0.6525 N   0  0  0  0  0  0  0  0  0  0  0  0
    1.0367   -1.0362    1.0110 C   0  0  0  0  0  0  0  0  0  0  0  0
    4.4307   -0.8215    0.0457 O   0  0  0  0  0  0  0  0  0  0  0  0
   -0.2372   -0.6887    0.6499 N   0  0  0  0  0  0  0  0  0  0  0  0
    1.1173   -1.6058    2.2976 C   0  0  0  0  0  0  0  0  0  0  0  0
    5.5131   -0.9386    0.9783 C   0  0  0  0  0  0  0  0  0  0  0  0
   -1.2443   -0.9280    1.5142 C   0  0  0  0  0  0  0  0  0  0  0  0
   -0.5181   -1.6643    2.9283 S   0  0  0  0  0  0  0  0  0  0  0  0
   -2.5437   -0.6579    1.3235 N   0  0  0  0  0  0  0  0  0  0  0  0
   -1.0000   -1.4137   -4.6056 H   0  0  0  0  0  0  0  0  0  0  0  0
   -3.8385    3.8199   -3.5330 H   0  0  0  0  0  0  0  0  0  0  0  0
   -5.3494    1.0274   -2.4580 H   0  0  0  0  0  0  0  0  0  0  0  0
   -5.8742   -0.4805   -3.1903 H   0  0  0  0  0  0  0  0  0  0  0  0
   -5.3523    0.8348   -4.2276 H   0  0  0  0  0  0  0  0  0  0  0  0
   -3.9362   -2.1538   -3.6523 H   0  0  0  0  0  0  0  0  0  0  0  0
   -4.2023   -1.7569   -1.9494 H   0  0  0  0  0  0  0  0  0  0  0  0
    1.2040   -0.5504   -3.9627 H   0  0  0  0  0  0  0  0  0  0  0  0
    0.4345   -1.6831   -1.4806 H   0  0  0  0  0  0  0  0  0  0  0  0
    1.9544   -1.9266    2.7876 H   0  0  0  0  0  0  0  0  0  0  0  0
    6.4442   -0.8126    0.4239 H   0  0  0  0  0  0  0  0  0  0  0  0
    5.4621   -0.1562    1.7421 H   0  0  0  0  0  0  0  0  0  0  0  0
    5.5301   -1.9216    1.4628 H   0  0  0  0  0  0  0  0  0  0  0  0
   -2.8453   -0.2678    0.4867 H   0  0  0  0  0  0  0  0  0  0  0  0
   -3.1842   -0.8516    2.0254 H   0  0  0  0  0  0  0  0  0  0  0  0
  1  2  1  0  0  0  0 
  1  3  2  0  0  0  0 
  1  4  1  0  0  0  0 
  4  5  1  0  0  0  0 
  4  6  2  0  0  0  0 
  7  5  1  0  0  0  0 
  5  8  1  0  0  0  0 
  6  9  1  0  0  0  0 
  6 10  1  0  0  0  0 
 11  7  1  0  0  0  0 
  7 12  1  0  0  0  0 
  7 27  1  0  0  0  0 
 11  8  1  0  0  0  0 
  8 13  2  0  0  0  0 
 10 12  1  0  0  0  0 
 11 14  1  0  0  0  0 
 14 15  1  0  0  0  0 
 15 16  1  0  0  0  0 
 15 17  2  0  0  0  0 
 16 18  2  0  0  0  0 
 16 19  1  0  0  0  0 
 18 20  1  0  0  0  0 
 19 21  1  0  0  0  0 
 19 22  2  0  0  0  0 
 20 23  1  0  0  0  0 
 21 24  2  0  0  0  0 
 22 25  1  0  0  0  0 
 24 25  1  0  0  0  0 
 24 26  1  0  0  0  0 
  2 28  1  0  0  0  0 
  9 29  1  0  0  0  0 
  9 30  1  0  0  0  0 
  9 31  1  0  0  0  0 
 10 32  1  0  0  0  0 
 10 33  1  0  0  0  0 
 11 34  1  0  0  0  0 
 14 35  1  0  0  0  0 
 22 36  1  0  0  0  0 
 23 37  1  0  0  0  0 
 23 38  1  0  0  0  0 
 23 39  1  0  0  0  0 
 26 40  1  0  0  0  0 
 26 41  1  0  0  0  0 
M  END
> <cdk:Title>
cefetamet

> <Conformer>
1

> <SuperDrugID>
SD002669

$$$$
