clidanac
  CDK     0628171802

 38 40  0  0  0  0  0  0  0  0999 V2000
   -1.3684    2.2503   -3.8195 C   0  0  0  0  0  0  0  0  0  0  0  0
   -1.9834    3.3902   -4.2112 O   0  0  0  0  0  0  0  0  0  0  0  0
   -0.1381    2.2869   -3.5864 O   0  0  0  0  0  0  0  0  0  0  0  0
   -2.1407    0.9924   -3.6799 C   0  0  2  0  0  0  0  0  0  0  0  0
   -2.0267    0.4246   -2.3284 C   0  0  0  0  0  0  0  0  0  0  0  0
   -1.6316   -0.1564   -4.6011 C   0  0  1  0  0  0  0  0  0  0  0  0
   -1.4685   -0.8496   -2.3358 C   0  0  0  0  0  0  0  0  0  0  0  0
   -2.3936    1.0221   -1.1108 C   0  0  0  0  0  0  0  0  0  0  0  0
   -1.1597   -1.3138   -3.6864 C   0  0  2  0  0  0  0  0  0  0  0  0
   -1.2504   -1.5450   -1.1330 C   0  0  0  0  0  0  0  0  0  0  0  0
   -2.1646    0.3441    0.1089 C   0  0  0  0  0  0  0  0  0  0  0  0
   -1.5883   -0.9654    0.1229 C   0  0  0  0  0  0  0  0  0  0  0  0
   -2.6020    1.2164    1.4973 Cl  0  0  0  0  0  0  0  0  0  0  0  0
   -1.2986   -1.7645    1.3742 C   0  0  2  0  0  0  0  0  0  0  0  0
   -2.5481   -2.1156    2.2427 C   0  0  1  0  0  0  0  0  0  0  0  0
   -0.1701   -1.1395    2.2515 C   0  0  2  0  0  0  0  0  0  0  0  0
   -2.1734   -3.0478    3.4295 C   0  0  2  0  0  0  0  0  0  0  0  0
    0.2206   -2.0725    3.4315 C   0  0  2  0  0  0  0  0  0  0  0  0
   -1.0115   -2.4737    4.2851 C   0  0  2  0  0  0  0  0  0  0  0  0
   -1.4687    4.2202   -4.3065 H   0  0  0  0  0  0  0  0  0  0  0  0
   -3.1965    1.1876   -3.8927 H   0  0  0  0  0  0  0  0  0  0  0  0
   -2.4432   -0.5043   -5.2458 H   0  0  0  0  0  0  0  0  0  0  0  0
   -0.8138    0.1658   -5.2531 H   0  0  0  0  0  0  0  0  0  0  0  0
   -2.8110    1.9573   -1.1224 H   0  0  0  0  0  0  0  0  0  0  0  0
   -0.0844   -1.4838   -3.7862 H   0  0  0  0  0  0  0  0  0  0  0  0
   -1.7036   -2.2367   -3.9073 H   0  0  0  0  0  0  0  0  0  0  0  0
   -0.8384   -2.4802   -1.1879 H   0  0  0  0  0  0  0  0  0  0  0  0
   -0.9082   -2.7420    1.0672 H   0  0  0  0  0  0  0  0  0  0  0  0
   -2.9971   -1.2145    2.6562 H   0  0  0  0  0  0  0  0  0  0  0  0
   -3.3042   -2.6064    1.6231 H   0  0  0  0  0  0  0  0  0  0  0  0
   -0.4871   -0.1801    2.6608 H   0  0  0  0  0  0  0  0  0  0  0  0
    0.7156   -0.9540    1.6385 H   0  0  0  0  0  0  0  0  0  0  0  0
   -1.8794   -4.0269    3.0412 H   0  0  0  0  0  0  0  0  0  0  0  0
   -3.0500   -3.1894    4.0679 H   0  0  0  0  0  0  0  0  0  0  0  0
    0.9441   -1.5576    4.0703 H   0  0  0  0  0  0  0  0  0  0  0  0
    0.7026   -2.9755    3.0439 H   0  0  0  0  0  0  0  0  0  0  0  0
   -0.7086   -3.2196    5.0245 H   0  0  0  0  0  0  0  0  0  0  0  0
   -1.3688   -1.5980    4.8309 H   0  0  0  0  0  0  0  0  0  0  0  0
  1  2  1  0  0  0  0 
  1  3  2  0  0  0  0 
  4  1  1  0  0  0  0 
  4  5  1  0  0  0  0 
  4  6  1  0  0  0  0 
  5  7  2  0  0  0  0 
  5  8  1  0  0  0  0 
  6  9  1  0  0  0  0 
  7  9  1  0  0  0  0 
  7 10  1  0  0  0  0 
  8 11  2  0  0  0  0 
 10 12  2  0  0  0  0 
 11 12  1  0  0  0  0 
 11 13  1  0  0  0  0 
 12 14  1  0  0  0  0 
 14 15  1  0  0  0  0 
 14 16  1  0  0  0  0 
 15 17  1  0  0  0  0 
 16 18  1  0  0  0  0 
 17 19  1  0  0  0  0 
 18 19  1  0  0  0  0 
  2 20  1  0  0  0  0 
  4 21  1  0  0  0  0 
  6 22  1  0  0  0  0 
  6 23  1  0  0  0  0 
  8 24  1  0  0  0  0 
  9 25  1  0  0  0  0 
  9 26  1  0  0  0  0 
 10 27  1  0  0  0  0 
 14 28  1  0  0  0  0 
 15 29  1  0  0  0  0 
 15 30  1  0  0  0  0 
 16 31  1  0  0  0  0 
 16 32  1  0  0  0  0 
 17 33  1  0  0  0  0 
 17 34  1  0  0  0  0 
 18 35  1  0  0  0  0 
 18 36  1  0  0  0  0 
 19 37  1  0  0  0  0 
 19 38  1  0  0  0  0 
M  END
> <cdk:Title>
clidanac

> <Conformer>
1

> <SuperDrugID>
SD000594

$$$$
