beclometasone dipropionate
  CDK     0628171801

 73 76  0  0  0  0  0  0  0  0999 V2000
   -4.6788   -9.4332   -4.7179 C   0  0  0  0  0  0  0  0  0  0  0  0
   -5.9282  -10.0815   -4.2482 C   0  0  2  0  0  0  0  0  0  0  0  0
   -4.7649   -8.8915   -5.8450 O   0  0  0  0  0  0  0  0  0  0  0  0
   -3.4166   -9.2866   -3.8984 C   0  0  2  0  0  0  0  0  0  0  0  0
   -6.2230   -9.7055   -2.9011 O   0  0  0  0  0  0  0  0  0  0  0  0
   -3.4292  -10.2881   -2.8400 O   0  0  0  0  0  0  0  0  0  0  0  0
   -3.2985   -7.8649   -3.1929 C   0  0  2  0  0  0  0  0  0  0  0  0
   -2.0164   -9.4277   -4.6448 C   0  0  1  0  0  0  0  0  0  0  0  0
   -7.3997   -9.8645   -2.2323 C   0  0  0  0  0  0  0  0  0  0  0  0
   -3.4030  -11.6595   -2.8600 C   0  0  0  0  0  0  0  0  0  0  0  0
   -3.6249   -6.6899   -4.2027 C   0  0  0  0  0  0  0  0  0  0  0  0
   -1.7971   -7.9036   -2.7522 C   0  0  1  0  0  0  0  0  0  0  0  0
   -4.1694   -7.6521   -1.8977 C   0  0  2  0  0  0  0  0  0  0  0  0
   -1.9864   -9.4367   -6.1995 C   0  0  0  0  0  0  0  0  0  0  0  0
   -1.0658   -8.3441   -4.0384 C   0  0  2  0  0  0  0  0  0  0  0  0
   -7.4902   -9.4486   -0.8186 C   0  0  1  0  0  0  0  0  0  0  0  0
   -8.4163  -10.3068   -2.8155 O   0  0  0  0  0  0  0  0  0  0  0  0
   -3.3285  -12.3827   -1.5728 C   0  0  2  0  0  0  0  0  0  0  0  0
   -3.4128  -12.3011   -3.9372 O   0  0  0  0  0  0  0  0  0  0  0  0
   -1.3251   -6.6422   -1.9437 C   0  0  1  0  0  0  0  0  0  0  0  0
   -3.7353   -6.4471   -0.9989 C   0  0  1  0  0  0  0  0  0  0  0  0
   -8.2145   -8.0922   -0.6603 C   0  0  0  0  0  0  0  0  0  0  0  0
   -4.5933  -13.2109   -1.2533 C   0  0  0  0  0  0  0  0  0  0  0  0
   -2.1961   -6.4363   -0.6262 C   0  0  1  0  0  0  0  0  0  0  0  0
    0.2012   -6.6855   -1.6211 C   0  0  1  0  0  0  0  0  0  0  0  0
   -4.1572   -5.2355   -1.6191 O   0  0  0  0  0  0  0  0  0  0  0  0
   -1.9806   -7.8573    0.4475 Cl  0  0  0  0  0  0  0  0  0  0  0  0
   -1.6958   -5.1545    0.2063 C   0  0  2  0  0  0  0  0  0  0  0  0
    0.6589   -5.5014   -0.7313 C   0  0  2  0  0  0  0  0  0  0  0  0
   -1.9119   -3.7538   -0.4850 C   0  0  0  0  0  0  0  0  0  0  0  0
   -0.2190   -5.3131    0.4323 C   0  0  0  0  0  0  0  0  0  0  0  0
   -2.4536   -5.0392    1.4812 C   0  0  0  0  0  0  0  0  0  0  0  0
    0.3020   -5.3170    1.6811 C   0  0  0  0  0  0  0  0  0  0  0  0
   -1.8691   -5.0603    2.6892 C   0  0  0  0  0  0  0  0  0  0  0  0
   -0.4977   -5.1816    2.8049 C   0  0  0  0  0  0  0  0  0  0  0  0
    0.0256   -5.1774    3.9446 O   0  0  0  0  0  0  0  0  0  0  0  0
   -5.8285  -11.1644   -4.3037 H   0  0  0  0  0  0  0  0  0  0  0  0
   -6.7675   -9.7904   -4.8880 H   0  0  0  0  0  0  0  0  0  0  0  0
   -1.5763  -10.3950   -4.3783 H   0  0  0  0  0  0  0  0  0  0  0  0
   -3.2962   -5.7205   -3.8453 H   0  0  0  0  0  0  0  0  0  0  0  0
   -3.1474   -6.8299   -5.1682 H   0  0  0  0  0  0  0  0  0  0  0  0
   -4.6996   -6.6190   -4.3790 H   0  0  0  0  0  0  0  0  0  0  0  0
   -1.6456   -8.7438   -2.0651 H   0  0  0  0  0  0  0  0  0  0  0  0
   -4.1443   -8.5485   -1.2759 H   0  0  0  0  0  0  0  0  0  0  0  0
   -5.2140   -7.5072   -2.1767 H   0  0  0  0  0  0  0  0  0  0  0  0
   -0.9644   -9.5843   -6.5541 H   0  0  0  0  0  0  0  0  0  0  0  0
   -2.3550   -8.4990   -6.6150 H   0  0  0  0  0  0  0  0  0  0  0  0
   -2.5961  -10.2599   -6.5787 H   0  0  0  0  0  0  0  0  0  0  0  0
   -0.9229   -7.4921   -4.7087 H   0  0  0  0  0  0  0  0  0  0  0  0
   -0.0820   -8.7665   -3.8120 H   0  0  0  0  0  0  0  0  0  0  0  0
   -8.0157  -10.2170   -0.2447 H   0  0  0  0  0  0  0  0  0  0  0  0
   -6.4860   -9.3580   -0.3978 H   0  0  0  0  0  0  0  0  0  0  0  0
   -3.1744  -11.6635   -0.7629 H   0  0  0  0  0  0  0  0  0  0  0  0
   -2.4597  -13.0476   -1.5898 H   0  0  0  0  0  0  0  0  0  0  0  0
   -1.4573   -5.7736   -2.5880 H   0  0  0  0  0  0  0  0  0  0  0  0
   -4.3291   -6.5103   -0.0828 H   0  0  0  0  0  0  0  0  0  0  0  0
   -8.2830   -7.8303    0.3967 H   0  0  0  0  0  0  0  0  0  0  0  0
   -7.6641   -7.3010   -1.1735 H   0  0  0  0  0  0  0  0  0  0  0  0
   -9.2246   -8.1388   -1.0707 H   0  0  0  0  0  0  0  0  0  0  0  0
   -4.4843  -13.6800   -0.2716 H   0  0  0  0  0  0  0  0  0  0  0  0
   -5.4777  -12.5687   -1.2348 H   0  0  0  0  0  0  0  0  0  0  0  0
   -4.7386  -13.9982   -1.9973 H   0  0  0  0  0  0  0  0  0  0  0  0
    0.4540   -7.6266   -1.1240 H   0  0  0  0  0  0  0  0  0  0  0  0
    0.7693   -6.6479   -2.5552 H   0  0  0  0  0  0  0  0  0  0  0  0
   -5.1299   -5.3082   -1.7164 H   0  0  0  0  0  0  0  0  0  0  0  0
    0.6678   -4.5854   -1.3248 H   0  0  0  0  0  0  0  0  0  0  0  0
    1.6972   -5.6907   -0.4431 H   0  0  0  0  0  0  0  0  0  0  0  0
   -1.5758   -3.7470   -1.5202 H   0  0  0  0  0  0  0  0  0  0  0  0
   -1.3600   -2.9713    0.0445 H   0  0  0  0  0  0  0  0  0  0  0  0
   -2.9581   -3.4416   -0.4849 H   0  0  0  0  0  0  0  0  0  0  0  0
   -3.4435   -4.9394    1.4528 H   0  0  0  0  0  0  0  0  0  0  0  0
    1.2812   -5.4256    1.8160 H   0  0  0  0  0  0  0  0  0  0  0  0
   -2.4310   -4.9826    3.5075 H   0  0  0  0  0  0  0  0  0  0  0  0
  1  2  1  0  0  0  0 
  1  3  2  0  0  0  0 
  4  1  1  0  0  0  0 
  2  5  1  0  0  0  0 
  4  6  1  0  0  0  0 
  7  4  1  0  0  0  0 
  4  8  1  0  0  0  0 
  5  9  1  0  0  0  0 
  6 10  1  0  0  0  0 
  7 11  1  0  0  0  0 
 12  7  1  0  0  0  0 
  7 13  1  0  0  0  0 
  8 14  1  0  0  0  0 
  8 15  1  0  0  0  0 
  9 16  1  0  0  0  0 
  9 17  2  0  0  0  0 
 10 18  1  0  0  0  0 
 10 19  2  0  0  0  0 
 12 15  1  0  0  0  0 
 20 12  1  0  0  0  0 
 21 13  1  0  0  0  0 
 16 22  1  0  0  0  0 
 18 23  1  0  0  0  0 
 24 20  1  0  0  0  0 
 20 25  1  0  0  0  0 
 24 21  1  0  0  0  0 
 21 26  1  0  0  0  0 
 24 27  1  0  0  0  0 
 24 28  1  0  0  0  0 
 25 29  1  0  0  0  0 
 28 30  1  0  0  0  0 
 28 31  1  0  0  0  0 
 28 32  1  0  0  0  0 
 29 31  1  0  0  0  0 
 31 33  2  0  0  0  0 
 32 34  2  0  0  0  0 
 33 35  1  0  0  0  0 
 34 35  1  0  0  0  0 
 35 36  2  0  0  0  0 
 37  2  1  0  0  0  0 
 38  2  1  0  0  0  0 
  8 39  1  0  0  0  0 
 40 11  1  0  0  0  0 
 41 11  1  0  0  0  0 
 42 11  1  0  0  0  0 
 12 43  1  0  0  0  0 
 44 13  1  0  0  0  0 
 45 13  1  0  0  0  0 
 46 14  1  0  0  0  0 
 47 14  1  0  0  0  0 
 48 14  1  0  0  0  0 
 49 15  1  0  0  0  0 
 50 15  1  0  0  0  0 
 51 16  1  0  0  0  0 
 52 16  1  0  0  0  0 
 53 18  1  0  0  0  0 
 54 18  1  0  0  0  0 
 20 55  1  0  0  0  0 
 21 56  1  0  0  0  0 
 57 22  1  0  0  0  0 
 58 22  1  0  0  0  0 
 59 22  1  0  0  0  0 
 60 23  1  0  0  0  0 
 61 23  1  0  0  0  0 
 62 23  1  0  0  0  0 
 63 25  1  0  0  0  0 
 64 25  1  0  0  0  0 
 65 26  1  0  0  0  0 
 66 29  1  0  0  0  0 
 67 29  1  0  0  0  0 
 68 30  1  0  0  0  0 
 69 30  1  0  0  0  0 
 70 30  1  0  0  0  0 
 71 32  1  0  0  0  0 
 72 33  1  0  0  0  0 
 73 34  1  0  0  0  0 
M  END
> <cdk:Title>
beclometasone dipropionate

> <Conformer>
1

> <SuperDrugID>
SD000246

$$$$
