propiomazine
  CDK     0628171801

 48 50  0  0  0  0  0  0  0  0999 V2000
    1.0614    0.7043    0.1718 C   0  0  0  0  0  0  0  0  0  0  0  0
    0.5306   -0.5282   -0.5989 C   0  0  2  0  0  0  0  0  0  0  0  0
    1.4970   -1.0372   -1.6109 C   0  0  0  0  0  0  0  0  0  0  0  0
    1.1349   -0.9809   -2.8117 O   0  0  0  0  0  0  0  0  0  0  0  0
    2.7956   -1.5512   -1.2956 C   0  0  0  0  0  0  0  0  0  0  0  0
    3.8141   -1.5941   -2.2776 C   0  0  0  0  0  0  0  0  0  0  0  0
    5.0928   -2.0837   -1.9734 C   0  0  0  0  0  0  0  0  0  0  0  0
    5.3860   -2.5110   -0.6676 C   0  0  0  0  0  0  0  0  0  0  0  0
    6.9766   -3.1749   -0.3464 S   0  0  0  0  0  0  0  0  0  0  0  0
    6.7195   -4.1325    1.1017 C   0  0  0  0  0  0  0  0  0  0  0  0
    7.6220   -5.1782    1.3729 C   0  0  0  0  0  0  0  0  0  0  0  0
    7.4306   -5.9935    2.4967 C   0  0  0  0  0  0  0  0  0  0  0  0
    6.3376   -5.7606    3.3459 C   0  0  0  0  0  0  0  0  0  0  0  0
    5.4463   -4.7049    3.0780 C   0  0  0  0  0  0  0  0  0  0  0  0
    5.6186   -3.8480    1.9563 C   0  0  0  0  0  0  0  0  0  0  0  0
    4.7439   -2.7822    1.6947 N   0  0  0  0  0  0  0  0  0  0  0  0
    4.1535   -2.0193    2.8045 C   0  0  1  0  0  0  0  0  0  0  0  0
    5.1548   -1.3323    3.7960 C   0  0  2  0  0  0  0  0  0  0  0  0
    4.4178   -0.6789    5.0025 C   0  0  0  0  0  0  0  0  0  0  0  0
    6.0645   -0.2940    3.1977 N   0  0  1  0  0  0  0  0  0  0  0  0
    7.4066   -0.7463    2.7430 C   0  0  0  0  0  0  0  0  0  0  0  0
    5.4549    0.7196    2.2909 C   0  0  0  0  0  0  0  0  0  0  0  0
    4.4256   -2.4421    0.3714 C   0  0  0  0  0  0  0  0  0  0  0  0
    3.1215   -2.0199    0.0021 C   0  0  0  0  0  0  0  0  0  0  0  0
    0.2866    1.0806    0.8386 H   0  0  0  0  0  0  0  0  0  0  0  0
    1.3344    1.5015   -0.5214 H   0  0  0  0  0  0  0  0  0  0  0  0
    1.9339    0.4499    0.7747 H   0  0  0  0  0  0  0  0  0  0  0  0
   -0.4033   -0.2358   -1.0883 H   0  0  0  0  0  0  0  0  0  0  0  0
    0.2801   -1.3246    0.1057 H   0  0  0  0  0  0  0  0  0  0  0  0
    3.6389   -1.2682   -3.2315 H   0  0  0  0  0  0  0  0  0  0  0  0
    5.8055   -2.1268   -2.7078 H   0  0  0  0  0  0  0  0  0  0  0  0
    8.4168   -5.3517    0.7566 H   0  0  0  0  0  0  0  0  0  0  0  0
    8.0831   -6.7564    2.6931 H   0  0  0  0  0  0  0  0  0  0  0  0
    6.1929   -6.3615    4.1624 H   0  0  0  0  0  0  0  0  0  0  0  0
    4.6623   -4.5837    3.7210 H   0  0  0  0  0  0  0  0  0  0  0  0
    3.5002   -1.2177    2.4578 H   0  0  0  0  0  0  0  0  0  0  0  0
    3.4924   -2.6865    3.3630 H   0  0  0  0  0  0  0  0  0  0  0  0
    5.7595   -2.1250    4.2410 H   0  0  0  0  0  0  0  0  0  0  0  0
    3.7133    0.0876    4.6758 H   0  0  0  0  0  0  0  0  0  0  0  0
    5.1410   -0.2106    5.6736 H   0  0  0  0  0  0  0  0  0  0  0  0
    3.8671   -1.4293    5.5738 H   0  0  0  0  0  0  0  0  0  0  0  0
    7.8474   -1.4573    3.4415 H   0  0  0  0  0  0  0  0  0  0  0  0
    8.0806    0.1092    2.6803 H   0  0  0  0  0  0  0  0  0  0  0  0
    7.3473   -1.2100    1.7621 H   0  0  0  0  0  0  0  0  0  0  0  0
    4.5050    1.0832    2.6815 H   0  0  0  0  0  0  0  0  0  0  0  0
    6.1205    1.5782    2.1972 H   0  0  0  0  0  0  0  0  0  0  0  0
    5.2817    0.3000    1.2983 H   0  0  0  0  0  0  0  0  0  0  0  0
    2.3857   -2.0616    0.7062 H   0  0  0  0  0  0  0  0  0  0  0  0
  1  2  1  0  0  0  0 
  2  3  1  0  0  0  0 
  3  4  2  0  0  0  0 
  3  5  1  0  0  0  0 
  5  6  2  0  0  0  0 
  6  7  1  0  0  0  0 
  7  8  2  0  0  0  0 
  8  9  1  0  0  0  0 
  9 10  1  0  0  0  0 
 10 11  2  0  0  0  0 
 11 12  1  0  0  0  0 
 12 13  2  0  0  0  0 
 13 14  1  0  0  0  0 
 14 15  2  0  0  0  0 
 10 15  1  0  0  0  0 
 15 16  1  0  0  0  0 
 16 17  1  0  0  0  0 
 18 17  1  0  0  0  0 
 18 19  1  0  0  0  0 
 18 20  1  0  0  0  0 
 20 21  1  0  0  0  0 
 20 22  1  0  0  0  0 
 16 23  1  0  0  0  0 
  8 23  1  0  0  0  0 
 23 24  2  0  0  0  0 
  5 24  1  0  0  0  0 
 25  1  1  0  0  0  0 
 26  1  1  0  0  0  0 
 27  1  1  0  0  0  0 
 28  2  1  0  0  0  0 
 29  2  1  0  0  0  0 
 30  6  1  0  0  0  0 
 31  7  1  0  0  0  0 
 32 11  1  0  0  0  0 
 33 12  1  0  0  0  0 
 34 13  1  0  0  0  0 
 35 14  1  0  0  0  0 
 36 17  1  0  0  0  0 
 37 17  1  0  0  0  0 
 38 18  1  0  0  0  0 
 39 19  1  0  0  0  0 
 40 19  1  0  0  0  0 
 41 19  1  0  0  0  0 
 42 21  1  0  0  0  0 
 43 21  1  0  0  0  0 
 44 21  1  0  0  0  0 
 45 22  1  0  0  0  0 
 46 22  1  0  0  0  0 
 47 22  1  0  0  0  0 
 48 24  1  0  0  0  0 
M  END
> <cdk:Title>
propiomazine

> <Conformer>
1

> <SuperDrugID>
SD002063

$$$$
