hydroxytetracaine
  CDK     0628171801

 44 44  0  0  0  0  0  0  0  0999 V2000
   -0.9187   -2.2473   -0.5488 C   0  0  0  0  0  0  0  0  0  0  0  0
    0.1207   -1.3851   -0.3344 O   0  0  0  0  0  0  0  0  0  0  0  0
   -2.0471   -1.9556   -0.0852 O   0  0  0  0  0  0  0  0  0  0  0  0
   -0.7007   -3.4307   -1.3103 C   0  0  0  0  0  0  0  0  0  0  0  0
    0.0689   -0.1242    0.3359 C   0  0  2  0  0  0  0  0  0  0  0  0
   -1.7656   -4.1995   -1.8549 C   0  0  0  0  0  0  0  0  0  0  0  0
    0.6249   -3.8548   -1.5780 C   0  0  0  0  0  0  0  0  0  0  0  0
    1.4817    0.5044    0.3883 C   0  0  1  0  0  0  0  0  0  0  0  0
   -3.0733   -3.9147   -1.6223 O   0  0  0  0  0  0  0  0  0  0  0  0
   -1.5013   -5.3006   -2.6928 C   0  0  0  0  0  0  0  0  0  0  0  0
    0.8816   -4.9755   -2.3854 C   0  0  0  0  0  0  0  0  0  0  0  0
    2.5673   -0.3907    0.9116 N   0  0  2  0  0  0  0  0  0  0  0  0
   -0.1744   -5.7021   -2.9679 C   0  0  0  0  0  0  0  0  0  0  0  0
    2.3358   -0.9244    2.2873 C   0  0  0  0  0  0  0  0  0  0  0  0
    3.9161    0.2347    0.7823 C   0  0  0  0  0  0  0  0  0  0  0  0
    0.1772   -6.7590   -3.7563 N   0  0  0  0  0  0  0  0  0  0  0  0
   -0.6340   -7.4290   -4.7222 C   0  0  2  0  0  0  0  0  0  0  0  0
    0.0332   -8.7610   -5.1510 C   0  0  1  0  0  0  0  0  0  0  0  0
   -0.6530   -9.3921   -6.3925 C   0  0  1  0  0  0  0  0  0  0  0  0
   -0.1355  -10.8130   -6.7067 C   0  0  0  0  0  0  0  0  0  0  0  0
   -0.3234   -0.2530    1.3465 H   0  0  0  0  0  0  0  0  0  0  0  0
   -0.6063    0.5387   -0.2118 H   0  0  0  0  0  0  0  0  0  0  0  0
    1.4272   -3.3500   -1.1898 H   0  0  0  0  0  0  0  0  0  0  0  0
    1.7313    0.7995   -0.6361 H   0  0  0  0  0  0  0  0  0  0  0  0
    1.4291    1.4170    0.9869 H   0  0  0  0  0  0  0  0  0  0  0  0
   -3.1423   -3.8085   -0.6503 H   0  0  0  0  0  0  0  0  0  0  0  0
   -2.2924   -5.8091   -3.0913 H   0  0  0  0  0  0  0  0  0  0  0  0
    1.8538   -5.2487   -2.5561 H   0  0  0  0  0  0  0  0  0  0  0  0
    1.4512   -1.5619    2.3084 H   0  0  0  0  0  0  0  0  0  0  0  0
    3.1739   -1.5462    2.6090 H   0  0  0  0  0  0  0  0  0  0  0  0
    2.2079   -0.1148    3.0099 H   0  0  0  0  0  0  0  0  0  0  0  0
    4.1088    0.5181   -0.2533 H   0  0  0  0  0  0  0  0  0  0  0  0
    4.6971   -0.4694    1.0720 H   0  0  0  0  0  0  0  0  0  0  0  0
    4.0006    1.1243    1.4107 H   0  0  0  0  0  0  0  0  0  0  0  0
    1.1057   -7.0389   -3.7042 H   0  0  0  0  0  0  0  0  0  0  0  0
   -0.7456   -6.7679   -5.5855 H   0  0  0  0  0  0  0  0  0  0  0  0
   -1.6255   -7.6566   -4.3245 H   0  0  0  0  0  0  0  0  0  0  0  0
    1.0892   -8.5876   -5.3822 H   0  0  0  0  0  0  0  0  0  0  0  0
   -0.0162   -9.4588   -4.3085 H   0  0  0  0  0  0  0  0  0  0  0  0
   -1.7336   -9.4476   -6.2321 H   0  0  0  0  0  0  0  0  0  0  0  0
   -0.4719   -8.7523   -7.2608 H   0  0  0  0  0  0  0  0  0  0  0  0
    0.9503  -10.8120   -6.8267 H   0  0  0  0  0  0  0  0  0  0  0  0
   -0.4046  -11.4958   -5.8979 H   0  0  0  0  0  0  0  0  0  0  0  0
   -0.5898  -11.1714   -7.6330 H   0  0  0  0  0  0  0  0  0  0  0  0
  1  2  1  0  0  0  0 
  1  3  2  0  0  0  0 
  1  4  1  0  0  0  0 
  2  5  1  0  0  0  0 
  4  6  2  0  0  0  0 
  4  7  1  0  0  0  0 
  5  8  1  0  0  0  0 
  6  9  1  0  0  0  0 
  6 10  1  0  0  0  0 
  7 11  2  0  0  0  0 
  8 12  1  0  0  0  0 
 10 13  2  0  0  0  0 
 11 13  1  0  0  0  0 
 12 14  1  0  0  0  0 
 12 15  1  0  0  0  0 
 13 16  1  0  0  0  0 
 16 17  1  0  0  0  0 
 17 18  1  0  0  0  0 
 18 19  1  0  0  0  0 
 19 20  1  0  0  0  0 
  5 21  1  0  0  0  0 
  5 22  1  0  0  0  0 
  7 23  1  0  0  0  0 
  8 24  1  0  0  0  0 
  8 25  1  0  0  0  0 
  9 26  1  0  0  0  0 
 10 27  1  0  0  0  0 
 11 28  1  0  0  0  0 
 14 29  1  0  0  0  0 
 14 30  1  0  0  0  0 
 14 31  1  0  0  0  0 
 15 32  1  0  0  0  0 
 15 33  1  0  0  0  0 
 15 34  1  0  0  0  0 
 16 35  1  0  0  0  0 
 17 36  1  0  0  0  0 
 17 37  1  0  0  0  0 
 18 38  1  0  0  0  0 
 18 39  1  0  0  0  0 
 19 40  1  0  0  0  0 
 19 41  1  0  0  0  0 
 20 42  1  0  0  0  0 
 20 43  1  0  0  0  0 
 20 44  1  0  0  0  0 
M  END
> <cdk:Title>
hydroxytetracaine

> <Conformer>
1

> <SuperDrugID>
SD002842

$$$$
