oxysonium
  CDK     0628171801

 49 50  0  0  0  0  0  0  0  0999 V2000
   -5.9063    0.9228    1.0018 C   0  0  2  0  0  0  0  0  0  0  0  0
   -5.7333   -0.3654    0.2698 C   0  0  0  0  0  0  0  0  0  0  0  0
   -5.2345    0.7577    2.2624 O   0  0  0  0  0  0  0  0  0  0  0  0
   -7.4256    1.2065    1.3496 C   0  0  2  0  0  0  0  0  0  0  0  0
   -5.2518    2.0212    0.1942 C   0  0  0  0  0  0  0  0  0  0  0  0
   -5.0281   -1.3751    0.8610 O   0  0  0  0  0  0  0  0  0  0  0  0
   -6.2549   -0.5465   -0.8569 O   0  0  0  0  0  0  0  0  0  0  0  0
   -7.6120    2.5521    2.1317 C   0  0  1  0  0  0  0  0  0  0  0  0
   -8.1165    0.0262    2.1185 C   0  0  2  0  0  0  0  0  0  0  0  0
   -4.0329    2.6307    0.5985 C   0  0  0  0  0  0  0  0  0  0  0  0
   -5.8402    2.4931   -1.0104 C   0  0  0  0  0  0  0  0  0  0  0  0
   -4.8183   -2.7040    0.3787 C   0  0  2  0  0  0  0  0  0  0  0  0
   -9.0861    2.8328    2.5218 C   0  0  2  0  0  0  0  0  0  0  0  0
   -9.5825    0.3333    2.5275 C   0  0  2  0  0  0  0  0  0  0  0  0
   -3.4561    3.6823   -0.1365 C   0  0  0  0  0  0  0  0  0  0  0  0
   -5.2701    3.5490   -1.7432 C   0  0  0  0  0  0  0  0  0  0  0  0
   -4.1277   -3.5226    1.4923 C   0  0  2  0  0  0  0  0  0  0  0  0
   -9.6929    1.6561    3.3239 C   0  0  2  0  0  0  0  0  0  0  0  0
   -4.0794    4.1498   -1.3047 C   0  0  0  0  0  0  0  0  0  0  0  0
   -4.3583   -5.3301    1.3052 S   0  0  1  0  0  0  0  0  0  0  0  0
   -3.4714   -6.0670    2.7249 C   0  0  0  0  0  0  0  0  0  0  0  0
   -6.1344   -5.6446    1.6212 C   0  0  0  0  0  0  0  0  0  0  0  0
   -5.2780    1.6295    2.7020 H   0  0  0  0  0  0  0  0  0  0  0  0
   -7.9782    1.3111    0.4120 H   0  0  0  0  0  0  0  0  0  0  0  0
   -7.0197    2.5337    3.0492 H   0  0  0  0  0  0  0  0  0  0  0  0
   -7.2581    3.3908    1.5246 H   0  0  0  0  0  0  0  0  0  0  0  0
   -7.5453   -0.2125    3.0190 H   0  0  0  0  0  0  0  0  0  0  0  0
   -8.1300   -0.8681    1.4884 H   0  0  0  0  0  0  0  0  0  0  0  0
   -3.5386    2.3204    1.4362 H   0  0  0  0  0  0  0  0  0  0  0  0
   -6.7003    2.0768   -1.3710 H   0  0  0  0  0  0  0  0  0  0  0  0
   -4.1996   -2.6878   -0.5222 H   0  0  0  0  0  0  0  0  0  0  0  0
   -5.7902   -3.1359    0.1360 H   0  0  0  0  0  0  0  0  0  0  0  0
   -9.6755    3.0001    1.6151 H   0  0  0  0  0  0  0  0  0  0  0  0
   -9.1321    3.7422    3.1288 H   0  0  0  0  0  0  0  0  0  0  0  0
   -9.9692   -0.4850    3.1407 H   0  0  0  0  0  0  0  0  0  0  0  0
  -10.2019    0.4009    1.6288 H   0  0  0  0  0  0  0  0  0  0  0  0
   -2.5829    4.1088    0.1802 H   0  0  0  0  0  0  0  0  0  0  0  0
   -5.7235    3.8815   -2.5964 H   0  0  0  0  0  0  0  0  0  0  0  0
   -4.5340   -3.2391    2.4650 H   0  0  0  0  0  0  0  0  0  0  0  0
   -3.0575   -3.3051    1.4944 H   0  0  0  0  0  0  0  0  0  0  0  0
  -10.7433    1.8672    3.5429 H   0  0  0  0  0  0  0  0  0  0  0  0
   -9.1654    1.5559    4.2770 H   0  0  0  0  0  0  0  0  0  0  0  0
   -3.6706    4.9270   -1.8316 H   0  0  0  0  0  0  0  0  0  0  0  0
   -3.5190   -7.1541    2.6571 H   0  0  0  0  0  0  0  0  0  0  0  0
   -2.4279   -5.7513    2.7055 H   0  0  0  0  0  0  0  0  0  0  0  0
   -3.9294   -5.7422    3.6608 H   0  0  0  0  0  0  0  0  0  0  0  0
   -6.7182   -5.3629    0.7447 H   0  0  0  0  0  0  0  0  0  0  0  0
   -6.2896   -6.7038    1.8231 H   0  0  0  0  0  0  0  0  0  0  0  0
   -6.4716   -5.0627    2.4806 H   0  0  0  0  0  0  0  0  0  0  0  0
  1  2  1  0  0  0  0 
  1  3  1  0  0  0  0 
  1  4  1  0  0  0  0 
  1  5  1  0  0  0  0 
  2  6  1  0  0  0  0 
  2  7  2  0  0  0  0 
  4  8  1  0  0  0  0 
  4  9  1  0  0  0  0 
  5 10  2  0  0  0  0 
  5 11  1  0  0  0  0 
  6 12  1  0  0  0  0 
  8 13  1  0  0  0  0 
  9 14  1  0  0  0  0 
 10 15  1  0  0  0  0 
 11 16  2  0  0  0  0 
 12 17  1  0  0  0  0 
 13 18  1  0  0  0  0 
 14 18  1  0  0  0  0 
 15 19  2  0  0  0  0 
 16 19  1  0  0  0  0 
 17 20  1  0  0  0  0 
 20 21  1  0  0  0  0 
 20 22  1  0  0  0  0 
  3 23  1  0  0  0  0 
  4 24  1  0  0  0  0 
  8 25  1  0  0  0  0 
  8 26  1  0  0  0  0 
  9 27  1  0  0  0  0 
  9 28  1  0  0  0  0 
 10 29  1  0  0  0  0 
 11 30  1  0  0  0  0 
 12 31  1  0  0  0  0 
 12 32  1  0  0  0  0 
 13 33  1  0  0  0  0 
 13 34  1  0  0  0  0 
 14 35  1  0  0  0  0 
 14 36  1  0  0  0  0 
 15 37  1  0  0  0  0 
 16 38  1  0  0  0  0 
 17 39  1  0  0  0  0 
 17 40  1  0  0  0  0 
 18 41  1  0  0  0  0 
 18 42  1  0  0  0  0 
 19 43  1  0  0  0  0 
 21 44  1  0  0  0  0 
 21 45  1  0  0  0  0 
 21 46  1  0  0  0  0 
 22 47  1  0  0  0  0 
 22 48  1  0  0  0  0 
 22 49  1  0  0  0  0 
M  CHG  1  20   1
M  END
> <cdk:Title>
oxysonium

> <Conformer>
1

> <SuperDrugID>
SD001827

$$$$
