aprepitant
  CDK     0628171801

 58 61  0  0  0  0  0  0  0  0999 V2000
   -1.5445   -3.7595   -2.6062 C   0  0  0  0  0  0  0  0  0  0  0  0
   -0.7269   -2.9676   -1.5584 C   0  0  1  0  0  0  0  0  0  0  0  0
   -1.3385   -3.2415   -0.2752 O   0  0  0  0  0  0  0  0  0  0  0  0
   -0.8974   -2.4708    0.8673 C   0  0  1  0  0  0  0  0  0  0  0  0
   -1.0705   -1.0545    0.6582 O   0  0  0  0  0  0  0  0  0  0  0  0
   -2.4455   -0.6503    0.5643 C   0  0  2  0  0  0  0  0  0  0  0  0
   -3.1959   -1.0087    1.8644 C   0  0  2  0  0  0  0  0  0  0  0  0
   -3.0559   -2.4617    2.2273 N   0  0  2  0  0  0  0  0  0  0  0  0
   -3.7462   -2.7861    3.5262 C   0  0  2  0  0  0  0  0  0  0  0  0
   -5.1829   -2.4597    3.5345 C   0  0  0  0  0  0  0  0  0  0  0  0
   -6.1118   -2.9801    2.7123 N   0  0  0  0  0  0  0  0  0  0  0  0
   -7.2397   -2.4185    3.0100 N   0  0  0  0  0  0  0  0  0  0  0  0
   -7.0701   -1.5468    4.0141 C   0  0  0  0  0  0  0  0  0  0  0  0
   -7.9535   -0.8340    4.5371 O   0  0  0  0  0  0  0  0  0  0  0  0
   -5.7771   -1.5749    4.3465 N   0  0  0  0  0  0  0  0  0  0  0  0
   -1.6174   -2.9238    2.1818 C   0  0  1  0  0  0  0  0  0  0  0  0
   -1.4408   -4.4006    2.3861 C   0  0  0  0  0  0  0  0  0  0  0  0
   -2.2835   -5.3344    1.7327 C   0  0  0  0  0  0  0  0  0  0  0  0
   -2.1301   -6.7182    1.9433 C   0  0  0  0  0  0  0  0  0  0  0  0
   -1.1252   -7.1944    2.8052 C   0  0  0  0  0  0  0  0  0  0  0  0
   -0.9813   -8.4785    2.9960 F   0  0  0  0  0  0  0  0  0  0  0  0
   -0.2796   -6.2815    3.4602 C   0  0  0  0  0  0  0  0  0  0  0  0
   -0.4337   -4.8986    3.2491 C   0  0  0  0  0  0  0  0  0  0  0  0
    0.7255   -3.3213   -1.6331 C   0  0  0  0  0  0  0  0  0  0  0  0
    1.2169   -4.4890   -1.0095 C   0  0  0  0  0  0  0  0  0  0  0  0
    2.5830   -4.8475   -1.0722 C   0  0  0  0  0  0  0  0  0  0  0  0
    3.4669   -3.9894   -1.7681 C   0  0  0  0  0  0  0  0  0  0  0  0
    3.0175   -2.8067   -2.4016 C   0  0  0  0  0  0  0  0  0  0  0  0
    1.6382   -2.4989   -2.3338 C   0  0  0  0  0  0  0  0  0  0  0  0
    3.9500   -1.9079   -3.1448 C   0  0  2  0  0  0  0  0  0  0  0  0
    3.7275   -2.0361   -4.4943 F   0  0  0  0  0  0  0  0  0  0  0  0
    5.2832   -2.1670   -2.9241 F   0  0  0  0  0  0  0  0  0  0  0  0
    3.7616   -0.5945   -2.7879 F   0  0  0  0  0  0  0  0  0  0  0  0
    3.0474   -6.0989   -0.4048 C   0  0  1  0  0  0  0  0  0  0  0  0
    4.3773   -6.3948   -0.6068 F   0  0  0  0  0  0  0  0  0  0  0  0
    2.8628   -5.9924    0.9523 F   0  0  0  0  0  0  0  0  0  0  0  0
    2.3335   -7.1805   -0.8659 F   0  0  0  0  0  0  0  0  0  0  0  0
   -1.1984   -3.5407   -3.6182 H   0  0  0  0  0  0  0  0  0  0  0  0
   -1.4640   -4.8346   -2.4306 H   0  0  0  0  0  0  0  0  0  0  0  0
   -2.5982   -3.4795   -2.5407 H   0  0  0  0  0  0  0  0  0  0  0  0
   -0.8698   -1.9086   -1.7984 H   0  0  0  0  0  0  0  0  0  0  0  0
    0.1741   -2.6307    1.0124 H   0  0  0  0  0  0  0  0  0  0  0  0
   -2.9345   -1.1154   -0.2962 H   0  0  0  0  0  0  0  0  0  0  0  0
   -2.4695    0.4318    0.4171 H   0  0  0  0  0  0  0  0  0  0  0  0
   -4.2473   -0.7528    1.7086 H   0  0  0  0  0  0  0  0  0  0  0  0
   -2.8065   -0.3820    2.6731 H   0  0  0  0  0  0  0  0  0  0  0  0
   -3.2548   -2.2613    4.3492 H   0  0  0  0  0  0  0  0  0  0  0  0
   -3.6850   -3.8536    3.7411 H   0  0  0  0  0  0  0  0  0  0  0  0
   -8.0830   -2.5990    2.5661 H   0  0  0  0  0  0  0  0  0  0  0  0
   -5.3485   -1.0490    5.0409 H   0  0  0  0  0  0  0  0  0  0  0  0
   -1.1015   -2.3995    2.9946 H   0  0  0  0  0  0  0  0  0  0  0  0
   -3.0255   -5.0129    1.1029 H   0  0  0  0  0  0  0  0  0  0  0  0
   -2.7550   -7.3764    1.4703 H   0  0  0  0  0  0  0  0  0  0  0  0
    0.4477   -6.6212    4.0932 H   0  0  0  0  0  0  0  0  0  0  0  0
    0.2005   -4.2566    3.7313 H   0  0  0  0  0  0  0  0  0  0  0  0
    0.5686   -5.0899   -0.4937 H   0  0  0  0  0  0  0  0  0  0  0  0
    4.4582   -4.2331   -1.8179 H   0  0  0  0  0  0  0  0  0  0  0  0
    1.2939   -1.6564   -2.8011 H   0  0  0  0  0  0  0  0  0  0  0  0
  2  1  1  0  0  0  0 
  2  3  1  0  0  0  0 
  4  3  1  0  0  0  0 
  4  5  1  0  0  0  0 
  5  6  1  0  0  0  0 
  6  7  1  0  0  0  0 
  7  8  1  0  0  0  0 
  8  9  1  0  0  0  0 
  9 10  1  0  0  0  0 
 10 11  2  0  0  0  0 
 11 12  1  0  0  0  0 
 12 13  1  0  0  0  0 
 13 14  2  0  0  0  0 
 13 15  1  0  0  0  0 
 10 15  1  0  0  0  0 
 16  8  1  0  0  0  0 
  4 16  1  0  0  0  0 
 16 17  1  0  0  0  0 
 17 18  2  0  0  0  0 
 18 19  1  0  0  0  0 
 19 20  2  0  0  0  0 
 20 21  1  0  0  0  0 
 20 22  1  0  0  0  0 
 22 23  2  0  0  0  0 
 17 23  1  0  0  0  0 
  2 24  1  0  0  0  0 
 24 25  2  0  0  0  0 
 25 26  1  0  0  0  0 
 26 27  2  0  0  0  0 
 27 28  1  0  0  0  0 
 28 29  2  0  0  0  0 
 24 29  1  0  0  0  0 
 28 30  1  0  0  0  0 
 30 31  1  0  0  0  0 
 30 32  1  0  0  0  0 
 30 33  1  0  0  0  0 
 26 34  1  0  0  0  0 
 34 35  1  0  0  0  0 
 34 36  1  0  0  0  0 
 34 37  1  0  0  0  0 
 38  1  1  0  0  0  0 
 39  1  1  0  0  0  0 
 40  1  1  0  0  0  0 
  2 41  1  0  0  0  0 
  4 42  1  0  0  0  0 
 43  6  1  0  0  0  0 
 44  6  1  0  0  0  0 
 45  7  1  0  0  0  0 
 46  7  1  0  0  0  0 
 47  9  1  0  0  0  0 
 48  9  1  0  0  0  0 
 49 12  1  0  0  0  0 
 50 15  1  0  0  0  0 
 16 51  1  0  0  0  0 
 52 18  1  0  0  0  0 
 53 19  1  0  0  0  0 
 54 22  1  0  0  0  0 
 55 23  1  0  0  0  0 
 56 25  1  0  0  0  0 
 57 27  1  0  0  0  0 
 58 29  1  0  0  0  0 
M  END
> <cdk:Title>
aprepitant

> <Conformer>
1

> <SuperDrugID>
SD000192

$$$$
