rescimetol
  CDK     0628171801

 81 86  0  0  0  0  0  0  0  0999 V2000
   -1.7602    0.7645    2.8131 C   0  0  0  0  0  0  0  0  0  0  0  0
   -0.4800    1.0843    2.4448 O   0  0  0  0  0  0  0  0  0  0  0  0
   -2.2324    1.2183    3.8826 O   0  0  0  0  0  0  0  0  0  0  0  0
   -2.6266   -0.1018    1.9616 C   0  0  1  0  0  0  0  0  0  0  0  0
    0.4211    1.9560    3.1373 C   0  0  0  0  0  0  0  0  0  0  0  0
   -3.8713    0.6930    1.4194 C   0  0  1  0  0  0  0  0  0  0  0  0
   -1.8515   -0.8377    0.8118 C   0  0  1  0  0  0  0  0  0  0  0  0
   -3.5176    1.9846    0.6078 C   0  0  1  0  0  0  0  0  0  0  0  0
   -4.7912   -0.2576    0.5909 C   0  0  1  0  0  0  0  0  0  0  0  0
   -0.6824   -1.5604    1.2759 O   0  0  0  0  0  0  0  0  0  0  0  0
   -2.7598   -1.6769   -0.1617 C   0  0  1  0  0  0  0  0  0  0  0  0
   -4.7363    2.6675   -0.0933 C   0  0  2  0  0  0  0  0  0  0  0  0
   -6.0611    0.5092    0.1407 C   0  0  1  0  0  0  0  0  0  0  0  0
   -4.0271   -0.9001   -0.6062 C   0  0  2  0  0  0  0  0  0  0  0  0
   -0.8470   -2.7063    2.1294 C   0  0  0  0  0  0  0  0  0  0  0  0
   -2.0395   -1.9897   -1.3704 O   0  0  0  0  0  0  0  0  0  0  0  0
   -5.4157    3.7113    0.7150 C   0  0  0  0  0  0  0  0  0  0  0  0
   -5.7158    1.6932   -0.7042 N   0  0  1  0  0  0  0  0  0  0  0  0
   -0.9323   -2.7813   -1.4520 C   0  0  0  0  0  0  0  0  0  0  0  0
   -6.7772    3.9875    0.5831 C   0  0  0  0  0  0  0  0  0  0  0  0
   -4.8681    4.6099    1.5596 N   0  0  0  0  0  0  0  0  0  0  0  0
   -6.9182    2.3607   -1.3069 C   0  0  1  0  0  0  0  0  0  0  0  0
    0.3216   -2.2274   -1.6618 C   0  0  0  0  0  0  0  0  0  0  0  0
   -1.0549   -4.0087   -1.2364 O   0  0  0  0  0  0  0  0  0  0  0  0
   -7.0328    5.0886    1.3920 C   0  0  0  0  0  0  0  0  0  0  0  0
   -7.7062    3.2563   -0.3044 C   0  0  2  0  0  0  0  0  0  0  0  0
   -5.8205    5.4633    1.9700 C   0  0  0  0  0  0  0  0  0  0  0  0
    0.5158   -0.9108   -1.8791 C   0  0  0  0  0  0  0  0  0  0  0  0
   -8.2133    5.8096    1.6369 C   0  0  0  0  0  0  0  0  0  0  0  0
   -5.7346    6.5956    2.7995 C   0  0  0  0  0  0  0  0  0  0  0  0
    1.7321   -0.2099   -1.8762 C   0  0  0  0  0  0  0  0  0  0  0  0
   -8.1388    6.9495    2.4637 C   0  0  0  0  0  0  0  0  0  0  0  0
   -6.9048    7.3566    3.0309 C   0  0  0  0  0  0  0  0  0  0  0  0
    2.9986   -0.7841   -1.5819 C   0  0  0  0  0  0  0  0  0  0  0  0
    1.6946    1.1884   -2.1174 C   0  0  0  0  0  0  0  0  0  0  0  0
   -6.8433    8.4715    3.8241 O   0  0  0  0  0  0  0  0  0  0  0  0
    4.1667    0.0057   -1.5016 C   0  0  0  0  0  0  0  0  0  0  0  0
    2.8479    1.9836   -2.0277 C   0  0  0  0  0  0  0  0  0  0  0  0
   -6.7189    9.6905    3.0677 C   0  0  0  0  0  0  0  0  0  0  0  0
    5.3592   -0.5881   -1.1802 O   0  0  0  0  0  0  0  0  0  0  0  0
    4.0834    1.3994   -1.7091 C   0  0  0  0  0  0  0  0  0  0  0  0
    6.1442   -0.9288   -2.3375 C   0  0  0  0  0  0  0  0  0  0  0  0
    5.1721    2.2031   -1.6153 O   0  0  0  0  0  0  0  0  0  0  0  0
   -4.3117    3.2328   -0.9289 H   0  0  0  0  0  0  0  0  0  0  0  0
   -4.4501    1.0164    2.2936 H   0  0  0  0  0  0  0  0  0  0  0  0
   -5.1239   -1.0715    1.2438 H   0  0  0  0  0  0  0  0  0  0  0  0
   -3.0142   -0.8806    2.6250 H   0  0  0  0  0  0  0  0  0  0  0  0
    0.5759    1.6099    4.1593 H   0  0  0  0  0  0  0  0  0  0  0  0
    1.3792    1.9614    2.6171 H   0  0  0  0  0  0  0  0  0  0  0  0
    0.0314    2.9740    3.1545 H   0  0  0  0  0  0  0  0  0  0  0  0
   -1.4163   -0.0491    0.1957 H   0  0  0  0  0  0  0  0  0  0  0  0
   -3.0177    2.6991    1.2656 H   0  0  0  0  0  0  0  0  0  0  0  0
   -2.7926    1.7394   -0.1695 H   0  0  0  0  0  0  0  0  0  0  0  0
   -3.0921   -2.6019    0.3159 H   0  0  0  0  0  0  0  0  0  0  0  0
   -6.6974   -0.1809   -0.4214 H   0  0  0  0  0  0  0  0  0  0  0  0
   -6.6236    0.8215    1.0241 H   0  0  0  0  0  0  0  0  0  0  0  0
   -3.7342   -0.1298   -1.3247 H   0  0  0  0  0  0  0  0  0  0  0  0
   -4.6902   -1.5936   -1.1319 H   0  0  0  0  0  0  0  0  0  0  0  0
    0.1427   -3.1240    2.3134 H   0  0  0  0  0  0  0  0  0  0  0  0
   -1.4513   -3.4811    1.6616 H   0  0  0  0  0  0  0  0  0  0  0  0
   -1.2815   -2.4336    3.0899 H   0  0  0  0  0  0  0  0  0  0  0  0
   -3.9316    4.6507    1.8123 H   0  0  0  0  0  0  0  0  0  0  0  0
   -6.5733    2.9790   -2.1399 H   0  0  0  0  0  0  0  0  0  0  0  0
   -7.5976    1.6204   -1.7368 H   0  0  0  0  0  0  0  0  0  0  0  0
    1.1016   -2.8340   -1.5814 H   0  0  0  0  0  0  0  0  0  0  0  0
   -8.2577    4.0325   -0.9269 H   0  0  0  0  0  0  0  0  0  0  0  0
   -8.3282    2.5827    0.3650 H   0  0  0  0  0  0  0  0  0  0  0  0
   -0.3031   -0.3586   -2.0208 H   0  0  0  0  0  0  0  0  0  0  0  0
   -9.1016    5.5237    1.2208 H   0  0  0  0  0  0  0  0  0  0  0  0
   -4.8409    6.8705    3.2125 H   0  0  0  0  0  0  0  0  0  0  0  0
   -8.9868    7.4899    2.6481 H   0  0  0  0  0  0  0  0  0  0  0  0
    3.0938   -1.7852   -1.4012 H   0  0  0  0  0  0  0  0  0  0  0  0
    0.8135    1.6564   -2.3490 H   0  0  0  0  0  0  0  0  0  0  0  0
    2.7809    2.9907   -2.1897 H   0  0  0  0  0  0  0  0  0  0  0  0
   -6.6587   10.5208    3.7708 H   0  0  0  0  0  0  0  0  0  0  0  0
   -5.8112    9.6958    2.4583 H   0  0  0  0  0  0  0  0  0  0  0  0
   -7.5881    9.8559    2.4255 H   0  0  0  0  0  0  0  0  0  0  0  0
    7.0463   -1.4367   -1.9968 H   0  0  0  0  0  0  0  0  0  0  0  0
    5.6044   -1.6055   -3.0061 H   0  0  0  0  0  0  0  0  0  0  0  0
    6.4484   -0.0353   -2.8900 H   0  0  0  0  0  0  0  0  0  0  0  0
    5.9269    1.6118   -1.4185 H   0  0  0  0  0  0  0  0  0  0  0  0
  1  2  1  0  0  0  0 
  1  3  2  0  0  0  0 
  2  5  1  0  0  0  0 
  4  1  1  0  0  0  0 
  4  6  1  0  0  0  0 
  7  4  1  0  0  0  0 
  6  8  1  0  0  0  0 
  6  9  1  0  0  0  0 
  6 45  1  0  0  0  0 
  7 10  1  0  0  0  0 
 11  7  1  0  0  0  0 
 12  8  1  0  0  0  0 
  9 13  1  0  0  0  0 
  9 14  1  0  0  0  0 
  9 46  1  0  0  0  0 
 10 15  1  0  0  0  0 
 11 14  1  0  0  0  0 
 11 16  1  0  0  0  0 
 12 17  1  0  0  0  0 
 12 18  1  0  0  0  0 
 12 44  1  0  0  0  0 
 13 18  1  0  0  0  0 
 16 19  1  0  0  0  0 
 17 20  2  0  0  0  0 
 17 21  1  0  0  0  0 
 18 22  1  0  0  0  0 
 19 23  1  0  0  0  0 
 19 24  2  0  0  0  0 
 20 25  1  0  0  0  0 
 20 26  1  0  0  0  0 
 21 27  1  0  0  0  0 
 22 26  1  0  0  0  0 
 23 28  2  0  0  0  0 
 25 27  1  0  0  0  0 
 25 29  2  0  0  0  0 
 27 30  2  0  0  0  0 
 28 31  1  0  0  0  0 
 29 32  1  0  0  0  0 
 30 33  1  0  0  0  0 
 31 34  2  0  0  0  0 
 31 35  1  0  0  0  0 
 32 33  2  0  0  0  0 
 33 36  1  0  0  0  0 
 34 37  1  0  0  0  0 
 35 38  2  0  0  0  0 
 36 39  1  0  0  0  0 
 37 40  1  0  0  0  0 
 37 41  2  0  0  0  0 
 38 41  1  0  0  0  0 
 40 42  1  0  0  0  0 
 41 43  1  0  0  0  0 
  4 47  1  0  0  0  0 
  5 48  1  0  0  0  0 
  5 49  1  0  0  0  0 
  5 50  1  0  0  0  0 
  7 51  1  0  0  0  0 
  8 52  1  0  0  0  0 
  8 53  1  0  0  0  0 
 11 54  1  0  0  0  0 
 13 55  1  0  0  0  0 
 13 56  1  0  0  0  0 
 14 57  1  0  0  0  0 
 14 58  1  0  0  0  0 
 15 59  1  0  0  0  0 
 15 60  1  0  0  0  0 
 15 61  1  0  0  0  0 
 21 62  1  0  0  0  0 
 22 63  1  0  0  0  0 
 22 64  1  0  0  0  0 
 23 65  1  0  0  0  0 
 26 66  1  0  0  0  0 
 26 67  1  0  0  0  0 
 28 68  1  0  0  0  0 
 29 69  1  0  0  0  0 
 30 70  1  0  0  0  0 
 32 71  1  0  0  0  0 
 34 72  1  0  0  0  0 
 35 73  1  0  0  0  0 
 38 74  1  0  0  0  0 
 39 75  1  0  0  0  0 
 39 76  1  0  0  0  0 
 39 77  1  0  0  0  0 
 42 78  1  0  0  0  0 
 42 79  1  0  0  0  0 
 42 80  1  0  0  0  0 
 43 81  1  0  0  0  0 
M  END
> <cdk:Title>
rescimetol

> <Conformer>
1

> <SuperDrugID>
SD003264

$$$$
