trimetrexate
  CDK     0628171801

 50 52  0  0  0  0  0  0  0  0999 V2000
    5.2695    4.6968    3.0037 C   0  0  0  0  0  0  0  0  0  0  0  0
    5.4023    4.2355    4.4188 C   0  0  0  0  0  0  0  0  0  0  0  0
    6.1150    5.0361    5.3797 C   0  0  0  0  0  0  0  0  0  0  0  0
    4.8179    2.9915    4.8328 C   0  0  0  0  0  0  0  0  0  0  0  0
    6.1067    4.6299    6.7501 C   0  0  0  0  0  0  0  0  0  0  0  0
    6.8712    6.2250    5.1261 C   0  0  0  0  0  0  0  0  0  0  0  0
    4.2484    1.9743    3.8914 C   0  0  2  0  0  0  0  0  0  0  0  0
    4.8314    2.6461    6.2047 C   0  0  0  0  0  0  0  0  0  0  0  0
    5.4550    3.4581    7.1547 C   0  0  0  0  0  0  0  0  0  0  0  0
    6.7427    5.3483    7.7118 N   0  0  0  0  0  0  0  0  0  0  0  0
    7.0981    6.8213    3.9386 N   0  0  0  0  0  0  0  0  0  0  0  0
    7.4867    6.8881    6.1360 N   0  0  0  0  0  0  0  0  0  0  0  0
    2.9677    2.3208    3.3543 N   0  0  0  0  0  0  0  0  0  0  0  0
    7.4303    6.4718    7.4176 C   0  0  0  0  0  0  0  0  0  0  0  0
    2.2810    1.5989    2.4131 C   0  0  0  0  0  0  0  0  0  0  0  0
    8.0605    7.1651    8.3780 N   0  0  0  0  0  0  0  0  0  0  0  0
    2.6436    0.2921    2.0043 C   0  0  0  0  0  0  0  0  0  0  0  0
    1.1525    2.1989    1.8141 C   0  0  0  0  0  0  0  0  0  0  0  0
    1.9076   -0.3971    1.0193 C   0  0  0  0  0  0  0  0  0  0  0  0
    0.4220    1.5318    0.8086 C   0  0  0  0  0  0  0  0  0  0  0  0
    2.2609   -1.6723    0.6607 O   0  0  0  0  0  0  0  0  0  0  0  0
    0.7826    0.2188    0.4294 C   0  0  0  0  0  0  0  0  0  0  0  0
   -0.6436    2.1561    0.2150 O   0  0  0  0  0  0  0  0  0  0  0  0
    3.3271   -1.7183   -0.3049 C   0  0  0  0  0  0  0  0  0  0  0  0
    0.0653   -0.4435   -0.5328 O   0  0  0  0  0  0  0  0  0  0  0  0
   -0.2627    2.8967   -0.9601 C   0  0  0  0  0  0  0  0  0  0  0  0
   -1.0116   -1.2335    0.0061 C   0  0  0  0  0  0  0  0  0  0  0  0
    6.2461    4.6949    2.5211 H   0  0  0  0  0  0  0  0  0  0  0  0
    4.8508    5.7042    2.9928 H   0  0  0  0  0  0  0  0  0  0  0  0
    4.6104    4.0949    2.3825 H   0  0  0  0  0  0  0  0  0  0  0  0
    4.1516    1.0009    4.3826 H   0  0  0  0  0  0  0  0  0  0  0  0
    4.9590    1.8318    3.0737 H   0  0  0  0  0  0  0  0  0  0  0  0
    4.3922    1.7806    6.5331 H   0  0  0  0  0  0  0  0  0  0  0  0
    5.4486    3.1734    8.1395 H   0  0  0  0  0  0  0  0  0  0  0  0
    7.6817    7.5971    3.8974 H   0  0  0  0  0  0  0  0  0  0  0  0
    6.6945    6.4987    3.1253 H   0  0  0  0  0  0  0  0  0  0  0  0
    2.5594    3.1436    3.6665 H   0  0  0  0  0  0  0  0  0  0  0  0
    8.5606    7.9651    8.1507 H   0  0  0  0  0  0  0  0  0  0  0  0
    8.0143    6.8709    9.3008 H   0  0  0  0  0  0  0  0  0  0  0  0
    3.4476   -0.1761    2.4237 H   0  0  0  0  0  0  0  0  0  0  0  0
    0.8563    3.1367    2.0978 H   0  0  0  0  0  0  0  0  0  0  0  0
    3.4971   -2.7597   -0.5824 H   0  0  0  0  0  0  0  0  0  0  0  0
    3.0704   -1.1632   -1.2112 H   0  0  0  0  0  0  0  0  0  0  0  0
    4.2558   -1.3248    0.1160 H   0  0  0  0  0  0  0  0  0  0  0  0
   -1.1522    3.3703   -1.3767 H   0  0  0  0  0  0  0  0  0  0  0  0
    0.4568    3.6836   -0.7185 H   0  0  0  0  0  0  0  0  0  0  0  0
    0.1592    2.2388   -1.7243 H   0  0  0  0  0  0  0  0  0  0  0  0
   -1.5412   -1.6903   -0.8291 H   0  0  0  0  0  0  0  0  0  0  0  0
   -0.6417   -2.0361    0.6498 H   0  0  0  0  0  0  0  0  0  0  0  0
   -1.7252   -0.6208    0.5636 H   0  0  0  0  0  0  0  0  0  0  0  0
  1  2  1  0  0  0  0 
  2  3  2  0  0  0  0 
  2  4  1  0  0  0  0 
  3  5  1  0  0  0  0 
  3  6  1  0  0  0  0 
  4  7  1  0  0  0  0 
  4  8  2  0  0  0  0 
  5  9  2  0  0  0  0 
  5 10  1  0  0  0  0 
  6 11  1  0  0  0  0 
  6 12  2  0  0  0  0 
  7 13  1  0  0  0  0 
  8  9  1  0  0  0  0 
 10 14  2  0  0  0  0 
 12 14  1  0  0  0  0 
 13 15  1  0  0  0  0 
 14 16  1  0  0  0  0 
 15 17  2  0  0  0  0 
 15 18  1  0  0  0  0 
 17 19  1  0  0  0  0 
 18 20  2  0  0  0  0 
 19 21  1  0  0  0  0 
 19 22  2  0  0  0  0 
 20 22  1  0  0  0  0 
 20 23  1  0  0  0  0 
 21 24  1  0  0  0  0 
 22 25  1  0  0  0  0 
 23 26  1  0  0  0  0 
 25 27  1  0  0  0  0 
  1 28  1  0  0  0  0 
  1 29  1  0  0  0  0 
  1 30  1  0  0  0  0 
  7 31  1  0  0  0  0 
  7 32  1  0  0  0  0 
  8 33  1  0  0  0  0 
  9 34  1  0  0  0  0 
 11 35  1  0  0  0  0 
 11 36  1  0  0  0  0 
 13 37  1  0  0  0  0 
 16 38  1  0  0  0  0 
 16 39  1  0  0  0  0 
 17 40  1  0  0  0  0 
 18 41  1  0  0  0  0 
 24 42  1  0  0  0  0 
 24 43  1  0  0  0  0 
 24 44  1  0  0  0  0 
 26 45  1  0  0  0  0 
 26 46  1  0  0  0  0 
 26 47  1  0  0  0  0 
 27 48  1  0  0  0  0 
 27 49  1  0  0  0  0 
 27 50  1  0  0  0  0 
M  END
> <cdk:Title>
trimetrexate

> <Conformer>
1

> <SuperDrugID>
SD002486

$$$$
