foscarnet
  CDK     0628171801

 10  9  0  0  0  0  0  0  0  0999 V2000
   -0.4698    0.4930    2.5265 O   0  0  0  0  0  0  0  0  0  0  0  0
   -0.1883   -0.4195    1.5709 C   0  0  0  0  0  0  0  0  0  0  0  0
   -0.1499   -1.6349    1.8638 O   0  0  0  0  0  0  0  0  0  0  0  0
    0.1090    0.0591    0.0193 P   0  0  1  0  0  0  0  0  0  0  0  0
   -0.9722   -0.5761   -0.9620 O   0  0  0  0  0  0  0  0  0  0  0  0
   -0.0322    1.6403   -0.1073 O   0  0  0  0  0  0  0  0  0  0  0  0
    1.4526   -0.3346   -0.4381 O   0  0  0  0  0  0  0  0  0  0  0  0
   -0.6466    0.2055    3.4469 H   0  0  0  0  0  0  0  0  0  0  0  0
   -1.8307   -0.2186   -0.6506 H   0  0  0  0  0  0  0  0  0  0  0  0
    0.1691    1.8313   -1.0477 H   0  0  0  0  0  0  0  0  0  0  0  0
  1  2  1  0  0  0  0 
  2  3  2  0  0  0  0 
  2  4  1  0  0  0  0 
  4  5  1  0  0  0  0 
  4  6  1  0  0  0  0 
  4  7  2  0  0  0  0 
  1  8  1  0  0  0  0 
  5  9  1  0  0  0  0 
  6 10  1  0  0  0  0 
M  END
> <cdk:Title>
foscarnet

> <Conformer>
1

> <SuperDrugID>
SD001114

$$$$
