levobetaxolol
  CDK     0628171802

 51 52  0  0  0  0  0  0  0  0999 V2000
   -2.7451    0.9160    0.4053 O   0  0  0  0  0  0  0  0  0  0  0  0
   -1.9326   -0.2376    0.1107 C   0  0  1  0  0  0  0  0  0  0  0  0
   -3.9210    0.5901    1.0134 C   0  0  0  0  0  0  0  0  0  0  0  0
   -0.6542    0.2155   -0.6363 C   0  0  2  0  0  0  0  0  0  0  0  0
   -5.0714    0.3437    0.2397 C   0  0  0  0  0  0  0  0  0  0  0  0
   -3.9924    0.5148    2.4178 C   0  0  0  0  0  0  0  0  0  0  0  0
   -0.9451    1.0383   -1.9203 C   0  0  2  0  0  0  0  0  0  0  0  0
    0.1379   -0.9263   -0.9556 O   0  0  0  0  0  0  0  0  0  0  0  0
   -6.2751   -0.0232    0.8656 C   0  0  0  0  0  0  0  0  0  0  0  0
   -5.1946    0.1470    3.0428 C   0  0  0  0  0  0  0  0  0  0  0  0
   -1.8315    0.2998   -2.8501 N   0  0  1  0  0  0  0  0  0  0  0  0
   -6.3420   -0.1539    2.2720 C   0  0  0  0  0  0  0  0  0  0  0  0
   -2.2318    0.9829   -4.1075 C   0  0  1  0  0  0  0  0  0  0  0  0
   -7.5693   -0.6710    2.9246 C   0  0  1  0  0  0  0  0  0  0  0  0
   -2.9444   -0.0703   -4.9921 C   0  0  0  0  0  0  0  0  0  0  0  0
   -3.1602    2.2061   -3.8733 C   0  0  0  0  0  0  0  0  0  0  0  0
   -7.5012   -2.2132    3.0100 C   0  0  1  0  0  0  0  0  0  0  0  0
   -8.6878   -2.7187    3.6414 O   0  0  0  0  0  0  0  0  0  0  0  0
   -8.7125   -4.1524    3.7500 C   0  0  1  0  0  0  0  0  0  0  0  0
  -10.0200   -4.5456    4.4605 C   0  0  1  0  0  0  0  0  0  0  0  0
  -10.0410   -5.8535    5.2646 C   0  0  2  0  0  0  0  0  0  0  0  0
  -10.0529   -4.5036    5.9968 C   0  0  1  0  0  0  0  0  0  0  0  0
   -1.6379   -0.7394    1.0379 H   0  0  0  0  0  0  0  0  0  0  0  0
   -2.4768   -0.9570   -0.5118 H   0  0  0  0  0  0  0  0  0  0  0  0
   -0.0636    0.8387    0.0409 H   0  0  0  0  0  0  0  0  0  0  0  0
   -5.0310    0.4185   -0.7795 H   0  0  0  0  0  0  0  0  0  0  0  0
   -3.1654    0.7148    2.9852 H   0  0  0  0  0  0  0  0  0  0  0  0
    0.0001    1.2689   -2.4169 H   0  0  0  0  0  0  0  0  0  0  0  0
   -1.4100    1.9806   -1.6249 H   0  0  0  0  0  0  0  0  0  0  0  0
    0.3297   -1.3485   -0.0909 H   0  0  0  0  0  0  0  0  0  0  0  0
   -7.0959   -0.2114    0.2847 H   0  0  0  0  0  0  0  0  0  0  0  0
   -5.2209    0.0828    4.0633 H   0  0  0  0  0  0  0  0  0  0  0  0
   -1.3108   -0.5352   -3.1268 H   0  0  0  0  0  0  0  0  0  0  0  0
   -1.3335    1.3143   -4.6380 H   0  0  0  0  0  0  0  0  0  0  0  0
   -7.6699   -0.2552    3.9305 H   0  0  0  0  0  0  0  0  0  0  0  0
   -8.4560   -0.3730    2.3591 H   0  0  0  0  0  0  0  0  0  0  0  0
   -2.2835   -0.9192   -5.1779 H   0  0  0  0  0  0  0  0  0  0  0  0
   -3.8496   -0.4355   -4.5009 H   0  0  0  0  0  0  0  0  0  0  0  0
   -3.2197    0.3630   -5.9554 H   0  0  0  0  0  0  0  0  0  0  0  0
   -4.0223    1.9247   -3.2635 H   0  0  0  0  0  0  0  0  0  0  0  0
   -2.6207    3.0105   -3.3718 H   0  0  0  0  0  0  0  0  0  0  0  0
   -3.5177    2.5984   -4.8276 H   0  0  0  0  0  0  0  0  0  0  0  0
   -7.4144   -2.6308    2.0015 H   0  0  0  0  0  0  0  0  0  0  0  0
   -6.6194   -2.5039    3.5914 H   0  0  0  0  0  0  0  0  0  0  0  0
   -8.7081   -4.6145    2.7595 H   0  0  0  0  0  0  0  0  0  0  0  0
   -7.8470   -4.5104    4.3158 H   0  0  0  0  0  0  0  0  0  0  0  0
  -10.9609   -4.2859    3.9735 H   0  0  0  0  0  0  0  0  0  0  0  0
   -9.1040   -6.4111    5.3372 H   0  0  0  0  0  0  0  0  0  0  0  0
  -10.9864   -6.3971    5.2586 H   0  0  0  0  0  0  0  0  0  0  0  0
   -9.1223   -4.2404    6.5070 H   0  0  0  0  0  0  0  0  0  0  0  0
  -11.0062   -4.2191    6.4459 H   0  0  0  0  0  0  0  0  0  0  0  0
  1  2  1  0  0  0  0 
  1  3  1  0  0  0  0 
  4  2  1  0  0  0  0 
  3  5  2  0  0  0  0 
  3  6  1  0  0  0  0 
  4  7  1  0  0  0  0 
  4  8  1  0  0  0  0 
  5  9  1  0  0  0  0 
  6 10  2  0  0  0  0 
  7 11  1  0  0  0  0 
  9 12  2  0  0  0  0 
 10 12  1  0  0  0  0 
 11 13  1  0  0  0  0 
 12 14  1  0  0  0  0 
 13 15  1  0  0  0  0 
 13 16  1  0  0  0  0 
 14 17  1  0  0  0  0 
 17 18  1  0  0  0  0 
 18 19  1  0  0  0  0 
 19 20  1  0  0  0  0 
 20 21  1  0  0  0  0 
 20 22  1  0  0  0  0 
 21 22  1  0  0  0  0 
  2 23  1  0  0  0  0 
  2 24  1  0  0  0  0 
  4 25  1  0  0  0  0 
  5 26  1  0  0  0  0 
  6 27  1  0  0  0  0 
  7 28  1  0  0  0  0 
  7 29  1  0  0  0  0 
  8 30  1  0  0  0  0 
  9 31  1  0  0  0  0 
 10 32  1  0  0  0  0 
 11 33  1  0  0  0  0 
 13 34  1  0  0  0  0 
 14 35  1  0  0  0  0 
 14 36  1  0  0  0  0 
 15 37  1  0  0  0  0 
 15 38  1  0  0  0  0 
 15 39  1  0  0  0  0 
 16 40  1  0  0  0  0 
 16 41  1  0  0  0  0 
 16 42  1  0  0  0  0 
 17 43  1  0  0  0  0 
 17 44  1  0  0  0  0 
 19 45  1  0  0  0  0 
 19 46  1  0  0  0  0 
 20 47  1  0  0  0  0 
 21 48  1  0  0  0  0 
 21 49  1  0  0  0  0 
 22 50  1  0  0  0  0 
 22 51  1  0  0  0  0 
M  END
> <cdk:Title>
levobetaxolol

> <Conformer>
1

> <SuperDrugID>
SD003747

$$$$
