teclothiazide
  CDK     0628171801

 28 29  0  0  0  0  0  0  0  0999 V2000
   -4.3779   -0.7245    2.6683 O   0  0  0  0  0  0  0  0  0  0  0  0
   -3.3997   -0.1105    3.7801 S   0  0  2  0  0  0  0  0  0  0  0  0
   -3.6450    1.4658    3.9421 O   0  0  0  0  0  0  0  0  0  0  0  0
   -1.7099   -0.4512    3.4083 C   0  0  0  0  0  0  0  0  0  0  0  0
   -3.6851   -0.9079    5.3233 N   0  0  2  0  0  0  0  0  0  0  0  0
   -0.8497   -0.7726    4.4785 C   0  0  0  0  0  0  0  0  0  0  0  0
   -1.2388   -0.4404    2.0839 C   0  0  0  0  0  0  0  0  0  0  0  0
   -2.5978   -0.5961    6.2882 C   0  0  2  0  0  0  0  0  0  0  0  0
   -1.2623   -0.8004    5.7814 N   0  0  0  0  0  0  0  0  0  0  0  0
    0.4944   -1.0902    4.1941 C   0  0  0  0  0  0  0  0  0  0  0  0
    0.0959   -0.7943    1.7967 C   0  0  0  0  0  0  0  0  0  0  0  0
   -2.8010   -1.4373    7.5833 C   0  0  1  0  0  0  0  0  0  0  0  0
    0.9676   -1.1200    2.8659 C   0  0  0  0  0  0  0  0  0  0  0  0
    0.6255   -0.8450    0.1019 S   0  0  2  0  0  0  0  0  0  0  0  0
   -4.3827   -1.1594    8.3111 Cl  0  0  0  0  0  0  0  0  0  0  0  0
   -2.6667   -3.1683    7.2764 Cl  0  0  0  0  0  0  0  0  0  0  0  0
   -1.6231   -1.0198    8.8285 Cl  0  0  0  0  0  0  0  0  0  0  0  0
    2.5859   -1.5660    2.6224 Cl  0  0  0  0  0  0  0  0  0  0  0  0
   -0.6726   -0.3968   -0.9947 N   0  0  2  0  0  0  0  0  0  0  0  0
    1.1047   -2.3275   -0.2813 O   0  0  0  0  0  0  0  0  0  0  0  0
    1.8428    0.1724   -0.1347 O   0  0  0  0  0  0  0  0  0  0  0  0
   -3.6339   -1.9107    5.1313 H   0  0  0  0  0  0  0  0  0  0  0  0
   -1.8834   -0.1871    1.3341 H   0  0  0  0  0  0  0  0  0  0  0  0
   -2.6841    0.4594    6.5577 H   0  0  0  0  0  0  0  0  0  0  0  0
   -0.5744   -0.9626    6.4440 H   0  0  0  0  0  0  0  0  0  0  0  0
    1.1327   -1.3152    4.9632 H   0  0  0  0  0  0  0  0  0  0  0  0
   -1.0060    0.5199   -0.6907 H   0  0  0  0  0  0  0  0  0  0  0  0
   -1.4343   -1.0580   -0.8294 H   0  0  0  0  0  0  0  0  0  0  0  0
  1  2  2  0  0  0  0 
  2  3  2  0  0  0  0 
  2  4  1  0  0  0  0 
  2  5  1  0  0  0  0 
  4  6  2  0  0  0  0 
  4  7  1  0  0  0  0 
  8  5  1  0  0  0  0 
  6  9  1  0  0  0  0 
  6 10  1  0  0  0  0 
  7 11  2  0  0  0  0 
  8  9  1  0  0  0  0 
  8 12  1  0  0  0  0 
 10 13  2  0  0  0  0 
 11 13  1  0  0  0  0 
 11 14  1  0  0  0  0 
 12 15  1  0  0  0  0 
 12 16  1  0  0  0  0 
 12 17  1  0  0  0  0 
 13 18  1  0  0  0  0 
 14 19  1  0  0  0  0 
 14 20  2  0  0  0  0 
 14 21  2  0  0  0  0 
  5 22  1  0  0  0  0 
  7 23  1  0  0  0  0 
  8 24  1  0  0  0  0 
  9 25  1  0  0  0  0 
 10 26  1  0  0  0  0 
 19 27  1  0  0  0  0 
 19 28  1  0  0  0  0 
M  END
> <cdk:Title>
teclothiazide

> <Conformer>
1

> <SuperDrugID>
SD002316

$$$$
