obeticholic acid
  CDK     0628171802

 74 77  0  0  0  0  0  0  0  0999 V2000
   -3.3236  -11.6770   -3.2788 C   0  0  2  0  0  0  0  0  0  0  0  0
   -2.2778  -12.7941   -3.0402 C   0  0  2  0  0  0  0  0  0  0  0  0
   -2.6852  -14.0797   -3.7951 C   0  0  2  0  0  0  0  0  0  0  0  0
   -4.0995  -14.5363   -3.3686 C   0  0  1  0  0  0  0  0  0  0  0  0
   -5.1936  -13.4242   -3.5597 C   0  0  2  0  0  0  0  0  0  0  0  0
   -4.8102  -12.0360   -2.8751 C   0  0  1  0  0  0  0  0  0  0  0  0
   -5.0284  -12.1357   -1.2939 C   0  0  2  0  0  0  0  0  0  0  0  0
   -6.6443  -13.9072   -3.1690 C   0  0  2  0  0  0  0  0  0  0  0  0
   -6.8311  -14.0011   -1.6173 C   0  0  2  0  0  0  0  0  0  0  0  0
   -6.4752  -12.6495   -0.9207 C   0  0  1  0  0  0  0  0  0  0  0  0
   -4.9911  -10.8790    1.0450 C   0  0  1  0  0  0  0  0  0  0  0  0
   -4.6333  -10.8478   -0.4751 C   0  0  1  0  0  0  0  0  0  0  0  0
   -6.6419  -12.6939    0.6379 C   0  0  1  0  0  0  0  0  0  0  0  0
   -6.4770  -11.2946    1.3281 C   0  0  1  0  0  0  0  0  0  0  0  0
   -7.9440  -13.2672    1.2244 C   0  0  1  0  0  0  0  0  0  0  0  0
   -7.9793  -12.7034    2.6627 C   0  0  2  0  0  0  0  0  0  0  0  0
   -6.8211  -11.6634    2.8266 C   0  0  2  0  0  0  0  0  0  0  0  0
   -7.1688  -10.5152    3.8628 C   0  0  2  0  0  0  0  0  0  0  0  0
   -6.0528   -9.4403    4.0150 C   0  0  0  0  0  0  0  0  0  0  0  0
   -7.6260  -11.0281    5.2768 C   0  0  2  0  0  0  0  0  0  0  0  0
   -6.5112  -11.5972    6.1978 C   0  0  2  0  0  0  0  0  0  0  0  0
   -7.0547  -12.0675    7.4881 C   0  0  0  0  0  0  0  0  0  0  0  0
   -8.0431   -9.9875    3.4715 H   0  0  0  0  0  0  0  0  0  0  0  0
   -7.8703  -13.1460    7.5400 O   0  0  0  0  0  0  0  0  0  0  0  0
   -6.7786  -11.4787    8.5583 O   0  0  0  0  0  0  0  0  0  0  0  0
   -7.4642  -10.1871    0.7892 C   0  0  0  0  0  0  0  0  0  0  0  0
   -5.6717  -10.8700   -3.5030 C   0  0  0  0  0  0  0  0  0  0  0  0
   -1.7370  -15.1114   -3.5310 O   0  0  0  0  0  0  0  0  0  0  0  0
   -2.6702  -13.8930   -4.8729 H   0  0  0  0  0  0  0  0  0  0  0  0
   -5.2140  -13.2421   -4.6400 H   0  0  0  0  0  0  0  0  0  0  0  0
   -7.1815  -15.1862   -3.8952 C   0  0  2  0  0  0  0  0  0  0  0  0
   -7.2600  -15.0788   -5.4374 C   0  0  0  0  0  0  0  0  0  0  0  0
   -7.3325  -13.1229   -3.4984 H   0  0  0  0  0  0  0  0  0  0  0  0
   -7.2145  -11.9459   -1.2957 H   0  0  0  0  0  0  0  0  0  0  0  0
   -6.1128  -15.0886   -1.0298 O   0  0  0  0  0  0  0  0  0  0  0  0
   -5.8504  -13.3658    1.0023 H   0  0  0  0  0  0  0  0  0  0  0  0
   -5.9608  -12.2045    3.2373 H   0  0  0  0  0  0  0  0  0  0  0  0
   -4.3453  -12.9077   -0.9278 H   0  0  0  0  0  0  0  0  0  0  0  0
   -3.2820  -11.4462   -4.3499 H   0  0  0  0  0  0  0  0  0  0  0  0
   -2.9855  -10.7739   -2.7678 H   0  0  0  0  0  0  0  0  0  0  0  0
   -2.1775  -12.9983   -1.9706 H   0  0  0  0  0  0  0  0  0  0  0  0
   -1.3034  -12.4562   -3.4068 H   0  0  0  0  0  0  0  0  0  0  0  0
   -4.3512  -15.4112   -3.9708 H   0  0  0  0  0  0  0  0  0  0  0  0
   -4.0410  -14.8531   -2.3278 H   0  0  0  0  0  0  0  0  0  0  0  0
   -7.8902  -14.2034   -1.4250 H   0  0  0  0  0  0  0  0  0  0  0  0
   -4.3093  -11.5732    1.5448 H   0  0  0  0  0  0  0  0  0  0  0  0
   -4.7880   -9.8932    1.4610 H   0  0  0  0  0  0  0  0  0  0  0  0
   -3.5530  -10.6989   -0.5358 H   0  0  0  0  0  0  0  0  0  0  0  0
   -5.0999   -9.9655   -0.9113 H   0  0  0  0  0  0  0  0  0  0  0  0
   -8.8123  -12.9343    0.6486 H   0  0  0  0  0  0  0  0  0  0  0  0
   -7.9271  -14.3611    1.2319 H   0  0  0  0  0  0  0  0  0  0  0  0
   -7.8587  -13.5168    3.3855 H   0  0  0  0  0  0  0  0  0  0  0  0
   -8.9576  -12.2407    2.8272 H   0  0  0  0  0  0  0  0  0  0  0  0
   -5.9923   -8.8095    3.1313 H   0  0  0  0  0  0  0  0  0  0  0  0
   -5.0805   -9.9094    4.1761 H   0  0  0  0  0  0  0  0  0  0  0  0
   -6.2616   -8.7766    4.8576 H   0  0  0  0  0  0  0  0  0  0  0  0
   -8.3976  -11.7900    5.1562 H   0  0  0  0  0  0  0  0  0  0  0  0
   -8.1104  -10.1969    5.8033 H   0  0  0  0  0  0  0  0  0  0  0  0
   -5.7646  -10.8250    6.3932 H   0  0  0  0  0  0  0  0  0  0  0  0
   -6.0121  -12.4309    5.7043 H   0  0  0  0  0  0  0  0  0  0  0  0
   -8.2128  -13.4576    8.4038 H   0  0  0  0  0  0  0  0  0  0  0  0
   -7.3475   -9.9991   -0.2752 H   0  0  0  0  0  0  0  0  0  0  0  0
   -7.2859   -9.2316    1.2802 H   0  0  0  0  0  0  0  0  0  0  0  0
   -8.5066  -10.4608    0.9586 H   0  0  0  0  0  0  0  0  0  0  0  0
   -5.2913   -9.8881   -3.2153 H   0  0  0  0  0  0  0  0  0  0  0  0
   -5.6424  -10.9112   -4.5946 H   0  0  0  0  0  0  0  0  0  0  0  0
   -6.7181  -10.9060   -3.2135 H   0  0  0  0  0  0  0  0  0  0  0  0
   -2.0297  -15.8744   -4.0741 H   0  0  0  0  0  0  0  0  0  0  0  0
   -8.1986  -15.3812   -3.5414 H   0  0  0  0  0  0  0  0  0  0  0  0
   -6.5812  -16.0580   -3.6307 H   0  0  0  0  0  0  0  0  0  0  0  0
   -7.7636  -15.9590   -5.8406 H   0  0  0  0  0  0  0  0  0  0  0  0
   -6.2626  -15.0280   -5.8747 H   0  0  0  0  0  0  0  0  0  0  0  0
   -7.8250  -14.1921   -5.7330 H   0  0  0  0  0  0  0  0  0  0  0  0
   -6.4872  -15.8995   -1.4335 H   0  0  0  0  0  0  0  0  0  0  0  0
  1  2  1  0  0  0  0 
  1  6  1  0  0  0  0 
  2  3  1  0  0  0  0 
  3  4  1  0  0  0  0 
  4  5  1  0  0  0  0 
  5  6  1  0  0  0  0 
  8  9  1  0  0  0  0 
  9 10  1  0  0  0  0 
  7 10  1  0  0  0  0 
  5  8  1  0  0  0  0 
  7  6  1  0  0  0  0 
 11 12  1  0  0  0  0 
 13 14  1  0  0  0  0 
 11 14  1  0  0  0  0 
 12  7  1  0  0  0  0 
 10 13  1  0  0  0  0 
 15 16  1  0  0  0  0 
 16 17  1  0  0  0  0 
 13 15  1  0  0  0  0 
 14 17  1  0  0  0  0 
 17 18  1  0  0  0  0 
 18 19  1  0  0  0  0 
 18 20  1  0  0  0  0 
 20 21  1  0  0  0  0 
 21 22  1  0  0  0  0 
 18 23  1  0  0  0  0 
 22 24  1  0  0  0  0 
 22 25  2  0  0  0  0 
 14 26  1  0  0  0  0 
  6 27  1  0  0  0  0 
  3 28  1  0  0  0  0 
  3 29  1  0  0  0  0 
  5 30  1  0  0  0  0 
  8 31  1  0  0  0  0 
 31 32  1  0  0  0  0 
  8 33  1  0  0  0  0 
 10 34  1  0  0  0  0 
  9 35  1  0  0  0  0 
 13 36  1  0  0  0  0 
 17 37  1  0  0  0  0 
  7 38  1  0  0  0  0 
  1 39  1  0  0  0  0 
  1 40  1  0  0  0  0 
  2 41  1  0  0  0  0 
  2 42  1  0  0  0  0 
  4 43  1  0  0  0  0 
  4 44  1  0  0  0  0 
  9 45  1  0  0  0  0 
 11 46  1  0  0  0  0 
 11 47  1  0  0  0  0 
 12 48  1  0  0  0  0 
 12 49  1  0  0  0  0 
 15 50  1  0  0  0  0 
 15 51  1  0  0  0  0 
 16 52  1  0  0  0  0 
 16 53  1  0  0  0  0 
 19 54  1  0  0  0  0 
 19 55  1  0  0  0  0 
 19 56  1  0  0  0  0 
 20 57  1  0  0  0  0 
 20 58  1  0  0  0  0 
 21 59  1  0  0  0  0 
 21 60  1  0  0  0  0 
 24 61  1  0  0  0  0 
 26 62  1  0  0  0  0 
 26 63  1  0  0  0  0 
 26 64  1  0  0  0  0 
 27 65  1  0  0  0  0 
 27 66  1  0  0  0  0 
 27 67  1  0  0  0  0 
 28 68  1  0  0  0  0 
 31 69  1  0  0  0  0 
 31 70  1  0  0  0  0 
 32 71  1  0  0  0  0 
 32 72  1  0  0  0  0 
 32 73  1  0  0  0  0 
 35 74  1  0  0  0  0 
M  END
> <cdk:Title>
obeticholic acid

> <Conformer>
1

> <SuperDrugID>
SD003924

$$$$
