perphenazine
  CDK     0628171801

 53 56  0  0  0  0  0  0  0  0999 V2000
   -1.9283   -0.8949   -8.4666 O   0  0  0  0  0  0  0  0  0  0  0  0
   -2.2245   -1.0882   -7.0872 C   0  0  1  0  0  0  0  0  0  0  0  0
   -0.9310   -1.4004   -6.2930 C   0  0  1  0  0  0  0  0  0  0  0  0
   -1.1366   -1.9015   -4.8926 N   0  0  1  0  0  0  0  0  0  0  0  0
    0.1577   -2.3113   -4.2587 C   0  0  2  0  0  0  0  0  0  0  0  0
   -0.0526   -2.8934   -2.8415 C   0  0  2  0  0  0  0  0  0  0  0  0
   -0.7900   -1.9281   -1.9718 N   0  0  2  0  0  0  0  0  0  0  0  0
   -0.9153   -2.4136   -0.5597 C   0  0  1  0  0  0  0  0  0  0  0  0
   -1.3515   -1.3320    0.4668 C   0  0  2  0  0  0  0  0  0  0  0  0
   -0.5201   -0.0147    0.4216 C   0  0  1  0  0  0  0  0  0  0  0  0
    0.9212   -0.1725    0.5972 N   0  0  0  0  0  0  0  0  0  0  0  0
    1.8049    0.3980   -0.3190 C   0  0  0  0  0  0  0  0  0  0  0  0
    1.6045    1.7080   -0.8259 C   0  0  0  0  0  0  0  0  0  0  0  0
    2.4972    2.2813   -1.7486 C   0  0  0  0  0  0  0  0  0  0  0  0
    3.6153    1.5535   -2.1878 C   0  0  0  0  0  0  0  0  0  0  0  0
    3.8469    0.2587   -1.6939 C   0  0  0  0  0  0  0  0  0  0  0  0
    2.9543   -0.3052   -0.7619 C   0  0  0  0  0  0  0  0  0  0  0  0
    3.2910   -1.8952   -0.0927 S   0  0  0  0  0  0  0  0  0  0  0  0
    2.5017   -1.8210    1.4782 C   0  0  0  0  0  0  0  0  0  0  0  0
    2.9684   -2.6388    2.5252 C   0  0  0  0  0  0  0  0  0  0  0  0
    2.3678   -2.5632    3.7925 C   0  0  0  0  0  0  0  0  0  0  0  0
    1.3140   -1.6600    4.0195 C   0  0  0  0  0  0  0  0  0  0  0  0
    0.6005   -1.5574    5.5516 Cl  0  0  0  0  0  0  0  0  0  0  0  0
    0.8534   -0.8445    2.9660 C   0  0  0  0  0  0  0  0  0  0  0  0
    1.4171   -0.9240    1.6657 C   0  0  0  0  0  0  0  0  0  0  0  0
   -2.0903   -1.5188   -2.5872 C   0  0  1  0  0  0  0  0  0  0  0  0
   -1.8986   -0.9578   -4.0169 C   0  0  2  0  0  0  0  0  0  0  0  0
   -2.7898   -0.6977   -8.8899 H   0  0  0  0  0  0  0  0  0  0  0  0
   -2.6897   -0.1739   -6.7161 H   0  0  0  0  0  0  0  0  0  0  0  0
   -2.9326   -1.9119   -6.9937 H   0  0  0  0  0  0  0  0  0  0  0  0
   -0.3904   -2.1649   -6.8587 H   0  0  0  0  0  0  0  0  0  0  0  0
   -0.3104   -0.4998   -6.2792 H   0  0  0  0  0  0  0  0  0  0  0  0
    0.8311   -1.4521   -4.1880 H   0  0  0  0  0  0  0  0  0  0  0  0
    0.6459   -3.0778   -4.8649 H   0  0  0  0  0  0  0  0  0  0  0  0
    0.9336   -3.0981   -2.4169 H   0  0  0  0  0  0  0  0  0  0  0  0
   -0.5953   -3.8418   -2.9123 H   0  0  0  0  0  0  0  0  0  0  0  0
   -1.6254   -3.2452   -0.5145 H   0  0  0  0  0  0  0  0  0  0  0  0
    0.0487   -2.8034   -0.2214 H   0  0  0  0  0  0  0  0  0  0  0  0
   -1.2932   -1.7696    1.4661 H   0  0  0  0  0  0  0  0  0  0  0  0
   -2.4045   -1.0841    0.3101 H   0  0  0  0  0  0  0  0  0  0  0  0
   -0.7573    0.4600   -0.5346 H   0  0  0  0  0  0  0  0  0  0  0  0
   -0.8987    0.6622    1.1900 H   0  0  0  0  0  0  0  0  0  0  0  0
    0.8080    2.2677   -0.5185 H   0  0  0  0  0  0  0  0  0  0  0  0
    2.3380    3.2306   -2.0973 H   0  0  0  0  0  0  0  0  0  0  0  0
    4.2660    1.9688   -2.8594 H   0  0  0  0  0  0  0  0  0  0  0  0
    4.6710   -0.2614   -2.0060 H   0  0  0  0  0  0  0  0  0  0  0  0
    3.7476   -3.2847    2.3727 H   0  0  0  0  0  0  0  0  0  0  0  0
    2.7053   -3.1677    4.5435 H   0  0  0  0  0  0  0  0  0  0  0  0
    0.0935   -0.1880    3.1531 H   0  0  0  0  0  0  0  0  0  0  0  0
   -2.7824   -2.3665   -2.6194 H   0  0  0  0  0  0  0  0  0  0  0  0
   -2.5572   -0.7267   -1.9983 H   0  0  0  0  0  0  0  0  0  0  0  0
   -2.8975   -0.7889   -4.4261 H   0  0  0  0  0  0  0  0  0  0  0  0
   -1.3871    0.0081   -3.9607 H   0  0  0  0  0  0  0  0  0  0  0  0
  1  2  1  0  0  0  0 
  2  3  1  0  0  0  0 
  3  4  1  0  0  0  0 
  4  5  1  0  0  0  0 
  5  6  1  0  0  0  0 
  6  7  1  0  0  0  0 
  7  8  1  0  0  0  0 
  8  9  1  0  0  0  0 
  9 10  1  0  0  0  0 
 10 11  1  0  0  0  0 
 11 12  1  0  0  0  0 
 12 13  2  0  0  0  0 
 13 14  1  0  0  0  0 
 14 15  2  0  0  0  0 
 15 16  1  0  0  0  0 
 16 17  2  0  0  0  0 
 12 17  1  0  0  0  0 
 17 18  1  0  0  0  0 
 18 19  1  0  0  0  0 
 19 20  2  0  0  0  0 
 20 21  1  0  0  0  0 
 21 22  2  0  0  0  0 
 22 23  1  0  0  0  0 
 22 24  1  0  0  0  0 
 24 25  2  0  0  0  0 
 11 25  1  0  0  0  0 
 19 25  1  0  0  0  0 
  7 26  1  0  0  0  0 
 26 27  1  0  0  0  0 
  4 27  1  0  0  0  0 
  1 28  1  0  0  0  0 
  2 29  1  0  0  0  0 
  2 30  1  0  0  0  0 
  3 31  1  0  0  0  0 
  3 32  1  0  0  0  0 
  5 33  1  0  0  0  0 
  5 34  1  0  0  0  0 
  6 35  1  0  0  0  0 
  6 36  1  0  0  0  0 
  8 37  1  0  0  0  0 
  8 38  1  0  0  0  0 
  9 39  1  0  0  0  0 
  9 40  1  0  0  0  0 
 10 41  1  0  0  0  0 
 10 42  1  0  0  0  0 
 13 43  1  0  0  0  0 
 14 44  1  0  0  0  0 
 15 45  1  0  0  0  0 
 16 46  1  0  0  0  0 
 20 47  1  0  0  0  0 
 21 48  1  0  0  0  0 
 24 49  1  0  0  0  0 
 26 50  1  0  0  0  0 
 26 51  1  0  0  0  0 
 27 52  1  0  0  0  0 
 27 53  1  0  0  0  0 
M  END
> <cdk:Title>
perphenazine

> <Conformer>
1

> <SuperDrugID>
SD001894

$$$$
