dropropizine
  CDK     0628171802

 37 38  0  0  0  0  0  0  0  0999 V2000
   -9.7088   -2.9998    6.9826 C   0  0  1  0  0  0  0  0  0  0  0  0
  -10.0198   -2.6013    5.5094 C   0  0  1  0  0  0  0  0  0  0  0  0
  -10.7812   -2.7411    8.0044 N   0  0  1  0  0  0  0  0  0  0  0  0
  -11.3472   -3.1639    4.9398 C   0  0  2  0  0  0  0  0  0  0  0  0
   -9.9752   -1.1880    5.3296 O   0  0  0  0  0  0  0  0  0  0  0  0
  -10.4967   -3.4629    9.2907 C   0  0  2  0  0  0  0  0  0  0  0  0
  -11.0977   -1.2926    8.2489 C   0  0  1  0  0  0  0  0  0  0  0  0
  -12.4932   -2.4898    5.4513 O   0  0  0  0  0  0  0  0  0  0  0  0
  -11.6368   -3.2777   10.3231 C   0  0  2  0  0  0  0  0  0  0  0  0
  -12.2242   -1.1201    9.3025 C   0  0  2  0  0  0  0  0  0  0  0  0
  -11.8882   -1.8677   10.4898 N   0  0  0  0  0  0  0  0  0  0  0  0
  -11.7439   -1.2463   11.7074 C   0  0  0  0  0  0  0  0  0  0  0  0
  -12.5098   -1.6367   12.8318 C   0  0  0  0  0  0  0  0  0  0  0  0
  -10.8120   -0.1917   11.8526 C   0  0  0  0  0  0  0  0  0  0  0  0
  -12.3416   -0.9876   14.0722 C   0  0  0  0  0  0  0  0  0  0  0  0
  -10.6441    0.4570   13.0889 C   0  0  0  0  0  0  0  0  0  0  0  0
  -11.4050    0.0546   14.2005 C   0  0  0  0  0  0  0  0  0  0  0  0
   -9.4985   -4.0743    6.9598 H   0  0  0  0  0  0  0  0  0  0  0  0
   -8.7785   -2.5099    7.2860 H   0  0  0  0  0  0  0  0  0  0  0  0
   -9.2113   -3.0070    4.8918 H   0  0  0  0  0  0  0  0  0  0  0  0
  -11.4297   -4.2277    5.1648 H   0  0  0  0  0  0  0  0  0  0  0  0
  -11.3451   -3.0419    3.8545 H   0  0  0  0  0  0  0  0  0  0  0  0
   -9.1035   -0.9127    5.6813 H   0  0  0  0  0  0  0  0  0  0  0  0
   -9.5617   -3.0973    9.7278 H   0  0  0  0  0  0  0  0  0  0  0  0
  -10.3839   -4.5349    9.1066 H   0  0  0  0  0  0  0  0  0  0  0  0
  -10.2037   -0.7603    8.5888 H   0  0  0  0  0  0  0  0  0  0  0  0
  -11.4438   -0.8132    7.3327 H   0  0  0  0  0  0  0  0  0  0  0  0
  -13.2521   -2.8614    4.9520 H   0  0  0  0  0  0  0  0  0  0  0  0
  -11.3459   -3.7665   11.2580 H   0  0  0  0  0  0  0  0  0  0  0  0
  -12.5438   -3.7682    9.9596 H   0  0  0  0  0  0  0  0  0  0  0  0
  -13.1660   -1.4992    8.8964 H   0  0  0  0  0  0  0  0  0  0  0  0
  -12.3737   -0.0544    9.5082 H   0  0  0  0  0  0  0  0  0  0  0  0
  -13.1984   -2.3901   12.7557 H   0  0  0  0  0  0  0  0  0  0  0  0
  -10.2411    0.1063   11.0575 H   0  0  0  0  0  0  0  0  0  0  0  0
  -12.9012   -1.2735   14.8809 H   0  0  0  0  0  0  0  0  0  0  0  0
   -9.9681    1.2203   13.1772 H   0  0  0  0  0  0  0  0  0  0  0  0
  -11.2760    0.5201   15.1017 H   0  0  0  0  0  0  0  0  0  0  0  0
  2  1  1  0  0  0  0 
  1  3  1  0  0  0  0 
  2  4  1  0  0  0  0 
  2  5  1  0  0  0  0 
  3  6  1  0  0  0  0 
  3  7  1  0  0  0  0 
  4  8  1  0  0  0  0 
  6  9  1  0  0  0  0 
  7 10  1  0  0  0  0 
  9 11  1  0  0  0  0 
 10 11  1  0  0  0  0 
 11 12  1  0  0  0  0 
 12 13  2  0  0  0  0 
 12 14  1  0  0  0  0 
 13 15  1  0  0  0  0 
 14 16  2  0  0  0  0 
 15 17  2  0  0  0  0 
 16 17  1  0  0  0  0 
  1 18  1  0  0  0  0 
  1 19  1  0  0  0  0 
  2 20  1  0  0  0  0 
  4 21  1  0  0  0  0 
  4 22  1  0  0  0  0 
  5 23  1  0  0  0  0 
  6 24  1  0  0  0  0 
  6 25  1  0  0  0  0 
  7 26  1  0  0  0  0 
  7 27  1  0  0  0  0 
  8 28  1  0  0  0  0 
  9 29  1  0  0  0  0 
  9 30  1  0  0  0  0 
 10 31  1  0  0  0  0 
 10 32  1  0  0  0  0 
 13 33  1  0  0  0  0 
 14 34  1  0  0  0  0 
 15 35  1  0  0  0  0 
 16 36  1  0  0  0  0 
 17 37  1  0  0  0  0 
M  END
> <cdk:Title>
dropropizine

> <Conformer>
1

> <SuperDrugID>
SD000857

$$$$
