phenyl acetylsalicylate
  CDK     0628171801

 31 32  0  0  0  0  0  0  0  0999 V2000
    0.6886   -4.7896   -1.3760 O   0  0  0  0  0  0  0  0  0  0  0  0
    1.4479   -5.9237   -1.2777 C   0  0  0  0  0  0  0  0  0  0  0  0
   -0.6571   -4.5170   -1.4912 C   0  0  0  0  0  0  0  0  0  0  0  0
    2.9099   -5.7586   -1.2588 C   0  0  0  0  0  0  0  0  0  0  0  0
    0.9598   -7.0731   -1.1867 O   0  0  0  0  0  0  0  0  0  0  0  0
   -1.0649   -3.1495   -1.4764 C   0  0  0  0  0  0  0  0  0  0  0  0
   -1.6393   -5.5294   -1.6157 C   0  0  0  0  0  0  0  0  0  0  0  0
   -0.1340   -2.0863   -1.3009 C   0  0  0  0  0  0  0  0  0  0  0  0
   -2.4411   -2.8415   -1.6179 C   0  0  0  0  0  0  0  0  0  0  0  0
   -2.9999   -5.2032   -1.7411 C   0  0  0  0  0  0  0  0  0  0  0  0
   -0.5384   -0.9043   -0.7296 O   0  0  0  0  0  0  0  0  0  0  0  0
    1.0369   -2.2006   -1.7356 O   0  0  0  0  0  0  0  0  0  0  0  0
   -3.3993   -3.8589   -1.7555 C   0  0  0  0  0  0  0  0  0  0  0  0
    0.1862    0.1942   -0.3384 C   0  0  0  0  0  0  0  0  0  0  0  0
   -0.4726    1.4417   -0.3209 C   0  0  0  0  0  0  0  0  0  0  0  0
    1.5367    0.1334    0.0790 C   0  0  0  0  0  0  0  0  0  0  0  0
    0.2109    2.6123    0.0631 C   0  0  0  0  0  0  0  0  0  0  0  0
    2.2225    1.3016    0.4636 C   0  0  0  0  0  0  0  0  0  0  0  0
    1.5636    2.5440    0.4433 C   0  0  0  0  0  0  0  0  0  0  0  0
    3.2076   -5.1921   -0.3749 H   0  0  0  0  0  0  0  0  0  0  0  0
    3.2202   -5.2096   -2.1497 H   0  0  0  0  0  0  0  0  0  0  0  0
    3.4214   -6.7260   -1.2460 H   0  0  0  0  0  0  0  0  0  0  0  0
   -1.3832   -6.5145   -1.6185 H   0  0  0  0  0  0  0  0  0  0  0  0
   -2.7639   -1.8692   -1.6276 H   0  0  0  0  0  0  0  0  0  0  0  0
   -3.6990   -5.9461   -1.8230 H   0  0  0  0  0  0  0  0  0  0  0  0
   -4.3868   -3.6195   -1.8669 H   0  0  0  0  0  0  0  0  0  0  0  0
   -1.4546    1.5045   -0.5987 H   0  0  0  0  0  0  0  0  0  0  0  0
    2.0281   -0.7607    0.1212 H   0  0  0  0  0  0  0  0  0  0  0  0
   -0.2750    3.5125    0.0644 H   0  0  0  0  0  0  0  0  0  0  0  0
    3.1999    1.2472    0.7627 H   0  0  0  0  0  0  0  0  0  0  0  0
    2.0652    3.3950    0.7113 H   0  0  0  0  0  0  0  0  0  0  0  0
  1  2  1  0  0  0  0 
  1  3  1  0  0  0  0 
  2  4  1  0  0  0  0 
  2  5  2  0  0  0  0 
  3  6  2  0  0  0  0 
  3  7  1  0  0  0  0 
  6  8  1  0  0  0  0 
  6  9  1  0  0  0  0 
  7 10  2  0  0  0  0 
  8 11  1  0  0  0  0 
  8 12  2  0  0  0  0 
  9 13  2  0  0  0  0 
 10 13  1  0  0  0  0 
 11 14  1  0  0  0  0 
 14 15  2  0  0  0  0 
 14 16  1  0  0  0  0 
 15 17  1  0  0  0  0 
 16 18  2  0  0  0  0 
 17 19  2  0  0  0  0 
 18 19  1  0  0  0  0 
  4 20  1  0  0  0  0 
  4 21  1  0  0  0  0 
  4 22  1  0  0  0  0 
  7 23  1  0  0  0  0 
  9 24  1  0  0  0  0 
 10 25  1  0  0  0  0 
 13 26  1  0  0  0  0 
 15 27  1  0  0  0  0 
 16 28  1  0  0  0  0 
 17 29  1  0  0  0  0 
 18 30  1  0  0  0  0 
 19 31  1  0  0  0  0 
M  END
> <cdk:Title>
phenyl acetylsalicylate

> <Conformer>
1

> <SuperDrugID>
SD002966

$$$$
