prothipendyl
  CDK     0628171801

 39 41  0  0  0  0  0  0  0  0999 V2000
    1.8475    2.8849   -0.4393 C   0  0  2  0  0  0  0  0  0  0  0  0
    1.7643    3.8807   -1.6391 C   0  0  2  0  0  0  0  0  0  0  0  0
    2.3287    1.5278   -0.7085 N   0  0  0  0  0  0  0  0  0  0  0  0
    2.9992    3.8927   -2.5784 C   0  0  1  0  0  0  0  0  0  0  0  0
    3.2718    0.9245    0.1385 C   0  0  0  0  0  0  0  0  0  0  0  0
    1.8262    0.8301   -1.8036 C   0  0  0  0  0  0  0  0  0  0  0  0
    4.3115    4.0343   -1.8684 N   0  0  1  0  0  0  0  0  0  0  0  0
    4.2641    0.0378   -0.3632 C   0  0  0  0  0  0  0  0  0  0  0  0
    3.2609    1.1390    1.5437 C   0  0  0  0  0  0  0  0  0  0  0  0
    2.6131   -0.0859   -2.5459 C   0  0  0  0  0  0  0  0  0  0  0  0
    0.5439    1.0358   -2.2227 N   0  0  0  0  0  0  0  0  0  0  0  0
    5.4617    3.5878   -2.7072 C   0  0  0  0  0  0  0  0  0  0  0  0
    4.5334    5.3894   -1.2831 C   0  0  0  0  0  0  0  0  0  0  0  0
    4.2770   -0.3789   -2.0696 S   0  0  0  0  0  0  0  0  0  0  0  0
    5.2220   -0.5623    0.4779 C   0  0  0  0  0  0  0  0  0  0  0  0
    4.2059    0.5305    2.3926 C   0  0  0  0  0  0  0  0  0  0  0  0
    2.0697   -0.7541   -3.6589 C   0  0  0  0  0  0  0  0  0  0  0  0
   -0.0113    0.4235   -3.2998 C   0  0  0  0  0  0  0  0  0  0  0  0
    5.1924   -0.3144    1.8587 C   0  0  0  0  0  0  0  0  0  0  0  0
    0.7449   -0.4959   -4.0458 C   0  0  0  0  0  0  0  0  0  0  0  0
    0.8524    2.8149    0.0101 H   0  0  0  0  0  0  0  0  0  0  0  0
    2.4861    3.3809    0.2986 H   0  0  0  0  0  0  0  0  0  0  0  0
    1.6129    4.8883   -1.2417 H   0  0  0  0  0  0  0  0  0  0  0  0
    0.8774    3.6614   -2.2385 H   0  0  0  0  0  0  0  0  0  0  0  0
    2.9776    2.9576   -3.1429 H   0  0  0  0  0  0  0  0  0  0  0  0
    2.8773    4.6967   -3.3095 H   0  0  0  0  0  0  0  0  0  0  0  0
    2.5490    1.7341    1.9734 H   0  0  0  0  0  0  0  0  0  0  0  0
    6.3963    3.6558   -2.1476 H   0  0  0  0  0  0  0  0  0  0  0  0
    5.3348    2.5433   -2.9972 H   0  0  0  0  0  0  0  0  0  0  0  0
    5.5488    4.1941   -3.6127 H   0  0  0  0  0  0  0  0  0  0  0  0
    3.7566    5.6273   -0.5556 H   0  0  0  0  0  0  0  0  0  0  0  0
    5.4877    5.4290   -0.7531 H   0  0  0  0  0  0  0  0  0  0  0  0
    4.5300    6.1564   -2.0623 H   0  0  0  0  0  0  0  0  0  0  0  0
    5.9329   -1.1907    0.0936 H   0  0  0  0  0  0  0  0  0  0  0  0
    4.1754    0.6989    3.4007 H   0  0  0  0  0  0  0  0  0  0  0  0
    2.6306   -1.4273   -4.1873 H   0  0  0  0  0  0  0  0  0  0  0  0
   -0.9735    0.6362   -3.5631 H   0  0  0  0  0  0  0  0  0  0  0  0
    5.8823   -0.7551    2.4725 H   0  0  0  0  0  0  0  0  0  0  0  0
    0.3391   -0.9686   -4.8570 H   0  0  0  0  0  0  0  0  0  0  0  0
  1  2  1  0  0  0  0 
  1  3  1  0  0  0  0 
  2  4  1  0  0  0  0 
  3  5  1  0  0  0  0 
  3  6  1  0  0  0  0 
  4  7  1  0  0  0  0 
  5  8  2  0  0  0  0 
  5  9  1  0  0  0  0 
  6 10  2  0  0  0  0 
  6 11  1  0  0  0  0 
  7 12  1  0  0  0  0 
  7 13  1  0  0  0  0 
  8 14  1  0  0  0  0 
  8 15  1  0  0  0  0 
  9 16  2  0  0  0  0 
 10 14  1  0  0  0  0 
 10 17  1  0  0  0  0 
 11 18  2  0  0  0  0 
 15 19  2  0  0  0  0 
 16 19  1  0  0  0  0 
 17 20  2  0  0  0  0 
 18 20  1  0  0  0  0 
  1 21  1  0  0  0  0 
  1 22  1  0  0  0  0 
  2 23  1  0  0  0  0 
  2 24  1  0  0  0  0 
  4 25  1  0  0  0  0 
  4 26  1  0  0  0  0 
  9 27  1  0  0  0  0 
 12 28  1  0  0  0  0 
 12 29  1  0  0  0  0 
 12 30  1  0  0  0  0 
 13 31  1  0  0  0  0 
 13 32  1  0  0  0  0 
 13 33  1  0  0  0  0 
 15 34  1  0  0  0  0 
 16 35  1  0  0  0  0 
 17 36  1  0  0  0  0 
 18 37  1  0  0  0  0 
 19 38  1  0  0  0  0 
 20 39  1  0  0  0  0 
M  END
> <cdk:Title>
prothipendyl

> <Conformer>
1

> <SuperDrugID>
SD002079

$$$$
