eltanolone
  CDK     0628171802

 57 60  0  0  0  0  0  0  0  0999 V2000
   -3.3255    4.6253    3.2688 C   0  0  0  0  0  0  0  0  0  0  0  0
   -3.9297    3.2653    3.7897 C   0  0  1  0  0  0  0  0  0  0  0  0
   -3.2509    2.0180    3.0534 C   0  0  2  0  0  0  0  0  0  0  0  0
   -3.7022    3.1574    5.3599 C   0  0  2  0  0  0  0  0  0  0  0  0
   -5.4887    3.3782    3.5285 C   0  0  2  0  0  0  0  0  0  0  0  0
   -1.7397    1.7972    3.4664 C   0  0  2  0  0  0  0  0  0  0  0  0
   -3.4125    1.9977    1.4857 C   0  0  1  0  0  0  0  0  0  0  0  0
   -2.2089    2.9173    5.7401 C   0  0  2  0  0  0  0  0  0  0  0  0
   -4.6235    2.1104    6.0753 C   0  0  1  0  0  0  0  0  0  0  0  0
   -6.3673    2.3129    4.2326 C   0  0  1  0  0  0  0  0  0  0  0  0
   -1.1625    0.5449    2.7184 C   0  0  1  0  0  0  0  0  0  0  0  0
   -1.5806    1.6995    5.0130 C   0  0  2  0  0  0  0  0  0  0  0  0
   -2.6976    0.8180    0.7553 C   0  0  1  0  0  0  0  0  0  0  0  0
   -6.1225    2.3268    5.7592 C   0  0  1  0  0  0  0  0  0  0  0  0
   -1.1913    0.6823    1.1594 C   0  0  1  0  0  0  0  0  0  0  0  0
    0.2758    0.0641    3.0111 C   0  0  2  0  0  0  0  0  0  0  0  0
   -6.9068    1.3138    6.3853 O   0  0  0  0  0  0  0  0  0  0  0  0
   -0.3777    1.9047    0.5756 C   0  0  0  0  0  0  0  0  0  0  0  0
   -0.5036   -0.6731    0.7536 C   0  0  2  0  0  0  0  0  0  0  0  0
    0.6337   -0.8568    1.8123 C   0  0  1  0  0  0  0  0  0  0  0  0
   -0.0690   -0.8101   -0.6713 C   0  0  0  0  0  0  0  0  0  0  0  0
   -0.9485   -1.3943   -1.7082 C   0  0  0  0  0  0  0  0  0  0  0  0
    1.0639   -0.4070   -1.0277 O   0  0  0  0  0  0  0  0  0  0  0  0
   -1.1461    2.6590    3.1652 H   0  0  0  0  0  0  0  0  0  0  0  0
   -3.7842    1.1276    3.3992 H   0  0  0  0  0  0  0  0  0  0  0  0
   -1.8118   -0.2931    3.0162 H   0  0  0  0  0  0  0  0  0  0  0  0
   -3.9758    4.1190    5.8086 H   0  0  0  0  0  0  0  0  0  0  0  0
   -2.2392    4.6438    3.3158 H   0  0  0  0  0  0  0  0  0  0  0  0
   -3.6168    4.8200    2.2353 H   0  0  0  0  0  0  0  0  0  0  0  0
   -3.6878    5.4692    3.8608 H   0  0  0  0  0  0  0  0  0  0  0  0
   -5.7106    3.3554    2.4607 H   0  0  0  0  0  0  0  0  0  0  0  0
   -5.8499    4.3508    3.8828 H   0  0  0  0  0  0  0  0  0  0  0  0
   -4.4683    1.9293    1.2245 H   0  0  0  0  0  0  0  0  0  0  0  0
   -3.0412    2.9298    1.0618 H   0  0  0  0  0  0  0  0  0  0  0  0
   -2.1151    2.7712    6.8196 H   0  0  0  0  0  0  0  0  0  0  0  0
   -1.6265    3.8106    5.5011 H   0  0  0  0  0  0  0  0  0  0  0  0
   -4.3515    1.0916    5.7910 H   0  0  0  0  0  0  0  0  0  0  0  0
   -4.4921    2.1937    7.1588 H   0  0  0  0  0  0  0  0  0  0  0  0
   -7.4212    2.5352    4.0415 H   0  0  0  0  0  0  0  0  0  0  0  0
   -6.1591    1.3216    3.8243 H   0  0  0  0  0  0  0  0  0  0  0  0
   -0.5172    1.6686    5.2708 H   0  0  0  0  0  0  0  0  0  0  0  0
   -2.0293    0.7722    5.3815 H   0  0  0  0  0  0  0  0  0  0  0  0
   -3.2324   -0.1087    0.9865 H   0  0  0  0  0  0  0  0  0  0  0  0
   -2.7812    0.9706   -0.3242 H   0  0  0  0  0  0  0  0  0  0  0  0
   -6.4410    3.2910    6.1690 H   0  0  0  0  0  0  0  0  0  0  0  0
    0.3289   -0.4781    3.9585 H   0  0  0  0  0  0  0  0  0  0  0  0
    0.9606    0.9151    3.0566 H   0  0  0  0  0  0  0  0  0  0  0  0
   -6.7311    1.4148    7.3439 H   0  0  0  0  0  0  0  0  0  0  0  0
   -0.4729    1.9353   -0.5120 H   0  0  0  0  0  0  0  0  0  0  0  0
    0.6848    1.8360    0.8111 H   0  0  0  0  0  0  0  0  0  0  0  0
   -0.7317    2.8622    0.9509 H   0  0  0  0  0  0  0  0  0  0  0  0
   -1.2190   -1.4865    0.9382 H   0  0  0  0  0  0  0  0  0  0  0  0
    1.6142   -0.5715    1.4214 H   0  0  0  0  0  0  0  0  0  0  0  0
    0.6980   -1.9034    2.1299 H   0  0  0  0  0  0  0  0  0  0  0  0
   -1.7722   -0.7136   -1.9287 H   0  0  0  0  0  0  0  0  0  0  0  0
   -1.3585   -2.3439   -1.3623 H   0  0  0  0  0  0  0  0  0  0  0  0
   -0.3992   -1.5794   -2.6348 H   0  0  0  0  0  0  0  0  0  0  0  0
  2  1  1  0  0  0  0 
  3  2  1  0  0  0  0 
  2  4  1  0  0  0  0 
  2  5  1  0  0  0  0 
  6  3  1  0  0  0  0 
  3  7  1  0  0  0  0 
  3 25  1  0  0  0  0 
  4  8  1  0  0  0  0 
  4  9  1  0  0  0  0 
  4 27  1  0  0  0  0 
  5 10  1  0  0  0  0 
 11  6  1  0  0  0  0 
  6 12  1  0  0  0  0 
  6 24  1  0  0  0  0 
  7 13  1  0  0  0  0 
  8 12  1  0  0  0  0 
 14  9  1  0  0  0  0 
 14 10  1  0  0  0  0 
 15 11  1  0  0  0  0 
 11 16  1  0  0  0  0 
 11 26  1  0  0  0  0 
 15 13  1  0  0  0  0 
 14 17  1  0  0  0  0 
 15 18  1  0  0  0  0 
 15 19  1  0  0  0  0 
 16 20  1  0  0  0  0 
 19 20  1  0  0  0  0 
 19 21  1  0  0  0  0 
 21 22  1  0  0  0  0 
 21 23  2  0  0  0  0 
  1 28  1  0  0  0  0 
  1 29  1  0  0  0  0 
  1 30  1  0  0  0  0 
  5 31  1  0  0  0  0 
  5 32  1  0  0  0  0 
  7 33  1  0  0  0  0 
  7 34  1  0  0  0  0 
  8 35  1  0  0  0  0 
  8 36  1  0  0  0  0 
  9 37  1  0  0  0  0 
  9 38  1  0  0  0  0 
 10 39  1  0  0  0  0 
 10 40  1  0  0  0  0 
 12 41  1  0  0  0  0 
 12 42  1  0  0  0  0 
 13 43  1  0  0  0  0 
 13 44  1  0  0  0  0 
 14 45  1  0  0  0  0 
 16 46  1  0  0  0  0 
 16 47  1  0  0  0  0 
 17 48  1  0  0  0  0 
 18 49  1  0  0  0  0 
 18 50  1  0  0  0  0 
 18 51  1  0  0  0  0 
 19 52  1  0  0  0  0 
 20 53  1  0  0  0  0 
 20 54  1  0  0  0  0 
 22 55  1  0  0  0  0 
 22 56  1  0  0  0  0 
 22 57  1  0  0  0  0 
M  END
> <cdk:Title>
eltanolone

> <Conformer>
1

> <SuperDrugID>
SD000885

$$$$
