sozoiodolic acid
  CDK     0628171801

 17 17  0  0  0  0  0  0  0  0999 V2000
   -0.9243   -0.0969    0.2637 S   0  0  2  0  0  0  0  0  0  0  0  0
   -0.7670    0.9202   -0.9662 O   0  0  0  0  0  0  0  0  0  0  0  0
   -1.0267    0.7493    1.6228 O   0  0  0  0  0  0  0  0  0  0  0  0
    0.4962   -1.0472    0.3425 O   0  0  0  0  0  0  0  0  0  0  0  0
   -2.3625   -1.1048    0.0549 C   0  0  0  0  0  0  0  0  0  0  0  0
   -2.2703   -2.5100   -0.0328 C   0  0  0  0  0  0  0  0  0  0  0  0
   -3.6283   -0.4895   -0.0210 C   0  0  0  0  0  0  0  0  0  0  0  0
   -3.4327   -3.2915   -0.1742 C   0  0  0  0  0  0  0  0  0  0  0  0
   -4.7930   -1.2667   -0.1617 C   0  0  0  0  0  0  0  0  0  0  0  0
   -3.2583   -5.3346   -0.3130 I   0  0  0  0  0  0  0  0  0  0  0  0
   -4.6978   -2.6724   -0.2199 C   0  0  0  0  0  0  0  0  0  0  0  0
   -6.6114   -0.3174   -0.2952 I   0  0  0  0  0  0  0  0  0  0  0  0
   -5.8103   -3.4386   -0.3171 O   0  0  0  0  0  0  0  0  0  0  0  0
    0.5255   -1.3687    1.2690 H   0  0  0  0  0  0  0  0  0  0  0  0
   -1.3608   -2.9733    0.0062 H   0  0  0  0  0  0  0  0  0  0  0  0
   -3.7082    0.5283    0.0255 H   0  0  0  0  0  0  0  0  0  0  0  0
   -6.5096   -2.9367    0.1503 H   0  0  0  0  0  0  0  0  0  0  0  0
  1  2  2  0  0  0  0 
  1  3  2  0  0  0  0 
  1  4  1  0  0  0  0 
  1  5  1  0  0  0  0 
  5  6  2  0  0  0  0 
  5  7  1  0  0  0  0 
  6  8  1  0  0  0  0 
  7  9  2  0  0  0  0 
  8 10  1  0  0  0  0 
  8 11  2  0  0  0  0 
  9 11  1  0  0  0  0 
  9 12  1  0  0  0  0 
 11 13  1  0  0  0  0 
  4 14  1  0  0  0  0 
  6 15  1  0  0  0  0 
  7 16  1  0  0  0  0 
 13 17  1  0  0  0  0 
M  END
> <cdk:Title>
sozoiodolic acid

> <Conformer>
1

> <SuperDrugID>
SD003268

$$$$
