lynestrenol
  CDK     0628171801

 49 52  0  0  0  0  0  0  0  0999 V2000
   -1.2151   -0.4711   -0.2454 C   0  0  0  0  0  0  0  0  0  0  0  0
   -1.1350    0.1692    1.1975 C   0  0  2  0  0  0  0  0  0  0  0  0
   -2.2381   -0.3302    2.1926 C   0  0  2  0  0  0  0  0  0  0  0  0
   -1.5149    1.6975    1.0804 C   0  0  1  0  0  0  0  0  0  0  0  0
    0.2625   -0.1898    1.8204 C   0  0  2  0  0  0  0  0  0  0  0  0
   -2.1773   -1.8737    2.4532 C   0  0  1  0  0  0  0  0  0  0  0  0
   -3.5391    0.3182    1.6661 C   0  0  1  0  0  0  0  0  0  0  0  0
   -1.0286    2.4926    2.1033 C   0  0  0  0  0  0  0  0  0  0  0  0
   -1.0273    2.3192   -0.1147 O   0  0  0  0  0  0  0  0  0  0  0  0
   -3.0823    1.6826    1.0781 C   0  0  2  0  0  0  0  0  0  0  0  0
    0.3973   -1.6989    2.1839 C   0  0  2  0  0  0  0  0  0  0  0  0
   -0.7768   -2.2417    3.0726 C   0  0  2  0  0  0  0  0  0  0  0  0
   -3.3059   -2.3821    3.3952 C   0  0  1  0  0  0  0  0  0  0  0  0
   -0.6064    3.1782    2.9853 C   0  0  0  0  0  0  0  0  0  0  0  0
   -0.6628   -3.7810    3.4026 C   0  0  2  0  0  0  0  0  0  0  0  0
   -3.1713   -3.9041    3.6544 C   0  0  2  0  0  0  0  0  0  0  0  0
   -1.8417   -4.2576    4.1697 C   0  0  0  0  0  0  0  0  0  0  0  0
    0.7118   -4.1157    4.0804 C   0  0  2  0  0  0  0  0  0  0  0  0
   -1.7319   -5.0183    5.2838 C   0  0  0  0  0  0  0  0  0  0  0  0
    0.6868   -5.4629    4.8321 C   0  0  2  0  0  0  0  0  0  0  0  0
   -0.4725   -5.4633    5.8551 C   0  0  1  0  0  0  0  0  0  0  0  0
   -2.3020   -2.3990    1.5039 H   0  0  0  0  0  0  0  0  0  0  0  0
   -0.7020   -1.7111    4.0296 H   0  0  0  0  0  0  0  0  0  0  0  0
   -2.0666    0.1373    3.1732 H   0  0  0  0  0  0  0  0  0  0  0  0
   -0.6841   -4.3263    2.4525 H   0  0  0  0  0  0  0  0  0  0  0  0
   -1.1260   -1.5542   -0.2320 H   0  0  0  0  0  0  0  0  0  0  0  0
   -0.4052   -0.0899   -0.8732 H   0  0  0  0  0  0  0  0  0  0  0  0
   -2.1538   -0.2319   -0.7487 H   0  0  0  0  0  0  0  0  0  0  0  0
    0.4275    0.3791    2.7377 H   0  0  0  0  0  0  0  0  0  0  0  0
    1.0626    0.0895    1.1297 H   0  0  0  0  0  0  0  0  0  0  0  0
   -3.9975   -0.3050    0.8927 H   0  0  0  0  0  0  0  0  0  0  0  0
   -4.2672    0.4614    2.4696 H   0  0  0  0  0  0  0  0  0  0  0  0
   -0.0515    2.2178   -0.0884 H   0  0  0  0  0  0  0  0  0  0  0  0
   -3.4629    1.7722    0.0553 H   0  0  0  0  0  0  0  0  0  0  0  0
   -3.5146    2.5098    1.6528 H   0  0  0  0  0  0  0  0  0  0  0  0
    1.3426   -1.8094    2.7179 H   0  0  0  0  0  0  0  0  0  0  0  0
    0.4774   -2.2919    1.2712 H   0  0  0  0  0  0  0  0  0  0  0  0
   -3.2615   -1.8496    4.3489 H   0  0  0  0  0  0  0  0  0  0  0  0
   -4.2836   -2.1878    2.9466 H   0  0  0  0  0  0  0  0  0  0  0  0
   -0.2756    3.7012    3.6683 H   0  0  0  0  0  0  0  0  0  0  0  0
   -3.3341   -4.4434    2.7168 H   0  0  0  0  0  0  0  0  0  0  0  0
   -3.9792   -4.1983    4.3322 H   0  0  0  0  0  0  0  0  0  0  0  0
    0.9799   -3.3328    4.7970 H   0  0  0  0  0  0  0  0  0  0  0  0
    1.5003   -4.1596    3.3260 H   0  0  0  0  0  0  0  0  0  0  0  0
   -2.5556   -5.3130    5.7596 H   0  0  0  0  0  0  0  0  0  0  0  0
    1.6381   -5.6196    5.3488 H   0  0  0  0  0  0  0  0  0  0  0  0
    0.5445   -6.2785    4.1175 H   0  0  0  0  0  0  0  0  0  0  0  0
   -0.2271   -4.8121    6.6982 H   0  0  0  0  0  0  0  0  0  0  0  0
   -0.5877   -6.4787    6.2438 H   0  0  0  0  0  0  0  0  0  0  0  0
  2  1  1  0  0  0  0 
  3  2  1  0  0  0  0 
  2  4  1  0  0  0  0 
  2  5  1  0  0  0  0 
  6  3  1  0  0  0  0 
  3  7  1  0  0  0  0 
  3 24  1  0  0  0  0 
  4  8  1  0  0  0  0 
  4  9  1  0  0  0  0 
  4 10  1  0  0  0  0 
  5 11  1  0  0  0  0 
 12  6  1  0  0  0  0 
  6 13  1  0  0  0  0 
  6 22  1  0  0  0  0 
  7 10  1  0  0  0  0 
  8 14  3  0  0  0  0 
 12 11  1  0  0  0  0 
 15 12  1  0  0  0  0 
 12 23  1  0  0  0  0 
 13 16  1  0  0  0  0 
 15 17  1  0  0  0  0 
 15 18  1  0  0  0  0 
 15 25  1  0  0  0  0 
 16 17  1  0  0  0  0 
 17 19  2  0  0  0  0 
 18 20  1  0  0  0  0 
 19 21  1  0  0  0  0 
 20 21  1  0  0  0  0 
  1 26  1  0  0  0  0 
  1 27  1  0  0  0  0 
  1 28  1  0  0  0  0 
  5 29  1  0  0  0  0 
  5 30  1  0  0  0  0 
  7 31  1  0  0  0  0 
  7 32  1  0  0  0  0 
  9 33  1  0  0  0  0 
 10 34  1  0  0  0  0 
 10 35  1  0  0  0  0 
 11 36  1  0  0  0  0 
 11 37  1  0  0  0  0 
 13 38  1  0  0  0  0 
 13 39  1  0  0  0  0 
 14 40  1  0  0  0  0 
 16 41  1  0  0  0  0 
 16 42  1  0  0  0  0 
 18 43  1  0  0  0  0 
 18 44  1  0  0  0  0 
 19 45  1  0  0  0  0 
 20 46  1  0  0  0  0 
 20 47  1  0  0  0  0 
 21 48  1  0  0  0  0 
 21 49  1  0  0  0  0 
M  END
> <cdk:Title>
lynestrenol

> <Conformer>
1

> <SuperDrugID>
SD001434

$$$$
