cupric chloride
  CDK     0628171801

  3  2  0  0  0  0  0  0  0  0999 V2000
    0.5532    0.7824    0.0000 Cu  0  0  0  0  0  0  0  0  0  0  0  0
   -1.4772    2.2163    0.0000 Cl  0  0  0  0  0  0  0  0  0  0  0  0
    2.5820   -0.6539    0.0000 Cl  0  0  0  0  0  0  0  0  0  0  0  0
  1  2  1  0  0  0  0 
  1  3  1  0  0  0  0 
M  END
> <cdk:Title>
cupric chloride

> <Conformer>
1

> <SuperDrugID>
SD003608

$$$$
