arotinolol
  CDK     0628171801

 44 45  0  0  0  0  0  0  0  0999 V2000
    2.2395    0.1798    0.4189 C   0  0  0  0  0  0  0  0  0  0  0  0
    1.3676    0.9439   -0.2650 N   0  0  0  0  0  0  0  0  0  0  0  0
    1.8266   -0.9061    0.8863 O   0  0  0  0  0  0  0  0  0  0  0  0
    3.5800    0.5674    0.6025 C   0  0  0  0  0  0  0  0  0  0  0  0
    4.7741   -0.2882    1.5640 S   0  0  0  0  0  0  0  0  0  0  0  0
    4.2448    1.6731    0.0504 C   0  0  0  0  0  0  0  0  0  0  0  0
    6.1259    0.7639    1.1805 C   0  0  0  0  0  0  0  0  0  0  0  0
    5.6137    1.7751    0.3557 C   0  0  0  0  0  0  0  0  0  0  0  0
    7.4640    0.5906    1.5783 C   0  0  0  0  0  0  0  0  0  0  0  0
    8.4594    1.3138    0.9920 N   0  0  0  0  0  0  0  0  0  0  0  0
    7.8857   -0.3310    2.5508 C   0  0  0  0  0  0  0  0  0  0  0  0
    9.7228    1.0683    1.3944 C   0  0  0  0  0  0  0  0  0  0  0  0
    9.6284   -0.1685    2.6343 S   0  0  0  0  0  0  0  0  0  0  0  0
   11.1821    1.7695    0.7303 S   0  0  0  0  0  0  0  0  0  0  0  0
   11.1960    3.5176    1.2598 C   0  0  1  0  0  0  0  0  0  0  0  0
   10.0433    4.4023    0.7062 C   0  0  2  0  0  0  0  0  0  0  0  0
   10.0484    4.5334   -0.8381 C   0  0  2  0  0  0  0  0  0  0  0  0
   10.1727    5.7020    1.2845 O   0  0  0  0  0  0  0  0  0  0  0  0
    8.9426    5.4212   -1.2791 N   0  0  1  0  0  0  0  0  0  0  0  0
    8.7040    5.6397   -2.7404 C   0  0  2  0  0  0  0  0  0  0  0  0
    8.2503    4.3196   -3.4420 C   0  0  0  0  0  0  0  0  0  0  0  0
    9.9629    6.2428   -3.4400 C   0  0  0  0  0  0  0  0  0  0  0  0
    7.5407    6.6768   -2.8345 C   0  0  0  0  0  0  0  0  0  0  0  0
    1.6456    1.7972   -0.6329 H   0  0  0  0  0  0  0  0  0  0  0  0
    0.4547    0.6443   -0.3929 H   0  0  0  0  0  0  0  0  0  0  0  0
    3.7799    2.3573   -0.5512 H   0  0  0  0  0  0  0  0  0  0  0  0
    6.1931    2.5349   -0.0118 H   0  0  0  0  0  0  0  0  0  0  0  0
    7.3132   -0.9712    3.1031 H   0  0  0  0  0  0  0  0  0  0  0  0
   11.1732    3.5311    2.3510 H   0  0  0  0  0  0  0  0  0  0  0  0
   12.1490    3.9474    0.9423 H   0  0  0  0  0  0  0  0  0  0  0  0
    9.0807    3.9995    1.0310 H   0  0  0  0  0  0  0  0  0  0  0  0
    9.9264    3.5435   -1.2761 H   0  0  0  0  0  0  0  0  0  0  0  0
   11.0111    4.9419   -1.1513 H   0  0  0  0  0  0  0  0  0  0  0  0
   10.1676    5.5551    2.2548 H   0  0  0  0  0  0  0  0  0  0  0  0
    8.0811    5.0309   -0.8926 H   0  0  0  0  0  0  0  0  0  0  0  0
    7.9553    4.5083   -4.4780 H   0  0  0  0  0  0  0  0  0  0  0  0
    9.0532    3.5807   -3.4520 H   0  0  0  0  0  0  0  0  0  0  0  0
    7.3960    3.8861   -2.9162 H   0  0  0  0  0  0  0  0  0  0  0  0
   10.3100    7.1233   -2.8958 H   0  0  0  0  0  0  0  0  0  0  0  0
    9.7367    6.5419   -4.4671 H   0  0  0  0  0  0  0  0  0  0  0  0
   10.7785    5.5184   -3.4701 H   0  0  0  0  0  0  0  0  0  0  0  0
    7.8129    7.6124   -2.3391 H   0  0  0  0  0  0  0  0  0  0  0  0
    6.6349    6.2914   -2.3586 H   0  0  0  0  0  0  0  0  0  0  0  0
    7.3036    6.9023   -3.8787 H   0  0  0  0  0  0  0  0  0  0  0  0
  1  2  1  0  0  0  0 
  1  3  2  0  0  0  0 
  1  4  1  0  0  0  0 
  4  5  1  0  0  0  0 
  4  6  2  0  0  0  0 
  5  7  1  0  0  0  0 
  6  8  1  0  0  0  0 
  7  8  2  0  0  0  0 
  7  9  1  0  0  0  0 
  9 10  1  0  0  0  0 
  9 11  2  0  0  0  0 
 10 12  2  0  0  0  0 
 11 13  1  0  0  0  0 
 12 13  1  0  0  0  0 
 12 14  1  0  0  0  0 
 14 15  1  0  0  0  0 
 16 15  1  0  0  0  0 
 16 17  1  0  0  0  0 
 16 18  1  0  0  0  0 
 17 19  1  0  0  0  0 
 19 20  1  0  0  0  0 
 20 21  1  0  0  0  0 
 20 22  1  0  0  0  0 
 20 23  1  0  0  0  0 
  2 24  1  0  0  0  0 
  2 25  1  0  0  0  0 
  6 26  1  0  0  0  0 
  8 27  1  0  0  0  0 
 11 28  1  0  0  0  0 
 15 29  1  0  0  0  0 
 15 30  1  0  0  0  0 
 16 31  1  0  0  0  0 
 17 32  1  0  0  0  0 
 17 33  1  0  0  0  0 
 18 34  1  0  0  0  0 
 19 35  1  0  0  0  0 
 21 36  1  0  0  0  0 
 21 37  1  0  0  0  0 
 21 38  1  0  0  0  0 
 22 39  1  0  0  0  0 
 22 40  1  0  0  0  0 
 22 41  1  0  0  0  0 
 23 42  1  0  0  0  0 
 23 43  1  0  0  0  0 
 23 44  1  0  0  0  0 
M  END
> <cdk:Title>
arotinolol

> <Conformer>
1

> <SuperDrugID>
SD000200

$$$$
