talampicillin
  CDK     0628171801

 57 61  0  0  0  0  0  0  0  0999 V2000
   -4.3362   -1.0895    1.4892 C   0  0  0  0  0  0  0  0  0  0  0  0
   -3.0524   -1.5254    1.2861 O   0  0  0  0  0  0  0  0  0  0  0  0
   -5.2506   -1.4565    0.7129 O   0  0  0  0  0  0  0  0  0  0  0  0
   -4.6496   -0.1664    2.6127 C   0  0  2  0  0  0  0  0  0  0  0  0
   -2.6020   -2.2812    0.1482 C   0  0  1  0  0  0  0  0  0  0  0  0
   -5.7969   -0.6083    3.3321 N   0  0  0  0  0  0  0  0  0  0  0  0
   -5.0558    1.3089    2.2043 C   0  0  2  0  0  0  0  0  0  0  0  0
   -1.2007   -2.7187    0.2492 C   0  0  0  0  0  0  0  0  0  0  0  0
   -3.2726   -3.5429   -0.0289 O   0  0  0  0  0  0  0  0  0  0  0  0
   -7.1383   -0.3526    2.9844 C   0  0  2  0  0  0  0  0  0  0  0  0
   -6.0456   -1.0229    4.5730 C   0  0  0  0  0  0  0  0  0  0  0  0
   -6.8753    1.3836    2.4957 S   0  0  0  0  0  0  0  0  0  0  0  0
   -1.1133   -4.0959    0.0510 C   0  0  0  0  0  0  0  0  0  0  0  0
   -0.0360   -1.9574    0.4652 C   0  0  0  0  0  0  0  0  0  0  0  0
   -2.3987   -4.5790   -0.1143 C   0  0  0  0  0  0  0  0  0  0  0  0
   -7.4871   -0.8161    4.4385 C   0  0  1  0  0  0  0  0  0  0  0  0
   -5.3159   -1.3529    5.5338 O   0  0  0  0  0  0  0  0  0  0  0  0
    0.1256   -4.7626    0.0277 C   0  0  0  0  0  0  0  0  0  0  0  0
    1.2168   -2.6097    0.4456 C   0  0  0  0  0  0  0  0  0  0  0  0
   -2.7137   -5.7718   -0.3208 O   0  0  0  0  0  0  0  0  0  0  0  0
   -8.0276    0.1534    5.3401 N   0  0  0  0  0  0  0  0  0  0  0  0
    1.2976   -4.0028    0.2191 C   0  0  0  0  0  0  0  0  0  0  0  0
   -9.2374    0.7615    5.1763 C   0  0  0  0  0  0  0  0  0  0  0  0
   -9.7775    1.6767    6.2108 C   0  0  2  0  0  0  0  0  0  0  0  0
   -9.9217    0.5538    4.1457 O   0  0  0  0  0  0  0  0  0  0  0  0
   -8.8617    2.8044    6.4394 N   0  0  1  0  0  0  0  0  0  0  0  0
  -10.1326    0.9428    7.4633 C   0  0  0  0  0  0  0  0  0  0  0  0
   -9.2212    0.8001    8.5404 C   0  0  0  0  0  0  0  0  0  0  0  0
  -11.4200    0.3617    7.5935 C   0  0  0  0  0  0  0  0  0  0  0  0
   -9.5949    0.1216    9.7159 C   0  0  0  0  0  0  0  0  0  0  0  0
  -11.7912   -0.3200    8.7676 C   0  0  0  0  0  0  0  0  0  0  0  0
  -10.8784   -0.4419    9.8298 C   0  0  0  0  0  0  0  0  0  0  0  0
   -7.5004   -1.0059    2.1843 H   0  0  0  0  0  0  0  0  0  0  0  0
   -4.7849    1.7033    0.7176 C   0  0  0  0  0  0  0  0  0  0  0  0
   -4.3733    2.3583    3.1368 C   0  0  0  0  0  0  0  0  0  0  0  0
   -3.7879   -0.1612    3.2897 H   0  0  0  0  0  0  0  0  0  0  0  0
   -2.7324   -1.6749   -0.7513 H   0  0  0  0  0  0  0  0  0  0  0  0
   -0.0946   -0.9504    0.6292 H   0  0  0  0  0  0  0  0  0  0  0  0
   -8.0286   -1.7664    4.4700 H   0  0  0  0  0  0  0  0  0  0  0  0
    0.1772   -5.7726   -0.1275 H   0  0  0  0  0  0  0  0  0  0  0  0
    2.0727   -2.0716    0.5947 H   0  0  0  0  0  0  0  0  0  0  0  0
   -7.5189    0.3600    6.1407 H   0  0  0  0  0  0  0  0  0  0  0  0
    2.2106   -4.4645    0.1965 H   0  0  0  0  0  0  0  0  0  0  0  0
  -10.6873    2.1474    5.8238 H   0  0  0  0  0  0  0  0  0  0  0  0
   -9.2635    3.3581    7.2011 H   0  0  0  0  0  0  0  0  0  0  0  0
   -7.9798    2.4192    6.7834 H   0  0  0  0  0  0  0  0  0  0  0  0
   -8.2766    1.1893    8.4823 H   0  0  0  0  0  0  0  0  0  0  0  0
  -12.1006    0.4344    6.8317 H   0  0  0  0  0  0  0  0  0  0  0  0
   -8.9331    0.0402   10.4913 H   0  0  0  0  0  0  0  0  0  0  0  0
  -12.7278   -0.7235    8.8513 H   0  0  0  0  0  0  0  0  0  0  0  0
  -11.1481   -0.9367   10.6842 H   0  0  0  0  0  0  0  0  0  0  0  0
   -5.3889    1.1040    0.0337 H   0  0  0  0  0  0  0  0  0  0  0  0
   -3.7317    1.5567    0.4700 H   0  0  0  0  0  0  0  0  0  0  0  0
   -5.0340    2.7517    0.5401 H   0  0  0  0  0  0  0  0  0  0  0  0
   -4.6201    2.1744    4.1844 H   0  0  0  0  0  0  0  0  0  0  0  0
   -3.2876    2.3091    3.0292 H   0  0  0  0  0  0  0  0  0  0  0  0
   -4.6904    3.3738    2.8879 H   0  0  0  0  0  0  0  0  0  0  0  0
  1  2  1  0  0  0  0 
  1  3  2  0  0  0  0 
  2  5  1  0  0  0  0 
  4  1  1  0  0  0  0 
  4  6  1  0  0  0  0 
  4  7  1  0  0  0  0 
  5  8  1  0  0  0  0 
  5  9  1  0  0  0  0 
 10  6  1  0  0  0  0 
  6 11  1  0  0  0  0 
  7 12  1  0  0  0  0 
  8 13  2  0  0  0  0 
  8 14  1  0  0  0  0 
  9 15  1  0  0  0  0 
 10 12  1  0  0  0  0 
 10 16  1  0  0  0  0 
 10 33  1  0  0  0  0 
 16 11  1  0  0  0  0 
 11 17  2  0  0  0  0 
 13 15  1  0  0  0  0 
 13 18  1  0  0  0  0 
 14 19  2  0  0  0  0 
 15 20  2  0  0  0  0 
 16 21  1  0  0  0  0 
 18 22  2  0  0  0  0 
 19 22  1  0  0  0  0 
 21 23  1  0  0  0  0 
 24 23  1  0  0  0  0 
 23 25  2  0  0  0  0 
 24 26  1  0  0  0  0 
 24 27  1  0  0  0  0 
 27 28  2  0  0  0  0 
 27 29  1  0  0  0  0 
 28 30  1  0  0  0  0 
 29 31  2  0  0  0  0 
 30 32  2  0  0  0  0 
 31 32  1  0  0  0  0 
  7 34  1  0  0  0  0 
  7 35  1  0  0  0  0 
  4 36  1  0  0  0  0 
  5 37  1  0  0  0  0 
 14 38  1  0  0  0  0 
 16 39  1  0  0  0  0 
 18 40  1  0  0  0  0 
 19 41  1  0  0  0  0 
 21 42  1  0  0  0  0 
 22 43  1  0  0  0  0 
 24 44  1  0  0  0  0 
 26 45  1  0  0  0  0 
 26 46  1  0  0  0  0 
 28 47  1  0  0  0  0 
 29 48  1  0  0  0  0 
 30 49  1  0  0  0  0 
 31 50  1  0  0  0  0 
 32 51  1  0  0  0  0 
 34 52  1  0  0  0  0 
 34 53  1  0  0  0  0 
 34 54  1  0  0  0  0 
 35 55  1  0  0  0  0 
 35 56  1  0  0  0  0 
 35 57  1  0  0  0  0 
M  END
> <cdk:Title>
talampicillin

> <Conformer>
1

> <SuperDrugID>
SD002298

$$$$
