droprenilamine
  CDK     0628171801

 58 60  0  0  0  0  0  0  0  0999 V2000
   -2.7034   -2.8143   -2.4115 C   0  0  2  0  0  0  0  0  0  0  0  0
   -1.1640   -3.0096   -2.6396 C   0  0  2  0  0  0  0  0  0  0  0  0
   -3.1146   -3.1335   -1.0056 C   0  0  0  0  0  0  0  0  0  0  0  0
   -3.6051   -3.5167   -3.3930 C   0  0  0  0  0  0  0  0  0  0  0  0
   -0.2266   -2.2960   -1.6277 C   0  0  2  0  0  0  0  0  0  0  0  0
   -3.5704   -2.1051   -0.1440 C   0  0  0  0  0  0  0  0  0  0  0  0
   -3.0253   -4.4498   -0.4870 C   0  0  0  0  0  0  0  0  0  0  0  0
   -3.3138   -4.7995   -3.9293 C   0  0  0  0  0  0  0  0  0  0  0  0
   -4.8213   -2.8996   -3.7900 C   0  0  0  0  0  0  0  0  0  0  0  0
   -0.5160   -0.8472   -1.5728 N   0  0  1  0  0  0  0  0  0  0  0  0
   -3.9150   -2.3777    1.1918 C   0  0  0  0  0  0  0  0  0  0  0  0
   -3.3759   -4.7254    0.8485 C   0  0  0  0  0  0  0  0  0  0  0  0
   -4.1899   -5.4262   -4.8353 C   0  0  0  0  0  0  0  0  0  0  0  0
   -5.6985   -3.5275   -4.6943 C   0  0  0  0  0  0  0  0  0  0  0  0
    0.2986   -0.0204   -0.6419 C   0  0  1  0  0  0  0  0  0  0  0  0
   -3.8193   -3.6887    1.6883 C   0  0  0  0  0  0  0  0  0  0  0  0
   -5.3833   -4.7923   -5.2178 C   0  0  0  0  0  0  0  0  0  0  0  0
    0.1284    1.4814   -1.0310 C   0  0  1  0  0  0  0  0  0  0  0  0
   -0.1212   -0.2621    0.8361 C   0  0  0  0  0  0  0  0  0  0  0  0
    0.5046    1.8709   -2.5016 C   0  0  2  0  0  0  0  0  0  0  0  0
    2.3681    1.9618   -4.3030 C   0  0  2  0  0  0  0  0  0  0  0  0
    1.9772    1.5031   -2.8733 C   0  0  1  0  0  0  0  0  0  0  0  0
    0.2433    3.3908   -2.7528 C   0  0  1  0  0  0  0  0  0  0  0  0
    0.6301    3.8375   -4.1882 C   0  0  2  0  0  0  0  0  0  0  0  0
    2.0974    3.4703   -4.5261 C   0  0  2  0  0  0  0  0  0  0  0  0
   -2.8516   -1.7433   -2.5899 H   0  0  0  0  0  0  0  0  0  0  0  0
   -0.9149   -2.6469   -3.6418 H   0  0  0  0  0  0  0  0  0  0  0  0
   -0.9058   -4.0688   -2.5990 H   0  0  0  0  0  0  0  0  0  0  0  0
    0.8107   -2.4431   -1.9440 H   0  0  0  0  0  0  0  0  0  0  0  0
   -0.3482   -2.7512   -0.6424 H   0  0  0  0  0  0  0  0  0  0  0  0
   -3.6440   -1.1422   -0.4803 H   0  0  0  0  0  0  0  0  0  0  0  0
   -2.6952   -5.2165   -1.0762 H   0  0  0  0  0  0  0  0  0  0  0  0
   -2.4654   -5.3035   -3.6657 H   0  0  0  0  0  0  0  0  0  0  0  0
   -5.0810   -1.9818   -3.4159 H   0  0  0  0  0  0  0  0  0  0  0  0
   -0.3238   -0.5033   -2.5130 H   0  0  0  0  0  0  0  0  0  0  0  0
   -4.2346   -1.6222    1.8030 H   0  0  0  0  0  0  0  0  0  0  0  0
   -3.3075   -5.6788    1.2127 H   0  0  0  0  0  0  0  0  0  0  0  0
   -3.9572   -6.3465   -5.2143 H   0  0  0  0  0  0  0  0  0  0  0  0
   -6.5674   -3.0639   -4.9685 H   0  0  0  0  0  0  0  0  0  0  0  0
    1.3574   -0.2790   -0.7271 H   0  0  0  0  0  0  0  0  0  0  0  0
   -4.0676   -3.8860    2.6620 H   0  0  0  0  0  0  0  0  0  0  0  0
   -6.0225   -5.2489   -5.8740 H   0  0  0  0  0  0  0  0  0  0  0  0
   -0.9193    1.7469   -0.8633 H   0  0  0  0  0  0  0  0  0  0  0  0
    0.7323    2.0884   -0.3500 H   0  0  0  0  0  0  0  0  0  0  0  0
    0.3895    0.4314    1.5073 H   0  0  0  0  0  0  0  0  0  0  0  0
    0.1348   -1.2736    1.1543 H   0  0  0  0  0  0  0  0  0  0  0  0
   -1.1969   -0.1264    0.9542 H   0  0  0  0  0  0  0  0  0  0  0  0
   -0.1610    1.3252   -3.1768 H   0  0  0  0  0  0  0  0  0  0  0  0
    1.7990    1.3814   -5.0337 H   0  0  0  0  0  0  0  0  0  0  0  0
    3.4276    1.7554   -4.4706 H   0  0  0  0  0  0  0  0  0  0  0  0
    2.6615    1.9577   -2.1513 H   0  0  0  0  0  0  0  0  0  0  0  0
    2.1127    0.4204   -2.8249 H   0  0  0  0  0  0  0  0  0  0  0  0
   -0.8166    3.6117   -2.5961 H   0  0  0  0  0  0  0  0  0  0  0  0
    0.8139    3.9854   -2.0337 H   0  0  0  0  0  0  0  0  0  0  0  0
    0.4950    4.9182   -4.2782 H   0  0  0  0  0  0  0  0  0  0  0  0
   -0.0387    3.3608   -4.9097 H   0  0  0  0  0  0  0  0  0  0  0  0
    2.3024    3.7202   -5.5692 H   0  0  0  0  0  0  0  0  0  0  0  0
    2.7731    4.0608   -3.9034 H   0  0  0  0  0  0  0  0  0  0  0  0
  1  2  1  0  0  0  0 
  1  3  1  0  0  0  0 
  1  4  1  0  0  0  0 
  2  5  1  0  0  0  0 
  3  6  2  0  0  0  0 
  3  7  1  0  0  0  0 
  4  8  2  0  0  0  0 
  4  9  1  0  0  0  0 
  5 10  1  0  0  0  0 
  6 11  1  0  0  0  0 
  7 12  2  0  0  0  0 
  8 13  1  0  0  0  0 
  9 14  2  0  0  0  0 
 15 10  1  0  0  0  0 
 11 16  2  0  0  0  0 
 12 16  1  0  0  0  0 
 13 17  2  0  0  0  0 
 14 17  1  0  0  0  0 
 15 18  1  0  0  0  0 
 15 19  1  0  0  0  0 
 18 20  1  0  0  0  0 
 21 22  1  0  0  0  0 
 23 24  1  0  0  0  0 
 24 25  1  0  0  0  0 
 21 25  1  0  0  0  0 
 22 20  1  0  0  0  0 
 20 23  1  0  0  0  0 
  1 26  1  0  0  0  0 
  2 27  1  0  0  0  0 
  2 28  1  0  0  0  0 
  5 29  1  0  0  0  0 
  5 30  1  0  0  0  0 
  6 31  1  0  0  0  0 
  7 32  1  0  0  0  0 
  8 33  1  0  0  0  0 
  9 34  1  0  0  0  0 
 10 35  1  0  0  0  0 
 11 36  1  0  0  0  0 
 12 37  1  0  0  0  0 
 13 38  1  0  0  0  0 
 14 39  1  0  0  0  0 
 15 40  1  0  0  0  0 
 16 41  1  0  0  0  0 
 17 42  1  0  0  0  0 
 18 43  1  0  0  0  0 
 18 44  1  0  0  0  0 
 19 45  1  0  0  0  0 
 19 46  1  0  0  0  0 
 19 47  1  0  0  0  0 
 20 48  1  0  0  0  0 
 21 49  1  0  0  0  0 
 21 50  1  0  0  0  0 
 22 51  1  0  0  0  0 
 22 52  1  0  0  0  0 
 23 53  1  0  0  0  0 
 23 54  1  0  0  0  0 
 24 55  1  0  0  0  0 
 24 56  1  0  0  0  0 
 25 57  1  0  0  0  0 
 25 58  1  0  0  0  0 
M  END
> <cdk:Title>
droprenilamine

> <Conformer>
1

> <SuperDrugID>
SD002742

$$$$
