dobutamine
  CDK     0628171802

 45 46  0  0  0  0  0  0  0  0999 V2000
    1.1545   -2.5278    3.6813 C   0  0  0  0  0  0  0  0  0  0  0  0
    0.5876   -2.2805    2.2576 C   0  0  1  0  0  0  0  0  0  0  0  0
   -0.7423   -3.0628    1.9989 C   0  0  2  0  0  0  0  0  0  0  0  0
   -0.5845   -4.6120    1.9734 C   0  0  2  0  0  0  0  0  0  0  0  0
   -1.7905   -5.3005    1.4351 C   0  0  0  0  0  0  0  0  0  0  0  0
   -1.8986   -5.5939    0.0545 C   0  0  0  0  0  0  0  0  0  0  0  0
   -3.0450   -6.2305   -0.4576 C   0  0  0  0  0  0  0  0  0  0  0  0
   -4.1028   -6.5812    0.4016 C   0  0  0  0  0  0  0  0  0  0  0  0
   -5.2061   -7.1812   -0.1112 O   0  0  0  0  0  0  0  0  0  0  0  0
   -4.0013   -6.3048    1.7792 C   0  0  0  0  0  0  0  0  0  0  0  0
   -2.8547   -5.6681    2.2910 C   0  0  0  0  0  0  0  0  0  0  0  0
    0.4197   -0.8043    2.1214 N   0  0  2  0  0  0  0  0  0  0  0  0
    0.2558   -0.2103    0.7705 C   0  0  2  0  0  0  0  0  0  0  0  0
    1.5089   -0.2547   -0.1451 C   0  0  1  0  0  0  0  0  0  0  0  0
    2.6589    0.5562    0.3469 C   0  0  0  0  0  0  0  0  0  0  0  0
    2.8091    1.9054   -0.0513 C   0  0  0  0  0  0  0  0  0  0  0  0
    3.9138    2.6646    0.3738 C   0  0  0  0  0  0  0  0  0  0  0  0
    4.8981    2.0870    1.1951 C   0  0  0  0  0  0  0  0  0  0  0  0
    5.9623    2.8486    1.5573 O   0  0  0  0  0  0  0  0  0  0  0  0
    4.7631    0.7441    1.6062 C   0  0  0  0  0  0  0  0  0  0  0  0
    5.7144    0.1753    2.3910 O   0  0  0  0  0  0  0  0  0  0  0  0
    3.6447   -0.0092    1.1901 C   0  0  0  0  0  0  0  0  0  0  0  0
    2.0943   -1.9860    3.8101 H   0  0  0  0  0  0  0  0  0  0  0  0
    0.4483   -2.1820    4.4398 H   0  0  0  0  0  0  0  0  0  0  0  0
    1.3588   -3.5862    3.8474 H   0  0  0  0  0  0  0  0  0  0  0  0
    1.3390   -2.6281    1.5443 H   0  0  0  0  0  0  0  0  0  0  0  0
   -1.1412   -2.7609    1.0284 H   0  0  0  0  0  0  0  0  0  0  0  0
   -1.4816   -2.7874    2.7574 H   0  0  0  0  0  0  0  0  0  0  0  0
   -0.3836   -4.9790    2.9826 H   0  0  0  0  0  0  0  0  0  0  0  0
    0.2835   -4.8795    1.3649 H   0  0  0  0  0  0  0  0  0  0  0  0
   -1.1429   -5.3447   -0.5898 H   0  0  0  0  0  0  0  0  0  0  0  0
   -3.1079   -6.4335   -1.4580 H   0  0  0  0  0  0  0  0  0  0  0  0
   -5.8833   -7.1447    0.5966 H   0  0  0  0  0  0  0  0  0  0  0  0
   -4.7595   -6.5650    2.4133 H   0  0  0  0  0  0  0  0  0  0  0  0
   -2.8012   -5.4744    3.2943 H   0  0  0  0  0  0  0  0  0  0  0  0
    1.2455   -0.3634    2.5316 H   0  0  0  0  0  0  0  0  0  0  0  0
   -0.0299    0.8336    0.9148 H   0  0  0  0  0  0  0  0  0  0  0  0
   -0.5784   -0.6853    0.2543 H   0  0  0  0  0  0  0  0  0  0  0  0
    1.8217   -1.2890   -0.2972 H   0  0  0  0  0  0  0  0  0  0  0  0
    1.2123    0.1108   -1.1327 H   0  0  0  0  0  0  0  0  0  0  0  0
    2.1209    2.3431   -0.6688 H   0  0  0  0  0  0  0  0  0  0  0  0
    4.0034    3.6377    0.0750 H   0  0  0  0  0  0  0  0  0  0  0  0
    6.5696    2.2573    2.0466 H   0  0  0  0  0  0  0  0  0  0  0  0
    5.5406   -0.7901    2.3721 H   0  0  0  0  0  0  0  0  0  0  0  0
    3.5574   -0.9805    1.5001 H   0  0  0  0  0  0  0  0  0  0  0  0
  2  1  1  0  0  0  0 
  2  3  1  0  0  0  0 
  3  4  1  0  0  0  0 
  4  5  1  0  0  0  0 
  5  6  2  0  0  0  0 
  6  7  1  0  0  0  0 
  7  8  2  0  0  0  0 
  8  9  1  0  0  0  0 
  8 10  1  0  0  0  0 
 10 11  2  0  0  0  0 
  5 11  1  0  0  0  0 
  2 12  1  0  0  0  0 
 12 13  1  0  0  0  0 
 13 14  1  0  0  0  0 
 14 15  1  0  0  0  0 
 15 16  2  0  0  0  0 
 16 17  1  0  0  0  0 
 17 18  2  0  0  0  0 
 18 19  1  0  0  0  0 
 18 20  1  0  0  0  0 
 20 21  1  0  0  0  0 
 20 22  2  0  0  0  0 
 15 22  1  0  0  0  0 
  1 23  1  0  0  0  0 
  1 24  1  0  0  0  0 
  1 25  1  0  0  0  0 
  2 26  1  0  0  0  0 
  3 27  1  0  0  0  0 
  3 28  1  0  0  0  0 
  4 29  1  0  0  0  0 
  4 30  1  0  0  0  0 
  6 31  1  0  0  0  0 
  7 32  1  0  0  0  0 
  9 33  1  0  0  0  0 
 10 34  1  0  0  0  0 
 11 35  1  0  0  0  0 
 12 36  1  0  0  0  0 
 13 37  1  0  0  0  0 
 13 38  1  0  0  0  0 
 14 39  1  0  0  0  0 
 14 40  1  0  0  0  0 
 16 41  1  0  0  0  0 
 17 42  1  0  0  0  0 
 19 43  1  0  0  0  0 
 21 44  1  0  0  0  0 
 22 45  1  0  0  0  0 
M  END
> <cdk:Title>
dobutamine

> <Conformer>
1

> <SuperDrugID>
SD000832

$$$$
