ledipasvir
  CDK     0628171802

119128  0  0  0  0  0  0  0  0999 V2000
    8.7943   23.3252    6.0597 C   0  0  0  0  0  0  0  0  0  0  0  0
    9.5038   22.2692    6.6659 C   0  0  0  0  0  0  0  0  0  0  0  0
    9.3749   22.0094    8.0564 C   0  0  0  0  0  0  0  0  0  0  0  0
    8.4945   22.8007    8.8411 C   0  0  0  0  0  0  0  0  0  0  0  0
    7.7840   23.8387    8.2139 C   0  0  0  0  0  0  0  0  0  0  0  0
    7.9441   24.1002    6.8606 C   0  0  0  0  0  0  0  0  0  0  0  0
    6.8891   24.7233    8.6723 N   0  0  0  0  0  0  0  0  0  0  0  0
    6.4992   25.5047    7.6408 C   0  0  0  0  0  0  0  0  0  0  0  0
    7.1703   25.1382    6.5296 N   0  0  0  0  0  0  0  0  0  0  0  0
   10.1628   20.9939    8.6487 C   0  0  0  0  0  0  0  0  0  0  0  0
   11.1539   21.3455    9.5966 C   0  0  0  0  0  0  0  0  0  0  0  0
   11.9888   20.3459   10.1287 C   0  0  0  0  0  0  0  0  0  0  0  0
   11.8255   19.0079    9.7544 C   0  0  0  0  0  0  0  0  0  0  0  0
   10.8295   18.6311    8.8344 C   0  0  0  0  0  0  0  0  0  0  0  0
   10.0055   19.6332    8.2781 C   0  0  0  0  0  0  0  0  0  0  0  0
   12.7760   18.2493   10.4321 C   0  0  0  0  0  0  0  0  0  0  0  0
   13.5414   19.1184   11.2171 C   0  0  0  0  0  0  0  0  0  0  0  0
   13.0923   20.5176   11.0874 C   0  0  2  0  0  0  0  0  0  0  0  0
   14.5770   18.6186   12.0298 C   0  0  0  0  0  0  0  0  0  0  0  0
   14.8064   17.2207   12.0957 C   0  0  0  0  0  0  0  0  0  0  0  0
   14.0290   16.3548   11.2833 C   0  0  0  0  0  0  0  0  0  0  0  0
   13.0217   16.8636   10.4357 C   0  0  0  0  0  0  0  0  0  0  0  0
    5.4620   26.5771    7.6494 C   0  0  2  0  0  0  0  0  0  0  0  0
    3.7481   27.9587    8.9733 C   0  0  1  0  0  0  0  0  0  0  0  0
    4.6671   26.7021    8.9885 C   0  0  1  0  0  0  0  0  0  0  0  0
    4.3668   26.2679    6.7528 N   0  0  0  0  0  0  0  0  0  0  0  0
    3.1481   26.1406    7.5222 C   0  0  2  0  0  0  0  0  0  0  0  0
    2.6813   27.5666    7.9188 C   0  0  1  0  0  0  0  0  0  0  0  0
    4.4957   26.1280    5.3807 C   0  0  0  0  0  0  0  0  0  0  0  0
    5.5148   26.6000    4.8203 O   0  0  0  0  0  0  0  0  0  0  0  0
    3.5516   25.3726    4.5014 C   0  0  1  0  0  0  0  0  0  0  0  0
    3.2545   24.1171    5.1354 N   0  0  0  0  0  0  0  0  0  0  0  0
    4.1468   23.1231    5.3995 C   0  0  0  0  0  0  0  0  0  0  0  0
    3.7301   22.0854    6.1812 O   0  0  0  0  0  0  0  0  0  0  0  0
    5.3251   23.1690    4.9724 O   0  0  0  0  0  0  0  0  0  0  0  0
    4.5359   20.9898    6.6332 C   0  0  0  0  0  0  0  0  0  0  0  0
    2.2573   26.1747    4.1209 C   0  0  2  0  0  0  0  0  0  0  0  0
    1.2951   25.3364    3.2279 C   0  0  0  0  0  0  0  0  0  0  0  0
    2.5955   27.5163    3.4079 C   0  0  0  0  0  0  0  0  0  0  0  0
    3.6437   25.5624    8.8524 C   0  0  2  0  0  0  0  0  0  0  0  0
   12.6356   21.0141   12.2864 F   0  0  0  0  0  0  0  0  0  0  0  0
   14.0825   21.3206   10.5753 F   0  0  0  0  0  0  0  0  0  0  0  0
   15.7412   16.6998   13.0202 C   0  0  0  0  0  0  0  0  0  0  0  0
   15.5428   15.6070   13.7777 N   0  0  0  0  0  0  0  0  0  0  0  0
   16.5923   15.5017   14.6173 C   0  0  0  0  0  0  0  0  0  0  0  0
   17.4707   16.4834   14.3645 N   0  0  0  0  0  0  0  0  0  0  0  0
   16.9751   17.2380   13.3807 C   0  0  0  0  0  0  0  0  0  0  0  0
   16.7039   14.5177   15.7213 C   0  0  1  0  0  0  0  0  0  0  0  0
   15.4452   14.3438   16.4243 N   0  0  0  0  0  0  0  0  0  0  0  0
   15.0220   12.9735   16.4890 C   0  0  2  0  0  0  0  0  0  0  0  0
   16.2707   12.2076   16.0468 C   0  0  2  0  0  0  0  0  0  0  0  0
   17.1588   13.1283   15.2107 C   0  0  1  0  0  0  0  0  0  0  0  0
   14.7331   15.4144   16.9600 C   0  0  0  0  0  0  0  0  0  0  0  0
   15.2760   16.5474   16.9728 O   0  0  0  0  0  0  0  0  0  0  0  0
   13.3399   15.3729   17.5051 C   0  0  1  0  0  0  0  0  0  0  0  0
   12.4997   14.6532   16.5897 N   0  0  0  0  0  0  0  0  0  0  0  0
   13.2466   14.8405   18.9769 C   0  0  1  0  0  0  0  0  0  0  0  0
   14.0666   15.7135   19.9713 C   0  0  0  0  0  0  0  0  0  0  0  0
   11.7771   14.7215   19.4718 C   0  0  0  0  0  0  0  0  0  0  0  0
   11.9720   15.1754   15.4552 C   0  0  0  0  0  0  0  0  0  0  0  0
   12.2409   16.4635   15.0955 O   0  0  0  0  0  0  0  0  0  0  0  0
   11.2232   14.4508   14.7602 O   0  0  0  0  0  0  0  0  0  0  0  0
   11.6734   17.1672   13.9949 C   0  0  0  0  0  0  0  0  0  0  0  0
   16.1960   10.7023   15.7446 C   0  0  1  0  0  0  0  0  0  0  0  0
   16.9206   11.1904   17.0080 C   0  0  2  0  0  0  0  0  0  0  0  0
    8.8928   23.5220    5.0613 H   0  0  0  0  0  0  0  0  0  0  0  0
   10.1280   21.7023    6.0858 H   0  0  0  0  0  0  0  0  0  0  0  0
    8.3732   22.6292    9.8427 H   0  0  0  0  0  0  0  0  0  0  0  0
    6.5655   24.7820    9.5849 H   0  0  0  0  0  0  0  0  0  0  0  0
   11.2868   22.3195    9.8831 H   0  0  0  0  0  0  0  0  0  0  0  0
   10.7027   17.6521    8.5686 H   0  0  0  0  0  0  0  0  0  0  0  0
    9.2923   19.3637    7.5960 H   0  0  0  0  0  0  0  0  0  0  0  0
   15.1276   19.2714   12.5927 H   0  0  0  0  0  0  0  0  0  0  0  0
   14.1831   15.3433   11.3092 H   0  0  0  0  0  0  0  0  0  0  0  0
   12.4692   16.2309    9.8542 H   0  0  0  0  0  0  0  0  0  0  0  0
    5.9326   27.5305    7.3877 H   0  0  0  0  0  0  0  0  0  0  0  0
    3.2889   28.1150    9.9540 H   0  0  0  0  0  0  0  0  0  0  0  0
    4.2948   28.8609    8.6881 H   0  0  0  0  0  0  0  0  0  0  0  0
    5.2856   26.6432    9.8880 H   0  0  0  0  0  0  0  0  0  0  0  0
    2.3516   25.5364    7.0891 H   0  0  0  0  0  0  0  0  0  0  0  0
    1.6781   27.5441    8.3547 H   0  0  0  0  0  0  0  0  0  0  0  0
    2.6860   28.2450    7.0610 H   0  0  0  0  0  0  0  0  0  0  0  0
    4.0590   25.1413    3.5559 H   0  0  0  0  0  0  0  0  0  0  0  0
    2.3482   23.9933    5.4554 H   0  0  0  0  0  0  0  0  0  0  0  0
    3.9310   20.3421    7.2687 H   0  0  0  0  0  0  0  0  0  0  0  0
    5.3839   21.3567    7.2140 H   0  0  0  0  0  0  0  0  0  0  0  0
    4.9002   20.4093    5.7856 H   0  0  0  0  0  0  0  0  0  0  0  0
    1.7058   26.4246    5.0297 H   0  0  0  0  0  0  0  0  0  0  0  0
    0.9747   24.4300    3.7449 H   0  0  0  0  0  0  0  0  0  0  0  0
    0.3990   25.9123    2.9858 H   0  0  0  0  0  0  0  0  0  0  0  0
    1.7871   25.0498    2.2960 H   0  0  0  0  0  0  0  0  0  0  0  0
    3.1953   28.1589    4.0552 H   0  0  0  0  0  0  0  0  0  0  0  0
    1.6821   28.0602    3.1580 H   0  0  0  0  0  0  0  0  0  0  0  0
    3.1544   27.3281    2.4883 H   0  0  0  0  0  0  0  0  0  0  0  0
    2.8826   25.5441    9.6409 H   0  0  0  0  0  0  0  0  0  0  0  0
    4.0842   24.5658    8.7464 H   0  0  0  0  0  0  0  0  0  0  0  0
   18.3095   16.6304   14.8277 H   0  0  0  0  0  0  0  0  0  0  0  0
   17.4217   18.0659   12.9811 H   0  0  0  0  0  0  0  0  0  0  0  0
   17.4497   14.8775   16.4390 H   0  0  0  0  0  0  0  0  0  0  0  0
   14.2066   12.7829   15.7875 H   0  0  0  0  0  0  0  0  0  0  0  0
   14.7308   12.6692   17.4918 H   0  0  0  0  0  0  0  0  0  0  0  0
   16.9300   12.9770   14.1509 H   0  0  0  0  0  0  0  0  0  0  0  0
   18.2262   12.9656   15.3823 H   0  0  0  0  0  0  0  0  0  0  0  0
   12.9595   16.4037   17.5561 H   0  0  0  0  0  0  0  0  0  0  0  0
   12.2929   13.7263   16.7925 H   0  0  0  0  0  0  0  0  0  0  0  0
   13.6648   13.8356   19.0217 H   0  0  0  0  0  0  0  0  0  0  0  0
   15.1217   15.7235   19.6960 H   0  0  0  0  0  0  0  0  0  0  0  0
   13.9928   15.3069   20.9816 H   0  0  0  0  0  0  0  0  0  0  0  0
   13.6963   16.7405   19.9793 H   0  0  0  0  0  0  0  0  0  0  0  0
   11.2279   13.9938   18.8709 H   0  0  0  0  0  0  0  0  0  0  0  0
   11.7509   14.3786   20.5090 H   0  0  0  0  0  0  0  0  0  0  0  0
   11.2668   15.6848   19.4096 H   0  0  0  0  0  0  0  0  0  0  0  0
   10.5992   17.2673   14.1448 H   0  0  0  0  0  0  0  0  0  0  0  0
   11.8592   16.6273   13.0646 H   0  0  0  0  0  0  0  0  0  0  0  0
   12.1222   18.1588   13.9386 H   0  0  0  0  0  0  0  0  0  0  0  0
   15.2405   10.2063   15.9271 H   0  0  0  0  0  0  0  0  0  0  0  0
   16.8454   10.3300   14.9505 H   0  0  0  0  0  0  0  0  0  0  0  0
   16.3979   10.9545   17.9375 H   0  0  0  0  0  0  0  0  0  0  0  0
   18.0059   11.0821   16.9744 H   0  0  0  0  0  0  0  0  0  0  0  0
  1  2  1  0  0  0  0 
  1  6  2  0  0  0  0 
  2  3  2  0  0  0  0 
  3  4  1  0  0  0  0 
  4  5  2  0  0  0  0 
  5  6  1  0  0  0  0 
  7  8  1  0  0  0  0 
  8  9  2  0  0  0  0 
  5  7  1  0  0  0  0 
  6  9  1  0  0  0  0 
  3 10  1  0  0  0  0 
 11 12  2  0  0  0  0 
 12 13  1  0  0  0  0 
 13 14  2  0  0  0  0 
 14 15  1  0  0  0  0 
 15 10  2  0  0  0  0 
 11 10  1  0  0  0  0 
 17 18  1  0  0  0  0 
 12 18  1  0  0  0  0 
 13 16  1  0  0  0  0 
 19 20  1  0  0  0  0 
 20 21  2  0  0  0  0 
 21 22  1  0  0  0  0 
 16 22  2  0  0  0  0 
 17 19  2  0  0  0  0 
 16 17  1  0  0  0  0 
 23  8  1  0  0  0  0 
 25 24  1  0  0  0  0 
 27 26  1  0  0  0  0 
 27 28  1  0  0  0  0 
 24 28  1  0  0  0  0 
 23 25  1  0  0  0  0 
 23 26  1  0  0  0  0 
 26 29  1  0  0  0  0 
 29 30  2  0  0  0  0 
 31 29  1  0  0  0  0 
 31 32  1  0  0  0  0 
 32 33  1  0  0  0  0 
 33 34  1  0  0  0  0 
 33 35  2  0  0  0  0 
 34 36  1  0  0  0  0 
 31 37  1  0  0  0  0 
 37 38  1  0  0  0  0 
 37 39  1  0  0  0  0 
 25 40  1  0  0  0  0 
 27 40  1  0  0  0  0 
 18 41  1  0  0  0  0 
 18 42  1  0  0  0  0 
 20 43  1  0  0  0  0 
 44 45  2  0  0  0  0 
 45 46  1  0  0  0  0 
 46 47  1  0  0  0  0 
 43 44  1  0  0  0  0 
 43 47  2  0  0  0  0 
 48 45  1  0  0  0  0 
 49 50  1  0  0  0  0 
 50 51  1  0  0  0  0 
 51 52  1  0  0  0  0 
 48 49  1  0  0  0  0 
 48 52  1  0  0  0  0 
 49 53  1  0  0  0  0 
 53 54  2  0  0  0  0 
 55 53  1  0  0  0  0 
 55 56  1  0  0  0  0 
 55 57  1  0  0  0  0 
 57 58  1  0  0  0  0 
 57 59  1  0  0  0  0 
 56 60  1  0  0  0  0 
 60 61  1  0  0  0  0 
 60 62  2  0  0  0  0 
 61 63  1  0  0  0  0 
 64 65  1  0  0  0  0 
 65 51  1  0  0  0  0 
 51 64  1  0  0  0  0 
 66  1  1  0  0  0  0 
 67  2  1  0  0  0  0 
 68  4  1  0  0  0  0 
 69  7  1  0  0  0  0 
 70 11  1  0  0  0  0 
 71 14  1  0  0  0  0 
 72 15  1  0  0  0  0 
 73 19  1  0  0  0  0 
 74 21  1  0  0  0  0 
 75 22  1  0  0  0  0 
 23 76  1  0  0  0  0 
 77 24  1  0  0  0  0 
 78 24  1  0  0  0  0 
 25 79  1  0  0  0  0 
 27 80  1  0  0  0  0 
 81 28  1  0  0  0  0 
 82 28  1  0  0  0  0 
 31 83  1  0  0  0  0 
 84 32  1  0  0  0  0 
 85 36  1  0  0  0  0 
 86 36  1  0  0  0  0 
 87 36  1  0  0  0  0 
 88 37  1  0  0  0  0 
 89 38  1  0  0  0  0 
 90 38  1  0  0  0  0 
 91 38  1  0  0  0  0 
 92 39  1  0  0  0  0 
 93 39  1  0  0  0  0 
 94 39  1  0  0  0  0 
 95 40  1  0  0  0  0 
 96 40  1  0  0  0  0 
 97 46  1  0  0  0  0 
 98 47  1  0  0  0  0 
 48 99  1  0  0  0  0 
100 50  1  0  0  0  0 
101 50  1  0  0  0  0 
102 52  1  0  0  0  0 
103 52  1  0  0  0  0 
 55104  1  0  0  0  0 
105 56  1  0  0  0  0 
106 57  1  0  0  0  0 
107 58  1  0  0  0  0 
108 58  1  0  0  0  0 
109 58  1  0  0  0  0 
110 59  1  0  0  0  0 
111 59  1  0  0  0  0 
112 59  1  0  0  0  0 
113 63  1  0  0  0  0 
114 63  1  0  0  0  0 
115 63  1  0  0  0  0 
116 64  1  0  0  0  0 
117 64  1  0  0  0  0 
118 65  1  0  0  0  0 
119 65  1  0  0  0  0 
M  END
> <cdk:Title>
ledipasvir

> <Conformer>
1

> <SuperDrugID>
SD003837

$$$$
