mercaptamine
  CDK     0628171802

 11 10  0  0  0  0  0  0  0  0999 V2000
    0.5000   -0.9922   -0.1417 N   0  0  1  0  0  0  0  0  0  0  0  0
    0.6347    0.4580    0.0319 C   0  0  1  0  0  0  0  0  0  0  0  0
   -0.2010    0.9627    1.2253 C   0  0  1  0  0  0  0  0  0  0  0  0
   -0.0499    2.7520    1.4256 S   0  0  0  0  0  0  0  0  0  0  0  0
    1.1048   -1.2491   -0.9243 H   0  0  0  0  0  0  0  0  0  0  0  0
    0.8921   -1.4353    0.6933 H   0  0  0  0  0  0  0  0  0  0  0  0
    1.6903    0.6928    0.1914 H   0  0  0  0  0  0  0  0  0  0  0  0
    0.3000    0.9434   -0.8870 H   0  0  0  0  0  0  0  0  0  0  0  0
   -1.2540    0.7202    1.0713 H   0  0  0  0  0  0  0  0  0  0  0  0
    0.1424    0.4824    2.1432 H   0  0  0  0  0  0  0  0  0  0  0  0
   -0.8805    2.7885    2.5051 H   0  0  0  0  0  0  0  0  0  0  0  0
  1  2  1  0  0  0  0 
  2  3  1  0  0  0  0 
  3  4  1  0  0  0  0 
  1  5  1  0  0  0  0 
  1  6  1  0  0  0  0 
  2  7  1  0  0  0  0 
  2  8  1  0  0  0  0 
  3  9  1  0  0  0  0 
  3 10  1  0  0  0  0 
  4 11  1  0  0  0  0 
M  END
> <cdk:Title>
mercaptamine

> <Conformer>
1

> <SuperDrugID>
SD000676

$$$$
