norelgestromin
  CDK     0628171801

 53 56  0  0  0  0  0  0  0  0999 V2000
   -7.2239    4.7911   -3.6622 C   0  0  2  0  0  0  0  0  0  0  0  0
   -7.1235    6.1469   -4.4160 C   0  0  0  0  0  0  0  0  0  0  0  0
   -7.2093    4.8112   -2.0663 C   0  0  2  0  0  0  0  0  0  0  0  0
   -7.0682    3.3858   -1.4083 C   0  0  2  0  0  0  0  0  0  0  0  0
   -8.6446    5.2372   -1.5141 C   0  0  1  0  0  0  0  0  0  0  0  0
   -5.9391    5.5904   -1.5416 C   0  0  2  0  0  0  0  0  0  0  0  0
   -5.7867    2.5919   -1.8423 C   0  0  1  0  0  0  0  0  0  0  0  0
   -8.4602    2.7512   -1.5704 C   0  0  1  0  0  0  0  0  0  0  0  0
   -8.6083    6.1349   -0.4661 C   0  0  0  0  0  0  0  0  0  0  0  0
   -9.4673    5.9207   -2.4653 O   0  0  0  0  0  0  0  0  0  0  0  0
   -9.3878    3.9078   -1.1415 C   0  0  1  0  0  0  0  0  0  0  0  0
   -4.5844    4.8902   -1.8863 C   0  0  2  0  0  0  0  0  0  0  0  0
   -4.4988    3.3980   -1.4019 C   0  0  2  0  0  0  0  0  0  0  0  0
   -5.7266    1.1279   -1.3080 C   0  0  1  0  0  0  0  0  0  0  0  0
   -8.5810    6.9424    0.4141 C   0  0  0  0  0  0  0  0  0  0  0  0
   -3.1916    2.6249   -1.8399 C   0  0  2  0  0  0  0  0  0  0  0  0
   -4.4060    0.4322   -1.7383 C   0  0  2  0  0  0  0  0  0  0  0  0
   -3.2614    1.2401   -1.3087 C   0  0  0  0  0  0  0  0  0  0  0  0
   -1.8306    3.3294   -1.5033 C   0  0  1  0  0  0  0  0  0  0  0  0
   -2.3722    0.7383   -0.4218 C   0  0  0  0  0  0  0  0  0  0  0  0
   -1.3785    3.0192   -0.0568 C   0  0  2  0  0  0  0  0  0  0  0  0
   -1.2560    1.4820    0.1481 C   0  0  2  0  0  0  0  0  0  0  0  0
   -0.0865    1.0035   -0.4399 N   0  0  0  0  0  0  0  0  0  0  0  0
    0.7806    0.4924    0.1530 O   0  0  0  0  0  0  0  0  0  0  0  0
   -6.4022    4.2029   -4.0617 H   0  0  0  0  0  0  0  0  0  0  0  0
   -8.1319    4.2974   -4.0144 H   0  0  0  0  0  0  0  0  0  0  0  0
   -7.2173    5.9650   -5.4886 H   0  0  0  0  0  0  0  0  0  0  0  0
   -6.1563    6.6199   -4.2475 H   0  0  0  0  0  0  0  0  0  0  0  0
   -7.9050    6.8461   -4.1261 H   0  0  0  0  0  0  0  0  0  0  0  0
   -6.9552    3.5040   -0.3189 H   0  0  0  0  0  0  0  0  0  0  0  0
   -5.9743    5.6735   -0.4505 H   0  0  0  0  0  0  0  0  0  0  0  0
   -5.9316    6.6167   -1.9172 H   0  0  0  0  0  0  0  0  0  0  0  0
   -5.7835    2.4825   -2.9261 H   0  0  0  0  0  0  0  0  0  0  0  0
   -8.6469    2.4549   -2.6052 H   0  0  0  0  0  0  0  0  0  0  0  0
   -8.5887    1.8812   -0.9220 H   0  0  0  0  0  0  0  0  0  0  0  0
  -10.3397    6.0338   -2.0268 H   0  0  0  0  0  0  0  0  0  0  0  0
   -9.5659    3.8299   -0.0630 H   0  0  0  0  0  0  0  0  0  0  0  0
  -10.3564    3.8080   -1.6376 H   0  0  0  0  0  0  0  0  0  0  0  0
   -3.8074    5.4804   -1.3941 H   0  0  0  0  0  0  0  0  0  0  0  0
   -4.4026    4.9411   -2.9621 H   0  0  0  0  0  0  0  0  0  0  0  0
   -4.4897    3.4407   -0.3064 H   0  0  0  0  0  0  0  0  0  0  0  0
   -5.8114    1.1174   -0.2166 H   0  0  0  0  0  0  0  0  0  0  0  0
   -6.5625    0.5534   -1.7151 H   0  0  0  0  0  0  0  0  0  0  0  0
   -8.5602    7.5714    1.0878 H   0  0  0  0  0  0  0  0  0  0  0  0
   -3.2134    2.5618   -2.9332 H   0  0  0  0  0  0  0  0  0  0  0  0
   -4.3779    0.3254   -2.8262 H   0  0  0  0  0  0  0  0  0  0  0  0
   -4.3956   -0.5801   -1.3226 H   0  0  0  0  0  0  0  0  0  0  0  0
   -1.0592    2.9641   -2.1893 H   0  0  0  0  0  0  0  0  0  0  0  0
   -1.8717    4.4068   -1.6498 H   0  0  0  0  0  0  0  0  0  0  0  0
   -2.4738   -0.2030   -0.1096 H   0  0  0  0  0  0  0  0  0  0  0  0
   -2.1150    3.4247    0.6439 H   0  0  0  0  0  0  0  0  0  0  0  0
   -0.4217    3.5065    0.1541 H   0  0  0  0  0  0  0  0  0  0  0  0
   -1.2394    1.2930    1.2303 H   0  0  0  0  0  0  0  0  0  0  0  0
  1  2  1  0  0  0  0 
  3  1  1  0  0  0  0 
  3  4  1  0  0  0  0 
  3  5  1  0  0  0  0 
  3  6  1  0  0  0  0 
  4  7  1  0  0  0  0 
  4  8  1  0  0  0  0 
  5  9  1  0  0  0  0 
  5 10  1  0  0  0  0 
  5 11  1  0  0  0  0 
  6 12  1  0  0  0  0 
  7 13  1  0  0  0  0 
  7 14  1  0  0  0  0 
  8 11  1  0  0  0  0 
  9 15  3  0  0  0  0 
 13 12  1  0  0  0  0 
 13 16  1  0  0  0  0 
 14 17  1  0  0  0  0 
 16 18  1  0  0  0  0 
 16 19  1  0  0  0  0 
 17 18  1  0  0  0  0 
 18 20  2  0  0  0  0 
 19 21  1  0  0  0  0 
 20 22  1  0  0  0  0 
 21 22  1  0  0  0  0 
 22 23  1  0  0  0  0 
 23 24  2  0  0  0  0 
 25  1  1  0  0  0  0 
 26  1  1  0  0  0  0 
 27  2  1  0  0  0  0 
 28  2  1  0  0  0  0 
 29  2  1  0  0  0  0 
  4 30  1  0  0  0  0 
 31  6  1  0  0  0  0 
 32  6  1  0  0  0  0 
  7 33  1  0  0  0  0 
 34  8  1  0  0  0  0 
 35  8  1  0  0  0  0 
 36 10  1  0  0  0  0 
 37 11  1  0  0  0  0 
 38 11  1  0  0  0  0 
 39 12  1  0  0  0  0 
 40 12  1  0  0  0  0 
 13 41  1  0  0  0  0 
 42 14  1  0  0  0  0 
 43 14  1  0  0  0  0 
 44 15  1  0  0  0  0 
 16 45  1  0  0  0  0 
 46 17  1  0  0  0  0 
 47 17  1  0  0  0  0 
 48 19  1  0  0  0  0 
 49 19  1  0  0  0  0 
 50 20  1  0  0  0  0 
 51 21  1  0  0  0  0 
 52 21  1  0  0  0  0 
 53 22  1  0  0  0  0 
M  END
> <cdk:Title>
norelgestromin

> <Conformer>
1

> <SuperDrugID>
SD001751

$$$$
