ruxolitinib
  CDK     0628171801

 41 44  0  0  0  0  0  0  0  0999 V2000
    0.1676    5.4709   -1.0253 C   0  0  0  0  0  0  0  0  0  0  0  0
    1.2446    5.8823   -1.7564 N   0  0  0  0  0  0  0  0  0  0  0  0
    1.6812    7.1749   -1.7584 C   0  0  0  0  0  0  0  0  0  0  0  0
    1.0335    8.1229   -1.0261 N   0  0  0  0  0  0  0  0  0  0  0  0
   -0.5161    6.4529   -0.2793 C   0  0  0  0  0  0  0  0  0  0  0  0
   -1.6483    6.4323    0.5271 C   0  0  0  0  0  0  0  0  0  0  0  0
   -0.0552    7.7679   -0.3016 C   0  0  0  0  0  0  0  0  0  0  0  0
   -0.8566    8.5180    0.4681 N   0  0  0  0  0  0  0  0  0  0  0  0
   -1.8279    7.7378    0.9777 C   0  0  0  0  0  0  0  0  0  0  0  0
   -0.2088    4.1154   -1.0359 C   0  0  0  0  0  0  0  0  0  0  0  0
   -0.7400    2.0551   -0.4049 N   0  0  0  0  0  0  0  0  0  0  0  0
   -0.7934    2.0861   -1.7066 N   0  0  0  0  0  0  0  0  0  0  0  0
   -0.4634    3.3147   -2.1400 C   0  0  0  0  0  0  0  0  0  0  0  0
   -0.3938    3.2769    0.0559 C   0  0  0  0  0  0  0  0  0  0  0  0
   -0.9964    0.8784    0.3933 C   0  0  1  0  0  0  0  0  0  0  0  0
   -2.5013    0.4566    0.2884 C   0  0  2  0  0  0  0  0  0  0  0  0
   -0.0368   -0.2891    0.0043 C   0  0  1  0  0  0  0  0  0  0  0  0
   -3.4783    1.5752    0.7165 C   0  0  2  0  0  0  0  0  0  0  0  0
   -2.9314   -0.7223    1.1983 C   0  0  2  0  0  0  0  0  0  0  0  0
   -4.4519   -0.5635    1.4250 C   0  0  1  0  0  0  0  0  0  0  0  0
   -4.8182    0.8622    0.9636 C   0  0  1  0  0  0  0  0  0  0  0  0
    1.2862    0.0447    0.1233 C   0  0  0  0  0  0  0  0  0  0  0  0
    2.3928    0.3337    0.2262 N   0  0  0  0  0  0  0  0  0  0  0  0
    2.5001    7.4337   -2.3102 H   0  0  0  0  0  0  0  0  0  0  0  0
   -2.2379    5.6267    0.7418 H   0  0  0  0  0  0  0  0  0  0  0  0
   -0.7574    9.4695    0.6271 H   0  0  0  0  0  0  0  0  0  0  0  0
   -2.5807    8.0549    1.5934 H   0  0  0  0  0  0  0  0  0  0  0  0
   -0.4211    3.6064   -3.1181 H   0  0  0  0  0  0  0  0  0  0  0  0
   -0.2695    3.5459    1.0371 H   0  0  0  0  0  0  0  0  0  0  0  0
   -0.8044    1.1117    1.4470 H   0  0  0  0  0  0  0  0  0  0  0  0
   -2.7229    0.1840   -0.7513 H   0  0  0  0  0  0  0  0  0  0  0  0
   -0.2076   -1.1468    0.6559 H   0  0  0  0  0  0  0  0  0  0  0  0
   -0.2238   -0.6050   -1.0241 H   0  0  0  0  0  0  0  0  0  0  0  0
   -3.5772    2.3371   -0.0610 H   0  0  0  0  0  0  0  0  0  0  0  0
   -3.1414    2.0478    1.6466 H   0  0  0  0  0  0  0  0  0  0  0  0
   -2.4127   -0.6768    2.1610 H   0  0  0  0  0  0  0  0  0  0  0  0
   -2.7041   -1.6847    0.7314 H   0  0  0  0  0  0  0  0  0  0  0  0
   -5.0058   -1.3036    0.8405 H   0  0  0  0  0  0  0  0  0  0  0  0
   -4.6972   -0.7019    2.4824 H   0  0  0  0  0  0  0  0  0  0  0  0
   -5.4061    1.3880    1.7208 H   0  0  0  0  0  0  0  0  0  0  0  0
   -5.3922    0.8184    0.0325 H   0  0  0  0  0  0  0  0  0  0  0  0
  1  2  1  0  0  0  0 
  1  5  2  0  0  0  0 
  2  3  2  0  0  0  0 
  3  4  1  0  0  0  0 
  4  7  2  0  0  0  0 
  6  5  1  0  0  0  0 
  6  9  2  0  0  0  0 
  7  8  1  0  0  0  0 
  8  9  1  0  0  0  0 
  5  7  1  0  0  0  0 
  1 10  1  0  0  0  0 
 13 10  1  0  0  0  0 
 10 14  2  0  0  0  0 
 11 12  1  0  0  0  0 
 11 14  1  0  0  0  0 
 12 13  2  0  0  0  0 
 15 11  1  0  0  0  0 
 15 16  1  0  0  0  0 
 15 17  1  0  0  0  0 
 18 16  1  0  0  0  0 
 16 19  1  0  0  0  0 
 18 21  1  0  0  0  0 
 19 20  1  0  0  0  0 
 20 21  1  0  0  0  0 
 17 22  1  0  0  0  0 
 22 23  3  0  0  0  0 
 24  3  1  0  0  0  0 
 25  6  1  0  0  0  0 
 26  8  1  0  0  0  0 
 27  9  1  0  0  0  0 
 28 13  1  0  0  0  0 
 29 14  1  0  0  0  0 
 15 30  1  0  0  0  0 
 31 16  1  0  0  0  0 
 32 17  1  0  0  0  0 
 33 17  1  0  0  0  0 
 34 18  1  0  0  0  0 
 35 18  1  0  0  0  0 
 36 19  1  0  0  0  0 
 37 19  1  0  0  0  0 
 38 20  1  0  0  0  0 
 39 20  1  0  0  0  0 
 40 21  1  0  0  0  0 
 41 21  1  0  0  0  0 
M  END
> <cdk:Title>
ruxolitinib

> <Conformer>
1

> <SuperDrugID>
SD003420

$$$$
