alosetron
  CDK     0628171801

 40 43  0  0  0  0  0  0  0  0999 V2000
   -2.5512   -6.0381   -4.5295 C   0  0  0  0  0  0  0  0  0  0  0  0
   -1.9099   -4.7581   -4.6208 N   0  0  0  0  0  0  0  0  0  0  0  0
   -0.9044   -4.2813   -3.8440 C   0  0  0  0  0  0  0  0  0  0  0  0
   -0.5095   -3.0252   -4.2976 C   0  0  0  0  0  0  0  0  0  0  0  0
   -1.3506   -2.7115   -5.3639 C   0  0  0  0  0  0  0  0  0  0  0  0
   -2.2044   -3.8051   -5.5351 C   0  0  0  0  0  0  0  0  0  0  0  0
   -3.1905   -3.7878   -6.5429 C   0  0  0  0  0  0  0  0  0  0  0  0
   -3.3074   -2.6476   -7.3650 C   0  0  0  0  0  0  0  0  0  0  0  0
   -2.4413   -1.5470   -7.1903 C   0  0  0  0  0  0  0  0  0  0  0  0
   -1.4469   -1.5741   -6.1910 C   0  0  0  0  0  0  0  0  0  0  0  0
    0.5688   -2.3226   -3.7222 C   0  0  0  0  0  0  0  0  0  0  0  0
    0.9823   -1.2921   -4.3050 O   0  0  0  0  0  0  0  0  0  0  0  0
    1.1597   -2.7733   -2.5490 N   0  0  0  0  0  0  0  0  0  0  0  0
    2.2232   -2.0120   -1.9197 C   0  0  1  0  0  0  0  0  0  0  0  0
    1.8227   -0.6389   -1.5315 C   0  0  0  0  0  0  0  0  0  0  0  0
    0.8174   -0.2295   -0.6479 C   0  0  0  0  0  0  0  0  0  0  0  0
   -0.1015   -1.0730    0.1314 C   0  0  0  0  0  0  0  0  0  0  0  0
    0.8129    1.1142   -0.6082 N   0  0  0  0  0  0  0  0  0  0  0  0
    1.7865    1.5351   -1.4297 C   0  0  0  0  0  0  0  0  0  0  0  0
    2.4018    0.4824   -1.9822 N   0  0  0  0  0  0  0  0  0  0  0  0
    0.7320   -4.0121   -1.9124 C   0  0  2  0  0  0  0  0  0  0  0  0
   -0.2450   -4.9410   -2.7016 C   0  0  2  0  0  0  0  0  0  0  0  0
   -2.3259   -6.6178   -5.4267 H   0  0  0  0  0  0  0  0  0  0  0  0
   -3.6328   -5.9129   -4.4506 H   0  0  0  0  0  0  0  0  0  0  0  0
   -2.2163   -6.6143   -3.6670 H   0  0  0  0  0  0  0  0  0  0  0  0
   -3.8172   -4.5840   -6.6778 H   0  0  0  0  0  0  0  0  0  0  0  0
   -4.0285   -2.6191   -8.0910 H   0  0  0  0  0  0  0  0  0  0  0  0
   -2.5367   -0.7254   -7.7936 H   0  0  0  0  0  0  0  0  0  0  0  0
   -0.8208   -0.7772   -6.0740 H   0  0  0  0  0  0  0  0  0  0  0  0
    2.5946   -2.4997   -1.0135 H   0  0  0  0  0  0  0  0  0  0  0  0
    3.0656   -1.9641   -2.6146 H   0  0  0  0  0  0  0  0  0  0  0  0
   -0.7503   -1.6296   -0.5445 H   0  0  0  0  0  0  0  0  0  0  0  0
   -0.7307   -0.4632    0.7818 H   0  0  0  0  0  0  0  0  0  0  0  0
    0.4723   -1.7670    0.7487 H   0  0  0  0  0  0  0  0  0  0  0  0
    2.0194    2.5140   -1.6064 H   0  0  0  0  0  0  0  0  0  0  0  0
    3.1434    0.5250   -2.6045 H   0  0  0  0  0  0  0  0  0  0  0  0
    0.2531   -3.7490   -0.9681 H   0  0  0  0  0  0  0  0  0  0  0  0
    1.6128   -4.6059   -1.6571 H   0  0  0  0  0  0  0  0  0  0  0  0
    0.2957   -5.8062   -3.0900 H   0  0  0  0  0  0  0  0  0  0  0  0
   -1.0144   -5.3060   -2.0170 H   0  0  0  0  0  0  0  0  0  0  0  0
  1  2  1  0  0  0  0 
  2  3  1  0  0  0  0 
  3  4  2  0  0  0  0 
  4  5  1  0  0  0  0 
  5  6  1  0  0  0  0 
  2  6  1  0  0  0  0 
  6  7  2  0  0  0  0 
  7  8  1  0  0  0  0 
  8  9  2  0  0  0  0 
  9 10  1  0  0  0  0 
  5 10  2  0  0  0  0 
  4 11  1  0  0  0  0 
 11 12  2  0  0  0  0 
 11 13  1  0  0  0  0 
 13 14  1  0  0  0  0 
 14 15  1  0  0  0  0 
 15 16  2  0  0  0  0 
 16 17  1  0  0  0  0 
 16 18  1  0  0  0  0 
 18 19  2  0  0  0  0 
 19 20  1  0  0  0  0 
 15 20  1  0  0  0  0 
 13 21  1  0  0  0  0 
 21 22  1  0  0  0  0 
  3 22  1  0  0  0  0 
 23  1  1  0  0  0  0 
 24  1  1  0  0  0  0 
 25  1  1  0  0  0  0 
 26  7  1  0  0  0  0 
 27  8  1  0  0  0  0 
 28  9  1  0  0  0  0 
 29 10  1  0  0  0  0 
 30 14  1  0  0  0  0 
 31 14  1  0  0  0  0 
 32 17  1  0  0  0  0 
 33 17  1  0  0  0  0 
 34 17  1  0  0  0  0 
 35 19  1  0  0  0  0 
 36 20  1  0  0  0  0 
 37 21  1  0  0  0  0 
 38 21  1  0  0  0  0 
 39 22  1  0  0  0  0 
 40 22  1  0  0  0  0 
M  END
> <cdk:Title>
alosetron

> <Conformer>
1

> <SuperDrugID>
SD000099

$$$$
