dipyrithione
  CDK     0628171802

 24 25  0  0  0  0  0  0  0  0999 V2000
    2.2879   -1.6834   -0.8705 S   0  0  0  0  0  0  0  0  0  0  0  0
    0.4077   -0.7766   -0.5918 S   0  0  0  0  0  0  0  0  0  0  0  0
    1.8776   -3.1321   -1.7736 C   0  0  0  0  0  0  0  0  0  0  0  0
   -0.3915   -1.8943    0.5013 C   0  0  0  0  0  0  0  0  0  0  0  0
    1.7653   -4.3467   -1.1555 N   0  0  0  0  0  0  0  0  0  0  0  0
    1.6511   -3.0304   -3.1617 C   0  0  0  0  0  0  0  0  0  0  0  0
   -1.2877   -2.8192    0.0414 N   0  0  0  0  0  0  0  0  0  0  0  0
   -0.0899   -1.8371    1.8776 C   0  0  0  0  0  0  0  0  0  0  0  0
    1.9666   -4.4579    0.1321 O   0  0  0  0  0  0  0  0  0  0  0  0
    1.4453   -5.4767   -1.8461 C   0  0  0  0  0  0  0  0  0  0  0  0
    1.3100   -4.1842   -3.8886 C   0  0  0  0  0  0  0  0  0  0  0  0
   -1.5747   -2.8897   -1.2327 O   0  0  0  0  0  0  0  0  0  0  0  0
   -1.9119   -3.6926    0.8803 C   0  0  0  0  0  0  0  0  0  0  0  0
   -0.7169   -2.7373    2.7564 C   0  0  0  0  0  0  0  0  0  0  0  0
    1.2161   -5.4223   -3.2320 C   0  0  0  0  0  0  0  0  0  0  0  0
   -1.6451   -3.6675    2.2602 C   0  0  0  0  0  0  0  0  0  0  0  0
    1.7311   -2.1320   -3.6453 H   0  0  0  0  0  0  0  0  0  0  0  0
    0.5764   -1.1522    2.2440 H   0  0  0  0  0  0  0  0  0  0  0  0
    1.3722   -6.3751   -1.3618 H   0  0  0  0  0  0  0  0  0  0  0  0
    1.1334   -4.1251   -4.8944 H   0  0  0  0  0  0  0  0  0  0  0  0
   -2.5826   -4.3724    0.5128 H   0  0  0  0  0  0  0  0  0  0  0  0
   -0.5017   -2.7145    3.7562 H   0  0  0  0  0  0  0  0  0  0  0  0
    0.9859   -6.2725   -3.7529 H   0  0  0  0  0  0  0  0  0  0  0  0
   -2.1214   -4.3164    2.8921 H   0  0  0  0  0  0  0  0  0  0  0  0
  1  2  1  0  0  0  0 
  1  3  1  0  0  0  0 
  2  4  1  0  0  0  0 
  3  5  2  0  0  0  0 
  3  6  1  0  0  0  0 
  4  7  2  0  0  0  0 
  4  8  1  0  0  0  0 
  5  9  1  0  0  0  0 
  5 10  1  0  0  0  0 
  6 11  2  0  0  0  0 
  7 12  1  0  0  0  0 
  7 13  1  0  0  0  0 
  8 14  2  0  0  0  0 
 10 15  2  0  0  0  0 
 11 15  1  0  0  0  0 
 13 16  2  0  0  0  0 
 14 16  1  0  0  0  0 
  6 17  1  0  0  0  0 
  8 18  1  0  0  0  0 
 10 19  1  0  0  0  0 
 11 20  1  0  0  0  0 
 13 21  1  0  0  0  0 
 14 22  1  0  0  0  0 
 15 23  1  0  0  0  0 
 16 24  1  0  0  0  0 
M  CHG  1   5   1
M  CHG  1   7   1
M  CHG  1   9  -1
M  CHG  1  12  -1
M  END
> <cdk:Title>
dipyrithione

> <Conformer>
1

> <SuperDrugID>
SD003683

$$$$
