carbenoxolone
  CDK     0628171802

 91 95  0  0  0  0  0  0  0  0999 V2000
   -1.9659   -5.9624    3.2160 C   0  0  0  0  0  0  0  0  0  0  0  0
   -3.3201   -5.2596    2.7857 C   0  0  1  0  0  0  0  0  0  0  0  0
   -3.7612   -4.1054    3.8041 C   0  0  1  0  0  0  0  0  0  0  0  0
   -3.1126   -4.5838    1.3090 C   0  0  1  0  0  0  0  0  0  0  0  0
   -4.4255   -6.3809    2.8464 C   0  0  2  0  0  0  0  0  0  0  0  0
   -4.2174   -4.5064    5.2953 C   0  0  2  0  0  0  0  0  0  0  0  0
   -2.8270   -2.9393    3.6392 C   0  0  0  0  0  0  0  0  0  0  0  0
   -4.4045   -3.7978    0.8259 C   0  0  0  0  0  0  0  0  0  0  0  0
   -2.0079   -3.5558    1.4246 C   0  0  0  0  0  0  0  0  0  0  0  0
   -2.8503   -5.6799    0.1800 C   0  0  2  0  0  0  0  0  0  0  0  0
   -4.8513   -6.8629    4.3353 C   0  0  1  0  0  0  0  0  0  0  0  0
   -2.9541   -4.8969    6.1568 C   0  0  0  0  0  0  0  0  0  0  0  0
   -5.3439   -5.6409    5.1877 C   0  0  1  0  0  0  0  0  0  0  0  0
   -4.9263   -3.2704    5.9941 C   0  0  2  0  0  0  0  0  0  0  0  0
   -2.7878   -1.9957    4.4620 O   0  0  0  0  0  0  0  0  0  0  0  0
   -1.9606   -2.8138    2.5634 C   0  0  0  0  0  0  0  0  0  0  0  0
   -0.8640   -3.3948    0.4618 C   0  0  1  0  0  0  0  0  0  0  0  0
   -1.4370   -5.7167   -0.4381 C   0  0  1  0  0  0  0  0  0  0  0  0
   -6.1536   -6.0151    6.5205 C   0  0  2  0  0  0  0  0  0  0  0  0
   -5.6664   -3.5660    7.3203 C   0  0  2  0  0  0  0  0  0  0  0  0
   -0.8646   -4.3149   -0.8226 C   0  0  2  0  0  0  0  0  0  0  0  0
   -0.4173   -1.9263    0.0644 C   0  0  2  0  0  0  0  0  0  0  0  0
   -5.3082   -6.8569    7.5395 C   0  0  0  0  0  0  0  0  0  0  0  0
   -7.4344   -6.8752    6.1849 C   0  0  0  0  0  0  0  0  0  0  0  0
   -6.7097   -4.6973    7.1922 C   0  0  2  0  0  0  0  0  0  0  0  0
    0.5983   -4.6019   -1.3382 C   0  0  0  0  0  0  0  0  0  0  0  0
   -1.6829   -3.6499   -1.9906 C   0  0  2  0  0  0  0  0  0  0  0  0
   -1.1738   -1.2190   -1.1183 C   0  0  2  0  0  0  0  0  0  0  0  0
   -7.1833   -4.9264    8.5349 O   0  0  0  0  0  0  0  0  0  0  0  0
   -1.2477   -2.2009   -2.3416 C   0  0  2  0  0  0  0  0  0  0  0  0
   -0.4522    0.0234   -1.5619 C   0  0  0  0  0  0  0  0  0  0  0  0
   -2.5854   -0.7375   -0.6458 C   0  0  0  0  0  0  0  0  0  0  0  0
   -8.4519   -4.9495    9.0395 C   0  0  0  0  0  0  0  0  0  0  0  0
    0.6320    0.5165   -0.9154 O   0  0  0  0  0  0  0  0  0  0  0  0
   -0.8447    0.6772   -2.5568 O   0  0  0  0  0  0  0  0  0  0  0  0
   -8.6136   -5.0845   10.5031 C   0  0  2  0  0  0  0  0  0  0  0  0
   -9.4567   -4.8612    8.2949 O   0  0  0  0  0  0  0  0  0  0  0  0
   -7.9706   -6.3811   11.0644 C   0  0  1  0  0  0  0  0  0  0  0  0
   -7.9014   -6.4065   12.5385 C   0  0  0  0  0  0  0  0  0  0  0  0
   -8.4736   -7.4055   13.2453 O   0  0  0  0  0  0  0  0  0  0  0  0
   -7.2694   -5.5265   13.1657 O   0  0  0  0  0  0  0  0  0  0  0  0
   -2.0645   -6.5501    4.1211 H   0  0  0  0  0  0  0  0  0  0  0  0
   -1.1594   -5.2497    3.3871 H   0  0  0  0  0  0  0  0  0  0  0  0
   -1.6257   -6.6627    2.4544 H   0  0  0  0  0  0  0  0  0  0  0  0
   -4.6937   -3.7147    3.4005 H   0  0  0  0  0  0  0  0  0  0  0  0
   -4.0974   -7.2934    2.3482 H   0  0  0  0  0  0  0  0  0  0  0  0
   -5.3381   -6.0663    2.3455 H   0  0  0  0  0  0  0  0  0  0  0  0
   -5.3007   -4.4084    0.9024 H   0  0  0  0  0  0  0  0  0  0  0  0
   -4.5800   -2.8743    1.3753 H   0  0  0  0  0  0  0  0  0  0  0  0
   -4.3415   -3.4999   -0.2139 H   0  0  0  0  0  0  0  0  0  0  0  0
   -3.5458   -5.5893   -0.6585 H   0  0  0  0  0  0  0  0  0  0  0  0
   -3.0306   -6.6866    0.5463 H   0  0  0  0  0  0  0  0  0  0  0  0
   -5.6720   -7.6255    4.3245 H   0  0  0  0  0  0  0  0  0  0  0  0
   -4.0574   -7.3894    4.9192 H   0  0  0  0  0  0  0  0  0  0  0  0
   -2.7695   -5.9663    6.1560 H   0  0  0  0  0  0  0  0  0  0  0  0
   -3.0445   -4.6072    7.2012 H   0  0  0  0  0  0  0  0  0  0  0  0
   -2.0503   -4.4042    5.7989 H   0  0  0  0  0  0  0  0  0  0  0  0
   -6.1222   -5.1981    4.5526 H   0  0  0  0  0  0  0  0  0  0  0  0
   -5.6528   -2.8191    5.3108 H   0  0  0  0  0  0  0  0  0  0  0  0
   -4.2060   -2.4959    6.2513 H   0  0  0  0  0  0  0  0  0  0  0  0
   -1.2272   -2.1604    2.6945 H   0  0  0  0  0  0  0  0  0  0  0  0
   -0.0265   -3.7706    1.0656 H   0  0  0  0  0  0  0  0  0  0  0  0
   -0.7670   -6.2011    0.2776 H   0  0  0  0  0  0  0  0  0  0  0  0
   -1.4662   -6.3630   -1.3224 H   0  0  0  0  0  0  0  0  0  0  0  0
   -6.1798   -2.6523    7.6344 H   0  0  0  0  0  0  0  0  0  0  0  0
   -4.9523   -3.8037    8.1094 H   0  0  0  0  0  0  0  0  0  0  0  0
    0.6396   -1.9828   -0.2100 H   0  0  0  0  0  0  0  0  0  0  0  0
   -0.4246   -1.2527    0.9195 H   0  0  0  0  0  0  0  0  0  0  0  0
   -5.9239   -7.1952    8.3757 H   0  0  0  0  0  0  0  0  0  0  0  0
   -4.8926   -7.7489    7.0693 H   0  0  0  0  0  0  0  0  0  0  0  0
   -4.4923   -6.2798    7.9624 H   0  0  0  0  0  0  0  0  0  0  0  0
   -8.0973   -6.9587    7.0477 H   0  0  0  0  0  0  0  0  0  0  0  0
   -7.1885   -7.8987    5.9003 H   0  0  0  0  0  0  0  0  0  0  0  0
   -8.0076   -6.4221    5.3717 H   0  0  0  0  0  0  0  0  0  0  0  0
   -7.5265   -4.2959    6.5789 H   0  0  0  0  0  0  0  0  0  0  0  0
    1.1235   -3.6963   -1.6315 H   0  0  0  0  0  0  0  0  0  0  0  0
    1.2028   -5.0871   -0.5681 H   0  0  0  0  0  0  0  0  0  0  0  0
    0.5826   -5.2609   -2.2099 H   0  0  0  0  0  0  0  0  0  0  0  0
   -2.7405   -3.6185   -1.7531 H   0  0  0  0  0  0  0  0  0  0  0  0
   -1.5952   -4.2608   -2.8949 H   0  0  0  0  0  0  0  0  0  0  0  0
   -1.9429   -1.8054   -3.0895 H   0  0  0  0  0  0  0  0  0  0  0  0
   -0.2696   -2.2517   -2.8301 H   0  0  0  0  0  0  0  0  0  0  0  0
   -3.1818   -1.5637   -0.2847 H   0  0  0  0  0  0  0  0  0  0  0  0
   -2.4989   -0.0146    0.1714 H   0  0  0  0  0  0  0  0  0  0  0  0
   -3.1388   -0.2628   -1.4602 H   0  0  0  0  0  0  0  0  0  0  0  0
    1.0680    1.3316   -1.2386 H   0  0  0  0  0  0  0  0  0  0  0  0
   -9.6741   -5.0731   10.7621 H   0  0  0  0  0  0  0  0  0  0  0  0
   -8.1493   -4.2076   10.9633 H   0  0  0  0  0  0  0  0  0  0  0  0
   -8.5413   -7.2448   10.7081 H   0  0  0  0  0  0  0  0  0  0  0  0
   -6.9452   -6.4738   10.6993 H   0  0  0  0  0  0  0  0  0  0  0  0
   -8.3824   -7.4259   14.2215 H   0  0  0  0  0  0  0  0  0  0  0  0
  2  1  1  0  0  0  0 
  2  3  1  0  0  0  0 
  2  4  1  0  0  0  0 
  2  5  1  0  0  0  0 
  3  6  1  0  0  0  0 
  3  7  1  0  0  0  0 
  4  8  1  0  0  0  0 
  4  9  1  0  0  0  0 
  4 10  1  0  0  0  0 
  5 11  1  0  0  0  0 
  6 12  1  0  0  0  0 
  6 13  1  0  0  0  0 
  6 14  1  0  0  0  0 
  7 15  2  0  0  0  0 
  7 16  1  0  0  0  0 
  9 16  2  0  0  0  0 
 17  9  1  0  0  0  0 
 10 18  1  0  0  0  0 
 13 11  1  0  0  0  0 
 13 19  1  0  0  0  0 
 14 20  1  0  0  0  0 
 17 21  1  0  0  0  0 
 17 22  1  0  0  0  0 
 21 18  1  0  0  0  0 
 19 23  1  0  0  0  0 
 19 24  1  0  0  0  0 
 25 19  1  0  0  0  0 
 25 20  1  0  0  0  0 
 21 26  1  0  0  0  0 
 21 27  1  0  0  0  0 
 28 22  1  0  0  0  0 
 25 29  1  0  0  0  0 
 27 30  1  0  0  0  0 
 28 30  1  0  0  0  0 
 28 31  1  0  0  0  0 
 28 32  1  0  0  0  0 
 29 33  1  0  0  0  0 
 31 34  1  0  0  0  0 
 31 35  2  0  0  0  0 
 33 36  1  0  0  0  0 
 33 37  2  0  0  0  0 
 36 38  1  0  0  0  0 
 38 39  1  0  0  0  0 
 39 40  1  0  0  0  0 
 39 41  2  0  0  0  0 
 42  1  1  0  0  0  0 
 43  1  1  0  0  0  0 
 44  1  1  0  0  0  0 
  3 45  1  0  0  0  0 
 46  5  1  0  0  0  0 
 47  5  1  0  0  0  0 
 48  8  1  0  0  0  0 
 49  8  1  0  0  0  0 
 50  8  1  0  0  0  0 
 51 10  1  0  0  0  0 
 52 10  1  0  0  0  0 
 53 11  1  0  0  0  0 
 54 11  1  0  0  0  0 
 55 12  1  0  0  0  0 
 56 12  1  0  0  0  0 
 57 12  1  0  0  0  0 
 13 58  1  0  0  0  0 
 59 14  1  0  0  0  0 
 60 14  1  0  0  0  0 
 61 16  1  0  0  0  0 
 17 62  1  0  0  0  0 
 63 18  1  0  0  0  0 
 64 18  1  0  0  0  0 
 65 20  1  0  0  0  0 
 66 20  1  0  0  0  0 
 67 22  1  0  0  0  0 
 68 22  1  0  0  0  0 
 69 23  1  0  0  0  0 
 70 23  1  0  0  0  0 
 71 23  1  0  0  0  0 
 72 24  1  0  0  0  0 
 73 24  1  0  0  0  0 
 74 24  1  0  0  0  0 
 25 75  1  0  0  0  0 
 76 26  1  0  0  0  0 
 77 26  1  0  0  0  0 
 78 26  1  0  0  0  0 
 79 27  1  0  0  0  0 
 80 27  1  0  0  0  0 
 81 30  1  0  0  0  0 
 82 30  1  0  0  0  0 
 83 32  1  0  0  0  0 
 84 32  1  0  0  0  0 
 85 32  1  0  0  0  0 
 86 34  1  0  0  0  0 
 87 36  1  0  0  0  0 
 88 36  1  0  0  0  0 
 89 38  1  0  0  0  0 
 90 38  1  0  0  0  0 
 91 40  1  0  0  0  0 
M  END
> <cdk:Title>
carbenoxolone

> <Conformer>
1

> <SuperDrugID>
SD000426

$$$$
