levosulpiride
  CDK     0628171801

 46 47  0  0  0  0  0  0  0  0999 V2000
   -3.2744    0.8701    2.3837 C   0  0  0  0  0  0  0  0  0  0  0  0
   -3.1939    0.0416    3.4757 N   0  0  0  0  0  0  0  0  0  0  0  0
   -4.1029    1.8122    2.4114 O   0  0  0  0  0  0  0  0  0  0  0  0
   -2.4536    0.6908    1.2221 C   0  0  0  0  0  0  0  0  0  0  0  0
   -4.0189    0.1144    4.6482 C   0  0  2  0  0  0  0  0  0  0  0  0
   -2.7729    1.2893   -0.0340 C   0  0  0  0  0  0  0  0  0  0  0  0
   -1.2770   -0.0990    1.2922 C   0  0  0  0  0  0  0  0  0  0  0  0
   -3.2821   -0.3478    5.9405 C   0  0  1  0  0  0  0  0  0  0  0  0
   -3.8919    2.0665   -0.2191 O   0  0  0  0  0  0  0  0  0  0  0  0
   -1.9179    1.1222   -1.1450 C   0  0  0  0  0  0  0  0  0  0  0  0
   -0.4444   -0.2974    0.1707 C   0  0  0  0  0  0  0  0  0  0  0  0
   -4.1724   -0.2321    7.1423 N   0  0  2  0  0  0  0  0  0  0  0  0
   -2.8267   -1.8285    5.8763 C   0  0  2  0  0  0  0  0  0  0  0  0
   -5.0455    1.3253   -0.6577 C   0  0  0  0  0  0  0  0  0  0  0  0
   -0.7625    0.3322   -1.0456 C   0  0  0  0  0  0  0  0  0  0  0  0
    0.9812   -1.3443    0.2727 S   0  0  1  0  0  0  0  0  0  0  0  0
   -3.9835    0.9503    8.0463 C   0  0  1  0  0  0  0  0  0  0  0  0
   -4.1584   -1.5413    7.8517 C   0  0  2  0  0  0  0  0  0  0  0  0
   -2.9487   -2.3194    7.3211 C   0  0  2  0  0  0  0  0  0  0  0  0
    0.8057   -2.6697   -0.8695 N   0  0  2  0  0  0  0  0  0  0  0  0
    2.3138   -0.5322   -0.0995 O   0  0  0  0  0  0  0  0  0  0  0  0
    1.1444   -1.9737    1.7388 O   0  0  0  0  0  0  0  0  0  0  0  0
   -4.2371    2.3184    7.3783 C   0  0  0  0  0  0  0  0  0  0  0  0
   -2.5453   -0.6784    3.4486 H   0  0  0  0  0  0  0  0  0  0  0  0
   -4.8931   -0.5184    4.4833 H   0  0  0  0  0  0  0  0  0  0  0  0
   -4.3770    1.1324    4.7994 H   0  0  0  0  0  0  0  0  0  0  0  0
   -1.0149   -0.5427    2.1728 H   0  0  0  0  0  0  0  0  0  0  0  0
   -2.3839    0.2654    6.0760 H   0  0  0  0  0  0  0  0  0  0  0  0
   -2.1399    1.5757   -2.0349 H   0  0  0  0  0  0  0  0  0  0  0  0
   -1.7976   -1.9200    5.5155 H   0  0  0  0  0  0  0  0  0  0  0  0
   -3.4845   -2.4243    5.2362 H   0  0  0  0  0  0  0  0  0  0  0  0
   -5.8836    2.0182   -0.7395 H   0  0  0  0  0  0  0  0  0  0  0  0
   -4.8792    0.8764   -1.6391 H   0  0  0  0  0  0  0  0  0  0  0  0
   -5.3152    0.5470    0.0596 H   0  0  0  0  0  0  0  0  0  0  0  0
   -0.1614    0.2164   -1.8653 H   0  0  0  0  0  0  0  0  0  0  0  0
   -4.6983    0.8758    8.8728 H   0  0  0  0  0  0  0  0  0  0  0  0
   -2.9767    0.9418    8.4751 H   0  0  0  0  0  0  0  0  0  0  0  0
   -5.0827   -2.0699    7.6052 H   0  0  0  0  0  0  0  0  0  0  0  0
   -4.0941   -1.4632    8.9411 H   0  0  0  0  0  0  0  0  0  0  0  0
   -2.0498   -2.0509    7.8821 H   0  0  0  0  0  0  0  0  0  0  0  0
   -3.1022   -3.4001    7.3792 H   0  0  0  0  0  0  0  0  0  0  0  0
    1.6560   -3.2331   -0.7973 H   0  0  0  0  0  0  0  0  0  0  0  0
    0.7988   -2.2563   -1.8051 H   0  0  0  0  0  0  0  0  0  0  0  0
   -4.2581    3.1054    8.1359 H   0  0  0  0  0  0  0  0  0  0  0  0
   -3.4466    2.5457    6.6622 H   0  0  0  0  0  0  0  0  0  0  0  0
   -5.1986    2.3099    6.8647 H   0  0  0  0  0  0  0  0  0  0  0  0
  1  2  1  0  0  0  0 
  1  3  2  0  0  0  0 
  1  4  1  0  0  0  0 
  2  5  1  0  0  0  0 
  4  6  2  0  0  0  0 
  4  7  1  0  0  0  0 
  6  9  1  0  0  0  0 
  6 10  1  0  0  0  0 
  7 11  2  0  0  0  0 
  8  5  1  0  0  0  0 
  8 12  1  0  0  0  0 
  8 13  1  0  0  0  0 
  9 14  1  0  0  0  0 
 10 15  2  0  0  0  0 
 11 15  1  0  0  0  0 
 11 16  1  0  0  0  0 
 12 17  1  0  0  0  0 
 12 18  1  0  0  0  0 
 13 19  1  0  0  0  0 
 16 20  1  0  0  0  0 
 16 21  2  0  0  0  0 
 16 22  2  0  0  0  0 
 17 23  1  0  0  0  0 
 18 19  1  0  0  0  0 
  2 24  1  0  0  0  0 
  5 25  1  0  0  0  0 
  5 26  1  0  0  0  0 
  7 27  1  0  0  0  0 
  8 28  1  0  0  0  0 
 10 29  1  0  0  0  0 
 13 30  1  0  0  0  0 
 13 31  1  0  0  0  0 
 14 32  1  0  0  0  0 
 14 33  1  0  0  0  0 
 14 34  1  0  0  0  0 
 15 35  1  0  0  0  0 
 17 36  1  0  0  0  0 
 17 37  1  0  0  0  0 
 18 38  1  0  0  0  0 
 18 39  1  0  0  0  0 
 19 40  1  0  0  0  0 
 19 41  1  0  0  0  0 
 20 42  1  0  0  0  0 
 20 43  1  0  0  0  0 
 23 44  1  0  0  0  0 
 23 45  1  0  0  0  0 
 23 46  1  0  0  0  0 
M  END
> <cdk:Title>
levosulpiride

> <Conformer>
1

> <SuperDrugID>
SD001392

$$$$
