faropenem
  CDK     0628171801

 34 36  0  0  0  0  0  0  0  0999 V2000
   -1.3216    0.7097    2.3612 C   0  0  0  0  0  0  0  0  0  0  0  0
   -0.6313   -0.4215    2.0874 O   0  0  0  0  0  0  0  0  0  0  0  0
   -2.4047    0.5690    2.9731 O   0  0  0  0  0  0  0  0  0  0  0  0
   -0.8761    1.9705    1.9924 C   0  0  0  0  0  0  0  0  0  0  0  0
   -1.4398    3.0962    2.4354 N   0  0  0  0  0  0  0  0  0  0  0  0
    0.1831    2.2859    1.2206 C   0  0  0  0  0  0  0  0  0  0  0  0
   -1.3899    4.3609    1.8006 C   0  0  2  0  0  0  0  0  0  0  0  0
   -1.7666    3.5497    3.6463 C   0  0  0  0  0  0  0  0  0  0  0  0
    0.2504    4.0210    1.0745 S   0  0  0  0  0  0  0  0  0  0  0  0
    1.1416    1.4121    0.5580 C   0  0  1  0  0  0  0  0  0  0  0  0
   -1.6311    4.9481    3.2289 C   0  0  2  0  0  0  0  0  0  0  0  0
   -1.9006    3.0109    4.7689 O   0  0  0  0  0  0  0  0  0  0  0  0
    0.5864    0.7685   -0.7298 C   0  0  2  0  0  0  0  0  0  0  0  0
    2.3421    2.1160    0.1976 O   0  0  0  0  0  0  0  0  0  0  0  0
   -2.8838    5.8486    3.3860 C   0  0  1  0  0  0  0  0  0  0  0  0
    1.8545    0.5483   -1.5538 C   0  0  2  0  0  0  0  0  0  0  0  0
    2.7286    1.7353   -1.1267 C   0  0  1  0  0  0  0  0  0  0  0  0
   -3.1697    6.2145    4.8606 C   0  0  0  0  0  0  0  0  0  0  0  0
   -2.6658    7.0444    2.6414 O   0  0  0  0  0  0  0  0  0  0  0  0
   -2.1986    4.4713    1.0701 H   0  0  0  0  0  0  0  0  0  0  0  0
   -0.7263    5.3982    3.6432 H   0  0  0  0  0  0  0  0  0  0  0  0
   -0.9750   -1.2947    2.3691 H   0  0  0  0  0  0  0  0  0  0  0  0
    1.4642    0.6337    1.2547 H   0  0  0  0  0  0  0  0  0  0  0  0
   -0.0900    1.4489   -1.2570 H   0  0  0  0  0  0  0  0  0  0  0  0
    0.0700   -0.1727   -0.5308 H   0  0  0  0  0  0  0  0  0  0  0  0
   -3.7625    5.3484    2.9665 H   0  0  0  0  0  0  0  0  0  0  0  0
    1.6514    0.5494   -2.6261 H   0  0  0  0  0  0  0  0  0  0  0  0
    2.3296   -0.3948   -1.2731 H   0  0  0  0  0  0  0  0  0  0  0  0
    2.5688    2.5860   -1.7929 H   0  0  0  0  0  0  0  0  0  0  0  0
    3.7869    1.4698   -1.1387 H   0  0  0  0  0  0  0  0  0  0  0  0
   -3.9900    6.9318    4.9099 H   0  0  0  0  0  0  0  0  0  0  0  0
   -3.4535    5.3245    5.4251 H   0  0  0  0  0  0  0  0  0  0  0  0
   -2.2880    6.6622    5.3223 H   0  0  0  0  0  0  0  0  0  0  0  0
   -3.5122    7.5363    2.7012 H   0  0  0  0  0  0  0  0  0  0  0  0
  1  2  1  0  0  0  0 
  1  3  2  0  0  0  0 
  1  4  1  0  0  0  0 
  4  5  1  0  0  0  0 
  4  6  2  0  0  0  0 
  7  5  1  0  0  0  0 
  5  8  1  0  0  0  0 
  6  9  1  0  0  0  0 
  7  9  1  0  0  0  0 
 11  7  1  0  0  0  0 
  7 20  1  0  0  0  0 
 11  8  1  0  0  0  0 
  8 12  2  0  0  0  0 
 10  6  1  0  0  0  0 
 10 13  1  0  0  0  0 
 10 14  1  0  0  0  0 
 15 11  1  0  0  0  0 
 11 21  1  0  0  0  0 
 13 16  1  0  0  0  0 
 14 17  1  0  0  0  0 
 15 18  1  0  0  0  0 
 15 19  1  0  0  0  0 
 16 17  1  0  0  0  0 
  2 22  1  0  0  0  0 
 10 23  1  0  0  0  0 
 13 24  1  0  0  0  0 
 13 25  1  0  0  0  0 
 15 26  1  0  0  0  0 
 16 27  1  0  0  0  0 
 16 28  1  0  0  0  0 
 17 29  1  0  0  0  0 
 17 30  1  0  0  0  0 
 18 31  1  0  0  0  0 
 18 32  1  0  0  0  0 
 18 33  1  0  0  0  0 
 19 34  1  0  0  0  0 
M  END
> <cdk:Title>
faropenem

> <Conformer>
1

> <SuperDrugID>
SD001010

$$$$
