tetramethrin
  CDK     0628171802

 49 51  0  0  0  0  0  0  0  0999 V2000
    0.5284    3.0962    2.1643 C   0  0  0  0  0  0  0  0  0  0  0  0
    1.5209    2.3523    2.7035 C   0  0  0  0  0  0  0  0  0  0  0  0
   -0.8667    3.0337    2.5781 C   0  0  2  0  0  0  0  0  0  0  0  0
    2.9174    2.6080    2.3501 C   0  0  0  0  0  0  0  0  0  0  0  0
    1.2468    1.3059    3.6867 C   0  0  0  0  0  0  0  0  0  0  0  0
   -1.8681    2.0169    1.9768 C   0  0  1  0  0  0  0  0  0  0  0  0
   -2.0282    3.5364    1.6787 C   0  0  2  0  0  0  0  0  0  0  0  0
   -1.6839    1.1973    0.7654 C   0  0  0  0  0  0  0  0  0  0  0  0
   -1.7073    4.0977    0.2581 C   0  0  0  0  0  0  0  0  0  0  0  0
   -3.2035    4.2502    2.3973 C   0  0  0  0  0  0  0  0  0  0  0  0
   -0.4658    0.7074    0.3954 O   0  0  0  0  0  0  0  0  0  0  0  0
   -2.7051    0.9818    0.0705 O   0  0  0  0  0  0  0  0  0  0  0  0
   -0.2172   -0.0082   -0.8267 C   0  0  2  0  0  0  0  0  0  0  0  0
    1.1732   -0.3168   -0.9699 N   0  0  0  0  0  0  0  0  0  0  0  0
    2.1995    0.5615   -0.8987 C   0  0  0  0  0  0  0  0  0  0  0  0
    1.7117   -1.5323   -1.2199 C   0  0  0  0  0  0  0  0  0  0  0  0
    2.1003    1.7948   -0.7063 O   0  0  0  0  0  0  0  0  0  0  0  0
    3.3734   -0.1194   -1.0716 C   0  0  0  0  0  0  0  0  0  0  0  0
    1.0829   -2.6060   -1.3651 O   0  0  0  0  0  0  0  0  0  0  0  0
    3.0704   -1.4016   -1.2996 C   0  0  0  0  0  0  0  0  0  0  0  0
    4.7293    0.4145   -1.0411 C   0  0  1  0  0  0  0  0  0  0  0  0
    4.0418   -2.4533   -1.5658 C   0  0  1  0  0  0  0  0  0  0  0  0
    5.8025   -0.7035   -0.8807 C   0  0  2  0  0  0  0  0  0  0  0  0
    5.4876   -1.9178   -1.7953 C   0  0  1  0  0  0  0  0  0  0  0  0
    0.7595    3.7863    1.4906 H   0  0  0  0  0  0  0  0  0  0  0  0
   -1.0277    3.2336    3.6409 H   0  0  0  0  0  0  0  0  0  0  0  0
    3.4702    2.8862    3.2492 H   0  0  0  0  0  0  0  0  0  0  0  0
    3.0443    3.4215    1.6308 H   0  0  0  0  0  0  0  0  0  0  0  0
    3.3676    1.7074    1.9288 H   0  0  0  0  0  0  0  0  0  0  0  0
    0.5592    0.5677    3.2694 H   0  0  0  0  0  0  0  0  0  0  0  0
    0.8040    1.7412    4.5823 H   0  0  0  0  0  0  0  0  0  0  0  0
    2.1504    0.7782    3.9956 H   0  0  0  0  0  0  0  0  0  0  0  0
   -2.5826    1.6204    2.7032 H   0  0  0  0  0  0  0  0  0  0  0  0
   -0.8653    3.5958   -0.2174 H   0  0  0  0  0  0  0  0  0  0  0  0
   -1.4734    5.1611    0.3294 H   0  0  0  0  0  0  0  0  0  0  0  0
   -2.5780    3.9693   -0.3863 H   0  0  0  0  0  0  0  0  0  0  0  0
   -4.1193    4.1144    1.8207 H   0  0  0  0  0  0  0  0  0  0  0  0
   -3.3726    3.8653    3.4040 H   0  0  0  0  0  0  0  0  0  0  0  0
   -2.9910    5.3173    2.4694 H   0  0  0  0  0  0  0  0  0  0  0  0
   -0.5143    0.6129   -1.6751 H   0  0  0  0  0  0  0  0  0  0  0  0
   -0.8301   -0.9134   -0.8388 H   0  0  0  0  0  0  0  0  0  0  0  0
    4.9051    0.9594   -1.9713 H   0  0  0  0  0  0  0  0  0  0  0  0
    4.8316    1.1182   -0.2119 H   0  0  0  0  0  0  0  0  0  0  0  0
    4.0358   -3.1367   -0.7143 H   0  0  0  0  0  0  0  0  0  0  0  0
    3.7318   -3.0147   -2.4504 H   0  0  0  0  0  0  0  0  0  0  0  0
    5.8210   -1.0406    0.1604 H   0  0  0  0  0  0  0  0  0  0  0  0
    6.7913   -0.3049   -1.1192 H   0  0  0  0  0  0  0  0  0  0  0  0
    6.2049   -2.7190   -1.6011 H   0  0  0  0  0  0  0  0  0  0  0  0
    5.6020   -1.6101   -2.8397 H   0  0  0  0  0  0  0  0  0  0  0  0
  1  2  2  0  0  0  0 
  1  3  1  0  0  0  0 
  2  4  1  0  0  0  0 
  2  5  1  0  0  0  0 
  3  6  1  0  0  0  0 
  3  7  1  0  0  0  0 
  6  7  1  0  0  0  0 
  6  8  1  0  0  0  0 
  7  9  1  0  0  0  0 
  7 10  1  0  0  0  0 
  8 11  1  0  0  0  0 
  8 12  2  0  0  0  0 
 11 13  1  0  0  0  0 
 13 14  1  0  0  0  0 
 14 15  1  0  0  0  0 
 14 16  1  0  0  0  0 
 15 17  2  0  0  0  0 
 15 18  1  0  0  0  0 
 16 19  2  0  0  0  0 
 16 20  1  0  0  0  0 
 18 20  2  0  0  0  0 
 18 21  1  0  0  0  0 
 20 22  1  0  0  0  0 
 21 23  1  0  0  0  0 
 22 24  1  0  0  0  0 
 23 24  1  0  0  0  0 
  1 25  1  0  0  0  0 
  3 26  1  0  0  0  0 
  4 27  1  0  0  0  0 
  4 28  1  0  0  0  0 
  4 29  1  0  0  0  0 
  5 30  1  0  0  0  0 
  5 31  1  0  0  0  0 
  5 32  1  0  0  0  0 
  6 33  1  0  0  0  0 
  9 34  1  0  0  0  0 
  9 35  1  0  0  0  0 
  9 36  1  0  0  0  0 
 10 37  1  0  0  0  0 
 10 38  1  0  0  0  0 
 10 39  1  0  0  0  0 
 13 40  1  0  0  0  0 
 13 41  1  0  0  0  0 
 21 42  1  0  0  0  0 
 21 43  1  0  0  0  0 
 22 44  1  0  0  0  0 
 22 45  1  0  0  0  0 
 23 46  1  0  0  0  0 
 23 47  1  0  0  0  0 
 24 48  1  0  0  0  0 
 24 49  1  0  0  0  0 
M  END
> <cdk:Title>
tetramethrin

> <Conformer>
1

> <SuperDrugID>
SD003734

$$$$
