fenoxedil
  CDK     0628171801

 77 78  0  0  0  0  0  0  0  0999 V2000
    9.2582    2.3223   -0.7835 N   0  0  0  0  0  0  0  0  0  0  0  0
   10.4362    2.5993   -0.1160 C   0  0  0  0  0  0  0  0  0  0  0  0
    8.0285    3.0248   -0.3973 C   0  0  1  0  0  0  0  0  0  0  0  0
    9.2063    1.2931   -1.7431 C   0  0  0  0  0  0  0  0  0  0  0  0
   11.0952    1.5995    0.7559 C   0  0  1  0  0  0  0  0  0  0  0  0
   10.9173    3.7573   -0.1492 O   0  0  0  0  0  0  0  0  0  0  0  0
    8.0345    4.2975    0.5216 C   0  0  1  0  0  0  0  0  0  0  0  0
   10.2990    1.0169   -2.6252 C   0  0  0  0  0  0  0  0  0  0  0  0
    8.0394    0.4933   -1.9039 C   0  0  0  0  0  0  0  0  0  0  0  0
   11.7270    0.5445    0.0030 O   0  0  0  0  0  0  0  0  0  0  0  0
    7.8340    5.6383   -0.1352 N   0  0  1  0  0  0  0  0  0  0  0  0
   11.4562    1.7572   -2.5890 O   0  0  0  0  0  0  0  0  0  0  0  0
   10.2604   -0.0482   -3.5567 C   0  0  0  0  0  0  0  0  0  0  0  0
    7.9294   -0.5134   -2.8807 C   0  0  0  0  0  0  0  0  0  0  0  0
   12.1798   -0.4659    0.8105 C   0  0  0  0  0  0  0  0  0  0  0  0
    7.7528    6.7667    0.8646 C   0  0  1  0  0  0  0  0  0  0  0  0
    8.7565    5.9405   -1.2871 C   0  0  1  0  0  0  0  0  0  0  0  0
   11.5298    2.8029   -3.5796 C   0  0  1  0  0  0  0  0  0  0  0  0
    9.0401   -0.8012   -3.6885 C   0  0  0  0  0  0  0  0  0  0  0  0
    6.7564   -1.2138   -3.0301 O   0  0  0  0  0  0  0  0  0  0  0  0
   13.4267   -0.3723    1.4654 C   0  0  0  0  0  0  0  0  0  0  0  0
   11.3851   -1.6162    0.9944 C   0  0  0  0  0  0  0  0  0  0  0  0
    6.6080    6.6716    1.9035 C   0  0  0  0  0  0  0  0  0  0  0  0
    8.1625    6.9701   -2.2803 C   0  0  0  0  0  0  0  0  0  0  0  0
   12.9162    3.4699   -3.4925 C   0  0  0  0  0  0  0  0  0  0  0  0
    5.9193   -0.6795   -4.0810 C   0  0  1  0  0  0  0  0  0  0  0  0
   13.8650   -1.4092    2.3094 C   0  0  0  0  0  0  0  0  0  0  0  0
   11.8231   -2.6560    1.8349 C   0  0  0  0  0  0  0  0  0  0  0  0
    4.6055   -1.4772   -4.1948 C   0  0  0  0  0  0  0  0  0  0  0  0
   13.0699   -2.5604    2.4848 C   0  0  0  0  0  0  0  0  0  0  0  0
   13.4980   -3.5656    3.3044 O   0  0  0  0  0  0  0  0  0  0  0  0
   14.2806   -4.5646    2.6183 C   0  0  2  0  0  0  0  0  0  0  0  0
   14.8502   -5.5604    3.6537 C   0  0  1  0  0  0  0  0  0  0  0  0
   15.8115   -4.8861    4.6705 C   0  0  1  0  0  0  0  0  0  0  0  0
   16.3876   -5.8840    5.6982 C   0  0  0  0  0  0  0  0  0  0  0  0
    7.4443    3.2660   -1.2903 H   0  0  0  0  0  0  0  0  0  0  0  0
    7.4448    2.2832    0.1599 H   0  0  0  0  0  0  0  0  0  0  0  0
   11.8459    2.0984    1.3799 H   0  0  0  0  0  0  0  0  0  0  0  0
   10.3198    1.2011    1.4210 H   0  0  0  0  0  0  0  0  0  0  0  0
    7.1821    4.1569    1.1902 H   0  0  0  0  0  0  0  0  0  0  0  0
    8.9090    4.3178    1.1710 H   0  0  0  0  0  0  0  0  0  0  0  0
    7.2241    0.6282   -1.3078 H   0  0  0  0  0  0  0  0  0  0  0  0
   11.1694   -0.2036   -4.1132 H   0  0  0  0  0  0  0  0  0  0  0  0
    8.7032    6.8560    1.3989 H   0  0  0  0  0  0  0  0  0  0  0  0
    7.5856    7.7091    0.3435 H   0  0  0  0  0  0  0  0  0  0  0  0
    9.7251    6.2992   -0.9273 H   0  0  0  0  0  0  0  0  0  0  0  0
    8.9489    5.0431   -1.8792 H   0  0  0  0  0  0  0  0  0  0  0  0
   11.4087    2.4002   -4.5909 H   0  0  0  0  0  0  0  0  0  0  0  0
   10.7594    3.5602   -3.4032 H   0  0  0  0  0  0  0  0  0  0  0  0
    8.9867   -1.5497   -4.3841 H   0  0  0  0  0  0  0  0  0  0  0  0
   14.0137    0.4549    1.3350 H   0  0  0  0  0  0  0  0  0  0  0  0
   10.4821   -1.6948    0.5209 H   0  0  0  0  0  0  0  0  0  0  0  0
    6.5131    7.6180    2.4402 H   0  0  0  0  0  0  0  0  0  0  0  0
    6.8060    5.8936    2.6421 H   0  0  0  0  0  0  0  0  0  0  0  0
    5.6630    6.4584    1.3994 H   0  0  0  0  0  0  0  0  0  0  0  0
    8.7393    6.9793   -3.2089 H   0  0  0  0  0  0  0  0  0  0  0  0
    8.1911    7.9772   -1.8611 H   0  0  0  0  0  0  0  0  0  0  0  0
    7.1283    6.7090   -2.5146 H   0  0  0  0  0  0  0  0  0  0  0  0
   13.0532    3.9352   -2.5134 H   0  0  0  0  0  0  0  0  0  0  0  0
   13.6996    2.7223   -3.6433 H   0  0  0  0  0  0  0  0  0  0  0  0
   13.0101    4.2368   -4.2642 H   0  0  0  0  0  0  0  0  0  0  0  0
    5.6686    0.3686   -3.8818 H   0  0  0  0  0  0  0  0  0  0  0  0
    6.4305   -0.7430   -5.0476 H   0  0  0  0  0  0  0  0  0  0  0  0
   14.7610   -1.3256    2.7970 H   0  0  0  0  0  0  0  0  0  0  0  0
   11.2339   -3.4804    1.9760 H   0  0  0  0  0  0  0  0  0  0  0  0
    4.0054   -1.0756   -5.0140 H   0  0  0  0  0  0  0  0  0  0  0  0
    4.0292   -1.4045   -3.2704 H   0  0  0  0  0  0  0  0  0  0  0  0
    4.8190   -2.5277   -4.4007 H   0  0  0  0  0  0  0  0  0  0  0  0
   15.1140   -4.1165    2.0662 H   0  0  0  0  0  0  0  0  0  0  0  0
   13.6523   -5.1147    1.9104 H   0  0  0  0  0  0  0  0  0  0  0  0
   14.0171   -6.0230    4.1904 H   0  0  0  0  0  0  0  0  0  0  0  0
   15.3869   -6.3483    3.1174 H   0  0  0  0  0  0  0  0  0  0  0  0
   16.6413   -4.4190    4.1325 H   0  0  0  0  0  0  0  0  0  0  0  0
   15.2784   -4.1022    5.2153 H   0  0  0  0  0  0  0  0  0  0  0  0
   15.5804   -6.3548    6.2633 H   0  0  0  0  0  0  0  0  0  0  0  0
   16.9685   -6.6581    5.1933 H   0  0  0  0  0  0  0  0  0  0  0  0
   17.0404   -5.3572    6.3971 H   0  0  0  0  0  0  0  0  0  0  0  0
  1  2  1  0  0  0  0 
  1  3  1  0  0  0  0 
  1  4  1  0  0  0  0 
  2  5  1  0  0  0  0 
  2  6  2  0  0  0  0 
  3  7  1  0  0  0  0 
  4  8  2  0  0  0  0 
  4  9  1  0  0  0  0 
  5 10  1  0  0  0  0 
  7 11  1  0  0  0  0 
  8 12  1  0  0  0  0 
  8 13  1  0  0  0  0 
  9 14  2  0  0  0  0 
 10 15  1  0  0  0  0 
 11 16  1  0  0  0  0 
 11 17  1  0  0  0  0 
 12 18  1  0  0  0  0 
 13 19  2  0  0  0  0 
 14 19  1  0  0  0  0 
 14 20  1  0  0  0  0 
 15 21  2  0  0  0  0 
 15 22  1  0  0  0  0 
 16 23  1  0  0  0  0 
 17 24  1  0  0  0  0 
 18 25  1  0  0  0  0 
 20 26  1  0  0  0  0 
 21 27  1  0  0  0  0 
 22 28  2  0  0  0  0 
 26 29  1  0  0  0  0 
 27 30  2  0  0  0  0 
 28 30  1  0  0  0  0 
 30 31  1  0  0  0  0 
 31 32  1  0  0  0  0 
 32 33  1  0  0  0  0 
 33 34  1  0  0  0  0 
 34 35  1  0  0  0  0 
  3 36  1  0  0  0  0 
  3 37  1  0  0  0  0 
  5 38  1  0  0  0  0 
  5 39  1  0  0  0  0 
  7 40  1  0  0  0  0 
  7 41  1  0  0  0  0 
  9 42  1  0  0  0  0 
 13 43  1  0  0  0  0 
 16 44  1  0  0  0  0 
 16 45  1  0  0  0  0 
 17 46  1  0  0  0  0 
 17 47  1  0  0  0  0 
 18 48  1  0  0  0  0 
 18 49  1  0  0  0  0 
 19 50  1  0  0  0  0 
 21 51  1  0  0  0  0 
 22 52  1  0  0  0  0 
 23 53  1  0  0  0  0 
 23 54  1  0  0  0  0 
 23 55  1  0  0  0  0 
 24 56  1  0  0  0  0 
 24 57  1  0  0  0  0 
 24 58  1  0  0  0  0 
 25 59  1  0  0  0  0 
 25 60  1  0  0  0  0 
 25 61  1  0  0  0  0 
 26 62  1  0  0  0  0 
 26 63  1  0  0  0  0 
 27 64  1  0  0  0  0 
 28 65  1  0  0  0  0 
 29 66  1  0  0  0  0 
 29 67  1  0  0  0  0 
 29 68  1  0  0  0  0 
 32 69  1  0  0  0  0 
 32 70  1  0  0  0  0 
 33 71  1  0  0  0  0 
 33 72  1  0  0  0  0 
 34 73  1  0  0  0  0 
 34 74  1  0  0  0  0 
 35 75  1  0  0  0  0 
 35 76  1  0  0  0  0 
 35 77  1  0  0  0  0 
M  END
> <cdk:Title>
fenoxedil

> <Conformer>
1

> <SuperDrugID>
SD002792

$$$$
