mestranol
  CDK     0628171801

 49 52  0  0  0  0  0  0  0  0999 V2000
   -0.9892    7.9528   -0.0367 C   0  0  0  0  0  0  0  0  0  0  0  0
    0.5832    7.8053    0.0447 C   0  0  2  0  0  0  0  0  0  0  0  0
    1.0903    6.9469    1.2495 C   0  0  2  0  0  0  0  0  0  0  0  0
    1.2075    9.2088    0.4151 C   0  0  1  0  0  0  0  0  0  0  0  0
    1.0838    7.0935   -1.2642 C   0  0  2  0  0  0  0  0  0  0  0  0
    0.5391    5.4874    1.2311 C   0  0  1  0  0  0  0  0  0  0  0  0
    0.8451    7.8333    2.4899 C   0  0  1  0  0  0  0  0  0  0  0  0
    2.5371    9.3575    0.0587 C   0  0  0  0  0  0  0  0  0  0  0  0
    0.5476   10.3106   -0.2186 O   0  0  0  0  0  0  0  0  0  0  0  0
    1.0300    9.2833    1.9696 C   0  0  2  0  0  0  0  0  0  0  0  0
    0.6635    5.5908   -1.3531 C   0  0  2  0  0  0  0  0  0  0  0  0
    1.0267    4.7493   -0.0730 C   0  0  2  0  0  0  0  0  0  0  0  0
    0.9720    4.6755    2.4789 C   0  0  1  0  0  0  0  0  0  0  0  0
    3.6827    9.4857   -0.2548 C   0  0  0  0  0  0  0  0  0  0  0  0
    0.6172    3.2948   -0.0850 C   0  0  0  0  0  0  0  0  0  0  0  0
    0.3184    3.2737    2.4603 C   0  0  2  0  0  0  0  0  0  0  0  0
    0.2914    2.6079    1.1255 C   0  0  0  0  0  0  0  0  0  0  0  0
    0.6132    2.5410   -1.2882 C   0  0  0  0  0  0  0  0  0  0  0  0
   -0.0694    1.2381    1.0904 C   0  0  0  0  0  0  0  0  0  0  0  0
    0.2700    1.1790   -1.3060 C   0  0  0  0  0  0  0  0  0  0  0  0
   -0.0757    0.5168   -0.1164 C   0  0  0  0  0  0  0  0  0  0  0  0
   -0.3408   -0.8284   -0.1223 O   0  0  0  0  0  0  0  0  0  0  0  0
   -1.7180   -1.1582   -0.3711 C   0  0  0  0  0  0  0  0  0  0  0  0
   -0.5543    5.5237    1.2405 H   0  0  0  0  0  0  0  0  0  0  0  0
    2.1206    4.7182   -0.0482 H   0  0  0  0  0  0  0  0  0  0  0  0
    2.1829    6.8500    1.1785 H   0  0  0  0  0  0  0  0  0  0  0  0
   -1.4159    8.3628    0.8790 H   0  0  0  0  0  0  0  0  0  0  0  0
   -1.2639    8.6211   -0.8545 H   0  0  0  0  0  0  0  0  0  0  0  0
   -1.4957    7.0091   -0.2212 H   0  0  0  0  0  0  0  0  0  0  0  0
    2.1760    7.1178   -1.3116 H   0  0  0  0  0  0  0  0  0  0  0  0
    0.7172    7.6302   -2.1434 H   0  0  0  0  0  0  0  0  0  0  0  0
   -0.1679    7.6857    2.8781 H   0  0  0  0  0  0  0  0  0  0  0  0
    1.5629    7.6034    3.2845 H   0  0  0  0  0  0  0  0  0  0  0  0
    0.9457   11.1153    0.1776 H   0  0  0  0  0  0  0  0  0  0  0  0
    0.1343    9.8630    2.2131 H   0  0  0  0  0  0  0  0  0  0  0  0
    1.8746    9.7632    2.4773 H   0  0  0  0  0  0  0  0  0  0  0  0
    1.1798    5.1897   -2.2291 H   0  0  0  0  0  0  0  0  0  0  0  0
   -0.4068    5.5096   -1.5508 H   0  0  0  0  0  0  0  0  0  0  0  0
    2.0616    4.5734    2.4963 H   0  0  0  0  0  0  0  0  0  0  0  0
    0.6672    5.1902    3.3946 H   0  0  0  0  0  0  0  0  0  0  0  0
    4.5661    9.5821   -0.5018 H   0  0  0  0  0  0  0  0  0  0  0  0
   -0.7139    3.3623    2.8130 H   0  0  0  0  0  0  0  0  0  0  0  0
    0.8664    2.6496    3.1739 H   0  0  0  0  0  0  0  0  0  0  0  0
    0.8755    2.9658   -2.1770 H   0  0  0  0  0  0  0  0  0  0  0  0
   -0.3191    0.7493    1.9549 H   0  0  0  0  0  0  0  0  0  0  0  0
    0.2870    0.6645   -2.1886 H   0  0  0  0  0  0  0  0  0  0  0  0
   -1.8112   -2.2444   -0.3546 H   0  0  0  0  0  0  0  0  0  0  0  0
   -2.3730   -0.7507    0.4017 H   0  0  0  0  0  0  0  0  0  0  0  0
   -2.0435   -0.8049   -1.3518 H   0  0  0  0  0  0  0  0  0  0  0  0
  2  1  1  0  0  0  0 
  3  2  1  0  0  0  0 
  2  4  1  0  0  0  0 
  2  5  1  0  0  0  0 
  6  3  1  0  0  0  0 
  3  7  1  0  0  0  0 
  3 26  1  0  0  0  0 
  4  8  1  0  0  0  0 
  4  9  1  0  0  0  0 
  4 10  1  0  0  0  0 
  5 11  1  0  0  0  0 
 12  6  1  0  0  0  0 
  6 13  1  0  0  0  0 
  6 24  1  0  0  0  0 
  7 10  1  0  0  0  0 
  8 14  3  0  0  0  0 
 12 11  1  0  0  0  0 
 12 15  1  0  0  0  0 
 12 25  1  0  0  0  0 
 13 16  1  0  0  0  0 
 15 17  2  0  0  0  0 
 15 18  1  0  0  0  0 
 16 17  1  0  0  0  0 
 17 19  1  0  0  0  0 
 18 20  2  0  0  0  0 
 19 21  2  0  0  0  0 
 20 21  1  0  0  0  0 
 21 22  1  0  0  0  0 
 22 23  1  0  0  0  0 
  1 27  1  0  0  0  0 
  1 28  1  0  0  0  0 
  1 29  1  0  0  0  0 
  5 30  1  0  0  0  0 
  5 31  1  0  0  0  0 
  7 32  1  0  0  0  0 
  7 33  1  0  0  0  0 
  9 34  1  0  0  0  0 
 10 35  1  0  0  0  0 
 10 36  1  0  0  0  0 
 11 37  1  0  0  0  0 
 11 38  1  0  0  0  0 
 13 39  1  0  0  0  0 
 13 40  1  0  0  0  0 
 14 41  1  0  0  0  0 
 16 42  1  0  0  0  0 
 16 43  1  0  0  0  0 
 18 44  1  0  0  0  0 
 19 45  1  0  0  0  0 
 20 46  1  0  0  0  0 
 23 47  1  0  0  0  0 
 23 48  1  0  0  0  0 
 23 49  1  0  0  0  0 
M  END
> <cdk:Title>
mestranol

> <Conformer>
1

> <SuperDrugID>
SD001516

$$$$
