trichlormethiazide
  CDK     0628171801

 28 29  0  0  0  0  0  0  0  0999 V2000
   -3.1704    3.1550    1.7816 O   0  0  0  0  0  0  0  0  0  0  0  0
   -2.5975    2.4557    3.1049 S   0  0  2  0  0  0  0  0  0  0  0  0
   -1.4796    3.3802    3.7874 O   0  0  0  0  0  0  0  0  0  0  0  0
   -1.9628    0.8475    2.7701 C   0  0  0  0  0  0  0  0  0  0  0  0
   -3.9165    2.2019    4.2430 N   0  0  2  0  0  0  0  0  0  0  0  0
   -2.2138   -0.1655    3.7196 C   0  0  0  0  0  0  0  0  0  0  0  0
   -1.2581    0.5679    1.5851 C   0  0  0  0  0  0  0  0  0  0  0  0
   -3.4895    1.2914    5.3346 C   0  0  2  0  0  0  0  0  0  0  0  0
   -2.9033    0.0518    4.8829 N   0  0  0  0  0  0  0  0  0  0  0  0
   -1.7398   -1.4661    3.4587 C   0  0  0  0  0  0  0  0  0  0  0  0
   -0.8089   -0.7424    1.3123 C   0  0  0  0  0  0  0  0  0  0  0  0
   -4.7240    0.9824    6.2264 C   0  0  1  0  0  0  0  0  0  0  0  0
   -1.0447   -1.7630    2.2665 C   0  0  0  0  0  0  0  0  0  0  0  0
    0.0147   -1.0680   -0.2266 S   0  0  2  0  0  0  0  0  0  0  0  0
   -4.3158   -0.0130    7.6234 Cl  0  0  0  0  0  0  0  0  0  0  0  0
   -5.4644    2.4482    6.8680 Cl  0  0  0  0  0  0  0  0  0  0  0  0
   -0.5291   -3.3641    2.0380 Cl  0  0  0  0  0  0  0  0  0  0  0  0
    0.1714    0.3801   -1.2135 N   0  0  2  0  0  0  0  0  0  0  0  0
   -0.8176   -2.1478   -1.0727 O   0  0  0  0  0  0  0  0  0  0  0  0
    1.4878   -1.6467    0.0344 O   0  0  0  0  0  0  0  0  0  0  0  0
   -4.6580    1.7203    3.7293 H   0  0  0  0  0  0  0  0  0  0  0  0
   -1.0855    1.3245    0.9222 H   0  0  0  0  0  0  0  0  0  0  0  0
   -2.7459    1.8128    5.9457 H   0  0  0  0  0  0  0  0  0  0  0  0
   -2.9832   -0.7073    5.4843 H   0  0  0  0  0  0  0  0  0  0  0  0
   -1.9108   -2.2083    4.1414 H   0  0  0  0  0  0  0  0  0  0  0  0
   -5.4770    0.4516    5.6389 H   0  0  0  0  0  0  0  0  0  0  0  0
    0.6807    1.0761   -0.6635 H   0  0  0  0  0  0  0  0  0  0  0  0
   -0.7712    0.7482   -1.3533 H   0  0  0  0  0  0  0  0  0  0  0  0
  1  2  2  0  0  0  0 
  2  3  2  0  0  0  0 
  2  4  1  0  0  0  0 
  2  5  1  0  0  0  0 
  4  6  2  0  0  0  0 
  4  7  1  0  0  0  0 
  8  5  1  0  0  0  0 
  6  9  1  0  0  0  0 
  6 10  1  0  0  0  0 
  7 11  2  0  0  0  0 
  8  9  1  0  0  0  0 
  8 12  1  0  0  0  0 
 10 13  2  0  0  0  0 
 11 13  1  0  0  0  0 
 11 14  1  0  0  0  0 
 12 15  1  0  0  0  0 
 12 16  1  0  0  0  0 
 13 17  1  0  0  0  0 
 14 18  1  0  0  0  0 
 14 19  2  0  0  0  0 
 14 20  2  0  0  0  0 
  5 21  1  0  0  0  0 
  7 22  1  0  0  0  0 
  8 23  1  0  0  0  0 
  9 24  1  0  0  0  0 
 10 25  1  0  0  0  0 
 12 26  1  0  0  0  0 
 18 27  1  0  0  0  0 
 18 28  1  0  0  0  0 
M  END
> <cdk:Title>
trichlormethiazide

> <Conformer>
1

> <SuperDrugID>
SD002463

$$$$
