dexmethylphenidate
  CDK     0628171802

 36 37  0  0  0  0  0  0  0  0999 V2000
   -1.7972   -1.9339    0.8338 C   0  0  2  0  0  0  0  0  0  0  0  0
   -3.0775   -2.5518    1.2744 C   0  0  0  0  0  0  0  0  0  0  0  0
   -1.4173   -0.8100    1.7563 C   0  0  0  0  0  0  0  0  0  0  0  0
   -1.8371   -1.5309   -0.6820 C   0  0  1  0  0  0  0  0  0  0  0  0
   -3.0702   -3.8415    1.7265 O   0  0  0  0  0  0  0  0  0  0  0  0
   -4.1559   -1.9133    1.2116 O   0  0  0  0  0  0  0  0  0  0  0  0
   -2.1550    0.4011    1.7982 C   0  0  0  0  0  0  0  0  0  0  0  0
   -0.2971   -0.9283    2.6180 C   0  0  0  0  0  0  0  0  0  0  0  0
   -0.4598   -1.0127   -1.2064 C   0  0  1  0  0  0  0  0  0  0  0  0
   -2.2859   -2.6874   -1.5093 N   0  0  1  0  0  0  0  0  0  0  0  0
   -4.2105   -4.6110    2.1159 C   0  0  0  0  0  0  0  0  0  0  0  0
   -1.8055    1.4375    2.6839 C   0  0  0  0  0  0  0  0  0  0  0  0
    0.0511    0.1050    3.5067 C   0  0  0  0  0  0  0  0  0  0  0  0
   -0.4917   -0.7152   -2.7299 C   0  0  2  0  0  0  0  0  0  0  0  0
   -2.3942   -2.3997   -2.9594 C   0  0  2  0  0  0  0  0  0  0  0  0
   -0.7089    1.2857    3.5481 C   0  0  0  0  0  0  0  0  0  0  0  0
   -1.0398   -1.9196   -3.5367 C   0  0  1  0  0  0  0  0  0  0  0  0
   -2.5757   -0.7340   -0.8096 H   0  0  0  0  0  0  0  0  0  0  0  0
   -1.0395   -2.7208    0.9130 H   0  0  0  0  0  0  0  0  0  0  0  0
   -2.9580    0.5419    1.1820 H   0  0  0  0  0  0  0  0  0  0  0  0
    0.2782   -1.7739    2.6101 H   0  0  0  0  0  0  0  0  0  0  0  0
   -0.1830   -0.0950   -0.6812 H   0  0  0  0  0  0  0  0  0  0  0  0
    0.3140   -1.7605   -1.0087 H   0  0  0  0  0  0  0  0  0  0  0  0
   -1.5901   -3.4292   -1.4016 H   0  0  0  0  0  0  0  0  0  0  0  0
   -3.8769   -5.6036    2.4169 H   0  0  0  0  0  0  0  0  0  0  0  0
   -4.9008   -4.7092    1.2751 H   0  0  0  0  0  0  0  0  0  0  0  0
   -4.7209   -4.1367    2.9545 H   0  0  0  0  0  0  0  0  0  0  0  0
   -2.3521    2.2997    2.7004 H   0  0  0  0  0  0  0  0  0  0  0  0
    0.8567   -0.0063    4.1245 H   0  0  0  0  0  0  0  0  0  0  0  0
    0.5195   -0.4789   -3.0748 H   0  0  0  0  0  0  0  0  0  0  0  0
   -1.1199    0.1604   -2.9186 H   0  0  0  0  0  0  0  0  0  0  0  0
   -3.1665   -1.6473   -3.1369 H   0  0  0  0  0  0  0  0  0  0  0  0
   -2.6971   -3.3162   -3.4673 H   0  0  0  0  0  0  0  0  0  0  0  0
   -0.4626    2.0336    4.2004 H   0  0  0  0  0  0  0  0  0  0  0  0
   -1.1685   -1.6328   -4.5854 H   0  0  0  0  0  0  0  0  0  0  0  0
   -0.3175   -2.7404   -3.4956 H   0  0  0  0  0  0  0  0  0  0  0  0
  1  2  1  0  0  0  0 
  1  3  1  0  0  0  0 
  4  1  1  0  0  0  0 
  2  5  1  0  0  0  0 
  2  6  2  0  0  0  0 
  3  7  2  0  0  0  0 
  3  8  1  0  0  0  0 
  4  9  1  0  0  0  0 
  4 10  1  0  0  0  0 
  5 11  1  0  0  0  0 
  7 12  1  0  0  0  0 
  8 13  2  0  0  0  0 
  9 14  1  0  0  0  0 
 10 15  1  0  0  0  0 
 12 16  2  0  0  0  0 
 13 16  1  0  0  0  0 
 14 17  1  0  0  0  0 
 15 17  1  0  0  0  0 
  4 18  1  0  0  0  0 
  1 19  1  0  0  0  0 
  7 20  1  0  0  0  0 
  8 21  1  0  0  0  0 
  9 22  1  0  0  0  0 
  9 23  1  0  0  0  0 
 10 24  1  0  0  0  0 
 11 25  1  0  0  0  0 
 11 26  1  0  0  0  0 
 11 27  1  0  0  0  0 
 12 28  1  0  0  0  0 
 13 29  1  0  0  0  0 
 14 30  1  0  0  0  0 
 14 31  1  0  0  0  0 
 15 32  1  0  0  0  0 
 15 33  1  0  0  0  0 
 16 34  1  0  0  0  0 
 17 35  1  0  0  0  0 
 17 36  1  0  0  0  0 
M  END
> <cdk:Title>
dexmethylphenidate

> <Conformer>
1

> <SuperDrugID>
SD000740

$$$$
