carprofen
  CDK     0628171802

 31 33  0  0  0  0  0  0  0  0999 V2000
   -1.5984   -0.6123   -8.8356 Cl  0  0  0  0  0  0  0  0  0  0  0  0
   -1.5550    0.1393   -7.3196 C   0  0  0  0  0  0  0  0  0  0  0  0
   -1.9863    1.4795   -7.1909 C   0  0  0  0  0  0  0  0  0  0  0  0
   -1.0895   -0.5758   -6.1890 C   0  0  0  0  0  0  0  0  0  0  0  0
   -1.9514    2.0699   -5.9147 C   0  0  0  0  0  0  0  0  0  0  0  0
   -1.0552    0.0349   -4.9170 C   0  0  0  0  0  0  0  0  0  0  0  0
   -2.3035    3.3360   -5.4591 C   0  0  0  0  0  0  0  0  0  0  0  0
   -1.4992    1.3617   -4.7982 C   0  0  0  0  0  0  0  0  0  0  0  0
   -2.0634    3.3423   -4.0847 C   0  0  0  0  0  0  0  0  0  0  0  0
   -2.8078    4.4708   -6.1126 C   0  0  0  0  0  0  0  0  0  0  0  0
   -1.5754    2.1471   -3.7102 N   0  0  0  0  0  0  0  0  0  0  0  0
   -2.3242    4.4838   -3.3118 C   0  0  0  0  0  0  0  0  0  0  0  0
   -3.0505    5.6302   -5.3465 C   0  0  0  0  0  0  0  0  0  0  0  0
   -2.7967    5.6655   -3.9455 C   0  0  0  0  0  0  0  0  0  0  0  0
   -3.0205    6.9283   -3.1702 C   0  0  2  0  0  0  0  0  0  0  0  0
   -1.7650    7.4179   -2.5430 C   0  0  0  0  0  0  0  0  0  0  0  0
   -4.1644    6.7882   -2.1316 C   0  0  0  0  0  0  0  0  0  0  0  0
   -1.2069    6.7829   -1.4849 O   0  0  0  0  0  0  0  0  0  0  0  0
   -1.1879    8.4436   -2.9713 O   0  0  0  0  0  0  0  0  0  0  0  0
   -2.3193    2.0078   -7.9992 H   0  0  0  0  0  0  0  0  0  0  0  0
   -0.7726   -1.5441   -6.2854 H   0  0  0  0  0  0  0  0  0  0  0  0
   -0.7151   -0.4752   -4.0988 H   0  0  0  0  0  0  0  0  0  0  0  0
   -2.9911    4.4615   -7.1177 H   0  0  0  0  0  0  0  0  0  0  0  0
   -1.3184    1.8956   -2.8087 H   0  0  0  0  0  0  0  0  0  0  0  0
   -2.1616    4.4491   -2.3031 H   0  0  0  0  0  0  0  0  0  0  0  0
   -3.4147    6.4560   -5.8269 H   0  0  0  0  0  0  0  0  0  0  0  0
   -3.3537    7.7127   -3.8568 H   0  0  0  0  0  0  0  0  0  0  0  0
   -4.3509    7.7480   -1.6435 H   0  0  0  0  0  0  0  0  0  0  0  0
   -5.0864    6.4769   -2.6292 H   0  0  0  0  0  0  0  0  0  0  0  0
   -3.9122    6.0512   -1.3660 H   0  0  0  0  0  0  0  0  0  0  0  0
   -0.3787    7.1249   -1.0867 H   0  0  0  0  0  0  0  0  0  0  0  0
  1  2  1  0  0  0  0 
  2  3  2  0  0  0  0 
  2  4  1  0  0  0  0 
  3  5  1  0  0  0  0 
  4  6  2  0  0  0  0 
  5  7  1  0  0  0  0 
  5  8  2  0  0  0  0 
  6  8  1  0  0  0  0 
  7  9  2  0  0  0  0 
  7 10  1  0  0  0  0 
  8 11  1  0  0  0  0 
  9 11  1  0  0  0  0 
  9 12  1  0  0  0  0 
 10 13  2  0  0  0  0 
 12 14  2  0  0  0  0 
 13 14  1  0  0  0  0 
 15 14  1  0  0  0  0 
 15 16  1  0  0  0  0 
 15 17  1  0  0  0  0 
 16 18  1  0  0  0  0 
 16 19  2  0  0  0  0 
  3 20  1  0  0  0  0 
  4 21  1  0  0  0  0 
  6 22  1  0  0  0  0 
 10 23  1  0  0  0  0 
 11 24  1  0  0  0  0 
 12 25  1  0  0  0  0 
 13 26  1  0  0  0  0 
 15 27  1  0  0  0  0 
 17 28  1  0  0  0  0 
 17 29  1  0  0  0  0 
 17 30  1  0  0  0  0 
 18 31  1  0  0  0  0 
M  END
> <cdk:Title>
carprofen

> <Conformer>
1

> <SuperDrugID>
SD000448

$$$$
