efinaconazole
  CDK     0628171802

 47 49  0  0  0  0  0  0  0  0999 V2000
   -2.4504    0.2949   -1.0122 C   0  0  1  0  0  0  0  0  0  0  0  0
   -2.1148    0.3465   -2.5741 C   0  0  1  0  0  0  0  0  0  0  0  0
   -0.5825    0.1955   -2.8638 C   0  0  0  0  0  0  0  0  0  0  0  0
   -2.9585   -0.5836   -3.4655 N   0  0  1  0  0  0  0  0  0  0  0  0
   -4.4446   -0.3187   -3.4274 C   0  0  1  0  0  0  0  0  0  0  0  0
   -5.3128   -1.2143   -4.3519 C   0  0  1  0  0  0  0  0  0  0  0  0
   -4.7722   -1.2257   -5.7028 C   0  0  0  0  0  0  0  0  0  0  0  0
   -3.3693   -1.5967   -5.8155 C   0  0  1  0  0  0  0  0  0  0  0  0
   -2.5026   -0.6847   -4.9052 C   0  0  2  0  0  0  0  0  0  0  0  0
   -5.5164   -0.8941   -6.7745 C   0  0  0  0  0  0  0  0  0  0  0  0
   -1.6403    1.2851   -0.0901 C   0  0  1  0  0  0  0  0  0  0  0  0
   -2.1374    1.3588    1.2597 N   0  0  0  0  0  0  0  0  0  0  0  0
   -1.7178    0.6423    2.3211 C   0  0  0  0  0  0  0  0  0  0  0  0
   -2.4412    0.9696    3.3984 N   0  0  0  0  0  0  0  0  0  0  0  0
   -3.2961    1.9012    2.9568 C   0  0  0  0  0  0  0  0  0  0  0  0
   -3.0987    2.1354    1.6515 N   0  0  0  0  0  0  0  0  0  0  0  0
   -3.7553    0.8829   -0.8791 O   0  0  0  0  0  0  0  0  0  0  0  0
   -2.4285   -1.1198   -0.4629 C   0  0  0  0  0  0  0  0  0  0  0  0
   -1.2185   -1.8271   -0.1936 C   0  0  0  0  0  0  0  0  0  0  0  0
   -0.0334   -1.3122   -0.3659 F   0  0  0  0  0  0  0  0  0  0  0  0
   -1.2307   -3.1429    0.3092 C   0  0  0  0  0  0  0  0  0  0  0  0
   -2.4465   -3.7983    0.5488 C   0  0  0  0  0  0  0  0  0  0  0  0
   -3.6551   -3.1251    0.3126 C   0  0  0  0  0  0  0  0  0  0  0  0
   -3.6405   -1.8044   -0.1685 C   0  0  0  0  0  0  0  0  0  0  0  0
   -2.4518   -5.0254    0.9944 F   0  0  0  0  0  0  0  0  0  0  0  0
   -2.3398    1.3700   -2.8958 H   0  0  0  0  0  0  0  0  0  0  0  0
    0.0391    0.7524   -2.1702 H   0  0  0  0  0  0  0  0  0  0  0  0
   -0.3351    0.5919   -3.8495 H   0  0  0  0  0  0  0  0  0  0  0  0
   -0.2866   -0.8541   -2.8367 H   0  0  0  0  0  0  0  0  0  0  0  0
   -4.8353   -0.5134   -2.4359 H   0  0  0  0  0  0  0  0  0  0  0  0
   -4.6399    0.7307   -3.6680 H   0  0  0  0  0  0  0  0  0  0  0  0
   -5.3195   -2.2383   -3.9662 H   0  0  0  0  0  0  0  0  0  0  0  0
   -6.3446   -0.8483   -4.3200 H   0  0  0  0  0  0  0  0  0  0  0  0
   -3.2515   -2.6383   -5.5027 H   0  0  0  0  0  0  0  0  0  0  0  0
   -2.9999   -1.5200   -6.8438 H   0  0  0  0  0  0  0  0  0  0  0  0
   -1.4990   -1.1114   -4.9534 H   0  0  0  0  0  0  0  0  0  0  0  0
   -2.4673    0.3157   -5.3488 H   0  0  0  0  0  0  0  0  0  0  0  0
   -6.4690   -0.6353   -6.6764 H   0  0  0  0  0  0  0  0  0  0  0  0
   -5.1308   -0.8988   -7.6884 H   0  0  0  0  0  0  0  0  0  0  0  0
   -0.5850    1.0280   -0.0405 H   0  0  0  0  0  0  0  0  0  0  0  0
   -1.6738    2.2886   -0.5241 H   0  0  0  0  0  0  0  0  0  0  0  0
   -0.9682   -0.0525    2.3185 H   0  0  0  0  0  0  0  0  0  0  0  0
   -4.0007    2.3657    3.5324 H   0  0  0  0  0  0  0  0  0  0  0  0
   -3.6830    1.7904   -1.2459 H   0  0  0  0  0  0  0  0  0  0  0  0
   -0.3492   -3.6258    0.5038 H   0  0  0  0  0  0  0  0  0  0  0  0
   -4.5465   -3.5932    0.4928 H   0  0  0  0  0  0  0  0  0  0  0  0
   -4.5458   -1.3520   -0.2958 H   0  0  0  0  0  0  0  0  0  0  0  0
  2  1  1  0  0  0  0 
  1 11  1  0  0  0  0 
  1 17  1  0  0  0  0 
  1 18  1  0  0  0  0 
  2  3  1  0  0  0  0 
  2  4  1  0  0  0  0 
  4  5  1  0  0  0  0 
  4  9  1  0  0  0  0 
  5  6  1  0  0  0  0 
  6  7  1  0  0  0  0 
  7 10  2  0  0  0  0 
  8  7  1  0  0  0  0 
  9  8  1  0  0  0  0 
 11 12  1  0  0  0  0 
 12 13  1  0  0  0  0 
 12 16  1  0  0  0  0 
 13 14  2  0  0  0  0 
 14 15  1  0  0  0  0 
 16 15  2  0  0  0  0 
 18 19  2  0  0  0  0 
 18 24  1  0  0  0  0 
 19 20  1  0  0  0  0 
 19 21  1  0  0  0  0 
 21 22  2  0  0  0  0 
 22 25  1  0  0  0  0 
 23 22  1  0  0  0  0 
 24 23  2  0  0  0  0 
  2 26  1  0  0  0  0 
  3 27  1  0  0  0  0 
  3 28  1  0  0  0  0 
  3 29  1  0  0  0  0 
  5 30  1  0  0  0  0 
  5 31  1  0  0  0  0 
  6 32  1  0  0  0  0 
  6 33  1  0  0  0  0 
  8 34  1  0  0  0  0 
  8 35  1  0  0  0  0 
  9 36  1  0  0  0  0 
  9 37  1  0  0  0  0 
 10 38  1  0  0  0  0 
 10 39  1  0  0  0  0 
 11 40  1  0  0  0  0 
 11 41  1  0  0  0  0 
 13 42  1  0  0  0  0 
 15 43  1  0  0  0  0 
 17 44  1  0  0  0  0 
 21 45  1  0  0  0  0 
 23 46  1  0  0  0  0 
 24 47  1  0  0  0  0 
M  END
> <cdk:Title>
efinaconazole

> <Conformer>
1

> <SuperDrugID>
SD003816

$$$$
