guanoclor
  CDK     0628171801

 28 28  0  0  0  0  0  0  0  0999 V2000
   -0.2168    2.0836    0.6795 O   0  0  0  0  0  0  0  0  0  0  0  0
    0.6476    0.9288    0.6622 C   0  0  1  0  0  0  0  0  0  0  0  0
    0.1628    3.0312    1.5992 C   0  0  0  0  0  0  0  0  0  0  0  0
    0.0693   -0.1506   -0.2834 C   0  0  2  0  0  0  0  0  0  0  0  0
    1.1032    4.0332    1.2555 C   0  0  0  0  0  0  0  0  0  0  0  0
   -0.4091    3.0307    2.8950 C   0  0  0  0  0  0  0  0  0  0  0  0
   -1.2592   -0.5501    0.0405 N   0  0  0  0  0  0  0  0  0  0  0  0
    1.7603    4.1271   -0.3046 Cl  0  0  0  0  0  0  0  0  0  0  0  0
    1.5058    4.9818    2.2171 C   0  0  0  0  0  0  0  0  0  0  0  0
   -1.5866    1.8932    3.3368 Cl  0  0  0  0  0  0  0  0  0  0  0  0
   -0.0046    3.9897    3.8462 C   0  0  0  0  0  0  0  0  0  0  0  0
   -1.5807   -0.9301    1.2090 N   0  0  0  0  0  0  0  0  0  0  0  0
    0.9578    4.9575    3.5106 C   0  0  0  0  0  0  0  0  0  0  0  0
   -2.7346   -1.3355    1.5920 C   0  0  0  0  0  0  0  0  0  0  0  0
   -3.7759   -1.4340    0.7845 N   0  0  0  0  0  0  0  0  0  0  0  0
   -2.8773   -1.6662    2.8569 N   0  0  0  0  0  0  0  0  0  0  0  0
    1.6432    1.2076    0.3037 H   0  0  0  0  0  0  0  0  0  0  0  0
    0.7496    0.4955    1.6625 H   0  0  0  0  0  0  0  0  0  0  0  0
    0.7173   -1.0295   -0.2591 H   0  0  0  0  0  0  0  0  0  0  0  0
    0.0715    0.2344   -1.3058 H   0  0  0  0  0  0  0  0  0  0  0  0
   -1.9308   -0.5498   -0.6607 H   0  0  0  0  0  0  0  0  0  0  0  0
    2.2002    5.6948    1.9822 H   0  0  0  0  0  0  0  0  0  0  0  0
   -0.4044    3.9890    4.7875 H   0  0  0  0  0  0  0  0  0  0  0  0
    1.2571    5.6453    4.2062 H   0  0  0  0  0  0  0  0  0  0  0  0
   -3.6781   -1.2464   -0.1631 H   0  0  0  0  0  0  0  0  0  0  0  0
   -4.6423   -1.6970    1.1345 H   0  0  0  0  0  0  0  0  0  0  0  0
   -2.1285   -1.5877    3.4702 H   0  0  0  0  0  0  0  0  0  0  0  0
   -3.7311   -1.9878    3.1860 H   0  0  0  0  0  0  0  0  0  0  0  0
  1  2  1  0  0  0  0 
  1  3  1  0  0  0  0 
  2  4  1  0  0  0  0 
  3  5  2  0  0  0  0 
  3  6  1  0  0  0  0 
  4  7  1  0  0  0  0 
  5  8  1  0  0  0  0 
  5  9  1  0  0  0  0 
  6 10  1  0  0  0  0 
  6 11  2  0  0  0  0 
  7 12  1  0  0  0  0 
  9 13  2  0  0  0  0 
 11 13  1  0  0  0  0 
 12 14  2  0  0  0  0 
 14 15  1  0  0  0  0 
 14 16  1  0  0  0  0 
 17  2  1  0  0  0  0 
 18  2  1  0  0  0  0 
 19  4  1  0  0  0  0 
 20  4  1  0  0  0  0 
 21  7  1  0  0  0  0 
 22  9  1  0  0  0  0 
 23 11  1  0  0  0  0 
 24 13  1  0  0  0  0 
 25 15  1  0  0  0  0 
 26 15  1  0  0  0  0 
 27 16  1  0  0  0  0 
 28 16  1  0  0  0  0 
M  END
> <cdk:Title>
guanoclor

> <Conformer>
1

> <SuperDrugID>
SD003623

$$$$
