aminoacridine
  CDK     0628171801

 25 27  0  0  0  0  0  0  0  0999 V2000
    1.4356   -0.2740   -0.1684 N   0  0  0  0  0  0  0  0  0  0  0  0
    0.3837   -0.3995    0.6800 C   0  0  0  0  0  0  0  0  0  0  0  0
   -0.8338    0.2857    0.4079 C   0  0  0  0  0  0  0  0  0  0  0  0
   -1.0300    1.1272   -0.7180 C   0  0  0  0  0  0  0  0  0  0  0  0
   -2.2576    1.7802   -0.9306 C   0  0  0  0  0  0  0  0  0  0  0  0
   -3.3162    1.6057   -0.0239 C   0  0  0  0  0  0  0  0  0  0  0  0
   -3.1472    0.7795    1.0992 C   0  0  0  0  0  0  0  0  0  0  0  0
   -1.9180    0.1254    1.3168 C   0  0  0  0  0  0  0  0  0  0  0  0
   -1.7739   -0.6581    2.4121 N   0  0  0  0  0  0  0  0  0  0  0  0
   -0.6279   -1.3171    2.7055 C   0  0  0  0  0  0  0  0  0  0  0  0
   -0.5757   -2.1000    3.8753 C   0  0  0  0  0  0  0  0  0  0  0  0
    0.6021   -2.7897    4.2072 C   0  0  0  0  0  0  0  0  0  0  0  0
    1.7250   -2.7033    3.3666 C   0  0  0  0  0  0  0  0  0  0  0  0
    1.6738   -1.9256    2.1937 C   0  0  0  0  0  0  0  0  0  0  0  0
    0.4992   -1.2122    1.8422 C   0  0  0  0  0  0  0  0  0  0  0  0
    2.2657   -0.7489   -0.0061 H   0  0  0  0  0  0  0  0  0  0  0  0
    1.3645    0.2984   -0.9458 H   0  0  0  0  0  0  0  0  0  0  0  0
   -0.2875    1.2839   -1.4018 H   0  0  0  0  0  0  0  0  0  0  0  0
   -2.3808    2.3866   -1.7460 H   0  0  0  0  0  0  0  0  0  0  0  0
   -4.2060    2.0821   -0.1801 H   0  0  0  0  0  0  0  0  0  0  0  0
   -3.9234    0.6617    1.7568 H   0  0  0  0  0  0  0  0  0  0  0  0
   -1.3931   -2.1694    4.4878 H   0  0  0  0  0  0  0  0  0  0  0  0
    0.6394   -3.3541    5.0582 H   0  0  0  0  0  0  0  0  0  0  0  0
    2.5813   -3.2087    3.6108 H   0  0  0  0  0  0  0  0  0  0  0  0
    2.5092   -1.8940    1.6062 H   0  0  0  0  0  0  0  0  0  0  0  0
  1  2  1  0  0  0  0 
  2  3  1  0  0  0  0 
  3  4  2  0  0  0  0 
  4  5  1  0  0  0  0 
  5  6  2  0  0  0  0 
  6  7  1  0  0  0  0 
  7  8  2  0  0  0  0 
  3  8  1  0  0  0  0 
  8  9  1  0  0  0  0 
  9 10  2  0  0  0  0 
 10 11  1  0  0  0  0 
 11 12  2  0  0  0  0 
 12 13  1  0  0  0  0 
 13 14  2  0  0  0  0 
 14 15  1  0  0  0  0 
  2 15  2  0  0  0  0 
 10 15  1  0  0  0  0 
  1 16  1  0  0  0  0 
  1 17  1  0  0  0  0 
  4 18  1  0  0  0  0 
  5 19  1  0  0  0  0 
  6 20  1  0  0  0  0 
  7 21  1  0  0  0  0 
 11 22  1  0  0  0  0 
 12 23  1  0  0  0  0 
 13 24  1  0  0  0  0 
 14 25  1  0  0  0  0 
M  END
> <cdk:Title>
aminoacridine

> <Conformer>
1

> <SuperDrugID>
SD000126

$$$$
