alfadolone acetate
  CDK     0628171802

 62 65  0  0  0  0  0  0  0  0999 V2000
   -3.1247   -9.0537    2.0804 C   0  0  2  0  0  0  0  0  0  0  0  0
   -3.7134  -10.4458    2.4568 C   0  0  2  0  0  0  0  0  0  0  0  0
   -3.2253  -11.5949    1.5361 C   0  0  2  0  0  0  0  0  0  0  0  0
   -1.6924  -11.5592    1.2882 C   0  0  1  0  0  0  0  0  0  0  0  0
   -1.2054  -10.1409    0.8520 C   0  0  1  0  0  0  0  0  0  0  0  0
   -1.5528   -9.0092    1.9097 C   0  0  1  0  0  0  0  0  0  0  0  0
   -1.0682   -7.6121    1.3021 C   0  0  2  0  0  0  0  0  0  0  0  0
    0.2886  -10.1596    0.4136 C   0  0  2  0  0  0  0  0  0  0  0  0
    0.7436   -8.7821   -0.1254 C   0  0  1  0  0  0  0  0  0  0  0  0
    0.4654   -7.6435    0.8981 C   0  0  1  0  0  0  0  0  0  0  0  0
   -0.8933   -5.0315    1.5954 C   0  0  1  0  0  0  0  0  0  0  0  0
   -1.3942   -6.3540    2.0651 C   0  0  0  0  0  0  0  0  0  0  0  0
    0.9158   -6.2506    0.3516 C   0  0  1  0  0  0  0  0  0  0  0  0
    0.6545   -5.0891    1.3669 C   0  0  1  0  0  0  0  0  0  0  0  0
    2.3753   -6.0328   -0.1031 C   0  0  2  0  0  0  0  0  0  0  0  0
    2.5363   -4.4903   -0.1376 C   0  0  1  0  0  0  0  0  0  0  0  0
    1.2600   -3.9006    0.5427 C   0  0  2  0  0  0  0  0  0  0  0  0
    1.4783   -2.6143    1.2724 C   0  0  0  0  0  0  0  0  0  0  0  0
    2.4333   -2.4950    2.0765 O   0  0  0  0  0  0  0  0  0  0  0  0
    0.5716   -1.4610    1.0959 C   0  0  2  0  0  0  0  0  0  0  0  0
    0.5007   -1.1358   -0.2979 O   0  0  0  0  0  0  0  0  0  0  0  0
   -2.0650   -6.3568    3.1226 O   0  0  0  0  0  0  0  0  0  0  0  0
   -3.9181  -11.5346    0.2900 O   0  0  0  0  0  0  0  0  0  0  0  0
   -0.8686   -9.2686    3.3059 C   0  0  0  0  0  0  0  0  0  0  0  0
    1.3700   -5.2440    2.7654 C   0  0  0  0  0  0  0  0  0  0  0  0
    0.7359    0.0583   -0.9109 C   0  0  0  0  0  0  0  0  0  0  0  0
    0.6300    0.0904   -2.3739 C   0  0  0  0  0  0  0  0  0  0  0  0
    1.0344    1.0906   -0.2658 O   0  0  0  0  0  0  0  0  0  0  0  0
   -3.4506   -8.3508    2.8474 H   0  0  0  0  0  0  0  0  0  0  0  0
   -3.5985   -8.7372    1.1472 H   0  0  0  0  0  0  0  0  0  0  0  0
   -4.8042  -10.3906    2.4105 H   0  0  0  0  0  0  0  0  0  0  0  0
   -3.4588  -10.6843    3.4917 H   0  0  0  0  0  0  0  0  0  0  0  0
   -3.4837  -12.5491    2.0051 H   0  0  0  0  0  0  0  0  0  0  0  0
   -1.1683  -11.8776    2.1920 H   0  0  0  0  0  0  0  0  0  0  0  0
   -1.4520  -12.2890    0.5087 H   0  0  0  0  0  0  0  0  0  0  0  0
   -1.7600   -9.9141   -0.0678 H   0  0  0  0  0  0  0  0  0  0  0  0
   -1.6243   -7.4754    0.3665 H   0  0  0  0  0  0  0  0  0  0  0  0
    0.4244  -10.9006   -0.3801 H   0  0  0  0  0  0  0  0  0  0  0  0
    0.9253  -10.4533    1.2503 H   0  0  0  0  0  0  0  0  0  0  0  0
    1.8131   -8.8360   -0.3371 H   0  0  0  0  0  0  0  0  0  0  0  0
    0.2281   -8.5740   -1.0676 H   0  0  0  0  0  0  0  0  0  0  0  0
    1.0786   -7.8551    1.7739 H   0  0  0  0  0  0  0  0  0  0  0  0
   -1.4128   -4.7826    0.6665 H   0  0  0  0  0  0  0  0  0  0  0  0
   -1.1314   -4.2411    2.3131 H   0  0  0  0  0  0  0  0  0  0  0  0
    0.3016   -6.0834   -0.5459 H   0  0  0  0  0  0  0  0  0  0  0  0
    2.5503   -6.4703   -1.0891 H   0  0  0  0  0  0  0  0  0  0  0  0
    3.0711   -6.4875    0.6070 H   0  0  0  0  0  0  0  0  0  0  0  0
    3.4553   -4.2089    0.3843 H   0  0  0  0  0  0  0  0  0  0  0  0
    2.6129   -4.1373   -1.1725 H   0  0  0  0  0  0  0  0  0  0  0  0
    0.5619   -3.6872   -0.2761 H   0  0  0  0  0  0  0  0  0  0  0  0
    0.9112   -0.6038    1.6841 H   0  0  0  0  0  0  0  0  0  0  0  0
   -0.4276   -1.7333    1.4399 H   0  0  0  0  0  0  0  0  0  0  0  0
   -3.6078  -12.3200   -0.2087 H   0  0  0  0  0  0  0  0  0  0  0  0
   -1.0766   -8.4615    4.0043 H   0  0  0  0  0  0  0  0  0  0  0  0
   -1.2217  -10.1835    3.7753 H   0  0  0  0  0  0  0  0  0  0  0  0
    0.2117   -9.3589    3.2235 H   0  0  0  0  0  0  0  0  0  0  0  0
    1.0345   -6.1307    3.3017 H   0  0  0  0  0  0  0  0  0  0  0  0
    1.1408   -4.3892    3.4064 H   0  0  0  0  0  0  0  0  0  0  0  0
    2.4554   -5.3048    2.6666 H   0  0  0  0  0  0  0  0  0  0  0  0
    0.7327    1.1034   -2.7694 H   0  0  0  0  0  0  0  0  0  0  0  0
    1.4165   -0.5366   -2.7981 H   0  0  0  0  0  0  0  0  0  0  0  0
   -0.3399   -0.3107   -2.6720 H   0  0  0  0  0  0  0  0  0  0  0  0
  1  2  1  0  0  0  0 
  6  1  1  0  0  0  0 
  3  2  1  0  0  0  0 
  3  4  1  0  0  0  0 
  5  4  1  0  0  0  0 
  6  5  1  0  0  0  0 
  8  9  1  0  0  0  0 
 10  9  1  0  0  0  0 
  7 10  1  0  0  0  0 
  6  7  1  0  0  0  0 
  5  8  1  0  0  0  0 
 11 12  1  0  0  0  0 
 13 14  1  0  0  0  0 
 14 11  1  0  0  0  0 
  7 12  1  0  0  0  0 
 10 13  1  0  0  0  0 
 15 16  1  0  0  0  0 
 17 16  1  0  0  0  0 
 13 15  1  0  0  0  0 
 14 17  1  0  0  0  0 
 17 18  1  0  0  0  0 
 18 19  2  0  0  0  0 
 18 20  1  0  0  0  0 
 20 21  1  0  0  0  0 
 12 22  2  0  0  0  0 
  3 23  1  0  0  0  0 
  6 24  1  0  0  0  0 
 14 25  1  0  0  0  0 
 21 26  1  0  0  0  0 
 26 27  1  0  0  0  0 
 26 28  2  0  0  0  0 
 29  1  1  0  0  0  0 
 30  1  1  0  0  0  0 
 31  2  1  0  0  0  0 
 32  2  1  0  0  0  0 
  3 33  1  0  0  0  0 
 34  4  1  0  0  0  0 
 35  4  1  0  0  0  0 
  5 36  1  0  0  0  0 
  7 37  1  0  0  0  0 
 38  8  1  0  0  0  0 
 39  8  1  0  0  0  0 
 40  9  1  0  0  0  0 
 41  9  1  0  0  0  0 
 10 42  1  0  0  0  0 
 43 11  1  0  0  0  0 
 44 11  1  0  0  0  0 
 13 45  1  0  0  0  0 
 46 15  1  0  0  0  0 
 47 15  1  0  0  0  0 
 48 16  1  0  0  0  0 
 49 16  1  0  0  0  0 
 17 50  1  0  0  0  0 
 51 20  1  0  0  0  0 
 52 20  1  0  0  0  0 
 53 23  1  0  0  0  0 
 54 24  1  0  0  0  0 
 55 24  1  0  0  0  0 
 56 24  1  0  0  0  0 
 57 25  1  0  0  0  0 
 58 25  1  0  0  0  0 
 59 25  1  0  0  0  0 
 60 27  1  0  0  0  0 
 61 27  1  0  0  0  0 
 62 27  1  0  0  0  0 
M  END
> <cdk:Title>
alfadolone acetate

> <Conformer>
1

> <SuperDrugID>
SD003883

$$$$
