perfosfamide
  CDK     0628171801

 31 31  0  0  0  0  0  0  0  0999 V2000
   -0.3270   -0.0993   -1.1040 N   0  0  1  0  0  0  0  0  0  0  0  0
    0.2125    0.9909   -0.2203 C   0  0  1  0  0  0  0  0  0  0  0  0
   -1.0355   -1.2429   -0.4337 C   0  0  1  0  0  0  0  0  0  0  0  0
   -1.0384    0.4636   -2.4931 P   0  0  1  0  0  0  0  0  0  0  0  0
    1.1388    0.5011    0.9209 C   0  0  1  0  0  0  0  0  0  0  0  0
   -2.3464   -0.8905    0.3164 C   0  0  2  0  0  0  0  0  0  0  0  0
   -0.1232    1.3555   -3.2190 O   0  0  0  0  0  0  0  0  0  0  0  0
   -1.4707   -0.7961   -3.4597 N   0  0  1  0  0  0  0  0  0  0  0  0
   -2.3795    1.2546   -2.1103 O   0  0  0  0  0  0  0  0  0  0  0  0
    1.9552    1.8419    1.7204 Cl  0  0  0  0  0  0  0  0  0  0  0  0
   -2.9641   -2.2776    1.2083 Cl  0  0  0  0  0  0  0  0  0  0  0  0
   -2.3689   -0.4239   -4.5835 C   0  0  2  0  0  0  0  0  0  0  0  0
   -3.2104    1.5791   -3.2439 C   0  0  2  0  0  0  0  0  0  0  0  0
   -1.7143    0.3691   -5.5905 O   0  0  0  0  0  0  0  0  0  0  0  0
   -3.6236    0.3314   -4.0698 C   0  0  2  0  0  0  0  0  0  0  0  0
   -0.7010   -0.2947   -6.1069 O   0  0  0  0  0  0  0  0  0  0  0  0
    0.8209    1.6694   -0.8256 H   0  0  0  0  0  0  0  0  0  0  0  0
   -0.6041    1.5788    0.2103 H   0  0  0  0  0  0  0  0  0  0  0  0
   -1.2584   -2.0255   -1.1636 H   0  0  0  0  0  0  0  0  0  0  0  0
   -0.3456   -1.7099    0.2707 H   0  0  0  0  0  0  0  0  0  0  0  0
    0.5637   -0.0361    1.6771 H   0  0  0  0  0  0  0  0  0  0  0  0
    1.9007   -0.1637    0.5118 H   0  0  0  0  0  0  0  0  0  0  0  0
   -3.1118   -0.5816   -0.3945 H   0  0  0  0  0  0  0  0  0  0  0  0
   -2.1808   -0.0833    1.0297 H   0  0  0  0  0  0  0  0  0  0  0  0
   -0.6151   -1.1936   -3.8532 H   0  0  0  0  0  0  0  0  0  0  0  0
   -2.7111   -1.3535   -5.0472 H   0  0  0  0  0  0  0  0  0  0  0  0
   -2.7156    2.3137   -3.8876 H   0  0  0  0  0  0  0  0  0  0  0  0
   -4.1157    2.0521   -2.8593 H   0  0  0  0  0  0  0  0  0  0  0  0
   -4.2099   -0.3367   -3.4322 H   0  0  0  0  0  0  0  0  0  0  0  0
   -4.2487    0.6353   -4.9128 H   0  0  0  0  0  0  0  0  0  0  0  0
   -1.0734   -0.7564   -6.8865 H   0  0  0  0  0  0  0  0  0  0  0  0
  1  2  1  0  0  0  0 
  1  3  1  0  0  0  0 
  4  1  1  0  0  0  0 
  2  5  1  0  0  0  0 
  3  6  1  0  0  0  0 
  4  7  2  0  0  0  0 
  4  8  1  0  0  0  0 
  4  9  1  0  0  0  0 
  5 10  1  0  0  0  0 
  6 11  1  0  0  0  0 
 12  8  1  0  0  0  0 
  9 13  1  0  0  0  0 
 12 14  1  0  0  0  0 
 12 15  1  0  0  0  0 
 13 15  1  0  0  0  0 
 14 16  1  0  0  0  0 
 17  2  1  0  0  0  0 
 18  2  1  0  0  0  0 
 19  3  1  0  0  0  0 
 20  3  1  0  0  0  0 
 21  5  1  0  0  0  0 
 22  5  1  0  0  0  0 
 23  6  1  0  0  0  0 
 24  6  1  0  0  0  0 
 25  8  1  0  0  0  0 
 12 26  1  0  0  0  0 
 27 13  1  0  0  0  0 
 28 13  1  0  0  0  0 
 29 15  1  0  0  0  0 
 30 15  1  0  0  0  0 
 31 16  1  0  0  0  0 
M  END
> <cdk:Title>
perfosfamide

> <Conformer>
1

> <SuperDrugID>
SD002955

$$$$
