diisopromine
  CDK     0628171802

 51 52  0  0  0  0  0  0  0  0999 V2000
   -1.0918    2.4783    0.1061 C   0  0  2  0  0  0  0  0  0  0  0  0
   -0.7638    0.9518    0.2108 C   0  0  2  0  0  0  0  0  0  0  0  0
   -0.7395    3.3126    1.3042 C   0  0  0  0  0  0  0  0  0  0  0  0
   -2.5164    2.7121   -0.3058 C   0  0  0  0  0  0  0  0  0  0  0  0
    0.6877    0.6072    0.6532 C   0  0  2  0  0  0  0  0  0  0  0  0
   -0.0589    4.5452    1.1301 C   0  0  0  0  0  0  0  0  0  0  0  0
   -1.0751    2.9290    2.6274 C   0  0  0  0  0  0  0  0  0  0  0  0
   -3.6025    2.2560    0.4852 C   0  0  0  0  0  0  0  0  0  0  0  0
   -2.8163    3.3843   -1.5182 C   0  0  0  0  0  0  0  0  0  0  0  0
    1.1172   -0.7218    0.0767 N   0  0  0  0  0  0  0  0  0  0  0  0
    0.2622    5.3656    2.2272 C   0  0  0  0  0  0  0  0  0  0  0  0
   -0.7518    3.7455    3.7290 C   0  0  0  0  0  0  0  0  0  0  0  0
   -4.9325    2.4473    0.0745 C   0  0  0  0  0  0  0  0  0  0  0  0
   -4.1479    3.5813   -1.9267 C   0  0  0  0  0  0  0  0  0  0  0  0
    1.1683   -1.8818    1.0484 C   0  0  1  0  0  0  0  0  0  0  0  0
    2.1378   -0.6393   -1.0474 C   0  0  1  0  0  0  0  0  0  0  0  0
   -0.0810    4.9637    3.5285 C   0  0  0  0  0  0  0  0  0  0  0  0
   -5.2066    3.1115   -1.1324 C   0  0  0  0  0  0  0  0  0  0  0  0
    2.3076   -1.7674    2.1012 C   0  0  0  0  0  0  0  0  0  0  0  0
   -0.2038   -2.1798    1.7099 C   0  0  0  0  0  0  0  0  0  0  0  0
    2.6621   -2.0050   -1.5930 C   0  0  0  0  0  0  0  0  0  0  0  0
    1.5943    0.1711   -2.2680 C   0  0  0  0  0  0  0  0  0  0  0  0
   -0.4472    2.8179   -0.7138 H   0  0  0  0  0  0  0  0  0  0  0  0
   -0.9419    0.5180   -0.7764 H   0  0  0  0  0  0  0  0  0  0  0  0
   -1.4566    0.4558    0.8917 H   0  0  0  0  0  0  0  0  0  0  0  0
    0.7265    0.6132    1.7459 H   0  0  0  0  0  0  0  0  0  0  0  0
    1.3670    1.4041    0.3404 H   0  0  0  0  0  0  0  0  0  0  0  0
    0.2035    4.8635    0.1936 H   0  0  0  0  0  0  0  0  0  0  0  0
   -1.5585    2.0479    2.8042 H   0  0  0  0  0  0  0  0  0  0  0  0
   -3.4406    1.7682    1.3666 H   0  0  0  0  0  0  0  0  0  0  0  0
   -2.0651    3.7339   -2.1192 H   0  0  0  0  0  0  0  0  0  0  0  0
    0.7458    6.2544    2.0793 H   0  0  0  0  0  0  0  0  0  0  0  0
   -1.0019    3.4534    4.6776 H   0  0  0  0  0  0  0  0  0  0  0  0
   -5.6996    2.1002    0.6533 H   0  0  0  0  0  0  0  0  0  0  0  0
   -4.3478    4.0656   -2.8032 H   0  0  0  0  0  0  0  0  0  0  0  0
    1.3573   -2.7976    0.4876 H   0  0  0  0  0  0  0  0  0  0  0  0
    3.0121   -0.1079   -0.6577 H   0  0  0  0  0  0  0  0  0  0  0  0
    0.1572    5.5566    4.3262 H   0  0  0  0  0  0  0  0  0  0  0  0
   -6.1738    3.2503   -1.4322 H   0  0  0  0  0  0  0  0  0  0  0  0
    2.4516   -2.7268    2.6030 H   0  0  0  0  0  0  0  0  0  0  0  0
    3.2482   -1.4935    1.6209 H   0  0  0  0  0  0  0  0  0  0  0  0
    2.0723   -1.0174    2.8578 H   0  0  0  0  0  0  0  0  0  0  0  0
   -0.1520   -3.1142    2.2749 H   0  0  0  0  0  0  0  0  0  0  0  0
   -0.9689   -2.2893    0.9381 H   0  0  0  0  0  0  0  0  0  0  0  0
   -0.5022   -1.3808    2.3893 H   0  0  0  0  0  0  0  0  0  0  0  0
    3.3471   -1.8570   -2.4299 H   0  0  0  0  0  0  0  0  0  0  0  0
    3.2158   -2.5443   -0.8234 H   0  0  0  0  0  0  0  0  0  0  0  0
    1.8290   -2.6255   -1.9324 H   0  0  0  0  0  0  0  0  0  0  0  0
    2.3709    0.2810   -3.0284 H   0  0  0  0  0  0  0  0  0  0  0  0
    1.2795    1.1774   -1.9900 H   0  0  0  0  0  0  0  0  0  0  0  0
    0.7400   -0.3426   -2.7154 H   0  0  0  0  0  0  0  0  0  0  0  0
  1  2  1  0  0  0  0 
  1  3  1  0  0  0  0 
  1  4  1  0  0  0  0 
  2  5  1  0  0  0  0 
  3  6  2  0  0  0  0 
  3  7  1  0  0  0  0 
  4  8  2  0  0  0  0 
  4  9  1  0  0  0  0 
  5 10  1  0  0  0  0 
  6 11  1  0  0  0  0 
  7 12  2  0  0  0  0 
  8 13  1  0  0  0  0 
  9 14  2  0  0  0  0 
 10 15  1  0  0  0  0 
 10 16  1  0  0  0  0 
 11 17  2  0  0  0  0 
 12 17  1  0  0  0  0 
 13 18  2  0  0  0  0 
 14 18  1  0  0  0  0 
 15 19  1  0  0  0  0 
 15 20  1  0  0  0  0 
 16 21  1  0  0  0  0 
 16 22  1  0  0  0  0 
  1 23  1  0  0  0  0 
  2 24  1  0  0  0  0 
  2 25  1  0  0  0  0 
  5 26  1  0  0  0  0 
  5 27  1  0  0  0  0 
  6 28  1  0  0  0  0 
  7 29  1  0  0  0  0 
  8 30  1  0  0  0  0 
  9 31  1  0  0  0  0 
 11 32  1  0  0  0  0 
 12 33  1  0  0  0  0 
 13 34  1  0  0  0  0 
 14 35  1  0  0  0  0 
 15 36  1  0  0  0  0 
 16 37  1  0  0  0  0 
 17 38  1  0  0  0  0 
 18 39  1  0  0  0  0 
 19 40  1  0  0  0  0 
 19 41  1  0  0  0  0 
 19 42  1  0  0  0  0 
 20 43  1  0  0  0  0 
 20 44  1  0  0  0  0 
 20 45  1  0  0  0  0 
 21 46  1  0  0  0  0 
 21 47  1  0  0  0  0 
 21 48  1  0  0  0  0 
 22 49  1  0  0  0  0 
 22 50  1  0  0  0  0 
 22 51  1  0  0  0  0 
M  END
> <cdk:Title>
diisopromine

> <Conformer>
1

> <SuperDrugID>
SD000794

$$$$
