dioxadrol
  CDK     0628171801

 46 49  0  0  0  0  0  0  0  0999 V2000
   -2.0376   -3.8118    3.7759 C   0  0  2  0  0  0  0  0  0  0  0  0
   -1.7916   -2.3927    3.8339 O   0  0  0  0  0  0  0  0  0  0  0  0
   -1.8236   -4.2151    2.4074 O   0  0  0  0  0  0  0  0  0  0  0  0
   -3.4532   -4.0172    4.2540 C   0  0  0  0  0  0  0  0  0  0  0  0
   -1.0120   -4.5506    4.5878 C   0  0  0  0  0  0  0  0  0  0  0  0
   -1.6701   -1.9017    2.5009 C   0  0  1  0  0  0  0  0  0  0  0  0
   -2.1145   -3.0709    1.6086 C   0  0  2  0  0  0  0  0  0  0  0  0
   -4.3956   -4.7741    3.5122 C   0  0  0  0  0  0  0  0  0  0  0  0
   -3.8819   -3.4475    5.4797 C   0  0  0  0  0  0  0  0  0  0  0  0
    0.2847   -4.0053    4.7873 C   0  0  0  0  0  0  0  0  0  0  0  0
   -1.2769   -5.8311    5.1408 C   0  0  0  0  0  0  0  0  0  0  0  0
   -2.4491   -0.5637    2.3277 C   0  0  1  0  0  0  0  0  0  0  0  0
   -5.7190   -4.9332    3.9634 C   0  0  0  0  0  0  0  0  0  0  0  0
   -5.2107   -3.5895    5.9224 C   0  0  0  0  0  0  0  0  0  0  0  0
    1.2605   -4.6899    5.5329 C   0  0  0  0  0  0  0  0  0  0  0  0
   -0.3029   -6.5147    5.8914 C   0  0  0  0  0  0  0  0  0  0  0  0
   -3.9310   -0.6296    2.8203 C   0  0  1  0  0  0  0  0  0  0  0  0
   -1.7126    0.4970    3.0681 N   0  0  1  0  0  0  0  0  0  0  0  0
   -6.1331   -4.3291    5.1631 C   0  0  0  0  0  0  0  0  0  0  0  0
    0.9650   -5.9440    6.0910 C   0  0  0  0  0  0  0  0  0  0  0  0
   -4.6126    0.7608    2.7680 C   0  0  2  0  0  0  0  0  0  0  0  0
   -2.3175    1.8445    2.9683 C   0  0  2  0  0  0  0  0  0  0  0  0
   -3.7695    1.8345    3.5016 C   0  0  1  0  0  0  0  0  0  0  0  0
   -0.6048   -1.7251    2.3159 H   0  0  0  0  0  0  0  0  0  0  0  0
   -3.1803   -3.0441    1.3759 H   0  0  0  0  0  0  0  0  0  0  0  0
   -1.5519   -3.1016    0.6720 H   0  0  0  0  0  0  0  0  0  0  0  0
   -4.1285   -5.2266    2.6366 H   0  0  0  0  0  0  0  0  0  0  0  0
   -3.2265   -2.9139    6.0581 H   0  0  0  0  0  0  0  0  0  0  0  0
    0.5416   -3.1006    4.3854 H   0  0  0  0  0  0  0  0  0  0  0  0
   -2.1837   -6.2830    5.0032 H   0  0  0  0  0  0  0  0  0  0  0  0
   -2.4370   -0.3076    1.2635 H   0  0  0  0  0  0  0  0  0  0  0  0
   -6.3815   -5.4864    3.4163 H   0  0  0  0  0  0  0  0  0  0  0  0
   -5.5072   -3.1559    6.7979 H   0  0  0  0  0  0  0  0  0  0  0  0
    2.1871   -4.2772    5.6644 H   0  0  0  0  0  0  0  0  0  0  0  0
   -0.5171   -7.4322    6.2889 H   0  0  0  0  0  0  0  0  0  0  0  0
   -4.5070   -1.3200    2.2010 H   0  0  0  0  0  0  0  0  0  0  0  0
   -3.9648   -0.9905    3.8516 H   0  0  0  0  0  0  0  0  0  0  0  0
   -1.7360    0.2422    4.0585 H   0  0  0  0  0  0  0  0  0  0  0  0
   -7.0998   -4.4329    5.4832 H   0  0  0  0  0  0  0  0  0  0  0  0
    1.6730   -6.4427    6.6339 H   0  0  0  0  0  0  0  0  0  0  0  0
   -5.6012    0.6939    3.2290 H   0  0  0  0  0  0  0  0  0  0  0  0
   -4.7471    1.0540    1.7222 H   0  0  0  0  0  0  0  0  0  0  0  0
   -2.3010    2.1884    1.9316 H   0  0  0  0  0  0  0  0  0  0  0  0
   -1.7140    2.5340    3.5626 H   0  0  0  0  0  0  0  0  0  0  0  0
   -4.2220    2.8176    3.3596 H   0  0  0  0  0  0  0  0  0  0  0  0
   -3.7560    1.6206    4.5737 H   0  0  0  0  0  0  0  0  0  0  0  0
  1  2  1  0  0  0  0 
  1  3  1  0  0  0  0 
  1  4  1  0  0  0  0 
  1  5  1  0  0  0  0 
  2  6  1  0  0  0  0 
  3  7  1  0  0  0  0 
  4  8  2  0  0  0  0 
  4  9  1  0  0  0  0 
  5 10  2  0  0  0  0 
  5 11  1  0  0  0  0 
  6  7  1  0  0  0  0 
  6 12  1  0  0  0  0 
  8 13  1  0  0  0  0 
  9 14  2  0  0  0  0 
 10 15  1  0  0  0  0 
 11 16  2  0  0  0  0 
 12 17  1  0  0  0  0 
 12 18  1  0  0  0  0 
 13 19  2  0  0  0  0 
 14 19  1  0  0  0  0 
 15 20  2  0  0  0  0 
 16 20  1  0  0  0  0 
 17 21  1  0  0  0  0 
 18 22  1  0  0  0  0 
 21 23  1  0  0  0  0 
 22 23  1  0  0  0  0 
  6 24  1  0  0  0  0 
  7 25  1  0  0  0  0 
  7 26  1  0  0  0  0 
  8 27  1  0  0  0  0 
  9 28  1  0  0  0  0 
 10 29  1  0  0  0  0 
 11 30  1  0  0  0  0 
 12 31  1  0  0  0  0 
 13 32  1  0  0  0  0 
 14 33  1  0  0  0  0 
 15 34  1  0  0  0  0 
 16 35  1  0  0  0  0 
 17 36  1  0  0  0  0 
 17 37  1  0  0  0  0 
 18 38  1  0  0  0  0 
 19 39  1  0  0  0  0 
 20 40  1  0  0  0  0 
 21 41  1  0  0  0  0 
 21 42  1  0  0  0  0 
 22 43  1  0  0  0  0 
 22 44  1  0  0  0  0 
 23 45  1  0  0  0  0 
 23 46  1  0  0  0  0 
M  END
> <cdk:Title>
dioxadrol

> <Conformer>
1

> <SuperDrugID>
SD002734

$$$$
