bagrosin
  CDK     0628171801

 36 39  0  0  0  0  0  0  0  0999 V2000
    3.3082    4.0655   -0.9426 C   0  0  0  0  0  0  0  0  0  0  0  0
    1.9528    4.0377   -0.1713 C   0  0  2  0  0  0  0  0  0  0  0  0
    1.2138    2.7308   -0.3219 C   0  0  0  0  0  0  0  0  0  0  0  0
    1.1887    5.1804   -0.5692 N   0  0  0  0  0  0  0  0  0  0  0  0
    2.1144    4.3924    1.2605 C   0  0  0  0  0  0  0  0  0  0  0  0
    1.8425    1.5137    0.0399 C   0  0  0  0  0  0  0  0  0  0  0  0
   -0.1123    2.6570   -0.8085 C   0  0  0  0  0  0  0  0  0  0  0  0
    0.9266    6.0147    0.4470 C   0  0  0  0  0  0  0  0  0  0  0  0
    2.7491    3.7311    2.1138 O   0  0  0  0  0  0  0  0  0  0  0  0
    1.4871    5.5362    1.5537 N   0  0  0  0  0  0  0  0  0  0  0  0
    1.2110    0.2445   -0.0747 C   0  0  0  0  0  0  0  0  0  0  0  0
   -0.7863    1.4302   -0.8926 C   0  0  0  0  0  0  0  0  0  0  0  0
    0.2656    7.0730    0.3673 O   0  0  0  0  0  0  0  0  0  0  0  0
    1.8574   -0.9982    0.2283 C   0  0  0  0  0  0  0  0  0  0  0  0
   -0.1448    0.2308   -0.5200 C   0  0  0  0  0  0  0  0  0  0  0  0
    1.1114   -2.2164    0.1301 C   0  0  0  0  0  0  0  0  0  0  0  0
    3.2238   -1.1046    0.6122 C   0  0  0  0  0  0  0  0  0  0  0  0
   -0.8593   -0.9818   -0.5936 C   0  0  0  0  0  0  0  0  0  0  0  0
   -0.2399   -2.1915   -0.2665 C   0  0  0  0  0  0  0  0  0  0  0  0
    1.7165   -3.4618    0.4168 C   0  0  0  0  0  0  0  0  0  0  0  0
    3.8225   -2.3483    0.8771 C   0  0  0  0  0  0  0  0  0  0  0  0
    3.0689   -3.5265    0.7822 C   0  0  0  0  0  0  0  0  0  0  0  0
    4.0581    3.4433   -0.4495 H   0  0  0  0  0  0  0  0  0  0  0  0
    3.1736    3.6957   -1.9610 H   0  0  0  0  0  0  0  0  0  0  0  0
    3.7077    5.0808   -0.9986 H   0  0  0  0  0  0  0  0  0  0  0  0
    0.8934    5.3352   -1.4810 H   0  0  0  0  0  0  0  0  0  0  0  0
    2.7917    1.5786    0.3976 H   0  0  0  0  0  0  0  0  0  0  0  0
   -0.6147    3.4971   -1.1019 H   0  0  0  0  0  0  0  0  0  0  0  0
    1.4527    5.9532    2.4291 H   0  0  0  0  0  0  0  0  0  0  0  0
   -1.7525    1.4214   -1.2324 H   0  0  0  0  0  0  0  0  0  0  0  0
    3.8247   -0.2865    0.7008 H   0  0  0  0  0  0  0  0  0  0  0  0
   -1.8401   -0.9985   -0.8867 H   0  0  0  0  0  0  0  0  0  0  0  0
   -0.7854   -3.0556   -0.3330 H   0  0  0  0  0  0  0  0  0  0  0  0
    1.1819   -4.3332    0.3570 H   0  0  0  0  0  0  0  0  0  0  0  0
    4.8094   -2.3952    1.1397 H   0  0  0  0  0  0  0  0  0  0  0  0
    3.5045   -4.4316    0.9767 H   0  0  0  0  0  0  0  0  0  0  0  0
  2  1  1  0  0  0  0 
  2  3  1  0  0  0  0 
  2  4  1  0  0  0  0 
  2  5  1  0  0  0  0 
  3  6  1  0  0  0  0 
  3  7  2  0  0  0  0 
  4  8  1  0  0  0  0 
  5  9  2  0  0  0  0 
  5 10  1  0  0  0  0 
  6 11  2  0  0  0  0 
  7 12  1  0  0  0  0 
  8 10  1  0  0  0  0 
  8 13  2  0  0  0  0 
 11 14  1  0  0  0  0 
 11 15  1  0  0  0  0 
 12 15  2  0  0  0  0 
 14 16  1  0  0  0  0 
 14 17  2  0  0  0  0 
 15 18  1  0  0  0  0 
 16 19  1  0  0  0  0 
 16 20  2  0  0  0  0 
 17 21  1  0  0  0  0 
 18 19  2  0  0  0  0 
 20 22  1  0  0  0  0 
 21 22  2  0  0  0  0 
 23  1  1  0  0  0  0 
 24  1  1  0  0  0  0 
 25  1  1  0  0  0  0 
 26  4  1  0  0  0  0 
 27  6  1  0  0  0  0 
 28  7  1  0  0  0  0 
 29 10  1  0  0  0  0 
 30 12  1  0  0  0  0 
 31 17  1  0  0  0  0 
 32 18  1  0  0  0  0 
 33 19  1  0  0  0  0 
 34 20  1  0  0  0  0 
 35 21  1  0  0  0  0 
 36 22  1  0  0  0  0 
M  END
> <cdk:Title>
bagrosin

> <Conformer>
1

> <SuperDrugID>
SD003224

$$$$
