bosentan
  CDK     0628171801

 68 71  0  0  0  0  0  0  0  0999 V2000
   -2.0847    3.5058   -3.7656 O   0  0  0  0  0  0  0  0  0  0  0  0
   -1.7068    3.9145   -2.5050 C   0  0  0  0  0  0  0  0  0  0  0  0
   -3.0288    2.4992   -3.7639 C   0  0  0  0  0  0  0  0  0  0  0  0
   -2.3981    4.9232   -1.7867 C   0  0  0  0  0  0  0  0  0  0  0  0
   -0.5568    3.3719   -1.8897 C   0  0  0  0  0  0  0  0  0  0  0  0
   -2.6594    1.1335   -3.8572 C   0  0  0  0  0  0  0  0  0  0  0  0
   -4.4040    2.8220   -3.7385 C   0  0  0  0  0  0  0  0  0  0  0  0
   -3.4182    5.5975   -2.3653 N   0  0  0  0  0  0  0  0  0  0  0  0
   -2.0091    5.2315   -0.5191 N   0  0  0  0  0  0  0  0  0  0  0  0
    0.2863    2.5253   -2.5542 O   0  0  0  0  0  0  0  0  0  0  0  0
   -0.2455    3.7154   -0.6159 N   0  0  0  0  0  0  0  0  0  0  0  0
   -1.3515    0.7582   -3.9690 O   0  0  0  0  0  0  0  0  0  0  0  0
   -3.6446    0.1242   -3.8356 C   0  0  0  0  0  0  0  0  0  0  0  0
   -5.3864    1.8155   -3.7454 C   0  0  0  0  0  0  0  0  0  0  0  0
   -4.6542    6.4216   -1.5058 S   0  0  1  0  0  0  0  0  0  0  0  0
   -0.9544    4.6305    0.0909 C   0  0  0  0  0  0  0  0  0  0  0  0
    1.5148    3.1826   -2.9410 C   0  0  1  0  0  0  0  0  0  0  0  0
   -0.9329    0.6146   -5.3393 C   0  0  0  0  0  0  0  0  0  0  0  0
   -5.0048    0.4648   -3.7855 C   0  0  0  0  0  0  0  0  0  0  0  0
   -5.8283    6.7779   -2.5430 O   0  0  0  0  0  0  0  0  0  0  0  0
   -5.2569    5.4177   -0.4071 O   0  0  0  0  0  0  0  0  0  0  0  0
   -4.0737    7.9224   -0.7613 C   0  0  0  0  0  0  0  0  0  0  0  0
   -0.5656    4.9628    1.4027 C   0  0  0  0  0  0  0  0  0  0  0  0
    2.4676    2.1784   -3.6134 C   0  0  1  0  0  0  0  0  0  0  0  0
   -4.3259    8.1978    0.5956 C   0  0  0  0  0  0  0  0  0  0  0  0
   -3.3935    8.8809   -1.5332 C   0  0  0  0  0  0  0  0  0  0  0  0
    0.4515    4.2822    2.0025 N   0  0  0  0  0  0  0  0  0  0  0  0
   -1.1779    5.9658    2.0916 N   0  0  0  0  0  0  0  0  0  0  0  0
    2.8399    1.1409   -2.7107 O   0  0  0  0  0  0  0  0  0  0  0  0
   -3.9250    9.4216    1.1632 C   0  0  0  0  0  0  0  0  0  0  0  0
   -3.0029   10.1061   -0.9605 C   0  0  0  0  0  0  0  0  0  0  0  0
    0.8721    4.5721    3.2581 C   0  0  0  0  0  0  0  0  0  0  0  0
   -0.7974    6.3031    3.3512 C   0  0  0  0  0  0  0  0  0  0  0  0
   -3.2631   10.4220    0.4014 C   0  0  0  0  0  0  0  0  0  0  0  0
    0.2548    5.6103    3.9760 C   0  0  0  0  0  0  0  0  0  0  0  0
   -2.8382   11.7695    0.9743 C   0  0  2  0  0  0  0  0  0  0  0  0
   -3.2122   11.9872    2.4847 C   0  0  0  0  0  0  0  0  0  0  0  0
   -3.5278   12.9269    0.1742 C   0  0  0  0  0  0  0  0  0  0  0  0
   -1.2819   11.9068    0.8659 C   0  0  0  0  0  0  0  0  0  0  0  0
   -4.6990    3.7970   -3.7200 H   0  0  0  0  0  0  0  0  0  0  0  0
   -3.4890    5.5654   -3.3323 H   0  0  0  0  0  0  0  0  0  0  0  0
   -3.3718   -0.8613   -3.8675 H   0  0  0  0  0  0  0  0  0  0  0  0
   -6.3775    2.0661   -3.7259 H   0  0  0  0  0  0  0  0  0  0  0  0
    1.3093    3.9938   -3.6490 H   0  0  0  0  0  0  0  0  0  0  0  0
    2.0321    3.6038   -2.0709 H   0  0  0  0  0  0  0  0  0  0  0  0
    0.1053    0.2842   -5.3318 H   0  0  0  0  0  0  0  0  0  0  0  0
   -1.5206   -0.1376   -5.8753 H   0  0  0  0  0  0  0  0  0  0  0  0
   -0.9877    1.5678   -5.8731 H   0  0  0  0  0  0  0  0  0  0  0  0
   -5.7140   -0.2707   -3.7889 H   0  0  0  0  0  0  0  0  0  0  0  0
    1.9839    1.7363   -4.4839 H   0  0  0  0  0  0  0  0  0  0  0  0
    3.3725    2.6940   -3.9425 H   0  0  0  0  0  0  0  0  0  0  0  0
   -4.8120    7.5147    1.1805 H   0  0  0  0  0  0  0  0  0  0  0  0
   -3.1864    8.7001   -2.5189 H   0  0  0  0  0  0  0  0  0  0  0  0
    3.2811    1.5999   -1.9647 H   0  0  0  0  0  0  0  0  0  0  0  0
   -4.1371    9.5611    2.1513 H   0  0  0  0  0  0  0  0  0  0  0  0
   -2.5228   10.7755   -1.5650 H   0  0  0  0  0  0  0  0  0  0  0  0
    1.6338    4.0324    3.6717 H   0  0  0  0  0  0  0  0  0  0  0  0
   -1.2788    7.0588    3.8396 H   0  0  0  0  0  0  0  0  0  0  0  0
    0.5591    5.8506    4.9212 H   0  0  0  0  0  0  0  0  0  0  0  0
   -2.9003   12.9753    2.8329 H   0  0  0  0  0  0  0  0  0  0  0  0
   -4.2921   11.9133    2.6361 H   0  0  0  0  0  0  0  0  0  0  0  0
   -2.7205   11.2488    3.1221 H   0  0  0  0  0  0  0  0  0  0  0  0
   -3.2813   13.9029    0.6000 H   0  0  0  0  0  0  0  0  0  0  0  0
   -4.6140   12.8110    0.1972 H   0  0  0  0  0  0  0  0  0  0  0  0
   -3.2110   12.9427   -0.8693 H   0  0  0  0  0  0  0  0  0  0  0  0
   -0.9363   12.8407    1.3149 H   0  0  0  0  0  0  0  0  0  0  0  0
   -0.9476   11.9044   -0.1730 H   0  0  0  0  0  0  0  0  0  0  0  0
   -0.7902   11.0792    1.3834 H   0  0  0  0  0  0  0  0  0  0  0  0
  1  2  1  0  0  0  0 
  1  3  1  0  0  0  0 
  2  4  2  0  0  0  0 
  2  5  1  0  0  0  0 
  3  6  2  0  0  0  0 
  3  7  1  0  0  0  0 
  4  8  1  0  0  0  0 
  4  9  1  0  0  0  0 
  5 10  1  0  0  0  0 
  5 11  2  0  0  0  0 
  6 12  1  0  0  0  0 
  6 13  1  0  0  0  0 
  7 14  2  0  0  0  0 
  8 15  1  0  0  0  0 
  9 16  2  0  0  0  0 
 10 17  1  0  0  0  0 
 11 16  1  0  0  0  0 
 12 18  1  0  0  0  0 
 13 19  2  0  0  0  0 
 14 19  1  0  0  0  0 
 15 20  2  0  0  0  0 
 15 21  2  0  0  0  0 
 15 22  1  0  0  0  0 
 16 23  1  0  0  0  0 
 17 24  1  0  0  0  0 
 22 25  2  0  0  0  0 
 22 26  1  0  0  0  0 
 23 27  2  0  0  0  0 
 23 28  1  0  0  0  0 
 24 29  1  0  0  0  0 
 25 30  1  0  0  0  0 
 26 31  2  0  0  0  0 
 27 32  1  0  0  0  0 
 28 33  2  0  0  0  0 
 30 34  2  0  0  0  0 
 31 34  1  0  0  0  0 
 32 35  2  0  0  0  0 
 33 35  1  0  0  0  0 
 34 36  1  0  0  0  0 
 36 37  1  0  0  0  0 
 36 38  1  0  0  0  0 
 36 39  1  0  0  0  0 
  7 40  1  0  0  0  0 
  8 41  1  0  0  0  0 
 13 42  1  0  0  0  0 
 14 43  1  0  0  0  0 
 17 44  1  0  0  0  0 
 17 45  1  0  0  0  0 
 18 46  1  0  0  0  0 
 18 47  1  0  0  0  0 
 18 48  1  0  0  0  0 
 19 49  1  0  0  0  0 
 24 50  1  0  0  0  0 
 24 51  1  0  0  0  0 
 25 52  1  0  0  0  0 
 26 53  1  0  0  0  0 
 29 54  1  0  0  0  0 
 30 55  1  0  0  0  0 
 31 56  1  0  0  0  0 
 32 57  1  0  0  0  0 
 33 58  1  0  0  0  0 
 35 59  1  0  0  0  0 
 37 60  1  0  0  0  0 
 37 61  1  0  0  0  0 
 37 62  1  0  0  0  0 
 38 63  1  0  0  0  0 
 38 64  1  0  0  0  0 
 38 65  1  0  0  0  0 
 39 66  1  0  0  0  0 
 39 67  1  0  0  0  0 
 39 68  1  0  0  0  0 
M  END
> <cdk:Title>
bosentan

> <Conformer>
1

> <SuperDrugID>
SD000334

$$$$
