chlortalidone
  CDK     0628171802

 33 35  0  0  0  0  0  0  0  0999 V2000
    7.3905    0.6481    1.6249 N   0  0  2  0  0  0  0  0  0  0  0  0
    6.8318    2.2083    1.0428 S   0  0  2  0  0  0  0  0  0  0  0  0
    8.1310    3.0489    0.6177 O   0  0  0  0  0  0  0  0  0  0  0  0
    6.1120    2.9776    2.2521 O   0  0  0  0  0  0  0  0  0  0  0  0
    5.7560    1.9533   -0.3505 C   0  0  0  0  0  0  0  0  0  0  0  0
    6.3393    1.9623   -1.6378 C   0  0  0  0  0  0  0  0  0  0  0  0
    5.5724    1.7680   -2.8118 C   0  0  0  0  0  0  0  0  0  0  0  0
    4.1876    1.5232   -2.6576 C   0  0  0  0  0  0  0  0  0  0  0  0
    3.5912    1.5000   -1.3862 C   0  0  0  0  0  0  0  0  0  0  0  0
    4.3650    1.7108   -0.2288 C   0  0  0  0  0  0  0  0  0  0  0  0
    3.5708    1.6304    1.2684 Cl  0  0  0  0  0  0  0  0  0  0  0  0
    6.2230    1.7668   -4.1624 C   0  0  2  0  0  0  0  0  0  0  0  0
    7.3519    2.6395   -4.2558 O   0  0  0  0  0  0  0  0  0  0  0  0
    5.3489    2.1601   -5.2251 N   0  0  0  0  0  0  0  0  0  0  0  0
    5.1695    1.2104   -6.1634 C   0  0  0  0  0  0  0  0  0  0  0  0
    4.4457    1.3302   -7.1764 O   0  0  0  0  0  0  0  0  0  0  0  0
    5.9078    0.0962   -5.7999 C   0  0  0  0  0  0  0  0  0  0  0  0
    6.0506   -1.1584   -6.4199 C   0  0  0  0  0  0  0  0  0  0  0  0
    6.8620   -2.1274   -5.7916 C   0  0  0  0  0  0  0  0  0  0  0  0
    7.5242   -1.8300   -4.5794 C   0  0  0  0  0  0  0  0  0  0  0  0
    7.3848   -0.5597   -3.9811 C   0  0  0  0  0  0  0  0  0  0  0  0
    6.5589    0.3979   -4.6028 C   0  0  0  0  0  0  0  0  0  0  0  0
    8.0339    0.8334    2.3969 H   0  0  0  0  0  0  0  0  0  0  0  0
    7.9520    0.2491    0.8701 H   0  0  0  0  0  0  0  0  0  0  0  0
    7.3490    2.0999   -1.7185 H   0  0  0  0  0  0  0  0  0  0  0  0
    3.5972    1.3465   -3.4733 H   0  0  0  0  0  0  0  0  0  0  0  0
    2.5878    1.3176   -1.3129 H   0  0  0  0  0  0  0  0  0  0  0  0
    8.0270    2.2721   -3.6487 H   0  0  0  0  0  0  0  0  0  0  0  0
    4.9218    3.0312   -5.2636 H   0  0  0  0  0  0  0  0  0  0  0  0
    5.5749   -1.3678   -7.3015 H   0  0  0  0  0  0  0  0  0  0  0  0
    6.9713   -3.0507   -6.2171 H   0  0  0  0  0  0  0  0  0  0  0  0
    8.1047   -2.5415   -4.1300 H   0  0  0  0  0  0  0  0  0  0  0  0
    7.8642   -0.3448   -3.1036 H   0  0  0  0  0  0  0  0  0  0  0  0
  1  2  1  0  0  0  0 
  2  3  2  0  0  0  0 
  2  4  2  0  0  0  0 
  2  5  1  0  0  0  0 
  5  6  2  0  0  0  0 
  6  7  1  0  0  0  0 
  7  8  2  0  0  0  0 
  8  9  1  0  0  0  0 
  9 10  2  0  0  0  0 
  5 10  1  0  0  0  0 
 10 11  1  0  0  0  0 
 12  7  1  0  0  0  0 
 12 13  1  0  0  0  0 
 12 14  1  0  0  0  0 
 14 15  1  0  0  0  0 
 15 16  2  0  0  0  0 
 15 17  1  0  0  0  0 
 17 18  2  0  0  0  0 
 18 19  1  0  0  0  0 
 19 20  2  0  0  0  0 
 20 21  1  0  0  0  0 
 21 22  2  0  0  0  0 
 12 22  1  0  0  0  0 
 17 22  1  0  0  0  0 
  1 23  1  0  0  0  0 
  1 24  1  0  0  0  0 
  6 25  1  0  0  0  0 
  8 26  1  0  0  0  0 
  9 27  1  0  0  0  0 
 13 28  1  0  0  0  0 
 14 29  1  0  0  0  0 
 18 30  1  0  0  0  0 
 19 31  1  0  0  0  0 
 20 32  1  0  0  0  0 
 21 33  1  0  0  0  0 
M  END
> <cdk:Title>
chlortalidone

> <Conformer>
1

> <SuperDrugID>
SD000546

$$$$
