citiolone
  CDK     0628171802

 19 19  0  0  0  0  0  0  0  0999 V2000
    2.2085    0.9207   -3.8571 C   0  0  0  0  0  0  0  0  0  0  0  0
    0.9305    0.2765   -3.5090 C   0  0  0  0  0  0  0  0  0  0  0  0
    0.4975   -0.6249   -4.2676 O   0  0  0  0  0  0  0  0  0  0  0  0
    0.2557    0.6551   -2.3852 N   0  0  0  0  0  0  0  0  0  0  0  0
   -0.9672    0.0736   -1.9120 C   0  0  2  0  0  0  0  0  0  0  0  0
   -1.6239    0.9709   -0.8160 C   0  0  2  0  0  0  0  0  0  0  0  0
   -0.9969    0.6807    0.5712 C   0  0  2  0  0  0  0  0  0  0  0  0
   -0.6750   -1.1157    0.4729 S   0  0  0  0  0  0  0  0  0  0  0  0
   -0.7050   -1.2298   -1.2759 C   0  0  0  0  0  0  0  0  0  0  0  0
   -0.4972   -2.2983   -1.8929 O   0  0  0  0  0  0  0  0  0  0  0  0
   -1.6719   -0.0451   -2.7405 H   0  0  0  0  0  0  0  0  0  0  0  0
    2.1416    1.3630   -4.8513 H   0  0  0  0  0  0  0  0  0  0  0  0
    2.4639    1.7084   -3.1455 H   0  0  0  0  0  0  0  0  0  0  0  0
    3.0075    0.1769   -3.8499 H   0  0  0  0  0  0  0  0  0  0  0  0
    0.6486    1.3632   -1.8485 H   0  0  0  0  0  0  0  0  0  0  0  0
   -2.6914    0.7334   -0.7665 H   0  0  0  0  0  0  0  0  0  0  0  0
   -1.5344    2.0315   -1.0610 H   0  0  0  0  0  0  0  0  0  0  0  0
   -1.6753    0.9192    1.3934 H   0  0  0  0  0  0  0  0  0  0  0  0
   -0.0512    1.2136    0.6895 H   0  0  0  0  0  0  0  0  0  0  0  0
  1  2  1  0  0  0  0 
  2  3  2  0  0  0  0 
  2  4  1  0  0  0  0 
  5  4  1  0  0  0  0 
  5  6  1  0  0  0  0 
  6  7  1  0  0  0  0 
  7  8  1  0  0  0  0 
  8  9  1  0  0  0  0 
  5  9  1  0  0  0  0 
  9 10  2  0  0  0  0 
  5 11  1  0  0  0  0 
  1 12  1  0  0  0  0 
  1 13  1  0  0  0  0 
  1 14  1  0  0  0  0 
  4 15  1  0  0  0  0 
  6 16  1  0  0  0  0 
  6 17  1  0  0  0  0 
  7 18  1  0  0  0  0 
  7 19  1  0  0  0  0 
M  END
> <cdk:Title>
citiolone

> <Conformer>
1

> <SuperDrugID>
SD000584

$$$$
