trimegestone
  CDK     0628171802

 55 58  0  0  0  0  0  0  0  0999 V2000
   14.6092  -47.3125   11.3953 C   0  0  0  0  0  0  0  0  0  0  0  0
   13.5917  -47.3504   12.6180 C   0  0  2  0  0  0  0  0  0  0  0  0
   13.7534  -48.6177   13.5311 C   0  0  2  0  0  0  0  0  0  0  0  0
   12.1018  -47.5252   12.0729 C   0  0  2  0  0  0  0  0  0  0  0  0
   13.8980  -46.1156   13.5402 C   0  0  2  0  0  0  0  0  0  0  0  0
   15.1670  -48.7302   14.2134 C   0  0  1  0  0  0  0  0  0  0  0  0
   13.1810  -49.7541   12.6543 C   0  0  1  0  0  0  0  0  0  0  0  0
   11.7797  -46.6240   10.9032 C   0  0  0  0  0  0  0  0  0  0  0  0
   10.9509  -47.2206   13.1039 C   0  0  0  0  0  0  0  0  0  0  0  0
   12.1044  -49.0720   11.7601 C   0  0  1  0  0  0  0  0  0  0  0  0
   15.2768  -46.2356   14.2662 C   0  0  2  0  0  0  0  0  0  0  0  0
   15.3808  -47.4990   15.0370 C   0  0  0  0  0  0  0  0  0  0  0  0
   15.3989  -50.0634   14.9928 C   0  0  1  0  0  0  0  0  0  0  0  0
   11.0120  -47.0138    9.6889 C   0  0  2  0  0  0  0  0  0  0  0  0
   12.1155  -45.4169   10.9786 O   0  0  0  0  0  0  0  0  0  0  0  0
   15.6062  -47.5497   16.3871 C   0  0  0  0  0  0  0  0  0  0  0  0
   14.9528  -49.9329   16.4601 C   0  0  1  0  0  0  0  0  0  0  0  0
   11.9347  -47.1887    8.4595 C   0  0  0  0  0  0  0  0  0  0  0  0
   10.0119  -46.0351    9.3984 O   0  0  0  0  0  0  0  0  0  0  0  0
   15.6084  -48.7724   17.0685 C   0  0  0  0  0  0  0  0  0  0  0  0
   15.9179  -46.3229   17.1645 C   0  0  2  0  0  0  0  0  0  0  0  0
   16.1998  -48.9154   18.2784 C   0  0  0  0  0  0  0  0  0  0  0  0
   16.1468  -46.5062   18.6911 C   0  0  1  0  0  0  0  0  0  0  0  0
   16.7097  -47.8377   18.9743 C   0  0  0  0  0  0  0  0  0  0  0  0
   17.5729  -47.9913   19.8698 O   0  0  0  0  0  0  0  0  0  0  0  0
   14.5316  -46.3657   10.8579 H   0  0  0  0  0  0  0  0  0  0  0  0
   14.4248  -48.1071   10.6724 H   0  0  0  0  0  0  0  0  0  0  0  0
   15.6496  -47.4085   11.6920 H   0  0  0  0  0  0  0  0  0  0  0  0
   13.0677  -48.5456   14.3825 H   0  0  0  0  0  0  0  0  0  0  0  0
   13.1332  -46.0217   14.3149 H   0  0  0  0  0  0  0  0  0  0  0  0
   13.8758  -45.1908   12.9586 H   0  0  0  0  0  0  0  0  0  0  0  0
   15.9230  -48.7536   13.4288 H   0  0  0  0  0  0  0  0  0  0  0  0
   13.9706  -50.2060   12.0448 H   0  0  0  0  0  0  0  0  0  0  0  0
   12.7269  -50.5347   13.2716 H   0  0  0  0  0  0  0  0  0  0  0  0
   11.0171  -47.8344   14.0000 H   0  0  0  0  0  0  0  0  0  0  0  0
   10.9605  -46.1742   13.4129 H   0  0  0  0  0  0  0  0  0  0  0  0
    9.9723  -47.4244   12.6590 H   0  0  0  0  0  0  0  0  0  0  0  0
   11.1233  -49.5293   11.9242 H   0  0  0  0  0  0  0  0  0  0  0  0
   12.3676  -49.2668   10.7184 H   0  0  0  0  0  0  0  0  0  0  0  0
   15.3897  -45.3326   14.8606 H   0  0  0  0  0  0  0  0  0  0  0  0
   16.0958  -46.1939   13.5482 H   0  0  0  0  0  0  0  0  0  0  0  0
   14.8766  -50.8979   14.5225 H   0  0  0  0  0  0  0  0  0  0  0  0
   16.4662  -50.3103   14.9792 H   0  0  0  0  0  0  0  0  0  0  0  0
   10.4703  -47.9457    9.8602 H   0  0  0  0  0  0  0  0  0  0  0  0
   13.8713  -49.7855   16.5012 H   0  0  0  0  0  0  0  0  0  0  0  0
   15.1692  -50.8737   16.9764 H   0  0  0  0  0  0  0  0  0  0  0  0
   12.6504  -47.9949    8.6283 H   0  0  0  0  0  0  0  0  0  0  0  0
   11.3410  -47.4374    7.5778 H   0  0  0  0  0  0  0  0  0  0  0  0
   12.4866  -46.2687    8.2567 H   0  0  0  0  0  0  0  0  0  0  0  0
   10.5020  -45.2170    9.1677 H   0  0  0  0  0  0  0  0  0  0  0  0
   15.1107  -45.5934   17.0600 H   0  0  0  0  0  0  0  0  0  0  0  0
   16.8332  -45.8872   16.7517 H   0  0  0  0  0  0  0  0  0  0  0  0
   16.2614  -49.8104   18.7080 H   0  0  0  0  0  0  0  0  0  0  0  0
   16.7948  -45.7154   19.0807 H   0  0  0  0  0  0  0  0  0  0  0  0
   15.1857  -46.4349   19.2089 H   0  0  0  0  0  0  0  0  0  0  0  0
  2  1  1  0  0  0  0 
  2  3  1  0  0  0  0 
  2  4  1  0  0  0  0 
  2  5  1  0  0  0  0 
  3  6  1  0  0  0  0 
  3  7  1  0  0  0  0 
  4  8  1  0  0  0  0 
  4  9  1  0  0  0  0 
  4 10  1  0  0  0  0 
  5 11  1  0  0  0  0 
  6 12  1  0  0  0  0 
  6 13  1  0  0  0  0 
  7 10  1  0  0  0  0 
 14  8  1  0  0  0  0 
  8 15  2  0  0  0  0 
 11 12  1  0  0  0  0 
 12 16  2  0  0  0  0 
 13 17  1  0  0  0  0 
 14 18  1  0  0  0  0 
 14 19  1  0  0  0  0 
 16 20  1  0  0  0  0 
 16 21  1  0  0  0  0 
 17 20  1  0  0  0  0 
 20 22  2  0  0  0  0 
 21 23  1  0  0  0  0 
 22 24  1  0  0  0  0 
 23 24  1  0  0  0  0 
 24 25  2  0  0  0  0 
 26  1  1  0  0  0  0 
 27  1  1  0  0  0  0 
 28  1  1  0  0  0  0 
  3 29  1  0  0  0  0 
 30  5  1  0  0  0  0 
 31  5  1  0  0  0  0 
  6 32  1  0  0  0  0 
 33  7  1  0  0  0  0 
 34  7  1  0  0  0  0 
 35  9  1  0  0  0  0 
 36  9  1  0  0  0  0 
 37  9  1  0  0  0  0 
 38 10  1  0  0  0  0 
 39 10  1  0  0  0  0 
 40 11  1  0  0  0  0 
 41 11  1  0  0  0  0 
 42 13  1  0  0  0  0 
 43 13  1  0  0  0  0 
 14 44  1  0  0  0  0 
 45 17  1  0  0  0  0 
 46 17  1  0  0  0  0 
 47 18  1  0  0  0  0 
 48 18  1  0  0  0  0 
 49 18  1  0  0  0  0 
 50 19  1  0  0  0  0 
 51 21  1  0  0  0  0 
 52 21  1  0  0  0  0 
 53 22  1  0  0  0  0 
 54 23  1  0  0  0  0 
 55 23  1  0  0  0  0 
M  END
> <cdk:Title>
trimegestone

> <Conformer>
1

> <SuperDrugID>
SD003738

$$$$
