pomalidomide
  CDK     0628171802

 31 33  0  0  0  0  0  0  0  0999 V2000
    1.1975   -0.2349    2.2598 O   0  0  0  0  0  0  0  0  0  0  0  0
    1.2528    1.0085    2.1158 C   0  0  0  0  0  0  0  0  0  0  0  0
    0.6009    1.7679    1.1806 N   0  0  0  0  0  0  0  0  0  0  0  0
    2.0038    1.8481    2.9326 C   0  0  0  0  0  0  0  0  0  0  0  0
    0.9515    3.0731    1.3896 C   0  0  0  0  0  0  0  0  0  0  0  0
   -0.3382    1.3263    0.1646 C   0  0  1  0  0  0  0  0  0  0  0  0
    1.8161    3.1511    2.4828 C   0  0  0  0  0  0  0  0  0  0  0  0
    2.8229    1.5671    4.0403 C   0  0  0  0  0  0  0  0  0  0  0  0
    0.5531    4.0555    0.7220 O   0  0  0  0  0  0  0  0  0  0  0  0
   -0.0865   -0.0550   -0.3308 C   0  0  0  0  0  0  0  0  0  0  0  0
   -1.8111    1.4556    0.6609 C   0  0  1  0  0  0  0  0  0  0  0  0
    2.4397    4.2413    3.1261 C   0  0  0  0  0  0  0  0  0  0  0  0
    3.4371    2.6451    4.7094 C   0  0  0  0  0  0  0  0  0  0  0  0
    0.8627   -0.2714   -1.1170 O   0  0  0  0  0  0  0  0  0  0  0  0
   -0.8282   -1.1177    0.0857 N   0  0  0  0  0  0  0  0  0  0  0  0
   -2.2360    0.2840    1.5819 C   0  0  1  0  0  0  0  0  0  0  0  0
    2.2804    5.5075    2.6878 N   0  0  0  0  0  0  0  0  0  0  0  0
    3.2441    3.9717    4.2583 C   0  0  0  0  0  0  0  0  0  0  0  0
   -1.8355   -1.0150    0.9939 C   0  0  0  0  0  0  0  0  0  0  0  0
   -2.4134   -2.0653    1.3501 O   0  0  0  0  0  0  0  0  0  0  0  0
   -0.2409    1.9848   -0.7061 H   0  0  0  0  0  0  0  0  0  0  0  0
    2.9666    0.6066    4.3584 H   0  0  0  0  0  0  0  0  0  0  0  0
   -1.9570    2.4071    1.1789 H   0  0  0  0  0  0  0  0  0  0  0  0
   -2.4766    1.4597   -0.2097 H   0  0  0  0  0  0  0  0  0  0  0  0
    4.0224    2.4641    5.5273 H   0  0  0  0  0  0  0  0  0  0  0  0
   -0.6169   -1.9942   -0.2714 H   0  0  0  0  0  0  0  0  0  0  0  0
   -1.7681    0.3881    2.5629 H   0  0  0  0  0  0  0  0  0  0  0  0
   -3.3198    0.3146    1.7157 H   0  0  0  0  0  0  0  0  0  0  0  0
    2.7521    6.2369    3.1218 H   0  0  0  0  0  0  0  0  0  0  0  0
    1.6968    5.6963    1.9361 H   0  0  0  0  0  0  0  0  0  0  0  0
    3.6962    4.7377    4.7630 H   0  0  0  0  0  0  0  0  0  0  0  0
  1  2  2  0  0  0  0 
  2  3  1  0  0  0  0 
  2  4  1  0  0  0  0 
  3  5  1  0  0  0  0 
  6  3  1  0  0  0  0 
  4  7  2  0  0  0  0 
  4  8  1  0  0  0  0 
  5  7  1  0  0  0  0 
  5  9  2  0  0  0  0 
  6 10  1  0  0  0  0 
  6 11  1  0  0  0  0 
  7 12  1  0  0  0  0 
  8 13  2  0  0  0  0 
 10 14  2  0  0  0  0 
 10 15  1  0  0  0  0 
 11 16  1  0  0  0  0 
 12 17  1  0  0  0  0 
 12 18  2  0  0  0  0 
 13 18  1  0  0  0  0 
 15 19  1  0  0  0  0 
 16 19  1  0  0  0  0 
 19 20  2  0  0  0  0 
  6 21  1  0  0  0  0 
  8 22  1  0  0  0  0 
 11 23  1  0  0  0  0 
 11 24  1  0  0  0  0 
 13 25  1  0  0  0  0 
 15 26  1  0  0  0  0 
 16 27  1  0  0  0  0 
 16 28  1  0  0  0  0 
 17 29  1  0  0  0  0 
 17 30  1  0  0  0  0 
 18 31  1  0  0  0  0 
M  END
> <cdk:Title>
pomalidomide

> <Conformer>
1

> <SuperDrugID>
SD003743

$$$$
