meldonium
  CDK     0628171801

 24 23  0  0  0  0  0  0  0  0999 V2000
    2.3971    1.0223    1.7200 C   0  0  0  0  0  0  0  0  0  0  0  0
    2.1136   -0.4390    1.9327 N   0  0  1  0  0  0  0  0  0  0  0  0
    3.4186   -1.1885    1.9585 C   0  0  0  0  0  0  0  0  0  0  0  0
    1.3840   -0.6712    3.2267 C   0  0  0  0  0  0  0  0  0  0  0  0
    1.3995   -0.9967    0.8200 N   0  0  2  0  0  0  0  0  0  0  0  0
    0.0435   -0.5200    0.4382 C   0  0  1  0  0  0  0  0  0  0  0  0
   -0.4444   -1.3006   -0.8074 C   0  0  1  0  0  0  0  0  0  0  0  0
    0.3818   -1.0338   -1.9983 C   0  0  0  0  0  0  0  0  0  0  0  0
    1.1812   -1.9946   -2.5142 O   0  0  0  0  0  0  0  0  0  0  0  0
    0.3679    0.0911   -2.5457 O   0  0  0  0  0  0  0  0  0  0  0  0
    3.0703    1.4129    2.4877 H   0  0  0  0  0  0  0  0  0  0  0  0
    2.8621    1.1924    0.7456 H   0  0  0  0  0  0  0  0  0  0  0  0
    1.4844    1.6188    1.7604 H   0  0  0  0  0  0  0  0  0  0  0  0
    3.9727   -1.0554    1.0240 H   0  0  0  0  0  0  0  0  0  0  0  0
    3.2580   -2.2615    2.1004 H   0  0  0  0  0  0  0  0  0  0  0  0
    4.0593   -0.8419    2.7743 H   0  0  0  0  0  0  0  0  0  0  0  0
    1.9945   -0.3772    4.0850 H   0  0  0  0  0  0  0  0  0  0  0  0
    1.1236   -1.7266    3.3431 H   0  0  0  0  0  0  0  0  0  0  0  0
    0.4590   -0.0933    3.2740 H   0  0  0  0  0  0  0  0  0  0  0  0
    1.3098   -2.0010    0.9912 H   0  0  0  0  0  0  0  0  0  0  0  0
   -0.6603   -0.7018    1.2527 H   0  0  0  0  0  0  0  0  0  0  0  0
    0.0475    0.5498    0.2180 H   0  0  0  0  0  0  0  0  0  0  0  0
   -0.4232   -2.3710   -0.5871 H   0  0  0  0  0  0  0  0  0  0  0  0
   -1.4787   -1.0320   -1.0358 H   0  0  0  0  0  0  0  0  0  0  0  0
  1  2  1  0  0  0  0 
  2  3  1  0  0  0  0 
  2  4  1  0  0  0  0 
  2  5  1  0  0  0  0 
  5  6  1  0  0  0  0 
  6  7  1  0  0  0  0 
  7  8  1  0  0  0  0 
  8  9  1  0  0  0  0 
  8 10  2  0  0  0  0 
  1 11  1  0  0  0  0 
  1 12  1  0  0  0  0 
  1 13  1  0  0  0  0 
  3 14  1  0  0  0  0 
  3 15  1  0  0  0  0 
  3 16  1  0  0  0  0 
  4 17  1  0  0  0  0 
  4 18  1  0  0  0  0 
  4 19  1  0  0  0  0 
  5 20  1  0  0  0  0 
  6 21  1  0  0  0  0 
  6 22  1  0  0  0  0 
  7 23  1  0  0  0  0 
  7 24  1  0  0  0  0 
M  CHG  1   2   1
M  CHG  1   9  -1
M  END
> <cdk:Title>
meldonium

> <Conformer>
1

> <SuperDrugID>
SD003319

$$$$
