etryptamine
  CDK     0628171801

 30 31  0  0  0  0  0  0  0  0999 V2000
    4.4337   -3.9621    0.1815 C   0  0  1  0  0  0  0  0  0  0  0  0
    3.8788   -5.3747    0.5306 C   0  0  1  0  0  0  0  0  0  0  0  0
    3.3937   -2.9077    0.2496 C   0  0  0  0  0  0  0  0  0  0  0  0
    2.8540   -5.7593   -0.4595 N   0  0  2  0  0  0  0  0  0  0  0  0
    2.9769   -2.1919    1.3722 C   0  0  0  0  0  0  0  0  0  0  0  0
    2.6089   -2.4347   -0.8060 C   0  0  0  0  0  0  0  0  0  0  0  0
    1.9692   -1.3191    0.9591 C   0  0  0  0  0  0  0  0  0  0  0  0
    3.3933   -2.2285    2.7163 C   0  0  0  0  0  0  0  0  0  0  0  0
    1.7641   -1.4901   -0.3541 N   0  0  0  0  0  0  0  0  0  0  0  0
    1.3413   -0.4457    1.8637 C   0  0  0  0  0  0  0  0  0  0  0  0
    2.7739   -1.3555    3.6364 C   0  0  0  0  0  0  0  0  0  0  0  0
    1.7561   -0.4688    3.2131 C   0  0  0  0  0  0  0  0  0  0  0  0
    4.9629   -6.4936    0.5619 C   0  0  1  0  0  0  0  0  0  0  0  0
    6.0510   -6.3336    1.6497 C   0  0  0  0  0  0  0  0  0  0  0  0
    5.2296   -3.6908    0.8764 H   0  0  0  0  0  0  0  0  0  0  0  0
    4.8735   -3.9772   -0.8188 H   0  0  0  0  0  0  0  0  0  0  0  0
    3.3946   -5.3357    1.5120 H   0  0  0  0  0  0  0  0  0  0  0  0
    2.1140   -5.0549   -0.4210 H   0  0  0  0  0  0  0  0  0  0  0  0
    2.4401   -6.6382   -0.1407 H   0  0  0  0  0  0  0  0  0  0  0  0
    2.6613   -2.7573   -1.7729 H   0  0  0  0  0  0  0  0  0  0  0  0
    4.1277   -2.8699    3.0211 H   0  0  0  0  0  0  0  0  0  0  0  0
    1.1109   -1.0098   -0.8880 H   0  0  0  0  0  0  0  0  0  0  0  0
    0.6015    0.1894    1.5506 H   0  0  0  0  0  0  0  0  0  0  0  0
    3.0658   -1.3653    4.6158 H   0  0  0  0  0  0  0  0  0  0  0  0
    1.3164    0.1606    3.8881 H   0  0  0  0  0  0  0  0  0  0  0  0
    4.4624   -7.4494    0.7434 H   0  0  0  0  0  0  0  0  0  0  0  0
    5.4532   -6.5620   -0.4124 H   0  0  0  0  0  0  0  0  0  0  0  0
    6.6848   -7.2225    1.6668 H   0  0  0  0  0  0  0  0  0  0  0  0
    5.5955   -6.2201    2.6330 H   0  0  0  0  0  0  0  0  0  0  0  0
    6.6805   -5.4653    1.4506 H   0  0  0  0  0  0  0  0  0  0  0  0
  2  1  1  0  0  0  0 
  1  3  1  0  0  0  0 
  2  4  1  0  0  0  0 
  3  5  1  0  0  0  0 
  3  6  2  0  0  0  0 
  5  7  1  0  0  0  0 
  5  8  2  0  0  0  0 
  6  9  1  0  0  0  0 
  7  9  1  0  0  0  0 
  7 10  2  0  0  0  0 
  8 11  1  0  0  0  0 
 10 12  1  0  0  0  0 
 11 12  2  0  0  0  0 
  2 13  1  0  0  0  0 
 13 14  1  0  0  0  0 
  1 15  1  0  0  0  0 
  1 16  1  0  0  0  0 
  2 17  1  0  0  0  0 
  4 18  1  0  0  0  0 
  4 19  1  0  0  0  0 
  6 20  1  0  0  0  0 
  8 21  1  0  0  0  0 
  9 22  1  0  0  0  0 
 10 23  1  0  0  0  0 
 11 24  1  0  0  0  0 
 12 25  1  0  0  0  0 
 13 26  1  0  0  0  0 
 13 27  1  0  0  0  0 
 14 28  1  0  0  0  0 
 14 29  1  0  0  0  0 
 14 30  1  0  0  0  0 
M  END
> <cdk:Title>
etryptamine

> <Conformer>
1

> <SuperDrugID>
SD000998

$$$$
