terguride
  CDK     0628171801

 53 56  0  0  0  0  0  0  0  0999 V2000
    2.1523   -0.2340    3.9070 C   0  0  0  0  0  0  0  0  0  0  0  0
    2.6377    0.1002    2.5322 N   0  0  1  0  0  0  0  0  0  0  0  0
    3.8021   -0.7292    2.0420 C   0  0  1  0  0  0  0  0  0  0  0  0
    1.4997    0.1305    1.5555 C   0  0  1  0  0  0  0  0  0  0  0  0
    4.3029   -0.2060    0.6299 C   0  0  1  0  0  0  0  0  0  0  0  0
    4.9817   -0.8356    3.0840 C   0  0  2  0  0  0  0  0  0  0  0  0
    1.9249    0.6415    0.1541 C   0  0  2  0  0  0  0  0  0  0  0  0
    5.5256   -0.9253    0.1350 C   0  0  0  0  0  0  0  0  0  0  0  0
    3.1219   -0.1815   -0.3864 C   0  0  2  0  0  0  0  0  0  0  0  0
    6.2028   -1.4020    2.4764 C   0  0  0  0  0  0  0  0  0  0  0  0
    2.2615    2.0326    0.2400 N   0  0  0  0  0  0  0  0  0  0  0  0
    6.3950   -1.4299    1.1117 C   0  0  0  0  0  0  0  0  0  0  0  0
    5.9530   -1.0864   -1.2107 C   0  0  0  0  0  0  0  0  0  0  0  0
    7.3448   -1.9888    3.0245 C   0  0  0  0  0  0  0  0  0  0  0  0
    2.2703    2.9404   -0.7850 C   0  0  0  0  0  0  0  0  0  0  0  0
    7.6100   -2.0386    0.8413 C   0  0  0  0  0  0  0  0  0  0  0  0
    7.1831   -1.7209   -1.5160 C   0  0  0  0  0  0  0  0  0  0  0  0
    8.1672   -2.3657    2.0203 N   0  0  0  0  0  0  0  0  0  0  0  0
    2.5918    4.2778   -0.5753 N   0  0  0  0  0  0  0  0  0  0  0  0
    1.9812    2.5295   -1.9360 O   0  0  0  0  0  0  0  0  0  0  0  0
    8.0298   -2.1970   -0.4892 C   0  0  0  0  0  0  0  0  0  0  0  0
    2.9554    4.7458    0.7506 C   0  0  2  0  0  0  0  0  0  0  0  0
    2.5485    5.2511   -1.6598 C   0  0  2  0  0  0  0  0  0  0  0  0
    1.7556    4.7597    1.7350 C   0  0  0  0  0  0  0  0  0  0  0  0
    3.9568    5.5616   -2.2186 C   0  0  0  0  0  0  0  0  0  0  0  0
    1.9041   -1.2944    3.9869 H   0  0  0  0  0  0  0  0  0  0  0  0
    1.2701    0.3514    4.1744 H   0  0  0  0  0  0  0  0  0  0  0  0
    2.9121    0.0072    4.6498 H   0  0  0  0  0  0  0  0  0  0  0  0
    3.4413   -1.7556    1.8946 H   0  0  0  0  0  0  0  0  0  0  0  0
    1.0644   -0.8704    1.4566 H   0  0  0  0  0  0  0  0  0  0  0  0
    0.7082    0.7950    1.9198 H   0  0  0  0  0  0  0  0  0  0  0  0
    4.6271    0.8290    0.7728 H   0  0  0  0  0  0  0  0  0  0  0  0
    4.6824   -1.4896    3.9072 H   0  0  0  0  0  0  0  0  0  0  0  0
    5.2200    0.1478    3.4946 H   0  0  0  0  0  0  0  0  0  0  0  0
    1.0701    0.5182   -0.5187 H   0  0  0  0  0  0  0  0  0  0  0  0
    2.7957   -1.2026   -0.6049 H   0  0  0  0  0  0  0  0  0  0  0  0
    3.4372    0.2681   -1.3291 H   0  0  0  0  0  0  0  0  0  0  0  0
    2.5240    2.3528    1.1142 H   0  0  0  0  0  0  0  0  0  0  0  0
    5.3884   -0.7388   -1.9850 H   0  0  0  0  0  0  0  0  0  0  0  0
    7.5294   -2.1215    4.0199 H   0  0  0  0  0  0  0  0  0  0  0  0
    7.4662   -1.8287   -2.4928 H   0  0  0  0  0  0  0  0  0  0  0  0
    9.0257   -2.8039    2.1320 H   0  0  0  0  0  0  0  0  0  0  0  0
    8.9231   -2.6420   -0.7070 H   0  0  0  0  0  0  0  0  0  0  0  0
    3.3664    5.7593    0.7110 H   0  0  0  0  0  0  0  0  0  0  0  0
    3.7580    4.1171    1.1508 H   0  0  0  0  0  0  0  0  0  0  0  0
    2.0963    6.1847   -1.3091 H   0  0  0  0  0  0  0  0  0  0  0  0
    1.9185    4.9132   -2.4878 H   0  0  0  0  0  0  0  0  0  0  0  0
    1.7834    5.6514    2.3624 H   0  0  0  0  0  0  0  0  0  0  0  0
    0.8040    4.7598    1.1994 H   0  0  0  0  0  0  0  0  0  0  0  0
    1.7853    3.8803    2.3835 H   0  0  0  0  0  0  0  0  0  0  0  0
    3.8758    6.1381   -3.1423 H   0  0  0  0  0  0  0  0  0  0  0  0
    4.4940    4.6350   -2.4350 H   0  0  0  0  0  0  0  0  0  0  0  0
    4.5303    6.1459   -1.4950 H   0  0  0  0  0  0  0  0  0  0  0  0
  1  2  1  0  0  0  0 
  3  2  1  0  0  0  0 
  2  4  1  0  0  0  0 
  3  5  1  0  0  0  0 
  3  6  1  0  0  0  0 
  7  4  1  0  0  0  0 
  5  8  1  0  0  0  0 
  5  9  1  0  0  0  0 
  6 10  1  0  0  0  0 
  7  9  1  0  0  0  0 
  7 11  1  0  0  0  0 
  8 12  2  0  0  0  0 
  8 13  1  0  0  0  0 
 10 12  1  0  0  0  0 
 10 14  2  0  0  0  0 
 11 15  1  0  0  0  0 
 12 16  1  0  0  0  0 
 13 17  2  0  0  0  0 
 14 18  1  0  0  0  0 
 15 19  1  0  0  0  0 
 15 20  2  0  0  0  0 
 16 18  1  0  0  0  0 
 16 21  2  0  0  0  0 
 17 21  1  0  0  0  0 
 19 22  1  0  0  0  0 
 19 23  1  0  0  0  0 
 22 24  1  0  0  0  0 
 23 25  1  0  0  0  0 
 26  1  1  0  0  0  0 
 27  1  1  0  0  0  0 
 28  1  1  0  0  0  0 
  3 29  1  0  0  0  0 
 30  4  1  0  0  0  0 
 31  4  1  0  0  0  0 
  5 32  1  0  0  0  0 
 33  6  1  0  0  0  0 
 34  6  1  0  0  0  0 
  7 35  1  0  0  0  0 
 36  9  1  0  0  0  0 
 37  9  1  0  0  0  0 
 38 11  1  0  0  0  0 
 39 13  1  0  0  0  0 
 40 14  1  0  0  0  0 
 41 17  1  0  0  0  0 
 42 18  1  0  0  0  0 
 43 21  1  0  0  0  0 
 44 22  1  0  0  0  0 
 45 22  1  0  0  0  0 
 46 23  1  0  0  0  0 
 47 23  1  0  0  0  0 
 48 24  1  0  0  0  0 
 49 24  1  0  0  0  0 
 50 24  1  0  0  0  0 
 51 25  1  0  0  0  0 
 52 25  1  0  0  0  0 
 53 25  1  0  0  0  0 
M  END
> <cdk:Title>
terguride

> <Conformer>
1

> <SuperDrugID>
SD002340

$$$$
