butacetin
  CDK     0628171801

 32 32  0  0  0  0  0  0  0  0999 V2000
   -0.1377   -1.5769   -2.3583 O   0  0  0  0  0  0  0  0  0  0  0  0
   -0.3209   -0.5512   -3.3734 C   0  0  2  0  0  0  0  0  0  0  0  0
   -1.2444   -2.1171   -1.7518 C   0  0  0  0  0  0  0  0  0  0  0  0
   -1.1135    0.6869   -2.8510 C   0  0  0  0  0  0  0  0  0  0  0  0
   -0.9842   -1.1090   -4.6704 C   0  0  0  0  0  0  0  0  0  0  0  0
    1.1286   -0.0965   -3.7180 C   0  0  0  0  0  0  0  0  0  0  0  0
   -1.7332   -1.5686   -0.5477 C   0  0  0  0  0  0  0  0  0  0  0  0
   -1.8582   -3.2719   -2.2748 C   0  0  0  0  0  0  0  0  0  0  0  0
   -2.8335   -2.1496    0.1109 C   0  0  0  0  0  0  0  0  0  0  0  0
   -2.9568   -3.8549   -1.6168 C   0  0  0  0  0  0  0  0  0  0  0  0
   -3.4633   -3.2995   -0.4219 C   0  0  0  0  0  0  0  0  0  0  0  0
   -4.5128   -3.9521    0.1620 N   0  0  0  0  0  0  0  0  0  0  0  0
   -5.5171   -3.4455    0.9334 C   0  0  0  0  0  0  0  0  0  0  0  0
   -6.5229   -4.3773    1.4791 C   0  0  0  0  0  0  0  0  0  0  0  0
   -5.6346   -2.2201    1.1669 O   0  0  0  0  0  0  0  0  0  0  0  0
   -2.1538    0.4234   -2.6551 H   0  0  0  0  0  0  0  0  0  0  0  0
   -1.1016    1.4908   -3.5904 H   0  0  0  0  0  0  0  0  0  0  0  0
   -0.6696    1.0593   -1.9254 H   0  0  0  0  0  0  0  0  0  0  0  0
   -2.0159   -1.4068   -4.4803 H   0  0  0  0  0  0  0  0  0  0  0  0
   -0.9910   -0.3470   -5.4545 H   0  0  0  0  0  0  0  0  0  0  0  0
   -0.4348   -1.9788   -5.0382 H   0  0  0  0  0  0  0  0  0  0  0  0
    1.1226    0.7021   -4.4636 H   0  0  0  0  0  0  0  0  0  0  0  0
    1.6382    0.2743   -2.8259 H   0  0  0  0  0  0  0  0  0  0  0  0
    1.7129   -0.9288   -4.1170 H   0  0  0  0  0  0  0  0  0  0  0  0
   -1.2811   -0.7471   -0.1395 H   0  0  0  0  0  0  0  0  0  0  0  0
   -1.5018   -3.7000   -3.1315 H   0  0  0  0  0  0  0  0  0  0  0  0
   -3.1509   -1.7371    0.9903 H   0  0  0  0  0  0  0  0  0  0  0  0
   -3.3856   -4.6932   -2.0186 H   0  0  0  0  0  0  0  0  0  0  0  0
   -4.5690   -4.9023   -0.0238 H   0  0  0  0  0  0  0  0  0  0  0  0
   -7.3332   -3.8431    1.9811 H   0  0  0  0  0  0  0  0  0  0  0  0
   -6.9506   -4.9774    0.6725 H   0  0  0  0  0  0  0  0  0  0  0  0
   -6.0497   -5.0415    2.2035 H   0  0  0  0  0  0  0  0  0  0  0  0
  1  2  1  0  0  0  0 
  1  3  1  0  0  0  0 
  2  4  1  0  0  0  0 
  2  5  1  0  0  0  0 
  2  6  1  0  0  0  0 
  3  7  2  0  0  0  0 
  3  8  1  0  0  0  0 
  7  9  1  0  0  0  0 
  8 10  2  0  0  0  0 
  9 11  2  0  0  0  0 
 10 11  1  0  0  0  0 
 11 12  1  0  0  0  0 
 12 13  1  0  0  0  0 
 13 14  1  0  0  0  0 
 13 15  2  0  0  0  0 
  4 16  1  0  0  0  0 
  4 17  1  0  0  0  0 
  4 18  1  0  0  0  0 
  5 19  1  0  0  0  0 
  5 20  1  0  0  0  0 
  5 21  1  0  0  0  0 
  6 22  1  0  0  0  0 
  6 23  1  0  0  0  0 
  6 24  1  0  0  0  0 
  7 25  1  0  0  0  0 
  8 26  1  0  0  0  0 
  9 27  1  0  0  0  0 
 10 28  1  0  0  0  0 
 12 29  1  0  0  0  0 
 14 30  1  0  0  0  0 
 14 31  1  0  0  0  0 
 14 32  1  0  0  0  0 
M  END
> <cdk:Title>
butacetin

> <Conformer>
1

> <SuperDrugID>
SD003155

$$$$
