piperacetazine
  CDK     0628171801

 59 62  0  0  0  0  0  0  0  0999 V2000
    1.9236    3.8526   -4.2082 C   0  0  0  0  0  0  0  0  0  0  0  0
    1.6511    3.2481   -2.8846 C   0  0  0  0  0  0  0  0  0  0  0  0
    2.6095    3.2452   -2.0736 O   0  0  0  0  0  0  0  0  0  0  0  0
    0.3902    2.6798   -2.5087 C   0  0  0  0  0  0  0  0  0  0  0  0
   -0.7582    2.8011   -3.3298 C   0  0  0  0  0  0  0  0  0  0  0  0
   -1.9906    2.2497   -2.9467 C   0  0  0  0  0  0  0  0  0  0  0  0
   -2.0981    1.5424   -1.7384 C   0  0  0  0  0  0  0  0  0  0  0  0
   -3.6622    0.9087   -1.2437 S   0  0  0  0  0  0  0  0  0  0  0  0
   -3.5106    0.8295    0.5062 C   0  0  0  0  0  0  0  0  0  0  0  0
   -4.6708    0.8821    1.3049 C   0  0  0  0  0  0  0  0  0  0  0  0
   -4.5585    0.8479    2.7045 C   0  0  0  0  0  0  0  0  0  0  0  0
   -3.2903    0.7777    3.3024 C   0  0  0  0  0  0  0  0  0  0  0  0
   -2.1353    0.7195    2.5003 C   0  0  0  0  0  0  0  0  0  0  0  0
   -2.2168    0.7267    1.0833 C   0  0  0  0  0  0  0  0  0  0  0  0
   -1.0807    0.6126    0.2782 N   0  0  0  0  0  0  0  0  0  0  0  0
   -0.0212   -0.3248    0.6376 C   0  0  2  0  0  0  0  0  0  0  0  0
   -0.4719   -1.7946    0.8701 C   0  0  2  0  0  0  0  0  0  0  0  0
   -1.1914   -2.4527   -0.3381 C   0  0  2  0  0  0  0  0  0  0  0  0
   -0.4880   -2.3229   -1.6593 N   0  0  2  0  0  0  0  0  0  0  0  0
   -1.3971   -2.6365   -2.8095 C   0  0  2  0  0  0  0  0  0  0  0  0
   -0.7127   -2.4015   -4.1786 C   0  0  1  0  0  0  0  0  0  0  0  0
    0.5983   -3.2307   -4.3021 C   0  0  1  0  0  0  0  0  0  0  0  0
    1.2780   -3.0082   -5.6892 C   0  0  2  0  0  0  0  0  0  0  0  0
    2.4973   -3.9244   -5.9528 C   0  0  2  0  0  0  0  0  0  0  0  0
    2.9267   -3.7933   -7.3036 O   0  0  0  0  0  0  0  0  0  0  0  0
    1.5257   -2.9078   -3.0939 C   0  0  1  0  0  0  0  0  0  0  0  0
    0.7988   -3.0888   -1.7356 C   0  0  2  0  0  0  0  0  0  0  0  0
   -0.9756    1.3587   -0.8966 C   0  0  0  0  0  0  0  0  0  0  0  0
    0.2462    1.9643   -1.2909 C   0  0  0  0  0  0  0  0  0  0  0  0
    1.3288    4.7588   -4.3300 H   0  0  0  0  0  0  0  0  0  0  0  0
    1.6691    3.1473   -5.0010 H   0  0  0  0  0  0  0  0  0  0  0  0
    2.9779    4.1170   -4.3181 H   0  0  0  0  0  0  0  0  0  0  0  0
   -0.7229    3.3023   -4.2195 H   0  0  0  0  0  0  0  0  0  0  0  0
   -2.8076    2.3716   -3.5495 H   0  0  0  0  0  0  0  0  0  0  0  0
   -5.5975    0.9419    0.8756 H   0  0  0  0  0  0  0  0  0  0  0  0
   -5.3993    0.8757    3.2869 H   0  0  0  0  0  0  0  0  0  0  0  0
   -3.2067    0.7679    4.3214 H   0  0  0  0  0  0  0  0  0  0  0  0
   -1.2308    0.6715    2.9707 H   0  0  0  0  0  0  0  0  0  0  0  0
    0.4829    0.0351    1.5363 H   0  0  0  0  0  0  0  0  0  0  0  0
    0.7536   -0.3756   -0.1297 H   0  0  0  0  0  0  0  0  0  0  0  0
   -1.1344   -1.8433    1.7375 H   0  0  0  0  0  0  0  0  0  0  0  0
    0.4086   -2.3865    1.1282 H   0  0  0  0  0  0  0  0  0  0  0  0
   -2.1817   -1.9950   -0.3982 H   0  0  0  0  0  0  0  0  0  0  0  0
   -1.3492   -3.5097   -0.1072 H   0  0  0  0  0  0  0  0  0  0  0  0
   -2.2828   -1.9966   -2.7702 H   0  0  0  0  0  0  0  0  0  0  0  0
   -1.7346   -3.6759   -2.7500 H   0  0  0  0  0  0  0  0  0  0  0  0
   -1.4070   -2.6883   -4.9734 H   0  0  0  0  0  0  0  0  0  0  0  0
   -0.4958   -1.3355   -4.2881 H   0  0  0  0  0  0  0  0  0  0  0  0
    0.3252   -4.2888   -4.2450 H   0  0  0  0  0  0  0  0  0  0  0  0
    1.5856   -1.9650   -5.7929 H   0  0  0  0  0  0  0  0  0  0  0  0
    0.5404   -3.2083   -6.4700 H   0  0  0  0  0  0  0  0  0  0  0  0
    2.2332   -4.9675   -5.7673 H   0  0  0  0  0  0  0  0  0  0  0  0
    3.3295   -3.6489   -5.3036 H   0  0  0  0  0  0  0  0  0  0  0  0
    3.7093   -4.3808   -7.3723 H   0  0  0  0  0  0  0  0  0  0  0  0
    2.3899   -3.5768   -3.0990 H   0  0  0  0  0  0  0  0  0  0  0  0
    1.8905   -1.8792   -3.1748 H   0  0  0  0  0  0  0  0  0  0  0  0
    0.6152   -4.1548   -1.5645 H   0  0  0  0  0  0  0  0  0  0  0  0
    1.4884   -2.7446   -0.9623 H   0  0  0  0  0  0  0  0  0  0  0  0
    1.0529    1.8802   -0.6668 H   0  0  0  0  0  0  0  0  0  0  0  0
  1  2  1  0  0  0  0 
  2  3  2  0  0  0  0 
  2  4  1  0  0  0  0 
  4  5  2  0  0  0  0 
  5  6  1  0  0  0  0 
  6  7  2  0  0  0  0 
  7  8  1  0  0  0  0 
  8  9  1  0  0  0  0 
  9 10  2  0  0  0  0 
 10 11  1  0  0  0  0 
 11 12  2  0  0  0  0 
 12 13  1  0  0  0  0 
 13 14  2  0  0  0  0 
  9 14  1  0  0  0  0 
 14 15  1  0  0  0  0 
 15 16  1  0  0  0  0 
 16 17  1  0  0  0  0 
 17 18  1  0  0  0  0 
 18 19  1  0  0  0  0 
 19 20  1  0  0  0  0 
 20 21  1  0  0  0  0 
 21 22  1  0  0  0  0 
 22 23  1  0  0  0  0 
 23 24  1  0  0  0  0 
 24 25  1  0  0  0  0 
 22 26  1  0  0  0  0 
 26 27  1  0  0  0  0 
 19 27  1  0  0  0  0 
 15 28  1  0  0  0  0 
  7 28  1  0  0  0  0 
 28 29  2  0  0  0  0 
  4 29  1  0  0  0  0 
 30  1  1  0  0  0  0 
 31  1  1  0  0  0  0 
 32  1  1  0  0  0  0 
 33  5  1  0  0  0  0 
 34  6  1  0  0  0  0 
 35 10  1  0  0  0  0 
 36 11  1  0  0  0  0 
 37 12  1  0  0  0  0 
 38 13  1  0  0  0  0 
 39 16  1  0  0  0  0 
 40 16  1  0  0  0  0 
 41 17  1  0  0  0  0 
 42 17  1  0  0  0  0 
 43 18  1  0  0  0  0 
 44 18  1  0  0  0  0 
 45 20  1  0  0  0  0 
 46 20  1  0  0  0  0 
 47 21  1  0  0  0  0 
 48 21  1  0  0  0  0 
 49 22  1  0  0  0  0 
 50 23  1  0  0  0  0 
 51 23  1  0  0  0  0 
 52 24  1  0  0  0  0 
 53 24  1  0  0  0  0 
 54 25  1  0  0  0  0 
 55 26  1  0  0  0  0 
 56 26  1  0  0  0  0 
 57 27  1  0  0  0  0 
 58 27  1  0  0  0  0 
 59 29  1  0  0  0  0 
M  END
> <cdk:Title>
piperacetazine

> <Conformer>
1

> <SuperDrugID>
SD001961

$$$$
