tigecycline
  CDK     0628171801

 81 84  0  0  0  0  0  0  0  0999 V2000
   -9.1260   -8.8639    1.6422 O   0  0  0  0  0  0  0  0  0  0  0  0
   -8.1759   -7.8497    1.2930 C   0  0  1  0  0  0  0  0  0  0  0  0
   -8.9923   -6.5298    0.9860 C   0  0  2  0  0  0  0  0  0  0  0  0
   -7.2721   -7.6757    2.4807 C   0  0  0  0  0  0  0  0  0  0  0  0
   -7.3941   -8.3295    0.1369 C   0  0  0  0  0  0  0  0  0  0  0  0
   -8.1935   -5.5602    0.0418 C   0  0  2  0  0  0  0  0  0  0  0  0
   -9.4061   -5.8569    2.3381 C   0  0  2  0  0  0  0  0  0  0  0  0
   -6.7580   -8.6677    3.0514 O   0  0  0  0  0  0  0  0  0  0  0  0
   -7.0042   -6.3865    2.9439 C   0  0  0  0  0  0  0  0  0  0  0  0
   -6.8421   -9.5379    0.2693 O   0  0  0  0  0  0  0  0  0  0  0  0
   -7.1832   -7.6178   -1.0006 C   0  0  0  0  0  0  0  0  0  0  0  0
   -8.8783   -4.2343   -0.2084 N   0  0  1  0  0  0  0  0  0  0  0  0
   -7.7294   -6.3286   -1.1445 C   0  0  0  0  0  0  0  0  0  0  0  0
   -8.1897   -5.6005    3.3186 C   0  0  1  0  0  0  0  0  0  0  0  0
   -5.7539   -5.8732    2.8790 C   0  0  0  0  0  0  0  0  0  0  0  0
   -6.4033   -8.1421   -2.0404 C   0  0  0  0  0  0  0  0  0  0  0  0
   -7.9590   -3.0874   -0.4948 C   0  0  0  0  0  0  0  0  0  0  0  0
  -10.1394   -4.2235   -1.0164 C   0  0  0  0  0  0  0  0  0  0  0  0
   -7.8103   -5.7973   -2.2778 O   0  0  0  0  0  0  0  0  0  0  0  0
   -7.9135   -4.0814    3.5918 C   0  0  2  0  0  0  0  0  0  0  0  0
   -4.7582   -6.6997    2.5475 O   0  0  0  0  0  0  0  0  0  0  0  0
   -5.4739   -4.4994    3.0436 C   0  0  0  0  0  0  0  0  0  0  0  0
   -5.5009   -7.3851   -2.6972 N   0  0  0  0  0  0  0  0  0  0  0  0
   -6.4962   -9.3377   -2.4049 O   0  0  0  0  0  0  0  0  0  0  0  0
   -6.5156   -3.5977    3.4040 C   0  0  0  0  0  0  0  0  0  0  0  0
   -4.1846   -3.9505    2.7676 C   0  0  0  0  0  0  0  0  0  0  0  0
   -6.2457   -2.2071    3.5386 C   0  0  0  0  0  0  0  0  0  0  0  0
   -3.1201   -4.7393    2.4617 O   0  0  0  0  0  0  0  0  0  0  0  0
   -3.9452   -2.5569    2.7752 C   0  0  0  0  0  0  0  0  0  0  0  0
   -7.1976   -1.3094    3.9560 N   0  0  0  0  0  0  0  0  0  0  0  0
   -4.9806   -1.7004    3.1925 C   0  0  0  0  0  0  0  0  0  0  0  0
   -2.7476   -2.1010    2.2898 N   0  0  0  0  0  0  0  0  0  0  0  0
   -8.0444   -0.6460    3.0006 C   0  0  0  0  0  0  0  0  0  0  0  0
   -7.3433   -1.0163    5.3561 C   0  0  0  0  0  0  0  0  0  0  0  0
   -2.0730   -0.9460    2.5581 C   0  0  0  0  0  0  0  0  0  0  0  0
   -0.8817   -0.6144    1.7546 C   0  0  1  0  0  0  0  0  0  0  0  0
   -2.4156   -0.1525    3.4661 O   0  0  0  0  0  0  0  0  0  0  0  0
    0.3357   -0.7086    2.5912 N   0  0  2  0  0  0  0  0  0  0  0  0
    1.6714   -0.4276    1.9781 C   0  0  2  0  0  0  0  0  0  0  0  0
    2.6825   -0.4852    3.1639 C   0  0  0  0  0  0  0  0  0  0  0  0
    1.7361    0.9944    1.3388 C   0  0  0  0  0  0  0  0  0  0  0  0
    2.0614   -1.5145    0.9275 C   0  0  0  0  0  0  0  0  0  0  0  0
   -9.7089   -8.9602    0.8607 H   0  0  0  0  0  0  0  0  0  0  0  0
   -9.9087   -6.8234    0.4644 H   0  0  0  0  0  0  0  0  0  0  0  0
   -7.2631   -5.3250    0.5574 H   0  0  0  0  0  0  0  0  0  0  0  0
  -10.1090   -6.5330    2.8378 H   0  0  0  0  0  0  0  0  0  0  0  0
   -9.9775   -4.9502    2.1316 H   0  0  0  0  0  0  0  0  0  0  0  0
   -7.5976  -10.1581    0.2981 H   0  0  0  0  0  0  0  0  0  0  0  0
   -8.4871   -6.0222    4.2866 H   0  0  0  0  0  0  0  0  0  0  0  0
   -7.1497   -3.0425    0.2366 H   0  0  0  0  0  0  0  0  0  0  0  0
   -8.4940   -2.1387   -0.4291 H   0  0  0  0  0  0  0  0  0  0  0  0
   -7.5220   -3.1718   -1.4908 H   0  0  0  0  0  0  0  0  0  0  0  0
  -10.8526   -5.0381   -0.5675 H   0  0  0  0  0  0  0  0  0  0  0  0
  -10.5531   -3.1676   -0.9793 H   0  0  0  0  0  0  0  0  0  0  0  0
   -9.8606   -4.3627   -2.1035 H   0  0  0  0  0  0  0  0  0  0  0  0
   -8.2211   -3.8468    4.6156 H   0  0  0  0  0  0  0  0  0  0  0  0
   -8.5351   -3.4788    2.9289 H   0  0  0  0  0  0  0  0  0  0  0  0
   -4.8644   -7.4869    3.1208 H   0  0  0  0  0  0  0  0  0  0  0  0
   -4.9791   -7.7637   -3.4214 H   0  0  0  0  0  0  0  0  0  0  0  0
   -5.3705   -6.4577   -2.4466 H   0  0  0  0  0  0  0  0  0  0  0  0
   -3.0262   -5.3302    3.2382 H   0  0  0  0  0  0  0  0  0  0  0  0
   -4.8342   -0.6906    3.2131 H   0  0  0  0  0  0  0  0  0  0  0  0
   -2.3167   -2.6854    1.6453 H   0  0  0  0  0  0  0  0  0  0  0  0
   -9.0845   -0.9364    3.1629 H   0  0  0  0  0  0  0  0  0  0  0  0
   -7.7809   -0.8940    1.9693 H   0  0  0  0  0  0  0  0  0  0  0  0
   -7.9626    0.4363    3.1145 H   0  0  0  0  0  0  0  0  0  0  0  0
   -7.1435    0.0417    5.5370 H   0  0  0  0  0  0  0  0  0  0  0  0
   -8.3632   -1.2393    5.6750 H   0  0  0  0  0  0  0  0  0  0  0  0
   -6.6597   -1.5979    5.9823 H   0  0  0  0  0  0  0  0  0  0  0  0
   -0.8026   -1.2971    0.9074 H   0  0  0  0  0  0  0  0  0  0  0  0
   -1.0089    0.3972    1.3668 H   0  0  0  0  0  0  0  0  0  0  0  0
    0.3709   -1.6692    2.9379 H   0  0  0  0  0  0  0  0  0  0  0  0
    3.7002   -0.2744    2.8226 H   0  0  0  0  0  0  0  0  0  0  0  0
    2.6779   -1.4741    3.6300 H   0  0  0  0  0  0  0  0  0  0  0  0
    2.4207    0.2514    3.9280 H   0  0  0  0  0  0  0  0  0  0  0  0
    2.7606    1.2445    1.0507 H   0  0  0  0  0  0  0  0  0  0  0  0
    1.1152    1.0492    0.4425 H   0  0  0  0  0  0  0  0  0  0  0  0
    1.3821    1.7440    2.0503 H   0  0  0  0  0  0  0  0  0  0  0  0
    3.0887   -1.3694    0.5849 H   0  0  0  0  0  0  0  0  0  0  0  0
    1.4115   -1.4688    0.0532 H   0  0  0  0  0  0  0  0  0  0  0  0
    1.9814   -2.5144    1.3594 H   0  0  0  0  0  0  0  0  0  0  0  0
  2  1  1  0  0  0  0 
  3  2  1  0  0  0  0 
  2  4  1  0  0  0  0 
  2  5  1  0  0  0  0 
  3  6  1  0  0  0  0 
  3  7  1  0  0  0  0 
  4  8  2  0  0  0  0 
  4  9  1  0  0  0  0 
  5 10  1  0  0  0  0 
  5 11  2  0  0  0  0 
  6 12  1  0  0  0  0 
  6 13  1  0  0  0  0 
 14  7  1  0  0  0  0 
 14  9  1  0  0  0  0 
  9 15  2  0  0  0  0 
 11 13  1  0  0  0  0 
 11 16  1  0  0  0  0 
 12 17  1  0  0  0  0 
 12 18  1  0  0  0  0 
 13 19  2  0  0  0  0 
 14 20  1  0  0  0  0 
 15 21  1  0  0  0  0 
 15 22  1  0  0  0  0 
 16 23  1  0  0  0  0 
 16 24  2  0  0  0  0 
 20 25  1  0  0  0  0 
 22 25  2  0  0  0  0 
 22 26  1  0  0  0  0 
 25 27  1  0  0  0  0 
 26 28  1  0  0  0  0 
 26 29  2  0  0  0  0 
 27 30  1  0  0  0  0 
 27 31  2  0  0  0  0 
 29 31  1  0  0  0  0 
 29 32  1  0  0  0  0 
 30 33  1  0  0  0  0 
 30 34  1  0  0  0  0 
 32 35  1  0  0  0  0 
 35 36  1  0  0  0  0 
 35 37  2  0  0  0  0 
 36 38  1  0  0  0  0 
 38 39  1  0  0  0  0 
 39 40  1  0  0  0  0 
 39 41  1  0  0  0  0 
 39 42  1  0  0  0  0 
 43  1  1  0  0  0  0 
  3 44  1  0  0  0  0 
  6 45  1  0  0  0  0 
 46  7  1  0  0  0  0 
 47  7  1  0  0  0  0 
 48 10  1  0  0  0  0 
 14 49  1  0  0  0  0 
 50 17  1  0  0  0  0 
 51 17  1  0  0  0  0 
 52 17  1  0  0  0  0 
 53 18  1  0  0  0  0 
 54 18  1  0  0  0  0 
 55 18  1  0  0  0  0 
 56 20  1  0  0  0  0 
 57 20  1  0  0  0  0 
 58 21  1  0  0  0  0 
 59 23  1  0  0  0  0 
 60 23  1  0  0  0  0 
 61 28  1  0  0  0  0 
 62 31  1  0  0  0  0 
 63 32  1  0  0  0  0 
 64 33  1  0  0  0  0 
 65 33  1  0  0  0  0 
 66 33  1  0  0  0  0 
 67 34  1  0  0  0  0 
 68 34  1  0  0  0  0 
 69 34  1  0  0  0  0 
 70 36  1  0  0  0  0 
 71 36  1  0  0  0  0 
 72 38  1  0  0  0  0 
 73 40  1  0  0  0  0 
 74 40  1  0  0  0  0 
 75 40  1  0  0  0  0 
 76 41  1  0  0  0  0 
 77 41  1  0  0  0  0 
 78 41  1  0  0  0  0 
 79 42  1  0  0  0  0 
 80 42  1  0  0  0  0 
 81 42  1  0  0  0  0 
M  END
> <cdk:Title>
tigecycline

> <Conformer>
1

> <SuperDrugID>
SD002394

$$$$
