everolimus
  CDK     0628171801

151154  0  0  0  0  0  0  0  0999 V2000
   -4.2826    6.4966    0.2142 C   0  0  1  0  0  0  0  0  0  0  0  0
   -4.6165    5.0974   -0.3613 C   0  0  2  0  0  0  0  0  0  0  0  0
   -4.0158    3.9781    0.5081 C   0  0  1  0  0  0  0  0  0  0  0  0
   -2.4810    4.1488    0.6212 C   0  0  2  0  0  0  0  0  0  0  0  0
   -1.9814    5.5136    0.7088 N   0  0  0  0  0  0  0  0  0  0  0  0
   -2.9325    6.5900    1.0069 C   0  0  2  0  0  0  0  0  0  0  0  0
   -3.1096    6.7050    2.4891 C   0  0  0  0  0  0  0  0  0  0  0  0
   -2.7442    7.7645    3.0522 O   0  0  0  0  0  0  0  0  0  0  0  0
   -3.6718    5.7126    3.2523 O   0  0  0  0  0  0  0  0  0  0  0  0
   -3.8009    5.7068    4.7269 C   0  0  1  0  0  0  0  0  0  0  0  0
   -5.3187    5.9112    5.0443 C   0  0  2  0  0  0  0  0  0  0  0  0
   -3.2114    4.3568    5.2989 C   0  0  2  0  0  0  0  0  0  0  0  0
   -3.3313    4.2570    6.8546 C   0  0  0  0  0  0  0  0  0  0  0  0
   -1.7102    4.1562    4.8739 C   0  0  1  0  0  0  0  0  0  0  0  0
   -1.0670    2.7282    5.0430 C   0  0  1  0  0  0  0  0  0  0  0  0
    0.4144    0.5476    3.5511 C   0  0  1  0  0  0  0  0  0  0  0  0
   -1.0533    0.2984    3.9921 C   0  0  1  0  0  0  0  0  0  0  0  0
   -1.7995    1.6536    4.1712 C   0  0  2  0  0  0  0  0  0  0  0  0
    0.4658    2.8095    4.7448 C   0  0  2  0  0  0  0  0  0  0  0  0
    1.1563    1.4338    4.5870 C   0  0  2  0  0  0  0  0  0  0  0  0
   -1.1467    2.4062    6.0835 H   0  0  0  0  0  0  0  0  0  0  0  0
   -1.6631   -0.5142    2.9573 O   0  0  0  0  0  0  0  0  0  0  0  0
   -2.9148   -1.1451    3.2815 C   0  0  0  0  0  0  0  0  0  0  0  0
    0.3870    1.0690    2.5847 H   0  0  0  0  0  0  0  0  0  0  0  0
    1.0734   -0.7324    3.4322 O   0  0  0  0  0  0  0  0  0  0  0  0
    2.1035   -0.7993    2.4284 C   0  0  2  0  0  0  0  0  0  0  0  0
    2.7675   -2.1844    2.4805 C   0  0  1  0  0  0  0  0  0  0  0  0
    3.7189   -2.2998    1.4291 O   0  0  0  0  0  0  0  0  0  0  0  0
   -5.8405    7.2433    4.6396 C   0  0  0  0  0  0  0  0  0  0  0  0
   -6.8176    7.4938    3.5326 C   0  0  1  0  0  0  0  0  0  0  0  0
   -5.3525    8.2317    5.2404 O   0  0  0  0  0  0  0  0  0  0  0  0
   -7.7256    6.3940    3.1652 C   0  0  0  0  0  0  0  0  0  0  0  0
   -7.6127    8.8282    3.6725 C   0  0  0  0  0  0  0  0  0  0  0  0
   -8.7081    5.8184    3.9007 C   0  0  0  0  0  0  0  0  0  0  0  0
   -9.5731    4.7798    3.2943 C   0  0  2  0  0  0  0  0  0  0  0  0
   -8.9634    3.3395    3.2351 C   0  0  1  0  0  0  0  0  0  0  0  0
  -10.0754    5.2107    2.0308 O   0  0  0  0  0  0  0  0  0  0  0  0
  -10.0340    2.4329    2.8767 O   0  0  0  0  0  0  0  0  0  0  0  0
   -7.7781    3.1548    2.3373 C   0  0  0  0  0  0  0  0  0  0  0  0
   -7.7684    2.6467    0.9232 C   0  0  1  0  0  0  0  0  0  0  0  0
   -6.6593    3.4092    2.8434 O   0  0  0  0  0  0  0  0  0  0  0  0
   -8.0324    1.1039    0.8517 C   0  0  1  0  0  0  0  0  0  0  0  0
   -7.6967    0.3918   -0.5018 C   0  0  2  0  0  0  0  0  0  0  0  0
   -8.1649   -1.0918   -0.4884 C   0  0  0  0  0  0  0  0  0  0  0  0
   -6.2964    0.5479   -0.9104 C   0  0  0  0  0  0  0  0  0  0  0  0
   -5.2361   -0.0081   -0.2901 C   0  0  0  0  0  0  0  0  0  0  0  0
   -3.9275    0.1891   -0.6258 C   0  0  0  0  0  0  0  0  0  0  0  0
   -3.4580    0.4148   -1.8672 C   0  0  0  0  0  0  0  0  0  0  0  0
   -2.1517    0.6995   -2.1267 C   0  0  0  0  0  0  0  0  0  0  0  0
   -1.7250    1.7338   -2.8927 C   0  0  0  0  0  0  0  0  0  0  0  0
   -0.2781    1.9831   -3.0867 C   0  0  2  0  0  0  0  0  0  0  0  0
   -2.6865    2.6519   -3.5186 C   0  0  0  0  0  0  0  0  0  0  0  0
    0.1598    3.1080   -2.0884 C   0  0  1  0  0  0  0  0  0  0  0  0
   -0.0818    2.2943   -4.4916 O   0  0  0  0  0  0  0  0  0  0  0  0
    1.2032    2.0613   -5.0966 C   0  0  0  0  0  0  0  0  0  0  0  0
    1.6509    3.5554   -2.0440 C   0  0  1  0  0  0  0  0  0  0  0  0
    1.7794    4.8742   -1.4407 O   0  0  0  0  0  0  0  0  0  0  0  0
    1.8306    4.9994    0.0010 C   0  0  2  0  0  0  0  0  0  0  0  0
    2.9709    4.0618    0.5591 C   0  0  1  0  0  0  0  0  0  0  0  0
    2.7611    2.5905    0.0853 C   0  0  1  0  0  0  0  0  0  0  0  0
    2.6323    2.4931   -1.4525 C   0  0  2  0  0  0  0  0  0  0  0  0
    0.4644    4.8521    0.6289 C   0  0  0  0  0  0  0  0  0  0  0  0
    0.2754    3.8747    1.3854 O   0  0  0  0  0  0  0  0  0  0  0  0
   -0.6181    5.7852    0.4980 C   0  0  0  0  0  0  0  0  0  0  0  0
   -0.2870    6.9583    0.2004 O   0  0  0  0  0  0  0  0  0  0  0  0
   -2.5225    7.5546    0.6840 H   0  0  0  0  0  0  0  0  0  0  0  0
   -3.2607    6.5299    5.2636 H   0  0  0  0  0  0  0  0  0  0  0  0
    2.2505    6.3470    0.2360 O   0  0  0  0  0  0  0  0  0  0  0  0
    4.4064    4.5606    0.1909 C   0  0  0  0  0  0  0  0  0  0  0  0
    1.9632    3.7337   -3.0696 H   0  0  0  0  0  0  0  0  0  0  0  0
  -10.1701    1.2499    3.6873 C   0  0  0  0  0  0  0  0  0  0  0  0
   -8.6667    3.4779   -0.0328 C   0  0  0  0  0  0  0  0  0  0  0  0
   -3.8072    3.5480    4.8658 H   0  0  0  0  0  0  0  0  0  0  0  0
    2.9178    4.0647    1.6520 H   0  0  0  0  0  0  0  0  0  0  0  0
   -8.9963    6.1873    5.2902 C   0  0  0  0  0  0  0  0  0  0  0  0
   -4.2613    7.2020   -0.6223 H   0  0  0  0  0  0  0  0  0  0  0  0
   -5.1103    6.8141    0.8451 H   0  0  0  0  0  0  0  0  0  0  0  0
   -4.2162    5.0122   -1.3750 H   0  0  0  0  0  0  0  0  0  0  0  0
   -5.7008    4.9721   -0.4222 H   0  0  0  0  0  0  0  0  0  0  0  0
   -4.4645    4.0061    1.5009 H   0  0  0  0  0  0  0  0  0  0  0  0
   -4.2488    3.0084    0.0644 H   0  0  0  0  0  0  0  0  0  0  0  0
   -2.0627    3.6916   -0.2739 H   0  0  0  0  0  0  0  0  0  0  0  0
   -2.1538    3.5702    1.4791 H   0  0  0  0  0  0  0  0  0  0  0  0
   -5.4936    5.8482    6.1186 H   0  0  0  0  0  0  0  0  0  0  0  0
   -5.8905    5.1074    4.5880 H   0  0  0  0  0  0  0  0  0  0  0  0
   -2.8553    3.3519    7.2305 H   0  0  0  0  0  0  0  0  0  0  0  0
   -4.3732    4.2083    7.1719 H   0  0  0  0  0  0  0  0  0  0  0  0
   -2.8545    5.1198    7.3284 H   0  0  0  0  0  0  0  0  0  0  0  0
   -1.6071    4.4145    3.8184 H   0  0  0  0  0  0  0  0  0  0  0  0
   -1.1079    4.8840    5.4266 H   0  0  0  0  0  0  0  0  0  0  0  0
   -1.0432   -0.2457    4.9434 H   0  0  0  0  0  0  0  0  0  0  0  0
   -1.9816    2.0556    3.1765 H   0  0  0  0  0  0  0  0  0  0  0  0
   -2.7696    1.4462    4.6266 H   0  0  0  0  0  0  0  0  0  0  0  0
    0.9655    3.3506    5.5543 H   0  0  0  0  0  0  0  0  0  0  0  0
    0.6376    3.3756    3.8299 H   0  0  0  0  0  0  0  0  0  0  0  0
    2.1866    1.5964    4.2588 H   0  0  0  0  0  0  0  0  0  0  0  0
    1.1914    0.9238    5.5541 H   0  0  0  0  0  0  0  0  0  0  0  0
   -3.2468   -1.7180    2.4150 H   0  0  0  0  0  0  0  0  0  0  0  0
   -3.6864   -0.4098    3.5110 H   0  0  0  0  0  0  0  0  0  0  0  0
   -2.7996   -1.8312    4.1225 H   0  0  0  0  0  0  0  0  0  0  0  0
    2.8673   -0.0353    2.5953 H   0  0  0  0  0  0  0  0  0  0  0  0
    1.6627   -0.6524    1.4381 H   0  0  0  0  0  0  0  0  0  0  0  0
    3.2743   -2.3169    3.4390 H   0  0  0  0  0  0  0  0  0  0  0  0
    2.0125   -2.9652    2.3662 H   0  0  0  0  0  0  0  0  0  0  0  0
    4.0822   -3.2047    1.5189 H   0  0  0  0  0  0  0  0  0  0  0  0
   -6.1713    7.6632    2.6711 H   0  0  0  0  0  0  0  0  0  0  0  0
   -7.6144    6.0620    2.2321 H   0  0  0  0  0  0  0  0  0  0  0  0
   -8.2000    8.8480    4.5914 H   0  0  0  0  0  0  0  0  0  0  0  0
   -8.2900    8.9661    2.8251 H   0  0  0  0  0  0  0  0  0  0  0  0
   -6.9304    9.6818    3.6888 H   0  0  0  0  0  0  0  0  0  0  0  0
  -10.4826    4.6914    3.8998 H   0  0  0  0  0  0  0  0  0  0  0  0
   -8.6278    3.1311    4.2600 H   0  0  0  0  0  0  0  0  0  0  0  0
  -10.7418    4.5372    1.7758 H   0  0  0  0  0  0  0  0  0  0  0  0
   -6.7538    2.7949    0.5455 H   0  0  0  0  0  0  0  0  0  0  0  0
   -7.4630    0.6099    1.6456 H   0  0  0  0  0  0  0  0  0  0  0  0
   -9.0897    0.9287    1.0568 H   0  0  0  0  0  0  0  0  0  0  0  0
   -8.3104    0.8684   -1.2727 H   0  0  0  0  0  0  0  0  0  0  0  0
   -7.6487   -1.6636    0.2846 H   0  0  0  0  0  0  0  0  0  0  0  0
   -7.9809   -1.5611   -1.4569 H   0  0  0  0  0  0  0  0  0  0  0  0
   -9.2384   -1.1437   -0.2903 H   0  0  0  0  0  0  0  0  0  0  0  0
   -6.1299    1.1429   -1.6898 H   0  0  0  0  0  0  0  0  0  0  0  0
   -5.4061   -0.5825    0.5026 H   0  0  0  0  0  0  0  0  0  0  0  0
   -3.2752    0.1759    0.1278 H   0  0  0  0  0  0  0  0  0  0  0  0
   -4.0851    0.4045   -2.6385 H   0  0  0  0  0  0  0  0  0  0  0  0
   -1.4752    0.1087   -1.6960 H   0  0  0  0  0  0  0  0  0  0  0  0
    0.2799    1.0715   -2.8491 H   0  0  0  0  0  0  0  0  0  0  0  0
   -3.2641    2.1219   -4.2788 H   0  0  0  0  0  0  0  0  0  0  0  0
   -2.2099    3.5067   -4.0016 H   0  0  0  0  0  0  0  0  0  0  0  0
   -3.3664    3.0527   -2.7663 H   0  0  0  0  0  0  0  0  0  0  0  0
   -0.4356    4.0002   -2.2973 H   0  0  0  0  0  0  0  0  0  0  0  0
   -0.0939    2.7618   -1.0850 H   0  0  0  0  0  0  0  0  0  0  0  0
    1.6986    3.0169   -5.2609 H   0  0  0  0  0  0  0  0  0  0  0  0
    1.0424    1.6017   -6.0730 H   0  0  0  0  0  0  0  0  0  0  0  0
    1.8576    1.4142   -4.5077 H   0  0  0  0  0  0  0  0  0  0  0  0
    3.5932    1.9644    0.4218 H   0  0  0  0  0  0  0  0  0  0  0  0
    1.8632    2.1694    0.5399 H   0  0  0  0  0  0  0  0  0  0  0  0
    3.6225    2.6344   -1.8928 H   0  0  0  0  0  0  0  0  0  0  0  0
    2.3189    1.4794   -1.7110 H   0  0  0  0  0  0  0  0  0  0  0  0
    2.3257    6.4337    1.2086 H   0  0  0  0  0  0  0  0  0  0  0  0
    5.1660    3.8532    0.5297 H   0  0  0  0  0  0  0  0  0  0  0  0
    4.6129    5.5182    0.6715 H   0  0  0  0  0  0  0  0  0  0  0  0
    4.5147    4.6928   -0.8874 H   0  0  0  0  0  0  0  0  0  0  0  0
  -10.9411    0.6169    3.2475 H   0  0  0  0  0  0  0  0  0  0  0  0
  -10.4768    1.5165    4.7007 H   0  0  0  0  0  0  0  0  0  0  0  0
   -9.2367    0.6841    3.7262 H   0  0  0  0  0  0  0  0  0  0  0  0
   -8.4638    3.2228   -1.0735 H   0  0  0  0  0  0  0  0  0  0  0  0
   -8.4597    4.5435    0.0799 H   0  0  0  0  0  0  0  0  0  0  0  0
   -9.7240    3.2953    0.1626 H   0  0  0  0  0  0  0  0  0  0  0  0
   -9.8619    6.8524    5.3112 H   0  0  0  0  0  0  0  0  0  0  0  0
   -8.1718    6.6868    5.7922 H   0  0  0  0  0  0  0  0  0  0  0  0
   -9.2269    5.3005    5.8849 H   0  0  0  0  0  0  0  0  0  0  0  0
  1  2  1  0  0  0  0 
  1  6  1  0  0  0  0 
  2  3  1  0  0  0  0 
  3  4  1  0  0  0  0 
  4  5  1  0  0  0  0 
  5  6  1  0  0  0  0 
  6  7  1  0  0  0  0 
  7  8  2  0  0  0  0 
  7  9  1  0  0  0  0 
  9 10  1  0  0  0  0 
 10 11  1  0  0  0  0 
 10 12  1  0  0  0  0 
 12 13  1  0  0  0  0 
 12 14  1  0  0  0  0 
 15 14  1  0  0  0  0 
 16 17  1  0  0  0  0 
 17 18  1  0  0  0  0 
 19 20  1  0  0  0  0 
 16 20  1  0  0  0  0 
 18 15  1  0  0  0  0 
 15 19  1  0  0  0  0 
 15 21  1  0  0  0  0 
 17 22  1  0  0  0  0 
 22 23  1  0  0  0  0 
 16 24  1  0  0  0  0 
 16 25  1  0  0  0  0 
 25 26  1  0  0  0  0 
 26 27  1  0  0  0  0 
 27 28  1  0  0  0  0 
 11 29  1  0  0  0  0 
 29 30  1  0  0  0  0 
 29 31  2  0  0  0  0 
 30 32  1  0  0  0  0 
 30 33  1  0  0  0  0 
 32 34  2  0  0  0  0 
 34 35  1  0  0  0  0 
 35 36  1  0  0  0  0 
 35 37  1  0  0  0  0 
 39 40  1  0  0  0  0 
 36 38  1  0  0  0  0 
 36 39  1  0  0  0  0 
 39 41  2  0  0  0  0 
 40 42  1  0  0  0  0 
 42 43  1  0  0  0  0 
 43 44  1  0  0  0  0 
 43 45  1  0  0  0  0 
 45 46  2  0  0  0  0 
 46 47  1  0  0  0  0 
 47 48  2  0  0  0  0 
 48 49  1  0  0  0  0 
 49 50  2  0  0  0  0 
 50 51  1  0  0  0  0 
 50 52  1  0  0  0  0 
 51 53  1  0  0  0  0 
 51 54  1  0  0  0  0 
 54 55  1  0  0  0  0 
 53 56  1  0  0  0  0 
 57 58  1  0  0  0  0 
 58 59  1  0  0  0  0 
 59 60  1  0  0  0  0 
 60 61  1  0  0  0  0 
 61 56  1  0  0  0  0 
 57 56  1  0  0  0  0 
 58 62  1  0  0  0  0 
 62 63  2  0  0  0  0 
 62 64  1  0  0  0  0 
 64  5  1  0  0  0  0 
 64 65  2  0  0  0  0 
  6 66  1  0  0  0  0 
 10 67  1  0  0  0  0 
 58 68  1  0  0  0  0 
 59 69  1  0  0  0  0 
 56 70  1  0  0  0  0 
 38 71  1  0  0  0  0 
 40 72  1  0  0  0  0 
 12 73  1  0  0  0  0 
 59 74  1  0  0  0  0 
 34 75  1  0  0  0  0 
  1 76  1  0  0  0  0 
  1 77  1  0  0  0  0 
  2 78  1  0  0  0  0 
  2 79  1  0  0  0  0 
  3 80  1  0  0  0  0 
  3 81  1  0  0  0  0 
  4 82  1  0  0  0  0 
  4 83  1  0  0  0  0 
 11 84  1  0  0  0  0 
 11 85  1  0  0  0  0 
 13 86  1  0  0  0  0 
 13 87  1  0  0  0  0 
 13 88  1  0  0  0  0 
 14 89  1  0  0  0  0 
 14 90  1  0  0  0  0 
 17 91  1  0  0  0  0 
 18 92  1  0  0  0  0 
 18 93  1  0  0  0  0 
 19 94  1  0  0  0  0 
 19 95  1  0  0  0  0 
 20 96  1  0  0  0  0 
 20 97  1  0  0  0  0 
 23 98  1  0  0  0  0 
 23 99  1  0  0  0  0 
 23100  1  0  0  0  0 
 26101  1  0  0  0  0 
 26102  1  0  0  0  0 
 27103  1  0  0  0  0 
 27104  1  0  0  0  0 
 28105  1  0  0  0  0 
 30106  1  0  0  0  0 
 32107  1  0  0  0  0 
 33108  1  0  0  0  0 
 33109  1  0  0  0  0 
 33110  1  0  0  0  0 
 35111  1  0  0  0  0 
 36112  1  0  0  0  0 
 37113  1  0  0  0  0 
 40114  1  0  0  0  0 
 42115  1  0  0  0  0 
 42116  1  0  0  0  0 
 43117  1  0  0  0  0 
 44118  1  0  0  0  0 
 44119  1  0  0  0  0 
 44120  1  0  0  0  0 
 45121  1  0  0  0  0 
 46122  1  0  0  0  0 
 47123  1  0  0  0  0 
 48124  1  0  0  0  0 
 49125  1  0  0  0  0 
 51126  1  0  0  0  0 
 52127  1  0  0  0  0 
 52128  1  0  0  0  0 
 52129  1  0  0  0  0 
 53130  1  0  0  0  0 
 53131  1  0  0  0  0 
 55132  1  0  0  0  0 
 55133  1  0  0  0  0 
 55134  1  0  0  0  0 
 60135  1  0  0  0  0 
 60136  1  0  0  0  0 
 61137  1  0  0  0  0 
 61138  1  0  0  0  0 
 68139  1  0  0  0  0 
 69140  1  0  0  0  0 
 69141  1  0  0  0  0 
 69142  1  0  0  0  0 
 71143  1  0  0  0  0 
 71144  1  0  0  0  0 
 71145  1  0  0  0  0 
 72146  1  0  0  0  0 
 72147  1  0  0  0  0 
 72148  1  0  0  0  0 
 75149  1  0  0  0  0 
 75150  1  0  0  0  0 
 75151  1  0  0  0  0 
M  END
> <cdk:Title>
everolimus

> <Conformer>
1

> <SuperDrugID>
SD000999

$$$$
