dofetilide
  CDK     0628171802

 56 57  0  0  0  0  0  0  0  0999 V2000
   -0.3603   -9.2832   -2.6799 N   0  0  0  0  0  0  0  0  0  0  0  0
    0.6389  -10.6682   -2.8455 S   0  0  2  0  0  0  0  0  0  0  0  0
   -0.7361   -8.4396   -3.6804 C   0  0  0  0  0  0  0  0  0  0  0  0
    1.3788  -11.0337   -1.2161 C   0  0  0  0  0  0  0  0  0  0  0  0
    1.8207  -10.3823   -3.8924 O   0  0  0  0  0  0  0  0  0  0  0  0
   -0.2288  -11.9221   -3.3411 O   0  0  0  0  0  0  0  0  0  0  0  0
   -0.7492   -8.7951   -5.0482 C   0  0  0  0  0  0  0  0  0  0  0  0
   -1.1314   -7.1345   -3.3190 C   0  0  0  0  0  0  0  0  0  0  0  0
   -1.0978   -7.8493   -6.0311 C   0  0  0  0  0  0  0  0  0  0  0  0
   -1.4940   -6.1934   -4.3000 C   0  0  0  0  0  0  0  0  0  0  0  0
   -1.4632   -6.5305   -5.6724 C   0  0  0  0  0  0  0  0  0  0  0  0
   -1.7981   -5.5186   -6.7146 C   0  0  2  0  0  0  0  0  0  0  0  0
   -0.5741   -4.6669   -7.1550 C   0  0  1  0  0  0  0  0  0  0  0  0
    0.0828   -3.9083   -6.0333 N   0  0  2  0  0  0  0  0  0  0  0  0
   -0.6675   -2.6779   -5.5995 C   0  0  1  0  0  0  0  0  0  0  0  0
    1.5369   -3.6605   -6.2860 C   0  0  0  0  0  0  0  0  0  0  0  0
   -0.2017   -2.1160   -4.2334 C   0  0  1  0  0  0  0  0  0  0  0  0
   -1.1054   -1.1018   -3.7399 O   0  0  0  0  0  0  0  0  0  0  0  0
   -0.6716   -0.5641   -2.5524 C   0  0  0  0  0  0  0  0  0  0  0  0
   -1.0255   -1.1602   -1.3248 C   0  0  0  0  0  0  0  0  0  0  0  0
    0.1519    0.5804   -2.5501 C   0  0  0  0  0  0  0  0  0  0  0  0
   -0.5040   -0.6626   -0.1159 C   0  0  0  0  0  0  0  0  0  0  0  0
    0.6745    1.0759   -1.3413 C   0  0  0  0  0  0  0  0  0  0  0  0
    0.3795    0.4424   -0.1152 C   0  0  0  0  0  0  0  0  0  0  0  0
    0.9777    0.9416    1.0010 N   0  0  0  0  0  0  0  0  0  0  0  0
    1.2976    0.0657    2.4409 S   0  0  2  0  0  0  0  0  0  0  0  0
    2.7215    0.8330    3.2911 C   0  0  0  0  0  0  0  0  0  0  0  0
    1.6690   -1.4557    2.0922 O   0  0  0  0  0  0  0  0  0  0  0  0
    0.0106    0.1009    3.3964 O   0  0  0  0  0  0  0  0  0  0  0  0
   -0.6398   -9.0561   -1.7803 H   0  0  0  0  0  0  0  0  0  0  0  0
    0.5933  -11.2866   -0.5053 H   0  0  0  0  0  0  0  0  0  0  0  0
    2.0719  -11.8699   -1.3086 H   0  0  0  0  0  0  0  0  0  0  0  0
    1.9166  -10.1546   -0.8634 H   0  0  0  0  0  0  0  0  0  0  0  0
   -0.5091   -9.7427   -5.3449 H   0  0  0  0  0  0  0  0  0  0  0  0
   -1.1455   -6.8537   -2.3355 H   0  0  0  0  0  0  0  0  0  0  0  0
   -1.0832   -8.1316   -7.0157 H   0  0  0  0  0  0  0  0  0  0  0  0
   -1.7799   -5.2571   -4.0035 H   0  0  0  0  0  0  0  0  0  0  0  0
   -2.5990   -4.8676   -6.3600 H   0  0  0  0  0  0  0  0  0  0  0  0
   -2.1987   -6.0232   -7.6000 H   0  0  0  0  0  0  0  0  0  0  0  0
    0.1322   -5.3643   -7.6186 H   0  0  0  0  0  0  0  0  0  0  0  0
   -0.8860   -3.9729   -7.9416 H   0  0  0  0  0  0  0  0  0  0  0  0
   -0.5751   -1.8971   -6.3604 H   0  0  0  0  0  0  0  0  0  0  0  0
   -1.7304   -2.9041   -5.4989 H   0  0  0  0  0  0  0  0  0  0  0  0
    2.0329   -3.2899   -5.3906 H   0  0  0  0  0  0  0  0  0  0  0  0
    2.0503   -4.5866   -6.5496 H   0  0  0  0  0  0  0  0  0  0  0  0
    1.6780   -2.9370   -7.0930 H   0  0  0  0  0  0  0  0  0  0  0  0
   -0.1430   -2.9483   -3.5249 H   0  0  0  0  0  0  0  0  0  0  0  0
    0.7915   -1.6789   -4.3560 H   0  0  0  0  0  0  0  0  0  0  0  0
   -1.6537   -1.9672   -1.3131 H   0  0  0  0  0  0  0  0  0  0  0  0
    0.3884    1.0462   -3.4296 H   0  0  0  0  0  0  0  0  0  0  0  0
   -0.7779   -1.1143    0.7576 H   0  0  0  0  0  0  0  0  0  0  0  0
    1.2888    1.8954   -1.3632 H   0  0  0  0  0  0  0  0  0  0  0  0
    1.3057    1.8544    0.9620 H   0  0  0  0  0  0  0  0  0  0  0  0
    3.5855    0.8262    2.6268 H   0  0  0  0  0  0  0  0  0  0  0  0
    2.9536    0.2648    4.1921 H   0  0  0  0  0  0  0  0  0  0  0  0
    2.4790    1.8605    3.5597 H   0  0  0  0  0  0  0  0  0  0  0  0
  1  2  1  0  0  0  0 
  1  3  1  0  0  0  0 
  2  4  1  0  0  0  0 
  2  5  2  0  0  0  0 
  2  6  2  0  0  0  0 
  3  7  2  0  0  0  0 
  3  8  1  0  0  0  0 
  7  9  1  0  0  0  0 
  8 10  2  0  0  0  0 
  9 11  2  0  0  0  0 
 10 11  1  0  0  0  0 
 11 12  1  0  0  0  0 
 12 13  1  0  0  0  0 
 13 14  1  0  0  0  0 
 14 15  1  0  0  0  0 
 14 16  1  0  0  0  0 
 15 17  1  0  0  0  0 
 17 18  1  0  0  0  0 
 18 19  1  0  0  0  0 
 19 20  2  0  0  0  0 
 19 21  1  0  0  0  0 
 20 22  1  0  0  0  0 
 21 23  2  0  0  0  0 
 22 24  2  0  0  0  0 
 23 24  1  0  0  0  0 
 24 25  1  0  0  0  0 
 25 26  1  0  0  0  0 
 26 27  1  0  0  0  0 
 26 28  2  0  0  0  0 
 26 29  2  0  0  0  0 
  1 30  1  0  0  0  0 
  4 31  1  0  0  0  0 
  4 32  1  0  0  0  0 
  4 33  1  0  0  0  0 
  7 34  1  0  0  0  0 
  8 35  1  0  0  0  0 
  9 36  1  0  0  0  0 
 10 37  1  0  0  0  0 
 12 38  1  0  0  0  0 
 12 39  1  0  0  0  0 
 13 40  1  0  0  0  0 
 13 41  1  0  0  0  0 
 15 42  1  0  0  0  0 
 15 43  1  0  0  0  0 
 16 44  1  0  0  0  0 
 16 45  1  0  0  0  0 
 16 46  1  0  0  0  0 
 17 47  1  0  0  0  0 
 17 48  1  0  0  0  0 
 20 49  1  0  0  0  0 
 21 50  1  0  0  0  0 
 22 51  1  0  0  0  0 
 23 52  1  0  0  0  0 
 25 53  1  0  0  0  0 
 27 54  1  0  0  0  0 
 27 55  1  0  0  0  0 
 27 56  1  0  0  0  0 
M  END
> <cdk:Title>
dofetilide

> <Conformer>
1

> <SuperDrugID>
SD000837

$$$$
