levobunolol
  CDK     0628171801

 46 47  0  0  0  0  0  0  0  0999 V2000
    2.4473    4.5779   -1.4234 O   0  0  0  0  0  0  0  0  0  0  0  0
    2.4369    3.1479   -1.6155 C   0  0  2  0  0  0  0  0  0  0  0  0
    3.1557    5.2753   -2.3649 C   0  0  0  0  0  0  0  0  0  0  0  0
    1.6944    2.4699   -0.4348 C   0  0  2  0  0  0  0  0  0  0  0  0
    4.5348    5.5608   -2.1857 C   0  0  0  0  0  0  0  0  0  0  0  0
    2.4713    5.7574   -3.4968 C   0  0  0  0  0  0  0  0  0  0  0  0
    0.1870    2.8318   -0.3415 C   0  0  2  0  0  0  0  0  0  0  0  0
    2.3493    2.7977    0.7897 O   0  0  0  0  0  0  0  0  0  0  0  0
    5.2396    6.2743   -3.1994 C   0  0  0  0  0  0  0  0  0  0  0  0
    5.2320    5.1043   -0.9439 C   0  0  1  0  0  0  0  0  0  0  0  0
    3.1550    6.4885   -4.4783 C   0  0  0  0  0  0  0  0  0  0  0  0
   -0.0076    4.2845   -0.1120 N   0  0  1  0  0  0  0  0  0  0  0  0
    4.5302    6.7325   -4.3378 C   0  0  0  0  0  0  0  0  0  0  0  0
    6.6403    6.5154   -3.0655 C   0  0  0  0  0  0  0  0  0  0  0  0
    6.5157    5.9115   -0.6346 C   0  0  1  0  0  0  0  0  0  0  0  0
   -1.3794    4.8749   -0.1119 C   0  0  2  0  0  0  0  0  0  0  0  0
    7.2837    7.1062   -3.9642 O   0  0  0  0  0  0  0  0  0  0  0  0
    7.4084    6.0385   -1.8904 C   0  0  2  0  0  0  0  0  0  0  0  0
   -2.2600    4.2708    1.0245 C   0  0  0  0  0  0  0  0  0  0  0  0
   -2.0902    4.7144   -1.4930 C   0  0  0  0  0  0  0  0  0  0  0  0
   -1.1548    6.3937    0.1625 C   0  0  0  0  0  0  0  0  0  0  0  0
    3.4579    2.7533   -1.6493 H   0  0  0  0  0  0  0  0  0  0  0  0
    1.9413    2.8859   -2.5547 H   0  0  0  0  0  0  0  0  0  0  0  0
    1.7747    1.3861   -0.5597 H   0  0  0  0  0  0  0  0  0  0  0  0
    1.4696    5.5848   -3.6055 H   0  0  0  0  0  0  0  0  0  0  0  0
   -0.2524    2.2718    0.4875 H   0  0  0  0  0  0  0  0  0  0  0  0
   -0.3027    2.5207   -1.2661 H   0  0  0  0  0  0  0  0  0  0  0  0
    3.2716    2.4806    0.6820 H   0  0  0  0  0  0  0  0  0  0  0  0
    4.5708    5.2042   -0.0784 H   0  0  0  0  0  0  0  0  0  0  0  0
    5.4892    4.0481   -1.0515 H   0  0  0  0  0  0  0  0  0  0  0  0
    2.6507    6.8427   -5.2945 H   0  0  0  0  0  0  0  0  0  0  0  0
    0.4147    4.5015    0.7940 H   0  0  0  0  0  0  0  0  0  0  0  0
    5.0055    7.2490   -5.0813 H   0  0  0  0  0  0  0  0  0  0  0  0
    6.2321    6.9112   -0.2935 H   0  0  0  0  0  0  0  0  0  0  0  0
    7.0741    5.4291    0.1725 H   0  0  0  0  0  0  0  0  0  0  0  0
    8.2262    6.7296   -1.6657 H   0  0  0  0  0  0  0  0  0  0  0  0
    7.8438    5.0658   -2.1323 H   0  0  0  0  0  0  0  0  0  0  0  0
   -3.2052    4.8121    1.1103 H   0  0  0  0  0  0  0  0  0  0  0  0
   -2.4895    3.2227    0.8224 H   0  0  0  0  0  0  0  0  0  0  0  0
   -1.7413    4.3291    1.9837 H   0  0  0  0  0  0  0  0  0  0  0  0
   -1.4562    5.0849   -2.3011 H   0  0  0  0  0  0  0  0  0  0  0  0
   -3.0287    5.2732   -1.5108 H   0  0  0  0  0  0  0  0  0  0  0  0
   -2.3255    3.6690   -1.6969 H   0  0  0  0  0  0  0  0  0  0  0  0
   -0.5421    6.8420   -0.6247 H   0  0  0  0  0  0  0  0  0  0  0  0
   -0.6412    6.5419    1.1161 H   0  0  0  0  0  0  0  0  0  0  0  0
   -2.1061    6.9306    0.2016 H   0  0  0  0  0  0  0  0  0  0  0  0
  1  2  1  0  0  0  0 
  1  3  1  0  0  0  0 
  4  2  1  0  0  0  0 
  3  5  2  0  0  0  0 
  3  6  1  0  0  0  0 
  4  7  1  0  0  0  0 
  4  8  1  0  0  0  0 
  5  9  1  0  0  0  0 
  5 10  1  0  0  0  0 
  6 11  2  0  0  0  0 
  7 12  1  0  0  0  0 
  9 13  2  0  0  0  0 
  9 14  1  0  0  0  0 
 10 15  1  0  0  0  0 
 11 13  1  0  0  0  0 
 12 16  1  0  0  0  0 
 14 17  2  0  0  0  0 
 14 18  1  0  0  0  0 
 15 18  1  0  0  0  0 
 16 19  1  0  0  0  0 
 16 20  1  0  0  0  0 
 16 21  1  0  0  0  0 
 22  2  1  0  0  0  0 
 23  2  1  0  0  0  0 
  4 24  1  0  0  0  0 
 25  6  1  0  0  0  0 
 26  7  1  0  0  0  0 
 27  7  1  0  0  0  0 
 28  8  1  0  0  0  0 
 29 10  1  0  0  0  0 
 30 10  1  0  0  0  0 
 31 11  1  0  0  0  0 
 32 12  1  0  0  0  0 
 33 13  1  0  0  0  0 
 34 15  1  0  0  0  0 
 35 15  1  0  0  0  0 
 36 18  1  0  0  0  0 
 37 18  1  0  0  0  0 
 38 19  1  0  0  0  0 
 39 19  1  0  0  0  0 
 40 19  1  0  0  0  0 
 41 20  1  0  0  0  0 
 42 20  1  0  0  0  0 
 43 20  1  0  0  0  0 
 44 21  1  0  0  0  0 
 45 21  1  0  0  0  0 
 46 21  1  0  0  0  0 
M  END
> <cdk:Title>
levobunolol

> <Conformer>
1

> <SuperDrugID>
SD000373

$$$$
