trimazosin
  CDK     0628171801

 60 62  0  0  0  0  0  0  0  0999 V2000
    9.8223    1.5714   -0.4807 O   0  0  0  0  0  0  0  0  0  0  0  0
   10.0298    1.4953   -1.9043 C   0  0  0  0  0  0  0  0  0  0  0  0
    9.6785    2.8641   -0.0484 C   0  0  0  0  0  0  0  0  0  0  0  0
    8.3984    3.4547    0.0312 C   0  0  0  0  0  0  0  0  0  0  0  0
   10.8234    3.6085    0.3184 C   0  0  0  0  0  0  0  0  0  0  0  0
    8.2638    4.8189    0.4075 C   0  0  0  0  0  0  0  0  0  0  0  0
    7.2860    2.7286   -0.2673 N   0  0  0  0  0  0  0  0  0  0  0  0
   12.0633    3.0269    0.2863 O   0  0  0  0  0  0  0  0  0  0  0  0
   10.6968    4.9668    0.6815 C   0  0  0  0  0  0  0  0  0  0  0  0
    9.4214    5.5618    0.7325 C   0  0  0  0  0  0  0  0  0  0  0  0
    6.9553    5.3558    0.4217 C   0  0  0  0  0  0  0  0  0  0  0  0
    6.0284    3.2483   -0.2408 C   0  0  0  0  0  0  0  0  0  0  0  0
   12.4174    2.3949    1.5282 C   0  0  0  0  0  0  0  0  0  0  0  0
   11.8056    5.7022    1.0123 O   0  0  0  0  0  0  0  0  0  0  0  0
    6.6852    6.6390    0.7381 N   0  0  0  0  0  0  0  0  0  0  0  0
    5.9029    4.5601    0.1010 N   0  0  0  0  0  0  0  0  0  0  0  0
    4.9209    2.4822   -0.5520 N   0  0  0  0  0  0  0  0  0  0  0  0
   12.3645    6.4130   -0.1074 C   0  0  0  0  0  0  0  0  0  0  0  0
    3.7254    3.0573   -1.1277 C   0  0  2  0  0  0  0  0  0  0  0  0
    4.8606    1.0594   -0.2957 C   0  0  1  0  0  0  0  0  0  0  0  0
    2.5200    2.7895   -0.1921 C   0  0  2  0  0  0  0  0  0  0  0  0
    3.6297    0.7154    0.5927 C   0  0  2  0  0  0  0  0  0  0  0  0
    2.4106    1.3853    0.1712 N   0  0  0  0  0  0  0  0  0  0  0  0
    1.1864    0.7351    0.1927 C   0  0  0  0  0  0  0  0  0  0  0  0
    1.0674   -0.5598    0.6327 O   0  0  0  0  0  0  0  0  0  0  0  0
    0.1357    1.3207   -0.1689 O   0  0  0  0  0  0  0  0  0  0  0  0
   -0.1543   -1.3040    0.7903 C   0  0  1  0  0  0  0  0  0  0  0  0
    0.0945   -2.7544    1.2995 C   0  0  1  0  0  0  0  0  0  0  0  0
    0.8767   -3.5935    0.2514 C   0  0  0  0  0  0  0  0  0  0  0  0
    0.8226   -2.7715    2.6728 C   0  0  0  0  0  0  0  0  0  0  0  0
   -1.1807   -3.3734    1.4974 O   0  0  0  0  0  0  0  0  0  0  0  0
   10.1426    0.4472   -2.1772 H   0  0  0  0  0  0  0  0  0  0  0  0
    9.1757    1.8988   -2.4536 H   0  0  0  0  0  0  0  0  0  0  0  0
   10.9374    2.0233   -2.2081 H   0  0  0  0  0  0  0  0  0  0  0  0
    9.3514    6.5445    1.0056 H   0  0  0  0  0  0  0  0  0  0  0  0
   13.4149    1.9670    1.4213 H   0  0  0  0  0  0  0  0  0  0  0  0
   12.4427    3.1163    2.3485 H   0  0  0  0  0  0  0  0  0  0  0  0
   11.7246    1.5861    1.7730 H   0  0  0  0  0  0  0  0  0  0  0  0
    7.4032    7.2470    0.9674 H   0  0  0  0  0  0  0  0  0  0  0  0
    5.7695    6.9583    0.7342 H   0  0  0  0  0  0  0  0  0  0  0  0
   13.2303    6.9723    0.2461 H   0  0  0  0  0  0  0  0  0  0  0  0
   12.6976    5.7277   -0.8910 H   0  0  0  0  0  0  0  0  0  0  0  0
   11.6484    7.1245   -0.5265 H   0  0  0  0  0  0  0  0  0  0  0  0
    3.5354    2.5917   -2.1014 H   0  0  0  0  0  0  0  0  0  0  0  0
    3.8074    4.1338   -1.3040 H   0  0  0  0  0  0  0  0  0  0  0  0
    4.7787    0.5270   -1.2490 H   0  0  0  0  0  0  0  0  0  0  0  0
    5.7582    0.6846    0.2057 H   0  0  0  0  0  0  0  0  0  0  0  0
    1.6265    3.1736   -0.6924 H   0  0  0  0  0  0  0  0  0  0  0  0
    2.6500    3.3719    0.7243 H   0  0  0  0  0  0  0  0  0  0  0  0
    3.8429    1.0274    1.6181 H   0  0  0  0  0  0  0  0  0  0  0  0
    3.5270   -0.3730    0.6024 H   0  0  0  0  0  0  0  0  0  0  0  0
   -0.7959   -0.7775    1.5017 H   0  0  0  0  0  0  0  0  0  0  0  0
   -0.6809   -1.3410   -0.1671 H   0  0  0  0  0  0  0  0  0  0  0  0
    1.8753   -3.1796    0.0945 H   0  0  0  0  0  0  0  0  0  0  0  0
    0.3481   -3.5993   -0.7040 H   0  0  0  0  0  0  0  0  0  0  0  0
    0.9777   -4.6273    0.5899 H   0  0  0  0  0  0  0  0  0  0  0  0
    1.8227   -2.3413    2.5887 H   0  0  0  0  0  0  0  0  0  0  0  0
    0.2596   -2.1997    3.4132 H   0  0  0  0  0  0  0  0  0  0  0  0
    0.9189   -3.7967    3.0387 H   0  0  0  0  0  0  0  0  0  0  0  0
   -1.6250   -3.3432    0.6230 H   0  0  0  0  0  0  0  0  0  0  0  0
  1  2  1  0  0  0  0 
  1  3  1  0  0  0  0 
  3  4  2  0  0  0  0 
  3  5  1  0  0  0  0 
  4  6  1  0  0  0  0 
  4  7  1  0  0  0  0 
  5  8  1  0  0  0  0 
  5  9  2  0  0  0  0 
  6 10  2  0  0  0  0 
  6 11  1  0  0  0  0 
  7 12  2  0  0  0  0 
  8 13  1  0  0  0  0 
  9 10  1  0  0  0  0 
  9 14  1  0  0  0  0 
 11 15  1  0  0  0  0 
 11 16  2  0  0  0  0 
 12 16  1  0  0  0  0 
 12 17  1  0  0  0  0 
 14 18  1  0  0  0  0 
 17 19  1  0  0  0  0 
 17 20  1  0  0  0  0 
 19 21  1  0  0  0  0 
 20 22  1  0  0  0  0 
 21 23  1  0  0  0  0 
 22 23  1  0  0  0  0 
 23 24  1  0  0  0  0 
 24 25  1  0  0  0  0 
 24 26  2  0  0  0  0 
 25 27  1  0  0  0  0 
 27 28  1  0  0  0  0 
 28 29  1  0  0  0  0 
 28 30  1  0  0  0  0 
 28 31  1  0  0  0  0 
  2 32  1  0  0  0  0 
  2 33  1  0  0  0  0 
  2 34  1  0  0  0  0 
 10 35  1  0  0  0  0 
 13 36  1  0  0  0  0 
 13 37  1  0  0  0  0 
 13 38  1  0  0  0  0 
 15 39  1  0  0  0  0 
 15 40  1  0  0  0  0 
 18 41  1  0  0  0  0 
 18 42  1  0  0  0  0 
 18 43  1  0  0  0  0 
 19 44  1  0  0  0  0 
 19 45  1  0  0  0  0 
 20 46  1  0  0  0  0 
 20 47  1  0  0  0  0 
 21 48  1  0  0  0  0 
 21 49  1  0  0  0  0 
 22 50  1  0  0  0  0 
 22 51  1  0  0  0  0 
 27 52  1  0  0  0  0 
 27 53  1  0  0  0  0 
 29 54  1  0  0  0  0 
 29 55  1  0  0  0  0 
 29 56  1  0  0  0  0 
 30 57  1  0  0  0  0 
 30 58  1  0  0  0  0 
 30 59  1  0  0  0  0 
 31 60  1  0  0  0  0 
M  END
> <cdk:Title>
trimazosin

> <Conformer>
1

> <SuperDrugID>
SD002477

$$$$
