inositol nicotinate
  CDK     0628171801

 90 96  0  0  0  0  0  0  0  0999 V2000
   -0.2475    0.5633    6.6493 O   0  0  0  0  0  0  0  0  0  0  0  0
   -0.9151    0.0346    7.7196 C   0  0  0  0  0  0  0  0  0  0  0  0
    1.1456    0.4545    6.2912 C   0  0  2  0  0  0  0  0  0  0  0  0
   -1.6430    0.8448    8.3385 O   0  0  0  0  0  0  0  0  0  0  0  0
   -0.8985   -1.3331    8.0957 C   0  0  0  0  0  0  0  0  0  0  0  0
    2.0688    0.9130    7.4638 C   0  0  1  0  0  0  0  0  0  0  0  0
    1.3288    1.3440    5.0252 C   0  0  2  0  0  0  0  0  0  0  0  0
   -0.6445   -2.3533    7.1489 C   0  0  0  0  0  0  0  0  0  0  0  0
   -1.1689   -1.7289    9.4289 C   0  0  0  0  0  0  0  0  0  0  0  0
    1.9080   -0.0067    8.5630 O   0  0  0  0  0  0  0  0  0  0  0  0
    3.5708    1.0009    7.0482 C   0  0  1  0  0  0  0  0  0  0  0  0
    0.5668    0.7781    3.9370 O   0  0  0  0  0  0  0  0  0  0  0  0
    2.8202    1.4501    4.5995 C   0  0  2  0  0  0  0  0  0  0  0  0
   -0.6793   -3.7068    7.5290 C   0  0  0  0  0  0  0  0  0  0  0  0
   -1.2057   -3.0434    9.7620 N   0  0  0  0  0  0  0  0  0  0  0  0
    2.4871    0.0030    9.8027 C   0  0  0  0  0  0  0  0  0  0  0  0
    4.1812   -0.3156    7.1072 O   0  0  0  0  0  0  0  0  0  0  0  0
    3.7451    1.8797    5.7745 C   0  0  2  0  0  0  0  0  0  0  0  0
    0.0013    1.4253    2.8665 C   0  0  0  0  0  0  0  0  0  0  0  0
    2.9599    2.4386    3.5629 O   0  0  0  0  0  0  0  0  0  0  0  0
   -0.9801   -4.0332    8.8625 C   0  0  0  0  0  0  0  0  0  0  0  0
    2.6081   -1.1092   10.3637 O   0  0  0  0  0  0  0  0  0  0  0  0
    2.9074    1.1654   10.4875 C   0  0  0  0  0  0  0  0  0  0  0  0
    4.8420   -1.1313    6.2263 C   0  0  0  0  0  0  0  0  0  0  0  0
    5.1273    1.8524    5.3792 O   0  0  0  0  0  0  0  0  0  0  0  0
    0.0601    2.6771    2.8134 O   0  0  0  0  0  0  0  0  0  0  0  0
   -0.6412    0.6942    1.8288 C   0  0  0  0  0  0  0  0  0  0  0  0
    3.4275    2.2770    2.2869 C   0  0  0  0  0  0  0  0  0  0  0  0
    2.0830    2.3113   10.5483 C   0  0  0  0  0  0  0  0  0  0  0  0
    4.1594    1.2185   11.1448 C   0  0  0  0  0  0  0  0  0  0  0  0
    4.9546   -0.8185    5.0207 O   0  0  0  0  0  0  0  0  0  0  0  0
    5.4239   -2.3495    6.6697 C   0  0  0  0  0  0  0  0  0  0  0  0
    6.0479    2.8609    5.3183 C   0  0  0  0  0  0  0  0  0  0  0  0
   -0.5748   -0.7198    1.7743 C   0  0  0  0  0  0  0  0  0  0  0  0
   -1.3617    1.3411    0.7923 C   0  0  0  0  0  0  0  0  0  0  0  0
    3.7591    1.1327    1.8933 O   0  0  0  0  0  0  0  0  0  0  0  0
    3.5394    3.3985    1.4213 C   0  0  0  0  0  0  0  0  0  0  0  0
    2.5079    3.4629   11.2343 C   0  0  0  0  0  0  0  0  0  0  0  0
    4.5463    2.3493   11.7905 N   0  0  0  0  0  0  0  0  0  0  0  0
    5.6310   -2.6263    8.0443 C   0  0  0  0  0  0  0  0  0  0  0  0
    5.8510   -3.3355    5.7437 C   0  0  0  0  0  0  0  0  0  0  0  0
    5.6920    4.0345    5.5800 O   0  0  0  0  0  0  0  0  0  0  0  0
    7.3886    2.5603    4.9526 C   0  0  0  0  0  0  0  0  0  0  0  0
   -1.2095   -1.4369    0.7424 C   0  0  0  0  0  0  0  0  0  0  0  0
   -1.9627    0.6239   -0.1928 N   0  0  0  0  0  0  0  0  0  0  0  0
    3.3043    4.7182    1.8831 C   0  0  0  0  0  0  0  0  0  0  0  0
    3.8952    3.2511    0.0569 C   0  0  0  0  0  0  0  0  0  0  0  0
    3.7698    3.4605   11.8521 C   0  0  0  0  0  0  0  0  0  0  0  0
    6.2719   -3.8148    8.4488 C   0  0  0  0  0  0  0  0  0  0  0  0
    6.4518   -4.4762    6.1629 N   0  0  0  0  0  0  0  0  0  0  0  0
    7.8617    1.2233    4.9282 C   0  0  0  0  0  0  0  0  0  0  0  0
    8.3075    3.5767    4.5918 C   0  0  0  0  0  0  0  0  0  0  0  0
   -1.9124   -0.7297   -0.2464 C   0  0  0  0  0  0  0  0  0  0  0  0
    3.4304    5.8205    1.0167 C   0  0  0  0  0  0  0  0  0  0  0  0
    4.0030    4.3313   -0.7580 N   0  0  0  0  0  0  0  0  0  0  0  0
    6.6775   -4.7398    7.4711 C   0  0  0  0  0  0  0  0  0  0  0  0
    9.1804    0.9317    4.5379 C   0  0  0  0  0  0  0  0  0  0  0  0
    9.5839    3.2677    4.2449 N   0  0  0  0  0  0  0  0  0  0  0  0
    3.7850    5.5962   -0.3239 C   0  0  0  0  0  0  0  0  0  0  0  0
   10.0424    1.9915    4.2117 C   0  0  0  0  0  0  0  0  0  0  0  0
    1.3914   -0.5779    6.0308 H   0  0  0  0  0  0  0  0  0  0  0  0
    1.7339    1.9065    7.7754 H   0  0  0  0  0  0  0  0  0  0  0  0
    0.9536    2.3474    5.2547 H   0  0  0  0  0  0  0  0  0  0  0  0
   -0.4510   -2.1261    6.1713 H   0  0  0  0  0  0  0  0  0  0  0  0
   -1.3406   -1.0394   10.1631 H   0  0  0  0  0  0  0  0  0  0  0  0
    4.0843    1.5518    7.8443 H   0  0  0  0  0  0  0  0  0  0  0  0
    3.1106    0.4680    4.2260 H   0  0  0  0  0  0  0  0  0  0  0  0
   -0.4965   -4.4424    6.8445 H   0  0  0  0  0  0  0  0  0  0  0  0
    3.4600    2.9034    6.0460 H   0  0  0  0  0  0  0  0  0  0  0  0
   -1.0326   -5.0095    9.1608 H   0  0  0  0  0  0  0  0  0  0  0  0
    1.1609    2.3125   10.1058 H   0  0  0  0  0  0  0  0  0  0  0  0
    4.7977    0.4197   11.1352 H   0  0  0  0  0  0  0  0  0  0  0  0
   -0.0565   -1.2461    2.4815 H   0  0  0  0  0  0  0  0  0  0  0  0
   -1.4479    2.3593    0.7618 H   0  0  0  0  0  0  0  0  0  0  0  0
    1.9041    4.2855   11.2901 H   0  0  0  0  0  0  0  0  0  0  0  0
    5.3310   -1.9617    8.7626 H   0  0  0  0  0  0  0  0  0  0  0  0
    5.7121   -3.2133    4.7380 H   0  0  0  0  0  0  0  0  0  0  0  0
   -1.1585   -2.4581    0.7096 H   0  0  0  0  0  0  0  0  0  0  0  0
    3.0431    4.8961    2.8565 H   0  0  0  0  0  0  0  0  0  0  0  0
    4.0758    2.3305   -0.3455 H   0  0  0  0  0  0  0  0  0  0  0  0
    4.1040    4.2856   12.3532 H   0  0  0  0  0  0  0  0  0  0  0  0
    6.4454   -4.0025    9.4397 H   0  0  0  0  0  0  0  0  0  0  0  0
    7.2587    0.4454    5.2038 H   0  0  0  0  0  0  0  0  0  0  0  0
    8.0246    4.5584    4.5764 H   0  0  0  0  0  0  0  0  0  0  0  0
   -2.3853   -1.2262   -1.0029 H   0  0  0  0  0  0  0  0  0  0  0  0
    3.2684    6.7716    1.3564 H   0  0  0  0  0  0  0  0  0  0  0  0
    7.1415   -5.6093    7.7346 H   0  0  0  0  0  0  0  0  0  0  0  0
    9.5055   -0.0353    4.4922 H   0  0  0  0  0  0  0  0  0  0  0  0
    3.8813    6.3764   -0.9743 H   0  0  0  0  0  0  0  0  0  0  0  0
   11.0098    1.8051    3.9430 H   0  0  0  0  0  0  0  0  0  0  0  0
  1  2  1  0  0  0  0 
  2  4  2  0  0  0  0 
  2  5  1  0  0  0  0 
  3  1  1  0  0  0  0 
  3  6  1  0  0  0  0 
  7  3  1  0  0  0  0 
  5  8  2  0  0  0  0 
  5  9  1  0  0  0  0 
  6 10  1  0  0  0  0 
 11  6  1  0  0  0  0 
  7 12  1  0  0  0  0 
 13  7  1  0  0  0  0 
  8 14  1  0  0  0  0 
  9 15  2  0  0  0  0 
 10 16  1  0  0  0  0 
 11 17  1  0  0  0  0 
 18 11  1  0  0  0  0 
 12 19  1  0  0  0  0 
 13 18  1  0  0  0  0 
 13 20  1  0  0  0  0 
 14 21  2  0  0  0  0 
 15 21  1  0  0  0  0 
 16 22  2  0  0  0  0 
 16 23  1  0  0  0  0 
 17 24  1  0  0  0  0 
 18 25  1  0  0  0  0 
 19 26  2  0  0  0  0 
 19 27  1  0  0  0  0 
 20 28  1  0  0  0  0 
 23 29  2  0  0  0  0 
 23 30  1  0  0  0  0 
 24 31  2  0  0  0  0 
 24 32  1  0  0  0  0 
 25 33  1  0  0  0  0 
 27 34  2  0  0  0  0 
 27 35  1  0  0  0  0 
 28 36  2  0  0  0  0 
 28 37  1  0  0  0  0 
 29 38  1  0  0  0  0 
 30 39  2  0  0  0  0 
 32 40  2  0  0  0  0 
 32 41  1  0  0  0  0 
 33 42  2  0  0  0  0 
 33 43  1  0  0  0  0 
 34 44  1  0  0  0  0 
 35 45  2  0  0  0  0 
 37 46  2  0  0  0  0 
 37 47  1  0  0  0  0 
 38 48  2  0  0  0  0 
 39 48  1  0  0  0  0 
 40 49  1  0  0  0  0 
 41 50  2  0  0  0  0 
 43 51  2  0  0  0  0 
 43 52  1  0  0  0  0 
 44 53  2  0  0  0  0 
 45 53  1  0  0  0  0 
 46 54  1  0  0  0  0 
 47 55  2  0  0  0  0 
 49 56  2  0  0  0  0 
 50 56  1  0  0  0  0 
 51 57  1  0  0  0  0 
 52 58  2  0  0  0  0 
 54 59  2  0  0  0  0 
 55 59  1  0  0  0  0 
 57 60  2  0  0  0  0 
 58 60  1  0  0  0  0 
  3 61  1  0  0  0  0 
  6 62  1  0  0  0  0 
  7 63  1  0  0  0  0 
  8 64  1  0  0  0  0 
  9 65  1  0  0  0  0 
 11 66  1  0  0  0  0 
 13 67  1  0  0  0  0 
 14 68  1  0  0  0  0 
 18 69  1  0  0  0  0 
 21 70  1  0  0  0  0 
 29 71  1  0  0  0  0 
 30 72  1  0  0  0  0 
 34 73  1  0  0  0  0 
 35 74  1  0  0  0  0 
 38 75  1  0  0  0  0 
 40 76  1  0  0  0  0 
 41 77  1  0  0  0  0 
 44 78  1  0  0  0  0 
 46 79  1  0  0  0  0 
 47 80  1  0  0  0  0 
 48 81  1  0  0  0  0 
 49 82  1  0  0  0  0 
 51 83  1  0  0  0  0 
 52 84  1  0  0  0  0 
 53 85  1  0  0  0  0 
 54 86  1  0  0  0  0 
 56 87  1  0  0  0  0 
 57 88  1  0  0  0  0 
 59 89  1  0  0  0  0 
 60 90  1  0  0  0  0 
M  END
> <cdk:Title>
inositol nicotinate

> <Conformer>
1

> <SuperDrugID>
SD001281

$$$$
