cycrimine
  CDK     0628171802

 50 52  0  0  0  0  0  0  0  0999 V2000
   -2.9427    0.7061    0.2130 C   0  0  2  0  0  0  0  0  0  0  0  0
   -2.8421    1.6997    1.4261 C   0  0  2  0  0  0  0  0  0  0  0  0
   -2.5864   -0.5957    0.7044 O   0  0  0  0  0  0  0  0  0  0  0  0
   -1.8958    1.0742   -0.9171 C   0  0  2  0  0  0  0  0  0  0  0  0
   -4.3492    0.6844   -0.3507 C   0  0  0  0  0  0  0  0  0  0  0  0
   -3.8005    1.4461    2.6337 C   0  0  2  0  0  0  0  0  0  0  0  0
   -1.9366    0.1786   -2.1819 C   0  0  2  0  0  0  0  0  0  0  0  0
   -0.3885    1.0361   -0.5457 C   0  0  2  0  0  0  0  0  0  0  0  0
   -4.8582    1.7931   -1.0787 C   0  0  0  0  0  0  0  0  0  0  0  0
   -5.2151   -0.4317   -0.1920 C   0  0  0  0  0  0  0  0  0  0  0  0
   -5.2689    1.6148    2.3648 N   0  0  2  0  0  0  0  0  0  0  0  0
   -0.6637    0.5513   -2.9620 C   0  0  2  0  0  0  0  0  0  0  0  0
    0.3792    0.9213   -1.8849 C   0  0  2  0  0  0  0  0  0  0  0  0
   -6.1211    1.7556   -1.6965 C   0  0  0  0  0  0  0  0  0  0  0  0
   -6.4934   -0.4618   -0.7810 C   0  0  0  0  0  0  0  0  0  0  0  0
   -5.6910    3.0316    2.1076 C   0  0  2  0  0  0  0  0  0  0  0  0
   -6.1354    0.9776    3.4107 C   0  0  1  0  0  0  0  0  0  0  0  0
   -6.9371    0.6224   -1.5552 C   0  0  0  0  0  0  0  0  0  0  0  0
   -7.1690    3.1094    1.6470 C   0  0  2  0  0  0  0  0  0  0  0  0
   -7.6335    0.9960    3.0070 C   0  0  1  0  0  0  0  0  0  0  0  0
   -8.1109    2.4293    2.6674 C   0  0  1  0  0  0  0  0  0  0  0  0
   -2.9618    2.7257    1.0753 H   0  0  0  0  0  0  0  0  0  0  0  0
   -1.8257    1.6411    1.8279 H   0  0  0  0  0  0  0  0  0  0  0  0
   -1.7204   -0.4962    1.1500 H   0  0  0  0  0  0  0  0  0  0  0  0
   -2.0949    2.1015   -1.2422 H   0  0  0  0  0  0  0  0  0  0  0  0
   -3.5164    2.1207    3.4454 H   0  0  0  0  0  0  0  0  0  0  0  0
   -3.5994    0.4315    2.9918 H   0  0  0  0  0  0  0  0  0  0  0  0
   -2.8276    0.3612   -2.7884 H   0  0  0  0  0  0  0  0  0  0  0  0
   -1.9018   -0.8802   -1.9074 H   0  0  0  0  0  0  0  0  0  0  0  0
   -0.1578    0.1669    0.0742 H   0  0  0  0  0  0  0  0  0  0  0  0
   -0.0898    1.9372   -0.0020 H   0  0  0  0  0  0  0  0  0  0  0  0
   -4.3101    2.6486   -1.1755 H   0  0  0  0  0  0  0  0  0  0  0  0
   -4.9273   -1.2422    0.3598 H   0  0  0  0  0  0  0  0  0  0  0  0
   -0.8630    1.4147   -3.6056 H   0  0  0  0  0  0  0  0  0  0  0  0
   -0.3263   -0.2790   -3.5878 H   0  0  0  0  0  0  0  0  0  0  0  0
    1.1510    0.1487   -1.8191 H   0  0  0  0  0  0  0  0  0  0  0  0
    0.8612    1.8714   -2.1349 H   0  0  0  0  0  0  0  0  0  0  0  0
   -6.4486    2.5560   -2.2413 H   0  0  0  0  0  0  0  0  0  0  0  0
   -7.0998   -1.2758   -0.6548 H   0  0  0  0  0  0  0  0  0  0  0  0
   -5.0903    3.4767    1.3148 H   0  0  0  0  0  0  0  0  0  0  0  0
   -5.5604    3.6384    3.0107 H   0  0  0  0  0  0  0  0  0  0  0  0
   -5.8478   -0.0664    3.5598 H   0  0  0  0  0  0  0  0  0  0  0  0
   -6.0108    1.4967    4.3664 H   0  0  0  0  0  0  0  0  0  0  0  0
   -7.8526    0.5903   -2.0105 H   0  0  0  0  0  0  0  0  0  0  0  0
   -7.2800    2.6170    0.6784 H   0  0  0  0  0  0  0  0  0  0  0  0
   -7.4604    4.1567    1.5274 H   0  0  0  0  0  0  0  0  0  0  0  0
   -7.7787    0.3545    2.1330 H   0  0  0  0  0  0  0  0  0  0  0  0
   -8.2404    0.5947    3.8247 H   0  0  0  0  0  0  0  0  0  0  0  0
   -8.1394    3.0252    3.5814 H   0  0  0  0  0  0  0  0  0  0  0  0
   -9.1253    2.3908    2.2576 H   0  0  0  0  0  0  0  0  0  0  0  0
  1  2  1  0  0  0  0 
  1  3  1  0  0  0  0 
  1  4  1  0  0  0  0 
  1  5  1  0  0  0  0 
  2  6  1  0  0  0  0 
  4  7  1  0  0  0  0 
  4  8  1  0  0  0  0 
  5  9  2  0  0  0  0 
  5 10  1  0  0  0  0 
  6 11  1  0  0  0  0 
  7 12  1  0  0  0  0 
  8 13  1  0  0  0  0 
  9 14  1  0  0  0  0 
 10 15  2  0  0  0  0 
 11 16  1  0  0  0  0 
 11 17  1  0  0  0  0 
 12 13  1  0  0  0  0 
 14 18  2  0  0  0  0 
 15 18  1  0  0  0  0 
 16 19  1  0  0  0  0 
 17 20  1  0  0  0  0 
 19 21  1  0  0  0  0 
 20 21  1  0  0  0  0 
  2 22  1  0  0  0  0 
  2 23  1  0  0  0  0 
  3 24  1  0  0  0  0 
  4 25  1  0  0  0  0 
  6 26  1  0  0  0  0 
  6 27  1  0  0  0  0 
  7 28  1  0  0  0  0 
  7 29  1  0  0  0  0 
  8 30  1  0  0  0  0 
  8 31  1  0  0  0  0 
  9 32  1  0  0  0  0 
 10 33  1  0  0  0  0 
 12 34  1  0  0  0  0 
 12 35  1  0  0  0  0 
 13 36  1  0  0  0  0 
 13 37  1  0  0  0  0 
 14 38  1  0  0  0  0 
 15 39  1  0  0  0  0 
 16 40  1  0  0  0  0 
 16 41  1  0  0  0  0 
 17 42  1  0  0  0  0 
 17 43  1  0  0  0  0 
 18 44  1  0  0  0  0 
 19 45  1  0  0  0  0 
 19 46  1  0  0  0  0 
 20 47  1  0  0  0  0 
 20 48  1  0  0  0  0 
 21 49  1  0  0  0  0 
 21 50  1  0  0  0  0 
M  END
> <cdk:Title>
cycrimine

> <Conformer>
1

> <SuperDrugID>
SD000672

$$$$
