melarsoprol
  CDK     0628171801

 37 39  0  0  0  0  0  0  0  0999 V2000
    2.9656    0.5551   -6.3112 N   0  0  0  0  0  0  0  0  0  0  0  0
    2.0599    1.4944   -6.0085 C   0  0  0  0  0  0  0  0  0  0  0  0
    1.9851    2.6358   -6.7367 N   0  0  0  0  0  0  0  0  0  0  0  0
    1.0656    3.5813   -6.4246 C   0  0  0  0  0  0  0  0  0  0  0  0
    0.9818    4.7069   -7.1508 N   0  0  0  0  0  0  0  0  0  0  0  0
    0.2328    3.3862   -5.3728 N   0  0  0  0  0  0  0  0  0  0  0  0
    0.2966    2.2466   -4.6305 C   0  0  0  0  0  0  0  0  0  0  0  0
   -0.4610    1.9893   -3.5308 N   0  0  0  0  0  0  0  0  0  0  0  0
   -1.2296    2.8647   -2.8158 C   0  0  0  0  0  0  0  0  0  0  0  0
   -1.2979    2.6462   -1.4220 C   0  0  0  0  0  0  0  0  0  0  0  0
   -1.9694    3.5535   -0.5821 C   0  0  0  0  0  0  0  0  0  0  0  0
   -2.5891    4.6903   -1.1296 C   0  0  0  0  0  0  0  0  0  0  0  0
   -2.5941    4.8817   -2.5234 C   0  0  0  0  0  0  0  0  0  0  0  0
   -1.9290    3.9684   -3.3624 C   0  0  0  0  0  0  0  0  0  0  0  0
   -3.3690    5.9985    0.0142 As  0  0  0  0  0  0  0  0  0  0  0  0
   -2.2294    7.0221    1.6618 S   0  0  0  0  0  0  0  0  0  0  0  0
   -3.5565    6.8716    2.9203 C   0  0  1  0  0  0  0  0  0  0  0  0
   -5.0071    7.0222    2.3416 C   0  0  2  0  0  0  0  0  0  0  0  0
   -6.0836    6.9485    3.4532 C   0  0  1  0  0  0  0  0  0  0  0  0
   -7.3843    7.2064    2.9325 O   0  0  0  0  0  0  0  0  0  0  0  0
   -5.3569    5.7726    1.0372 S   0  0  0  0  0  0  0  0  0  0  0  0
    1.2128    1.3030   -4.9671 N   0  0  0  0  0  0  0  0  0  0  0  0
    3.5804    0.6880   -7.0494 H   0  0  0  0  0  0  0  0  0  0  0  0
    3.0131   -0.2579   -5.7839 H   0  0  0  0  0  0  0  0  0  0  0  0
    1.5770    4.8443   -7.9048 H   0  0  0  0  0  0  0  0  0  0  0  0
    0.3234    5.3843   -6.9250 H   0  0  0  0  0  0  0  0  0  0  0  0
   -0.3640    1.0995   -3.1548 H   0  0  0  0  0  0  0  0  0  0  0  0
   -0.8335    1.8361   -1.0042 H   0  0  0  0  0  0  0  0  0  0  0  0
   -1.9845    3.3927    0.4279 H   0  0  0  0  0  0  0  0  0  0  0  0
   -3.0747    5.6867   -2.9312 H   0  0  0  0  0  0  0  0  0  0  0  0
   -1.9630    4.1269   -4.3699 H   0  0  0  0  0  0  0  0  0  0  0  0
   -3.4589    5.8911    3.3922 H   0  0  0  0  0  0  0  0  0  0  0  0
   -3.3766    7.6328    3.6828 H   0  0  0  0  0  0  0  0  0  0  0  0
   -5.0747    8.0081    1.8729 H   0  0  0  0  0  0  0  0  0  0  0  0
   -6.0802    5.9602    3.9181 H   0  0  0  0  0  0  0  0  0  0  0  0
   -5.8763    7.6958    4.2224 H   0  0  0  0  0  0  0  0  0  0  0  0
   -7.9861    7.1248    3.7022 H   0  0  0  0  0  0  0  0  0  0  0  0
  1  2  1  0  0  0  0 
  2  3  2  0  0  0  0 
  3  4  1  0  0  0  0 
  4  5  1  0  0  0  0 
  4  6  2  0  0  0  0 
  6  7  1  0  0  0  0 
  7  8  1  0  0  0  0 
  8  9  1  0  0  0  0 
  9 10  2  0  0  0  0 
 10 11  1  0  0  0  0 
 11 12  2  0  0  0  0 
 12 13  1  0  0  0  0 
 13 14  2  0  0  0  0 
  9 14  1  0  0  0  0 
 12 15  1  0  0  0  0 
 15 16  1  0  0  0  0 
 16 17  1  0  0  0  0 
 17 18  1  0  0  0  0 
 18 19  1  0  0  0  0 
 19 20  1  0  0  0  0 
 18 21  1  0  0  0  0 
 15 21  1  0  0  0  0 
  7 22  2  0  0  0  0 
  2 22  1  0  0  0  0 
  1 23  1  0  0  0  0 
  1 24  1  0  0  0  0 
  5 25  1  0  0  0  0 
  5 26  1  0  0  0  0 
  8 27  1  0  0  0  0 
 10 28  1  0  0  0  0 
 11 29  1  0  0  0  0 
 13 30  1  0  0  0  0 
 14 31  1  0  0  0  0 
 17 32  1  0  0  0  0 
 17 33  1  0  0  0  0 
 18 34  1  0  0  0  0 
 19 35  1  0  0  0  0 
 19 36  1  0  0  0  0 
 20 37  1  0  0  0  0 
M  END
> <cdk:Title>
melarsoprol

> <Conformer>
1

> <SuperDrugID>
SD002879

$$$$
