pivmecillinam
  CDK     0628171801

 63 65  0  0  0  0  0  0  0  0999 V2000
    6.1216    3.2277   -1.3561 C   0  0  0  0  0  0  0  0  0  0  0  0
    7.3070    3.1950   -2.0407 O   0  0  0  0  0  0  0  0  0  0  0  0
    5.6733    4.3098   -0.9053 O   0  0  0  0  0  0  0  0  0  0  0  0
    5.4218    1.9392   -1.1049 C   0  0  2  0  0  0  0  0  0  0  0  0
    8.1991    4.2973   -2.2378 C   0  0  2  0  0  0  0  0  0  0  0  0
    3.9989    2.0366   -1.1633 N   0  0  0  0  0  0  0  0  0  0  0  0
    5.5940    1.3702    0.3556 C   0  0  2  0  0  0  0  0  0  0  0  0
    9.2421    3.8954   -3.1351 O   0  0  0  0  0  0  0  0  0  0  0  0
    3.1727    2.6169   -0.1784 C   0  0  2  0  0  0  0  0  0  0  0  0
    3.0379    1.3287   -1.7564 C   0  0  0  0  0  0  0  0  0  0  0  0
    4.1569    2.0787    1.2634 S   0  0  0  0  0  0  0  0  0  0  0  0
   10.4551    4.5126   -3.2928 C   0  0  0  0  0  0  0  0  0  0  0  0
    2.0231    1.7510   -0.7825 C   0  0  1  0  0  0  0  0  0  0  0  0
    3.0390    0.4764   -2.6720 O   0  0  0  0  0  0  0  0  0  0  0  0
   11.4319    4.0726   -4.3402 C   0  0  2  0  0  0  0  0  0  0  0  0
   10.7690    5.4479   -2.5151 O   0  0  0  0  0  0  0  0  0  0  0  0
    1.5806    0.7976    0.1283 N   0  0  0  0  0  0  0  0  0  0  0  0
   11.8653    5.3185   -5.1798 C   0  0  0  0  0  0  0  0  0  0  0  0
   10.8160    3.0101   -5.3100 C   0  0  0  0  0  0  0  0  0  0  0  0
   12.6728    3.4416   -3.6331 C   0  0  0  0  0  0  0  0  0  0  0  0
    0.9144   -0.2755   -0.0949 C   0  0  0  0  0  0  0  0  0  0  0  0
    0.5839   -1.1265    0.8998 N   0  0  0  0  0  0  0  0  0  0  0  0
    0.6687   -0.7687    2.3054 C   0  0  1  0  0  0  0  0  0  0  0  0
    0.2091   -2.4839    0.5720 C   0  0  2  0  0  0  0  0  0  0  0  0
    1.9790   -1.2626    2.9713 C   0  0  2  0  0  0  0  0  0  0  0  0
    1.4433   -3.4011    0.3615 C   0  0  2  0  0  0  0  0  0  0  0  0
    2.2882   -2.7768    2.7976 C   0  0  2  0  0  0  0  0  0  0  0  0
    2.6372   -3.2008    1.3425 C   0  0  2  0  0  0  0  0  0  0  0  0
    3.0652    3.7015   -0.2917 H   0  0  0  0  0  0  0  0  0  0  0  0
    6.9072    1.7648    1.0945 C   0  0  0  0  0  0  0  0  0  0  0  0
    5.4523   -0.1856    0.3545 C   0  0  0  0  0  0  0  0  0  0  0  0
    5.7755    1.2130   -1.8451 H   0  0  0  0  0  0  0  0  0  0  0  0
    8.6181    4.5899   -1.2689 H   0  0  0  0  0  0  0  0  0  0  0  0
    7.6649    5.1438   -2.6744 H   0  0  0  0  0  0  0  0  0  0  0  0
    1.2176    2.3413   -1.2277 H   0  0  0  0  0  0  0  0  0  0  0  0
   10.9911    5.8161   -5.6086 H   0  0  0  0  0  0  0  0  0  0  0  0
   12.3995    6.0411   -4.5575 H   0  0  0  0  0  0  0  0  0  0  0  0
   12.5284    5.0298   -5.9977 H   0  0  0  0  0  0  0  0  0  0  0  0
    9.9183    3.4013   -5.7944 H   0  0  0  0  0  0  0  0  0  0  0  0
   10.5476    2.0983   -4.7712 H   0  0  0  0  0  0  0  0  0  0  0  0
   11.5302    2.7393   -6.0914 H   0  0  0  0  0  0  0  0  0  0  0  0
   12.3757    2.5681   -3.0465 H   0  0  0  0  0  0  0  0  0  0  0  0
   13.1493    4.1586   -2.9597 H   0  0  0  0  0  0  0  0  0  0  0  0
   13.4160    3.1223   -4.3668 H   0  0  0  0  0  0  0  0  0  0  0  0
    0.6689   -0.4945   -1.0354 H   0  0  0  0  0  0  0  0  0  0  0  0
    0.6002    0.3138    2.4462 H   0  0  0  0  0  0  0  0  0  0  0  0
   -0.1849   -1.1822    2.8501 H   0  0  0  0  0  0  0  0  0  0  0  0
   -0.4166   -2.5091   -0.3264 H   0  0  0  0  0  0  0  0  0  0  0  0
   -0.4046   -2.9215    1.3660 H   0  0  0  0  0  0  0  0  0  0  0  0
    1.9067   -1.0483    4.0414 H   0  0  0  0  0  0  0  0  0  0  0  0
    2.8160   -0.6765    2.5834 H   0  0  0  0  0  0  0  0  0  0  0  0
    1.8148   -3.2522   -0.6580 H   0  0  0  0  0  0  0  0  0  0  0  0
    1.1013   -4.4382    0.4257 H   0  0  0  0  0  0  0  0  0  0  0  0
    1.4528   -3.3727    3.1702 H   0  0  0  0  0  0  0  0  0  0  0  0
    3.1536   -3.0004    3.4269 H   0  0  0  0  0  0  0  0  0  0  0  0
    3.3188   -2.4613    0.9181 H   0  0  0  0  0  0  0  0  0  0  0  0
    3.1899   -4.1434    1.3844 H   0  0  0  0  0  0  0  0  0  0  0  0
    6.9717    2.8473    1.2175 H   0  0  0  0  0  0  0  0  0  0  0  0
    7.7788    1.4241    0.5304 H   0  0  0  0  0  0  0  0  0  0  0  0
    6.9385    1.3162    2.0913 H   0  0  0  0  0  0  0  0  0  0  0  0
    4.5374   -0.4978   -0.1517 H   0  0  0  0  0  0  0  0  0  0  0  0
    6.2961   -0.6454   -0.1662 H   0  0  0  0  0  0  0  0  0  0  0  0
    5.4233   -0.5789    1.3729 H   0  0  0  0  0  0  0  0  0  0  0  0
  1  2  1  0  0  0  0 
  1  3  2  0  0  0  0 
  2  5  1  0  0  0  0 
  4  1  1  0  0  0  0 
  4  6  1  0  0  0  0 
  4  7  1  0  0  0  0 
  5  8  1  0  0  0  0 
  9  6  1  0  0  0  0 
  6 10  1  0  0  0  0 
  7 11  1  0  0  0  0 
  8 12  1  0  0  0  0 
  9 11  1  0  0  0  0 
 13  9  1  0  0  0  0 
  9 29  1  0  0  0  0 
 13 10  1  0  0  0  0 
 10 14  2  0  0  0  0 
 12 15  1  0  0  0  0 
 12 16  2  0  0  0  0 
 13 17  1  0  0  0  0 
 15 18  1  0  0  0  0 
 15 19  1  0  0  0  0 
 15 20  1  0  0  0  0 
 17 21  2  0  0  0  0 
 21 22  1  0  0  0  0 
 22 23  1  0  0  0  0 
 22 24  1  0  0  0  0 
 23 25  1  0  0  0  0 
 24 26  1  0  0  0  0 
 25 27  1  0  0  0  0 
 26 28  1  0  0  0  0 
 27 28  1  0  0  0  0 
  7 30  1  0  0  0  0 
  7 31  1  0  0  0  0 
  4 32  1  0  0  0  0 
  5 33  1  0  0  0  0 
  5 34  1  0  0  0  0 
 13 35  1  0  0  0  0 
 18 36  1  0  0  0  0 
 18 37  1  0  0  0  0 
 18 38  1  0  0  0  0 
 19 39  1  0  0  0  0 
 19 40  1  0  0  0  0 
 19 41  1  0  0  0  0 
 20 42  1  0  0  0  0 
 20 43  1  0  0  0  0 
 20 44  1  0  0  0  0 
 21 45  1  0  0  0  0 
 23 46  1  0  0  0  0 
 23 47  1  0  0  0  0 
 24 48  1  0  0  0  0 
 24 49  1  0  0  0  0 
 25 50  1  0  0  0  0 
 25 51  1  0  0  0  0 
 26 52  1  0  0  0  0 
 26 53  1  0  0  0  0 
 27 54  1  0  0  0  0 
 27 55  1  0  0  0  0 
 28 56  1  0  0  0  0 
 28 57  1  0  0  0  0 
 30 58  1  0  0  0  0 
 30 59  1  0  0  0  0 
 30 60  1  0  0  0  0 
 31 61  1  0  0  0  0 
 31 62  1  0  0  0  0 
 31 63  1  0  0  0  0 
M  END
> <cdk:Title>
pivmecillinam

> <Conformer>
1

> <SuperDrugID>
SD001992

$$$$
