sertaconazole
  CDK     0628171801

 42 45  0  0  0  0  0  0  0  0999 V2000
    0.1099   -0.0914    0.4961 C   0  0  2  0  0  0  0  0  0  0  0  0
   -0.4646   -1.2810   -0.0867 O   0  0  0  0  0  0  0  0  0  0  0  0
    1.5291   -0.3498    0.8463 C   0  0  0  0  0  0  0  0  0  0  0  0
   -1.8628   -1.2347   -0.4775 C   0  0  1  0  0  0  0  0  0  0  0  0
    1.9430   -1.2626    1.8515 C   0  0  0  0  0  0  0  0  0  0  0  0
    2.5926    0.3181    0.2146 C   0  0  0  0  0  0  0  0  0  0  0  0
   -2.1211   -0.3407   -1.7358 C   0  0  1  0  0  0  0  0  0  0  0  0
   -2.3781   -2.6201   -0.7561 C   0  0  0  0  0  0  0  0  0  0  0  0
    3.3334   -1.3415    2.0675 C   0  0  0  0  0  0  0  0  0  0  0  0
    1.0994   -2.0723    2.6441 C   0  0  0  0  0  0  0  0  0  0  0  0
    4.0928   -0.2377    0.9354 S   0  0  0  0  0  0  0  0  0  0  0  0
   -1.3401   -0.7583   -2.8690 N   0  0  0  0  0  0  0  0  0  0  0  0
   -3.7449   -2.9811   -0.5691 C   0  0  0  0  0  0  0  0  0  0  0  0
   -1.5085   -3.5913   -1.3186 C   0  0  0  0  0  0  0  0  0  0  0  0
    3.9083   -2.1778    3.0430 C   0  0  0  0  0  0  0  0  0  0  0  0
    1.6514   -2.9280    3.6182 C   0  0  0  0  0  0  0  0  0  0  0  0
   -0.0392   -0.4932   -3.0760 C   0  0  0  0  0  0  0  0  0  0  0  0
   -1.7434   -1.5191   -3.9094 C   0  0  0  0  0  0  0  0  0  0  0  0
   -4.8952   -1.9384    0.1217 Cl  0  0  0  0  0  0  0  0  0  0  0  0
   -4.2153   -4.2445   -0.9879 C   0  0  0  0  0  0  0  0  0  0  0  0
   -1.9840   -4.8466   -1.7353 C   0  0  0  0  0  0  0  0  0  0  0  0
    5.5841   -2.2307    3.2890 Cl  0  0  0  0  0  0  0  0  0  0  0  0
    3.0459   -2.9777    3.8224 C   0  0  0  0  0  0  0  0  0  0  0  0
    0.3454   -1.1355   -4.2423 C   0  0  0  0  0  0  0  0  0  0  0  0
   -0.7237   -1.7623   -4.7518 N   0  0  0  0  0  0  0  0  0  0  0  0
   -3.3431   -5.1712   -1.5868 C   0  0  0  0  0  0  0  0  0  0  0  0
   -3.9280   -6.6606   -2.1447 Cl  0  0  0  0  0  0  0  0  0  0  0  0
   -0.4277    0.1878    1.4058 H   0  0  0  0  0  0  0  0  0  0  0  0
    0.0403    0.7459   -0.2009 H   0  0  0  0  0  0  0  0  0  0  0  0
   -2.4162   -0.8189    0.3691 H   0  0  0  0  0  0  0  0  0  0  0  0
    2.5151    1.0141   -0.5290 H   0  0  0  0  0  0  0  0  0  0  0  0
   -3.1866   -0.3692   -1.9850 H   0  0  0  0  0  0  0  0  0  0  0  0
   -1.9013    0.7057   -1.5093 H   0  0  0  0  0  0  0  0  0  0  0  0
    0.0853   -2.0459    2.5208 H   0  0  0  0  0  0  0  0  0  0  0  0
   -0.5171   -3.3825   -1.4630 H   0  0  0  0  0  0  0  0  0  0  0  0
    1.0351   -3.5153    4.1816 H   0  0  0  0  0  0  0  0  0  0  0  0
    0.5692    0.0734   -2.4851 H   0  0  0  0  0  0  0  0  0  0  0  0
   -2.6876   -1.8868   -4.0435 H   0  0  0  0  0  0  0  0  0  0  0  0
   -5.2026   -4.4915   -0.8707 H   0  0  0  0  0  0  0  0  0  0  0  0
   -1.3398   -5.5146   -2.1657 H   0  0  0  0  0  0  0  0  0  0  0  0
    3.4276   -3.6001    4.5422 H   0  0  0  0  0  0  0  0  0  0  0  0
    1.2843   -1.1315   -4.6457 H   0  0  0  0  0  0  0  0  0  0  0  0
  1  2  1  0  0  0  0 
  1  3  1  0  0  0  0 
  4  2  1  0  0  0  0 
  3  5  1  0  0  0  0 
  3  6  2  0  0  0  0 
  4  7  1  0  0  0  0 
  4  8  1  0  0  0  0 
  5  9  1  0  0  0  0 
  5 10  2  0  0  0  0 
  6 11  1  0  0  0  0 
  7 12  1  0  0  0  0 
  8 13  2  0  0  0  0 
  8 14  1  0  0  0  0 
  9 11  1  0  0  0  0 
  9 15  2  0  0  0  0 
 10 16  1  0  0  0  0 
 12 17  1  0  0  0  0 
 12 18  1  0  0  0  0 
 13 19  1  0  0  0  0 
 13 20  1  0  0  0  0 
 14 21  2  0  0  0  0 
 15 22  1  0  0  0  0 
 15 23  1  0  0  0  0 
 16 23  2  0  0  0  0 
 17 24  2  0  0  0  0 
 18 25  2  0  0  0  0 
 20 26  2  0  0  0  0 
 21 26  1  0  0  0  0 
 24 25  1  0  0  0  0 
 26 27  1  0  0  0  0 
  1 28  1  0  0  0  0 
  1 29  1  0  0  0  0 
  4 30  1  0  0  0  0 
  6 31  1  0  0  0  0 
  7 32  1  0  0  0  0 
  7 33  1  0  0  0  0 
 10 34  1  0  0  0  0 
 14 35  1  0  0  0  0 
 16 36  1  0  0  0  0 
 17 37  1  0  0  0  0 
 18 38  1  0  0  0  0 
 20 39  1  0  0  0  0 
 21 40  1  0  0  0  0 
 23 41  1  0  0  0  0 
 24 42  1  0  0  0  0 
M  END
> <cdk:Title>
sertaconazole

> <Conformer>
1

> <SuperDrugID>
SD002188

$$$$
