cromoglicic acid
  CDK     0628171802

 50 53  0  0  0  0  0  0  0  0999 V2000
   -2.0748   -2.0719    1.2576 C   0  0  0  0  0  0  0  0  0  0  0  0
   -1.4469   -2.0459    2.5320 C   0  0  0  0  0  0  0  0  0  0  0  0
   -0.0870   -2.3724    2.6786 C   0  0  0  0  0  0  0  0  0  0  0  0
    0.6681   -2.7345    1.5522 C   0  0  0  0  0  0  0  0  0  0  0  0
    0.0706   -2.7544    0.2803 C   0  0  0  0  0  0  0  0  0  0  0  0
   -1.2873   -2.4026    0.1204 C   0  0  0  0  0  0  0  0  0  0  0  0
   -1.8020   -2.3680   -1.1527 O   0  0  0  0  0  0  0  0  0  0  0  0
   -4.1615   -1.3887    2.3720 C   0  0  0  0  0  0  0  0  0  0  0  0
   -3.4904   -1.3644    3.6107 C   0  0  0  0  0  0  0  0  0  0  0  0
   -2.1662   -1.6966    3.6352 O   0  0  0  0  0  0  0  0  0  0  0  0
   -3.4567   -1.7523    1.2084 C   0  0  0  0  0  0  0  0  0  0  0  0
   -4.1109   -1.7877    0.1402 O   0  0  0  0  0  0  0  0  0  0  0  0
   -4.1155   -1.0208    4.8248 C   0  0  0  0  0  0  0  0  0  0  0  0
   -5.4216   -0.6695    4.8904 O   0  0  0  0  0  0  0  0  0  0  0  0
   -3.4659   -1.0322    5.8950 O   0  0  0  0  0  0  0  0  0  0  0  0
   -1.6387   -1.0666   -1.7643 C   0  0  1  0  0  0  0  0  0  0  0  0
   -2.3770   -0.9886   -3.1249 C   0  0  2  0  0  0  0  0  0  0  0  0
   -2.2472    0.4080   -3.7842 C   0  0  2  0  0  0  0  0  0  0  0  0
   -3.7644   -1.2794   -2.9597 O   0  0  0  0  0  0  0  0  0  0  0  0
   -2.8216    1.4120   -2.9139 O   0  0  0  0  0  0  0  0  0  0  0  0
   -2.8164    2.6739   -3.4424 C   0  0  0  0  0  0  0  0  0  0  0  0
   -1.7257    3.5155   -3.1372 C   0  0  0  0  0  0  0  0  0  0  0  0
   -1.6560    4.8115   -3.6762 C   0  0  0  0  0  0  0  0  0  0  0  0
   -2.6648    5.2709   -4.5383 C   0  0  0  0  0  0  0  0  0  0  0  0
   -3.7665    4.4453   -4.8287 C   0  0  0  0  0  0  0  0  0  0  0  0
   -3.8787    3.1493   -4.2570 C   0  0  0  0  0  0  0  0  0  0  0  0
   -5.0584    2.4127   -4.5375 C   0  0  0  0  0  0  0  0  0  0  0  0
   -6.0439    2.9248   -5.4013 C   0  0  0  0  0  0  0  0  0  0  0  0
   -5.8656    4.1948   -5.9849 C   0  0  0  0  0  0  0  0  0  0  0  0
   -4.7416    4.9024   -5.6649 O   0  0  0  0  0  0  0  0  0  0  0  0
   -5.2876    1.2939   -4.0210 O   0  0  0  0  0  0  0  0  0  0  0  0
   -6.7929    4.7682   -6.8763 C   0  0  0  0  0  0  0  0  0  0  0  0
   -7.9219    4.1221   -7.2547 O   0  0  0  0  0  0  0  0  0  0  0  0
   -6.5887    5.9065   -7.3553 O   0  0  0  0  0  0  0  0  0  0  0  0
    0.3533   -2.3443    3.6008 H   0  0  0  0  0  0  0  0  0  0  0  0
    1.6544   -2.9765    1.6568 H   0  0  0  0  0  0  0  0  0  0  0  0
    0.6315   -3.0148   -0.5354 H   0  0  0  0  0  0  0  0  0  0  0  0
   -5.1559   -1.1467    2.3122 H   0  0  0  0  0  0  0  0  0  0  0  0
   -5.8201   -0.4361    5.7540 H   0  0  0  0  0  0  0  0  0  0  0  0
   -2.0325   -0.2770   -1.1144 H   0  0  0  0  0  0  0  0  0  0  0  0
   -0.5756   -0.8715   -1.9340 H   0  0  0  0  0  0  0  0  0  0  0  0
   -1.9543   -1.7389   -3.7987 H   0  0  0  0  0  0  0  0  0  0  0  0
   -2.7607    0.3781   -4.7513 H   0  0  0  0  0  0  0  0  0  0  0  0
   -1.1907    0.6185   -3.9721 H   0  0  0  0  0  0  0  0  0  0  0  0
   -3.8003   -2.1806   -2.5761 H   0  0  0  0  0  0  0  0  0  0  0  0
   -0.9772    3.1836   -2.5220 H   0  0  0  0  0  0  0  0  0  0  0  0
   -0.8688    5.4189   -3.4441 H   0  0  0  0  0  0  0  0  0  0  0  0
   -2.5993    6.2057   -4.9469 H   0  0  0  0  0  0  0  0  0  0  0  0
   -6.8850    2.3732   -5.5982 H   0  0  0  0  0  0  0  0  0  0  0  0
   -8.5396    4.5445   -7.8864 H   0  0  0  0  0  0  0  0  0  0  0  0
  1  6  2  0  0  0  0 
  2  3  2  0  0  0  0 
  3  4  1  0  0  0  0 
  4  5  2  0  0  0  0 
  5  6  1  0  0  0  0 
  6  7  1  0  0  0  0 
 10  2  1  0  0  0  0 
  1  2  1  0  0  0  0 
  1 11  1  0  0  0  0 
  8  9  2  0  0  0  0 
  8 11  1  0  0  0  0 
  9 10  1  0  0  0  0 
 11 12  2  0  0  0  0 
  9 13  1  0  0  0  0 
 13 14  1  0  0  0  0 
 13 15  2  0  0  0  0 
  7 16  1  0  0  0  0 
 16 17  1  0  0  0  0 
 17 18  1  0  0  0  0 
 17 19  1  0  0  0  0 
 18 20  1  0  0  0  0 
 20 21  1  0  0  0  0 
 21 22  1  0  0  0  0 
 21 26  2  0  0  0  0 
 22 23  2  0  0  0  0 
 23 24  1  0  0  0  0 
 24 25  2  0  0  0  0 
 25 30  1  0  0  0  0 
 25 26  1  0  0  0  0 
 26 27  1  0  0  0  0 
 27 28  1  0  0  0  0 
 28 29  2  0  0  0  0 
 29 30  1  0  0  0  0 
 27 31  2  0  0  0  0 
 29 32  1  0  0  0  0 
 32 33  1  0  0  0  0 
 32 34  2  0  0  0  0 
  3 35  1  0  0  0  0 
  4 36  1  0  0  0  0 
  5 37  1  0  0  0  0 
  8 38  1  0  0  0  0 
 14 39  1  0  0  0  0 
 16 40  1  0  0  0  0 
 16 41  1  0  0  0  0 
 17 42  1  0  0  0  0 
 18 43  1  0  0  0  0 
 18 44  1  0  0  0  0 
 19 45  1  0  0  0  0 
 22 46  1  0  0  0  0 
 23 47  1  0  0  0  0 
 24 48  1  0  0  0  0 
 28 49  1  0  0  0  0 
 33 50  1  0  0  0  0 
M  END
> <cdk:Title>
cromoglicic acid

> <Conformer>
1

> <SuperDrugID>
SD000652

$$$$
