rucaparib
  CDK     0628171802

 42 45  0  0  0  0  0  0  0  0999 V2000
    4.3634   -4.9440    7.4945 C   0  0  0  0  0  0  0  0  0  0  0  0
    4.7659   -6.2421    7.8639 C   0  0  0  0  0  0  0  0  0  0  0  0
    4.1462   -7.3749    7.2879 C   0  0  0  0  0  0  0  0  0  0  0  0
    3.1221   -7.2535    6.3060 C   0  0  0  0  0  0  0  0  0  0  0  0
    2.7719   -5.9326    5.9299 C   0  0  0  0  0  0  0  0  0  0  0  0
    3.3563   -4.8160    6.5287 C   0  0  0  0  0  0  0  0  0  0  0  0
    2.5044   -8.4190    5.7551 C   0  0  0  0  0  0  0  0  0  0  0  0
    1.3023   -8.4964    5.1199 N   0  0  0  0  0  0  0  0  0  0  0  0
    0.3765   -7.4407    4.8820 C   0  0  2  0  0  0  0  0  0  0  0  0
    1.0167   -6.2657    4.1087 C   0  0  2  0  0  0  0  0  0  0  0  0
    2.8090   -3.7027    6.0267 N   0  0  0  0  0  0  0  0  0  0  0  0
    1.8611   -5.4377    4.9941 C   0  0  0  0  0  0  0  0  0  0  0  0
    1.8995   -4.0388    5.0975 C   0  0  0  0  0  0  0  0  0  0  0  0
    3.0889   -9.5243    5.8340 O   0  0  0  0  0  0  0  0  0  0  0  0
    5.7153   -6.3963    8.7452 F   0  0  0  0  0  0  0  0  0  0  0  0
    1.1404   -3.0923    4.3821 C   0  0  0  0  0  0  0  0  0  0  0  0
    1.1563   -3.0648    2.9703 C   0  0  0  0  0  0  0  0  0  0  0  0
    0.3721   -2.1303    2.2699 C   0  0  0  0  0  0  0  0  0  0  0  0
   -0.4436   -1.2085    2.9663 C   0  0  0  0  0  0  0  0  0  0  0  0
   -0.4424   -1.2300    4.3801 C   0  0  0  0  0  0  0  0  0  0  0  0
    0.3489   -2.1558    5.0817 C   0  0  0  0  0  0  0  0  0  0  0  0
   -1.3031   -0.2510    2.2308 C   0  0  1  0  0  0  0  0  0  0  0  0
   -2.6119   -0.8924    1.9760 N   0  0  1  0  0  0  0  0  0  0  0  0
   -3.5570   -0.0612    1.2057 C   0  0  0  0  0  0  0  0  0  0  0  0
    4.7967   -4.1157    7.9085 H   0  0  0  0  0  0  0  0  0  0  0  0
    4.4489   -8.3014    7.6024 H   0  0  0  0  0  0  0  0  0  0  0  0
    1.0381   -9.3764    4.8048 H   0  0  0  0  0  0  0  0  0  0  0  0
   -0.0551   -7.1026    5.8283 H   0  0  0  0  0  0  0  0  0  0  0  0
   -0.4331   -7.8556    4.2789 H   0  0  0  0  0  0  0  0  0  0  0  0
    0.2227   -5.6675    3.6594 H   0  0  0  0  0  0  0  0  0  0  0  0
    1.6379   -6.6552    3.2984 H   0  0  0  0  0  0  0  0  0  0  0  0
    3.0405   -2.7970    6.2833 H   0  0  0  0  0  0  0  0  0  0  0  0
    1.7390   -3.7207    2.4413 H   0  0  0  0  0  0  0  0  0  0  0  0
    0.3980   -2.1284    1.2468 H   0  0  0  0  0  0  0  0  0  0  0  0
   -1.0230   -0.5746    4.9097 H   0  0  0  0  0  0  0  0  0  0  0  0
    0.3290   -2.1514    6.1062 H   0  0  0  0  0  0  0  0  0  0  0  0
   -1.4453    0.6605    2.8194 H   0  0  0  0  0  0  0  0  0  0  0  0
   -0.8272    0.0377    1.2889 H   0  0  0  0  0  0  0  0  0  0  0  0
   -2.4345   -1.7324    1.4206 H   0  0  0  0  0  0  0  0  0  0  0  0
   -4.4847   -0.6195    1.0778 H   0  0  0  0  0  0  0  0  0  0  0  0
   -3.7796    0.8655    1.7387 H   0  0  0  0  0  0  0  0  0  0  0  0
   -3.1517    0.1714    0.2187 H   0  0  0  0  0  0  0  0  0  0  0  0
  1  2  1  0  0  0  0 
  1  6  2  0  0  0  0 
  2  3  2  0  0  0  0 
  3  4  1  0  0  0  0 
  4  5  2  0  0  0  0 
  5  6  1  0  0  0  0 
  7  8  1  0  0  0  0 
  8  9  1  0  0  0  0 
  9 10  1  0  0  0  0 
  4  7  1  0  0  0  0 
 12 13  2  0  0  0  0 
 11 13  1  0  0  0  0 
 11  6  1  0  0  0  0 
  5 12  1  0  0  0  0 
 12 10  1  0  0  0  0 
  7 14  2  0  0  0  0 
  2 15  1  0  0  0  0 
 13 16  1  0  0  0  0 
 17 18  1  0  0  0  0 
 18 19  2  0  0  0  0 
 19 20  1  0  0  0  0 
 20 21  2  0  0  0  0 
 16 17  2  0  0  0  0 
 16 21  1  0  0  0  0 
 19 22  1  0  0  0  0 
 22 23  1  0  0  0  0 
 23 24  1  0  0  0  0 
  1 25  1  0  0  0  0 
  3 26  1  0  0  0  0 
  8 27  1  0  0  0  0 
  9 28  1  0  0  0  0 
  9 29  1  0  0  0  0 
 10 30  1  0  0  0  0 
 10 31  1  0  0  0  0 
 11 32  1  0  0  0  0 
 17 33  1  0  0  0  0 
 18 34  1  0  0  0  0 
 20 35  1  0  0  0  0 
 21 36  1  0  0  0  0 
 22 37  1  0  0  0  0 
 22 38  1  0  0  0  0 
 23 39  1  0  0  0  0 
 24 40  1  0  0  0  0 
 24 41  1  0  0  0  0 
 24 42  1  0  0  0  0 
M  END
> <cdk:Title>
rucaparib

> <Conformer>
1

> <SuperDrugID>
SD003937

$$$$
