altretamine
  CDK     0628171801

 33 33  0  0  0  0  0  0  0  0999 V2000
   -0.2246   -0.0706    0.2375 N   0  0  0  0  0  0  0  0  0  0  0  0
   -0.5383    1.1784   -0.4212 C   0  0  0  0  0  0  0  0  0  0  0  0
   -1.2145   -1.1225    0.3144 C   0  0  0  0  0  0  0  0  0  0  0  0
    1.0170   -0.2482    0.8221 C   0  0  0  0  0  0  0  0  0  0  0  0
    1.9706    0.7206    0.7787 N   0  0  0  0  0  0  0  0  0  0  0  0
    1.3463   -1.4053    1.4585 N   0  0  0  0  0  0  0  0  0  0  0  0
    3.2061    0.5754    1.3308 C   0  0  0  0  0  0  0  0  0  0  0  0
    2.5605   -1.6201    2.0324 C   0  0  0  0  0  0  0  0  0  0  0  0
    4.1562    1.5786    1.2550 N   0  0  0  0  0  0  0  0  0  0  0  0
    3.4657   -0.6070    1.9506 N   0  0  0  0  0  0  0  0  0  0  0  0
    2.8651   -2.8153    2.6597 N   0  0  0  0  0  0  0  0  0  0  0  0
    3.8368    2.8254    0.5950 C   0  0  0  0  0  0  0  0  0  0  0  0
    5.4547    1.3881    1.8634 C   0  0  0  0  0  0  0  0  0  0  0  0
    4.1652   -3.0001    3.2662 C   0  0  0  0  0  0  0  0  0  0  0  0
    1.8711   -3.8636    2.7334 C   0  0  0  0  0  0  0  0  0  0  0  0
   -1.5190    1.1789   -0.9015 H   0  0  0  0  0  0  0  0  0  0  0  0
    0.2012    1.3970   -1.1951 H   0  0  0  0  0  0  0  0  0  0  0  0
   -0.5261    1.9894    0.3092 H   0  0  0  0  0  0  0  0  0  0  0  0
   -2.1288   -0.8963   -0.2381 H   0  0  0  0  0  0  0  0  0  0  0  0
   -0.8128   -2.0538   -0.0919 H   0  0  0  0  0  0  0  0  0  0  0  0
   -1.4895   -1.2892    1.3574 H   0  0  0  0  0  0  0  0  0  0  0  0
    4.6828    3.5135    0.5390 H   0  0  0  0  0  0  0  0  0  0  0  0
    3.5023    2.6397   -0.4284 H   0  0  0  0  0  0  0  0  0  0  0  0
    3.0341    3.3296    1.1362 H   0  0  0  0  0  0  0  0  0  0  0  0
    6.1420    2.2173    1.6829 H   0  0  0  0  0  0  0  0  0  0  0  0
    5.9287    0.4841    1.4739 H   0  0  0  0  0  0  0  0  0  0  0  0
    5.3395    1.2816    2.9435 H   0  0  0  0  0  0  0  0  0  0  0  0
    4.3141   -4.0031    3.6715 H   0  0  0  0  0  0  0  0  0  0  0  0
    4.9558   -2.8268    2.5323 H   0  0  0  0  0  0  0  0  0  0  0  0
    4.2902   -2.2893    4.0851 H   0  0  0  0  0  0  0  0  0  0  0  0
    2.2451   -4.7819    3.1909 H   0  0  0  0  0  0  0  0  0  0  0  0
    1.5153   -4.1220    1.7332 H   0  0  0  0  0  0  0  0  0  0  0  0
    1.0214   -3.5199    3.3259 H   0  0  0  0  0  0  0  0  0  0  0  0
  1  2  1  0  0  0  0 
  1  3  1  0  0  0  0 
  1  4  1  0  0  0  0 
  4  5  2  0  0  0  0 
  4  6  1  0  0  0  0 
  5  7  1  0  0  0  0 
  6  8  2  0  0  0  0 
  7  9  1  0  0  0  0 
  7 10  2  0  0  0  0 
  8 10  1  0  0  0  0 
  8 11  1  0  0  0  0 
  9 12  1  0  0  0  0 
  9 13  1  0  0  0  0 
 11 14  1  0  0  0  0 
 11 15  1  0  0  0  0 
  2 16  1  0  0  0  0 
  2 17  1  0  0  0  0 
  2 18  1  0  0  0  0 
  3 19  1  0  0  0  0 
  3 20  1  0  0  0  0 
  3 21  1  0  0  0  0 
 12 22  1  0  0  0  0 
 12 23  1  0  0  0  0 
 12 24  1  0  0  0  0 
 13 25  1  0  0  0  0 
 13 26  1  0  0  0  0 
 13 27  1  0  0  0  0 
 14 28  1  0  0  0  0 
 14 29  1  0  0  0  0 
 14 30  1  0  0  0  0 
 15 31  1  0  0  0  0 
 15 32  1  0  0  0  0 
 15 33  1  0  0  0  0 
M  END
> <cdk:Title>
altretamine

> <Conformer>
1

> <SuperDrugID>
SD000110

$$$$
