ritonavir
  CDK     0628171801

 98101  0  0  0  0  0  0  0  0999 V2000
    5.8320    3.8090   -4.1698 C   0  0  1  0  0  0  0  0  0  0  0  0
    5.6346    3.2011   -5.5922 C   0  0  2  0  0  0  0  0  0  0  0  0
    5.7987    2.7711   -2.9998 C   0  0  2  0  0  0  0  0  0  0  0  0
    7.0031    4.6342   -4.1269 N   0  0  0  0  0  0  0  0  0  0  0  0
    5.4951    4.2533   -6.6380 C   0  0  0  0  0  0  0  0  0  0  0  0
    4.4056    2.2334   -2.5346 C   0  0  1  0  0  0  0  0  0  0  0  0
    8.3130    4.2517   -4.0801 C   0  0  0  0  0  0  0  0  0  0  0  0
    4.2724    4.9527   -6.7736 C   0  0  0  0  0  0  0  0  0  0  0  0
    6.5719    4.5935   -7.4918 C   0  0  0  0  0  0  0  0  0  0  0  0
    3.2840    3.2674   -2.1653 C   0  0  2  0  0  0  0  0  0  0  0  0
    3.8948    1.3420   -3.5286 O   0  0  0  0  0  0  0  0  0  0  0  0
    9.3766    5.2934   -4.0290 C   0  0  1  0  0  0  0  0  0  0  0  0
    8.6416    3.0416   -4.1040 O   0  0  0  0  0  0  0  0  0  0  0  0
    4.1275    5.9653   -7.7390 C   0  0  0  0  0  0  0  0  0  0  0  0
    6.4278    5.6106   -8.4546 C   0  0  0  0  0  0  0  0  0  0  0  0
    3.6845    4.3373   -1.0919 C   0  0  2  0  0  0  0  0  0  0  0  0
    2.1317    2.5245   -1.7259 N   0  0  0  0  0  0  0  0  0  0  0  0
    9.2249    6.0306   -5.2492 N   0  0  0  0  0  0  0  0  0  0  0  0
    9.3403    6.1499   -2.7046 C   0  0  2  0  0  0  0  0  0  0  0  0
    5.2058    6.2950   -8.5791 C   0  0  0  0  0  0  0  0  0  0  0  0
    3.9623    3.7898    0.2697 C   0  0  0  0  0  0  0  0  0  0  0  0
    0.8314    2.9161   -1.8167 C   0  0  0  0  0  0  0  0  0  0  0  0
    9.9079    7.0712   -5.8037 C   0  0  0  0  0  0  0  0  0  0  0  0
    9.5457    5.2827   -1.4281 C   0  0  0  0  0  0  0  0  0  0  0  0
    8.1003    7.0745   -2.5270 C   0  0  0  0  0  0  0  0  0  0  0  0
    2.9047    3.3588    1.1098 C   0  0  0  0  0  0  0  0  0  0  0  0
    5.2872    3.6864    0.7581 C   0  0  0  0  0  0  0  0  0  0  0  0
   -0.1103    2.1171   -1.2261 O   0  0  0  0  0  0  0  0  0  0  0  0
    0.5081    3.9889   -2.3800 O   0  0  0  0  0  0  0  0  0  0  0  0
   11.1001    7.7571   -5.3720 N   0  0  0  0  0  0  0  0  0  0  0  0
    9.3143    7.4428   -6.8451 O   0  0  0  0  0  0  0  0  0  0  0  0
    3.1646    2.7848    2.3684 C   0  0  0  0  0  0  0  0  0  0  0  0
    5.5491    3.1150    2.0183 C   0  0  0  0  0  0  0  0  0  0  0  0
   -1.5272    2.3501   -1.1623 C   0  0  2  0  0  0  0  0  0  0  0  0
   11.2140    9.1569   -5.9120 C   0  0  2  0  0  0  0  0  0  0  0  0
   12.2123    7.1699   -4.4973 C   0  0  0  0  0  0  0  0  0  0  0  0
    4.4895    2.6508    2.8182 C   0  0  0  0  0  0  0  0  0  0  0  0
   -2.1540    2.2786   -2.4939 C   0  0  0  0  0  0  0  0  0  0  0  0
   10.0081    9.9804   -5.6480 C   0  0  0  0  0  0  0  0  0  0  0  0
   -2.8766    3.2756   -3.1633 C   0  0  0  0  0  0  0  0  0  0  0  0
   -2.1656    0.9036   -3.5844 S   0  0  0  0  0  0  0  0  0  0  0  0
    9.1690   10.3314   -6.6623 N   0  0  0  0  0  0  0  0  0  0  0  0
    9.5804   10.3503   -4.3662 C   0  0  0  0  0  0  0  0  0  0  0  0
   -3.3744    2.9523   -4.3878 N   0  0  0  0  0  0  0  0  0  0  0  0
   -3.1141    1.7019   -4.8247 C   0  0  0  0  0  0  0  0  0  0  0  0
    8.0176   10.9597   -6.3367 C   0  0  0  0  0  0  0  0  0  0  0  0
    8.0475   11.1689   -4.5940 S   0  0  0  0  0  0  0  0  0  0  0  0
    6.9118   11.2755   -7.2656 C   0  0  2  0  0  0  0  0  0  0  0  0
    6.3322    9.9514   -7.8348 C   0  0  0  0  0  0  0  0  0  0  0  0
    7.3721   12.2513   -8.3791 C   0  0  0  0  0  0  0  0  0  0  0  0
    5.0211    4.5164   -3.9985 H   0  0  0  0  0  0  0  0  0  0  0  0
    4.7353    2.5828   -5.6064 H   0  0  0  0  0  0  0  0  0  0  0  0
    6.4725    2.5381   -5.8234 H   0  0  0  0  0  0  0  0  0  0  0  0
    6.2930    3.2101   -2.1301 H   0  0  0  0  0  0  0  0  0  0  0  0
    6.4080    1.9084   -3.2868 H   0  0  0  0  0  0  0  0  0  0  0  0
    6.8405    5.5899   -4.1487 H   0  0  0  0  0  0  0  0  0  0  0  0
    4.5949    1.6185   -1.6494 H   0  0  0  0  0  0  0  0  0  0  0  0
    3.4793    4.7287   -6.1663 H   0  0  0  0  0  0  0  0  0  0  0  0
    7.4697    4.1099   -7.4105 H   0  0  0  0  0  0  0  0  0  0  0  0
    3.0142    3.7982   -3.0846 H   0  0  0  0  0  0  0  0  0  0  0  0
    4.5738    0.6407   -3.6247 H   0  0  0  0  0  0  0  0  0  0  0  0
   10.3381    4.7764   -4.0809 H   0  0  0  0  0  0  0  0  0  0  0  0
    3.2396    6.4643   -7.8245 H   0  0  0  0  0  0  0  0  0  0  0  0
    7.2135    5.8569   -9.0605 H   0  0  0  0  0  0  0  0  0  0  0  0
    2.8812    5.0739   -1.0070 H   0  0  0  0  0  0  0  0  0  0  0  0
    4.5477    4.8991   -1.4564 H   0  0  0  0  0  0  0  0  0  0  0  0
    2.3077    1.6741   -1.2893 H   0  0  0  0  0  0  0  0  0  0  0  0
    8.4652    5.7494   -5.7832 H   0  0  0  0  0  0  0  0  0  0  0  0
   10.1946    6.8254   -2.7329 H   0  0  0  0  0  0  0  0  0  0  0  0
    5.1022    7.0355   -9.2762 H   0  0  0  0  0  0  0  0  0  0  0  0
   10.4324    4.6521   -1.5288 H   0  0  0  0  0  0  0  0  0  0  0  0
    9.6837    5.9256   -0.5543 H   0  0  0  0  0  0  0  0  0  0  0  0
    8.6792    4.6416   -1.2500 H   0  0  0  0  0  0  0  0  0  0  0  0
    7.9116    7.6518   -3.4355 H   0  0  0  0  0  0  0  0  0  0  0  0
    8.2771    7.7774   -1.7077 H   0  0  0  0  0  0  0  0  0  0  0  0
    7.2078    6.4963   -2.2780 H   0  0  0  0  0  0  0  0  0  0  0  0
    1.9321    3.4577    0.8125 H   0  0  0  0  0  0  0  0  0  0  0  0
    6.0745    4.0210    0.1986 H   0  0  0  0  0  0  0  0  0  0  0  0
    2.3909    2.4638    2.9564 H   0  0  0  0  0  0  0  0  0  0  0  0
    6.5115    3.0331    2.3544 H   0  0  0  0  0  0  0  0  0  0  0  0
   -1.7189    3.3195   -0.6916 H   0  0  0  0  0  0  0  0  0  0  0  0
   -1.9804    1.5803   -0.5355 H   0  0  0  0  0  0  0  0  0  0  0  0
   11.4033    9.1096   -6.9890 H   0  0  0  0  0  0  0  0  0  0  0  0
   12.0727    9.6596   -5.4595 H   0  0  0  0  0  0  0  0  0  0  0  0
   12.2460    7.6975   -3.5440 H   0  0  0  0  0  0  0  0  0  0  0  0
   12.0885    6.1061   -4.3248 H   0  0  0  0  0  0  0  0  0  0  0  0
   13.1718    7.3057   -4.9990 H   0  0  0  0  0  0  0  0  0  0  0  0
    4.6813    2.2205    3.7274 H   0  0  0  0  0  0  0  0  0  0  0  0
   -3.0291    4.1995   -2.7561 H   0  0  0  0  0  0  0  0  0  0  0  0
   10.0442   10.1608   -3.4776 H   0  0  0  0  0  0  0  0  0  0  0  0
   -3.4118    1.2955   -5.7105 H   0  0  0  0  0  0  0  0  0  0  0  0
    6.1166   11.7737   -6.7047 H   0  0  0  0  0  0  0  0  0  0  0  0
    5.4911   10.1551   -8.4989 H   0  0  0  0  0  0  0  0  0  0  0  0
    7.0909    9.4021   -8.3969 H   0  0  0  0  0  0  0  0  0  0  0  0
    5.9758    9.3127   -7.0228 H   0  0  0  0  0  0  0  0  0  0  0  0
    6.5355   12.4947   -9.0386 H   0  0  0  0  0  0  0  0  0  0  0  0
    8.1704   11.8093   -8.9786 H   0  0  0  0  0  0  0  0  0  0  0  0
    7.7384   13.1825   -7.9395 H   0  0  0  0  0  0  0  0  0  0  0  0
  1  2  1  0  0  0  0 
  1  3  1  0  0  0  0 
  1  4  1  0  0  0  0 
  2  5  1  0  0  0  0 
  6  3  1  0  0  0  0 
  4  7  1  0  0  0  0 
  5  8  2  0  0  0  0 
  5  9  1  0  0  0  0 
  6 10  1  0  0  0  0 
  6 11  1  0  0  0  0 
 12  7  1  0  0  0  0 
  7 13  2  0  0  0  0 
  8 14  1  0  0  0  0 
  9 15  2  0  0  0  0 
 10 16  1  0  0  0  0 
 10 17  1  0  0  0  0 
 12 18  1  0  0  0  0 
 12 19  1  0  0  0  0 
 14 20  2  0  0  0  0 
 15 20  1  0  0  0  0 
 16 21  1  0  0  0  0 
 17 22  1  0  0  0  0 
 18 23  1  0  0  0  0 
 19 24  1  0  0  0  0 
 19 25  1  0  0  0  0 
 21 26  2  0  0  0  0 
 21 27  1  0  0  0  0 
 22 28  1  0  0  0  0 
 22 29  2  0  0  0  0 
 23 30  1  0  0  0  0 
 23 31  2  0  0  0  0 
 26 32  1  0  0  0  0 
 27 33  2  0  0  0  0 
 28 34  1  0  0  0  0 
 30 35  1  0  0  0  0 
 30 36  1  0  0  0  0 
 32 37  2  0  0  0  0 
 33 37  1  0  0  0  0 
 34 38  1  0  0  0  0 
 35 39  1  0  0  0  0 
 38 40  2  0  0  0  0 
 38 41  1  0  0  0  0 
 39 42  1  0  0  0  0 
 39 43  2  0  0  0  0 
 40 44  1  0  0  0  0 
 41 45  1  0  0  0  0 
 42 46  2  0  0  0  0 
 43 47  1  0  0  0  0 
 44 45  2  0  0  0  0 
 46 47  1  0  0  0  0 
 46 48  1  0  0  0  0 
 48 49  1  0  0  0  0 
 48 50  1  0  0  0  0 
  1 51  1  0  0  0  0 
 52  2  1  0  0  0  0 
 53  2  1  0  0  0  0 
 54  3  1  0  0  0  0 
 55  3  1  0  0  0  0 
 56  4  1  0  0  0  0 
  6 57  1  0  0  0  0 
 58  8  1  0  0  0  0 
 59  9  1  0  0  0  0 
 10 60  1  0  0  0  0 
 61 11  1  0  0  0  0 
 12 62  1  0  0  0  0 
 63 14  1  0  0  0  0 
 64 15  1  0  0  0  0 
 65 16  1  0  0  0  0 
 66 16  1  0  0  0  0 
 67 17  1  0  0  0  0 
 68 18  1  0  0  0  0 
 69 19  1  0  0  0  0 
 70 20  1  0  0  0  0 
 71 24  1  0  0  0  0 
 72 24  1  0  0  0  0 
 73 24  1  0  0  0  0 
 74 25  1  0  0  0  0 
 75 25  1  0  0  0  0 
 76 25  1  0  0  0  0 
 77 26  1  0  0  0  0 
 78 27  1  0  0  0  0 
 79 32  1  0  0  0  0 
 80 33  1  0  0  0  0 
 81 34  1  0  0  0  0 
 82 34  1  0  0  0  0 
 83 35  1  0  0  0  0 
 84 35  1  0  0  0  0 
 85 36  1  0  0  0  0 
 86 36  1  0  0  0  0 
 87 36  1  0  0  0  0 
 88 37  1  0  0  0  0 
 89 40  1  0  0  0  0 
 90 43  1  0  0  0  0 
 91 45  1  0  0  0  0 
 92 48  1  0  0  0  0 
 93 49  1  0  0  0  0 
 94 49  1  0  0  0  0 
 95 49  1  0  0  0  0 
 96 50  1  0  0  0  0 
 97 50  1  0  0  0  0 
 98 50  1  0  0  0  0 
M  END
> <cdk:Title>
ritonavir

> <Conformer>
1

> <SuperDrugID>
SD002152

$$$$
