amoproxan
  Mrv0541 09131710103D              72.33873

 65 66  0  0  0  0            999 V2000
   -5.1681    4.8913    3.5002 C   0  0  0  0  0  0  0  0  0  0  0  0
   -4.3623    4.0745    4.3675 O   0  0  0  0  0  0  0  0  0  0  0  0
   -3.1421    3.7483    3.8373 C   0  0  0  0  0  0  0  0  0  0  0  0
   -2.9645    2.4930    3.2211 C   0  0  0  0  0  0  0  0  0  0  0  0
   -1.6974    2.0892    2.7355 C   0  0  0  0  0  0  0  0  0  0  0  0
   -0.6246    3.0061    2.8220 C   0  0  0  0  0  0  0  0  0  0  0  0
   -0.7951    4.2728    3.4117 C   0  0  0  0  0  0  0  0  0  0  0  0
    0.2656    5.1354    3.4772 O   0  0  0  0  0  0  0  0  0  0  0  0
    0.3598    5.9960    2.3276 C   0  0  0  0  0  0  0  0  0  0  0  0
   -2.0448    4.6304    3.9619 C   0  0  0  0  0  0  0  0  0  0  0  0
   -2.1924    5.8393    4.5879 O   0  0  0  0  0  0  0  0  0  0  0  0
   -1.9164    5.7788    6.0000 C   0  0  0  0  0  0  0  0  0  0  0  0
   -1.4961    0.8025    2.1739 C   0  0  0  0  0  0  0  0  0  0  0  0
   -0.3544    0.2847    2.2140 O   0  0  0  0  0  0  0  0  0  0  0  0
   -2.5362    0.1054    1.6189 O   0  0  0  0  0  0  0  0  0  0  0  0
   -2.4762   -1.1471    0.9073 C   0  0  1  0  0  0  0  0  0  0  0  0
   -3.8875   -1.7948    0.9307 C   0  0  1  0  0  0  0  0  0  0  0  0
   -4.2278   -2.2166    2.2667 O   0  0  0  0  0  0  0  0  0  0  0  0
   -5.4326   -3.0083    2.3423 C   0  0  2  0  0  0  0  0  0  0  0  0
   -5.6732   -3.4264    3.8140 C   0  0  2  0  0  0  0  0  0  0  0  0
   -6.9756   -4.2567    4.0606 C   0  0  2  0  0  0  0  0  0  0  0  0
   -7.2437   -4.4443    5.5813 C   0  0  0  0  0  0  0  0  0  0  0  0
   -6.9461   -5.6433    3.3556 C   0  0  0  0  0  0  0  0  0  0  0  0
   -2.0087   -0.9163   -0.5639 C   0  0  1  0  0  0  0  0  0  0  0  0
   -0.6755   -0.2503   -0.7263 N   0  0  2  0  0  0  0  0  0  0  0  0
   -0.5329    0.4661   -2.0357 C   0  0  2  0  0  0  0  0  0  0  0  0
    0.8257    1.2046   -2.1181 C   0  0  2  0  0  0  0  0  0  0  0  0
    1.9206    0.3064   -1.8492 O   0  0  0  0  0  0  0  0  0  0  0  0
    1.8171   -0.3398   -0.5645 C   0  0  2  0  0  0  0  0  0  0  0  0
    0.4974   -1.1419   -0.4609 C   0  0  1  0  0  0  0  0  0  0  0  0
   -6.1047    5.1156    4.0130 H   0  0  0  0  0  0  0  0  0  0  0  0
   -4.6746    5.8389    3.2679 H   0  0  0  0  0  0  0  0  0  0  0  0
   -5.4082    4.3665    2.5719 H   0  0  0  0  0  0  0  0  0  0  0  0
   -3.7696    1.8657    3.1490 H   0  0  0  0  0  0  0  0  0  0  0  0
    0.2986    2.7619    2.4529 H   0  0  0  0  0  0  0  0  0  0  0  0
    0.5513    5.4284    1.4131 H   0  0  0  0  0  0  0  0  0  0  0  0
    1.1972    6.6736    2.4865 H   0  0  0  0  0  0  0  0  0  0  0  0
   -0.5443    6.5962    2.1987 H   0  0  0  0  0  0  0  0  0  0  0  0
   -2.0052    6.7894    6.4014 H   0  0  0  0  0  0  0  0  0  0  0  0
   -2.6354    5.1384    6.5178 H   0  0  0  0  0  0  0  0  0  0  0  0
   -0.9007    5.4249    6.2015 H   0  0  0  0  0  0  0  0  0  0  0  0
   -1.7943   -1.8346    1.4149 H   0  0  0  0  0  0  0  0  0  0  0  0
   -4.6260   -1.0721    0.5718 H   0  0  0  0  0  0  0  0  0  0  0  0
   -3.8921   -2.6587    0.2583 H   0  0  0  0  0  0  0  0  0  0  0  0
   -5.3191   -3.9035    1.7255 H   0  0  0  0  0  0  0  0  0  0  0  0
   -6.2920   -2.4342    1.9808 H   0  0  0  0  0  0  0  0  0  0  0  0
   -5.7209   -2.5074    4.4047 H   0  0  0  0  0  0  0  0  0  0  0  0
   -4.8059   -3.9960    4.1617 H   0  0  0  0  0  0  0  0  0  0  0  0
   -7.8198   -3.6901    3.6538 H   0  0  0  0  0  0  0  0  0  0  0  0
   -8.1817   -4.9826    5.7382 H   0  0  0  0  0  0  0  0  0  0  0  0
   -6.4356   -5.0116    6.0495 H   0  0  0  0  0  0  0  0  0  0  0  0
   -7.3264   -3.4764    6.0798 H   0  0  0  0  0  0  0  0  0  0  0  0
   -7.8357   -6.2231    3.6098 H   0  0  0  0  0  0  0  0  0  0  0  0
   -6.0638   -6.2102    3.6605 H   0  0  0  0  0  0  0  0  0  0  0  0
   -6.9320   -5.5277    2.2719 H   0  0  0  0  0  0  0  0  0  0  0  0
   -2.0003   -1.8736   -1.0945 H   0  0  0  0  0  0  0  0  0  0  0  0
   -2.7803   -0.2962   -1.0301 H   0  0  0  0  0  0  0  0  0  0  0  0
   -1.3286    1.2101   -2.1475 H   0  0  0  0  0  0  0  0  0  0  0  0
   -0.6057   -0.2408   -2.8682 H   0  0  0  0  0  0  0  0  0  0  0  0
    0.8390    2.0371   -1.4080 H   0  0  0  0  0  0  0  0  0  0  0  0
    0.9578    1.6177   -3.1207 H   0  0  0  0  0  0  0  0  0  0  0  0
    1.8748    0.3977    0.2396 H   0  0  0  0  0  0  0  0  0  0  0  0
    2.6642   -1.0180   -0.4555 H   0  0  0  0  0  0  0  0  0  0  0  0
    0.4391   -1.5744    0.5380 H   0  0  0  0  0  0  0  0  0  0  0  0
    0.5215   -1.9635   -1.1824 H   0  0  0  0  0  0  0  0  0  0  0  0
  1  2  1  0  0  0  0
  2  3  1  0  0  0  0
  3  4  2  0  0  0  0
  4  5  1  0  0  0  0
  5  6  2  0  0  0  0
  6  7  1  0  0  0  0
  7  8  1  0  0  0  0
  8  9  1  0  0  0  0
  7 10  2  0  0  0  0
 10 11  1  0  0  0  0
 11 12  1  0  0  0  0
  5 13  1  0  0  0  0
 13 14  2  0  0  0  0
 13 15  1  0  0  0  0
 15 16  1  0  0  0  0
 16 17  1  0  0  0  0
 17 18  1  0  0  0  0
 18 19  1  0  0  0  0
 19 20  1  0  0  0  0
 20 21  1  0  0  0  0
 21 22  1  0  0  0  0
 21 23  1  0  0  0  0
 16 24  1  0  0  0  0
 24 25  1  0  0  0  0
 25 26  1  0  0  0  0
 26 27  1  0  0  0  0
 27 28  1  0  0  0  0
 28 29  1  0  0  0  0
 29 30  1  0  0  0  0
 10  3  1  0  0  0  0
 30 25  1  0  0  0  0
  1 31  1  0  0  0  0
  1 32  1  0  0  0  0
  1 33  1  0  0  0  0
  4 34  1  0  0  0  0
  6 35  1  0  0  0  0
  9 36  1  0  0  0  0
  9 37  1  0  0  0  0
  9 38  1  0  0  0  0
 12 39  1  0  0  0  0
 12 40  1  0  0  0  0
 12 41  1  0  0  0  0
 16 42  1  0  0  0  0
 17 43  1  0  0  0  0
 17 44  1  0  0  0  0
 19 45  1  0  0  0  0
 19 46  1  0  0  0  0
 20 47  1  0  0  0  0
 20 48  1  0  0  0  0
 21 49  1  0  0  0  0
 22 50  1  0  0  0  0
 22 51  1  0  0  0  0
 22 52  1  0  0  0  0
 23 53  1  0  0  0  0
 23 54  1  0  0  0  0
 23 55  1  0  0  0  0
 24 56  1  0  0  0  0
 24 57  1  0  0  0  0
 26 58  1  0  0  0  0
 26 59  1  0  0  0  0
 27 60  1  0  0  0  0
 27 61  1  0  0  0  0
 29 62  1  0  0  0  0
 29 63  1  0  0  0  0
 30 64  1  0  0  0  0
 30 65  1  0  0  0  0
M  END
>  <SuperDrugID>
SD006021

>  <_MOLCOUNT>
1

$$$$
