phenadoxone
  CDK     0628171801

 55 57  0  0  0  0  0  0  0  0999 V2000
   -2.8845    2.7871    1.9918 C   0  0  2  0  0  0  0  0  0  0  0  0
   -1.7933    2.3228    0.9153 C   0  0  2  0  0  0  0  0  0  0  0  0
   -2.3282    3.8758    2.9030 C   0  0  0  0  0  0  0  0  0  0  0  0
   -3.2232    1.7013    3.0193 C   0  0  0  0  0  0  0  0  0  0  0  0
   -4.0380    3.3644    1.1657 C   0  0  0  0  0  0  0  0  0  0  0  0
   -1.9660    0.9868    0.0932 C   0  0  1  0  0  0  0  0  0  0  0  0
   -3.1547    4.7569    3.7888 C   0  0  1  0  0  0  0  0  0  0  0  0
   -1.0869    4.0097    3.0309 O   0  0  0  0  0  0  0  0  0  0  0  0
   -2.2961    0.6818    3.3853 C   0  0  0  0  0  0  0  0  0  0  0  0
   -4.4452    1.7054    3.7527 C   0  0  0  0  0  0  0  0  0  0  0  0
   -5.2658    2.6845    0.9375 C   0  0  0  0  0  0  0  0  0  0  0  0
   -3.9109    4.6440    0.5494 C   0  0  0  0  0  0  0  0  0  0  0  0
   -3.1537    0.9630   -0.9129 C   0  0  0  0  0  0  0  0  0  0  0  0
   -0.7002    0.5698   -0.6124 N   0  0  1  0  0  0  0  0  0  0  0  0
   -2.6417    6.2133    3.9185 C   0  0  0  0  0  0  0  0  0  0  0  0
   -2.6045   -0.3210    4.3230 C   0  0  0  0  0  0  0  0  0  0  0  0
   -4.7674    0.7055    4.6898 C   0  0  0  0  0  0  0  0  0  0  0  0
   -6.3265    3.2723    0.2240 C   0  0  0  0  0  0  0  0  0  0  0  0
   -4.9610    5.2344   -0.1767 C   0  0  0  0  0  0  0  0  0  0  0  0
   -0.1624    1.4872   -1.6614 C   0  0  1  0  0  0  0  0  0  0  0  0
    0.3890   -0.0311    0.2259 C   0  0  2  0  0  0  0  0  0  0  0  0
   -3.8472   -0.3143    4.9708 C   0  0  0  0  0  0  0  0  0  0  0  0
   -6.1791    4.5546   -0.3249 C   0  0  0  0  0  0  0  0  0  0  0  0
    0.8513    0.7173   -2.5350 C   0  0  1  0  0  0  0  0  0  0  0  0
    1.4263   -0.7317   -0.6848 C   0  0  2  0  0  0  0  0  0  0  0  0
    1.8996    0.1533   -1.7217 O   0  0  0  0  0  0  0  0  0  0  0  0
   -0.8352    2.2241    1.4247 H   0  0  0  0  0  0  0  0  0  0  0  0
   -1.6244    3.1296    0.1976 H   0  0  0  0  0  0  0  0  0  0  0  0
   -2.1953    0.1780    0.7861 H   0  0  0  0  0  0  0  0  0  0  0  0
   -4.1881    4.8031    3.4402 H   0  0  0  0  0  0  0  0  0  0  0  0
   -3.1648    4.3138    4.7870 H   0  0  0  0  0  0  0  0  0  0  0  0
   -1.3642    0.6472    2.9756 H   0  0  0  0  0  0  0  0  0  0  0  0
   -5.1318    2.4473    3.6159 H   0  0  0  0  0  0  0  0  0  0  0  0
   -5.4069    1.7357    1.2845 H   0  0  0  0  0  0  0  0  0  0  0  0
   -3.0431    5.1782    0.6336 H   0  0  0  0  0  0  0  0  0  0  0  0
   -2.9955    0.2059   -1.6821 H   0  0  0  0  0  0  0  0  0  0  0  0
   -4.0795    0.6925   -0.4082 H   0  0  0  0  0  0  0  0  0  0  0  0
   -3.2812    1.9291   -1.4033 H   0  0  0  0  0  0  0  0  0  0  0  0
   -3.3304    6.8055    4.5282 H   0  0  0  0  0  0  0  0  0  0  0  0
   -1.6574    6.2288    4.3927 H   0  0  0  0  0  0  0  0  0  0  0  0
   -2.5675    6.6801    2.9356 H   0  0  0  0  0  0  0  0  0  0  0  0
   -1.9235   -1.0532    4.5361 H   0  0  0  0  0  0  0  0  0  0  0  0
   -5.6696    0.7180    5.1715 H   0  0  0  0  0  0  0  0  0  0  0  0
   -7.2052    2.7657    0.1049 H   0  0  0  0  0  0  0  0  0  0  0  0
   -4.8394    6.1590   -0.5963 H   0  0  0  0  0  0  0  0  0  0  0  0
   -0.9530    1.8660   -2.3097 H   0  0  0  0  0  0  0  0  0  0  0  0
    0.3368    2.3397   -1.1972 H   0  0  0  0  0  0  0  0  0  0  0  0
   -0.0104   -0.7722    0.9229 H   0  0  0  0  0  0  0  0  0  0  0  0
    0.9008    0.7405    0.8063 H   0  0  0  0  0  0  0  0  0  0  0  0
   -4.0748   -1.0442    5.6513 H   0  0  0  0  0  0  0  0  0  0  0  0
   -6.9530    4.9884   -0.8344 H   0  0  0  0  0  0  0  0  0  0  0  0
    0.3448   -0.0683   -3.1015 H   0  0  0  0  0  0  0  0  0  0  0  0
    1.3041    1.4053   -3.2496 H   0  0  0  0  0  0  0  0  0  0  0  0
    0.9870   -1.6275   -1.1303 H   0  0  0  0  0  0  0  0  0  0  0  0
    2.2822   -1.0436   -0.0812 H   0  0  0  0  0  0  0  0  0  0  0  0
  1  2  1  0  0  0  0 
  1  3  1  0  0  0  0 
  1  4  1  0  0  0  0 
  1  5  1  0  0  0  0 
  6  2  1  0  0  0  0 
  3  7  1  0  0  0  0 
  3  8  2  0  0  0  0 
  4  9  2  0  0  0  0 
  4 10  1  0  0  0  0 
  5 11  2  0  0  0  0 
  5 12  1  0  0  0  0 
  6 13  1  0  0  0  0 
  6 14  1  0  0  0  0 
  7 15  1  0  0  0  0 
  9 16  1  0  0  0  0 
 10 17  2  0  0  0  0 
 11 18  1  0  0  0  0 
 12 19  2  0  0  0  0 
 14 20  1  0  0  0  0 
 14 21  1  0  0  0  0 
 16 22  2  0  0  0  0 
 17 22  1  0  0  0  0 
 18 23  2  0  0  0  0 
 19 23  1  0  0  0  0 
 20 24  1  0  0  0  0 
 21 25  1  0  0  0  0 
 24 26  1  0  0  0  0 
 25 26  1  0  0  0  0 
  2 27  1  0  0  0  0 
  2 28  1  0  0  0  0 
  6 29  1  0  0  0  0 
  7 30  1  0  0  0  0 
  7 31  1  0  0  0  0 
  9 32  1  0  0  0  0 
 10 33  1  0  0  0  0 
 11 34  1  0  0  0  0 
 12 35  1  0  0  0  0 
 13 36  1  0  0  0  0 
 13 37  1  0  0  0  0 
 13 38  1  0  0  0  0 
 15 39  1  0  0  0  0 
 15 40  1  0  0  0  0 
 15 41  1  0  0  0  0 
 16 42  1  0  0  0  0 
 17 43  1  0  0  0  0 
 18 44  1  0  0  0  0 
 19 45  1  0  0  0  0 
 20 46  1  0  0  0  0 
 20 47  1  0  0  0  0 
 21 48  1  0  0  0  0 
 21 49  1  0  0  0  0 
 22 50  1  0  0  0  0 
 23 51  1  0  0  0  0 
 24 52  1  0  0  0  0 
 24 53  1  0  0  0  0 
 25 54  1  0  0  0  0 
 25 55  1  0  0  0  0 
M  END
> <cdk:Title>
phenadoxone

> <Conformer>
1

> <SuperDrugID>
SD002959

$$$$
