reproterol
  CDK     0628171801

 51 53  0  0  0  0  0  0  0  0999 V2000
   -7.1917  -19.7272   16.8004 C   0  0  2  0  0  0  0  0  0  0  0  0
   -7.3626  -21.2703   16.7819 C   0  0  1  0  0  0  0  0  0  0  0  0
   -8.0330  -19.0792   17.7727 N   0  0  0  0  0  0  0  0  0  0  0  0
   -6.4901  -21.9768   15.7139 C   0  0  2  0  0  0  0  0  0  0  0  0
   -7.8925  -19.0154   19.1164 C   0  0  0  0  0  0  0  0  0  0  0  0
   -9.1485  -18.3727   17.4867 C   0  0  0  0  0  0  0  0  0  0  0  0
   -5.0455  -21.8601   16.0238 N   0  0  2  0  0  0  0  0  0  0  0  0
   -8.9292  -18.2405   19.6257 C   0  0  0  0  0  0  0  0  0  0  0  0
   -6.9469  -19.5424   20.0148 C   0  0  0  0  0  0  0  0  0  0  0  0
   -9.6983  -17.8530   18.5955 N   0  0  0  0  0  0  0  0  0  0  0  0
   -4.1220  -22.4958   15.0500 C   0  0  2  0  0  0  0  0  0  0  0  0
   -9.0529  -17.9645   20.9568 N   0  0  0  0  0  0  0  0  0  0  0  0
   -5.9859  -20.1987   19.5501 O   0  0  0  0  0  0  0  0  0  0  0  0
   -7.0935  -19.3158   21.3655 N   0  0  0  0  0  0  0  0  0  0  0  0
   -3.9188  -21.6635   13.7541 C   0  0  2  0  0  0  0  0  0  0  0  0
  -10.1213  -17.1203   21.4452 C   0  0  0  0  0  0  0  0  0  0  0  0
   -8.1254  -18.5128   21.8158 C   0  0  0  0  0  0  0  0  0  0  0  0
   -6.1837  -19.9123   22.3261 C   0  0  0  0  0  0  0  0  0  0  0  0
   -2.9958  -22.3417   12.8998 O   0  0  0  0  0  0  0  0  0  0  0  0
   -3.4372  -20.2811   14.0468 C   0  0  0  0  0  0  0  0  0  0  0  0
   -8.2323  -18.2743   23.0463 O   0  0  0  0  0  0  0  0  0  0  0  0
   -4.2952  -19.1620   13.9041 C   0  0  0  0  0  0  0  0  0  0  0  0
   -2.1101  -20.0617   14.4918 C   0  0  0  0  0  0  0  0  0  0  0  0
   -3.8379  -17.8602   14.1919 C   0  0  0  0  0  0  0  0  0  0  0  0
   -1.6402  -18.7594   14.7550 C   0  0  0  0  0  0  0  0  0  0  0  0
   -4.6588  -16.7859   14.0867 O   0  0  0  0  0  0  0  0  0  0  0  0
   -2.5076  -17.6645   14.6004 C   0  0  0  0  0  0  0  0  0  0  0  0
   -0.3629  -18.5330   15.1559 O   0  0  0  0  0  0  0  0  0  0  0  0
   -7.4265  -19.3482   15.8004 H   0  0  0  0  0  0  0  0  0  0  0  0
   -6.1492  -19.4682   16.9991 H   0  0  0  0  0  0  0  0  0  0  0  0
   -7.1258  -21.6869   17.7624 H   0  0  0  0  0  0  0  0  0  0  0  0
   -8.4096  -21.5002   16.5712 H   0  0  0  0  0  0  0  0  0  0  0  0
   -6.7063  -21.5450   14.7360 H   0  0  0  0  0  0  0  0  0  0  0  0
   -6.7666  -23.0331   15.6845 H   0  0  0  0  0  0  0  0  0  0  0  0
   -9.5388  -18.2361   16.5512 H   0  0  0  0  0  0  0  0  0  0  0  0
   -4.9037  -22.3380   16.9157 H   0  0  0  0  0  0  0  0  0  0  0  0
   -4.4745  -23.4993   14.7953 H   0  0  0  0  0  0  0  0  0  0  0  0
   -3.1566  -22.6132   15.5498 H   0  0  0  0  0  0  0  0  0  0  0  0
   -4.8651  -21.6370   13.2076 H   0  0  0  0  0  0  0  0  0  0  0  0
  -10.7157  -17.6643   22.1824 H   0  0  0  0  0  0  0  0  0  0  0  0
  -10.8036  -16.7828   20.6614 H   0  0  0  0  0  0  0  0  0  0  0  0
   -9.6997  -16.2315   21.9217 H   0  0  0  0  0  0  0  0  0  0  0  0
   -5.5886  -19.1328   22.8068 H   0  0  0  0  0  0  0  0  0  0  0  0
   -6.7496  -20.4489   23.0914 H   0  0  0  0  0  0  0  0  0  0  0  0
   -5.4935  -20.6359   21.8899 H   0  0  0  0  0  0  0  0  0  0  0  0
   -2.9313  -21.7856   12.0948 H   0  0  0  0  0  0  0  0  0  0  0  0
   -5.2617  -19.2879   13.5949 H   0  0  0  0  0  0  0  0  0  0  0  0
   -1.4712  -20.8510   14.6143 H   0  0  0  0  0  0  0  0  0  0  0  0
   -5.5700  -17.1412   14.1408 H   0  0  0  0  0  0  0  0  0  0  0  0
   -2.1696  -16.7213   14.7984 H   0  0  0  0  0  0  0  0  0  0  0  0
    0.0789  -19.4066   15.1766 H   0  0  0  0  0  0  0  0  0  0  0  0
  1  2  1  0  0  0  0 
  1  3  1  0  0  0  0 
  2  4  1  0  0  0  0 
  3  5  1  0  0  0  0 
  3  6  1  0  0  0  0 
  4  7  1  0  0  0  0 
  5  8  2  0  0  0  0 
  5  9  1  0  0  0  0 
  6 10  2  0  0  0  0 
  7 11  1  0  0  0  0 
  8 10  1  0  0  0  0 
  8 12  1  0  0  0  0 
  9 13  2  0  0  0  0 
  9 14  1  0  0  0  0 
 15 11  1  0  0  0  0 
 12 16  1  0  0  0  0 
 12 17  1  0  0  0  0 
 14 17  1  0  0  0  0 
 14 18  1  0  0  0  0 
 15 19  1  0  0  0  0 
 15 20  1  0  0  0  0 
 17 21  2  0  0  0  0 
 20 22  2  0  0  0  0 
 20 23  1  0  0  0  0 
 22 24  1  0  0  0  0 
 23 25  2  0  0  0  0 
 24 26  1  0  0  0  0 
 24 27  2  0  0  0  0 
 25 27  1  0  0  0  0 
 25 28  1  0  0  0  0 
  1 29  1  0  0  0  0 
  1 30  1  0  0  0  0 
  2 31  1  0  0  0  0 
  2 32  1  0  0  0  0 
  4 33  1  0  0  0  0 
  4 34  1  0  0  0  0 
  6 35  1  0  0  0  0 
  7 36  1  0  0  0  0 
 11 37  1  0  0  0  0 
 11 38  1  0  0  0  0 
 15 39  1  0  0  0  0 
 16 40  1  0  0  0  0 
 16 41  1  0  0  0  0 
 16 42  1  0  0  0  0 
 18 43  1  0  0  0  0 
 18 44  1  0  0  0  0 
 18 45  1  0  0  0  0 
 19 46  1  0  0  0  0 
 22 47  1  0  0  0  0 
 23 48  1  0  0  0  0 
 26 49  1  0  0  0  0 
 27 50  1  0  0  0  0 
 28 51  1  0  0  0  0 
M  END
> <cdk:Title>
reproterol

> <Conformer>
1

> <SuperDrugID>
SD002130

$$$$
