triclabendazole
  CDK     0628171801

 30 32  0  0  0  0  0  0  0  0999 V2000
    0.5340    0.2487    0.2541 O   0  0  0  0  0  0  0  0  0  0  0  0
    0.3723   -0.7854    1.1566 C   0  0  0  0  0  0  0  0  0  0  0  0
   -0.6396    0.9002   -0.0627 C   0  0  0  0  0  0  0  0  0  0  0  0
   -0.1228   -0.5530    2.4695 C   0  0  0  0  0  0  0  0  0  0  0  0
    0.7487   -2.1089    0.7902 C   0  0  0  0  0  0  0  0  0  0  0  0
   -1.4835    0.4961   -1.1302 C   0  0  0  0  0  0  0  0  0  0  0  0
   -0.9951    2.0356    0.6978 C   0  0  0  0  0  0  0  0  0  0  0  0
   -0.3297   -1.6418    3.3267 C   0  0  0  0  0  0  0  0  0  0  0  0
    1.5285   -2.4348   -0.6797 Cl  0  0  0  0  0  0  0  0  0  0  0  0
    0.5163   -3.1950    1.6669 C   0  0  0  0  0  0  0  0  0  0  0  0
   -0.9899   -0.7552   -2.1655 Cl  0  0  0  0  0  0  0  0  0  0  0  0
   -2.7238    1.1527   -1.3393 C   0  0  0  0  0  0  0  0  0  0  0  0
   -2.2223    2.6853    0.4898 C   0  0  0  0  0  0  0  0  0  0  0  0
   -0.0330   -2.9395    2.9346 C   0  0  0  0  0  0  0  0  0  0  0  0
   -0.7935   -1.7001    4.5777 N   0  0  0  0  0  0  0  0  0  0  0  0
   -3.7974    0.7063   -2.5775 Cl  0  0  0  0  0  0  0  0  0  0  0  0
   -3.0976    2.2265   -0.5071 C   0  0  0  0  0  0  0  0  0  0  0  0
   -0.3326   -3.7721    3.9455 N   0  0  0  0  0  0  0  0  0  0  0  0
   -0.7999   -2.9935    4.9418 C   0  0  0  0  0  0  0  0  0  0  0  0
   -1.3089   -3.5865    6.5070 S   0  0  0  0  0  0  0  0  0  0  0  0
   -3.0942   -3.8917    6.3195 C   0  0  0  0  0  0  0  0  0  0  0  0
   -0.3347    0.3864    2.8036 H   0  0  0  0  0  0  0  0  0  0  0  0
   -0.3637    2.3875    1.4210 H   0  0  0  0  0  0  0  0  0  0  0  0
    0.7594   -4.1501    1.3951 H   0  0  0  0  0  0  0  0  0  0  0  0
   -2.4790    3.4899    1.0667 H   0  0  0  0  0  0  0  0  0  0  0  0
   -1.0680   -0.9471    5.1240 H   0  0  0  0  0  0  0  0  0  0  0  0
   -4.0009    2.6914   -0.6302 H   0  0  0  0  0  0  0  0  0  0  0  0
   -3.4955   -4.2499    7.2672 H   0  0  0  0  0  0  0  0  0  0  0  0
   -3.2685   -4.6460    5.5510 H   0  0  0  0  0  0  0  0  0  0  0  0
   -3.6042   -2.9684    6.0427 H   0  0  0  0  0  0  0  0  0  0  0  0
  1  2  1  0  0  0  0 
  1  3  1  0  0  0  0 
  2  4  1  0  0  0  0 
  2  5  2  0  0  0  0 
  3  6  2  0  0  0  0 
  3  7  1  0  0  0  0 
  4  8  2  0  0  0  0 
  5  9  1  0  0  0  0 
  5 10  1  0  0  0  0 
  6 11  1  0  0  0  0 
  6 12  1  0  0  0  0 
  7 13  2  0  0  0  0 
  8 14  1  0  0  0  0 
  8 15  1  0  0  0  0 
 10 14  2  0  0  0  0 
 12 16  1  0  0  0  0 
 12 17  2  0  0  0  0 
 13 17  1  0  0  0  0 
 14 18  1  0  0  0  0 
 15 19  1  0  0  0  0 
 18 19  2  0  0  0  0 
 19 20  1  0  0  0  0 
 20 21  1  0  0  0  0 
 22  4  1  0  0  0  0 
 23  7  1  0  0  0  0 
 24 10  1  0  0  0  0 
 25 13  1  0  0  0  0 
 26 15  1  0  0  0  0 
 27 17  1  0  0  0  0 
 28 21  1  0  0  0  0 
 29 21  1  0  0  0  0 
 30 21  1  0  0  0  0 
M  END
> <cdk:Title>
triclabendazole

> <Conformer>
1

> <SuperDrugID>
SD002464

$$$$
