nadoxolol
  CDK     0628171801

 35 36  0  0  0  0  0  0  0  0999 V2000
    0.1414    0.7447    4.5476 O   0  0  0  0  0  0  0  0  0  0  0  0
    1.0686   -0.2111    3.9812 C   0  0  1  0  0  0  0  0  0  0  0  0
    0.2536    0.8776    5.9059 C   0  0  0  0  0  0  0  0  0  0  0  0
    0.7765   -0.3825    2.4700 C   0  0  1  0  0  0  0  0  0  0  0  0
   -0.4675    0.0411    6.7954 C   0  0  0  0  0  0  0  0  0  0  0  0
    1.0989    1.8842    6.4135 C   0  0  0  0  0  0  0  0  0  0  0  0
   -0.6647   -0.9113    2.2048 C   0  0  2  0  0  0  0  0  0  0  0  0
    0.9744    0.8800    1.8357 O   0  0  0  0  0  0  0  0  0  0  0  0
   -0.2792    0.1901    8.2009 C   0  0  0  0  0  0  0  0  0  0  0  0
   -1.3685   -0.9428    6.3233 C   0  0  0  0  0  0  0  0  0  0  0  0
    1.2727    2.0342    7.7987 C   0  0  0  0  0  0  0  0  0  0  0  0
   -0.9588   -1.1050    0.7975 C   0  0  0  0  0  0  0  0  0  0  0  0
    0.5941    1.1868    8.6892 C   0  0  0  0  0  0  0  0  0  0  0  0
   -0.9683   -0.6609    9.0941 C   0  0  0  0  0  0  0  0  0  0  0  0
   -2.0391   -1.7892    7.2216 C   0  0  0  0  0  0  0  0  0  0  0  0
   -0.3497   -2.0899    0.1473 N   0  0  0  0  0  0  0  0  0  0  0  0
   -1.7983   -0.3322    0.2125 N   0  0  0  0  0  0  0  0  0  0  0  0
   -1.8356   -1.6511    8.6045 C   0  0  0  0  0  0  0  0  0  0  0  0
   -0.6077   -2.3923   -1.0958 O   0  0  0  0  0  0  0  0  0  0  0  0
    2.0977    0.1446    4.1019 H   0  0  0  0  0  0  0  0  0  0  0  0
    0.9892   -1.1913    4.4676 H   0  0  0  0  0  0  0  0  0  0  0  0
    1.5101   -1.0835    2.0604 H   0  0  0  0  0  0  0  0  0  0  0  0
    1.5936    2.5076    5.7713 H   0  0  0  0  0  0  0  0  0  0  0  0
   -1.3821   -0.2099    2.6442 H   0  0  0  0  0  0  0  0  0  0  0  0
   -0.8015   -1.8706    2.7128 H   0  0  0  0  0  0  0  0  0  0  0  0
    0.8475    0.7107    0.8802 H   0  0  0  0  0  0  0  0  0  0  0  0
   -1.5497   -1.0590    5.3236 H   0  0  0  0  0  0  0  0  0  0  0  0
    1.8973    2.7580    8.1607 H   0  0  0  0  0  0  0  0  0  0  0  0
    0.7432    1.3044    9.6943 H   0  0  0  0  0  0  0  0  0  0  0  0
   -0.8466   -0.5672   10.1055 H   0  0  0  0  0  0  0  0  0  0  0  0
   -2.6758   -2.5051    6.8656 H   0  0  0  0  0  0  0  0  0  0  0  0
    0.3055   -2.6242    0.6261 H   0  0  0  0  0  0  0  0  0  0  0  0
   -2.0013   -0.4344   -0.6941 H   0  0  0  0  0  0  0  0  0  0  0  0
   -2.3236   -2.2688    9.2564 H   0  0  0  0  0  0  0  0  0  0  0  0
    0.0238   -3.1110   -1.3127 H   0  0  0  0  0  0  0  0  0  0  0  0
  1  2  1  0  0  0  0 
  1  3  1  0  0  0  0 
  4  2  1  0  0  0  0 
  3  5  2  0  0  0  0 
  3  6  1  0  0  0  0 
  4  7  1  0  0  0  0 
  4  8  1  0  0  0  0 
  5  9  1  0  0  0  0 
  5 10  1  0  0  0  0 
  6 11  2  0  0  0  0 
  7 12  1  0  0  0  0 
  9 13  2  0  0  0  0 
  9 14  1  0  0  0  0 
 10 15  2  0  0  0  0 
 11 13  1  0  0  0  0 
 12 16  1  0  0  0  0 
 12 17  2  0  0  0  0 
 14 18  2  0  0  0  0 
 15 18  1  0  0  0  0 
 16 19  1  0  0  0  0 
 20  2  1  0  0  0  0 
 21  2  1  0  0  0  0 
 22  4  1  0  0  0  0 
 23  6  1  0  0  0  0 
 24  7  1  0  0  0  0 
 25  7  1  0  0  0  0 
 26  8  1  0  0  0  0 
 27 10  1  0  0  0  0 
 28 11  1  0  0  0  0 
 29 13  1  0  0  0  0 
 30 14  1  0  0  0  0 
 31 15  1  0  0  0  0 
 32 16  1  0  0  0  0 
 33 17  1  0  0  0  0 
 34 18  1  0  0  0  0 
 35 19  1  0  0  0  0 
M  END
> <cdk:Title>
nadoxolol

> <Conformer>
1

> <SuperDrugID>
SD001662

$$$$
