metrifonate
  CDK     0628171801

 20 19  0  0  0  0  0  0  0  0999 V2000
    0.4674   -0.0699   -0.3880 C   0  0  2  0  0  0  0  0  0  0  0  0
    0.8933   -0.2692    1.2705 P   0  0  2  0  0  0  0  0  0  0  0  0
   -0.4005   -1.1970   -1.0361 C   0  0  2  0  0  0  0  0  0  0  0  0
    1.6708    0.1290   -1.1286 O   0  0  0  0  0  0  0  0  0  0  0  0
    1.8649    0.9098    1.7644 O   0  0  0  0  0  0  0  0  0  0  0  0
    1.6468   -1.6694    1.5014 O   0  0  0  0  0  0  0  0  0  0  0  0
   -0.3024   -0.2770    2.1271 O   0  0  0  0  0  0  0  0  0  0  0  0
   -0.8264   -0.7622   -2.6909 Cl  0  0  0  0  0  0  0  0  0  0  0  0
   -1.9443   -1.4529   -0.2222 Cl  0  0  0  0  0  0  0  0  0  0  0  0
    0.4186   -2.7541   -1.1465 Cl  0  0  0  0  0  0  0  0  0  0  0  0
    1.3054    2.2358    1.7429 C   0  0  0  0  0  0  0  0  0  0  0  0
    3.0559   -1.7049    1.2180 C   0  0  0  0  0  0  0  0  0  0  0  0
   -0.1042    0.8589   -0.4566 H   0  0  0  0  0  0  0  0  0  0  0  0
    1.3848    0.3446   -2.0416 H   0  0  0  0  0  0  0  0  0  0  0  0
    2.0273    2.9131    2.1971 H   0  0  0  0  0  0  0  0  0  0  0  0
    0.3797    2.3006    2.3193 H   0  0  0  0  0  0  0  0  0  0  0  0
    1.1287    2.5768    0.7217 H   0  0  0  0  0  0  0  0  0  0  0  0
    3.3846   -2.7413    1.3032 H   0  0  0  0  0  0  0  0  0  0  0  0
    3.6147   -1.1165    1.9487 H   0  0  0  0  0  0  0  0  0  0  0  0
    3.2961   -1.3623    0.2103 H   0  0  0  0  0  0  0  0  0  0  0  0
  1  2  1  0  0  0  0 
  1  3  1  0  0  0  0 
  1  4  1  0  0  0  0 
  2  5  1  0  0  0  0 
  2  6  1  0  0  0  0 
  2  7  2  0  0  0  0 
  3  8  1  0  0  0  0 
  3  9  1  0  0  0  0 
  3 10  1  0  0  0  0 
  5 11  1  0  0  0  0 
  6 12  1  0  0  0  0 
 13  1  1  0  0  0  0 
 14  4  1  0  0  0  0 
 15 11  1  0  0  0  0 
 16 11  1  0  0  0  0 
 17 11  1  0  0  0  0 
 18 12  1  0  0  0  0 
 19 12  1  0  0  0  0 
 20 12  1  0  0  0  0 
M  END
> <cdk:Title>
metrifonate

> <Conformer>
1

> <SuperDrugID>
SD001587

$$$$
