moxonidine
  CDK     0628171801

 28 29  0  0  0  0  0  0  0  0999 V2000
   -1.1306    2.2377   -0.5324 N   0  0  0  0  0  0  0  0  0  0  0  0
   -2.0836    2.4452   -1.4413 C   0  0  0  0  0  0  0  0  0  0  0  0
   -0.3933    1.2174   -0.2730 C   0  0  0  0  0  0  0  0  0  0  0  0
   -3.0379    1.4755   -1.8508 C   0  0  0  0  0  0  0  0  0  0  0  0
   -2.2004    3.7303   -2.0216 C   0  0  0  0  0  0  0  0  0  0  0  0
    0.4622    1.2184    0.7185 N   0  0  0  0  0  0  0  0  0  0  0  0
   -0.3253    0.0671   -0.9062 N   0  0  0  0  0  0  0  0  0  0  0  0
   -3.1137    0.2198   -1.3132 O   0  0  0  0  0  0  0  0  0  0  0  0
   -3.9504    1.7840   -2.8087 N   0  0  0  0  0  0  0  0  0  0  0  0
   -1.2042    5.0337   -1.6027 Cl  0  0  0  0  0  0  0  0  0  0  0  0
   -3.1391    3.9687   -2.9682 N   0  0  0  0  0  0  0  0  0  0  0  0
    1.1810    0.0076    0.8345 C   0  0  2  0  0  0  0  0  0  0  0  0
    0.5873   -0.8363   -0.3124 C   0  0  2  0  0  0  0  0  0  0  0  0
   -3.8532    0.1794   -0.0784 C   0  0  0  0  0  0  0  0  0  0  0  0
   -4.0074    3.0123   -3.3808 C   0  0  0  0  0  0  0  0  0  0  0  0
   -5.0093    3.3056   -4.4128 C   0  0  0  0  0  0  0  0  0  0  0  0
    0.5910    1.9738    1.3160 H   0  0  0  0  0  0  0  0  0  0  0  0
   -0.8282   -0.1339   -1.7099 H   0  0  0  0  0  0  0  0  0  0  0  0
    1.0082   -0.4544    1.8106 H   0  0  0  0  0  0  0  0  0  0  0  0
    2.2488    0.1898    0.6885 H   0  0  0  0  0  0  0  0  0  0  0  0
    1.3549   -1.1355   -1.0301 H   0  0  0  0  0  0  0  0  0  0  0  0
    0.0623   -1.7175    0.0662 H   0  0  0  0  0  0  0  0  0  0  0  0
   -3.8551   -0.8517    0.2755 H   0  0  0  0  0  0  0  0  0  0  0  0
   -3.3846    0.8005    0.6915 H   0  0  0  0  0  0  0  0  0  0  0  0
   -4.8911    0.4947   -0.2187 H   0  0  0  0  0  0  0  0  0  0  0  0
   -4.8938    4.3240   -4.7867 H   0  0  0  0  0  0  0  0  0  0  0  0
   -4.8983    2.6124   -5.2482 H   0  0  0  0  0  0  0  0  0  0  0  0
   -6.0075    3.2025   -3.9860 H   0  0  0  0  0  0  0  0  0  0  0  0
  1  2  1  0  0  0  0 
  1  3  2  0  0  0  0 
  2  4  2  0  0  0  0 
  2  5  1  0  0  0  0 
  3  6  1  0  0  0  0 
  3  7  1  0  0  0  0 
  4  8  1  0  0  0  0 
  4  9  1  0  0  0  0 
  5 10  1  0  0  0  0 
  5 11  2  0  0  0  0 
  6 12  1  0  0  0  0 
  7 13  1  0  0  0  0 
  8 14  1  0  0  0  0 
  9 15  2  0  0  0  0 
 11 15  1  0  0  0  0 
 12 13  1  0  0  0  0 
 15 16  1  0  0  0  0 
 17  6  1  0  0  0  0 
 18  7  1  0  0  0  0 
 19 12  1  0  0  0  0 
 20 12  1  0  0  0  0 
 21 13  1  0  0  0  0 
 22 13  1  0  0  0  0 
 23 14  1  0  0  0  0 
 24 14  1  0  0  0  0 
 25 14  1  0  0  0  0 
 26 16  1  0  0  0  0 
 27 16  1  0  0  0  0 
 28 16  1  0  0  0  0 
M  END
> <cdk:Title>
moxonidine

> <Conformer>
1

> <SuperDrugID>
SD001652

$$$$
