clonitrate
  CDK     0628171801

 17 16  0  0  0  0  0  0  0  0999 V2000
   -0.7817   -0.4892    0.3069 C   0  0  1  0  0  0  0  0  0  0  0  0
   -1.9399    0.0700   -0.5586 C   0  0  1  0  0  0  0  0  0  0  0  0
   -0.8845    0.1965    1.5794 O   0  0  0  0  0  0  0  0  0  0  0  0
   -0.8736   -2.0380    0.4301 C   0  0  2  0  0  0  0  0  0  0  0  0
   -1.7683    1.4951   -0.7004 O   0  0  0  0  0  0  0  0  0  0  0  0
    0.1213    0.1124    2.3673 N   0  0  0  0  0  0  0  0  0  0  0  0
    0.5851   -2.7691    1.0966 Cl  0  0  0  0  0  0  0  0  0  0  0  0
   -2.7281    2.0511   -1.3337 N   0  0  0  0  0  0  0  0  0  0  0  0
   -0.0254   -0.3577    3.4243 O   0  0  0  0  0  0  0  0  0  0  0  0
    1.2481    0.6170    2.0735 O   0  0  0  0  0  0  0  0  0  0  0  0
   -3.8186    2.3266   -0.7482 O   0  0  0  0  0  0  0  0  0  0  0  0
   -2.5900    2.3521   -2.4518 O   0  0  0  0  0  0  0  0  0  0  0  0
    0.1544   -0.2291   -0.1985 H   0  0  0  0  0  0  0  0  0  0  0  0
   -1.9292   -0.4027   -1.5471 H   0  0  0  0  0  0  0  0  0  0  0  0
   -2.8932   -0.1583   -0.0680 H   0  0  0  0  0  0  0  0  0  0  0  0
   -1.0218   -2.4815   -0.5578 H   0  0  0  0  0  0  0  0  0  0  0  0
   -1.7214   -2.3121    1.0609 H   0  0  0  0  0  0  0  0  0  0  0  0
  1  2  1  0  0  0  0 
  1  3  1  0  0  0  0 
  1  4  1  0  0  0  0 
  2  5  1  0  0  0  0 
  3  6  1  0  0  0  0 
  4  7  1  0  0  0  0 
  5  8  1  0  0  0  0 
  6  9  2  0  0  0  0 
  6 10  1  0  0  0  0 
  8 11  1  0  0  0  0 
  8 12  2  0  0  0  0 
  1 13  1  0  0  0  0 
  2 14  1  0  0  0  0 
  2 15  1  0  0  0  0 
  4 16  1  0  0  0  0 
  4 17  1  0  0  0  0 
M  CHG  1   6   1
M  CHG  1   8   1
M  CHG  1  10  -1
M  CHG  1  11  -1
M  END
> <cdk:Title>
clonitrate

> <Conformer>
1

> <SuperDrugID>
SD002697

$$$$
