cyclocoumarol
  CDK     0628171801

 42 45  0  0  0  0  0  0  0  0999 V2000
   -0.4659   -1.2547    2.7098 O   0  0  0  0  0  0  0  0  0  0  0  0
    0.0562   -2.2180    2.1043 C   0  0  0  0  0  0  0  0  0  0  0  0
    0.0358   -2.3282    0.6943 C   0  0  0  0  0  0  0  0  0  0  0  0
    0.6482   -3.1853    2.8564 O   0  0  0  0  0  0  0  0  0  0  0  0
    0.6125   -3.4854    0.1057 C   0  0  0  0  0  0  0  0  0  0  0  0
   -0.6089   -1.2832   -0.1665 C   0  0  2  0  0  0  0  0  0  0  0  0
    1.2374   -4.2885    2.3173 C   0  0  0  0  0  0  0  0  0  0  0  0
    1.2451   -4.4673    0.9082 C   0  0  0  0  0  0  0  0  0  0  0  0
    0.5506   -3.6790   -1.2608 O   0  0  0  0  0  0  0  0  0  0  0  0
   -0.7128   -1.6650   -1.6831 C   0  0  2  0  0  0  0  0  0  0  0  0
    0.0533    0.0558   -0.0248 C   0  0  0  0  0  0  0  0  0  0  0  0
    1.8333   -5.2387    3.1678 C   0  0  0  0  0  0  0  0  0  0  0  0
    1.8787   -5.6168    0.3759 C   0  0  0  0  0  0  0  0  0  0  0  0
   -0.6591   -3.2062   -1.9068 C   0  0  2  0  0  0  0  0  0  0  0  0
   -0.7092    1.2156    0.2577 C   0  0  0  0  0  0  0  0  0  0  0  0
    1.4522    0.2039   -0.2128 C   0  0  0  0  0  0  0  0  0  0  0  0
    2.4489   -6.3794    2.6216 C   0  0  0  0  0  0  0  0  0  0  0  0
    2.4748   -6.5655    1.2281 C   0  0  0  0  0  0  0  0  0  0  0  0
   -1.8681   -3.7663   -1.3269 O   0  0  0  0  0  0  0  0  0  0  0  0
   -0.5737   -3.5198   -3.4293 C   0  0  0  0  0  0  0  0  0  0  0  0
   -0.1000    2.4826    0.3276 C   0  0  0  0  0  0  0  0  0  0  0  0
    2.0625    1.4689   -0.1401 C   0  0  0  0  0  0  0  0  0  0  0  0
   -2.0004   -5.1990   -1.2870 C   0  0  0  0  0  0  0  0  0  0  0  0
    1.2855    2.6098    0.1246 C   0  0  0  0  0  0  0  0  0  0  0  0
   -1.6422   -1.2239    0.1917 H   0  0  0  0  0  0  0  0  0  0  0  0
    0.1062   -1.2111   -2.2503 H   0  0  0  0  0  0  0  0  0  0  0  0
   -1.6484   -1.2667   -2.0913 H   0  0  0  0  0  0  0  0  0  0  0  0
    1.8209   -5.1019    4.1817 H   0  0  0  0  0  0  0  0  0  0  0  0
    1.9207   -5.7719   -0.6339 H   0  0  0  0  0  0  0  0  0  0  0  0
   -1.7193    1.1507    0.4021 H   0  0  0  0  0  0  0  0  0  0  0  0
    2.0404   -0.6091   -0.4110 H   0  0  0  0  0  0  0  0  0  0  0  0
    2.8769   -7.0747    3.2400 H   0  0  0  0  0  0  0  0  0  0  0  0
    2.9308   -7.3910    0.8358 H   0  0  0  0  0  0  0  0  0  0  0  0
    0.2662   -2.9914   -3.8847 H   0  0  0  0  0  0  0  0  0  0  0  0
   -0.4265   -4.5883   -3.5975 H   0  0  0  0  0  0  0  0  0  0  0  0
   -1.4945   -3.2122   -3.9320 H   0  0  0  0  0  0  0  0  0  0  0  0
   -0.6658    3.3131    0.5198 H   0  0  0  0  0  0  0  0  0  0  0  0
    3.0705    1.5571   -0.2867 H   0  0  0  0  0  0  0  0  0  0  0  0
   -2.8556   -5.4382   -0.6539 H   0  0  0  0  0  0  0  0  0  0  0  0
   -1.1165   -5.6765   -0.8591 H   0  0  0  0  0  0  0  0  0  0  0  0
   -2.1878   -5.6034   -2.2819 H   0  0  0  0  0  0  0  0  0  0  0  0
    1.7296    3.5300    0.1694 H   0  0  0  0  0  0  0  0  0  0  0  0
  1  2  2  0  0  0  0 
  2  3  1  0  0  0  0 
  2  4  1  0  0  0  0 
  3  5  2  0  0  0  0 
  3  6  1  0  0  0  0 
  4  7  1  0  0  0  0 
  5  8  1  0  0  0  0 
  5  9  1  0  0  0  0 
  6 10  1  0  0  0  0 
  6 11  1  0  0  0  0 
  7  8  1  0  0  0  0 
  7 12  2  0  0  0  0 
  8 13  2  0  0  0  0 
  9 14  1  0  0  0  0 
 10 14  1  0  0  0  0 
 11 15  2  0  0  0  0 
 11 16  1  0  0  0  0 
 12 17  1  0  0  0  0 
 13 18  1  0  0  0  0 
 14 19  1  0  0  0  0 
 14 20  1  0  0  0  0 
 15 21  1  0  0  0  0 
 16 22  2  0  0  0  0 
 17 18  2  0  0  0  0 
 19 23  1  0  0  0  0 
 21 24  2  0  0  0  0 
 22 24  1  0  0  0  0 
  6 25  1  0  0  0  0 
 10 26  1  0  0  0  0 
 10 27  1  0  0  0  0 
 12 28  1  0  0  0  0 
 13 29  1  0  0  0  0 
 15 30  1  0  0  0  0 
 16 31  1  0  0  0  0 
 17 32  1  0  0  0  0 
 18 33  1  0  0  0  0 
 20 34  1  0  0  0  0 
 20 35  1  0  0  0  0 
 20 36  1  0  0  0  0 
 21 37  1  0  0  0  0 
 22 38  1  0  0  0  0 
 23 39  1  0  0  0  0 
 23 40  1  0  0  0  0 
 23 41  1  0  0  0  0 
 24 42  1  0  0  0  0 
M  END
> <cdk:Title>
cyclocoumarol

> <Conformer>
1

> <SuperDrugID>
SD002705

$$$$
