5-aminolevulinic acid hexyl ester
  CDK     0628171801

 36 35  0  0  0  0  0  0  0  0999 V2000
   -0.2327    2.0360   -6.0378 C   0  0  0  0  0  0  0  0  0  0  0  0
   -0.7404    1.7042   -7.3833 C   0  0  2  0  0  0  0  0  0  0  0  0
    0.7790    1.3012   -5.4831 O   0  0  0  0  0  0  0  0  0  0  0  0
   -0.7538    2.9904   -5.4129 O   0  0  0  0  0  0  0  0  0  0  0  0
   -0.4692    2.8440   -8.4030 C   0  0  1  0  0  0  0  0  0  0  0  0
    1.3897    1.5856   -4.2166 C   0  0  1  0  0  0  0  0  0  0  0  0
   -1.0251    2.5315   -9.7398 C   0  0  0  0  0  0  0  0  0  0  0  0
    2.4541    0.5266   -3.8375 C   0  0  1  0  0  0  0  0  0  0  0  0
   -0.2405    1.8236  -10.7704 C   0  0  1  0  0  0  0  0  0  0  0  0
   -2.2025    2.8738  -10.0030 O   0  0  0  0  0  0  0  0  0  0  0  0
    3.1018    0.8490   -2.4637 C   0  0  2  0  0  0  0  0  0  0  0  0
    0.5152    2.7922  -11.5687 N   0  0  2  0  0  0  0  0  0  0  0  0
    4.1714   -0.1759   -1.9999 C   0  0  1  0  0  0  0  0  0  0  0  0
    4.7659    0.2132   -0.6185 C   0  0  1  0  0  0  0  0  0  0  0  0
    5.8358   -0.7775   -0.1107 C   0  0  0  0  0  0  0  0  0  0  0  0
   -1.8149    1.5141   -7.3056 H   0  0  0  0  0  0  0  0  0  0  0  0
   -0.2655    0.7848   -7.7357 H   0  0  0  0  0  0  0  0  0  0  0  0
   -0.9136    3.7771   -8.0464 H   0  0  0  0  0  0  0  0  0  0  0  0
    0.6079    3.0129   -8.4898 H   0  0  0  0  0  0  0  0  0  0  0  0
    1.8599    2.5716   -4.2721 H   0  0  0  0  0  0  0  0  0  0  0  0
    0.6148    1.6110   -3.4453 H   0  0  0  0  0  0  0  0  0  0  0  0
    1.9797   -0.4574   -3.7974 H   0  0  0  0  0  0  0  0  0  0  0  0
    3.2259    0.5018   -4.6109 H   0  0  0  0  0  0  0  0  0  0  0  0
    0.4495    1.1170  -10.3063 H   0  0  0  0  0  0  0  0  0  0  0  0
   -0.9004    1.2682  -11.4380 H   0  0  0  0  0  0  0  0  0  0  0  0
    2.3155    0.8919   -1.7054 H   0  0  0  0  0  0  0  0  0  0  0  0
    3.5704    1.8352   -2.5190 H   0  0  0  0  0  0  0  0  0  0  0  0
    1.1007    2.2620  -12.2180 H   0  0  0  0  0  0  0  0  0  0  0  0
    1.1445    3.2903  -10.9366 H   0  0  0  0  0  0  0  0  0  0  0  0
    3.7162   -1.1677   -1.9297 H   0  0  0  0  0  0  0  0  0  0  0  0
    4.9756   -0.2202   -2.7395 H   0  0  0  0  0  0  0  0  0  0  0  0
    5.2196    1.2062   -0.6861 H   0  0  0  0  0  0  0  0  0  0  0  0
    3.9616    0.2606    0.1213 H   0  0  0  0  0  0  0  0  0  0  0  0
    6.2109   -0.4475    0.8595 H   0  0  0  0  0  0  0  0  0  0  0  0
    5.4068   -1.7743    0.0020 H   0  0  0  0  0  0  0  0  0  0  0  0
    6.6717   -0.8247   -0.8101 H   0  0  0  0  0  0  0  0  0  0  0  0
  1  2  1  0  0  0  0 
  1  3  1  0  0  0  0 
  1  4  2  0  0  0  0 
  2  5  1  0  0  0  0 
  3  6  1  0  0  0  0 
  5  7  1  0  0  0  0 
  6  8  1  0  0  0  0 
  7  9  1  0  0  0  0 
  7 10  2  0  0  0  0 
  8 11  1  0  0  0  0 
  9 12  1  0  0  0  0 
 11 13  1  0  0  0  0 
 13 14  1  0  0  0  0 
 14 15  1  0  0  0  0 
  2 16  1  0  0  0  0 
  2 17  1  0  0  0  0 
  5 18  1  0  0  0  0 
  5 19  1  0  0  0  0 
  6 20  1  0  0  0  0 
  6 21  1  0  0  0  0 
  8 22  1  0  0  0  0 
  8 23  1  0  0  0  0 
  9 24  1  0  0  0  0 
  9 25  1  0  0  0  0 
 11 26  1  0  0  0  0 
 11 27  1  0  0  0  0 
 12 28  1  0  0  0  0 
 12 29  1  0  0  0  0 
 13 30  1  0  0  0  0 
 13 31  1  0  0  0  0 
 14 32  1  0  0  0  0 
 14 33  1  0  0  0  0 
 15 34  1  0  0  0  0 
 15 35  1  0  0  0  0 
 15 36  1  0  0  0  0 
M  END
> <cdk:Title>
5-aminolevulinic acid hexyl ester

> <Conformer>
1

> <SuperDrugID>
SD000133

$$$$
