sulfaperin
  CDK     0628171801

 30 31  0  0  0  0  0  0  0  0999 V2000
   -4.1110   -1.4296    0.6808 S   0  0  1  0  0  0  0  0  0  0  0  0
   -4.2606   -0.1482   -0.4526 N   0  0  0  0  0  0  0  0  0  0  0  0
   -4.8757   -1.0073    2.0272 O   0  0  0  0  0  0  0  0  0  0  0  0
   -4.8554   -2.7134    0.0668 O   0  0  0  0  0  0  0  0  0  0  0  0
   -2.4150   -1.8284    1.0035 C   0  0  0  0  0  0  0  0  0  0  0  0
   -3.5088    0.9770   -0.4860 C   0  0  0  0  0  0  0  0  0  0  0  0
   -1.5403   -2.1164   -0.0649 C   0  0  0  0  0  0  0  0  0  0  0  0
   -1.9268   -1.8585    2.3261 C   0  0  0  0  0  0  0  0  0  0  0  0
   -3.7777    1.8698   -1.4707 N   0  0  0  0  0  0  0  0  0  0  0  0
   -2.5213    1.2620    0.4053 N   0  0  0  0  0  0  0  0  0  0  0  0
   -0.1874   -2.4168    0.1862 C   0  0  0  0  0  0  0  0  0  0  0  0
   -0.5761   -2.1552    2.5787 C   0  0  0  0  0  0  0  0  0  0  0  0
   -3.0855    3.0286   -1.6004 C   0  0  0  0  0  0  0  0  0  0  0  0
   -1.7940    2.4072    0.3259 C   0  0  0  0  0  0  0  0  0  0  0  0
    0.2984   -2.4308    1.5100 C   0  0  0  0  0  0  0  0  0  0  0  0
   -2.0448    3.3456   -0.7001 C   0  0  0  0  0  0  0  0  0  0  0  0
    1.5899   -2.7061    1.7685 N   0  0  0  0  0  0  0  0  0  0  0  0
   -1.2470    4.5895   -0.8156 C   0  0  0  0  0  0  0  0  0  0  0  0
   -4.9616   -0.2327   -1.1164 H   0  0  0  0  0  0  0  0  0  0  0  0
   -1.8834   -2.1048   -1.0281 H   0  0  0  0  0  0  0  0  0  0  0  0
   -2.5471   -1.6627    3.1124 H   0  0  0  0  0  0  0  0  0  0  0  0
    0.4390   -2.6265   -0.5960 H   0  0  0  0  0  0  0  0  0  0  0  0
   -0.2337   -2.1730    3.5428 H   0  0  0  0  0  0  0  0  0  0  0  0
   -3.3377    3.6648   -2.3579 H   0  0  0  0  0  0  0  0  0  0  0  0
   -1.0644    2.5779    1.0221 H   0  0  0  0  0  0  0  0  0  0  0  0
    1.9076   -2.6997    2.6851 H   0  0  0  0  0  0  0  0  0  0  0  0
    2.2039   -2.9027    1.0445 H   0  0  0  0  0  0  0  0  0  0  0  0
   -0.1931    4.3389   -0.9541 H   0  0  0  0  0  0  0  0  0  0  0  0
   -1.5661    5.1987   -1.6645 H   0  0  0  0  0  0  0  0  0  0  0  0
   -1.3544    5.1845    0.0930 H   0  0  0  0  0  0  0  0  0  0  0  0
  1  2  1  0  0  0  0 
  1  3  2  0  0  0  0 
  1  4  2  0  0  0  0 
  1  5  1  0  0  0  0 
  2  6  1  0  0  0  0 
  5  7  2  0  0  0  0 
  5  8  1  0  0  0  0 
  6  9  2  0  0  0  0 
  6 10  1  0  0  0  0 
  7 11  1  0  0  0  0 
  8 12  2  0  0  0  0 
  9 13  1  0  0  0  0 
 10 14  2  0  0  0  0 
 11 15  2  0  0  0  0 
 12 15  1  0  0  0  0 
 13 16  2  0  0  0  0 
 14 16  1  0  0  0  0 
 15 17  1  0  0  0  0 
 16 18  1  0  0  0  0 
  2 19  1  0  0  0  0 
  7 20  1  0  0  0  0 
  8 21  1  0  0  0  0 
 11 22  1  0  0  0  0 
 12 23  1  0  0  0  0 
 13 24  1  0  0  0  0 
 14 25  1  0  0  0  0 
 17 26  1  0  0  0  0 
 17 27  1  0  0  0  0 
 18 28  1  0  0  0  0 
 18 29  1  0  0  0  0 
 18 30  1  0  0  0  0 
M  END
> <cdk:Title>
sulfaperin

> <Conformer>
1

> <SuperDrugID>
SD002268

$$$$
