bamifylline
  CDK     0628171801

 55 57  0  0  0  0  0  0  0  0999 V2000
   -2.6570   -1.3429   -1.8246 C   0  0  2  0  0  0  0  0  0  0  0  0
   -1.3349   -2.0023   -2.3026 C   0  0  1  0  0  0  0  0  0  0  0  0
   -2.7593    0.0350   -2.2430 N   0  0  0  0  0  0  0  0  0  0  0  0
   -1.0977   -3.4076   -1.8209 N   0  0  1  0  0  0  0  0  0  0  0  0
   -3.2482    0.5071   -3.4154 C   0  0  0  0  0  0  0  0  0  0  0  0
   -2.3834    1.1308   -1.5299 C   0  0  0  0  0  0  0  0  0  0  0  0
   -0.8591   -3.5827   -0.3470 C   0  0  2  0  0  0  0  0  0  0  0  0
   -2.0037   -4.4306   -2.4445 C   0  0  1  0  0  0  0  0  0  0  0  0
   -3.2056    1.8953   -3.3808 C   0  0  0  0  0  0  0  0  0  0  0  0
   -3.7560   -0.1082   -4.5753 C   0  0  0  0  0  0  0  0  0  0  0  0
   -1.7571    1.1820   -0.1879 C   0  0  2  0  0  0  0  0  0  0  0  0
   -2.6567    2.2570   -2.2146 N   0  0  0  0  0  0  0  0  0  0  0  0
    0.3192   -2.7515    0.2108 C   0  0  2  0  0  0  0  0  0  0  0  0
   -1.4260   -5.8660   -2.4315 C   0  0  0  0  0  0  0  0  0  0  0  0
   -3.6719    2.6779   -4.3959 N   0  0  0  0  0  0  0  0  0  0  0  0
   -3.7870   -1.3610   -4.6224 O   0  0  0  0  0  0  0  0  0  0  0  0
   -4.1975    0.6699   -5.6234 N   0  0  0  0  0  0  0  0  0  0  0  0
   -2.7689    1.2482    0.9000 C   0  0  0  0  0  0  0  0  0  0  0  0
    0.6512   -3.1685    1.5293 O   0  0  0  0  0  0  0  0  0  0  0  0
   -3.6472    4.1208   -4.2951 C   0  0  0  0  0  0  0  0  0  0  0  0
   -4.1798    2.0476   -5.5100 C   0  0  0  0  0  0  0  0  0  0  0  0
   -4.7067    0.0337   -6.8237 C   0  0  0  0  0  0  0  0  0  0  0  0
   -2.9050    0.2022    1.8452 C   0  0  0  0  0  0  0  0  0  0  0  0
   -3.6118    2.3798    1.0202 C   0  0  0  0  0  0  0  0  0  0  0  0
   -4.6440    2.7551   -6.4400 O   0  0  0  0  0  0  0  0  0  0  0  0
   -3.8690    0.2785    2.8681 C   0  0  0  0  0  0  0  0  0  0  0  0
   -4.5789    2.4551    2.0384 C   0  0  0  0  0  0  0  0  0  0  0  0
   -4.7123    1.4005    2.9583 C   0  0  0  0  0  0  0  0  0  0  0  0
   -2.7206   -1.4013   -0.7394 H   0  0  0  0  0  0  0  0  0  0  0  0
   -3.5077   -1.9131   -2.1967 H   0  0  0  0  0  0  0  0  0  0  0  0
   -1.3158   -1.9938   -3.3947 H   0  0  0  0  0  0  0  0  0  0  0  0
   -0.4980   -1.3698   -2.0027 H   0  0  0  0  0  0  0  0  0  0  0  0
   -0.6034   -4.6231   -0.1418 H   0  0  0  0  0  0  0  0  0  0  0  0
   -1.7660   -3.3565    0.2174 H   0  0  0  0  0  0  0  0  0  0  0  0
   -2.9803   -4.4277   -1.9529 H   0  0  0  0  0  0  0  0  0  0  0  0
   -2.1676   -4.1835   -3.4977 H   0  0  0  0  0  0  0  0  0  0  0  0
   -1.1159    2.0648   -0.1273 H   0  0  0  0  0  0  0  0  0  0  0  0
   -1.0984    0.3233   -0.0656 H   0  0  0  0  0  0  0  0  0  0  0  0
    0.0621   -1.6956    0.2535 H   0  0  0  0  0  0  0  0  0  0  0  0
    1.1943   -2.8768   -0.4296 H   0  0  0  0  0  0  0  0  0  0  0  0
   -1.4937   -6.3058   -1.4359 H   0  0  0  0  0  0  0  0  0  0  0  0
   -0.3812   -5.8505   -2.7460 H   0  0  0  0  0  0  0  0  0  0  0  0
   -1.9865   -6.5050   -3.1160 H   0  0  0  0  0  0  0  0  0  0  0  0
    1.3916   -2.5837    1.7970 H   0  0  0  0  0  0  0  0  0  0  0  0
   -3.0970    4.5500   -5.1364 H   0  0  0  0  0  0  0  0  0  0  0  0
   -3.1797    4.4888   -3.3785 H   0  0  0  0  0  0  0  0  0  0  0  0
   -4.6702    4.5024   -4.3174 H   0  0  0  0  0  0  0  0  0  0  0  0
   -5.7769   -0.1420   -6.7026 H   0  0  0  0  0  0  0  0  0  0  0  0
   -4.5532    0.6421   -7.7178 H   0  0  0  0  0  0  0  0  0  0  0  0
   -4.2190   -0.9228   -7.0279 H   0  0  0  0  0  0  0  0  0  0  0  0
   -2.3043   -0.6240    1.7981 H   0  0  0  0  0  0  0  0  0  0  0  0
   -3.5229    3.1615    0.3661 H   0  0  0  0  0  0  0  0  0  0  0  0
   -3.9584   -0.4815    3.5478 H   0  0  0  0  0  0  0  0  0  0  0  0
   -5.1806    3.2786    2.1133 H   0  0  0  0  0  0  0  0  0  0  0  0
   -5.4178    1.4536    3.6971 H   0  0  0  0  0  0  0  0  0  0  0  0
  1  2  1  0  0  0  0 
  1  3  1  0  0  0  0 
  2  4  1  0  0  0  0 
  3  5  1  0  0  0  0 
  3  6  1  0  0  0  0 
  4  7  1  0  0  0  0 
  4  8  1  0  0  0  0 
  5  9  2  0  0  0  0 
  5 10  1  0  0  0  0 
  6 11  1  0  0  0  0 
  6 12  2  0  0  0  0 
  7 13  1  0  0  0  0 
  8 14  1  0  0  0  0 
  9 12  1  0  0  0  0 
  9 15  1  0  0  0  0 
 10 16  2  0  0  0  0 
 10 17  1  0  0  0  0 
 11 18  1  0  0  0  0 
 13 19  1  0  0  0  0 
 15 20  1  0  0  0  0 
 15 21  1  0  0  0  0 
 17 21  1  0  0  0  0 
 17 22  1  0  0  0  0 
 18 23  2  0  0  0  0 
 18 24  1  0  0  0  0 
 21 25  2  0  0  0  0 
 23 26  1  0  0  0  0 
 24 27  2  0  0  0  0 
 26 28  2  0  0  0  0 
 27 28  1  0  0  0  0 
  1 29  1  0  0  0  0 
  1 30  1  0  0  0  0 
  2 31  1  0  0  0  0 
  2 32  1  0  0  0  0 
  7 33  1  0  0  0  0 
  7 34  1  0  0  0  0 
  8 35  1  0  0  0  0 
  8 36  1  0  0  0  0 
 11 37  1  0  0  0  0 
 11 38  1  0  0  0  0 
 13 39  1  0  0  0  0 
 13 40  1  0  0  0  0 
 14 41  1  0  0  0  0 
 14 42  1  0  0  0  0 
 14 43  1  0  0  0  0 
 19 44  1  0  0  0  0 
 20 45  1  0  0  0  0 
 20 46  1  0  0  0  0 
 20 47  1  0  0  0  0 
 22 48  1  0  0  0  0 
 22 49  1  0  0  0  0 
 22 50  1  0  0  0  0 
 23 51  1  0  0  0  0 
 24 52  1  0  0  0  0 
 26 53  1  0  0  0  0 
 27 54  1  0  0  0  0 
 28 55  1  0  0  0  0 
M  END
> <cdk:Title>
bamifylline

> <Conformer>
1

> <SuperDrugID>
SD000240

$$$$
