benactyzine
  CDK     0628171801

 49 50  0  0  0  0  0  0  0  0999 V2000
    0.3635   -5.6288   -7.5851 C   0  0  1  0  0  0  0  0  0  0  0  0
    0.7068   -5.5859   -6.1279 C   0  0  0  0  0  0  0  0  0  0  0  0
    1.6104   -5.7207   -8.2942 O   0  0  0  0  0  0  0  0  0  0  0  0
   -0.4943   -6.8446   -7.8316 C   0  0  0  0  0  0  0  0  0  0  0  0
   -0.2706   -4.3741   -8.1470 C   0  0  0  0  0  0  0  0  0  0  0  0
   -0.2737   -5.4384   -5.1830 O   0  0  0  0  0  0  0  0  0  0  0  0
    1.8976   -5.6896   -5.7449 O   0  0  0  0  0  0  0  0  0  0  0  0
   -1.8765   -6.8346   -7.5050 C   0  0  0  0  0  0  0  0  0  0  0  0
    0.0304   -8.0260   -8.4188 C   0  0  0  0  0  0  0  0  0  0  0  0
   -0.6442   -4.3372   -9.5179 C   0  0  0  0  0  0  0  0  0  0  0  0
   -0.5179   -3.2011   -7.3830 C   0  0  0  0  0  0  0  0  0  0  0  0
   -0.0763   -5.2439   -3.7720 C   0  0  1  0  0  0  0  0  0  0  0  0
   -2.7060   -7.9326   -7.7996 C   0  0  0  0  0  0  0  0  0  0  0  0
   -0.7974   -9.1250   -8.7148 C   0  0  0  0  0  0  0  0  0  0  0  0
   -1.2536   -3.2044  -10.0882 C   0  0  0  0  0  0  0  0  0  0  0  0
   -1.1343   -2.0684   -7.9475 C   0  0  0  0  0  0  0  0  0  0  0  0
   -1.4288   -5.1064   -3.0214 C   0  0  1  0  0  0  0  0  0  0  0  0
   -2.1687   -9.0754   -8.4152 C   0  0  0  0  0  0  0  0  0  0  0  0
   -1.5042   -2.0693   -9.3017 C   0  0  0  0  0  0  0  0  0  0  0  0
   -1.8100   -6.3572   -2.2819 N   0  0  1  0  0  0  0  0  0  0  0  0
   -2.7023   -6.1125   -1.0966 C   0  0  2  0  0  0  0  0  0  0  0  0
   -2.2497   -7.4706   -3.1899 C   0  0  2  0  0  0  0  0  0  0  0  0
   -1.9226   -5.5690    0.1232 C   0  0  0  0  0  0  0  0  0  0  0  0
   -2.0595   -8.8763   -2.5777 C   0  0  0  0  0  0  0  0  0  0  0  0
    1.3751   -5.7875   -9.2425 H   0  0  0  0  0  0  0  0  0  0  0  0
   -2.2986   -6.0161   -7.0596 H   0  0  0  0  0  0  0  0  0  0  0  0
    1.0241   -8.1014   -8.6443 H   0  0  0  0  0  0  0  0  0  0  0  0
   -0.4744   -5.1467  -10.1199 H   0  0  0  0  0  0  0  0  0  0  0  0
   -0.2535   -3.1445   -6.4002 H   0  0  0  0  0  0  0  0  0  0  0  0
    0.5077   -6.0676   -3.3512 H   0  0  0  0  0  0  0  0  0  0  0  0
    0.5010   -4.3245   -3.6402 H   0  0  0  0  0  0  0  0  0  0  0  0
   -3.7038   -7.8957   -7.5742 H   0  0  0  0  0  0  0  0  0  0  0  0
   -0.4006   -9.9600   -9.1539 H   0  0  0  0  0  0  0  0  0  0  0  0
   -1.5166   -3.2059  -11.0753 H   0  0  0  0  0  0  0  0  0  0  0  0
   -1.3138   -1.2420   -7.3720 H   0  0  0  0  0  0  0  0  0  0  0  0
   -1.3204   -4.2709   -2.3258 H   0  0  0  0  0  0  0  0  0  0  0  0
   -2.2231   -4.8206   -3.7175 H   0  0  0  0  0  0  0  0  0  0  0  0
   -2.7720   -9.8685   -8.6450 H   0  0  0  0  0  0  0  0  0  0  0  0
   -1.9541   -1.2481   -9.7137 H   0  0  0  0  0  0  0  0  0  0  0  0
   -3.1779   -7.0362   -0.7637 H   0  0  0  0  0  0  0  0  0  0  0  0
   -3.5087   -5.4207   -1.3557 H   0  0  0  0  0  0  0  0  0  0  0  0
   -1.6567   -7.4699   -4.1077 H   0  0  0  0  0  0  0  0  0  0  0  0
   -3.2936   -7.3319   -3.4835 H   0  0  0  0  0  0  0  0  0  0  0  0
   -2.5739   -5.5430    0.9985 H   0  0  0  0  0  0  0  0  0  0  0  0
   -1.5600   -4.5566   -0.0537 H   0  0  0  0  0  0  0  0  0  0  0  0
   -1.0694   -6.2141    0.3395 H   0  0  0  0  0  0  0  0  0  0  0  0
   -2.1777   -9.6349   -3.3530 H   0  0  0  0  0  0  0  0  0  0  0  0
   -2.8012   -9.0718   -1.8041 H   0  0  0  0  0  0  0  0  0  0  0  0
   -1.0609   -8.9693   -2.1463 H   0  0  0  0  0  0  0  0  0  0  0  0
  1  2  1  0  0  0  0 
  1  3  1  0  0  0  0 
  1  4  1  0  0  0  0 
  1  5  1  0  0  0  0 
  2  6  1  0  0  0  0 
  2  7  2  0  0  0  0 
  4  8  2  0  0  0  0 
  4  9  1  0  0  0  0 
  5 10  2  0  0  0  0 
  5 11  1  0  0  0  0 
  6 12  1  0  0  0  0 
  8 13  1  0  0  0  0 
  9 14  2  0  0  0  0 
 10 15  1  0  0  0  0 
 11 16  2  0  0  0  0 
 12 17  1  0  0  0  0 
 13 18  2  0  0  0  0 
 14 18  1  0  0  0  0 
 15 19  2  0  0  0  0 
 16 19  1  0  0  0  0 
 17 20  1  0  0  0  0 
 20 21  1  0  0  0  0 
 20 22  1  0  0  0  0 
 21 23  1  0  0  0  0 
 22 24  1  0  0  0  0 
  3 25  1  0  0  0  0 
  8 26  1  0  0  0  0 
  9 27  1  0  0  0  0 
 10 28  1  0  0  0  0 
 11 29  1  0  0  0  0 
 12 30  1  0  0  0  0 
 12 31  1  0  0  0  0 
 13 32  1  0  0  0  0 
 14 33  1  0  0  0  0 
 15 34  1  0  0  0  0 
 16 35  1  0  0  0  0 
 17 36  1  0  0  0  0 
 17 37  1  0  0  0  0 
 18 38  1  0  0  0  0 
 19 39  1  0  0  0  0 
 21 40  1  0  0  0  0 
 21 41  1  0  0  0  0 
 22 42  1  0  0  0  0 
 22 43  1  0  0  0  0 
 23 44  1  0  0  0  0 
 23 45  1  0  0  0  0 
 23 46  1  0  0  0  0 
 24 47  1  0  0  0  0 
 24 48  1  0  0  0  0 
 24 49  1  0  0  0  0 
M  END
> <cdk:Title>
benactyzine

> <Conformer>
1

> <SuperDrugID>
SD000250

$$$$
