azelnidipine
  CDK     0628171801

 77 81  0  0  0  0  0  0  0  0999 V2000
   -2.1878   -4.6488   -3.0955 C   0  0  0  0  0  0  0  0  0  0  0  0
   -1.9465   -3.4850   -2.4102 O   0  0  0  0  0  0  0  0  0  0  0  0
   -3.1950   -4.7133   -3.8401 O   0  0  0  0  0  0  0  0  0  0  0  0
   -1.3084   -5.7375   -2.9402 C   0  0  0  0  0  0  0  0  0  0  0  0
   -2.7071   -2.2627   -2.3521 C   0  0  2  0  0  0  0  0  0  0  0  0
    0.1735   -5.3664   -2.7678 C   0  0  1  0  0  0  0  0  0  0  0  0
   -1.7855   -7.0438   -2.9494 C   0  0  0  0  0  0  0  0  0  0  0  0
   -1.8213   -1.0053   -2.3059 C   0  0  2  0  0  0  0  0  0  0  0  0
   -3.1188   -1.9202   -0.9128 C   0  0  1  0  0  0  0  0  0  0  0  0
    0.9029   -6.6822   -2.1048 C   0  0  1  0  0  0  0  0  0  0  0  0
    0.7565   -4.9994   -4.1068 C   0  0  0  0  0  0  0  0  0  0  0  0
   -3.0453   -7.4051   -3.1032 N   0  0  0  0  0  0  0  0  0  0  0  0
   -0.9558   -8.0457   -2.7849 N   0  0  0  0  0  0  0  0  0  0  0  0
   -2.1425   -0.7972   -0.8625 N   0  0  1  0  0  0  0  0  0  0  0  0
    0.8696   -6.6045   -0.6190 C   0  0  0  0  0  0  0  0  0  0  0  0
    0.2824   -8.0187   -2.4147 C   0  0  0  0  0  0  0  0  0  0  0  0
    1.0939   -5.9843   -5.0718 C   0  0  0  0  0  0  0  0  0  0  0  0
    0.9688   -3.6450   -4.4587 C   0  0  0  0  0  0  0  0  0  0  0  0
   -0.9727   -0.9393    0.0757 C   0  0  1  0  0  0  0  0  0  0  0  0
    2.0511   -6.6236    0.0699 O   0  0  0  0  0  0  0  0  0  0  0  0
   -0.2287   -6.5825   -0.0108 O   0  0  0  0  0  0  0  0  0  0  0  0
    1.0364   -9.2560   -2.2954 C   0  0  0  0  0  0  0  0  0  0  0  0
    1.6634   -5.6655   -6.3325 C   0  0  0  0  0  0  0  0  0  0  0  0
    1.4944   -3.2932   -5.7145 C   0  0  0  0  0  0  0  0  0  0  0  0
   -0.0880    0.2732    0.0390 C   0  0  0  0  0  0  0  0  0  0  0  0
   -1.3743   -1.2429    1.4921 C   0  0  0  0  0  0  0  0  0  0  0  0
    2.2523   -6.6848    1.4919 C   0  0  1  0  0  0  0  0  0  0  0  0
    2.0122   -6.6344   -7.2043 N   0  0  0  0  0  0  0  0  0  0  0  0
    1.8455   -4.2926   -6.6365 C   0  0  0  0  0  0  0  0  0  0  0  0
    1.3220    0.1437    0.1186 C   0  0  0  0  0  0  0  0  0  0  0  0
   -0.6284    1.5802   -0.0643 C   0  0  0  0  0  0  0  0  0  0  0  0
   -1.0106   -2.4808    2.0826 C   0  0  0  0  0  0  0  0  0  0  0  0
   -2.1224   -0.3325    2.2812 C   0  0  0  0  0  0  0  0  0  0  0  0
    3.7729   -6.8180    1.7424 C   0  0  0  0  0  0  0  0  0  0  0  0
    1.6680   -5.4557    2.2332 C   0  0  0  0  0  0  0  0  0  0  0  0
    2.4207   -6.4099   -8.2766 O   0  0  0  0  0  0  0  0  0  0  0  0
    1.9291   -7.8744   -6.9246 O   0  0  0  0  0  0  0  0  0  0  0  0
    2.1593    1.2761    0.0852 C   0  0  0  0  0  0  0  0  0  0  0  0
    0.2047    2.7139   -0.0919 C   0  0  0  0  0  0  0  0  0  0  0  0
   -1.3501   -2.7865    3.4122 C   0  0  0  0  0  0  0  0  0  0  0  0
   -2.4564   -0.6311    3.6160 C   0  0  0  0  0  0  0  0  0  0  0  0
    1.5999    2.5611   -0.0259 C   0  0  0  0  0  0  0  0  0  0  0  0
   -2.0658   -1.8565    4.1836 C   0  0  0  0  0  0  0  0  0  0  0  0
   -3.5357   -2.1910   -3.0631 H   0  0  0  0  0  0  0  0  0  0  0  0
    0.2937   -4.5294   -2.0702 H   0  0  0  0  0  0  0  0  0  0  0  0
   -2.2086   -0.1852   -2.9166 H   0  0  0  0  0  0  0  0  0  0  0  0
   -0.7713   -1.2103   -2.5383 H   0  0  0  0  0  0  0  0  0  0  0  0
   -4.1441   -1.5441   -0.8458 H   0  0  0  0  0  0  0  0  0  0  0  0
   -2.9497   -2.7399   -0.2098 H   0  0  0  0  0  0  0  0  0  0  0  0
    1.9891   -6.7846   -2.3768 H   0  0  0  0  0  0  0  0  0  0  0  0
   -3.7467   -6.7430   -3.1846 H   0  0  0  0  0  0  0  0  0  0  0  0
   -3.2744   -8.3484   -3.1329 H   0  0  0  0  0  0  0  0  0  0  0  0
    0.9213   -6.9658   -4.8535 H   0  0  0  0  0  0  0  0  0  0  0  0
    0.7311   -2.8969   -3.8055 H   0  0  0  0  0  0  0  0  0  0  0  0
   -0.3774   -1.7828   -0.2939 H   0  0  0  0  0  0  0  0  0  0  0  0
    1.4802   -9.3335   -1.3007 H   0  0  0  0  0  0  0  0  0  0  0  0
    0.4111  -10.1370   -2.4581 H   0  0  0  0  0  0  0  0  0  0  0  0
    1.8389   -9.2603   -3.0340 H   0  0  0  0  0  0  0  0  0  0  0  0
    1.6232   -2.3088   -5.9624 H   0  0  0  0  0  0  0  0  0  0  0  0
    1.7657   -7.5917    1.8669 H   0  0  0  0  0  0  0  0  0  0  0  0
    2.2404   -4.0075   -7.5378 H   0  0  0  0  0  0  0  0  0  0  0  0
    1.7540   -0.7798    0.2040 H   0  0  0  0  0  0  0  0  0  0  0  0
   -1.6391    1.7215   -0.1204 H   0  0  0  0  0  0  0  0  0  0  0  0
   -0.4956   -3.1784    1.5425 H   0  0  0  0  0  0  0  0  0  0  0  0
   -2.4260    0.5623    1.8964 H   0  0  0  0  0  0  0  0  0  0  0  0
    3.9704   -6.9671    2.8058 H   0  0  0  0  0  0  0  0  0  0  0  0
    4.1705   -7.6737    1.1938 H   0  0  0  0  0  0  0  0  0  0  0  0
    4.2962   -5.9189    1.4095 H   0  0  0  0  0  0  0  0  0  0  0  0
    1.9088   -5.5062    3.2977 H   0  0  0  0  0  0  0  0  0  0  0  0
    0.5819   -5.4323    2.1367 H   0  0  0  0  0  0  0  0  0  0  0  0
    2.0778   -4.5327    1.8161 H   0  0  0  0  0  0  0  0  0  0  0  0
    3.1751    1.1655    0.1439 H   0  0  0  0  0  0  0  0  0  0  0  0
   -0.2060    3.6488   -0.1600 H   0  0  0  0  0  0  0  0  0  0  0  0
   -1.0727   -3.6837    3.8182 H   0  0  0  0  0  0  0  0  0  0  0  0
   -2.9849    0.0413    4.1768 H   0  0  0  0  0  0  0  0  0  0  0  0
    2.2057    3.3847   -0.0580 H   0  0  0  0  0  0  0  0  0  0  0  0
   -2.3024   -2.0718    5.1549 H   0  0  0  0  0  0  0  0  0  0  0  0
  1  2  1  0  0  0  0 
  1  3  2  0  0  0  0 
  1  4  1  0  0  0  0 
  2  5  1  0  0  0  0 
  6  4  1  0  0  0  0 
  4  7  2  0  0  0  0 
  5  8  1  0  0  0  0 
  5  9  1  0  0  0  0 
  6 10  1  0  0  0  0 
  6 11  1  0  0  0  0 
  7 12  1  0  0  0  0 
  7 13  1  0  0  0  0 
  8 14  1  0  0  0  0 
  9 14  1  0  0  0  0 
 10 15  1  0  0  0  0 
 10 16  1  0  0  0  0 
 11 17  2  0  0  0  0 
 11 18  1  0  0  0  0 
 13 16  2  0  0  0  0 
 14 19  1  0  0  0  0 
 15 20  1  0  0  0  0 
 15 21  2  0  0  0  0 
 16 22  1  0  0  0  0 
 17 23  1  0  0  0  0 
 18 24  2  0  0  0  0 
 19 25  1  0  0  0  0 
 19 26  1  0  0  0  0 
 20 27  1  0  0  0  0 
 23 28  1  0  0  0  0 
 23 29  2  0  0  0  0 
 24 29  1  0  0  0  0 
 25 30  2  0  0  0  0 
 25 31  1  0  0  0  0 
 26 32  2  0  0  0  0 
 26 33  1  0  0  0  0 
 27 34  1  0  0  0  0 
 27 35  1  0  0  0  0 
 28 36  2  0  0  0  0 
 28 37  1  0  0  0  0 
 30 38  1  0  0  0  0 
 31 39  2  0  0  0  0 
 32 40  1  0  0  0  0 
 33 41  2  0  0  0  0 
 38 42  2  0  0  0  0 
 39 42  1  0  0  0  0 
 40 43  2  0  0  0  0 
 41 43  1  0  0  0  0 
 44  5  1  0  0  0  0 
 45  6  1  0  0  0  0 
 46  8  1  0  0  0  0 
 47  8  1  0  0  0  0 
 48  9  1  0  0  0  0 
 49  9  1  0  0  0  0 
 50 10  1  0  0  0  0 
 51 12  1  0  0  0  0 
 52 12  1  0  0  0  0 
 53 17  1  0  0  0  0 
 54 18  1  0  0  0  0 
 55 19  1  0  0  0  0 
 56 22  1  0  0  0  0 
 57 22  1  0  0  0  0 
 58 22  1  0  0  0  0 
 59 24  1  0  0  0  0 
 60 27  1  0  0  0  0 
 61 29  1  0  0  0  0 
 62 30  1  0  0  0  0 
 63 31  1  0  0  0  0 
 64 32  1  0  0  0  0 
 65 33  1  0  0  0  0 
 66 34  1  0  0  0  0 
 67 34  1  0  0  0  0 
 68 34  1  0  0  0  0 
 69 35  1  0  0  0  0 
 70 35  1  0  0  0  0 
 71 35  1  0  0  0  0 
 72 38  1  0  0  0  0 
 73 39  1  0  0  0  0 
 74 40  1  0  0  0  0 
 75 41  1  0  0  0  0 
 76 42  1  0  0  0  0 
 77 43  1  0  0  0  0 
M  CHG  1  28   1
M  CHG  1  37  -1
M  END
> <cdk:Title>
azelnidipine

> <Conformer>
1

> <SuperDrugID>
SD000226

$$$$
