sulfobromophthalein
  CDK     0628171801

 46 49  0  0  0  0  0  0  0  0999 V2000
   11.6890    0.3001   -6.9475 Br  0  0  0  0  0  0  0  0  0  0  0  0
   10.9336    1.5895   -5.8315 C   0  0  0  0  0  0  0  0  0  0  0  0
   10.4796    1.2511   -4.5335 C   0  0  0  0  0  0  0  0  0  0  0  0
   10.8044    2.9245   -6.2879 C   0  0  0  0  0  0  0  0  0  0  0  0
   10.4503   -0.0741   -3.8303 C   0  0  2  0  0  0  0  0  0  0  0  0
    9.9704    2.2589   -3.7066 C   0  0  0  0  0  0  0  0  0  0  0  0
   11.3588    3.3780   -8.0127 Br  0  0  0  0  0  0  0  0  0  0  0  0
   10.2524    3.9213   -5.4455 C   0  0  0  0  0  0  0  0  0  0  0  0
    9.9793    0.3728   -2.5404 O   0  0  0  0  0  0  0  0  0  0  0  0
   11.8361   -0.6566   -3.6912 C   0  0  0  0  0  0  0  0  0  0  0  0
    9.3755   -1.0509   -4.2555 C   0  0  0  0  0  0  0  0  0  0  0  0
    9.6561    1.6799   -2.4907 C   0  0  0  0  0  0  0  0  0  0  0  0
    9.8425    3.5969   -4.1329 C   0  0  0  0  0  0  0  0  0  0  0  0
   10.0534    5.6719   -6.0662 Br  0  0  0  0  0  0  0  0  0  0  0  0
   12.2737   -1.7727   -4.4508 C   0  0  0  0  0  0  0  0  0  0  0  0
   12.7760   -0.0676   -2.8083 C   0  0  0  0  0  0  0  0  0  0  0  0
    9.0105   -2.1000   -3.3728 C   0  0  0  0  0  0  0  0  0  0  0  0
    8.6713   -0.9667   -5.4814 C   0  0  0  0  0  0  0  0  0  0  0  0
    9.1465    2.2300   -1.4898 O   0  0  0  0  0  0  0  0  0  0  0  0
    9.1427    4.9048   -2.9972 Br  0  0  0  0  0  0  0  0  0  0  0  0
   13.5897   -2.2761   -4.3546 C   0  0  0  0  0  0  0  0  0  0  0  0
   14.0790   -0.5777   -2.6764 C   0  0  0  0  0  0  0  0  0  0  0  0
    7.9568   -2.9921   -3.6574 C   0  0  0  0  0  0  0  0  0  0  0  0
    7.6386   -1.8684   -5.7941 C   0  0  0  0  0  0  0  0  0  0  0  0
   14.1006   -3.6112   -5.4016 S   0  0  1  0  0  0  0  0  0  0  0  0
   14.4918   -1.6806   -3.4445 C   0  0  0  0  0  0  0  0  0  0  0  0
    7.5404   -4.1949   -2.4251 S   0  0  2  0  0  0  0  0  0  0  0  0
    7.2673   -2.8743   -4.8830 C   0  0  0  0  0  0  0  0  0  0  0  0
   15.4023   -3.1979   -6.2418 O   0  0  0  0  0  0  0  0  0  0  0  0
   14.4301   -4.9232   -4.5412 O   0  0  0  0  0  0  0  0  0  0  0  0
   12.8693   -4.0140   -6.5181 O   0  0  0  0  0  0  0  0  0  0  0  0
   15.7674   -2.1189   -3.2816 O   0  0  0  0  0  0  0  0  0  0  0  0
    6.8284   -3.4908   -1.1723 O   0  0  0  0  0  0  0  0  0  0  0  0
    8.8587   -4.9379   -1.8949 O   0  0  0  0  0  0  0  0  0  0  0  0
    6.4767   -5.3954   -3.0164 O   0  0  0  0  0  0  0  0  0  0  0  0
    6.2433   -3.7082   -5.2006 O   0  0  0  0  0  0  0  0  0  0  0  0
   11.6292   -2.2143   -5.1068 H   0  0  0  0  0  0  0  0  0  0  0  0
   12.5200    0.7470   -2.2445 H   0  0  0  0  0  0  0  0  0  0  0  0
    9.5157   -2.2023   -2.4899 H   0  0  0  0  0  0  0  0  0  0  0  0
    8.8877   -0.2408   -6.1620 H   0  0  0  0  0  0  0  0  0  0  0  0
   14.7300   -0.1372   -2.0201 H   0  0  0  0  0  0  0  0  0  0  0  0
    7.1470   -1.7823   -6.6871 H   0  0  0  0  0  0  0  0  0  0  0  0
   12.8093   -3.2323   -7.1060 H   0  0  0  0  0  0  0  0  0  0  0  0
   15.8361   -2.9630   -3.7700 H   0  0  0  0  0  0  0  0  0  0  0  0
    7.0490   -6.0033   -3.5281 H   0  0  0  0  0  0  0  0  0  0  0  0
    6.0162   -3.5226   -6.1359 H   0  0  0  0  0  0  0  0  0  0  0  0
  1  2  1  0  0  0  0 
  2  3  2  0  0  0  0 
  2  4  1  0  0  0  0 
  3  5  1  0  0  0  0 
  3  6  1  0  0  0  0 
  4  7  1  0  0  0  0 
  4  8  2  0  0  0  0 
  5  9  1  0  0  0  0 
  5 10  1  0  0  0  0 
  5 11  1  0  0  0  0 
  6 12  1  0  0  0  0 
  6 13  2  0  0  0  0 
  8 13  1  0  0  0  0 
  8 14  1  0  0  0  0 
  9 12  1  0  0  0  0 
 10 15  2  0  0  0  0 
 10 16  1  0  0  0  0 
 11 17  2  0  0  0  0 
 11 18  1  0  0  0  0 
 12 19  2  0  0  0  0 
 13 20  1  0  0  0  0 
 15 21  1  0  0  0  0 
 16 22  2  0  0  0  0 
 17 23  1  0  0  0  0 
 18 24  2  0  0  0  0 
 21 25  1  0  0  0  0 
 21 26  2  0  0  0  0 
 22 26  1  0  0  0  0 
 23 27  1  0  0  0  0 
 23 28  2  0  0  0  0 
 24 28  1  0  0  0  0 
 25 29  2  0  0  0  0 
 25 30  2  0  0  0  0 
 25 31  1  0  0  0  0 
 26 32  1  0  0  0  0 
 27 33  2  0  0  0  0 
 27 34  2  0  0  0  0 
 27 35  1  0  0  0  0 
 28 36  1  0  0  0  0 
 15 37  1  0  0  0  0 
 16 38  1  0  0  0  0 
 17 39  1  0  0  0  0 
 18 40  1  0  0  0  0 
 22 41  1  0  0  0  0 
 24 42  1  0  0  0  0 
 31 43  1  0  0  0  0 
 32 44  1  0  0  0  0 
 35 45  1  0  0  0  0 
 36 46  1  0  0  0  0 
M  END
> <cdk:Title>
sulfobromophthalein

> <Conformer>
1

> <SuperDrugID>
SD002276

$$$$
