oxeladin
  CDK     0628171801

 57 57  0  0  0  0  0  0  0  0999 V2000
   -5.4707    3.9139    1.5544 C   0  0  2  0  0  0  0  0  0  0  0  0
   -5.0602    3.1095    0.3526 C   0  0  0  0  0  0  0  0  0  0  0  0
   -5.9506    2.8744    2.6489 C   0  0  2  0  0  0  0  0  0  0  0  0
   -6.6477    4.9119    1.1990 C   0  0  1  0  0  0  0  0  0  0  0  0
   -4.2471    4.7359    1.9605 C   0  0  0  0  0  0  0  0  0  0  0  0
   -4.0039    2.2572    0.4835 O   0  0  0  0  0  0  0  0  0  0  0  0
   -5.6359    3.2086   -0.7581 O   0  0  0  0  0  0  0  0  0  0  0  0
   -7.1188    1.9178    2.2852 C   0  0  0  0  0  0  0  0  0  0  0  0
   -7.1527    5.8254    2.3439 C   0  0  0  0  0  0  0  0  0  0  0  0
   -3.6906    4.7361    3.2710 C   0  0  0  0  0  0  0  0  0  0  0  0
   -3.6074    5.5797    1.0069 C   0  0  0  0  0  0  0  0  0  0  0  0
   -3.3708    1.4811   -0.5352 C   0  0  2  0  0  0  0  0  0  0  0  0
   -2.5960    5.5505    3.6161 C   0  0  0  0  0  0  0  0  0  0  0  0
   -2.5094    6.3928    1.3446 C   0  0  0  0  0  0  0  0  0  0  0  0
   -2.1640    0.7544    0.0924 C   0  0  2  0  0  0  0  0  0  0  0  0
   -2.0063    6.3817    2.6530 C   0  0  0  0  0  0  0  0  0  0  0  0
   -1.1728    0.5092   -0.9195 O   0  0  0  0  0  0  0  0  0  0  0  0
    0.0024   -0.1803   -0.4483 C   0  0  1  0  0  0  0  0  0  0  0  0
    1.1429    0.0571   -1.4623 C   0  0  2  0  0  0  0  0  0  0  0  0
    2.4056   -0.6517   -1.0531 N   0  0  1  0  0  0  0  0  0  0  0  0
    2.4722   -2.0677   -1.5525 C   0  0  1  0  0  0  0  0  0  0  0  0
    3.6581    0.1518   -1.2524 C   0  0  1  0  0  0  0  0  0  0  0  0
    3.4953   -2.9619   -0.8088 C   0  0  0  0  0  0  0  0  0  0  0  0
    3.8492    1.2336   -0.1641 C   0  0  0  0  0  0  0  0  0  0  0  0
   -6.2594    3.4099    3.5480 H   0  0  0  0  0  0  0  0  0  0  0  0
   -5.1068    2.2438    2.9458 H   0  0  0  0  0  0  0  0  0  0  0  0
   -6.3355    5.5722    0.3855 H   0  0  0  0  0  0  0  0  0  0  0  0
   -7.5078    4.3580    0.8114 H   0  0  0  0  0  0  0  0  0  0  0  0
   -8.0443    2.4714    2.1327 H   0  0  0  0  0  0  0  0  0  0  0  0
   -6.8974    1.3416    1.3872 H   0  0  0  0  0  0  0  0  0  0  0  0
   -7.2787    1.2175    3.1065 H   0  0  0  0  0  0  0  0  0  0  0  0
   -7.8487    6.5612    1.9389 H   0  0  0  0  0  0  0  0  0  0  0  0
   -6.3257    6.3601    2.8116 H   0  0  0  0  0  0  0  0  0  0  0  0
   -7.6777    5.2437    3.1014 H   0  0  0  0  0  0  0  0  0  0  0  0
   -4.0724    4.1514    4.0114 H   0  0  0  0  0  0  0  0  0  0  0  0
   -3.9367    5.6074    0.0382 H   0  0  0  0  0  0  0  0  0  0  0  0
   -3.0310    2.1550   -1.3261 H   0  0  0  0  0  0  0  0  0  0  0  0
   -4.0736    0.7602   -0.9590 H   0  0  0  0  0  0  0  0  0  0  0  0
   -2.2286    5.5348    4.5699 H   0  0  0  0  0  0  0  0  0  0  0  0
   -2.0786    6.9935    0.6358 H   0  0  0  0  0  0  0  0  0  0  0  0
   -2.5030   -0.1789    0.5515 H   0  0  0  0  0  0  0  0  0  0  0  0
   -1.7279    1.3930    0.8673 H   0  0  0  0  0  0  0  0  0  0  0  0
   -1.2129    6.9776    2.8998 H   0  0  0  0  0  0  0  0  0  0  0  0
    0.3344    0.1876    0.5286 H   0  0  0  0  0  0  0  0  0  0  0  0
   -0.2260   -1.2446   -0.3621 H   0  0  0  0  0  0  0  0  0  0  0  0
    1.2852    1.1405   -1.5297 H   0  0  0  0  0  0  0  0  0  0  0  0
    0.8145   -0.2678   -2.4537 H   0  0  0  0  0  0  0  0  0  0  0  0
    1.4974   -2.5474   -1.4267 H   0  0  0  0  0  0  0  0  0  0  0  0
    2.6959   -2.0731   -2.6231 H   0  0  0  0  0  0  0  0  0  0  0  0
    4.5430   -0.4837   -1.1996 H   0  0  0  0  0  0  0  0  0  0  0  0
    3.6609    0.6151   -2.2426 H   0  0  0  0  0  0  0  0  0  0  0  0
    4.5007   -2.8014   -1.2007 H   0  0  0  0  0  0  0  0  0  0  0  0
    3.4900   -2.7407    0.2601 H   0  0  0  0  0  0  0  0  0  0  0  0
    3.2465   -4.0166   -0.9476 H   0  0  0  0  0  0  0  0  0  0  0  0
    4.8543    1.6570   -0.2377 H   0  0  0  0  0  0  0  0  0  0  0  0
    3.7271    0.7940    0.8280 H   0  0  0  0  0  0  0  0  0  0  0  0
    3.1283    2.0427   -0.2832 H   0  0  0  0  0  0  0  0  0  0  0  0
  1  2  1  0  0  0  0 
  1  3  1  0  0  0  0 
  1  4  1  0  0  0  0 
  1  5  1  0  0  0  0 
  2  6  1  0  0  0  0 
  2  7  2  0  0  0  0 
  3  8  1  0  0  0  0 
  4  9  1  0  0  0  0 
  5 10  2  0  0  0  0 
  5 11  1  0  0  0  0 
  6 12  1  0  0  0  0 
 10 13  1  0  0  0  0 
 11 14  2  0  0  0  0 
 12 15  1  0  0  0  0 
 13 16  2  0  0  0  0 
 14 16  1  0  0  0  0 
 15 17  1  0  0  0  0 
 17 18  1  0  0  0  0 
 18 19  1  0  0  0  0 
 19 20  1  0  0  0  0 
 20 21  1  0  0  0  0 
 20 22  1  0  0  0  0 
 21 23  1  0  0  0  0 
 22 24  1  0  0  0  0 
  3 25  1  0  0  0  0 
  3 26  1  0  0  0  0 
  4 27  1  0  0  0  0 
  4 28  1  0  0  0  0 
  8 29  1  0  0  0  0 
  8 30  1  0  0  0  0 
  8 31  1  0  0  0  0 
  9 32  1  0  0  0  0 
  9 33  1  0  0  0  0 
  9 34  1  0  0  0  0 
 10 35  1  0  0  0  0 
 11 36  1  0  0  0  0 
 12 37  1  0  0  0  0 
 12 38  1  0  0  0  0 
 13 39  1  0  0  0  0 
 14 40  1  0  0  0  0 
 15 41  1  0  0  0  0 
 15 42  1  0  0  0  0 
 16 43  1  0  0  0  0 
 18 44  1  0  0  0  0 
 18 45  1  0  0  0  0 
 19 46  1  0  0  0  0 
 19 47  1  0  0  0  0 
 21 48  1  0  0  0  0 
 21 49  1  0  0  0  0 
 22 50  1  0  0  0  0 
 22 51  1  0  0  0  0 
 23 52  1  0  0  0  0 
 23 53  1  0  0  0  0 
 23 54  1  0  0  0  0 
 24 55  1  0  0  0  0 
 24 56  1  0  0  0  0 
 24 57  1  0  0  0  0 
M  END
> <cdk:Title>
oxeladin

> <Conformer>
1

> <SuperDrugID>
SD001806

$$$$
