butidrine
  CDK     0628171801

 43 44  0  0  0  0  0  0  0  0999 V2000
    1.2027   -0.1514    0.2260 C   0  0  1  0  0  0  0  0  0  0  0  0
    1.5928    1.1624    0.9527 C   0  0  2  0  0  0  0  0  0  0  0  0
   -0.1685   -0.0917   -0.1688 O   0  0  0  0  0  0  0  0  0  0  0  0
    2.1034   -0.4533   -0.9271 C   0  0  0  0  0  0  0  0  0  0  0  0
    1.4381    2.3311    0.0523 N   0  0  1  0  0  0  0  0  0  0  0  0
    1.8037   -0.0213   -2.2404 C   0  0  0  0  0  0  0  0  0  0  0  0
    3.3074   -1.1657   -0.7195 C   0  0  0  0  0  0  0  0  0  0  0  0
    1.8885    3.6528    0.5696 C   0  0  1  0  0  0  0  0  0  0  0  0
    2.6778   -0.2689   -3.3255 C   0  0  0  0  0  0  0  0  0  0  0  0
    4.1823   -1.4301   -1.7876 C   0  0  0  0  0  0  0  0  0  0  0  0
    1.8537    4.6881   -0.5948 C   0  0  1  0  0  0  0  0  0  0  0  0
    0.9962    4.1467    1.7417 C   0  0  0  0  0  0  0  0  0  0  0  0
    3.8779   -0.9974   -3.0966 C   0  0  0  0  0  0  0  0  0  0  0  0
    2.3014    0.2318   -4.6792 C   0  0  1  0  0  0  0  0  0  0  0  0
    2.8165    4.3741   -1.7642 C   0  0  0  0  0  0  0  0  0  0  0  0
    4.8302   -1.3050   -4.2028 C   0  0  1  0  0  0  0  0  0  0  0  0
    3.4117    0.1157   -5.7577 C   0  0  1  0  0  0  0  0  0  0  0  0
    4.1962   -1.2061   -5.6134 C   0  0  2  0  0  0  0  0  0  0  0  0
    1.2633   -0.9703    0.9477 H   0  0  0  0  0  0  0  0  0  0  0  0
    2.6251    1.0889    1.3069 H   0  0  0  0  0  0  0  0  0  0  0  0
    0.9424    1.2818    1.8216 H   0  0  0  0  0  0  0  0  0  0  0  0
   -0.6661    0.0691    0.6593 H   0  0  0  0  0  0  0  0  0  0  0  0
    2.0239    2.1302   -0.7619 H   0  0  0  0  0  0  0  0  0  0  0  0
    0.9362    0.4917   -2.4110 H   0  0  0  0  0  0  0  0  0  0  0  0
    3.5564   -1.4978    0.2149 H   0  0  0  0  0  0  0  0  0  0  0  0
    2.9204    3.5755    0.9288 H   0  0  0  0  0  0  0  0  0  0  0  0
    5.0473   -1.9450   -1.6029 H   0  0  0  0  0  0  0  0  0  0  0  0
    0.8337    4.7547   -0.9883 H   0  0  0  0  0  0  0  0  0  0  0  0
    2.1269    5.6747   -0.2068 H   0  0  0  0  0  0  0  0  0  0  0  0
    1.1359    3.5224    2.6245 H   0  0  0  0  0  0  0  0  0  0  0  0
   -0.0558    4.1153    1.4518 H   0  0  0  0  0  0  0  0  0  0  0  0
    1.2506    5.1713    2.0202 H   0  0  0  0  0  0  0  0  0  0  0  0
    1.4253   -0.3270   -5.0151 H   0  0  0  0  0  0  0  0  0  0  0  0
    2.0174    1.2842   -4.6085 H   0  0  0  0  0  0  0  0  0  0  0  0
    2.7825    5.1888   -2.4916 H   0  0  0  0  0  0  0  0  0  0  0  0
    2.5268    3.4502   -2.2690 H   0  0  0  0  0  0  0  0  0  0  0  0
    3.8402    4.2780   -1.3953 H   0  0  0  0  0  0  0  0  0  0  0  0
    5.6676   -0.6058   -4.1320 H   0  0  0  0  0  0  0  0  0  0  0  0
    5.2324   -2.3158   -4.0872 H   0  0  0  0  0  0  0  0  0  0  0  0
    2.9655    0.1706   -6.7542 H   0  0  0  0  0  0  0  0  0  0  0  0
    4.1074    0.9536   -5.6572 H   0  0  0  0  0  0  0  0  0  0  0  0
    3.5199   -2.0510   -5.7702 H   0  0  0  0  0  0  0  0  0  0  0  0
    4.9804   -1.2561   -6.3717 H   0  0  0  0  0  0  0  0  0  0  0  0
  1  2  1  0  0  0  0 
  1  3  1  0  0  0  0 
  1  4  1  0  0  0  0 
  2  5  1  0  0  0  0 
  4  6  2  0  0  0  0 
  4  7  1  0  0  0  0 
  5  8  1  0  0  0  0 
  6  9  1  0  0  0  0 
  7 10  2  0  0  0  0 
  8 11  1  0  0  0  0 
  8 12  1  0  0  0  0 
  9 13  2  0  0  0  0 
  9 14  1  0  0  0  0 
 10 13  1  0  0  0  0 
 11 15  1  0  0  0  0 
 13 16  1  0  0  0  0 
 14 17  1  0  0  0  0 
 16 18  1  0  0  0  0 
 17 18  1  0  0  0  0 
  1 19  1  0  0  0  0 
  2 20  1  0  0  0  0 
  2 21  1  0  0  0  0 
  3 22  1  0  0  0  0 
  5 23  1  0  0  0  0 
  6 24  1  0  0  0  0 
  7 25  1  0  0  0  0 
  8 26  1  0  0  0  0 
 10 27  1  0  0  0  0 
 11 28  1  0  0  0  0 
 11 29  1  0  0  0  0 
 12 30  1  0  0  0  0 
 12 31  1  0  0  0  0 
 12 32  1  0  0  0  0 
 14 33  1  0  0  0  0 
 14 34  1  0  0  0  0 
 15 35  1  0  0  0  0 
 15 36  1  0  0  0  0 
 15 37  1  0  0  0  0 
 16 38  1  0  0  0  0 
 16 39  1  0  0  0  0 
 17 40  1  0  0  0  0 
 17 41  1  0  0  0  0 
 18 42  1  0  0  0  0 
 18 43  1  0  0  0  0 
M  END
> <cdk:Title>
butidrine

> <Conformer>
1

> <SuperDrugID>
SD003159

$$$$
