mycophenolate mofetil
  CDK     0628171801

 62 64  0  0  0  0  0  0  0  0999 V2000
   11.5985    8.1271   -8.6742 C   0  0  0  0  0  0  0  0  0  0  0  0
   10.3740    8.9698   -8.5917 C   0  0  0  0  0  0  0  0  0  0  0  0
   10.4805   10.3565   -8.8392 C   0  0  0  0  0  0  0  0  0  0  0  0
    9.0867    8.4572   -8.2540 C   0  0  0  0  0  0  0  0  0  0  0  0
    9.3832   11.2044   -8.7182 C   0  0  0  0  0  0  0  0  0  0  0  0
   11.6608   11.1327   -9.2531 C   0  0  1  0  0  0  0  0  0  0  0  0
    8.9259    7.1032   -8.0691 O   0  0  0  0  0  0  0  0  0  0  0  0
    7.9659    9.3275   -8.0677 C   0  0  0  0  0  0  0  0  0  0  0  0
    8.1217   10.7186   -8.3274 C   0  0  0  0  0  0  0  0  0  0  0  0
    9.8143   12.4891   -9.0408 C   0  0  0  0  0  0  0  0  0  0  0  0
   11.1319   12.4583   -9.3471 O   0  0  0  0  0  0  0  0  0  0  0  0
    8.6643    6.3664   -9.2822 C   0  0  0  0  0  0  0  0  0  0  0  0
    6.6387    8.7831   -7.6278 C   0  0  2  0  0  0  0  0  0  0  0  0
    7.0718   11.5765   -8.2143 O   0  0  0  0  0  0  0  0  0  0  0  0
    9.1273   13.5340   -9.0613 O   0  0  0  0  0  0  0  0  0  0  0  0
    6.6701    8.0793   -6.3472 C   0  0  0  0  0  0  0  0  0  0  0  0
    6.6731    8.6015   -5.0955 C   0  0  0  0  0  0  0  0  0  0  0  0
    6.6599    7.6866   -3.9326 C   0  0  2  0  0  0  0  0  0  0  0  0
    6.6390   10.0364   -4.8165 C   0  0  0  0  0  0  0  0  0  0  0  0
    5.2281    7.1168   -3.7230 C   0  0  2  0  0  0  0  0  0  0  0  0
    5.1403    6.0046   -2.7552 C   0  0  0  0  0  0  0  0  0  0  0  0
    6.0106    4.9527   -2.8379 O   0  0  0  0  0  0  0  0  0  0  0  0
    4.2236    6.0108   -1.8990 O   0  0  0  0  0  0  0  0  0  0  0  0
    5.8159    3.6586   -2.2517 C   0  0  1  0  0  0  0  0  0  0  0  0
    7.0586    2.7344   -2.3750 C   0  0  2  0  0  0  0  0  0  0  0  0
    8.0255    3.0081   -3.4897 N   0  0  1  0  0  0  0  0  0  0  0  0
    9.2387    2.1283   -3.3945 C   0  0  1  0  0  0  0  0  0  0  0  0
    7.4412    2.9801   -4.8665 C   0  0  2  0  0  0  0  0  0  0  0  0
   10.2689    2.4740   -4.4966 C   0  0  1  0  0  0  0  0  0  0  0  0
    8.5233    3.3219   -5.9207 C   0  0  2  0  0  0  0  0  0  0  0  0
    9.6556    2.4398   -5.7993 O   0  0  0  0  0  0  0  0  0  0  0  0
   12.3290    8.4724   -7.9403 H   0  0  0  0  0  0  0  0  0  0  0  0
   11.4086    7.0748   -8.4704 H   0  0  0  0  0  0  0  0  0  0  0  0
   12.0433    8.1993   -9.6686 H   0  0  0  0  0  0  0  0  0  0  0  0
   12.4528   11.0884   -8.5034 H   0  0  0  0  0  0  0  0  0  0  0  0
   12.0309   10.7969  -10.2245 H   0  0  0  0  0  0  0  0  0  0  0  0
    8.5119    5.3191   -9.0179 H   0  0  0  0  0  0  0  0  0  0  0  0
    7.7641    6.7190   -9.7897 H   0  0  0  0  0  0  0  0  0  0  0  0
    9.5071    6.4180   -9.9751 H   0  0  0  0  0  0  0  0  0  0  0  0
    6.3018    8.0865   -8.3990 H   0  0  0  0  0  0  0  0  0  0  0  0
    5.8574    9.5457   -7.5911 H   0  0  0  0  0  0  0  0  0  0  0  0
    7.4443   12.4798   -8.2132 H   0  0  0  0  0  0  0  0  0  0  0  0
    6.6801    7.0865   -6.4198 H   0  0  0  0  0  0  0  0  0  0  0  0
    6.9130    8.2674   -2.9837 H   0  0  0  0  0  0  0  0  0  0  0  0
    7.3484    6.8117   -4.1760 H   0  0  0  0  0  0  0  0  0  0  0  0
    5.7381   10.2715   -4.2476 H   0  0  0  0  0  0  0  0  0  0  0  0
    6.6383   10.6672   -5.7032 H   0  0  0  0  0  0  0  0  0  0  0  0
    7.5075   10.3125   -4.2161 H   0  0  0  0  0  0  0  0  0  0  0  0
    4.8458    6.7262   -4.6702 H   0  0  0  0  0  0  0  0  0  0  0  0
    4.5636    7.9308   -3.4145 H   0  0  0  0  0  0  0  0  0  0  0  0
    5.5552    3.7649   -1.1937 H   0  0  0  0  0  0  0  0  0  0  0  0
    4.9656    3.1924   -2.7575 H   0  0  0  0  0  0  0  0  0  0  0  0
    6.7118    1.6972   -2.4263 H   0  0  0  0  0  0  0  0  0  0  0  0
    7.6103    2.8422   -1.4372 H   0  0  0  0  0  0  0  0  0  0  0  0
    9.7271    2.2569   -2.4245 H   0  0  0  0  0  0  0  0  0  0  0  0
    8.9543    1.0748   -3.4973 H   0  0  0  0  0  0  0  0  0  0  0  0
    6.6437    3.7180   -4.9638 H   0  0  0  0  0  0  0  0  0  0  0  0
    7.0251    1.9905   -5.0809 H   0  0  0  0  0  0  0  0  0  0  0  0
   10.7088    3.4571   -4.3110 H   0  0  0  0  0  0  0  0  0  0  0  0
   11.0768    1.7399   -4.4810 H   0  0  0  0  0  0  0  0  0  0  0  0
    8.8426    4.3629   -5.8155 H   0  0  0  0  0  0  0  0  0  0  0  0
    8.0999    3.2014   -6.9188 H   0  0  0  0  0  0  0  0  0  0  0  0
  1  2  1  0  0  0  0 
  2  3  2  0  0  0  0 
  2  4  1  0  0  0  0 
  3  5  1  0  0  0  0 
  3  6  1  0  0  0  0 
  4  7  1  0  0  0  0 
  4  8  2  0  0  0  0 
  5  9  2  0  0  0  0 
  5 10  1  0  0  0  0 
  6 11  1  0  0  0  0 
  7 12  1  0  0  0  0 
  8  9  1  0  0  0  0 
  8 13  1  0  0  0  0 
  9 14  1  0  0  0  0 
 10 11  1  0  0  0  0 
 10 15  2  0  0  0  0 
 13 16  1  0  0  0  0 
 16 17  2  0  0  0  0 
 17 18  1  0  0  0  0 
 17 19  1  0  0  0  0 
 18 20  1  0  0  0  0 
 20 21  1  0  0  0  0 
 21 22  1  0  0  0  0 
 21 23  2  0  0  0  0 
 22 24  1  0  0  0  0 
 24 25  1  0  0  0  0 
 25 26  1  0  0  0  0 
 26 27  1  0  0  0  0 
 26 28  1  0  0  0  0 
 27 29  1  0  0  0  0 
 28 30  1  0  0  0  0 
 29 31  1  0  0  0  0 
 30 31  1  0  0  0  0 
  1 32  1  0  0  0  0 
  1 33  1  0  0  0  0 
  1 34  1  0  0  0  0 
  6 35  1  0  0  0  0 
  6 36  1  0  0  0  0 
 12 37  1  0  0  0  0 
 12 38  1  0  0  0  0 
 12 39  1  0  0  0  0 
 13 40  1  0  0  0  0 
 13 41  1  0  0  0  0 
 14 42  1  0  0  0  0 
 16 43  1  0  0  0  0 
 18 44  1  0  0  0  0 
 18 45  1  0  0  0  0 
 19 46  1  0  0  0  0 
 19 47  1  0  0  0  0 
 19 48  1  0  0  0  0 
 20 49  1  0  0  0  0 
 20 50  1  0  0  0  0 
 24 51  1  0  0  0  0 
 24 52  1  0  0  0  0 
 25 53  1  0  0  0  0 
 25 54  1  0  0  0  0 
 27 55  1  0  0  0  0 
 27 56  1  0  0  0  0 
 28 57  1  0  0  0  0 
 28 58  1  0  0  0  0 
 29 59  1  0  0  0  0 
 29 60  1  0  0  0  0 
 30 61  1  0  0  0  0 
 30 62  1  0  0  0  0 
M  END
> <cdk:Title>
mycophenolate mofetil

> <Conformer>
1

> <SuperDrugID>
SD001655

$$$$
