alpidem
  CDK     0628171801

 50 52  0  0  0  0  0  0  0  0999 V2000
    0.1538   -0.5617   -3.8249 C   0  0  2  0  0  0  0  0  0  0  0  0
    0.1778    0.7766   -4.4787 C   0  0  0  0  0  0  0  0  0  0  0  0
   -0.0518   -0.4004   -2.3607 C   0  0  0  0  0  0  0  0  0  0  0  0
    1.2700    1.3840   -5.1045 N   0  0  0  0  0  0  0  0  0  0  0  0
   -0.9182    1.3913   -4.4094 O   0  0  0  0  0  0  0  0  0  0  0  0
    0.9451   -0.2363   -1.3901 C   0  0  0  0  0  0  0  0  0  0  0  0
   -1.2269   -0.2906   -1.7047 N   0  0  0  0  0  0  0  0  0  0  0  0
    2.5492    0.7180   -5.2919 C   0  0  1  0  0  0  0  0  0  0  0  0
    1.1548    2.7591   -5.5747 C   0  0  2  0  0  0  0  0  0  0  0  0
    0.3746   -0.0052   -0.1963 N   0  0  0  0  0  0  0  0  0  0  0  0
    2.3364   -0.2610   -1.5886 C   0  0  0  0  0  0  0  0  0  0  0  0
   -0.9486   -0.0374   -0.4060 C   0  0  0  0  0  0  0  0  0  0  0  0
   -2.5068   -0.3779   -2.1689 C   0  0  0  0  0  0  0  0  0  0  0  0
    2.5427   -0.2180   -6.5312 C   0  0  1  0  0  0  0  0  0  0  0  0
    1.4823    3.7468   -4.4229 C   0  0  2  0  0  0  0  0  0  0  0  0
    3.0048   -1.4826   -1.8253 C   0  0  0  0  0  0  0  0  0  0  0  0
    3.0733    0.9431   -1.5681 C   0  0  0  0  0  0  0  0  0  0  0  0
   -1.9702    0.1690    0.5356 C   0  0  0  0  0  0  0  0  0  0  0  0
   -3.5788   -0.1917   -1.2706 C   0  0  0  0  0  0  0  0  0  0  0  0
    3.8937   -0.9347   -6.7566 C   0  0  0  0  0  0  0  0  0  0  0  0
    1.1959    5.2225   -4.7750 C   0  0  0  0  0  0  0  0  0  0  0  0
    4.3955   -1.4984   -2.0471 C   0  0  0  0  0  0  0  0  0  0  0  0
    4.4621    0.9252   -1.7959 C   0  0  0  0  0  0  0  0  0  0  0  0
   -3.3021    0.0910    0.0846 C   0  0  0  0  0  0  0  0  0  0  0  0
   -5.1754   -0.3035   -1.8188 Cl  0  0  0  0  0  0  0  0  0  0  0  0
    5.1258   -0.2933   -2.0402 C   0  0  0  0  0  0  0  0  0  0  0  0
    6.7929   -0.3124   -2.3303 Cl  0  0  0  0  0  0  0  0  0  0  0  0
    1.0612   -1.1337   -4.0005 H   0  0  0  0  0  0  0  0  0  0  0  0
   -0.6545   -1.1553   -4.2557 H   0  0  0  0  0  0  0  0  0  0  0  0
    3.3525    1.4507   -5.4264 H   0  0  0  0  0  0  0  0  0  0  0  0
    2.8331    0.1539   -4.4034 H   0  0  0  0  0  0  0  0  0  0  0  0
    0.1534    2.9597   -5.9659 H   0  0  0  0  0  0  0  0  0  0  0  0
    1.8353    2.9488   -6.4111 H   0  0  0  0  0  0  0  0  0  0  0  0
   -2.6957   -0.5751   -3.1535 H   0  0  0  0  0  0  0  0  0  0  0  0
    1.7635   -0.9756   -6.4155 H   0  0  0  0  0  0  0  0  0  0  0  0
    2.3085    0.3730   -7.4210 H   0  0  0  0  0  0  0  0  0  0  0  0
    2.5397    3.6485   -4.1629 H   0  0  0  0  0  0  0  0  0  0  0  0
    0.8936    3.4901   -3.5377 H   0  0  0  0  0  0  0  0  0  0  0  0
    2.4878   -2.3678   -1.8431 H   0  0  0  0  0  0  0  0  0  0  0  0
    2.6028    1.8372   -1.4010 H   0  0  0  0  0  0  0  0  0  0  0  0
   -1.7547    0.3709    1.5147 H   0  0  0  0  0  0  0  0  0  0  0  0
    3.8311   -1.5648   -7.6457 H   0  0  0  0  0  0  0  0  0  0  0  0
    4.6944   -0.2069   -6.9030 H   0  0  0  0  0  0  0  0  0  0  0  0
    4.1387   -1.5658   -5.8999 H   0  0  0  0  0  0  0  0  0  0  0  0
    1.4998    5.8675   -3.9475 H   0  0  0  0  0  0  0  0  0  0  0  0
    1.7510    5.5150   -5.6681 H   0  0  0  0  0  0  0  0  0  0  0  0
    0.1280    5.3675   -4.9519 H   0  0  0  0  0  0  0  0  0  0  0  0
    4.8690   -2.3899   -2.2151 H   0  0  0  0  0  0  0  0  0  0  0  0
    4.9801    1.8053   -1.7866 H   0  0  0  0  0  0  0  0  0  0  0  0
   -4.0661    0.2409    0.7482 H   0  0  0  0  0  0  0  0  0  0  0  0
  1  2  1  0  0  0  0 
  1  3  1  0  0  0  0 
  2  4  1  0  0  0  0 
  2  5  2  0  0  0  0 
  3  6  2  0  0  0  0 
  3  7  1  0  0  0  0 
  4  8  1  0  0  0  0 
  4  9  1  0  0  0  0 
  6 10  1  0  0  0  0 
  6 11  1  0  0  0  0 
  7 12  1  0  0  0  0 
  7 13  1  0  0  0  0 
  8 14  1  0  0  0  0 
  9 15  1  0  0  0  0 
 10 12  2  0  0  0  0 
 11 16  2  0  0  0  0 
 11 17  1  0  0  0  0 
 12 18  1  0  0  0  0 
 13 19  2  0  0  0  0 
 14 20  1  0  0  0  0 
 15 21  1  0  0  0  0 
 16 22  1  0  0  0  0 
 17 23  2  0  0  0  0 
 18 24  2  0  0  0  0 
 19 24  1  0  0  0  0 
 19 25  1  0  0  0  0 
 22 26  2  0  0  0  0 
 23 26  1  0  0  0  0 
 26 27  1  0  0  0  0 
  1 28  1  0  0  0  0 
  1 29  1  0  0  0  0 
  8 30  1  0  0  0  0 
  8 31  1  0  0  0  0 
  9 32  1  0  0  0  0 
  9 33  1  0  0  0  0 
 13 34  1  0  0  0  0 
 14 35  1  0  0  0  0 
 14 36  1  0  0  0  0 
 15 37  1  0  0  0  0 
 15 38  1  0  0  0  0 
 16 39  1  0  0  0  0 
 17 40  1  0  0  0  0 
 18 41  1  0  0  0  0 
 20 42  1  0  0  0  0 
 20 43  1  0  0  0  0 
 20 44  1  0  0  0  0 
 21 45  1  0  0  0  0 
 21 46  1  0  0  0  0 
 21 47  1  0  0  0  0 
 22 48  1  0  0  0  0 
 23 49  1  0  0  0  0 
 24 50  1  0  0  0  0 
M  END
> <cdk:Title>
alpidem

> <Conformer>
1

> <SuperDrugID>
SD000103

$$$$
