ioxilan
  CDK     0628171801

 56 56  0  0  0  0  0  0  0  0999 V2000
   -1.4522    6.4224   -3.2077 N   0  0  0  0  0  0  0  0  0  0  0  0
   -0.3928    7.4178   -3.3206 C   0  0  2  0  0  0  0  0  0  0  0  0
   -2.4439    6.2533   -4.1738 C   0  0  0  0  0  0  0  0  0  0  0  0
   -1.5071    5.6672   -2.0550 C   0  0  0  0  0  0  0  0  0  0  0  0
    0.6962    7.1140   -4.4013 C   0  0  2  0  0  0  0  0  0  0  0  0
   -2.5157    7.0169   -5.4430 C   0  0  0  0  0  0  0  0  0  0  0  0
   -3.3697    5.4238   -3.9924 O   0  0  0  0  0  0  0  0  0  0  0  0
   -1.0244    4.3357   -2.0326 C   0  0  0  0  0  0  0  0  0  0  0  0
   -2.0633    6.2283   -0.8782 C   0  0  0  0  0  0  0  0  0  0  0  0
    2.0896    6.7824   -3.8095 C   0  0  2  0  0  0  0  0  0  0  0  0
    0.8457    8.2338   -5.2767 O   0  0  0  0  0  0  0  0  0  0  0  0
   -0.2001    3.5162   -3.7387 I   0  0  0  0  0  0  0  0  0  0  0  0
   -1.0924    3.5713   -0.8437 C   0  0  0  0  0  0  0  0  0  0  0  0
   -2.7902    8.1604   -0.9058 I   0  0  0  0  0  0  0  0  0  0  0  0
   -2.1223    5.4673    0.3122 C   0  0  0  0  0  0  0  0  0  0  0  0
    3.0193    6.4858   -4.8478 O   0  0  0  0  0  0  0  0  0  0  0  0
   -0.6012    2.2529   -0.8129 C   0  0  0  0  0  0  0  0  0  0  0  0
   -1.6435    4.1366    0.3309 C   0  0  0  0  0  0  0  0  0  0  0  0
   -2.6543    6.0290    1.4817 C   0  0  0  0  0  0  0  0  0  0  0  0
    0.5872    2.0205   -0.1995 N   0  0  0  0  0  0  0  0  0  0  0  0
   -1.2758    1.3360   -1.3360 O   0  0  0  0  0  0  0  0  0  0  0  0
   -1.7799    3.0157    2.0637 I   0  0  0  0  0  0  0  0  0  0  0  0
   -1.7964    6.5202    2.4145 N   0  0  0  0  0  0  0  0  0  0  0  0
   -3.8983    6.0286    1.6372 O   0  0  0  0  0  0  0  0  0  0  0  0
    1.1858    0.7371   -0.0263 C   0  0  1  0  0  0  0  0  0  0  0  0
   -2.1615    7.0594    3.6838 C   0  0  2  0  0  0  0  0  0  0  0  0
    2.6359    0.8816    0.5063 C   0  0  1  0  0  0  0  0  0  0  0  0
   -1.6496    6.1363    4.8078 C   0  0  2  0  0  0  0  0  0  0  0  0
    3.2686   -0.4716    0.9133 C   0  0  1  0  0  0  0  0  0  0  0  0
    3.4564    1.4835   -0.4966 O   0  0  0  0  0  0  0  0  0  0  0  0
   -2.0302    6.6520    6.0784 O   0  0  0  0  0  0  0  0  0  0  0  0
    2.6001   -1.0340    2.0387 O   0  0  0  0  0  0  0  0  0  0  0  0
    0.1068    7.5645   -2.3564 H   0  0  0  0  0  0  0  0  0  0  0  0
   -0.8585    8.3844   -3.5283 H   0  0  0  0  0  0  0  0  0  0  0  0
    0.3893    6.2662   -5.0149 H   0  0  0  0  0  0  0  0  0  0  0  0
   -3.4259    6.7859   -6.0013 H   0  0  0  0  0  0  0  0  0  0  0  0
   -2.5124    8.0871   -5.2387 H   0  0  0  0  0  0  0  0  0  0  0  0
   -1.6667    6.7674   -6.0767 H   0  0  0  0  0  0  0  0  0  0  0  0
    2.0261    5.9191   -3.1439 H   0  0  0  0  0  0  0  0  0  0  0  0
    2.4679    7.6352   -3.2426 H   0  0  0  0  0  0  0  0  0  0  0  0
   -0.0323    8.3566   -5.6959 H   0  0  0  0  0  0  0  0  0  0  0  0
    3.8751    6.3478   -4.3895 H   0  0  0  0  0  0  0  0  0  0  0  0
    1.0501    2.7867    0.1737 H   0  0  0  0  0  0  0  0  0  0  0  0
   -0.8492    6.4904    2.2035 H   0  0  0  0  0  0  0  0  0  0  0  0
    0.5821    0.1699    0.6867 H   0  0  0  0  0  0  0  0  0  0  0  0
    1.2049    0.1984   -0.9784 H   0  0  0  0  0  0  0  0  0  0  0  0
   -3.2439    7.1820    3.7891 H   0  0  0  0  0  0  0  0  0  0  0  0
   -1.6987    8.0436    3.7823 H   0  0  0  0  0  0  0  0  0  0  0  0
    2.6380    1.5378    1.3818 H   0  0  0  0  0  0  0  0  0  0  0  0
   -0.5603    6.0618    4.7668 H   0  0  0  0  0  0  0  0  0  0  0  0
   -2.0775    5.1375    4.6947 H   0  0  0  0  0  0  0  0  0  0  0  0
    3.2222   -1.1787    0.0826 H   0  0  0  0  0  0  0  0  0  0  0  0
    4.3164   -0.3196    1.1821 H   0  0  0  0  0  0  0  0  0  0  0  0
    3.0632    2.3665   -0.6584 H   0  0  0  0  0  0  0  0  0  0  0  0
   -1.6974    5.9976    6.7280 H   0  0  0  0  0  0  0  0  0  0  0  0
    3.0859   -1.8643    2.2307 H   0  0  0  0  0  0  0  0  0  0  0  0
  1  2  1  0  0  0  0 
  1  3  1  0  0  0  0 
  1  4  1  0  0  0  0 
  2  5  1  0  0  0  0 
  3  6  1  0  0  0  0 
  3  7  2  0  0  0  0 
  4  8  2  0  0  0  0 
  4  9  1  0  0  0  0 
  5 10  1  0  0  0  0 
  5 11  1  0  0  0  0 
  8 12  1  0  0  0  0 
  8 13  1  0  0  0  0 
  9 14  1  0  0  0  0 
  9 15  2  0  0  0  0 
 10 16  1  0  0  0  0 
 13 17  1  0  0  0  0 
 13 18  2  0  0  0  0 
 15 18  1  0  0  0  0 
 15 19  1  0  0  0  0 
 17 20  1  0  0  0  0 
 17 21  2  0  0  0  0 
 18 22  1  0  0  0  0 
 19 23  1  0  0  0  0 
 19 24  2  0  0  0  0 
 20 25  1  0  0  0  0 
 23 26  1  0  0  0  0 
 25 27  1  0  0  0  0 
 26 28  1  0  0  0  0 
 27 29  1  0  0  0  0 
 27 30  1  0  0  0  0 
 28 31  1  0  0  0  0 
 29 32  1  0  0  0  0 
  2 33  1  0  0  0  0 
  2 34  1  0  0  0  0 
  5 35  1  0  0  0  0 
  6 36  1  0  0  0  0 
  6 37  1  0  0  0  0 
  6 38  1  0  0  0  0 
 10 39  1  0  0  0  0 
 10 40  1  0  0  0  0 
 11 41  1  0  0  0  0 
 16 42  1  0  0  0  0 
 20 43  1  0  0  0  0 
 23 44  1  0  0  0  0 
 25 45  1  0  0  0  0 
 25 46  1  0  0  0  0 
 26 47  1  0  0  0  0 
 26 48  1  0  0  0  0 
 27 49  1  0  0  0  0 
 28 50  1  0  0  0  0 
 28 51  1  0  0  0  0 
 29 52  1  0  0  0  0 
 29 53  1  0  0  0  0 
 30 54  1  0  0  0  0 
 31 55  1  0  0  0  0 
 32 56  1  0  0  0  0 
M  END
> <cdk:Title>
ioxilan

> <Conformer>
1

> <SuperDrugID>
SD001304

$$$$
