propentofylline
  CDK     0628171801

 44 45  0  0  0  0  0  0  0  0999 V2000
   -0.5854    6.9272    0.7203 C   0  0  2  0  0  0  0  0  0  0  0  0
    0.7812    6.2075    0.8780 C   0  0  1  0  0  0  0  0  0  0  0  0
   -1.3231    6.4201   -0.4066 N   0  0  0  0  0  0  0  0  0  0  0  0
    1.5974    6.7101    2.0887 C   0  0  0  0  0  0  0  0  0  0  0  0
   -1.9556    5.2345   -0.5395 C   0  0  0  0  0  0  0  0  0  0  0  0
   -1.4966    7.0556   -1.5829 C   0  0  0  0  0  0  0  0  0  0  0  0
   -2.4658    5.1440   -1.8297 C   0  0  0  0  0  0  0  0  0  0  0  0
   -2.1724    4.1648    0.3430 C   0  0  0  0  0  0  0  0  0  0  0  0
   -2.1768    6.2960   -2.4588 N   0  0  0  0  0  0  0  0  0  0  0  0
   -3.1252    4.0358   -2.2826 N   0  0  0  0  0  0  0  0  0  0  0  0
   -1.7680    4.2826    1.5250 O   0  0  0  0  0  0  0  0  0  0  0  0
   -2.8168    3.0319   -0.1044 N   0  0  0  0  0  0  0  0  0  0  0  0
   -3.6254    3.9664   -3.6409 C   0  0  0  0  0  0  0  0  0  0  0  0
   -3.2803    2.9804   -1.4089 C   0  0  0  0  0  0  0  0  0  0  0  0
   -2.9951    1.9022    0.7993 C   0  0  2  0  0  0  0  0  0  0  0  0
   -3.8629    1.9440   -1.8189 O   0  0  0  0  0  0  0  0  0  0  0  0
   -1.8697    0.8341    0.6888 C   0  0  1  0  0  0  0  0  0  0  0  0
   -0.4572    1.3521    1.0872 C   0  0  2  0  0  0  0  0  0  0  0  0
    0.6186    0.2322    1.1424 C   0  0  2  0  0  0  0  0  0  0  0  0
    2.0023    0.7464    1.3109 C   0  0  0  0  0  0  0  0  0  0  0  0
    2.4638    1.3823    2.5612 C   0  0  0  0  0  0  0  0  0  0  0  0
    2.8197    0.6118    0.3696 O   0  0  0  0  0  0  0  0  0  0  0  0
   -0.3988    7.9981    0.5987 H   0  0  0  0  0  0  0  0  0  0  0  0
   -1.1780    6.8125    1.6300 H   0  0  0  0  0  0  0  0  0  0  0  0
    0.6258    5.1354    1.0052 H   0  0  0  0  0  0  0  0  0  0  0  0
    1.3711    6.3552   -0.0304 H   0  0  0  0  0  0  0  0  0  0  0  0
    1.0545    6.5165    3.0167 H   0  0  0  0  0  0  0  0  0  0  0  0
    2.5544    6.1838    2.1302 H   0  0  0  0  0  0  0  0  0  0  0  0
    1.7921    7.7823    2.0050 H   0  0  0  0  0  0  0  0  0  0  0  0
   -1.1505    7.9914   -1.7989 H   0  0  0  0  0  0  0  0  0  0  0  0
   -4.7124    3.8484   -3.6396 H   0  0  0  0  0  0  0  0  0  0  0  0
   -3.3873    4.8535   -4.2338 H   0  0  0  0  0  0  0  0  0  0  0  0
   -3.1833    3.1058   -4.1507 H   0  0  0  0  0  0  0  0  0  0  0  0
   -3.9535    1.4153    0.6087 H   0  0  0  0  0  0  0  0  0  0  0  0
   -3.0605    2.2291    1.8417 H   0  0  0  0  0  0  0  0  0  0  0  0
   -2.1347   -0.0029    1.3414 H   0  0  0  0  0  0  0  0  0  0  0  0
   -1.8362    0.4571   -0.3374 H   0  0  0  0  0  0  0  0  0  0  0  0
   -0.5211    1.8305    2.0680 H   0  0  0  0  0  0  0  0  0  0  0  0
   -0.1400    2.1017    0.3570 H   0  0  0  0  0  0  0  0  0  0  0  0
    0.5666   -0.3469    0.2169 H   0  0  0  0  0  0  0  0  0  0  0  0
    0.3925   -0.4498    1.9665 H   0  0  0  0  0  0  0  0  0  0  0  0
    3.5336    1.5980    2.5225 H   0  0  0  0  0  0  0  0  0  0  0  0
    2.2822    0.7163    3.4048 H   0  0  0  0  0  0  0  0  0  0  0  0
    1.9310    2.3206    2.7209 H   0  0  0  0  0  0  0  0  0  0  0  0
  1  2  1  0  0  0  0 
  1  3  1  0  0  0  0 
  2  4  1  0  0  0  0 
  3  5  1  0  0  0  0 
  3  6  1  0  0  0  0 
  5  7  2  0  0  0  0 
  5  8  1  0  0  0  0 
  6  9  2  0  0  0  0 
  7  9  1  0  0  0  0 
  7 10  1  0  0  0  0 
  8 11  2  0  0  0  0 
  8 12  1  0  0  0  0 
 10 13  1  0  0  0  0 
 10 14  1  0  0  0  0 
 12 14  1  0  0  0  0 
 12 15  1  0  0  0  0 
 14 16  2  0  0  0  0 
 15 17  1  0  0  0  0 
 17 18  1  0  0  0  0 
 18 19  1  0  0  0  0 
 19 20  1  0  0  0  0 
 20 21  1  0  0  0  0 
 20 22  2  0  0  0  0 
  1 23  1  0  0  0  0 
  1 24  1  0  0  0  0 
  2 25  1  0  0  0  0 
  2 26  1  0  0  0  0 
  4 27  1  0  0  0  0 
  4 28  1  0  0  0  0 
  4 29  1  0  0  0  0 
  6 30  1  0  0  0  0 
 13 31  1  0  0  0  0 
 13 32  1  0  0  0  0 
 13 33  1  0  0  0  0 
 15 34  1  0  0  0  0 
 15 35  1  0  0  0  0 
 17 36  1  0  0  0  0 
 17 37  1  0  0  0  0 
 18 38  1  0  0  0  0 
 18 39  1  0  0  0  0 
 19 40  1  0  0  0  0 
 19 41  1  0  0  0  0 
 21 42  1  0  0  0  0 
 21 43  1  0  0  0  0 
 21 44  1  0  0  0  0 
M  END
> <cdk:Title>
propentofylline

> <Conformer>
1

> <SuperDrugID>
SD002061

$$$$
