prednisone
  CDK     0628171801

 52 55  0  0  0  0  0  0  0  0999 V2000
   -2.8456    6.6891    1.9186 C   0  0  0  0  0  0  0  0  0  0  0  0
   -3.0281    7.3297    3.0840 C   0  0  0  0  0  0  0  0  0  0  0  0
   -1.9753    7.9614    3.7140 C   0  0  0  0  0  0  0  0  0  0  0  0
   -0.6950    7.8974    3.1890 C   0  0  0  0  0  0  0  0  0  0  0  0
   -0.4364    7.2657    2.0201 C   0  0  0  0  0  0  0  0  0  0  0  0
   -1.5366    6.6205    1.2196 C   0  0  1  0  0  0  0  0  0  0  0  0
   -1.1347    5.0981    0.9722 C   0  0  2  0  0  0  0  0  0  0  0  0
    0.9530    7.1643    1.5435 C   0  0  2  0  0  0  0  0  0  0  0  0
    1.3499    5.6850    1.3059 C   0  0  2  0  0  0  0  0  0  0  0  0
    0.3262    4.9649    0.3799 C   0  0  1  0  0  0  0  0  0  0  0  0
   -1.7249    2.7930   -0.0707 C   0  0  2  0  0  0  0  0  0  0  0  0
   -2.0795    4.2184    0.1927 C   0  0  0  0  0  0  0  0  0  0  0  0
    0.6915    3.4619    0.1432 C   0  0  1  0  0  0  0  0  0  0  0  0
   -0.3308    2.7158   -0.7827 C   0  0  1  0  0  0  0  0  0  0  0  0
    2.0676    3.0930   -0.4551 C   0  0  2  0  0  0  0  0  0  0  0  0
    1.8606    1.6713   -1.0443 C   0  0  1  0  0  0  0  0  0  0  0  0
    0.3544    1.2929   -0.8484 C   0  0  2  0  0  0  0  0  0  0  0  0
   -2.1774    8.5869    4.7809 O   0  0  0  0  0  0  0  0  0  0  0  0
   -1.7334    7.4405   -0.1076 C   0  0  0  0  0  0  0  0  0  0  0  0
   -3.1415    4.6427   -0.3178 O   0  0  0  0  0  0  0  0  0  0  0  0
   -0.1861    0.2896   -1.8232 C   0  0  0  0  0  0  0  0  0  0  0  0
   -1.3478    0.4075   -2.2794 O   0  0  0  0  0  0  0  0  0  0  0  0
    0.5576   -0.9276   -2.2196 C   0  0  1  0  0  0  0  0  0  0  0  0
    0.6584   -1.8185   -1.1158 O   0  0  0  0  0  0  0  0  0  0  0  0
    0.2547    0.6222    0.4170 O   0  0  0  0  0  0  0  0  0  0  0  0
   -0.4683    3.3603   -2.2256 C   0  0  0  0  0  0  0  0  0  0  0  0
    0.6694    3.0067    1.1432 H   0  0  0  0  0  0  0  0  0  0  0  0
    0.3756    5.4727   -0.5839 H   0  0  0  0  0  0  0  0  0  0  0  0
   -1.1103    4.6350    1.9675 H   0  0  0  0  0  0  0  0  0  0  0  0
   -3.6459    6.2669    1.5078 H   0  0  0  0  0  0  0  0  0  0  0  0
   -3.9333    7.3548    3.4942 H   0  0  0  0  0  0  0  0  0  0  0  0
    0.0456    8.3188    3.7042 H   0  0  0  0  0  0  0  0  0  0  0  0
    1.6766    7.5923    2.2467 H   0  0  0  0  0  0  0  0  0  0  0  0
    1.0674    7.7245    0.6113 H   0  0  0  0  0  0  0  0  0  0  0  0
    1.4133    5.1700    2.2696 H   0  0  0  0  0  0  0  0  0  0  0  0
    2.3436    5.6586    0.8501 H   0  0  0  0  0  0  0  0  0  0  0  0
   -2.4838    2.3077   -0.6908 H   0  0  0  0  0  0  0  0  0  0  0  0
   -1.7090    2.2650    0.8863 H   0  0  0  0  0  0  0  0  0  0  0  0
    2.8439    3.0945    0.3150 H   0  0  0  0  0  0  0  0  0  0  0  0
    2.3513    3.8005   -1.2397 H   0  0  0  0  0  0  0  0  0  0  0  0
    2.1213    1.6831   -2.1061 H   0  0  0  0  0  0  0  0  0  0  0  0
    2.5206    0.9525   -0.5494 H   0  0  0  0  0  0  0  0  0  0  0  0
   -1.9575    8.4887    0.1158 H   0  0  0  0  0  0  0  0  0  0  0  0
   -0.8477    7.4255   -0.7414 H   0  0  0  0  0  0  0  0  0  0  0  0
   -2.5609    7.0542   -0.7064 H   0  0  0  0  0  0  0  0  0  0  0  0
    0.0438   -1.4531   -3.0288 H   0  0  0  0  0  0  0  0  0  0  0  0
    1.5559   -0.6694   -2.5707 H   0  0  0  0  0  0  0  0  0  0  0  0
    1.0861   -2.6229   -1.4801 H   0  0  0  0  0  0  0  0  0  0  0  0
   -0.6940    0.4000    0.5298 H   0  0  0  0  0  0  0  0  0  0  0  0
   -1.1773    2.8018   -2.8364 H   0  0  0  0  0  0  0  0  0  0  0  0
    0.4774    3.3880   -2.7650 H   0  0  0  0  0  0  0  0  0  0  0  0
   -0.8426    4.3827   -2.1887 H   0  0  0  0  0  0  0  0  0  0  0  0
  1  2  2  0  0  0  0 
  2  3  1  0  0  0  0 
  3  4  1  0  0  0  0 
  4  5  2  0  0  0  0 
  5  6  1  0  0  0  0 
  1  6  1  0  0  0  0 
  8  9  1  0  0  0  0 
  9 10  1  0  0  0  0 
  7 10  1  0  0  0  0 
  5  8  1  0  0  0  0 
  7  6  1  0  0  0  0 
 11 12  1  0  0  0  0 
 13 14  1  0  0  0  0 
 11 14  1  0  0  0  0 
 12  7  1  0  0  0  0 
 10 13  1  0  0  0  0 
 15 16  1  0  0  0  0 
 16 17  1  0  0  0  0 
 13 15  1  0  0  0  0 
 14 17  1  0  0  0  0 
  3 18  2  0  0  0  0 
  6 19  1  0  0  0  0 
 12 20  2  0  0  0  0 
 17 21  1  0  0  0  0 
 21 22  2  0  0  0  0 
 21 23  1  0  0  0  0 
 23 24  1  0  0  0  0 
 17 25  1  0  0  0  0 
 14 26  1  0  0  0  0 
 13 27  1  0  0  0  0 
 10 28  1  0  0  0  0 
  7 29  1  0  0  0  0 
  1 30  1  0  0  0  0 
  2 31  1  0  0  0  0 
  4 32  1  0  0  0  0 
  8 33  1  0  0  0  0 
  8 34  1  0  0  0  0 
  9 35  1  0  0  0  0 
  9 36  1  0  0  0  0 
 11 37  1  0  0  0  0 
 11 38  1  0  0  0  0 
 15 39  1  0  0  0  0 
 15 40  1  0  0  0  0 
 16 41  1  0  0  0  0 
 16 42  1  0  0  0  0 
 19 43  1  0  0  0  0 
 19 44  1  0  0  0  0 
 19 45  1  0  0  0  0 
 23 46  1  0  0  0  0 
 23 47  1  0  0  0  0 
 24 48  1  0  0  0  0 
 25 49  1  0  0  0  0 
 26 50  1  0  0  0  0 
 26 51  1  0  0  0  0 
 26 52  1  0  0  0  0 
M  END
> <cdk:Title>
prednisone

> <Conformer>
1

> <SuperDrugID>
SD002021

$$$$
