Spiramycin III
  CDK     0628171801

141144  0  0  0  0  0  0  0  0999 V2000
    2.9419   -1.8186    4.6856 O   0  0  0  0  0  0  0  0  0  0  0  0
    2.4266   -0.5020    4.3261 C   0  0  2  0  0  0  0  0  0  0  0  0
    2.8777   -2.2952    6.0488 C   0  0  1  0  0  0  0  0  0  0  0  0
    1.1954   -0.7259    3.3623 C   0  0  1  0  0  0  0  0  0  0  0  0
    3.6449    0.2796    3.6530 C   0  0  1  0  0  0  0  0  0  0  0  0
    3.3490   -3.7901    6.1151 C   0  0  2  0  0  0  0  0  0  0  0  0
    3.6516   -1.4594    6.9254 O   0  0  0  0  0  0  0  0  0  0  0  0
    1.5797   -1.7079    2.3649 O   0  0  0  0  0  0  0  0  0  0  0  0
   -0.2196   -1.0927    3.9386 C   0  0  2  0  0  0  0  0  0  0  0  0
    3.3204    1.5340    2.7531 C   0  0  2  0  0  0  0  0  0  0  0  0
    4.9197    0.4883    4.5683 C   0  0  2  0  0  0  0  0  0  0  0  0
    2.2688   -4.6188    6.5550 O   0  0  0  0  0  0  0  0  0  0  0  0
    4.6008   -3.9659    7.0530 C   0  0  1  0  0  0  0  0  0  0  0  0
    3.6766   -1.8923    8.3050 C   0  0  1  0  0  0  0  0  0  0  0  0
    1.2406   -1.4154    0.9939 C   0  0  0  0  0  0  0  0  0  0  0  0
   -0.8051    0.0926    4.5093 O   0  0  0  0  0  0  0  0  0  0  0  0
   -0.4159   -2.4222    4.7422 C   0  0  1  0  0  0  0  0  0  0  0  0
    4.4621    2.0867    1.9952 C   0  0  0  0  0  0  0  0  0  0  0  0
    4.9725    1.3347    5.9027 C   0  0  1  0  0  0  0  0  0  0  0  0
    5.8806   -3.3480    6.4995 N   0  0  2  0  0  0  0  0  0  0  0  0
    4.1865   -3.3737    8.4534 C   0  0  1  0  0  0  0  0  0  0  0  0
    4.5224   -0.8740    9.1077 C   0  0  0  0  0  0  0  0  0  0  0  0
   -2.1242    0.4550    4.4706 C   0  0  0  0  0  0  0  0  0  0  0  0
   -0.6749   -2.3663    6.2023 C   0  0  0  0  0  0  0  0  0  0  0  0
    4.7214    3.3108    1.9966 O   0  0  0  0  0  0  0  0  0  0  0  0
    6.4604    1.4620    6.3630 C   0  0  0  0  0  0  0  0  0  0  0  0
    4.2488    2.7298    5.9975 C   0  0  1  0  0  0  0  0  0  0  0  0
    6.2272   -3.7594    5.0998 C   0  0  0  0  0  0  0  0  0  0  0  0
    7.0858   -3.4679    7.3892 C   0  0  0  0  0  0  0  0  0  0  0  0
    3.1272   -4.1077    9.1193 O   0  0  0  0  0  0  0  0  0  0  0  0
   -2.4991    1.8097    4.9106 C   0  0  2  0  0  0  0  0  0  0  0  0
   -3.0066   -0.3371    4.0609 O   0  0  0  0  0  0  0  0  0  0  0  0
   -0.7630   -3.4641    6.8006 O   0  0  0  0  0  0  0  0  0  0  0  0
   -0.7547   -1.2029    6.9207 O   0  0  0  0  0  0  0  0  0  0  0  0
    4.6358    3.5518    4.8759 O   0  0  0  0  0  0  0  0  0  0  0  0
    2.8039    2.5604    6.1761 C   0  0  0  0  0  0  0  0  0  0  0  0
    3.3478   -5.4341    9.6459 C   0  0  1  0  0  0  0  0  0  0  0  0
   -1.8976    2.8822    3.9705 C   0  0  0  0  0  0  0  0  0  0  0  0
   -0.9230   -1.0530    8.3502 C   0  0  2  0  0  0  0  0  0  0  0  0
    4.3850    4.9750    4.9530 C   0  0  2  0  0  0  0  0  0  0  0  0
    2.2793    2.1262    7.3357 C   0  0  0  0  0  0  0  0  0  0  0  0
    4.5073   -5.5166   10.6807 C   0  0  1  0  0  0  0  0  0  0  0  0
    2.0787   -5.7256   10.2676 O   0  0  0  0  0  0  0  0  0  0  0  0
   -2.2922   -1.5980    8.8477 C   0  0  0  0  0  0  0  0  0  0  0  0
   -0.7481    0.4517    8.7114 C   0  0  2  0  0  0  0  0  0  0  0  0
    3.2034    5.2478    4.1715 O   0  0  0  0  0  0  0  0  0  0  0  0
    5.6326    5.7004    4.3807 C   0  0  1  0  0  0  0  0  0  0  0  0
    0.9816    1.7575    7.5037 C   0  0  0  0  0  0  0  0  0  0  0  0
    4.5178   -6.8579   11.4705 C   0  0  1  0  0  0  0  0  0  0  0  0
    1.9475   -6.9814   10.9677 C   0  0  2  0  0  0  0  0  0  0  0  0
    0.6131    0.9048    8.4782 C   0  0  0  0  0  0  0  0  0  0  0  0
    2.8711    6.6485    4.0259 C   0  0  2  0  0  0  0  0  0  0  0  0
    5.3511    7.2055    4.1385 C   0  0  1  0  0  0  0  0  0  0  0  0
    5.1636   -8.0177   10.6550 C   0  0  0  0  0  0  0  0  0  0  0  0
    5.3804   -6.6892   12.6002 O   0  0  0  0  0  0  0  0  0  0  0  0
    3.0651   -7.1569   12.0516 C   0  0  2  0  0  0  0  0  0  0  0  0
    1.7129   -8.1753   10.0032 C   0  0  0  0  0  0  0  0  0  0  0  0
    1.5427    6.7091    3.2354 C   0  0  0  0  0  0  0  0  0  0  0  0
    4.0419    7.4062    3.3135 C   0  0  2  0  0  0  0  0  0  0  0  0
    2.6677   -6.2353   13.1578 O   0  0  0  0  0  0  0  0  0  0  0  0
    3.7146    8.8391    2.9758 N   0  0  2  0  0  0  0  0  0  0  0  0
    4.5036    9.4183    1.8478 C   0  0  0  0  0  0  0  0  0  0  0  0
    3.5548    9.7927    4.1122 C   0  0  0  0  0  0  0  0  0  0  0  0
    1.8529   -2.2226    6.3865 H   0  0  0  0  0  0  0  0  0  0  0  0
    3.5156   -6.1303    8.8228 H   0  0  0  0  0  0  0  0  0  0  0  0
    4.2282    5.3190    5.9825 H   0  0  0  0  0  0  0  0  0  0  0  0
   -0.8022   -1.2545    3.0255 H   0  0  0  0  0  0  0  0  0  0  0  0
    2.0801    0.0550    5.1963 H   0  0  0  0  0  0  0  0  0  0  0  0
    0.9988    0.2399    2.8938 H   0  0  0  0  0  0  0  0  0  0  0  0
    3.9944   -0.4408    2.9025 H   0  0  0  0  0  0  0  0  0  0  0  0
    3.5649   -4.1695    5.1165 H   0  0  0  0  0  0  0  0  0  0  0  0
    2.8421    2.3175    3.3307 H   0  0  0  0  0  0  0  0  0  0  0  0
    2.6264    1.2601    1.9631 H   0  0  0  0  0  0  0  0  0  0  0  0
    5.7166    0.8655    3.9236 H   0  0  0  0  0  0  0  0  0  0  0  0
    5.2492   -0.5186    4.8416 H   0  0  0  0  0  0  0  0  0  0  0  0
    2.6153   -5.5359    6.5266 H   0  0  0  0  0  0  0  0  0  0  0  0
    4.7893   -5.0364    7.1688 H   0  0  0  0  0  0  0  0  0  0  0  0
    2.6551   -1.8063    8.6946 H   0  0  0  0  0  0  0  0  0  0  0  0
    0.1689   -1.2675    0.8637 H   0  0  0  0  0  0  0  0  0  0  0  0
    1.5582   -2.2504    0.3677 H   0  0  0  0  0  0  0  0  0  0  0  0
    1.7554   -0.5204    0.6476 H   0  0  0  0  0  0  0  0  0  0  0  0
   -1.2697   -2.9581    4.3137 H   0  0  0  0  0  0  0  0  0  0  0  0
    0.4528   -3.0623    4.5717 H   0  0  0  0  0  0  0  0  0  0  0  0
    5.0570    1.4628    1.4471 H   0  0  0  0  0  0  0  0  0  0  0  0
    4.5314    0.7193    6.6771 H   0  0  0  0  0  0  0  0  0  0  0  0
    5.0380   -3.3838    9.1282 H   0  0  0  0  0  0  0  0  0  0  0  0
    5.5323   -0.8103    8.7010 H   0  0  0  0  0  0  0  0  0  0  0  0
    4.0658    0.1139    9.0584 H   0  0  0  0  0  0  0  0  0  0  0  0
    4.5785   -1.1680   10.1572 H   0  0  0  0  0  0  0  0  0  0  0  0
    6.5218    1.8861    7.3676 H   0  0  0  0  0  0  0  0  0  0  0  0
    7.0303    2.1002    5.6840 H   0  0  0  0  0  0  0  0  0  0  0  0
    6.9357    0.4787    6.3966 H   0  0  0  0  0  0  0  0  0  0  0  0
    4.6209    3.2314    6.9005 H   0  0  0  0  0  0  0  0  0  0  0  0
    7.1962   -3.3676    4.7828 H   0  0  0  0  0  0  0  0  0  0  0  0
    5.5086   -3.3491    4.3925 H   0  0  0  0  0  0  0  0  0  0  0  0
    6.2475   -4.8480    5.0041 H   0  0  0  0  0  0  0  0  0  0  0  0
    8.0007   -3.1309    6.8961 H   0  0  0  0  0  0  0  0  0  0  0  0
    6.9876   -2.8285    8.2639 H   0  0  0  0  0  0  0  0  0  0  0  0
    7.2350   -4.4994    7.7175 H   0  0  0  0  0  0  0  0  0  0  0  0
   -2.1385    1.9725    5.9271 H   0  0  0  0  0  0  0  0  0  0  0  0
   -3.5875    1.9160    4.9096 H   0  0  0  0  0  0  0  0  0  0  0  0
    2.2030    2.7107    5.4041 H   0  0  0  0  0  0  0  0  0  0  0  0
   -2.3289    3.8567    4.2042 H   0  0  0  0  0  0  0  0  0  0  0  0
   -0.8149    2.9497    4.1031 H   0  0  0  0  0  0  0  0  0  0  0  0
   -2.1097    2.6538    2.9202 H   0  0  0  0  0  0  0  0  0  0  0  0
   -0.1375   -1.6258    8.8586 H   0  0  0  0  0  0  0  0  0  0  0  0
    2.8937    2.0310    8.1135 H   0  0  0  0  0  0  0  0  0  0  0  0
    5.4671   -5.3950   10.1723 H   0  0  0  0  0  0  0  0  0  0  0  0
    4.3936   -4.6850   11.3824 H   0  0  0  0  0  0  0  0  0  0  0  0
   -2.4119   -1.4225    9.9211 H   0  0  0  0  0  0  0  0  0  0  0  0
   -3.1132   -1.1135    8.3175 H   0  0  0  0  0  0  0  0  0  0  0  0
   -2.3606   -2.6739    8.6806 H   0  0  0  0  0  0  0  0  0  0  0  0
   -0.9538    0.6034    9.7757 H   0  0  0  0  0  0  0  0  0  0  0  0
   -1.4751    1.0482    8.1522 H   0  0  0  0  0  0  0  0  0  0  0  0
    6.4661    5.5910    5.0796 H   0  0  0  0  0  0  0  0  0  0  0  0
    5.9283    5.2403    3.4347 H   0  0  0  0  0  0  0  0  0  0  0  0
    0.2939    2.1055    6.8734 H   0  0  0  0  0  0  0  0  0  0  0  0
    0.9979   -6.8957   11.5066 H   0  0  0  0  0  0  0  0  0  0  0  0
    1.3085    0.5410    9.0950 H   0  0  0  0  0  0  0  0  0  0  0  0
    2.6878    7.0756    5.0174 H   0  0  0  0  0  0  0  0  0  0  0  0
    5.2686    7.7066    5.1063 H   0  0  0  0  0  0  0  0  0  0  0  0
    6.2010    7.6415    3.6080 H   0  0  0  0  0  0  0  0  0  0  0  0
    5.0494   -8.9688   11.1782 H   0  0  0  0  0  0  0  0  0  0  0  0
    6.2313   -7.8323   10.5207 H   0  0  0  0  0  0  0  0  0  0  0  0
    4.7312   -8.1070    9.6628 H   0  0  0  0  0  0  0  0  0  0  0  0
    5.0052   -5.9405   13.1099 H   0  0  0  0  0  0  0  0  0  0  0  0
    3.0604   -8.2355   12.3635 H   0  0  0  0  0  0  0  0  0  0  0  0
    0.8058   -7.9998    9.4215 H   0  0  0  0  0  0  0  0  0  0  0  0
    1.5822   -9.0999   10.5685 H   0  0  0  0  0  0  0  0  0  0  0  0
    2.5318   -8.3064    9.3034 H   0  0  0  0  0  0  0  0  0  0  0  0
    1.1896    7.7380    3.1456 H   0  0  0  0  0  0  0  0  0  0  0  0
    0.7774    6.1284    3.7545 H   0  0  0  0  0  0  0  0  0  0  0  0
    1.6765    6.2917    2.2355 H   0  0  0  0  0  0  0  0  0  0  0  0
    4.1899    6.8761    2.3654 H   0  0  0  0  0  0  0  0  0  0  0  0
    1.8057   -6.5749   13.4780 H   0  0  0  0  0  0  0  0  0  0  0  0
    4.0818   10.3770    1.5383 H   0  0  0  0  0  0  0  0  0  0  0  0
    4.4742    8.7602    0.9772 H   0  0  0  0  0  0  0  0  0  0  0  0
    5.5454    9.5732    2.1353 H   0  0  0  0  0  0  0  0  0  0  0  0
    3.0956   10.7191    3.7610 H   0  0  0  0  0  0  0  0  0  0  0  0
    2.9003    9.3875    4.8824 H   0  0  0  0  0  0  0  0  0  0  0  0
    4.5197   10.0332    4.5622 H   0  0  0  0  0  0  0  0  0  0  0  0
  3  1  1  0  0  0  0 
  2  1  1  0  0  0  0 
  4  2  1  0  0  0  0 
  2  5  1  0  0  0  0 
  6  3  1  0  0  0  0 
  3  7  1  0  0  0  0 
  3 64  1  0  0  0  0 
  4  8  1  0  0  0  0 
  9  4  1  0  0  0  0 
  5 10  1  0  0  0  0 
  5 11  1  0  0  0  0 
  6 12  1  0  0  0  0 
 13  6  1  0  0  0  0 
 14  7  1  0  0  0  0 
  8 15  1  0  0  0  0 
  9 16  1  0  0  0  0 
  9 17  1  0  0  0  0 
  9 67  1  0  0  0  0 
 10 18  1  0  0  0  0 
 19 11  1  0  0  0  0 
 13 20  1  0  0  0  0 
 21 13  1  0  0  0  0 
 21 14  1  0  0  0  0 
 14 22  1  0  0  0  0 
 16 23  1  0  0  0  0 
 17 24  1  0  0  0  0 
 18 25  2  0  0  0  0 
 19 26  1  0  0  0  0 
 27 19  1  0  0  0  0 
 20 28  1  0  0  0  0 
 20 29  1  0  0  0  0 
 21 30  1  0  0  0  0 
 23 31  1  0  0  0  0 
 23 32  2  0  0  0  0 
 24 33  2  0  0  0  0 
 24 34  1  0  0  0  0 
 27 35  1  0  0  0  0 
 27 36  1  0  0  0  0 
 37 30  1  0  0  0  0 
 31 38  1  0  0  0  0 
 39 34  1  0  0  0  0 
 40 35  1  0  0  0  0 
 36 41  2  0  0  0  0 
 37 42  1  0  0  0  0 
 37 43  1  0  0  0  0 
 37 65  1  0  0  0  0 
 39 44  1  0  0  0  0 
 39 45  1  0  0  0  0 
 40 46  1  0  0  0  0 
 40 47  1  0  0  0  0 
 40 66  1  0  0  0  0 
 41 48  1  0  0  0  0 
 49 42  1  0  0  0  0 
 50 43  1  0  0  0  0 
 45 51  1  0  0  0  0 
 52 46  1  0  0  0  0 
 47 53  1  0  0  0  0 
 48 51  2  0  0  0  0 
 49 54  1  0  0  0  0 
 49 55  1  0  0  0  0 
 56 49  1  0  0  0  0 
 56 50  1  0  0  0  0 
 50 57  1  0  0  0  0 
 52 58  1  0  0  0  0 
 59 52  1  0  0  0  0 
 59 53  1  0  0  0  0 
 56 60  1  0  0  0  0 
 59 61  1  0  0  0  0 
 61 62  1  0  0  0  0 
 61 63  1  0  0  0  0 
  2 68  1  0  0  0  0 
  4 69  1  0  0  0  0 
  5 70  1  0  0  0  0 
  6 71  1  0  0  0  0 
 10 72  1  0  0  0  0 
 10 73  1  0  0  0  0 
 11 74  1  0  0  0  0 
 11 75  1  0  0  0  0 
 12 76  1  0  0  0  0 
 13 77  1  0  0  0  0 
 14 78  1  0  0  0  0 
 15 79  1  0  0  0  0 
 15 80  1  0  0  0  0 
 15 81  1  0  0  0  0 
 17 82  1  0  0  0  0 
 17 83  1  0  0  0  0 
 18 84  1  0  0  0  0 
 19 85  1  0  0  0  0 
 21 86  1  0  0  0  0 
 22 87  1  0  0  0  0 
 22 88  1  0  0  0  0 
 22 89  1  0  0  0  0 
 26 90  1  0  0  0  0 
 26 91  1  0  0  0  0 
 26 92  1  0  0  0  0 
 27 93  1  0  0  0  0 
 28 94  1  0  0  0  0 
 28 95  1  0  0  0  0 
 28 96  1  0  0  0  0 
 29 97  1  0  0  0  0 
 29 98  1  0  0  0  0 
 29 99  1  0  0  0  0 
 31100  1  0  0  0  0 
 31101  1  0  0  0  0 
 36102  1  0  0  0  0 
 38103  1  0  0  0  0 
 38104  1  0  0  0  0 
 38105  1  0  0  0  0 
 39106  1  0  0  0  0 
 41107  1  0  0  0  0 
 42108  1  0  0  0  0 
 42109  1  0  0  0  0 
 44110  1  0  0  0  0 
 44111  1  0  0  0  0 
 44112  1  0  0  0  0 
 45113  1  0  0  0  0 
 45114  1  0  0  0  0 
 47115  1  0  0  0  0 
 47116  1  0  0  0  0 
 48117  1  0  0  0  0 
 50118  1  0  0  0  0 
 51119  1  0  0  0  0 
 52120  1  0  0  0  0 
 53121  1  0  0  0  0 
 53122  1  0  0  0  0 
 54123  1  0  0  0  0 
 54124  1  0  0  0  0 
 54125  1  0  0  0  0 
 55126  1  0  0  0  0 
 56127  1  0  0  0  0 
 57128  1  0  0  0  0 
 57129  1  0  0  0  0 
 57130  1  0  0  0  0 
 58131  1  0  0  0  0 
 58132  1  0  0  0  0 
 58133  1  0  0  0  0 
 59134  1  0  0  0  0 
 60135  1  0  0  0  0 
 62136  1  0  0  0  0 
 62137  1  0  0  0  0 
 62138  1  0  0  0  0 
 63139  1  0  0  0  0 
 63140  1  0  0  0  0 
 63141  1  0  0  0  0 
M  END
> <cdk:Title>
Spiramycin III

> <Conformer>
1

> <SuperDrugID>
SD002221

$$$$
