propiolactone
  CDK     0628171801

  9  9  0  0  0  0  0  0  0  0999 V2000
   -0.7250   -1.2274   -0.0005 O   0  0  0  0  0  0  0  0  0  0  0  0
   -0.0787   -0.1567   -0.0061 C   0  0  0  0  0  0  0  0  0  0  0  0
    1.3465    0.1199   -0.0363 C   0  0  2  0  0  0  0  0  0  0  0  0
    0.8808    1.5952   -0.0092 C   0  0  2  0  0  0  0  0  0  0  0  0
   -0.4746    1.1275    0.0213 O   0  0  0  0  0  0  0  0  0  0  0  0
    1.8267   -0.1856   -0.9672 H   0  0  0  0  0  0  0  0  0  0  0  0
    1.8656   -0.2059    0.8665 H   0  0  0  0  0  0  0  0  0  0  0  0
    1.1147    2.1516   -0.9210 H   0  0  0  0  0  0  0  0  0  0  0  0
    1.1600    2.1341    0.9016 H   0  0  0  0  0  0  0  0  0  0  0  0
  1  2  2  0  0  0  0 
  2  3  1  0  0  0  0 
  3  4  1  0  0  0  0 
  4  5  1  0  0  0  0 
  2  5  1  0  0  0  0 
  3  6  1  0  0  0  0 
  3  7  1  0  0  0  0 
  4  8  1  0  0  0  0 
  4  9  1  0  0  0  0 
M  END
> <cdk:Title>
propiolactone

> <Conformer>
1

> <SuperDrugID>
SD003012

$$$$
