zotepine
  CDK     0628171801

 40 42  0  0  0  0  0  0  0  0999 V2000
    3.9872   -1.1280    5.5283 O   0  0  0  0  0  0  0  0  0  0  0  0
    4.1335   -0.1195    6.5452 C   0  0  2  0  0  0  0  0  0  0  0  0
    4.3486   -0.7360    4.2901 C   0  0  0  0  0  0  0  0  0  0  0  0
    3.6109   -0.7121    7.8724 C   0  0  2  0  0  0  0  0  0  0  0  0
    3.3068   -0.2771    3.4605 C   0  0  0  0  0  0  0  0  0  0  0  0
    5.6527   -0.9249    3.9797 C   0  0  0  0  0  0  0  0  0  0  0  0
    2.1805   -1.1600    7.7995 N   0  0  1  0  0  0  0  0  0  0  0  0
    3.4424    0.7851    2.5267 C   0  0  0  0  0  0  0  0  0  0  0  0
    2.0233   -0.8805    3.5804 C   0  0  0  0  0  0  0  0  0  0  0  0
    6.3249   -0.7073    2.7731 C   0  0  0  0  0  0  0  0  0  0  0  0
    1.8289   -2.1280    8.8798 C   0  0  0  0  0  0  0  0  0  0  0  0
    1.1958   -0.0384    7.7215 C   0  0  0  0  0  0  0  0  0  0  0  0
    4.9474    1.6708    2.3242 S   0  0  0  0  0  0  0  0  0  0  0  0
    2.3581    1.1796    1.7167 C   0  0  0  0  0  0  0  0  0  0  0  0
    0.9322   -0.4696    2.7907 C   0  0  0  0  0  0  0  0  0  0  0  0
    6.1016    0.4084    1.9231 C   0  0  0  0  0  0  0  0  0  0  0  0
    7.3203   -1.6447    2.3870 C   0  0  0  0  0  0  0  0  0  0  0  0
    1.1071    0.5576    1.8488 C   0  0  0  0  0  0  0  0  0  0  0  0
   -0.5812   -1.2104    2.9692 Cl  0  0  0  0  0  0  0  0  0  0  0  0
    6.8098    0.5443    0.7111 C   0  0  0  0  0  0  0  0  0  0  0  0
    8.0209   -1.5095    1.1749 C   0  0  0  0  0  0  0  0  0  0  0  0
    7.7578   -0.4188    0.3326 C   0  0  0  0  0  0  0  0  0  0  0  0
    3.5861    0.7901    6.2877 H   0  0  0  0  0  0  0  0  0  0  0  0
    5.1860    0.1444    6.6750 H   0  0  0  0  0  0  0  0  0  0  0  0
    3.7440    0.0176    8.6758 H   0  0  0  0  0  0  0  0  0  0  0  0
    4.2571   -1.5672    8.0996 H   0  0  0  0  0  0  0  0  0  0  0  0
    6.2138   -1.3148    4.7077 H   0  0  0  0  0  0  0  0  0  0  0  0
    1.8681   -1.6408    4.2485 H   0  0  0  0  0  0  0  0  0  0  0  0
    0.8002   -2.4783    8.7663 H   0  0  0  0  0  0  0  0  0  0  0  0
    2.4757   -3.0065    8.8277 H   0  0  0  0  0  0  0  0  0  0  0  0
    1.9375   -1.6702    9.8658 H   0  0  0  0  0  0  0  0  0  0  0  0
    1.3594    0.5647    6.8278 H   0  0  0  0  0  0  0  0  0  0  0  0
    0.1749   -0.4217    7.6613 H   0  0  0  0  0  0  0  0  0  0  0  0
    1.2683    0.6060    8.6010 H   0  0  0  0  0  0  0  0  0  0  0  0
    2.4682    1.9224    1.0219 H   0  0  0  0  0  0  0  0  0  0  0  0
    7.5403   -2.4497    2.9823 H   0  0  0  0  0  0  0  0  0  0  0  0
    0.3297    0.8584    1.2553 H   0  0  0  0  0  0  0  0  0  0  0  0
    6.6443    1.3431    0.0940 H   0  0  0  0  0  0  0  0  0  0  0  0
    8.7183   -2.2054    0.9046 H   0  0  0  0  0  0  0  0  0  0  0  0
    8.2556   -0.3258   -0.5560 H   0  0  0  0  0  0  0  0  0  0  0  0
  1  2  1  0  0  0  0 
  1  3  1  0  0  0  0 
  2  4  1  0  0  0  0 
  3  5  1  0  0  0  0 
  3  6  2  0  0  0  0 
  4  7  1  0  0  0  0 
  5  8  2  0  0  0  0 
  5  9  1  0  0  0  0 
  6 10  1  0  0  0  0 
  7 11  1  0  0  0  0 
  7 12  1  0  0  0  0 
  8 13  1  0  0  0  0 
  8 14  1  0  0  0  0 
  9 15  2  0  0  0  0 
 10 16  2  0  0  0  0 
 10 17  1  0  0  0  0 
 13 16  1  0  0  0  0 
 14 18  2  0  0  0  0 
 15 18  1  0  0  0  0 
 15 19  1  0  0  0  0 
 16 20  1  0  0  0  0 
 17 21  2  0  0  0  0 
 20 22  2  0  0  0  0 
 21 22  1  0  0  0  0 
  2 23  1  0  0  0  0 
  2 24  1  0  0  0  0 
  4 25  1  0  0  0  0 
  4 26  1  0  0  0  0 
  6 27  1  0  0  0  0 
  9 28  1  0  0  0  0 
 11 29  1  0  0  0  0 
 11 30  1  0  0  0  0 
 11 31  1  0  0  0  0 
 12 32  1  0  0  0  0 
 12 33  1  0  0  0  0 
 12 34  1  0  0  0  0 
 14 35  1  0  0  0  0 
 17 36  1  0  0  0  0 
 18 37  1  0  0  0  0 
 20 38  1  0  0  0  0 
 21 39  1  0  0  0  0 
 22 40  1  0  0  0  0 
M  END
> <cdk:Title>
zotepine

> <Conformer>
1

> <SuperDrugID>
SD002591

$$$$
