doxepin
  CDK     0628171802

 42 44  0  0  0  0  0  0  0  0999 V2000
   -1.0100    3.1717    5.2861 C   0  0  0  0  0  0  0  0  0  0  0  0
   -0.7641    1.8389    5.2348 C   0  0  0  0  0  0  0  0  0  0  0  0
    0.4297    1.2826    5.7410 C   0  0  0  0  0  0  0  0  0  0  0  0
   -1.6801    0.9579    4.6652 C   0  0  0  0  0  0  0  0  0  0  0  0
    1.2258    0.3341    5.0170 C   0  0  0  0  0  0  0  0  0  0  0  0
    0.8403    1.6442    7.0528 C   0  0  0  0  0  0  0  0  0  0  0  0
   -1.3475    0.3114    3.4519 C   0  0  0  0  0  0  0  0  0  0  0  0
   -2.9421    0.7117    5.2544 C   0  0  0  0  0  0  0  0  0  0  0  0
    0.9501   -0.1349    3.6185 C   0  0  2  0  0  0  0  0  0  0  0  0
    2.3690   -0.2265    5.6418 C   0  0  0  0  0  0  0  0  0  0  0  0
    1.9852    1.0870    7.6447 C   0  0  0  0  0  0  0  0  0  0  0  0
   -0.1158    0.5088    2.8902 O   0  0  0  0  0  0  0  0  0  0  0  0
   -2.2955   -0.5031    2.7999 C   0  0  0  0  0  0  0  0  0  0  0  0
   -3.8827   -0.1055    4.6050 C   0  0  0  0  0  0  0  0  0  0  0  0
    2.7494    0.1481    6.9401 C   0  0  0  0  0  0  0  0  0  0  0  0
   -3.5610   -0.7122    3.3776 C   0  0  0  0  0  0  0  0  0  0  0  0
   -2.2013    3.8677    4.7921 C   0  0  2  0  0  0  0  0  0  0  0  0
   -2.2649    4.0293    3.2482 C   0  0  2  0  0  0  0  0  0  0  0  0
   -1.0675    4.6929    2.6363 N   0  0  1  0  0  0  0  0  0  0  0  0
   -1.0247    4.5314    1.1518 C   0  0  0  0  0  0  0  0  0  0  0  0
   -0.9010    6.1260    3.0268 C   0  0  0  0  0  0  0  0  0  0  0  0
   -0.3116    3.7605    5.6850 H   0  0  0  0  0  0  0  0  0  0  0  0
    0.2987    2.3138    7.6051 H   0  0  0  0  0  0  0  0  0  0  0  0
   -3.1895    1.1370    6.1527 H   0  0  0  0  0  0  0  0  0  0  0  0
    0.7861   -1.2186    3.6287 H   0  0  0  0  0  0  0  0  0  0  0  0
    1.8487    0.0468    3.0237 H   0  0  0  0  0  0  0  0  0  0  0  0
    2.9423   -0.9179    5.1503 H   0  0  0  0  0  0  0  0  0  0  0  0
    2.2569    1.3574    8.5938 H   0  0  0  0  0  0  0  0  0  0  0  0
   -2.0673   -0.9409    1.9034 H   0  0  0  0  0  0  0  0  0  0  0  0
   -4.8048   -0.2469    5.0224 H   0  0  0  0  0  0  0  0  0  0  0  0
    3.5822   -0.2629    7.3710 H   0  0  0  0  0  0  0  0  0  0  0  0
   -4.2516   -1.3003    2.9045 H   0  0  0  0  0  0  0  0  0  0  0  0
   -2.2552    4.8564    5.2512 H   0  0  0  0  0  0  0  0  0  0  0  0
   -3.1062    3.3604    5.1262 H   0  0  0  0  0  0  0  0  0  0  0  0
   -3.1638    4.5995    2.9997 H   0  0  0  0  0  0  0  0  0  0  0  0
   -2.4029    3.0333    2.8190 H   0  0  0  0  0  0  0  0  0  0  0  0
   -0.1029    4.9545    0.7478 H   0  0  0  0  0  0  0  0  0  0  0  0
   -1.0419    3.4750    0.8772 H   0  0  0  0  0  0  0  0  0  0  0  0
   -1.8737    5.0296    0.6761 H   0  0  0  0  0  0  0  0  0  0  0  0
   -0.8361    6.2390    4.1084 H   0  0  0  0  0  0  0  0  0  0  0  0
    0.0278    6.5254    2.6164 H   0  0  0  0  0  0  0  0  0  0  0  0
   -1.7345    6.7325    2.6632 H   0  0  0  0  0  0  0  0  0  0  0  0
  1  2  2  0  0  0  0 
  2  3  1  0  0  0  0 
  2  4  1  0  0  0  0 
  3  5  2  0  0  0  0 
  3  6  1  0  0  0  0 
  4  7  2  0  0  0  0 
  4  8  1  0  0  0  0 
  5  9  1  0  0  0  0 
  5 10  1  0  0  0  0 
  6 11  2  0  0  0  0 
  7 12  1  0  0  0  0 
  7 13  1  0  0  0  0 
  8 14  2  0  0  0  0 
  9 12  1  0  0  0  0 
 10 15  2  0  0  0  0 
 11 15  1  0  0  0  0 
 13 16  2  0  0  0  0 
 14 16  1  0  0  0  0 
  1 17  1  0  0  0  0 
 17 18  1  0  0  0  0 
 18 19  1  0  0  0  0 
 19 20  1  0  0  0  0 
 19 21  1  0  0  0  0 
  1 22  1  0  0  0  0 
  6 23  1  0  0  0  0 
  8 24  1  0  0  0  0 
  9 25  1  0  0  0  0 
  9 26  1  0  0  0  0 
 10 27  1  0  0  0  0 
 11 28  1  0  0  0  0 
 13 29  1  0  0  0  0 
 14 30  1  0  0  0  0 
 15 31  1  0  0  0  0 
 16 32  1  0  0  0  0 
 17 33  1  0  0  0  0 
 17 34  1  0  0  0  0 
 18 35  1  0  0  0  0 
 18 36  1  0  0  0  0 
 20 37  1  0  0  0  0 
 20 38  1  0  0  0  0 
 20 39  1  0  0  0  0 
 21 40  1  0  0  0  0 
 21 41  1  0  0  0  0 
 21 42  1  0  0  0  0 
M  END
> <cdk:Title>
doxepin

> <Conformer>
1

> <SuperDrugID>
SD000848

$$$$
