prenderol
  CDK     0628171801

 25 24  0  0  0  0  0  0  0  0999 V2000
    3.1339   -0.7548    0.8098 C   0  0  0  0  0  0  0  0  0  0  0  0
    2.5652   -0.2138   -0.5263 C   0  0  2  0  0  0  0  0  0  0  0  0
    2.5755   -1.1774   -1.7761 C   0  0  1  0  0  0  0  0  0  0  0  0
    4.0261   -1.6883   -2.1303 C   0  0  1  0  0  0  0  0  0  0  0  0
    5.1127   -0.6270   -2.4371 C   0  0  0  0  0  0  0  0  0  0  0  0
    1.6762   -2.4391   -1.4951 C   0  0  2  0  0  0  0  0  0  0  0  0
    0.3420   -2.0993   -1.1206 O   0  0  0  0  0  0  0  0  0  0  0  0
    1.9653   -0.3902   -2.9957 C   0  0  1  0  0  0  0  0  0  0  0  0
    1.9605   -1.1510   -4.2028 O   0  0  0  0  0  0  0  0  0  0  0  0
    2.5535   -1.6059    1.1679 H   0  0  0  0  0  0  0  0  0  0  0  0
    4.1760   -1.0542    0.7008 H   0  0  0  0  0  0  0  0  0  0  0  0
    3.0865    0.0283    1.5702 H   0  0  0  0  0  0  0  0  0  0  0  0
    3.1203    0.6950   -0.7682 H   0  0  0  0  0  0  0  0  0  0  0  0
    1.5372    0.1011   -0.3266 H   0  0  0  0  0  0  0  0  0  0  0  0
    4.4005   -2.3049   -1.3104 H   0  0  0  0  0  0  0  0  0  0  0  0
    3.9705   -2.3439   -3.0038 H   0  0  0  0  0  0  0  0  0  0  0  0
    6.0643   -1.1259   -2.6352 H   0  0  0  0  0  0  0  0  0  0  0  0
    5.2557    0.0450   -1.5911 H   0  0  0  0  0  0  0  0  0  0  0  0
    4.8512   -0.0405   -3.3186 H   0  0  0  0  0  0  0  0  0  0  0  0
    2.1009   -3.0473   -0.6932 H   0  0  0  0  0  0  0  0  0  0  0  0
    1.6150   -3.0766   -2.3816 H   0  0  0  0  0  0  0  0  0  0  0  0
   -0.1117   -2.9585   -0.9901 H   0  0  0  0  0  0  0  0  0  0  0  0
    0.9321   -0.0967   -2.7897 H   0  0  0  0  0  0  0  0  0  0  0  0
    2.5263    0.5278   -3.1847 H   0  0  0  0  0  0  0  0  0  0  0  0
    1.5490   -0.5638   -4.8713 H   0  0  0  0  0  0  0  0  0  0  0  0
  1  2  1  0  0  0  0 
  2  3  1  0  0  0  0 
  3  4  1  0  0  0  0 
  4  5  1  0  0  0  0 
  3  6  1  0  0  0  0 
  6  7  1  0  0  0  0 
  3  8  1  0  0  0  0 
  8  9  1  0  0  0  0 
  1 10  1  0  0  0  0 
  1 11  1  0  0  0  0 
  1 12  1  0  0  0  0 
  2 13  1  0  0  0  0 
  2 14  1  0  0  0  0 
  4 15  1  0  0  0  0 
  4 16  1  0  0  0  0 
  5 17  1  0  0  0  0 
  5 18  1  0  0  0  0 
  5 19  1  0  0  0  0 
  6 20  1  0  0  0  0 
  6 21  1  0  0  0  0 
  7 22  1  0  0  0  0 
  8 23  1  0  0  0  0 
  8 24  1  0  0  0  0 
  9 25  1  0  0  0  0 
M  END
> <cdk:Title>
prenderol

> <Conformer>
1

> <SuperDrugID>
SD002026

$$$$
