azidocillin
  CDK     0628171801

 43 45  0  0  0  0  0  0  0  0999 V2000
    2.6441   -1.0733   -5.4829 C   0  0  0  0  0  0  0  0  0  0  0  0
    3.9052   -1.4713   -5.7690 O   0  0  0  0  0  0  0  0  0  0  0  0
    1.7979   -1.9601   -5.2279 O   0  0  0  0  0  0  0  0  0  0  0  0
    2.3023    0.3710   -5.4593 C   0  0  2  0  0  0  0  0  0  0  0  0
    1.7438    0.7143   -4.1994 N   0  0  0  0  0  0  0  0  0  0  0  0
    1.1963    0.8917   -6.4595 C   0  0  2  0  0  0  0  0  0  0  0  0
    0.3936    0.5655   -3.8258 C   0  0  2  0  0  0  0  0  0  0  0  0
    2.0914    1.5132   -3.1967 C   0  0  0  0  0  0  0  0  0  0  0  0
   -0.3107    1.1019   -5.4179 S   0  0  0  0  0  0  0  0  0  0  0  0
    0.7378    1.5290   -2.6446 C   0  0  1  0  0  0  0  0  0  0  0  0
    3.1459    2.1216   -2.9085 O   0  0  0  0  0  0  0  0  0  0  0  0
    0.1479    2.8277   -2.6476 N   0  0  0  0  0  0  0  0  0  0  0  0
   -1.1678    3.0883   -2.4084 C   0  0  0  0  0  0  0  0  0  0  0  0
   -1.6097    4.4951   -2.2318 C   0  0  2  0  0  0  0  0  0  0  0  0
   -1.9936    2.1514   -2.2811 O   0  0  0  0  0  0  0  0  0  0  0  0
   -2.3013    4.5899   -0.9209 N   0  0  0  0  0  0  0  0  0  0  0  0
   -2.4702    4.9934   -3.3520 C   0  0  0  0  0  0  0  0  0  0  0  0
   -2.5585    5.7712   -0.5704 N   0  0  0  0  0  0  0  0  0  0  0  0
   -2.0207    6.0371   -4.2002 C   0  0  0  0  0  0  0  0  0  0  0  0
   -3.7784    4.4884   -3.5499 C   0  0  0  0  0  0  0  0  0  0  0  0
   -2.7849    6.8051   -0.2609 N   0  0  0  0  0  0  0  0  0  0  0  0
   -2.8605    6.5774   -5.1918 C   0  0  0  0  0  0  0  0  0  0  0  0
   -4.6174    5.0279   -4.5422 C   0  0  0  0  0  0  0  0  0  0  0  0
   -4.1611    6.0757   -5.3611 C   0  0  0  0  0  0  0  0  0  0  0  0
    0.8677   -0.0567   -7.6520 C   0  0  0  0  0  0  0  0  0  0  0  0
    1.5684    2.3041   -7.0073 C   0  0  0  0  0  0  0  0  0  0  0  0
    4.1321   -2.4249   -5.7804 H   0  0  0  0  0  0  0  0  0  0  0  0
    3.2369    0.9241   -5.6011 H   0  0  0  0  0  0  0  0  0  0  0  0
    0.1527   -0.4621   -3.5390 H   0  0  0  0  0  0  0  0  0  0  0  0
    0.7012    1.0441   -1.6644 H   0  0  0  0  0  0  0  0  0  0  0  0
    0.7383    3.5869   -2.7848 H   0  0  0  0  0  0  0  0  0  0  0  0
   -0.7058    5.1131   -2.1639 H   0  0  0  0  0  0  0  0  0  0  0  0
   -1.0807    6.4252   -4.0936 H   0  0  0  0  0  0  0  0  0  0  0  0
   -4.1384    3.7369   -2.9565 H   0  0  0  0  0  0  0  0  0  0  0  0
   -2.5269    7.3423   -5.7831 H   0  0  0  0  0  0  0  0  0  0  0  0
   -5.5645    4.6653   -4.6611 H   0  0  0  0  0  0  0  0  0  0  0  0
   -4.7754    6.4729   -6.0754 H   0  0  0  0  0  0  0  0  0  0  0  0
    0.4637   -1.0058   -7.2980 H   0  0  0  0  0  0  0  0  0  0  0  0
    1.7683   -0.2599   -8.2345 H   0  0  0  0  0  0  0  0  0  0  0  0
    0.1232    0.3926   -8.3129 H   0  0  0  0  0  0  0  0  0  0  0  0
    1.7474    3.0051   -6.1883 H   0  0  0  0  0  0  0  0  0  0  0  0
    2.4767    2.2482   -7.6116 H   0  0  0  0  0  0  0  0  0  0  0  0
    0.7683    2.7091   -7.6312 H   0  0  0  0  0  0  0  0  0  0  0  0
  1  2  1  0  0  0  0 
  1  3  2  0  0  0  0 
  4  1  1  0  0  0  0 
  4  5  1  0  0  0  0 
  4  6  1  0  0  0  0 
  7  5  1  0  0  0  0 
  5  8  1  0  0  0  0 
  6  9  1  0  0  0  0 
  7  9  1  0  0  0  0 
  7 10  1  0  0  0  0 
 10  8  1  0  0  0  0 
  8 11  2  0  0  0  0 
 10 12  1  0  0  0  0 
 12 13  1  0  0  0  0 
 14 13  1  0  0  0  0 
 13 15  2  0  0  0  0 
 14 16  1  0  0  0  0 
 14 17  1  0  0  0  0 
 16 18  1  0  0  0  0 
 17 19  2  0  0  0  0 
 17 20  1  0  0  0  0 
 18 21  3  0  0  0  0 
 19 22  1  0  0  0  0 
 20 23  2  0  0  0  0 
 22 24  2  0  0  0  0 
 23 24  1  0  0  0  0 
  6 25  1  0  0  0  0 
  6 26  1  0  0  0  0 
 27  2  1  0  0  0  0 
  4 28  1  0  0  0  0 
  7 29  1  0  0  0  0 
 10 30  1  0  0  0  0 
 31 12  1  0  0  0  0 
 14 32  1  0  0  0  0 
 33 19  1  0  0  0  0 
 34 20  1  0  0  0  0 
 35 22  1  0  0  0  0 
 36 23  1  0  0  0  0 
 37 24  1  0  0  0  0 
 38 25  1  0  0  0  0 
 39 25  1  0  0  0  0 
 40 25  1  0  0  0  0 
 41 26  1  0  0  0  0 
 42 26  1  0  0  0  0 
 43 26  1  0  0  0  0 
M  CHG  1  16  -1
M  CHG  1  18   1
M  END
> <cdk:Title>
azidocillin

> <Conformer>
1

> <SuperDrugID>
SD000227

$$$$
