clarithromycin
  CDK     0628171802

121123  0  0  0  0  0  0  0  0999 V2000
    2.1186    2.2896    1.3296 O   0  0  0  0  0  0  0  0  0  0  0  0
    0.8877    2.3897    2.1217 C   0  0  1  0  0  0  0  0  0  0  0  0
    2.6680    3.4679    0.6678 C   0  0  1  0  0  0  0  0  0  0  0  0
    0.2080    0.9344    2.1381 C   0  0  1  0  0  0  0  0  0  0  0  0
    1.0402    3.0776    3.5623 C   0  0  1  0  0  0  0  0  0  0  0  0
    4.0998    3.1997    0.1182 C   0  0  2  0  0  0  0  0  0  0  0  0
    1.8103    4.1055   -0.3061 O   0  0  0  0  0  0  0  0  0  0  0  0
    0.0187    0.6089    0.7278 O   0  0  0  0  0  0  0  0  0  0  0  0
    1.1070   -0.0828    2.9383 C   0  0  0  0  0  0  0  0  0  0  0  0
   -1.2551    0.9865    2.7401 C   0  0  1  0  0  0  0  0  0  0  0  0
    2.4326    3.6684    3.9432 C   0  0  0  0  0  0  0  0  0  0  0  0
   -0.1513    4.0412    3.9587 C   0  0  2  0  0  0  0  0  0  0  0  0
    4.8052    4.4412   -0.0026 O   0  0  0  0  0  0  0  0  0  0  0  0
    4.0952    2.4379   -1.2531 C   0  0  1  0  0  0  0  0  0  0  0  0
    1.8055    3.6230   -1.6693 C   0  0  1  0  0  0  0  0  0  0  0  0
    0.5672   -0.5877    0.1346 C   0  0  0  0  0  0  0  0  0  0  0  0
   -2.2951   -0.1560    2.4857 C   0  0  1  0  0  0  0  0  0  0  0  0
   -0.5692    5.0174    2.9855 O   0  0  0  0  0  0  0  0  0  0  0  0
   -0.2502    4.4822    5.4688 C   0  0  1  0  0  0  0  0  0  0  0  0
    3.7139    0.9694   -1.1604 N   0  0  1  0  0  0  0  0  0  0  0  0
    3.2252    3.3037   -2.2311 C   0  0  1  0  0  0  0  0  0  0  0  0
    0.7897    2.4768   -1.8432 C   0  0  0  0  0  0  0  0  0  0  0  0
   -1.9211   -1.5843    2.9923 C   0  0  0  0  0  0  0  0  0  0  0  0
   -3.7078    0.1844    2.8955 C   0  0  0  0  0  0  0  0  0  0  0  0
    0.2110    6.1392    2.5457 C   0  0  1  0  0  0  0  0  0  0  0  0
   -1.4314    5.4547    5.7627 C   0  0  0  0  0  0  0  0  0  0  0  0
   -0.4124    3.3003    6.3668 C   0  0  0  0  0  0  0  0  0  0  0  0
    3.6734    0.2472   -2.4749 C   0  0  0  0  0  0  0  0  0  0  0  0
    4.5231    0.1727   -0.1799 C   0  0  0  0  0  0  0  0  0  0  0  0
   -4.5826   -0.2665    2.1139 O   0  0  0  0  0  0  0  0  0  0  0  0
   -4.2292    0.9633    4.0889 C   0  0  2  0  0  0  0  0  0  0  0  0
   -0.7236    6.8005    1.4935 C   0  0  2  0  0  0  0  0  0  0  0  0
    0.5188    7.0404    3.6302 O   0  0  0  0  0  0  0  0  0  0  0  0
    0.4258    3.0933    7.2782 O   0  0  0  0  0  0  0  0  0  0  0  0
   -1.4970    2.4687    6.1930 O   0  0  0  0  0  0  0  0  0  0  0  0
   -4.0106    2.4942    3.9501 C   0  0  0  0  0  0  0  0  0  0  0  0
   -4.0509    0.3093    5.5335 C   0  0  1  0  0  0  0  0  0  0  0  0
   -0.2370    8.1837    0.9611 C   0  0  2  0  0  0  0  0  0  0  0  0
    1.0570    8.3331    3.2681 C   0  0  2  0  0  0  0  0  0  0  0  0
   -1.8980    1.3154    6.9611 C   0  0  1  0  0  0  0  0  0  0  0  0
   -3.4908   -0.9941    5.4288 O   0  0  0  0  0  0  0  0  0  0  0  0
   -3.4619    1.0700    6.8068 C   0  0  2  0  0  0  0  0  0  0  0  0
   -1.4246    8.7122    0.2998 O   0  0  0  0  0  0  0  0  0  0  0  0
    0.8979    7.9915   -0.0978 C   0  0  0  0  0  0  0  0  0  0  0  0
    0.1834    9.0643    2.1940 C   0  0  2  0  0  0  0  0  0  0  0  0
    2.5787    8.2750    2.9735 C   0  0  0  0  0  0  0  0  0  0  0  0
   -0.9181    0.1350    6.6749 C   0  0  1  0  0  0  0  0  0  0  0  0
   -4.0126    0.3925    8.1114 C   0  0  0  0  0  0  0  0  0  0  0  0
   -4.0831    2.3576    6.8590 O   0  0  0  0  0  0  0  0  0  0  0  0
   -1.3921   10.0064   -0.3305 C   0  0  0  0  0  0  0  0  0  0  0  0
   -0.9945    9.5407    2.8534 O   0  0  0  0  0  0  0  0  0  0  0  0
   -0.9305   -1.0663    7.6497 C   0  0  0  0  0  0  0  0  0  0  0  0
    1.1203    5.7899    2.0615 H   0  0  0  0  0  0  0  0  0  0  0  0
    2.8006    4.2389    1.4149 H   0  0  0  0  0  0  0  0  0  0  0  0
    0.2173    3.0258    1.5347 H   0  0  0  0  0  0  0  0  0  0  0  0
    0.9653    2.2669    4.2815 H   0  0  0  0  0  0  0  0  0  0  0  0
    4.6713    2.6587    0.8691 H   0  0  0  0  0  0  0  0  0  0  0  0
    1.0994    0.1118    4.0076 H   0  0  0  0  0  0  0  0  0  0  0  0
    2.1441   -0.0489    2.5993 H   0  0  0  0  0  0  0  0  0  0  0  0
    0.7657   -1.1049    2.8177 H   0  0  0  0  0  0  0  0  0  0  0  0
   -1.1893    1.1297    3.8129 H   0  0  0  0  0  0  0  0  0  0  0  0
   -1.7186    1.8785    2.3157 H   0  0  0  0  0  0  0  0  0  0  0  0
    2.5531    3.7065    5.0291 H   0  0  0  0  0  0  0  0  0  0  0  0
    2.5568    4.6860    3.5767 H   0  0  0  0  0  0  0  0  0  0  0  0
    3.2401    3.0417    3.5577 H   0  0  0  0  0  0  0  0  0  0  0  0
   -1.0197    3.4164    3.8516 H   0  0  0  0  0  0  0  0  0  0  0  0
    4.2350    5.0247   -0.5436 H   0  0  0  0  0  0  0  0  0  0  0  0
    5.1220    2.4669   -1.6389 H   0  0  0  0  0  0  0  0  0  0  0  0
    1.4109    4.4547   -2.2611 H   0  0  0  0  0  0  0  0  0  0  0  0
    1.6492   -0.6146    0.2505 H   0  0  0  0  0  0  0  0  0  0  0  0
    0.3440   -0.5951   -0.9321 H   0  0  0  0  0  0  0  0  0  0  0  0
    0.1304   -1.4855    0.5629 H   0  0  0  0  0  0  0  0  0  0  0  0
   -2.3238   -0.2484    1.3962 H   0  0  0  0  0  0  0  0  0  0  0  0
    0.6653    5.0186    5.7349 H   0  0  0  0  0  0  0  0  0  0  0  0
    3.7358    4.2569   -2.4072 H   0  0  0  0  0  0  0  0  0  0  0  0
    3.1498    2.8490   -3.2192 H   0  0  0  0  0  0  0  0  0  0  0  0
    0.6144    2.2711   -2.9004 H   0  0  0  0  0  0  0  0  0  0  0  0
   -0.1623    2.7389   -1.3791 H   0  0  0  0  0  0  0  0  0  0  0  0
    1.1686    1.5801   -1.3750 H   0  0  0  0  0  0  0  0  0  0  0  0
   -1.4352   -1.5536    3.9618 H   0  0  0  0  0  0  0  0  0  0  0  0
   -2.8046   -2.2215    3.0763 H   0  0  0  0  0  0  0  0  0  0  0  0
   -1.2480   -2.0902    2.3037 H   0  0  0  0  0  0  0  0  0  0  0  0
   -1.5231    5.6320    6.8382 H   0  0  0  0  0  0  0  0  0  0  0  0
   -1.2687    6.4219    5.2885 H   0  0  0  0  0  0  0  0  0  0  0  0
   -2.3765    5.0485    5.3955 H   0  0  0  0  0  0  0  0  0  0  0  0
    2.8836    0.6314   -3.1168 H   0  0  0  0  0  0  0  0  0  0  0  0
    3.4477   -0.8143   -2.3453 H   0  0  0  0  0  0  0  0  0  0  0  0
    4.6277    0.3304   -2.9988 H   0  0  0  0  0  0  0  0  0  0  0  0
    4.3043    0.4719    0.8436 H   0  0  0  0  0  0  0  0  0  0  0  0
    4.2856   -0.8929   -0.2235 H   0  0  0  0  0  0  0  0  0  0  0  0
    5.5929    0.2903   -0.3668 H   0  0  0  0  0  0  0  0  0  0  0  0
   -5.3199    0.9353    3.9394 H   0  0  0  0  0  0  0  0  0  0  0  0
   -1.7047    6.9405    1.9618 H   0  0  0  0  0  0  0  0  0  0  0  0
   -0.8711    6.1087    0.6574 H   0  0  0  0  0  0  0  0  0  0  0  0
   -4.7774    3.0532    4.4954 H   0  0  0  0  0  0  0  0  0  0  0  0
   -3.0517    2.7762    4.3456 H   0  0  0  0  0  0  0  0  0  0  0  0
   -4.0579    2.8111    2.9050 H   0  0  0  0  0  0  0  0  0  0  0  0
   -5.0806    0.0748    5.8303 H   0  0  0  0  0  0  0  0  0  0  0  0
    0.9846    8.9312    4.1820 H   0  0  0  0  0  0  0  0  0  0  0  0
   -1.7134    1.6120    7.9998 H   0  0  0  0  0  0  0  0  0  0  0  0
   -3.6684   -1.4390    6.2818 H   0  0  0  0  0  0  0  0  0  0  0  0
    1.3649    8.9472   -0.3406 H   0  0  0  0  0  0  0  0  0  0  0  0
    0.4837    7.5715   -1.0171 H   0  0  0  0  0  0  0  0  0  0  0  0
    1.6735    7.3120    0.2460 H   0  0  0  0  0  0  0  0  0  0  0  0
    0.7093    9.9571    1.8479 H   0  0  0  0  0  0  0  0  0  0  0  0
    3.1122    7.9514    3.8695 H   0  0  0  0  0  0  0  0  0  0  0  0
    2.9514    9.2625    2.6929 H   0  0  0  0  0  0  0  0  0  0  0  0
    2.8121    7.5731    2.1785 H   0  0  0  0  0  0  0  0  0  0  0  0
   -1.0969   -0.2314    5.6777 H   0  0  0  0  0  0  0  0  0  0  0  0
    0.1046    0.5185    6.6744 H   0  0  0  0  0  0  0  0  0  0  0  0
   -3.6493    0.8960    9.0097 H   0  0  0  0  0  0  0  0  0  0  0  0
   -3.7284   -0.6545    8.1729 H   0  0  0  0  0  0  0  0  0  0  0  0
   -5.1040    0.4352    8.1414 H   0  0  0  0  0  0  0  0  0  0  0  0
   -3.7550    2.7758    7.6826 H   0  0  0  0  0  0  0  0  0  0  0  0
   -2.3955   10.2209   -0.6998 H   0  0  0  0  0  0  0  0  0  0  0  0
   -0.7115   10.0161   -1.1818 H   0  0  0  0  0  0  0  0  0  0  0  0
   -1.1157   10.7929    0.3717 H   0  0  0  0  0  0  0  0  0  0  0  0
   -1.4459    8.7390    3.1908 H   0  0  0  0  0  0  0  0  0  0  0  0
   -0.0492   -1.6847    7.4683 H   0  0  0  0  0  0  0  0  0  0  0  0
   -1.8047   -1.6949    7.4922 H   0  0  0  0  0  0  0  0  0  0  0  0
   -0.9069   -0.7322    8.6882 H   0  0  0  0  0  0  0  0  0  0  0  0
  3  1  1  0  0  0  0 
  2  1  1  0  0  0  0 
  2  4  1  0  0  0  0 
  5  2  1  0  0  0  0 
  6  3  1  0  0  0  0 
  3  7  1  0  0  0  0 
  3 54  1  0  0  0  0 
  4  8  1  0  0  0  0 
  4  9  1  0  0  0  0 
  4 10  1  0  0  0  0 
  5 11  1  0  0  0  0 
 12  5  1  0  0  0  0 
  6 13  1  0  0  0  0 
 14  6  1  0  0  0  0 
 15  7  1  0  0  0  0 
  8 16  1  0  0  0  0 
 17 10  1  0  0  0  0 
 12 18  1  0  0  0  0 
 19 12  1  0  0  0  0 
 14 20  1  0  0  0  0 
 14 21  1  0  0  0  0 
 15 21  1  0  0  0  0 
 15 22  1  0  0  0  0 
 17 23  1  0  0  0  0 
 17 24  1  0  0  0  0 
 25 18  1  0  0  0  0 
 19 26  1  0  0  0  0 
 19 27  1  0  0  0  0 
 20 28  1  0  0  0  0 
 20 29  1  0  0  0  0 
 24 30  2  0  0  0  0 
 31 24  1  0  0  0  0 
 25 32  1  0  0  0  0 
 25 33  1  0  0  0  0 
 25 53  1  0  0  0  0 
 27 34  2  0  0  0  0 
 27 35  1  0  0  0  0 
 31 36  1  0  0  0  0 
 31 37  1  0  0  0  0 
 38 32  1  0  0  0  0 
 39 33  1  0  0  0  0 
 40 35  1  0  0  0  0 
 37 41  1  0  0  0  0 
 37 42  1  0  0  0  0 
 38 43  1  0  0  0  0 
 38 44  1  0  0  0  0 
 45 38  1  0  0  0  0 
 45 39  1  0  0  0  0 
 39 46  1  0  0  0  0 
 42 40  1  0  0  0  0 
 40 47  1  0  0  0  0 
 42 48  1  0  0  0  0 
 42 49  1  0  0  0  0 
 43 50  1  0  0  0  0 
 45 51  1  0  0  0  0 
 47 52  1  0  0  0  0 
  2 55  1  0  0  0  0 
  5 56  1  0  0  0  0 
  6 57  1  0  0  0  0 
  9 58  1  0  0  0  0 
  9 59  1  0  0  0  0 
  9 60  1  0  0  0  0 
 10 61  1  0  0  0  0 
 10 62  1  0  0  0  0 
 11 63  1  0  0  0  0 
 11 64  1  0  0  0  0 
 11 65  1  0  0  0  0 
 12 66  1  0  0  0  0 
 13 67  1  0  0  0  0 
 14 68  1  0  0  0  0 
 15 69  1  0  0  0  0 
 16 70  1  0  0  0  0 
 16 71  1  0  0  0  0 
 16 72  1  0  0  0  0 
 17 73  1  0  0  0  0 
 19 74  1  0  0  0  0 
 21 75  1  0  0  0  0 
 21 76  1  0  0  0  0 
 22 77  1  0  0  0  0 
 22 78  1  0  0  0  0 
 22 79  1  0  0  0  0 
 23 80  1  0  0  0  0 
 23 81  1  0  0  0  0 
 23 82  1  0  0  0  0 
 26 83  1  0  0  0  0 
 26 84  1  0  0  0  0 
 26 85  1  0  0  0  0 
 28 86  1  0  0  0  0 
 28 87  1  0  0  0  0 
 28 88  1  0  0  0  0 
 29 89  1  0  0  0  0 
 29 90  1  0  0  0  0 
 29 91  1  0  0  0  0 
 31 92  1  0  0  0  0 
 32 93  1  0  0  0  0 
 32 94  1  0  0  0  0 
 36 95  1  0  0  0  0 
 36 96  1  0  0  0  0 
 36 97  1  0  0  0  0 
 37 98  1  0  0  0  0 
 39 99  1  0  0  0  0 
 40100  1  0  0  0  0 
 41101  1  0  0  0  0 
 44102  1  0  0  0  0 
 44103  1  0  0  0  0 
 44104  1  0  0  0  0 
 45105  1  0  0  0  0 
 46106  1  0  0  0  0 
 46107  1  0  0  0  0 
 46108  1  0  0  0  0 
 47109  1  0  0  0  0 
 47110  1  0  0  0  0 
 48111  1  0  0  0  0 
 48112  1  0  0  0  0 
 48113  1  0  0  0  0 
 49114  1  0  0  0  0 
 50115  1  0  0  0  0 
 50116  1  0  0  0  0 
 50117  1  0  0  0  0 
 51118  1  0  0  0  0 
 52119  1  0  0  0  0 
 52120  1  0  0  0  0 
 52121  1  0  0  0  0 
M  END
> <cdk:Title>
clarithromycin

> <Conformer>
1

> <SuperDrugID>
SD000587

$$$$
