cinromide
  CDK     0628171801

 26 26  0  0  0  0  0  0  0  0999 V2000
   -0.5724   -0.1609    0.3869 C   0  0  0  0  0  0  0  0  0  0  0  0
    0.4242   -0.5285   -0.4437 C   0  0  0  0  0  0  0  0  0  0  0  0
   -1.0324    1.1451    0.5889 C   0  0  0  0  0  0  0  0  0  0  0  0
    0.8420   -1.8395   -0.6432 C   0  0  0  0  0  0  0  0  0  0  0  0
   -0.2031    2.2887    0.4681 C   0  0  0  0  0  0  0  0  0  0  0  0
   -2.3897    1.3487    0.9465 C   0  0  0  0  0  0  0  0  0  0  0  0
    1.8499   -2.0861   -1.5289 N   0  0  0  0  0  0  0  0  0  0  0  0
    0.3047   -2.7945   -0.0283 O   0  0  0  0  0  0  0  0  0  0  0  0
   -0.7116    3.5841    0.6878 C   0  0  0  0  0  0  0  0  0  0  0  0
   -2.9036    2.6422    1.1543 C   0  0  0  0  0  0  0  0  0  0  0  0
    2.3521   -3.3843   -1.8560 C   0  0  2  0  0  0  0  0  0  0  0  0
    0.4135    5.0579    0.5386 Br  0  0  0  0  0  0  0  0  0  0  0  0
   -2.0652    3.7617    1.0264 C   0  0  0  0  0  0  0  0  0  0  0  0
    3.6995   -3.2843   -2.5959 C   0  0  0  0  0  0  0  0  0  0  0  0
   -1.0424   -0.8799    0.8896 H   0  0  0  0  0  0  0  0  0  0  0  0
    0.8878    0.1756   -0.9702 H   0  0  0  0  0  0  0  0  0  0  0  0
    0.7863    2.1929    0.2341 H   0  0  0  0  0  0  0  0  0  0  0  0
   -3.0252    0.5528    1.0501 H   0  0  0  0  0  0  0  0  0  0  0  0
    2.2395   -1.3252   -1.9903 H   0  0  0  0  0  0  0  0  0  0  0  0
   -3.8886    2.7669    1.4024 H   0  0  0  0  0  0  0  0  0  0  0  0
    1.6317   -3.9024   -2.4945 H   0  0  0  0  0  0  0  0  0  0  0  0
    2.4982   -3.9733   -0.9459 H   0  0  0  0  0  0  0  0  0  0  0  0
   -2.4437    4.6998    1.1830 H   0  0  0  0  0  0  0  0  0  0  0  0
    4.0440   -4.2858   -2.8612 H   0  0  0  0  0  0  0  0  0  0  0  0
    3.5945   -2.6952   -3.5100 H   0  0  0  0  0  0  0  0  0  0  0  0
    4.4455   -2.8137   -1.9513 H   0  0  0  0  0  0  0  0  0  0  0  0
  1  2  2  0  0  0  0 
  1  3  1  0  0  0  0 
  2  4  1  0  0  0  0 
  3  5  2  0  0  0  0 
  3  6  1  0  0  0  0 
  4  7  1  0  0  0  0 
  4  8  2  0  0  0  0 
  5  9  1  0  0  0  0 
  6 10  2  0  0  0  0 
  7 11  1  0  0  0  0 
  9 12  1  0  0  0  0 
  9 13  2  0  0  0  0 
 10 13  1  0  0  0  0 
 11 14  1  0  0  0  0 
  1 15  1  0  0  0  0 
  2 16  1  0  0  0  0 
  5 17  1  0  0  0  0 
  6 18  1  0  0  0  0 
  7 19  1  0  0  0  0 
 10 20  1  0  0  0  0 
 11 21  1  0  0  0  0 
 11 22  1  0  0  0  0 
 13 23  1  0  0  0  0 
 14 24  1  0  0  0  0 
 14 25  1  0  0  0  0 
 14 26  1  0  0  0  0 
M  END
> <cdk:Title>
cinromide

> <Conformer>
1

> <SuperDrugID>
SD002691

$$$$
