sulfalene
  CDK     0628171801

 31 32  0  0  0  0  0  0  0  0999 V2000
    2.4006    1.4571    3.7033 S   0  0  1  0  0  0  0  0  0  0  0  0
    1.8590    0.4797    2.3985 N   0  0  0  0  0  0  0  0  0  0  0  0
    3.8449    0.9193    4.1537 O   0  0  0  0  0  0  0  0  0  0  0  0
    2.5675    2.9640    3.1736 O   0  0  0  0  0  0  0  0  0  0  0  0
    1.2531    1.4301    5.0544 C   0  0  0  0  0  0  0  0  0  0  0  0
    1.3893   -0.7886    2.5217 C   0  0  0  0  0  0  0  0  0  0  0  0
   -0.1268    1.5671    4.7984 C   0  0  0  0  0  0  0  0  0  0  0  0
    1.6971    1.2672    6.3841 C   0  0  0  0  0  0  0  0  0  0  0  0
    1.1844   -1.5853    1.3730 C   0  0  0  0  0  0  0  0  0  0  0  0
    1.0974   -1.3384    3.7330 N   0  0  0  0  0  0  0  0  0  0  0  0
   -1.0549    1.5146    5.8541 C   0  0  0  0  0  0  0  0  0  0  0  0
    0.7681    1.2189    7.4416 C   0  0  0  0  0  0  0  0  0  0  0  0
    1.4799   -1.1306    0.1189 O   0  0  0  0  0  0  0  0  0  0  0  0
    0.7138   -2.8525    1.5270 N   0  0  0  0  0  0  0  0  0  0  0  0
    0.6239   -2.5997    3.8859 C   0  0  0  0  0  0  0  0  0  0  0  0
   -0.6126    1.3316    7.1792 C   0  0  0  0  0  0  0  0  0  0  0  0
    0.3235   -0.6394   -0.5806 C   0  0  0  0  0  0  0  0  0  0  0  0
    0.4216   -3.3855    2.7399 C   0  0  0  0  0  0  0  0  0  0  0  0
   -1.5091    1.2635    8.1827 N   0  0  0  0  0  0  0  0  0  0  0  0
    1.9303    0.8514    1.5049 H   0  0  0  0  0  0  0  0  0  0  0  0
   -0.4643    1.6948    3.8417 H   0  0  0  0  0  0  0  0  0  0  0  0
    2.6945    1.1757    6.5899 H   0  0  0  0  0  0  0  0  0  0  0  0
   -2.0530    1.6058    5.6491 H   0  0  0  0  0  0  0  0  0  0  0  0
    1.1044    1.0947    8.3996 H   0  0  0  0  0  0  0  0  0  0  0  0
    0.4225   -2.9630    4.8182 H   0  0  0  0  0  0  0  0  0  0  0  0
    0.6378   -0.3247   -1.5751 H   0  0  0  0  0  0  0  0  0  0  0  0
   -0.4369   -1.4166   -0.6961 H   0  0  0  0  0  0  0  0  0  0  0  0
   -0.1116    0.2245   -0.0713 H   0  0  0  0  0  0  0  0  0  0  0  0
    0.0737   -4.3435    2.8127 H   0  0  0  0  0  0  0  0  0  0  0  0
   -1.2113    1.1409    9.0986 H   0  0  0  0  0  0  0  0  0  0  0  0
   -2.4588    1.3300    7.9900 H   0  0  0  0  0  0  0  0  0  0  0  0
  1  2  1  0  0  0  0 
  1  3  2  0  0  0  0 
  1  4  2  0  0  0  0 
  1  5  1  0  0  0  0 
  2  6  1  0  0  0  0 
  5  7  2  0  0  0  0 
  5  8  1  0  0  0  0 
  6  9  2  0  0  0  0 
  6 10  1  0  0  0  0 
  7 11  1  0  0  0  0 
  8 12  2  0  0  0  0 
  9 13  1  0  0  0  0 
  9 14  1  0  0  0  0 
 10 15  2  0  0  0  0 
 11 16  2  0  0  0  0 
 12 16  1  0  0  0  0 
 13 17  1  0  0  0  0 
 14 18  2  0  0  0  0 
 15 18  1  0  0  0  0 
 16 19  1  0  0  0  0 
  2 20  1  0  0  0  0 
  7 21  1  0  0  0  0 
  8 22  1  0  0  0  0 
 11 23  1  0  0  0  0 
 12 24  1  0  0  0  0 
 15 25  1  0  0  0  0 
 17 26  1  0  0  0  0 
 17 27  1  0  0  0  0 
 17 28  1  0  0  0  0 
 18 29  1  0  0  0  0 
 19 30  1  0  0  0  0 
 19 31  1  0  0  0  0 
M  END
> <cdk:Title>
sulfalene

> <Conformer>
1

> <SuperDrugID>
SD002263

$$$$
