lofepramine
  CDK     0628171801

 57 60  0  0  0  0  0  0  0  0999 V2000
    1.8911   -2.5952   -2.0471 C   0  0  2  0  0  0  0  0  0  0  0  0
    0.7559   -3.1981   -1.1646 C   0  0  2  0  0  0  0  0  0  0  0  0
    2.6265   -3.5423   -2.8765 N   0  0  0  0  0  0  0  0  0  0  0  0
    0.0381   -2.1457   -0.2773 C   0  0  1  0  0  0  0  0  0  0  0  0
    3.0589   -3.2230   -4.1582 C   0  0  0  0  0  0  0  0  0  0  0  0
    3.0168   -4.7438   -2.3318 C   0  0  0  0  0  0  0  0  0  0  0  0
    0.9537   -1.3778    0.6362 N   0  0  2  0  0  0  0  0  0  0  0  0
    2.9517   -4.1004   -5.2869 C   0  0  0  0  0  0  0  0  0  0  0  0
    3.7093   -1.9741   -4.3363 C   0  0  0  0  0  0  0  0  0  0  0  0
    2.4960   -5.9619   -2.8377 C   0  0  0  0  0  0  0  0  0  0  0  0
    3.9076   -4.7685   -1.2325 C   0  0  0  0  0  0  0  0  0  0  0  0
    1.3889   -2.1361    1.8586 C   0  0  2  0  0  0  0  0  0  0  0  0
    0.4347   -0.0045    0.9306 C   0  0  0  0  0  0  0  0  0  0  0  0
    2.3070   -5.4531   -5.2865 C   0  0  2  0  0  0  0  0  0  0  0  0
    3.5082   -3.6945   -6.5272 C   0  0  0  0  0  0  0  0  0  0  0  0
    4.2699   -1.6031   -5.5684 C   0  0  0  0  0  0  0  0  0  0  0  0
    1.5779   -5.9295   -4.0058 C   0  0  1  0  0  0  0  0  0  0  0  0
    2.8613   -7.1808   -2.2185 C   0  0  0  0  0  0  0  0  0  0  0  0
    4.2572   -5.9849   -0.6231 C   0  0  0  0  0  0  0  0  0  0  0  0
    2.4957   -1.4498    2.5846 C   0  0  0  0  0  0  0  0  0  0  0  0
    4.1726   -2.4672   -6.6661 C   0  0  0  0  0  0  0  0  0  0  0  0
    3.7334   -7.1912   -1.1153 C   0  0  0  0  0  0  0  0  0  0  0  0
    3.5776   -1.4276    1.9476 O   0  0  0  0  0  0  0  0  0  0  0  0
    2.4132   -0.7967    3.8652 C   0  0  0  0  0  0  0  0  0  0  0  0
    3.5771   -0.2217    4.4440 C   0  0  0  0  0  0  0  0  0  0  0  0
    1.2017   -0.6547    4.5944 C   0  0  0  0  0  0  0  0  0  0  0  0
    3.5358    0.4596    5.6751 C   0  0  0  0  0  0  0  0  0  0  0  0
    1.1555    0.0259    5.8270 C   0  0  0  0  0  0  0  0  0  0  0  0
    2.3222    0.5922    6.3691 C   0  0  0  0  0  0  0  0  0  0  0  0
    2.2615    1.4347    7.8375 Cl  0  0  0  0  0  0  0  0  0  0  0  0
    2.6137   -2.0978   -1.3959 H   0  0  0  0  0  0  0  0  0  0  0  0
    1.4330   -1.8189   -2.6692 H   0  0  0  0  0  0  0  0  0  0  0  0
    1.1516   -3.9842   -0.5209 H   0  0  0  0  0  0  0  0  0  0  0  0
    0.0123   -3.6621   -1.8185 H   0  0  0  0  0  0  0  0  0  0  0  0
   -0.4750   -1.4676   -0.9667 H   0  0  0  0  0  0  0  0  0  0  0  0
   -0.7404   -2.6454    0.3076 H   0  0  0  0  0  0  0  0  0  0  0  0
    3.8020   -1.3208   -3.5547 H   0  0  0  0  0  0  0  0  0  0  0  0
    4.3007   -3.8985   -0.8648 H   0  0  0  0  0  0  0  0  0  0  0  0
    1.7755   -3.1179    1.5707 H   0  0  0  0  0  0  0  0  0  0  0  0
    0.5267   -2.3362    2.4939 H   0  0  0  0  0  0  0  0  0  0  0  0
   -0.5145   -0.0485    1.4703 H   0  0  0  0  0  0  0  0  0  0  0  0
    0.2878    0.5495    0.0011 H   0  0  0  0  0  0  0  0  0  0  0  0
    1.1447    0.5748    1.5219 H   0  0  0  0  0  0  0  0  0  0  0  0
    3.0780   -6.1934   -5.5257 H   0  0  0  0  0  0  0  0  0  0  0  0
    1.5712   -5.4827   -6.0970 H   0  0  0  0  0  0  0  0  0  0  0  0
    3.4377   -4.2975   -7.3521 H   0  0  0  0  0  0  0  0  0  0  0  0
    4.7515   -0.7068   -5.6637 H   0  0  0  0  0  0  0  0  0  0  0  0
    1.1645   -6.9231   -4.2003 H   0  0  0  0  0  0  0  0  0  0  0  0
    0.7284   -5.2699   -3.8028 H   0  0  0  0  0  0  0  0  0  0  0  0
    2.4941   -8.0694   -2.5652 H   0  0  0  0  0  0  0  0  0  0  0  0
    4.8871   -5.9904    0.1817 H   0  0  0  0  0  0  0  0  0  0  0  0
    4.5844   -2.2051   -7.5639 H   0  0  0  0  0  0  0  0  0  0  0  0
    3.9855   -8.0758   -0.6691 H   0  0  0  0  0  0  0  0  0  0  0  0
    4.4810   -0.2803    3.9694 H   0  0  0  0  0  0  0  0  0  0  0  0
    0.3222   -1.0292    4.2409 H   0  0  0  0  0  0  0  0  0  0  0  0
    4.3938    0.8624    6.0591 H   0  0  0  0  0  0  0  0  0  0  0  0
    0.2660    0.1136    6.3244 H   0  0  0  0  0  0  0  0  0  0  0  0
  1  2  1  0  0  0  0 
  1  3  1  0  0  0  0 
  2  4  1  0  0  0  0 
  3  5  1  0  0  0  0 
  3  6  1  0  0  0  0 
  4  7  1  0  0  0  0 
  5  8  2  0  0  0  0 
  5  9  1  0  0  0  0 
  6 10  2  0  0  0  0 
  6 11  1  0  0  0  0 
  7 12  1  0  0  0  0 
  7 13  1  0  0  0  0 
  8 14  1  0  0  0  0 
  8 15  1  0  0  0  0 
  9 16  2  0  0  0  0 
 10 17  1  0  0  0  0 
 10 18  1  0  0  0  0 
 11 19  2  0  0  0  0 
 12 20  1  0  0  0  0 
 14 17  1  0  0  0  0 
 15 21  2  0  0  0  0 
 16 21  1  0  0  0  0 
 18 22  2  0  0  0  0 
 19 22  1  0  0  0  0 
 20 23  2  0  0  0  0 
 20 24  1  0  0  0  0 
 24 25  2  0  0  0  0 
 24 26  1  0  0  0  0 
 25 27  1  0  0  0  0 
 26 28  2  0  0  0  0 
 27 29  2  0  0  0  0 
 28 29  1  0  0  0  0 
 29 30  1  0  0  0  0 
 31  1  1  0  0  0  0 
 32  1  1  0  0  0  0 
 33  2  1  0  0  0  0 
 34  2  1  0  0  0  0 
 35  4  1  0  0  0  0 
 36  4  1  0  0  0  0 
 37  9  1  0  0  0  0 
 38 11  1  0  0  0  0 
 39 12  1  0  0  0  0 
 40 12  1  0  0  0  0 
 41 13  1  0  0  0  0 
 42 13  1  0  0  0  0 
 43 13  1  0  0  0  0 
 44 14  1  0  0  0  0 
 45 14  1  0  0  0  0 
 46 15  1  0  0  0  0 
 47 16  1  0  0  0  0 
 48 17  1  0  0  0  0 
 49 17  1  0  0  0  0 
 50 18  1  0  0  0  0 
 51 19  1  0  0  0  0 
 52 21  1  0  0  0  0 
 53 22  1  0  0  0  0 
 54 25  1  0  0  0  0 
 55 26  1  0  0  0  0 
 56 27  1  0  0  0  0 
 57 28  1  0  0  0  0 
M  END
> <cdk:Title>
lofepramine

> <Conformer>
1

> <SuperDrugID>
SD001406

$$$$
