emedastine
  CDK     0628171802

 48 50  0  0  0  0  0  0  0  0999 V2000
    2.9479    3.5343   -2.3710 C   0  0  2  0  0  0  0  0  0  0  0  0
    2.6542    2.1711   -3.0511 C   0  0  1  0  0  0  0  0  0  0  0  0
    4.1616    4.1632   -2.8364 N   0  0  0  0  0  0  0  0  0  0  0  0
    2.2271    2.2831   -4.4271 O   0  0  0  0  0  0  0  0  0  0  0  0
    4.2747    5.2263   -3.6733 C   0  0  0  0  0  0  0  0  0  0  0  0
    5.4277    3.8102   -2.5273 C   0  0  0  0  0  0  0  0  0  0  0  0
    0.8250    2.5654   -4.6285 C   0  0  2  0  0  0  0  0  0  0  0  0
    5.5639    5.5326   -3.9187 N   0  0  0  0  0  0  0  0  0  0  0  0
    3.2572    5.9300   -4.2420 N   0  0  0  0  0  0  0  0  0  0  0  0
    6.2911    4.6646   -3.2101 C   0  0  0  0  0  0  0  0  0  0  0  0
    5.9486    2.8029   -1.6911 C   0  0  0  0  0  0  0  0  0  0  0  0
    0.4691    2.4109   -6.1171 C   0  0  0  0  0  0  0  0  0  0  0  0
    2.9613    5.7275   -5.6382 C   0  0  2  0  0  0  0  0  0  0  0  0
    2.4540    6.8227   -3.4413 C   0  0  2  0  0  0  0  0  0  0  0  0
    7.6882    4.5521   -3.1000 C   0  0  0  0  0  0  0  0  0  0  0  0
    7.3491    2.6703   -1.5702 C   0  0  0  0  0  0  0  0  0  0  0  0
    3.3473    6.9390   -6.5175 C   0  0  2  0  0  0  0  0  0  0  0  0
    2.8418    8.3233   -3.5502 C   0  0  2  0  0  0  0  0  0  0  0  0
    8.2135    3.5410   -2.2696 C   0  0  0  0  0  0  0  0  0  0  0  0
    2.6872    8.2774   -6.0972 C   0  0  2  0  0  0  0  0  0  0  0  0
    3.3285    8.8432   -4.8689 N   0  0  1  0  0  0  0  0  0  0  0  0
    3.4444   10.3332   -4.8823 C   0  0  0  0  0  0  0  0  0  0  0  0
    3.0209    3.3871   -1.2900 H   0  0  0  0  0  0  0  0  0  0  0  0
    2.0843    4.1795   -2.5268 H   0  0  0  0  0  0  0  0  0  0  0  0
    3.5650    1.5733   -3.0539 H   0  0  0  0  0  0  0  0  0  0  0  0
    1.9259    1.6137   -2.4532 H   0  0  0  0  0  0  0  0  0  0  0  0
    0.5842    3.5825   -4.3136 H   0  0  0  0  0  0  0  0  0  0  0  0
    0.2027    1.8683   -4.0624 H   0  0  0  0  0  0  0  0  0  0  0  0
    5.3282    2.1782   -1.1758 H   0  0  0  0  0  0  0  0  0  0  0  0
    0.6854    1.3945   -6.4483 H   0  0  0  0  0  0  0  0  0  0  0  0
   -0.5933    2.6089   -6.2684 H   0  0  0  0  0  0  0  0  0  0  0  0
    1.0506    3.1114   -6.7167 H   0  0  0  0  0  0  0  0  0  0  0  0
    1.8945    5.5202   -5.7568 H   0  0  0  0  0  0  0  0  0  0  0  0
    3.4834    4.8482   -6.0347 H   0  0  0  0  0  0  0  0  0  0  0  0
    2.5033    6.5510   -2.3811 H   0  0  0  0  0  0  0  0  0  0  0  0
    1.4021    6.7081   -3.7194 H   0  0  0  0  0  0  0  0  0  0  0  0
    8.3087    5.1875   -3.6079 H   0  0  0  0  0  0  0  0  0  0  0  0
    7.7415    1.9413   -0.9708 H   0  0  0  0  0  0  0  0  0  0  0  0
    3.0497    6.7107   -7.5435 H   0  0  0  0  0  0  0  0  0  0  0  0
    4.4341    7.0536   -6.5161 H   0  0  0  0  0  0  0  0  0  0  0  0
    3.6402    8.5050   -2.8262 H   0  0  0  0  0  0  0  0  0  0  0  0
    1.9712    8.8995   -3.2206 H   0  0  0  0  0  0  0  0  0  0  0  0
    9.2253    3.4412   -2.1708 H   0  0  0  0  0  0  0  0  0  0  0  0
    1.6102    8.1467   -5.9551 H   0  0  0  0  0  0  0  0  0  0  0  0
    2.8151    8.9581   -6.9432 H   0  0  0  0  0  0  0  0  0  0  0  0
    3.9711   10.6905   -3.9958 H   0  0  0  0  0  0  0  0  0  0  0  0
    4.0152   10.6619   -5.7525 H   0  0  0  0  0  0  0  0  0  0  0  0
    2.4577   10.8010   -4.9157 H   0  0  0  0  0  0  0  0  0  0  0  0
  1  2  1  0  0  0  0 
  1  3  1  0  0  0  0 
  2  4  1  0  0  0  0 
  3  5  1  0  0  0  0 
  3  6  1  0  0  0  0 
  4  7  1  0  0  0  0 
  5  8  2  0  0  0  0 
  5  9  1  0  0  0  0 
  6 10  1  0  0  0  0 
  6 11  2  0  0  0  0 
  7 12  1  0  0  0  0 
  8 10  1  0  0  0  0 
  9 13  1  0  0  0  0 
  9 14  1  0  0  0  0 
 10 15  2  0  0  0  0 
 11 16  1  0  0  0  0 
 13 17  1  0  0  0  0 
 14 18  1  0  0  0  0 
 15 19  1  0  0  0  0 
 16 19  2  0  0  0  0 
 17 20  1  0  0  0  0 
 18 21  1  0  0  0  0 
 20 21  1  0  0  0  0 
 21 22  1  0  0  0  0 
  1 23  1  0  0  0  0 
  1 24  1  0  0  0  0 
  2 25  1  0  0  0  0 
  2 26  1  0  0  0  0 
  7 27  1  0  0  0  0 
  7 28  1  0  0  0  0 
 11 29  1  0  0  0  0 
 12 30  1  0  0  0  0 
 12 31  1  0  0  0  0 
 12 32  1  0  0  0  0 
 13 33  1  0  0  0  0 
 13 34  1  0  0  0  0 
 14 35  1  0  0  0  0 
 14 36  1  0  0  0  0 
 15 37  1  0  0  0  0 
 16 38  1  0  0  0  0 
 17 39  1  0  0  0  0 
 17 40  1  0  0  0  0 
 18 41  1  0  0  0  0 
 18 42  1  0  0  0  0 
 19 43  1  0  0  0  0 
 20 44  1  0  0  0  0 
 20 45  1  0  0  0  0 
 22 46  1  0  0  0  0 
 22 47  1  0  0  0  0 
 22 48  1  0  0  0  0 
M  END
> <cdk:Title>
emedastine

> <Conformer>
1

> <SuperDrugID>
SD000887

$$$$
