triazolam
  CDK     0628171801

 35 38  0  0  0  0  0  0  0  0999 V2000
   -6.0929    3.7756    3.3207 C   0  0  0  0  0  0  0  0  0  0  0  0
   -6.2463    2.7377    2.2866 C   0  0  0  0  0  0  0  0  0  0  0  0
   -5.3767    2.3786    1.3115 N   0  0  0  0  0  0  0  0  0  0  0  0
   -7.3312    1.9457    2.2200 N   0  0  0  0  0  0  0  0  0  0  0  0
   -4.1389    2.9036    0.9706 C   0  0  0  0  0  0  0  0  0  0  0  0
   -5.9714    1.3315    0.7103 C   0  0  0  0  0  0  0  0  0  0  0  0
   -7.1687    1.0934    1.2644 N   0  0  0  0  0  0  0  0  0  0  0  0
   -3.0163    2.0828    0.6139 C   0  0  0  0  0  0  0  0  0  0  0  0
   -3.9909    4.3117    0.9261 C   0  0  0  0  0  0  0  0  0  0  0  0
   -5.3640    0.5467   -0.3705 C   0  0  2  0  0  0  0  0  0  0  0  0
   -3.1003    0.6742    0.5006 C   0  0  0  0  0  0  0  0  0  0  0  0
   -1.7797    2.7187    0.3148 C   0  0  0  0  0  0  0  0  0  0  0  0
   -2.7648    4.9150    0.6113 C   0  0  0  0  0  0  0  0  0  0  0  0
   -4.1423    0.0471    0.0681 N   0  0  0  0  0  0  0  0  0  0  0  0
   -2.0347   -0.1701    0.8067 C   0  0  0  0  0  0  0  0  0  0  0  0
   -1.6497    4.1180    0.3185 C   0  0  0  0  0  0  0  0  0  0  0  0
   -1.2535   -0.7888   -0.2094 C   0  0  0  0  0  0  0  0  0  0  0  0
   -1.7167   -0.4240    2.1628 C   0  0  0  0  0  0  0  0  0  0  0  0
   -0.1663    4.8463   -0.0536 Cl  0  0  0  0  0  0  0  0  0  0  0  0
   -1.5340   -0.5236   -1.8648 Cl  0  0  0  0  0  0  0  0  0  0  0  0
   -0.1876   -1.6446    0.1415 C   0  0  0  0  0  0  0  0  0  0  0  0
   -0.6492   -1.2759    2.5021 C   0  0  0  0  0  0  0  0  0  0  0  0
    0.1145   -1.8860    1.4922 C   0  0  0  0  0  0  0  0  0  0  0  0
   -6.8158    3.6214    4.1233 H   0  0  0  0  0  0  0  0  0  0  0  0
   -5.0893    3.7262    3.7450 H   0  0  0  0  0  0  0  0  0  0  0  0
   -6.2620    4.7636    2.8932 H   0  0  0  0  0  0  0  0  0  0  0  0
   -4.7894    4.9215    1.0986 H   0  0  0  0  0  0  0  0  0  0  0  0
   -5.2198    1.1800   -1.2491 H   0  0  0  0  0  0  0  0  0  0  0  0
   -6.0101   -0.2876   -0.6437 H   0  0  0  0  0  0  0  0  0  0  0  0
   -0.9530    2.1668    0.0681 H   0  0  0  0  0  0  0  0  0  0  0  0
   -2.6971    5.9360    0.5868 H   0  0  0  0  0  0  0  0  0  0  0  0
   -2.2638    0.0040    2.9153 H   0  0  0  0  0  0  0  0  0  0  0  0
    0.3761   -2.0975   -0.5831 H   0  0  0  0  0  0  0  0  0  0  0  0
   -0.4274   -1.4525    3.4847 H   0  0  0  0  0  0  0  0  0  0  0  0
    0.8903   -2.5050    1.7397 H   0  0  0  0  0  0  0  0  0  0  0  0
  1  2  1  0  0  0  0 
  2  3  1  0  0  0  0 
  2  4  2  0  0  0  0 
  3  5  1  0  0  0  0 
  3  6  1  0  0  0  0 
  4  7  1  0  0  0  0 
  5  8  2  0  0  0  0 
  5  9  1  0  0  0  0 
  6  7  2  0  0  0  0 
  6 10  1  0  0  0  0 
  8 11  1  0  0  0  0 
  8 12  1  0  0  0  0 
  9 13  2  0  0  0  0 
 10 14  1  0  0  0  0 
 11 14  2  0  0  0  0 
 11 15  1  0  0  0  0 
 12 16  2  0  0  0  0 
 13 16  1  0  0  0  0 
 15 17  2  0  0  0  0 
 15 18  1  0  0  0  0 
 16 19  1  0  0  0  0 
 17 20  1  0  0  0  0 
 17 21  1  0  0  0  0 
 18 22  2  0  0  0  0 
 21 23  2  0  0  0  0 
 22 23  1  0  0  0  0 
  1 24  1  0  0  0  0 
  1 25  1  0  0  0  0 
  1 26  1  0  0  0  0 
  9 27  1  0  0  0  0 
 10 28  1  0  0  0  0 
 10 29  1  0  0  0  0 
 12 30  1  0  0  0  0 
 13 31  1  0  0  0  0 
 18 32  1  0  0  0  0 
 21 33  1  0  0  0  0 
 22 34  1  0  0  0  0 
 23 35  1  0  0  0  0 
M  END
> <cdk:Title>
triazolam

> <Conformer>
1

> <SuperDrugID>
SD002459

$$$$
