remikiren
  CDK     0628171802

 94 97  0  0  0  0  0  0  0  0999 V2000
   -3.5428    0.6149    0.5167 C   0  0  1  0  0  0  0  0  0  0  0  0
   -4.1634   -0.6736    0.4204 N   0  0  0  0  0  0  0  0  0  0  0  0
   -2.2643    0.6303   -0.3866 C   0  0  2  0  0  0  0  0  0  0  0  0
   -4.6227    1.6715    0.1009 C   0  0  2  0  0  0  0  0  0  0  0  0
   -4.6989   -1.4079    1.4404 C   0  0  0  0  0  0  0  0  0  0  0  0
   -1.1818   -0.4734   -0.1253 C   0  0  2  0  0  0  0  0  0  0  0  0
   -4.1939    3.1613    0.2286 C   0  0  1  0  0  0  0  0  0  0  0  0
   -5.8123    1.4659    0.8711 O   0  0  0  0  0  0  0  0  0  0  0  0
   -5.3043   -2.7329    1.1323 C   0  0  2  0  0  0  0  0  0  0  0  0
   -4.6813   -0.9906    2.6233 O   0  0  0  0  0  0  0  0  0  0  0  0
   -0.5268   -0.3686    1.2901 C   0  0  1  0  0  0  0  0  0  0  0  0
   -0.0847   -0.4176   -1.2368 C   0  0  2  0  0  0  0  0  0  0  0  0
   -5.2422    3.9942   -0.2600 O   0  0  0  0  0  0  0  0  0  0  0  0
   -3.9182    3.5925    1.6915 C   0  0  1  0  0  0  0  0  0  0  0  0
   -4.1685   -3.6907    0.6524 C   0  0  2  0  0  0  0  0  0  0  0  0
   -6.4175   -2.4773    0.2579 N   0  0  0  0  0  0  0  0  0  0  0  0
    0.6576   -1.3557    1.5056 C   0  0  2  0  0  0  0  0  0  0  0  0
    1.0475   -1.4528   -1.0183 C   0  0  2  0  0  0  0  0  0  0  0  0
   -2.4759    3.6287    2.2229 C   0  0  2  0  0  0  0  0  0  0  0  0
   -3.2064    4.9390    1.9043 C   0  0  1  0  0  0  0  0  0  0  0  0
   -3.2642   -4.0517    1.7573 C   0  0  0  0  0  0  0  0  0  0  0  0
   -7.3496   -3.2932   -0.3304 C   0  0  0  0  0  0  0  0  0  0  0  0
    1.7060   -1.2805    0.3715 C   0  0  2  0  0  0  0  0  0  0  0  0
   -3.5546   -4.8570    2.8539 C   0  0  0  0  0  0  0  0  0  0  0  0
   -2.0007   -3.6549    1.9073 N   0  0  0  0  0  0  0  0  0  0  0  0
   -7.3685   -4.7741   -0.5656 C   0  0  2  0  0  0  0  0  0  0  0  0
   -8.3369   -2.6472   -0.7523 O   0  0  0  0  0  0  0  0  0  0  0  0
   -2.4727   -4.9194    3.6430 N   0  0  0  0  0  0  0  0  0  0  0  0
   -1.5287   -4.1705    3.0498 C   0  0  0  0  0  0  0  0  0  0  0  0
   -7.1965   -5.6545    0.7230 C   0  0  2  0  0  0  0  0  0  0  0  0
   -6.4287   -5.1543   -1.7636 C   0  0  2  0  0  0  0  0  0  0  0  0
   -8.4078   -5.7640    1.5871 C   0  0  0  0  0  0  0  0  0  0  0  0
   -7.0481   -4.6479   -3.4202 S   0  0  2  0  0  0  0  0  0  0  0  0
   -9.0825   -7.0011    1.7296 C   0  0  0  0  0  0  0  0  0  0  0  0
   -8.8948   -4.6450    2.3062 C   0  0  0  0  0  0  0  0  0  0  0  0
   -5.7724   -4.8365   -4.7496 C   0  0  2  0  0  0  0  0  0  0  0  0
   -7.5085   -3.1115   -3.3884 O   0  0  0  0  0  0  0  0  0  0  0  0
   -8.3306   -5.5434   -3.7755 O   0  0  0  0  0  0  0  0  0  0  0  0
  -10.2144   -7.1139    2.5567 C   0  0  0  0  0  0  0  0  0  0  0  0
  -10.0302   -4.7565    3.1297 C   0  0  0  0  0  0  0  0  0  0  0  0
   -6.4552   -4.4863   -6.1085 C   0  0  0  0  0  0  0  0  0  0  0  0
   -5.2279   -6.2980   -4.7988 C   0  0  0  0  0  0  0  0  0  0  0  0
   -4.5967   -3.8441   -4.4887 C   0  0  0  0  0  0  0  0  0  0  0  0
  -10.6912   -5.9910    3.2536 C   0  0  0  0  0  0  0  0  0  0  0  0
   -3.2335    0.8199    1.5441 H   0  0  0  0  0  0  0  0  0  0  0  0
   -4.2262   -1.0547   -0.4703 H   0  0  0  0  0  0  0  0  0  0  0  0
   -1.7741    1.6010   -0.2854 H   0  0  0  0  0  0  0  0  0  0  0  0
   -2.5944    0.5436   -1.4270 H   0  0  0  0  0  0  0  0  0  0  0  0
   -4.8960    1.4930   -0.9430 H   0  0  0  0  0  0  0  0  0  0  0  0
   -1.6724   -1.4467   -0.2028 H   0  0  0  0  0  0  0  0  0  0  0  0
   -3.3232    3.3477   -0.4010 H   0  0  0  0  0  0  0  0  0  0  0  0
   -6.4696    2.1066    0.5257 H   0  0  0  0  0  0  0  0  0  0  0  0
   -5.7392   -3.1294    2.0541 H   0  0  0  0  0  0  0  0  0  0  0  0
   -0.1640    0.6512    1.4426 H   0  0  0  0  0  0  0  0  0  0  0  0
   -1.2767   -0.5721    2.0566 H   0  0  0  0  0  0  0  0  0  0  0  0
    0.3522    0.5846   -1.2716 H   0  0  0  0  0  0  0  0  0  0  0  0
   -0.5373   -0.6146   -2.2105 H   0  0  0  0  0  0  0  0  0  0  0  0
   -5.3936    3.7038   -1.1845 H   0  0  0  0  0  0  0  0  0  0  0  0
   -4.6779    3.3773    2.4441 H   0  0  0  0  0  0  0  0  0  0  0  0
   -3.6018   -3.2384   -0.1655 H   0  0  0  0  0  0  0  0  0  0  0  0
   -4.5565   -4.6305    0.2893 H   0  0  0  0  0  0  0  0  0  0  0  0
   -6.6001   -1.5318    0.1256 H   0  0  0  0  0  0  0  0  0  0  0  0
    0.2948   -2.3800    1.5510 H   0  0  0  0  0  0  0  0  0  0  0  0
    1.1437   -1.1430    2.4612 H   0  0  0  0  0  0  0  0  0  0  0  0
    1.8091   -1.3298   -1.7918 H   0  0  0  0  0  0  0  0  0  0  0  0
    0.6427   -2.4645   -1.1072 H   0  0  0  0  0  0  0  0  0  0  0  0
   -1.6769    3.3692    1.5292 H   0  0  0  0  0  0  0  0  0  0  0  0
   -2.3422    3.4199    3.2857 H   0  0  0  0  0  0  0  0  0  0  0  0
   -2.8516    5.4624    1.0142 H   0  0  0  0  0  0  0  0  0  0  0  0
   -3.5265    5.5207    2.7709 H   0  0  0  0  0  0  0  0  0  0  0  0
    2.4535   -2.0676    0.5147 H   0  0  0  0  0  0  0  0  0  0  0  0
    2.2180   -0.3165    0.4179 H   0  0  0  0  0  0  0  0  0  0  0  0
   -4.4451   -5.3237    3.0335 H   0  0  0  0  0  0  0  0  0  0  0  0
   -1.5209   -3.0757    1.2989 H   0  0  0  0  0  0  0  0  0  0  0  0
   -8.3676   -5.0371   -0.9330 H   0  0  0  0  0  0  0  0  0  0  0  0
   -0.5891   -4.0179    3.4158 H   0  0  0  0  0  0  0  0  0  0  0  0
   -6.3980   -5.2912    1.3569 H   0  0  0  0  0  0  0  0  0  0  0  0
   -6.8846   -6.6555    0.4152 H   0  0  0  0  0  0  0  0  0  0  0  0
   -6.2936   -6.2371   -1.7993 H   0  0  0  0  0  0  0  0  0  0  0  0
   -5.4496   -4.7041   -1.6606 H   0  0  0  0  0  0  0  0  0  0  0  0
   -8.7536   -7.8337    1.2337 H   0  0  0  0  0  0  0  0  0  0  0  0
   -8.4229   -3.7409    2.2426 H   0  0  0  0  0  0  0  0  0  0  0  0
  -10.6910   -8.0133    2.6491 H   0  0  0  0  0  0  0  0  0  0  0  0
  -10.3762   -3.9403    3.6394 H   0  0  0  0  0  0  0  0  0  0  0  0
   -6.8199   -3.4568   -6.1083 H   0  0  0  0  0  0  0  0  0  0  0  0
   -7.3041   -5.1462   -6.2999 H   0  0  0  0  0  0  0  0  0  0  0  0
   -5.7532   -4.5936   -6.9378 H   0  0  0  0  0  0  0  0  0  0  0  0
   -4.7880   -6.5338   -3.7832 H   0  0  0  0  0  0  0  0  0  0  0  0
   -6.1179   -6.9922   -4.8837 H   0  0  0  0  0  0  0  0  0  0  0  0
   -4.4680   -6.3467   -5.6936 H   0  0  0  0  0  0  0  0  0  0  0  0
   -4.9605   -2.8166   -4.4228 H   0  0  0  0  0  0  0  0  0  0  0  0
   -4.0813   -4.0833   -3.5572 H   0  0  0  0  0  0  0  0  0  0  0  0
   -3.8647   -3.8917   -5.2984 H   0  0  0  0  0  0  0  0  0  0  0  0
  -11.5167   -6.0730    3.8508 H   0  0  0  0  0  0  0  0  0  0  0  0
  1  2  1  0  0  0  0 
  1  3  1  0  0  0  0 
  4  1  1  0  0  0  0 
  2  5  1  0  0  0  0 
  3  6  1  0  0  0  0 
  4  7  1  0  0  0  0 
  4  8  1  0  0  0  0 
  9  5  1  0  0  0  0 
  5 10  2  0  0  0  0 
  6 11  1  0  0  0  0 
  6 12  1  0  0  0  0 
  7 13  1  0  0  0  0 
  7 14  1  0  0  0  0 
  9 15  1  0  0  0  0 
  9 16  1  0  0  0  0 
 11 17  1  0  0  0  0 
 12 18  1  0  0  0  0 
 14 19  1  0  0  0  0 
 14 20  1  0  0  0  0 
 15 21  1  0  0  0  0 
 16 22  1  0  0  0  0 
 17 23  1  0  0  0  0 
 18 23  1  0  0  0  0 
 19 20  1  0  0  0  0 
 21 24  2  0  0  0  0 
 21 25  1  0  0  0  0 
 22 27  2  0  0  0  0 
 24 28  1  0  0  0  0 
 25 29  1  0  0  0  0 
 26 22  1  0  0  0  0 
 26 30  1  0  0  0  0 
 26 31  1  0  0  0  0 
 28 29  2  0  0  0  0 
 30 32  1  0  0  0  0 
 31 33  1  0  0  0  0 
 32 34  2  0  0  0  0 
 32 35  1  0  0  0  0 
 33 36  1  0  0  0  0 
 33 37  2  0  0  0  0 
 33 38  2  0  0  0  0 
 34 39  1  0  0  0  0 
 35 40  2  0  0  0  0 
 36 41  1  0  0  0  0 
 36 42  1  0  0  0  0 
 36 43  1  0  0  0  0 
 39 44  2  0  0  0  0 
 40 44  1  0  0  0  0 
  1 45  1  0  0  0  0 
 46  2  1  0  0  0  0 
 47  3  1  0  0  0  0 
 48  3  1  0  0  0  0 
  4 49  1  0  0  0  0 
 50  6  1  0  0  0  0 
  7 51  1  0  0  0  0 
 52  8  1  0  0  0  0 
  9 53  1  0  0  0  0 
 54 11  1  0  0  0  0 
 55 11  1  0  0  0  0 
 56 12  1  0  0  0  0 
 57 12  1  0  0  0  0 
 58 13  1  0  0  0  0 
 59 14  1  0  0  0  0 
 60 15  1  0  0  0  0 
 61 15  1  0  0  0  0 
 62 16  1  0  0  0  0 
 63 17  1  0  0  0  0 
 64 17  1  0  0  0  0 
 65 18  1  0  0  0  0 
 66 18  1  0  0  0  0 
 67 19  1  0  0  0  0 
 68 19  1  0  0  0  0 
 69 20  1  0  0  0  0 
 70 20  1  0  0  0  0 
 71 23  1  0  0  0  0 
 72 23  1  0  0  0  0 
 73 24  1  0  0  0  0 
 74 25  1  0  0  0  0 
 26 75  1  0  0  0  0 
 76 29  1  0  0  0  0 
 77 30  1  0  0  0  0 
 78 30  1  0  0  0  0 
 79 31  1  0  0  0  0 
 80 31  1  0  0  0  0 
 81 34  1  0  0  0  0 
 82 35  1  0  0  0  0 
 83 39  1  0  0  0  0 
 84 40  1  0  0  0  0 
 85 41  1  0  0  0  0 
 86 41  1  0  0  0  0 
 87 41  1  0  0  0  0 
 88 42  1  0  0  0  0 
 89 42  1  0  0  0  0 
 90 42  1  0  0  0  0 
 91 43  1  0  0  0  0 
 92 43  1  0  0  0  0 
 93 43  1  0  0  0  0 
 94 44  1  0  0  0  0 
M  END
> <cdk:Title>
remikiren

> <Conformer>
1

> <SuperDrugID>
SD003720

$$$$
