dimazole
  CDK     0628171801

 43 44  0  0  0  0  0  0  0  0999 V2000
    4.5081    7.1264   -3.1239 N   0  0  0  0  0  0  0  0  0  0  0  0
    5.9478    7.1438   -3.2062 C   0  0  0  0  0  0  0  0  0  0  0  0
    3.7326    8.2251   -3.6458 C   0  0  0  0  0  0  0  0  0  0  0  0
    3.8854    6.0986   -2.4526 C   0  0  0  0  0  0  0  0  0  0  0  0
    4.4999    5.0400   -1.8609 N   0  0  0  0  0  0  0  0  0  0  0  0
    2.1569    5.8826   -2.1755 S   0  0  0  0  0  0  0  0  0  0  0  0
    3.7048    4.1315   -1.2351 C   0  0  0  0  0  0  0  0  0  0  0  0
    2.3288    4.3914   -1.2785 C   0  0  0  0  0  0  0  0  0  0  0  0
    4.1553    2.9842   -0.5574 C   0  0  0  0  0  0  0  0  0  0  0  0
    1.3784    3.5570   -0.6746 C   0  0  0  0  0  0  0  0  0  0  0  0
    3.2213    2.1233    0.0592 C   0  0  0  0  0  0  0  0  0  0  0  0
    1.8353    2.4039    0.0032 C   0  0  0  0  0  0  0  0  0  0  0  0
    0.9530    1.5805    0.6542 O   0  0  0  0  0  0  0  0  0  0  0  0
    0.2749    0.6541   -0.2172 C   0  0  1  0  0  0  0  0  0  0  0  0
   -0.6818   -0.2547    0.6005 C   0  0  1  0  0  0  0  0  0  0  0  0
   -0.1253   -0.8515    1.8700 N   0  0  1  0  0  0  0  0  0  0  0  0
   -1.1808   -1.5291    2.7093 C   0  0  2  0  0  0  0  0  0  0  0  0
    1.0787   -1.7227    1.6172 C   0  0  2  0  0  0  0  0  0  0  0  0
   -2.3160   -0.6165    3.2337 C   0  0  0  0  0  0  0  0  0  0  0  0
    1.8411   -2.2203    2.8688 C   0  0  0  0  0  0  0  0  0  0  0  0
    6.3332    6.1685   -3.5139 H   0  0  0  0  0  0  0  0  0  0  0  0
    6.3243    7.8769   -3.9239 H   0  0  0  0  0  0  0  0  0  0  0  0
    6.3589    7.3906   -2.2249 H   0  0  0  0  0  0  0  0  0  0  0  0
    2.9225    7.8583   -4.2794 H   0  0  0  0  0  0  0  0  0  0  0  0
    4.3264    8.9190   -4.2463 H   0  0  0  0  0  0  0  0  0  0  0  0
    3.3040    8.7900   -2.8164 H   0  0  0  0  0  0  0  0  0  0  0  0
    5.1536    2.7771   -0.5065 H   0  0  0  0  0  0  0  0  0  0  0  0
    0.3849    3.7864   -0.7187 H   0  0  0  0  0  0  0  0  0  0  0  0
    3.5548    1.2937    0.5573 H   0  0  0  0  0  0  0  0  0  0  0  0
   -0.3230    1.2023   -0.9526 H   0  0  0  0  0  0  0  0  0  0  0  0
    0.9898    0.0384   -0.7700 H   0  0  0  0  0  0  0  0  0  0  0  0
   -1.5328    0.3840    0.8426 H   0  0  0  0  0  0  0  0  0  0  0  0
   -1.0518   -1.0479   -0.0557 H   0  0  0  0  0  0  0  0  0  0  0  0
   -0.7248   -1.9389    3.6119 H   0  0  0  0  0  0  0  0  0  0  0  0
   -1.6255   -2.3644    2.1600 H   0  0  0  0  0  0  0  0  0  0  0  0
    1.8206   -1.1561    1.0507 H   0  0  0  0  0  0  0  0  0  0  0  0
    0.7961   -2.5896    1.0132 H   0  0  0  0  0  0  0  0  0  0  0  0
   -2.8704   -1.1314    4.0219 H   0  0  0  0  0  0  0  0  0  0  0  0
   -3.0223   -0.3746    2.4390 H   0  0  0  0  0  0  0  0  0  0  0  0
   -1.9012    0.3059    3.6454 H   0  0  0  0  0  0  0  0  0  0  0  0
    2.8079   -2.6318    2.5707 H   0  0  0  0  0  0  0  0  0  0  0  0
    1.2899   -3.0138    3.3748 H   0  0  0  0  0  0  0  0  0  0  0  0
    2.0110   -1.3946    3.5627 H   0  0  0  0  0  0  0  0  0  0  0  0
  1  2  1  0  0  0  0 
  1  3  1  0  0  0  0 
  1  4  1  0  0  0  0 
  4  5  2  0  0  0  0 
  4  6  1  0  0  0  0 
  5  7  1  0  0  0  0 
  6  8  1  0  0  0  0 
  7  8  1  0  0  0  0 
  7  9  2  0  0  0  0 
  8 10  2  0  0  0  0 
  9 11  1  0  0  0  0 
 10 12  1  0  0  0  0 
 11 12  2  0  0  0  0 
 12 13  1  0  0  0  0 
 13 14  1  0  0  0  0 
 14 15  1  0  0  0  0 
 15 16  1  0  0  0  0 
 16 17  1  0  0  0  0 
 16 18  1  0  0  0  0 
 17 19  1  0  0  0  0 
 18 20  1  0  0  0  0 
  2 21  1  0  0  0  0 
  2 22  1  0  0  0  0 
  2 23  1  0  0  0  0 
  3 24  1  0  0  0  0 
  3 25  1  0  0  0  0 
  3 26  1  0  0  0  0 
  9 27  1  0  0  0  0 
 10 28  1  0  0  0  0 
 11 29  1  0  0  0  0 
 14 30  1  0  0  0  0 
 14 31  1  0  0  0  0 
 15 32  1  0  0  0  0 
 15 33  1  0  0  0  0 
 17 34  1  0  0  0  0 
 17 35  1  0  0  0  0 
 18 36  1  0  0  0  0 
 18 37  1  0  0  0  0 
 19 38  1  0  0  0  0 
 19 39  1  0  0  0  0 
 19 40  1  0  0  0  0 
 20 41  1  0  0  0  0 
 20 42  1  0  0  0  0 
 20 43  1  0  0  0  0 
M  END
> <cdk:Title>
dimazole

> <Conformer>
1

> <SuperDrugID>
SD003183

$$$$
