nicotinamide
  CDK     0628171801

 15 15  0  0  0  0  0  0  0  0999 V2000
   -2.4048    2.4942   -0.1455 N   0  0  0  0  0  0  0  0  0  0  0  0
   -2.2555    1.1557   -0.1262 C   0  0  0  0  0  0  0  0  0  0  0  0
   -3.3212    0.4978   -0.1084 O   0  0  0  0  0  0  0  0  0  0  0  0
   -0.9839    0.5142   -0.1196 C   0  0  0  0  0  0  0  0  0  0  0  0
    0.2287    1.2451   -0.1905 C   0  0  0  0  0  0  0  0  0  0  0  0
    1.4279    0.6114   -0.1702 N   0  0  0  0  0  0  0  0  0  0  0  0
    1.5417   -0.7377   -0.0878 C   0  0  0  0  0  0  0  0  0  0  0  0
    0.3830   -1.5278   -0.0284 C   0  0  0  0  0  0  0  0  0  0  0  0
   -0.8737   -0.8974   -0.0418 C   0  0  0  0  0  0  0  0  0  0  0  0
   -1.6278    3.0718   -0.1491 H   0  0  0  0  0  0  0  0  0  0  0  0
   -3.2937    2.8839   -0.1516 H   0  0  0  0  0  0  0  0  0  0  0  0
    0.2304    2.2628   -0.2585 H   0  0  0  0  0  0  0  0  0  0  0  0
    2.4663   -1.1713   -0.0691 H   0  0  0  0  0  0  0  0  0  0  0  0
    0.4551   -2.5463    0.0280 H   0  0  0  0  0  0  0  0  0  0  0  0
   -1.7099   -1.4850    0.0104 H   0  0  0  0  0  0  0  0  0  0  0  0
  1  2  1  0  0  0  0 
  2  3  2  0  0  0  0 
  2  4  1  0  0  0  0 
  4  5  2  0  0  0  0 
  5  6  1  0  0  0  0 
  6  7  2  0  0  0  0 
  7  8  1  0  0  0  0 
  8  9  2  0  0  0  0 
  4  9  1  0  0  0  0 
  1 10  1  0  0  0  0 
  1 11  1  0  0  0  0 
  5 12  1  0  0  0  0 
  7 13  1  0  0  0  0 
  8 14  1  0  0  0  0 
  9 15  1  0  0  0  0 
M  END
> <cdk:Title>
nicotinamide

> <Conformer>
1

> <SuperDrugID>
SD001701

$$$$
