tinazoline
  CDK     0628171801

 26 28  0  0  0  0  0  0  0  0999 V2000
   -1.9169    2.1437    0.5262 S   0  0  0  0  0  0  0  0  0  0  0  0
   -0.8664    0.8900   -0.1231 C   0  0  0  0  0  0  0  0  0  0  0  0
   -2.5860    1.5146    1.9858 C   0  0  0  0  0  0  0  0  0  0  0  0
    0.2491    0.2935    0.4636 C   0  0  0  0  0  0  0  0  0  0  0  0
   -0.9985    0.3035   -1.3816 C   0  0  0  0  0  0  0  0  0  0  0  0
   -2.1288    1.7846    3.1452 N   0  0  0  0  0  0  0  0  0  0  0  0
   -3.6213    0.7211    2.0522 N   0  0  0  0  0  0  0  0  0  0  0  0
    0.7427   -0.6360   -0.4541 C   0  0  0  0  0  0  0  0  0  0  0  0
    0.8819    0.4807    1.7078 C   0  0  0  0  0  0  0  0  0  0  0  0
   -0.0259   -0.6091   -1.5535 N   0  0  0  0  0  0  0  0  0  0  0  0
   -2.8314    1.1490    4.1494 C   0  0  2  0  0  0  0  0  0  0  0  0
   -3.9597    0.4214    3.3883 C   0  0  1  0  0  0  0  0  0  0  0  0
    1.8732   -1.4198   -0.1644 C   0  0  0  0  0  0  0  0  0  0  0  0
    2.0164   -0.3027    2.0130 C   0  0  0  0  0  0  0  0  0  0  0  0
    2.5078   -1.2476    1.0839 C   0  0  0  0  0  0  0  0  0  0  0  0
   -1.7188    0.5269   -2.0710 H   0  0  0  0  0  0  0  0  0  0  0  0
   -4.1022    0.3864    1.2795 H   0  0  0  0  0  0  0  0  0  0  0  0
    0.5370    1.1704    2.3768 H   0  0  0  0  0  0  0  0  0  0  0  0
    0.1007   -1.1562   -2.3452 H   0  0  0  0  0  0  0  0  0  0  0  0
   -3.2226    1.8766    4.8634 H   0  0  0  0  0  0  0  0  0  0  0  0
   -2.1722    0.4449    4.6618 H   0  0  0  0  0  0  0  0  0  0  0  0
   -4.9445    0.8289    3.6332 H   0  0  0  0  0  0  0  0  0  0  0  0
   -3.9404   -0.6567    3.5662 H   0  0  0  0  0  0  0  0  0  0  0  0
    2.2257   -2.0999   -0.8412 H   0  0  0  0  0  0  0  0  0  0  0  0
    2.4890   -0.1847    2.9125 H   0  0  0  0  0  0  0  0  0  0  0  0
    3.3295   -1.8098    1.3172 H   0  0  0  0  0  0  0  0  0  0  0  0
  1  2  1  0  0  0  0 
  1  3  1  0  0  0  0 
  2  4  1  0  0  0  0 
  2  5  2  0  0  0  0 
  3  6  2  0  0  0  0 
  3  7  1  0  0  0  0 
  4  8  1  0  0  0  0 
  4  9  2  0  0  0  0 
  5 10  1  0  0  0  0 
  6 11  1  0  0  0  0 
  7 12  1  0  0  0  0 
  8 10  1  0  0  0  0 
  8 13  2  0  0  0  0 
  9 14  1  0  0  0  0 
 11 12  1  0  0  0  0 
 13 15  1  0  0  0  0 
 14 15  2  0  0  0  0 
  5 16  1  0  0  0  0 
  7 17  1  0  0  0  0 
  9 18  1  0  0  0  0 
 10 19  1  0  0  0  0 
 11 20  1  0  0  0  0 
 11 21  1  0  0  0  0 
 12 22  1  0  0  0  0 
 12 23  1  0  0  0  0 
 13 24  1  0  0  0  0 
 14 25  1  0  0  0  0 
 15 26  1  0  0  0  0 
M  END
> <cdk:Title>
tinazoline

> <Conformer>
1

> <SuperDrugID>
SD003344

$$$$
