ambuside
  CDK     0628171801

 40 40  0  0  0  0  0  0  0  0999 V2000
    2.1710    3.8294    0.1243 S   0  0  2  0  0  0  0  0  0  0  0  0
    3.7392    3.4482    0.8358 N   0  0  2  0  0  0  0  0  0  0  0  0
    2.1029    3.1637   -1.3342 O   0  0  0  0  0  0  0  0  0  0  0  0
    2.0475    5.4214   -0.0345 O   0  0  0  0  0  0  0  0  0  0  0  0
    0.8743    3.1715    1.1459 C   0  0  0  0  0  0  0  0  0  0  0  0
    4.8636    4.0206    0.0662 C   0  0  1  0  0  0  0  0  0  0  0  0
    0.6461    1.7762    1.2665 C   0  0  0  0  0  0  0  0  0  0  0  0
    0.0376    4.0806    1.8264 C   0  0  0  0  0  0  0  0  0  0  0  0
    6.1358    3.5837    0.6056 C   0  0  0  0  0  0  0  0  0  0  0  0
    1.5364    0.9030    0.6912 N   0  0  0  0  0  0  0  0  0  0  0  0
   -0.4745    1.3414    2.0170 C   0  0  0  0  0  0  0  0  0  0  0  0
   -1.0581    3.6389    2.5937 C   0  0  0  0  0  0  0  0  0  0  0  0
    6.5649    3.9092    1.8314 C   0  0  0  0  0  0  0  0  0  0  0  0
    1.3652   -0.3977    0.4347 C   0  0  0  0  0  0  0  0  0  0  0  0
   -1.3314    2.2534    2.6618 C   0  0  0  0  0  0  0  0  0  0  0  0
   -2.0419    4.8404    3.4535 S   0  0  2  0  0  0  0  0  0  0  0  0
    2.4210   -1.1811    0.1564 C   0  0  0  0  0  0  0  0  0  0  0  0
   -2.6616    1.6179    3.5039 Cl  0  0  0  0  0  0  0  0  0  0  0  0
   -3.6885    4.7938    2.8411 N   0  0  2  0  0  0  0  0  0  0  0  0
   -1.4755    6.3277    3.2501 O   0  0  0  0  0  0  0  0  0  0  0  0
   -2.0671    4.5064    5.0227 O   0  0  0  0  0  0  0  0  0  0  0  0
    2.3754   -2.5430   -0.1297 C   0  0  0  0  0  0  0  0  0  0  0  0
    1.1503   -3.3055   -0.4590 C   0  0  0  0  0  0  0  0  0  0  0  0
    3.4590   -3.1735   -0.1283 O   0  0  0  0  0  0  0  0  0  0  0  0
    3.8331    2.4329    0.7996 H   0  0  0  0  0  0  0  0  0  0  0  0
    4.7978    3.7037   -0.9780 H   0  0  0  0  0  0  0  0  0  0  0  0
    4.8193    5.1117    0.0957 H   0  0  0  0  0  0  0  0  0  0  0  0
    0.2321    5.0812    1.7648 H   0  0  0  0  0  0  0  0  0  0  0  0
    6.7219    3.0128    0.0372 H   0  0  0  0  0  0  0  0  0  0  0  0
    2.3998    1.2738    0.4456 H   0  0  0  0  0  0  0  0  0  0  0  0
   -0.6652    0.3438    2.1215 H   0  0  0  0  0  0  0  0  0  0  0  0
    6.0148    4.4714    2.4359 H   0  0  0  0  0  0  0  0  0  0  0  0
    7.4462    3.5861    2.1543 H   0  0  0  0  0  0  0  0  0  0  0  0
    0.4532   -0.7861    0.4486 H   0  0  0  0  0  0  0  0  0  0  0  0
    3.3224   -0.7559    0.1633 H   0  0  0  0  0  0  0  0  0  0  0  0
   -4.2403    5.4268    3.4222 H   0  0  0  0  0  0  0  0  0  0  0  0
   -4.0430    3.8517    3.0125 H   0  0  0  0  0  0  0  0  0  0  0  0
    0.7064   -2.9160   -1.3785 H   0  0  0  0  0  0  0  0  0  0  0  0
    0.4215   -3.2330    0.3499 H   0  0  0  0  0  0  0  0  0  0  0  0
    1.3781   -4.3629   -0.6142 H   0  0  0  0  0  0  0  0  0  0  0  0
  1  2  1  0  0  0  0 
  1  3  2  0  0  0  0 
  1  4  2  0  0  0  0 
  1  5  1  0  0  0  0 
  2  6  1  0  0  0  0 
  5  7  2  0  0  0  0 
  5  8  1  0  0  0  0 
  6  9  1  0  0  0  0 
  7 10  1  0  0  0  0 
  7 11  1  0  0  0  0 
  8 12  2  0  0  0  0 
  9 13  2  0  0  0  0 
 14 10  1  0  0  0  0 
 11 15  2  0  0  0  0 
 12 15  1  0  0  0  0 
 12 16  1  0  0  0  0 
 14 17  2  0  0  0  0 
 15 18  1  0  0  0  0 
 16 19  1  0  0  0  0 
 16 20  2  0  0  0  0 
 16 21  2  0  0  0  0 
 17 22  1  0  0  0  0 
 22 23  1  0  0  0  0 
 22 24  2  0  0  0  0 
 25  2  1  0  0  0  0 
 26  6  1  0  0  0  0 
 27  6  1  0  0  0  0 
 28  8  1  0  0  0  0 
 29  9  1  0  0  0  0 
 30 10  1  0  0  0  0 
 31 11  1  0  0  0  0 
 32 13  1  0  0  0  0 
 33 13  1  0  0  0  0 
 14 34  1  0  0  0  0 
 35 17  1  0  0  0  0 
 36 19  1  0  0  0  0 
 37 19  1  0  0  0  0 
 38 23  1  0  0  0  0 
 39 23  1  0  0  0  0 
 40 23  1  0  0  0  0 
M  END
> <cdk:Title>
ambuside

> <Conformer>
1

> <SuperDrugID>
SD003138

$$$$
