proflavine
  CDK     0628171801

 27 29  0  0  0  0  0  0  0  0999 V2000
    1.3552   -0.4830   -0.7387 N   0  0  0  0  0  0  0  0  0  0  0  0
    0.4010    0.4006   -1.0950 C   0  0  0  0  0  0  0  0  0  0  0  0
    0.4490    1.0145   -2.3632 C   0  0  0  0  0  0  0  0  0  0  0  0
   -0.6442    0.7172   -0.2026 C   0  0  0  0  0  0  0  0  0  0  0  0
   -0.5380    1.9480   -2.7330 C   0  0  0  0  0  0  0  0  0  0  0  0
   -1.6340    1.6479   -0.5696 C   0  0  0  0  0  0  0  0  0  0  0  0
   -1.5914    2.2709   -1.8363 C   0  0  0  0  0  0  0  0  0  0  0  0
   -0.4808    2.5472   -3.9494 N   0  0  0  0  0  0  0  0  0  0  0  0
   -2.5627    3.2107   -2.2485 C   0  0  0  0  0  0  0  0  0  0  0  0
   -1.3968    3.4569   -4.3708 C   0  0  0  0  0  0  0  0  0  0  0  0
   -2.4789    3.8133   -3.5227 C   0  0  0  0  0  0  0  0  0  0  0  0
   -1.2706    4.0423   -5.6458 C   0  0  0  0  0  0  0  0  0  0  0  0
   -3.4306    4.7531   -3.9772 C   0  0  0  0  0  0  0  0  0  0  0  0
   -2.2248    4.9810   -6.0891 C   0  0  0  0  0  0  0  0  0  0  0  0
   -3.3033    5.3345   -5.2531 C   0  0  0  0  0  0  0  0  0  0  0  0
   -2.1079    5.5401   -7.3102 N   0  0  0  0  0  0  0  0  0  0  0  0
    1.3178   -0.9203    0.1258 H   0  0  0  0  0  0  0  0  0  0  0  0
    2.0825   -0.6869   -1.3478 H   0  0  0  0  0  0  0  0  0  0  0  0
    1.2009    0.7835   -3.0177 H   0  0  0  0  0  0  0  0  0  0  0  0
   -0.6878    0.2747    0.7185 H   0  0  0  0  0  0  0  0  0  0  0  0
   -2.3794    1.8712    0.0938 H   0  0  0  0  0  0  0  0  0  0  0  0
   -3.3333    3.4556   -1.6186 H   0  0  0  0  0  0  0  0  0  0  0  0
   -0.4856    3.7824   -6.2485 H   0  0  0  0  0  0  0  0  0  0  0  0
   -4.2199    5.0215   -3.3862 H   0  0  0  0  0  0  0  0  0  0  0  0
   -3.9977    6.0156   -5.5675 H   0  0  0  0  0  0  0  0  0  0  0  0
   -2.7748    6.1697   -7.6251 H   0  0  0  0  0  0  0  0  0  0  0  0
   -1.3559    5.3136   -7.8789 H   0  0  0  0  0  0  0  0  0  0  0  0
  1  2  1  0  0  0  0 
  2  3  1  0  0  0  0 
  2  4  2  0  0  0  0 
  3  5  2  0  0  0  0 
  4  6  1  0  0  0  0 
  5  7  1  0  0  0  0 
  5  8  1  0  0  0  0 
  6  7  2  0  0  0  0 
  7  9  1  0  0  0  0 
  8 10  2  0  0  0  0 
  9 11  2  0  0  0  0 
 10 11  1  0  0  0  0 
 10 12  1  0  0  0  0 
 11 13  1  0  0  0  0 
 12 14  2  0  0  0  0 
 13 15  2  0  0  0  0 
 14 15  1  0  0  0  0 
 14 16  1  0  0  0  0 
  1 17  1  0  0  0  0 
  1 18  1  0  0  0  0 
  3 19  1  0  0  0  0 
  4 20  1  0  0  0  0 
  6 21  1  0  0  0  0 
  9 22  1  0  0  0  0 
 12 23  1  0  0  0  0 
 13 24  1  0  0  0  0 
 15 25  1  0  0  0  0 
 16 26  1  0  0  0  0 
 16 27  1  0  0  0  0 
M  END
> <cdk:Title>
proflavine

> <Conformer>
1

> <SuperDrugID>
SD002043

$$$$
