fominoben
  CDK     0628171801

 52 54  0  0  0  0  0  0  0  0999 V2000
    3.4173   -3.5555   -1.2862 C   0  0  2  0  0  0  0  0  0  0  0  0
    3.6803   -3.0386    0.1002 N   0  0  1  0  0  0  0  0  0  0  0  0
    2.7490   -2.5708   -2.1963 C   0  0  0  0  0  0  0  0  0  0  0  0
    4.2211   -4.0759    1.0414 C   0  0  2  0  0  0  0  0  0  0  0  0
    4.5318   -1.8081    0.1191 C   0  0  0  0  0  0  0  0  0  0  0  0
    1.4095   -2.1602   -1.9302 C   0  0  0  0  0  0  0  0  0  0  0  0
    3.4170   -2.0146   -3.3266 C   0  0  0  0  0  0  0  0  0  0  0  0
    3.3111   -5.2398    1.2329 C   0  0  0  0  0  0  0  0  0  0  0  0
    0.6744   -2.6382   -0.8845 N   0  0  0  0  0  0  0  0  0  0  0  0
    0.7679   -1.2354   -2.7827 C   0  0  0  0  0  0  0  0  0  0  0  0
    5.0146   -2.3950   -3.7645 Cl  0  0  0  0  0  0  0  0  0  0  0  0
    2.7620   -1.0817   -4.1565 C   0  0  0  0  0  0  0  0  0  0  0  0
    2.3005   -4.9757    1.9298 O   0  0  0  0  0  0  0  0  0  0  0  0
    3.4806   -6.5250    0.7202 N   0  0  0  0  0  0  0  0  0  0  0  0
    0.5980   -2.0613    0.3530 C   0  0  0  0  0  0  0  0  0  0  0  0
    1.4406   -0.6959   -3.8870 C   0  0  0  0  0  0  0  0  0  0  0  0
    2.5861   -7.6168    1.0812 C   0  0  1  0  0  0  0  0  0  0  0  0
    4.5375   -6.9141   -0.1992 C   0  0  2  0  0  0  0  0  0  0  0  0
    1.3449   -1.0865    0.6163 O   0  0  0  0  0  0  0  0  0  0  0  0
   -0.3328   -2.5119    1.3371 C   0  0  0  0  0  0  0  0  0  0  0  0
    3.4122   -8.7896    1.6716 C   0  0  1  0  0  0  0  0  0  0  0  0
    5.3500   -8.0750    0.4270 C   0  0  2  0  0  0  0  0  0  0  0  0
   -0.1615   -2.1806    2.7067 C   0  0  0  0  0  0  0  0  0  0  0  0
   -1.4819   -3.2658    0.9826 C   0  0  0  0  0  0  0  0  0  0  0  0
    4.4822   -9.1708    0.7824 O   0  0  0  0  0  0  0  0  0  0  0  0
   -1.1102   -2.5607    3.6750 C   0  0  0  0  0  0  0  0  0  0  0  0
   -2.4335   -3.6438    1.9493 C   0  0  0  0  0  0  0  0  0  0  0  0
   -2.2503   -3.2866    3.2955 C   0  0  0  0  0  0  0  0  0  0  0  0
    2.7568   -4.4230   -1.2422 H   0  0  0  0  0  0  0  0  0  0  0  0
    4.3567   -3.9261   -1.6969 H   0  0  0  0  0  0  0  0  0  0  0  0
    4.3636   -3.6319    2.0315 H   0  0  0  0  0  0  0  0  0  0  0  0
    5.2194   -4.3733    0.7275 H   0  0  0  0  0  0  0  0  0  0  0  0
    5.5316   -2.0134   -0.2700 H   0  0  0  0  0  0  0  0  0  0  0  0
    4.6261   -1.4218    1.1353 H   0  0  0  0  0  0  0  0  0  0  0  0
    4.0878   -1.0106   -0.4765 H   0  0  0  0  0  0  0  0  0  0  0  0
    0.1308   -3.4229   -1.0535 H   0  0  0  0  0  0  0  0  0  0  0  0
   -0.1973   -0.9483   -2.6019 H   0  0  0  0  0  0  0  0  0  0  0  0
    3.2377   -0.6756   -4.9672 H   0  0  0  0  0  0  0  0  0  0  0  0
    0.9697   -0.0228   -4.4976 H   0  0  0  0  0  0  0  0  0  0  0  0
    1.8225   -7.3420    1.8126 H   0  0  0  0  0  0  0  0  0  0  0  0
    2.0589   -7.9623    0.1864 H   0  0  0  0  0  0  0  0  0  0  0  0
    5.2285   -6.1238   -0.4777 H   0  0  0  0  0  0  0  0  0  0  0  0
    4.0877   -7.2550   -1.1363 H   0  0  0  0  0  0  0  0  0  0  0  0
    3.8177   -8.5092    2.6483 H   0  0  0  0  0  0  0  0  0  0  0  0
    2.7661   -9.6579    1.8128 H   0  0  0  0  0  0  0  0  0  0  0  0
    5.8950   -7.7220    1.3082 H   0  0  0  0  0  0  0  0  0  0  0  0
    6.0796   -8.4426   -0.2964 H   0  0  0  0  0  0  0  0  0  0  0  0
    0.6568   -1.6521    3.0185 H   0  0  0  0  0  0  0  0  0  0  0  0
   -1.6544   -3.5331    0.0117 H   0  0  0  0  0  0  0  0  0  0  0  0
   -0.9738   -2.3033    4.6557 H   0  0  0  0  0  0  0  0  0  0  0  0
   -3.2641   -4.1711    1.6720 H   0  0  0  0  0  0  0  0  0  0  0  0
   -2.9456   -3.5538    3.9957 H   0  0  0  0  0  0  0  0  0  0  0  0
  1  2  1  0  0  0  0 
  1  3  1  0  0  0  0 
  2  4  1  0  0  0  0 
  2  5  1  0  0  0  0 
  3  6  2  0  0  0  0 
  3  7  1  0  0  0  0 
  4  8  1  0  0  0  0 
  6  9  1  0  0  0  0 
  6 10  1  0  0  0  0 
  7 11  1  0  0  0  0 
  7 12  2  0  0  0  0 
  8 13  2  0  0  0  0 
  8 14  1  0  0  0  0 
  9 15  1  0  0  0  0 
 10 16  2  0  0  0  0 
 12 16  1  0  0  0  0 
 14 17  1  0  0  0  0 
 14 18  1  0  0  0  0 
 15 19  2  0  0  0  0 
 15 20  1  0  0  0  0 
 17 21  1  0  0  0  0 
 18 22  1  0  0  0  0 
 20 23  2  0  0  0  0 
 20 24  1  0  0  0  0 
 21 25  1  0  0  0  0 
 22 25  1  0  0  0  0 
 23 26  1  0  0  0  0 
 24 27  2  0  0  0  0 
 26 28  2  0  0  0  0 
 27 28  1  0  0  0  0 
  1 29  1  0  0  0  0 
  1 30  1  0  0  0  0 
  4 31  1  0  0  0  0 
  4 32  1  0  0  0  0 
  5 33  1  0  0  0  0 
  5 34  1  0  0  0  0 
  5 35  1  0  0  0  0 
  9 36  1  0  0  0  0 
 10 37  1  0  0  0  0 
 12 38  1  0  0  0  0 
 16 39  1  0  0  0  0 
 17 40  1  0  0  0  0 
 17 41  1  0  0  0  0 
 18 42  1  0  0  0  0 
 18 43  1  0  0  0  0 
 21 44  1  0  0  0  0 
 21 45  1  0  0  0  0 
 22 46  1  0  0  0  0 
 22 47  1  0  0  0  0 
 23 48  1  0  0  0  0 
 24 49  1  0  0  0  0 
 26 50  1  0  0  0  0 
 27 51  1  0  0  0  0 
 28 52  1  0  0  0  0 
M  END
> <cdk:Title>
fominoben

> <Conformer>
1

> <SuperDrugID>
SD001107

$$$$
