guaifenesin
  CDK     0628171801

 28 28  0  0  0  0  0  0  0  0999 V2000
   -0.8483    1.3033    0.6951 O   0  0  0  0  0  0  0  0  0  0  0  0
   -1.6524    0.7171    1.7421 C   0  0  2  0  0  0  0  0  0  0  0  0
    0.4792    0.9973    0.8093 C   0  0  0  0  0  0  0  0  0  0  0  0
   -3.1398    1.0696    1.5054 C   0  0  2  0  0  0  0  0  0  0  0  0
    1.0001   -0.1661    0.1982 C   0  0  0  0  0  0  0  0  0  0  0  0
    1.3325    1.8603    1.5261 C   0  0  0  0  0  0  0  0  0  0  0  0
   -3.6758    0.5018    0.1681 C   0  0  2  0  0  0  0  0  0  0  0  0
   -3.2925    2.4878    1.5255 O   0  0  0  0  0  0  0  0  0  0  0  0
    0.1912   -0.9878   -0.5439 O   0  0  0  0  0  0  0  0  0  0  0  0
    2.3598   -0.4967    0.3834 C   0  0  0  0  0  0  0  0  0  0  0  0
    2.6926    1.5380    1.6833 C   0  0  0  0  0  0  0  0  0  0  0  0
   -5.0579    0.8048    0.0063 O   0  0  0  0  0  0  0  0  0  0  0  0
    0.1393   -0.6180   -1.9358 C   0  0  0  0  0  0  0  0  0  0  0  0
    3.2028    0.3539    1.1213 C   0  0  0  0  0  0  0  0  0  0  0  0
   -1.3526    1.1098    2.7185 H   0  0  0  0  0  0  0  0  0  0  0  0
   -1.5444   -0.3732    1.7630 H   0  0  0  0  0  0  0  0  0  0  0  0
   -3.7338    0.6537    2.3218 H   0  0  0  0  0  0  0  0  0  0  0  0
    0.9639    2.7184    1.9398 H   0  0  0  0  0  0  0  0  0  0  0  0
   -3.5560   -0.5837    0.1469 H   0  0  0  0  0  0  0  0  0  0  0  0
   -3.1277    0.9300   -0.6751 H   0  0  0  0  0  0  0  0  0  0  0  0
   -2.9494    2.7691    2.3996 H   0  0  0  0  0  0  0  0  0  0  0  0
    2.7359   -1.3569   -0.0216 H   0  0  0  0  0  0  0  0  0  0  0  0
    3.3077    2.1598    2.2119 H   0  0  0  0  0  0  0  0  0  0  0  0
   -5.2955    0.4299   -0.8693 H   0  0  0  0  0  0  0  0  0  0  0  0
   -0.5298   -1.3102   -2.4480 H   0  0  0  0  0  0  0  0  0  0  0  0
   -0.2551    0.3931   -2.0709 H   0  0  0  0  0  0  0  0  0  0  0  0
    1.1239   -0.6904   -2.4058 H   0  0  0  0  0  0  0  0  0  0  0  0
    4.1900    0.1158    1.2439 H   0  0  0  0  0  0  0  0  0  0  0  0
  1  2  1  0  0  0  0 
  1  3  1  0  0  0  0 
  4  2  1  0  0  0  0 
  3  5  2  0  0  0  0 
  3  6  1  0  0  0  0 
  4  7  1  0  0  0  0 
  4  8  1  0  0  0  0 
  5  9  1  0  0  0  0 
  5 10  1  0  0  0  0 
  6 11  2  0  0  0  0 
  7 12  1  0  0  0  0 
  9 13  1  0  0  0  0 
 10 14  2  0  0  0  0 
 11 14  1  0  0  0  0 
  2 15  1  0  0  0  0 
  2 16  1  0  0  0  0 
  4 17  1  0  0  0  0 
  6 18  1  0  0  0  0 
  7 19  1  0  0  0  0 
  7 20  1  0  0  0  0 
  8 21  1  0  0  0  0 
 10 22  1  0  0  0  0 
 11 23  1  0  0  0  0 
 12 24  1  0  0  0  0 
 13 25  1  0  0  0  0 
 13 26  1  0  0  0  0 
 13 27  1  0  0  0  0 
 14 28  1  0  0  0  0 
M  END
> <cdk:Title>
guaifenesin

> <Conformer>
1

> <SuperDrugID>
SD001186

$$$$
