meladrazine
  CDK     0628171801

 41 41  0  0  0  0  0  0  0  0999 V2000
    1.4601   -1.4718   -1.6227 N   0  0  0  0  0  0  0  0  0  0  0  0
    1.2383   -1.2933   -0.1915 C   0  0  2  0  0  0  0  0  0  0  0  0
    2.1273   -2.6439   -2.1712 C   0  0  1  0  0  0  0  0  0  0  0  0
    1.0760   -0.4457   -2.4806 C   0  0  0  0  0  0  0  0  0  0  0  0
    1.6007   -2.4241    0.8016 C   0  0  0  0  0  0  0  0  0  0  0  0
    3.6206   -2.3721   -2.4649 C   0  0  0  0  0  0  0  0  0  0  0  0
    0.7381    0.7879   -2.0111 N   0  0  0  0  0  0  0  0  0  0  0  0
    1.0182   -0.6160   -3.8296 N   0  0  0  0  0  0  0  0  0  0  0  0
    0.3618    1.8266   -2.8082 C   0  0  0  0  0  0  0  0  0  0  0  0
    0.6401    0.3765   -4.6698 C   0  0  0  0  0  0  0  0  0  0  0  0
    0.0434    3.0666   -2.2726 N   0  0  0  0  0  0  0  0  0  0  0  0
    0.3238    1.5888   -4.1482 N   0  0  0  0  0  0  0  0  0  0  0  0
    0.5850    0.1144   -5.9916 N   0  0  0  0  0  0  0  0  0  0  0  0
   -0.0085    3.2577   -0.8341 C   0  0  1  0  0  0  0  0  0  0  0  0
   -0.2106    4.2110   -3.1323 C   0  0  1  0  0  0  0  0  0  0  0  0
    0.1622    1.0187   -6.8940 N   0  0  2  0  0  0  0  0  0  0  0  0
    1.3883    3.5884   -0.2635 C   0  0  0  0  0  0  0  0  0  0  0  0
   -1.6210    4.1843   -3.7645 C   0  0  0  0  0  0  0  0  0  0  0  0
    0.1768   -1.0761   -0.0333 H   0  0  0  0  0  0  0  0  0  0  0  0
    1.8069   -0.4173    0.1298 H   0  0  0  0  0  0  0  0  0  0  0  0
    2.0659   -3.5063   -1.5091 H   0  0  0  0  0  0  0  0  0  0  0  0
    1.6370   -2.9694   -3.0925 H   0  0  0  0  0  0  0  0  0  0  0  0
    0.9902   -3.3103    0.6157 H   0  0  0  0  0  0  0  0  0  0  0  0
    2.6569   -2.6863    0.7200 H   0  0  0  0  0  0  0  0  0  0  0  0
    1.4120   -2.0866    1.8228 H   0  0  0  0  0  0  0  0  0  0  0  0
    4.0985   -3.2769   -2.8442 H   0  0  0  0  0  0  0  0  0  0  0  0
    4.1361   -2.0605   -1.5551 H   0  0  0  0  0  0  0  0  0  0  0  0
    3.7246   -1.5878   -3.2152 H   0  0  0  0  0  0  0  0  0  0  0  0
    0.8500   -0.7642   -6.3051 H   0  0  0  0  0  0  0  0  0  0  0  0
   -0.6928    4.0690   -0.5720 H   0  0  0  0  0  0  0  0  0  0  0  0
   -0.4013    2.3687   -0.3330 H   0  0  0  0  0  0  0  0  0  0  0  0
   -0.1152    5.1486   -2.5737 H   0  0  0  0  0  0  0  0  0  0  0  0
    0.5382    4.2624   -3.9287 H   0  0  0  0  0  0  0  0  0  0  0  0
    0.2366    0.5739   -7.8101 H   0  0  0  0  0  0  0  0  0  0  0  0
    0.8351    1.7868   -6.8814 H   0  0  0  0  0  0  0  0  0  0  0  0
    2.0729    2.7576   -0.4356 H   0  0  0  0  0  0  0  0  0  0  0  0
    1.7948    4.4817   -0.7417 H   0  0  0  0  0  0  0  0  0  0  0  0
    1.3205    3.7652    0.8107 H   0  0  0  0  0  0  0  0  0  0  0  0
   -1.7855    5.1037   -4.3304 H   0  0  0  0  0  0  0  0  0  0  0  0
   -2.3866    4.1077   -2.9899 H   0  0  0  0  0  0  0  0  0  0  0  0
   -1.7260    3.3382   -4.4445 H   0  0  0  0  0  0  0  0  0  0  0  0
  1  2  1  0  0  0  0 
  1  3  1  0  0  0  0 
  1  4  1  0  0  0  0 
  2  5  1  0  0  0  0 
  3  6  1  0  0  0  0 
  4  7  2  0  0  0  0 
  4  8  1  0  0  0  0 
  7  9  1  0  0  0  0 
  8 10  2  0  0  0  0 
  9 11  1  0  0  0  0 
  9 12  2  0  0  0  0 
 10 12  1  0  0  0  0 
 10 13  1  0  0  0  0 
 11 14  1  0  0  0  0 
 11 15  1  0  0  0  0 
 13 16  1  0  0  0  0 
 14 17  1  0  0  0  0 
 15 18  1  0  0  0  0 
 19  2  1  0  0  0  0 
 20  2  1  0  0  0  0 
 21  3  1  0  0  0  0 
 22  3  1  0  0  0  0 
 23  5  1  0  0  0  0 
 24  5  1  0  0  0  0 
 25  5  1  0  0  0  0 
 26  6  1  0  0  0  0 
 27  6  1  0  0  0  0 
 28  6  1  0  0  0  0 
 29 13  1  0  0  0  0 
 30 14  1  0  0  0  0 
 31 14  1  0  0  0  0 
 32 15  1  0  0  0  0 
 33 15  1  0  0  0  0 
 34 16  1  0  0  0  0 
 35 16  1  0  0  0  0 
 36 17  1  0  0  0  0 
 37 17  1  0  0  0  0 
 38 17  1  0  0  0  0 
 39 18  1  0  0  0  0 
 40 18  1  0  0  0  0 
 41 18  1  0  0  0  0 
M  END
> <cdk:Title>
meladrazine

> <Conformer>
1

> <SuperDrugID>
SD003209

$$$$
