abiraterone acetate
  CDK     0628171801

 62 66  0  0  0  0  0  0  0  0999 V2000
    1.1697   -9.7256   -3.3314 C   0  0  1  0  0  0  0  0  0  0  0  0
    1.5138   -9.1885   -4.7429 C   0  0  2  0  0  0  0  0  0  0  0  0
    1.0227   -7.7307   -4.9423 C   0  0  1  0  0  0  0  0  0  0  0  0
    1.3679   -6.8090   -3.7347 C   0  0  1  0  0  0  0  0  0  0  0  0
    1.1318   -7.4350   -2.4147 C   0  0  0  0  0  0  0  0  0  0  0  0
    1.6773   -8.8085   -2.1563 C   0  0  1  0  0  0  0  0  0  0  0  0
    1.1550   -9.4244   -0.7764 C   0  0  2  0  0  0  0  0  0  0  0  0
    0.4329   -6.7417   -1.4825 C   0  0  0  0  0  0  0  0  0  0  0  0
    0.1685   -7.1994   -0.1285 C   0  0  1  0  0  0  0  0  0  0  0  0
    1.1643   -8.3029    0.3270 C   0  0  1  0  0  0  0  0  0  0  0  0
    1.4884  -11.2278    1.1514 C   0  0  1  0  0  0  0  0  0  0  0  0
    1.7703  -10.8083   -0.3252 C   0  0  1  0  0  0  0  0  0  0  0  0
    1.8068  -10.0586    2.1449 C   0  0  2  0  0  0  0  0  0  0  0  0
    1.3942  -10.1935    3.5551 C   0  0  0  0  0  0  0  0  0  0  0  0
    0.8342   -8.9069    1.7208 C   0  0  1  0  0  0  0  0  0  0  0  0
    0.8135   -7.9990    2.9607 C   0  0  1  0  0  0  0  0  0  0  0  0
    0.9298   -9.0039    3.9840 C   0  0  0  0  0  0  0  0  0  0  0  0
    1.5057  -11.3327    4.3832 C   0  0  0  0  0  0  0  0  0  0  0  0
    1.7479  -13.5372    6.1428 C   0  0  0  0  0  0  0  0  0  0  0  0
    2.6385  -13.4162    5.0670 C   0  0  0  0  0  0  0  0  0  0  0  0
    2.5032  -12.3244    4.1928 C   0  0  0  0  0  0  0  0  0  0  0  0
    0.6252  -11.5476    5.4787 C   0  0  0  0  0  0  0  0  0  0  0  0
    0.7729  -12.6122    6.3077 N   0  0  0  0  0  0  0  0  0  0  0  0
    3.3438   -9.6784    2.1083 C   0  0  0  0  0  0  0  0  0  0  0  0
   -0.1923   -9.3016    1.6300 H   0  0  0  0  0  0  0  0  0  0  0  0
    2.1422   -7.8250    0.3933 H   0  0  0  0  0  0  0  0  0  0  0  0
    0.0952   -9.6730   -0.9161 H   0  0  0  0  0  0  0  0  0  0  0  0
    3.2535   -8.7501   -2.1650 C   0  0  0  0  0  0  0  0  0  0  0  0
    1.6336   -7.2725   -6.1623 O   0  0  0  0  0  0  0  0  0  0  0  0
   -0.0660   -7.7499   -5.0729 H   0  0  0  0  0  0  0  0  0  0  0  0
    1.4356   -6.1081   -6.8452 C   0  0  0  0  0  0  0  0  0  0  0  0
    2.2108   -5.8652   -8.0741 C   0  0  0  0  0  0  0  0  0  0  0  0
    0.6157   -5.2442   -6.4548 O   0  0  0  0  0  0  0  0  0  0  0  0
    0.0806   -9.8312   -3.2761 H   0  0  0  0  0  0  0  0  0  0  0  0
    1.5937  -10.7286   -3.2404 H   0  0  0  0  0  0  0  0  0  0  0  0
    1.0439   -9.8308   -5.4924 H   0  0  0  0  0  0  0  0  0  0  0  0
    2.5925   -9.2460   -4.8969 H   0  0  0  0  0  0  0  0  0  0  0  0
    2.4138   -6.5093   -3.8007 H   0  0  0  0  0  0  0  0  0  0  0  0
    0.7937   -5.8870   -3.8615 H   0  0  0  0  0  0  0  0  0  0  0  0
    0.0644   -5.8462   -1.7111 H   0  0  0  0  0  0  0  0  0  0  0  0
    0.2340   -6.3502    0.5549 H   0  0  0  0  0  0  0  0  0  0  0  0
   -0.8568   -7.5765   -0.0893 H   0  0  0  0  0  0  0  0  0  0  0  0
    0.4445  -11.5415    1.2500 H   0  0  0  0  0  0  0  0  0  0  0  0
    2.0955  -12.1059    1.3754 H   0  0  0  0  0  0  0  0  0  0  0  0
    1.3888  -11.6013   -0.9740 H   0  0  0  0  0  0  0  0  0  0  0  0
    2.8510  -10.8120   -0.4445 H   0  0  0  0  0  0  0  0  0  0  0  0
    1.6546   -7.3014    2.9912 H   0  0  0  0  0  0  0  0  0  0  0  0
   -0.1286   -7.4524    3.0420 H   0  0  0  0  0  0  0  0  0  0  0  0
    0.6660   -8.8122    4.9207 H   0  0  0  0  0  0  0  0  0  0  0  0
    1.8313  -14.3149    6.8000 H   0  0  0  0  0  0  0  0  0  0  0  0
    3.3784  -14.1070    4.9214 H   0  0  0  0  0  0  0  0  0  0  0  0
    3.1652  -12.2724    3.4237 H   0  0  0  0  0  0  0  0  0  0  0  0
   -0.1467  -10.9095    5.6770 H   0  0  0  0  0  0  0  0  0  0  0  0
    3.6605   -9.2983    1.1401 H   0  0  0  0  0  0  0  0  0  0  0  0
    3.5938   -8.9125    2.8461 H   0  0  0  0  0  0  0  0  0  0  0  0
    3.9758  -10.5432    2.3006 H   0  0  0  0  0  0  0  0  0  0  0  0
    3.6863   -9.7491   -2.2095 H   0  0  0  0  0  0  0  0  0  0  0  0
    3.6425   -8.2480   -1.2802 H   0  0  0  0  0  0  0  0  0  0  0  0
    3.6552   -8.2215   -3.0271 H   0  0  0  0  0  0  0  0  0  0  0  0
    2.8253   -6.7329   -8.3287 H   0  0  0  0  0  0  0  0  0  0  0  0
    1.5280   -5.6694   -8.9036 H   0  0  0  0  0  0  0  0  0  0  0  0
    2.8634   -5.0007   -7.9302 H   0  0  0  0  0  0  0  0  0  0  0  0
  1  2  1  0  0  0  0 
  1  6  1  0  0  0  0 
  2  3  1  0  0  0  0 
  3  4  1  0  0  0  0 
  4  5  1  0  0  0  0 
  7  6  1  0  0  0  0 
  6  5  1  0  0  0  0 
  5  8  2  0  0  0  0 
  8  9  1  0  0  0  0 
  9 10  1  0  0  0  0 
 10 15  1  0  0  0  0 
  7 10  1  0  0  0  0 
 12  7  1  0  0  0  0 
 11 12  1  0  0  0  0 
 11 13  1  0  0  0  0 
 14 13  1  0  0  0  0 
 14 17  2  0  0  0  0 
 15 16  1  0  0  0  0 
 16 17  1  0  0  0  0 
 13 15  1  0  0  0  0 
 14 18  1  0  0  0  0 
 21 18  2  0  0  0  0 
 18 22  1  0  0  0  0 
 19 20  2  0  0  0  0 
 19 23  1  0  0  0  0 
 20 21  1  0  0  0  0 
 22 23  2  0  0  0  0 
 13 24  1  0  0  0  0 
 15 25  1  0  0  0  0 
 10 26  1  0  0  0  0 
  7 27  1  0  0  0  0 
  6 28  1  0  0  0  0 
  3 29  1  0  0  0  0 
  3 30  1  0  0  0  0 
 29 31  1  0  0  0  0 
 31 32  1  0  0  0  0 
 31 33  2  0  0  0  0 
  1 34  1  0  0  0  0 
  1 35  1  0  0  0  0 
  2 36  1  0  0  0  0 
  2 37  1  0  0  0  0 
  4 38  1  0  0  0  0 
  4 39  1  0  0  0  0 
  8 40  1  0  0  0  0 
  9 41  1  0  0  0  0 
  9 42  1  0  0  0  0 
 11 43  1  0  0  0  0 
 11 44  1  0  0  0  0 
 12 45  1  0  0  0  0 
 12 46  1  0  0  0  0 
 16 47  1  0  0  0  0 
 16 48  1  0  0  0  0 
 17 49  1  0  0  0  0 
 19 50  1  0  0  0  0 
 20 51  1  0  0  0  0 
 21 52  1  0  0  0  0 
 22 53  1  0  0  0  0 
 24 54  1  0  0  0  0 
 24 55  1  0  0  0  0 
 24 56  1  0  0  0  0 
 28 57  1  0  0  0  0 
 28 58  1  0  0  0  0 
 28 59  1  0  0  0  0 
 32 60  1  0  0  0  0 
 32 61  1  0  0  0  0 
 32 62  1  0  0  0  0 
M  END
> <cdk:Title>
abiraterone acetate

> <Conformer>
1

> <SuperDrugID>
SD003407

$$$$
