cetyl alcohol
  CDK     0628171802

 51 50  0  0  0  0  0  0  0  0999 V2000
   -1.3165   -5.8325   -4.9296 C   0  0  1  0  0  0  0  0  0  0  0  0
   -0.6426   -6.8292   -5.9108 C   0  0  2  0  0  0  0  0  0  0  0  0
   -0.3132   -4.7992   -4.3506 C   0  0  1  0  0  0  0  0  0  0  0  0
   -1.6435   -7.8648   -6.4922 C   0  0  1  0  0  0  0  0  0  0  0  0
   -0.9865   -3.8027   -3.3698 C   0  0  2  0  0  0  0  0  0  0  0  0
   -0.9670   -8.8623   -7.4747 C   0  0  2  0  0  0  0  0  0  0  0  0
    0.0142   -2.7674   -2.7885 C   0  0  2  0  0  0  0  0  0  0  0  0
   -1.9651   -9.9001   -8.0587 C   0  0  1  0  0  0  0  0  0  0  0  0
   -0.6560   -1.7681   -1.8062 C   0  0  1  0  0  0  0  0  0  0  0  0
   -1.3029  -10.9034   -9.0422 C   0  0  1  0  0  0  0  0  0  0  0  0
    0.3483   -0.7348   -1.2274 C   0  0  1  0  0  0  0  0  0  0  0  0
   -2.3171  -11.9324   -9.6149 C   0  0  1  0  0  0  0  0  0  0  0  0
   -0.3133    0.2679   -0.2445 C   0  0  1  0  0  0  0  0  0  0  0  0
   -1.6589  -12.9369  -10.5984 C   0  0  1  0  0  0  0  0  0  0  0  0
    0.6989    1.2901    0.3231 C   0  0  2  0  0  0  0  0  0  0  0  0
   -2.6636  -13.9630  -11.1711 C   0  0  0  0  0  0  0  0  0  0  0  0
    0.0395    2.1829    1.2164 O   0  0  0  0  0  0  0  0  0  0  0  0
   -2.1138   -5.2999   -5.4548 H   0  0  0  0  0  0  0  0  0  0  0  0
   -1.7665   -6.3929   -4.1059 H   0  0  0  0  0  0  0  0  0  0  0  0
    0.1549   -7.3616   -5.3854 H   0  0  0  0  0  0  0  0  0  0  0  0
   -0.1924   -6.2685   -6.7344 H   0  0  0  0  0  0  0  0  0  0  0  0
    0.4847   -5.3324   -3.8262 H   0  0  0  0  0  0  0  0  0  0  0  0
    0.1375   -4.2395   -5.1750 H   0  0  0  0  0  0  0  0  0  0  0  0
   -2.0943   -8.4252   -5.6683 H   0  0  0  0  0  0  0  0  0  0  0  0
   -2.4416   -7.3322   -7.0172 H   0  0  0  0  0  0  0  0  0  0  0  0
   -1.4373   -4.3636   -2.5461 H   0  0  0  0  0  0  0  0  0  0  0  0
   -1.7846   -3.2705   -3.8951 H   0  0  0  0  0  0  0  0  0  0  0  0
   -0.1688   -9.3921   -6.9474 H   0  0  0  0  0  0  0  0  0  0  0  0
   -0.5162   -8.2989   -8.2964 H   0  0  0  0  0  0  0  0  0  0  0  0
    0.4650   -2.2076   -3.6130 H   0  0  0  0  0  0  0  0  0  0  0  0
    0.8123   -3.3007   -2.2641 H   0  0  0  0  0  0  0  0  0  0  0  0
   -2.4153  -10.4595   -7.2340 H   0  0  0  0  0  0  0  0  0  0  0  0
   -2.7627   -9.3664   -8.5830 H   0  0  0  0  0  0  0  0  0  0  0  0
   -1.4535   -1.2335   -2.3303 H   0  0  0  0  0  0  0  0  0  0  0  0
   -1.1061   -2.3272   -0.9806 H   0  0  0  0  0  0  0  0  0  0  0  0
   -0.8530  -10.3486   -9.8705 H   0  0  0  0  0  0  0  0  0  0  0  0
   -0.5057  -11.4416   -8.5216 H   0  0  0  0  0  0  0  0  0  0  0  0
    1.1462   -1.2701   -0.7046 H   0  0  0  0  0  0  0  0  0  0  0  0
    0.7989   -0.1771   -2.0535 H   0  0  0  0  0  0  0  0  0  0  0  0
   -2.7676  -12.4881   -8.7874 H   0  0  0  0  0  0  0  0  0  0  0  0
   -3.1148  -11.3952  -10.1360 H   0  0  0  0  0  0  0  0  0  0  0  0
   -1.1094    0.8120   -0.7591 H   0  0  0  0  0  0  0  0  0  0  0  0
   -0.7626   -0.2795    0.5879 H   0  0  0  0  0  0  0  0  0  0  0  0
   -1.2102  -12.3898  -11.4322 H   0  0  0  0  0  0  0  0  0  0  0  0
   -0.8631  -13.4825  -10.0837 H   0  0  0  0  0  0  0  0  0  0  0  0
    1.1447    1.8670   -0.4887 H   0  0  0  0  0  0  0  0  0  0  0  0
    1.4927    0.7716    0.8631 H   0  0  0  0  0  0  0  0  0  0  0  0
   -2.1498  -14.6412  -11.8530 H   0  0  0  0  0  0  0  0  0  0  0  0
   -3.1101  -14.5511  -10.3663 H   0  0  0  0  0  0  0  0  0  0  0  0
   -3.4587  -13.4539  -11.7203 H   0  0  0  0  0  0  0  0  0  0  0  0
    0.7371    2.7944    1.5323 H   0  0  0  0  0  0  0  0  0  0  0  0
  1  2  1  0  0  0  0 
  1  3  1  0  0  0  0 
  2  4  1  0  0  0  0 
  3  5  1  0  0  0  0 
  4  6  1  0  0  0  0 
  5  7  1  0  0  0  0 
  6  8  1  0  0  0  0 
  7  9  1  0  0  0  0 
  8 10  1  0  0  0  0 
  9 11  1  0  0  0  0 
 10 12  1  0  0  0  0 
 11 13  1  0  0  0  0 
 12 14  1  0  0  0  0 
 13 15  1  0  0  0  0 
 14 16  1  0  0  0  0 
 15 17  1  0  0  0  0 
  1 18  1  0  0  0  0 
  1 19  1  0  0  0  0 
  2 20  1  0  0  0  0 
  2 21  1  0  0  0  0 
  3 22  1  0  0  0  0 
  3 23  1  0  0  0  0 
  4 24  1  0  0  0  0 
  4 25  1  0  0  0  0 
  5 26  1  0  0  0  0 
  5 27  1  0  0  0  0 
  6 28  1  0  0  0  0 
  6 29  1  0  0  0  0 
  7 30  1  0  0  0  0 
  7 31  1  0  0  0  0 
  8 32  1  0  0  0  0 
  8 33  1  0  0  0  0 
  9 34  1  0  0  0  0 
  9 35  1  0  0  0  0 
 10 36  1  0  0  0  0 
 10 37  1  0  0  0  0 
 11 38  1  0  0  0  0 
 11 39  1  0  0  0  0 
 12 40  1  0  0  0  0 
 12 41  1  0  0  0  0 
 13 42  1  0  0  0  0 
 13 43  1  0  0  0  0 
 14 44  1  0  0  0  0 
 14 45  1  0  0  0  0 
 15 46  1  0  0  0  0 
 15 47  1  0  0  0  0 
 16 48  1  0  0  0  0 
 16 49  1  0  0  0  0 
 16 50  1  0  0  0  0 
 17 51  1  0  0  0  0 
M  END
> <cdk:Title>
cetyl alcohol

> <Conformer>
1

> <SuperDrugID>
SD003746

$$$$
