solifenacin
  CDK     0628171801

 53 57  0  0  0  0  0  0  0  0999 V2000
    0.2829   -1.0067    0.2145 C   0  0  0  0  0  0  0  0  0  0  0  0
    1.2923   -1.0763   -0.7072 O   0  0  0  0  0  0  0  0  0  0  0  0
    0.6030   -1.1216    1.4225 O   0  0  0  0  0  0  0  0  0  0  0  0
   -1.0388   -0.8225   -0.1658 N   0  0  0  0  0  0  0  0  0  0  0  0
    2.7071   -1.1713   -0.4646 C   0  0  2  0  0  0  0  0  0  0  0  0
   -1.3935   -0.4773   -1.5489 C   0  0  2  0  0  0  0  0  0  0  0  0
   -2.0811   -0.8391    0.8465 C   0  0  1  0  0  0  0  0  0  0  0  0
    3.2819    0.1876    0.0667 C   0  0  1  0  0  0  0  0  0  0  0  0
    3.4644   -1.5585   -1.7843 C   0  0  2  0  0  0  0  0  0  0  0  0
   -2.8674   -0.4090   -1.8470 C   0  0  0  0  0  0  0  0  0  0  0  0
   -0.7744   -1.3704   -2.5879 C   0  0  0  0  0  0  0  0  0  0  0  0
   -3.3520   -1.5487    0.3328 C   0  0  1  0  0  0  0  0  0  0  0  0
    4.8200    0.0263    0.2823 C   0  0  2  0  0  0  0  0  0  0  0  0
    3.0534    1.2767   -1.0311 C   0  0  2  0  0  0  0  0  0  0  0  0
    4.4625   -0.4994   -2.1716 N   0  0  2  0  0  0  0  0  0  0  0  0
   -3.8188   -0.9296   -0.9293 C   0  0  0  0  0  0  0  0  0  0  0  0
   -3.3314    0.1619   -3.0583 C   0  0  0  0  0  0  0  0  0  0  0  0
    0.1304   -0.8523   -3.5502 C   0  0  0  0  0  0  0  0  0  0  0  0
   -1.0967   -2.7488   -2.6463 C   0  0  0  0  0  0  0  0  0  0  0  0
    5.4886   -0.3685   -1.0767 C   0  0  1  0  0  0  0  0  0  0  0  0
    3.7428    0.8130   -2.3600 C   0  0  2  0  0  0  0  0  0  0  0  0
   -5.1984   -0.8734   -1.2331 C   0  0  0  0  0  0  0  0  0  0  0  0
   -4.7033    0.2033   -3.3569 C   0  0  0  0  0  0  0  0  0  0  0  0
    0.6766   -1.6815   -4.5479 C   0  0  0  0  0  0  0  0  0  0  0  0
   -0.5482   -3.5783   -3.6420 C   0  0  0  0  0  0  0  0  0  0  0  0
   -5.6370   -0.3122   -2.4440 C   0  0  0  0  0  0  0  0  0  0  0  0
    0.3365   -3.0442   -4.5951 C   0  0  0  0  0  0  0  0  0  0  0  0
    2.8721   -1.9595    0.2769 H   0  0  0  0  0  0  0  0  0  0  0  0
   -1.0207    0.5459   -1.6704 H   0  0  0  0  0  0  0  0  0  0  0  0
   -1.7812   -1.3563    1.7617 H   0  0  0  0  0  0  0  0  0  0  0  0
   -2.3183    0.1934    1.1184 H   0  0  0  0  0  0  0  0  0  0  0  0
    2.8013    0.4788    1.0022 H   0  0  0  0  0  0  0  0  0  0  0  0
    2.7684   -1.7187   -2.6109 H   0  0  0  0  0  0  0  0  0  0  0  0
    3.9747   -2.5153   -1.6396 H   0  0  0  0  0  0  0  0  0  0  0  0
   -3.1190   -2.5997    0.1422 H   0  0  0  0  0  0  0  0  0  0  0  0
   -4.1244   -1.5049    1.1072 H   0  0  0  0  0  0  0  0  0  0  0  0
    5.0105   -0.7446    1.0342 H   0  0  0  0  0  0  0  0  0  0  0  0
    5.2442    0.9625    0.6558 H   0  0  0  0  0  0  0  0  0  0  0  0
    3.4677    2.2335   -0.7036 H   0  0  0  0  0  0  0  0  0  0  0  0
    1.9822    1.4263   -1.1943 H   0  0  0  0  0  0  0  0  0  0  0  0
   -2.6692    0.5474   -3.7363 H   0  0  0  0  0  0  0  0  0  0  0  0
    0.4010    0.1350   -3.5330 H   0  0  0  0  0  0  0  0  0  0  0  0
   -1.7451   -3.1571   -1.9694 H   0  0  0  0  0  0  0  0  0  0  0  0
    6.2360    0.3786   -1.3577 H   0  0  0  0  0  0  0  0  0  0  0  0
    6.0247   -1.3152   -0.9629 H   0  0  0  0  0  0  0  0  0  0  0  0
    4.4491    1.5741   -2.7070 H   0  0  0  0  0  0  0  0  0  0  0  0
    2.9892    0.7096   -3.1479 H   0  0  0  0  0  0  0  0  0  0  0  0
   -5.8902   -1.2465   -0.5776 H   0  0  0  0  0  0  0  0  0  0  0  0
   -5.0197    0.6087   -4.2385 H   0  0  0  0  0  0  0  0  0  0  0  0
    1.3231   -1.2948   -5.2385 H   0  0  0  0  0  0  0  0  0  0  0  0
   -0.8001   -4.5694   -3.6767 H   0  0  0  0  0  0  0  0  0  0  0  0
   -6.6351   -0.2802   -2.6591 H   0  0  0  0  0  0  0  0  0  0  0  0
    0.7339   -3.6472   -5.3205 H   0  0  0  0  0  0  0  0  0  0  0  0
  1  2  1  0  0  0  0 
  1  3  2  0  0  0  0 
  1  4  1  0  0  0  0 
  6  4  1  0  0  0  0 
  4  7  1  0  0  0  0 
  5  2  1  0  0  0  0 
  5  8  1  0  0  0  0 
  5  9  1  0  0  0  0 
  6 10  1  0  0  0  0 
  6 11  1  0  0  0  0 
  7 12  1  0  0  0  0 
  8 13  1  0  0  0  0 
  8 14  1  0  0  0  0 
  9 15  1  0  0  0  0 
 10 16  2  0  0  0  0 
 10 17  1  0  0  0  0 
 11 18  2  0  0  0  0 
 11 19  1  0  0  0  0 
 12 16  1  0  0  0  0 
 13 20  1  0  0  0  0 
 14 21  1  0  0  0  0 
 15 20  1  0  0  0  0 
 15 21  1  0  0  0  0 
 16 22  1  0  0  0  0 
 17 23  2  0  0  0  0 
 18 24  1  0  0  0  0 
 19 25  2  0  0  0  0 
 22 26  2  0  0  0  0 
 23 26  1  0  0  0  0 
 24 27  2  0  0  0  0 
 25 27  1  0  0  0  0 
  5 28  1  0  0  0  0 
  6 29  1  0  0  0  0 
  7 30  1  0  0  0  0 
  7 31  1  0  0  0  0 
  8 32  1  0  0  0  0 
  9 33  1  0  0  0  0 
  9 34  1  0  0  0  0 
 12 35  1  0  0  0  0 
 12 36  1  0  0  0  0 
 13 37  1  0  0  0  0 
 13 38  1  0  0  0  0 
 14 39  1  0  0  0  0 
 14 40  1  0  0  0  0 
 17 41  1  0  0  0  0 
 18 42  1  0  0  0  0 
 19 43  1  0  0  0  0 
 20 44  1  0  0  0  0 
 20 45  1  0  0  0  0 
 21 46  1  0  0  0  0 
 21 47  1  0  0  0  0 
 22 48  1  0  0  0  0 
 23 49  1  0  0  0  0 
 24 50  1  0  0  0  0 
 25 51  1  0  0  0  0 
 26 52  1  0  0  0  0 
 27 53  1  0  0  0  0 
M  END
> <cdk:Title>
solifenacin

> <Conformer>
1

> <SuperDrugID>
SD002207

$$$$
