edetic acid
  CDK     0628171802

 36 35  0  0  0  0  0  0  0  0999 V2000
   -1.6818    1.8776   -0.4106 N   0  0  2  0  0  0  0  0  0  0  0  0
   -0.2631    1.3810   -0.2299 C   0  0  1  0  0  0  0  0  0  0  0  0
   -1.7426    3.2174   -1.1048 C   0  0  2  0  0  0  0  0  0  0  0  0
   -2.4875    1.8671    0.8627 C   0  0  1  0  0  0  0  0  0  0  0  0
   -0.0969   -0.1201    0.1563 C   0  0  2  0  0  0  0  0  0  0  0  0
   -1.1982    3.2265   -2.4765 C   0  0  0  0  0  0  0  0  0  0  0  0
   -3.9223    2.1832    0.7016 C   0  0  0  0  0  0  0  0  0  0  0  0
    1.3175   -0.6141    0.3389 N   0  0  2  0  0  0  0  0  0  0  0  0
   -0.1501    4.0220   -2.7963 O   0  0  0  0  0  0  0  0  0  0  0  0
   -1.6990    2.4993   -3.3630 O   0  0  0  0  0  0  0  0  0  0  0  0
   -4.4737    3.2329    1.3569 O   0  0  0  0  0  0  0  0  0  0  0  0
   -4.6492    1.4841   -0.0393 O   0  0  0  0  0  0  0  0  0  0  0  0
    2.1285   -0.6540   -0.9296 C   0  0  2  0  0  0  0  0  0  0  0  0
    1.3748   -1.9266    1.0853 C   0  0  2  0  0  0  0  0  0  0  0  0
    3.5790   -0.7603   -0.6809 C   0  0  0  0  0  0  0  0  0  0  0  0
    0.9500   -1.8300    2.4954 C   0  0  0  0  0  0  0  0  0  0  0  0
    4.2211    0.1740    0.0557 O   0  0  0  0  0  0  0  0  0  0  0  0
    4.2447   -1.7082   -1.1532 O   0  0  0  0  0  0  0  0  0  0  0  0
    1.5876   -0.9885    3.3392 O   0  0  0  0  0  0  0  0  0  0  0  0
    0.0032   -2.5224    2.9343 O   0  0  0  0  0  0  0  0  0  0  0  0
    0.2506    1.5010   -1.1784 H   0  0  0  0  0  0  0  0  0  0  0  0
    0.2611    2.0011    0.5042 H   0  0  0  0  0  0  0  0  0  0  0  0
   -1.2211    3.9665   -0.5025 H   0  0  0  0  0  0  0  0  0  0  0  0
   -2.7772    3.5527   -1.2112 H   0  0  0  0  0  0  0  0  0  0  0  0
   -2.4749    0.8769    1.3143 H   0  0  0  0  0  0  0  0  0  0  0  0
   -2.0454    2.5612    1.5830 H   0  0  0  0  0  0  0  0  0  0  0  0
   -0.6054   -0.7500   -0.5764 H   0  0  0  0  0  0  0  0  0  0  0  0
   -0.6124   -0.2427    1.1035 H   0  0  0  0  0  0  0  0  0  0  0  0
    0.2147    4.0199   -3.7061 H   0  0  0  0  0  0  0  0  0  0  0  0
   -5.4287    3.4341    1.2611 H   0  0  0  0  0  0  0  0  0  0  0  0
    2.0223    0.2626   -1.5043 H   0  0  0  0  0  0  0  0  0  0  0  0
    1.7921   -1.4745   -1.5721 H   0  0  0  0  0  0  0  0  0  0  0  0
    2.3962   -2.3118    1.1257 H   0  0  0  0  0  0  0  0  0  0  0  0
    0.7740   -2.6783    0.5623 H   0  0  0  0  0  0  0  0  0  0  0  0
    5.1870    0.0965    0.2066 H   0  0  0  0  0  0  0  0  0  0  0  0
    1.2926   -0.9148    4.2711 H   0  0  0  0  0  0  0  0  0  0  0  0
  1  2  1  0  0  0  0 
  1  3  1  0  0  0  0 
  1  4  1  0  0  0  0 
  2  5  1  0  0  0  0 
  3  6  1  0  0  0  0 
  4  7  1  0  0  0  0 
  5  8  1  0  0  0  0 
  6  9  1  0  0  0  0 
  6 10  2  0  0  0  0 
  7 11  1  0  0  0  0 
  7 12  2  0  0  0  0 
  8 13  1  0  0  0  0 
  8 14  1  0  0  0  0 
 13 15  1  0  0  0  0 
 14 16  1  0  0  0  0 
 15 17  1  0  0  0  0 
 15 18  2  0  0  0  0 
 16 19  1  0  0  0  0 
 16 20  2  0  0  0  0 
  2 21  1  0  0  0  0 
  2 22  1  0  0  0  0 
  3 23  1  0  0  0  0 
  3 24  1  0  0  0  0 
  4 25  1  0  0  0  0 
  4 26  1  0  0  0  0 
  5 27  1  0  0  0  0 
  5 28  1  0  0  0  0 
  9 29  1  0  0  0  0 
 11 30  1  0  0  0  0 
 13 31  1  0  0  0  0 
 13 32  1  0  0  0  0 
 14 33  1  0  0  0  0 
 14 34  1  0  0  0  0 
 17 35  1  0  0  0  0 
 19 36  1  0  0  0  0 
M  END
> <cdk:Title>
edetic acid

> <Conformer>
1

> <SuperDrugID>
SD000875

$$$$
