mitobronitol
  CDK     0628171802

 24 23  0  0  0  0  0  0  0  0999 V2000
    0.5670    0.7686   -3.2548 C   0  0  1  0  0  0  0  0  0  0  0  0
   -0.8484    1.4316   -3.3198 C   0  0  1  0  0  0  0  0  0  0  0  0
    1.1198    0.2228   -4.6096 C   0  0  1  0  0  0  0  0  0  0  0  0
    1.5351    1.6929   -2.7526 O   0  0  0  0  0  0  0  0  0  0  0  0
   -1.4526    1.8812   -1.9508 C   0  0  1  0  0  0  0  0  0  0  0  0
   -0.7999    2.5640   -4.1887 O   0  0  0  0  0  0  0  0  0  0  0  0
    0.2810   -0.8856   -5.2972 C   0  0  1  0  0  0  0  0  0  0  0  0
    1.3031    1.2798   -5.5526 O   0  0  0  0  0  0  0  0  0  0  0  0
   -1.6806    0.7278   -0.9413 C   0  0  2  0  0  0  0  0  0  0  0  0
   -0.6510    2.8904   -1.3393 O   0  0  0  0  0  0  0  0  0  0  0  0
   -0.0059   -2.4289   -4.1685 Br  0  0  0  0  0  0  0  0  0  0  0  0
   -2.5976    1.3670    0.6331 Br  0  0  0  0  0  0  0  0  0  0  0  0
    0.5396   -0.0670   -2.5518 H   0  0  0  0  0  0  0  0  0  0  0  0
   -1.5505    0.7197   -3.7613 H   0  0  0  0  0  0  0  0  0  0  0  0
    2.1096   -0.2024   -4.4138 H   0  0  0  0  0  0  0  0  0  0  0  0
    1.2915    1.8473   -1.8165 H   0  0  0  0  0  0  0  0  0  0  0  0
   -2.4299    2.3315   -2.1533 H   0  0  0  0  0  0  0  0  0  0  0  0
   -1.7300    2.8526   -4.2867 H   0  0  0  0  0  0  0  0  0  0  0  0
   -0.6862   -0.4950   -5.6194 H   0  0  0  0  0  0  0  0  0  0  0  0
    0.8117   -1.2255   -6.1908 H   0  0  0  0  0  0  0  0  0  0  0  0
    1.9097    1.9134   -5.1149 H   0  0  0  0  0  0  0  0  0  0  0  0
   -0.7309    0.2986   -0.6181 H   0  0  0  0  0  0  0  0  0  0  0  0
   -2.2898   -0.0603   -1.3923 H   0  0  0  0  0  0  0  0  0  0  0  0
   -0.6198    3.6206   -1.9901 H   0  0  0  0  0  0  0  0  0  0  0  0
  2  1  1  0  0  0  0 
  1  3  1  0  0  0  0 
  1  4  1  0  0  0  0 
  5  2  1  0  0  0  0 
  2  6  1  0  0  0  0 
  3  7  1  0  0  0  0 
  3  8  1  0  0  0  0 
  5  9  1  0  0  0  0 
  5 10  1  0  0  0  0 
  7 11  1  0  0  0  0 
  9 12  1  0  0  0  0 
  1 13  1  0  0  0  0 
  2 14  1  0  0  0  0 
  3 15  1  0  0  0  0 
  4 16  1  0  0  0  0 
  5 17  1  0  0  0  0 
  6 18  1  0  0  0  0 
  7 19  1  0  0  0  0 
  7 20  1  0  0  0  0 
  8 21  1  0  0  0  0 
  9 22  1  0  0  0  0 
  9 23  1  0  0  0  0 
 10 24  1  0  0  0  0 
M  END
> <cdk:Title>
mitobronitol

> <Conformer>
1

> <SuperDrugID>
SD000761

$$$$
