hydroxyprogesterone caproate
  CDK     0628171801

 71 74  0  0  0  0  0  0  0  0999 V2000
   -6.6344   -1.1785    4.1315 C   0  0  2  0  0  0  0  0  0  0  0  0
   -7.8921   -1.7055    4.8674 C   0  0  2  0  0  0  0  0  0  0  0  0
   -7.7892   -3.1481    5.1642 C   0  0  0  0  0  0  0  0  0  0  0  0
   -6.5764   -3.8134    5.1810 C   0  0  0  0  0  0  0  0  0  0  0  0
   -5.3815   -3.2103    4.9787 C   0  0  0  0  0  0  0  0  0  0  0  0
   -5.2695   -1.7430    4.7001 C   0  0  1  0  0  0  0  0  0  0  0  0
   -4.1250   -1.4748    3.6187 C   0  0  2  0  0  0  0  0  0  0  0  0
   -4.1602   -4.0224    5.1295 C   0  0  2  0  0  0  0  0  0  0  0  0
   -3.0861   -3.7516    4.0486 C   0  0  2  0  0  0  0  0  0  0  0  0
   -2.7799   -2.2292    3.9500 C   0  0  1  0  0  0  0  0  0  0  0  0
   -2.6930    0.3114    2.2797 C   0  0  1  0  0  0  0  0  0  0  0  0
   -3.9077    0.0319    3.2209 C   0  0  1  0  0  0  0  0  0  0  0  0
   -1.3729   -0.3640    2.7785 C   0  0  2  0  0  0  0  0  0  0  0  0
   -0.1626   -0.3677    1.7559 C   0  0  2  0  0  0  0  0  0  0  0  0
   -1.6831   -1.8947    2.8838 C   0  0  1  0  0  0  0  0  0  0  0  0
   -0.2886   -2.5520    2.9975 C   0  0  2  0  0  0  0  0  0  0  0  0
    0.6936   -1.5425    2.3402 C   0  0  1  0  0  0  0  0  0  0  0  0
   -8.8317   -3.7741    5.4675 O   0  0  0  0  0  0  0  0  0  0  0  0
   -4.9887   -1.0381    6.0783 C   0  0  0  0  0  0  0  0  0  0  0  0
   -0.9416    0.2984    4.1557 C   0  0  0  0  0  0  0  0  0  0  0  0
    0.5764    0.9372    1.6242 C   0  0  0  0  0  0  0  0  0  0  0  0
   -0.0861    1.9973    1.5412 O   0  0  0  0  0  0  0  0  0  0  0  0
    2.0425    1.0566    1.4628 C   0  0  0  0  0  0  0  0  0  0  0  0
   -0.5140   -0.8757    0.4368 O   0  0  0  0  0  0  0  0  0  0  0  0
   -0.5027   -0.3263   -0.8206 C   0  0  0  0  0  0  0  0  0  0  0  0
   -0.7510    0.8854   -1.0124 O   0  0  0  0  0  0  0  0  0  0  0  0
   -0.1063   -1.1837   -1.9570 C   0  0  2  0  0  0  0  0  0  0  0  0
   -1.2031   -1.4760   -3.0076 C   0  0  2  0  0  0  0  0  0  0  0  0
   -0.6180   -2.5105   -4.1478 C   0  0  2  0  0  0  0  0  0  0  0  0
   -1.5246   -2.7599   -5.4149 C   0  0  1  0  0  0  0  0  0  0  0  0
   -0.9588   -3.8392   -6.3673 C   0  0  0  0  0  0  0  0  0  0  0  0
   -6.6557   -0.0855    4.1754 H   0  0  0  0  0  0  0  0  0  0  0  0
   -6.7403   -1.4523    3.0768 H   0  0  0  0  0  0  0  0  0  0  0  0
   -8.7715   -1.5242    4.2433 H   0  0  0  0  0  0  0  0  0  0  0  0
   -8.0297   -1.1639    5.8061 H   0  0  0  0  0  0  0  0  0  0  0  0
   -6.6063   -4.7888    5.3851 H   0  0  0  0  0  0  0  0  0  0  0  0
   -4.4771   -1.9346    2.6886 H   0  0  0  0  0  0  0  0  0  0  0  0
   -4.3674   -5.0976    5.1092 H   0  0  0  0  0  0  0  0  0  0  0  0
   -3.7314   -3.8057    6.1117 H   0  0  0  0  0  0  0  0  0  0  0  0
   -3.4330   -4.1399    3.0845 H   0  0  0  0  0  0  0  0  0  0  0  0
   -2.1813   -4.3023    4.3213 H   0  0  0  0  0  0  0  0  0  0  0  0
   -2.4000   -1.9249    4.9269 H   0  0  0  0  0  0  0  0  0  0  0  0
   -2.9411   -0.0507    1.2793 H   0  0  0  0  0  0  0  0  0  0  0  0
   -2.5502    1.3907    2.1999 H   0  0  0  0  0  0  0  0  0  0  0  0
   -4.7971    0.3969    2.7023 H   0  0  0  0  0  0  0  0  0  0  0  0
   -3.7975    0.6418    4.1154 H   0  0  0  0  0  0  0  0  0  0  0  0
   -2.0954   -2.2438    1.9257 H   0  0  0  0  0  0  0  0  0  0  0  0
   -0.2718   -3.5081    2.4670 H   0  0  0  0  0  0  0  0  0  0  0  0
   -0.0322   -2.7332    4.0447 H   0  0  0  0  0  0  0  0  0  0  0  0
    1.2955   -2.0322    1.5702 H   0  0  0  0  0  0  0  0  0  0  0  0
    1.3874   -1.1868    3.1029 H   0  0  0  0  0  0  0  0  0  0  0  0
   -5.7555   -1.2922    6.8167 H   0  0  0  0  0  0  0  0  0  0  0  0
   -4.0263   -1.3326    6.4970 H   0  0  0  0  0  0  0  0  0  0  0  0
   -4.9889    0.0484    5.9822 H   0  0  0  0  0  0  0  0  0  0  0  0
   -0.7281    1.3589    4.0245 H   0  0  0  0  0  0  0  0  0  0  0  0
   -0.0543   -0.1665    4.5842 H   0  0  0  0  0  0  0  0  0  0  0  0
   -1.7114    0.2335    4.9202 H   0  0  0  0  0  0  0  0  0  0  0  0
    2.3235    2.0616    1.1358 H   0  0  0  0  0  0  0  0  0  0  0  0
    2.5302    0.8703    2.4188 H   0  0  0  0  0  0  0  0  0  0  0  0
    2.4048    0.3439    0.7199 H   0  0  0  0  0  0  0  0  0  0  0  0
    0.2459   -2.1382   -1.5628 H   0  0  0  0  0  0  0  0  0  0  0  0
    0.7391   -0.7060   -2.4589 H   0  0  0  0  0  0  0  0  0  0  0  0
   -1.5219   -0.5462   -3.4868 H   0  0  0  0  0  0  0  0  0  0  0  0
   -2.0664   -1.9444   -2.5270 H   0  0  0  0  0  0  0  0  0  0  0  0
   -0.4093   -3.5384   -3.7448 H   0  0  0  0  0  0  0  0  0  0  0  0
    0.3726   -2.1965   -4.5743 H   0  0  0  0  0  0  0  0  0  0  0  0
   -2.5183   -3.0705   -5.0834 H   0  0  0  0  0  0  0  0  0  0  0  0
   -1.6302   -1.8221   -5.9672 H   0  0  0  0  0  0  0  0  0  0  0  0
   -1.5901   -3.9174   -7.2540 H   0  0  0  0  0  0  0  0  0  0  0  0
   -0.9387   -4.8084   -5.8645 H   0  0  0  0  0  0  0  0  0  0  0  0
    0.0544   -3.5791   -6.6813 H   0  0  0  0  0  0  0  0  0  0  0  0
  1  2  1  0  0  0  0 
  2  3  1  0  0  0  0 
  3  4  1  0  0  0  0 
  4  5  2  0  0  0  0 
  6  1  1  0  0  0  0 
  5  8  1  0  0  0  0 
  6  5  1  0  0  0  0 
  7  6  1  0  0  0  0 
  8  9  1  0  0  0  0 
 10  9  1  0  0  0  0 
 10 15  1  0  0  0  0 
  7 10  1  0  0  0  0 
  7 12  1  0  0  0  0 
 11 12  1  0  0  0  0 
 13 11  1  0  0  0  0 
 13 14  1  0  0  0  0 
 15 16  1  0  0  0  0 
 16 17  1  0  0  0  0 
 14 17  1  0  0  0  0 
 15 13  1  0  0  0  0 
  3 18  2  0  0  0  0 
  6 19  1  0  0  0  0 
 13 20  1  0  0  0  0 
 14 21  1  0  0  0  0 
 21 22  2  0  0  0  0 
 21 23  1  0  0  0  0 
 14 24  1  0  0  0  0 
 24 25  1  0  0  0  0 
 25 26  2  0  0  0  0 
 25 27  1  0  0  0  0 
 27 28  1  0  0  0  0 
 28 29  1  0  0  0  0 
 29 30  1  0  0  0  0 
 30 31  1  0  0  0  0 
 32  1  1  0  0  0  0 
 33  1  1  0  0  0  0 
 34  2  1  0  0  0  0 
 35  2  1  0  0  0  0 
 36  4  1  0  0  0  0 
  7 37  1  0  0  0  0 
 38  8  1  0  0  0  0 
 39  8  1  0  0  0  0 
 40  9  1  0  0  0  0 
 41  9  1  0  0  0  0 
 10 42  1  0  0  0  0 
 43 11  1  0  0  0  0 
 44 11  1  0  0  0  0 
 45 12  1  0  0  0  0 
 46 12  1  0  0  0  0 
 15 47  1  0  0  0  0 
 48 16  1  0  0  0  0 
 49 16  1  0  0  0  0 
 50 17  1  0  0  0  0 
 51 17  1  0  0  0  0 
 52 19  1  0  0  0  0 
 53 19  1  0  0  0  0 
 54 19  1  0  0  0  0 
 55 20  1  0  0  0  0 
 56 20  1  0  0  0  0 
 57 20  1  0  0  0  0 
 58 23  1  0  0  0  0 
 59 23  1  0  0  0  0 
 60 23  1  0  0  0  0 
 61 27  1  0  0  0  0 
 62 27  1  0  0  0  0 
 63 28  1  0  0  0  0 
 64 28  1  0  0  0  0 
 65 29  1  0  0  0  0 
 66 29  1  0  0  0  0 
 67 30  1  0  0  0  0 
 68 30  1  0  0  0  0 
 69 31  1  0  0  0  0 
 70 31  1  0  0  0  0 
 71 31  1  0  0  0  0 
M  END
> <cdk:Title>
hydroxyprogesterone caproate

> <Conformer>
1

> <SuperDrugID>
SD003419

$$$$
