troxerutin
  CDK     0628171801

 94 98  0  0  0  0  0  0  0  0999 V2000
    1.8160   -5.8357   -6.0481 O   0  0  0  0  0  0  0  0  0  0  0  0
    2.2108   -6.5568   -4.9464 C   0  0  0  0  0  0  0  0  0  0  0  0
    2.3865   -4.5048   -6.1041 C   0  0  2  0  0  0  0  0  0  0  0  0
    3.4092   -7.3058   -4.9532 C   0  0  0  0  0  0  0  0  0  0  0  0
    1.4307   -6.5261   -3.7701 C   0  0  0  0  0  0  0  0  0  0  0  0
    1.8817   -3.7302   -4.9917 O   0  0  0  0  0  0  0  0  0  0  0  0
    1.8535   -3.8417   -7.4387 C   0  0  2  0  0  0  0  0  0  0  0  0
    3.8180   -7.8985   -3.7932 O   0  0  0  0  0  0  0  0  0  0  0  0
    4.2162   -7.4412   -6.1041 C   0  0  0  0  0  0  0  0  0  0  0  0
    0.2663   -5.8320   -3.8174 O   0  0  0  0  0  0  0  0  0  0  0  0
    1.8657   -7.1660   -2.5822 C   0  0  0  0  0  0  0  0  0  0  0  0
    2.3366   -2.3620   -4.9411 C   0  0  2  0  0  0  0  0  0  0  0  0
    2.3747   -4.5615   -8.5749 O   0  0  0  0  0  0  0  0  0  0  0  0
    2.3292   -2.3056   -7.5158 C   0  0  2  0  0  0  0  0  0  0  0  0
    3.1124   -7.8460   -2.6271 C   0  0  0  0  0  0  0  0  0  0  0  0
    3.6732   -7.9275   -7.3158 C   0  0  0  0  0  0  0  0  0  0  0  0
    5.5828   -7.0858   -6.0608 C   0  0  0  0  0  0  0  0  0  0  0  0
    1.1464   -7.1515   -1.3593 C   0  0  0  0  0  0  0  0  0  0  0  0
    1.7710   -1.7362   -3.6425 C   0  0  1  0  0  0  0  0  0  0  0  0
    1.8717   -1.5860   -6.2134 C   0  0  2  0  0  0  0  0  0  0  0  0
    1.7957   -1.5418   -8.6309 O   0  0  0  0  0  0  0  0  0  0  0  0
    3.6356   -8.4681   -1.4785 C   0  0  0  0  0  0  0  0  0  0  0  0
    4.4757   -8.0499   -8.4682 C   0  0  0  0  0  0  0  0  0  0  0  0
    6.3812   -7.1850   -7.2142 C   0  0  0  0  0  0  0  0  0  0  0  0
    0.0321   -6.5903   -1.2494 O   0  0  0  0  0  0  0  0  0  0  0  0
    1.6801   -7.7718   -0.2109 C   0  0  0  0  0  0  0  0  0  0  0  0
    2.2781   -2.4384   -2.4857 O   0  0  0  0  0  0  0  0  0  0  0  0
    2.3668   -0.2448   -6.2004 O   0  0  0  0  0  0  0  0  0  0  0  0
    2.9275   -8.4241   -0.2617 C   0  0  0  0  0  0  0  0  0  0  0  0
    3.9416   -8.5620   -9.6201 O   0  0  0  0  0  0  0  0  0  0  0  0
    5.8354   -7.6732   -8.4180 C   0  0  0  0  0  0  0  0  0  0  0  0
    1.8188   -1.9163   -1.2191 C   0  0  1  0  0  0  0  0  0  0  0  0
    3.4287   -9.0405    0.8568 O   0  0  0  0  0  0  0  0  0  0  0  0
    3.2881   -7.5656  -10.4315 C   0  0  1  0  0  0  0  0  0  0  0  0
    6.6164   -7.7580   -9.5410 O   0  0  0  0  0  0  0  0  0  0  0  0
    2.4396   -2.7669   -0.0789 C   0  0  2  0  0  0  0  0  0  0  0  0
    2.2354   -0.5360   -1.0852 O   0  0  0  0  0  0  0  0  0  0  0  0
    4.2829   -8.1875    1.6496 C   0  0  1  0  0  0  0  0  0  0  0  0
    2.7210   -8.2315  -11.6992 C   0  0  1  0  0  0  0  0  0  0  0  0
    7.3136   -9.0154   -9.6534 C   0  0  1  0  0  0  0  0  0  0  0  0
    1.9945   -4.1190   -0.1670 O   0  0  0  0  0  0  0  0  0  0  0  0
    2.0983   -2.1740    1.3170 C   0  0  2  0  0  0  0  0  0  0  0  0
    1.8961    0.1353    0.1494 C   0  0  2  0  0  0  0  0  0  0  0  0
    4.7670   -8.9562    2.8963 C   0  0  2  0  0  0  0  0  0  0  0  0
    3.7594   -8.8313  -12.4673 O   0  0  0  0  0  0  0  0  0  0  0  0
    8.1179   -9.0428  -10.9674 C   0  0  1  0  0  0  0  0  0  0  0  0
    0.7279   -2.4158    1.6407 O   0  0  0  0  0  0  0  0  0  0  0  0
    2.4346   -0.6545    1.3832 C   0  0  2  0  0  0  0  0  0  0  0  0
    0.3881    0.4916    0.2373 C   0  0  0  0  0  0  0  0  0  0  0  0
    5.6141   -8.1269    3.6887 O   0  0  0  0  0  0  0  0  0  0  0  0
    9.0931   -8.0048  -10.9821 O   0  0  0  0  0  0  0  0  0  0  0  0
    3.8556   -0.5124    1.4439 O   0  0  0  0  0  0  0  0  0  0  0  0
    3.5087   -4.5836   -5.9951 H   0  0  0  0  0  0  0  0  0  0  0  0
    0.7608   -3.8850   -7.4669 H   0  0  0  0  0  0  0  0  0  0  0  0
    0.3891   -5.1010   -3.1755 H   0  0  0  0  0  0  0  0  0  0  0  0
    3.4302   -2.3386   -4.8751 H   0  0  0  0  0  0  0  0  0  0  0  0
    2.0168   -4.1760   -9.4220 H   0  0  0  0  0  0  0  0  0  0  0  0
    3.4405   -2.1468   -7.5943 H   0  0  0  0  0  0  0  0  0  0  0  0
    2.6884   -8.2011   -7.3671 H   0  0  0  0  0  0  0  0  0  0  0  0
    6.0029   -6.7389   -5.1949 H   0  0  0  0  0  0  0  0  0  0  0  0
    2.0788   -0.6869   -3.6032 H   0  0  0  0  0  0  0  0  0  0  0  0
    0.6757   -1.7809   -3.6662 H   0  0  0  0  0  0  0  0  0  0  0  0
    0.7785   -1.5336   -6.2156 H   0  0  0  0  0  0  0  0  0  0  0  0
    0.8229   -1.6097   -8.5385 H   0  0  0  0  0  0  0  0  0  0  0  0
    4.5358   -8.9521   -1.5254 H   0  0  0  0  0  0  0  0  0  0  0  0
    7.3640   -6.9036   -7.1760 H   0  0  0  0  0  0  0  0  0  0  0  0
    1.1606   -7.7511    0.6724 H   0  0  0  0  0  0  0  0  0  0  0  0
    3.3411   -0.3336   -6.2575 H   0  0  0  0  0  0  0  0  0  0  0  0
    0.7273   -1.9975   -1.1799 H   0  0  0  0  0  0  0  0  0  0  0  0
    2.4557   -7.1092   -9.8852 H   0  0  0  0  0  0  0  0  0  0  0  0
    3.9895   -6.7780  -10.7284 H   0  0  0  0  0  0  0  0  0  0  0  0
    3.5267   -2.7712   -0.1995 H   0  0  0  0  0  0  0  0  0  0  0  0
    5.1593   -7.8741    1.0726 H   0  0  0  0  0  0  0  0  0  0  0  0
    3.7426   -7.2950    1.9834 H   0  0  0  0  0  0  0  0  0  0  0  0
    1.9959   -8.9986  -11.4191 H   0  0  0  0  0  0  0  0  0  0  0  0
    2.2178   -7.4790  -12.3099 H   0  0  0  0  0  0  0  0  0  0  0  0
    8.0061   -9.1511   -8.8160 H   0  0  0  0  0  0  0  0  0  0  0  0
    6.6085   -9.8538   -9.6661 H   0  0  0  0  0  0  0  0  0  0  0  0
    2.4517   -4.5810    0.5653 H   0  0  0  0  0  0  0  0  0  0  0  0
    2.6888   -2.6982    2.0747 H   0  0  0  0  0  0  0  0  0  0  0  0
    2.4225    1.0938    0.1143 H   0  0  0  0  0  0  0  0  0  0  0  0
    5.3241   -9.8467    2.5946 H   0  0  0  0  0  0  0  0  0  0  0  0
    3.9090   -9.2653    3.4985 H   0  0  0  0  0  0  0  0  0  0  0  0
    3.3002   -9.2251  -13.2387 H   0  0  0  0  0  0  0  0  0  0  0  0
    8.6252  -10.0053  -11.0671 H   0  0  0  0  0  0  0  0  0  0  0  0
    7.4441   -8.9127  -11.8174 H   0  0  0  0  0  0  0  0  0  0  0  0
    0.6337   -2.1575    2.5846 H   0  0  0  0  0  0  0  0  0  0  0  0
    2.0343   -0.2230    2.3045 H   0  0  0  0  0  0  0  0  0  0  0  0
    0.2045    1.1213    1.1114 H   0  0  0  0  0  0  0  0  0  0  0  0
    0.0778    1.0407   -0.6545 H   0  0  0  0  0  0  0  0  0  0  0  0
   -0.2291   -0.4002    0.3224 H   0  0  0  0  0  0  0  0  0  0  0  0
    5.8726   -8.6843    4.4532 H   0  0  0  0  0  0  0  0  0  0  0  0
    9.5568   -8.1082  -11.8396 H   0  0  0  0  0  0  0  0  0  0  0  0
    4.0238    0.4479    1.5411 H   0  0  0  0  0  0  0  0  0  0  0  0
  1  2  1  0  0  0  0 
  2  4  2  0  0  0  0 
  2  5  1  0  0  0  0 
  3  1  1  0  0  0  0 
  3  6  1  0  0  0  0 
  7  3  1  0  0  0  0 
  4  8  1  0  0  0  0 
  4  9  1  0  0  0  0 
  5 10  1  0  0  0  0 
  5 11  2  0  0  0  0 
 12  6  1  0  0  0  0 
  7 13  1  0  0  0  0 
  7 14  1  0  0  0  0 
  8 15  1  0  0  0  0 
  9 16  2  0  0  0  0 
  9 17  1  0  0  0  0 
 11 15  1  0  0  0  0 
 11 18  1  0  0  0  0 
 12 19  1  0  0  0  0 
 20 12  1  0  0  0  0 
 14 20  1  0  0  0  0 
 14 21  1  0  0  0  0 
 15 22  2  0  0  0  0 
 16 23  1  0  0  0  0 
 17 24  2  0  0  0  0 
 18 25  2  0  0  0  0 
 18 26  1  0  0  0  0 
 19 27  1  0  0  0  0 
 20 28  1  0  0  0  0 
 22 29  1  0  0  0  0 
 23 30  1  0  0  0  0 
 23 31  2  0  0  0  0 
 24 31  1  0  0  0  0 
 26 29  2  0  0  0  0 
 29 33  1  0  0  0  0 
 30 34  1  0  0  0  0 
 31 35  1  0  0  0  0 
 32 27  1  0  0  0  0 
 36 32  1  0  0  0  0 
 32 37  1  0  0  0  0 
 33 38  1  0  0  0  0 
 34 39  1  0  0  0  0 
 35 40  1  0  0  0  0 
 36 41  1  0  0  0  0 
 36 42  1  0  0  0  0 
 43 37  1  0  0  0  0 
 38 44  1  0  0  0  0 
 39 45  1  0  0  0  0 
 40 46  1  0  0  0  0 
 42 47  1  0  0  0  0 
 42 48  1  0  0  0  0 
 48 43  1  0  0  0  0 
 43 49  1  0  0  0  0 
 44 50  1  0  0  0  0 
 46 51  1  0  0  0  0 
 48 52  1  0  0  0  0 
  3 53  1  0  0  0  0 
  7 54  1  0  0  0  0 
 55 10  1  0  0  0  0 
 12 56  1  0  0  0  0 
 57 13  1  0  0  0  0 
 14 58  1  0  0  0  0 
 59 16  1  0  0  0  0 
 60 17  1  0  0  0  0 
 61 19  1  0  0  0  0 
 62 19  1  0  0  0  0 
 20 63  1  0  0  0  0 
 64 21  1  0  0  0  0 
 65 22  1  0  0  0  0 
 66 24  1  0  0  0  0 
 67 26  1  0  0  0  0 
 68 28  1  0  0  0  0 
 32 69  1  0  0  0  0 
 70 34  1  0  0  0  0 
 71 34  1  0  0  0  0 
 36 72  1  0  0  0  0 
 73 38  1  0  0  0  0 
 74 38  1  0  0  0  0 
 75 39  1  0  0  0  0 
 76 39  1  0  0  0  0 
 77 40  1  0  0  0  0 
 78 40  1  0  0  0  0 
 79 41  1  0  0  0  0 
 42 80  1  0  0  0  0 
 43 81  1  0  0  0  0 
 82 44  1  0  0  0  0 
 83 44  1  0  0  0  0 
 84 45  1  0  0  0  0 
 85 46  1  0  0  0  0 
 86 46  1  0  0  0  0 
 87 47  1  0  0  0  0 
 48 88  1  0  0  0  0 
 89 49  1  0  0  0  0 
 90 49  1  0  0  0  0 
 91 49  1  0  0  0  0 
 92 50  1  0  0  0  0 
 93 51  1  0  0  0  0 
 94 52  1  0  0  0  0 
M  END
> <cdk:Title>
troxerutin

> <Conformer>
1

> <SuperDrugID>
SD002507

$$$$
