dimecrotic acid
  CDK     0628171802

 30 30  0  0  0  0  0  0  0  0999 V2000
   -1.4848   -1.4025    0.0592 C   0  0  0  0  0  0  0  0  0  0  0  0
   -1.0093   -0.2409   -0.4550 C   0  0  0  0  0  0  0  0  0  0  0  0
   -0.6296   -2.5445    0.3882 C   0  0  0  0  0  0  0  0  0  0  0  0
   -2.8642   -1.5495    0.2733 C   0  0  0  0  0  0  0  0  0  0  0  0
    0.3014    0.0957   -0.7715 C   0  0  0  0  0  0  0  0  0  0  0  0
   -3.7859   -1.5185   -0.8077 C   0  0  0  0  0  0  0  0  0  0  0  0
   -3.3613   -1.7774    1.5802 C   0  0  0  0  0  0  0  0  0  0  0  0
    0.5517    1.2843   -1.3734 O   0  0  0  0  0  0  0  0  0  0  0  0
    1.2975   -0.6251   -0.5385 O   0  0  0  0  0  0  0  0  0  0  0  0
   -3.3584   -1.3226   -2.0954 O   0  0  0  0  0  0  0  0  0  0  0  0
   -5.1645   -1.7021   -0.5718 C   0  0  0  0  0  0  0  0  0  0  0  0
   -4.7351   -1.9829    1.8033 C   0  0  0  0  0  0  0  0  0  0  0  0
   -3.1284   -2.5571   -2.7979 C   0  0  0  0  0  0  0  0  0  0  0  0
   -5.6419   -1.9615    0.7270 C   0  0  0  0  0  0  0  0  0  0  0  0
   -6.9766   -2.1764    0.9472 O   0  0  0  0  0  0  0  0  0  0  0  0
   -7.3538   -3.5572    0.7834 C   0  0  0  0  0  0  0  0  0  0  0  0
   -1.6673    0.4800   -0.6452 H   0  0  0  0  0  0  0  0  0  0  0  0
    0.0543   -2.2759    1.1945 H   0  0  0  0  0  0  0  0  0  0  0  0
   -0.0576   -2.8539   -0.4886 H   0  0  0  0  0  0  0  0  0  0  0  0
   -1.2004   -3.4179    0.7157 H   0  0  0  0  0  0  0  0  0  0  0  0
   -2.7241   -1.8017    2.3814 H   0  0  0  0  0  0  0  0  0  0  0  0
    1.4680    1.5508   -1.6014 H   0  0  0  0  0  0  0  0  0  0  0  0
   -5.8235   -1.6683   -1.3530 H   0  0  0  0  0  0  0  0  0  0  0  0
   -5.0755   -2.1520    2.7523 H   0  0  0  0  0  0  0  0  0  0  0  0
   -2.7085   -2.3138   -3.7732 H   0  0  0  0  0  0  0  0  0  0  0  0
   -2.4178   -3.2017   -2.2731 H   0  0  0  0  0  0  0  0  0  0  0  0
   -4.0648   -3.0988   -2.9537 H   0  0  0  0  0  0  0  0  0  0  0  0
   -8.4126   -3.6517    1.0242 H   0  0  0  0  0  0  0  0  0  0  0  0
   -7.2107   -3.8911   -0.2480 H   0  0  0  0  0  0  0  0  0  0  0  0
   -6.7948   -4.2111    1.4584 H   0  0  0  0  0  0  0  0  0  0  0  0
  1  2  2  0  0  0  0 
  1  3  1  0  0  0  0 
  1  4  1  0  0  0  0 
  2  5  1  0  0  0  0 
  4  6  2  0  0  0  0 
  4  7  1  0  0  0  0 
  5  8  1  0  0  0  0 
  5  9  2  0  0  0  0 
  6 10  1  0  0  0  0 
  6 11  1  0  0  0  0 
  7 12  2  0  0  0  0 
 10 13  1  0  0  0  0 
 11 14  2  0  0  0  0 
 12 14  1  0  0  0  0 
 14 15  1  0  0  0  0 
 15 16  1  0  0  0  0 
  2 17  1  0  0  0  0 
  3 18  1  0  0  0  0 
  3 19  1  0  0  0  0 
  3 20  1  0  0  0  0 
  7 21  1  0  0  0  0 
  8 22  1  0  0  0  0 
 11 23  1  0  0  0  0 
 12 24  1  0  0  0  0 
 13 25  1  0  0  0  0 
 13 26  1  0  0  0  0 
 13 27  1  0  0  0  0 
 16 28  1  0  0  0  0 
 16 29  1  0  0  0  0 
 16 30  1  0  0  0  0 
M  END
> <cdk:Title>
dimecrotic acid

> <Conformer>
1

> <SuperDrugID>
SD000799

$$$$
