guaiacol
  CDK     0628171801

 17 17  0  0  0  0  0  0  0  0999 V2000
    1.5347   -0.0005   -0.0696 C   0  0  0  0  0  0  0  0  0  0  0  0
    0.1697   -0.2276    0.3244 O   0  0  0  0  0  0  0  0  0  0  0  0
   -0.2516    0.5831    1.3433 C   0  0  0  0  0  0  0  0  0  0  0  0
   -0.7985    1.8488    1.0477 C   0  0  0  0  0  0  0  0  0  0  0  0
   -1.2707    2.6772    2.0831 C   0  0  0  0  0  0  0  0  0  0  0  0
   -1.2054    2.2421    3.4193 C   0  0  0  0  0  0  0  0  0  0  0  0
   -0.6586    0.9797    3.7192 C   0  0  0  0  0  0  0  0  0  0  0  0
   -0.1887    0.1436    2.6846 C   0  0  0  0  0  0  0  0  0  0  0  0
    0.3128   -1.0866    2.9676 O   0  0  0  0  0  0  0  0  0  0  0  0
    2.2246   -0.1941    0.7559 H   0  0  0  0  0  0  0  0  0  0  0  0
    1.7665   -0.6940   -0.8774 H   0  0  0  0  0  0  0  0  0  0  0  0
    1.6829    1.0163   -0.4433 H   0  0  0  0  0  0  0  0  0  0  0  0
   -0.8555    2.1675    0.0778 H   0  0  0  0  0  0  0  0  0  0  0  0
   -1.6634    3.5955    1.8629 H   0  0  0  0  0  0  0  0  0  0  0  0
   -1.5580    2.8415    4.1714 H   0  0  0  0  0  0  0  0  0  0  0  0
   -0.6083    0.6722    4.6929 H   0  0  0  0  0  0  0  0  0  0  0  0
    0.2280   -1.1976    3.9388 H   0  0  0  0  0  0  0  0  0  0  0  0
  1  2  1  0  0  0  0 
  2  3  1  0  0  0  0 
  3  4  2  0  0  0  0 
  4  5  1  0  0  0  0 
  5  6  2  0  0  0  0 
  6  7  1  0  0  0  0 
  7  8  2  0  0  0  0 
  3  8  1  0  0  0  0 
  8  9  1  0  0  0  0 
  1 10  1  0  0  0  0 
  1 11  1  0  0  0  0 
  1 12  1  0  0  0  0 
  4 13  1  0  0  0  0 
  5 14  1  0  0  0  0 
  6 15  1  0  0  0  0 
  7 16  1  0  0  0  0 
  9 17  1  0  0  0  0 
M  END
> <cdk:Title>
guaiacol

> <Conformer>
1

> <SuperDrugID>
SD001185

$$$$
