quinbolone
  CDK     0628171801

 58 62  0  0  0  0  0  0  0  0999 V2000
   -0.2061    6.9867    3.7787 C   0  0  0  0  0  0  0  0  0  0  0  0
   -1.6514    6.5050    4.1715 C   0  0  1  0  0  0  0  0  0  0  0  0
   -2.1168    5.1858    3.4068 C   0  0  2  0  0  0  0  0  0  0  0  0
   -1.6726    6.2071    5.6447 C   0  0  0  0  0  0  0  0  0  0  0  0
   -2.5433    7.6376    3.8152 C   0  0  0  0  0  0  0  0  0  0  0  0
   -1.2820    3.9224    3.8642 C   0  0  2  0  0  0  0  0  0  0  0  0
   -2.2289    5.3169    1.8391 C   0  0  1  0  0  0  0  0  0  0  0  0
   -0.9321    5.0407    6.1470 C   0  0  2  0  0  0  0  0  0  0  0  0
   -2.3948    6.9614    6.5049 C   0  0  0  0  0  0  0  0  0  0  0  0
   -3.2391    8.3405    4.7225 C   0  0  0  0  0  0  0  0  0  0  0  0
   -1.7325    2.6582    3.0645 C   0  0  1  0  0  0  0  0  0  0  0  0
   -1.3818    3.7524    5.4116 C   0  0  2  0  0  0  0  0  0  0  0  0
   -2.4981    3.9814    1.0756 C   0  0  1  0  0  0  0  0  0  0  0  0
   -3.1655    8.0243    6.0652 C   0  0  0  0  0  0  0  0  0  0  0  0
   -1.5392    2.8283    1.5206 C   0  0  1  0  0  0  0  0  0  0  0  0
   -1.0773    1.2979    3.3823 C   0  0  1  0  0  0  0  0  0  0  0  0
   -3.8173    8.7034    6.8918 O   0  0  0  0  0  0  0  0  0  0  0  0
   -0.0686    3.1625    1.0589 C   0  0  0  0  0  0  0  0  0  0  0  0
   -1.9230    1.3935    1.0199 C   0  0  2  0  0  0  0  0  0  0  0  0
   -1.2851    0.4607    2.0963 C   0  0  2  0  0  0  0  0  0  0  0  0
   -1.4866    1.1337   -0.3422 O   0  0  0  0  0  0  0  0  0  0  0  0
   -1.7209   -0.1068   -0.8044 C   0  0  0  0  0  0  0  0  0  0  0  0
   -2.9624   -0.5271   -1.3898 C   0  0  2  0  0  0  0  0  0  0  0  0
   -0.8017   -1.0721   -0.8120 C   0  0  0  0  0  0  0  0  0  0  0  0
   -2.7340   -2.0162   -1.7367 C   0  0  2  0  0  0  0  0  0  0  0  0
   -1.2692   -2.3133   -1.3505 C   0  0  1  0  0  0  0  0  0  0  0  0
   -0.2251    4.0800    3.6521 H   0  0  0  0  0  0  0  0  0  0  0  0
   -3.1487    4.9883    3.7325 H   0  0  0  0  0  0  0  0  0  0  0  0
   -2.8020    2.5236    3.2809 H   0  0  0  0  0  0  0  0  0  0  0  0
   -0.1519    7.2980    2.7345 H   0  0  0  0  0  0  0  0  0  0  0  0
    0.5446    6.2111    3.9194 H   0  0  0  0  0  0  0  0  0  0  0  0
    0.0920    7.8432    4.3901 H   0  0  0  0  0  0  0  0  0  0  0  0
   -2.6208    7.9177    2.8646 H   0  0  0  0  0  0  0  0  0  0  0  0
   -3.0605    5.9851    1.5951 H   0  0  0  0  0  0  0  0  0  0  0  0
   -1.3295    5.7783    1.4326 H   0  0  0  0  0  0  0  0  0  0  0  0
   -1.0680    4.8821    7.2210 H   0  0  0  0  0  0  0  0  0  0  0  0
    0.1379    5.1943    5.9962 H   0  0  0  0  0  0  0  0  0  0  0  0
   -2.3908    6.7591    7.4787 H   0  0  0  0  0  0  0  0  0  0  0  0
   -3.8072    9.1006    4.4242 H   0  0  0  0  0  0  0  0  0  0  0  0
   -0.7380    2.9319    5.7384 H   0  0  0  0  0  0  0  0  0  0  0  0
   -2.4101    3.5085    5.7010 H   0  0  0  0  0  0  0  0  0  0  0  0
   -3.5374    3.6908    1.2564 H   0  0  0  0  0  0  0  0  0  0  0  0
   -2.4004    4.1543    0.0002 H   0  0  0  0  0  0  0  0  0  0  0  0
   -0.0112    1.4214    3.5950 H   0  0  0  0  0  0  0  0  0  0  0  0
   -1.5534    0.8211    4.2433 H   0  0  0  0  0  0  0  0  0  0  0  0
    0.2795    4.1228    1.4280 H   0  0  0  0  0  0  0  0  0  0  0  0
    0.6454    2.4150    1.4024 H   0  0  0  0  0  0  0  0  0  0  0  0
   -0.0102    3.2044   -0.0299 H   0  0  0  0  0  0  0  0  0  0  0  0
   -3.0148    1.2870    1.0672 H   0  0  0  0  0  0  0  0  0  0  0  0
   -1.9317   -0.4012    2.2839 H   0  0  0  0  0  0  0  0  0  0  0  0
   -0.3149    0.0889    1.7559 H   0  0  0  0  0  0  0  0  0  0  0  0
   -3.1628    0.0637   -2.2872 H   0  0  0  0  0  0  0  0  0  0  0  0
   -3.7861   -0.4108   -0.6829 H   0  0  0  0  0  0  0  0  0  0  0  0
    0.1249   -0.9491   -0.4743 H   0  0  0  0  0  0  0  0  0  0  0  0
   -2.8975   -2.1952   -2.8028 H   0  0  0  0  0  0  0  0  0  0  0  0
   -3.4149   -2.6557   -1.1675 H   0  0  0  0  0  0  0  0  0  0  0  0
   -0.6732   -2.5973   -2.2218 H   0  0  0  0  0  0  0  0  0  0  0  0
   -1.2081   -3.0991   -0.5925 H   0  0  0  0  0  0  0  0  0  0  0  0
  2  1  1  0  0  0  0 
  3  2  1  0  0  0  0 
  2  4  1  0  0  0  0 
  2  5  1  0  0  0  0 
  6  3  1  0  0  0  0 
  3  7  1  0  0  0  0 
  3 28  1  0  0  0  0 
  4  8  1  0  0  0  0 
  4  9  2  0  0  0  0 
  5 10  2  0  0  0  0 
 11  6  1  0  0  0  0 
  6 12  1  0  0  0  0 
  6 27  1  0  0  0  0 
  7 13  1  0  0  0  0 
  8 12  1  0  0  0  0 
  9 14  1  0  0  0  0 
 10 14  1  0  0  0  0 
 15 11  1  0  0  0  0 
 11 16  1  0  0  0  0 
 11 29  1  0  0  0  0 
 15 13  1  0  0  0  0 
 14 17  2  0  0  0  0 
 15 18  1  0  0  0  0 
 15 19  1  0  0  0  0 
 16 20  1  0  0  0  0 
 19 20  1  0  0  0  0 
 19 21  1  0  0  0  0 
 21 22  1  0  0  0  0 
 22 23  1  0  0  0  0 
 22 24  2  0  0  0  0 
 23 25  1  0  0  0  0 
 24 26  1  0  0  0  0 
 25 26  1  0  0  0  0 
  1 30  1  0  0  0  0 
  1 31  1  0  0  0  0 
  1 32  1  0  0  0  0 
  5 33  1  0  0  0  0 
  7 34  1  0  0  0  0 
  7 35  1  0  0  0  0 
  8 36  1  0  0  0  0 
  8 37  1  0  0  0  0 
  9 38  1  0  0  0  0 
 10 39  1  0  0  0  0 
 12 40  1  0  0  0  0 
 12 41  1  0  0  0  0 
 13 42  1  0  0  0  0 
 13 43  1  0  0  0  0 
 16 44  1  0  0  0  0 
 16 45  1  0  0  0  0 
 18 46  1  0  0  0  0 
 18 47  1  0  0  0  0 
 18 48  1  0  0  0  0 
 19 49  1  0  0  0  0 
 20 50  1  0  0  0  0 
 20 51  1  0  0  0  0 
 23 52  1  0  0  0  0 
 23 53  1  0  0  0  0 
 24 54  1  0  0  0  0 
 25 55  1  0  0  0  0 
 25 56  1  0  0  0  0 
 26 57  1  0  0  0  0 
 26 58  1  0  0  0  0 
M  END
> <cdk:Title>
quinbolone

> <Conformer>
1

> <SuperDrugID>
SD003262

$$$$
