fludiazepam
  CDK     0628171801

 33 35  0  0  0  0  0  0  0  0999 V2000
    1.7604   -1.8034   -1.1416 F   0  0  0  0  0  0  0  0  0  0  0  0
    2.2340   -0.8668   -0.3588 C   0  0  0  0  0  0  0  0  0  0  0  0
    1.4293    0.2232    0.0645 C   0  0  0  0  0  0  0  0  0  0  0  0
    3.5823   -0.9534    0.0412 C   0  0  0  0  0  0  0  0  0  0  0  0
    0.1074    0.3575   -0.3508 C   0  0  0  0  0  0  0  0  0  0  0  0
    2.0054    1.2088    0.9019 C   0  0  0  0  0  0  0  0  0  0  0  0
    4.1393    0.0325    0.8748 C   0  0  0  0  0  0  0  0  0  0  0  0
   -0.3044    1.4205   -1.1791 C   0  0  0  0  0  0  0  0  0  0  0  0
   -0.6996   -0.5679    0.0465 N   0  0  0  0  0  0  0  0  0  0  0  0
    3.3480    1.1089    1.3110 C   0  0  0  0  0  0  0  0  0  0  0  0
   -1.5782    2.0619   -1.0283 C   0  0  0  0  0  0  0  0  0  0  0  0
    0.5558    1.8303   -2.2367 C   0  0  0  0  0  0  0  0  0  0  0  0
   -2.0591   -0.6995   -0.2138 C   0  0  2  0  0  0  0  0  0  0  0  0
   -2.4809    1.7645   -0.0020 N   0  0  0  0  0  0  0  0  0  0  0  0
   -1.9542    3.0368   -1.9885 C   0  0  0  0  0  0  0  0  0  0  0  0
    0.1644    2.8145   -3.1592 C   0  0  0  0  0  0  0  0  0  0  0  0
   -2.7715    0.4577    0.3659 C   0  0  0  0  0  0  0  0  0  0  0  0
   -3.1460    2.8358    0.7202 C   0  0  0  0  0  0  0  0  0  0  0  0
   -1.0964    3.4123   -3.0341 C   0  0  0  0  0  0  0  0  0  0  0  0
    1.1900    3.2573   -4.4334 Cl  0  0  0  0  0  0  0  0  0  0  0  0
   -3.6423    0.2013    1.2348 O   0  0  0  0  0  0  0  0  0  0  0  0
    4.1643   -1.7318   -0.2772 H   0  0  0  0  0  0  0  0  0  0  0  0
    1.4512    2.0066    1.2242 H   0  0  0  0  0  0  0  0  0  0  0  0
    5.1175   -0.0336    1.1632 H   0  0  0  0  0  0  0  0  0  0  0  0
    3.7496    1.8178    1.9278 H   0  0  0  0  0  0  0  0  0  0  0  0
    1.4761    1.3981   -2.3571 H   0  0  0  0  0  0  0  0  0  0  0  0
   -2.4029   -1.6367    0.2308 H   0  0  0  0  0  0  0  0  0  0  0  0
   -2.2457   -0.7504   -1.2895 H   0  0  0  0  0  0  0  0  0  0  0  0
   -2.8731    3.4844   -1.9405 H   0  0  0  0  0  0  0  0  0  0  0  0
   -2.9852    2.7252    1.7954 H   0  0  0  0  0  0  0  0  0  0  0  0
   -4.2206    2.8072    0.5252 H   0  0  0  0  0  0  0  0  0  0  0  0
   -2.7805    3.8308    0.4540 H   0  0  0  0  0  0  0  0  0  0  0  0
   -1.3996    4.1213   -3.7049 H   0  0  0  0  0  0  0  0  0  0  0  0
  1  2  1  0  0  0  0 
  2  3  2  0  0  0  0 
  2  4  1  0  0  0  0 
  3  5  1  0  0  0  0 
  3  6  1  0  0  0  0 
  4  7  2  0  0  0  0 
  5  8  1  0  0  0  0 
  5  9  2  0  0  0  0 
  6 10  2  0  0  0  0 
  7 10  1  0  0  0  0 
  8 11  2  0  0  0  0 
  8 12  1  0  0  0  0 
  9 13  1  0  0  0  0 
 11 14  1  0  0  0  0 
 11 15  1  0  0  0  0 
 12 16  2  0  0  0  0 
 13 17  1  0  0  0  0 
 14 17  1  0  0  0  0 
 14 18  1  0  0  0  0 
 15 19  2  0  0  0  0 
 16 19  1  0  0  0  0 
 16 20  1  0  0  0  0 
 17 21  2  0  0  0  0 
  4 22  1  0  0  0  0 
  6 23  1  0  0  0  0 
  7 24  1  0  0  0  0 
 10 25  1  0  0  0  0 
 12 26  1  0  0  0  0 
 13 27  1  0  0  0  0 
 13 28  1  0  0  0  0 
 15 29  1  0  0  0  0 
 18 30  1  0  0  0  0 
 18 31  1  0  0  0  0 
 18 32  1  0  0  0  0 
 19 33  1  0  0  0  0 
M  END
> <cdk:Title>
fludiazepam

> <Conformer>
1

> <SuperDrugID>
SD001065

$$$$
