tetracaine
  CDK     0628171801

 43 43  0  0  0  0  0  0  0  0999 V2000
   -2.0773    0.5041   -0.7816 C   0  0  0  0  0  0  0  0  0  0  0  0
   -0.7748    0.7759   -0.4550 O   0  0  0  0  0  0  0  0  0  0  0  0
   -2.5625   -0.6115   -0.4686 O   0  0  0  0  0  0  0  0  0  0  0  0
   -2.8727    1.4800   -1.4430 C   0  0  0  0  0  0  0  0  0  0  0  0
    0.1119   -0.1105    0.2404 C   0  0  2  0  0  0  0  0  0  0  0  0
   -4.2819    1.3548   -1.4987 C   0  0  0  0  0  0  0  0  0  0  0  0
   -2.2863    2.6139   -2.0551 C   0  0  0  0  0  0  0  0  0  0  0  0
    1.4734    0.5692    0.5209 C   0  0  1  0  0  0  0  0  0  0  0  0
   -5.0782    2.3537   -2.0856 C   0  0  0  0  0  0  0  0  0  0  0  0
   -3.0827    3.6052   -2.6594 C   0  0  0  0  0  0  0  0  0  0  0  0
    2.5399   -0.3986    0.9450 N   0  0  2  0  0  0  0  0  0  0  0  0
   -4.4900    3.5112   -2.6417 C   0  0  0  0  0  0  0  0  0  0  0  0
    2.2953   -1.0307    2.2768 C   0  0  0  0  0  0  0  0  0  0  0  0
    3.9148    0.1756    0.8383 C   0  0  0  0  0  0  0  0  0  0  0  0
   -5.2016    4.5499   -3.1671 N   0  0  0  0  0  0  0  0  0  0  0  0
   -6.5647    4.8923   -2.8973 C   0  0  2  0  0  0  0  0  0  0  0  0
   -7.0784    5.8916   -3.9631 C   0  0  1  0  0  0  0  0  0  0  0  0
   -8.4632    6.5009   -3.6179 C   0  0  1  0  0  0  0  0  0  0  0  0
   -9.0587    7.3247   -4.7828 C   0  0  0  0  0  0  0  0  0  0  0  0
    0.2684   -1.0049   -0.3669 H   0  0  0  0  0  0  0  0  0  0  0  0
   -0.3570   -0.4015    1.1847 H   0  0  0  0  0  0  0  0  0  0  0  0
   -4.7540    0.5411   -1.0968 H   0  0  0  0  0  0  0  0  0  0  0  0
   -1.2716    2.7341   -2.0632 H   0  0  0  0  0  0  0  0  0  0  0  0
    1.7764    1.0646   -0.4066 H   0  0  0  0  0  0  0  0  0  0  0  0
    1.3418    1.3468    1.2785 H   0  0  0  0  0  0  0  0  0  0  0  0
   -6.0903    2.2206   -2.0996 H   0  0  0  0  0  0  0  0  0  0  0  0
   -2.6276    4.4086   -3.1016 H   0  0  0  0  0  0  0  0  0  0  0  0
    1.3631   -1.5972    2.2707 H   0  0  0  0  0  0  0  0  0  0  0  0
    3.0885   -1.7397    2.5256 H   0  0  0  0  0  0  0  0  0  0  0  0
    2.2421   -0.2744    3.0645 H   0  0  0  0  0  0  0  0  0  0  0  0
    4.1018    0.5480   -0.1710 H   0  0  0  0  0  0  0  0  0  0  0  0
    4.6700   -0.5867    1.0398 H   0  0  0  0  0  0  0  0  0  0  0  0
    4.0533    0.9989    1.5422 H   0  0  0  0  0  0  0  0  0  0  0  0
   -4.7064    5.1697   -3.7261 H   0  0  0  0  0  0  0  0  0  0  0  0
   -6.6186    5.3397   -1.9016 H   0  0  0  0  0  0  0  0  0  0  0  0
   -7.2115    4.0141   -2.9162 H   0  0  0  0  0  0  0  0  0  0  0  0
   -6.3557    6.7069   -4.0712 H   0  0  0  0  0  0  0  0  0  0  0  0
   -7.1428    5.3628   -4.9186 H   0  0  0  0  0  0  0  0  0  0  0  0
   -9.1647    5.7034   -3.3608 H   0  0  0  0  0  0  0  0  0  0  0  0
   -8.3557    7.1537   -2.7475 H   0  0  0  0  0  0  0  0  0  0  0  0
   -8.3625    8.1031   -5.0994 H   0  0  0  0  0  0  0  0  0  0  0  0
   -9.2741    6.6762   -5.6338 H   0  0  0  0  0  0  0  0  0  0  0  0
   -9.9889    7.8012   -4.4672 H   0  0  0  0  0  0  0  0  0  0  0  0
  1  2  1  0  0  0  0 
  1  3  2  0  0  0  0 
  1  4  1  0  0  0  0 
  2  5  1  0  0  0  0 
  4  6  2  0  0  0  0 
  4  7  1  0  0  0  0 
  5  8  1  0  0  0  0 
  6  9  1  0  0  0  0 
  7 10  2  0  0  0  0 
  8 11  1  0  0  0  0 
  9 12  2  0  0  0  0 
 10 12  1  0  0  0  0 
 11 13  1  0  0  0  0 
 11 14  1  0  0  0  0 
 12 15  1  0  0  0  0 
 15 16  1  0  0  0  0 
 16 17  1  0  0  0  0 
 17 18  1  0  0  0  0 
 18 19  1  0  0  0  0 
  5 20  1  0  0  0  0 
  5 21  1  0  0  0  0 
  6 22  1  0  0  0  0 
  7 23  1  0  0  0  0 
  8 24  1  0  0  0  0 
  8 25  1  0  0  0  0 
  9 26  1  0  0  0  0 
 10 27  1  0  0  0  0 
 13 28  1  0  0  0  0 
 13 29  1  0  0  0  0 
 13 30  1  0  0  0  0 
 14 31  1  0  0  0  0 
 14 32  1  0  0  0  0 
 14 33  1  0  0  0  0 
 15 34  1  0  0  0  0 
 16 35  1  0  0  0  0 
 16 36  1  0  0  0  0 
 17 37  1  0  0  0  0 
 17 38  1  0  0  0  0 
 18 39  1  0  0  0  0 
 18 40  1  0  0  0  0 
 19 41  1  0  0  0  0 
 19 42  1  0  0  0  0 
 19 43  1  0  0  0  0 
M  END
> <cdk:Title>
tetracaine

> <Conformer>
1

> <SuperDrugID>
SD002349

$$$$
