dexamfetamine
  CDK     0628171802

 23 23  0  0  0  0  0  0  0  0999 V2000
    1.0900    4.2744   -2.0265 C   0  0  0  0  0  0  0  0  0  0  0  0
    2.5329    3.9995   -1.5410 C   0  0  2  0  0  0  0  0  0  0  0  0
    3.1732    3.0776   -2.4915 N   0  0  2  0  0  0  0  0  0  0  0  0
    2.6077    3.3951   -0.1080 C   0  0  1  0  0  0  0  0  0  0  0  0
    1.9928    4.2496    0.9496 C   0  0  0  0  0  0  0  0  0  0  0  0
    0.8437    3.8193    1.6568 C   0  0  0  0  0  0  0  0  0  0  0  0
    0.2432    4.6441    2.6244 C   0  0  0  0  0  0  0  0  0  0  0  0
    0.7881    5.9074    2.9106 C   0  0  0  0  0  0  0  0  0  0  0  0
    1.9427    6.3409    2.2348 C   0  0  0  0  0  0  0  0  0  0  0  0
    2.5425    5.5175    1.2637 C   0  0  0  0  0  0  0  0  0  0  0  0
    0.5015    3.3558   -2.0158 H   0  0  0  0  0  0  0  0  0  0  0  0
    0.6022    5.0106   -1.3869 H   0  0  0  0  0  0  0  0  0  0  0  0
    1.1051    4.6670   -3.0440 H   0  0  0  0  0  0  0  0  0  0  0  0
    3.0936    4.9374   -1.5701 H   0  0  0  0  0  0  0  0  0  0  0  0
    2.6730    2.1879   -2.4238 H   0  0  0  0  0  0  0  0  0  0  0  0
    4.1242    2.9109   -2.1570 H   0  0  0  0  0  0  0  0  0  0  0  0
    2.1340    2.4075   -0.1288 H   0  0  0  0  0  0  0  0  0  0  0  0
    3.6592    3.2319    0.1442 H   0  0  0  0  0  0  0  0  0  0  0  0
    0.4283    2.9035    1.4666 H   0  0  0  0  0  0  0  0  0  0  0  0
   -0.5945    4.3259    3.1175 H   0  0  0  0  0  0  0  0  0  0  0  0
    0.3462    6.5102    3.6078 H   0  0  0  0  0  0  0  0  0  0  0  0
    2.3439    7.2567    2.4455 H   0  0  0  0  0  0  0  0  0  0  0  0
    3.3810    5.8537    0.7842 H   0  0  0  0  0  0  0  0  0  0  0  0
  1  2  1  0  0  0  0 
  2  3  1  0  0  0  0 
  2  4  1  0  0  0  0 
  4  5  1  0  0  0  0 
  5  6  2  0  0  0  0 
  6  7  1  0  0  0  0 
  7  8  2  0  0  0  0 
  8  9  1  0  0  0  0 
  9 10  2  0  0  0  0 
  5 10  1  0  0  0  0 
  1 11  1  0  0  0  0 
  1 12  1  0  0  0  0 
  1 13  1  0  0  0  0 
  2 14  1  0  0  0  0 
  3 15  1  0  0  0  0 
  3 16  1  0  0  0  0 
  4 17  1  0  0  0  0 
  4 18  1  0  0  0  0 
  6 19  1  0  0  0  0 
  7 20  1  0  0  0  0 
  8 21  1  0  0  0  0 
  9 22  1  0  0  0  0 
 10 23  1  0  0  0  0 
M  END
> <cdk:Title>
dexamfetamine

> <Conformer>
1

> <SuperDrugID>
SD000745

$$$$
