felypressin
  CDK     0628171802

137140  0  0  0  0  0  0  0  0999 V2000
   -5.9338   -8.5734   -0.8279 H   0  0  0  0  0  0  0  0  0  0  0  0
   -5.0743   -8.0304   -0.7286 N   0  0  2  0  0  0  0  0  0  0  0  0
   -6.2967   -7.9262    1.7762 N   0  0  0  0  0  0  0  0  0  0  0  0
   -8.0652   -6.6425    4.6625 N   0  0  0  0  0  0  0  0  0  0  0  0
  -11.2191   -6.5203    4.4563 N   0  0  0  0  0  0  0  0  0  0  0  0
  -12.5443   -4.3674    2.9388 N   0  0  0  0  0  0  0  0  0  0  0  0
  -10.2973   -2.5732    0.9816 N   0  0  0  0  0  0  0  0  0  0  0  0
  -10.5845   -5.3524   -0.5147 N   0  0  0  0  0  0  0  0  0  0  0  0
  -12.3779   -7.1582   -3.0983 N   0  0  0  0  0  0  0  0  0  0  0  0
  -14.0031   -5.3407   -4.8613 N   0  0  0  0  0  0  0  0  0  0  0  0
  -12.8751   -2.5883   -5.5420 N   0  0  0  0  0  0  0  0  0  0  0  0
   -6.0518   -6.7365    1.1362 C   0  0  0  0  0  0  0  0  0  0  0  0
   -6.4189   -4.1748   -1.0469 S   0  0  0  0  0  0  0  0  0  0  0  0
   -6.3457   -5.9851   -1.2715 C   0  0  1  0  0  0  0  0  0  0  0  0
   -5.4394   -6.6942   -0.2217 C   0  0  2  0  0  0  0  0  0  0  0  0
   -6.3401   -5.6328    1.6543 O   0  0  0  0  0  0  0  0  0  0  0  0
   -6.9370   -7.0297    4.0061 C   0  0  0  0  0  0  0  0  0  0  0  0
   -5.8310   -9.2976    3.7026 C   0  0  2  0  0  0  0  0  0  0  0  0
   -6.3595  -10.0903    4.8489 C   0  0  0  0  0  0  0  0  0  0  0  0
   -7.4583  -10.9657    4.6702 C   0  0  0  0  0  0  0  0  0  0  0  0
   -7.9156  -11.7742    5.7267 C   0  0  0  0  0  0  0  0  0  0  0  0
   -7.2797  -11.7207    6.9788 C   0  0  0  0  0  0  0  0  0  0  0  0
   -6.1959  -10.8481    7.1771 C   0  0  0  0  0  0  0  0  0  0  0  0
   -5.7447  -10.0339    6.1222 C   0  0  0  0  0  0  0  0  0  0  0  0
   -6.7883   -8.2136    3.1090 C   0  0  2  0  0  0  0  0  0  0  0  0
   -5.9476   -6.2820    4.1878 O   0  0  0  0  0  0  0  0  0  0  0  0
  -10.3530   -7.5744    4.5489 C   0  0  0  0  0  0  0  0  0  0  0  0
   -9.2017   -6.9083    6.7266 C   0  0  2  0  0  0  0  0  0  0  0  0
  -10.2896   -7.4716    7.5724 C   0  0  0  0  0  0  0  0  0  0  0  0
  -11.2718   -6.6230    8.1400 C   0  0  0  0  0  0  0  0  0  0  0  0
  -12.2877   -7.1443    8.9597 C   0  0  0  0  0  0  0  0  0  0  0  0
  -12.3374   -8.5235    9.2235 C   0  0  0  0  0  0  0  0  0  0  0  0
  -11.3674   -9.3794    8.6721 C   0  0  0  0  0  0  0  0  0  0  0  0
  -10.3502   -8.8566    7.8524 C   0  0  0  0  0  0  0  0  0  0  0  0
   -9.0590   -7.4753    5.2763 C   0  0  2  0  0  0  0  0  0  0  0  0
  -10.6690   -8.6996    4.0926 O   0  0  0  0  0  0  0  0  0  0  0  0
  -12.7894   -5.7031    2.8421 C   0  0  0  0  0  0  0  0  0  0  0  0
  -13.5071   -6.1833    5.2288 C   0  0  1  0  0  0  0  0  0  0  0  0
  -15.0351   -6.4059    5.0403 C   0  0  2  0  0  0  0  0  0  0  0  0
  -15.4475   -7.8214    5.1548 C   0  0  0  0  0  0  0  0  0  0  0  0
  -16.0795   -8.4595    4.1556 N   0  0  0  0  0  0  0  0  0  0  0  0
  -15.2352   -8.4592    6.2111 O   0  0  0  0  0  0  0  0  0  0  0  0
  -12.5958   -6.5835    4.0236 C   0  0  2  0  0  0  0  0  0  0  0  0
  -13.1808   -6.2085    1.7646 O   0  0  0  0  0  0  0  0  0  0  0  0
  -11.2521   -2.6976    1.9518 C   0  0  0  0  0  0  0  0  0  0  0  0
  -13.7916   -2.4591    2.1335 C   0  0  1  0  0  0  0  0  0  0  0  0
  -13.9916   -1.4273    1.0939 C   0  0  0  0  0  0  0  0  0  0  0  0
  -14.2704   -1.7670   -0.1771 N   0  0  0  0  0  0  0  0  0  0  0  0
  -13.9403   -0.2103    1.3828 O   0  0  0  0  0  0  0  0  0  0  0  0
  -12.5700   -3.3885    1.8861 C   0  0  2  0  0  0  0  0  0  0  0  0
  -10.9180   -2.1869    3.0468 O   0  0  0  0  0  0  0  0  0  0  0  0
  -10.8754   -4.0824   -0.9829 C   0  0  0  0  0  0  0  0  0  0  0  0
   -8.1065   -3.6036   -2.1607 S   0  0  0  0  0  0  0  0  0  0  0  0
   -8.9564   -2.3959   -1.0756 C   0  0  2  0  0  0  0  0  0  0  0  0
  -10.3471   -2.7885   -0.4423 C   0  0  2  0  0  0  0  0  0  0  0  0
  -11.5726   -3.9674   -2.0213 O   0  0  0  0  0  0  0  0  0  0  0  0
  -12.2832   -6.7065   -1.8156 C   0  0  0  0  0  0  0  0  0  0  0  0
  -10.9352   -6.5773   -1.1980 C   0  0  2  0  0  0  0  0  0  0  0  0
  -10.7275   -7.6876   -0.1460 C   0  0  2  0  0  0  0  0  0  0  0  0
   -9.6493   -7.1256    0.7777 C   0  0  2  0  0  0  0  0  0  0  0  0
   -9.7988   -5.6016    0.6593 C   0  0  1  0  0  0  0  0  0  0  0  0
  -13.3061   -6.4417   -1.1420 O   0  0  0  0  0  0  0  0  0  0  0  0
  -14.4465   -6.3339   -4.0406 C   0  0  0  0  0  0  0  0  0  0  0  0
  -15.7328  -10.8677   -3.4805 C   0  0  1  0  0  0  0  0  0  0  0  0
  -15.2250   -9.5329   -4.0991 C   0  0  2  0  0  0  0  0  0  0  0  0
  -14.2572   -8.7640   -3.1577 C   0  0  1  0  0  0  0  0  0  0  0  0
  -13.5728   -7.5143   -3.8126 C   0  0  2  0  0  0  0  0  0  0  0  0
  -16.9078  -13.0231   -3.8918 N   0  0  1  0  0  0  0  0  0  0  0  0
  -16.5340  -11.7325   -4.4833 C   0  0  1  0  0  0  0  0  0  0  0  0
  -15.5683   -6.2495   -3.4840 O   0  0  0  0  0  0  0  0  0  0  0  0
  -13.9299   -3.2703   -6.0222 C   0  0  0  0  0  0  0  0  0  0  0  0
  -14.7227   -4.1425   -5.1409 C   0  0  2  0  0  0  0  0  0  0  0  0
  -14.2233   -3.1471   -7.2331 O   0  0  0  0  0  0  0  0  0  0  0  0
   -4.5143   -8.4866   -0.0050 H   0  0  0  0  0  0  0  0  0  0  0  0
   -6.0997   -8.7154    1.2483 H   0  0  0  0  0  0  0  0  0  0  0  0
   -8.1214   -5.6976    4.8758 H   0  0  0  0  0  0  0  0  0  0  0  0
  -10.8993   -5.6583    4.7648 H   0  0  0  0  0  0  0  0  0  0  0  0
  -12.3062   -4.0362    3.8195 H   0  0  0  0  0  0  0  0  0  0  0  0
   -9.4614   -2.1972    1.3026 H   0  0  0  0  0  0  0  0  0  0  0  0
  -11.5375   -7.2885   -3.5649 H   0  0  0  0  0  0  0  0  0  0  0  0
  -13.1421   -5.4598   -5.2948 H   0  0  0  0  0  0  0  0  0  0  0  0
  -12.6412   -2.6526   -4.6023 H   0  0  0  0  0  0  0  0  0  0  0  0
  -12.3496   -2.0285   -6.1344 H   0  0  0  0  0  0  0  0  0  0  0  0
   -7.3548   -6.3949   -1.2273 H   0  0  0  0  0  0  0  0  0  0  0  0
   -5.9547   -6.1697   -2.2749 H   0  0  0  0  0  0  0  0  0  0  0  0
   -4.4969   -6.1452   -0.1493 H   0  0  0  0  0  0  0  0  0  0  0  0
   -5.5790  -10.0245    2.9242 H   0  0  0  0  0  0  0  0  0  0  0  0
   -4.8860   -8.8155    3.9679 H   0  0  0  0  0  0  0  0  0  0  0  0
   -7.9295  -11.0275    3.7662 H   0  0  0  0  0  0  0  0  0  0  0  0
   -8.7069  -12.4047    5.5843 H   0  0  0  0  0  0  0  0  0  0  0  0
   -7.6051  -12.3160    7.7449 H   0  0  0  0  0  0  0  0  0  0  0  0
   -5.7343  -10.8092    8.0885 H   0  0  0  0  0  0  0  0  0  0  0  0
   -4.9570   -9.4055    6.2901 H   0  0  0  0  0  0  0  0  0  0  0  0
   -7.7728   -8.6610    2.9592 H   0  0  0  0  0  0  0  0  0  0  0  0
   -8.2624   -7.0920    7.2573 H   0  0  0  0  0  0  0  0  0  0  0  0
   -9.3177   -5.8193    6.6661 H   0  0  0  0  0  0  0  0  0  0  0  0
  -11.2580   -5.6163    7.9613 H   0  0  0  0  0  0  0  0  0  0  0  0
  -12.9884   -6.5183    9.3609 H   0  0  0  0  0  0  0  0  0  0  0  0
  -13.0770   -8.9015    9.8185 H   0  0  0  0  0  0  0  0  0  0  0  0
  -11.4001  -10.3825    8.8698 H   0  0  0  0  0  0  0  0  0  0  0  0
   -9.6514   -9.4939    7.4639 H   0  0  0  0  0  0  0  0  0  0  0  0
   -8.6548   -8.4844    5.3815 H   0  0  0  0  0  0  0  0  0  0  0  0
  -13.3467   -5.1269    5.4643 H   0  0  0  0  0  0  0  0  0  0  0  0
  -13.1908   -6.7462    6.1104 H   0  0  0  0  0  0  0  0  0  0  0  0
  -15.3482   -5.9918    4.0797 H   0  0  0  0  0  0  0  0  0  0  0  0
  -15.5644   -5.8521    5.8196 H   0  0  0  0  0  0  0  0  0  0  0  0
  -16.3429   -9.3874    4.2666 H   0  0  0  0  0  0  0  0  0  0  0  0
  -16.2734   -7.9989    3.3245 H   0  0  0  0  0  0  0  0  0  0  0  0
  -12.8578   -7.6095    3.7400 H   0  0  0  0  0  0  0  0  0  0  0  0
  -13.7018   -1.9844    3.1164 H   0  0  0  0  0  0  0  0  0  0  0  0
  -14.6910   -3.0804    2.1581 H   0  0  0  0  0  0  0  0  0  0  0  0
  -14.3236   -2.7024   -0.4300 H   0  0  0  0  0  0  0  0  0  0  0  0
  -14.4295   -1.0748   -0.8387 H   0  0  0  0  0  0  0  0  0  0  0  0
  -12.6992   -3.8648    0.9154 H   0  0  0  0  0  0  0  0  0  0  0  0
   -9.1027   -1.5082   -1.6966 H   0  0  0  0  0  0  0  0  0  0  0  0
   -8.2460   -2.0948   -0.3016 H   0  0  0  0  0  0  0  0  0  0  0  0
  -11.0549   -2.0142   -0.7642 H   0  0  0  0  0  0  0  0  0  0  0  0
  -10.1780   -6.7198   -1.9762 H   0  0  0  0  0  0  0  0  0  0  0  0
  -10.4068   -8.6264   -0.6066 H   0  0  0  0  0  0  0  0  0  0  0  0
  -11.6360   -7.8721    0.4361 H   0  0  0  0  0  0  0  0  0  0  0  0
   -8.6711   -7.4536    0.4323 H   0  0  0  0  0  0  0  0  0  0  0  0
   -9.7993   -7.4615    1.8016 H   0  0  0  0  0  0  0  0  0  0  0  0
   -8.8158   -5.1324    0.5948 H   0  0  0  0  0  0  0  0  0  0  0  0
  -10.3023   -5.2282    1.5467 H   0  0  0  0  0  0  0  0  0  0  0  0
  -14.8754  -11.4564   -3.1423 H   0  0  0  0  0  0  0  0  0  0  0  0
  -16.3625  -10.6504   -2.6123 H   0  0  0  0  0  0  0  0  0  0  0  0
  -16.0810   -8.8969   -4.3401 H   0  0  0  0  0  0  0  0  0  0  0  0
  -14.6986   -9.7555   -5.0305 H   0  0  0  0  0  0  0  0  0  0  0  0
  -14.8004   -8.4676   -2.2561 H   0  0  0  0  0  0  0  0  0  0  0  0
  -13.4738   -9.4645   -2.8515 H   0  0  0  0  0  0  0  0  0  0  0  0
  -13.2271   -7.8238   -4.8037 H   0  0  0  0  0  0  0  0  0  0  0  0
  -17.2906  -13.5935   -4.6498 H   0  0  0  0  0  0  0  0  0  0  0  0
  -16.0404  -13.4783   -3.5992 H   0  0  0  0  0  0  0  0  0  0  0  0
  -17.4439  -11.2113   -4.7856 H   0  0  0  0  0  0  0  0  0  0  0  0
  -15.9320  -11.9308   -5.3728 H   0  0  0  0  0  0  0  0  0  0  0  0
  -14.9390   -3.6151   -4.2090 H   0  0  0  0  0  0  0  0  0  0  0  0
  -15.6712   -4.3977   -5.6198 H   0  0  0  0  0  0  0  0  0  0  0  0
  1  2  1  0  0  0  0 
 12  3  1  0  0  0  0 
 17  4  1  0  0  0  0 
 27  5  1  0  0  0  0 
 37  6  1  0  0  0  0 
 45  7  1  0  0  0  0 
 52  8  1  0  0  0  0 
 57  9  1  0  0  0  0 
 63 10  1  0  0  0  0 
 71 11  1  0  0  0  0 
 13 53  1  0  0  0  0 
 15  2  1  0  0  0  0 
 15 14  1  0  0  0  0 
 14 13  1  0  0  0  0 
 15 12  1  0  0  0  0 
 12 16  2  0  0  0  0 
 25  3  1  0  0  0  0 
 25 18  1  0  0  0  0 
 18 19  1  0  0  0  0 
 19 20  2  0  0  0  0 
 20 21  1  0  0  0  0 
 21 22  2  0  0  0  0 
 22 23  1  0  0  0  0 
 23 24  2  0  0  0  0 
 19 24  1  0  0  0  0 
 25 17  1  0  0  0  0 
 17 26  2  0  0  0  0 
 35  4  1  0  0  0  0 
 35 28  1  0  0  0  0 
 28 29  1  0  0  0  0 
 29 30  2  0  0  0  0 
 30 31  1  0  0  0  0 
 31 32  2  0  0  0  0 
 32 33  1  0  0  0  0 
 33 34  2  0  0  0  0 
 29 34  1  0  0  0  0 
 35 27  1  0  0  0  0 
 27 36  2  0  0  0  0 
 43  5  1  0  0  0  0 
 43 38  1  0  0  0  0 
 38 39  1  0  0  0  0 
 39 40  1  0  0  0  0 
 40 41  1  0  0  0  0 
 40 42  2  0  0  0  0 
 43 37  1  0  0  0  0 
 37 44  2  0  0  0  0 
 50  6  1  0  0  0  0 
 50 46  1  0  0  0  0 
 46 47  1  0  0  0  0 
 47 48  1  0  0  0  0 
 47 49  2  0  0  0  0 
 50 45  1  0  0  0  0 
 45 51  2  0  0  0  0 
 55  7  1  0  0  0  0 
 55 54  1  0  0  0  0 
 54 53  1  0  0  0  0 
 55 52  1  0  0  0  0 
 52 56  2  0  0  0  0 
 62 57  2  0  0  0  0 
 58 57  1  0  0  0  0 
 58 59  1  0  0  0  0 
 59 60  1  0  0  0  0 
 60 61  1  0  0  0  0 
 61  8  1  0  0  0  0 
 58  8  1  0  0  0  0 
 68 69  1  0  0  0  0 
 69 64  1  0  0  0  0 
 64 65  1  0  0  0  0 
 65 66  1  0  0  0  0 
 66 67  1  0  0  0  0 
 67  9  1  0  0  0  0 
 67 63  1  0  0  0  0 
 63 70  2  0  0  0  0 
 10 72  1  0  0  0  0 
 72 71  1  0  0  0  0 
 71 73  2  0  0  0  0 
  2 74  1  0  0  0  0 
  3 75  1  0  0  0  0 
  4 76  1  0  0  0  0 
  5 77  1  0  0  0  0 
  6 78  1  0  0  0  0 
  7 79  1  0  0  0  0 
  9 80  1  0  0  0  0 
 10 81  1  0  0  0  0 
 11 82  1  0  0  0  0 
 11 83  1  0  0  0  0 
 14 84  1  0  0  0  0 
 14 85  1  0  0  0  0 
 15 86  1  0  0  0  0 
 18 87  1  0  0  0  0 
 18 88  1  0  0  0  0 
 20 89  1  0  0  0  0 
 21 90  1  0  0  0  0 
 22 91  1  0  0  0  0 
 23 92  1  0  0  0  0 
 24 93  1  0  0  0  0 
 25 94  1  0  0  0  0 
 28 95  1  0  0  0  0 
 28 96  1  0  0  0  0 
 30 97  1  0  0  0  0 
 31 98  1  0  0  0  0 
 32 99  1  0  0  0  0 
 33100  1  0  0  0  0 
 34101  1  0  0  0  0 
 35102  1  0  0  0  0 
 38103  1  0  0  0  0 
 38104  1  0  0  0  0 
 39105  1  0  0  0  0 
 39106  1  0  0  0  0 
 41107  1  0  0  0  0 
 41108  1  0  0  0  0 
 43109  1  0  0  0  0 
 46110  1  0  0  0  0 
 46111  1  0  0  0  0 
 48112  1  0  0  0  0 
 48113  1  0  0  0  0 
 50114  1  0  0  0  0 
 54115  1  0  0  0  0 
 54116  1  0  0  0  0 
 55117  1  0  0  0  0 
 58118  1  0  0  0  0 
 59119  1  0  0  0  0 
 59120  1  0  0  0  0 
 60121  1  0  0  0  0 
 60122  1  0  0  0  0 
 61123  1  0  0  0  0 
 61124  1  0  0  0  0 
 64125  1  0  0  0  0 
 64126  1  0  0  0  0 
 65127  1  0  0  0  0 
 65128  1  0  0  0  0 
 66129  1  0  0  0  0 
 66130  1  0  0  0  0 
 67131  1  0  0  0  0 
 68132  1  0  0  0  0 
 68133  1  0  0  0  0 
 69134  1  0  0  0  0 
 69135  1  0  0  0  0 
 72136  1  0  0  0  0 
 72137  1  0  0  0  0 
M  END
> <cdk:Title>
felypressin

> <Conformer>
1

> <SuperDrugID>
SD003844

$$$$
