propipocaine
  CDK     0628171801

 45 46  0  0  0  0  0  0  0  0999 V2000
   -0.2969    2.8640    3.3430 C   0  0  0  0  0  0  0  0  0  0  0  0
   -1.3243    2.7324    2.2723 C   0  0  2  0  0  0  0  0  0  0  0  0
    0.4650    3.8563    3.2423 O   0  0  0  0  0  0  0  0  0  0  0  0
   -0.1555    1.9894    4.4718 C   0  0  0  0  0  0  0  0  0  0  0  0
   -1.1555    1.4782    1.3713 C   0  0  2  0  0  0  0  0  0  0  0  0
   -1.1332    1.0186    4.8077 C   0  0  0  0  0  0  0  0  0  0  0  0
    0.9756    2.0920    5.3257 C   0  0  0  0  0  0  0  0  0  0  0  0
    0.2213    1.2928    0.7949 N   0  0  2  0  0  0  0  0  0  0  0  0
   -0.9993    0.2043    5.9458 C   0  0  0  0  0  0  0  0  0  0  0  0
    1.0933    1.3055    6.4878 C   0  0  0  0  0  0  0  0  0  0  0  0
    0.5755    2.3042   -0.2567 C   0  0  2  0  0  0  0  0  0  0  0  0
    0.4383   -0.1185    0.3353 C   0  0  1  0  0  0  0  0  0  0  0  0
    0.0953    0.3706    6.8156 C   0  0  0  0  0  0  0  0  0  0  0  0
    2.0057    2.1043   -0.8212 C   0  0  2  0  0  0  0  0  0  0  0  0
    1.8676   -0.3603   -0.2080 C   0  0  1  0  0  0  0  0  0  0  0  0
    0.2006   -0.3880    7.9527 O   0  0  0  0  0  0  0  0  0  0  0  0
    2.2137    0.6551   -1.3222 C   0  0  1  0  0  0  0  0  0  0  0  0
   -0.5870    0.1178    9.0535 C   0  0  1  0  0  0  0  0  0  0  0  0
   -0.5120   -0.8692   10.2440 C   0  0  1  0  0  0  0  0  0  0  0  0
   -1.3965   -0.4419   11.4394 C   0  0  0  0  0  0  0  0  0  0  0  0
   -1.3147    3.6141    1.6246 H   0  0  0  0  0  0  0  0  0  0  0  0
   -2.3134    2.7193    2.7351 H   0  0  0  0  0  0  0  0  0  0  0  0
   -1.8933    1.5305    0.5642 H   0  0  0  0  0  0  0  0  0  0  0  0
   -1.4267    0.6064    1.9711 H   0  0  0  0  0  0  0  0  0  0  0  0
   -1.9722    0.8929    4.2408 H   0  0  0  0  0  0  0  0  0  0  0  0
    1.7303    2.7497    5.1129 H   0  0  0  0  0  0  0  0  0  0  0  0
   -1.7083   -0.5018    6.1527 H   0  0  0  0  0  0  0  0  0  0  0  0
    1.9078    1.4160    7.0959 H   0  0  0  0  0  0  0  0  0  0  0  0
    0.5328    3.3105    0.1653 H   0  0  0  0  0  0  0  0  0  0  0  0
   -0.1402    2.2549   -1.0833 H   0  0  0  0  0  0  0  0  0  0  0  0
    0.2889   -0.8054    1.1740 H   0  0  0  0  0  0  0  0  0  0  0  0
   -0.2856   -0.3739   -0.4451 H   0  0  0  0  0  0  0  0  0  0  0  0
    2.7397    2.3302   -0.0418 H   0  0  0  0  0  0  0  0  0  0  0  0
    2.1709    2.7980   -1.6494 H   0  0  0  0  0  0  0  0  0  0  0  0
    2.5876   -0.2676    0.6099 H   0  0  0  0  0  0  0  0  0  0  0  0
    1.9360   -1.3749   -0.6076 H   0  0  0  0  0  0  0  0  0  0  0  0
    1.5801    0.4726   -2.1960 H   0  0  0  0  0  0  0  0  0  0  0  0
    3.2533    0.5200   -1.6298 H   0  0  0  0  0  0  0  0  0  0  0  0
   -0.2035    1.0927    9.3728 H   0  0  0  0  0  0  0  0  0  0  0  0
   -1.6374    0.2271    8.7609 H   0  0  0  0  0  0  0  0  0  0  0  0
   -0.8348   -1.8587    9.9079 H   0  0  0  0  0  0  0  0  0  0  0  0
    0.5250   -0.9466   10.5822 H   0  0  0  0  0  0  0  0  0  0  0  0
   -1.3239   -1.1799   12.2410 H   0  0  0  0  0  0  0  0  0  0  0  0
   -2.4421   -0.3676   11.1332 H   0  0  0  0  0  0  0  0  0  0  0  0
   -1.0712    0.5254   11.8274 H   0  0  0  0  0  0  0  0  0  0  0  0
  1  2  1  0  0  0  0 
  1  3  2  0  0  0  0 
  1  4  1  0  0  0  0 
  2  5  1  0  0  0  0 
  4  6  2  0  0  0  0 
  4  7  1  0  0  0  0 
  5  8  1  0  0  0  0 
  6  9  1  0  0  0  0 
  7 10  2  0  0  0  0 
  8 11  1  0  0  0  0 
  8 12  1  0  0  0  0 
  9 13  2  0  0  0  0 
 10 13  1  0  0  0  0 
 11 14  1  0  0  0  0 
 12 15  1  0  0  0  0 
 13 16  1  0  0  0  0 
 14 17  1  0  0  0  0 
 15 17  1  0  0  0  0 
 16 18  1  0  0  0  0 
 18 19  1  0  0  0  0 
 19 20  1  0  0  0  0 
 21  2  1  0  0  0  0 
 22  2  1  0  0  0  0 
 23  5  1  0  0  0  0 
 24  5  1  0  0  0  0 
 25  6  1  0  0  0  0 
 26  7  1  0  0  0  0 
 27  9  1  0  0  0  0 
 28 10  1  0  0  0  0 
 29 11  1  0  0  0  0 
 30 11  1  0  0  0  0 
 31 12  1  0  0  0  0 
 32 12  1  0  0  0  0 
 33 14  1  0  0  0  0 
 34 14  1  0  0  0  0 
 35 15  1  0  0  0  0 
 36 15  1  0  0  0  0 
 37 17  1  0  0  0  0 
 38 17  1  0  0  0  0 
 39 18  1  0  0  0  0 
 40 18  1  0  0  0  0 
 41 19  1  0  0  0  0 
 42 19  1  0  0  0  0 
 43 20  1  0  0  0  0 
 44 20  1  0  0  0  0 
 45 20  1  0  0  0  0 
M  END
> <cdk:Title>
propipocaine

> <Conformer>
1

> <SuperDrugID>
SD003261

$$$$
