brexpiprazole
  CDK     0628171802

 58 62  0  0  0  0  0  0  0  0999 V2000
    2.0710    0.9271   -0.7865 C   0  0  2  0  0  0  0  0  0  0  0  0
    2.0518    0.3705    0.6566 C   0  0  2  0  0  0  0  0  0  0  0  0
    1.3138   -0.8659    0.7019 N   0  0  0  0  0  0  0  0  0  0  0  0
    1.6778   -1.9040   -0.2331 C   0  0  1  0  0  0  0  0  0  0  0  0
    1.7982   -1.3691   -1.6872 C   0  0  2  0  0  0  0  0  0  0  0  0
    2.5800   -0.0950   -1.7558 N   0  0  1  0  0  0  0  0  0  0  0  0
    0.3375   -1.0480    1.6514 C   0  0  0  0  0  0  0  0  0  0  0  0
    2.7624    0.4277   -3.1533 C   0  0  1  0  0  0  0  0  0  0  0  0
   -1.0491   -1.0394    1.3470 C   0  0  0  0  0  0  0  0  0  0  0  0
   -1.9768   -1.1978    2.3957 C   0  0  0  0  0  0  0  0  0  0  0  0
   -1.5962   -1.3641    3.7335 C   0  0  0  0  0  0  0  0  0  0  0  0
   -0.2226   -1.3679    4.0322 C   0  0  0  0  0  0  0  0  0  0  0  0
    0.7310   -1.2122    3.0046 C   0  0  0  0  0  0  0  0  0  0  0  0
   -3.5884   -1.1218    1.7123 S   0  0  0  0  0  0  0  0  0  0  0  0
   -3.0505   -0.8758    0.0604 C   0  0  0  0  0  0  0  0  0  0  0  0
   -1.6506   -0.8640    0.0796 C   0  0  0  0  0  0  0  0  0  0  0  0
    4.1444    1.1027   -3.3817 C   0  0  1  0  0  0  0  0  0  0  0  0
    5.3228    0.0923   -3.3326 C   0  0  2  0  0  0  0  0  0  0  0  0
    6.7079    0.7260   -3.6126 C   0  0  2  0  0  0  0  0  0  0  0  0
    7.6904   -0.3238   -3.5178 O   0  0  0  0  0  0  0  0  0  0  0  0
    8.9922    0.0926   -3.5586 C   0  0  0  0  0  0  0  0  0  0  0  0
    9.6740    0.3611   -2.3541 C   0  0  0  0  0  0  0  0  0  0  0  0
    9.6794    0.1859   -4.7855 C   0  0  0  0  0  0  0  0  0  0  0  0
   11.0467    0.5174   -4.8110 C   0  0  0  0  0  0  0  0  0  0  0  0
   11.7426    0.7597   -3.6056 C   0  0  0  0  0  0  0  0  0  0  0  0
   11.0430    0.6903   -2.3681 C   0  0  0  0  0  0  0  0  0  0  0  0
   11.7043    0.9255   -1.2016 N   0  0  0  0  0  0  0  0  0  0  0  0
   13.1206    1.0629   -3.5802 C   0  0  0  0  0  0  0  0  0  0  0  0
   13.7726    1.2918   -2.3545 C   0  0  0  0  0  0  0  0  0  0  0  0
   13.0305    1.2171   -1.1610 C   0  0  0  0  0  0  0  0  0  0  0  0
   13.5827    1.4125   -0.0552 O   0  0  0  0  0  0  0  0  0  0  0  0
    2.7059    1.8152   -0.7997 H   0  0  0  0  0  0  0  0  0  0  0  0
    1.0553    1.2290   -1.0609 H   0  0  0  0  0  0  0  0  0  0  0  0
    1.6246    1.1309    1.3182 H   0  0  0  0  0  0  0  0  0  0  0  0
    3.0772    0.1856    0.9877 H   0  0  0  0  0  0  0  0  0  0  0  0
    2.6529   -2.2992    0.0661 H   0  0  0  0  0  0  0  0  0  0  0  0
    0.9697   -2.7371   -0.2198 H   0  0  0  0  0  0  0  0  0  0  0  0
    0.8025   -1.2182   -2.1113 H   0  0  0  0  0  0  0  0  0  0  0  0
    2.3017   -2.1361   -2.2848 H   0  0  0  0  0  0  0  0  0  0  0  0
    2.6756   -0.3778   -3.8886 H   0  0  0  0  0  0  0  0  0  0  0  0
    1.9730    1.1459   -3.3930 H   0  0  0  0  0  0  0  0  0  0  0  0
   -2.2965   -1.4750    4.4700 H   0  0  0  0  0  0  0  0  0  0  0  0
    0.0843   -1.4823    5.0012 H   0  0  0  0  0  0  0  0  0  0  0  0
    1.7241   -1.2114    3.2495 H   0  0  0  0  0  0  0  0  0  0  0  0
   -3.6520   -0.7573   -0.7551 H   0  0  0  0  0  0  0  0  0  0  0  0
   -1.1160   -0.7270   -0.7766 H   0  0  0  0  0  0  0  0  0  0  0  0
    4.1325    1.5784   -4.3659 H   0  0  0  0  0  0  0  0  0  0  0  0
    4.3004    1.8854   -2.6360 H   0  0  0  0  0  0  0  0  0  0  0  0
    5.1527   -0.6935   -4.0742 H   0  0  0  0  0  0  0  0  0  0  0  0
    5.3501   -0.3743   -2.3443 H   0  0  0  0  0  0  0  0  0  0  0  0
    6.8989    1.5150   -2.8784 H   0  0  0  0  0  0  0  0  0  0  0  0
    6.7220    1.1595   -4.6173 H   0  0  0  0  0  0  0  0  0  0  0  0
    9.1696    0.3003   -1.4660 H   0  0  0  0  0  0  0  0  0  0  0  0
    9.1876   -0.0004   -5.6631 H   0  0  0  0  0  0  0  0  0  0  0  0
   11.5305    0.5751   -5.7112 H   0  0  0  0  0  0  0  0  0  0  0  0
   11.2115    0.8814   -0.3667 H   0  0  0  0  0  0  0  0  0  0  0  0
   13.6608    1.1120   -4.4488 H   0  0  0  0  0  0  0  0  0  0  0  0
   14.7721    1.5087   -2.3361 H   0  0  0  0  0  0  0  0  0  0  0  0
  1  2  1  0  0  0  0 
  1  6  1  0  0  0  0 
  2  3  1  0  0  0  0 
  3  4  1  0  0  0  0 
  4  5  1  0  0  0  0 
  5  6  1  0  0  0  0 
  3  7  1  0  0  0  0 
  6  8  1  0  0  0  0 
  9 10  1  0  0  0  0 
 10 11  2  0  0  0  0 
 11 12  1  0  0  0  0 
 12 13  2  0  0  0  0 
  7  9  2  0  0  0  0 
  7 13  1  0  0  0  0 
 14 15  1  0  0  0  0 
 15 16  2  0  0  0  0 
  9 16  1  0  0  0  0 
 10 14  1  0  0  0  0 
  8 17  1  0  0  0  0 
 17 18  1  0  0  0  0 
 18 19  1  0  0  0  0 
 19 20  1  0  0  0  0 
 20 21  1  0  0  0  0 
 23 24  1  0  0  0  0 
 24 25  2  0  0  0  0 
 25 26  1  0  0  0  0 
 22 26  2  0  0  0  0 
 22 21  1  0  0  0  0 
 21 23  2  0  0  0  0 
 28 29  2  0  0  0  0 
 29 30  1  0  0  0  0 
 27 30  1  0  0  0  0 
 25 28  1  0  0  0  0 
 27 26  1  0  0  0  0 
 30 31  2  0  0  0  0 
  1 32  1  0  0  0  0 
  1 33  1  0  0  0  0 
  2 34  1  0  0  0  0 
  2 35  1  0  0  0  0 
  4 36  1  0  0  0  0 
  4 37  1  0  0  0  0 
  5 38  1  0  0  0  0 
  5 39  1  0  0  0  0 
  8 40  1  0  0  0  0 
  8 41  1  0  0  0  0 
 11 42  1  0  0  0  0 
 12 43  1  0  0  0  0 
 13 44  1  0  0  0  0 
 15 45  1  0  0  0  0 
 16 46  1  0  0  0  0 
 17 47  1  0  0  0  0 
 17 48  1  0  0  0  0 
 18 49  1  0  0  0  0 
 18 50  1  0  0  0  0 
 19 51  1  0  0  0  0 
 19 52  1  0  0  0  0 
 22 53  1  0  0  0  0 
 23 54  1  0  0  0  0 
 24 55  1  0  0  0  0 
 27 56  1  0  0  0  0 
 28 57  1  0  0  0  0 
 29 58  1  0  0  0  0 
M  END
> <cdk:Title>
brexpiprazole

> <Conformer>
1

> <SuperDrugID>
SD003876

$$$$
