oxazolam
  CDK     0628171801

 40 43  0  0  0  0  0  0  0  0999 V2000
   -4.1726   -0.0159   -0.7587 C   0  0  0  0  0  0  0  0  0  0  0  0
   -3.0568   -1.0671   -0.5785 C   0  0  1  0  0  0  0  0  0  0  0  0
   -1.7652   -0.4647   -0.7067 O   0  0  0  0  0  0  0  0  0  0  0  0
   -3.0262   -1.7197    0.8112 C   0  0  1  0  0  0  0  0  0  0  0  0
   -0.8005   -1.2818   -0.0015 C   0  0  1  0  0  0  0  0  0  0  0  0
   -1.6255   -2.1607    0.8703 N   0  0  1  0  0  0  0  0  0  0  0  0
   -0.0935   -2.2502   -0.9107 C   0  0  0  0  0  0  0  0  0  0  0  0
    0.0876   -0.2669    0.6865 C   0  0  0  0  0  0  0  0  0  0  0  0
   -1.0895   -2.6471    2.1625 C   0  0  1  0  0  0  0  0  0  0  0  0
    0.6997   -3.3211   -0.3930 C   0  0  0  0  0  0  0  0  0  0  0  0
   -0.1826   -2.1002   -2.3202 C   0  0  0  0  0  0  0  0  0  0  0  0
    1.4803   -0.1477    0.4306 C   0  0  0  0  0  0  0  0  0  0  0  0
   -0.4788    0.6539    1.6083 C   0  0  0  0  0  0  0  0  0  0  0  0
    0.2061   -3.3500    2.0490 C   0  0  0  0  0  0  0  0  0  0  0  0
    0.9247   -3.6176    0.9250 N   0  0  0  0  0  0  0  0  0  0  0  0
    1.3708   -4.1834   -1.2908 C   0  0  0  0  0  0  0  0  0  0  0  0
    0.4824   -2.9738   -3.1984 C   0  0  0  0  0  0  0  0  0  0  0  0
    2.2658    0.8292    1.0688 C   0  0  0  0  0  0  0  0  0  0  0  0
    0.3006    1.6373    2.2443 C   0  0  0  0  0  0  0  0  0  0  0  0
    0.7039   -3.7841    3.1118 O   0  0  0  0  0  0  0  0  0  0  0  0
    1.2582   -4.0195   -2.6785 C   0  0  0  0  0  0  0  0  0  0  0  0
    0.3623   -2.7590   -4.8737 Cl  0  0  0  0  0  0  0  0  0  0  0  0
    1.6754    1.7234    1.9751 C   0  0  0  0  0  0  0  0  0  0  0  0
   -4.1570    0.3628   -1.7826 H   0  0  0  0  0  0  0  0  0  0  0  0
   -5.1498   -0.4649   -0.5674 H   0  0  0  0  0  0  0  0  0  0  0  0
   -4.0263    0.8218   -0.0727 H   0  0  0  0  0  0  0  0  0  0  0  0
   -3.1671   -1.8405   -1.3481 H   0  0  0  0  0  0  0  0  0  0  0  0
   -3.2531   -1.0036    1.6055 H   0  0  0  0  0  0  0  0  0  0  0  0
   -3.7124   -2.5683    0.8660 H   0  0  0  0  0  0  0  0  0  0  0  0
   -0.9754   -1.8146    2.8598 H   0  0  0  0  0  0  0  0  0  0  0  0
   -1.8071   -3.3480    2.5964 H   0  0  0  0  0  0  0  0  0  0  0  0
   -0.7317   -1.3417   -2.7315 H   0  0  0  0  0  0  0  0  0  0  0  0
    1.9484   -0.7652   -0.2320 H   0  0  0  0  0  0  0  0  0  0  0  0
   -1.4760    0.6203    1.8269 H   0  0  0  0  0  0  0  0  0  0  0  0
    1.7246   -4.1436    1.0870 H   0  0  0  0  0  0  0  0  0  0  0  0
    1.9475   -4.9519   -0.9374 H   0  0  0  0  0  0  0  0  0  0  0  0
    3.2660    0.8937    0.8663 H   0  0  0  0  0  0  0  0  0  0  0  0
   -0.1331    2.2915    2.8998 H   0  0  0  0  0  0  0  0  0  0  0  0
    1.7441   -4.6664   -3.3045 H   0  0  0  0  0  0  0  0  0  0  0  0
    2.2437    2.4387    2.4336 H   0  0  0  0  0  0  0  0  0  0  0  0
  1  2  1  0  0  0  0 
  2  3  1  0  0  0  0 
  2  4  1  0  0  0  0 
  5  3  1  0  0  0  0 
  4  6  1  0  0  0  0 
  5  6  1  0  0  0  0 
  5  7  1  0  0  0  0 
  5  8  1  0  0  0  0 
  6  9  1  0  0  0  0 
  7 10  2  0  0  0  0 
  7 11  1  0  0  0  0 
  8 12  2  0  0  0  0 
  8 13  1  0  0  0  0 
  9 14  1  0  0  0  0 
 10 15  1  0  0  0  0 
 10 16  1  0  0  0  0 
 11 17  2  0  0  0  0 
 12 18  1  0  0  0  0 
 13 19  2  0  0  0  0 
 14 15  1  0  0  0  0 
 14 20  2  0  0  0  0 
 16 21  2  0  0  0  0 
 17 21  1  0  0  0  0 
 17 22  1  0  0  0  0 
 18 23  2  0  0  0  0 
 19 23  1  0  0  0  0 
  1 24  1  0  0  0  0 
  1 25  1  0  0  0  0 
  1 26  1  0  0  0  0 
  2 27  1  0  0  0  0 
  4 28  1  0  0  0  0 
  4 29  1  0  0  0  0 
  9 30  1  0  0  0  0 
  9 31  1  0  0  0  0 
 11 32  1  0  0  0  0 
 12 33  1  0  0  0  0 
 13 34  1  0  0  0  0 
 15 35  1  0  0  0  0 
 16 36  1  0  0  0  0 
 18 37  1  0  0  0  0 
 19 38  1  0  0  0  0 
 21 39  1  0  0  0  0 
 23 40  1  0  0  0  0 
M  END
> <cdk:Title>
oxazolam

> <Conformer>
1

> <SuperDrugID>
SD001804

$$$$
