terconazole
  CDK     0628171801

 67 71  0  0  0  0  0  0  0  0999 V2000
    8.6484    7.3522   -0.3720 C   0  0  2  0  0  0  0  0  0  0  0  0
    9.7397    7.6368    0.6904 C   0  0  2  0  0  0  0  0  0  0  0  0
   11.0003    6.8362    0.4920 N   0  0  2  0  0  0  0  0  0  0  0  0
   10.6736    5.3785    0.3127 C   0  0  1  0  0  0  0  0  0  0  0  0
    9.6219    5.1479   -0.8006 C   0  0  2  0  0  0  0  0  0  0  0  0
    8.4376    5.9313   -0.5398 N   0  0  0  0  0  0  0  0  0  0  0  0
   12.0815    7.1424    1.5140 C   0  0  1  0  0  0  0  0  0  0  0  0
   13.3885    6.2548    1.2758 C   0  0  0  0  0  0  0  0  0  0  0  0
   12.5826    8.6450    1.3100 C   0  0  0  0  0  0  0  0  0  0  0  0
    7.1731    5.3688   -0.4702 C   0  0  0  0  0  0  0  0  0  0  0  0
    6.9273    4.1638    0.2354 C   0  0  0  0  0  0  0  0  0  0  0  0
    5.6336    3.6097    0.3055 C   0  0  0  0  0  0  0  0  0  0  0  0
    4.5493    4.2581   -0.3157 C   0  0  0  0  0  0  0  0  0  0  0  0
    4.7726    5.4632   -1.0089 C   0  0  0  0  0  0  0  0  0  0  0  0
    6.0700    5.9966   -1.1010 C   0  0  0  0  0  0  0  0  0  0  0  0
    3.2908    3.7438   -0.1738 O   0  0  0  0  0  0  0  0  0  0  0  0
    2.6982    3.2111   -1.3751 C   0  0  1  0  0  0  0  0  0  0  0  0
    1.2571    2.7499   -1.0575 C   0  0  1  0  0  0  0  0  0  0  0  0
    1.2478    1.8437    0.0366 O   0  0  0  0  0  0  0  0  0  0  0  0
   -0.0331    1.9521    0.6853 C   0  0  1  0  0  0  0  0  0  0  0  0
   -0.6403    3.1783    0.2207 O   0  0  0  0  0  0  0  0  0  0  0  0
    0.3258    3.8642   -0.5667 C   0  0  2  0  0  0  0  0  0  0  0  0
   -0.8804    0.7442    0.3725 C   0  0  0  0  0  0  0  0  0  0  0  0
    0.2199    2.1032    2.2172 C   0  0  2  0  0  0  0  0  0  0  0  0
   -2.2556    0.9116    0.0585 C   0  0  0  0  0  0  0  0  0  0  0  0
   -3.0931   -0.1856   -0.2014 C   0  0  0  0  0  0  0  0  0  0  0  0
   -2.5757   -1.4900   -0.1575 C   0  0  0  0  0  0  0  0  0  0  0  0
   -1.2222   -1.6862    0.1639 C   0  0  0  0  0  0  0  0  0  0  0  0
   -0.3753   -0.5887    0.4255 C   0  0  0  0  0  0  0  0  0  0  0  0
   -0.9820    2.1585    2.9965 N   0  0  0  0  0  0  0  0  0  0  0  0
   -1.5332    3.2519    3.5531 C   0  0  0  0  0  0  0  0  0  0  0  0
   -2.6477    2.9059    4.2096 N   0  0  0  0  0  0  0  0  0  0  0  0
   -2.7440    1.5817    4.0371 C   0  0  0  0  0  0  0  0  0  0  0  0
   -1.7199    1.1361    3.2954 N   0  0  0  0  0  0  0  0  0  0  0  0
    1.2357   -0.9785    0.8023 Cl  0  0  0  0  0  0  0  0  0  0  0  0
   -3.5775   -2.8183   -0.4714 Cl  0  0  0  0  0  0  0  0  0  0  0  0
    0.8309    2.2580   -1.9380 H   0  0  0  0  0  0  0  0  0  0  0  0
    8.9545    7.7789   -1.3328 H   0  0  0  0  0  0  0  0  0  0  0  0
    7.7392    7.8755   -0.0550 H   0  0  0  0  0  0  0  0  0  0  0  0
    9.3214    7.4442    1.6836 H   0  0  0  0  0  0  0  0  0  0  0  0
    9.9478    8.7040    0.6169 H   0  0  0  0  0  0  0  0  0  0  0  0
   11.5582    4.8216    0.0025 H   0  0  0  0  0  0  0  0  0  0  0  0
   10.3122    4.9478    1.2522 H   0  0  0  0  0  0  0  0  0  0  0  0
    9.4173    4.0769   -0.8849 H   0  0  0  0  0  0  0  0  0  0  0  0
   10.0462    5.4616   -1.7592 H   0  0  0  0  0  0  0  0  0  0  0  0
   11.5772    6.9493    2.5403 H   0  0  0  0  0  0  0  0  0  0  0  0
   14.2249    6.6151    1.8778 H   0  0  0  0  0  0  0  0  0  0  0  0
   13.2040    5.2267    1.5887 H   0  0  0  0  0  0  0  0  0  0  0  0
   13.6832    6.2614    0.2240 H   0  0  0  0  0  0  0  0  0  0  0  0
   13.4760    8.8464    1.9044 H   0  0  0  0  0  0  0  0  0  0  0  0
   11.8275    9.3531    1.6494 H   0  0  0  0  0  0  0  0  0  0  0  0
   12.8072    8.8425    0.2587 H   0  0  0  0  0  0  0  0  0  0  0  0
    7.6885    3.6836    0.7211 H   0  0  0  0  0  0  0  0  0  0  0  0
    5.4792    2.7396    0.8221 H   0  0  0  0  0  0  0  0  0  0  0  0
    3.9899    5.9574   -1.4452 H   0  0  0  0  0  0  0  0  0  0  0  0
    6.2016    6.8584   -1.6340 H   0  0  0  0  0  0  0  0  0  0  0  0
    2.6543    3.9620   -2.1695 H   0  0  0  0  0  0  0  0  0  0  0  0
    3.2808    2.3579   -1.7347 H   0  0  0  0  0  0  0  0  0  0  0  0
   -0.1529    4.3859   -1.3987 H   0  0  0  0  0  0  0  0  0  0  0  0
    0.8488    4.5892    0.0638 H   0  0  0  0  0  0  0  0  0  0  0  0
    0.8090    3.0111    2.3837 H   0  0  0  0  0  0  0  0  0  0  0  0
    0.8312    1.2756    2.5819 H   0  0  0  0  0  0  0  0  0  0  0  0
   -2.6792    1.8413    0.0312 H   0  0  0  0  0  0  0  0  0  0  0  0
   -4.0799   -0.0276   -0.4170 H   0  0  0  0  0  0  0  0  0  0  0  0
   -0.8534   -2.6399    0.2103 H   0  0  0  0  0  0  0  0  0  0  0  0
   -1.1689    4.2039    3.4883 H   0  0  0  0  0  0  0  0  0  0  0  0
   -3.4877    0.9957    4.4192 H   0  0  0  0  0  0  0  0  0  0  0  0
  1  2  1  0  0  0  0 
  2  3  1  0  0  0  0 
  3  4  1  0  0  0  0 
  4  5  1  0  0  0  0 
  5  6  1  0  0  0  0 
  1  6  1  0  0  0  0 
  3  7  1  0  0  0  0 
  7  8  1  0  0  0  0 
  7  9  1  0  0  0  0 
  6 10  1  0  0  0  0 
 11 12  1  0  0  0  0 
 12 13  2  0  0  0  0 
 13 14  1  0  0  0  0 
 14 15  2  0  0  0  0 
 10 11  2  0  0  0  0 
 10 15  1  0  0  0  0 
 13 16  1  0  0  0  0 
 16 17  1  0  0  0  0 
 18 17  1  0  0  0  0 
 20 19  1  0  0  0  0 
 20 21  1  0  0  0  0 
 21 22  1  0  0  0  0 
 18 19  1  0  0  0  0 
 18 22  1  0  0  0  0 
 20 23  1  0  0  0  0 
 20 24  1  0  0  0  0 
 25 26  1  0  0  0  0 
 26 27  2  0  0  0  0 
 27 28  1  0  0  0  0 
 28 29  2  0  0  0  0 
 23 25  2  0  0  0  0 
 23 29  1  0  0  0  0 
 24 30  1  0  0  0  0 
 31 32  2  0  0  0  0 
 32 33  1  0  0  0  0 
 33 34  2  0  0  0  0 
 30 31  1  0  0  0  0 
 30 34  1  0  0  0  0 
 29 35  1  0  0  0  0 
 27 36  1  0  0  0  0 
 18 37  1  0  0  0  0 
  1 38  1  0  0  0  0 
  1 39  1  0  0  0  0 
  2 40  1  0  0  0  0 
  2 41  1  0  0  0  0 
  4 42  1  0  0  0  0 
  4 43  1  0  0  0  0 
  5 44  1  0  0  0  0 
  5 45  1  0  0  0  0 
  7 46  1  0  0  0  0 
  8 47  1  0  0  0  0 
  8 48  1  0  0  0  0 
  8 49  1  0  0  0  0 
  9 50  1  0  0  0  0 
  9 51  1  0  0  0  0 
  9 52  1  0  0  0  0 
 11 53  1  0  0  0  0 
 12 54  1  0  0  0  0 
 14 55  1  0  0  0  0 
 15 56  1  0  0  0  0 
 17 57  1  0  0  0  0 
 17 58  1  0  0  0  0 
 22 59  1  0  0  0  0 
 22 60  1  0  0  0  0 
 24 61  1  0  0  0  0 
 24 62  1  0  0  0  0 
 25 63  1  0  0  0  0 
 26 64  1  0  0  0  0 
 28 65  1  0  0  0  0 
 31 66  1  0  0  0  0 
 33 67  1  0  0  0  0 
M  END
> <cdk:Title>
terconazole

> <Conformer>
1

> <SuperDrugID>
SD002338

$$$$
