formebolone
  CDK     0628171801

 53 56  0  0  0  0  0  0  0  0999 V2000
   -2.8550   -0.4067   -1.4790 C   0  0  0  0  0  0  0  0  0  0  0  0
   -2.2194   -0.7929   -0.0940 C   0  0  1  0  0  0  0  0  0  0  0  0
   -3.0273   -0.2024    1.1554 C   0  0  2  0  0  0  0  0  0  0  0  0
   -2.2108   -2.2854    0.0303 C   0  0  0  0  0  0  0  0  0  0  0  0
   -0.8423   -0.2380   -0.1369 C   0  0  0  0  0  0  0  0  0  0  0  0
   -4.4374   -0.9050    1.3119 C   0  0  2  0  0  0  0  0  0  0  0  0
   -3.1484    1.3718    1.2595 C   0  0  2  0  0  0  0  0  0  0  0  0
   -3.4873   -2.9979    0.1752 C   0  0  2  0  0  0  0  0  0  0  0  0
   -1.0566   -2.9873    0.0629 C   0  0  0  0  0  0  0  0  0  0  0  0
    0.2936   -0.9715   -0.0808 C   0  0  0  0  0  0  0  0  0  0  0  0
   -5.1892   -0.3410    2.5588 C   0  0  1  0  0  0  0  0  0  0  0  0
   -4.2724   -2.4501    1.3884 C   0  0  2  0  0  0  0  0  0  0  0  0
   -1.8800    1.9722    1.5221 O   0  0  0  0  0  0  0  0  0  0  0  0
   -4.0828    1.8897    2.4039 C   0  0  1  0  0  0  0  0  0  0  0  0
    0.1794   -2.3658   -0.0003 C   0  0  0  0  0  0  0  0  0  0  0  0
    1.5542   -0.3608   -0.1183 C   0  0  0  0  0  0  0  0  0  0  0  0
   -5.4854    1.1896    2.4562 C   0  0  1  0  0  0  0  0  0  0  0  0
   -6.5459   -0.9599    2.9380 C   0  0  1  0  0  0  0  0  0  0  0  0
    1.1913   -3.1114    0.0130 O   0  0  0  0  0  0  0  0  0  0  0  0
    1.7236    0.8807   -0.1446 O   0  0  0  0  0  0  0  0  0  0  0  0
   -6.2974    1.6220    1.1726 C   0  0  0  0  0  0  0  0  0  0  0  0
   -6.3901    1.4163    3.7417 C   0  0  1  0  0  0  0  0  0  0  0  0
   -7.1187    0.0445    3.9597 C   0  0  2  0  0  0  0  0  0  0  0  0
   -5.6285    1.8599    5.0273 C   0  0  0  0  0  0  0  0  0  0  0  0
   -7.3931    2.4292    3.5631 O   0  0  0  0  0  0  0  0  0  0  0  0
   -5.0518   -0.7098    0.4326 H   0  0  0  0  0  0  0  0  0  0  0  0
   -2.4525   -0.4898    2.0458 H   0  0  0  0  0  0  0  0  0  0  0  0
   -4.5305   -0.5289    3.4195 H   0  0  0  0  0  0  0  0  0  0  0  0
   -2.8115    0.6694   -1.6564 H   0  0  0  0  0  0  0  0  0  0  0  0
   -3.9010   -0.7000   -1.5525 H   0  0  0  0  0  0  0  0  0  0  0  0
   -2.3204   -0.8973   -2.2979 H   0  0  0  0  0  0  0  0  0  0  0  0
   -0.7591    0.7455   -0.2404 H   0  0  0  0  0  0  0  0  0  0  0  0
   -3.4983    1.7766    0.3111 H   0  0  0  0  0  0  0  0  0  0  0  0
   -3.3647   -4.0745    0.3253 H   0  0  0  0  0  0  0  0  0  0  0  0
   -4.0802   -2.8838   -0.7341 H   0  0  0  0  0  0  0  0  0  0  0  0
   -1.0801   -3.9791    0.1436 H   0  0  0  0  0  0  0  0  0  0  0  0
   -5.2545   -2.9317    1.4025 H   0  0  0  0  0  0  0  0  0  0  0  0
   -3.7492   -2.7199    2.3122 H   0  0  0  0  0  0  0  0  0  0  0  0
   -2.0575    2.9349    1.5811 H   0  0  0  0  0  0  0  0  0  0  0  0
   -3.5489    1.7304    3.3438 H   0  0  0  0  0  0  0  0  0  0  0  0
   -4.2190    2.9699    2.2978 H   0  0  0  0  0  0  0  0  0  0  0  0
    2.4059   -0.9248   -0.1203 H   0  0  0  0  0  0  0  0  0  0  0  0
   -7.1921   -1.0423    2.0609 H   0  0  0  0  0  0  0  0  0  0  0  0
   -6.4340   -1.9530    3.3812 H   0  0  0  0  0  0  0  0  0  0  0  0
   -5.7789    1.4050    0.2412 H   0  0  0  0  0  0  0  0  0  0  0  0
   -7.2671    1.1272    1.1248 H   0  0  0  0  0  0  0  0  0  0  0  0
   -6.4732    2.6997    1.1874 H   0  0  0  0  0  0  0  0  0  0  0  0
   -6.9442   -0.3446    4.9680 H   0  0  0  0  0  0  0  0  0  0  0  0
   -8.2007    0.1274    3.8238 H   0  0  0  0  0  0  0  0  0  0  0  0
   -4.8509    1.1409    5.2904 H   0  0  0  0  0  0  0  0  0  0  0  0
   -6.3196    1.9383    5.8691 H   0  0  0  0  0  0  0  0  0  0  0  0
   -5.1705    2.8401    4.8798 H   0  0  0  0  0  0  0  0  0  0  0  0
   -6.9035    3.2691    3.4368 H   0  0  0  0  0  0  0  0  0  0  0  0
  2  1  1  0  0  0  0 
  3  2  1  0  0  0  0 
  2  4  1  0  0  0  0 
  2  5  1  0  0  0  0 
  6  3  1  0  0  0  0 
  3  7  1  0  0  0  0 
  3 27  1  0  0  0  0 
  4  8  1  0  0  0  0 
  4  9  2  0  0  0  0 
  5 10  2  0  0  0  0 
 11  6  1  0  0  0  0 
  6 12  1  0  0  0  0 
  6 26  1  0  0  0  0 
  7 13  1  0  0  0  0 
  7 14  1  0  0  0  0 
  8 12  1  0  0  0  0 
  9 15  1  0  0  0  0 
 10 15  1  0  0  0  0 
 10 16  1  0  0  0  0 
 11 17  1  0  0  0  0 
 11 18  1  0  0  0  0 
 11 28  1  0  0  0  0 
 17 14  1  0  0  0  0 
 15 19  2  0  0  0  0 
 16 20  2  0  0  0  0 
 17 21  1  0  0  0  0 
 17 22  1  0  0  0  0 
 18 23  1  0  0  0  0 
 22 23  1  0  0  0  0 
 22 24  1  0  0  0  0 
 22 25  1  0  0  0  0 
  1 29  1  0  0  0  0 
  1 30  1  0  0  0  0 
  1 31  1  0  0  0  0 
  5 32  1  0  0  0  0 
  7 33  1  0  0  0  0 
  8 34  1  0  0  0  0 
  8 35  1  0  0  0  0 
  9 36  1  0  0  0  0 
 12 37  1  0  0  0  0 
 12 38  1  0  0  0  0 
 13 39  1  0  0  0  0 
 14 40  1  0  0  0  0 
 14 41  1  0  0  0  0 
 16 42  1  0  0  0  0 
 18 43  1  0  0  0  0 
 18 44  1  0  0  0  0 
 21 45  1  0  0  0  0 
 21 46  1  0  0  0  0 
 21 47  1  0  0  0  0 
 23 48  1  0  0  0  0 
 23 49  1  0  0  0  0 
 24 50  1  0  0  0  0 
 24 51  1  0  0  0  0 
 24 52  1  0  0  0  0 
 25 53  1  0  0  0  0 
M  END
> <cdk:Title>
formebolone

> <Conformer>
1

> <SuperDrugID>
SD001110

$$$$
