bephenium
  CDK     0628171801

 41 42  0  0  0  0  0  0  0  0999 V2000
   -3.4183   -3.9749    0.2066 C   0  0  2  0  0  0  0  0  0  0  0  0
   -2.8079   -3.5748    1.5484 N   0  0  2  0  0  0  0  0  0  0  0  0
   -4.7767   -4.6050    0.1896 C   0  0  0  0  0  0  0  0  0  0  0  0
   -1.4616   -2.8796    1.3219 C   0  0  1  0  0  0  0  0  0  0  0  0
   -2.5423   -4.8132    2.3815 C   0  0  0  0  0  0  0  0  0  0  0  0
   -3.7376   -2.6758    2.3297 C   0  0  0  0  0  0  0  0  0  0  0  0
   -4.9295   -6.0132    0.1939 C   0  0  0  0  0  0  0  0  0  0  0  0
   -5.9466   -3.8067    0.1115 C   0  0  0  0  0  0  0  0  0  0  0  0
   -1.4633   -1.4537    0.6999 C   0  0  1  0  0  0  0  0  0  0  0  0
   -6.2060   -6.6012    0.1204 C   0  0  0  0  0  0  0  0  0  0  0  0
   -7.2225   -4.3931    0.0387 C   0  0  0  0  0  0  0  0  0  0  0  0
   -0.1115   -1.0443    0.3951 O   0  0  0  0  0  0  0  0  0  0  0  0
   -7.3541   -5.7926    0.0463 C   0  0  0  0  0  0  0  0  0  0  0  0
   -0.0786    0.1803   -0.2181 C   0  0  0  0  0  0  0  0  0  0  0  0
    0.1508    1.3462    0.5404 C   0  0  0  0  0  0  0  0  0  0  0  0
   -0.2880    0.2841   -1.6107 C   0  0  0  0  0  0  0  0  0  0  0  0
    0.1573    2.6077   -0.0852 C   0  0  0  0  0  0  0  0  0  0  0  0
   -0.3047    1.5462   -2.2317 C   0  0  0  0  0  0  0  0  0  0  0  0
   -0.0763    2.7080   -1.4703 C   0  0  0  0  0  0  0  0  0  0  0  0
   -2.7303   -4.6507   -0.3135 H   0  0  0  0  0  0  0  0  0  0  0  0
   -3.4898   -3.1058   -0.4487 H   0  0  0  0  0  0  0  0  0  0  0  0
   -0.9196   -2.7841    2.2702 H   0  0  0  0  0  0  0  0  0  0  0  0
   -0.8326   -3.5086    0.6802 H   0  0  0  0  0  0  0  0  0  0  0  0
   -3.4634   -5.3586    2.6035 H   0  0  0  0  0  0  0  0  0  0  0  0
   -1.8637   -5.5031    1.8688 H   0  0  0  0  0  0  0  0  0  0  0  0
   -2.0850   -4.5587    3.3444 H   0  0  0  0  0  0  0  0  0  0  0  0
   -4.0624   -1.8192    1.7341 H   0  0  0  0  0  0  0  0  0  0  0  0
   -4.6406   -3.2038    2.6442 H   0  0  0  0  0  0  0  0  0  0  0  0
   -3.2566   -2.2914    3.2333 H   0  0  0  0  0  0  0  0  0  0  0  0
   -4.1078   -6.6220    0.2443 H   0  0  0  0  0  0  0  0  0  0  0  0
   -5.8768   -2.7859    0.0986 H   0  0  0  0  0  0  0  0  0  0  0  0
   -2.0660   -1.4465   -0.2110 H   0  0  0  0  0  0  0  0  0  0  0  0
   -1.9014   -0.7531    1.4175 H   0  0  0  0  0  0  0  0  0  0  0  0
   -6.2987   -7.6193    0.1147 H   0  0  0  0  0  0  0  0  0  0  0  0
   -8.0551   -3.8022   -0.0256 H   0  0  0  0  0  0  0  0  0  0  0  0
   -8.2809   -6.2198   -0.0052 H   0  0  0  0  0  0  0  0  0  0  0  0
    0.3036    1.2799    1.5491 H   0  0  0  0  0  0  0  0  0  0  0  0
   -0.4449   -0.5568   -2.1708 H   0  0  0  0  0  0  0  0  0  0  0  0
    0.3255    3.4515    0.4671 H   0  0  0  0  0  0  0  0  0  0  0  0
   -0.4878    1.6188   -3.2361 H   0  0  0  0  0  0  0  0  0  0  0  0
   -0.0797    3.6242   -1.9254 H   0  0  0  0  0  0  0  0  0  0  0  0
  1  2  1  0  0  0  0 
  1  3  1  0  0  0  0 
  2  4  1  0  0  0  0 
  2  5  1  0  0  0  0 
  2  6  1  0  0  0  0 
  3  7  2  0  0  0  0 
  3  8  1  0  0  0  0 
  4  9  1  0  0  0  0 
  7 10  1  0  0  0  0 
  8 11  2  0  0  0  0 
  9 12  1  0  0  0  0 
 10 13  2  0  0  0  0 
 11 13  1  0  0  0  0 
 12 14  1  0  0  0  0 
 14 15  2  0  0  0  0 
 14 16  1  0  0  0  0 
 15 17  1  0  0  0  0 
 16 18  2  0  0  0  0 
 17 19  2  0  0  0  0 
 18 19  1  0  0  0  0 
  1 20  1  0  0  0  0 
  1 21  1  0  0  0  0 
  4 22  1  0  0  0  0 
  4 23  1  0  0  0  0 
  5 24  1  0  0  0  0 
  5 25  1  0  0  0  0 
  5 26  1  0  0  0  0 
  6 27  1  0  0  0  0 
  6 28  1  0  0  0  0 
  6 29  1  0  0  0  0 
  7 30  1  0  0  0  0 
  8 31  1  0  0  0  0 
  9 32  1  0  0  0  0 
  9 33  1  0  0  0  0 
 10 34  1  0  0  0  0 
 11 35  1  0  0  0  0 
 13 36  1  0  0  0  0 
 15 37  1  0  0  0  0 
 16 38  1  0  0  0  0 
 17 39  1  0  0  0  0 
 18 40  1  0  0  0  0 
 19 41  1  0  0  0  0 
M  CHG  1   2   1
M  END
> <cdk:Title>
bephenium

> <Conformer>
1

> <SuperDrugID>
SD000286

$$$$
