ambazone
  CDK     0628171801

 27 27  0  0  0  0  0  0  0  0999 V2000
   -5.7841   -7.1824    0.8897 N   0  0  0  0  0  0  0  0  0  0  0  0
   -6.1204   -6.1362    0.1614 C   0  0  0  0  0  0  0  0  0  0  0  0
   -7.3276   -6.0653   -0.2457 N   0  0  0  0  0  0  0  0  0  0  0  0
   -5.2955   -5.1489   -0.1578 N   0  0  0  0  0  0  0  0  0  0  0  0
   -4.0224   -5.1319    0.1310 N   0  0  0  0  0  0  0  0  0  0  0  0
   -3.2192   -4.0380    0.0057 C   0  0  0  0  0  0  0  0  0  0  0  0
   -3.7033   -2.7363   -0.2671 C   0  0  0  0  0  0  0  0  0  0  0  0
   -2.8231   -1.6401   -0.3272 C   0  0  0  0  0  0  0  0  0  0  0  0
   -1.4391   -1.8158   -0.1217 C   0  0  0  0  0  0  0  0  0  0  0  0
   -0.9518   -3.1227    0.1223 C   0  0  0  0  0  0  0  0  0  0  0  0
   -1.8324   -4.2183    0.1860 C   0  0  0  0  0  0  0  0  0  0  0  0
   -0.6700   -0.7329   -0.1549 N   0  0  0  0  0  0  0  0  0  0  0  0
    0.5335   -0.6964    0.0824 N   0  0  0  0  0  0  0  0  0  0  0  0
    1.2926    0.3447    0.0642 C   0  0  0  0  0  0  0  0  0  0  0  0
    0.8847    1.5651   -0.2302 N   0  0  0  0  0  0  0  0  0  0  0  0
    2.9317    0.1093    0.4495 S   0  0  0  0  0  0  0  0  0  0  0  0
   -6.4508   -7.8526    1.1029 H   0  0  0  0  0  0  0  0  0  0  0  0
   -4.8801   -7.2893    1.2194 H   0  0  0  0  0  0  0  0  0  0  0  0
   -7.6090   -5.3355   -0.7588 H   0  0  0  0  0  0  0  0  0  0  0  0
   -5.6692   -4.3880   -0.6313 H   0  0  0  0  0  0  0  0  0  0  0  0
   -3.6218   -5.9514    0.4625 H   0  0  0  0  0  0  0  0  0  0  0  0
   -4.7007   -2.5697   -0.4127 H   0  0  0  0  0  0  0  0  0  0  0  0
   -3.2033   -0.7071   -0.5146 H   0  0  0  0  0  0  0  0  0  0  0  0
    0.0492   -3.2837    0.2604 H   0  0  0  0  0  0  0  0  0  0  0  0
   -1.4506   -5.1491    0.3698 H   0  0  0  0  0  0  0  0  0  0  0  0
    1.5243    2.2937   -0.2700 H   0  0  0  0  0  0  0  0  0  0  0  0
   -0.0492    1.7390   -0.4166 H   0  0  0  0  0  0  0  0  0  0  0  0
  1  2  1  0  0  0  0 
  2  3  2  0  0  0  0 
  2  4  1  0  0  0  0 
  4  5  1  0  0  0  0 
  5  6  1  0  0  0  0 
  6  7  2  0  0  0  0 
  7  8  1  0  0  0  0 
  8  9  2  0  0  0  0 
  9 10  1  0  0  0  0 
 10 11  2  0  0  0  0 
  6 11  1  0  0  0  0 
 12  9  1  0  0  0  0 
 12 13  2  0  0  0  0 
 13 14  1  0  0  0  0 
 14 15  1  0  0  0  0 
 14 16  2  0  0  0  0 
 17  1  1  0  0  0  0 
 18  1  1  0  0  0  0 
 19  3  1  0  0  0  0 
 20  4  1  0  0  0  0 
 21  5  1  0  0  0  0 
 22  7  1  0  0  0  0 
 23  8  1  0  0  0  0 
 24 10  1  0  0  0  0 
 25 11  1  0  0  0  0 
 26 15  1  0  0  0  0 
 27 15  1  0  0  0  0 
M  END
> <cdk:Title>
ambazone

> <Conformer>
1

> <SuperDrugID>
SD000114

$$$$
