methylprednisolone acetate
  CDK     0628171801

 62 65  0  0  0  0  0  0  0  0999 V2000
    2.5531   -4.3794    1.6291 C   0  0  0  0  0  0  0  0  0  0  0  0
    1.1516   -4.3431    2.3609 C   0  0  2  0  0  0  0  0  0  0  0  0
    0.6929   -5.7232    2.9447 C   0  0  2  0  0  0  0  0  0  0  0  0
   -0.0007   -4.0963    1.3039 C   0  0  2  0  0  0  0  0  0  0  0  0
    1.2133   -3.3509    3.5772 C   0  0  2  0  0  0  0  0  0  0  0  0
    1.6336   -6.3160    4.0512 C   0  0  1  0  0  0  0  0  0  0  0  0
    0.3606   -6.5590    1.6906 C   0  0  1  0  0  0  0  0  0  0  0  0
    0.2109   -2.9765    0.3241 C   0  0  0  0  0  0  0  0  0  0  0  0
   -1.2339   -3.7745    1.9692 O   0  0  0  0  0  0  0  0  0  0  0  0
   -0.1863   -5.5218    0.6726 C   0  0  2  0  0  0  0  0  0  0  0  0
    2.0987   -3.8427    4.7664 C   0  0  1  0  0  0  0  0  0  0  0  0
    1.7524   -5.3006    5.2544 C   0  0  2  0  0  0  0  0  0  0  0  0
    1.1165   -7.6992    4.5605 C   0  0  1  0  0  0  0  0  0  0  0  0
    0.3942   -1.5750    0.7687 C   0  0  2  0  0  0  0  0  0  0  0  0
    0.2231   -3.1991   -0.9109 O   0  0  0  0  0  0  0  0  0  0  0  0
    3.4778   -3.6878    4.4461 O   0  0  0  0  0  0  0  0  0  0  0  0
    2.6052   -5.8826    6.4700 C   0  0  2  0  0  0  0  0  0  0  0  0
    1.9400   -8.2553    5.7614 C   0  0  1  0  0  0  0  0  0  0  0  0
    0.0139   -0.6115   -0.2309 O   0  0  0  0  0  0  0  0  0  0  0  0
    4.1380   -6.0728    6.1656 C   0  0  0  0  0  0  0  0  0  0  0  0
    2.0083   -7.2207    6.8276 C   0  0  0  0  0  0  0  0  0  0  0  0
    2.5662   -4.9163    7.5970 C   0  0  0  0  0  0  0  0  0  0  0  0
    1.4329   -9.6811    6.1423 C   0  0  0  0  0  0  0  0  0  0  0  0
    0.8043    0.3320   -0.8282 C   0  0  0  0  0  0  0  0  0  0  0  0
    1.5162   -7.4351    8.0735 C   0  0  0  0  0  0  0  0  0  0  0  0
    2.0628   -5.2104    8.8049 C   0  0  0  0  0  0  0  0  0  0  0  0
    0.1954    1.2288   -1.8221 C   0  0  0  0  0  0  0  0  0  0  0  0
    2.0238    0.4345   -0.5568 O   0  0  0  0  0  0  0  0  0  0  0  0
    1.5462   -6.4631    9.0607 C   0  0  0  0  0  0  0  0  0  0  0  0
    1.1057   -6.7214   10.2051 O   0  0  0  0  0  0  0  0  0  0  0  0
    2.8949   -3.3694    1.3971 H   0  0  0  0  0  0  0  0  0  0  0  0
    2.5170   -4.9276    0.6887 H   0  0  0  0  0  0  0  0  0  0  0  0
    3.3234   -4.8579    2.2265 H   0  0  0  0  0  0  0  0  0  0  0  0
   -0.2724   -5.5857    3.4541 H   0  0  0  0  0  0  0  0  0  0  0  0
    0.2056   -3.1839    3.9643 H   0  0  0  0  0  0  0  0  0  0  0  0
    1.5827   -2.3780    3.2545 H   0  0  0  0  0  0  0  0  0  0  0  0
    2.6205   -6.4837    3.6202 H   0  0  0  0  0  0  0  0  0  0  0  0
    1.2614   -7.0459    1.3085 H   0  0  0  0  0  0  0  0  0  0  0  0
   -0.3835   -7.3285    1.9110 H   0  0  0  0  0  0  0  0  0  0  0  0
   -1.9130   -3.7237    1.2646 H   0  0  0  0  0  0  0  0  0  0  0  0
    0.3740   -5.6248   -0.2603 H   0  0  0  0  0  0  0  0  0  0  0  0
   -1.2374   -5.7215    0.4454 H   0  0  0  0  0  0  0  0  0  0  0  0
    1.9073   -3.1447    5.5858 H   0  0  0  0  0  0  0  0  0  0  0  0
    0.7321   -5.1982    5.6480 H   0  0  0  0  0  0  0  0  0  0  0  0
    0.0666   -7.6134    4.8582 H   0  0  0  0  0  0  0  0  0  0  0  0
    1.1662   -8.4151    3.7350 H   0  0  0  0  0  0  0  0  0  0  0  0
    1.4354   -1.4451    1.0634 H   0  0  0  0  0  0  0  0  0  0  0  0
   -0.2273   -1.3856    1.6449 H   0  0  0  0  0  0  0  0  0  0  0  0
    3.5948   -2.7244    4.2979 H   0  0  0  0  0  0  0  0  0  0  0  0
    2.9572   -8.4333    5.4043 H   0  0  0  0  0  0  0  0  0  0  0  0
    4.6141   -6.6540    6.9602 H   0  0  0  0  0  0  0  0  0  0  0  0
    4.3126   -6.5976    5.2289 H   0  0  0  0  0  0  0  0  0  0  0  0
    4.6730   -5.1231    6.0958 H   0  0  0  0  0  0  0  0  0  0  0  0
    2.9459   -4.0044    7.4718 H   0  0  0  0  0  0  0  0  0  0  0  0
    2.0424  -10.0952    6.9476 H   0  0  0  0  0  0  0  0  0  0  0  0
    0.3898   -9.6563    6.4634 H   0  0  0  0  0  0  0  0  0  0  0  0
    1.5132  -10.3574    5.2889 H   0  0  0  0  0  0  0  0  0  0  0  0
    1.1094   -8.3057    8.3167 H   0  0  0  0  0  0  0  0  0  0  0  0
    2.0707   -4.5198    9.5215 H   0  0  0  0  0  0  0  0  0  0  0  0
    0.9561    1.7899   -2.3701 H   0  0  0  0  0  0  0  0  0  0  0  0
   -0.3817    0.6384   -2.5333 H   0  0  0  0  0  0  0  0  0  0  0  0
   -0.4759    1.9309   -1.3260 H   0  0  0  0  0  0  0  0  0  0  0  0
  2  1  1  0  0  0  0 
  3  2  1  0  0  0  0 
  2  4  1  0  0  0  0 
  2  5  1  0  0  0  0 
  6  3  1  0  0  0  0 
  3  7  1  0  0  0  0 
  4  8  1  0  0  0  0 
  4  9  1  0  0  0  0 
  4 10  1  0  0  0  0 
 11  5  1  0  0  0  0 
 12  6  1  0  0  0  0 
  6 13  1  0  0  0  0 
  7 10  1  0  0  0  0 
  8 14  1  0  0  0  0 
  8 15  2  0  0  0  0 
 12 11  1  0  0  0  0 
 11 16  1  0  0  0  0 
 12 17  1  0  0  0  0 
 18 13  1  0  0  0  0 
 14 19  1  0  0  0  0 
 17 20  1  0  0  0  0 
 17 21  1  0  0  0  0 
 17 22  1  0  0  0  0 
 18 21  1  0  0  0  0 
 18 23  1  0  0  0  0 
 19 24  1  0  0  0  0 
 21 25  2  0  0  0  0 
 22 26  2  0  0  0  0 
 24 27  1  0  0  0  0 
 24 28  2  0  0  0  0 
 25 29  1  0  0  0  0 
 26 29  1  0  0  0  0 
 29 30  2  0  0  0  0 
 31  1  1  0  0  0  0 
 32  1  1  0  0  0  0 
 33  1  1  0  0  0  0 
  3 34  1  0  0  0  0 
 35  5  1  0  0  0  0 
 36  5  1  0  0  0  0 
  6 37  1  0  0  0  0 
 38  7  1  0  0  0  0 
 39  7  1  0  0  0  0 
 40  9  1  0  0  0  0 
 41 10  1  0  0  0  0 
 42 10  1  0  0  0  0 
 11 43  1  0  0  0  0 
 12 44  1  0  0  0  0 
 45 13  1  0  0  0  0 
 46 13  1  0  0  0  0 
 47 14  1  0  0  0  0 
 48 14  1  0  0  0  0 
 49 16  1  0  0  0  0 
 18 50  1  0  0  0  0 
 51 20  1  0  0  0  0 
 52 20  1  0  0  0  0 
 53 20  1  0  0  0  0 
 54 22  1  0  0  0  0 
 55 23  1  0  0  0  0 
 56 23  1  0  0  0  0 
 57 23  1  0  0  0  0 
 58 25  1  0  0  0  0 
 59 26  1  0  0  0  0 
 60 27  1  0  0  0  0 
 61 27  1  0  0  0  0 
 62 27  1  0  0  0  0 
M  END
> <cdk:Title>
methylprednisolone acetate

> <Conformer>
1

> <SuperDrugID>
SD001570

$$$$
