lumiracoxib
  CDK     0628171801

 33 34  0  0  0  0  0  0  0  0999 V2000
    0.8752    0.8056    1.7169 N   0  0  0  0  0  0  0  0  0  0  0  0
    1.9200    1.0005    0.8498 C   0  0  0  0  0  0  0  0  0  0  0  0
   -0.3473    1.4184    1.7197 C   0  0  0  0  0  0  0  0  0  0  0  0
    2.9096   -0.0104    0.6806 C   0  0  0  0  0  0  0  0  0  0  0  0
    2.0763    2.2316    0.1684 C   0  0  0  0  0  0  0  0  0  0  0  0
   -0.8383    1.9500    2.9383 C   0  0  0  0  0  0  0  0  0  0  0  0
   -1.1536    1.5061    0.5564 C   0  0  0  0  0  0  0  0  0  0  0  0
    2.8443   -1.3436    1.3544 C   0  0  1  0  0  0  0  0  0  0  0  0
    4.0164    0.2443   -0.1687 C   0  0  0  0  0  0  0  0  0  0  0  0
    3.1789    2.4632   -0.6696 C   0  0  0  0  0  0  0  0  0  0  0  0
    0.0449    1.8342    4.3835 Cl  0  0  0  0  0  0  0  0  0  0  0  0
   -2.0822    2.6124    2.9728 C   0  0  0  0  0  0  0  0  0  0  0  0
   -0.7735    0.9691   -0.5734 F   0  0  0  0  0  0  0  0  0  0  0  0
   -2.4073    2.1464    0.6071 C   0  0  0  0  0  0  0  0  0  0  0  0
    3.8789   -1.4755    2.3974 C   0  0  0  0  0  0  0  0  0  0  0  0
    4.1629    1.4709   -0.8504 C   0  0  0  0  0  0  0  0  0  0  0  0
   -2.8633    2.7130    1.8095 C   0  0  0  0  0  0  0  0  0  0  0  0
    4.8702   -2.3880    2.2772 O   0  0  0  0  0  0  0  0  0  0  0  0
    3.8623   -0.7436    3.4133 O   0  0  0  0  0  0  0  0  0  0  0  0
    5.3372    1.6908   -1.7283 C   0  0  0  0  0  0  0  0  0  0  0  0
    1.0347    0.1908    2.4500 H   0  0  0  0  0  0  0  0  0  0  0  0
    1.3960    2.9832    0.2952 H   0  0  0  0  0  0  0  0  0  0  0  0
    1.8793   -1.5292    1.8245 H   0  0  0  0  0  0  0  0  0  0  0  0
    2.9708   -2.1295    0.6026 H   0  0  0  0  0  0  0  0  0  0  0  0
    4.7338   -0.4782   -0.2947 H   0  0  0  0  0  0  0  0  0  0  0  0
    3.2634    3.3685   -1.1374 H   0  0  0  0  0  0  0  0  0  0  0  0
   -2.4270    3.0256    3.8431 H   0  0  0  0  0  0  0  0  0  0  0  0
   -2.9952    2.1957   -0.2284 H   0  0  0  0  0  0  0  0  0  0  0  0
   -3.7646    3.1942    1.8391 H   0  0  0  0  0  0  0  0  0  0  0  0
    5.5593   -2.4548    2.9712 H   0  0  0  0  0  0  0  0  0  0  0  0
    5.3008    2.6582   -2.2330 H   0  0  0  0  0  0  0  0  0  0  0  0
    6.2553    1.6480   -1.1397 H   0  0  0  0  0  0  0  0  0  0  0  0
    5.3730    0.9121   -2.4914 H   0  0  0  0  0  0  0  0  0  0  0  0
  1  2  1  0  0  0  0 
  1  3  1  0  0  0  0 
  2  4  2  0  0  0  0 
  2  5  1  0  0  0  0 
  3  6  2  0  0  0  0 
  3  7  1  0  0  0  0 
  4  8  1  0  0  0  0 
  4  9  1  0  0  0  0 
  5 10  2  0  0  0  0 
  6 11  1  0  0  0  0 
  6 12  1  0  0  0  0 
  7 13  1  0  0  0  0 
  7 14  2  0  0  0  0 
  8 15  1  0  0  0  0 
  9 16  2  0  0  0  0 
 10 16  1  0  0  0  0 
 12 17  2  0  0  0  0 
 14 17  1  0  0  0  0 
 15 18  1  0  0  0  0 
 15 19  2  0  0  0  0 
 16 20  1  0  0  0  0 
  1 21  1  0  0  0  0 
  5 22  1  0  0  0  0 
  8 23  1  0  0  0  0 
  8 24  1  0  0  0  0 
  9 25  1  0  0  0  0 
 10 26  1  0  0  0  0 
 12 27  1  0  0  0  0 
 14 28  1  0  0  0  0 
 17 29  1  0  0  0  0 
 18 30  1  0  0  0  0 
 20 31  1  0  0  0  0 
 20 32  1  0  0  0  0 
 20 33  1  0  0  0  0 
M  END
> <cdk:Title>
lumiracoxib

> <Conformer>
1

> <SuperDrugID>
SD001432

$$$$
