mebanazine
  CDK     0628171802

 22 22  0  0  0  0  0  0  0  0999 V2000
    0.5828   -0.2895    3.1062 C   0  0  0  0  0  0  0  0  0  0  0  0
   -0.2378   -0.8082    4.1250 C   0  0  0  0  0  0  0  0  0  0  0  0
   -0.5142   -2.1862    4.1711 C   0  0  0  0  0  0  0  0  0  0  0  0
    0.0290   -3.0458    3.2008 C   0  0  0  0  0  0  0  0  0  0  0  0
    0.8557   -2.5268    2.1888 C   0  0  0  0  0  0  0  0  0  0  0  0
    1.1443   -1.1413    2.1232 C   0  0  0  0  0  0  0  0  0  0  0  0
    1.9934   -0.5948    1.0194 C   0  0  2  0  0  0  0  0  0  0  0  0
    3.2972    0.0613    1.5441 C   0  0  0  0  0  0  0  0  0  0  0  0
    1.2443    0.3886    0.2042 N   0  0  2  0  0  0  0  0  0  0  0  0
    0.1421   -0.1847   -0.4486 N   0  0  1  0  0  0  0  0  0  0  0  0
    0.7617    0.7172    3.0844 H   0  0  0  0  0  0  0  0  0  0  0  0
   -0.6356   -0.1821    4.8296 H   0  0  0  0  0  0  0  0  0  0  0  0
   -1.1091   -2.5640    4.9101 H   0  0  0  0  0  0  0  0  0  0  0  0
   -0.1784   -4.0474    3.2284 H   0  0  0  0  0  0  0  0  0  0  0  0
    1.2401   -3.1714    1.4938 H   0  0  0  0  0  0  0  0  0  0  0  0
    2.3074   -1.4031    0.3505 H   0  0  0  0  0  0  0  0  0  0  0  0
    3.9090    0.3936    0.7024 H   0  0  0  0  0  0  0  0  0  0  0  0
    3.0833    0.9300    2.1702 H   0  0  0  0  0  0  0  0  0  0  0  0
    3.8766   -0.6576    2.1276 H   0  0  0  0  0  0  0  0  0  0  0  0
    1.8787    0.7064   -0.5324 H   0  0  0  0  0  0  0  0  0  0  0  0
   -0.4846   -0.5375    0.2767 H   0  0  0  0  0  0  0  0  0  0  0  0
   -0.3539    0.5772   -0.9151 H   0  0  0  0  0  0  0  0  0  0  0  0
  1  2  2  0  0  0  0 
  1  6  1  0  0  0  0 
  2  3  1  0  0  0  0 
  3  4  2  0  0  0  0 
  4  5  1  0  0  0  0 
  5  6  2  0  0  0  0 
  7  6  1  0  0  0  0 
  7  8  1  0  0  0  0 
  7  9  1  0  0  0  0 
  9 10  1  0  0  0  0 
  1 11  1  0  0  0  0 
  2 12  1  0  0  0  0 
  3 13  1  0  0  0  0 
  4 14  1  0  0  0  0 
  5 15  1  0  0  0  0 
  7 16  1  0  0  0  0 
  8 17  1  0  0  0  0 
  8 18  1  0  0  0  0 
  8 19  1  0  0  0  0 
  9 20  1  0  0  0  0 
 10 21  1  0  0  0  0 
 10 22  1  0  0  0  0 
M  END
> <cdk:Title>
mebanazine

> <Conformer>
1

> <SuperDrugID>
SD003808

$$$$
