tedisamil
  CDK     0628171802

 53 57  0  0  0  0  0  0  0  0999 V2000
    3.5049   -0.1688    4.3464 C   0  0  2  0  0  0  0  0  0  0  0  0
    2.2081    0.5748    4.3116 N   0  0  2  0  0  0  0  0  0  0  0  0
    3.5821   -1.3091    3.2995 C   0  0  1  0  0  0  0  0  0  0  0  0
    2.2531    1.8497    5.1030 C   0  0  2  0  0  0  0  0  0  0  0  0
    0.9988   -0.2691    4.5841 C   0  0  1  0  0  0  0  0  0  0  0  0
    4.7171   -2.3357    3.4562 C   0  0  2  0  0  0  0  0  0  0  0  0
    3.2666   -2.7521    3.7308 C   0  0  1  0  0  0  0  0  0  0  0  0
    0.9162    2.6612    5.0471 C   0  0  2  0  0  0  0  0  0  0  0  0
   -0.3243    0.5621    4.5236 C   0  0  1  0  0  0  0  0  0  0  0  0
   -0.2850    1.7754    5.5359 C   0  0  2  0  0  0  0  0  0  0  0  0
    0.6502    3.1982    3.6060 C   0  0  2  0  0  0  0  0  0  0  0  0
   -0.5418    1.0551    3.0494 C   0  0  1  0  0  0  0  0  0  0  0  0
   -1.6381    2.5587    5.6295 C   0  0  2  0  0  0  0  0  0  0  0  0
   -0.1584    1.3729    7.0453 C   0  0  2  0  0  0  0  0  0  0  0  0
    0.4543    2.0921    2.6147 N   0  0  1  0  0  0  0  0  0  0  0  0
   -2.5381    1.7758    6.6044 C   0  0  2  0  0  0  0  0  0  0  0  0
   -1.5747    1.0194    7.5390 C   0  0  2  0  0  0  0  0  0  0  0  0
    0.2316    2.5603    1.2115 C   0  0  1  0  0  0  0  0  0  0  0  0
    1.4431    3.3346    0.6307 C   0  0  1  0  0  0  0  0  0  0  0  0
    1.2146    4.1092   -0.6789 C   0  0  2  0  0  0  0  0  0  0  0  0
    1.4406    4.8738    0.6312 C   0  0  1  0  0  0  0  0  0  0  0  0
   -1.1493   -0.1068    4.7785 H   0  0  0  0  0  0  0  0  0  0  0  0
    1.0267    3.5287    5.7052 H   0  0  0  0  0  0  0  0  0  0  0  0
    3.6829   -0.5528    5.3553 H   0  0  0  0  0  0  0  0  0  0  0  0
    4.3184    0.5200    4.1031 H   0  0  0  0  0  0  0  0  0  0  0  0
    3.3389   -1.0717    2.2616 H   0  0  0  0  0  0  0  0  0  0  0  0
    3.0557    2.4843    4.7153 H   0  0  0  0  0  0  0  0  0  0  0  0
    2.4993    1.6292    6.1458 H   0  0  0  0  0  0  0  0  0  0  0  0
    0.9301   -1.0650    3.8384 H   0  0  0  0  0  0  0  0  0  0  0  0
    1.0949   -0.7725    5.5467 H   0  0  0  0  0  0  0  0  0  0  0  0
    5.3526   -2.2373    4.3387 H   0  0  0  0  0  0  0  0  0  0  0  0
    5.1551   -2.6991    2.5245 H   0  0  0  0  0  0  0  0  0  0  0  0
    3.0068   -2.9057    4.7792 H   0  0  0  0  0  0  0  0  0  0  0  0
    2.8008   -3.3827    2.9724 H   0  0  0  0  0  0  0  0  0  0  0  0
    1.5086    3.8088    3.3168 H   0  0  0  0  0  0  0  0  0  0  0  0
   -0.2220    3.8582    3.6086 H   0  0  0  0  0  0  0  0  0  0  0  0
   -0.4664    0.1941    2.3786 H   0  0  0  0  0  0  0  0  0  0  0  0
   -1.5568    1.4364    2.9285 H   0  0  0  0  0  0  0  0  0  0  0  0
   -2.1460    2.6927    4.6750 H   0  0  0  0  0  0  0  0  0  0  0  0
   -1.4624    3.5579    6.0415 H   0  0  0  0  0  0  0  0  0  0  0  0
    0.2083    2.2246    7.6286 H   0  0  0  0  0  0  0  0  0  0  0  0
    0.5228    0.5450    7.2318 H   0  0  0  0  0  0  0  0  0  0  0  0
   -3.1630    1.0659    6.0537 H   0  0  0  0  0  0  0  0  0  0  0  0
   -3.1863    2.4563    7.1643 H   0  0  0  0  0  0  0  0  0  0  0  0
   -1.7125    1.3255    8.5815 H   0  0  0  0  0  0  0  0  0  0  0  0
   -1.7398   -0.0606    7.4613 H   0  0  0  0  0  0  0  0  0  0  0  0
    0.0864    1.6942    0.5601 H   0  0  0  0  0  0  0  0  0  0  0  0
   -0.6779    3.1662    1.1652 H   0  0  0  0  0  0  0  0  0  0  0  0
    2.4293    2.8719    0.7043 H   0  0  0  0  0  0  0  0  0  0  0  0
    0.1941    4.1369   -1.0663 H   0  0  0  0  0  0  0  0  0  0  0  0
    2.0486    4.1044   -1.3830 H   0  0  0  0  0  0  0  0  0  0  0  0
    0.5612    5.3676    1.0469 H   0  0  0  0  0  0  0  0  0  0  0  0
    2.4148    5.3537    0.7345 H   0  0  0  0  0  0  0  0  0  0  0  0
  1  2  1  0  0  0  0 
  1  3  1  0  0  0  0 
  2  4  1  0  0  0  0 
  2  5  1  0  0  0  0 
  3  6  1  0  0  0  0 
  3  7  1  0  0  0  0 
  4  8  1  0  0  0  0 
  5  9  1  0  0  0  0 
  6  7  1  0  0  0  0 
  8 10  1  0  0  0  0 
  8 11  1  0  0  0  0 
  9 10  1  0  0  0  0 
  9 12  1  0  0  0  0 
 10 13  1  0  0  0  0 
 10 14  1  0  0  0  0 
 11 15  1  0  0  0  0 
 12 15  1  0  0  0  0 
 13 16  1  0  0  0  0 
 14 17  1  0  0  0  0 
 15 18  1  0  0  0  0 
 16 17  1  0  0  0  0 
 18 19  1  0  0  0  0 
 19 20  1  0  0  0  0 
 19 21  1  0  0  0  0 
 20 21  1  0  0  0  0 
  9 22  1  0  0  0  0 
  8 23  1  0  0  0  0 
  1 24  1  0  0  0  0 
  1 25  1  0  0  0  0 
  3 26  1  0  0  0  0 
  4 27  1  0  0  0  0 
  4 28  1  0  0  0  0 
  5 29  1  0  0  0  0 
  5 30  1  0  0  0  0 
  6 31  1  0  0  0  0 
  6 32  1  0  0  0  0 
  7 33  1  0  0  0  0 
  7 34  1  0  0  0  0 
 11 35  1  0  0  0  0 
 11 36  1  0  0  0  0 
 12 37  1  0  0  0  0 
 12 38  1  0  0  0  0 
 13 39  1  0  0  0  0 
 13 40  1  0  0  0  0 
 14 41  1  0  0  0  0 
 14 42  1  0  0  0  0 
 16 43  1  0  0  0  0 
 16 44  1  0  0  0  0 
 17 45  1  0  0  0  0 
 17 46  1  0  0  0  0 
 18 47  1  0  0  0  0 
 18 48  1  0  0  0  0 
 19 49  1  0  0  0  0 
 20 50  1  0  0  0  0 
 20 51  1  0  0  0  0 
 21 52  1  0  0  0  0 
 21 53  1  0  0  0  0 
M  END
> <cdk:Title>
tedisamil

> <Conformer>
1

> <SuperDrugID>
SD003689

$$$$
