benzatropine
  CDK     0628171801

 48 51  0  0  0  0  0  0  0  0999 V2000
   -8.0633    1.0447    0.2022 C   0  0  0  0  0  0  0  0  0  0  0  0
   -8.2231   -0.3502    0.2726 C   0  0  0  0  0  0  0  0  0  0  0  0
   -7.1760   -1.1553    0.7572 C   0  0  0  0  0  0  0  0  0  0  0  0
   -5.9473   -0.5852    1.1734 C   0  0  0  0  0  0  0  0  0  0  0  0
   -5.8007    0.8221    1.0882 C   0  0  0  0  0  0  0  0  0  0  0  0
   -6.8502    1.6290    0.6080 C   0  0  0  0  0  0  0  0  0  0  0  0
   -4.8648   -1.4808    1.6920 C   0  0  2  0  0  0  0  0  0  0  0  0
   -5.2704   -2.0522    3.0109 C   0  0  0  0  0  0  0  0  0  0  0  0
   -3.5958   -0.7845    1.8151 O   0  0  0  0  0  0  0  0  0  0  0  0
   -5.4673   -3.4444    3.1824 C   0  0  0  0  0  0  0  0  0  0  0  0
   -5.8585   -3.9670    4.4299 C   0  0  0  0  0  0  0  0  0  0  0  0
   -6.0360   -3.1079    5.5283 C   0  0  0  0  0  0  0  0  0  0  0  0
   -5.8340   -1.7267    5.3801 C   0  0  0  0  0  0  0  0  0  0  0  0
   -5.4573   -1.2031    4.1309 C   0  0  0  0  0  0  0  0  0  0  0  0
   -0.9867   -1.0855    3.8704 C   0  0  2  0  0  0  0  0  0  0  0  0
    0.1374   -0.7095    2.9743 N   0  0  1  0  0  0  0  0  0  0  0  0
   -0.5009    0.2714    2.0584 C   0  0  1  0  0  0  0  0  0  0  0  0
   -1.3055   -0.5833    1.0281 C   0  0  2  0  0  0  0  0  0  0  0  0
   -1.8573   -2.0987    3.0635 C   0  0  1  0  0  0  0  0  0  0  0  0
   -1.7070    0.2512    4.1886 C   0  0  2  0  0  0  0  0  0  0  0  0
   -1.3862    1.1560    2.9758 C   0  0  1  0  0  0  0  0  0  0  0  0
    1.3987   -0.2925    3.6426 C   0  0  0  0  0  0  0  0  0  0  0  0
   -2.3590   -1.5342    1.6900 C   0  0  1  0  0  0  0  0  0  0  0  0
   -0.6389   -1.5679    4.7891 H   0  0  0  0  0  0  0  0  0  0  0  0
    0.2366    0.8766    1.5199 H   0  0  0  0  0  0  0  0  0  0  0  0
   -8.8255    1.6312   -0.1429 H   0  0  0  0  0  0  0  0  0  0  0  0
   -9.1015   -0.7805   -0.0260 H   0  0  0  0  0  0  0  0  0  0  0  0
   -7.3191   -2.1687    0.8024 H   0  0  0  0  0  0  0  0  0  0  0  0
   -4.9324    1.2794    1.3787 H   0  0  0  0  0  0  0  0  0  0  0  0
   -6.7335    2.6436    0.5568 H   0  0  0  0  0  0  0  0  0  0  0  0
   -4.7590   -2.2719    0.9415 H   0  0  0  0  0  0  0  0  0  0  0  0
   -5.3287   -4.0914    2.4026 H   0  0  0  0  0  0  0  0  0  0  0  0
   -6.0145   -4.9710    4.5382 H   0  0  0  0  0  0  0  0  0  0  0  0
   -6.3154   -3.4886    6.4344 H   0  0  0  0  0  0  0  0  0  0  0  0
   -5.9593   -1.1022    6.1809 H   0  0  0  0  0  0  0  0  0  0  0  0
   -5.3160   -0.1947    4.0428 H   0  0  0  0  0  0  0  0  0  0  0  0
   -0.5868   -1.1911    0.4713 H   0  0  0  0  0  0  0  0  0  0  0  0
   -1.7914    0.0741    0.3021 H   0  0  0  0  0  0  0  0  0  0  0  0
   -1.2434   -2.9830    2.8711 H   0  0  0  0  0  0  0  0  0  0  0  0
   -2.6915   -2.4286    3.6812 H   0  0  0  0  0  0  0  0  0  0  0  0
   -1.3031    0.6865    5.1086 H   0  0  0  0  0  0  0  0  0  0  0  0
   -2.7815    0.1155    4.3205 H   0  0  0  0  0  0  0  0  0  0  0  0
   -0.8263    2.0350    3.3033 H   0  0  0  0  0  0  0  0  0  0  0  0
   -2.2901    1.5012    2.4671 H   0  0  0  0  0  0  0  0  0  0  0  0
    1.8063   -1.1416    4.1964 H   0  0  0  0  0  0  0  0  0  0  0  0
    1.2435    0.5405    4.3299 H   0  0  0  0  0  0  0  0  0  0  0  0
    2.1347    0.0033    2.8929 H   0  0  0  0  0  0  0  0  0  0  0  0
   -2.4980   -2.3763    1.0023 H   0  0  0  0  0  0  0  0  0  0  0  0
  1  2  2  0  0  0  0 
  1  6  1  0  0  0  0 
  2  3  1  0  0  0  0 
  3  4  2  0  0  0  0 
  4  5  1  0  0  0  0 
  5  6  2  0  0  0  0 
  4  7  1  0  0  0  0 
  7  8  1  0  0  0  0 
  7  9  1  0  0  0  0 
 10 11  1  0  0  0  0 
 11 12  2  0  0  0  0 
 12 13  1  0  0  0  0 
 13 14  2  0  0  0  0 
  8 10  2  0  0  0  0 
  8 14  1  0  0  0  0 
 15 16  1  0  0  0  0 
 15 19  1  0  0  0  0 
 16 17  1  0  0  0  0 
 17 18  1  0  0  0  0 
 15 20  1  0  0  0  0 
 17 21  1  0  0  0  0 
 20 21  1  0  0  0  0 
 16 22  1  0  0  0  0 
 23  9  1  0  0  0  0 
 18 23  1  0  0  0  0 
 23 19  1  0  0  0  0 
 15 24  1  0  0  0  0 
 17 25  1  0  0  0  0 
  1 26  1  0  0  0  0 
  2 27  1  0  0  0  0 
  3 28  1  0  0  0  0 
  5 29  1  0  0  0  0 
  6 30  1  0  0  0  0 
  7 31  1  0  0  0  0 
 10 32  1  0  0  0  0 
 11 33  1  0  0  0  0 
 12 34  1  0  0  0  0 
 13 35  1  0  0  0  0 
 14 36  1  0  0  0  0 
 18 37  1  0  0  0  0 
 18 38  1  0  0  0  0 
 19 39  1  0  0  0  0 
 19 40  1  0  0  0  0 
 20 41  1  0  0  0  0 
 20 42  1  0  0  0  0 
 21 43  1  0  0  0  0 
 21 44  1  0  0  0  0 
 22 45  1  0  0  0  0 
 22 46  1  0  0  0  0 
 22 47  1  0  0  0  0 
 23 48  1  0  0  0  0 
M  END
> <cdk:Title>
benzatropine

> <Conformer>
1

> <SuperDrugID>
SD000281

$$$$
