clobenoside
  CDK     0628171802

 65 67  0  0  0  0  0  0  0  0999 V2000
   -1.5962    0.4215    1.8963 C   0  0  2  0  0  0  0  0  0  0  0  0
   -0.2588    0.2201    1.3708 O   0  0  0  0  0  0  0  0  0  0  0  0
   -0.1467   -0.5147    0.1317 C   0  0  2  0  0  0  0  0  0  0  0  0
    1.2724   -0.6036   -0.2964 C   0  0  0  0  0  0  0  0  0  0  0  0
    2.2078   -1.2982    0.5048 C   0  0  0  0  0  0  0  0  0  0  0  0
    3.5446   -1.4417    0.0907 C   0  0  0  0  0  0  0  0  0  0  0  0
    3.9694   -0.8881   -1.1311 C   0  0  0  0  0  0  0  0  0  0  0  0
    3.0542   -0.1791   -1.9309 C   0  0  0  0  0  0  0  0  0  0  0  0
    1.7177   -0.0375   -1.5147 C   0  0  0  0  0  0  0  0  0  0  0  0
    5.5712   -1.0870   -1.6396 Cl  0  0  0  0  0  0  0  0  0  0  0  0
   -1.5376    1.7072    2.7601 C   0  0  1  0  0  0  0  0  0  0  0  0
   -1.2509    2.8849    1.9726 O   0  0  0  0  0  0  0  0  0  0  0  0
   -1.3688    4.1078    2.7321 C   0  0  2  0  0  0  0  0  0  0  0  0
   -1.0505    5.3004    1.9079 C   0  0  0  0  0  0  0  0  0  0  0  0
   -2.0801    6.0337    1.2730 C   0  0  0  0  0  0  0  0  0  0  0  0
   -1.7965    7.2330    0.5936 C   0  0  0  0  0  0  0  0  0  0  0  0
   -0.4744    7.7109    0.5254 C   0  0  0  0  0  0  0  0  0  0  0  0
    0.5663    6.9635    1.1092 C   0  0  0  0  0  0  0  0  0  0  0  0
    0.2813    5.7616    1.7858 C   0  0  0  0  0  0  0  0  0  0  0  0
   -0.1413    9.1812   -0.2450 Cl  0  0  0  0  0  0  0  0  0  0  0  0
   -2.1041   -0.8552    2.6627 C   0  0  2  0  0  0  0  0  0  0  0  0
   -3.5650   -0.8852    3.2025 C   0  0  2  0  0  0  0  0  0  0  0  0
   -4.4855   -0.0334    2.4742 O   0  0  0  0  0  0  0  0  0  0  0  0
   -4.9310   -0.5594    1.1995 C   0  0  2  0  0  0  0  0  0  0  0  0
   -5.5127    0.5799    0.3233 C   0  0  2  0  0  0  0  0  0  0  0  0
   -5.7497    0.1734   -1.1514 C   0  0  0  0  0  0  0  0  0  0  0  0
   -3.4265   -0.4748    4.6844 C   0  0  2  0  0  0  0  0  0  0  0  0
   -1.9121   -0.8858    5.0061 C   0  0  1  0  0  0  0  0  0  0  0  0
   -1.2468   -1.1723    3.7648 O   0  0  0  0  0  0  0  0  0  0  0  0
   -1.2798    0.1979    5.7157 O   0  0  0  0  0  0  0  0  0  0  0  0
    0.1079   -0.0076    6.0446 C   0  0  2  0  0  0  0  0  0  0  0  0
    0.6909    1.2967    6.6169 C   0  0  0  0  0  0  0  0  0  0  0  0
   -4.4570   -1.1188    5.4828 O   0  0  0  0  0  0  0  0  0  0  0  0
   -2.0227   -1.6902    1.9651 H   0  0  0  0  0  0  0  0  0  0  0  0
   -2.2801    0.6343    1.0710 H   0  0  0  0  0  0  0  0  0  0  0  0
   -0.7482   -0.0218   -0.6368 H   0  0  0  0  0  0  0  0  0  0  0  0
   -0.5206   -1.5342    0.2469 H   0  0  0  0  0  0  0  0  0  0  0  0
    1.9166   -1.7122    1.3921 H   0  0  0  0  0  0  0  0  0  0  0  0
    4.2027   -1.9549    0.6812 H   0  0  0  0  0  0  0  0  0  0  0  0
    3.3539    0.2304   -2.8200 H   0  0  0  0  0  0  0  0  0  0  0  0
    1.0693    0.4765   -2.1142 H   0  0  0  0  0  0  0  0  0  0  0  0
   -2.5011    1.8347    3.2480 H   0  0  0  0  0  0  0  0  0  0  0  0
   -0.7655    1.5942    3.5222 H   0  0  0  0  0  0  0  0  0  0  0  0
   -0.7005    4.0844    3.5983 H   0  0  0  0  0  0  0  0  0  0  0  0
   -2.3872    4.2041    3.1216 H   0  0  0  0  0  0  0  0  0  0  0  0
   -3.0480    5.7047    1.3117 H   0  0  0  0  0  0  0  0  0  0  0  0
   -2.5586    7.7572    0.1570 H   0  0  0  0  0  0  0  0  0  0  0  0
    1.5327    7.2939    1.0509 H   0  0  0  0  0  0  0  0  0  0  0  0
    1.0511    5.2327    2.2033 H   0  0  0  0  0  0  0  0  0  0  0  0
   -3.9250   -1.9255    3.1881 H   0  0  0  0  0  0  0  0  0  0  0  0
   -5.7002   -1.3151    1.3749 H   0  0  0  0  0  0  0  0  0  0  0  0
   -4.1091   -1.0331    0.6558 H   0  0  0  0  0  0  0  0  0  0  0  0
   -4.8229    1.4268    0.3384 H   0  0  0  0  0  0  0  0  0  0  0  0
   -6.4588    0.9144    0.7561 H   0  0  0  0  0  0  0  0  0  0  0  0
   -6.1537    1.0225   -1.7096 H   0  0  0  0  0  0  0  0  0  0  0  0
   -6.4599   -0.6535   -1.2165 H   0  0  0  0  0  0  0  0  0  0  0  0
   -4.8082   -0.1273   -1.6177 H   0  0  0  0  0  0  0  0  0  0  0  0
   -3.6790    0.6151    4.7722 H   0  0  0  0  0  0  0  0  0  0  0  0
   -1.9163   -1.7899    5.6231 H   0  0  0  0  0  0  0  0  0  0  0  0
    0.6875   -0.2711    5.1566 H   0  0  0  0  0  0  0  0  0  0  0  0
    0.2085   -0.8077    6.7825 H   0  0  0  0  0  0  0  0  0  0  0  0
    0.1732    1.5665    7.5396 H   0  0  0  0  0  0  0  0  0  0  0  0
    1.7538    1.1636    6.8296 H   0  0  0  0  0  0  0  0  0  0  0  0
    0.5761    2.1073    5.8927 H   0  0  0  0  0  0  0  0  0  0  0  0
   -4.3353   -0.7672    6.3921 H   0  0  0  0  0  0  0  0  0  0  0  0
  1  2  1  0  0  0  0 
  1 11  1  0  0  0  0 
 21  1  1  0  0  0  0 
  2  3  1  0  0  0  0 
  3  4  1  0  0  0  0 
  4  5  2  0  0  0  0 
  4  9  1  0  0  0  0 
  5  6  1  0  0  0  0 
  6  7  2  0  0  0  0 
  7 10  1  0  0  0  0 
  8  7  1  0  0  0  0 
  9  8  2  0  0  0  0 
 11 12  1  0  0  0  0 
 12 13  1  0  0  0  0 
 13 14  1  0  0  0  0 
 14 15  2  0  0  0  0 
 14 19  1  0  0  0  0 
 15 16  1  0  0  0  0 
 16 17  2  0  0  0  0 
 17 20  1  0  0  0  0 
 18 17  1  0  0  0  0 
 19 18  2  0  0  0  0 
 22 21  1  0  0  0  0 
 21 29  1  0  0  0  0 
 21 34  1  0  0  0  0 
 22 23  1  0  0  0  0 
 27 22  1  0  0  0  0 
 23 24  1  0  0  0  0 
 24 25  1  0  0  0  0 
 25 26  1  0  0  0  0 
 27 28  1  0  0  0  0 
 27 33  1  0  0  0  0 
 28 30  1  0  0  0  0 
 29 28  1  0  0  0  0 
 30 31  1  0  0  0  0 
 31 32  1  0  0  0  0 
  1 35  1  0  0  0  0 
  3 36  1  0  0  0  0 
  3 37  1  0  0  0  0 
  5 38  1  0  0  0  0 
  6 39  1  0  0  0  0 
  8 40  1  0  0  0  0 
  9 41  1  0  0  0  0 
 11 42  1  0  0  0  0 
 11 43  1  0  0  0  0 
 13 44  1  0  0  0  0 
 13 45  1  0  0  0  0 
 15 46  1  0  0  0  0 
 16 47  1  0  0  0  0 
 18 48  1  0  0  0  0 
 19 49  1  0  0  0  0 
 22 50  1  0  0  0  0 
 24 51  1  0  0  0  0 
 24 52  1  0  0  0  0 
 25 53  1  0  0  0  0 
 25 54  1  0  0  0  0 
 26 55  1  0  0  0  0 
 26 56  1  0  0  0  0 
 26 57  1  0  0  0  0 
 27 58  1  0  0  0  0 
 28 59  1  0  0  0  0 
 31 60  1  0  0  0  0 
 31 61  1  0  0  0  0 
 32 62  1  0  0  0  0 
 32 63  1  0  0  0  0 
 32 64  1  0  0  0  0 
 33 65  1  0  0  0  0 
M  END
> <cdk:Title>
clobenoside

> <Conformer>
1

> <SuperDrugID>
SD000602

$$$$
