vaniprevir
  CDK     0628171802

108113  0  0  0  0  0  0  0  0999 V2000
    0.5889    3.2152   -2.6489 C   0  0  0  0  0  0  0  0  0  0  0  0
    1.1221    4.1880   -3.2310 O   0  0  0  0  0  0  0  0  0  0  0  0
    1.3081    2.3596   -1.8508 N   0  0  0  0  0  0  0  0  0  0  0  0
   -0.7486    2.9957   -2.7581 O   0  0  0  0  0  0  0  0  0  0  0  0
    2.6892    2.5476   -1.5092 C   0  0  1  0  0  0  0  0  0  0  0  0
    2.7178    1.9206   -0.1887 C   0  0  0  0  0  0  0  0  0  0  0  0
    1.5735    1.1516    0.0287 C   0  0  0  0  0  0  0  0  0  0  0  0
    0.6901    1.2721   -1.1354 C   0  0  2  0  0  0  0  0  0  0  0  0
    1.3845    0.4276    1.2359 C   0  0  0  0  0  0  0  0  0  0  0  0
    2.3758    0.5802    2.2400 C   0  0  0  0  0  0  0  0  0  0  0  0
    3.5169    1.3848    2.0295 C   0  0  0  0  0  0  0  0  0  0  0  0
    3.7065    2.0451    0.8012 C   0  0  0  0  0  0  0  0  0  0  0  0
    0.2022   -0.4607    1.4571 C   0  0  1  0  0  0  0  0  0  0  0  0
   -1.0728    0.3090    1.9051 C   0  0  2  0  0  0  0  0  0  0  0  0
   -2.3772   -0.5418    1.8735 C   0  0  1  0  0  0  0  0  0  0  0  0
   -3.6367    0.3147    2.2074 C   0  0  1  0  0  0  0  0  0  0  0  0
   -5.0198   -0.4257    2.3611 C   0  0  1  0  0  0  0  0  0  0  0  0
   -5.4054   -1.2740    1.0994 C   0  0  1  0  0  0  0  0  0  0  0  0
   -4.9992   -1.3691    3.6117 C   0  0  0  0  0  0  0  0  0  0  0  0
   -6.1265    0.6586    2.5936 C   0  0  0  0  0  0  0  0  0  0  0  0
   -5.1680   -0.6242   -0.1594 O   0  0  0  0  0  0  0  0  0  0  0  0
   -6.0805   -0.1987   -1.0861 C   0  0  0  0  0  0  0  0  0  0  0  0
   -5.7200    0.0310   -2.3774 N   0  0  0  0  0  0  0  0  0  0  0  0
   -7.2811   -0.0210   -0.7787 O   0  0  0  0  0  0  0  0  0  0  0  0
   -4.4141   -0.1828   -2.9363 C   0  0  2  0  0  0  0  0  0  0  0  0
   -4.1041    0.9961   -3.8042 C   0  0  0  0  0  0  0  0  0  0  0  0
   -4.2490   -1.6184   -3.6042 C   0  0  1  0  0  0  0  0  0  0  0  0
   -5.3731   -1.9433   -4.6480 C   0  0  0  0  0  0  0  0  0  0  0  0
   -2.8552   -1.7425   -4.3137 C   0  0  0  0  0  0  0  0  0  0  0  0
   -4.3074   -2.7350   -2.5011 C   0  0  0  0  0  0  0  0  0  0  0  0
   -3.4265    2.1176   -3.3650 N   0  0  0  0  0  0  0  0  0  0  0  0
   -4.4697    0.9754   -5.0031 O   0  0  0  0  0  0  0  0  0  0  0  0
   -2.7240    3.0442   -4.2274 C   0  0  1  0  0  0  0  0  0  0  0  0
   -1.8263    3.8173   -3.2370 C   0  0  1  0  0  0  0  0  0  0  0  0
   -2.7773    3.9579   -2.0425 C   0  0  2  0  0  0  0  0  0  0  0  0
   -3.4162    2.5537   -1.9924 C   0  0  1  0  0  0  0  0  0  0  0  0
   -1.9095    2.5180   -5.3493 C   0  0  0  0  0  0  0  0  0  0  0  0
   -1.6649    1.2931   -5.4451 O   0  0  0  0  0  0  0  0  0  0  0  0
   -1.4779    3.4000   -6.2923 N   0  0  0  0  0  0  0  0  0  0  0  0
   -0.9856    3.0346   -7.5794 C   0  0  1  0  0  0  0  0  0  0  0  0
   -2.0650    2.8055   -8.5569 C   0  0  0  0  0  0  0  0  0  0  0  0
    0.3928    3.5958   -8.0125 C   0  0  1  0  0  0  0  0  0  0  0  0
   -2.7780    1.6603   -8.4393 N   0  0  0  0  0  0  0  0  0  0  0  0
   -2.3640    3.7076   -9.3750 O   0  0  0  0  0  0  0  0  0  0  0  0
   -4.2158    1.3222   -9.3030 S   0  0  1  0  0  0  0  0  0  0  0  0
   -5.4043    2.7075   -9.1068 C   0  0  2  0  0  0  0  0  0  0  0  0
   -3.8618    1.1384  -10.8557 O   0  0  0  0  0  0  0  0  0  0  0  0
   -4.8380   -0.0410   -8.7317 O   0  0  0  0  0  0  0  0  0  0  0  0
   -6.3037    2.7323   -7.8624 C   0  0  1  0  0  0  0  0  0  0  0  0
   -6.8991    2.3818   -9.2338 C   0  0  2  0  0  0  0  0  0  0  0  0
    0.2531    2.1119   -7.6374 C   0  0  1  0  0  0  0  0  0  0  0  0
    0.6985    3.9326   -9.4988 C   0  0  2  0  0  0  0  0  0  0  0  0
    2.2058    3.8707   -9.8263 C   0  0  0  0  0  0  0  0  0  0  0  0
    3.3561    2.0253   -2.2029 H   0  0  0  0  0  0  0  0  0  0  0  0
    2.9637    3.6042   -1.4380 H   0  0  0  0  0  0  0  0  0  0  0  0
    0.7524    0.3251   -1.7558 H   0  0  0  0  0  0  0  0  0  0  0  0
   -0.3225    1.6045   -0.7583 H   0  0  0  0  0  0  0  0  0  0  0  0
    2.2733    0.1051    3.1393 H   0  0  0  0  0  0  0  0  0  0  0  0
    4.2120    1.4890    2.7717 H   0  0  0  0  0  0  0  0  0  0  0  0
    4.5388    2.6162    0.6383 H   0  0  0  0  0  0  0  0  0  0  0  0
    0.0031   -1.0164    0.5371 H   0  0  0  0  0  0  0  0  0  0  0  0
    0.4343   -1.2081    2.2225 H   0  0  0  0  0  0  0  0  0  0  0  0
   -1.2192    1.1794    1.2669 H   0  0  0  0  0  0  0  0  0  0  0  0
   -0.9124    0.6740    2.9236 H   0  0  0  0  0  0  0  0  0  0  0  0
   -2.5005   -0.9735    0.8771 H   0  0  0  0  0  0  0  0  0  0  0  0
   -2.2736   -1.3589    2.5894 H   0  0  0  0  0  0  0  0  0  0  0  0
   -3.4345    0.8592    3.1358 H   0  0  0  0  0  0  0  0  0  0  0  0
   -3.7322    1.0684    1.4196 H   0  0  0  0  0  0  0  0  0  0  0  0
   -4.7974   -2.1797    1.0693 H   0  0  0  0  0  0  0  0  0  0  0  0
   -6.4471   -1.6047    1.1696 H   0  0  0  0  0  0  0  0  0  0  0  0
   -4.7143   -0.8211    4.5126 H   0  0  0  0  0  0  0  0  0  0  0  0
   -5.9837   -1.8118    3.7810 H   0  0  0  0  0  0  0  0  0  0  0  0
   -4.2916   -2.1892    3.4779 H   0  0  0  0  0  0  0  0  0  0  0  0
   -5.8962    1.2700    3.4700 H   0  0  0  0  0  0  0  0  0  0  0  0
   -7.1040    0.1977    2.7566 H   0  0  0  0  0  0  0  0  0  0  0  0
   -6.2076    1.3223    1.7303 H   0  0  0  0  0  0  0  0  0  0  0  0
   -6.4147    0.3412   -2.9797 H   0  0  0  0  0  0  0  0  0  0  0  0
   -3.6752   -0.1563   -2.1314 H   0  0  0  0  0  0  0  0  0  0  0  0
   -5.2542   -2.9550   -5.0454 H   0  0  0  0  0  0  0  0  0  0  0  0
   -5.3490   -1.2626   -5.4976 H   0  0  0  0  0  0  0  0  0  0  0  0
   -6.3623   -1.8788   -4.1904 H   0  0  0  0  0  0  0  0  0  0  0  0
   -2.6613   -2.7687   -4.6361 H   0  0  0  0  0  0  0  0  0  0  0  0
   -2.8101   -1.1148   -5.2042 H   0  0  0  0  0  0  0  0  0  0  0  0
   -2.0474   -1.4410   -3.6427 H   0  0  0  0  0  0  0  0  0  0  0  0
   -4.1253   -3.7254   -2.9287 H   0  0  0  0  0  0  0  0  0  0  0  0
   -5.2880   -2.7663   -2.0222 H   0  0  0  0  0  0  0  0  0  0  0  0
   -3.5542   -2.5641   -1.7282 H   0  0  0  0  0  0  0  0  0  0  0  0
   -3.4792    3.7136   -4.6601 H   0  0  0  0  0  0  0  0  0  0  0  0
   -1.4874    4.7823   -3.6290 H   0  0  0  0  0  0  0  0  0  0  0  0
   -3.5389    4.7181   -2.2490 H   0  0  0  0  0  0  0  0  0  0  0  0
   -2.2420    4.2126   -1.1233 H   0  0  0  0  0  0  0  0  0  0  0  0
   -4.4273    2.6229   -1.5818 H   0  0  0  0  0  0  0  0  0  0  0  0
   -2.8094    1.8894   -1.3683 H   0  0  0  0  0  0  0  0  0  0  0  0
   -1.6118    4.3448   -6.1196 H   0  0  0  0  0  0  0  0  0  0  0  0
    0.9068    4.1875   -7.2503 H   0  0  0  0  0  0  0  0  0  0  0  0
   -2.4779    0.9989   -7.7944 H   0  0  0  0  0  0  0  0  0  0  0  0
   -5.1230    3.6876   -9.4949 H   0  0  0  0  0  0  0  0  0  0  0  0
   -6.2103    1.9010   -7.1623 H   0  0  0  0  0  0  0  0  0  0  0  0
   -6.5694    3.7196   -7.4805 H   0  0  0  0  0  0  0  0  0  0  0  0
   -7.1743    1.3358   -9.3745 H   0  0  0  0  0  0  0  0  0  0  0  0
   -7.5232    3.1563   -9.6815 H   0  0  0  0  0  0  0  0  0  0  0  0
    0.7176    1.8414   -6.6876 H   0  0  0  0  0  0  0  0  0  0  0  0
    0.2987    1.3959   -8.4597 H   0  0  0  0  0  0  0  0  0  0  0  0
    0.3338    4.9419   -9.7021 H   0  0  0  0  0  0  0  0  0  0  0  0
    0.1778    3.2496  -10.1732 H   0  0  0  0  0  0  0  0  0  0  0  0
    2.3623    4.0842  -10.8863 H   0  0  0  0  0  0  0  0  0  0  0  0
    2.7563    4.6072   -9.2379 H   0  0  0  0  0  0  0  0  0  0  0  0
    2.6000    2.8754   -9.6125 H   0  0  0  0  0  0  0  0  0  0  0  0
  1  2  2  0  0  0  0 
  1  3  1  0  0  0  0 
  1  4  1  0  0  0  0 
  5  6  1  0  0  0  0 
  7  8  1  0  0  0  0 
  3  5  1  0  0  0  0 
  3  8  1  0  0  0  0 
  9 10  1  0  0  0  0 
 10 11  2  0  0  0  0 
 11 12  1  0  0  0  0 
  6 12  2  0  0  0  0 
  7  9  2  0  0  0  0 
  6  7  1  0  0  0  0 
  9 13  1  0  0  0  0 
 13 14  1  0  0  0  0 
 14 15  1  0  0  0  0 
 15 16  1  0  0  0  0 
 16 17  1  0  0  0  0 
 17 18  1  0  0  0  0 
 17 19  1  0  0  0  0 
 17 20  1  0  0  0  0 
 18 21  1  0  0  0  0 
 21 22  1  0  0  0  0 
 22 23  1  0  0  0  0 
 22 24  2  0  0  0  0 
 25 23  1  0  0  0  0 
 25 26  1  0  0  0  0 
 25 27  1  0  0  0  0 
 27 28  1  0  0  0  0 
 27 29  1  0  0  0  0 
 27 30  1  0  0  0  0 
 26 31  1  0  0  0  0 
 26 32  2  0  0  0  0 
 33 34  1  0  0  0  0 
 34 35  1  0  0  0  0 
 35 36  1  0  0  0  0 
 33 31  1  0  0  0  0 
 31 36  1  0  0  0  0 
 34  4  1  0  0  0  0 
 33 37  1  0  0  0  0 
 37 38  2  0  0  0  0 
 37 39  1  0  0  0  0 
 40 39  1  0  0  0  0 
 40 41  1  0  0  0  0 
 40 42  1  0  0  0  0 
 41 43  1  0  0  0  0 
 41 44  2  0  0  0  0 
 43 45  1  0  0  0  0 
 45 46  1  0  0  0  0 
 45 47  2  0  0  0  0 
 45 48  2  0  0  0  0 
 49 50  1  0  0  0  0 
 46 49  1  0  0  0  0 
 50 46  1  0  0  0  0 
 42 51  1  0  0  0  0 
 40 51  1  0  0  0  0 
 42 52  1  0  0  0  0 
 52 53  1  0  0  0  0 
 54  5  1  0  0  0  0 
 55  5  1  0  0  0  0 
 56  8  1  0  0  0  0 
 57  8  1  0  0  0  0 
 58 10  1  0  0  0  0 
 59 11  1  0  0  0  0 
 60 12  1  0  0  0  0 
 61 13  1  0  0  0  0 
 62 13  1  0  0  0  0 
 63 14  1  0  0  0  0 
 64 14  1  0  0  0  0 
 65 15  1  0  0  0  0 
 66 15  1  0  0  0  0 
 67 16  1  0  0  0  0 
 68 16  1  0  0  0  0 
 69 18  1  0  0  0  0 
 70 18  1  0  0  0  0 
 71 19  1  0  0  0  0 
 72 19  1  0  0  0  0 
 73 19  1  0  0  0  0 
 74 20  1  0  0  0  0 
 75 20  1  0  0  0  0 
 76 20  1  0  0  0  0 
 77 23  1  0  0  0  0 
 25 78  1  0  0  0  0 
 79 28  1  0  0  0  0 
 80 28  1  0  0  0  0 
 81 28  1  0  0  0  0 
 82 29  1  0  0  0  0 
 83 29  1  0  0  0  0 
 84 29  1  0  0  0  0 
 85 30  1  0  0  0  0 
 86 30  1  0  0  0  0 
 87 30  1  0  0  0  0 
 33 88  1  0  0  0  0 
 34 89  1  0  0  0  0 
 90 35  1  0  0  0  0 
 91 35  1  0  0  0  0 
 92 36  1  0  0  0  0 
 93 36  1  0  0  0  0 
 94 39  1  0  0  0  0 
 42 95  1  0  0  0  0 
 96 43  1  0  0  0  0 
 97 46  1  0  0  0  0 
 98 49  1  0  0  0  0 
 99 49  1  0  0  0  0 
100 50  1  0  0  0  0 
101 50  1  0  0  0  0 
102 51  1  0  0  0  0 
103 51  1  0  0  0  0 
104 52  1  0  0  0  0 
105 52  1  0  0  0  0 
106 53  1  0  0  0  0 
107 53  1  0  0  0  0 
108 53  1  0  0  0  0 
M  END
> <cdk:Title>
vaniprevir

> <Conformer>
1

> <SuperDrugID>
SD003856

$$$$
