phenothrin
  CDK     0628171802

 52 54  0  0  0  0  0  0  0  0999 V2000
   -0.8288   -7.3359    2.8425 C   0  0  0  0  0  0  0  0  0  0  0  0
   -1.8587   -7.3110    3.7183 C   0  0  0  0  0  0  0  0  0  0  0  0
    0.4828   -7.8926    3.1285 C   0  0  2  0  0  0  0  0  0  0  0  0
   -3.1150   -6.6748    3.3278 C   0  0  0  0  0  0  0  0  0  0  0  0
   -1.7845   -7.8923    5.0604 C   0  0  0  0  0  0  0  0  0  0  0  0
    1.4356   -7.0865    4.0522 C   0  0  1  0  0  0  0  0  0  0  0  0
    1.8072   -7.3227    2.5601 C   0  0  2  0  0  0  0  0  0  0  0  0
    1.2795   -5.6648    4.4392 C   0  0  0  0  0  0  0  0  0  0  0  0
    1.7312   -6.1567    1.5348 C   0  0  0  0  0  0  0  0  0  0  0  0
    2.9292   -8.3600    2.2862 C   0  0  0  0  0  0  0  0  0  0  0  0
    0.0530   -5.0669    4.5090 O   0  0  0  0  0  0  0  0  0  0  0  0
    2.3205   -5.0097    4.6814 O   0  0  0  0  0  0  0  0  0  0  0  0
   -0.1884   -3.6792    4.7690 C   0  0  1  0  0  0  0  0  0  0  0  0
   -1.6425   -3.3924    4.7407 C   0  0  0  0  0  0  0  0  0  0  0  0
   -2.4169   -3.5313    5.9142 C   0  0  0  0  0  0  0  0  0  0  0  0
   -2.2803   -2.9604    3.5541 C   0  0  0  0  0  0  0  0  0  0  0  0
   -3.7893   -3.2105    5.9198 C   0  0  0  0  0  0  0  0  0  0  0  0
   -3.6463   -2.6243    3.5548 C   0  0  0  0  0  0  0  0  0  0  0  0
   -4.5205   -3.3548    7.0684 O   0  0  0  0  0  0  0  0  0  0  0  0
   -4.3934   -2.7274    4.7408 C   0  0  0  0  0  0  0  0  0  0  0  0
   -5.0680   -4.6071    7.1373 C   0  0  0  0  0  0  0  0  0  0  0  0
   -4.3646   -5.6659    7.7521 C   0  0  0  0  0  0  0  0  0  0  0  0
   -6.3495   -4.8462    6.5978 C   0  0  0  0  0  0  0  0  0  0  0  0
   -4.9187   -6.9581    7.7874 C   0  0  0  0  0  0  0  0  0  0  0  0
   -6.9038   -6.1376    6.6325 C   0  0  0  0  0  0  0  0  0  0  0  0
   -6.1871   -7.1940    7.2249 C   0  0  0  0  0  0  0  0  0  0  0  0
   -0.9656   -6.9653    1.9293 H   0  0  0  0  0  0  0  0  0  0  0  0
    0.5107   -8.9703    3.2981 H   0  0  0  0  0  0  0  0  0  0  0  0
   -3.7582   -7.4113    2.8439 H   0  0  0  0  0  0  0  0  0  0  0  0
   -2.9493   -5.8445    2.6389 H   0  0  0  0  0  0  0  0  0  0  0  0
   -3.6426   -6.2678    4.1933 H   0  0  0  0  0  0  0  0  0  0  0  0
   -1.4204   -7.1414    5.7636 H   0  0  0  0  0  0  0  0  0  0  0  0
   -1.1263   -8.7613    5.1000 H   0  0  0  0  0  0  0  0  0  0  0  0
   -2.7660   -8.2344    5.3964 H   0  0  0  0  0  0  0  0  0  0  0  0
    1.9782   -7.7092    4.7677 H   0  0  0  0  0  0  0  0  0  0  0  0
    0.9603   -5.4281    1.7833 H   0  0  0  0  0  0  0  0  0  0  0  0
    1.5169   -6.5532    0.5421 H   0  0  0  0  0  0  0  0  0  0  0  0
    2.6899   -5.6389    1.5124 H   0  0  0  0  0  0  0  0  0  0  0  0
    3.8965   -7.8560    2.2722 H   0  0  0  0  0  0  0  0  0  0  0  0
    2.9623   -9.1415    3.0474 H   0  0  0  0  0  0  0  0  0  0  0  0
    2.7660   -8.8343    1.3168 H   0  0  0  0  0  0  0  0  0  0  0  0
    0.2318   -3.4079    5.7414 H   0  0  0  0  0  0  0  0  0  0  0  0
    0.3282   -3.0833    4.0114 H   0  0  0  0  0  0  0  0  0  0  0  0
   -1.9819   -3.8657    6.7768 H   0  0  0  0  0  0  0  0  0  0  0  0
   -1.7512   -2.8812    2.6823 H   0  0  0  0  0  0  0  0  0  0  0  0
   -4.0956   -2.2996    2.6951 H   0  0  0  0  0  0  0  0  0  0  0  0
   -5.3788   -2.4592    4.7415 H   0  0  0  0  0  0  0  0  0  0  0  0
   -3.4469   -5.4982    8.1694 H   0  0  0  0  0  0  0  0  0  0  0  0
   -6.8765   -4.0802    6.1740 H   0  0  0  0  0  0  0  0  0  0  0  0
   -4.4013   -7.7246    8.2239 H   0  0  0  0  0  0  0  0  0  0  0  0
   -7.8281   -6.3066    6.2296 H   0  0  0  0  0  0  0  0  0  0  0  0
   -6.5904   -8.1321    7.2504 H   0  0  0  0  0  0  0  0  0  0  0  0
  1  2  2  0  0  0  0 
  1  3  1  0  0  0  0 
  2  4  1  0  0  0  0 
  2  5  1  0  0  0  0 
  3  6  1  0  0  0  0 
  3  7  1  0  0  0  0 
  6  7  1  0  0  0  0 
  6  8  1  0  0  0  0 
  7  9  1  0  0  0  0 
  7 10  1  0  0  0  0 
  8 11  1  0  0  0  0 
  8 12  2  0  0  0  0 
 11 13  1  0  0  0  0 
 13 14  1  0  0  0  0 
 14 15  2  0  0  0  0 
 14 16  1  0  0  0  0 
 15 17  1  0  0  0  0 
 16 18  2  0  0  0  0 
 17 19  1  0  0  0  0 
 17 20  2  0  0  0  0 
 18 20  1  0  0  0  0 
 19 21  1  0  0  0  0 
 21 22  2  0  0  0  0 
 21 23  1  0  0  0  0 
 22 24  1  0  0  0  0 
 23 25  2  0  0  0  0 
 24 26  2  0  0  0  0 
 25 26  1  0  0  0  0 
  1 27  1  0  0  0  0 
  3 28  1  0  0  0  0 
  4 29  1  0  0  0  0 
  4 30  1  0  0  0  0 
  4 31  1  0  0  0  0 
  5 32  1  0  0  0  0 
  5 33  1  0  0  0  0 
  5 34  1  0  0  0  0 
  6 35  1  0  0  0  0 
  9 36  1  0  0  0  0 
  9 37  1  0  0  0  0 
  9 38  1  0  0  0  0 
 10 39  1  0  0  0  0 
 10 40  1  0  0  0  0 
 10 41  1  0  0  0  0 
 13 42  1  0  0  0  0 
 13 43  1  0  0  0  0 
 15 44  1  0  0  0  0 
 16 45  1  0  0  0  0 
 18 46  1  0  0  0  0 
 20 47  1  0  0  0  0 
 22 48  1  0  0  0  0 
 23 49  1  0  0  0  0 
 24 50  1  0  0  0  0 
 25 51  1  0  0  0  0 
 26 52  1  0  0  0  0 
M  END
> <cdk:Title>
phenothrin

> <Conformer>
1

> <SuperDrugID>
SD003716

$$$$
