vinblastine
  CDK     0628171801

117125  0  0  0  0  0  0  0  0999 V2000
   -6.8521    2.6567    1.5222 C   0  0  2  0  0  0  0  0  0  0  0  0
   -7.6140    3.1855    2.7732 C   0  0  0  0  0  0  0  0  0  0  0  0
   -7.6874    2.0152    0.3408 C   0  0  1  0  0  0  0  0  0  0  0  0
   -6.6763    1.6463   -0.8204 C   0  0  1  0  0  0  0  0  0  0  0  0
   -8.5426    0.7334    0.7171 C   0  0  1  0  0  0  0  0  0  0  0  0
   -8.6478    3.0525   -0.1206 C   0  0  0  0  0  0  0  0  0  0  0  0
   -5.9370    0.2682   -0.7928 C   0  0  2  0  0  0  0  0  0  0  0  0
   -7.4267    1.5731   -2.0980 N   0  0  2  0  0  0  0  0  0  0  0  0
   -9.4499    0.4419   -0.3775 O   0  0  0  0  0  0  0  0  0  0  0  0
   -7.7656   -0.6121    0.9711 C   0  0  1  0  0  0  0  0  0  0  0  0
   -8.8301    3.4255   -1.4000 C   0  0  0  0  0  0  0  0  0  0  0  0
   -6.8019   -0.9298   -0.2485 C   0  0  2  0  0  0  0  0  0  0  0  0
   -4.7132    0.0752    0.0224 C   0  0  0  0  0  0  0  0  0  0  0  0
   -5.5528    0.1045   -2.3034 C   0  0  1  0  0  0  0  0  0  0  0  0
   -6.6208    0.8681   -3.1093 C   0  0  1  0  0  0  0  0  0  0  0  0
   -8.0974    2.8384   -2.5039 C   0  0  2  0  0  0  0  0  0  0  0  0
  -10.8156    0.4030   -0.3831 C   0  0  0  0  0  0  0  0  0  0  0  0
   -7.1703   -0.7783    2.3461 C   0  0  0  0  0  0  0  0  0  0  0  0
   -8.7541   -1.6560    0.9935 O   0  0  0  0  0  0  0  0  0  0  0  0
   -5.7923   -1.8841    0.1142 N   0  0  0  0  0  0  0  0  0  0  0  0
   -4.6933   -1.2158    0.5342 C   0  0  0  0  0  0  0  0  0  0  0  0
   -3.6129    0.9291    0.2278 C   0  0  0  0  0  0  0  0  0  0  0  0
  -11.5174   -0.0411   -1.5942 C   0  0  0  0  0  0  0  0  0  0  0  0
  -11.4861    0.7197    0.6268 O   0  0  0  0  0  0  0  0  0  0  0  0
   -7.0699    0.2262    3.2617 O   0  0  0  0  0  0  0  0  0  0  0  0
   -6.7751   -1.9130    2.7137 O   0  0  0  0  0  0  0  0  0  0  0  0
   -5.9471   -3.3062   -0.0016 C   0  0  0  0  0  0  0  0  0  0  0  0
   -3.6657   -1.6229    1.3930 C   0  0  0  0  0  0  0  0  0  0  0  0
   -2.4752    0.5334    1.0038 C   0  0  0  0  0  0  0  0  0  0  0  0
   -6.4524    0.1445    4.5532 C   0  0  0  0  0  0  0  0  0  0  0  0
   -2.6151   -0.7272    1.6874 C   0  0  0  0  0  0  0  0  0  0  0  0
   -1.2111    1.4331    1.1239 C   0  0  2  0  0  0  0  0  0  0  0  0
   -1.7277   -1.1720    2.6322 O   0  0  0  0  0  0  0  0  0  0  0  0
   -0.0694    0.4601    1.1570 C   0  0  0  0  0  0  0  0  0  0  0  0
   -1.4094    2.3199    2.3432 C   0  0  0  0  0  0  0  0  0  0  0  0
   -1.0474    2.3630   -0.1582 C   0  0  1  0  0  0  0  0  0  0  0  0
   -2.1176   -0.8758    3.9862 C   0  0  0  0  0  0  0  0  0  0  0  0
    0.1611   -0.3158    0.0521 O   0  0  0  0  0  0  0  0  0  0  0  0
    0.5685    0.2055    2.2053 O   0  0  0  0  0  0  0  0  0  0  0  0
   -0.5252    3.0371    3.1956 C   0  0  0  0  0  0  0  0  0  0  0  0
   -2.6614    2.6150    2.7697 N   0  0  0  0  0  0  0  0  0  0  0  0
    0.1937    3.2532   -0.5611 C   0  0  1  0  0  0  0  0  0  0  0  0
    1.0785   -1.4064   -0.0751 C   0  0  0  0  0  0  0  0  0  0  0  0
   -1.3271    3.7287    4.1156 C   0  0  0  0  0  0  0  0  0  0  0  0
    0.9598    3.1308    3.2289 C   0  0  1  0  0  0  0  0  0  0  0  0
   -2.6477    3.4319    3.8179 C   0  0  0  0  0  0  0  0  0  0  0  0
    0.4648    4.5109    0.3191 C   0  0  2  0  0  0  0  0  0  0  0  0
    1.4927    2.5543   -1.1050 C   0  0  2  0  0  0  0  0  0  0  0  0
   -1.0290    4.5904    5.1941 C   0  0  0  0  0  0  0  0  0  0  0  0
    1.5263    4.4490    2.6499 C   0  0  2  0  0  0  0  0  0  0  0  0
   -3.7199    3.9527    4.5548 C   0  0  0  0  0  0  0  0  0  0  0  0
    1.6679    4.3936    1.1715 N   0  0  0  0  0  0  0  0  0  0  0  0
    2.7874    2.5854   -0.2200 C   0  0  2  0  0  0  0  0  0  0  0  0
   -2.0939    5.1314    5.9503 C   0  0  0  0  0  0  0  0  0  0  0  0
   -3.4334    4.8113    5.6337 C   0  0  0  0  0  0  0  0  0  0  0  0
    2.9312    3.9484    0.5213 C   0  0  2  0  0  0  0  0  0  0  0  0
    4.0531    2.2614   -1.0964 C   0  0  2  0  0  0  0  0  0  0  0  0
    2.7069    1.5570    0.7563 O   0  0  0  0  0  0  0  0  0  0  0  0
    5.3709    2.0063   -0.3214 C   0  0  0  0  0  0  0  0  0  0  0  0
   -5.9282    2.4438   -0.9267 H   0  0  0  0  0  0  0  0  0  0  0  0
   -7.4072   -1.3185   -1.0762 H   0  0  0  0  0  0  0  0  0  0  0  0
   -0.2124    3.7102   -1.4764 H   0  0  0  0  0  0  0  0  0  0  0  0
   -6.0930    1.9497    1.8527 H   0  0  0  0  0  0  0  0  0  0  0  0
   -6.2928    3.5158    1.1382 H   0  0  0  0  0  0  0  0  0  0  0  0
   -6.9048    3.4243    3.5651 H   0  0  0  0  0  0  0  0  0  0  0  0
   -8.1617    4.0999    2.5435 H   0  0  0  0  0  0  0  0  0  0  0  0
   -8.3170    2.4543    3.1642 H   0  0  0  0  0  0  0  0  0  0  0  0
   -9.1384    0.9495    1.6069 H   0  0  0  0  0  0  0  0  0  0  0  0
   -9.2349    3.4899    0.5518 H   0  0  0  0  0  0  0  0  0  0  0  0
   -9.5065    4.1267   -1.6062 H   0  0  0  0  0  0  0  0  0  0  0  0
   -4.5768    0.5558   -2.5169 H   0  0  0  0  0  0  0  0  0  0  0  0
   -5.5040   -0.9434   -2.6140 H   0  0  0  0  0  0  0  0  0  0  0  0
   -7.2678    0.1775   -3.6553 H   0  0  0  0  0  0  0  0  0  0  0  0
   -6.1494    1.5576   -3.8168 H   0  0  0  0  0  0  0  0  0  0  0  0
   -8.8032    2.6174   -3.3090 H   0  0  0  0  0  0  0  0  0  0  0  0
   -7.3711    3.5697   -2.8703 H   0  0  0  0  0  0  0  0  0  0  0  0
   -9.1366   -1.6927    0.0916 H   0  0  0  0  0  0  0  0  0  0  0  0
   -3.6656    1.8412   -0.2146 H   0  0  0  0  0  0  0  0  0  0  0  0
  -12.1958    0.7396   -1.9419 H   0  0  0  0  0  0  0  0  0  0  0  0
  -10.8090   -0.2783   -2.3892 H   0  0  0  0  0  0  0  0  0  0  0  0
  -12.0908   -0.9402   -1.3663 H   0  0  0  0  0  0  0  0  0  0  0  0
   -6.0239   -3.5717   -1.0569 H   0  0  0  0  0  0  0  0  0  0  0  0
   -6.8535   -3.6365    0.5076 H   0  0  0  0  0  0  0  0  0  0  0  0
   -5.1029   -3.8523    0.4194 H   0  0  0  0  0  0  0  0  0  0  0  0
   -3.6921   -2.5517    1.8201 H   0  0  0  0  0  0  0  0  0  0  0  0
   -5.4151   -0.1781    4.4536 H   0  0  0  0  0  0  0  0  0  0  0  0
   -6.4677    1.1280    5.0178 H   0  0  0  0  0  0  0  0  0  0  0  0
   -6.9893   -0.5596    5.1906 H   0  0  0  0  0  0  0  0  0  0  0  0
   -1.2391    1.7305   -1.0320 H   0  0  0  0  0  0  0  0  0  0  0  0
   -1.8725    3.0836   -0.1248 H   0  0  0  0  0  0  0  0  0  0  0  0
   -1.3163   -1.2112    4.6436 H   0  0  0  0  0  0  0  0  0  0  0  0
   -2.2550    0.1935    4.1461 H   0  0  0  0  0  0  0  0  0  0  0  0
   -3.0315   -1.4035    4.2685 H   0  0  0  0  0  0  0  0  0  0  0  0
   -3.4751    2.2768    2.3675 H   0  0  0  0  0  0  0  0  0  0  0  0
    2.1037   -1.1110    0.1414 H   0  0  0  0  0  0  0  0  0  0  0  0
    1.0295   -1.7789   -1.0958 H   0  0  0  0  0  0  0  0  0  0  0  0
    0.7884   -2.2080    0.6038 H   0  0  0  0  0  0  0  0  0  0  0  0
    1.2886    3.0305    4.2661 H   0  0  0  0  0  0  0  0  0  0  0  0
    1.4284    2.3196    2.7001 H   0  0  0  0  0  0  0  0  0  0  0  0
   -0.4203    4.7524    0.9108 H   0  0  0  0  0  0  0  0  0  0  0  0
    0.6364    5.3815   -0.3226 H   0  0  0  0  0  0  0  0  0  0  0  0
    1.7527    3.0481   -2.0483 H   0  0  0  0  0  0  0  0  0  0  0  0
    1.2649    1.5212   -1.3741 H   0  0  0  0  0  0  0  0  0  0  0  0
   -0.0636    4.8234    5.4342 H   0  0  0  0  0  0  0  0  0  0  0  0
    2.5013    4.6423    3.1007 H   0  0  0  0  0  0  0  0  0  0  0  0
    0.8957    5.3007    2.9195 H   0  0  0  0  0  0  0  0  0  0  0  0
   -4.6788    3.7090    4.3177 H   0  0  0  0  0  0  0  0  0  0  0  0
   -1.8972    5.7567    6.7352 H   0  0  0  0  0  0  0  0  0  0  0  0
   -4.1991    5.1971    6.1916 H   0  0  0  0  0  0  0  0  0  0  0  0
    3.7331    3.8786    1.2606 H   0  0  0  0  0  0  0  0  0  0  0  0
    3.2254    4.7207   -0.1941 H   0  0  0  0  0  0  0  0  0  0  0  0
    4.2274    3.0792   -1.8008 H   0  0  0  0  0  0  0  0  0  0  0  0
    3.8576    1.3678   -1.6997 H   0  0  0  0  0  0  0  0  0  0  0  0
    2.7252    0.7266    0.2407 H   0  0  0  0  0  0  0  0  0  0  0  0
    6.1808    1.8111   -1.0270 H   0  0  0  0  0  0  0  0  0  0  0  0
    5.6479    2.8704    0.2826 H   0  0  0  0  0  0  0  0  0  0  0  0
    5.2642    1.1378    0.3290 H   0  0  0  0  0  0  0  0  0  0  0  0
  1  2  1  0  0  0  0 
  3  1  1  0  0  0  0 
  4  3  1  0  0  0  0 
  5  3  1  0  0  0  0 
  3  6  1  0  0  0  0 
  7  4  1  0  0  0  0 
  4  8  1  0  0  0  0 
  4 60  1  0  0  0  0 
  5  9  1  0  0  0  0 
 10  5  1  0  0  0  0 
  6 11  2  0  0  0  0 
 12  7  1  0  0  0  0 
  7 13  1  0  0  0  0 
  7 14  1  0  0  0  0 
  8 15  1  0  0  0  0 
  8 16  1  0  0  0  0 
  9 17  1  0  0  0  0 
 12 10  1  0  0  0  0 
 10 18  1  0  0  0  0 
 10 19  1  0  0  0  0 
 11 16  1  0  0  0  0 
 12 20  1  0  0  0  0 
 12 61  1  0  0  0  0 
 13 21  2  0  0  0  0 
 13 22  1  0  0  0  0 
 14 15  1  0  0  0  0 
 17 23  1  0  0  0  0 
 17 24  2  0  0  0  0 
 18 25  1  0  0  0  0 
 18 26  2  0  0  0  0 
 20 21  1  0  0  0  0 
 20 27  1  0  0  0  0 
 21 28  1  0  0  0  0 
 22 29  2  0  0  0  0 
 25 30  1  0  0  0  0 
 28 31  2  0  0  0  0 
 29 31  1  0  0  0  0 
 32 29  1  0  0  0  0 
 31 33  1  0  0  0  0 
 32 34  1  0  0  0  0 
 32 35  1  0  0  0  0 
 32 36  1  0  0  0  0 
 33 37  1  0  0  0  0 
 34 38  1  0  0  0  0 
 34 39  2  0  0  0  0 
 35 40  2  0  0  0  0 
 35 41  1  0  0  0  0 
 42 36  1  0  0  0  0 
 38 43  1  0  0  0  0 
 40 44  1  0  0  0  0 
 40 45  1  0  0  0  0 
 41 46  1  0  0  0  0 
 42 47  1  0  0  0  0 
 42 48  1  0  0  0  0 
 42 62  1  0  0  0  0 
 44 46  1  0  0  0  0 
 44 49  2  0  0  0  0 
 45 50  1  0  0  0  0 
 46 51  2  0  0  0  0 
 53 48  1  0  0  0  0 
 49 54  1  0  0  0  0 
 52 50  1  0  0  0  0 
 51 55  1  0  0  0  0 
 52 47  1  0  0  0  0 
 52 56  1  0  0  0  0 
 53 56  1  0  0  0  0 
 53 57  1  0  0  0  0 
 53 58  1  0  0  0  0 
 54 55  2  0  0  0  0 
 57 59  1  0  0  0  0 
  1 63  1  0  0  0  0 
  1 64  1  0  0  0  0 
  2 65  1  0  0  0  0 
  2 66  1  0  0  0  0 
  2 67  1  0  0  0  0 
  5 68  1  0  0  0  0 
  6 69  1  0  0  0  0 
 11 70  1  0  0  0  0 
 14 71  1  0  0  0  0 
 14 72  1  0  0  0  0 
 15 73  1  0  0  0  0 
 15 74  1  0  0  0  0 
 16 75  1  0  0  0  0 
 16 76  1  0  0  0  0 
 19 77  1  0  0  0  0 
 22 78  1  0  0  0  0 
 23 79  1  0  0  0  0 
 23 80  1  0  0  0  0 
 23 81  1  0  0  0  0 
 27 82  1  0  0  0  0 
 27 83  1  0  0  0  0 
 27 84  1  0  0  0  0 
 28 85  1  0  0  0  0 
 30 86  1  0  0  0  0 
 30 87  1  0  0  0  0 
 30 88  1  0  0  0  0 
 36 89  1  0  0  0  0 
 36 90  1  0  0  0  0 
 37 91  1  0  0  0  0 
 37 92  1  0  0  0  0 
 37 93  1  0  0  0  0 
 41 94  1  0  0  0  0 
 43 95  1  0  0  0  0 
 43 96  1  0  0  0  0 
 43 97  1  0  0  0  0 
 45 98  1  0  0  0  0 
 45 99  1  0  0  0  0 
 47100  1  0  0  0  0 
 47101  1  0  0  0  0 
 48102  1  0  0  0  0 
 48103  1  0  0  0  0 
 49104  1  0  0  0  0 
 50105  1  0  0  0  0 
 50106  1  0  0  0  0 
 51107  1  0  0  0  0 
 54108  1  0  0  0  0 
 55109  1  0  0  0  0 
 56110  1  0  0  0  0 
 56111  1  0  0  0  0 
 57112  1  0  0  0  0 
 57113  1  0  0  0  0 
 58114  1  0  0  0  0 
 59115  1  0  0  0  0 
 59116  1  0  0  0  0 
 59117  1  0  0  0  0 
M  END
> <cdk:Title>
vinblastine

> <Conformer>
1

> <SuperDrugID>
SD002546

$$$$
