carazolol
  CDK     0628171802

 44 46  0  0  0  0  0  0  0  0999 V2000
    0.3408   -0.7101    0.0745 O   0  0  0  0  0  0  0  0  0  0  0  0
    0.0662   -1.1435   -1.2748 C   0  0  2  0  0  0  0  0  0  0  0  0
    0.4788    0.6443    0.2029 C   0  0  0  0  0  0  0  0  0  0  0  0
   -0.1430   -2.6824   -1.2997 C   0  0  2  0  0  0  0  0  0  0  0  0
    1.7394    1.2731    0.1407 C   0  0  0  0  0  0  0  0  0  0  0  0
   -0.6554    1.4581    0.4293 C   0  0  0  0  0  0  0  0  0  0  0  0
   -1.3307   -3.1423   -0.4150 C   0  0  2  0  0  0  0  0  0  0  0  0
    1.0454   -3.3397   -0.8563 O   0  0  0  0  0  0  0  0  0  0  0  0
    3.0303    0.7831   -0.0418 C   0  0  0  0  0  0  0  0  0  0  0  0
    1.8644    2.6607    0.2667 C   0  0  0  0  0  0  0  0  0  0  0  0
   -0.5249    2.8566    0.5819 C   0  0  0  0  0  0  0  0  0  0  0  0
   -1.3945   -4.6221   -0.3418 N   0  0  1  0  0  0  0  0  0  0  0  0
    3.8780    1.8952   -0.0667 C   0  0  0  0  0  0  0  0  0  0  0  0
    3.5424   -0.5202   -0.1802 C   0  0  0  0  0  0  0  0  0  0  0  0
    3.1540    3.0107    0.1252 N   0  0  0  0  0  0  0  0  0  0  0  0
    0.7422    3.4708    0.5039 C   0  0  0  0  0  0  0  0  0  0  0  0
   -2.5220   -5.2011    0.4354 C   0  0  1  0  0  0  0  0  0  0  0  0
    5.2617    1.7480   -0.2607 C   0  0  0  0  0  0  0  0  0  0  0  0
    4.9329   -0.6812   -0.3545 C   0  0  0  0  0  0  0  0  0  0  0  0
   -2.5818   -6.7210    0.1358 C   0  0  0  0  0  0  0  0  0  0  0  0
   -2.3825   -4.9368    1.9612 C   0  0  0  0  0  0  0  0  0  0  0  0
    5.7857    0.4450   -0.3995 C   0  0  0  0  0  0  0  0  0  0  0  0
    0.9058   -0.8939   -1.9312 H   0  0  0  0  0  0  0  0  0  0  0  0
   -0.8326   -0.6582   -1.6713 H   0  0  0  0  0  0  0  0  0  0  0  0
   -0.3309   -2.9900   -2.3327 H   0  0  0  0  0  0  0  0  0  0  0  0
   -1.5826    1.0314    0.4825 H   0  0  0  0  0  0  0  0  0  0  0  0
   -2.2617   -2.7478   -0.8288 H   0  0  0  0  0  0  0  0  0  0  0  0
   -1.1956   -2.7378    0.5889 H   0  0  0  0  0  0  0  0  0  0  0  0
    1.7316   -3.1072   -1.5156 H   0  0  0  0  0  0  0  0  0  0  0  0
   -1.3560    3.4279    0.7474 H   0  0  0  0  0  0  0  0  0  0  0  0
   -1.4844   -4.9569   -1.3041 H   0  0  0  0  0  0  0  0  0  0  0  0
    2.9299   -1.3360   -0.1469 H   0  0  0  0  0  0  0  0  0  0  0  0
    3.5024    3.9148    0.1591 H   0  0  0  0  0  0  0  0  0  0  0  0
    0.8409    4.4805    0.6158 H   0  0  0  0  0  0  0  0  0  0  0  0
   -3.4619   -4.7664    0.0825 H   0  0  0  0  0  0  0  0  0  0  0  0
    5.8736    2.5658   -0.2943 H   0  0  0  0  0  0  0  0  0  0  0  0
    5.3260   -1.6198   -0.4465 H   0  0  0  0  0  0  0  0  0  0  0  0
   -2.7012   -6.8942   -0.9365 H   0  0  0  0  0  0  0  0  0  0  0  0
   -1.6683   -7.2178    0.4650 H   0  0  0  0  0  0  0  0  0  0  0  0
   -3.4303   -7.1784    0.6442 H   0  0  0  0  0  0  0  0  0  0  0  0
   -1.3882   -5.2292    2.3058 H   0  0  0  0  0  0  0  0  0  0  0  0
   -2.5337   -3.8783    2.1824 H   0  0  0  0  0  0  0  0  0  0  0  0
   -3.1308   -5.5045    2.5231 H   0  0  0  0  0  0  0  0  0  0  0  0
    6.7908    0.3144   -0.5274 H   0  0  0  0  0  0  0  0  0  0  0  0
  1  2  1  0  0  0  0 
  1  3  1  0  0  0  0 
  4  2  1  0  0  0  0 
  3  5  1  0  0  0  0 
  3  6  2  0  0  0  0 
  4  7  1  0  0  0  0 
  4  8  1  0  0  0  0 
  5  9  1  0  0  0  0 
  5 10  2  0  0  0  0 
  6 11  1  0  0  0  0 
  7 12  1  0  0  0  0 
  9 13  2  0  0  0  0 
  9 14  1  0  0  0  0 
 10 15  1  0  0  0  0 
 10 16  1  0  0  0  0 
 11 16  2  0  0  0  0 
 12 17  1  0  0  0  0 
 13 15  1  0  0  0  0 
 13 18  1  0  0  0  0 
 14 19  2  0  0  0  0 
 17 20  1  0  0  0  0 
 17 21  1  0  0  0  0 
 18 22  2  0  0  0  0 
 19 22  1  0  0  0  0 
  2 23  1  0  0  0  0 
  2 24  1  0  0  0  0 
  4 25  1  0  0  0  0 
  6 26  1  0  0  0  0 
  7 27  1  0  0  0  0 
  7 28  1  0  0  0  0 
  8 29  1  0  0  0  0 
 11 30  1  0  0  0  0 
 12 31  1  0  0  0  0 
 14 32  1  0  0  0  0 
 15 33  1  0  0  0  0 
 16 34  1  0  0  0  0 
 17 35  1  0  0  0  0 
 18 36  1  0  0  0  0 
 19 37  1  0  0  0  0 
 20 38  1  0  0  0  0 
 20 39  1  0  0  0  0 
 20 40  1  0  0  0  0 
 21 41  1  0  0  0  0 
 21 42  1  0  0  0  0 
 21 43  1  0  0  0  0 
 22 44  1  0  0  0  0 
M  END
> <cdk:Title>
carazolol

> <Conformer>
1

> <SuperDrugID>
SD000421

$$$$
