cytarabine ocfosfate
  CDK     0628171802

 89 90  0  0  0  0  0  0  0  0999 V2000
    1.5822    1.3147    5.9430 O   0  0  0  0  0  0  0  0  0  0  0  0
    0.5776    0.4365    5.4363 C   0  0  2  0  0  0  0  0  0  0  0  0
    1.0544   -0.5562    4.3441 C   0  0  1  0  0  0  0  0  0  0  0  0
   -0.5351    1.2201    4.7372 C   0  0  2  0  0  0  0  0  0  0  0  0
    0.0078   -0.6394    3.3568 O   0  0  0  0  0  0  0  0  0  0  0  0
    2.3483   -0.2191    3.7645 N   0  0  0  0  0  0  0  0  0  0  0  0
   -1.5020    1.7017    5.6679 O   0  0  0  0  0  0  0  0  0  0  0  0
   -1.1039    0.1747    3.7560 C   0  0  2  0  0  0  0  0  0  0  0  0
    3.5173   -0.5708    4.3988 C   0  0  0  0  0  0  0  0  0  0  0  0
    2.4349    0.4747    2.5823 C   0  0  0  0  0  0  0  0  0  0  0  0
   -1.7733    0.7949    2.5086 C   0  0  2  0  0  0  0  0  0  0  0  0
    3.5495   -1.1861    5.4901 O   0  0  0  0  0  0  0  0  0  0  0  0
    4.7237   -0.2630    3.8576 N   0  0  0  0  0  0  0  0  0  0  0  0
    3.6751    0.7902    2.0057 C   0  0  0  0  0  0  0  0  0  0  0  0
   -2.2506   -0.2576    1.6445 O   0  0  0  0  0  0  0  0  0  0  0  0
    4.8389    0.3958    2.6819 C   0  0  0  0  0  0  0  0  0  0  0  0
   -2.7138    0.2327    0.1959 P   0  0  2  0  0  0  0  0  0  0  0  0
    6.0580    0.6724    2.1843 N   0  0  0  0  0  0  0  0  0  0  0  0
   -1.4624    0.8692   -0.5701 O   0  0  0  0  0  0  0  0  0  0  0  0
   -3.7854    1.2296    0.3046 O   0  0  0  0  0  0  0  0  0  0  0  0
   -3.2455   -1.0225   -0.6113 O   0  0  0  0  0  0  0  0  0  0  0  0
   -0.3553   -0.0288   -0.7827 C   0  0  1  0  0  0  0  0  0  0  0  0
    0.8577    0.7717   -1.3162 C   0  0  1  0  0  0  0  0  0  0  0  0
    2.0945   -0.1346   -1.5574 C   0  0  1  0  0  0  0  0  0  0  0  0
    3.3185    0.6112   -2.1566 C   0  0  2  0  0  0  0  0  0  0  0  0
    4.5084   -0.3591   -2.3974 C   0  0  1  0  0  0  0  0  0  0  0  0
    5.7478    0.3219   -3.0365 C   0  0  1  0  0  0  0  0  0  0  0  0
    6.9080   -0.6815   -3.2869 C   0  0  2  0  0  0  0  0  0  0  0  0
    8.1477   -0.0034   -3.9291 C   0  0  2  0  0  0  0  0  0  0  0  0
    9.3189   -0.9915   -4.1820 C   0  0  1  0  0  0  0  0  0  0  0  0
   10.5508   -0.2933   -4.8198 C   0  0  2  0  0  0  0  0  0  0  0  0
   11.7273   -1.2742   -5.0731 C   0  0  2  0  0  0  0  0  0  0  0  0
   12.9611   -0.5786   -5.7097 C   0  0  2  0  0  0  0  0  0  0  0  0
   14.1378   -1.5610   -5.9623 C   0  0  2  0  0  0  0  0  0  0  0  0
   15.3698   -0.8617   -6.5991 C   0  0  2  0  0  0  0  0  0  0  0  0
   16.5527   -1.8350   -6.8562 C   0  0  2  0  0  0  0  0  0  0  0  0
   17.7802   -1.1266   -7.4932 C   0  0  1  0  0  0  0  0  0  0  0  0
   18.9655   -2.0954   -7.7523 C   0  0  1  0  0  0  0  0  0  0  0  0
   20.1881   -1.3930   -8.3861 C   0  0  0  0  0  0  0  0  0  0  0  0
    1.0984    1.9294    6.5348 H   0  0  0  0  0  0  0  0  0  0  0  0
    0.1586   -0.1214    6.2791 H   0  0  0  0  0  0  0  0  0  0  0  0
    1.1088   -1.5599    4.7769 H   0  0  0  0  0  0  0  0  0  0  0  0
   -0.0997    2.0674    4.2000 H   0  0  0  0  0  0  0  0  0  0  0  0
   -2.1565    2.1915    5.1277 H   0  0  0  0  0  0  0  0  0  0  0  0
   -1.8247   -0.4608    4.2804 H   0  0  0  0  0  0  0  0  0  0  0  0
    1.5989    0.7873    2.0864 H   0  0  0  0  0  0  0  0  0  0  0  0
   -1.0341    1.4240    2.0035 H   0  0  0  0  0  0  0  0  0  0  0  0
   -2.6104    1.4215    2.8266 H   0  0  0  0  0  0  0  0  0  0  0  0
    3.7220    1.2944    1.1187 H   0  0  0  0  0  0  0  0  0  0  0  0
    6.1407    1.1484    1.3418 H   0  0  0  0  0  0  0  0  0  0  0  0
    6.8580    0.4072    2.6673 H   0  0  0  0  0  0  0  0  0  0  0  0
   -2.4956   -1.6532   -0.6244 H   0  0  0  0  0  0  0  0  0  0  0  0
   -0.0537   -0.5262    0.1456 H   0  0  0  0  0  0  0  0  0  0  0  0
   -0.6316   -0.7890   -1.5207 H   0  0  0  0  0  0  0  0  0  0  0  0
    0.5735    1.2565   -2.2532 H   0  0  0  0  0  0  0  0  0  0  0  0
    1.1132    1.5493   -0.5914 H   0  0  0  0  0  0  0  0  0  0  0  0
    2.3856   -0.5892   -0.6062 H   0  0  0  0  0  0  0  0  0  0  0  0
    1.8060   -0.9382   -2.2407 H   0  0  0  0  0  0  0  0  0  0  0  0
    3.6322    1.4078   -1.4763 H   0  0  0  0  0  0  0  0  0  0  0  0
    3.0311    1.0722   -3.1058 H   0  0  0  0  0  0  0  0  0  0  0  0
    4.8038   -0.8006   -1.4415 H   0  0  0  0  0  0  0  0  0  0  0  0
    4.1768   -1.1667   -3.0559 H   0  0  0  0  0  0  0  0  0  0  0  0
    5.4555    0.7739   -3.9884 H   0  0  0  0  0  0  0  0  0  0  0  0
    6.0980    1.1181   -2.3740 H   0  0  0  0  0  0  0  0  0  0  0  0
    6.5565   -1.4793   -3.9479 H   0  0  0  0  0  0  0  0  0  0  0  0
    7.2014   -1.1349   -2.3356 H   0  0  0  0  0  0  0  0  0  0  0  0
    8.4948    0.7960   -3.2687 H   0  0  0  0  0  0  0  0  0  0  0  0
    7.8514    0.4457   -4.8812 H   0  0  0  0  0  0  0  0  0  0  0  0
    9.6164   -1.4440   -3.2319 H   0  0  0  0  0  0  0  0  0  0  0  0
    8.9763   -1.7899   -4.8462 H   0  0  0  0  0  0  0  0  0  0  0  0
   10.8903    0.5067   -4.1558 H   0  0  0  0  0  0  0  0  0  0  0  0
   10.2521    0.1584   -5.7700 H   0  0  0  0  0  0  0  0  0  0  0  0
   11.3870   -2.0731   -5.7376 H   0  0  0  0  0  0  0  0  0  0  0  0
   12.0246   -1.7253   -4.1224 H   0  0  0  0  0  0  0  0  0  0  0  0
   13.3012    0.2211   -5.0455 H   0  0  0  0  0  0  0  0  0  0  0  0
   12.6640   -0.1267   -6.6604 H   0  0  0  0  0  0  0  0  0  0  0  0
   13.7982   -2.3607   -6.6267 H   0  0  0  0  0  0  0  0  0  0  0  0
   14.4354   -2.0128   -5.0117 H   0  0  0  0  0  0  0  0  0  0  0  0
   15.7064   -0.0618   -5.9336 H   0  0  0  0  0  0  0  0  0  0  0  0
   15.0692   -0.4096   -7.5484 H   0  0  0  0  0  0  0  0  0  0  0  0
   16.2171   -2.6351   -7.5220 H   0  0  0  0  0  0  0  0  0  0  0  0
   16.8543   -2.2873   -5.9073 H   0  0  0  0  0  0  0  0  0  0  0  0
   17.4777   -0.6741   -8.4419 H   0  0  0  0  0  0  0  0  0  0  0  0
   18.1149   -0.3263   -6.8271 H   0  0  0  0  0  0  0  0  0  0  0  0
   19.2778   -2.5489   -6.8077 H   0  0  0  0  0  0  0  0  0  0  0  0
   18.6408   -2.8966   -8.4217 H   0  0  0  0  0  0  0  0  0  0  0  0
   20.9877   -2.1190   -8.5453 H   0  0  0  0  0  0  0  0  0  0  0  0
   19.9209   -0.9542   -9.3494 H   0  0  0  0  0  0  0  0  0  0  0  0
   20.5605   -0.6050   -7.7285 H   0  0  0  0  0  0  0  0  0  0  0  0
  2  1  1  0  0  0  0 
  2  3  1  0  0  0  0 
  4  2  1  0  0  0  0 
  3  5  1  0  0  0  0 
  3  6  1  0  0  0  0 
  4  7  1  0  0  0  0 
  8  4  1  0  0  0  0 
  8  5  1  0  0  0  0 
  6  9  1  0  0  0  0 
  6 10  1  0  0  0  0 
  8 11  1  0  0  0  0 
  9 12  2  0  0  0  0 
  9 13  1  0  0  0  0 
 10 14  2  0  0  0  0 
 11 15  1  0  0  0  0 
 13 16  2  0  0  0  0 
 14 16  1  0  0  0  0 
 15 17  1  0  0  0  0 
 16 18  1  0  0  0  0 
 17 19  1  0  0  0  0 
 17 20  2  0  0  0  0 
 17 21  1  0  0  0  0 
 19 22  1  0  0  0  0 
 22 23  1  0  0  0  0 
 23 24  1  0  0  0  0 
 24 25  1  0  0  0  0 
 25 26  1  0  0  0  0 
 26 27  1  0  0  0  0 
 27 28  1  0  0  0  0 
 28 29  1  0  0  0  0 
 29 30  1  0  0  0  0 
 30 31  1  0  0  0  0 
 31 32  1  0  0  0  0 
 32 33  1  0  0  0  0 
 33 34  1  0  0  0  0 
 34 35  1  0  0  0  0 
 35 36  1  0  0  0  0 
 36 37  1  0  0  0  0 
 37 38  1  0  0  0  0 
 38 39  1  0  0  0  0 
  1 40  1  0  0  0  0 
  2 41  1  0  0  0  0 
  3 42  1  0  0  0  0 
  4 43  1  0  0  0  0 
  7 44  1  0  0  0  0 
  8 45  1  0  0  0  0 
 10 46  1  0  0  0  0 
 11 47  1  0  0  0  0 
 11 48  1  0  0  0  0 
 14 49  1  0  0  0  0 
 18 50  1  0  0  0  0 
 18 51  1  0  0  0  0 
 21 52  1  0  0  0  0 
 22 53  1  0  0  0  0 
 22 54  1  0  0  0  0 
 23 55  1  0  0  0  0 
 23 56  1  0  0  0  0 
 24 57  1  0  0  0  0 
 24 58  1  0  0  0  0 
 25 59  1  0  0  0  0 
 25 60  1  0  0  0  0 
 26 61  1  0  0  0  0 
 26 62  1  0  0  0  0 
 27 63  1  0  0  0  0 
 27 64  1  0  0  0  0 
 28 65  1  0  0  0  0 
 28 66  1  0  0  0  0 
 29 67  1  0  0  0  0 
 29 68  1  0  0  0  0 
 30 69  1  0  0  0  0 
 30 70  1  0  0  0  0 
 31 71  1  0  0  0  0 
 31 72  1  0  0  0  0 
 32 73  1  0  0  0  0 
 32 74  1  0  0  0  0 
 33 75  1  0  0  0  0 
 33 76  1  0  0  0  0 
 34 77  1  0  0  0  0 
 34 78  1  0  0  0  0 
 35 79  1  0  0  0  0 
 35 80  1  0  0  0  0 
 36 81  1  0  0  0  0 
 36 82  1  0  0  0  0 
 37 83  1  0  0  0  0 
 37 84  1  0  0  0  0 
 38 85  1  0  0  0  0 
 38 86  1  0  0  0  0 
 39 87  1  0  0  0  0 
 39 88  1  0  0  0  0 
 39 89  1  0  0  0  0 
M  END
> <cdk:Title>
cytarabine ocfosfate

> <Conformer>
1

> <SuperDrugID>
SD000679

$$$$
