quinine
  CDK     0628171801

 48 51  0  0  0  0  0  0  0  0999 V2000
   -0.0586   -0.1859   -0.3293 C   0  0  2  0  0  0  0  0  0  0  0  0
   -0.1284   -0.4461    1.0708 O   0  0  0  0  0  0  0  0  0  0  0  0
   -0.2250    1.2771   -0.6287 C   0  0  0  0  0  0  0  0  0  0  0  0
   -1.0777   -1.0290   -1.1675 C   0  0  1  0  0  0  0  0  0  0  0  0
   -1.2283    2.1157   -0.0454 C   0  0  0  0  0  0  0  0  0  0  0  0
    0.6405    1.8416   -1.5990 C   0  0  0  0  0  0  0  0  0  0  0  0
   -0.8157   -0.9223   -2.6591 N   0  0  2  0  0  0  0  0  0  0  0  0
   -1.2174   -2.5426   -0.7670 C   0  0  2  0  0  0  0  0  0  0  0  0
   -1.2903    3.4816   -0.4549 C   0  0  0  0  0  0  0  0  0  0  0  0
   -2.1812    1.6870    0.9146 C   0  0  0  0  0  0  0  0  0  0  0  0
    0.5093    3.1846   -1.9769 C   0  0  0  0  0  0  0  0  0  0  0  0
   -2.0470   -1.3693   -3.4060 C   0  0  1  0  0  0  0  0  0  0  0  0
    0.3428   -1.7930   -3.0896 C   0  0  1  0  0  0  0  0  0  0  0  0
   -1.3296   -3.4179   -2.0637 C   0  0  1  0  0  0  0  0  0  0  0  0
   -2.2399    4.3690    0.0881 C   0  0  0  0  0  0  0  0  0  0  0  0
   -0.4359    3.9548   -1.3947 N   0  0  0  0  0  0  0  0  0  0  0  0
   -3.1222    2.5743    1.4753 C   0  0  0  0  0  0  0  0  0  0  0  0
   -2.4402   -2.8540   -3.0332 C   0  0  1  0  0  0  0  0  0  0  0  0
    0.0433   -3.3032   -2.8055 C   0  0  2  0  0  0  0  0  0  0  0  0
   -3.1477    3.9164    1.0578 C   0  0  0  0  0  0  0  0  0  0  0  0
   -3.9835    2.1464    2.4493 O   0  0  0  0  0  0  0  0  0  0  0  0
   -3.8031   -3.0028   -2.5133 C   0  0  0  0  0  0  0  0  0  0  0  0
   -5.1735    1.5306    1.9273 C   0  0  0  0  0  0  0  0  0  0  0  0
   -4.9020   -2.6836   -3.2111 C   0  0  0  0  0  0  0  0  0  0  0  0
   -2.0581   -0.5824   -0.9631 H   0  0  0  0  0  0  0  0  0  0  0  0
    0.9539   -0.5026   -0.5851 H   0  0  0  0  0  0  0  0  0  0  0  0
    0.0642   -1.4020    1.1644 H   0  0  0  0  0  0  0  0  0  0  0  0
    1.3627    1.2768   -2.0517 H   0  0  0  0  0  0  0  0  0  0  0  0
   -2.0981   -2.6865   -0.1354 H   0  0  0  0  0  0  0  0  0  0  0  0
   -0.3559   -2.8786   -0.1857 H   0  0  0  0  0  0  0  0  0  0  0  0
   -2.2178    0.7198    1.2265 H   0  0  0  0  0  0  0  0  0  0  0  0
    1.1211    3.5805   -2.6917 H   0  0  0  0  0  0  0  0  0  0  0  0
   -2.8618   -0.6697   -3.1972 H   0  0  0  0  0  0  0  0  0  0  0  0
   -1.8606   -1.2908   -4.4829 H   0  0  0  0  0  0  0  0  0  0  0  0
    0.5407   -1.6453   -4.1561 H   0  0  0  0  0  0  0  0  0  0  0  0
    1.2620   -1.5005   -2.5783 H   0  0  0  0  0  0  0  0  0  0  0  0
   -1.5284   -4.4635   -1.8066 H   0  0  0  0  0  0  0  0  0  0  0  0
   -2.2761    5.3458   -0.2176 H   0  0  0  0  0  0  0  0  0  0  0  0
   -2.4062   -3.4561   -3.9500 H   0  0  0  0  0  0  0  0  0  0  0  0
    0.8410   -3.7422   -2.1992 H   0  0  0  0  0  0  0  0  0  0  0  0
    0.0069   -3.8594   -3.7477 H   0  0  0  0  0  0  0  0  0  0  0  0
   -3.8275    4.5663    1.4589 H   0  0  0  0  0  0  0  0  0  0  0  0
   -3.9370   -3.3704   -1.5991 H   0  0  0  0  0  0  0  0  0  0  0  0
   -5.7776    1.2084    2.7758 H   0  0  0  0  0  0  0  0  0  0  0  0
   -5.7623    2.2390    1.3378 H   0  0  0  0  0  0  0  0  0  0  0  0
   -4.9406    0.6508    1.3195 H   0  0  0  0  0  0  0  0  0  0  0  0
   -4.8412   -2.3167   -4.1316 H   0  0  0  0  0  0  0  0  0  0  0  0
   -5.8030   -2.8110   -2.8122 H   0  0  0  0  0  0  0  0  0  0  0  0
  1  2  1  0  0  0  0 
  1  3  1  0  0  0  0 
  4  1  1  0  0  0  0 
  3  5  2  0  0  0  0 
  3  6  1  0  0  0  0 
  7  4  1  0  0  0  0 
  4  8  1  0  0  0  0 
  4 25  1  0  0  0  0 
  5  9  1  0  0  0  0 
  5 10  1  0  0  0  0 
  6 11  2  0  0  0  0 
  7 12  1  0  0  0  0 
  7 13  1  0  0  0  0 
 14  8  1  0  0  0  0 
  9 15  1  0  0  0  0 
  9 16  2  0  0  0  0 
 10 17  2  0  0  0  0 
 11 16  1  0  0  0  0 
 18 12  1  0  0  0  0 
 13 19  1  0  0  0  0 
 14 18  1  0  0  0  0 
 14 19  1  0  0  0  0 
 15 20  2  0  0  0  0 
 17 20  1  0  0  0  0 
 17 21  1  0  0  0  0 
 18 22  1  0  0  0  0 
 21 23  1  0  0  0  0 
 22 24  2  0  0  0  0 
  1 26  1  0  0  0  0 
  2 27  1  0  0  0  0 
  6 28  1  0  0  0  0 
  8 29  1  0  0  0  0 
  8 30  1  0  0  0  0 
 10 31  1  0  0  0  0 
 11 32  1  0  0  0  0 
 12 33  1  0  0  0  0 
 12 34  1  0  0  0  0 
 13 35  1  0  0  0  0 
 13 36  1  0  0  0  0 
 14 37  1  0  0  0  0 
 15 38  1  0  0  0  0 
 18 39  1  0  0  0  0 
 19 40  1  0  0  0  0 
 19 41  1  0  0  0  0 
 20 42  1  0  0  0  0 
 22 43  1  0  0  0  0 
 23 44  1  0  0  0  0 
 23 45  1  0  0  0  0 
 23 46  1  0  0  0  0 
 24 47  1  0  0  0  0 
 24 48  1  0  0  0  0 
M  END
> <cdk:Title>
quinine

> <Conformer>
1

> <SuperDrugID>
SD003607

$$$$
