dipipanone
  CDK     0628171802

 57 59  0  0  0  0  0  0  0  0999 V2000
   -2.8963    0.6962    3.0099 C   0  0  2  0  0  0  0  0  0  0  0  0
   -1.4532    1.0799    2.4615 C   0  0  2  0  0  0  0  0  0  0  0  0
   -2.7194   -0.0355    4.3411 C   0  0  0  0  0  0  0  0  0  0  0  0
   -3.6875   -0.2972    2.1603 C   0  0  0  0  0  0  0  0  0  0  0  0
   -3.6657    2.0115    3.1566 C   0  0  0  0  0  0  0  0  0  0  0  0
   -1.2988    2.0286    1.2107 C   0  0  1  0  0  0  0  0  0  0  0  0
   -1.6667   -1.0495    4.6631 C   0  0  1  0  0  0  0  0  0  0  0  0
   -3.5411    0.1671    5.2680 O   0  0  0  0  0  0  0  0  0  0  0  0
   -3.2351   -0.8287    0.9207 C   0  0  0  0  0  0  0  0  0  0  0  0
   -4.9733   -0.7288    2.5997 C   0  0  0  0  0  0  0  0  0  0  0  0
   -4.6047    2.4663    2.1831 C   0  0  0  0  0  0  0  0  0  0  0  0
   -3.4280    2.8840    4.2557 C   0  0  0  0  0  0  0  0  0  0  0  0
   -1.1030    3.5282    1.6015 C   0  0  0  0  0  0  0  0  0  0  0  0
   -0.2138    1.5383    0.2813 N   0  0  2  0  0  0  0  0  0  0  0  0
   -1.8209   -2.3840    3.9007 C   0  0  0  0  0  0  0  0  0  0  0  0
   -4.0057   -1.7485    0.1844 C   0  0  0  0  0  0  0  0  0  0  0  0
   -5.7425   -1.6518    1.8716 C   0  0  0  0  0  0  0  0  0  0  0  0
   -5.2932    3.6843    2.3244 C   0  0  0  0  0  0  0  0  0  0  0  0
   -4.1206    4.0993    4.4079 C   0  0  0  0  0  0  0  0  0  0  0  0
    1.1899    1.5910    0.8111 C   0  0  2  0  0  0  0  0  0  0  0  0
   -0.3042    2.0196   -1.1382 C   0  0  1  0  0  0  0  0  0  0  0  0
   -5.2594   -2.1636    0.6587 C   0  0  0  0  0  0  0  0  0  0  0  0
   -5.0527    4.5018    3.4394 C   0  0  0  0  0  0  0  0  0  0  0  0
    2.1198    0.7065   -0.0544 C   0  0  2  0  0  0  0  0  0  0  0  0
    0.6294    1.2115   -2.0763 C   0  0  1  0  0  0  0  0  0  0  0  0
    2.0814    1.1526   -1.5361 C   0  0  1  0  0  0  0  0  0  0  0  0
   -0.9371    0.1460    2.2258 H   0  0  0  0  0  0  0  0  0  0  0  0
   -0.8768    1.5217    3.2807 H   0  0  0  0  0  0  0  0  0  0  0  0
   -2.2393    1.9681    0.6587 H   0  0  0  0  0  0  0  0  0  0  0  0
   -0.6759   -0.6393    4.4702 H   0  0  0  0  0  0  0  0  0  0  0  0
   -1.6915   -1.2811    5.7338 H   0  0  0  0  0  0  0  0  0  0  0  0
   -2.3355   -0.5621    0.5242 H   0  0  0  0  0  0  0  0  0  0  0  0
   -5.3712   -0.3675    3.4694 H   0  0  0  0  0  0  0  0  0  0  0  0
   -4.7960    1.9237    1.3389 H   0  0  0  0  0  0  0  0  0  0  0  0
   -2.7351    2.6405    4.9649 H   0  0  0  0  0  0  0  0  0  0  0  0
   -0.9144    4.1413    0.7209 H   0  0  0  0  0  0  0  0  0  0  0  0
   -1.9923    3.9262    2.0826 H   0  0  0  0  0  0  0  0  0  0  0  0
   -0.2617    3.6467    2.2867 H   0  0  0  0  0  0  0  0  0  0  0  0
   -1.1056   -3.1132    4.2872 H   0  0  0  0  0  0  0  0  0  0  0  0
   -2.8282   -2.7856    4.0245 H   0  0  0  0  0  0  0  0  0  0  0  0
   -1.6239   -2.2474    2.8383 H   0  0  0  0  0  0  0  0  0  0  0  0
   -3.6542   -2.1185   -0.7001 H   0  0  0  0  0  0  0  0  0  0  0  0
   -6.6540   -1.9495    2.2260 H   0  0  0  0  0  0  0  0  0  0  0  0
   -5.9665    3.9765    1.6113 H   0  0  0  0  0  0  0  0  0  0  0  0
   -3.9411    4.6949    5.2188 H   0  0  0  0  0  0  0  0  0  0  0  0
    1.2420    1.2241    1.8386 H   0  0  0  0  0  0  0  0  0  0  0  0
    1.5647    2.6214    0.8035 H   0  0  0  0  0  0  0  0  0  0  0  0
   -1.3259    1.9160   -1.5130 H   0  0  0  0  0  0  0  0  0  0  0  0
   -0.0356    3.0769   -1.2028 H   0  0  0  0  0  0  0  0  0  0  0  0
   -5.8194   -2.8318    0.1234 H   0  0  0  0  0  0  0  0  0  0  0  0
   -5.5500    5.3894    3.5412 H   0  0  0  0  0  0  0  0  0  0  0  0
    1.8040   -0.3376    0.0255 H   0  0  0  0  0  0  0  0  0  0  0  0
    3.1430    0.7745    0.3217 H   0  0  0  0  0  0  0  0  0  0  0  0
    0.2400    0.1958   -2.1746 H   0  0  0  0  0  0  0  0  0  0  0  0
    0.6323    1.6685   -3.0687 H   0  0  0  0  0  0  0  0  0  0  0  0
    2.5414    2.1396   -1.6269 H   0  0  0  0  0  0  0  0  0  0  0  0
    2.6707    0.4577   -2.1395 H   0  0  0  0  0  0  0  0  0  0  0  0
  1  2  1  0  0  0  0 
  1  3  1  0  0  0  0 
  1  4  1  0  0  0  0 
  1  5  1  0  0  0  0 
  6  2  1  0  0  0  0 
  3  7  1  0  0  0  0 
  3  8  2  0  0  0  0 
  4  9  2  0  0  0  0 
  4 10  1  0  0  0  0 
  5 11  2  0  0  0  0 
  5 12  1  0  0  0  0 
  6 13  1  0  0  0  0 
  6 14  1  0  0  0  0 
  7 15  1  0  0  0  0 
  9 16  1  0  0  0  0 
 10 17  2  0  0  0  0 
 11 18  1  0  0  0  0 
 12 19  2  0  0  0  0 
 14 20  1  0  0  0  0 
 14 21  1  0  0  0  0 
 16 22  2  0  0  0  0 
 17 22  1  0  0  0  0 
 18 23  2  0  0  0  0 
 19 23  1  0  0  0  0 
 20 24  1  0  0  0  0 
 21 25  1  0  0  0  0 
 24 26  1  0  0  0  0 
 25 26  1  0  0  0  0 
  2 27  1  0  0  0  0 
  2 28  1  0  0  0  0 
  6 29  1  0  0  0  0 
  7 30  1  0  0  0  0 
  7 31  1  0  0  0  0 
  9 32  1  0  0  0  0 
 10 33  1  0  0  0  0 
 11 34  1  0  0  0  0 
 12 35  1  0  0  0  0 
 13 36  1  0  0  0  0 
 13 37  1  0  0  0  0 
 13 38  1  0  0  0  0 
 15 39  1  0  0  0  0 
 15 40  1  0  0  0  0 
 15 41  1  0  0  0  0 
 16 42  1  0  0  0  0 
 17 43  1  0  0  0  0 
 18 44  1  0  0  0  0 
 19 45  1  0  0  0  0 
 20 46  1  0  0  0  0 
 20 47  1  0  0  0  0 
 21 48  1  0  0  0  0 
 21 49  1  0  0  0  0 
 22 50  1  0  0  0  0 
 23 51  1  0  0  0  0 
 24 52  1  0  0  0  0 
 24 53  1  0  0  0  0 
 25 54  1  0  0  0  0 
 25 55  1  0  0  0  0 
 26 56  1  0  0  0  0 
 26 57  1  0  0  0  0 
M  END
> <cdk:Title>
dipipanone

> <Conformer>
1

> <SuperDrugID>
SD000818

$$$$
