opicapone
  CDK     0628171802

 37 39  0  0  0  0  0  0  0  0999 V2000
   -0.1459    4.3005   -4.1701 C   0  0  0  0  0  0  0  0  0  0  0  0
   -0.3245    5.2488   -5.2103 C   0  0  0  0  0  0  0  0  0  0  0  0
    0.8373    5.8451   -5.7733 C   0  0  0  0  0  0  0  0  0  0  0  0
    2.1214    5.4886   -5.3117 C   0  0  0  0  0  0  0  0  0  0  0  0
    2.2652    4.5213   -4.3010 C   0  0  0  0  0  0  0  0  0  0  0  0
    1.1347    3.9176   -3.7090 C   0  0  0  0  0  0  0  0  0  0  0  0
    0.7641    6.7578   -6.7771 O   0  0  0  0  0  0  0  0  0  0  0  0
    3.2438    6.0542   -5.8291 O   0  0  0  0  0  0  0  0  0  0  0  0
   -1.5669    5.5500   -5.6246 N   0  0  0  0  0  0  0  0  0  0  0  0
   -1.8495    6.5941   -6.0654 O   0  0  0  0  0  0  0  0  0  0  0  0
   -2.5260    4.7155   -5.5536 O   0  0  0  0  0  0  0  0  0  0  0  0
    1.2926    2.9593   -2.6760 C   0  0  0  0  0  0  0  0  0  0  0  0
    0.3241    2.4991   -1.8663 N   0  0  0  0  0  0  0  0  0  0  0  0
    0.9227    1.6328   -1.0371 C   0  0  0  0  0  0  0  0  0  0  0  0
    2.2277    1.5522   -1.3362 N   0  0  0  0  0  0  0  0  0  0  0  0
    2.4587    2.3629   -2.3295 O   0  0  0  0  0  0  0  0  0  0  0  0
    0.2949    0.9356    0.0202 C   0  0  0  0  0  0  0  0  0  0  0  0
    0.3155    1.4985    1.3215 C   0  0  0  0  0  0  0  0  0  0  0  0
   -0.2629    0.8337    2.3661 N   0  0  0  0  0  0  0  0  0  0  0  0
   -0.8637   -0.3911    2.2233 C   0  0  0  0  0  0  0  0  0  0  0  0
   -0.8987   -0.9962    0.9381 C   0  0  0  0  0  0  0  0  0  0  0  0
   -0.3457   -0.3188   -0.1838 C   0  0  0  0  0  0  0  0  0  0  0  0
   -0.4652   -0.9419   -1.5387 C   0  0  0  0  0  0  0  0  0  0  0  0
    1.0542    3.0140    1.6058 Cl  0  0  0  0  0  0  0  0  0  0  0  0
   -1.6089   -2.5406    0.7504 Cl  0  0  0  0  0  0  0  0  0  0  0  0
   -1.4799   -1.0911    3.3904 C   0  0  0  0  0  0  0  0  0  0  0  0
   -0.2249    1.4056    3.5474 O   0  0  0  0  0  0  0  0  0  0  0  0
   -0.9734    3.8783   -3.7421 H   0  0  0  0  0  0  0  0  0  0  0  0
    3.2101    4.2673   -3.9999 H   0  0  0  0  0  0  0  0  0  0  0  0
    0.0073    6.4780   -7.3314 H   0  0  0  0  0  0  0  0  0  0  0  0
    2.9447    6.8129   -6.3708 H   0  0  0  0  0  0  0  0  0  0  0  0
   -1.5196   -1.1172   -1.7678 H   0  0  0  0  0  0  0  0  0  0  0  0
    0.0640   -1.8970   -1.5509 H   0  0  0  0  0  0  0  0  0  0  0  0
   -0.0627   -0.3371   -2.3491 H   0  0  0  0  0  0  0  0  0  0  0  0
   -0.9893   -2.0538    3.5491 H   0  0  0  0  0  0  0  0  0  0  0  0
   -1.4052   -0.5278    4.3190 H   0  0  0  0  0  0  0  0  0  0  0  0
   -2.5408   -1.2606    3.1982 H   0  0  0  0  0  0  0  0  0  0  0  0
  1  2  2  0  0  0  0 
  1  6  1  0  0  0  0 
  2  3  1  0  0  0  0 
  3  4  2  0  0  0  0 
  4  5  1  0  0  0  0 
  5  6  2  0  0  0  0 
  3  7  1  0  0  0  0 
  4  8  1  0  0  0  0 
  2  9  1  0  0  0  0 
  9 10  2  0  0  0  0 
  9 11  1  0  0  0  0 
  6 12  1  0  0  0  0 
 13 14  1  0  0  0  0 
 14 15  2  0  0  0  0 
 15 16  1  0  0  0  0 
 12 13  2  0  0  0  0 
 12 16  1  0  0  0  0 
 14 17  1  0  0  0  0 
 18 19  1  0  0  0  0 
 19 20  2  0  0  0  0 
 20 21  1  0  0  0  0 
 21 22  2  0  0  0  0 
 17 18  2  0  0  0  0 
 17 22  1  0  0  0  0 
 22 23  1  0  0  0  0 
 18 24  1  0  0  0  0 
 21 25  1  0  0  0  0 
 20 26  1  0  0  0  0 
 19 27  1  0  0  0  0 
  1 28  1  0  0  0  0 
  5 29  1  0  0  0  0 
  7 30  1  0  0  0  0 
  8 31  1  0  0  0  0 
 23 32  1  0  0  0  0 
 23 33  1  0  0  0  0 
 23 34  1  0  0  0  0 
 26 35  1  0  0  0  0 
 26 36  1  0  0  0  0 
 26 37  1  0  0  0  0 
M  CHG  1   9   1
M  CHG  1  11  -1
M  CHG  1  19   1
M  CHG  1  27  -1
M  END
> <cdk:Title>
opicapone

> <Conformer>
1

> <SuperDrugID>
SD003917

$$$$
