iobenguane (131I)
  CDK     0628171801

 22 22  0  0  0  0  0  0  0  0999 V2000
   -0.8675   -1.1583    0.3830 C   0  0  2  0  0  0  0  0  0  0  0  0
   -1.6606   -1.5480   -0.6977 N   0  0  0  0  0  0  0  0  0  0  0  0
   -1.6553   -0.9185    1.6230 C   0  0  0  0  0  0  0  0  0  0  0  0
   -2.2774   -2.6580   -0.8979 C   0  0  0  0  0  0  0  0  0  0  0  0
   -2.5739    0.1557    1.6803 C   0  0  0  0  0  0  0  0  0  0  0  0
   -1.5037   -1.7422    2.7634 C   0  0  0  0  0  0  0  0  0  0  0  0
   -2.2537   -3.6730   -0.0567 N   0  0  0  0  0  0  0  0  0  0  0  0
   -2.9548   -2.7874   -2.0144 N   0  0  0  0  0  0  0  0  0  0  0  0
   -3.3204    0.4048    2.8470 C   0  0  0  0  0  0  0  0  0  0  0  0
   -2.2587   -1.5025    3.9270 C   0  0  0  0  0  0  0  0  0  0  0  0
   -4.6266    1.9873    2.9122 I   0  0  0  0  0  0  0  0  0  0  0  0
   -3.1624   -0.4260    3.9711 C   0  0  0  0  0  0  0  0  0  0  0  0
   -0.3695   -0.2272    0.1050 H   0  0  0  0  0  0  0  0  0  0  0  0
   -0.0787   -1.9005    0.5361 H   0  0  0  0  0  0  0  0  0  0  0  0
   -2.6961    0.7718    0.8735 H   0  0  0  0  0  0  0  0  0  0  0  0
   -0.8413   -2.5199    2.7593 H   0  0  0  0  0  0  0  0  0  0  0  0
   -2.7052   -4.5006   -0.2820 H   0  0  0  0  0  0  0  0  0  0  0  0
   -1.7836   -3.5948    0.7865 H   0  0  0  0  0  0  0  0  0  0  0  0
   -3.4082   -3.6211   -2.2152 H   0  0  0  0  0  0  0  0  0  0  0  0
   -3.0013   -2.0510   -2.6441 H   0  0  0  0  0  0  0  0  0  0  0  0
   -2.1509   -2.1112    4.7413 H   0  0  0  0  0  0  0  0  0  0  0  0
   -3.7027   -0.2466    4.8217 H   0  0  0  0  0  0  0  0  0  0  0  0
  1  2  1  0  0  0  0 
  1  3  1  0  0  0  0 
  2  4  2  0  0  0  0 
  3  5  2  0  0  0  0 
  3  6  1  0  0  0  0 
  4  7  1  0  0  0  0 
  4  8  1  0  0  0  0 
  5  9  1  0  0  0  0 
  6 10  2  0  0  0  0 
  9 11  1  0  0  0  0 
  9 12  2  0  0  0  0 
 10 12  1  0  0  0  0 
 13  1  1  0  0  0  0 
 14  1  1  0  0  0  0 
 15  5  1  0  0  0  0 
 16  6  1  0  0  0  0 
 17  7  1  0  0  0  0 
 18  7  1  0  0  0  0 
 19  8  1  0  0  0  0 
 20  8  1  0  0  0  0 
 21 10  1  0  0  0  0 
 22 12  1  0  0  0  0 
M  ISO  1  11 131
M  END
> <cdk:Title>
iobenguane (131I)

> <Conformer>
1

> <SuperDrugID>
SD003633

$$$$
