levothyroxine
  CDK     0628171801

 35 36  0  0  0  0  0  0  0  0999 V2000
   -2.0072    9.1013    1.0847 O   0  0  0  0  0  0  0  0  0  0  0  0
   -2.0635    8.8530   -0.2704 C   0  0  0  0  0  0  0  0  0  0  0  0
   -2.7554    8.2043    1.8130 C   0  0  0  0  0  0  0  0  0  0  0  0
   -3.0451    9.4632   -1.0795 C   0  0  0  0  0  0  0  0  0  0  0  0
   -1.1159    8.0144   -0.8940 C   0  0  0  0  0  0  0  0  0  0  0  0
   -4.1161    8.4660    2.1144 C   0  0  0  0  0  0  0  0  0  0  0  0
   -2.1706    7.0252    2.3409 C   0  0  0  0  0  0  0  0  0  0  0  0
   -3.1438    9.1700   -2.4507 C   0  0  0  0  0  0  0  0  0  0  0  0
   -1.2012    7.7159   -2.2657 C   0  0  0  0  0  0  0  0  0  0  0  0
   -5.0138   10.2879    1.7966 I   0  0  0  0  0  0  0  0  0  0  0  0
   -4.9061    7.4927    2.7502 C   0  0  0  0  0  0  0  0  0  0  0  0
   -0.1459    6.6701    2.3142 I   0  0  0  0  0  0  0  0  0  0  0  0
   -2.9621    6.0650    2.9976 C   0  0  0  0  0  0  0  0  0  0  0  0
   -4.6269   10.0587   -3.5586 I   0  0  0  0  0  0  0  0  0  0  0  0
   -2.2285    8.2811   -3.0452 C   0  0  0  0  0  0  0  0  0  0  0  0
    0.1893    6.4597   -3.1051 I   0  0  0  0  0  0  0  0  0  0  0  0
   -4.3410    6.2814    3.2020 C   0  0  0  0  0  0  0  0  0  0  0  0
   -2.3332    7.9761   -4.3593 O   0  0  0  0  0  0  0  0  0  0  0  0
   -5.1624    5.3062    3.9741 C   0  0  1  0  0  0  0  0  0  0  0  0
   -5.1168    5.5892    5.5044 C   0  0  1  0  0  0  0  0  0  0  0  0
   -5.6325    6.9300    5.8550 C   0  0  0  0  0  0  0  0  0  0  0  0
   -5.9036    4.5910    6.2404 N   0  0  2  0  0  0  0  0  0  0  0  0
   -4.8022    7.8724    6.3571 O   0  0  0  0  0  0  0  0  0  0  0  0
   -6.8347    7.2269    5.6661 O   0  0  0  0  0  0  0  0  0  0  0  0
   -3.6951   10.1314   -0.6793 H   0  0  0  0  0  0  0  0  0  0  0  0
   -0.3520    7.6173   -0.3555 H   0  0  0  0  0  0  0  0  0  0  0  0
   -5.8962    7.6899    2.9196 H   0  0  0  0  0  0  0  0  0  0  0  0
   -2.5206    5.2138    3.3554 H   0  0  0  0  0  0  0  0  0  0  0  0
   -2.9192    7.1901   -4.3759 H   0  0  0  0  0  0  0  0  0  0  0  0
   -6.1992    5.3274    3.6261 H   0  0  0  0  0  0  0  0  0  0  0  0
   -4.7974    4.2922    3.7853 H   0  0  0  0  0  0  0  0  0  0  0  0
   -4.0813    5.5005    5.8463 H   0  0  0  0  0  0  0  0  0  0  0  0
   -5.7786    4.7892    7.2356 H   0  0  0  0  0  0  0  0  0  0  0  0
   -5.4830    3.6770    6.0641 H   0  0  0  0  0  0  0  0  0  0  0  0
   -5.1378    8.7707    6.5599 H   0  0  0  0  0  0  0  0  0  0  0  0
  1  2  1  0  0  0  0 
  1  3  1  0  0  0  0 
  2  4  2  0  0  0  0 
  2  5  1  0  0  0  0 
  3  6  2  0  0  0  0 
  3  7  1  0  0  0  0 
  4  8  1  0  0  0  0 
  5  9  2  0  0  0  0 
  6 10  1  0  0  0  0 
  6 11  1  0  0  0  0 
  7 12  1  0  0  0  0 
  7 13  2  0  0  0  0 
  8 14  1  0  0  0  0 
  8 15  2  0  0  0  0 
  9 15  1  0  0  0  0 
  9 16  1  0  0  0  0 
 11 17  2  0  0  0  0 
 13 17  1  0  0  0  0 
 15 18  1  0  0  0  0 
 17 19  1  0  0  0  0 
 20 19  1  0  0  0  0 
 20 21  1  0  0  0  0 
 20 22  1  0  0  0  0 
 21 23  1  0  0  0  0 
 21 24  2  0  0  0  0 
  4 25  1  0  0  0  0 
  5 26  1  0  0  0  0 
 11 27  1  0  0  0  0 
 13 28  1  0  0  0  0 
 18 29  1  0  0  0  0 
 19 30  1  0  0  0  0 
 19 31  1  0  0  0  0 
 20 32  1  0  0  0  0 
 22 33  1  0  0  0  0 
 22 34  1  0  0  0  0 
 23 35  1  0  0  0  0 
M  END
> <cdk:Title>
levothyroxine

> <Conformer>
1

> <SuperDrugID>
SD002379

$$$$
