ronifibrate
  CDK     0628171801

 46 47  0  0  0  0  0  0  0  0999 V2000
   -0.9535   -1.2492   -1.4112 O   0  0  0  0  0  0  0  0  0  0  0  0
   -0.2868   -0.7028   -2.5875 C   0  0  2  0  0  0  0  0  0  0  0  0
   -0.3928   -1.0536   -0.1658 C   0  0  0  0  0  0  0  0  0  0  0  0
   -1.1098   -1.0757   -3.7794 C   0  0  0  0  0  0  0  0  0  0  0  0
    1.1339   -1.3268   -2.7751 C   0  0  0  0  0  0  0  0  0  0  0  0
   -0.2218    0.8572   -2.5247 C   0  0  0  0  0  0  0  0  0  0  0  0
   -0.7562    0.0648    0.6166 C   0  0  0  0  0  0  0  0  0  0  0  0
    0.5036   -2.0036    0.3713 C   0  0  0  0  0  0  0  0  0  0  0  0
   -2.2824   -1.7854   -3.6837 O   0  0  0  0  0  0  0  0  0  0  0  0
   -0.7154   -0.7195   -4.9180 O   0  0  0  0  0  0  0  0  0  0  0  0
   -0.2093    0.2490    1.9011 C   0  0  0  0  0  0  0  0  0  0  0  0
    1.0537   -1.8245    1.6551 C   0  0  0  0  0  0  0  0  0  0  0  0
   -3.0898   -2.1540   -4.8181 C   0  0  2  0  0  0  0  0  0  0  0  0
    0.7045   -0.6916    2.4171 C   0  0  0  0  0  0  0  0  0  0  0  0
   -4.3845   -2.8936   -4.4090 C   0  0  2  0  0  0  0  0  0  0  0  0
    1.3854   -0.4589    3.9488 Cl  0  0  0  0  0  0  0  0  0  0  0  0
   -5.3102   -3.1643   -5.6238 C   0  0  1  0  0  0  0  0  0  0  0  0
   -4.7348   -4.1383   -6.5119 O   0  0  0  0  0  0  0  0  0  0  0  0
   -5.2102   -4.5111   -7.7451 C   0  0  0  0  0  0  0  0  0  0  0  0
   -6.1870   -3.8903   -8.2302 O   0  0  0  0  0  0  0  0  0  0  0  0
   -4.5917   -5.5671   -8.4750 C   0  0  0  0  0  0  0  0  0  0  0  0
   -3.5958   -6.3814   -7.8812 C   0  0  0  0  0  0  0  0  0  0  0  0
   -4.9372   -5.8605   -9.8203 C   0  0  0  0  0  0  0  0  0  0  0  0
   -2.9760   -7.4180   -8.6044 C   0  0  0  0  0  0  0  0  0  0  0  0
   -4.3139   -6.8598  -10.4984 N   0  0  0  0  0  0  0  0  0  0  0  0
   -3.3503   -7.6334   -9.9407 C   0  0  0  0  0  0  0  0  0  0  0  0
    1.0633   -2.4164   -2.7926 H   0  0  0  0  0  0  0  0  0  0  0  0
    1.8018   -1.0395   -1.9635 H   0  0  0  0  0  0  0  0  0  0  0  0
    1.5954   -0.9955   -3.7076 H   0  0  0  0  0  0  0  0  0  0  0  0
   -1.2222    1.2657   -2.3666 H   0  0  0  0  0  0  0  0  0  0  0  0
    0.4182    1.1930   -1.7092 H   0  0  0  0  0  0  0  0  0  0  0  0
    0.1811    1.2775   -3.4484 H   0  0  0  0  0  0  0  0  0  0  0  0
   -1.4244    0.7475    0.2513 H   0  0  0  0  0  0  0  0  0  0  0  0
    0.7556   -2.8318   -0.1733 H   0  0  0  0  0  0  0  0  0  0  0  0
   -0.4848    1.0641    2.4564 H   0  0  0  0  0  0  0  0  0  0  0  0
    1.7008   -2.5238    2.0304 H   0  0  0  0  0  0  0  0  0  0  0  0
   -2.4987   -2.7931   -5.4814 H   0  0  0  0  0  0  0  0  0  0  0  0
   -3.3601   -1.2406   -5.3574 H   0  0  0  0  0  0  0  0  0  0  0  0
   -4.9212   -2.2737   -3.6850 H   0  0  0  0  0  0  0  0  0  0  0  0
   -4.1269   -3.8389   -3.9225 H   0  0  0  0  0  0  0  0  0  0  0  0
   -6.2745   -3.5384   -5.2701 H   0  0  0  0  0  0  0  0  0  0  0  0
   -5.4865   -2.2273   -6.1585 H   0  0  0  0  0  0  0  0  0  0  0  0
   -3.3118   -6.2352   -6.9097 H   0  0  0  0  0  0  0  0  0  0  0  0
   -5.6588   -5.3280  -10.3120 H   0  0  0  0  0  0  0  0  0  0  0  0
   -2.2626   -8.0066   -8.1653 H   0  0  0  0  0  0  0  0  0  0  0  0
   -2.9053   -8.3698  -10.4931 H   0  0  0  0  0  0  0  0  0  0  0  0
  1  2  1  0  0  0  0 
  1  3  1  0  0  0  0 
  2  4  1  0  0  0  0 
  2  5  1  0  0  0  0 
  2  6  1  0  0  0  0 
  3  7  2  0  0  0  0 
  3  8  1  0  0  0  0 
  4  9  1  0  0  0  0 
  4 10  2  0  0  0  0 
  7 11  1  0  0  0  0 
  8 12  2  0  0  0  0 
  9 13  1  0  0  0  0 
 11 14  2  0  0  0  0 
 12 14  1  0  0  0  0 
 13 15  1  0  0  0  0 
 14 16  1  0  0  0  0 
 15 17  1  0  0  0  0 
 17 18  1  0  0  0  0 
 18 19  1  0  0  0  0 
 19 20  2  0  0  0  0 
 19 21  1  0  0  0  0 
 21 22  2  0  0  0  0 
 21 23  1  0  0  0  0 
 22 24  1  0  0  0  0 
 23 25  2  0  0  0  0 
 24 26  2  0  0  0  0 
 25 26  1  0  0  0  0 
  5 27  1  0  0  0  0 
  5 28  1  0  0  0  0 
  5 29  1  0  0  0  0 
  6 30  1  0  0  0  0 
  6 31  1  0  0  0  0 
  6 32  1  0  0  0  0 
  7 33  1  0  0  0  0 
  8 34  1  0  0  0  0 
 11 35  1  0  0  0  0 
 12 36  1  0  0  0  0 
 13 37  1  0  0  0  0 
 13 38  1  0  0  0  0 
 15 39  1  0  0  0  0 
 15 40  1  0  0  0  0 
 17 41  1  0  0  0  0 
 17 42  1  0  0  0  0 
 22 43  1  0  0  0  0 
 23 44  1  0  0  0  0 
 24 45  1  0  0  0  0 
 26 46  1  0  0  0  0 
M  END
> <cdk:Title>
ronifibrate

> <Conformer>
1

> <SuperDrugID>
SD002161

$$$$
