raltegravir
  CDK     0628171801

 53 55  0  0  0  0  0  0  0  0999 V2000
    1.0312    0.1419    3.8771 N   0  0  0  0  0  0  0  0  0  0  0  0
    1.6780    0.4236    5.0462 C   0  0  0  0  0  0  0  0  0  0  0  0
    0.9739    0.1943    6.2239 N   0  0  0  0  0  0  0  0  0  0  0  0
   -0.3429   -0.2216    6.1548 C   0  0  0  0  0  0  0  0  0  0  0  0
   -0.9795   -0.4859    4.9260 C   0  0  0  0  0  0  0  0  0  0  0  0
   -0.2444   -0.2927    3.7375 C   0  0  0  0  0  0  0  0  0  0  0  0
    3.0933    0.9684    4.8790 C   0  0  1  0  0  0  0  0  0  0  0  0
   -0.7557   -0.5070    2.4255 C   0  0  0  0  0  0  0  0  0  0  0  0
   -1.0420   -0.3860    7.1873 O   0  0  0  0  0  0  0  0  0  0  0  0
   -2.2762   -0.9062    4.9293 O   0  0  0  0  0  0  0  0  0  0  0  0
    1.5162    0.3665    7.5597 C   0  0  0  0  0  0  0  0  0  0  0  0
   -1.8747   -1.0499    2.2583 O   0  0  0  0  0  0  0  0  0  0  0  0
   -0.0463   -0.1338    1.3164 N   0  0  0  0  0  0  0  0  0  0  0  0
   -0.4758   -0.3590   -0.0293 C   0  0  1  0  0  0  0  0  0  0  0  0
    0.4638    0.2265   -1.0194 C   0  0  0  0  0  0  0  0  0  0  0  0
    1.6009   -0.4973   -1.4512 C   0  0  0  0  0  0  0  0  0  0  0  0
    2.4492    0.0202   -2.4477 C   0  0  0  0  0  0  0  0  0  0  0  0
    2.1808    1.2778   -3.0181 C   0  0  0  0  0  0  0  0  0  0  0  0
    1.0715    2.0230   -2.5790 C   0  0  0  0  0  0  0  0  0  0  0  0
    0.2233    1.5022   -1.5843 C   0  0  0  0  0  0  0  0  0  0  0  0
    2.9625    1.7545   -3.9469 F   0  0  0  0  0  0  0  0  0  0  0  0
    3.4419    1.2466    3.4965 N   0  0  0  0  0  0  0  0  0  0  0  0
    2.8479    2.0962    2.6099 C   0  0  0  0  0  0  0  0  0  0  0  0
    3.4618    2.2584    1.3640 C   0  0  0  0  0  0  0  0  0  0  0  0
    1.8025    2.7329    2.8754 O   0  0  0  0  0  0  0  0  0  0  0  0
    4.7005    1.8079    1.0819 O   0  0  0  0  0  0  0  0  0  0  0  0
    4.9252    2.1966   -0.1850 C   0  0  0  0  0  0  0  0  0  0  0  0
    3.8472    2.8459   -0.6523 N   0  0  0  0  0  0  0  0  0  0  0  0
    2.9575    2.8851    0.2882 N   0  0  0  0  0  0  0  0  0  0  0  0
    6.1692    1.9435   -0.9132 C   0  0  0  0  0  0  0  0  0  0  0  0
    3.3719    2.3081    5.6469 C   0  0  0  0  0  0  0  0  0  0  0  0
    4.1466   -0.1198    5.2665 C   0  0  0  0  0  0  0  0  0  0  0  0
   -2.3275   -1.6346    4.2754 H   0  0  0  0  0  0  0  0  0  0  0  0
    1.2826   -0.5012    8.1848 H   0  0  0  0  0  0  0  0  0  0  0  0
    2.5875    0.4687    7.6071 H   0  0  0  0  0  0  0  0  0  0  0  0
    1.0811    1.2561    8.0183 H   0  0  0  0  0  0  0  0  0  0  0  0
    0.8061    0.3091    1.4465 H   0  0  0  0  0  0  0  0  0  0  0  0
   -0.5612   -1.4363   -0.2012 H   0  0  0  0  0  0  0  0  0  0  0  0
   -1.4729    0.0712   -0.1646 H   0  0  0  0  0  0  0  0  0  0  0  0
    1.8106   -1.4150   -1.0526 H   0  0  0  0  0  0  0  0  0  0  0  0
    3.2584   -0.5230   -2.7581 H   0  0  0  0  0  0  0  0  0  0  0  0
    0.8770    2.9436   -2.9806 H   0  0  0  0  0  0  0  0  0  0  0  0
   -0.5778    2.0595   -1.2804 H   0  0  0  0  0  0  0  0  0  0  0  0
    4.2341    0.7957    3.1622 H   0  0  0  0  0  0  0  0  0  0  0  0
    6.5992    2.8841   -1.2509 H   0  0  0  0  0  0  0  0  0  0  0  0
    6.8845    1.4469   -0.2583 H   0  0  0  0  0  0  0  0  0  0  0  0
    5.9714    1.3072   -1.7732 H   0  0  0  0  0  0  0  0  0  0  0  0
    4.2228    2.8404    5.2132 H   0  0  0  0  0  0  0  0  0  0  0  0
    3.6271    2.1521    6.6915 H   0  0  0  0  0  0  0  0  0  0  0  0
    2.5048    2.9689    5.6043 H   0  0  0  0  0  0  0  0  0  0  0  0
    5.1613    0.2557    5.1105 H   0  0  0  0  0  0  0  0  0  0  0  0
    4.0823   -0.4276    6.3055 H   0  0  0  0  0  0  0  0  0  0  0  0
    4.0158   -1.0124    4.6499 H   0  0  0  0  0  0  0  0  0  0  0  0
  1  2  2  0  0  0  0 
  1  6  1  0  0  0  0 
  2  3  1  0  0  0  0 
  3  4  1  0  0  0  0 
  4  5  1  0  0  0  0 
  5  6  2  0  0  0  0 
  2  7  1  0  0  0  0 
  6  8  1  0  0  0  0 
  4  9  2  0  0  0  0 
  5 10  1  0  0  0  0 
  3 11  1  0  0  0  0 
  8 12  2  0  0  0  0 
  8 13  1  0  0  0  0 
 13 14  1  0  0  0  0 
 14 15  1  0  0  0  0 
 16 17  1  0  0  0  0 
 17 18  2  0  0  0  0 
 18 19  1  0  0  0  0 
 19 20  2  0  0  0  0 
 15 16  2  0  0  0  0 
 15 20  1  0  0  0  0 
 18 21  1  0  0  0  0 
  7 22  1  0  0  0  0 
 22 23  1  0  0  0  0 
 23 24  1  0  0  0  0 
 23 25  2  0  0  0  0 
 26 27  1  0  0  0  0 
 27 28  2  0  0  0  0 
 28 29  1  0  0  0  0 
 24 26  1  0  0  0  0 
 24 29  2  0  0  0  0 
 27 30  1  0  0  0  0 
  7 31  1  0  0  0  0 
  7 32  1  0  0  0  0 
 10 33  1  0  0  0  0 
 11 34  1  0  0  0  0 
 11 35  1  0  0  0  0 
 11 36  1  0  0  0  0 
 13 37  1  0  0  0  0 
 14 38  1  0  0  0  0 
 14 39  1  0  0  0  0 
 16 40  1  0  0  0  0 
 17 41  1  0  0  0  0 
 19 42  1  0  0  0  0 
 20 43  1  0  0  0  0 
 22 44  1  0  0  0  0 
 30 45  1  0  0  0  0 
 30 46  1  0  0  0  0 
 30 47  1  0  0  0  0 
 31 48  1  0  0  0  0 
 31 49  1  0  0  0  0 
 31 50  1  0  0  0  0 
 32 51  1  0  0  0  0 
 32 52  1  0  0  0  0 
 32 53  1  0  0  0  0 
M  END
> <cdk:Title>
raltegravir

> <Conformer>
1

> <SuperDrugID>
SD002115

$$$$
