thurfyl nicotinate
  CDK     0628171801

 28 29  0  0  0  0  0  0  0  0999 V2000
   -2.6974    2.5844    0.2736 C   0  0  0  0  0  0  0  0  0  0  0  0
   -2.8963    2.1541    1.5557 O   0  0  0  0  0  0  0  0  0  0  0  0
   -1.5554    2.4766   -0.2341 O   0  0  0  0  0  0  0  0  0  0  0  0
   -3.7798    3.1328   -0.4676 C   0  0  0  0  0  0  0  0  0  0  0  0
   -1.9130    1.6453    2.4670 C   0  0  2  0  0  0  0  0  0  0  0  0
   -3.6625    3.4471   -1.8446 C   0  0  0  0  0  0  0  0  0  0  0  0
   -5.0326    3.3880    0.1444 C   0  0  0  0  0  0  0  0  0  0  0  0
   -2.5698    1.2607    3.8135 C   0  0  1  0  0  0  0  0  0  0  0  0
   -4.7548    3.9653   -2.5656 C   0  0  0  0  0  0  0  0  0  0  0  0
   -6.0698    3.8883   -0.5745 N   0  0  0  0  0  0  0  0  0  0  0  0
   -3.3067    2.4181    4.5162 C   0  0  2  0  0  0  0  0  0  0  0  0
   -3.5630    0.2448    3.6229 O   0  0  0  0  0  0  0  0  0  0  0  0
   -5.9716    4.1719   -1.8963 C   0  0  0  0  0  0  0  0  0  0  0  0
   -4.2774    1.6711    5.4376 C   0  0  2  0  0  0  0  0  0  0  0  0
   -4.4848    0.3227    4.7206 C   0  0  1  0  0  0  0  0  0  0  0  0
   -1.1497    2.4083    2.6406 H   0  0  0  0  0  0  0  0  0  0  0  0
   -1.4337    0.7616    2.0371 H   0  0  0  0  0  0  0  0  0  0  0  0
   -2.7808    3.2998   -2.3407 H   0  0  0  0  0  0  0  0  0  0  0  0
   -5.1846    3.2046    1.1385 H   0  0  0  0  0  0  0  0  0  0  0  0
   -1.7892    0.8695    4.4768 H   0  0  0  0  0  0  0  0  0  0  0  0
   -4.6648    4.1839   -3.5611 H   0  0  0  0  0  0  0  0  0  0  0  0
   -3.8692    3.0244    3.7999 H   0  0  0  0  0  0  0  0  0  0  0  0
   -2.6210    3.0592    5.0767 H   0  0  0  0  0  0  0  0  0  0  0  0
   -6.7842    4.5340   -2.3974 H   0  0  0  0  0  0  0  0  0  0  0  0
   -5.2195    2.2133    5.5572 H   0  0  0  0  0  0  0  0  0  0  0  0
   -3.8213    1.5176    6.4209 H   0  0  0  0  0  0  0  0  0  0  0  0
   -5.5008    0.2499    4.3248 H   0  0  0  0  0  0  0  0  0  0  0  0
   -4.3179   -0.5108    5.4082 H   0  0  0  0  0  0  0  0  0  0  0  0
  1  2  1  0  0  0  0 
  1  3  2  0  0  0  0 
  1  4  1  0  0  0  0 
  2  5  1  0  0  0  0 
  4  6  2  0  0  0  0 
  4  7  1  0  0  0  0 
  5  8  1  0  0  0  0 
  6  9  1  0  0  0  0 
  7 10  2  0  0  0  0 
  8 11  1  0  0  0  0 
  8 12  1  0  0  0  0 
  9 13  2  0  0  0  0 
 10 13  1  0  0  0  0 
 11 14  1  0  0  0  0 
 12 15  1  0  0  0  0 
 14 15  1  0  0  0  0 
  5 16  1  0  0  0  0 
  5 17  1  0  0  0  0 
  6 18  1  0  0  0  0 
  7 19  1  0  0  0  0 
  8 20  1  0  0  0  0 
  9 21  1  0  0  0  0 
 11 22  1  0  0  0  0 
 11 23  1  0  0  0  0 
 13 24  1  0  0  0  0 
 14 25  1  0  0  0  0 
 14 26  1  0  0  0  0 
 15 27  1  0  0  0  0 
 15 28  1  0  0  0  0 
M  END
> <cdk:Title>
thurfyl nicotinate

> <Conformer>
1

> <SuperDrugID>
SD003088

$$$$
