sulisobenzone
  CDK     0628171801

 33 34  0  0  0  0  0  0  0  0999 V2000
   -0.7762   -1.2491   -0.0384 C   0  0  0  0  0  0  0  0  0  0  0  0
   -1.9706   -0.9628    0.2226 O   0  0  0  0  0  0  0  0  0  0  0  0
   -0.4920   -2.6177   -0.3406 C   0  0  0  0  0  0  0  0  0  0  0  0
    0.1788   -0.1839   -0.0326 C   0  0  0  0  0  0  0  0  0  0  0  0
   -1.4001   -3.3530   -1.1437 C   0  0  0  0  0  0  0  0  0  0  0  0
    0.6562   -3.2904    0.1546 C   0  0  0  0  0  0  0  0  0  0  0  0
    1.3552   -0.2315   -0.8241 C   0  0  0  0  0  0  0  0  0  0  0  0
   -0.0372    0.9752    0.7591 C   0  0  0  0  0  0  0  0  0  0  0  0
   -1.1681   -4.7036   -1.4839 C   0  0  0  0  0  0  0  0  0  0  0  0
    1.5500   -2.6840    0.9817 O   0  0  0  0  0  0  0  0  0  0  0  0
    0.8932   -4.6348   -0.1897 C   0  0  0  0  0  0  0  0  0  0  0  0
    2.3065    0.8053   -0.7785 C   0  0  0  0  0  0  0  0  0  0  0  0
    0.9025    2.0222    0.7908 C   0  0  0  0  0  0  0  0  0  0  0  0
   -2.3822   -5.5400   -2.4697 S   0  0  2  0  0  0  0  0  0  0  0  0
    0.0115   -5.3373   -1.0309 C   0  0  0  0  0  0  0  0  0  0  0  0
    2.0799    1.9328    0.0292 C   0  0  0  0  0  0  0  0  0  0  0  0
   -2.4376   -4.9147   -3.9452 O   0  0  0  0  0  0  0  0  0  0  0  0
   -3.8373   -5.4079   -1.8088 O   0  0  0  0  0  0  0  0  0  0  0  0
   -2.0463   -7.2084   -2.6337 O   0  0  0  0  0  0  0  0  0  0  0  0
    0.3252   -6.6274   -1.3689 O   0  0  0  0  0  0  0  0  0  0  0  0
    1.1711   -6.7007   -2.5328 C   0  0  0  0  0  0  0  0  0  0  0  0
   -2.2461   -2.8931   -1.4942 H   0  0  0  0  0  0  0  0  0  0  0  0
    1.5327   -1.0240   -1.4458 H   0  0  0  0  0  0  0  0  0  0  0  0
   -0.8825    1.0705    1.3281 H   0  0  0  0  0  0  0  0  0  0  0  0
    2.1419   -3.3969    1.3063 H   0  0  0  0  0  0  0  0  0  0  0  0
    1.7192   -5.1138    0.1735 H   0  0  0  0  0  0  0  0  0  0  0  0
    3.1628    0.7380   -1.3339 H   0  0  0  0  0  0  0  0  0  0  0  0
    0.7270    2.8484    1.3683 H   0  0  0  0  0  0  0  0  0  0  0  0
    2.7668    2.6905    0.0561 H   0  0  0  0  0  0  0  0  0  0  0  0
   -2.1751   -7.5826   -1.7379 H   0  0  0  0  0  0  0  0  0  0  0  0
    1.3861   -7.7496   -2.7360 H   0  0  0  0  0  0  0  0  0  0  0  0
    0.6745   -6.2808   -3.4108 H   0  0  0  0  0  0  0  0  0  0  0  0
    2.1230   -6.1872   -2.3743 H   0  0  0  0  0  0  0  0  0  0  0  0
  1  2  2  0  0  0  0 
  1  3  1  0  0  0  0 
  1  4  1  0  0  0  0 
  3  5  2  0  0  0  0 
  3  6  1  0  0  0  0 
  4  7  2  0  0  0  0 
  4  8  1  0  0  0  0 
  5  9  1  0  0  0  0 
  6 10  1  0  0  0  0 
  6 11  2  0  0  0  0 
  7 12  1  0  0  0  0 
  8 13  2  0  0  0  0 
  9 14  1  0  0  0  0 
  9 15  2  0  0  0  0 
 11 15  1  0  0  0  0 
 12 16  2  0  0  0  0 
 13 16  1  0  0  0  0 
 14 17  2  0  0  0  0 
 14 18  2  0  0  0  0 
 14 19  1  0  0  0  0 
 15 20  1  0  0  0  0 
 20 21  1  0  0  0  0 
  5 22  1  0  0  0  0 
  7 23  1  0  0  0  0 
  8 24  1  0  0  0  0 
 10 25  1  0  0  0  0 
 11 26  1  0  0  0  0 
 12 27  1  0  0  0  0 
 13 28  1  0  0  0  0 
 16 29  1  0  0  0  0 
 19 30  1  0  0  0  0 
 21 31  1  0  0  0  0 
 21 32  1  0  0  0  0 
 21 33  1  0  0  0  0 
M  END
> <cdk:Title>
sulisobenzone

> <Conformer>
1

> <SuperDrugID>
SD003070

$$$$
