diphenan
  CDK     0628171801

 30 31  0  0  0  0  0  0  0  0999 V2000
    3.2337    2.5192   -3.7933 C   0  0  2  0  0  0  0  0  0  0  0  0
    2.4882    1.4816   -3.0266 C   0  0  0  0  0  0  0  0  0  0  0  0
    3.1927    2.1414   -5.2331 C   0  0  0  0  0  0  0  0  0  0  0  0
    1.0757    1.5178   -2.9576 C   0  0  0  0  0  0  0  0  0  0  0  0
    3.1639    0.3942   -2.4259 C   0  0  0  0  0  0  0  0  0  0  0  0
    2.2447    2.7189   -6.1118 C   0  0  0  0  0  0  0  0  0  0  0  0
    4.0522    1.1327   -5.7337 C   0  0  0  0  0  0  0  0  0  0  0  0
    0.3572    0.4631   -2.3663 C   0  0  0  0  0  0  0  0  0  0  0  0
    2.4417   -0.6572   -1.8293 C   0  0  0  0  0  0  0  0  0  0  0  0
    2.1092    2.2481   -7.4314 C   0  0  0  0  0  0  0  0  0  0  0  0
    3.9190    0.6640   -7.0540 C   0  0  0  0  0  0  0  0  0  0  0  0
    1.0315   -0.6499   -1.8153 C   0  0  0  0  0  0  0  0  0  0  0  0
    2.9401    1.2149   -7.8998 C   0  0  0  0  0  0  0  0  0  0  0  0
    0.4041   -1.7298   -1.2420 O   0  0  0  0  0  0  0  0  0  0  0  0
   -0.8818   -2.1926   -1.3555 C   0  0  0  0  0  0  0  0  0  0  0  0
   -1.2626   -3.2279   -0.5911 N   0  0  0  0  0  0  0  0  0  0  0  0
   -1.7173   -1.7363   -2.1685 O   0  0  0  0  0  0  0  0  0  0  0  0
    4.2714    2.6024   -3.4574 H   0  0  0  0  0  0  0  0  0  0  0  0
    2.7858    3.5030   -3.6279 H   0  0  0  0  0  0  0  0  0  0  0  0
    0.5593    2.3098   -3.3510 H   0  0  0  0  0  0  0  0  0  0  0  0
    4.1869    0.3520   -2.4391 H   0  0  0  0  0  0  0  0  0  0  0  0
    1.6304    3.4712   -5.7905 H   0  0  0  0  0  0  0  0  0  0  0  0
    4.7709    0.7205   -5.1335 H   0  0  0  0  0  0  0  0  0  0  0  0
   -0.6600    0.5226   -2.3391 H   0  0  0  0  0  0  0  0  0  0  0  0
    2.9544   -1.4405   -1.4167 H   0  0  0  0  0  0  0  0  0  0  0  0
    1.3990    2.6503   -8.0476 H   0  0  0  0  0  0  0  0  0  0  0  0
    4.5275   -0.0839   -7.3957 H   0  0  0  0  0  0  0  0  0  0  0  0
    2.8331    0.8645   -8.8538 H   0  0  0  0  0  0  0  0  0  0  0  0
   -2.1582   -3.5930   -0.6744 H   0  0  0  0  0  0  0  0  0  0  0  0
   -0.6432   -3.6117    0.0474 H   0  0  0  0  0  0  0  0  0  0  0  0
  1  2  1  0  0  0  0 
  1  3  1  0  0  0  0 
  2  4  2  0  0  0  0 
  2  5  1  0  0  0  0 
  3  6  2  0  0  0  0 
  3  7  1  0  0  0  0 
  4  8  1  0  0  0  0 
  5  9  2  0  0  0  0 
  6 10  1  0  0  0  0 
  7 11  2  0  0  0  0 
  8 12  2  0  0  0  0 
  9 12  1  0  0  0  0 
 10 13  2  0  0  0  0 
 11 13  1  0  0  0  0 
 12 14  1  0  0  0  0 
 14 15  1  0  0  0  0 
 15 16  1  0  0  0  0 
 15 17  2  0  0  0  0 
 18  1  1  0  0  0  0 
 19  1  1  0  0  0  0 
 20  4  1  0  0  0  0 
 21  5  1  0  0  0  0 
 22  6  1  0  0  0  0 
 23  7  1  0  0  0  0 
 24  8  1  0  0  0  0 
 25  9  1  0  0  0  0 
 26 10  1  0  0  0  0 
 27 11  1  0  0  0  0 
 28 13  1  0  0  0  0 
 29 16  1  0  0  0  0 
 30 16  1  0  0  0  0 
M  END
> <cdk:Title>
diphenan

> <Conformer>
1

> <SuperDrugID>
SD003193

$$$$
