dinitrophenol
  Mrv0541 09131710093D              28.72763

 17 17  0  0  0  0            999 V2000
   -1.2457    0.8500    0.2143 O   0  0  0  0  0  0  0  0  0  0  0  0
   -0.3332    1.8372    0.3961 C   0  0  0  0  0  0  0  0  0  0  0  0
   -0.8383    3.1262    0.6363 C   0  0  0  0  0  0  0  0  0  0  0  0
    0.0350    4.2043    0.8427 C   0  0  0  0  0  0  0  0  0  0  0  0
    1.4388    4.0276    0.8149 C   0  0  0  0  0  0  0  0  0  0  0  0
    1.9207    2.7144    0.5703 C   0  0  0  0  0  0  0  0  0  0  0  0
    1.0683    1.5982    0.3562 C   0  0  0  0  0  0  0  0  0  0  0  0
    1.5991    0.3757    0.1298 N   0  3  0  0  0  0  0  0  0  0  0  0
    0.9570   -0.5820   -0.0533 O   0  0  0  0  0  0  0  0  0  0  0  0
    2.8545    0.1594    0.0952 O   0  5  0  0  0  0  0  0  0  0  0  0
    2.2769    5.0640    1.0145 N   0  3  0  0  0  0  0  0  0  0  0  0
    3.4403    4.9546    1.0011 O   0  0  0  0  0  0  0  0  0  0  0  0
    1.8684    6.2467    1.2365 O   0  5  0  0  0  0  0  0  0  0  0  0
   -1.3081    0.7438   -0.7575 H   0  0  0  0  0  0  0  0  0  0  0  0
   -1.8473    3.2867    0.6611 H   0  0  0  0  0  0  0  0  0  0  0  0
   -0.3704    5.1279    1.0137 H   0  0  0  0  0  0  0  0  0  0  0  0
    2.9317    2.5694    0.5480 H   0  0  0  0  0  0  0  0  0  0  0  0
  1  2  1  0  0  0  0
  2  3  2  0  0  0  0
  3  4  1  0  0  0  0
  4  5  2  0  0  0  0
  5  6  1  0  0  0  0
  6  7  2  0  0  0  0
  7  8  1  0  0  0  0
  8  9  2  0  0  0  0
  8 10  1  0  0  0  0
  5 11  1  0  0  0  0
 11 12  2  0  0  0  0
 11 13  1  0  0  0  0
  7  2  1  0  0  0  0
  1 14  1  0  0  0  0
  3 15  1  0  0  0  0
  4 16  1  0  0  0  0
  6 17  1  0  0  0  0
M  CHG  4   8   1  10  -1  11   1  13  -1
M  END
>  <SuperDrugID>
SD006018

>  <_MOLCOUNT>
1

$$$$
