pralidoxime
  CDK     0628171801

 19 19  0  0  0  0  0  0  0  0999 V2000
   -0.5615   -1.7351   -1.9712 C   0  0  0  0  0  0  0  0  0  0  0  0
   -1.7846   -1.3207   -1.3124 N   0  0  0  0  0  0  0  0  0  0  0  0
   -2.9092   -2.0852   -1.5084 C   0  0  0  0  0  0  0  0  0  0  0  0
   -4.1400   -1.7469   -0.9265 C   0  0  0  0  0  0  0  0  0  0  0  0
   -4.2207   -0.6033   -0.1246 C   0  0  0  0  0  0  0  0  0  0  0  0
   -3.0743    0.1741    0.0885 C   0  0  0  0  0  0  0  0  0  0  0  0
   -1.8403   -0.1882   -0.5107 C   0  0  0  0  0  0  0  0  0  0  0  0
   -0.6617    0.6961   -0.2569 C   0  0  2  0  0  0  0  0  0  0  0  0
    0.3226    0.0216    0.4453 N   0  0  0  0  0  0  0  0  0  0  0  0
    1.3487    0.5116    0.7092 O   0  0  0  0  0  0  0  0  0  0  0  0
    0.1948   -1.9902   -1.2282 H   0  0  0  0  0  0  0  0  0  0  0  0
   -0.6776   -2.6100   -2.6175 H   0  0  0  0  0  0  0  0  0  0  0  0
   -0.1865   -0.9295   -2.6033 H   0  0  0  0  0  0  0  0  0  0  0  0
   -2.8834   -2.9299   -2.0872 H   0  0  0  0  0  0  0  0  0  0  0  0
   -4.9639   -2.3289   -1.0862 H   0  0  0  0  0  0  0  0  0  0  0  0
   -5.1093   -0.3388    0.3055 H   0  0  0  0  0  0  0  0  0  0  0  0
   -3.1528    1.0041    0.6824 H   0  0  0  0  0  0  0  0  0  0  0  0
   -0.9301    1.5849    0.3227 H   0  0  0  0  0  0  0  0  0  0  0  0
   -0.2716    1.0449   -1.2148 H   0  0  0  0  0  0  0  0  0  0  0  0
  1  2  1  0  0  0  0 
  2  3  2  0  0  0  0 
  3  4  1  0  0  0  0 
  4  5  2  0  0  0  0 
  5  6  1  0  0  0  0 
  6  7  2  0  0  0  0 
  2  7  1  0  0  0  0 
  7  8  1  0  0  0  0 
  8  9  1  0  0  0  0 
  9 10  2  0  0  0  0 
 11  1  1  0  0  0  0 
 12  1  1  0  0  0  0 
 13  1  1  0  0  0  0 
 14  3  1  0  0  0  0 
 15  4  1  0  0  0  0 
 16  5  1  0  0  0  0 
 17  6  1  0  0  0  0 
 18  8  1  0  0  0  0 
 19  8  1  0  0  0  0 
M  CHG  1   2   1
M  END
> <cdk:Title>
pralidoxime

> <Conformer>
1

> <SuperDrugID>
SD002000

$$$$
