trifluoperazine
  CDK     0628171801

 52 55  0  0  0  0  0  0  0  0999 V2000
   -0.3826   -7.8492    4.0292 C   0  0  0  0  0  0  0  0  0  0  0  0
   -0.0308   -6.6008    3.2972 N   0  0  1  0  0  0  0  0  0  0  0  0
   -1.2262   -5.8743    2.7750 C   0  0  1  0  0  0  0  0  0  0  0  0
   -0.7961   -4.6629    1.9083 C   0  0  1  0  0  0  0  0  0  0  0  0
    0.1621   -3.7532    2.6193 N   0  0  2  0  0  0  0  0  0  0  0  0
    0.6431   -2.6157    1.7630 C   0  0  1  0  0  0  0  0  0  0  0  0
   -0.4094   -1.5267    1.4155 C   0  0  2  0  0  0  0  0  0  0  0  0
   -1.0739   -0.8173    2.6278 C   0  0  2  0  0  0  0  0  0  0  0  0
   -0.1732   -0.2480    3.6237 N   0  0  0  0  0  0  0  0  0  0  0  0
   -0.3831   -0.5463    4.9696 C   0  0  0  0  0  0  0  0  0  0  0  0
   -1.6838   -0.5450    5.5387 C   0  0  0  0  0  0  0  0  0  0  0  0
   -1.8922   -0.8879    6.8874 C   0  0  0  0  0  0  0  0  0  0  0  0
   -0.8015   -1.2334    7.7024 C   0  0  0  0  0  0  0  0  0  0  0  0
    0.4995   -1.2187    7.1715 C   0  0  0  0  0  0  0  0  0  0  0  0
    0.7044   -0.8544    5.8255 C   0  0  0  0  0  0  0  0  0  0  0  0
    2.3405   -0.7189    5.1994 S   0  0  0  0  0  0  0  0  0  0  0  0
    2.1524    0.4477    3.8934 C   0  0  0  0  0  0  0  0  0  0  0  0
    0.8985    0.5624    3.2421 C   0  0  0  0  0  0  0  0  0  0  0  0
    0.7911    1.5159    2.1954 C   0  0  0  0  0  0  0  0  0  0  0  0
    1.8861    2.3171    1.7837 C   0  0  0  0  0  0  0  0  0  0  0  0
    3.1117    2.1751    2.4729 C   0  0  0  0  0  0  0  0  0  0  0  0
    3.2453    1.2498    3.5196 C   0  0  0  0  0  0  0  0  0  0  0  0
    1.7213    3.2792    0.6543 C   0  0  1  0  0  0  0  0  0  0  0  0
    2.8601    3.9763    0.3209 F   0  0  0  0  0  0  0  0  0  0  0  0
    1.3263    2.6145   -0.4821 F   0  0  0  0  0  0  0  0  0  0  0  0
    0.7642    4.2120    0.9745 F   0  0  0  0  0  0  0  0  0  0  0  0
    1.3195   -4.5106    3.2000 C   0  0  2  0  0  0  0  0  0  0  0  0
    0.8681   -5.7011    4.0794 C   0  0  1  0  0  0  0  0  0  0  0  0
   -0.9854   -8.5035    3.3958 H   0  0  0  0  0  0  0  0  0  0  0  0
    0.5230   -8.3962    4.2986 H   0  0  0  0  0  0  0  0  0  0  0  0
   -0.9444   -7.6279    4.9403 H   0  0  0  0  0  0  0  0  0  0  0  0
   -1.8222   -6.5460    2.1483 H   0  0  0  0  0  0  0  0  0  0  0  0
   -1.8587   -5.5316    3.6000 H   0  0  0  0  0  0  0  0  0  0  0  0
   -0.3442   -5.0417    0.9861 H   0  0  0  0  0  0  0  0  0  0  0  0
   -1.6969   -4.1079    1.6399 H   0  0  0  0  0  0  0  0  0  0  0  0
    1.4771   -2.1071    2.2525 H   0  0  0  0  0  0  0  0  0  0  0  0
    1.0340   -3.0173    0.8233 H   0  0  0  0  0  0  0  0  0  0  0  0
   -1.1974   -1.9692    0.8036 H   0  0  0  0  0  0  0  0  0  0  0  0
    0.0727   -0.7783    0.7836 H   0  0  0  0  0  0  0  0  0  0  0  0
   -1.7397   -1.5622    3.0723 H   0  0  0  0  0  0  0  0  0  0  0  0
   -1.7189   -0.0206    2.2499 H   0  0  0  0  0  0  0  0  0  0  0  0
   -2.4960   -0.2860    4.9738 H   0  0  0  0  0  0  0  0  0  0  0  0
   -2.8397   -0.8839    7.2757 H   0  0  0  0  0  0  0  0  0  0  0  0
   -0.9547   -1.4860    8.6816 H   0  0  0  0  0  0  0  0  0  0  0  0
    1.2930   -1.4610    7.7703 H   0  0  0  0  0  0  0  0  0  0  0  0
   -0.1047    1.6332    1.7156 H   0  0  0  0  0  0  0  0  0  0  0  0
    3.9217    2.7440    2.2213 H   0  0  0  0  0  0  0  0  0  0  0  0
    4.1419    1.1674    4.0056 H   0  0  0  0  0  0  0  0  0  0  0  0
    1.9157   -3.8400    3.8254 H   0  0  0  0  0  0  0  0  0  0  0  0
    1.9666   -4.8931    2.4009 H   0  0  0  0  0  0  0  0  0  0  0  0
    0.3596   -5.3269    4.9739 H   0  0  0  0  0  0  0  0  0  0  0  0
    1.7617   -6.2457    4.4017 H   0  0  0  0  0  0  0  0  0  0  0  0
  1  2  1  0  0  0  0 
  2  3  1  0  0  0  0 
  3  4  1  0  0  0  0 
  4  5  1  0  0  0  0 
  5  6  1  0  0  0  0 
  6  7  1  0  0  0  0 
  7  8  1  0  0  0  0 
  8  9  1  0  0  0  0 
  9 10  1  0  0  0  0 
 10 11  2  0  0  0  0 
 11 12  1  0  0  0  0 
 12 13  2  0  0  0  0 
 13 14  1  0  0  0  0 
 14 15  2  0  0  0  0 
 10 15  1  0  0  0  0 
 15 16  1  0  0  0  0 
 16 17  1  0  0  0  0 
 17 18  2  0  0  0  0 
  9 18  1  0  0  0  0 
 18 19  1  0  0  0  0 
 19 20  2  0  0  0  0 
 20 21  1  0  0  0  0 
 21 22  2  0  0  0  0 
 17 22  1  0  0  0  0 
 20 23  1  0  0  0  0 
 23 24  1  0  0  0  0 
 23 25  1  0  0  0  0 
 23 26  1  0  0  0  0 
  5 27  1  0  0  0  0 
 27 28  1  0  0  0  0 
  2 28  1  0  0  0  0 
  1 29  1  0  0  0  0 
  1 30  1  0  0  0  0 
  1 31  1  0  0  0  0 
  3 32  1  0  0  0  0 
  3 33  1  0  0  0  0 
  4 34  1  0  0  0  0 
  4 35  1  0  0  0  0 
  6 36  1  0  0  0  0 
  6 37  1  0  0  0  0 
  7 38  1  0  0  0  0 
  7 39  1  0  0  0  0 
  8 40  1  0  0  0  0 
  8 41  1  0  0  0  0 
 11 42  1  0  0  0  0 
 12 43  1  0  0  0  0 
 13 44  1  0  0  0  0 
 14 45  1  0  0  0  0 
 19 46  1  0  0  0  0 
 21 47  1  0  0  0  0 
 22 48  1  0  0  0  0 
 27 49  1  0  0  0  0 
 27 50  1  0  0  0  0 
 28 51  1  0  0  0  0 
 28 52  1  0  0  0  0 
M  END
> <cdk:Title>
trifluoperazine

> <Conformer>
1

> <SuperDrugID>
SD002470

$$$$
