degarelix
  CDK     0628171801

220227  0  0  0  0  0  0  0  0999 V2000
    1.3228   -0.2493   -4.8304 C   0  0  0  0  0  0  0  0  0  0  0  0
    1.0739    0.9436   -4.2290 N   0  0  0  0  0  0  0  0  0  0  0  0
   -0.0522    0.8568   -1.1848 N   0  0  0  0  0  0  0  0  0  0  0  0
   -0.0118    1.3636    1.8513 N   0  0  0  0  0  0  0  0  0  0  0  0
   -1.4592    2.3183    4.0765 N   0  0  0  0  0  0  0  0  0  0  0  0
   -0.9817    4.7899    5.5673 N   0  0  0  0  0  0  0  0  0  0  0  0
   -2.2458    7.8552    4.1068 N   0  0  0  0  0  0  0  0  0  0  0  0
   -4.3223    9.3169    2.9550 N   0  0  0  0  0  0  0  0  0  0  0  0
   -7.1966   11.1230    1.9164 N   0  0  0  0  0  0  0  0  0  0  0  0
   -5.4661   13.6096    2.8213 N   0  0  0  0  0  0  0  0  0  0  0  0
   -2.9826   15.6634    1.4169 N   0  0  0  0  0  0  0  0  0  0  0  0
   -3.4771   15.7681   -1.4776 N   0  0  0  0  0  0  0  0  0  0  0  0
    0.4111   -1.0823   -5.0424 O   0  0  0  0  0  0  0  0  0  0  0  0
    2.7069   -0.5423   -5.2427 C   0  0  0  0  0  0  0  0  0  0  0  0
   -0.5568    0.7531   -2.4621 C   0  0  0  0  0  0  0  0  0  0  0  0
   -0.1870    1.4373   -3.7488 C   0  0  1  0  0  0  0  0  0  0  0  0
   -1.4592   -0.1138   -2.5377 O   0  0  0  0  0  0  0  0  0  0  0  0
   -0.2365    3.0036   -3.7499 C   0  0  2  0  0  0  0  0  0  0  0  0
    0.4851    3.6286   -4.9054 C   0  0  0  0  0  0  0  0  0  0  0  0
    1.8344    4.0335   -4.7686 C   0  0  0  0  0  0  0  0  0  0  0  0
    2.5649    4.5586   -5.8550 C   0  0  0  0  0  0  0  0  0  0  0  0
    1.9269    4.7137   -7.1171 C   0  0  0  0  0  0  0  0  0  0  0  0
    0.5716    4.3375   -7.2549 C   0  0  0  0  0  0  0  0  0  0  0  0
   -0.1357    3.7918   -6.1651 C   0  0  0  0  0  0  0  0  0  0  0  0
    2.6669    5.2312   -8.2055 C   0  0  0  0  0  0  0  0  0  0  0  0
    4.0214    5.5815   -8.0469 C   0  0  0  0  0  0  0  0  0  0  0  0
    4.6480    5.4279   -6.7982 C   0  0  0  0  0  0  0  0  0  0  0  0
    3.9238    4.9209   -5.7066 C   0  0  0  0  0  0  0  0  0  0  0  0
    0.9540    1.4645    0.8934 C   0  0  0  0  0  0  0  0  0  0  0  0
    2.2496    1.9032   -1.2545 C   0  0  2  0  0  0  0  0  0  0  0  0
    3.1158    2.9889   -0.7070 C   0  0  0  0  0  0  0  0  0  0  0  0
    2.7307    4.3453   -0.8333 C   0  0  0  0  0  0  0  0  0  0  0  0
    3.5173    5.3753   -0.2884 C   0  0  0  0  0  0  0  0  0  0  0  0
    4.7139    5.0660    0.3844 C   0  0  0  0  0  0  0  0  0  0  0  0
    5.1165    3.7224    0.5074 C   0  0  0  0  0  0  0  0  0  0  0  0
    4.3303    2.6940   -0.0445 C   0  0  0  0  0  0  0  0  0  0  0  0
    0.8426    1.7973   -0.5679 C   0  0  1  0  0  0  0  0  0  0  0  0
    2.0777    1.2391    1.4007 O   0  0  0  0  0  0  0  0  0  0  0  0
    5.6669    6.3039    1.0347 Cl  0  0  0  0  0  0  0  0  0  0  0  0
   -1.8603    1.3030    3.2494 C   0  0  0  0  0  0  0  0  0  0  0  0
   -2.2498    2.4605    1.0526 C   0  0  1  0  0  0  0  0  0  0  0  0
   -1.4473    1.3183    1.8175 C   0  0  1  0  0  0  0  0  0  0  0  0
   -2.5322    0.3368    3.6838 O   0  0  0  0  0  0  0  0  0  0  0  0
   -3.8399    2.3043    1.0183 C   0  0  0  0  0  0  0  0  0  0  0  0
   -4.4372    1.2032    0.2980 C   0  0  0  0  0  0  0  0  0  0  0  0
   -5.7923    1.1087    0.2804 N   0  0  0  0  0  0  0  0  0  0  0  0
   -6.6207    1.9851    0.8983 C   0  0  0  0  0  0  0  0  0  0  0  0
   -6.0847    3.0699    1.6111 C   0  0  0  0  0  0  0  0  0  0  0  0
   -4.6914    3.2552    1.6946 C   0  0  0  0  0  0  0  0  0  0  0  0
   -1.9064    3.8238    5.8552 C   0  0  0  0  0  0  0  0  0  0  0  0
   -0.4140    1.8328    6.2417 C   0  0  2  0  0  0  0  0  0  0  0  0
   -0.5517    1.9778    7.6538 O   0  0  0  0  0  0  0  0  0  0  0  0
   -1.6499    2.4054    5.4972 C   0  0  2  0  0  0  0  0  0  0  0  0
   -2.9955    4.1115    6.4042 O   0  0  0  0  0  0  0  0  0  0  0  0
   -1.4278    6.8127    4.4200 C   0  0  0  0  0  0  0  0  0  0  0  0
    0.1502    6.8256    6.3987 C   0  0  2  0  0  0  0  0  0  0  0  0
   -0.0940    8.1371    7.0711 C   0  0  0  0  0  0  0  0  0  0  0  0
   -0.7562    8.1806    8.3201 C   0  0  0  0  0  0  0  0  0  0  0  0
   -1.0166    9.4054    8.9614 C   0  0  0  0  0  0  0  0  0  0  0  0
   -0.6315   10.6293    8.3675 C   0  0  0  0  0  0  0  0  0  0  0  0
    0.0210   10.5899    7.1160 C   0  0  0  0  0  0  0  0  0  0  0  0
    0.3035    9.3613    6.4847 C   0  0  0  0  0  0  0  0  0  0  0  0
   -1.1340    6.2136    5.7525 C   0  0  2  0  0  0  0  0  0  0  0  0
   -0.8492    6.3340    3.4152 O   0  0  0  0  0  0  0  0  0  0  0  0
   -0.8933   11.8513    8.9253 N   0  0  0  0  0  0  0  0  0  0  0  0
   -0.8623   12.1898   10.2511 C   0  0  0  0  0  0  0  0  0  0  0  0
   -1.2485   13.5580   10.6892 C   0  0  2  0  0  0  0  0  0  0  0  0
   -0.4863   11.3726   11.1255 O   0  0  0  0  0  0  0  0  0  0  0  0
   -2.7763   13.8339   10.5049 C   0  0  1  0  0  0  0  0  0  0  0  0
   -3.0820   14.4403    9.1892 C   0  0  0  0  0  0  0  0  0  0  0  0
   -2.1411   15.1528    8.5174 N   0  0  0  0  0  0  0  0  0  0  0  0
   -0.8606   15.2513    8.9591 C   0  0  0  0  0  0  0  0  0  0  0  0
   -0.4225   14.5222   10.0199 N   0  0  0  0  0  0  0  0  0  0  0  0
   -4.2358   14.3611    8.7106 O   0  0  0  0  0  0  0  0  0  0  0  0
   -0.0643   16.0137    8.3699 O   0  0  0  0  0  0  0  0  0  0  0  0
   -3.4874    9.7779    3.9203 C   0  0  0  0  0  0  0  0  0  0  0  0
   -4.2034    8.1574    5.7017 C   0  0  2  0  0  0  0  0  0  0  0  0
   -5.0749    9.1572    6.3845 C   0  0  0  0  0  0  0  0  0  0  0  0
   -6.4250    9.3313    6.0070 C   0  0  0  0  0  0  0  0  0  0  0  0
   -7.2580   10.2370    6.6899 C   0  0  0  0  0  0  0  0  0  0  0  0
   -6.7667   11.0133    7.7681 C   0  0  0  0  0  0  0  0  0  0  0  0
   -5.4115   10.8484    8.1302 C   0  0  0  0  0  0  0  0  0  0  0  0
   -4.5791    9.9389    7.4514 C   0  0  0  0  0  0  0  0  0  0  0  0
   -3.0039    8.7775    4.9107 C   0  0  1  0  0  0  0  0  0  0  0  0
   -3.1118   10.9723    3.9658 O   0  0  0  0  0  0  0  0  0  0  0  0
   -7.4949   11.9047    8.5157 N   0  0  0  0  0  0  0  0  0  0  0  0
   -8.6935   12.4869    8.2428 C   0  0  0  0  0  0  0  0  0  0  0  0
   -9.2152   13.3386    9.1424 N   0  0  0  0  0  0  0  0  0  0  0  0
   -9.3477   12.3028    7.1930 O   0  0  0  0  0  0  0  0  0  0  0  0
   -6.3534   10.0677    2.0810 C   0  0  0  0  0  0  0  0  0  0  0  0
   -5.0190    8.3374   -1.8042 C   0  0  0  0  0  0  0  0  0  0  0  0
   -4.5294    9.0665    0.6098 C   0  0  1  0  0  0  0  0  0  0  0  0
   -4.8883    9.9822    1.8233 C   0  0  2  0  0  0  0  0  0  0  0  0
   -4.2223   10.7153   -1.3662 C   0  0  0  0  0  0  0  0  0  0  0  0
   -5.0346    9.5224   -0.7959 C   0  0  1  0  0  0  0  0  0  0  0  0
   -6.9407    9.0460    2.5098 O   0  0  0  0  0  0  0  0  0  0  0  0
   -5.8843   13.2341    1.5515 C   0  0  0  0  0  0  0  0  0  0  0  0
   -9.7515   15.3019    0.8398 C   0  0  2  0  0  0  0  0  0  0  0  0
   -8.5263   14.4238    0.4561 C   0  0  2  0  0  0  0  0  0  0  0  0
   -8.3952   13.1399    1.3281 C   0  0  1  0  0  0  0  0  0  0  0  0
   -7.0446   12.3584    1.2023 C   0  0  2  0  0  0  0  0  0  0  0  0
  -10.8581   17.5169    0.5781 N   0  0  1  0  0  0  0  0  0  0  0  0
   -9.8324   16.6094    0.0112 C   0  0  2  0  0  0  0  0  0  0  0  0
   -5.2983   13.7188    0.5529 O   0  0  0  0  0  0  0  0  0  0  0  0
  -11.0331   18.8350   -0.0910 C   0  0  2  0  0  0  0  0  0  0  0  0
   -9.8348   19.7950    0.1437 C   0  0  0  0  0  0  0  0  0  0  0  0
  -12.3422   19.4682    0.4443 C   0  0  0  0  0  0  0  0  0  0  0  0
   -3.2583   14.6077    2.2372 C   0  0  0  0  0  0  0  0  0  0  0  0
   -4.4880   14.6448    3.0741 C   0  0  2  0  0  0  0  0  0  0  0  0
   -4.1744   14.5467    4.5846 C   0  0  2  0  0  0  0  0  0  0  0  0
   -5.4733   13.9773    5.1651 C   0  0  2  0  0  0  0  0  0  0  0  0
   -5.9902   13.0660    4.0400 C   0  0  1  0  0  0  0  0  0  0  0  0
   -2.5302   13.5871    2.2623 O   0  0  0  0  0  0  0  0  0  0  0  0
   -2.5142   16.3842   -0.7678 C   0  0  0  0  0  0  0  0  0  0  0  0
   -0.7048   16.4700    1.0223 C   0  0  0  0  0  0  0  0  0  0  0  0
   -1.9406   15.7363    0.4389 C   0  0  1  0  0  0  0  0  0  0  0  0
   -2.1401   17.5090   -1.1720 O   0  0  0  0  0  0  0  0  0  0  0  0
    1.8356    1.5302   -4.1300 H   0  0  0  0  0  0  0  0  0  0  0  0
   -0.4164    0.2030   -0.5666 H   0  0  0  0  0  0  0  0  0  0  0  0
    0.3567    1.2356    2.7411 H   0  0  0  0  0  0  0  0  0  0  0  0
   -0.9661    3.0443    3.6625 H   0  0  0  0  0  0  0  0  0  0  0  0
   -0.1521    4.4895    5.1606 H   0  0  0  0  0  0  0  0  0  0  0  0
   -2.3024    8.0222    3.1513 H   0  0  0  0  0  0  0  0  0  0  0  0
   -4.5549    8.3792    3.0312 H   0  0  0  0  0  0  0  0  0  0  0  0
   -8.0845   10.9744    2.2783 H   0  0  0  0  0  0  0  0  0  0  0  0
   -3.5697   16.4336    1.4797 H   0  0  0  0  0  0  0  0  0  0  0  0
   -3.8566   16.1961   -2.2620 H   0  0  0  0  0  0  0  0  0  0  0  0
   -3.7906   14.8917   -1.2090 H   0  0  0  0  0  0  0  0  0  0  0  0
    2.7835   -1.5143   -5.7356 H   0  0  0  0  0  0  0  0  0  0  0  0
    3.3536   -0.5429   -4.3627 H   0  0  0  0  0  0  0  0  0  0  0  0
    3.0520    0.2273   -5.9360 H   0  0  0  0  0  0  0  0  0  0  0  0
   -0.9258    1.1446   -4.5056 H   0  0  0  0  0  0  0  0  0  0  0  0
    0.1756    3.4062   -2.8281 H   0  0  0  0  0  0  0  0  0  0  0  0
   -1.2794    3.3303   -3.7573 H   0  0  0  0  0  0  0  0  0  0  0  0
    2.3008    3.9318   -3.8663 H   0  0  0  0  0  0  0  0  0  0  0  0
    0.0898    4.4526   -8.1513 H   0  0  0  0  0  0  0  0  0  0  0  0
   -1.1102    3.5091   -6.2996 H   0  0  0  0  0  0  0  0  0  0  0  0
    2.2299    5.3522   -9.1219 H   0  0  0  0  0  0  0  0  0  0  0  0
    4.5520    5.9490   -8.8393 H   0  0  0  0  0  0  0  0  0  0  0  0
    5.6312    5.6854   -6.6817 H   0  0  0  0  0  0  0  0  0  0  0  0
    4.3979    4.8138   -4.8062 H   0  0  0  0  0  0  0  0  0  0  0  0
    2.7428    0.9282   -1.1988 H   0  0  0  0  0  0  0  0  0  0  0  0
    2.1398    2.1259   -2.3023 H   0  0  0  0  0  0  0  0  0  0  0  0
    1.8693    4.5963   -1.3222 H   0  0  0  0  0  0  0  0  0  0  0  0
    3.2119    6.3466   -0.3854 H   0  0  0  0  0  0  0  0  0  0  0  0
    5.9809    3.4865    0.9987 H   0  0  0  0  0  0  0  0  0  0  0  0
    4.6441    1.7251    0.0518 H   0  0  0  0  0  0  0  0  0  0  0  0
    0.3695    2.7768   -0.6189 H   0  0  0  0  0  0  0  0  0  0  0  0
   -1.8733    3.4180    1.5116 H   0  0  0  0  0  0  0  0  0  0  0  0
   -1.7896    2.4984    0.0275 H   0  0  0  0  0  0  0  0  0  0  0  0
   -1.7176    0.3608    1.3626 H   0  0  0  0  0  0  0  0  0  0  0  0
   -3.9366    0.4245   -0.2416 H   0  0  0  0  0  0  0  0  0  0  0  0
   -7.6329    1.8514    0.8434 H   0  0  0  0  0  0  0  0  0  0  0  0
   -6.7140    3.7285    2.0742 H   0  0  0  0  0  0  0  0  0  0  0  0
   -4.3859    4.1074    2.2694 H   0  0  0  0  0  0  0  0  0  0  0  0
   -0.3053    0.7694    6.0200 H   0  0  0  0  0  0  0  0  0  0  0  0
    0.4974    2.3441    5.9262 H   0  0  0  0  0  0  0  0  0  0  0  0
    0.2626    1.5852    8.0349 H   0  0  0  0  0  0  0  0  0  0  0  0
   -2.5164    1.8045    5.7932 H   0  0  0  0  0  0  0  0  0  0  0  0
    0.5444    6.1341    7.1492 H   0  0  0  0  0  0  0  0  0  0  0  0
    0.9341    6.9241    5.6404 H   0  0  0  0  0  0  0  0  0  0  0  0
   -1.0603    7.3151    8.7724 H   0  0  0  0  0  0  0  0  0  0  0  0
   -1.5130    9.3955    9.8548 H   0  0  0  0  0  0  0  0  0  0  0  0
    0.3002   11.4603    6.6556 H   0  0  0  0  0  0  0  0  0  0  0  0
    0.7870    9.3675    5.5837 H   0  0  0  0  0  0  0  0  0  0  0  0
   -1.9666    6.3872    6.4270 H   0  0  0  0  0  0  0  0  0  0  0  0
   -1.0978   12.5690    8.3053 H   0  0  0  0  0  0  0  0  0  0  0  0
   -1.0315   13.6574   11.7581 H   0  0  0  0  0  0  0  0  0  0  0  0
   -3.3588   12.9210   10.6544 H   0  0  0  0  0  0  0  0  0  0  0  0
   -3.1016   14.5525   11.2623 H   0  0  0  0  0  0  0  0  0  0  0  0
   -2.3939   15.6153    7.7020 H   0  0  0  0  0  0  0  0  0  0  0  0
    0.4942   14.6386   10.3179 H   0  0  0  0  0  0  0  0  0  0  0  0
   -4.7912    7.5350    5.0214 H   0  0  0  0  0  0  0  0  0  0  0  0
   -3.8405    7.4920    6.4822 H   0  0  0  0  0  0  0  0  0  0  0  0
   -6.8190    8.7892    5.2367 H   0  0  0  0  0  0  0  0  0  0  0  0
   -8.2299   10.2990    6.3920 H   0  0  0  0  0  0  0  0  0  0  0  0
   -5.0159   11.3925    8.9000 H   0  0  0  0  0  0  0  0  0  0  0  0
   -3.6079    9.8435    7.7476 H   0  0  0  0  0  0  0  0  0  0  0  0
   -2.3319    9.2658    5.6154 H   0  0  0  0  0  0  0  0  0  0  0  0
   -7.0889   12.1749    9.3548 H   0  0  0  0  0  0  0  0  0  0  0  0
  -10.0668   13.7688    8.9647 H   0  0  0  0  0  0  0  0  0  0  0  0
   -8.7451   13.5283    9.9696 H   0  0  0  0  0  0  0  0  0  0  0  0
   -5.6720    7.5321   -1.4591 H   0  0  0  0  0  0  0  0  0  0  0  0
   -4.0095    7.9385   -1.9114 H   0  0  0  0  0  0  0  0  0  0  0  0
   -5.3713    8.6599   -2.7852 H   0  0  0  0  0  0  0  0  0  0  0  0
   -3.4408    8.9580    0.5660 H   0  0  0  0  0  0  0  0  0  0  0  0
   -4.9360    8.0698    0.8144 H   0  0  0  0  0  0  0  0  0  0  0  0
   -4.4437   10.9673    1.6951 H   0  0  0  0  0  0  0  0  0  0  0  0
   -3.2003   10.4098   -1.5954 H   0  0  0  0  0  0  0  0  0  0  0  0
   -4.1777   11.5379   -0.6541 H   0  0  0  0  0  0  0  0  0  0  0  0
   -4.6876   11.0846   -2.2812 H   0  0  0  0  0  0  0  0  0  0  0  0
   -6.0748    9.8378   -0.7038 H   0  0  0  0  0  0  0  0  0  0  0  0
   -9.6773   15.5671    1.8989 H   0  0  0  0  0  0  0  0  0  0  0  0
  -10.6729   14.7301    0.6979 H   0  0  0  0  0  0  0  0  0  0  0  0
   -7.6309   15.0374    0.5696 H   0  0  0  0  0  0  0  0  0  0  0  0
   -8.6045   14.1317   -0.5944 H   0  0  0  0  0  0  0  0  0  0  0  0
   -8.5564   13.4090    2.3731 H   0  0  0  0  0  0  0  0  0  0  0  0
   -9.2134   12.4701    1.0436 H   0  0  0  0  0  0  0  0  0  0  0  0
   -6.9611   12.0686    0.1487 H   0  0  0  0  0  0  0  0  0  0  0  0
  -11.7492   17.0227    0.4931 H   0  0  0  0  0  0  0  0  0  0  0  0
  -10.0808   16.3679   -1.0263 H   0  0  0  0  0  0  0  0  0  0  0  0
   -8.8576   17.0994    0.0351 H   0  0  0  0  0  0  0  0  0  0  0  0
  -11.1552   18.6835   -1.1679 H   0  0  0  0  0  0  0  0  0  0  0  0
   -8.9344   19.4176   -0.3417 H   0  0  0  0  0  0  0  0  0  0  0  0
   -9.6366   19.9067    1.2118 H   0  0  0  0  0  0  0  0  0  0  0  0
  -10.0471   20.7801   -0.2774 H   0  0  0  0  0  0  0  0  0  0  0  0
  -12.5512   20.4075   -0.0723 H   0  0  0  0  0  0  0  0  0  0  0  0
  -12.2636   19.6679    1.5155 H   0  0  0  0  0  0  0  0  0  0  0  0
  -13.1846   18.7945    0.2768 H   0  0  0  0  0  0  0  0  0  0  0  0
   -5.0040   15.5959    2.9030 H   0  0  0  0  0  0  0  0  0  0  0  0
   -3.9306   15.5207    5.0177 H   0  0  0  0  0  0  0  0  0  0  0  0
   -3.3523   13.8512    4.7847 H   0  0  0  0  0  0  0  0  0  0  0  0
   -6.1903   14.7824    5.3589 H   0  0  0  0  0  0  0  0  0  0  0  0
   -5.2951   13.4244    6.0893 H   0  0  0  0  0  0  0  0  0  0  0  0
   -7.0792   13.0528    4.0670 H   0  0  0  0  0  0  0  0  0  0  0  0
   -5.6154   12.0502    4.1789 H   0  0  0  0  0  0  0  0  0  0  0  0
   -0.3299   15.9344    1.8959 H   0  0  0  0  0  0  0  0  0  0  0  0
   -0.9516   17.4914    1.3188 H   0  0  0  0  0  0  0  0  0  0  0  0
    0.0929   16.5033    0.2770 H   0  0  0  0  0  0  0  0  0  0  0  0
   -1.6155   14.7342    0.1455 H   0  0  0  0  0  0  0  0  0  0  0  0
  1  2  1  0  0  0  0 
 15  3  1  0  0  0  0 
 29  4  1  0  0  0  0 
 40  5  1  0  0  0  0 
 50  6  1  0  0  0  0 
 55  7  1  0  0  0  0 
 76  8  1  0  0  0  0 
 90  9  1  0  0  0  0 
 97 10  1  0  0  0  0 
108 11  1  0  0  0  0 
114 12  1  0  0  0  0 
  1 13  2  0  0  0  0 
  1 14  1  0  0  0  0 
 16  2  1  0  0  0  0 
 16 15  1  0  0  0  0 
 15 17  2  0  0  0  0 
 16 18  1  0  0  0  0 
 18 19  1  0  0  0  0 
 20 21  2  0  0  0  0 
 21 22  1  0  0  0  0 
 22 23  2  0  0  0  0 
 23 24  1  0  0  0  0 
 19 20  1  0  0  0  0 
 19 24  2  0  0  0  0 
 25 26  2  0  0  0  0 
 26 27  1  0  0  0  0 
 27 28  2  0  0  0  0 
 21 28  1  0  0  0  0 
 22 25  1  0  0  0  0 
 37  3  1  0  0  0  0 
 37 30  1  0  0  0  0 
 30 31  1  0  0  0  0 
 31 32  2  0  0  0  0 
 32 33  1  0  0  0  0 
 33 34  2  0  0  0  0 
 34 35  1  0  0  0  0 
 35 36  2  0  0  0  0 
 31 36  1  0  0  0  0 
 37 29  1  0  0  0  0 
 29 38  2  0  0  0  0 
 34 39  1  0  0  0  0 
 42 41  1  0  0  0  0 
 42  4  1  0  0  0  0 
 42 40  1  0  0  0  0 
 40 43  2  0  0  0  0 
 41 44  1  0  0  0  0 
 45 46  1  0  0  0  0 
 46 47  2  0  0  0  0 
 47 48  1  0  0  0  0 
 48 49  2  0  0  0  0 
 44 45  2  0  0  0  0 
 44 49  1  0  0  0  0 
 53  5  1  0  0  0  0 
 53 51  1  0  0  0  0 
 51 52  1  0  0  0  0 
 53 50  1  0  0  0  0 
 50 54  2  0  0  0  0 
 63  6  1  0  0  0  0 
 63 56  1  0  0  0  0 
 56 57  1  0  0  0  0 
 57 58  2  0  0  0  0 
 58 59  1  0  0  0  0 
 59 60  2  0  0  0  0 
 60 61  1  0  0  0  0 
 61 62  2  0  0  0  0 
 57 62  1  0  0  0  0 
 63 55  1  0  0  0  0 
 55 64  2  0  0  0  0 
 60 65  1  0  0  0  0 
 65 66  1  0  0  0  0 
 67 66  1  0  0  0  0 
 66 68  2  0  0  0  0 
 69 70  1  0  0  0  0 
 70 71  1  0  0  0  0 
 71 72  1  0  0  0  0 
 72 73  1  0  0  0  0 
 67 69  1  0  0  0  0 
 67 73  1  0  0  0  0 
 70 74  2  0  0  0  0 
 72 75  2  0  0  0  0 
 84  7  1  0  0  0  0 
 84 77  1  0  0  0  0 
 77 78  1  0  0  0  0 
 78 79  2  0  0  0  0 
 79 80  1  0  0  0  0 
 80 81  2  0  0  0  0 
 81 82  1  0  0  0  0 
 82 83  2  0  0  0  0 
 78 83  1  0  0  0  0 
 84 76  1  0  0  0  0 
 76 85  2  0  0  0  0 
 81 86  1  0  0  0  0 
 86 87  1  0  0  0  0 
 87 88  1  0  0  0  0 
 87 89  2  0  0  0  0 
 94 95  1  0  0  0  0 
 95 91  1  0  0  0  0 
 95 92  1  0  0  0  0 
 93 92  1  0  0  0  0 
 93  8  1  0  0  0  0 
 93 90  1  0  0  0  0 
 90 96  2  0  0  0  0 
102103  1  0  0  0  0 
103 98  1  0  0  0  0 
 98 99  1  0  0  0  0 
 99100  1  0  0  0  0 
101100  1  0  0  0  0 
101  9  1  0  0  0  0 
101 97  1  0  0  0  0 
 97104  2  0  0  0  0 
102105  1  0  0  0  0 
105106  1  0  0  0  0 
105107  1  0  0  0  0 
113108  2  0  0  0  0 
109108  1  0  0  0  0 
109110  1  0  0  0  0 
110111  1  0  0  0  0 
111112  1  0  0  0  0 
112 10  1  0  0  0  0 
109 10  1  0  0  0  0 
116115  1  0  0  0  0 
116 11  1  0  0  0  0 
116114  1  0  0  0  0 
114117  2  0  0  0  0 
118  2  1  0  0  0  0 
119  3  1  0  0  0  0 
120  4  1  0  0  0  0 
121  5  1  0  0  0  0 
122  6  1  0  0  0  0 
123  7  1  0  0  0  0 
124  8  1  0  0  0  0 
125  9  1  0  0  0  0 
126 11  1  0  0  0  0 
127 12  1  0  0  0  0 
128 12  1  0  0  0  0 
129 14  1  0  0  0  0 
130 14  1  0  0  0  0 
131 14  1  0  0  0  0 
 16132  1  0  0  0  0 
133 18  1  0  0  0  0 
134 18  1  0  0  0  0 
135 20  1  0  0  0  0 
136 23  1  0  0  0  0 
137 24  1  0  0  0  0 
138 25  1  0  0  0  0 
139 26  1  0  0  0  0 
140 27  1  0  0  0  0 
141 28  1  0  0  0  0 
142 30  1  0  0  0  0 
143 30  1  0  0  0  0 
144 32  1  0  0  0  0 
145 33  1  0  0  0  0 
146 35  1  0  0  0  0 
147 36  1  0  0  0  0 
 37148  1  0  0  0  0 
149 41  1  0  0  0  0 
150 41  1  0  0  0  0 
 42151  1  0  0  0  0 
152 45  1  0  0  0  0 
153 47  1  0  0  0  0 
154 48  1  0  0  0  0 
155 49  1  0  0  0  0 
156 51  1  0  0  0  0 
157 51  1  0  0  0  0 
158 52  1  0  0  0  0 
 53159  1  0  0  0  0 
160 56  1  0  0  0  0 
161 56  1  0  0  0  0 
162 58  1  0  0  0  0 
163 59  1  0  0  0  0 
164 61  1  0  0  0  0 
165 62  1  0  0  0  0 
 63166  1  0  0  0  0 
167 65  1  0  0  0  0 
 67168  1  0  0  0  0 
169 69  1  0  0  0  0 
170 69  1  0  0  0  0 
171 71  1  0  0  0  0 
172 73  1  0  0  0  0 
173 77  1  0  0  0  0 
174 77  1  0  0  0  0 
175 79  1  0  0  0  0 
176 80  1  0  0  0  0 
177 82  1  0  0  0  0 
178 83  1  0  0  0  0 
 84179  1  0  0  0  0 
180 86  1  0  0  0  0 
181 88  1  0  0  0  0 
182 88  1  0  0  0  0 
183 91  1  0  0  0  0 
184 91  1  0  0  0  0 
185 91  1  0  0  0  0 
186 92  1  0  0  0  0 
187 92  1  0  0  0  0 
 93188  1  0  0  0  0 
189 94  1  0  0  0  0 
190 94  1  0  0  0  0 
191 94  1  0  0  0  0 
192 95  1  0  0  0  0 
193 98  1  0  0  0  0 
194 98  1  0  0  0  0 
195 99  1  0  0  0  0 
196 99  1  0  0  0  0 
197100  1  0  0  0  0 
198100  1  0  0  0  0 
101199  1  0  0  0  0 
200102  1  0  0  0  0 
201103  1  0  0  0  0 
202103  1  0  0  0  0 
203105  1  0  0  0  0 
204106  1  0  0  0  0 
205106  1  0  0  0  0 
206106  1  0  0  0  0 
207107  1  0  0  0  0 
208107  1  0  0  0  0 
209107  1  0  0  0  0 
109210  1  0  0  0  0 
211110  1  0  0  0  0 
212110  1  0  0  0  0 
213111  1  0  0  0  0 
214111  1  0  0  0  0 
215112  1  0  0  0  0 
216112  1  0  0  0  0 
217115  1  0  0  0  0 
218115  1  0  0  0  0 
219115  1  0  0  0  0 
116220  1  0  0  0  0 
M  END
> <cdk:Title>
degarelix

> <Conformer>
1

> <SuperDrugID>
SD003532

$$$$
