pregnenolone succinate
  CDK     0628171801

 66 69  0  0  0  0  0  0  0  0999 V2000
   -5.1510    4.7354   -0.1015 C   0  0  0  0  0  0  0  0  0  0  0  0
   -5.3720    3.8898    1.2093 C   0  0  1  0  0  0  0  0  0  0  0  0
   -4.4190    2.6023    1.2279 C   0  0  2  0  0  0  0  0  0  0  0  0
   -5.1052    4.7925    2.3755 C   0  0  0  0  0  0  0  0  0  0  0  0
   -6.8792    3.4173    1.2669 C   0  0  2  0  0  0  0  0  0  0  0  0
   -2.9363    3.0216    1.5444 C   0  0  2  0  0  0  0  0  0  0  0  0
   -4.5189    1.6231   -0.0034 C   0  0  1  0  0  0  0  0  0  0  0  0
   -3.9791    4.6998    3.1211 C   0  0  0  0  0  0  0  0  0  0  0  0
   -6.0702    5.8648    2.7045 C   0  0  1  0  0  0  0  0  0  0  0  0
   -7.9113    4.5603    1.4707 C   0  0  1  0  0  0  0  0  0  0  0  0
   -1.9853    1.7850    1.5280 C   0  0  1  0  0  0  0  0  0  0  0  0
   -2.9024    3.7495    2.9169 C   0  0  2  0  0  0  0  0  0  0  0  0
   -3.4511    0.4805   -0.0333 C   0  0  1  0  0  0  0  0  0  0  0  0
   -7.5588    5.4245    2.7070 C   0  0  2  0  0  0  0  0  0  0  0  0
   -1.9889    1.0101    0.1710 C   0  0  1  0  0  0  0  0  0  0  0  0
   -0.4881    1.9865    1.8532 C   0  0  2  0  0  0  0  0  0  0  0  0
   -8.3790    6.6114    2.6942 O   0  0  0  0  0  0  0  0  0  0  0  0
   -1.5526    1.8593   -1.0859 C   0  0  0  0  0  0  0  0  0  0  0  0
   -0.8998   -0.0721    0.5038 C   0  0  2  0  0  0  0  0  0  0  0  0
    0.2010    0.7200    1.2833 C   0  0  1  0  0  0  0  0  0  0  0  0
   -0.4198   -0.8947   -0.6458 C   0  0  0  0  0  0  0  0  0  0  0  0
   -1.1374   -2.0977   -1.1151 C   0  0  0  0  0  0  0  0  0  0  0  0
    0.5962   -0.5502   -1.2950 O   0  0  0  0  0  0  0  0  0  0  0  0
   -2.5795    3.7269    0.7927 H   0  0  0  0  0  0  0  0  0  0  0  0
   -4.7349    1.9855    2.0791 H   0  0  0  0  0  0  0  0  0  0  0  0
   -2.3646    1.1173    2.3157 H   0  0  0  0  0  0  0  0  0  0  0  0
   -9.1256    7.1632    3.7000 C   0  0  0  0  0  0  0  0  0  0  0  0
   -9.9114    8.3826    3.4139 C   0  0  2  0  0  0  0  0  0  0  0  0
   -9.1295    6.6705    4.8524 O   0  0  0  0  0  0  0  0  0  0  0  0
  -11.1353    8.0386    2.4688 C   0  0  2  0  0  0  0  0  0  0  0  0
  -11.8810    9.2442    2.0623 C   0  0  0  0  0  0  0  0  0  0  0  0
  -13.2019    9.3703    2.3332 O   0  0  0  0  0  0  0  0  0  0  0  0
  -11.3081   10.1642    1.4355 O   0  0  0  0  0  0  0  0  0  0  0  0
   -5.4520    4.1850   -0.9919 H   0  0  0  0  0  0  0  0  0  0  0  0
   -4.1096    5.0291   -0.2221 H   0  0  0  0  0  0  0  0  0  0  0  0
   -5.7332    5.6556   -0.1015 H   0  0  0  0  0  0  0  0  0  0  0  0
   -7.0130    2.7072    2.0879 H   0  0  0  0  0  0  0  0  0  0  0  0
   -7.1481    2.8909    0.3472 H   0  0  0  0  0  0  0  0  0  0  0  0
   -5.5050    1.1530   -0.0089 H   0  0  0  0  0  0  0  0  0  0  0  0
   -4.4360    2.1753   -0.9369 H   0  0  0  0  0  0  0  0  0  0  0  0
   -3.8427    5.3288    3.8793 H   0  0  0  0  0  0  0  0  0  0  0  0
   -5.8821    6.3029    3.6899 H   0  0  0  0  0  0  0  0  0  0  0  0
   -5.9376    6.6765    1.9857 H   0  0  0  0  0  0  0  0  0  0  0  0
   -7.9503    5.1870    0.5762 H   0  0  0  0  0  0  0  0  0  0  0  0
   -8.9080    4.1304    1.6031 H   0  0  0  0  0  0  0  0  0  0  0  0
   -1.9491    4.2785    3.0031 H   0  0  0  0  0  0  0  0  0  0  0  0
   -2.9473    3.0207    3.7303 H   0  0  0  0  0  0  0  0  0  0  0  0
   -3.6995   -0.2444    0.7466 H   0  0  0  0  0  0  0  0  0  0  0  0
   -3.5227   -0.0486   -0.9875 H   0  0  0  0  0  0  0  0  0  0  0  0
   -7.7465    4.8307    3.6078 H   0  0  0  0  0  0  0  0  0  0  0  0
   -0.3173    2.0814    2.9292 H   0  0  0  0  0  0  0  0  0  0  0  0
   -0.1095    2.8873    1.3636 H   0  0  0  0  0  0  0  0  0  0  0  0
   -2.2114    2.7046   -1.2676 H   0  0  0  0  0  0  0  0  0  0  0  0
   -0.5433    2.2561   -0.9799 H   0  0  0  0  0  0  0  0  0  0  0  0
   -1.5703    1.2422   -1.9858 H   0  0  0  0  0  0  0  0  0  0  0  0
   -1.3250   -0.7815    1.2242 H   0  0  0  0  0  0  0  0  0  0  0  0
    1.0299    1.0300    0.6406 H   0  0  0  0  0  0  0  0  0  0  0  0
    0.6136    0.1038    2.0882 H   0  0  0  0  0  0  0  0  0  0  0  0
   -1.9530   -2.3728   -0.4459 H   0  0  0  0  0  0  0  0  0  0  0  0
   -0.4474   -2.9412   -1.1699 H   0  0  0  0  0  0  0  0  0  0  0  0
   -1.5487   -1.9161   -2.1089 H   0  0  0  0  0  0  0  0  0  0  0  0
   -9.1781    9.1527    3.0520 H   0  0  0  0  0  0  0  0  0  0  0  0
  -10.3228    8.7742    4.3480 H   0  0  0  0  0  0  0  0  0  0  0  0
  -11.8079    7.3539    2.9877 H   0  0  0  0  0  0  0  0  0  0  0  0
  -10.7792    7.5405    1.5640 H   0  0  0  0  0  0  0  0  0  0  0  0
  -13.6936   10.1684    2.0423 H   0  0  0  0  0  0  0  0  0  0  0  0
  2  1  1  0  0  0  0 
  3  2  1  0  0  0  0 
  2  4  1  0  0  0  0 
  2  5  1  0  0  0  0 
  6  3  1  0  0  0  0 
  3  7  1  0  0  0  0 
  3 25  1  0  0  0  0 
  4  8  2  0  0  0  0 
  4  9  1  0  0  0  0 
  5 10  1  0  0  0  0 
 11  6  1  0  0  0  0 
  6 12  1  0  0  0  0 
  6 24  1  0  0  0  0 
  7 13  1  0  0  0  0 
  8 12  1  0  0  0  0 
 14  9  1  0  0  0  0 
 14 10  1  0  0  0  0 
 15 11  1  0  0  0  0 
 11 16  1  0  0  0  0 
 11 26  1  0  0  0  0 
 15 13  1  0  0  0  0 
 14 17  1  0  0  0  0 
 15 18  1  0  0  0  0 
 15 19  1  0  0  0  0 
 16 20  1  0  0  0  0 
 19 20  1  0  0  0  0 
 19 21  1  0  0  0  0 
 21 22  1  0  0  0  0 
 21 23  2  0  0  0  0 
 17 27  1  0  0  0  0 
 27 28  1  0  0  0  0 
 27 29  2  0  0  0  0 
 28 30  1  0  0  0  0 
 30 31  1  0  0  0  0 
 31 32  1  0  0  0  0 
 31 33  2  0  0  0  0 
  1 34  1  0  0  0  0 
  1 35  1  0  0  0  0 
  1 36  1  0  0  0  0 
  5 37  1  0  0  0  0 
  5 38  1  0  0  0  0 
  7 39  1  0  0  0  0 
  7 40  1  0  0  0  0 
  8 41  1  0  0  0  0 
  9 42  1  0  0  0  0 
  9 43  1  0  0  0  0 
 10 44  1  0  0  0  0 
 10 45  1  0  0  0  0 
 12 46  1  0  0  0  0 
 12 47  1  0  0  0  0 
 13 48  1  0  0  0  0 
 13 49  1  0  0  0  0 
 14 50  1  0  0  0  0 
 16 51  1  0  0  0  0 
 16 52  1  0  0  0  0 
 18 53  1  0  0  0  0 
 18 54  1  0  0  0  0 
 18 55  1  0  0  0  0 
 19 56  1  0  0  0  0 
 20 57  1  0  0  0  0 
 20 58  1  0  0  0  0 
 22 59  1  0  0  0  0 
 22 60  1  0  0  0  0 
 22 61  1  0  0  0  0 
 28 62  1  0  0  0  0 
 28 63  1  0  0  0  0 
 30 64  1  0  0  0  0 
 30 65  1  0  0  0  0 
 32 66  1  0  0  0  0 
M  END
> <cdk:Title>
pregnenolone succinate

> <Conformer>
1

> <SuperDrugID>
SD002024

$$$$
