dexamethasone valerate
  CDK     0628171802

 71 74  0  0  0  0  0  0  0  0999 V2000
   -2.8473    7.7879   -0.2200 C   0  0  0  0  0  0  0  0  0  0  0  0
   -2.4294    7.1133    1.1483 C   0  0  1  0  0  0  0  0  0  0  0  0
   -3.6909    7.0342    2.1186 C   0  0  1  0  0  0  0  0  0  0  0  0
   -2.0608    5.5925    1.0256 C   0  0  2  0  0  0  0  0  0  0  0  0
   -1.1304    7.8160    1.6977 C   0  0  2  0  0  0  0  0  0  0  0  0
   -3.2745    6.5881    3.4398 O   0  0  0  0  0  0  0  0  0  0  0  0
   -4.5871    8.2594    2.1779 C   0  0  0  0  0  0  0  0  0  0  0  0
   -4.4558    5.7742    1.5249 C   0  0  1  0  0  0  0  0  0  0  0  0
   -0.8590    5.2815    0.0680 C   0  0  1  0  0  0  0  0  0  0  0  0
   -3.4088    4.8873    0.7836 C   0  0  2  0  0  0  0  0  0  0  0  0
    0.1623    7.5610    0.8453 C   0  0  1  0  0  0  0  0  0  0  0  0
   -3.4823    7.0142    4.7225 C   0  0  0  0  0  0  0  0  0  0  0  0
   -4.1313    9.6406    2.4648 C   0  0  2  0  0  0  0  0  0  0  0  0
   -5.8155    8.1599    1.9354 O   0  0  0  0  0  0  0  0  0  0  0  0
   -5.3272    4.9755    2.5408 C   0  0  0  0  0  0  0  0  0  0  0  0
    0.4499    6.0353    0.5487 C   0  0  1  0  0  0  0  0  0  0  0  0
   -0.5957    3.7475   -0.0727 C   0  0  1  0  0  0  0  0  0  0  0  0
    0.1234    8.3485   -0.3414 O   0  0  0  0  0  0  0  0  0  0  0  0
   -3.3029    6.0397    5.8171 C   0  0  2  0  0  0  0  0  0  0  0  0
   -3.8484    8.1752    5.0095 O   0  0  0  0  0  0  0  0  0  0  0  0
   -4.9555   10.2552    3.4541 O   0  0  0  0  0  0  0  0  0  0  0  0
    0.7714    5.5214    1.8003 F   0  0  0  0  0  0  0  0  0  0  0  0
    1.7055    5.7015   -0.3884 C   0  0  2  0  0  0  0  0  0  0  0  0
    0.6424    3.4469   -0.9525 C   0  0  2  0  0  0  0  0  0  0  0  0
   -4.6112    5.8713    6.6372 C   0  0  2  0  0  0  0  0  0  0  0  0
    1.6222    6.2573   -1.8595 C   0  0  0  0  0  0  0  0  0  0  0  0
    1.8070    4.2035   -0.4763 C   0  0  0  0  0  0  0  0  0  0  0  0
    2.9341    6.3177    0.1719 C   0  0  0  0  0  0  0  0  0  0  0  0
   -4.5430    4.7278    7.6812 C   0  0  2  0  0  0  0  0  0  0  0  0
    2.9221    3.5495   -0.0786 C   0  0  0  0  0  0  0  0  0  0  0  0
    4.0093    5.6055    0.5449 C   0  0  0  0  0  0  0  0  0  0  0  0
   -5.7777    4.7067    8.6113 C   0  0  0  0  0  0  0  0  0  0  0  0
    4.0192    4.2283    0.4250 C   0  0  0  0  0  0  0  0  0  0  0  0
    5.0335    3.5868    0.7848 O   0  0  0  0  0  0  0  0  0  0  0  0
   -2.9675    8.8625   -0.0914 H   0  0  0  0  0  0  0  0  0  0  0  0
   -3.7896    7.4027   -0.6055 H   0  0  0  0  0  0  0  0  0  0  0  0
   -2.1150    7.6426   -1.0075 H   0  0  0  0  0  0  0  0  0  0  0  0
   -1.7353    5.2279    2.0087 H   0  0  0  0  0  0  0  0  0  0  0  0
   -0.9316    7.4716    2.7158 H   0  0  0  0  0  0  0  0  0  0  0  0
   -1.2746    8.8933    1.7630 H   0  0  0  0  0  0  0  0  0  0  0  0
   -5.1608    6.1062    0.7551 H   0  0  0  0  0  0  0  0  0  0  0  0
   -1.1275    5.6291   -0.9286 H   0  0  0  0  0  0  0  0  0  0  0  0
   -3.3848    3.8625    1.1661 H   0  0  0  0  0  0  0  0  0  0  0  0
   -3.6231    4.8420   -0.2883 H   0  0  0  0  0  0  0  0  0  0  0  0
    0.9989    7.9703    1.4186 H   0  0  0  0  0  0  0  0  0  0  0  0
   -4.1839   10.2423    1.5553 H   0  0  0  0  0  0  0  0  0  0  0  0
   -3.1097    9.6589    2.8331 H   0  0  0  0  0  0  0  0  0  0  0  0
   -4.7042    4.4581    3.2723 H   0  0  0  0  0  0  0  0  0  0  0  0
   -6.0003    5.6499    3.0749 H   0  0  0  0  0  0  0  0  0  0  0  0
   -5.9232    4.2258    2.0167 H   0  0  0  0  0  0  0  0  0  0  0  0
   -0.4465    3.3025    0.9161 H   0  0  0  0  0  0  0  0  0  0  0  0
   -1.4618    3.2596   -0.5274 H   0  0  0  0  0  0  0  0  0  0  0  0
    0.0374    9.2774   -0.0392 H   0  0  0  0  0  0  0  0  0  0  0  0
   -2.4967    6.3806    6.4731 H   0  0  0  0  0  0  0  0  0  0  0  0
   -3.0217    5.0701    5.3951 H   0  0  0  0  0  0  0  0  0  0  0  0
   -5.8679   10.2116    3.0932 H   0  0  0  0  0  0  0  0  0  0  0  0
    0.4258    3.7152   -1.9888 H   0  0  0  0  0  0  0  0  0  0  0  0
    0.8091    2.3651   -0.9451 H   0  0  0  0  0  0  0  0  0  0  0  0
   -5.4411    5.6681    5.9544 H   0  0  0  0  0  0  0  0  0  0  0  0
   -4.8224    6.8109    7.1572 H   0  0  0  0  0  0  0  0  0  0  0  0
    0.6567    6.0599   -2.3200 H   0  0  0  0  0  0  0  0  0  0  0  0
    1.7876    7.3349   -1.9108 H   0  0  0  0  0  0  0  0  0  0  0  0
    2.3854    5.7928   -2.4919 H   0  0  0  0  0  0  0  0  0  0  0  0
    2.9841    7.3064    0.2702 H   0  0  0  0  0  0  0  0  0  0  0  0
   -3.6413    4.8312    8.2924 H   0  0  0  0  0  0  0  0  0  0  0  0
   -4.4867    3.7729    7.1558 H   0  0  0  0  0  0  0  0  0  0  0  0
    2.9684    2.5563   -0.1319 H   0  0  0  0  0  0  0  0  0  0  0  0
    4.8078    6.0743    0.9081 H   0  0  0  0  0  0  0  0  0  0  0  0
   -5.7450    3.8190    9.2455 H   0  0  0  0  0  0  0  0  0  0  0  0
   -6.7002    4.6852    8.0273 H   0  0  0  0  0  0  0  0  0  0  0  0
   -5.7891    5.5945    9.2481 H   0  0  0  0  0  0  0  0  0  0  0  0
  2  1  1  0  0  0  0 
  2  3  1  0  0  0  0 
  4  2  1  0  0  0  0 
  2  5  1  0  0  0  0 
  3  6  1  0  0  0  0 
  3  7  1  0  0  0  0 
  3  8  1  0  0  0  0 
  9  4  1  0  0  0  0 
  4 10  1  0  0  0  0 
 11  5  1  0  0  0  0 
  6 12  1  0  0  0  0 
  7 13  1  0  0  0  0 
  7 14  2  0  0  0  0 
  8 10  1  0  0  0  0 
  8 15  1  0  0  0  0 
 16  9  1  0  0  0  0 
  9 17  1  0  0  0  0 
 16 11  1  0  0  0  0 
 11 18  1  0  0  0  0 
 12 19  1  0  0  0  0 
 12 20  2  0  0  0  0 
 13 21  1  0  0  0  0 
 16 22  1  0  0  0  0 
 16 23  1  0  0  0  0 
 17 24  1  0  0  0  0 
 19 25  1  0  0  0  0 
 23 26  1  0  0  0  0 
 23 27  1  0  0  0  0 
 23 28  1  0  0  0  0 
 24 27  1  0  0  0  0 
 25 29  1  0  0  0  0 
 27 30  2  0  0  0  0 
 28 31  2  0  0  0  0 
 29 32  1  0  0  0  0 
 30 33  1  0  0  0  0 
 31 33  1  0  0  0  0 
 33 34  2  0  0  0  0 
 35  1  1  0  0  0  0 
 36  1  1  0  0  0  0 
 37  1  1  0  0  0  0 
  4 38  1  0  0  0  0 
 39  5  1  0  0  0  0 
 40  5  1  0  0  0  0 
  8 41  1  0  0  0  0 
  9 42  1  0  0  0  0 
 43 10  1  0  0  0  0 
 44 10  1  0  0  0  0 
 11 45  1  0  0  0  0 
 46 13  1  0  0  0  0 
 47 13  1  0  0  0  0 
 48 15  1  0  0  0  0 
 49 15  1  0  0  0  0 
 50 15  1  0  0  0  0 
 51 17  1  0  0  0  0 
 52 17  1  0  0  0  0 
 53 18  1  0  0  0  0 
 54 19  1  0  0  0  0 
 55 19  1  0  0  0  0 
 56 21  1  0  0  0  0 
 57 24  1  0  0  0  0 
 58 24  1  0  0  0  0 
 59 25  1  0  0  0  0 
 60 25  1  0  0  0  0 
 61 26  1  0  0  0  0 
 62 26  1  0  0  0  0 
 63 26  1  0  0  0  0 
 64 28  1  0  0  0  0 
 65 29  1  0  0  0  0 
 66 29  1  0  0  0  0 
 67 30  1  0  0  0  0 
 68 31  1  0  0  0  0 
 69 32  1  0  0  0  0 
 70 32  1  0  0  0  0 
 71 32  1  0  0  0  0 
M  END
> <cdk:Title>
dexamethasone valerate

> <Conformer>
1

> <SuperDrugID>
SD000733

$$$$
