astemizole
  CDK     0628171801

 65 69  0  0  0  0  0  0  0  0999 V2000
    5.1720    2.2543   10.0779 C   0  0  1  0  0  0  0  0  0  0  0  0
    4.0233    1.3987   10.2581 N   0  0  0  0  0  0  0  0  0  0  0  0
    4.8828    3.7002   10.2993 C   0  0  0  0  0  0  0  0  0  0  0  0
    3.3937    0.6328    9.3412 C   0  0  0  0  0  0  0  0  0  0  0  0
    3.4022    1.1505   11.4365 C   0  0  0  0  0  0  0  0  0  0  0  0
    5.3929    4.3904   11.4250 C   0  0  0  0  0  0  0  0  0  0  0  0
    4.1137    4.4130    9.3522 C   0  0  0  0  0  0  0  0  0  0  0  0
    2.3828   -0.0628   10.0052 C   0  0  0  0  0  0  0  0  0  0  0  0
    3.5913    0.4476    7.9572 C   0  0  0  0  0  0  0  0  0  0  0  0
    3.7532    1.7161   12.6115 N   0  0  0  0  0  0  0  0  0  0  0  0
    2.4057    0.2557   11.3033 N   0  0  0  0  0  0  0  0  0  0  0  0
    5.1866    5.7704   11.6128 C   0  0  0  0  0  0  0  0  0  0  0  0
    3.8585    5.7910    9.4791 C   0  0  0  0  0  0  0  0  0  0  0  0
    1.5242   -0.9459    9.3299 C   0  0  0  0  0  0  0  0  0  0  0  0
    2.7490   -0.4517    7.2661 C   0  0  0  0  0  0  0  0  0  0  0  0
    4.0786    0.9815   13.7920 C   0  0  2  0  0  0  0  0  0  0  0  0
    4.4186    6.4741   10.6175 C   0  0  0  0  0  0  0  0  0  0  0  0
    1.7193   -1.1412    7.9467 C   0  0  0  0  0  0  0  0  0  0  0  0
    4.3142    1.9950   14.9485 C   0  0  2  0  0  0  0  0  0  0  0  0
    5.3414    0.0977   13.5500 C   0  0  1  0  0  0  0  0  0  0  0  0
    4.2301    7.7563   10.7487 F   0  0  0  0  0  0  0  0  0  0  0  0
    4.9454    1.3324   16.2040 C   0  0  1  0  0  0  0  0  0  0  0  0
    5.8802   -0.5115   14.8701 C   0  0  1  0  0  0  0  0  0  0  0  0
    6.1787    0.5376   15.8959 N   0  0  1  0  0  0  0  0  0  0  0  0
    7.4279    1.3329   15.6266 C   0  0  1  0  0  0  0  0  0  0  0  0
    8.0514    2.0143   16.8738 C   0  0  1  0  0  0  0  0  0  0  0  0
    8.4600    1.0386   17.9201 C   0  0  0  0  0  0  0  0  0  0  0  0
    7.5504    0.6394   18.9264 C   0  0  0  0  0  0  0  0  0  0  0  0
    9.7634    0.4867   17.9267 C   0  0  0  0  0  0  0  0  0  0  0  0
    7.9308   -0.2914   19.9092 C   0  0  0  0  0  0  0  0  0  0  0  0
   10.1453   -0.4432   18.9105 C   0  0  0  0  0  0  0  0  0  0  0  0
    9.2265   -0.8453   19.8998 C   0  0  0  0  0  0  0  0  0  0  0  0
    9.5959   -1.7479   20.8608 O   0  0  0  0  0  0  0  0  0  0  0  0
    9.3540   -3.1115   20.4677 C   0  0  0  0  0  0  0  0  0  0  0  0
    5.9573    1.9097   10.7566 H   0  0  0  0  0  0  0  0  0  0  0  0
    5.5918    2.1449    9.0772 H   0  0  0  0  0  0  0  0  0  0  0  0
    5.9350    3.8828   12.1295 H   0  0  0  0  0  0  0  0  0  0  0  0
    3.7373    3.9233    8.5368 H   0  0  0  0  0  0  0  0  0  0  0  0
    4.3254    0.9512    7.4544 H   0  0  0  0  0  0  0  0  0  0  0  0
    3.8944    2.6723   12.6206 H   0  0  0  0  0  0  0  0  0  0  0  0
    5.6330    6.1825   12.4985 H   0  0  0  0  0  0  0  0  0  0  0  0
    3.2611    6.2165    8.6946 H   0  0  0  0  0  0  0  0  0  0  0  0
    0.7773   -1.4342    9.8292 H   0  0  0  0  0  0  0  0  0  0  0  0
    2.8813   -0.6013    6.2636 H   0  0  0  0  0  0  0  0  0  0  0  0
    3.2385    0.3323   14.0614 H   0  0  0  0  0  0  0  0  0  0  0  0
    1.1081   -1.7815    7.4333 H   0  0  0  0  0  0  0  0  0  0  0  0
    3.3615    2.4538   15.2262 H   0  0  0  0  0  0  0  0  0  0  0  0
    4.9736    2.7962   14.6059 H   0  0  0  0  0  0  0  0  0  0  0  0
    5.1008   -0.7153   12.8600 H   0  0  0  0  0  0  0  0  0  0  0  0
    6.1303    0.6966   13.0895 H   0  0  0  0  0  0  0  0  0  0  0  0
    5.1502    2.1039   16.9469 H   0  0  0  0  0  0  0  0  0  0  0  0
    4.2088    0.6620   16.6543 H   0  0  0  0  0  0  0  0  0  0  0  0
    5.1309   -1.1992   15.2716 H   0  0  0  0  0  0  0  0  0  0  0  0
    6.7689   -1.1136   14.6626 H   0  0  0  0  0  0  0  0  0  0  0  0
    8.1992    0.6780   15.2108 H   0  0  0  0  0  0  0  0  0  0  0  0
    7.2387    2.1027   14.8744 H   0  0  0  0  0  0  0  0  0  0  0  0
    8.9254    2.5850   16.5469 H   0  0  0  0  0  0  0  0  0  0  0  0
    7.3587    2.7477   17.2909 H   0  0  0  0  0  0  0  0  0  0  0  0
    6.6035    1.0232   18.9502 H   0  0  0  0  0  0  0  0  0  0  0  0
   10.4437    0.7572   17.2127 H   0  0  0  0  0  0  0  0  0  0  0  0
    7.2606   -0.5680   20.6298 H   0  0  0  0  0  0  0  0  0  0  0  0
   11.0906   -0.8312   18.9031 H   0  0  0  0  0  0  0  0  0  0  0  0
    9.6512   -3.7633   21.2887 H   0  0  0  0  0  0  0  0  0  0  0  0
    8.2949   -3.2879   20.2641 H   0  0  0  0  0  0  0  0  0  0  0  0
    9.9443   -3.3848   19.5895 H   0  0  0  0  0  0  0  0  0  0  0  0
  1  2  1  0  0  0  0 
  1  3  1  0  0  0  0 
  2  4  1  0  0  0  0 
  2  5  1  0  0  0  0 
  3  6  2  0  0  0  0 
  3  7  1  0  0  0  0 
  4  8  1  0  0  0  0 
  4  9  2  0  0  0  0 
  5 10  1  0  0  0  0 
  5 11  2  0  0  0  0 
  6 12  1  0  0  0  0 
  7 13  2  0  0  0  0 
  8 11  1  0  0  0  0 
  8 14  2  0  0  0  0 
  9 15  1  0  0  0  0 
 10 16  1  0  0  0  0 
 12 17  2  0  0  0  0 
 13 17  1  0  0  0  0 
 14 18  1  0  0  0  0 
 15 18  2  0  0  0  0 
 16 19  1  0  0  0  0 
 16 20  1  0  0  0  0 
 17 21  1  0  0  0  0 
 19 22  1  0  0  0  0 
 20 23  1  0  0  0  0 
 22 24  1  0  0  0  0 
 23 24  1  0  0  0  0 
 24 25  1  0  0  0  0 
 25 26  1  0  0  0  0 
 26 27  1  0  0  0  0 
 27 28  2  0  0  0  0 
 27 29  1  0  0  0  0 
 28 30  1  0  0  0  0 
 29 31  2  0  0  0  0 
 30 32  2  0  0  0  0 
 31 32  1  0  0  0  0 
 32 33  1  0  0  0  0 
 33 34  1  0  0  0  0 
  1 35  1  0  0  0  0 
  1 36  1  0  0  0  0 
  6 37  1  0  0  0  0 
  7 38  1  0  0  0  0 
  9 39  1  0  0  0  0 
 10 40  1  0  0  0  0 
 12 41  1  0  0  0  0 
 13 42  1  0  0  0  0 
 14 43  1  0  0  0  0 
 15 44  1  0  0  0  0 
 16 45  1  0  0  0  0 
 18 46  1  0  0  0  0 
 19 47  1  0  0  0  0 
 19 48  1  0  0  0  0 
 20 49  1  0  0  0  0 
 20 50  1  0  0  0  0 
 22 51  1  0  0  0  0 
 22 52  1  0  0  0  0 
 23 53  1  0  0  0  0 
 23 54  1  0  0  0  0 
 25 55  1  0  0  0  0 
 25 56  1  0  0  0  0 
 26 57  1  0  0  0  0 
 26 58  1  0  0  0  0 
 28 59  1  0  0  0  0 
 29 60  1  0  0  0  0 
 30 61  1  0  0  0  0 
 31 62  1  0  0  0  0 
 34 63  1  0  0  0  0 
 34 64  1  0  0  0  0 
 34 65  1  0  0  0  0 
M  END
> <cdk:Title>
astemizole

> <Conformer>
1

> <SuperDrugID>
SD000206

$$$$
