methylprednisolone aceponate
  CDK     0628171801

 70 73  0  0  0  0  0  0  0  0999 V2000
    4.7846   -3.0273   -3.8512 C   0  0  0  0  0  0  0  0  0  0  0  0
    4.9219   -3.9237   -2.6730 C   0  0  2  0  0  0  0  0  0  0  0  0
    5.4722   -3.3193   -4.8599 O   0  0  0  0  0  0  0  0  0  0  0  0
    3.9304   -1.7858   -3.8589 C   0  0  2  0  0  0  0  0  0  0  0  0
    4.8103   -3.2119   -1.4307 O   0  0  0  0  0  0  0  0  0  0  0  0
    4.4730   -0.9383   -2.8127 O   0  0  0  0  0  0  0  0  0  0  0  0
    2.3803   -2.0210   -3.6106 C   0  0  2  0  0  0  0  0  0  0  0  0
    3.9255   -0.9710   -5.2053 C   0  0  2  0  0  0  0  0  0  0  0  0
    4.8425   -3.7193   -0.1641 C   0  0  0  0  0  0  0  0  0  0  0  0
    5.7416   -0.4503   -2.6458 C   0  0  0  0  0  0  0  0  0  0  0  0
    1.8443   -3.1919   -4.5283 C   0  0  0  0  0  0  0  0  0  0  0  0
    1.8352   -0.6059   -3.9992 C   0  0  1  0  0  0  0  0  0  0  0  0
    1.9385   -2.2873   -2.1239 C   0  0  2  0  0  0  0  0  0  0  0  0
    2.5396   -0.2866   -5.3367 C   0  0  1  0  0  0  0  0  0  0  0  0
    4.5894   -2.8114    0.9671 C   0  0  0  0  0  0  0  0  0  0  0  0
    5.0673   -4.9338    0.0423 O   0  0  0  0  0  0  0  0  0  0  0  0
    6.0756    0.2734   -1.4057 C   0  0  1  0  0  0  0  0  0  0  0  0
    6.6227   -0.6276   -3.5193 O   0  0  0  0  0  0  0  0  0  0  0  0
    0.2804   -0.4464   -3.8667 C   0  0  1  0  0  0  0  0  0  0  0  0
    0.4151   -2.0914   -1.8433 C   0  0  1  0  0  0  0  0  0  0  0  0
    7.2473   -0.3934   -0.6482 C   0  0  0  0  0  0  0  0  0  0  0  0
   -0.1507   -0.7179   -2.3699 C   0  0  2  0  0  0  0  0  0  0  0  0
   -0.1846    0.9710   -4.3259 C   0  0  1  0  0  0  0  0  0  0  0  0
   -0.3184   -3.2126   -2.3268 O   0  0  0  0  0  0  0  0  0  0  0  0
   -1.6908   -0.4182   -2.0886 C   0  0  2  0  0  0  0  0  0  0  0  0
   -1.6937    1.2359   -4.0459 C   0  0  1  0  0  0  0  0  0  0  0  0
   -2.6797   -1.4369   -2.7680 C   0  0  0  0  0  0  0  0  0  0  0  0
   -1.9725    0.9670   -2.6123 C   0  0  0  0  0  0  0  0  0  0  0  0
   -1.9567   -0.5421   -0.6311 C   0  0  0  0  0  0  0  0  0  0  0  0
   -2.1111    2.6171   -4.6394 C   0  0  0  0  0  0  0  0  0  0  0  0
   -2.4213    1.9354   -1.7745 C   0  0  0  0  0  0  0  0  0  0  0  0
   -2.4031    0.4679    0.1276 C   0  0  0  0  0  0  0  0  0  0  0  0
   -2.6394    1.7084   -0.4258 C   0  0  0  0  0  0  0  0  0  0  0  0
   -3.0514    2.6400    0.3045 O   0  0  0  0  0  0  0  0  0  0  0  0
    5.8897   -4.4312   -2.6984 H   0  0  0  0  0  0  0  0  0  0  0  0
    4.1395   -4.6830   -2.7227 H   0  0  0  0  0  0  0  0  0  0  0  0
    4.0752   -1.6206   -6.0717 H   0  0  0  0  0  0  0  0  0  0  0  0
    4.7185   -0.2211   -5.2265 H   0  0  0  0  0  0  0  0  0  0  0  0
    0.7594   -3.2414   -4.5516 H   0  0  0  0  0  0  0  0  0  0  0  0
    2.1735   -3.0918   -5.5617 H   0  0  0  0  0  0  0  0  0  0  0  0
    2.2021   -4.1572   -4.1685 H   0  0  0  0  0  0  0  0  0  0  0  0
    2.2440    0.1307   -3.2929 H   0  0  0  0  0  0  0  0  0  0  0  0
    2.4729   -1.6067   -1.4564 H   0  0  0  0  0  0  0  0  0  0  0  0
    2.2114   -3.3020   -1.8248 H   0  0  0  0  0  0  0  0  0  0  0  0
    2.6455    0.7926   -5.4857 H   0  0  0  0  0  0  0  0  0  0  0  0
    1.9820   -0.7028   -6.1809 H   0  0  0  0  0  0  0  0  0  0  0  0
    3.6112   -2.3462    0.8462 H   0  0  0  0  0  0  0  0  0  0  0  0
    5.3426   -2.0278    1.0044 H   0  0  0  0  0  0  0  0  0  0  0  0
    4.6024   -3.3463    1.9182 H   0  0  0  0  0  0  0  0  0  0  0  0
    6.3442    1.2998   -1.6594 H   0  0  0  0  0  0  0  0  0  0  0  0
    5.2048    0.3101   -0.7432 H   0  0  0  0  0  0  0  0  0  0  0  0
   -0.2060   -1.1691   -4.5232 H   0  0  0  0  0  0  0  0  0  0  0  0
    0.3079   -2.1189   -0.7565 H   0  0  0  0  0  0  0  0  0  0  0  0
    7.3852    0.0981    0.3162 H   0  0  0  0  0  0  0  0  0  0  0  0
    7.0509   -1.4527   -0.4744 H   0  0  0  0  0  0  0  0  0  0  0  0
    8.1721   -0.3072   -1.2232 H   0  0  0  0  0  0  0  0  0  0  0  0
    0.3896    0.0304   -1.7738 H   0  0  0  0  0  0  0  0  0  0  0  0
    0.4134    1.7368   -3.8206 H   0  0  0  0  0  0  0  0  0  0  0  0
   -0.0006    1.0656   -5.4002 H   0  0  0  0  0  0  0  0  0  0  0  0
    0.0264   -3.9816   -1.8254 H   0  0  0  0  0  0  0  0  0  0  0  0
   -2.2675    0.5192   -4.6367 H   0  0  0  0  0  0  0  0  0  0  0  0
   -3.7039   -1.0551   -2.7418 H   0  0  0  0  0  0  0  0  0  0  0  0
   -2.6914   -2.4067   -2.2659 H   0  0  0  0  0  0  0  0  0  0  0  0
   -2.4215   -1.6280   -3.8087 H   0  0  0  0  0  0  0  0  0  0  0  0
   -1.8190   -1.4189   -0.1813 H   0  0  0  0  0  0  0  0  0  0  0  0
   -1.9381    2.6375   -5.7171 H   0  0  0  0  0  0  0  0  0  0  0  0
   -1.5407    3.4308   -4.1873 H   0  0  0  0  0  0  0  0  0  0  0  0
   -3.1752    2.7951   -4.4728 H   0  0  0  0  0  0  0  0  0  0  0  0
   -2.6003    2.8527   -2.1050 H   0  0  0  0  0  0  0  0  0  0  0  0
   -2.5663    0.3204    1.0979 H   0  0  0  0  0  0  0  0  0  0  0  0
  1  2  1  0  0  0  0 
  1  3  2  0  0  0  0 
  4  1  1  0  0  0  0 
  2  5  1  0  0  0  0 
  4  6  1  0  0  0  0 
  7  4  1  0  0  0  0 
  4  8  1  0  0  0  0 
  5  9  1  0  0  0  0 
  6 10  1  0  0  0  0 
  7 11  1  0  0  0  0 
 12  7  1  0  0  0  0 
  7 13  1  0  0  0  0 
  8 14  1  0  0  0  0 
  9 15  1  0  0  0  0 
  9 16  2  0  0  0  0 
 10 17  1  0  0  0  0 
 10 18  2  0  0  0  0 
 12 14  1  0  0  0  0 
 19 12  1  0  0  0  0 
 20 13  1  0  0  0  0 
 17 21  1  0  0  0  0 
 22 19  1  0  0  0  0 
 19 23  1  0  0  0  0 
 22 20  1  0  0  0  0 
 20 24  1  0  0  0  0 
 22 25  1  0  0  0  0 
 26 23  1  0  0  0  0 
 25 27  1  0  0  0  0 
 25 28  1  0  0  0  0 
 25 29  1  0  0  0  0 
 26 28  1  0  0  0  0 
 26 30  1  0  0  0  0 
 28 31  2  0  0  0  0 
 29 32  2  0  0  0  0 
 31 33  1  0  0  0  0 
 32 33  1  0  0  0  0 
 33 34  2  0  0  0  0 
 35  2  1  0  0  0  0 
 36  2  1  0  0  0  0 
 37  8  1  0  0  0  0 
 38  8  1  0  0  0  0 
 39 11  1  0  0  0  0 
 40 11  1  0  0  0  0 
 41 11  1  0  0  0  0 
 12 42  1  0  0  0  0 
 43 13  1  0  0  0  0 
 44 13  1  0  0  0  0 
 45 14  1  0  0  0  0 
 46 14  1  0  0  0  0 
 47 15  1  0  0  0  0 
 48 15  1  0  0  0  0 
 49 15  1  0  0  0  0 
 50 17  1  0  0  0  0 
 51 17  1  0  0  0  0 
 19 52  1  0  0  0  0 
 20 53  1  0  0  0  0 
 54 21  1  0  0  0  0 
 55 21  1  0  0  0  0 
 56 21  1  0  0  0  0 
 22 57  1  0  0  0  0 
 58 23  1  0  0  0  0 
 59 23  1  0  0  0  0 
 60 24  1  0  0  0  0 
 26 61  1  0  0  0  0 
 62 27  1  0  0  0  0 
 63 27  1  0  0  0  0 
 64 27  1  0  0  0  0 
 65 29  1  0  0  0  0 
 66 30  1  0  0  0  0 
 67 30  1  0  0  0  0 
 68 30  1  0  0  0  0 
 69 31  1  0  0  0  0 
 70 32  1  0  0  0  0 
M  END
> <cdk:Title>
methylprednisolone aceponate

> <Conformer>
1

> <SuperDrugID>
SD001569

$$$$
