azacitidine
  CDK     0628171801

 29 30  0  0  0  0  0  0  0  0999 V2000
    1.6548   -1.6199   -1.8078 O   0  0  0  0  0  0  0  0  0  0  0  0
    2.7480   -2.5015   -2.0819 C   0  0  1  0  0  0  0  0  0  0  0  0
    2.2839   -3.7189   -2.9260 C   0  0  1  0  0  0  0  0  0  0  0  0
    3.7742   -1.8278   -3.0003 C   0  0  2  0  0  0  0  0  0  0  0  0
    2.4901   -3.3566   -4.3067 O   0  0  0  0  0  0  0  0  0  0  0  0
    2.9329   -4.9705   -2.5534 N   0  0  0  0  0  0  0  0  0  0  0  0
    3.9436   -0.4382   -2.7250 O   0  0  0  0  0  0  0  0  0  0  0  0
    3.1702   -2.0955   -4.3940 C   0  0  2  0  0  0  0  0  0  0  0  0
    2.6431   -5.5886   -1.3580 C   0  0  0  0  0  0  0  0  0  0  0  0
    3.8389   -5.5947   -3.3762 C   0  0  0  0  0  0  0  0  0  0  0  0
    4.2143   -2.1249   -5.5350 C   0  0  2  0  0  0  0  0  0  0  0  0
    1.8289   -5.1205   -0.5288 O   0  0  0  0  0  0  0  0  0  0  0  0
    3.2232   -6.7666   -1.0194 N   0  0  0  0  0  0  0  0  0  0  0  0
    4.4133   -6.7712   -3.0308 N   0  0  0  0  0  0  0  0  0  0  0  0
    3.5997   -2.4907   -6.7665 O   0  0  0  0  0  0  0  0  0  0  0  0
    4.1046   -7.3618   -1.8548 C   0  0  0  0  0  0  0  0  0  0  0  0
    4.6555   -8.5399   -1.5329 N   0  0  0  0  0  0  0  0  0  0  0  0
    1.0238   -2.1480   -1.2753 H   0  0  0  0  0  0  0  0  0  0  0  0
    3.2097   -2.7946   -1.1354 H   0  0  0  0  0  0  0  0  0  0  0  0
    1.2035   -3.8608   -2.8148 H   0  0  0  0  0  0  0  0  0  0  0  0
    4.7412   -2.3295   -2.8883 H   0  0  0  0  0  0  0  0  0  0  0  0
    4.6406   -0.1402   -3.3464 H   0  0  0  0  0  0  0  0  0  0  0  0
    2.4230   -1.3276   -4.6232 H   0  0  0  0  0  0  0  0  0  0  0  0
    4.1079   -5.2024   -4.2796 H   0  0  0  0  0  0  0  0  0  0  0  0
    4.9999   -2.8508   -5.3133 H   0  0  0  0  0  0  0  0  0  0  0  0
    4.6682   -1.1383   -5.6499 H   0  0  0  0  0  0  0  0  0  0  0  0
    4.3401   -2.5484   -7.4070 H   0  0  0  0  0  0  0  0  0  0  0  0
    4.4343   -8.9679   -0.6913 H   0  0  0  0  0  0  0  0  0  0  0  0
    5.2681   -8.9735   -2.1483 H   0  0  0  0  0  0  0  0  0  0  0  0
  2  1  1  0  0  0  0 
  2  3  1  0  0  0  0 
  4  2  1  0  0  0  0 
  3  5  1  0  0  0  0 
  3  6  1  0  0  0  0 
  4  7  1  0  0  0  0 
  8  4  1  0  0  0  0 
  8  5  1  0  0  0  0 
  6  9  1  0  0  0  0 
  6 10  1  0  0  0  0 
  8 11  1  0  0  0  0 
  9 12  2  0  0  0  0 
  9 13  1  0  0  0  0 
 10 14  2  0  0  0  0 
 11 15  1  0  0  0  0 
 13 16  2  0  0  0  0 
 14 16  1  0  0  0  0 
 16 17  1  0  0  0  0 
  1 18  1  0  0  0  0 
  2 19  1  0  0  0  0 
  3 20  1  0  0  0  0 
  4 21  1  0  0  0  0 
  7 22  1  0  0  0  0 
  8 23  1  0  0  0  0 
 10 24  1  0  0  0  0 
 11 25  1  0  0  0  0 
 11 26  1  0  0  0  0 
 15 27  1  0  0  0  0 
 17 28  1  0  0  0  0 
 17 29  1  0  0  0  0 
M  END
> <cdk:Title>
azacitidine

> <Conformer>
1

> <SuperDrugID>
SD000008

$$$$
