benzthiazide
  CDK     0628171801

 40 42  0  0  0  0  0  0  0  0999 V2000
   -3.4791   -2.2797   -6.3444 O   0  0  0  0  0  0  0  0  0  0  0  0
   -3.4563   -3.6545   -5.5197 S   0  0  1  0  0  0  0  0  0  0  0  0
   -4.8758   -4.3935   -5.6263 O   0  0  0  0  0  0  0  0  0  0  0  0
   -2.1418   -4.7053   -6.0642 C   0  0  0  0  0  0  0  0  0  0  0  0
   -3.1170   -3.3165   -3.8747 N   0  0  0  0  0  0  0  0  0  0  0  0
   -1.1993   -5.1071   -5.0936 C   0  0  0  0  0  0  0  0  0  0  0  0
   -2.0148   -5.1219   -7.4025 C   0  0  0  0  0  0  0  0  0  0  0  0
   -2.1030   -3.9131   -3.2426 C   0  0  0  0  0  0  0  0  0  0  0  0
   -1.2669   -4.7118   -3.8195 N   0  0  0  0  0  0  0  0  0  0  0  0
   -0.1349   -5.9412   -5.4903 C   0  0  0  0  0  0  0  0  0  0  0  0
   -0.9348   -5.9394   -7.8054 C   0  0  0  0  0  0  0  0  0  0  0  0
   -1.9103   -3.6116   -1.8417 C   0  0  1  0  0  0  0  0  0  0  0  0
    0.0106   -6.3526   -6.8327 C   0  0  0  0  0  0  0  0  0  0  0  0
   -0.8067   -6.4108   -9.5136 S   0  0  1  0  0  0  0  0  0  0  0  0
   -1.0494   -2.0149   -1.7328 S   0  0  0  0  0  0  0  0  0  0  0  0
    1.3461   -7.3320   -7.2059 Cl  0  0  0  0  0  0  0  0  0  0  0  0
    0.6747   -5.7893  -10.2252 N   0  0  2  0  0  0  0  0  0  0  0  0
   -0.7875   -8.0080   -9.6578 O   0  0  0  0  0  0  0  0  0  0  0  0
   -2.0319   -5.8405  -10.3779 O   0  0  0  0  0  0  0  0  0  0  0  0
   -0.7193   -1.8037    0.0444 C   0  0  2  0  0  0  0  0  0  0  0  0
    0.0815   -0.5702    0.2309 C   0  0  0  0  0  0  0  0  0  0  0  0
    1.3999   -0.4902   -0.2818 C   0  0  0  0  0  0  0  0  0  0  0  0
   -0.4570    0.5547    0.8980 C   0  0  0  0  0  0  0  0  0  0  0  0
    2.1450    0.6965   -0.1648 C   0  0  0  0  0  0  0  0  0  0  0  0
    0.2929    1.7378    1.0236 C   0  0  0  0  0  0  0  0  0  0  0  0
    1.5898    1.8129    0.4849 C   0  0  0  0  0  0  0  0  0  0  0  0
   -3.6744   -2.6805   -3.3977 H   0  0  0  0  0  0  0  0  0  0  0  0
   -2.7129   -4.8191   -8.0834 H   0  0  0  0  0  0  0  0  0  0  0  0
    0.5494   -6.2483   -4.7934 H   0  0  0  0  0  0  0  0  0  0  0  0
   -2.8712   -3.5431   -1.3273 H   0  0  0  0  0  0  0  0  0  0  0  0
   -1.3086   -4.3762   -1.3428 H   0  0  0  0  0  0  0  0  0  0  0  0
    0.6739   -6.0942  -11.2016 H   0  0  0  0  0  0  0  0  0  0  0  0
    1.4528   -6.2676   -9.7671 H   0  0  0  0  0  0  0  0  0  0  0  0
   -0.1652   -2.6635    0.4260 H   0  0  0  0  0  0  0  0  0  0  0  0
   -1.6793   -1.7540    0.5650 H   0  0  0  0  0  0  0  0  0  0  0  0
    1.8224   -1.2940   -0.7539 H   0  0  0  0  0  0  0  0  0  0  0  0
   -1.4013    0.5236    1.2899 H   0  0  0  0  0  0  0  0  0  0  0  0
    3.0891    0.7475   -0.5538 H   0  0  0  0  0  0  0  0  0  0  0  0
   -0.1073    2.5452    1.5053 H   0  0  0  0  0  0  0  0  0  0  0  0
    2.1295    2.6771    0.5681 H   0  0  0  0  0  0  0  0  0  0  0  0
  1  2  2  0  0  0  0 
  2  3  2  0  0  0  0 
  2  4  1  0  0  0  0 
  2  5  1  0  0  0  0 
  4  6  2  0  0  0  0 
  4  7  1  0  0  0  0 
  5  8  1  0  0  0  0 
  6  9  1  0  0  0  0 
  6 10  1  0  0  0  0 
  7 11  2  0  0  0  0 
  8  9  2  0  0  0  0 
  8 12  1  0  0  0  0 
 10 13  2  0  0  0  0 
 11 13  1  0  0  0  0 
 11 14  1  0  0  0  0 
 12 15  1  0  0  0  0 
 13 16  1  0  0  0  0 
 14 17  1  0  0  0  0 
 14 18  2  0  0  0  0 
 14 19  2  0  0  0  0 
 15 20  1  0  0  0  0 
 20 21  1  0  0  0  0 
 21 22  2  0  0  0  0 
 21 23  1  0  0  0  0 
 22 24  1  0  0  0  0 
 23 25  2  0  0  0  0 
 24 26  2  0  0  0  0 
 25 26  1  0  0  0  0 
 27  5  1  0  0  0  0 
 28  7  1  0  0  0  0 
 29 10  1  0  0  0  0 
 30 12  1  0  0  0  0 
 31 12  1  0  0  0  0 
 32 17  1  0  0  0  0 
 33 17  1  0  0  0  0 
 34 20  1  0  0  0  0 
 35 20  1  0  0  0  0 
 36 22  1  0  0  0  0 
 37 23  1  0  0  0  0 
 38 24  1  0  0  0  0 
 39 25  1  0  0  0  0 
 40 26  1  0  0  0  0 
M  END
> <cdk:Title>
benzthiazide

> <Conformer>
1

> <SuperDrugID>
SD000280

$$$$
