scarlet red
  CDK     0628171801

 49 52  0  0  0  0  0  0  0  0999 V2000
   -0.1106   -0.4207   -0.1937 N   0  0  0  0  0  0  0  0  0  0  0  0
   -0.1230    0.7489    0.1730 N   0  0  0  0  0  0  0  0  0  0  0  0
    0.6917   -1.4196    0.1666 C   0  0  0  0  0  0  0  0  0  0  0  0
   -0.9553    1.7043   -0.2314 C   0  0  0  0  0  0  0  0  0  0  0  0
    0.4926   -2.6885   -0.4522 C   0  0  0  0  0  0  0  0  0  0  0  0
    1.7300   -1.2708    1.1237 C   0  0  0  0  0  0  0  0  0  0  0  0
   -0.8140    3.0124    0.3087 C   0  0  0  0  0  0  0  0  0  0  0  0
   -1.9731    1.4575   -1.1860 C   0  0  0  0  0  0  0  0  0  0  0  0
    1.3393   -3.7864   -0.1051 C   0  0  0  0  0  0  0  0  0  0  0  0
   -0.5277   -2.9133   -1.4149 C   0  0  0  0  0  0  0  0  0  0  0  0
    1.9736   -0.1027    1.7707 O   0  0  0  0  0  0  0  0  0  0  0  0
    2.5671   -2.3532    1.4420 C   0  0  0  0  0  0  0  0  0  0  0  0
    0.2256    3.3434    1.3173 C   0  0  0  0  0  0  0  0  0  0  0  0
   -1.7042    4.0301   -0.1085 C   0  0  0  0  0  0  0  0  0  0  0  0
   -2.8388    2.4846   -1.5941 C   0  0  0  0  0  0  0  0  0  0  0  0
    2.3730   -3.6029    0.8371 C   0  0  0  0  0  0  0  0  0  0  0  0
    1.1435   -5.0534   -0.7045 C   0  0  0  0  0  0  0  0  0  0  0  0
   -0.7124   -4.1751   -2.0052 C   0  0  0  0  0  0  0  0  0  0  0  0
   -2.7165    3.7856   -1.0566 C   0  0  0  0  0  0  0  0  0  0  0  0
    0.1209   -5.2445   -1.6488 C   0  0  0  0  0  0  0  0  0  0  0  0
   -3.5029    4.8037   -1.3862 N   0  0  0  0  0  0  0  0  0  0  0  0
   -4.4233    4.7526   -2.1934 N   0  0  0  0  0  0  0  0  0  0  0  0
   -5.2597    5.7055   -2.5823 C   0  0  0  0  0  0  0  0  0  0  0  0
   -6.2599    5.3712   -3.5384 C   0  0  0  0  0  0  0  0  0  0  0  0
   -5.1890    7.0284   -2.0794 C   0  0  0  0  0  0  0  0  0  0  0  0
   -6.3808    4.0040   -4.1088 C   0  0  0  0  0  0  0  0  0  0  0  0
   -7.1536    6.3776   -3.9774 C   0  0  0  0  0  0  0  0  0  0  0  0
   -6.0917    8.0107   -2.5227 C   0  0  0  0  0  0  0  0  0  0  0  0
   -7.0730    7.6871   -3.4734 C   0  0  0  0  0  0  0  0  0  0  0  0
   -2.0944    0.5282   -1.5962 H   0  0  0  0  0  0  0  0  0  0  0  0
   -1.1579   -2.1613   -1.7039 H   0  0  0  0  0  0  0  0  0  0  0  0
    1.1070    0.1619    2.1455 H   0  0  0  0  0  0  0  0  0  0  0  0
    3.3210   -2.2354    2.1238 H   0  0  0  0  0  0  0  0  0  0  0  0
    1.1503    2.7944    1.1272 H   0  0  0  0  0  0  0  0  0  0  0  0
    0.4741    4.4079    1.3078 H   0  0  0  0  0  0  0  0  0  0  0  0
   -0.1467    3.0804    2.3092 H   0  0  0  0  0  0  0  0  0  0  0  0
   -1.6182    4.9689    0.2883 H   0  0  0  0  0  0  0  0  0  0  0  0
   -3.5591    2.2712   -2.2872 H   0  0  0  0  0  0  0  0  0  0  0  0
    2.9926   -4.3770    1.0970 H   0  0  0  0  0  0  0  0  0  0  0  0
    1.7434   -5.8476   -0.4618 H   0  0  0  0  0  0  0  0  0  0  0  0
   -1.4556   -4.3109   -2.6946 H   0  0  0  0  0  0  0  0  0  0  0  0
   -0.0137   -6.1629   -2.0791 H   0  0  0  0  0  0  0  0  0  0  0  0
   -4.4823    7.2894   -1.3871 H   0  0  0  0  0  0  0  0  0  0  0  0
   -6.1122    3.2403   -3.3755 H   0  0  0  0  0  0  0  0  0  0  0  0
   -7.4023    3.7943   -4.4336 H   0  0  0  0  0  0  0  0  0  0  0  0
   -5.7130    3.9177   -4.9678 H   0  0  0  0  0  0  0  0  0  0  0  0
   -7.8736    6.1654   -4.6733 H   0  0  0  0  0  0  0  0  0  0  0  0
   -6.0339    8.9621   -2.1522 H   0  0  0  0  0  0  0  0  0  0  0  0
   -7.7280    8.4019   -3.7990 H   0  0  0  0  0  0  0  0  0  0  0  0
  1  2  2  0  0  0  0 
  1  3  1  0  0  0  0 
  2  4  1  0  0  0  0 
  3  5  2  0  0  0  0 
  3  6  1  0  0  0  0 
  4  7  2  0  0  0  0 
  4  8  1  0  0  0  0 
  5  9  1  0  0  0  0 
  5 10  1  0  0  0  0 
  6 11  1  0  0  0  0 
  6 12  2  0  0  0  0 
  7 13  1  0  0  0  0 
  7 14  1  0  0  0  0 
  8 15  2  0  0  0  0 
  9 16  2  0  0  0  0 
  9 17  1  0  0  0  0 
 10 18  2  0  0  0  0 
 12 16  1  0  0  0  0 
 14 19  2  0  0  0  0 
 15 19  1  0  0  0  0 
 17 20  2  0  0  0  0 
 18 20  1  0  0  0  0 
 21 19  1  0  0  0  0 
 21 22  2  0  0  0  0 
 22 23  1  0  0  0  0 
 23 24  2  0  0  0  0 
 23 25  1  0  0  0  0 
 24 26  1  0  0  0  0 
 24 27  1  0  0  0  0 
 25 28  2  0  0  0  0 
 27 29  2  0  0  0  0 
 28 29  1  0  0  0  0 
 30  8  1  0  0  0  0 
 31 10  1  0  0  0  0 
 32 11  1  0  0  0  0 
 33 12  1  0  0  0  0 
 34 13  1  0  0  0  0 
 35 13  1  0  0  0  0 
 36 13  1  0  0  0  0 
 37 14  1  0  0  0  0 
 38 15  1  0  0  0  0 
 39 16  1  0  0  0  0 
 40 17  1  0  0  0  0 
 41 18  1  0  0  0  0 
 42 20  1  0  0  0  0 
 43 25  1  0  0  0  0 
 44 26  1  0  0  0  0 
 45 26  1  0  0  0  0 
 46 26  1  0  0  0  0 
 47 27  1  0  0  0  0 
 48 28  1  0  0  0  0 
 49 29  1  0  0  0  0 
M  END
> <cdk:Title>
scarlet red

> <Conformer>
1

> <SuperDrugID>
SD003049

$$$$
