phethenylate
  CDK     0628171801

 28 30  0  0  0  0  0  0  0  0999 V2000
    0.1601   -1.8047   -2.2694 O   0  0  0  0  0  0  0  0  0  0  0  0
   -0.2651   -1.1711   -1.2766 C   0  0  0  0  0  0  0  0  0  0  0  0
   -1.0123   -1.7589   -0.1392 C   0  0  2  0  0  0  0  0  0  0  0  0
   -0.0712    0.1428   -1.1085 N   0  0  0  0  0  0  0  0  0  0  0  0
   -1.2111   -0.5544    0.6026 N   0  0  0  0  0  0  0  0  0  0  0  0
   -0.1747   -2.6313    0.7400 C   0  0  0  0  0  0  0  0  0  0  0  0
   -2.2916   -2.3868   -0.6415 C   0  0  0  0  0  0  0  0  0  0  0  0
   -0.6453    0.5169    0.0312 C   0  0  0  0  0  0  0  0  0  0  0  0
    1.2129   -2.8734    0.6912 C   0  0  0  0  0  0  0  0  0  0  0  0
   -0.7695   -3.5456    2.1182 S   0  0  0  0  0  0  0  0  0  0  0  0
   -2.3111   -3.7246   -1.1190 C   0  0  0  0  0  0  0  0  0  0  0  0
   -3.5105   -1.6578   -0.7094 C   0  0  0  0  0  0  0  0  0  0  0  0
   -0.6578    1.6781    0.4952 O   0  0  0  0  0  0  0  0  0  0  0  0
    1.7256   -3.7236    1.6879 C   0  0  0  0  0  0  0  0  0  0  0  0
    0.7793   -4.2174    2.5862 C   0  0  0  0  0  0  0  0  0  0  0  0
   -3.4899   -4.3119   -1.6192 C   0  0  0  0  0  0  0  0  0  0  0  0
   -4.6867   -2.2351   -1.2238 C   0  0  0  0  0  0  0  0  0  0  0  0
   -4.6764   -3.5632   -1.6787 C   0  0  0  0  0  0  0  0  0  0  0  0
    0.4112    0.7271   -1.7153 H   0  0  0  0  0  0  0  0  0  0  0  0
   -1.7062   -0.5119    1.4349 H   0  0  0  0  0  0  0  0  0  0  0  0
    1.8278   -2.4587   -0.0134 H   0  0  0  0  0  0  0  0  0  0  0  0
   -1.4588   -4.2872   -1.1079 H   0  0  0  0  0  0  0  0  0  0  0  0
   -3.5601   -0.6869   -0.3946 H   0  0  0  0  0  0  0  0  0  0  0  0
    2.7187   -3.9589    1.7565 H   0  0  0  0  0  0  0  0  0  0  0  0
    0.9542   -4.8475    3.3709 H   0  0  0  0  0  0  0  0  0  0  0  0
   -3.4837   -5.2829   -1.9405 H   0  0  0  0  0  0  0  0  0  0  0  0
   -5.5504   -1.6883   -1.2672 H   0  0  0  0  0  0  0  0  0  0  0  0
   -5.5296   -3.9825   -2.0538 H   0  0  0  0  0  0  0  0  0  0  0  0
  1  2  2  0  0  0  0 
  2  3  1  0  0  0  0 
  2  4  1  0  0  0  0 
  3  5  1  0  0  0  0 
  3  6  1  0  0  0  0 
  3  7  1  0  0  0  0 
  4  8  1  0  0  0  0 
  5  8  1  0  0  0  0 
  6  9  2  0  0  0  0 
  6 10  1  0  0  0  0 
  7 11  2  0  0  0  0 
  7 12  1  0  0  0  0 
  8 13  2  0  0  0  0 
  9 14  1  0  0  0  0 
 10 15  1  0  0  0  0 
 11 16  1  0  0  0  0 
 12 17  2  0  0  0  0 
 14 15  2  0  0  0  0 
 16 18  2  0  0  0  0 
 17 18  1  0  0  0  0 
  4 19  1  0  0  0  0 
  5 20  1  0  0  0  0 
  9 21  1  0  0  0  0 
 11 22  1  0  0  0  0 
 12 23  1  0  0  0  0 
 14 24  1  0  0  0  0 
 15 25  1  0  0  0  0 
 16 26  1  0  0  0  0 
 17 27  1  0  0  0  0 
 18 28  1  0  0  0  0 
M  END
> <cdk:Title>
phethenylate

> <Conformer>
1

> <SuperDrugID>
SD003255

$$$$
