cianidanol
  CDK     0628171802

 35 37  0  0  0  0  0  0  0  0999 V2000
   -2.3101    4.6946    0.8699 O   0  0  0  0  0  0  0  0  0  0  0  0
   -1.5161    4.3710   -0.2730 C   0  0  2  0  0  0  0  0  0  0  0  0
   -0.0019    4.2637    0.1031 C   0  0  2  0  0  0  0  0  0  0  0  0
   -1.7276    5.4492   -1.3622 C   0  0  2  0  0  0  0  0  0  0  0  0
    0.9414    4.4502   -0.9862 O   0  0  0  0  0  0  0  0  0  0  0  0
    0.2756    2.9746    0.8076 C   0  0  0  0  0  0  0  0  0  0  0  0
   -0.8306    5.2078   -2.5185 C   0  0  0  0  0  0  0  0  0  0  0  0
    0.4786    4.7298   -2.2533 C   0  0  0  0  0  0  0  0  0  0  0  0
    0.6779    1.8203    0.0904 C   0  0  0  0  0  0  0  0  0  0  0  0
    0.1062    2.8658    2.2100 C   0  0  0  0  0  0  0  0  0  0  0  0
   -1.2323    5.4387   -3.8580 C   0  0  0  0  0  0  0  0  0  0  0  0
    1.3745    4.5189   -3.3189 C   0  0  0  0  0  0  0  0  0  0  0  0
    0.9150    0.6011    0.7527 C   0  0  0  0  0  0  0  0  0  0  0  0
    0.3253    1.6441    2.8729 C   0  0  0  0  0  0  0  0  0  0  0  0
   -2.4809    5.8744   -4.1665 O   0  0  0  0  0  0  0  0  0  0  0  0
   -0.3253    5.2238   -4.9124 C   0  0  0  0  0  0  0  0  0  0  0  0
    0.9795    4.7707   -4.6443 C   0  0  0  0  0  0  0  0  0  0  0  0
    1.3103   -0.4825    0.0423 O   0  0  0  0  0  0  0  0  0  0  0  0
    0.7335    0.5115    2.1458 C   0  0  0  0  0  0  0  0  0  0  0  0
    1.8588    4.5797   -5.6566 O   0  0  0  0  0  0  0  0  0  0  0  0
    0.9495   -0.6592    2.7916 O   0  0  0  0  0  0  0  0  0  0  0  0
    0.2276    5.0886    0.7835 H   0  0  0  0  0  0  0  0  0  0  0  0
   -1.8724    3.4139   -0.6682 H   0  0  0  0  0  0  0  0  0  0  0  0
   -2.1598    3.9611    1.5031 H   0  0  0  0  0  0  0  0  0  0  0  0
   -1.5025    6.4371   -0.9517 H   0  0  0  0  0  0  0  0  0  0  0  0
   -2.7775    5.4410   -1.6642 H   0  0  0  0  0  0  0  0  0  0  0  0
    0.8016    1.8568   -0.9240 H   0  0  0  0  0  0  0  0  0  0  0  0
   -0.1854    3.6757    2.7622 H   0  0  0  0  0  0  0  0  0  0  0  0
    2.3191    4.1762   -3.1308 H   0  0  0  0  0  0  0  0  0  0  0  0
    0.1876    1.5822    3.8850 H   0  0  0  0  0  0  0  0  0  0  0  0
   -3.0349    5.0653   -4.1694 H   0  0  0  0  0  0  0  0  0  0  0  0
   -0.6157    5.3949   -5.8782 H   0  0  0  0  0  0  0  0  0  0  0  0
    0.4749   -0.8863   -0.2758 H   0  0  0  0  0  0  0  0  0  0  0  0
    1.6718    3.6748   -5.9831 H   0  0  0  0  0  0  0  0  0  0  0  0
    0.0947   -1.1353    2.7345 H   0  0  0  0  0  0  0  0  0  0  0  0
  2  1  1  0  0  0  0 
  3  2  1  0  0  0  0 
  2  4  1  0  0  0  0 
  3  5  1  0  0  0  0 
  3  6  1  0  0  0  0 
  4  7  1  0  0  0  0 
  5  8  1  0  0  0  0 
  6  9  2  0  0  0  0 
  6 10  1  0  0  0  0 
  7  8  2  0  0  0  0 
  7 11  1  0  0  0  0 
  8 12  1  0  0  0  0 
  9 13  1  0  0  0  0 
 10 14  2  0  0  0  0 
 11 15  1  0  0  0  0 
 11 16  2  0  0  0  0 
 12 17  2  0  0  0  0 
 13 18  1  0  0  0  0 
 13 19  2  0  0  0  0 
 14 19  1  0  0  0  0 
 16 17  1  0  0  0  0 
 17 20  1  0  0  0  0 
 19 21  1  0  0  0  0 
  3 22  1  0  0  0  0 
  2 23  1  0  0  0  0 
  1 24  1  0  0  0  0 
  4 25  1  0  0  0  0 
  4 26  1  0  0  0  0 
  9 27  1  0  0  0  0 
 10 28  1  0  0  0  0 
 12 29  1  0  0  0  0 
 14 30  1  0  0  0  0 
 15 31  1  0  0  0  0 
 16 32  1  0  0  0  0 
 18 33  1  0  0  0  0 
 20 34  1  0  0  0  0 
 21 35  1  0  0  0  0 
M  END
> <cdk:Title>
cianidanol

> <Conformer>
1

> <SuperDrugID>
SD000550

$$$$
