fluclorolone acetonide
  CDK     0628171801

 61 65  0  0  0  0  0  0  0  0999 V2000
    0.6992   -3.5058   -2.8950 C   0  0  0  0  0  0  0  0  0  0  0  0
   -0.7040   -3.3624   -2.4489 C   0  0  2  0  0  0  0  0  0  0  0  0
    0.8752   -3.8266   -4.0946 O   0  0  0  0  0  0  0  0  0  0  0  0
    1.8880   -3.2509   -2.0116 C   0  0  2  0  0  0  0  0  0  0  0  0
   -1.4105   -4.5739   -2.6958 O   0  0  0  0  0  0  0  0  0  0  0  0
    2.4102   -1.7544   -1.9927 C   0  0  2  0  0  0  0  0  0  0  0  0
    3.1681   -4.0927   -2.3276 C   0  0  1  0  0  0  0  0  0  0  0  0
    1.5561   -3.7166   -0.6922 O   0  0  0  0  0  0  0  0  0  0  0  0
    2.4436   -1.1926   -3.4698 C   0  0  0  0  0  0  0  0  0  0  0  0
    3.8256   -1.9732   -1.3655 C   0  0  1  0  0  0  0  0  0  0  0  0
    1.6365   -0.7526   -1.0607 C   0  0  1  0  0  0  0  0  0  0  0  0
    4.4008   -3.1612   -2.1617 C   0  0  1  0  0  0  0  0  0  0  0  0
    3.2394   -5.1608   -1.3788 O   0  0  0  0  0  0  0  0  0  0  0  0
    2.1282   -5.0165   -0.4905 C   0  0  2  0  0  0  0  0  0  0  0  0
    4.6692   -0.6666   -1.1737 C   0  0  1  0  0  0  0  0  0  0  0  0
    2.4039    0.5863   -0.7358 C   0  0  1  0  0  0  0  0  0  0  0  0
    1.1019   -6.1475   -0.7716 C   0  0  0  0  0  0  0  0  0  0  0  0
    2.6297   -5.0825    0.9747 C   0  0  0  0  0  0  0  0  0  0  0  0
    3.9140    0.3858   -0.2522 C   0  0  1  0  0  0  0  0  0  0  0  0
    6.0977   -0.9932   -0.6282 C   0  0  1  0  0  0  0  0  0  0  0  0
    2.1228    1.7433   -2.0416 Cl  0  0  0  0  0  0  0  0  0  0  0  0
    3.7072   -0.3406    1.3796 Cl  0  0  0  0  0  0  0  0  0  0  0  0
    4.8335    1.6949   -0.0384 C   0  0  2  0  0  0  0  0  0  0  0  0
    6.9401    0.2627   -0.2841 C   0  0  1  0  0  0  0  0  0  0  0  0
    5.1673    2.5600   -1.3189 C   0  0  0  0  0  0  0  0  0  0  0  0
    6.1611    1.2328    0.5089 C   0  0  0  0  0  0  0  0  0  0  0  0
    4.1362    2.6368    0.8710 C   0  0  0  0  0  0  0  0  0  0  0  0
    8.1090   -0.1816    0.3047 F   0  0  0  0  0  0  0  0  0  0  0  0
    6.6026    1.6682    1.7141 C   0  0  0  0  0  0  0  0  0  0  0  0
    4.6315    3.0073    2.0626 C   0  0  0  0  0  0  0  0  0  0  0  0
    5.8564    2.5365    2.4947 C   0  0  0  0  0  0  0  0  0  0  0  0
    6.2923    2.8955    3.6139 O   0  0  0  0  0  0  0  0  0  0  0  0
    3.7064   -2.3725   -0.3533 H   0  0  0  0  0  0  0  0  0  0  0  0
    4.8146   -0.2304   -2.1609 H   0  0  0  0  0  0  0  0  0  0  0  0
    3.1715   -4.5187   -3.3334 H   0  0  0  0  0  0  0  0  0  0  0  0
   -1.1851   -2.5552   -3.0037 H   0  0  0  0  0  0  0  0  0  0  0  0
   -0.7723   -3.1341   -1.3843 H   0  0  0  0  0  0  0  0  0  0  0  0
   -2.3259   -4.3935   -2.3947 H   0  0  0  0  0  0  0  0  0  0  0  0
    3.0675   -0.3125   -3.5762 H   0  0  0  0  0  0  0  0  0  0  0  0
    1.4389   -0.9209   -3.7979 H   0  0  0  0  0  0  0  0  0  0  0  0
    2.8282   -1.9214   -4.1818 H   0  0  0  0  0  0  0  0  0  0  0  0
    0.6574   -0.5317   -1.4939 H   0  0  0  0  0  0  0  0  0  0  0  0
    1.4254   -1.2434   -0.1101 H   0  0  0  0  0  0  0  0  0  0  0  0
    5.2126   -3.6573   -1.6214 H   0  0  0  0  0  0  0  0  0  0  0  0
    4.7854   -2.8259   -3.1289 H   0  0  0  0  0  0  0  0  0  0  0  0
    1.8496    1.0551    0.0830 H   0  0  0  0  0  0  0  0  0  0  0  0
    0.8319   -6.1704   -1.8286 H   0  0  0  0  0  0  0  0  0  0  0  0
    0.1969   -5.9929   -0.1797 H   0  0  0  0  0  0  0  0  0  0  0  0
    1.5285   -7.1186   -0.5132 H   0  0  0  0  0  0  0  0  0  0  0  0
    3.3371   -4.2752    1.1705 H   0  0  0  0  0  0  0  0  0  0  0  0
    1.7913   -4.9794    1.6679 H   0  0  0  0  0  0  0  0  0  0  0  0
    3.1325   -6.0318    1.1685 H   0  0  0  0  0  0  0  0  0  0  0  0
    6.0156   -1.6150    0.2687 H   0  0  0  0  0  0  0  0  0  0  0  0
    6.6441   -1.5759   -1.3758 H   0  0  0  0  0  0  0  0  0  0  0  0
    7.2540    0.7417   -1.2127 H   0  0  0  0  0  0  0  0  0  0  0  0
    5.4647    1.9502   -2.1705 H   0  0  0  0  0  0  0  0  0  0  0  0
    4.3363    3.1812   -1.6482 H   0  0  0  0  0  0  0  0  0  0  0  0
    5.9877    3.2554   -1.1167 H   0  0  0  0  0  0  0  0  0  0  0  0
    3.2552    3.0109    0.6002 H   0  0  0  0  0  0  0  0  0  0  0  0
    7.4793    1.3619    2.0712 H   0  0  0  0  0  0  0  0  0  0  0  0
    4.1086    3.6259    2.6381 H   0  0  0  0  0  0  0  0  0  0  0  0
  1  2  1  0  0  0  0 
  1  3  2  0  0  0  0 
  2  5  1  0  0  0  0 
  4  1  1  0  0  0  0 
  6  4  1  0  0  0  0 
  4  7  1  0  0  0  0 
  4  8  1  0  0  0  0 
  6  9  1  0  0  0  0 
 10  6  1  0  0  0  0 
  6 11  1  0  0  0  0 
  7 12  1  0  0  0  0 
  7 13  1  0  0  0  0 
  7 35  1  0  0  0  0 
  8 14  1  0  0  0  0 
 10 12  1  0  0  0  0 
 15 10  1  0  0  0  0 
 10 33  1  0  0  0  0 
 16 11  1  0  0  0  0 
 13 14  1  0  0  0  0 
 14 17  1  0  0  0  0 
 14 18  1  0  0  0  0 
 15 19  1  0  0  0  0 
 15 20  1  0  0  0  0 
 15 34  1  0  0  0  0 
 19 16  1  0  0  0  0 
 16 21  1  0  0  0  0 
 19 22  1  0  0  0  0 
 19 23  1  0  0  0  0 
 24 20  1  0  0  0  0 
 23 25  1  0  0  0  0 
 23 26  1  0  0  0  0 
 23 27  1  0  0  0  0 
 24 26  1  0  0  0  0 
 24 28  1  0  0  0  0 
 26 29  2  0  0  0  0 
 27 30  2  0  0  0  0 
 29 31  1  0  0  0  0 
 30 31  1  0  0  0  0 
 31 32  2  0  0  0  0 
  2 36  1  0  0  0  0 
  2 37  1  0  0  0  0 
  5 38  1  0  0  0  0 
  9 39  1  0  0  0  0 
  9 40  1  0  0  0  0 
  9 41  1  0  0  0  0 
 11 42  1  0  0  0  0 
 11 43  1  0  0  0  0 
 12 44  1  0  0  0  0 
 12 45  1  0  0  0  0 
 16 46  1  0  0  0  0 
 17 47  1  0  0  0  0 
 17 48  1  0  0  0  0 
 17 49  1  0  0  0  0 
 18 50  1  0  0  0  0 
 18 51  1  0  0  0  0 
 18 52  1  0  0  0  0 
 20 53  1  0  0  0  0 
 20 54  1  0  0  0  0 
 24 55  1  0  0  0  0 
 25 56  1  0  0  0  0 
 25 57  1  0  0  0  0 
 25 58  1  0  0  0  0 
 27 59  1  0  0  0  0 
 29 60  1  0  0  0  0 
 30 61  1  0  0  0  0 
M  END
> <cdk:Title>
fluclorolone acetonide

> <Conformer>
1

> <SuperDrugID>
SD002797

$$$$
