glucuronamide
  CDK     0628171801

 24 24  0  0  0  0  0  0  0  0999 V2000
   -1.7323   -0.3223   -0.7321 C   0  0  1  0  0  0  0  0  0  0  0  0
   -2.8461   -1.3088   -0.2796 C   0  0  1  0  0  0  0  0  0  0  0  0
   -1.1729    0.4551    0.4973 C   0  0  1  0  0  0  0  0  0  0  0  0
   -0.6842   -1.0380   -1.3870 O   0  0  0  0  0  0  0  0  0  0  0  0
   -3.9188   -0.5951    0.5870 C   0  0  2  0  0  0  0  0  0  0  0  0
   -3.4589   -1.9174   -1.4156 O   0  0  0  0  0  0  0  0  0  0  0  0
   -0.1886    1.4922    0.1126 C   0  0  0  0  0  0  0  0  0  0  0  0
   -2.2406    1.1226    1.2064 O   0  0  0  0  0  0  0  0  0  0  0  0
   -3.2567    0.2362    1.7191 C   0  0  1  0  0  0  0  0  0  0  0  0
   -4.8048   -1.5630    1.1474 O   0  0  0  0  0  0  0  0  0  0  0  0
    1.0870    1.4381    0.5385 N   0  0  0  0  0  0  0  0  0  0  0  0
   -0.5288    2.4592   -0.6073 O   0  0  0  0  0  0  0  0  0  0  0  0
   -4.2340    1.0398    2.3719 O   0  0  0  0  0  0  0  0  0  0  0  0
   -2.1578    0.3864   -1.4499 H   0  0  0  0  0  0  0  0  0  0  0  0
   -2.3909   -2.1094    0.3105 H   0  0  0  0  0  0  0  0  0  0  0  0
   -0.6813   -0.2573    1.1705 H   0  0  0  0  0  0  0  0  0  0  0  0
   -1.1151   -1.4849   -2.1462 H   0  0  0  0  0  0  0  0  0  0  0  0
   -4.5046    0.0751   -0.0491 H   0  0  0  0  0  0  0  0  0  0  0  0
   -3.8562   -1.1770   -1.9218 H   0  0  0  0  0  0  0  0  0  0  0  0
   -2.8238   -0.4272    2.4729 H   0  0  0  0  0  0  0  0  0  0  0  0
   -5.4366   -1.0422    1.6853 H   0  0  0  0  0  0  0  0  0  0  0  0
    1.7122    2.1398    0.2935 H   0  0  0  0  0  0  0  0  0  0  0  0
    1.3844    0.7002    1.0958 H   0  0  0  0  0  0  0  0  0  0  0  0
   -4.6008    1.6202    1.6715 H   0  0  0  0  0  0  0  0  0  0  0  0
  2  1  1  0  0  0  0 
  1  3  1  0  0  0  0 
  1  4  1  0  0  0  0 
  5  2  1  0  0  0  0 
  2  6  1  0  0  0  0 
  3  7  1  0  0  0  0 
  3  8  1  0  0  0  0 
  5  9  1  0  0  0  0 
  5 10  1  0  0  0  0 
  7 11  1  0  0  0  0 
  7 12  2  0  0  0  0 
  9 13  1  0  0  0  0 
  8  9  1  0  0  0  0 
  1 14  1  0  0  0  0 
  2 15  1  0  0  0  0 
  3 16  1  0  0  0  0 
  4 17  1  0  0  0  0 
  5 18  1  0  0  0  0 
  6 19  1  0  0  0  0 
  9 20  1  0  0  0  0 
 10 21  1  0  0  0  0 
 11 22  1  0  0  0  0 
 11 23  1  0  0  0  0 
 13 24  1  0  0  0  0 
M  END
> <cdk:Title>
glucuronamide

> <Conformer>
1

> <SuperDrugID>
SD001165

$$$$
