diphemanil
  CDK     0628171802

 45 47  0  0  0  0  0  0  0  0999 V2000
   -0.0357    3.6856   -0.2507 C   0  0  0  0  0  0  0  0  0  0  0  0
   -0.7073    2.5027   -0.1354 C   0  0  0  0  0  0  0  0  0  0  0  0
    0.4423    4.1291   -1.4820 C   0  0  0  0  0  0  0  0  0  0  0  0
    0.2173    4.5740    0.8076 C   0  0  0  0  0  0  0  0  0  0  0  0
   -1.0340    1.8746    1.1576 C   0  0  2  0  0  0  0  0  0  0  0  0
   -1.1658    1.7093   -1.2954 C   0  0  1  0  0  0  0  0  0  0  0  0
    1.6205    3.5609   -2.0232 C   0  0  0  0  0  0  0  0  0  0  0  0
   -0.2294    5.1464   -2.1978 C   0  0  0  0  0  0  0  0  0  0  0  0
   -0.8579    5.1002    1.5674 C   0  0  0  0  0  0  0  0  0  0  0  0
    1.5289    5.0323    1.0987 C   0  0  0  0  0  0  0  0  0  0  0  0
   -0.4971    0.4092    1.2122 C   0  0  2  0  0  0  0  0  0  0  0  0
   -0.6187    0.2564   -1.2483 C   0  0  1  0  0  0  0  0  0  0  0  0
    2.1074    3.9916   -3.2697 C   0  0  0  0  0  0  0  0  0  0  0  0
    0.2642    5.5753   -3.4430 C   0  0  0  0  0  0  0  0  0  0  0  0
   -0.6314    6.0563    2.5752 C   0  0  0  0  0  0  0  0  0  0  0  0
    1.7522    5.9823    2.1120 C   0  0  0  0  0  0  0  0  0  0  0  0
   -0.9115   -0.4729    0.0485 N   0  0  1  0  0  0  0  0  0  0  0  0
    1.4271    4.9958   -3.9818 C   0  0  0  0  0  0  0  0  0  0  0  0
    0.6735    6.5006    2.8466 C   0  0  0  0  0  0  0  0  0  0  0  0
   -0.1144   -1.7594    0.0728 C   0  0  0  0  0  0  0  0  0  0  0  0
   -2.3754   -0.8501    0.1425 C   0  0  0  0  0  0  0  0  0  0  0  0
   -2.1162    1.8857    1.3092 H   0  0  0  0  0  0  0  0  0  0  0  0
   -0.5953    2.3988    2.0095 H   0  0  0  0  0  0  0  0  0  0  0  0
   -2.2577    1.6864   -1.2867 H   0  0  0  0  0  0  0  0  0  0  0  0
   -0.8938    2.1356   -2.2619 H   0  0  0  0  0  0  0  0  0  0  0  0
    2.1336    2.8377   -1.5092 H   0  0  0  0  0  0  0  0  0  0  0  0
   -1.0775    5.5787   -1.8178 H   0  0  0  0  0  0  0  0  0  0  0  0
   -1.8199    4.8046    1.3823 H   0  0  0  0  0  0  0  0  0  0  0  0
    2.3344    4.6891    0.5685 H   0  0  0  0  0  0  0  0  0  0  0  0
   -0.8058   -0.0401    2.1623 H   0  0  0  0  0  0  0  0  0  0  0  0
    0.5964    0.4841    1.2477 H   0  0  0  0  0  0  0  0  0  0  0  0
   -1.0318   -0.2935   -2.1011 H   0  0  0  0  0  0  0  0  0  0  0  0
    0.4624    0.3207   -1.4202 H   0  0  0  0  0  0  0  0  0  0  0  0
    2.9529    3.5710   -3.6582 H   0  0  0  0  0  0  0  0  0  0  0  0
   -0.2261    6.3051   -3.9620 H   0  0  0  0  0  0  0  0  0  0  0  0
   -1.4165    6.4333    3.1082 H   0  0  0  0  0  0  0  0  0  0  0  0
    2.7022    6.3004    2.3088 H   0  0  0  0  0  0  0  0  0  0  0  0
    1.7777    5.2986   -4.8936 H   0  0  0  0  0  0  0  0  0  0  0  0
    0.8396    7.2017    3.5721 H   0  0  0  0  0  0  0  0  0  0  0  0
    0.9594   -1.5701   -0.0015 H   0  0  0  0  0  0  0  0  0  0  0  0
   -0.2786   -2.3183    0.9977 H   0  0  0  0  0  0  0  0  0  0  0  0
   -0.3888   -2.4115   -0.7614 H   0  0  0  0  0  0  0  0  0  0  0  0
   -2.6986   -1.4111   -0.7376 H   0  0  0  0  0  0  0  0  0  0  0  0
   -3.0291    0.0167    0.2260 H   0  0  0  0  0  0  0  0  0  0  0  0
   -2.5735   -1.4766    1.0149 H   0  0  0  0  0  0  0  0  0  0  0  0
  1  2  2  0  0  0  0 
  1  3  1  0  0  0  0 
  1  4  1  0  0  0  0 
  2  5  1  0  0  0  0 
  2  6  1  0  0  0  0 
  3  7  2  0  0  0  0 
  3  8  1  0  0  0  0 
  4  9  2  0  0  0  0 
  4 10  1  0  0  0  0 
  5 11  1  0  0  0  0 
  6 12  1  0  0  0  0 
  7 13  1  0  0  0  0 
  8 14  2  0  0  0  0 
  9 15  1  0  0  0  0 
 10 16  2  0  0  0  0 
 11 17  1  0  0  0  0 
 12 17  1  0  0  0  0 
 13 18  2  0  0  0  0 
 14 18  1  0  0  0  0 
 15 19  2  0  0  0  0 
 16 19  1  0  0  0  0 
 17 20  1  0  0  0  0 
 17 21  1  0  0  0  0 
  5 22  1  0  0  0  0 
  5 23  1  0  0  0  0 
  6 24  1  0  0  0  0 
  6 25  1  0  0  0  0 
  7 26  1  0  0  0  0 
  8 27  1  0  0  0  0 
  9 28  1  0  0  0  0 
 10 29  1  0  0  0  0 
 11 30  1  0  0  0  0 
 11 31  1  0  0  0  0 
 12 32  1  0  0  0  0 
 12 33  1  0  0  0  0 
 13 34  1  0  0  0  0 
 14 35  1  0  0  0  0 
 15 36  1  0  0  0  0 
 16 37  1  0  0  0  0 
 18 38  1  0  0  0  0 
 19 39  1  0  0  0  0 
 20 40  1  0  0  0  0 
 20 41  1  0  0  0  0 
 20 42  1  0  0  0  0 
 21 43  1  0  0  0  0 
 21 44  1  0  0  0  0 
 21 45  1  0  0  0  0 
M  CHG  1  17   1
M  END
> <cdk:Title>
diphemanil

> <Conformer>
1

> <SuperDrugID>
SD000813

$$$$
