tifenamil
  CDK     0628171801

 48 49  0  0  0  0  0  0  0  0999 V2000
    2.2886   -2.2806    0.0448 C   0  0  1  0  0  0  0  0  0  0  0  0
    2.0448   -1.8868   -1.3713 C   0  0  0  0  0  0  0  0  0  0  0  0
    2.0440   -3.7377    0.3162 C   0  0  0  0  0  0  0  0  0  0  0  0
    3.6173   -1.8062    0.5600 C   0  0  0  0  0  0  0  0  0  0  0  0
    0.6974   -0.8504   -1.8135 S   0  0  0  0  0  0  0  0  0  0  0  0
    2.7671   -2.2864   -2.3126 O   0  0  0  0  0  0  0  0  0  0  0  0
    1.1329   -4.1248    1.3342 C   0  0  0  0  0  0  0  0  0  0  0  0
    2.6973   -4.7698   -0.4060 C   0  0  0  0  0  0  0  0  0  0  0  0
    4.8460   -2.1701   -0.0504 C   0  0  0  0  0  0  0  0  0  0  0  0
    3.6741   -0.9505    1.6913 C   0  0  0  0  0  0  0  0  0  0  0  0
   -0.7406   -1.9777   -1.8384 C   0  0  1  0  0  0  0  0  0  0  0  0
    0.8807   -5.4805    1.6129 C   0  0  0  0  0  0  0  0  0  0  0  0
    2.4525   -6.1266   -0.1251 C   0  0  0  0  0  0  0  0  0  0  0  0
    6.0728   -1.6747    0.4277 C   0  0  0  0  0  0  0  0  0  0  0  0
    4.8985   -0.4456    2.1646 C   0  0  0  0  0  0  0  0  0  0  0  0
   -0.5744   -3.0761   -2.9232 C   0  0  1  0  0  0  0  0  0  0  0  0
    1.5435   -6.4823    0.8844 C   0  0  0  0  0  0  0  0  0  0  0  0
    6.0990   -0.8046    1.5295 C   0  0  0  0  0  0  0  0  0  0  0  0
   -1.7759   -3.9292   -3.2337 N   0  0  1  0  0  0  0  0  0  0  0  0
   -1.5367   -4.8262   -4.4258 C   0  0  2  0  0  0  0  0  0  0  0  0
   -2.2890   -4.6757   -2.0290 C   0  0  2  0  0  0  0  0  0  0  0  0
   -1.2362   -4.0971   -5.7604 C   0  0  0  0  0  0  0  0  0  0  0  0
   -3.6189   -5.4416   -2.2400 C   0  0  0  0  0  0  0  0  0  0  0  0
    1.5233   -1.7299    0.6021 H   0  0  0  0  0  0  0  0  0  0  0  0
    0.6461   -3.4185    1.8928 H   0  0  0  0  0  0  0  0  0  0  0  0
    3.3578   -4.5471   -1.1498 H   0  0  0  0  0  0  0  0  0  0  0  0
    4.8627   -2.7918   -0.8586 H   0  0  0  0  0  0  0  0  0  0  0  0
    2.8188   -0.6831    2.1860 H   0  0  0  0  0  0  0  0  0  0  0  0
   -0.8449   -2.4136   -0.8436 H   0  0  0  0  0  0  0  0  0  0  0  0
   -1.6277   -1.3807   -2.0547 H   0  0  0  0  0  0  0  0  0  0  0  0
    0.2197   -5.7392    2.3486 H   0  0  0  0  0  0  0  0  0  0  0  0
    2.9356   -6.8549   -0.6558 H   0  0  0  0  0  0  0  0  0  0  0  0
    6.9458   -1.9444   -0.0300 H   0  0  0  0  0  0  0  0  0  0  0  0
    4.9166    0.1813    2.9713 H   0  0  0  0  0  0  0  0  0  0  0  0
   -0.3076   -2.5279   -3.8262 H   0  0  0  0  0  0  0  0  0  0  0  0
    0.2703   -3.7210   -2.6598 H   0  0  0  0  0  0  0  0  0  0  0  0
    1.3670   -7.4681    1.0877 H   0  0  0  0  0  0  0  0  0  0  0  0
    6.9898   -0.4363    1.8682 H   0  0  0  0  0  0  0  0  0  0  0  0
   -2.4345   -5.4120   -4.6286 H   0  0  0  0  0  0  0  0  0  0  0  0
   -0.7251   -5.5318   -4.2135 H   0  0  0  0  0  0  0  0  0  0  0  0
   -2.5011   -3.9600   -1.2330 H   0  0  0  0  0  0  0  0  0  0  0  0
   -1.5285   -5.3715   -1.6560 H   0  0  0  0  0  0  0  0  0  0  0  0
   -1.3550   -4.7838   -6.6012 H   0  0  0  0  0  0  0  0  0  0  0  0
   -0.2111   -3.7230   -5.7796 H   0  0  0  0  0  0  0  0  0  0  0  0
   -1.9252   -3.2611   -5.8938 H   0  0  0  0  0  0  0  0  0  0  0  0
   -4.0590   -5.7088   -1.2770 H   0  0  0  0  0  0  0  0  0  0  0  0
   -3.4520   -6.3641   -2.7987 H   0  0  0  0  0  0  0  0  0  0  0  0
   -4.3268   -4.8149   -2.7852 H   0  0  0  0  0  0  0  0  0  0  0  0
  1  2  1  0  0  0  0 
  1  3  1  0  0  0  0 
  1  4  1  0  0  0  0 
  2  5  1  0  0  0  0 
  2  6  2  0  0  0  0 
  3  7  2  0  0  0  0 
  3  8  1  0  0  0  0 
  4  9  2  0  0  0  0 
  4 10  1  0  0  0  0 
  5 11  1  0  0  0  0 
  7 12  1  0  0  0  0 
  8 13  2  0  0  0  0 
  9 14  1  0  0  0  0 
 10 15  2  0  0  0  0 
 11 16  1  0  0  0  0 
 12 17  2  0  0  0  0 
 13 17  1  0  0  0  0 
 14 18  2  0  0  0  0 
 15 18  1  0  0  0  0 
 16 19  1  0  0  0  0 
 19 20  1  0  0  0  0 
 19 21  1  0  0  0  0 
 20 22  1  0  0  0  0 
 21 23  1  0  0  0  0 
  1 24  1  0  0  0  0 
  7 25  1  0  0  0  0 
  8 26  1  0  0  0  0 
  9 27  1  0  0  0  0 
 10 28  1  0  0  0  0 
 11 29  1  0  0  0  0 
 11 30  1  0  0  0  0 
 12 31  1  0  0  0  0 
 13 32  1  0  0  0  0 
 14 33  1  0  0  0  0 
 15 34  1  0  0  0  0 
 16 35  1  0  0  0  0 
 16 36  1  0  0  0  0 
 17 37  1  0  0  0  0 
 18 38  1  0  0  0  0 
 20 39  1  0  0  0  0 
 20 40  1  0  0  0  0 
 21 41  1  0  0  0  0 
 21 42  1  0  0  0  0 
 22 43  1  0  0  0  0 
 22 44  1  0  0  0  0 
 22 45  1  0  0  0  0 
 23 46  1  0  0  0  0 
 23 47  1  0  0  0  0 
 23 48  1  0  0  0  0 
M  END
> <cdk:Title>
tifenamil

> <Conformer>
1

> <SuperDrugID>
SD002375

$$$$
