calusterone
  CDK     0628171802

 55 58  0  0  0  0  0  0  0  0999 V2000
   -1.9961   -5.7179    1.8894 C   0  0  0  0  0  0  0  0  0  0  0  0
   -1.7791   -4.1845    2.1141 C   0  0  2  0  0  0  0  0  0  0  0  0
   -2.8156   -3.4919    3.0853 C   0  0  2  0  0  0  0  0  0  0  0  0
   -1.7911   -3.5082    0.7082 C   0  0  2  0  0  0  0  0  0  0  0  0
   -2.5979   -1.9162    3.0540 C   0  0  1  0  0  0  0  0  0  0  0  0
   -2.7447   -3.9756    4.5865 C   0  0  1  0  0  0  0  0  0  0  0  0
   -1.6492   -2.0499    0.7466 C   0  0  0  0  0  0  0  0  0  0  0  0
   -2.6046   -1.2743    1.5956 C   0  0  1  0  0  0  0  0  0  0  0  0
   -3.5043   -1.1475    4.0849 C   0  0  1  0  0  0  0  0  0  0  0  0
   -3.7743   -3.2701    5.5373 C   0  0  1  0  0  0  0  0  0  0  0  0
   -2.9072   -5.4682    4.9668 C   0  0  2  0  0  0  0  0  0  0  0  0
   -0.6749   -1.4640    0.0088 C   0  0  0  0  0  0  0  0  0  0  0  0
   -4.0283   -1.3226    0.9294 C   0  0  0  0  0  0  0  0  0  0  0  0
   -2.1700    0.2515    1.6873 C   0  0  1  0  0  0  0  0  0  0  0  0
   -3.4510   -1.7396    5.5197 C   0  0  1  0  0  0  0  0  0  0  0  0
   -5.2883   -3.4760    5.1170 C   0  0  0  0  0  0  0  0  0  0  0  0
   -3.5161   -4.0180    6.9081 C   0  0  1  0  0  0  0  0  0  0  0  0
   -3.3400   -5.4995    6.4539 C   0  0  1  0  0  0  0  0  0  0  0  0
   -0.5161   -0.0954   -0.0797 C   0  0  0  0  0  0  0  0  0  0  0  0
   -1.5992    0.8014    0.3600 C   0  0  1  0  0  0  0  0  0  0  0  0
   -2.2814   -3.5449    7.7461 C   0  0  0  0  0  0  0  0  0  0  0  0
   -4.6287   -3.9334    7.8110 O   0  0  0  0  0  0  0  0  0  0  0  0
    0.5530    0.3879   -0.5209 O   0  0  0  0  0  0  0  0  0  0  0  0
   -3.0587   -5.9396    1.7707 H   0  0  0  0  0  0  0  0  0  0  0  0
   -1.4727   -6.0766    0.9984 H   0  0  0  0  0  0  0  0  0  0  0  0
   -1.5962   -6.3038    2.7111 H   0  0  0  0  0  0  0  0  0  0  0  0
   -0.7742   -4.0521    2.5363 H   0  0  0  0  0  0  0  0  0  0  0  0
   -3.8102   -3.7235    2.7058 H   0  0  0  0  0  0  0  0  0  0  0  0
   -2.7308   -3.7465    0.2048 H   0  0  0  0  0  0  0  0  0  0  0  0
   -1.0021   -3.9714    0.1057 H   0  0  0  0  0  0  0  0  0  0  0  0
   -1.5780   -1.7673    3.4305 H   0  0  0  0  0  0  0  0  0  0  0  0
   -1.7286   -3.7143    4.9025 H   0  0  0  0  0  0  0  0  0  0  0  0
   -3.1849   -0.1066    4.1675 H   0  0  0  0  0  0  0  0  0  0  0  0
   -4.5379   -1.1234    3.7429 H   0  0  0  0  0  0  0  0  0  0  0  0
   -1.9641   -6.0092    4.8692 H   0  0  0  0  0  0  0  0  0  0  0  0
   -3.6656   -5.9451    4.3390 H   0  0  0  0  0  0  0  0  0  0  0  0
   -0.0347   -2.0216   -0.5093 H   0  0  0  0  0  0  0  0  0  0  0  0
   -3.9791   -1.0161   -0.1176 H   0  0  0  0  0  0  0  0  0  0  0  0
   -4.4626   -2.3205    0.9549 H   0  0  0  0  0  0  0  0  0  0  0  0
   -4.7300   -0.6559    1.4333 H   0  0  0  0  0  0  0  0  0  0  0  0
   -3.0026    0.8928    1.9919 H   0  0  0  0  0  0  0  0  0  0  0  0
   -1.3867    0.3749    2.4416 H   0  0  0  0  0  0  0  0  0  0  0  0
   -2.4443   -1.5540    5.9018 H   0  0  0  0  0  0  0  0  0  0  0  0
   -4.1461   -1.2012    6.1690 H   0  0  0  0  0  0  0  0  0  0  0  0
   -5.9472   -2.9414    5.8042 H   0  0  0  0  0  0  0  0  0  0  0  0
   -5.5840   -4.5251    5.1329 H   0  0  0  0  0  0  0  0  0  0  0  0
   -5.5085   -3.1091    4.1178 H   0  0  0  0  0  0  0  0  0  0  0  0
   -4.2808   -6.0532    6.5404 H   0  0  0  0  0  0  0  0  0  0  0  0
   -2.6021   -6.0312    7.0615 H   0  0  0  0  0  0  0  0  0  0  0  0
   -2.3813    0.8209   -0.4020 H   0  0  0  0  0  0  0  0  0  0  0  0
   -1.2329    1.8229    0.4978 H   0  0  0  0  0  0  0  0  0  0  0  0
   -1.3561   -3.6028    7.1730 H   0  0  0  0  0  0  0  0  0  0  0  0
   -2.1628   -4.1660    8.6367 H   0  0  0  0  0  0  0  0  0  0  0  0
   -2.4182   -2.5180    8.0836 H   0  0  0  0  0  0  0  0  0  0  0  0
   -4.7056   -2.9856    8.0456 H   0  0  0  0  0  0  0  0  0  0  0  0
  2  1  1  0  0  0  0 
  3  2  1  0  0  0  0 
  2  4  1  0  0  0  0 
  3  5  1  0  0  0  0 
  3  6  1  0  0  0  0 
  4  7  1  0  0  0  0 
  5  8  1  0  0  0  0 
  5  9  1  0  0  0  0 
  6 10  1  0  0  0  0 
  6 11  1  0  0  0  0 
  8  7  1  0  0  0  0 
  7 12  2  0  0  0  0 
  8 13  1  0  0  0  0 
  8 14  1  0  0  0  0 
  9 15  1  0  0  0  0 
 10 15  1  0  0  0  0 
 10 16  1  0  0  0  0 
 10 17  1  0  0  0  0 
 11 18  1  0  0  0  0 
 12 19  1  0  0  0  0 
 14 20  1  0  0  0  0 
 17 18  1  0  0  0  0 
 17 21  1  0  0  0  0 
 17 22  1  0  0  0  0 
 19 20  1  0  0  0  0 
 19 23  2  0  0  0  0 
 24  1  1  0  0  0  0 
 25  1  1  0  0  0  0 
 26  1  1  0  0  0  0 
  2 27  1  0  0  0  0 
  3 28  1  0  0  0  0 
 29  4  1  0  0  0  0 
 30  4  1  0  0  0  0 
  5 31  1  0  0  0  0 
  6 32  1  0  0  0  0 
 33  9  1  0  0  0  0 
 34  9  1  0  0  0  0 
 35 11  1  0  0  0  0 
 36 11  1  0  0  0  0 
 37 12  1  0  0  0  0 
 38 13  1  0  0  0  0 
 39 13  1  0  0  0  0 
 40 13  1  0  0  0  0 
 41 14  1  0  0  0  0 
 42 14  1  0  0  0  0 
 43 15  1  0  0  0  0 
 44 15  1  0  0  0  0 
 45 16  1  0  0  0  0 
 46 16  1  0  0  0  0 
 47 16  1  0  0  0  0 
 48 18  1  0  0  0  0 
 49 18  1  0  0  0  0 
 50 20  1  0  0  0  0 
 51 20  1  0  0  0  0 
 52 21  1  0  0  0  0 
 53 21  1  0  0  0  0 
 54 21  1  0  0  0  0 
 55 22  1  0  0  0  0 
M  END
> <cdk:Title>
calusterone

> <Conformer>
1

> <SuperDrugID>
SD000407

$$$$
