naftopidil
  CDK     0628171801

 57 60  0  0  0  0  0  0  0  0999 V2000
   -5.0673    7.2173   -3.1553 O   0  0  0  0  0  0  0  0  0  0  0  0
   -3.8061    6.6635   -3.5821 C   0  0  1  0  0  0  0  0  0  0  0  0
   -5.6293    8.0616   -4.0811 C   0  0  0  0  0  0  0  0  0  0  0  0
   -3.2939    5.6507   -2.5240 C   0  0  2  0  0  0  0  0  0  0  0  0
   -6.6213    7.6047   -4.9867 C   0  0  0  0  0  0  0  0  0  0  0  0
   -5.2202    9.4113   -4.1076 C   0  0  0  0  0  0  0  0  0  0  0  0
   -1.8471    5.1711   -2.8331 C   0  0  2  0  0  0  0  0  0  0  0  0
   -4.1757    4.5339   -2.4563 O   0  0  0  0  0  0  0  0  0  0  0  0
   -7.1972    8.5203   -5.9177 C   0  0  0  0  0  0  0  0  0  0  0  0
   -7.0500    6.2559   -4.9961 C   0  0  0  0  0  0  0  0  0  0  0  0
   -5.7826   10.3075   -5.0311 C   0  0  0  0  0  0  0  0  0  0  0  0
   -1.2376    4.1842   -1.8930 N   0  0  0  0  0  0  0  0  0  0  0  0
   -6.7624    9.8649   -5.9357 C   0  0  0  0  0  0  0  0  0  0  0  0
   -8.1950    8.0737   -6.8127 C   0  0  0  0  0  0  0  0  0  0  0  0
   -8.0238    5.8198   -5.9114 C   0  0  0  0  0  0  0  0  0  0  0  0
   -1.2676    4.4582   -0.4301 C   0  0  1  0  0  0  0  0  0  0  0  0
   -1.2690    2.7323   -2.2223 C   0  0  1  0  0  0  0  0  0  0  0  0
   -8.6005    6.7281   -6.8138 C   0  0  0  0  0  0  0  0  0  0  0  0
   -0.0312    3.7943    0.2245 C   0  0  1  0  0  0  0  0  0  0  0  0
   -0.0217    2.0665   -1.5860 C   0  0  2  0  0  0  0  0  0  0  0  0
    0.1526    2.4200   -0.1913 N   0  0  0  0  0  0  0  0  0  0  0  0
    0.5984    1.4849    0.7134 C   0  0  0  0  0  0  0  0  0  0  0  0
   -0.1997    0.3754    1.0864 C   0  0  0  0  0  0  0  0  0  0  0  0
    1.8834    1.6298    1.2894 C   0  0  0  0  0  0  0  0  0  0  0  0
   -1.4526    0.2160    0.5583 O   0  0  0  0  0  0  0  0  0  0  0  0
    0.3058   -0.5837    1.9902 C   0  0  0  0  0  0  0  0  0  0  0  0
    2.3699    0.6844    2.2099 C   0  0  0  0  0  0  0  0  0  0  0  0
   -2.5030    0.6359    1.4482 C   0  0  0  0  0  0  0  0  0  0  0  0
    1.5825   -0.4264    2.5567 C   0  0  0  0  0  0  0  0  0  0  0  0
   -3.9124    6.1551   -4.5463 H   0  0  0  0  0  0  0  0  0  0  0  0
   -3.0732    7.4694   -3.6911 H   0  0  0  0  0  0  0  0  0  0  0  0
   -3.3032    6.1496   -1.5538 H   0  0  0  0  0  0  0  0  0  0  0  0
   -4.5043    9.7444   -3.4563 H   0  0  0  0  0  0  0  0  0  0  0  0
   -1.1919    6.0465   -2.8170 H   0  0  0  0  0  0  0  0  0  0  0  0
   -1.8146    4.7743   -3.8522 H   0  0  0  0  0  0  0  0  0  0  0  0
   -5.0561    4.9076   -2.2406 H   0  0  0  0  0  0  0  0  0  0  0  0
   -6.6547    5.5763   -4.3423 H   0  0  0  0  0  0  0  0  0  0  0  0
   -5.4775   11.2834   -5.0442 H   0  0  0  0  0  0  0  0  0  0  0  0
   -7.1509   10.5332   -6.6073 H   0  0  0  0  0  0  0  0  0  0  0  0
   -8.6322    8.7252   -7.4693 H   0  0  0  0  0  0  0  0  0  0  0  0
   -8.3147    4.8408   -5.9209 H   0  0  0  0  0  0  0  0  0  0  0  0
   -1.2377    5.5322   -0.2275 H   0  0  0  0  0  0  0  0  0  0  0  0
   -2.1828    4.0539    0.0094 H   0  0  0  0  0  0  0  0  0  0  0  0
   -2.1804    2.2777   -1.8282 H   0  0  0  0  0  0  0  0  0  0  0  0
   -1.2408    2.5644   -3.3032 H   0  0  0  0  0  0  0  0  0  0  0  0
   -9.3157    6.4105   -7.4718 H   0  0  0  0  0  0  0  0  0  0  0  0
    0.8557    4.3600   -0.0703 H   0  0  0  0  0  0  0  0  0  0  0  0
   -0.1303    3.8717    1.3126 H   0  0  0  0  0  0  0  0  0  0  0  0
    0.8604    2.4157   -2.1289 H   0  0  0  0  0  0  0  0  0  0  0  0
   -0.0867    0.9839   -1.7348 H   0  0  0  0  0  0  0  0  0  0  0  0
    2.4770    2.4242    1.0382 H   0  0  0  0  0  0  0  0  0  0  0  0
   -0.2587   -1.3962    2.2461 H   0  0  0  0  0  0  0  0  0  0  0  0
    3.2963    0.8053    2.6272 H   0  0  0  0  0  0  0  0  0  0  0  0
   -3.4521    0.5109    0.9312 H   0  0  0  0  0  0  0  0  0  0  0  0
   -2.5316    0.0186    2.3469 H   0  0  0  0  0  0  0  0  0  0  0  0
   -2.4036    1.6861    1.7325 H   0  0  0  0  0  0  0  0  0  0  0  0
    1.9362   -1.1144    3.2256 H   0  0  0  0  0  0  0  0  0  0  0  0
  1  2  1  0  0  0  0 
  1  3  1  0  0  0  0 
  4  2  1  0  0  0  0 
  3  5  2  0  0  0  0 
  3  6  1  0  0  0  0 
  4  7  1  0  0  0  0 
  4  8  1  0  0  0  0 
  5  9  1  0  0  0  0 
  5 10  1  0  0  0  0 
  6 11  2  0  0  0  0 
  7 12  1  0  0  0  0 
  9 13  2  0  0  0  0 
  9 14  1  0  0  0  0 
 10 15  2  0  0  0  0 
 11 13  1  0  0  0  0 
 12 16  1  0  0  0  0 
 12 17  1  0  0  0  0 
 14 18  2  0  0  0  0 
 15 18  1  0  0  0  0 
 16 19  1  0  0  0  0 
 17 20  1  0  0  0  0 
 19 21  1  0  0  0  0 
 20 21  1  0  0  0  0 
 21 22  1  0  0  0  0 
 22 23  2  0  0  0  0 
 22 24  1  0  0  0  0 
 23 25  1  0  0  0  0 
 23 26  1  0  0  0  0 
 24 27  2  0  0  0  0 
 25 28  1  0  0  0  0 
 26 29  2  0  0  0  0 
 27 29  1  0  0  0  0 
  2 30  1  0  0  0  0 
  2 31  1  0  0  0  0 
  4 32  1  0  0  0  0 
  6 33  1  0  0  0  0 
  7 34  1  0  0  0  0 
  7 35  1  0  0  0  0 
  8 36  1  0  0  0  0 
 10 37  1  0  0  0  0 
 11 38  1  0  0  0  0 
 13 39  1  0  0  0  0 
 14 40  1  0  0  0  0 
 15 41  1  0  0  0  0 
 16 42  1  0  0  0  0 
 16 43  1  0  0  0  0 
 17 44  1  0  0  0  0 
 17 45  1  0  0  0  0 
 18 46  1  0  0  0  0 
 19 47  1  0  0  0  0 
 19 48  1  0  0  0  0 
 20 49  1  0  0  0  0 
 20 50  1  0  0  0  0 
 24 51  1  0  0  0  0 
 26 52  1  0  0  0  0 
 27 53  1  0  0  0  0 
 28 54  1  0  0  0  0 
 28 55  1  0  0  0  0 
 28 56  1  0  0  0  0 
 29 57  1  0  0  0  0 
M  END
> <cdk:Title>
naftopidil

> <Conformer>
1

> <SuperDrugID>
SD001669

$$$$
