dipyridamole
  CDK     0628171802

 76 79  0  0  0  0  0  0  0  0999 V2000
   -2.9867    0.3350   -1.3431 N   0  0  0  0  0  0  0  0  0  0  0  0
   -2.6581    1.3899   -0.3865 C   0  0  2  0  0  0  0  0  0  0  0  0
   -3.8550   -0.7889   -1.0085 C   0  0  1  0  0  0  0  0  0  0  0  0
   -2.4120    0.3835   -2.6125 C   0  0  0  0  0  0  0  0  0  0  0  0
   -3.1349    1.2853    1.0862 C   0  0  1  0  0  0  0  0  0  0  0  0
   -3.0363   -2.0636   -0.6854 C   0  0  2  0  0  0  0  0  0  0  0  0
   -1.4121    1.2545   -2.9291 N   0  0  0  0  0  0  0  0  0  0  0  0
   -2.7967   -0.4719   -3.5968 N   0  0  0  0  0  0  0  0  0  0  0  0
   -2.6488    2.3837    1.8531 O   0  0  0  0  0  0  0  0  0  0  0  0
   -3.8919   -3.1413   -0.3178 O   0  0  0  0  0  0  0  0  0  0  0  0
   -0.7790    1.2703   -4.1310 C   0  0  0  0  0  0  0  0  0  0  0  0
   -2.2540   -0.5328   -4.8402 C   0  0  0  0  0  0  0  0  0  0  0  0
   -1.1933    0.3590   -5.1366 C   0  0  0  0  0  0  0  0  0  0  0  0
    0.2856    2.1574   -4.4234 C   0  0  0  0  0  0  0  0  0  0  0  0
   -2.7753   -1.4718   -5.7072 N   0  0  0  0  0  0  0  0  0  0  0  0
   -0.5521    0.3710   -6.3355 N   0  0  0  0  0  0  0  0  0  0  0  0
    0.8674    2.0604   -5.6477 N   0  0  0  0  0  0  0  0  0  0  0  0
    0.7856    3.1152   -3.5655 N   0  0  0  0  0  0  0  0  0  0  0  0
   -1.9312   -2.3466   -6.4948 C   0  0  2  0  0  0  0  0  0  0  0  0
   -4.2100   -1.6602   -5.8237 C   0  0  1  0  0  0  0  0  0  0  0  0
    0.4998    1.1883   -6.6233 C   0  0  0  0  0  0  0  0  0  0  0  0
    1.0806    2.8377   -2.1740 C   0  0  2  0  0  0  0  0  0  0  0  0
    1.0875    4.4496   -4.0495 C   0  0  1  0  0  0  0  0  0  0  0  0
   -2.2742   -3.8430   -6.2569 C   0  0  2  0  0  0  0  0  0  0  0  0
   -4.6002   -3.1208   -5.4774 C   0  0  1  0  0  0  0  0  0  0  0  0
    1.1977    1.1131   -7.8290 N   0  0  0  0  0  0  0  0  0  0  0  0
    2.5545    3.1812   -1.8247 C   0  0  2  0  0  0  0  0  0  0  0  0
    2.5801    4.7946   -3.8106 C   0  0  1  0  0  0  0  0  0  0  0  0
   -3.7971   -4.1207   -6.3484 C   0  0  1  0  0  0  0  0  0  0  0  0
    0.6700    0.2505   -8.8824 C   0  0  2  0  0  0  0  0  0  0  0  0
    2.4523    1.8429   -7.9694 C   0  0  1  0  0  0  0  0  0  0  0  0
    2.9571    4.5944   -2.3203 C   0  0  1  0  0  0  0  0  0  0  0  0
    1.4925    0.0028  -10.1736 C   0  0  1  0  0  0  0  0  0  0  0  0
    3.6163    1.1076   -7.2596 C   0  0  2  0  0  0  0  0  0  0  0  0
    0.8182   -0.9245  -11.0200 O   0  0  0  0  0  0  0  0  0  0  0  0
    4.8497    1.7904   -7.4558 O   0  0  0  0  0  0  0  0  0  0  0  0
   -3.0431    2.3328   -0.7848 H   0  0  0  0  0  0  0  0  0  0  0  0
   -1.5692    1.4766   -0.3330 H   0  0  0  0  0  0  0  0  0  0  0  0
   -4.5056   -0.5713   -0.1626 H   0  0  0  0  0  0  0  0  0  0  0  0
   -4.5386   -1.0078   -1.8361 H   0  0  0  0  0  0  0  0  0  0  0  0
   -4.2245    1.3024    1.1348 H   0  0  0  0  0  0  0  0  0  0  0  0
   -2.7654    0.3628    1.5350 H   0  0  0  0  0  0  0  0  0  0  0  0
   -2.3467   -1.8679    0.1377 H   0  0  0  0  0  0  0  0  0  0  0  0
   -2.4582   -2.3711   -1.5591 H   0  0  0  0  0  0  0  0  0  0  0  0
   -3.0119    2.2451    2.7549 H   0  0  0  0  0  0  0  0  0  0  0  0
   -3.2873   -3.9037   -0.1796 H   0  0  0  0  0  0  0  0  0  0  0  0
   -0.8715   -2.2203   -6.2562 H   0  0  0  0  0  0  0  0  0  0  0  0
   -2.0627   -2.1065   -7.5543 H   0  0  0  0  0  0  0  0  0  0  0  0
   -4.7815   -0.9872   -5.1784 H   0  0  0  0  0  0  0  0  0  0  0  0
   -4.5181   -1.4378   -6.8489 H   0  0  0  0  0  0  0  0  0  0  0  0
    0.9274    1.7856   -1.9198 H   0  0  0  0  0  0  0  0  0  0  0  0
    0.4107    3.4305   -1.5436 H   0  0  0  0  0  0  0  0  0  0  0  0
    0.8725    4.5754   -5.1146 H   0  0  0  0  0  0  0  0  0  0  0  0
    0.4581    5.1715   -3.5227 H   0  0  0  0  0  0  0  0  0  0  0  0
   -1.9208   -4.1344   -5.2637 H   0  0  0  0  0  0  0  0  0  0  0  0
   -1.7505   -4.4563   -6.9954 H   0  0  0  0  0  0  0  0  0  0  0  0
   -4.3906   -3.3079   -4.4192 H   0  0  0  0  0  0  0  0  0  0  0  0
   -5.6718   -3.2693   -5.6417 H   0  0  0  0  0  0  0  0  0  0  0  0
    3.2114    2.4401   -2.2890 H   0  0  0  0  0  0  0  0  0  0  0  0
    2.6941    3.1248   -0.7416 H   0  0  0  0  0  0  0  0  0  0  0  0
    3.2032    4.1463   -4.4353 H   0  0  0  0  0  0  0  0  0  0  0  0
    2.7715    5.8319   -4.1013 H   0  0  0  0  0  0  0  0  0  0  0  0
   -4.1230   -4.0396   -7.3899 H   0  0  0  0  0  0  0  0  0  0  0  0
   -4.0034   -5.1408   -6.0115 H   0  0  0  0  0  0  0  0  0  0  0  0
   -0.3010    0.6489   -9.1898 H   0  0  0  0  0  0  0  0  0  0  0  0
    0.4999   -0.7412   -8.4542 H   0  0  0  0  0  0  0  0  0  0  0  0
    2.7289    1.9937   -9.0121 H   0  0  0  0  0  0  0  0  0  0  0  0
    2.3651    2.8524   -7.5548 H   0  0  0  0  0  0  0  0  0  0  0  0
    2.4522    5.3519   -1.7133 H   0  0  0  0  0  0  0  0  0  0  0  0
    4.0356    4.7312   -2.1987 H   0  0  0  0  0  0  0  0  0  0  0  0
    1.6195    0.9337  -10.7282 H   0  0  0  0  0  0  0  0  0  0  0  0
    2.4719   -0.4063   -9.9230 H   0  0  0  0  0  0  0  0  0  0  0  0
    3.7134    0.0933   -7.6490 H   0  0  0  0  0  0  0  0  0  0  0  0
    3.4320    1.0480   -6.1864 H   0  0  0  0  0  0  0  0  0  0  0  0
    1.3895   -1.0103  -11.8133 H   0  0  0  0  0  0  0  0  0  0  0  0
    4.9829    1.7957   -8.4287 H   0  0  0  0  0  0  0  0  0  0  0  0
  1  2  1  0  0  0  0 
  1  3  1  0  0  0  0 
  1  4  1  0  0  0  0 
  2  5  1  0  0  0  0 
  3  6  1  0  0  0  0 
  4  7  1  0  0  0  0 
  4  8  2  0  0  0  0 
  5  9  1  0  0  0  0 
  6 10  1  0  0  0  0 
  7 11  2  0  0  0  0 
  8 12  1  0  0  0  0 
 11 13  1  0  0  0  0 
 11 14  1  0  0  0  0 
 12 13  2  0  0  0  0 
 12 15  1  0  0  0  0 
 13 16  1  0  0  0  0 
 14 17  2  0  0  0  0 
 14 18  1  0  0  0  0 
 15 19  1  0  0  0  0 
 15 20  1  0  0  0  0 
 16 21  2  0  0  0  0 
 17 21  1  0  0  0  0 
 18 22  1  0  0  0  0 
 18 23  1  0  0  0  0 
 19 24  1  0  0  0  0 
 20 25  1  0  0  0  0 
 21 26  1  0  0  0  0 
 22 27  1  0  0  0  0 
 23 28  1  0  0  0  0 
 24 29  1  0  0  0  0 
 25 29  1  0  0  0  0 
 26 30  1  0  0  0  0 
 26 31  1  0  0  0  0 
 27 32  1  0  0  0  0 
 28 32  1  0  0  0  0 
 30 33  1  0  0  0  0 
 31 34  1  0  0  0  0 
 33 35  1  0  0  0  0 
 34 36  1  0  0  0  0 
  2 37  1  0  0  0  0 
  2 38  1  0  0  0  0 
  3 39  1  0  0  0  0 
  3 40  1  0  0  0  0 
  5 41  1  0  0  0  0 
  5 42  1  0  0  0  0 
  6 43  1  0  0  0  0 
  6 44  1  0  0  0  0 
  9 45  1  0  0  0  0 
 10 46  1  0  0  0  0 
 19 47  1  0  0  0  0 
 19 48  1  0  0  0  0 
 20 49  1  0  0  0  0 
 20 50  1  0  0  0  0 
 22 51  1  0  0  0  0 
 22 52  1  0  0  0  0 
 23 53  1  0  0  0  0 
 23 54  1  0  0  0  0 
 24 55  1  0  0  0  0 
 24 56  1  0  0  0  0 
 25 57  1  0  0  0  0 
 25 58  1  0  0  0  0 
 27 59  1  0  0  0  0 
 27 60  1  0  0  0  0 
 28 61  1  0  0  0  0 
 28 62  1  0  0  0  0 
 29 63  1  0  0  0  0 
 29 64  1  0  0  0  0 
 30 65  1  0  0  0  0 
 30 66  1  0  0  0  0 
 31 67  1  0  0  0  0 
 31 68  1  0  0  0  0 
 32 69  1  0  0  0  0 
 32 70  1  0  0  0  0 
 33 71  1  0  0  0  0 
 33 72  1  0  0  0  0 
 34 73  1  0  0  0  0 
 34 74  1  0  0  0  0 
 35 75  1  0  0  0  0 
 36 76  1  0  0  0  0 
M  END
> <cdk:Title>
dipyridamole

> <Conformer>
1

> <SuperDrugID>
SD000821

$$$$
