carbaryl
  CDK     0628171801

 26 27  0  0  0  0  0  0  0  0999 V2000
    4.1692   -2.5636   -0.0028 C   0  0  0  0  0  0  0  0  0  0  0  0
    3.3935   -1.3701    0.0933 N   0  0  0  0  0  0  0  0  0  0  0  0
    2.2078   -1.2616    0.7493 C   0  0  0  0  0  0  0  0  0  0  0  0
    1.6934   -2.2533    1.3177 O   0  0  0  0  0  0  0  0  0  0  0  0
    1.6405   -0.0165    0.8067 O   0  0  0  0  0  0  0  0  0  0  0  0
    0.4294    0.4335    1.2844 C   0  0  0  0  0  0  0  0  0  0  0  0
   -0.7030   -0.4073    1.3777 C   0  0  0  0  0  0  0  0  0  0  0  0
   -1.9305    0.0877    1.8471 C   0  0  0  0  0  0  0  0  0  0  0  0
   -2.0539    1.4355    2.2168 C   0  0  0  0  0  0  0  0  0  0  0  0
   -0.9481    2.3064    2.1177 C   0  0  0  0  0  0  0  0  0  0  0  0
    0.3053    1.8010    1.6552 C   0  0  0  0  0  0  0  0  0  0  0  0
    1.4038    2.6920    1.5790 C   0  0  0  0  0  0  0  0  0  0  0  0
    1.2648    4.0475    1.9266 C   0  0  0  0  0  0  0  0  0  0  0  0
    0.0267    4.5379    2.3702 C   0  0  0  0  0  0  0  0  0  0  0  0
   -1.0757    3.6722    2.4665 C   0  0  0  0  0  0  0  0  0  0  0  0
    4.5889   -2.8154    0.9737 H   0  0  0  0  0  0  0  0  0  0  0  0
    4.9875   -2.4010   -0.7062 H   0  0  0  0  0  0  0  0  0  0  0  0
    3.5594   -3.3960   -0.3622 H   0  0  0  0  0  0  0  0  0  0  0  0
    3.7467   -0.5713   -0.3302 H   0  0  0  0  0  0  0  0  0  0  0  0
   -0.6529   -1.3848    1.0881 H   0  0  0  0  0  0  0  0  0  0  0  0
   -2.7387   -0.5360    1.9123 H   0  0  0  0  0  0  0  0  0  0  0  0
   -2.9596    1.7736    2.5533 H   0  0  0  0  0  0  0  0  0  0  0  0
    2.3212    2.3666    1.2678 H   0  0  0  0  0  0  0  0  0  0  0  0
    2.0654    4.6793    1.8515 H   0  0  0  0  0  0  0  0  0  0  0  0
   -0.0717    5.5244    2.6247 H   0  0  0  0  0  0  0  0  0  0  0  0
   -1.9707    4.0499    2.7908 H   0  0  0  0  0  0  0  0  0  0  0  0
  1  2  1  0  0  0  0 
  2  3  1  0  0  0  0 
  3  4  2  0  0  0  0 
  3  5  1  0  0  0  0 
  5  6  1  0  0  0  0 
  6  7  1  0  0  0  0 
  7  8  2  0  0  0  0 
  8  9  1  0  0  0  0 
  9 10  2  0  0  0  0 
 10 11  1  0  0  0  0 
  6 11  2  0  0  0  0 
 11 12  1  0  0  0  0 
 12 13  2  0  0  0  0 
 13 14  1  0  0  0  0 
 14 15  2  0  0  0  0 
 10 15  1  0  0  0  0 
 16  1  1  0  0  0  0 
 17  1  1  0  0  0  0 
 18  1  1  0  0  0  0 
 19  2  1  0  0  0  0 
 20  7  1  0  0  0  0 
 21  8  1  0  0  0  0 
 22  9  1  0  0  0  0 
 23 12  1  0  0  0  0 
 24 13  1  0  0  0  0 
 25 14  1  0  0  0  0 
 26 15  1  0  0  0  0 
M  END
> <cdk:Title>
carbaryl

> <Conformer>
1

> <SuperDrugID>
SD002662

$$$$
