dimetacrine
  CDK     0628171802

 48 50  0  0  0  0  0  0  0  0999 V2000
   -1.3179    2.4496   -0.0887 C   0  0  0  0  0  0  0  0  0  0  0  0
   -1.4933    1.1046    0.5397 N   0  0  2  0  0  0  0  0  0  0  0  0
   -1.9626    1.2266    1.9510 C   0  0  0  0  0  0  0  0  0  0  0  0
   -0.3011    0.2087    0.3664 C   0  0  1  0  0  0  0  0  0  0  0  0
   -0.5479   -1.3004    0.6613 C   0  0  2  0  0  0  0  0  0  0  0  0
   -1.7604   -1.8780   -0.1281 C   0  0  1  0  0  0  0  0  0  0  0  0
   -1.9971   -3.3172    0.0290 N   0  0  0  0  0  0  0  0  0  0  0  0
   -2.0643   -4.1386   -1.0907 C   0  0  0  0  0  0  0  0  0  0  0  0
   -2.6371   -3.6854   -2.3098 C   0  0  0  0  0  0  0  0  0  0  0  0
   -2.5523   -4.4490   -3.4847 C   0  0  0  0  0  0  0  0  0  0  0  0
   -1.8890   -5.6822   -3.4632 C   0  0  0  0  0  0  0  0  0  0  0  0
   -1.3819   -6.1767   -2.2522 C   0  0  0  0  0  0  0  0  0  0  0  0
   -1.5368   -5.4621   -1.0324 C   0  0  0  0  0  0  0  0  0  0  0  0
   -1.1675   -6.0936    0.2954 C   0  0  1  0  0  0  0  0  0  0  0  0
   -1.9102   -7.4831    0.4045 C   0  0  0  0  0  0  0  0  0  0  0  0
    0.3822   -6.3019    0.3440 C   0  0  0  0  0  0  0  0  0  0  0  0
   -1.5802   -5.2309    1.4752 C   0  0  0  0  0  0  0  0  0  0  0  0
   -2.0639   -3.9006    1.2879 C   0  0  0  0  0  0  0  0  0  0  0  0
   -2.5701   -3.1844    2.4063 C   0  0  0  0  0  0  0  0  0  0  0  0
   -2.4933   -3.7124    3.7036 C   0  0  0  0  0  0  0  0  0  0  0  0
   -1.9352   -4.9794    3.9057 C   0  0  0  0  0  0  0  0  0  0  0  0
   -1.4833   -5.7224    2.8055 C   0  0  0  0  0  0  0  0  0  0  0  0
   -1.0896    2.3511   -1.1510 H   0  0  0  0  0  0  0  0  0  0  0  0
   -2.2373    3.0345   -0.0109 H   0  0  0  0  0  0  0  0  0  0  0  0
   -0.5103    3.0071    0.3913 H   0  0  0  0  0  0  0  0  0  0  0  0
   -2.8944    1.7941    1.9986 H   0  0  0  0  0  0  0  0  0  0  0  0
   -2.1660    0.2478    2.3823 H   0  0  0  0  0  0  0  0  0  0  0  0
   -1.2159    1.7325    2.5668 H   0  0  0  0  0  0  0  0  0  0  0  0
    0.0357    0.2661   -0.6717 H   0  0  0  0  0  0  0  0  0  0  0  0
    0.5194    0.5639    0.9970 H   0  0  0  0  0  0  0  0  0  0  0  0
   -0.6735   -1.4284    1.7350 H   0  0  0  0  0  0  0  0  0  0  0  0
    0.3482   -1.8634    0.3893 H   0  0  0  0  0  0  0  0  0  0  0  0
   -2.6703   -1.3406    0.1479 H   0  0  0  0  0  0  0  0  0  0  0  0
   -1.5483   -1.6187   -1.1692 H   0  0  0  0  0  0  0  0  0  0  0  0
   -3.1210   -2.7844   -2.3563 H   0  0  0  0  0  0  0  0  0  0  0  0
   -2.9607   -4.1019   -4.3559 H   0  0  0  0  0  0  0  0  0  0  0  0
   -1.7857   -6.2252   -4.3247 H   0  0  0  0  0  0  0  0  0  0  0  0
   -0.9074   -7.0815   -2.2728 H   0  0  0  0  0  0  0  0  0  0  0  0
   -1.6506   -8.1603   -0.4104 H   0  0  0  0  0  0  0  0  0  0  0  0
   -1.6492   -8.0217    1.3168 H   0  0  0  0  0  0  0  0  0  0  0  0
   -2.9950   -7.3418    0.3941 H   0  0  0  0  0  0  0  0  0  0  0  0
    0.6938   -6.7563    1.2875 H   0  0  0  0  0  0  0  0  0  0  0  0
    0.9008   -5.3450    0.2405 H   0  0  0  0  0  0  0  0  0  0  0  0
    0.7213   -6.9615   -0.4574 H   0  0  0  0  0  0  0  0  0  0  0  0
   -2.9810   -2.2553    2.2913 H   0  0  0  0  0  0  0  0  0  0  0  0
   -2.8297   -3.1702    4.5015 H   0  0  0  0  0  0  0  0  0  0  0  0
   -1.8607   -5.3636    4.8509 H   0  0  0  0  0  0  0  0  0  0  0  0
   -1.0819   -6.6404    2.9965 H   0  0  0  0  0  0  0  0  0  0  0  0
  1  2  1  0  0  0  0 
  2  3  1  0  0  0  0 
  2  4  1  0  0  0  0 
  4  5  1  0  0  0  0 
  5  6  1  0  0  0  0 
  6  7  1  0  0  0  0 
  7  8  1  0  0  0  0 
  8  9  2  0  0  0  0 
  9 10  1  0  0  0  0 
 10 11  2  0  0  0  0 
 11 12  1  0  0  0  0 
 12 13  2  0  0  0  0 
  8 13  1  0  0  0  0 
 13 14  1  0  0  0  0 
 14 15  1  0  0  0  0 
 14 16  1  0  0  0  0 
 14 17  1  0  0  0  0 
 17 18  2  0  0  0  0 
  7 18  1  0  0  0  0 
 18 19  1  0  0  0  0 
 19 20  2  0  0  0  0 
 20 21  1  0  0  0  0 
 21 22  2  0  0  0  0 
 17 22  1  0  0  0  0 
  1 23  1  0  0  0  0 
  1 24  1  0  0  0  0 
  1 25  1  0  0  0  0 
  3 26  1  0  0  0  0 
  3 27  1  0  0  0  0 
  3 28  1  0  0  0  0 
  4 29  1  0  0  0  0 
  4 30  1  0  0  0  0 
  5 31  1  0  0  0  0 
  5 32  1  0  0  0  0 
  6 33  1  0  0  0  0 
  6 34  1  0  0  0  0 
  9 35  1  0  0  0  0 
 10 36  1  0  0  0  0 
 11 37  1  0  0  0  0 
 12 38  1  0  0  0  0 
 15 39  1  0  0  0  0 
 15 40  1  0  0  0  0 
 15 41  1  0  0  0  0 
 16 42  1  0  0  0  0 
 16 43  1  0  0  0  0 
 16 44  1  0  0  0  0 
 19 45  1  0  0  0  0 
 20 46  1  0  0  0  0 
 21 47  1  0  0  0  0 
 22 48  1  0  0  0  0 
M  END
> <cdk:Title>
dimetacrine

> <Conformer>
1

> <SuperDrugID>
SD000802

$$$$
