thiamphenicol glycinate
  CDK     0628171801

 43 43  0  0  0  0  0  0  0  0999 V2000
    0.2747   -1.6683   -2.0369 C   0  0  2  0  0  0  0  0  0  0  0  0
    0.0964   -2.6224   -0.8129 C   0  0  2  0  0  0  0  0  0  0  0  0
    0.7245   -0.3681   -1.6171 N   0  0  0  0  0  0  0  0  0  0  0  0
   -0.9727   -1.6002   -2.9717 C   0  0  2  0  0  0  0  0  0  0  0  0
    1.3100   -2.6973   -0.0671 O   0  0  0  0  0  0  0  0  0  0  0  0
   -0.3251   -4.0044   -1.1889 C   0  0  0  0  0  0  0  0  0  0  0  0
   -0.0125    0.6171   -1.0247 C   0  0  0  0  0  0  0  0  0  0  0  0
   -0.9443   -0.3926   -3.7414 O   0  0  0  0  0  0  0  0  0  0  0  0
   -1.6119   -4.4845   -0.8495 C   0  0  0  0  0  0  0  0  0  0  0  0
    0.5454   -4.8628   -1.9019 C   0  0  0  0  0  0  0  0  0  0  0  0
    0.6440    1.9125   -0.7453 C   0  0  2  0  0  0  0  0  0  0  0  0
   -1.2212    0.4375   -0.7416 O   0  0  0  0  0  0  0  0  0  0  0  0
   -1.9205    0.0900   -4.5584 C   0  0  0  0  0  0  0  0  0  0  0  0
   -2.0227   -5.7744   -1.2263 C   0  0  0  0  0  0  0  0  0  0  0  0
    0.1348   -6.1534   -2.2813 C   0  0  0  0  0  0  0  0  0  0  0  0
   -0.3980    3.1066    0.0283 Cl  0  0  0  0  0  0  0  0  0  0  0  0
    1.2239    2.6378   -2.2414 Cl  0  0  0  0  0  0  0  0  0  0  0  0
   -1.7241    1.4128   -5.1690 C   0  0  1  0  0  0  0  0  0  0  0  0
   -2.9758   -0.5540   -4.7703 O   0  0  0  0  0  0  0  0  0  0  0  0
   -1.1525   -6.6193   -1.9429 C   0  0  0  0  0  0  0  0  0  0  0  0
   -2.6943    2.3562   -4.6063 N   0  0  2  0  0  0  0  0  0  0  0  0
   -1.6600   -8.2582   -2.3913 S   0  0  1  0  0  0  0  0  0  0  0  0
   -1.3373   -8.5768   -4.1647 C   0  0  0  0  0  0  0  0  0  0  0  0
   -0.8465   -9.3290   -1.5150 O   0  0  0  0  0  0  0  0  0  0  0  0
   -3.2284   -8.4689   -2.1179 O   0  0  0  0  0  0  0  0  0  0  0  0
    1.0957   -2.0576   -2.6461 H   0  0  0  0  0  0  0  0  0  0  0  0
   -0.6398   -2.1758   -0.1404 H   0  0  0  0  0  0  0  0  0  0  0  0
    1.6572   -0.1639   -1.7870 H   0  0  0  0  0  0  0  0  0  0  0  0
   -1.8884   -1.6224   -2.3721 H   0  0  0  0  0  0  0  0  0  0  0  0
   -0.9867   -2.4559   -3.6526 H   0  0  0  0  0  0  0  0  0  0  0  0
    1.0891   -3.2327    0.7238 H   0  0  0  0  0  0  0  0  0  0  0  0
   -2.2658   -3.8966   -0.3285 H   0  0  0  0  0  0  0  0  0  0  0  0
    1.4899   -4.5543   -2.1506 H   0  0  0  0  0  0  0  0  0  0  0  0
    1.4985    1.7417   -0.0896 H   0  0  0  0  0  0  0  0  0  0  0  0
   -2.9605   -6.0894   -0.9736 H   0  0  0  0  0  0  0  0  0  0  0  0
    0.7828   -6.7491   -2.8042 H   0  0  0  0  0  0  0  0  0  0  0  0
   -0.7166    1.7847   -4.9572 H   0  0  0  0  0  0  0  0  0  0  0  0
   -1.8545    1.3475   -6.2516 H   0  0  0  0  0  0  0  0  0  0  0  0
   -2.4284    3.2845   -4.9411 H   0  0  0  0  0  0  0  0  0  0  0  0
   -2.5482    2.3540   -3.5938 H   0  0  0  0  0  0  0  0  0  0  0  0
   -1.8956   -7.8607   -4.7679 H   0  0  0  0  0  0  0  0  0  0  0  0
   -1.6585   -9.5886   -4.4119 H   0  0  0  0  0  0  0  0  0  0  0  0
   -0.2723   -8.4756   -4.3751 H   0  0  0  0  0  0  0  0  0  0  0  0
  2  1  1  0  0  0  0 
  1  3  1  0  0  0  0 
  1  4  1  0  0  0  0 
  2  5  1  0  0  0  0 
  2  6  1  0  0  0  0 
  3  7  1  0  0  0  0 
  4  8  1  0  0  0  0 
  6  9  2  0  0  0  0 
  6 10  1  0  0  0  0 
  7 11  1  0  0  0  0 
  7 12  2  0  0  0  0 
  8 13  1  0  0  0  0 
  9 14  1  0  0  0  0 
 10 15  2  0  0  0  0 
 11 16  1  0  0  0  0 
 11 17  1  0  0  0  0 
 13 18  1  0  0  0  0 
 13 19  2  0  0  0  0 
 14 20  2  0  0  0  0 
 15 20  1  0  0  0  0 
 18 21  1  0  0  0  0 
 20 22  1  0  0  0  0 
 22 23  1  0  0  0  0 
 22 24  2  0  0  0  0 
 22 25  2  0  0  0  0 
  1 26  1  0  0  0  0 
  2 27  1  0  0  0  0 
  3 28  1  0  0  0  0 
  4 29  1  0  0  0  0 
  4 30  1  0  0  0  0 
  5 31  1  0  0  0  0 
  9 32  1  0  0  0  0 
 10 33  1  0  0  0  0 
 11 34  1  0  0  0  0 
 14 35  1  0  0  0  0 
 15 36  1  0  0  0  0 
 18 37  1  0  0  0  0 
 18 38  1  0  0  0  0 
 21 39  1  0  0  0  0 
 21 40  1  0  0  0  0 
 23 41  1  0  0  0  0 
 23 42  1  0  0  0  0 
 23 43  1  0  0  0  0 
M  END
> <cdk:Title>
thiamphenicol glycinate

> <Conformer>
1

> <SuperDrugID>
SD002361

$$$$
