visnadine
  CDK     0628171801

 52 54  0  0  0  0  0  0  0  0999 V2000
    1.8844    2.1823    0.3226 O   0  0  0  0  0  0  0  0  0  0  0  0
    2.2382    3.5012    0.3228 C   0  0  0  0  0  0  0  0  0  0  0  0
    2.4553    1.1153   -0.4555 C   0  0  2  0  0  0  0  0  0  0  0  0
    1.5845    4.4169    1.2648 C   0  0  0  0  0  0  0  0  0  0  0  0
    3.1106    3.9519   -0.4573 O   0  0  0  0  0  0  0  0  0  0  0  0
    1.5919   -0.1044   -0.4829 C   0  0  0  0  0  0  0  0  0  0  0  0
    3.9018    0.8079    0.0517 C   0  0  1  0  0  0  0  0  0  0  0  0
    0.1759   -0.0192   -0.5003 C   0  0  0  0  0  0  0  0  0  0  0  0
    2.1971   -1.3910   -0.5171 C   0  0  0  0  0  0  0  0  0  0  0  0
    4.0437    0.7778    1.4935 O   0  0  0  0  0  0  0  0  0  0  0  0
    4.4634   -0.5026   -0.6087 C   0  0  2  0  0  0  0  0  0  0  0  0
   -0.6228   -1.1887   -0.6071 C   0  0  0  0  0  0  0  0  0  0  0  0
   -0.4586    1.1894   -0.3949 O   0  0  0  0  0  0  0  0  0  0  0  0
    3.5521   -1.6051   -0.3872 O   0  0  0  0  0  0  0  0  0  0  0  0
    1.4016   -2.5456   -0.6394 C   0  0  0  0  0  0  0  0  0  0  0  0
    3.1728    0.5665    2.5315 C   0  0  0  0  0  0  0  0  0  0  0  0
    5.8073   -0.9337    0.0571 C   0  0  0  0  0  0  0  0  0  0  0  0
    4.7067   -0.3338   -2.1458 C   0  0  0  0  0  0  0  0  0  0  0  0
    0.0027   -2.4478   -0.7013 C   0  0  0  0  0  0  0  0  0  0  0  0
   -2.0290   -1.0508   -0.6086 C   0  0  0  0  0  0  0  0  0  0  0  0
   -1.8122    1.3464   -0.3734 C   0  0  0  0  0  0  0  0  0  0  0  0
    3.6654    0.7107    3.9247 C   0  0  1  0  0  0  0  0  0  0  0  0
    1.9723    0.2584    2.3483 O   0  0  0  0  0  0  0  0  0  0  0  0
   -2.6316    0.2134   -0.4847 C   0  0  0  0  0  0  0  0  0  0  0  0
   -2.2961    2.4937   -0.2519 O   0  0  0  0  0  0  0  0  0  0  0  0
    3.0697    2.0062    4.5624 C   0  0  2  0  0  0  0  0  0  0  0  0
    3.3674   -0.5798    4.7386 C   0  0  0  0  0  0  0  0  0  0  0  0
    3.5596    2.3058    5.9993 C   0  0  0  0  0  0  0  0  0  0  0  0
    2.4991    1.4629   -1.4919 H   0  0  0  0  0  0  0  0  0  0  0  0
    2.3326    4.8127    1.9547 H   0  0  0  0  0  0  0  0  0  0  0  0
    0.8146    3.9046    1.8426 H   0  0  0  0  0  0  0  0  0  0  0  0
    1.1232    5.2413    0.7224 H   0  0  0  0  0  0  0  0  0  0  0  0
    4.5369    1.6418   -0.2600 H   0  0  0  0  0  0  0  0  0  0  0  0
    1.8402   -3.4689   -0.6779 H   0  0  0  0  0  0  0  0  0  0  0  0
    6.1910   -1.8496   -0.3989 H   0  0  0  0  0  0  0  0  0  0  0  0
    6.5612   -0.1501   -0.0500 H   0  0  0  0  0  0  0  0  0  0  0  0
    5.6688   -1.1347    1.1215 H   0  0  0  0  0  0  0  0  0  0  0  0
    5.0956   -1.2581   -2.5802 H   0  0  0  0  0  0  0  0  0  0  0  0
    5.4285    0.4653   -2.3353 H   0  0  0  0  0  0  0  0  0  0  0  0
    3.7854   -0.0920   -2.6761 H   0  0  0  0  0  0  0  0  0  0  0  0
   -0.5543   -3.3006   -0.8016 H   0  0  0  0  0  0  0  0  0  0  0  0
   -2.6299   -1.8739   -0.6942 H   0  0  0  0  0  0  0  0  0  0  0  0
    4.7530    0.8294    3.8864 H   0  0  0  0  0  0  0  0  0  0  0  0
   -3.6503    0.3040   -0.4762 H   0  0  0  0  0  0  0  0  0  0  0  0
    1.9777    1.9441    4.5786 H   0  0  0  0  0  0  0  0  0  0  0  0
    3.3427    2.8619    3.9358 H   0  0  0  0  0  0  0  0  0  0  0  0
    3.8769   -0.5527    5.7026 H   0  0  0  0  0  0  0  0  0  0  0  0
    2.2937   -0.6820    4.9150 H   0  0  0  0  0  0  0  0  0  0  0  0
    3.7190   -1.4628    4.1993 H   0  0  0  0  0  0  0  0  0  0  0  0
    4.6504    2.2762    6.0485 H   0  0  0  0  0  0  0  0  0  0  0  0
    3.1490    1.5782    6.7024 H   0  0  0  0  0  0  0  0  0  0  0  0
    3.2235    3.2997    6.3030 H   0  0  0  0  0  0  0  0  0  0  0  0
  1  2  1  0  0  0  0 
  2  4  1  0  0  0  0 
  2  5  2  0  0  0  0 
  3  1  1  0  0  0  0 
  3  6  1  0  0  0  0 
  7  3  1  0  0  0  0 
  6  8  2  0  0  0  0 
  6  9  1  0  0  0  0 
  7 10  1  0  0  0  0 
  7 11  1  0  0  0  0 
  8 12  1  0  0  0  0 
  8 13  1  0  0  0  0 
  9 14  1  0  0  0  0 
  9 15  2  0  0  0  0 
 10 16  1  0  0  0  0 
 11 14  1  0  0  0  0 
 11 17  1  0  0  0  0 
 11 18  1  0  0  0  0 
 12 19  2  0  0  0  0 
 12 20  1  0  0  0  0 
 13 21  1  0  0  0  0 
 15 19  1  0  0  0  0 
 22 16  1  0  0  0  0 
 16 23  2  0  0  0  0 
 20 24  2  0  0  0  0 
 21 24  1  0  0  0  0 
 21 25  2  0  0  0  0 
 22 26  1  0  0  0  0 
 22 27  1  0  0  0  0 
 26 28  1  0  0  0  0 
  3 29  1  0  0  0  0 
  4 30  1  0  0  0  0 
  4 31  1  0  0  0  0 
  4 32  1  0  0  0  0 
  7 33  1  0  0  0  0 
 15 34  1  0  0  0  0 
 17 35  1  0  0  0  0 
 17 36  1  0  0  0  0 
 17 37  1  0  0  0  0 
 18 38  1  0  0  0  0 
 18 39  1  0  0  0  0 
 18 40  1  0  0  0  0 
 19 41  1  0  0  0  0 
 20 42  1  0  0  0  0 
 22 43  1  0  0  0  0 
 24 44  1  0  0  0  0 
 26 45  1  0  0  0  0 
 26 46  1  0  0  0  0 
 27 47  1  0  0  0  0 
 27 48  1  0  0  0  0 
 27 49  1  0  0  0  0 
 28 50  1  0  0  0  0 
 28 51  1  0  0  0  0 
 28 52  1  0  0  0  0 
M  END
> <cdk:Title>
visnadine

> <Conformer>
1

> <SuperDrugID>
SD003126

$$$$
