butacaine
  CDK     0628171801

 52 52  0  0  0  0  0  0  0  0999 V2000
    0.2608   -0.2692   -0.1778 C   0  0  0  0  0  0  0  0  0  0  0  0
   -0.6636   -1.2706   -0.0367 O   0  0  0  0  0  0  0  0  0  0  0  0
   -0.1405    0.8912   -0.4382 O   0  0  0  0  0  0  0  0  0  0  0  0
    1.6469   -0.5375   -0.0038 C   0  0  0  0  0  0  0  0  0  0  0  0
   -2.0872   -1.1103   -0.0661 C   0  0  2  0  0  0  0  0  0  0  0  0
    2.5981    0.5132    0.0489 C   0  0  0  0  0  0  0  0  0  0  0  0
    2.1148   -1.8645    0.1649 C   0  0  0  0  0  0  0  0  0  0  0  0
   -2.8039   -2.4703    0.1395 C   0  0  2  0  0  0  0  0  0  0  0  0
    3.9543    0.2509    0.3155 C   0  0  0  0  0  0  0  0  0  0  0  0
    3.4723   -2.1295    0.4274 C   0  0  0  0  0  0  0  0  0  0  0  0
   -4.2890   -2.2968    0.5733 C   0  0  2  0  0  0  0  0  0  0  0  0
    4.3940   -1.0695    0.5264 C   0  0  0  0  0  0  0  0  0  0  0  0
   -5.2036   -3.4967    0.4849 N   0  0  1  0  0  0  0  0  0  0  0  0
    5.6888   -1.3060    0.8206 N   0  0  0  0  0  0  0  0  0  0  0  0
   -4.6924   -4.6897    1.2566 C   0  0  1  0  0  0  0  0  0  0  0  0
   -6.6323   -3.1487    0.8360 C   0  0  2  0  0  0  0  0  0  0  0  0
   -5.4334   -6.0465    1.0600 C   0  0  2  0  0  0  0  0  0  0  0  0
   -7.3248   -2.0824   -0.0624 C   0  0  2  0  0  0  0  0  0  0  0  0
   -5.5040   -6.5037   -0.4200 C   0  0  1  0  0  0  0  0  0  0  0  0
   -8.8332   -1.8983    0.2600 C   0  0  2  0  0  0  0  0  0  0  0  0
   -6.2761   -7.8317   -0.5952 C   0  0  0  0  0  0  0  0  0  0  0  0
   -9.5014   -0.7917   -0.5889 C   0  0  0  0  0  0  0  0  0  0  0  0
   -2.3960   -0.6794   -1.0221 H   0  0  0  0  0  0  0  0  0  0  0  0
   -2.3604   -0.4184    0.7360 H   0  0  0  0  0  0  0  0  0  0  0  0
    2.3131    1.4860   -0.0913 H   0  0  0  0  0  0  0  0  0  0  0  0
    1.4720   -2.6581    0.1061 H   0  0  0  0  0  0  0  0  0  0  0  0
   -2.2664   -3.0247    0.9106 H   0  0  0  0  0  0  0  0  0  0  0  0
   -2.7562   -3.0425   -0.7912 H   0  0  0  0  0  0  0  0  0  0  0  0
    4.6170    1.0294    0.3588 H   0  0  0  0  0  0  0  0  0  0  0  0
    3.7806   -3.0973    0.5481 H   0  0  0  0  0  0  0  0  0  0  0  0
   -4.6780   -1.5241   -0.0878 H   0  0  0  0  0  0  0  0  0  0  0  0
   -4.3039   -1.8977    1.5933 H   0  0  0  0  0  0  0  0  0  0  0  0
    6.0011   -2.2123    0.9724 H   0  0  0  0  0  0  0  0  0  0  0  0
    6.3120   -0.5646    0.8912 H   0  0  0  0  0  0  0  0  0  0  0  0
   -3.6596   -4.8897    0.9664 H   0  0  0  0  0  0  0  0  0  0  0  0
   -4.6848   -4.4546    2.3254 H   0  0  0  0  0  0  0  0  0  0  0  0
   -6.6833   -2.8206    1.8786 H   0  0  0  0  0  0  0  0  0  0  0  0
   -7.2519   -4.0403    0.7457 H   0  0  0  0  0  0  0  0  0  0  0  0
   -6.4398   -5.9966    1.4793 H   0  0  0  0  0  0  0  0  0  0  0  0
   -4.8967   -6.8098    1.6307 H   0  0  0  0  0  0  0  0  0  0  0  0
   -7.2035   -2.3740   -1.1096 H   0  0  0  0  0  0  0  0  0  0  0  0
   -6.8473   -1.1127    0.0845 H   0  0  0  0  0  0  0  0  0  0  0  0
   -5.9944   -5.7335   -1.0199 H   0  0  0  0  0  0  0  0  0  0  0  0
   -4.4881   -6.6313   -0.8034 H   0  0  0  0  0  0  0  0  0  0  0  0
   -8.9423   -1.6350    1.3160 H   0  0  0  0  0  0  0  0  0  0  0  0
   -9.3644   -2.8378    0.0897 H   0  0  0  0  0  0  0  0  0  0  0  0
   -6.2814   -8.1175   -1.6488 H   0  0  0  0  0  0  0  0  0  0  0  0
   -7.3091   -7.7173   -0.2597 H   0  0  0  0  0  0  0  0  0  0  0  0
   -5.8027   -8.6294   -0.0185 H   0  0  0  0  0  0  0  0  0  0  0  0
  -10.5455   -0.6813   -0.2897 H   0  0  0  0  0  0  0  0  0  0  0  0
   -9.4691   -1.0443   -1.6514 H   0  0  0  0  0  0  0  0  0  0  0  0
   -8.9936    0.1628   -0.4347 H   0  0  0  0  0  0  0  0  0  0  0  0
  1  2  1  0  0  0  0 
  1  3  2  0  0  0  0 
  1  4  1  0  0  0  0 
  2  5  1  0  0  0  0 
  4  6  2  0  0  0  0 
  4  7  1  0  0  0  0 
  5  8  1  0  0  0  0 
  6  9  1  0  0  0  0 
  7 10  2  0  0  0  0 
  8 11  1  0  0  0  0 
  9 12  2  0  0  0  0 
 10 12  1  0  0  0  0 
 11 13  1  0  0  0  0 
 12 14  1  0  0  0  0 
 13 15  1  0  0  0  0 
 13 16  1  0  0  0  0 
 15 17  1  0  0  0  0 
 16 18  1  0  0  0  0 
 17 19  1  0  0  0  0 
 18 20  1  0  0  0  0 
 19 21  1  0  0  0  0 
 20 22  1  0  0  0  0 
  5 23  1  0  0  0  0 
  5 24  1  0  0  0  0 
  6 25  1  0  0  0  0 
  7 26  1  0  0  0  0 
  8 27  1  0  0  0  0 
  8 28  1  0  0  0  0 
  9 29  1  0  0  0  0 
 10 30  1  0  0  0  0 
 11 31  1  0  0  0  0 
 11 32  1  0  0  0  0 
 14 33  1  0  0  0  0 
 14 34  1  0  0  0  0 
 15 35  1  0  0  0  0 
 15 36  1  0  0  0  0 
 16 37  1  0  0  0  0 
 16 38  1  0  0  0  0 
 17 39  1  0  0  0  0 
 17 40  1  0  0  0  0 
 18 41  1  0  0  0  0 
 18 42  1  0  0  0  0 
 19 43  1  0  0  0  0 
 19 44  1  0  0  0  0 
 20 45  1  0  0  0  0 
 20 46  1  0  0  0  0 
 21 47  1  0  0  0  0 
 21 48  1  0  0  0  0 
 21 49  1  0  0  0  0 
 22 50  1  0  0  0  0 
 22 51  1  0  0  0  0 
 22 52  1  0  0  0  0 
M  END
> <cdk:Title>
butacaine

> <Conformer>
1

> <SuperDrugID>
SD002649

$$$$
