thioridazine
  CDK     0628171801

 51 54  0  0  0  0  0  0  0  0999 V2000
    1.0304   -1.1695   -5.0275 C   0  0  0  0  0  0  0  0  0  0  0  0
    0.3145   -0.2197   -5.7718 C   0  0  0  0  0  0  0  0  0  0  0  0
   -0.4226    0.7706   -5.1072 C   0  0  0  0  0  0  0  0  0  0  0  0
   -0.4558    0.7922   -3.6996 C   0  0  0  0  0  0  0  0  0  0  0  0
    0.1934   -0.1989   -2.9158 C   0  0  0  0  0  0  0  0  0  0  0  0
    0.9778   -1.1502   -3.6212 C   0  0  0  0  0  0  0  0  0  0  0  0
   -1.2738    2.1264   -2.9099 S   0  0  0  0  0  0  0  0  0  0  0  0
   -0.5018    2.1640   -1.3334 C   0  0  0  0  0  0  0  0  0  0  0  0
    0.0773    0.9815   -0.7956 C   0  0  0  0  0  0  0  0  0  0  0  0
    0.0778   -0.2200   -1.5174 N   0  0  0  0  0  0  0  0  0  0  0  0
   -0.4868    3.3847   -0.6348 C   0  0  0  0  0  0  0  0  0  0  0  0
    0.0700    3.4469    0.6499 C   0  0  0  0  0  0  0  0  0  0  0  0
    0.6218    2.2926    1.2311 C   0  0  0  0  0  0  0  0  0  0  0  0
    0.6434    1.0851    0.5045 C   0  0  0  0  0  0  0  0  0  0  0  0
   -0.0504   -1.5006   -0.8161 C   0  0  2  0  0  0  0  0  0  0  0  0
    1.2500    2.3549    2.8721 S   0  0  0  0  0  0  0  0  0  0  0  0
   -0.1043    1.6562    3.8731 C   0  0  0  0  0  0  0  0  0  0  0  0
   -1.3470   -1.7229    0.0265 C   0  0  1  0  0  0  0  0  0  0  0  0
   -2.7331   -1.4741   -0.6703 C   0  0  1  0  0  0  0  0  0  0  0  0
   -3.0554   -0.0164   -0.9227 N   0  0  1  0  0  0  0  0  0  0  0  0
   -4.2546    0.2205   -1.7985 C   0  0  2  0  0  0  0  0  0  0  0  0
   -4.2610   -0.6160   -3.0954 C   0  0  2  0  0  0  0  0  0  0  0  0
   -4.1476   -2.1145   -2.7475 C   0  0  1  0  0  0  0  0  0  0  0  0
   -2.8526   -2.3721   -1.9475 C   0  0  1  0  0  0  0  0  0  0  0  0
   -3.1997    0.8109    0.3237 C   0  0  0  0  0  0  0  0  0  0  0  0
   -3.4936   -1.8530    0.0211 H   0  0  0  0  0  0  0  0  0  0  0  0
    1.5931   -1.8736   -5.5097 H   0  0  0  0  0  0  0  0  0  0  0  0
    0.3423   -0.2372   -6.7924 H   0  0  0  0  0  0  0  0  0  0  0  0
   -0.9212    1.4786   -5.6539 H   0  0  0  0  0  0  0  0  0  0  0  0
    1.5311   -1.8432   -3.1157 H   0  0  0  0  0  0  0  0  0  0  0  0
   -0.8877    4.2286   -1.0524 H   0  0  0  0  0  0  0  0  0  0  0  0
    0.0651    4.3339    1.1569 H   0  0  0  0  0  0  0  0  0  0  0  0
    1.0802    0.2763    0.9463 H   0  0  0  0  0  0  0  0  0  0  0  0
    0.8138   -1.6433   -0.1658 H   0  0  0  0  0  0  0  0  0  0  0  0
    0.0013   -2.3478   -1.4987 H   0  0  0  0  0  0  0  0  0  0  0  0
    0.1191    1.7928    4.9308 H   0  0  0  0  0  0  0  0  0  0  0  0
   -0.2130    0.5921    3.6624 H   0  0  0  0  0  0  0  0  0  0  0  0
   -1.0365    2.1688    3.6345 H   0  0  0  0  0  0  0  0  0  0  0  0
   -1.3326   -2.7678    0.3577 H   0  0  0  0  0  0  0  0  0  0  0  0
   -1.2713   -1.1466    0.9470 H   0  0  0  0  0  0  0  0  0  0  0  0
   -4.2856    1.2732   -2.0948 H   0  0  0  0  0  0  0  0  0  0  0  0
   -5.1783    0.0009   -1.2514 H   0  0  0  0  0  0  0  0  0  0  0  0
   -3.4256   -0.3127   -3.7326 H   0  0  0  0  0  0  0  0  0  0  0  0
   -5.1886   -0.4354   -3.6441 H   0  0  0  0  0  0  0  0  0  0  0  0
   -5.0146   -2.4290   -2.1594 H   0  0  0  0  0  0  0  0  0  0  0  0
   -4.1348   -2.7024   -3.6684 H   0  0  0  0  0  0  0  0  0  0  0  0
   -2.0132   -2.1980   -2.6221 H   0  0  0  0  0  0  0  0  0  0  0  0
   -2.8298   -3.4266   -1.6570 H   0  0  0  0  0  0  0  0  0  0  0  0
   -4.0162    0.4381    0.9461 H   0  0  0  0  0  0  0  0  0  0  0  0
   -3.4001    1.8571    0.0849 H   0  0  0  0  0  0  0  0  0  0  0  0
   -2.2928    0.8156    0.9225 H   0  0  0  0  0  0  0  0  0  0  0  0
  1  2  2  0  0  0  0 
  2  3  1  0  0  0  0 
  3  4  2  0  0  0  0 
  4  5  1  0  0  0  0 
  5  6  2  0  0  0  0 
  1  6  1  0  0  0  0 
  7  8  1  0  0  0  0 
  9 10  1  0  0  0  0 
  4  7  1  0  0  0  0 
  5 10  1  0  0  0  0 
 11 12  1  0  0  0  0 
 12 13  2  0  0  0  0 
 13 14  1  0  0  0  0 
  9 14  2  0  0  0  0 
  8 11  2  0  0  0  0 
  9  8  1  0  0  0  0 
 10 15  1  0  0  0  0 
 13 16  1  0  0  0  0 
 16 17  1  0  0  0  0 
 15 18  1  0  0  0  0 
 19 18  1  0  0  0  0 
 20 21  1  0  0  0  0 
 21 22  1  0  0  0  0 
 22 23  1  0  0  0  0 
 23 24  1  0  0  0  0 
 19 20  1  0  0  0  0 
 19 24  1  0  0  0  0 
 20 25  1  0  0  0  0 
 19 26  1  0  0  0  0 
  1 27  1  0  0  0  0 
  2 28  1  0  0  0  0 
  3 29  1  0  0  0  0 
  6 30  1  0  0  0  0 
 11 31  1  0  0  0  0 
 12 32  1  0  0  0  0 
 14 33  1  0  0  0  0 
 15 34  1  0  0  0  0 
 15 35  1  0  0  0  0 
 17 36  1  0  0  0  0 
 17 37  1  0  0  0  0 
 17 38  1  0  0  0  0 
 18 39  1  0  0  0  0 
 18 40  1  0  0  0  0 
 21 41  1  0  0  0  0 
 21 42  1  0  0  0  0 
 22 43  1  0  0  0  0 
 22 44  1  0  0  0  0 
 23 45  1  0  0  0  0 
 23 46  1  0  0  0  0 
 24 47  1  0  0  0  0 
 24 48  1  0  0  0  0 
 25 49  1  0  0  0  0 
 25 50  1  0  0  0  0 
 25 51  1  0  0  0  0 
M  END
> <cdk:Title>
thioridazine

> <Conformer>
1

> <SuperDrugID>
SD002371

$$$$
