picloxydine
  CDK     0628171801

 56 58  0  0  0  0  0  0  0  0999 V2000
   -0.1968   -2.6645   -0.0308 C   0  0  0  0  0  0  0  0  0  0  0  0
    0.0501   -1.4281   -0.3021 N   0  0  0  0  0  0  0  0  0  0  0  0
   -1.0458   -3.0555    0.9106 N   0  0  0  0  0  0  0  0  0  0  0  0
    0.4639   -3.6062   -0.7351 N   0  0  0  0  0  0  0  0  0  0  0  0
   -0.3581   -0.2805    0.1390 C   0  0  0  0  0  0  0  0  0  0  0  0
    1.8999   -3.5309   -0.9387 C   0  0  1  0  0  0  0  0  0  0  0  0
   -0.2293   -4.7364   -1.3214 C   0  0  1  0  0  0  0  0  0  0  0  0
    0.3450    0.7019   -0.3012 N   0  0  0  0  0  0  0  0  0  0  0  0
   -1.3796   -0.1337    0.9653 N   0  0  0  0  0  0  0  0  0  0  0  0
    2.2390   -3.6706   -2.4437 C   0  0  1  0  0  0  0  0  0  0  0  0
    0.1788   -4.9458   -2.8058 C   0  0  2  0  0  0  0  0  0  0  0  0
    0.2892    2.0261   -0.1794 C   0  0  0  0  0  0  0  0  0  0  0  0
    1.6255   -4.8801   -2.9594 N   0  0  0  0  0  0  0  0  0  0  0  0
    1.5130    2.7225   -0.2935 C   0  0  0  0  0  0  0  0  0  0  0  0
   -0.8999    2.7717    0.0074 C   0  0  0  0  0  0  0  0  0  0  0  0
    2.3502   -5.8860   -3.5179 C   0  0  0  0  0  0  0  0  0  0  0  0
    1.5578    4.1250   -0.1865 C   0  0  0  0  0  0  0  0  0  0  0  0
   -0.8581    4.1747    0.1156 C   0  0  0  0  0  0  0  0  0  0  0  0
    1.7893   -6.6381   -4.4051 N   0  0  0  0  0  0  0  0  0  0  0  0
    3.6039   -6.1066   -3.1304 N   0  0  0  0  0  0  0  0  0  0  0  0
    0.3718    4.8544    0.0240 C   0  0  0  0  0  0  0  0  0  0  0  0
    2.1816   -7.6567   -5.1046 C   0  0  0  0  0  0  0  0  0  0  0  0
    0.4234    6.5407    0.1626 Cl  0  0  0  0  0  0  0  0  0  0  0  0
    1.2456   -8.5010   -5.3625 N   0  0  0  0  0  0  0  0  0  0  0  0
    3.4372   -7.7921   -5.5039 N   0  0  0  0  0  0  0  0  0  0  0  0
    1.1638   -9.6221   -6.0773 C   0  0  0  0  0  0  0  0  0  0  0  0
    0.1773  -10.5565   -5.6900 C   0  0  0  0  0  0  0  0  0  0  0  0
    1.9556   -9.9104   -7.2149 C   0  0  0  0  0  0  0  0  0  0  0  0
   -0.0124  -11.7511   -6.4108 C   0  0  0  0  0  0  0  0  0  0  0  0
    1.7743  -11.1062   -7.9325 C   0  0  0  0  0  0  0  0  0  0  0  0
    0.7888  -12.0286   -7.5350 C   0  0  0  0  0  0  0  0  0  0  0  0
    0.5639  -13.4591   -8.4129 Cl  0  0  0  0  0  0  0  0  0  0  0  0
   -1.2076   -4.0016    1.0521 H   0  0  0  0  0  0  0  0  0  0  0  0
   -1.4986   -2.4128    1.4727 H   0  0  0  0  0  0  0  0  0  0  0  0
    2.3358   -2.5989   -0.5663 H   0  0  0  0  0  0  0  0  0  0  0  0
    2.3762   -4.3441   -0.3857 H   0  0  0  0  0  0  0  0  0  0  0  0
    0.0218   -5.6346   -0.7490 H   0  0  0  0  0  0  0  0  0  0  0  0
   -1.3178   -4.6221   -1.2878 H   0  0  0  0  0  0  0  0  0  0  0  0
   -1.9285   -0.8921    1.2027 H   0  0  0  0  0  0  0  0  0  0  0  0
   -1.5838    0.7317    1.3479 H   0  0  0  0  0  0  0  0  0  0  0  0
    1.8407   -2.8047   -2.9802 H   0  0  0  0  0  0  0  0  0  0  0  0
    3.3245   -3.6383   -2.5738 H   0  0  0  0  0  0  0  0  0  0  0  0
   -0.2787   -4.1691   -3.4244 H   0  0  0  0  0  0  0  0  0  0  0  0
   -0.2499   -5.9009   -3.1269 H   0  0  0  0  0  0  0  0  0  0  0  0
    2.3876    2.2116   -0.4467 H   0  0  0  0  0  0  0  0  0  0  0  0
   -1.8083    2.3075    0.0500 H   0  0  0  0  0  0  0  0  0  0  0  0
    2.4570    4.6072   -0.2606 H   0  0  0  0  0  0  0  0  0  0  0  0
   -1.7281    4.6954    0.2577 H   0  0  0  0  0  0  0  0  0  0  0  0
    3.9986   -5.5749   -2.4226 H   0  0  0  0  0  0  0  0  0  0  0  0
    4.1357   -6.8000   -3.5487 H   0  0  0  0  0  0  0  0  0  0  0  0
    4.0790   -7.0845   -5.3367 H   0  0  0  0  0  0  0  0  0  0  0  0
    3.7296   -8.5979   -5.9549 H   0  0  0  0  0  0  0  0  0  0  0  0
   -0.4160  -10.3769   -4.8748 H   0  0  0  0  0  0  0  0  0  0  0  0
    2.6518   -9.2448   -7.5505 H   0  0  0  0  0  0  0  0  0  0  0  0
   -0.7351  -12.4133   -6.1150 H   0  0  0  0  0  0  0  0  0  0  0  0
    2.3588  -11.2948   -8.7499 H   0  0  0  0  0  0  0  0  0  0  0  0
  1  2  2  0  0  0  0 
  1  3  1  0  0  0  0 
  1  4  1  0  0  0  0 
  2  5  1  0  0  0  0 
  4  6  1  0  0  0  0 
  4  7  1  0  0  0  0 
  5  8  2  0  0  0  0 
  5  9  1  0  0  0  0 
  6 10  1  0  0  0  0 
  7 11  1  0  0  0  0 
  8 12  1  0  0  0  0 
 10 13  1  0  0  0  0 
 11 13  1  0  0  0  0 
 12 14  2  0  0  0  0 
 12 15  1  0  0  0  0 
 13 16  1  0  0  0  0 
 14 17  1  0  0  0  0 
 15 18  2  0  0  0  0 
 16 19  2  0  0  0  0 
 16 20  1  0  0  0  0 
 17 21  2  0  0  0  0 
 18 21  1  0  0  0  0 
 19 22  1  0  0  0  0 
 21 23  1  0  0  0  0 
 22 24  2  0  0  0  0 
 22 25  1  0  0  0  0 
 24 26  1  0  0  0  0 
 26 27  2  0  0  0  0 
 26 28  1  0  0  0  0 
 27 29  1  0  0  0  0 
 28 30  2  0  0  0  0 
 29 31  2  0  0  0  0 
 30 31  1  0  0  0  0 
 31 32  1  0  0  0  0 
 33  3  1  0  0  0  0 
 34  3  1  0  0  0  0 
 35  6  1  0  0  0  0 
 36  6  1  0  0  0  0 
 37  7  1  0  0  0  0 
 38  7  1  0  0  0  0 
 39  9  1  0  0  0  0 
 40  9  1  0  0  0  0 
 41 10  1  0  0  0  0 
 42 10  1  0  0  0  0 
 43 11  1  0  0  0  0 
 44 11  1  0  0  0  0 
 45 14  1  0  0  0  0 
 46 15  1  0  0  0  0 
 47 17  1  0  0  0  0 
 48 18  1  0  0  0  0 
 49 20  1  0  0  0  0 
 50 20  1  0  0  0  0 
 51 25  1  0  0  0  0 
 52 25  1  0  0  0  0 
 53 27  1  0  0  0  0 
 54 28  1  0  0  0  0 
 55 29  1  0  0  0  0 
 56 30  1  0  0  0  0 
M  END
> <cdk:Title>
picloxydine

> <Conformer>
1

> <SuperDrugID>
SD002989

$$$$
