phosphorylcholine
  CDK     0628171801

 25 24  0  0  0  0  0  0  0  0999 V2000
    4.0018   -1.0543   -3.3676 C   0  0  0  0  0  0  0  0  0  0  0  0
    4.1382   -0.5311   -1.9572 N   0  0  1  0  0  0  0  0  0  0  0  0
    5.4510   -1.0387   -1.3937 C   0  0  0  0  0  0  0  0  0  0  0  0
    4.1895    0.9783   -1.9778 C   0  0  0  0  0  0  0  0  0  0  0  0
    3.0075   -1.0334   -1.0687 C   0  0  2  0  0  0  0  0  0  0  0  0
    1.5444   -0.6446   -1.4336 C   0  0  1  0  0  0  0  0  0  0  0  0
    0.6591   -1.2369   -0.4622 O   0  0  0  0  0  0  0  0  0  0  0  0
   -0.8968   -0.9531   -0.6872 P   0  0  1  0  0  0  0  0  0  0  0  0
   -1.3381   -1.4792   -2.1145 O   0  0  0  0  0  0  0  0  0  0  0  0
   -1.6929   -1.7913    0.3970 O   0  0  0  0  0  0  0  0  0  0  0  0
   -1.2124    0.4718   -0.5425 O   0  0  0  0  0  0  0  0  0  0  0  0
    3.1232   -0.6430   -3.8700 H   0  0  0  0  0  0  0  0  0  0  0  0
    3.9114   -2.1447   -3.3776 H   0  0  0  0  0  0  0  0  0  0  0  0
    4.8686   -0.7892   -3.9799 H   0  0  0  0  0  0  0  0  0  0  0  0
    6.3043   -0.7068   -1.9924 H   0  0  0  0  0  0  0  0  0  0  0  0
    5.6153   -0.6821   -0.3729 H   0  0  0  0  0  0  0  0  0  0  0  0
    5.4813   -2.1317   -1.3675 H   0  0  0  0  0  0  0  0  0  0  0  0
    3.3142    1.4072   -2.4713 H   0  0  0  0  0  0  0  0  0  0  0  0
    4.2331    1.3858   -0.9634 H   0  0  0  0  0  0  0  0  0  0  0  0
    5.0676    1.3433   -2.5185 H   0  0  0  0  0  0  0  0  0  0  0  0
    3.1753   -0.6894   -0.0413 H   0  0  0  0  0  0  0  0  0  0  0  0
    3.0383   -2.1287   -1.0307 H   0  0  0  0  0  0  0  0  0  0  0  0
    1.4403    0.4436   -1.4212 H   0  0  0  0  0  0  0  0  0  0  0  0
    1.3100   -1.0209   -2.4330 H   0  0  0  0  0  0  0  0  0  0  0  0
   -1.1032   -2.4306   -2.1112 H   0  0  0  0  0  0  0  0  0  0  0  0
  1  2  1  0  0  0  0 
  2  3  1  0  0  0  0 
  2  4  1  0  0  0  0 
  2  5  1  0  0  0  0 
  5  6  1  0  0  0  0 
  6  7  1  0  0  0  0 
  7  8  1  0  0  0  0 
  8  9  1  0  0  0  0 
  8 10  1  0  0  0  0 
  8 11  2  0  0  0  0 
  1 12  1  0  0  0  0 
  1 13  1  0  0  0  0 
  1 14  1  0  0  0  0 
  3 15  1  0  0  0  0 
  3 16  1  0  0  0  0 
  3 17  1  0  0  0  0 
  4 18  1  0  0  0  0 
  4 19  1  0  0  0  0 
  4 20  1  0  0  0  0 
  5 21  1  0  0  0  0 
  5 22  1  0  0  0  0 
  6 23  1  0  0  0  0 
  6 24  1  0  0  0  0 
  9 25  1  0  0  0  0 
M  CHG  1   2   1
M  CHG  1  10  -1
M  END
> <cdk:Title>
phosphorylcholine

> <Conformer>
1

> <SuperDrugID>
SD001934

$$$$
