guanoxan
  CDK     0628171801

 28 29  0  0  0  0  0  0  0  0999 V2000
    1.4892    0.9063   -2.1283 N   0  0  0  0  0  0  0  0  0  0  0  0
    0.6104    0.9958   -1.1457 C   0  0  0  0  0  0  0  0  0  0  0  0
    0.2554    2.1594   -0.7591 N   0  0  0  0  0  0  0  0  0  0  0  0
    0.0666   -0.0550   -0.5355 N   0  0  0  0  0  0  0  0  0  0  0  0
    0.3533   -1.4254   -0.8281 C   0  0  1  0  0  0  0  0  0  0  0  0
   -0.5150   -2.3770    0.0354 C   0  0  2  0  0  0  0  0  0  0  0  0
   -0.2804   -3.8764   -0.3131 C   0  0  1  0  0  0  0  0  0  0  0  0
   -1.1327   -4.7307    0.4836 O   0  0  0  0  0  0  0  0  0  0  0  0
   -2.4361   -4.3066    0.6354 C   0  0  0  0  0  0  0  0  0  0  0  0
   -3.4006   -5.2140    1.1181 C   0  0  0  0  0  0  0  0  0  0  0  0
   -4.7304   -4.7983    1.3193 C   0  0  0  0  0  0  0  0  0  0  0  0
   -5.1020   -3.4703    1.0393 C   0  0  0  0  0  0  0  0  0  0  0  0
   -4.1430   -2.5557    0.5670 C   0  0  0  0  0  0  0  0  0  0  0  0
   -2.8132   -2.9664    0.3586 C   0  0  0  0  0  0  0  0  0  0  0  0
   -1.9146   -2.0577   -0.1550 O   0  0  0  0  0  0  0  0  0  0  0  0
    1.8400    1.7125   -2.5432 H   0  0  0  0  0  0  0  0  0  0  0  0
    1.7901    0.0366   -2.4393 H   0  0  0  0  0  0  0  0  0  0  0  0
    0.6131    2.9237   -1.1627 H   0  0  0  0  0  0  0  0  0  0  0  0
   -0.5799    0.1234    0.1671 H   0  0  0  0  0  0  0  0  0  0  0  0
    0.1538   -1.6201   -1.8860 H   0  0  0  0  0  0  0  0  0  0  0  0
    1.4115   -1.6191   -0.6277 H   0  0  0  0  0  0  0  0  0  0  0  0
   -0.2557   -2.2206    1.0887 H   0  0  0  0  0  0  0  0  0  0  0  0
   -0.4880   -4.0495   -1.3724 H   0  0  0  0  0  0  0  0  0  0  0  0
    0.7574   -4.1506   -0.1169 H   0  0  0  0  0  0  0  0  0  0  0  0
   -3.1355   -6.1784    1.3297 H   0  0  0  0  0  0  0  0  0  0  0  0
   -5.4250   -5.4617    1.6696 H   0  0  0  0  0  0  0  0  0  0  0  0
   -6.0688   -3.1674    1.1772 H   0  0  0  0  0  0  0  0  0  0  0  0
   -4.4137   -1.5893    0.3731 H   0  0  0  0  0  0  0  0  0  0  0  0
  1  2  1  0  0  0  0 
  2  3  2  0  0  0  0 
  2  4  1  0  0  0  0 
  4  5  1  0  0  0  0 
  6  5  1  0  0  0  0 
  6  7  1  0  0  0  0 
  7  8  1  0  0  0  0 
  8  9  1  0  0  0  0 
  9 10  2  0  0  0  0 
 10 11  1  0  0  0  0 
 11 12  2  0  0  0  0 
 12 13  1  0  0  0  0 
 13 14  2  0  0  0  0 
  9 14  1  0  0  0  0 
 14 15  1  0  0  0  0 
  6 15  1  0  0  0  0 
 16  1  1  0  0  0  0 
 17  1  1  0  0  0  0 
 18  3  1  0  0  0  0 
 19  4  1  0  0  0  0 
 20  5  1  0  0  0  0 
 21  5  1  0  0  0  0 
 22  6  1  0  0  0  0 
 23  7  1  0  0  0  0 
 24  7  1  0  0  0  0 
 25 10  1  0  0  0  0 
 26 11  1  0  0  0  0 
 27 12  1  0  0  0  0 
 28 13  1  0  0  0  0 
M  END
> <cdk:Title>
guanoxan

> <Conformer>
1

> <SuperDrugID>
SD001194

$$$$
