dienestrol
  CDK     0628171802

 38 39  0  0  0  0  0  0  0  0999 V2000
   -3.4655    1.1300    0.2930 C   0  0  0  0  0  0  0  0  0  0  0  0
   -3.5836    2.4778    0.5891 C   0  0  0  0  0  0  0  0  0  0  0  0
   -4.5560    0.4098   -0.0665 C   0  0  0  0  0  0  0  0  0  0  0  0
   -2.1870    0.5601    0.3710 C   0  0  0  0  0  0  0  0  0  0  0  0
   -4.3985    2.8830    1.5944 C   0  0  0  0  0  0  0  0  0  0  0  0
   -2.8087    3.3785   -0.1533 C   0  0  0  0  0  0  0  0  0  0  0  0
   -1.4650    0.5640    1.5895 C   0  0  0  0  0  0  0  0  0  0  0  0
   -1.5756   -0.0013   -0.7770 C   0  0  0  0  0  0  0  0  0  0  0  0
   -4.6960    4.2497    1.9898 C   0  0  0  0  0  0  0  0  0  0  0  0
   -3.0038    3.5239   -1.5468 C   0  0  0  0  0  0  0  0  0  0  0  0
   -1.7902    4.1412    0.4704 C   0  0  0  0  0  0  0  0  0  0  0  0
   -0.1803   -0.0045    1.6622 C   0  0  0  0  0  0  0  0  0  0  0  0
   -0.2905   -0.5689   -0.7026 C   0  0  0  0  0  0  0  0  0  0  0  0
   -2.2286    4.4319   -2.2905 C   0  0  0  0  0  0  0  0  0  0  0  0
   -1.0011    5.0333   -0.2781 C   0  0  0  0  0  0  0  0  0  0  0  0
    0.4058   -0.5823    0.5206 C   0  0  0  0  0  0  0  0  0  0  0  0
   -1.2252    5.1888   -1.6588 C   0  0  0  0  0  0  0  0  0  0  0  0
    1.6354   -1.1479    0.6116 O   0  0  0  0  0  0  0  0  0  0  0  0
   -0.4842    6.0573   -2.3908 O   0  0  0  0  0  0  0  0  0  0  0  0
   -4.6147   -1.0233   -0.3116 C   0  0  0  0  0  0  0  0  0  0  0  0
   -5.4249    0.8878   -0.1661 H   0  0  0  0  0  0  0  0  0  0  0  0
   -4.8678    2.1866    2.1320 H   0  0  0  0  0  0  0  0  0  0  0  0
   -1.8732    0.9759    2.4336 H   0  0  0  0  0  0  0  0  0  0  0  0
   -2.0602    0.0048   -1.6785 H   0  0  0  0  0  0  0  0  0  0  0  0
   -5.7711    4.3500    2.1487 H   0  0  0  0  0  0  0  0  0  0  0  0
   -4.4099    4.9869    1.2392 H   0  0  0  0  0  0  0  0  0  0  0  0
   -4.1853    4.4803    2.9259 H   0  0  0  0  0  0  0  0  0  0  0  0
   -3.7179    2.9728   -2.0292 H   0  0  0  0  0  0  0  0  0  0  0  0
   -1.6117    4.0518    1.4744 H   0  0  0  0  0  0  0  0  0  0  0  0
    0.3244   -0.0032    2.5507 H   0  0  0  0  0  0  0  0  0  0  0  0
    0.1384   -0.9687   -1.5403 H   0  0  0  0  0  0  0  0  0  0  0  0
   -2.3995    4.5418   -3.2927 H   0  0  0  0  0  0  0  0  0  0  0  0
   -0.2632    5.5686    0.1836 H   0  0  0  0  0  0  0  0  0  0  0  0
    1.7410   -1.6846   -0.2023 H   0  0  0  0  0  0  0  0  0  0  0  0
   -0.0157    6.6218   -1.7413 H   0  0  0  0  0  0  0  0  0  0  0  0
   -3.8048   -1.5657    0.1799 H   0  0  0  0  0  0  0  0  0  0  0  0
   -4.5724   -1.2167   -1.3841 H   0  0  0  0  0  0  0  0  0  0  0  0
   -5.5558   -1.4211    0.0744 H   0  0  0  0  0  0  0  0  0  0  0  0
  1  2  1  0  0  0  0 
  1  3  2  0  0  0  0 
  1  4  1  0  0  0  0 
  2  5  2  0  0  0  0 
  2  6  1  0  0  0  0 
  4  7  2  0  0  0  0 
  4  8  1  0  0  0  0 
  5  9  1  0  0  0  0 
  6 10  2  0  0  0  0 
  6 11  1  0  0  0  0 
  7 12  1  0  0  0  0 
  8 13  2  0  0  0  0 
 10 14  1  0  0  0  0 
 11 15  2  0  0  0  0 
 12 16  2  0  0  0  0 
 13 16  1  0  0  0  0 
 14 17  2  0  0  0  0 
 15 17  1  0  0  0  0 
 16 18  1  0  0  0  0 
 17 19  1  0  0  0  0 
  3 20  1  0  0  0  0 
  3 21  1  0  0  0  0 
  5 22  1  0  0  0  0 
  7 23  1  0  0  0  0 
  8 24  1  0  0  0  0 
  9 25  1  0  0  0  0 
  9 26  1  0  0  0  0 
  9 27  1  0  0  0  0 
 10 28  1  0  0  0  0 
 11 29  1  0  0  0  0 
 12 30  1  0  0  0  0 
 13 31  1  0  0  0  0 
 14 32  1  0  0  0  0 
 15 33  1  0  0  0  0 
 18 34  1  0  0  0  0 
 19 35  1  0  0  0  0 
 20 36  1  0  0  0  0 
 20 37  1  0  0  0  0 
 20 38  1  0  0  0  0 
M  END
> <cdk:Title>
dienestrol

> <Conformer>
1

> <SuperDrugID>
SD000773

$$$$
