tiratricol
  CDK     0628171801

 30 31  0  0  0  0  0  0  0  0999 V2000
   -0.0246    0.2217    5.1360 O   0  0  0  0  0  0  0  0  0  0  0  0
   -1.2920    0.7579    5.2177 C   0  0  0  0  0  0  0  0  0  0  0  0
    0.4040   -0.0001    3.8396 C   0  0  0  0  0  0  0  0  0  0  0  0
   -1.4850    2.1610    5.2704 C   0  0  0  0  0  0  0  0  0  0  0  0
   -2.4360   -0.0727    5.3229 C   0  0  0  0  0  0  0  0  0  0  0  0
    0.1943   -1.2475    3.2093 C   0  0  0  0  0  0  0  0  0  0  0  0
    1.1250    0.9850    3.1254 C   0  0  0  0  0  0  0  0  0  0  0  0
    0.0630    3.4937    5.4963 I   0  0  0  0  0  0  0  0  0  0  0  0
   -2.7813    2.7068    5.2300 C   0  0  0  0  0  0  0  0  0  0  0  0
   -2.3154   -2.1006    5.6388 I   0  0  0  0  0  0  0  0  0  0  0  0
   -3.7297    0.4811    5.2770 C   0  0  0  0  0  0  0  0  0  0  0  0
    0.6153   -1.4831    1.8869 C   0  0  0  0  0  0  0  0  0  0  0  0
    1.5539    0.7593    1.8042 C   0  0  0  0  0  0  0  0  0  0  0  0
   -3.9209    1.8758    5.1868 C   0  0  0  0  0  0  0  0  0  0  0  0
    0.2563   -3.3154    1.0285 I   0  0  0  0  0  0  0  0  0  0  0  0
    1.2819   -0.4681    1.1744 C   0  0  0  0  0  0  0  0  0  0  0  0
   -5.2793    2.4700    5.0709 C   0  0  1  0  0  0  0  0  0  0  0  0
    1.6716   -0.6642   -0.1076 O   0  0  0  0  0  0  0  0  0  0  0  0
   -5.4715    3.0852    3.7429 C   0  0  0  0  0  0  0  0  0  0  0  0
   -5.5007    2.3050    2.6376 O   0  0  0  0  0  0  0  0  0  0  0  0
   -5.6053    4.3228    3.6087 O   0  0  0  0  0  0  0  0  0  0  0  0
   -0.2595   -2.0051    3.7100 H   0  0  0  0  0  0  0  0  0  0  0  0
    1.3553    1.8758    3.5590 H   0  0  0  0  0  0  0  0  0  0  0  0
   -2.8931    3.7234    5.2433 H   0  0  0  0  0  0  0  0  0  0  0  0
   -4.5382   -0.1432    5.3188 H   0  0  0  0  0  0  0  0  0  0  0  0
    2.0694    1.4887    1.3041 H   0  0  0  0  0  0  0  0  0  0  0  0
   -6.0612    1.7183    5.2067 H   0  0  0  0  0  0  0  0  0  0  0  0
   -5.4097    3.2144    5.8600 H   0  0  0  0  0  0  0  0  0  0  0  0
    0.8911   -0.4028   -0.6428 H   0  0  0  0  0  0  0  0  0  0  0  0
   -5.6338    2.7089    1.7560 H   0  0  0  0  0  0  0  0  0  0  0  0
  1  2  1  0  0  0  0 
  1  3  1  0  0  0  0 
  2  4  2  0  0  0  0 
  2  5  1  0  0  0  0 
  3  6  2  0  0  0  0 
  3  7  1  0  0  0  0 
  4  8  1  0  0  0  0 
  4  9  1  0  0  0  0 
  5 10  1  0  0  0  0 
  5 11  2  0  0  0  0 
  6 12  1  0  0  0  0 
  7 13  2  0  0  0  0 
  9 14  2  0  0  0  0 
 11 14  1  0  0  0  0 
 12 15  1  0  0  0  0 
 12 16  2  0  0  0  0 
 13 16  1  0  0  0  0 
 14 17  1  0  0  0  0 
 16 18  1  0  0  0  0 
 17 19  1  0  0  0  0 
 19 20  1  0  0  0  0 
 19 21  2  0  0  0  0 
  6 22  1  0  0  0  0 
  7 23  1  0  0  0  0 
  9 24  1  0  0  0  0 
 11 25  1  0  0  0  0 
 13 26  1  0  0  0  0 
 17 27  1  0  0  0  0 
 17 28  1  0  0  0  0 
 18 29  1  0  0  0  0 
 20 30  1  0  0  0  0 
M  END
> <cdk:Title>
tiratricol

> <Conformer>
1

> <SuperDrugID>
SD003094

$$$$
