benzethonium
  CDK     0628171801

 72 73  0  0  0  0  0  0  0  0999 V2000
   10.7811   -3.7278    3.4135 C   0  0  1  0  0  0  0  0  0  0  0  0
   11.5711   -5.0715    3.0950 C   0  0  1  0  0  0  0  0  0  0  0  0
   10.9612   -3.3374    4.9293 C   0  0  0  0  0  0  0  0  0  0  0  0
   11.4652   -2.5438    2.6136 C   0  0  0  0  0  0  0  0  0  0  0  0
    9.3286   -3.8232    2.9631 C   0  0  0  0  0  0  0  0  0  0  0  0
   11.0993   -6.5292    3.5320 C   0  0  2  0  0  0  0  0  0  0  0  0
    8.2195   -3.7295    3.8517 C   0  0  0  0  0  0  0  0  0  0  0  0
    9.0165   -4.0553    1.5934 C   0  0  0  0  0  0  0  0  0  0  0  0
   11.0685   -6.7214    5.0833 C   0  0  0  0  0  0  0  0  0  0  0  0
   12.1493   -7.5428    2.9479 C   0  0  0  0  0  0  0  0  0  0  0  0
    9.7099   -6.9554    2.9475 C   0  0  0  0  0  0  0  0  0  0  0  0
    6.8965   -3.9162    3.4120 C   0  0  0  0  0  0  0  0  0  0  0  0
    7.6964   -4.2460    1.1485 C   0  0  0  0  0  0  0  0  0  0  0  0
    6.6287   -4.1920    2.0597 C   0  0  0  0  0  0  0  0  0  0  0  0
    5.3538   -4.4550    1.6376 O   0  0  0  0  0  0  0  0  0  0  0  0
    4.6226   -3.2793    1.2410 C   0  0  1  0  0  0  0  0  0  0  0  0
    3.2211   -3.6993    0.7598 C   0  0  1  0  0  0  0  0  0  0  0  0
    2.4606   -2.5171    0.4538 O   0  0  0  0  0  0  0  0  0  0  0  0
    1.1207   -2.7650   -0.0144 C   0  0  2  0  0  0  0  0  0  0  0  0
    0.3956   -1.3985   -0.1803 C   0  0  1  0  0  0  0  0  0  0  0  0
   -1.0608   -1.3787   -0.6363 N   0  0  2  0  0  0  0  0  0  0  0  0
   -1.5492    0.0690   -0.7392 C   0  0  2  0  0  0  0  0  0  0  0  0
   -1.9399   -2.1666    0.3091 C   0  0  0  0  0  0  0  0  0  0  0  0
   -1.1892   -1.9964   -2.0143 C   0  0  0  0  0  0  0  0  0  0  0  0
   -1.5510    0.8939    0.5125 C   0  0  0  0  0  0  0  0  0  0  0  0
   -2.6252    0.8160    1.4323 C   0  0  0  0  0  0  0  0  0  0  0  0
   -0.4861    1.7825    0.7993 C   0  0  0  0  0  0  0  0  0  0  0  0
   -2.6282    1.5872    2.6096 C   0  0  0  0  0  0  0  0  0  0  0  0
   -0.4920    2.5631    1.9714 C   0  0  0  0  0  0  0  0  0  0  0  0
   -1.5664    2.4686    2.8721 C   0  0  0  0  0  0  0  0  0  0  0  0
   11.6915   -5.1187    2.0090 H   0  0  0  0  0  0  0  0  0  0  0  0
   12.5857   -4.9357    3.4846 H   0  0  0  0  0  0  0  0  0  0  0  0
   10.5074   -2.3644    5.1323 H   0  0  0  0  0  0  0  0  0  0  0  0
   10.4975   -4.0524    5.5994 H   0  0  0  0  0  0  0  0  0  0  0  0
   12.0166   -3.2720    5.2045 H   0  0  0  0  0  0  0  0  0  0  0  0
   11.5447   -2.8526    1.4831 H   0  0  0  0  0  0  0  0  0  0  0  0
   10.8556   -1.6080    2.8057 H   0  0  0  0  0  0  0  0  0  0  0  0
   12.4659   -2.3091    3.0950 H   0  0  0  0  0  0  0  0  0  0  0  0
    8.3497   -3.5506    4.8458 H   0  0  0  0  0  0  0  0  0  0  0  0
    9.7549   -4.1230    0.8906 H   0  0  0  0  0  0  0  0  0  0  0  0
   10.1870   -6.2543    5.5219 H   0  0  0  0  0  0  0  0  0  0  0  0
   11.0222   -7.7809    5.3475 H   0  0  0  0  0  0  0  0  0  0  0  0
   11.9620   -6.2971    5.5465 H   0  0  0  0  0  0  0  0  0  0  0  0
   12.1734   -7.4936    1.8563 H   0  0  0  0  0  0  0  0  0  0  0  0
   11.9080   -8.5730    3.2231 H   0  0  0  0  0  0  0  0  0  0  0  0
   13.1531   -7.3263    3.3190 H   0  0  0  0  0  0  0  0  0  0  0  0
    9.6706   -6.7784    1.8709 H   0  0  0  0  0  0  0  0  0  0  0  0
    9.5204   -8.0179    3.1176 H   0  0  0  0  0  0  0  0  0  0  0  0
    8.8920   -6.4177    3.4237 H   0  0  0  0  0  0  0  0  0  0  0  0
    6.1274   -3.8638    4.0825 H   0  0  0  0  0  0  0  0  0  0  0  0
    7.5168   -4.4411    0.1605 H   0  0  0  0  0  0  0  0  0  0  0  0
    4.5132   -2.5928    2.0874 H   0  0  0  0  0  0  0  0  0  0  0  0
    5.1314   -2.7605    0.4218 H   0  0  0  0  0  0  0  0  0  0  0  0
    3.3214   -4.3321   -0.1259 H   0  0  0  0  0  0  0  0  0  0  0  0
    2.7308   -4.2701    1.5527 H   0  0  0  0  0  0  0  0  0  0  0  0
    0.5847   -3.3793    0.7111 H   0  0  0  0  0  0  0  0  0  0  0  0
    1.1647   -3.2905   -0.9697 H   0  0  0  0  0  0  0  0  0  0  0  0
    0.4699   -0.9102    0.7962 H   0  0  0  0  0  0  0  0  0  0  0  0
    1.0082   -0.8053   -0.8699 H   0  0  0  0  0  0  0  0  0  0  0  0
   -2.5715    0.0980   -1.1372 H   0  0  0  0  0  0  0  0  0  0  0  0
   -0.9485    0.5959   -1.4913 H   0  0  0  0  0  0  0  0  0  0  0  0
   -1.7882   -1.8653    1.3496 H   0  0  0  0  0  0  0  0  0  0  0  0
   -3.0025   -2.0416    0.0723 H   0  0  0  0  0  0  0  0  0  0  0  0
   -1.7294   -3.2373    0.2583 H   0  0  0  0  0  0  0  0  0  0  0  0
   -0.9363   -3.0598   -2.0091 H   0  0  0  0  0  0  0  0  0  0  0  0
   -2.2133   -1.9196   -2.3948 H   0  0  0  0  0  0  0  0  0  0  0  0
   -0.5309   -1.5084   -2.7387 H   0  0  0  0  0  0  0  0  0  0  0  0
   -3.4171    0.1956    1.2499 H   0  0  0  0  0  0  0  0  0  0  0  0
    0.3049    1.8654    0.1555 H   0  0  0  0  0  0  0  0  0  0  0  0
   -3.4034    1.5089    3.2718 H   0  0  0  0  0  0  0  0  0  0  0  0
    0.2830    3.2002    2.1680 H   0  0  0  0  0  0  0  0  0  0  0  0
   -1.5768    3.0417    3.7172 H   0  0  0  0  0  0  0  0  0  0  0  0
  1  2  1  0  0  0  0 
  1  3  1  0  0  0  0 
  1  4  1  0  0  0  0 
  1  5  1  0  0  0  0 
  2  6  1  0  0  0  0 
  5  7  2  0  0  0  0 
  5  8  1  0  0  0  0 
  6  9  1  0  0  0  0 
  6 10  1  0  0  0  0 
  6 11  1  0  0  0  0 
  7 12  1  0  0  0  0 
  8 13  2  0  0  0  0 
 12 14  2  0  0  0  0 
 13 14  1  0  0  0  0 
 14 15  1  0  0  0  0 
 15 16  1  0  0  0  0 
 16 17  1  0  0  0  0 
 17 18  1  0  0  0  0 
 18 19  1  0  0  0  0 
 19 20  1  0  0  0  0 
 20 21  1  0  0  0  0 
 21 22  1  0  0  0  0 
 21 23  1  0  0  0  0 
 21 24  1  0  0  0  0 
 22 25  1  0  0  0  0 
 25 26  2  0  0  0  0 
 25 27  1  0  0  0  0 
 26 28  1  0  0  0  0 
 27 29  2  0  0  0  0 
 28 30  2  0  0  0  0 
 29 30  1  0  0  0  0 
  2 31  1  0  0  0  0 
  2 32  1  0  0  0  0 
  3 33  1  0  0  0  0 
  3 34  1  0  0  0  0 
  3 35  1  0  0  0  0 
  4 36  1  0  0  0  0 
  4 37  1  0  0  0  0 
  4 38  1  0  0  0  0 
  7 39  1  0  0  0  0 
  8 40  1  0  0  0  0 
  9 41  1  0  0  0  0 
  9 42  1  0  0  0  0 
  9 43  1  0  0  0  0 
 10 44  1  0  0  0  0 
 10 45  1  0  0  0  0 
 10 46  1  0  0  0  0 
 11 47  1  0  0  0  0 
 11 48  1  0  0  0  0 
 11 49  1  0  0  0  0 
 12 50  1  0  0  0  0 
 13 51  1  0  0  0  0 
 16 52  1  0  0  0  0 
 16 53  1  0  0  0  0 
 17 54  1  0  0  0  0 
 17 55  1  0  0  0  0 
 19 56  1  0  0  0  0 
 19 57  1  0  0  0  0 
 20 58  1  0  0  0  0 
 20 59  1  0  0  0  0 
 22 60  1  0  0  0  0 
 22 61  1  0  0  0  0 
 23 62  1  0  0  0  0 
 23 63  1  0  0  0  0 
 23 64  1  0  0  0  0 
 24 65  1  0  0  0  0 
 24 66  1  0  0  0  0 
 24 67  1  0  0  0  0 
 26 68  1  0  0  0  0 
 27 69  1  0  0  0  0 
 28 70  1  0  0  0  0 
 29 71  1  0  0  0  0 
 30 72  1  0  0  0  0 
M  CHG  1  21   1
M  END
> <cdk:Title>
benzethonium

> <Conformer>
1

> <SuperDrugID>
SD002623

$$$$
