ramelteon
  CDK     0628171801

 40 42  0  0  0  0  0  0  0  0999 V2000
   -2.4570   -4.1968   -0.7168 C   0  0  1  0  0  0  0  0  0  0  0  0
   -3.6527   -3.4574   -1.3701 C   0  0  2  0  0  0  0  0  0  0  0  0
   -1.5847   -3.2456    0.1609 C   0  0  1  0  0  0  0  0  0  0  0  0
   -4.2675   -4.2745   -2.3616 N   0  0  0  0  0  0  0  0  0  0  0  0
   -0.6105   -3.9345    1.0219 C   0  0  0  0  0  0  0  0  0  0  0  0
   -0.6921   -2.2793   -0.6817 C   0  0  1  0  0  0  0  0  0  0  0  0
   -5.2096   -3.8410   -3.2402 C   0  0  0  0  0  0  0  0  0  0  0  0
   -0.8510   -4.8327    2.0853 C   0  0  0  0  0  0  0  0  0  0  0  0
    0.7058   -3.5496    0.7471 C   0  0  0  0  0  0  0  0  0  0  0  0
    0.7869   -2.5566   -0.3183 C   0  0  2  0  0  0  0  0  0  0  0  0
   -5.7006   -4.7716   -4.2737 C   0  0  1  0  0  0  0  0  0  0  0  0
   -5.6451   -2.6644   -3.2123 O   0  0  0  0  0  0  0  0  0  0  0  0
    0.2129   -5.3428    2.8319 C   0  0  0  0  0  0  0  0  0  0  0  0
   -2.1051   -5.3406    2.6216 C   0  0  1  0  0  0  0  0  0  0  0  0
    1.7920   -4.0827    1.4742 C   0  0  0  0  0  0  0  0  0  0  0  0
   -6.8294   -5.6846   -3.7522 C   0  0  0  0  0  0  0  0  0  0  0  0
    1.5421   -4.9902    2.5255 C   0  0  0  0  0  0  0  0  0  0  0  0
   -0.1765   -6.1689    3.8375 O   0  0  0  0  0  0  0  0  0  0  0  0
   -1.5950   -5.9375    3.9509 C   0  0  1  0  0  0  0  0  0  0  0  0
   -2.8595   -5.0038   -0.1039 H   0  0  0  0  0  0  0  0  0  0  0  0
   -1.8361   -4.6546   -1.4949 H   0  0  0  0  0  0  0  0  0  0  0  0
   -3.3020   -2.5338   -1.8403 H   0  0  0  0  0  0  0  0  0  0  0  0
   -4.3916   -3.2034   -0.6034 H   0  0  0  0  0  0  0  0  0  0  0  0
   -2.2337   -2.6636    0.8232 H   0  0  0  0  0  0  0  0  0  0  0  0
   -3.9822   -5.2001   -2.4256 H   0  0  0  0  0  0  0  0  0  0  0  0
   -0.8326   -2.4183   -1.7569 H   0  0  0  0  0  0  0  0  0  0  0  0
   -0.9507   -1.2420   -0.4478 H   0  0  0  0  0  0  0  0  0  0  0  0
    1.2762   -1.6476    0.0385 H   0  0  0  0  0  0  0  0  0  0  0  0
    1.3430   -2.9723   -1.1610 H   0  0  0  0  0  0  0  0  0  0  0  0
   -6.0727   -4.2056   -5.1301 H   0  0  0  0  0  0  0  0  0  0  0  0
   -4.8702   -5.3879   -4.6263 H   0  0  0  0  0  0  0  0  0  0  0  0
   -2.8337   -4.5427    2.7883 H   0  0  0  0  0  0  0  0  0  0  0  0
   -2.5186   -6.1174    1.9730 H   0  0  0  0  0  0  0  0  0  0  0  0
    2.7506   -3.8084    1.2491 H   0  0  0  0  0  0  0  0  0  0  0  0
   -7.1542   -6.3562   -4.5476 H   0  0  0  0  0  0  0  0  0  0  0  0
   -6.4832   -6.2859   -2.9096 H   0  0  0  0  0  0  0  0  0  0  0  0
   -7.6850   -5.0857   -3.4356 H   0  0  0  0  0  0  0  0  0  0  0  0
    2.3150   -5.3819    3.0668 H   0  0  0  0  0  0  0  0  0  0  0  0
   -1.7754   -5.2338    4.7706 H   0  0  0  0  0  0  0  0  0  0  0  0
   -2.1110   -6.8711    4.1791 H   0  0  0  0  0  0  0  0  0  0  0  0
  1  2  1  0  0  0  0 
  2  4  1  0  0  0  0 
  3  1  1  0  0  0  0 
  3  5  1  0  0  0  0 
  3  6  1  0  0  0  0 
  4  7  1  0  0  0  0 
  5  8  2  0  0  0  0 
  5  9  1  0  0  0  0 
  6 10  1  0  0  0  0 
  7 11  1  0  0  0  0 
  7 12  2  0  0  0  0 
  8 13  1  0  0  0  0 
  8 14  1  0  0  0  0 
  9 10  1  0  0  0  0 
  9 15  2  0  0  0  0 
 11 16  1  0  0  0  0 
 13 17  2  0  0  0  0 
 13 18  1  0  0  0  0 
 14 19  1  0  0  0  0 
 15 17  1  0  0  0  0 
 18 19  1  0  0  0  0 
  1 20  1  0  0  0  0 
  1 21  1  0  0  0  0 
  2 22  1  0  0  0  0 
  2 23  1  0  0  0  0 
  3 24  1  0  0  0  0 
  4 25  1  0  0  0  0 
  6 26  1  0  0  0  0 
  6 27  1  0  0  0  0 
 10 28  1  0  0  0  0 
 10 29  1  0  0  0  0 
 11 30  1  0  0  0  0 
 11 31  1  0  0  0  0 
 14 32  1  0  0  0  0 
 14 33  1  0  0  0  0 
 15 34  1  0  0  0  0 
 16 35  1  0  0  0  0 
 16 36  1  0  0  0  0 
 16 37  1  0  0  0  0 
 17 38  1  0  0  0  0 
 19 39  1  0  0  0  0 
 19 40  1  0  0  0  0 
M  END
> <cdk:Title>
ramelteon

> <Conformer>
1

> <SuperDrugID>
SD002118

$$$$
