salsalate
  CDK     0628171801

 29 30  0  0  0  0  0  0  0  0999 V2000
    2.7728   -1.8602    0.3814 O   0  0  0  0  0  0  0  0  0  0  0  0
    3.2151   -3.1638    0.3251 C   0  0  0  0  0  0  0  0  0  0  0  0
    3.3452   -0.6730   -0.0304 C   0  0  0  0  0  0  0  0  0  0  0  0
    4.2358   -3.4573   -0.3404 O   0  0  0  0  0  0  0  0  0  0  0  0
    2.4752   -4.2045    0.9508 C   0  0  0  0  0  0  0  0  0  0  0  0
    2.5210    0.4562   -0.3182 C   0  0  0  0  0  0  0  0  0  0  0  0
    4.7530   -0.5456   -0.1439 C   0  0  0  0  0  0  0  0  0  0  0  0
    3.0994   -5.3879    1.4357 C   0  0  0  0  0  0  0  0  0  0  0  0
    1.0699   -4.0846    1.0989 C   0  0  0  0  0  0  0  0  0  0  0  0
    1.0981    0.4258   -0.2002 C   0  0  0  0  0  0  0  0  0  0  0  0
    3.1449    1.6568   -0.7534 C   0  0  0  0  0  0  0  0  0  0  0  0
    5.3456    0.6469   -0.5851 C   0  0  0  0  0  0  0  0  0  0  0  0
    4.4401   -5.5924    1.3632 O   0  0  0  0  0  0  0  0  0  0  0  0
    2.3357   -6.4091    2.0347 C   0  0  0  0  0  0  0  0  0  0  0  0
    0.3121   -5.1075    1.7018 C   0  0  0  0  0  0  0  0  0  0  0  0
    0.4099   -0.6895    0.1313 O   0  0  0  0  0  0  0  0  0  0  0  0
    0.3853    1.4382   -0.3957 O   0  0  0  0  0  0  0  0  0  0  0  0
    4.5391    1.7496   -0.8936 C   0  0  0  0  0  0  0  0  0  0  0  0
    0.9460   -6.2699    2.1714 C   0  0  0  0  0  0  0  0  0  0  0  0
    5.3699   -1.3167    0.1091 H   0  0  0  0  0  0  0  0  0  0  0  0
    0.5761   -3.2589    0.7568 H   0  0  0  0  0  0  0  0  0  0  0  0
    2.5901    2.4864   -0.9816 H   0  0  0  0  0  0  0  0  0  0  0  0
    6.3631    0.7143   -0.6745 H   0  0  0  0  0  0  0  0  0  0  0  0
    4.8421   -4.7631    1.6949 H   0  0  0  0  0  0  0  0  0  0  0  0
    2.7912   -7.2590    2.3772 H   0  0  0  0  0  0  0  0  0  0  0  0
   -0.7010   -5.0090    1.7966 H   0  0  0  0  0  0  0  0  0  0  0  0
   -0.5685   -0.6691    0.1854 H   0  0  0  0  0  0  0  0  0  0  0  0
    4.9650    2.6228   -1.2144 H   0  0  0  0  0  0  0  0  0  0  0  0
    0.3964   -7.0109    2.6125 H   0  0  0  0  0  0  0  0  0  0  0  0
  1  2  1  0  0  0  0 
  1  3  1  0  0  0  0 
  2  4  2  0  0  0  0 
  2  5  1  0  0  0  0 
  3  6  2  0  0  0  0 
  3  7  1  0  0  0  0 
  5  8  2  0  0  0  0 
  5  9  1  0  0  0  0 
  6 10  1  0  0  0  0 
  6 11  1  0  0  0  0 
  7 12  2  0  0  0  0 
  8 13  1  0  0  0  0 
  8 14  1  0  0  0  0 
  9 15  2  0  0  0  0 
 10 16  1  0  0  0  0 
 10 17  2  0  0  0  0 
 11 18  2  0  0  0  0 
 12 18  1  0  0  0  0 
 14 19  2  0  0  0  0 
 15 19  1  0  0  0  0 
  7 20  1  0  0  0  0 
  9 21  1  0  0  0  0 
 11 22  1  0  0  0  0 
 12 23  1  0  0  0  0 
 13 24  1  0  0  0  0 
 14 25  1  0  0  0  0 
 15 26  1  0  0  0  0 
 16 27  1  0  0  0  0 
 18 28  1  0  0  0  0 
 19 29  1  0  0  0  0 
M  END
> <cdk:Title>
salsalate

> <Conformer>
1

> <SuperDrugID>
SD002178

$$$$
