nabilone
  CDK     0628171801

 63 65  0  0  0  0  0  0  0  0999 V2000
    2.9302    1.6934   -0.8762 O   0  0  0  0  0  0  0  0  0  0  0  0
    2.5768    0.5574   -1.5269 C   0  0  0  0  0  0  0  0  0  0  0  0
    3.5485   -0.2753   -2.1292 C   0  0  0  0  0  0  0  0  0  0  0  0
    1.2114    0.2268   -1.5778 C   0  0  0  0  0  0  0  0  0  0  0  0
    4.9786    0.1571   -2.2392 C   0  0  1  0  0  0  0  0  0  0  0  0
    3.1273   -1.5216   -2.6472 C   0  0  0  0  0  0  0  0  0  0  0  0
    0.7502   -0.9598   -2.2047 C   0  0  0  0  0  0  0  0  0  0  0  0
    5.9594   -1.0123   -2.6279 C   0  0  1  0  0  0  0  0  0  0  0  0
    5.0821    1.4089   -3.1788 C   0  0  1  0  0  0  0  0  0  0  0  0
    1.7542   -1.8416   -2.6914 C   0  0  0  0  0  0  0  0  0  0  0  0
    4.0095   -2.4853   -3.0760 O   0  0  0  0  0  0  0  0  0  0  0  0
   -0.7292   -1.2884   -2.3809 C   0  0  2  0  0  0  0  0  0  0  0  0
    5.3115   -2.0970   -3.5820 C   0  0  1  0  0  0  0  0  0  0  0  0
    7.3844   -0.4653   -3.0035 C   0  0  1  0  0  0  0  0  0  0  0  0
    6.4741    1.7852   -3.4915 C   0  0  0  0  0  0  0  0  0  0  0  0
   -1.0716   -1.4395   -3.9179 C   0  0  2  0  0  0  0  0  0  0  0  0
   -1.7161   -0.2316   -1.7567 C   0  0  0  0  0  0  0  0  0  0  0  0
   -1.0462   -2.6354   -1.6400 C   0  0  0  0  0  0  0  0  0  0  0  0
    5.1470   -1.6888   -5.0773 C   0  0  0  0  0  0  0  0  0  0  0  0
    6.1263   -3.4303   -3.5410 C   0  0  0  0  0  0  0  0  0  0  0  0
    7.4014    0.7474   -3.9703 C   0  0  2  0  0  0  0  0  0  0  0  0
    6.8759    2.9599   -3.3193 O   0  0  0  0  0  0  0  0  0  0  0  0
   -0.7371   -0.2049   -4.8102 C   0  0  2  0  0  0  0  0  0  0  0  0
   -1.0700   -0.4000   -6.3160 C   0  0  2  0  0  0  0  0  0  0  0  0
   -0.7640    0.8804   -7.1447 C   0  0  2  0  0  0  0  0  0  0  0  0
   -1.1106    0.7434   -8.6519 C   0  0  1  0  0  0  0  0  0  0  0  0
   -0.7913    2.0467   -9.4237 C   0  0  0  0  0  0  0  0  0  0  0  0
    5.2912    0.4930   -1.2425 H   0  0  0  0  0  0  0  0  0  0  0  0
    6.1161   -1.5544   -1.6874 H   0  0  0  0  0  0  0  0  0  0  0  0
    3.0698    1.4080    0.0542 H   0  0  0  0  0  0  0  0  0  0  0  0
    0.5616    0.8865   -1.1486 H   0  0  0  0  0  0  0  0  0  0  0  0
    4.5738    1.2216   -4.1232 H   0  0  0  0  0  0  0  0  0  0  0  0
    4.5854    2.2635   -2.7139 H   0  0  0  0  0  0  0  0  0  0  0  0
    1.4890   -2.7426   -3.0967 H   0  0  0  0  0  0  0  0  0  0  0  0
    7.8735   -0.1404   -2.0801 H   0  0  0  0  0  0  0  0  0  0  0  0
    8.0126   -1.2524   -3.4219 H   0  0  0  0  0  0  0  0  0  0  0  0
   -2.1386   -1.6563   -4.0286 H   0  0  0  0  0  0  0  0  0  0  0  0
   -0.5400   -2.3023   -4.3286 H   0  0  0  0  0  0  0  0  0  0  0  0
   -2.7591   -0.5022   -1.9448 H   0  0  0  0  0  0  0  0  0  0  0  0
   -1.5790   -0.1626   -0.6746 H   0  0  0  0  0  0  0  0  0  0  0  0
   -1.5570    0.7636   -2.1729 H   0  0  0  0  0  0  0  0  0  0  0  0
   -2.1089   -2.8815   -1.7055 H   0  0  0  0  0  0  0  0  0  0  0  0
   -0.7822   -2.5636   -0.5819 H   0  0  0  0  0  0  0  0  0  0  0  0
   -0.4971   -3.4755   -2.0655 H   0  0  0  0  0  0  0  0  0  0  0  0
    4.5951   -0.7601   -5.1837 H   0  0  0  0  0  0  0  0  0  0  0  0
    4.5871   -2.4564   -5.6156 H   0  0  0  0  0  0  0  0  0  0  0  0
    6.1167   -1.5861   -5.5662 H   0  0  0  0  0  0  0  0  0  0  0  0
    6.2103   -3.8027   -2.5175 H   0  0  0  0  0  0  0  0  0  0  0  0
    5.6381   -4.2051   -4.1376 H   0  0  0  0  0  0  0  0  0  0  0  0
    7.1314   -3.2945   -3.9397 H   0  0  0  0  0  0  0  0  0  0  0  0
    7.1075    0.4477   -4.9764 H   0  0  0  0  0  0  0  0  0  0  0  0
    8.4197    1.1470   -4.0283 H   0  0  0  0  0  0  0  0  0  0  0  0
    0.3273    0.0274   -4.7200 H   0  0  0  0  0  0  0  0  0  0  0  0
   -1.3026    0.6562   -4.4512 H   0  0  0  0  0  0  0  0  0  0  0  0
   -2.1298   -0.6517   -6.4187 H   0  0  0  0  0  0  0  0  0  0  0  0
   -0.4806   -1.2338   -6.7073 H   0  0  0  0  0  0  0  0  0  0  0  0
    0.2996    1.1191   -7.0459 H   0  0  0  0  0  0  0  0  0  0  0  0
   -1.3368    1.7138   -6.7262 H   0  0  0  0  0  0  0  0  0  0  0  0
   -0.4383   -0.0640   -9.0826 H   0  0  0  0  0  0  0  0  0  0  0  0
   -2.2325    0.5868   -8.7291 H   0  0  0  0  0  0  0  0  0  0  0  0
    0.2710    2.2884   -9.3485 H   0  0  0  0  0  0  0  0  0  0  0  0
   -1.3714    2.8827   -9.0269 H   0  0  0  0  0  0  0  0  0  0  0  0
   -1.0436    1.9210  -10.4777 H   0  0  0  0  0  0  0  0  0  0  0  0
  1  2  1  0  0  0  0 
  2  3  2  0  0  0  0 
  2  4  1  0  0  0  0 
  5  3  1  0  0  0  0 
  3  6  1  0  0  0  0 
  4  7  2  0  0  0  0 
  8  5  1  0  0  0  0 
  5  9  1  0  0  0  0 
  5 28  1  0  0  0  0 
  6 10  2  0  0  0  0 
  6 11  1  0  0  0  0 
  7 10  1  0  0  0  0 
  7 12  1  0  0  0  0 
  8 13  1  0  0  0  0 
  8 14  1  0  0  0  0 
  8 29  1  0  0  0  0 
  9 15  1  0  0  0  0 
 11 13  1  0  0  0  0 
 12 16  1  0  0  0  0 
 12 17  1  0  0  0  0 
 12 18  1  0  0  0  0 
 13 19  1  0  0  0  0 
 13 20  1  0  0  0  0 
 14 21  1  0  0  0  0 
 15 21  1  0  0  0  0 
 15 22  2  0  0  0  0 
 16 23  1  0  0  0  0 
 23 24  1  0  0  0  0 
 24 25  1  0  0  0  0 
 25 26  1  0  0  0  0 
 26 27  1  0  0  0  0 
  1 30  1  0  0  0  0 
  4 31  1  0  0  0  0 
  9 32  1  0  0  0  0 
  9 33  1  0  0  0  0 
 10 34  1  0  0  0  0 
 14 35  1  0  0  0  0 
 14 36  1  0  0  0  0 
 16 37  1  0  0  0  0 
 16 38  1  0  0  0  0 
 17 39  1  0  0  0  0 
 17 40  1  0  0  0  0 
 17 41  1  0  0  0  0 
 18 42  1  0  0  0  0 
 18 43  1  0  0  0  0 
 18 44  1  0  0  0  0 
 19 45  1  0  0  0  0 
 19 46  1  0  0  0  0 
 19 47  1  0  0  0  0 
 20 48  1  0  0  0  0 
 20 49  1  0  0  0  0 
 20 50  1  0  0  0  0 
 21 51  1  0  0  0  0 
 21 52  1  0  0  0  0 
 23 53  1  0  0  0  0 
 23 54  1  0  0  0  0 
 24 55  1  0  0  0  0 
 24 56  1  0  0  0  0 
 25 57  1  0  0  0  0 
 25 58  1  0  0  0  0 
 26 59  1  0  0  0  0 
 26 60  1  0  0  0  0 
 27 61  1  0  0  0  0 
 27 62  1  0  0  0  0 
 27 63  1  0  0  0  0 
M  END
> <cdk:Title>
nabilone

> <Conformer>
1

> <SuperDrugID>
SD001658

$$$$
