ambucetamide
  CDK     0628171801

 49 49  0  0  0  0  0  0  0  0999 V2000
   -6.9163   -3.2110    1.9934 C   0  0  1  0  0  0  0  0  0  0  0  0
   -7.2375   -3.7497    0.6173 N   0  0  0  0  0  0  0  0  0  0  0  0
   -6.3410   -1.8355    2.0568 C   0  0  0  0  0  0  0  0  0  0  0  0
   -8.1480   -3.2258    2.8475 C   0  0  0  0  0  0  0  0  0  0  0  0
   -6.5701   -3.1956   -0.6071 C   0  0  2  0  0  0  0  0  0  0  0  0
   -7.8413   -5.1292    0.5123 C   0  0  2  0  0  0  0  0  0  0  0  0
   -5.1399   -1.5851    2.6081 N   0  0  0  0  0  0  0  0  0  0  0  0
   -6.9634   -0.8494    1.6006 O   0  0  0  0  0  0  0  0  0  0  0  0
   -8.1722   -3.9107    4.0860 C   0  0  0  0  0  0  0  0  0  0  0  0
   -9.3389   -2.5955    2.4049 C   0  0  0  0  0  0  0  0  0  0  0  0
   -5.0235   -3.3536   -0.6380 C   0  0  2  0  0  0  0  0  0  0  0  0
   -6.8690   -6.2388    0.0303 C   0  0  2  0  0  0  0  0  0  0  0  0
   -9.3575   -3.9939    4.8385 C   0  0  0  0  0  0  0  0  0  0  0  0
  -10.5212   -2.6744    3.1581 C   0  0  0  0  0  0  0  0  0  0  0  0
   -4.4041   -3.0710   -2.0338 C   0  0  1  0  0  0  0  0  0  0  0  0
   -7.5043   -7.6553    0.0171 C   0  0  1  0  0  0  0  0  0  0  0  0
  -10.5401   -3.3862    4.3720 C   0  0  0  0  0  0  0  0  0  0  0  0
   -2.8609   -3.1629   -2.0210 C   0  0  0  0  0  0  0  0  0  0  0  0
   -6.6164   -8.6932   -0.7078 C   0  0  0  0  0  0  0  0  0  0  0  0
  -11.6977   -3.4612    5.0984 O   0  0  0  0  0  0  0  0  0  0  0  0
  -12.4927   -4.6111    4.7562 C   0  0  0  0  0  0  0  0  0  0  0  0
   -6.1671   -3.8946    2.4076 H   0  0  0  0  0  0  0  0  0  0  0  0
   -6.8193   -2.1359   -0.6906 H   0  0  0  0  0  0  0  0  0  0  0  0
   -6.9987   -3.6644   -1.4971 H   0  0  0  0  0  0  0  0  0  0  0  0
   -8.6844   -5.0670   -0.1823 H   0  0  0  0  0  0  0  0  0  0  0  0
   -8.2560   -5.4534    1.4703 H   0  0  0  0  0  0  0  0  0  0  0  0
   -4.6047   -2.3050    2.9747 H   0  0  0  0  0  0  0  0  0  0  0  0
   -4.8070   -0.6746    2.6396 H   0  0  0  0  0  0  0  0  0  0  0  0
   -7.3266   -4.3603    4.4444 H   0  0  0  0  0  0  0  0  0  0  0  0
   -9.3569   -2.0851    1.5191 H   0  0  0  0  0  0  0  0  0  0  0  0
   -4.7495   -4.3643   -0.3321 H   0  0  0  0  0  0  0  0  0  0  0  0
   -4.5814   -2.6606    0.0807 H   0  0  0  0  0  0  0  0  0  0  0  0
   -5.9978   -6.2510    0.6893 H   0  0  0  0  0  0  0  0  0  0  0  0
   -6.5362   -5.9972   -0.9818 H   0  0  0  0  0  0  0  0  0  0  0  0
   -9.3586   -4.5042    5.7229 H   0  0  0  0  0  0  0  0  0  0  0  0
  -11.3698   -2.2192    2.8184 H   0  0  0  0  0  0  0  0  0  0  0  0
   -4.7879   -3.7984   -2.7566 H   0  0  0  0  0  0  0  0  0  0  0  0
   -4.6952   -2.0691   -2.3652 H   0  0  0  0  0  0  0  0  0  0  0  0
   -7.6620   -7.9878    1.0470 H   0  0  0  0  0  0  0  0  0  0  0  0
   -8.4762   -7.6219   -0.4830 H   0  0  0  0  0  0  0  0  0  0  0  0
   -2.4663   -2.9347   -3.0143 H   0  0  0  0  0  0  0  0  0  0  0  0
   -2.5444   -4.1717   -1.7448 H   0  0  0  0  0  0  0  0  0  0  0  0
   -2.4412   -2.4490   -1.3082 H   0  0  0  0  0  0  0  0  0  0  0  0
   -7.1003   -9.6716   -0.6894 H   0  0  0  0  0  0  0  0  0  0  0  0
   -5.6446   -8.7732   -0.2175 H   0  0  0  0  0  0  0  0  0  0  0  0
   -6.4660   -8.4002   -1.7501 H   0  0  0  0  0  0  0  0  0  0  0  0
  -13.3864   -4.6044    5.3799 H   0  0  0  0  0  0  0  0  0  0  0  0
  -12.8110   -4.5882    3.7108 H   0  0  0  0  0  0  0  0  0  0  0  0
  -11.9516   -5.5405    4.9515 H   0  0  0  0  0  0  0  0  0  0  0  0
  1  2  1  0  0  0  0 
  1  3  1  0  0  0  0 
  1  4  1  0  0  0  0 
  2  5  1  0  0  0  0 
  2  6  1  0  0  0  0 
  3  7  1  0  0  0  0 
  3  8  2  0  0  0  0 
  4  9  2  0  0  0  0 
  4 10  1  0  0  0  0 
  5 11  1  0  0  0  0 
  6 12  1  0  0  0  0 
  9 13  1  0  0  0  0 
 10 14  2  0  0  0  0 
 11 15  1  0  0  0  0 
 12 16  1  0  0  0  0 
 13 17  2  0  0  0  0 
 14 17  1  0  0  0  0 
 15 18  1  0  0  0  0 
 16 19  1  0  0  0  0 
 17 20  1  0  0  0  0 
 20 21  1  0  0  0  0 
  1 22  1  0  0  0  0 
  5 23  1  0  0  0  0 
  5 24  1  0  0  0  0 
  6 25  1  0  0  0  0 
  6 26  1  0  0  0  0 
  7 27  1  0  0  0  0 
  7 28  1  0  0  0  0 
  9 29  1  0  0  0  0 
 10 30  1  0  0  0  0 
 11 31  1  0  0  0  0 
 11 32  1  0  0  0  0 
 12 33  1  0  0  0  0 
 12 34  1  0  0  0  0 
 13 35  1  0  0  0  0 
 14 36  1  0  0  0  0 
 15 37  1  0  0  0  0 
 15 38  1  0  0  0  0 
 16 39  1  0  0  0  0 
 16 40  1  0  0  0  0 
 18 41  1  0  0  0  0 
 18 42  1  0  0  0  0 
 18 43  1  0  0  0  0 
 19 44  1  0  0  0  0 
 19 45  1  0  0  0  0 
 19 46  1  0  0  0  0 
 21 47  1  0  0  0  0 
 21 48  1  0  0  0  0 
 21 49  1  0  0  0  0 
M  END
> <cdk:Title>
ambucetamide

> <Conformer>
1

> <SuperDrugID>
SD000117

$$$$
