baclofen
  CDK     0628171801

 26 26  0  0  0  0  0  0  0  0999 V2000
   -0.8969   -1.2843   -0.4668 C   0  0  2  0  0  0  0  0  0  0  0  0
   -0.4124   -2.7576   -0.6654 C   0  0  1  0  0  0  0  0  0  0  0  0
   -1.9237   -1.1466    0.6978 C   0  0  2  0  0  0  0  0  0  0  0  0
   -1.4131   -0.6871   -1.7433 C   0  0  0  0  0  0  0  0  0  0  0  0
    0.6227   -2.8898   -1.7145 C   0  0  0  0  0  0  0  0  0  0  0  0
   -2.3128    0.2552    0.9190 N   0  0  2  0  0  0  0  0  0  0  0  0
   -0.7502    0.4160   -2.3363 C   0  0  0  0  0  0  0  0  0  0  0  0
   -2.5587   -1.2040   -2.3975 C   0  0  0  0  0  0  0  0  0  0  0  0
    1.8171   -2.2692   -1.5785 O   0  0  0  0  0  0  0  0  0  0  0  0
    0.4112   -3.5574   -2.7516 O   0  0  0  0  0  0  0  0  0  0  0  0
   -1.2144    0.9844   -3.5351 C   0  0  0  0  0  0  0  0  0  0  0  0
   -3.0276   -0.6384   -3.5965 C   0  0  0  0  0  0  0  0  0  0  0  0
   -2.3559    0.4583   -4.1688 C   0  0  0  0  0  0  0  0  0  0  0  0
   -2.9149    1.1447   -5.6106 Cl  0  0  0  0  0  0  0  0  0  0  0  0
   -0.0156   -0.7239   -0.1379 H   0  0  0  0  0  0  0  0  0  0  0  0
    0.0180   -3.1264    0.2681 H   0  0  0  0  0  0  0  0  0  0  0  0
   -1.2619   -3.4024   -0.9057 H   0  0  0  0  0  0  0  0  0  0  0  0
   -1.4804   -1.5206    1.6244 H   0  0  0  0  0  0  0  0  0  0  0  0
   -2.8250   -1.7282    0.4942 H   0  0  0  0  0  0  0  0  0  0  0  0
   -1.4755    0.7564    1.2224 H   0  0  0  0  0  0  0  0  0  0  0  0
   -2.9694    0.2712    1.7031 H   0  0  0  0  0  0  0  0  0  0  0  0
    0.0832    0.8172   -1.8992 H   0  0  0  0  0  0  0  0  0  0  0  0
   -3.0642   -2.0023   -2.0052 H   0  0  0  0  0  0  0  0  0  0  0  0
    2.4955   -2.3479   -2.2812 H   0  0  0  0  0  0  0  0  0  0  0  0
   -0.7151    1.7803   -3.9401 H   0  0  0  0  0  0  0  0  0  0  0  0
   -3.8590   -1.0310   -4.0482 H   0  0  0  0  0  0  0  0  0  0  0  0
  1  2  1  0  0  0  0 
  1  3  1  0  0  0  0 
  1  4  1  0  0  0  0 
  2  5  1  0  0  0  0 
  3  6  1  0  0  0  0 
  4  7  2  0  0  0  0 
  4  8  1  0  0  0  0 
  5  9  1  0  0  0  0 
  5 10  2  0  0  0  0 
  7 11  1  0  0  0  0 
  8 12  2  0  0  0  0 
 11 13  2  0  0  0  0 
 12 13  1  0  0  0  0 
 13 14  1  0  0  0  0 
  1 15  1  0  0  0  0 
  2 16  1  0  0  0  0 
  2 17  1  0  0  0  0 
  3 18  1  0  0  0  0 
  3 19  1  0  0  0  0 
  6 20  1  0  0  0  0 
  6 21  1  0  0  0  0 
  7 22  1  0  0  0  0 
  8 23  1  0  0  0  0 
  9 24  1  0  0  0  0 
 11 25  1  0  0  0  0 
 12 26  1  0  0  0  0 
M  END
> <cdk:Title>
baclofen

> <Conformer>
1

> <SuperDrugID>
SD000235

$$$$
