procymate
  CDK     0628171801

 32 32  0  0  0  0  0  0  0  0999 V2000
   -2.6020   -1.6095    2.9547 N   0  0  0  0  0  0  0  0  0  0  0  0
   -1.4586   -1.1291    2.4454 C   0  0  0  0  0  0  0  0  0  0  0  0
   -1.1791   -1.3775    1.1347 O   0  0  0  0  0  0  0  0  0  0  0  0
   -0.6920   -0.4796    3.1916 O   0  0  0  0  0  0  0  0  0  0  0  0
   -0.0566   -0.9207    0.3564 C   0  0  2  0  0  0  0  0  0  0  0  0
   -0.6366   -0.0577   -0.8048 C   0  0  2  0  0  0  0  0  0  0  0  0
    0.4172    0.6644   -1.6766 C   0  0  0  0  0  0  0  0  0  0  0  0
    0.8222   -2.1473   -0.0710 C   0  0  2  0  0  0  0  0  0  0  0  0
    1.6892   -5.0477    0.0237 C   0  0  2  0  0  0  0  0  0  0  0  0
    0.9226   -4.4744   -1.1943 C   0  0  2  0  0  0  0  0  0  0  0  0
    0.0193   -3.2787   -0.7932 C   0  0  2  0  0  0  0  0  0  0  0  0
    1.5931   -2.7428    1.1513 C   0  0  1  0  0  0  0  0  0  0  0  0
    2.4942   -3.9425    0.7535 C   0  0  1  0  0  0  0  0  0  0  0  0
   -2.8263   -1.4471    3.8847 H   0  0  0  0  0  0  0  0  0  0  0  0
   -3.2085   -2.1187    2.3937 H   0  0  0  0  0  0  0  0  0  0  0  0
    0.5675   -0.2512    0.9581 H   0  0  0  0  0  0  0  0  0  0  0  0
   -1.2758    0.7126   -0.3636 H   0  0  0  0  0  0  0  0  0  0  0  0
   -1.2729   -0.6681   -1.4487 H   0  0  0  0  0  0  0  0  0  0  0  0
   -0.0798    1.3656   -2.3505 H   0  0  0  0  0  0  0  0  0  0  0  0
    0.9746   -0.0509   -2.2821 H   0  0  0  0  0  0  0  0  0  0  0  0
    1.1148    1.2234   -1.0497 H   0  0  0  0  0  0  0  0  0  0  0  0
    1.5834   -1.7837   -0.7672 H   0  0  0  0  0  0  0  0  0  0  0  0
    2.3730   -5.8302   -0.3154 H   0  0  0  0  0  0  0  0  0  0  0  0
    0.9801   -5.5034    0.7208 H   0  0  0  0  0  0  0  0  0  0  0  0
    0.3071   -5.2609   -1.6370 H   0  0  0  0  0  0  0  0  0  0  0  0
    1.6412   -4.1470   -1.9516 H   0  0  0  0  0  0  0  0  0  0  0  0
   -0.4470   -2.8874   -1.6993 H   0  0  0  0  0  0  0  0  0  0  0  0
   -0.7767   -3.6460   -0.1394 H   0  0  0  0  0  0  0  0  0  0  0  0
    2.2271   -1.9728    1.5994 H   0  0  0  0  0  0  0  0  0  0  0  0
    0.8824   -3.0735    1.9149 H   0  0  0  0  0  0  0  0  0  0  0  0
    2.9556   -4.3639    1.6515 H   0  0  0  0  0  0  0  0  0  0  0  0
    3.2978   -3.5898    0.1004 H   0  0  0  0  0  0  0  0  0  0  0  0
  1  2  1  0  0  0  0 
  2  3  1  0  0  0  0 
  2  4  2  0  0  0  0 
  5  3  1  0  0  0  0 
  5  6  1  0  0  0  0 
  6  7  1  0  0  0  0 
  5  8  1  0  0  0  0 
 11  8  1  0  0  0  0 
  8 12  1  0  0  0  0 
  9 10  1  0  0  0  0 
 10 11  1  0  0  0  0 
 12 13  1  0  0  0  0 
  9 13  1  0  0  0  0 
 14  1  1  0  0  0  0 
 15  1  1  0  0  0  0 
 16  5  1  0  0  0  0 
 17  6  1  0  0  0  0 
 18  6  1  0  0  0  0 
 19  7  1  0  0  0  0 
 20  7  1  0  0  0  0 
 21  7  1  0  0  0  0 
 22  8  1  0  0  0  0 
 23  9  1  0  0  0  0 
 24  9  1  0  0  0  0 
 25 10  1  0  0  0  0 
 26 10  1  0  0  0  0 
 27 11  1  0  0  0  0 
 28 11  1  0  0  0  0 
 29 12  1  0  0  0  0 
 30 12  1  0  0  0  0 
 31 13  1  0  0  0  0 
 32 13  1  0  0  0  0 
M  END
> <cdk:Title>
procymate

> <Conformer>
1

> <SuperDrugID>
SD003008

$$$$
