dimethylaminopropionylphenothiazine
  CDK     0628171802

 39 41  0  0  0  0  0  0  0  0999 V2000
   -0.0240    0.5296    0.3353 C   0  0  0  0  0  0  0  0  0  0  0  0
    0.8338   -0.5528   -0.2597 C   0  0  1  0  0  0  0  0  0  0  0  0
   -0.7671    0.1339    1.2669 O   0  0  0  0  0  0  0  0  0  0  0  0
   -0.0254    1.8869   -0.0053 N   0  0  0  0  0  0  0  0  0  0  0  0
    1.8721   -1.1022    0.6866 N   0  0  2  0  0  0  0  0  0  0  0  0
   -0.0446   -1.6607   -0.9056 C   0  0  0  0  0  0  0  0  0  0  0  0
    0.8116    2.4119   -0.9778 C   0  0  0  0  0  0  0  0  0  0  0  0
   -0.7734    2.8020    0.7296 C   0  0  0  0  0  0  0  0  0  0  0  0
    1.4090   -1.8462    1.8992 C   0  0  0  0  0  0  0  0  0  0  0  0
    2.9775   -0.1472    1.0038 C   0  0  0  0  0  0  0  0  0  0  0  0
    1.7384    3.4269   -0.6242 C   0  0  0  0  0  0  0  0  0  0  0  0
    0.7680    1.9857   -2.3261 C   0  0  0  0  0  0  0  0  0  0  0  0
   -0.1341    3.9347    1.2985 C   0  0  0  0  0  0  0  0  0  0  0  0
   -2.1667    2.6474    0.9342 C   0  0  0  0  0  0  0  0  0  0  0  0
    1.5840    4.1752    0.9665 S   0  0  0  0  0  0  0  0  0  0  0  0
    2.7045    3.8770   -1.5436 C   0  0  0  0  0  0  0  0  0  0  0  0
    1.7141    2.4541   -3.2563 C   0  0  0  0  0  0  0  0  0  0  0  0
   -0.8590    4.8696    2.0627 C   0  0  0  0  0  0  0  0  0  0  0  0
   -2.8953    3.5886    1.6845 C   0  0  0  0  0  0  0  0  0  0  0  0
    2.7020    3.3730   -2.8571 C   0  0  0  0  0  0  0  0  0  0  0  0
   -2.2429    4.7007    2.2459 C   0  0  0  0  0  0  0  0  0  0  0  0
    1.4078   -0.1713   -1.1032 H   0  0  0  0  0  0  0  0  0  0  0  0
    0.5882   -2.4386   -1.3372 H   0  0  0  0  0  0  0  0  0  0  0  0
   -0.7122   -2.1204   -0.1762 H   0  0  0  0  0  0  0  0  0  0  0  0
   -0.6593   -1.2384   -1.7033 H   0  0  0  0  0  0  0  0  0  0  0  0
    0.6659   -2.6010    1.6450 H   0  0  0  0  0  0  0  0  0  0  0  0
    2.2498   -2.3724    2.3574 H   0  0  0  0  0  0  0  0  0  0  0  0
    0.9821   -1.1699    2.6437 H   0  0  0  0  0  0  0  0  0  0  0  0
    3.3864    0.2986    0.0948 H   0  0  0  0  0  0  0  0  0  0  0  0
    3.7982   -0.6679    1.5016 H   0  0  0  0  0  0  0  0  0  0  0  0
    2.6248    0.6556    1.6556 H   0  0  0  0  0  0  0  0  0  0  0  0
    0.0568    1.3157   -2.6309 H   0  0  0  0  0  0  0  0  0  0  0  0
   -2.6602    1.8463    0.5351 H   0  0  0  0  0  0  0  0  0  0  0  0
    3.4004    4.5748   -1.2700 H   0  0  0  0  0  0  0  0  0  0  0  0
    1.6871    2.1199   -4.2225 H   0  0  0  0  0  0  0  0  0  0  0  0
   -0.3912    5.6773    2.4787 H   0  0  0  0  0  0  0  0  0  0  0  0
   -3.9020    3.4670    1.8197 H   0  0  0  0  0  0  0  0  0  0  0  0
    3.4106    3.6816   -3.5275 H   0  0  0  0  0  0  0  0  0  0  0  0
   -2.7775    5.3881    2.7838 H   0  0  0  0  0  0  0  0  0  0  0  0
  2  1  1  0  0  0  0 
  1  3  2  0  0  0  0 
  1  4  1  0  0  0  0 
  2  5  1  0  0  0  0 
  2  6  1  0  0  0  0 
  4  7  1  0  0  0  0 
  4  8  1  0  0  0  0 
  5  9  1  0  0  0  0 
  5 10  1  0  0  0  0 
  7 11  2  0  0  0  0 
  7 12  1  0  0  0  0 
  8 13  2  0  0  0  0 
  8 14  1  0  0  0  0 
 11 15  1  0  0  0  0 
 11 16  1  0  0  0  0 
 12 17  2  0  0  0  0 
 13 15  1  0  0  0  0 
 13 18  1  0  0  0  0 
 14 19  2  0  0  0  0 
 16 20  2  0  0  0  0 
 17 20  1  0  0  0  0 
 18 21  2  0  0  0  0 
 19 21  1  0  0  0  0 
  2 22  1  0  0  0  0 
  6 23  1  0  0  0  0 
  6 24  1  0  0  0  0 
  6 25  1  0  0  0  0 
  9 26  1  0  0  0  0 
  9 27  1  0  0  0  0 
  9 28  1  0  0  0  0 
 10 29  1  0  0  0  0 
 10 30  1  0  0  0  0 
 10 31  1  0  0  0  0 
 12 32  1  0  0  0  0 
 14 33  1  0  0  0  0 
 16 34  1  0  0  0  0 
 17 35  1  0  0  0  0 
 18 36  1  0  0  0  0 
 19 37  1  0  0  0  0 
 20 38  1  0  0  0  0 
 21 39  1  0  0  0  0 
M  END
> <cdk:Title>
dimethylaminopropionylphenothiazine

> <Conformer>
1

> <SuperDrugID>
SD003751

$$$$
