flupirtine
  CDK     0628171801

 39 40  0  0  0  0  0  0  0  0999 V2000
    4.1657   -6.4314    0.6467 N   0  0  0  0  0  0  0  0  0  0  0  0
    4.6828   -7.4262   -0.1158 C   0  0  0  0  0  0  0  0  0  0  0  0
    3.3517   -5.3867    0.3101 C   0  0  0  0  0  0  0  0  0  0  0  0
    5.4750   -8.2978    0.5661 O   0  0  0  0  0  0  0  0  0  0  0  0
    4.4962   -7.5388   -1.3488 O   0  0  0  0  0  0  0  0  0  0  0  0
    3.3377   -4.2776    1.1881 C   0  0  0  0  0  0  0  0  0  0  0  0
    2.5094   -5.3291   -0.8284 C   0  0  0  0  0  0  0  0  0  0  0  0
    6.2085   -9.4300    0.0832 C   0  0  2  0  0  0  0  0  0  0  0  0
    4.0711   -4.2132    2.3158 N   0  0  0  0  0  0  0  0  0  0  0  0
    2.5562   -3.2071    0.9179 N   0  0  0  0  0  0  0  0  0  0  0  0
    1.7118   -4.1924   -1.0738 C   0  0  0  0  0  0  0  0  0  0  0  0
    5.7241  -10.6960    0.8108 C   0  0  0  0  0  0  0  0  0  0  0  0
    1.7436   -3.1151   -0.1665 C   0  0  0  0  0  0  0  0  0  0  0  0
    0.9672   -2.0129   -0.3586 N   0  0  0  0  0  0  0  0  0  0  0  0
    1.0294   -0.8495    0.4713 C   0  0  2  0  0  0  0  0  0  0  0  0
   -0.1295    0.0544    0.2759 C   0  0  0  0  0  0  0  0  0  0  0  0
    0.0273    1.3207   -0.3352 C   0  0  0  0  0  0  0  0  0  0  0  0
   -1.4100   -0.3195    0.7485 C   0  0  0  0  0  0  0  0  0  0  0  0
   -1.0625    2.2046   -0.4432 C   0  0  0  0  0  0  0  0  0  0  0  0
   -2.4987    0.5663    0.6455 C   0  0  0  0  0  0  0  0  0  0  0  0
   -2.3252    1.8319    0.0547 C   0  0  0  0  0  0  0  0  0  0  0  0
   -3.3307    2.6595   -0.0304 F   0  0  0  0  0  0  0  0  0  0  0  0
    4.4472   -6.4523    1.5746 H   0  0  0  0  0  0  0  0  0  0  0  0
    2.4527   -6.1124   -1.4819 H   0  0  0  0  0  0  0  0  0  0  0  0
    7.2666   -9.2633    0.3038 H   0  0  0  0  0  0  0  0  0  0  0  0
    6.0939   -9.5674   -0.9947 H   0  0  0  0  0  0  0  0  0  0  0  0
    4.0154   -3.4307    2.8875 H   0  0  0  0  0  0  0  0  0  0  0  0
    4.6492   -4.9512    2.5648 H   0  0  0  0  0  0  0  0  0  0  0  0
    1.1113   -4.1568   -1.9012 H   0  0  0  0  0  0  0  0  0  0  0  0
    5.6996  -10.5244    1.8877 H   0  0  0  0  0  0  0  0  0  0  0  0
    6.3978  -11.5280    0.6002 H   0  0  0  0  0  0  0  0  0  0  0  0
    4.7195  -10.9586    0.4740 H   0  0  0  0  0  0  0  0  0  0  0  0
    0.3693   -2.0034   -1.1229 H   0  0  0  0  0  0  0  0  0  0  0  0
    1.9711   -0.3362    0.2522 H   0  0  0  0  0  0  0  0  0  0  0  0
    1.0520   -1.1328    1.5280 H   0  0  0  0  0  0  0  0  0  0  0  0
    0.9386    1.6123   -0.6969 H   0  0  0  0  0  0  0  0  0  0  0  0
   -1.5538   -1.2325    1.1882 H   0  0  0  0  0  0  0  0  0  0  0  0
   -0.9314    3.1199   -0.8800 H   0  0  0  0  0  0  0  0  0  0  0  0
   -3.4141    0.2895    1.0068 H   0  0  0  0  0  0  0  0  0  0  0  0
  1  2  1  0  0  0  0 
  1  3  1  0  0  0  0 
  2  4  1  0  0  0  0 
  2  5  2  0  0  0  0 
  3  6  2  0  0  0  0 
  3  7  1  0  0  0  0 
  4  8  1  0  0  0  0 
  6  9  1  0  0  0  0 
  6 10  1  0  0  0  0 
  7 11  2  0  0  0  0 
  8 12  1  0  0  0  0 
 10 13  2  0  0  0  0 
 11 13  1  0  0  0  0 
 13 14  1  0  0  0  0 
 14 15  1  0  0  0  0 
 15 16  1  0  0  0  0 
 16 17  2  0  0  0  0 
 16 18  1  0  0  0  0 
 17 19  1  0  0  0  0 
 18 20  2  0  0  0  0 
 19 21  2  0  0  0  0 
 20 21  1  0  0  0  0 
 21 22  1  0  0  0  0 
 23  1  1  0  0  0  0 
 24  7  1  0  0  0  0 
 25  8  1  0  0  0  0 
 26  8  1  0  0  0  0 
 27  9  1  0  0  0  0 
 28  9  1  0  0  0  0 
 29 11  1  0  0  0  0 
 30 12  1  0  0  0  0 
 31 12  1  0  0  0  0 
 32 12  1  0  0  0  0 
 33 14  1  0  0  0  0 
 34 15  1  0  0  0  0 
 35 15  1  0  0  0  0 
 36 17  1  0  0  0  0 
 37 18  1  0  0  0  0 
 38 19  1  0  0  0  0 
 39 20  1  0  0  0  0 
M  END
> <cdk:Title>
flupirtine

> <Conformer>
1

> <SuperDrugID>
SD001088

$$$$
