fluphenazine enanthate
  CDK     0628171801

 76 79  0  0  0  0  0  0  0  0999 V2000
    7.0340  -10.2749    9.2151 C   0  0  0  0  0  0  0  0  0  0  0  0
    8.2110  -10.5234    8.2423 C   0  0  2  0  0  0  0  0  0  0  0  0
    7.9478   -9.9242    6.8347 C   0  0  1  0  0  0  0  0  0  0  0  0
    9.1165  -10.1561    5.8360 C   0  0  2  0  0  0  0  0  0  0  0  0
    8.8277   -9.5114    4.4531 C   0  0  1  0  0  0  0  0  0  0  0  0
    9.9525   -9.7466    3.4069 C   0  0  2  0  0  0  0  0  0  0  0  0
    9.7210   -8.9952    2.1559 C   0  0  0  0  0  0  0  0  0  0  0  0
    9.6243   -7.7453    2.2166 O   0  0  0  0  0  0  0  0  0  0  0  0
    9.6358   -9.6428    0.9506 O   0  0  0  0  0  0  0  0  0  0  0  0
    9.3759   -8.9792   -0.2964 C   0  0  1  0  0  0  0  0  0  0  0  0
    9.4128   -9.9293   -1.5172 C   0  0  2  0  0  0  0  0  0  0  0  0
    8.8171   -9.1617   -2.7197 N   0  0  1  0  0  0  0  0  0  0  0  0
    9.7905   -8.0846   -3.3154 C   0  0  1  0  0  0  0  0  0  0  0  0
    9.2249   -7.3448   -4.5846 C   0  0  1  0  0  0  0  0  0  0  0  0
    8.8526   -8.3248   -5.6547 N   0  0  2  0  0  0  0  0  0  0  0  0
    8.4496   -7.6478   -6.9333 C   0  0  2  0  0  0  0  0  0  0  0  0
    8.5362   -8.5489   -8.1963 C   0  0  2  0  0  0  0  0  0  0  0  0
    9.9251   -9.2296   -8.3760 C   0  0  2  0  0  0  0  0  0  0  0  0
   10.0837   -9.9660   -9.6300 N   0  0  0  0  0  0  0  0  0  0  0  0
    9.1345  -10.9295   -9.9872 C   0  0  0  0  0  0  0  0  0  0  0  0
    8.5711  -11.8221   -9.0366 C   0  0  0  0  0  0  0  0  0  0  0  0
    7.5461  -12.7220   -9.3888 C   0  0  0  0  0  0  0  0  0  0  0  0
    7.0653  -12.7573  -10.7079 C   0  0  0  0  0  0  0  0  0  0  0  0
    7.6328  -11.9154  -11.6795 C   0  0  0  0  0  0  0  0  0  0  0  0
    8.6647  -11.0259  -11.3234 C   0  0  0  0  0  0  0  0  0  0  0  0
    9.3839  -10.0215  -12.5722 S   0  0  0  0  0  0  0  0  0  0  0  0
   10.9493   -9.6035  -11.8938 C   0  0  0  0  0  0  0  0  0  0  0  0
   11.1421   -9.6478  -10.4908 C   0  0  0  0  0  0  0  0  0  0  0  0
   12.4447   -9.3411  -10.0082 C   0  0  0  0  0  0  0  0  0  0  0  0
   13.5011   -8.9319  -10.8625 C   0  0  0  0  0  0  0  0  0  0  0  0
   13.2448   -8.8822  -12.2515 C   0  0  0  0  0  0  0  0  0  0  0  0
   11.9874   -9.2333  -12.7664 C   0  0  0  0  0  0  0  0  0  0  0  0
   14.8339   -8.5713  -10.2909 C   0  0  2  0  0  0  0  0  0  0  0  0
   15.3862   -9.6591   -9.6605 F   0  0  0  0  0  0  0  0  0  0  0  0
   14.6932   -7.5556   -9.3767 F   0  0  0  0  0  0  0  0  0  0  0  0
   15.7611   -8.1388  -11.2115 F   0  0  0  0  0  0  0  0  0  0  0  0
    7.8699   -9.3527   -5.1770 C   0  0  2  0  0  0  0  0  0  0  0  0
    8.3905  -10.1092   -3.8938 C   0  0  1  0  0  0  0  0  0  0  0  0
    6.1192  -10.7335    8.8324 H   0  0  0  0  0  0  0  0  0  0  0  0
    6.8663   -9.2028    9.3423 H   0  0  0  0  0  0  0  0  0  0  0  0
    7.2590  -10.7096   10.1915 H   0  0  0  0  0  0  0  0  0  0  0  0
    8.3753  -11.6019    8.1589 H   0  0  0  0  0  0  0  0  0  0  0  0
    9.1137  -10.0744    8.6666 H   0  0  0  0  0  0  0  0  0  0  0  0
    7.0365  -10.3719    6.4260 H   0  0  0  0  0  0  0  0  0  0  0  0
    7.7779   -8.8481    6.9394 H   0  0  0  0  0  0  0  0  0  0  0  0
    9.2734  -11.2304    5.7075 H   0  0  0  0  0  0  0  0  0  0  0  0
   10.0338   -9.7229    6.2469 H   0  0  0  0  0  0  0  0  0  0  0  0
    7.8937   -9.9178    4.0560 H   0  0  0  0  0  0  0  0  0  0  0  0
    8.6883   -8.4365    4.6040 H   0  0  0  0  0  0  0  0  0  0  0  0
   10.0202  -10.8136    3.1822 H   0  0  0  0  0  0  0  0  0  0  0  0
   10.9121   -9.4314    3.8233 H   0  0  0  0  0  0  0  0  0  0  0  0
    8.3918   -8.5057   -0.2377 H   0  0  0  0  0  0  0  0  0  0  0  0
   10.1283   -8.2004   -0.4351 H   0  0  0  0  0  0  0  0  0  0  0  0
    8.8464  -10.8473   -1.2150 H   0  0  0  0  0  0  0  0  0  0  0  0
   10.4712  -10.2742   -1.6424 H   0  0  0  0  0  0  0  0  0  0  0  0
   10.0570   -7.2608   -2.6082 H   0  0  0  0  0  0  0  0  0  0  0  0
   10.7825   -8.4954   -3.6314 H   0  0  0  0  0  0  0  0  0  0  0  0
    8.3467   -6.7644   -4.2876 H   0  0  0  0  0  0  0  0  0  0  0  0
    9.9885   -6.6482   -4.9457 H   0  0  0  0  0  0  0  0  0  0  0  0
    9.1024   -6.7903   -7.1209 H   0  0  0  0  0  0  0  0  0  0  0  0
    7.4307   -7.2593   -6.8467 H   0  0  0  0  0  0  0  0  0  0  0  0
    8.3287   -7.9354   -9.0780 H   0  0  0  0  0  0  0  0  0  0  0  0
    7.7492   -9.3005   -8.1452 H   0  0  0  0  0  0  0  0  0  0  0  0
   10.1170   -9.9003   -7.5355 H   0  0  0  0  0  0  0  0  0  0  0  0
   10.6532   -8.4188   -8.2930 H   0  0  0  0  0  0  0  0  0  0  0  0
    8.8993  -11.8240   -8.0694 H   0  0  0  0  0  0  0  0  0  0  0  0
    7.1477  -13.3510   -8.6862 H   0  0  0  0  0  0  0  0  0  0  0  0
    6.3097  -13.4003  -10.9602 H   0  0  0  0  0  0  0  0  0  0  0  0
    7.2928  -11.9534  -12.6435 H   0  0  0  0  0  0  0  0  0  0  0  0
   12.6357   -9.4144   -9.0057 H   0  0  0  0  0  0  0  0  0  0  0  0
   13.9750   -8.5984  -12.9082 H   0  0  0  0  0  0  0  0  0  0  0  0
   11.8353   -9.2154  -13.7781 H   0  0  0  0  0  0  0  0  0  0  0  0
    7.6814  -10.0956   -5.9548 H   0  0  0  0  0  0  0  0  0  0  0  0
    6.9218   -8.8673   -4.9280 H   0  0  0  0  0  0  0  0  0  0  0  0
    9.2097  -10.7806   -4.2574 H   0  0  0  0  0  0  0  0  0  0  0  0
    7.5626  -10.8140   -3.6266 H   0  0  0  0  0  0  0  0  0  0  0  0
  1  2  1  0  0  0  0 
  2  3  1  0  0  0  0 
  3  4  1  0  0  0  0 
  4  5  1  0  0  0  0 
  5  6  1  0  0  0  0 
  6  7  1  0  0  0  0 
  7  8  2  0  0  0  0 
  7  9  1  0  0  0  0 
  9 10  1  0  0  0  0 
 10 11  1  0  0  0  0 
 11 12  1  0  0  0  0 
 12 13  1  0  0  0  0 
 13 14  1  0  0  0  0 
 14 15  1  0  0  0  0 
 15 16  1  0  0  0  0 
 16 17  1  0  0  0  0 
 17 18  1  0  0  0  0 
 18 19  1  0  0  0  0 
 19 20  1  0  0  0  0 
 20 21  2  0  0  0  0 
 21 22  1  0  0  0  0 
 22 23  2  0  0  0  0 
 23 24  1  0  0  0  0 
 24 25  2  0  0  0  0 
 20 25  1  0  0  0  0 
 25 26  1  0  0  0  0 
 26 27  1  0  0  0  0 
 27 28  2  0  0  0  0 
 19 28  1  0  0  0  0 
 28 29  1  0  0  0  0 
 29 30  2  0  0  0  0 
 30 31  1  0  0  0  0 
 31 32  2  0  0  0  0 
 27 32  1  0  0  0  0 
 30 33  1  0  0  0  0 
 33 34  1  0  0  0  0 
 33 35  1  0  0  0  0 
 33 36  1  0  0  0  0 
 15 37  1  0  0  0  0 
 37 38  1  0  0  0  0 
 12 38  1  0  0  0  0 
  1 39  1  0  0  0  0 
  1 40  1  0  0  0  0 
  1 41  1  0  0  0  0 
  2 42  1  0  0  0  0 
  2 43  1  0  0  0  0 
  3 44  1  0  0  0  0 
  3 45  1  0  0  0  0 
  4 46  1  0  0  0  0 
  4 47  1  0  0  0  0 
  5 48  1  0  0  0  0 
  5 49  1  0  0  0  0 
  6 50  1  0  0  0  0 
  6 51  1  0  0  0  0 
 10 52  1  0  0  0  0 
 10 53  1  0  0  0  0 
 11 54  1  0  0  0  0 
 11 55  1  0  0  0  0 
 13 56  1  0  0  0  0 
 13 57  1  0  0  0  0 
 14 58  1  0  0  0  0 
 14 59  1  0  0  0  0 
 16 60  1  0  0  0  0 
 16 61  1  0  0  0  0 
 17 62  1  0  0  0  0 
 17 63  1  0  0  0  0 
 18 64  1  0  0  0  0 
 18 65  1  0  0  0  0 
 21 66  1  0  0  0  0 
 22 67  1  0  0  0  0 
 23 68  1  0  0  0  0 
 24 69  1  0  0  0  0 
 29 70  1  0  0  0  0 
 31 71  1  0  0  0  0 
 32 72  1  0  0  0  0 
 37 73  1  0  0  0  0 
 37 74  1  0  0  0  0 
 38 75  1  0  0  0  0 
 38 76  1  0  0  0  0 
M  END
> <cdk:Title>
fluphenazine enanthate

> <Conformer>
1

> <SuperDrugID>
SD001087

$$$$
