cetrorelix
  CDK     0628171802

194199  0  0  0  0  0  0  0  0999 V2000
   -3.1231   -0.7965    7.1798 C   0  0  0  0  0  0  0  0  0  0  0  0
   -0.3463   -0.5677    9.4040 C   0  0  2  0  0  0  0  0  0  0  0  0
   -1.5865    2.2518    7.1237 N   0  0  0  0  0  0  0  0  0  0  0  0
   -1.9325    3.9829    2.3938 C   0  0  1  0  0  0  0  0  0  0  0  0
    1.3145    3.1004    3.0290 N   0  0  0  0  0  0  0  0  0  0  0  0
    3.8313    1.5794    3.7257 N   0  0  0  0  0  0  0  0  0  0  0  0
    8.2599    0.2307    3.7589 C   0  0  1  0  0  0  0  0  0  0  0  0
    9.4394   -1.4442    9.1045 C   0  0  0  0  0  0  0  0  0  0  0  0
   10.2885    3.8068    9.0122 N   0  0  0  0  0  0  0  0  0  0  0  0
    8.9249    5.0645    5.1726 O   0  0  0  0  0  0  0  0  0  0  0  0
    8.7215    5.5947    1.3576 C   0  0  0  0  0  0  0  0  0  0  0  0
    7.0530    8.1236    1.6309 N   0  0  0  0  0  0  0  0  0  0  0  0
   -2.5910   -1.1269    6.0937 O   0  0  0  0  0  0  0  0  0  0  0  0
   -4.5558   -1.0459    7.3966 C   0  0  0  0  0  0  0  0  0  0  0  0
   -1.0132    0.1144    8.1636 C   0  0  1  0  0  0  0  0  0  0  0  0
   -2.4149   -0.2053    8.1769 N   0  0  0  0  0  0  0  0  0  0  0  0
   -0.9443    1.6011    8.1409 C   0  0  0  0  0  0  0  0  0  0  0  0
   -0.3970    2.2401    9.0720 O   0  0  0  0  0  0  0  0  0  0  0  0
   -2.0344    3.6191    7.1397 C   0  0  2  0  0  0  0  0  0  0  0  0
   -3.5719    3.5277    7.4206 C   0  0  1  0  0  0  0  0  0  0  0  0
   -4.2850    4.8111    7.6872 C   0  0  0  0  0  0  0  0  0  0  0  0
   -4.0250    5.5609    8.8593 C   0  0  0  0  0  0  0  0  0  0  0  0
   -4.7445    6.7404    9.1342 C   0  0  0  0  0  0  0  0  0  0  0  0
   -5.7317    7.1939    8.2376 C   0  0  0  0  0  0  0  0  0  0  0  0
   -5.9910    6.4649    7.0623 C   0  0  0  0  0  0  0  0  0  0  0  0
   -5.2758    5.2842    6.7956 C   0  0  0  0  0  0  0  0  0  0  0  0
   -1.7280    4.3573    5.8830 C   0  0  0  0  0  0  0  0  0  0  0  0
   -2.0108    5.5793    5.8635 O   0  0  0  0  0  0  0  0  0  0  0  0
   -0.9133    4.3847    3.5088 C   0  0  1  0  0  0  0  0  0  0  0  0
   -1.1725    3.7572    4.7830 N   0  0  0  0  0  0  0  0  0  0  0  0
    0.4757    4.1848    2.9845 C   0  0  0  0  0  0  0  0  0  0  0  0
    0.9611    5.1357    2.3278 O   0  0  0  0  0  0  0  0  0  0  0  0
    1.2424    1.8661    3.7592 C   0  0  1  0  0  0  0  0  0  0  0  0
    0.0325    0.9749    3.3228 C   0  0  1  0  0  0  0  0  0  0  0  0
   -0.0576   -0.2209    4.0949 O   0  0  0  0  0  0  0  0  0  0  0  0
    2.5469    1.1302    3.6096 C   0  0  0  0  0  0  0  0  0  0  0  0
    2.5489   -0.0963    3.3481 O   0  0  0  0  0  0  0  0  0  0  0  0
    4.3994    2.8864    3.8998 C   0  0  1  0  0  0  0  0  0  0  0  0
    4.0039    3.6237    5.2179 C   0  0  1  0  0  0  0  0  0  0  0  0
    4.6025    4.9908    5.3099 C   0  0  0  0  0  0  0  0  0  0  0  0
    5.5885    5.3051    6.2759 C   0  0  0  0  0  0  0  0  0  0  0  0
    6.1757    6.5848    6.3175 C   0  0  0  0  0  0  0  0  0  0  0  0
    5.7937    7.5715    5.3907 C   0  0  0  0  0  0  0  0  0  0  0  0
    6.3929    8.7885    5.4178 O   0  0  0  0  0  0  0  0  0  0  0  0
    4.7969    7.2807    4.4416 C   0  0  0  0  0  0  0  0  0  0  0  0
    4.2103    6.0029    4.4012 C   0  0  0  0  0  0  0  0  0  0  0  0
    5.8815    2.7108    3.8311 C   0  0  0  0  0  0  0  0  0  0  0  0
    6.5619    3.4553    3.0859 O   0  0  0  0  0  0  0  0  0  0  0  0
    7.8642    1.4125    4.6950 C   0  0  1  0  0  0  0  0  0  0  0  0
    6.4688    1.7337    4.5845 N   0  0  0  0  0  0  0  0  0  0  0  0
    8.0958    1.0668    6.1226 C   0  0  0  0  0  0  0  0  0  0  0  0
    7.3693    0.2028    6.6714 O   0  0  0  0  0  0  0  0  0  0  0  0
   10.5913   -0.5870    8.3088 C   0  0  2  0  0  0  0  0  0  0  0  0
   12.0553   -1.2282    8.6901 C   0  0  0  0  0  0  0  0  0  0  0  0
   10.5592    0.9324    8.6431 C   0  0  1  0  0  0  0  0  0  0  0  0
    9.2420    1.6752    8.2577 C   0  0  2  0  0  0  0  0  0  0  0  0
    9.0624    1.7105    6.8330 N   0  0  0  0  0  0  0  0  0  0  0  0
    9.1746    3.0987    8.6674 C   0  0  0  0  0  0  0  0  0  0  0  0
    8.0588    3.6711    8.6050 O   0  0  0  0  0  0  0  0  0  0  0  0
   10.3540    5.2323    9.1308 C   0  0  1  0  0  0  0  0  0  0  0  0
   11.5202    5.6524   10.0806 C   0  0  1  0  0  0  0  0  0  0  0  0
   11.8068    7.1840   10.1604 C   0  0  1  0  0  0  0  0  0  0  0  0
   13.2371    7.5057   10.6646 C   0  0  1  0  0  0  0  0  0  0  0  0
   13.4689    8.8820   10.6188 N   0  0  0  0  0  0  0  0  0  0  0  0
   14.5712    9.5223   10.7841 C   0  0  0  0  0  0  0  0  0  0  0  0
   15.7246    8.9325   11.0356 N   0  0  0  0  0  0  0  0  0  0  0  0
   14.5566   10.8319   10.6714 N   0  0  0  0  0  0  0  0  0  0  0  0
   10.3966    5.8085    7.7467 C   0  0  0  0  0  0  0  0  0  0  0  0
    9.5601    6.7189    7.5262 O   0  0  0  0  0  0  0  0  0  0  0  0
    9.8384    5.7547    4.6606 C   0  0  0  0  0  0  0  0  0  0  0  0
   11.1347    5.9504    5.3625 C   0  0  2  0  0  0  0  0  0  0  0  0
   12.2923    5.3011    4.5592 C   0  0  2  0  0  0  0  0  0  0  0  0
   13.2574    4.8362    5.6512 C   0  0  2  0  0  0  0  0  0  0  0  0
   12.3086    4.4703    6.8027 C   0  0  2  0  0  0  0  0  0  0  0  0
   11.2351    5.4165    6.7049 N   0  0  0  0  0  0  0  0  0  0  0  0
    8.4962    6.4140    2.6532 C   0  0  1  0  0  0  0  0  0  0  0  0
    9.6870    6.3561    3.4491 N   0  0  0  0  0  0  0  0  0  0  0  0
    8.1471    7.8276    2.3557 C   0  0  0  0  0  0  0  0  0  0  0  0
    8.8333    8.7909    2.7719 O   0  0  0  0  0  0  0  0  0  0  0  0
   -0.6679   -2.0237    9.5010 C   0  0  0  0  0  0  0  0  0  0  0  0
   -1.5879   -2.4976   10.4657 C   0  0  0  0  0  0  0  0  0  0  0  0
   -1.9648   -3.8510   10.5017 C   0  0  0  0  0  0  0  0  0  0  0  0
   -1.4241   -4.7673    9.5751 C   0  0  0  0  0  0  0  0  0  0  0  0
   -0.4701   -4.3134    8.6192 C   0  0  0  0  0  0  0  0  0  0  0  0
   -0.1014   -2.9486    8.5949 C   0  0  0  0  0  0  0  0  0  0  0  0
    0.0848   -5.2360    7.7023 C   0  0  0  0  0  0  0  0  0  0  0  0
   -0.3131   -6.5847    7.7197 C   0  0  0  0  0  0  0  0  0  0  0  0
   -1.2672   -7.0276    8.6520 C   0  0  0  0  0  0  0  0  0  0  0  0
   -1.8183   -6.1249    9.5793 C   0  0  0  0  0  0  0  0  0  0  0  0
   -6.6074    8.6045    8.5699 Cl  0  0  0  0  0  0  0  0  0  0  0  0
   -3.3644    3.9799    2.8014 C   0  0  0  0  0  0  0  0  0  0  0  0
   -4.0074    2.7811    3.1914 C   0  0  0  0  0  0  0  0  0  0  0  0
   -5.3811    2.7681    3.4925 C   0  0  0  0  0  0  0  0  0  0  0  0
   -6.1076    3.9679    3.4009 C   0  0  0  0  0  0  0  0  0  0  0  0
   -5.4710    5.1159    3.0553 N   0  0  0  0  0  0  0  0  0  0  0  0
   -4.1446    5.1591    2.7662 C   0  0  0  0  0  0  0  0  0  0  0  0
    8.1704    0.5533    2.2382 C   0  0  1  0  0  0  0  0  0  0  0  0
    8.6528   -0.6368    1.3698 C   0  0  1  0  0  0  0  0  0  0  0  0
    8.6027   -0.3532   -0.0299 N   0  0  0  0  0  0  0  0  0  0  0  0
    9.0120   -1.2197   -0.9937 C   0  0  0  0  0  0  0  0  0  0  0  0
    9.4760   -2.3539   -0.7310 O   0  0  0  0  0  0  0  0  0  0  0  0
    8.9206   -0.8551   -2.2826 N   0  0  0  0  0  0  0  0  0  0  0  0
   -0.6833   -0.0562   10.3120 H   0  0  0  0  0  0  0  0  0  0  0  0
    0.7398   -0.4414    9.3575 H   0  0  0  0  0  0  0  0  0  0  0  0
   -1.8769    1.7080    6.3729 H   0  0  0  0  0  0  0  0  0  0  0  0
   -1.8209    4.6739    1.5508 H   0  0  0  0  0  0  0  0  0  0  0  0
   -1.6816    3.0034    1.9835 H   0  0  0  0  0  0  0  0  0  0  0  0
    2.1151    3.2027    2.4914 H   0  0  0  0  0  0  0  0  0  0  0  0
    4.4926    0.8761    3.6265 H   0  0  0  0  0  0  0  0  0  0  0  0
    9.2919   -0.0588    3.9848 H   0  0  0  0  0  0  0  0  0  0  0  0
    7.6205   -0.6316    3.9705 H   0  0  0  0  0  0  0  0  0  0  0  0
    9.5482   -2.5549    9.0150 H   0  0  0  0  0  0  0  0  0  0  0  0
    9.3985   -1.2585   10.2091 H   0  0  0  0  0  0  0  0  0  0  0  0
    8.3936   -1.2619    8.7533 H   0  0  0  0  0  0  0  0  0  0  0  0
   11.1218    3.3201    9.1075 H   0  0  0  0  0  0  0  0  0  0  0  0
    9.0239    4.5736    1.5990 H   0  0  0  0  0  0  0  0  0  0  0  0
    9.4965    6.0499    0.7358 H   0  0  0  0  0  0  0  0  0  0  0  0
    7.7955    5.5452    0.7831 H   0  0  0  0  0  0  0  0  0  0  0  0
    6.8204    9.0469    1.4559 H   0  0  0  0  0  0  0  0  0  0  0  0
    6.4923    7.4144    1.2809 H   0  0  0  0  0  0  0  0  0  0  0  0
   -5.0651   -0.1039    7.6074 H   0  0  0  0  0  0  0  0  0  0  0  0
   -4.6864   -1.7189    8.2461 H   0  0  0  0  0  0  0  0  0  0  0  0
   -5.0142   -1.5007    6.5168 H   0  0  0  0  0  0  0  0  0  0  0  0
   -0.5152   -0.2538    7.2601 H   0  0  0  0  0  0  0  0  0  0  0  0
   -2.9015    0.0269    8.9840 H   0  0  0  0  0  0  0  0  0  0  0  0
   -1.5557    4.1616    7.9610 H   0  0  0  0  0  0  0  0  0  0  0  0
   -4.0386    3.0026    6.5796 H   0  0  0  0  0  0  0  0  0  0  0  0
   -3.7383    2.8950    8.2993 H   0  0  0  0  0  0  0  0  0  0  0  0
   -3.3194    5.2440    9.5293 H   0  0  0  0  0  0  0  0  0  0  0  0
   -4.5501    7.2610    9.9927 H   0  0  0  0  0  0  0  0  0  0  0  0
   -6.7037    6.7814    6.4002 H   0  0  0  0  0  0  0  0  0  0  0  0
   -5.4917    4.7630    5.9475 H   0  0  0  0  0  0  0  0  0  0  0  0
   -1.0401    5.4668    3.6289 H   0  0  0  0  0  0  0  0  0  0  0  0
   -0.9593    2.8188    4.8662 H   0  0  0  0  0  0  0  0  0  0  0  0
    1.1287    2.1010    4.8203 H   0  0  0  0  0  0  0  0  0  0  0  0
   -0.9143    1.4808    3.4645 H   0  0  0  0  0  0  0  0  0  0  0  0
    0.1210    0.7073    2.2659 H   0  0  0  0  0  0  0  0  0  0  0  0
   -0.8005   -0.7210    3.6947 H   0  0  0  0  0  0  0  0  0  0  0  0
    4.0818    3.4900    3.0461 H   0  0  0  0  0  0  0  0  0  0  0  0
    2.9206    3.7287    5.2784 H   0  0  0  0  0  0  0  0  0  0  0  0
    4.3020    3.0085    6.0706 H   0  0  0  0  0  0  0  0  0  0  0  0
    5.8934    4.6007    6.9511 H   0  0  0  0  0  0  0  0  0  0  0  0
    6.8909    6.7940    7.0169 H   0  0  0  0  0  0  0  0  0  0  0  0
    6.0828    9.2524    4.6120 H   0  0  0  0  0  0  0  0  0  0  0  0
    4.5034    7.9976    3.7742 H   0  0  0  0  0  0  0  0  0  0  0  0
    3.4986    5.8151    3.6923 H   0  0  0  0  0  0  0  0  0  0  0  0
    8.4847    2.2778    4.4368 H   0  0  0  0  0  0  0  0  0  0  0  0
    5.8635    1.1804    5.1067 H   0  0  0  0  0  0  0  0  0  0  0  0
   10.4392   -0.7286    7.2363 H   0  0  0  0  0  0  0  0  0  0  0  0
   12.1680   -2.3118    8.4324 H   0  0  0  0  0  0  0  0  0  0  0  0
   12.3185   -1.1786    9.7772 H   0  0  0  0  0  0  0  0  0  0  0  0
   12.9247   -0.7444    8.1793 H   0  0  0  0  0  0  0  0  0  0  0  0
   10.7225    1.0448    9.7191 H   0  0  0  0  0  0  0  0  0  0  0  0
   11.3958    1.4088    8.1252 H   0  0  0  0  0  0  0  0  0  0  0  0
    8.4144    1.1718    8.7634 H   0  0  0  0  0  0  0  0  0  0  0  0
    9.6636    2.2847    6.3320 H   0  0  0  0  0  0  0  0  0  0  0  0
    9.4402    5.5731    9.6334 H   0  0  0  0  0  0  0  0  0  0  0  0
   11.2750    5.3075   11.0906 H   0  0  0  0  0  0  0  0  0  0  0  0
   12.4286    5.1235    9.7972 H   0  0  0  0  0  0  0  0  0  0  0  0
   11.7039    7.6355    9.1719 H   0  0  0  0  0  0  0  0  0  0  0  0
   11.0697    7.6540   10.8192 H   0  0  0  0  0  0  0  0  0  0  0  0
   13.3667    7.1295   11.6831 H   0  0  0  0  0  0  0  0  0  0  0  0
   13.9559    7.0048   10.0100 H   0  0  0  0  0  0  0  0  0  0  0  0
   16.5291    9.4636   11.1426 H   0  0  0  0  0  0  0  0  0  0  0  0
   15.7753    7.9670   11.1068 H   0  0  0  0  0  0  0  0  0  0  0  0
   15.3774   11.3426   10.7739 H   0  0  0  0  0  0  0  0  0  0  0  0
   13.7265   11.2969   10.4762 H   0  0  0  0  0  0  0  0  0  0  0  0
   11.3199    7.0286    5.4295 H   0  0  0  0  0  0  0  0  0  0  0  0
   12.7696    6.0133    3.8802 H   0  0  0  0  0  0  0  0  0  0  0  0
   11.9606    4.4300    3.9815 H   0  0  0  0  0  0  0  0  0  0  0  0
   13.9144    5.6622    5.9470 H   0  0  0  0  0  0  0  0  0  0  0  0
   13.8628    3.9826    5.3357 H   0  0  0  0  0  0  0  0  0  0  0  0
   12.8654    4.5315    7.7344 H   0  0  0  0  0  0  0  0  0  0  0  0
   11.9204    3.4551    6.6727 H   0  0  0  0  0  0  0  0  0  0  0  0
    7.6505    5.9752    3.1921 H   0  0  0  0  0  0  0  0  0  0  0  0
   10.4663    6.8161    3.0976 H   0  0  0  0  0  0  0  0  0  0  0  0
   -2.0072   -1.8548   11.1422 H   0  0  0  0  0  0  0  0  0  0  0  0
   -2.6432   -4.1581   11.2045 H   0  0  0  0  0  0  0  0  0  0  0  0
    0.5784   -2.6190    7.9032 H   0  0  0  0  0  0  0  0  0  0  0  0
    0.7795   -4.9337    7.0139 H   0  0  0  0  0  0  0  0  0  0  0  0
    0.0907   -7.2452    7.0514 H   0  0  0  0  0  0  0  0  0  0  0  0
   -1.5615   -8.0069    8.6557 H   0  0  0  0  0  0  0  0  0  0  0  0
   -2.5087   -6.4673   10.2532 H   0  0  0  0  0  0  0  0  0  0  0  0
   -3.4823    1.9055    3.2484 H   0  0  0  0  0  0  0  0  0  0  0  0
   -5.8456    1.8999    3.7704 H   0  0  0  0  0  0  0  0  0  0  0  0
   -7.1092    3.9847    3.6041 H   0  0  0  0  0  0  0  0  0  0  0  0
   -3.7272    6.0554    2.5095 H   0  0  0  0  0  0  0  0  0  0  0  0
    7.1341    0.7798    1.9742 H   0  0  0  0  0  0  0  0  0  0  0  0
    8.7807    1.4339    2.0155 H   0  0  0  0  0  0  0  0  0  0  0  0
    9.6820   -0.8846    1.6446 H   0  0  0  0  0  0  0  0  0  0  0  0
    8.0169   -1.5020    1.5754 H   0  0  0  0  0  0  0  0  0  0  0  0
    8.2510    0.5064   -0.3131 H   0  0  0  0  0  0  0  0  0  0  0  0
    8.5660    0.0161   -2.5185 H   0  0  0  0  0  0  0  0  0  0  0  0
    9.2092   -1.4620   -2.9829 H   0  0  0  0  0  0  0  0  0  0  0  0
  1 16  1  0  0  0  0 
 17  3  1  0  0  0  0 
 27 30  1  0  0  0  0 
 31  5  1  0  0  0  0 
 36  6  1  0  0  0  0 
 47 50  1  0  0  0  0 
 51 57  1  0  0  0  0 
 58  9  1  0  0  0  0 
 68 75  1  0  0  0  0 
 70 77  1  0  0  0  0 
 78 12  1  0  0  0  0 
  1 13  2  0  0  0  0 
  1 14  1  0  0  0  0 
 15  2  1  0  0  0  0 
 15 16  1  0  0  0  0 
 15 17  1  0  0  0  0 
 17 18  2  0  0  0  0 
 19  3  1  0  0  0  0 
 19 20  1  0  0  0  0 
 20 21  1  0  0  0  0 
 21 22  2  0  0  0  0 
 22 23  1  0  0  0  0 
 23 24  2  0  0  0  0 
 24 25  1  0  0  0  0 
 25 26  2  0  0  0  0 
 21 26  1  0  0  0  0 
 19 27  1  0  0  0  0 
 27 28  2  0  0  0  0 
 29  4  1  0  0  0  0 
 29 30  1  0  0  0  0 
 29 31  1  0  0  0  0 
 31 32  2  0  0  0  0 
 33  5  1  0  0  0  0 
 33 34  1  0  0  0  0 
 34 35  1  0  0  0  0 
 33 36  1  0  0  0  0 
 36 37  2  0  0  0  0 
 38  6  1  0  0  0  0 
 38 39  1  0  0  0  0 
 39 40  1  0  0  0  0 
 40 41  2  0  0  0  0 
 41 42  1  0  0  0  0 
 42 43  2  0  0  0  0 
 43 44  1  0  0  0  0 
 43 45  1  0  0  0  0 
 45 46  2  0  0  0  0 
 40 46  1  0  0  0  0 
 38 47  1  0  0  0  0 
 47 48  2  0  0  0  0 
 49  7  1  0  0  0  0 
 49 50  1  0  0  0  0 
 49 51  1  0  0  0  0 
 51 52  2  0  0  0  0 
  8 53  1  0  0  0  0 
 53 54  1  0  0  0  0 
 53 55  1  0  0  0  0 
 56 55  1  0  0  0  0 
 56 57  1  0  0  0  0 
 56 58  1  0  0  0  0 
 58 59  2  0  0  0  0 
 60  9  1  0  0  0  0 
 60 61  1  0  0  0  0 
 61 62  1  0  0  0  0 
 62 63  1  0  0  0  0 
 63 64  1  0  0  0  0 
 64 65  2  0  0  0  0 
 65 66  1  0  0  0  0 
 65 67  1  0  0  0  0 
 60 68  1  0  0  0  0 
 68 69  2  0  0  0  0 
 10 70  2  0  0  0  0 
 71 70  1  0  0  0  0 
 71 72  1  0  0  0  0 
 72 73  1  0  0  0  0 
 73 74  1  0  0  0  0 
 74 75  1  0  0  0  0 
 71 75  1  0  0  0  0 
 76 11  1  0  0  0  0 
 76 77  1  0  0  0  0 
 76 78  1  0  0  0  0 
 78 79  2  0  0  0  0 
  2 80  1  0  0  0  0 
 81 82  1  0  0  0  0 
 82 83  2  0  0  0  0 
 83 84  1  0  0  0  0 
 84 85  2  0  0  0  0 
 80 81  2  0  0  0  0 
 80 85  1  0  0  0  0 
 86 87  2  0  0  0  0 
 87 88  1  0  0  0  0 
 88 89  2  0  0  0  0 
 83 89  1  0  0  0  0 
 84 86  1  0  0  0  0 
 24 90  1  0  0  0  0 
  4 91  1  0  0  0  0 
 92 93  1  0  0  0  0 
 93 94  2  0  0  0  0 
 94 95  1  0  0  0  0 
 95 96  2  0  0  0  0 
 91 92  2  0  0  0  0 
 91 96  1  0  0  0  0 
  7 97  1  0  0  0  0 
 97 98  1  0  0  0  0 
 98 99  1  0  0  0  0 
 99100  1  0  0  0  0 
100101  2  0  0  0  0 
100102  1  0  0  0  0 
103  2  1  0  0  0  0 
104  2  1  0  0  0  0 
105  3  1  0  0  0  0 
106  4  1  0  0  0  0 
107  4  1  0  0  0  0 
108  5  1  0  0  0  0 
109  6  1  0  0  0  0 
110  7  1  0  0  0  0 
111  7  1  0  0  0  0 
112  8  1  0  0  0  0 
113  8  1  0  0  0  0 
114  8  1  0  0  0  0 
115  9  1  0  0  0  0 
116 11  1  0  0  0  0 
117 11  1  0  0  0  0 
118 11  1  0  0  0  0 
119 12  1  0  0  0  0 
120 12  1  0  0  0  0 
121 14  1  0  0  0  0 
122 14  1  0  0  0  0 
123 14  1  0  0  0  0 
 15124  1  0  0  0  0 
125 16  1  0  0  0  0 
 19126  1  0  0  0  0 
127 20  1  0  0  0  0 
128 20  1  0  0  0  0 
129 22  1  0  0  0  0 
130 23  1  0  0  0  0 
131 25  1  0  0  0  0 
132 26  1  0  0  0  0 
 29133  1  0  0  0  0 
134 30  1  0  0  0  0 
 33135  1  0  0  0  0 
136 34  1  0  0  0  0 
137 34  1  0  0  0  0 
138 35  1  0  0  0  0 
 38139  1  0  0  0  0 
140 39  1  0  0  0  0 
141 39  1  0  0  0  0 
142 41  1  0  0  0  0 
143 42  1  0  0  0  0 
144 44  1  0  0  0  0 
145 45  1  0  0  0  0 
146 46  1  0  0  0  0 
 49147  1  0  0  0  0 
148 50  1  0  0  0  0 
149 53  1  0  0  0  0 
150 54  1  0  0  0  0 
151 54  1  0  0  0  0 
152 54  1  0  0  0  0 
153 55  1  0  0  0  0 
154 55  1  0  0  0  0 
 56155  1  0  0  0  0 
156 57  1  0  0  0  0 
 60157  1  0  0  0  0 
158 61  1  0  0  0  0 
159 61  1  0  0  0  0 
160 62  1  0  0  0  0 
161 62  1  0  0  0  0 
162 63  1  0  0  0  0 
163 63  1  0  0  0  0 
164 66  1  0  0  0  0 
165 66  1  0  0  0  0 
166 67  1  0  0  0  0 
167 67  1  0  0  0  0 
 71168  1  0  0  0  0 
169 72  1  0  0  0  0 
170 72  1  0  0  0  0 
171 73  1  0  0  0  0 
172 73  1  0  0  0  0 
173 74  1  0  0  0  0 
174 74  1  0  0  0  0 
 76175  1  0  0  0  0 
176 77  1  0  0  0  0 
177 81  1  0  0  0  0 
178 82  1  0  0  0  0 
179 85  1  0  0  0  0 
180 86  1  0  0  0  0 
181 87  1  0  0  0  0 
182 88  1  0  0  0  0 
183 89  1  0  0  0  0 
184 92  1  0  0  0  0 
185 93  1  0  0  0  0 
186 94  1  0  0  0  0 
187 96  1  0  0  0  0 
188 97  1  0  0  0  0 
189 97  1  0  0  0  0 
190 98  1  0  0  0  0 
191 98  1  0  0  0  0 
192 99  1  0  0  0  0 
193102  1  0  0  0  0 
194102  1  0  0  0  0 
M  END
> <cdk:Title>
cetrorelix

> <Conformer>
1

> <SuperDrugID>
SD000510

$$$$
