thiopropazate
  CDK     0628171801

 58 61  0  0  0  0  0  0  0  0999 V2000
    9.9113   -0.9116    7.1300 C   0  0  0  0  0  0  0  0  0  0  0  0
    9.2921   -0.7699    8.4530 C   0  0  0  0  0  0  0  0  0  0  0  0
    9.6629    0.1445    9.2259 O   0  0  0  0  0  0  0  0  0  0  0  0
    8.3213   -1.6570    8.8154 O   0  0  0  0  0  0  0  0  0  0  0  0
    7.5450   -1.6247   10.0208 C   0  0  1  0  0  0  0  0  0  0  0  0
    6.5022   -2.7763   10.0928 C   0  0  1  0  0  0  0  0  0  0  0  0
    6.2588   -3.4956    8.7985 N   0  0  1  0  0  0  0  0  0  0  0  0
    5.5542   -4.8032    8.9765 C   0  0  1  0  0  0  0  0  0  0  0  0
    5.5021   -5.5766    7.6348 C   0  0  1  0  0  0  0  0  0  0  0  0
    4.9002   -4.7651    6.5224 N   0  0  2  0  0  0  0  0  0  0  0  0
    4.8283   -5.5552    5.2464 C   0  0  1  0  0  0  0  0  0  0  0  0
    4.1418   -4.8572    4.0365 C   0  0  2  0  0  0  0  0  0  0  0  0
    3.8045   -5.8316    2.8650 C   0  0  2  0  0  0  0  0  0  0  0  0
    3.4457   -5.1454    1.6305 N   0  0  0  0  0  0  0  0  0  0  0  0
    4.1742   -5.3772    0.4691 C   0  0  0  0  0  0  0  0  0  0  0  0
    4.4830   -6.6905    0.0345 C   0  0  0  0  0  0  0  0  0  0  0  0
    5.2503   -6.9090   -1.1249 C   0  0  0  0  0  0  0  0  0  0  0  0
    5.7206   -5.8158   -1.8737 C   0  0  0  0  0  0  0  0  0  0  0  0
    5.4029   -4.5049   -1.4788 C   0  0  0  0  0  0  0  0  0  0  0  0
    4.6223   -4.2926   -0.3269 C   0  0  0  0  0  0  0  0  0  0  0  0
    4.1361   -2.6600    0.1183 S   0  0  0  0  0  0  0  0  0  0  0  0
    2.6297   -2.9417    0.9875 C   0  0  0  0  0  0  0  0  0  0  0  0
    2.4311   -4.1928    1.6261 C   0  0  0  0  0  0  0  0  0  0  0  0
    1.1873   -4.4207    2.2662 C   0  0  0  0  0  0  0  0  0  0  0  0
    0.1981   -3.4181    2.3141 C   0  0  0  0  0  0  0  0  0  0  0  0
   -1.2622   -3.6951    3.1247 Cl  0  0  0  0  0  0  0  0  0  0  0  0
    0.4277   -2.1790    1.6870 C   0  0  0  0  0  0  0  0  0  0  0  0
    1.6397   -1.9421    1.0185 C   0  0  0  0  0  0  0  0  0  0  0  0
    5.5577   -3.4275    6.3907 C   0  0  2  0  0  0  0  0  0  0  0  0
    5.5846   -2.6761    7.7451 C   0  0  1  0  0  0  0  0  0  0  0  0
   10.6934   -0.1647    6.9793 H   0  0  0  0  0  0  0  0  0  0  0  0
   10.3483   -1.9076    7.0321 H   0  0  0  0  0  0  0  0  0  0  0  0
    9.1431   -0.7719    6.3660 H   0  0  0  0  0  0  0  0  0  0  0  0
    8.2231   -1.6865   10.8756 H   0  0  0  0  0  0  0  0  0  0  0  0
    7.0222   -0.6670   10.0749 H   0  0  0  0  0  0  0  0  0  0  0  0
    6.8759   -3.4911   10.8343 H   0  0  0  0  0  0  0  0  0  0  0  0
    5.5557   -2.3866   10.4849 H   0  0  0  0  0  0  0  0  0  0  0  0
    6.0846   -5.4270    9.7036 H   0  0  0  0  0  0  0  0  0  0  0  0
    4.5369   -4.6451    9.3497 H   0  0  0  0  0  0  0  0  0  0  0  0
    6.5221   -5.8811    7.3733 H   0  0  0  0  0  0  0  0  0  0  0  0
    4.9110   -6.4835    7.7971 H   0  0  0  0  0  0  0  0  0  0  0  0
    5.8368   -5.8528    4.9433 H   0  0  0  0  0  0  0  0  0  0  0  0
    4.2608   -6.4653    5.4534 H   0  0  0  0  0  0  0  0  0  0  0  0
    4.8074   -4.0781    3.6530 H   0  0  0  0  0  0  0  0  0  0  0  0
    3.2215   -4.3777    4.3809 H   0  0  0  0  0  0  0  0  0  0  0  0
    2.9893   -6.4959    3.1610 H   0  0  0  0  0  0  0  0  0  0  0  0
    4.6836   -6.4677    2.7222 H   0  0  0  0  0  0  0  0  0  0  0  0
    4.1436   -7.5021    0.5555 H   0  0  0  0  0  0  0  0  0  0  0  0
    5.4630   -7.8630   -1.4280 H   0  0  0  0  0  0  0  0  0  0  0  0
    6.2846   -5.9721   -2.7118 H   0  0  0  0  0  0  0  0  0  0  0  0
    5.7265   -3.7124   -2.0390 H   0  0  0  0  0  0  0  0  0  0  0  0
    0.9920   -5.3258    2.6974 H   0  0  0  0  0  0  0  0  0  0  0  0
   -0.2842   -1.4456    1.7100 H   0  0  0  0  0  0  0  0  0  0  0  0
    1.7928   -1.0467    0.5476 H   0  0  0  0  0  0  0  0  0  0  0  0
    4.9942   -2.8031    5.6950 H   0  0  0  0  0  0  0  0  0  0  0  0
    6.5761   -3.5348    6.0029 H   0  0  0  0  0  0  0  0  0  0  0  0
    4.5596   -2.4483    8.0481 H   0  0  0  0  0  0  0  0  0  0  0  0
    6.1003   -1.7274    7.5957 H   0  0  0  0  0  0  0  0  0  0  0  0
  1  2  1  0  0  0  0 
  2  3  2  0  0  0  0 
  2  4  1  0  0  0  0 
  4  5  1  0  0  0  0 
  5  6  1  0  0  0  0 
  6  7  1  0  0  0  0 
  7  8  1  0  0  0  0 
  8  9  1  0  0  0  0 
  9 10  1  0  0  0  0 
 10 11  1  0  0  0  0 
 11 12  1  0  0  0  0 
 12 13  1  0  0  0  0 
 13 14  1  0  0  0  0 
 14 15  1  0  0  0  0 
 15 16  2  0  0  0  0 
 16 17  1  0  0  0  0 
 17 18  2  0  0  0  0 
 18 19  1  0  0  0  0 
 19 20  2  0  0  0  0 
 15 20  1  0  0  0  0 
 20 21  1  0  0  0  0 
 21 22  1  0  0  0  0 
 22 23  2  0  0  0  0 
 14 23  1  0  0  0  0 
 23 24  1  0  0  0  0 
 24 25  2  0  0  0  0 
 25 26  1  0  0  0  0 
 25 27  1  0  0  0  0 
 27 28  2  0  0  0  0 
 22 28  1  0  0  0  0 
 10 29  1  0  0  0  0 
 29 30  1  0  0  0  0 
  7 30  1  0  0  0  0 
  1 31  1  0  0  0  0 
  1 32  1  0  0  0  0 
  1 33  1  0  0  0  0 
  5 34  1  0  0  0  0 
  5 35  1  0  0  0  0 
  6 36  1  0  0  0  0 
  6 37  1  0  0  0  0 
  8 38  1  0  0  0  0 
  8 39  1  0  0  0  0 
  9 40  1  0  0  0  0 
  9 41  1  0  0  0  0 
 11 42  1  0  0  0  0 
 11 43  1  0  0  0  0 
 12 44  1  0  0  0  0 
 12 45  1  0  0  0  0 
 13 46  1  0  0  0  0 
 13 47  1  0  0  0  0 
 16 48  1  0  0  0  0 
 17 49  1  0  0  0  0 
 18 50  1  0  0  0  0 
 19 51  1  0  0  0  0 
 24 52  1  0  0  0  0 
 27 53  1  0  0  0  0 
 28 54  1  0  0  0  0 
 29 55  1  0  0  0  0 
 29 56  1  0  0  0  0 
 30 57  1  0  0  0  0 
 30 58  1  0  0  0  0 
M  END
> <cdk:Title>
thiopropazate

> <Conformer>
1

> <SuperDrugID>
SD002369

$$$$
