promethazine
  CDK     0628171801

 40 42  0  0  0  0  0  0  0  0999 V2000
    1.0024    3.3031   -2.9342 C   0  0  2  0  0  0  0  0  0  0  0  0
   -0.0478    3.3078   -1.9139 N   0  0  0  0  0  0  0  0  0  0  0  0
   -0.5861    2.0937   -1.4634 C   0  0  0  0  0  0  0  0  0  0  0  0
   -0.8183    1.0047   -2.3466 C   0  0  0  0  0  0  0  0  0  0  0  0
   -1.3031   -0.2347   -1.8891 C   0  0  0  0  0  0  0  0  0  0  0  0
   -1.5873   -0.4149   -0.5274 C   0  0  0  0  0  0  0  0  0  0  0  0
   -1.4172    0.6537    0.3664 C   0  0  0  0  0  0  0  0  0  0  0  0
   -0.9423    1.8949   -0.1031 C   0  0  0  0  0  0  0  0  0  0  0  0
   -0.8369    3.2338    1.0264 S   0  0  0  0  0  0  0  0  0  0  0  0
   -0.8873    4.6399   -0.0257 C   0  0  0  0  0  0  0  0  0  0  0  0
   -0.5171    4.5208   -1.3928 C   0  0  0  0  0  0  0  0  0  0  0  0
   -0.6467    5.6861   -2.1959 C   0  0  0  0  0  0  0  0  0  0  0  0
   -1.0778    6.9124   -1.6576 C   0  0  0  0  0  0  0  0  0  0  0  0
   -1.4105    7.0008   -0.2968 C   0  0  0  0  0  0  0  0  0  0  0  0
   -1.3173    5.8640    0.5201 C   0  0  0  0  0  0  0  0  0  0  0  0
    2.3243    4.0738   -2.5996 C   0  0  1  0  0  0  0  0  0  0  0  0
    3.0872    3.5909   -1.3937 N   0  0  2  0  0  0  0  0  0  0  0  0
    3.3791    2.1316   -1.2969 C   0  0  0  0  0  0  0  0  0  0  0  0
    2.7594    4.2141   -0.0806 C   0  0  0  0  0  0  0  0  0  0  0  0
    3.2694    4.0975   -3.8345 C   0  0  0  0  0  0  0  0  0  0  0  0
    0.5797    3.7119   -3.8547 H   0  0  0  0  0  0  0  0  0  0  0  0
    1.3120    2.2875   -3.1845 H   0  0  0  0  0  0  0  0  0  0  0  0
   -0.6407    1.1038   -3.3482 H   0  0  0  0  0  0  0  0  0  0  0  0
   -1.4524   -1.0039   -2.5458 H   0  0  0  0  0  0  0  0  0  0  0  0
   -1.9305   -1.3171   -0.1916 H   0  0  0  0  0  0  0  0  0  0  0  0
   -1.6501    0.5228    1.3532 H   0  0  0  0  0  0  0  0  0  0  0  0
   -0.4298    5.6596   -3.1923 H   0  0  0  0  0  0  0  0  0  0  0  0
   -1.1568    7.7387   -2.2565 H   0  0  0  0  0  0  0  0  0  0  0  0
   -1.7243    7.8907    0.0970 H   0  0  0  0  0  0  0  0  0  0  0  0
   -1.5727    5.9335    1.5071 H   0  0  0  0  0  0  0  0  0  0  0  0
    2.0625    5.1241   -2.4477 H   0  0  0  0  0  0  0  0  0  0  0  0
    3.8279    1.7659   -2.2200 H   0  0  0  0  0  0  0  0  0  0  0  0
    4.0886    1.9308   -0.4928 H   0  0  0  0  0  0  0  0  0  0  0  0
    2.4701    1.5615   -1.0990 H   0  0  0  0  0  0  0  0  0  0  0  0
    2.4606    5.2592   -0.1831 H   0  0  0  0  0  0  0  0  0  0  0  0
    3.6458    4.1904    0.5545 H   0  0  0  0  0  0  0  0  0  0  0  0
    1.9623    3.6690    0.4205 H   0  0  0  0  0  0  0  0  0  0  0  0
    4.2191    4.5743   -3.5826 H   0  0  0  0  0  0  0  0  0  0  0  0
    3.4735    3.0901   -4.2008 H   0  0  0  0  0  0  0  0  0  0  0  0
    2.8075    4.6666   -4.6428 H   0  0  0  0  0  0  0  0  0  0  0  0
  1  2  1  0  0  0  0 
  2  3  1  0  0  0  0 
  3  4  2  0  0  0  0 
  4  5  1  0  0  0  0 
  5  6  2  0  0  0  0 
  6  7  1  0  0  0  0 
  7  8  2  0  0  0  0 
  3  8  1  0  0  0  0 
  8  9  1  0  0  0  0 
  9 10  1  0  0  0  0 
 10 11  2  0  0  0  0 
  2 11  1  0  0  0  0 
 11 12  1  0  0  0  0 
 12 13  2  0  0  0  0 
 13 14  1  0  0  0  0 
 14 15  2  0  0  0  0 
 10 15  1  0  0  0  0 
 16  1  1  0  0  0  0 
 16 17  1  0  0  0  0 
 17 18  1  0  0  0  0 
 17 19  1  0  0  0  0 
 16 20  1  0  0  0  0 
  1 21  1  0  0  0  0 
  1 22  1  0  0  0  0 
  4 23  1  0  0  0  0 
  5 24  1  0  0  0  0 
  6 25  1  0  0  0  0 
  7 26  1  0  0  0  0 
 12 27  1  0  0  0  0 
 13 28  1  0  0  0  0 
 14 29  1  0  0  0  0 
 15 30  1  0  0  0  0 
 16 31  1  0  0  0  0 
 18 32  1  0  0  0  0 
 18 33  1  0  0  0  0 
 18 34  1  0  0  0  0 
 19 35  1  0  0  0  0 
 19 36  1  0  0  0  0 
 19 37  1  0  0  0  0 
 20 38  1  0  0  0  0 
 20 39  1  0  0  0  0 
 20 40  1  0  0  0  0 
M  END
> <cdk:Title>
promethazine

> <Conformer>
1

> <SuperDrugID>
SD002052

$$$$
