perflubutane
  CDK     0628171801

 14 13  0  0  0  0  0  0  0  0999 V2000
    0.5151   -0.0405    0.2980 C   0  0  1  0  0  0  0  0  0  0  0  0
    1.5556   -1.0926   -0.2330 C   0  0  2  0  0  0  0  0  0  0  0  0
   -0.9444   -0.2224   -0.2291 C   0  0  2  0  0  0  0  0  0  0  0  0
    0.4724   -0.0822    1.6757 F   0  0  0  0  0  0  0  0  0  0  0  0
    0.9271    1.2321   -0.0374 F   0  0  0  0  0  0  0  0  0  0  0  0
    3.0151   -0.9106    0.2941 C   0  0  2  0  0  0  0  0  0  0  0  0
    1.5983   -1.0508   -1.6107 F   0  0  0  0  0  0  0  0  0  0  0  0
    1.1436   -2.3651    0.1024 F   0  0  0  0  0  0  0  0  0  0  0  0
   -1.4728   -1.4393    0.1286 F   0  0  0  0  0  0  0  0  0  0  0  0
   -1.0146   -0.1153   -1.5971 F   0  0  0  0  0  0  0  0  0  0  0  0
   -1.7801    0.7411    0.2883 F   0  0  0  0  0  0  0  0  0  0  0  0
    3.5435    0.3063   -0.0636 F   0  0  0  0  0  0  0  0  0  0  0  0
    3.8508   -1.8741   -0.2233 F   0  0  0  0  0  0  0  0  0  0  0  0
    3.0853   -1.0177    1.6621 F   0  0  0  0  0  0  0  0  0  0  0  0
  1  2  1  0  0  0  0 
  1  3  1  0  0  0  0 
  1  4  1  0  0  0  0 
  1  5  1  0  0  0  0 
  2  6  1  0  0  0  0 
  2  7  1  0  0  0  0 
  2  8  1  0  0  0  0 
  3  9  1  0  0  0  0 
  3 10  1  0  0  0  0 
  3 11  1  0  0  0  0 
  6 12  1  0  0  0  0 
  6 13  1  0  0  0  0 
  6 14  1  0  0  0  0 
M  END
> <cdk:Title>
perflubutane

> <Conformer>
1

> <SuperDrugID>
SD003322

$$$$
