prasterone sulfate
  CDK     0628171801

 53 56  0  0  0  0  0  0  0  0999 V2000
   -3.4640   -5.4604    0.6264 C   0  0  0  0  0  0  0  0  0  0  0  0
   -4.3576   -4.3742   -0.0844 C   0  0  1  0  0  0  0  0  0  0  0  0
   -3.4500   -3.1774   -0.6329 C   0  0  2  0  0  0  0  0  0  0  0  0
   -5.1346   -5.0442   -1.1794 C   0  0  0  0  0  0  0  0  0  0  0  0
   -5.3863   -3.7819    0.9568 C   0  0  2  0  0  0  0  0  0  0  0  0
   -2.7353   -3.5985   -1.9699 C   0  0  2  0  0  0  0  0  0  0  0  0
   -2.4783   -2.4876    0.4059 C   0  0  1  0  0  0  0  0  0  0  0  0
   -4.8595   -4.8561   -2.4913 C   0  0  0  0  0  0  0  0  0  0  0  0
   -6.2300   -5.9714   -0.8203 C   0  0  1  0  0  0  0  0  0  0  0  0
   -6.4748   -4.7771    1.4328 C   0  0  1  0  0  0  0  0  0  0  0  0
   -1.8275   -2.4388   -2.4797 C   0  0  1  0  0  0  0  0  0  0  0  0
   -3.8093   -4.0063   -3.0175 C   0  0  2  0  0  0  0  0  0  0  0  0
   -1.4680   -1.4635   -0.2026 C   0  0  1  0  0  0  0  0  0  0  0  0
   -7.2276   -5.4086    0.2309 C   0  0  2  0  0  0  0  0  0  0  0  0
   -0.7266   -2.0660   -1.4400 C   0  0  1  0  0  0  0  0  0  0  0  0
   -1.0640   -2.5646   -3.8189 C   0  0  2  0  0  0  0  0  0  0  0  0
   -8.0681   -6.5141    0.6270 O   0  0  0  0  0  0  0  0  0  0  0  0
    0.2566   -3.2190   -1.0172 C   0  0  0  0  0  0  0  0  0  0  0  0
    0.0526   -1.1272   -2.2730 C   0  0  0  0  0  0  0  0  0  0  0  0
    0.0085   -1.4500   -3.7098 C   0  0  1  0  0  0  0  0  0  0  0  0
   -9.4730   -6.1130    1.5344 S   0  0  1  0  0  0  0  0  0  0  0  0
    0.7220   -0.1727   -1.8150 O   0  0  0  0  0  0  0  0  0  0  0  0
  -10.4940   -7.3435    1.4566 O   0  0  0  0  0  0  0  0  0  0  0  0
   -9.0810   -5.8421    3.0614 O   0  0  0  0  0  0  0  0  0  0  0  0
  -10.2347   -4.7321    0.8810 O   0  0  0  0  0  0  0  0  0  0  0  0
   -2.1052   -4.4728   -1.8008 H   0  0  0  0  0  0  0  0  0  0  0  0
   -4.1366   -2.3729   -0.9250 H   0  0  0  0  0  0  0  0  0  0  0  0
   -2.5009   -1.5776   -2.6222 H   0  0  0  0  0  0  0  0  0  0  0  0
   -3.0195   -5.0694    1.5411 H   0  0  0  0  0  0  0  0  0  0  0  0
   -2.6572   -5.8030   -0.0223 H   0  0  0  0  0  0  0  0  0  0  0  0
   -4.0298   -6.3413    0.9277 H   0  0  0  0  0  0  0  0  0  0  0  0
   -5.9069   -2.9260    0.5167 H   0  0  0  0  0  0  0  0  0  0  0  0
   -4.8621   -3.4155    1.8426 H   0  0  0  0  0  0  0  0  0  0  0  0
   -3.0698   -1.9656    1.1603 H   0  0  0  0  0  0  0  0  0  0  0  0
   -1.8946   -3.2369    0.9357 H   0  0  0  0  0  0  0  0  0  0  0  0
   -5.4099   -5.3208   -3.1774 H   0  0  0  0  0  0  0  0  0  0  0  0
   -6.8275   -6.2694   -1.6890 H   0  0  0  0  0  0  0  0  0  0  0  0
   -5.7868   -6.8929   -0.4359 H   0  0  0  0  0  0  0  0  0  0  0  0
   -6.0222   -5.5629    2.0423 H   0  0  0  0  0  0  0  0  0  0  0  0
   -7.1844   -4.2346    2.0626 H   0  0  0  0  0  0  0  0  0  0  0  0
   -3.3113   -4.5358   -3.8349 H   0  0  0  0  0  0  0  0  0  0  0  0
   -4.2905   -3.1170   -3.4381 H   0  0  0  0  0  0  0  0  0  0  0  0
   -2.0096   -0.5564   -0.4892 H   0  0  0  0  0  0  0  0  0  0  0  0
   -0.7429   -1.1689    0.5602 H   0  0  0  0  0  0  0  0  0  0  0  0
   -7.8307   -4.6380   -0.2617 H   0  0  0  0  0  0  0  0  0  0  0  0
   -1.7273   -2.3971   -4.6724 H   0  0  0  0  0  0  0  0  0  0  0  0
   -0.5991   -3.5491   -3.9199 H   0  0  0  0  0  0  0  0  0  0  0  0
   -0.2362   -3.9903   -0.4304 H   0  0  0  0  0  0  0  0  0  0  0  0
    0.6911   -3.7129   -1.8860 H   0  0  0  0  0  0  0  0  0  0  0  0
    1.0748   -2.8213   -0.4132 H   0  0  0  0  0  0  0  0  0  0  0  0
    0.9848   -1.8026   -4.0534 H   0  0  0  0  0  0  0  0  0  0  0  0
   -0.2856   -0.5668   -4.2822 H   0  0  0  0  0  0  0  0  0  0  0  0
  -10.5975   -5.0343    0.0223 H   0  0  0  0  0  0  0  0  0  0  0  0
  2  1  1  0  0  0  0 
  3  2  1  0  0  0  0 
  2  4  1  0  0  0  0 
  2  5  1  0  0  0  0 
  6  3  1  0  0  0  0 
  3  7  1  0  0  0  0 
  3 27  1  0  0  0  0 
  4  8  2  0  0  0  0 
  4  9  1  0  0  0  0 
  5 10  1  0  0  0  0 
 11  6  1  0  0  0  0 
  6 12  1  0  0  0  0 
  6 26  1  0  0  0  0 
  7 13  1  0  0  0  0 
  8 12  1  0  0  0  0 
 14  9  1  0  0  0  0 
 14 10  1  0  0  0  0 
 15 11  1  0  0  0  0 
 11 16  1  0  0  0  0 
 11 28  1  0  0  0  0 
 15 13  1  0  0  0  0 
 14 17  1  0  0  0  0 
 15 18  1  0  0  0  0 
 15 19  1  0  0  0  0 
 16 20  1  0  0  0  0 
 17 21  1  0  0  0  0 
 19 20  1  0  0  0  0 
 19 22  2  0  0  0  0 
 21 23  2  0  0  0  0 
 21 24  2  0  0  0  0 
 21 25  1  0  0  0  0 
  1 29  1  0  0  0  0 
  1 30  1  0  0  0  0 
  1 31  1  0  0  0  0 
  5 32  1  0  0  0  0 
  5 33  1  0  0  0  0 
  7 34  1  0  0  0  0 
  7 35  1  0  0  0  0 
  8 36  1  0  0  0  0 
  9 37  1  0  0  0  0 
  9 38  1  0  0  0  0 
 10 39  1  0  0  0  0 
 10 40  1  0  0  0  0 
 12 41  1  0  0  0  0 
 12 42  1  0  0  0  0 
 13 43  1  0  0  0  0 
 13 44  1  0  0  0  0 
 14 45  1  0  0  0  0 
 16 46  1  0  0  0  0 
 16 47  1  0  0  0  0 
 18 48  1  0  0  0  0 
 18 49  1  0  0  0  0 
 18 50  1  0  0  0  0 
 20 51  1  0  0  0  0 
 20 52  1  0  0  0  0 
 25 53  1  0  0  0  0 
M  END
> <cdk:Title>
prasterone sulfate

> <Conformer>
1

> <SuperDrugID>
SD003337

$$$$
