telithromycin
  CDK     0628171801

123127  0  0  0  0  0  0  0  0999 V2000
   -2.4888    1.3979   -3.8199 C   0  0  0  0  0  0  0  0  0  0  0  0
   -2.1879    0.0021   -4.4516 C   0  0  2  0  0  0  0  0  0  0  0  0
   -3.0038   -1.1773   -3.7673 C   0  0  2  0  0  0  0  0  0  0  0  0
   -0.6456   -0.2373   -4.7519 C   0  0  1  0  0  0  0  0  0  0  0  0
   -2.8487    0.0416   -5.7174 O   0  0  0  0  0  0  0  0  0  0  0  0
   -4.2706   -1.1240   -4.5100 N   0  0  0  0  0  0  0  0  0  0  0  0
   -3.1173   -1.3185   -2.1802 C   0  0  1  0  0  0  0  0  0  0  0  0
   -0.1701    0.3816   -6.1138 C   0  0  1  0  0  0  0  0  0  0  0  0
    0.1277    0.3183   -3.6734 O   0  0  0  0  0  0  0  0  0  0  0  0
   -4.0316   -0.5672   -5.7193 C   0  0  0  0  0  0  0  0  0  0  0  0
   -5.6074   -1.4351   -4.0212 C   0  0  2  0  0  0  0  0  0  0  0  0
   -3.2715   -2.8212   -1.7567 C   0  0  0  0  0  0  0  0  0  0  0  0
   -2.0165   -0.8094   -1.2948 C   0  0  0  0  0  0  0  0  0  0  0  0
    1.3135    0.1744   -6.4909 C   0  0  0  0  0  0  0  0  0  0  0  0
    1.3891    0.0589   -3.1901 C   0  0  0  0  0  0  0  0  0  0  0  0
   -4.7737   -0.4998   -6.7241 O   0  0  0  0  0  0  0  0  0  0  0  0
   -6.7646   -1.7920   -5.0052 C   0  0  1  0  0  0  0  0  0  0  0  0
   -0.8565   -1.0889   -1.6670 O   0  0  0  0  0  0  0  0  0  0  0  0
   -2.1580   -0.2991    0.1243 C   0  0  2  0  0  0  0  0  0  0  0  0
    2.0554   -0.8490   -3.7421 O   0  0  0  0  0  0  0  0  0  0  0  0
    1.8720    0.7158   -2.0347 C   0  0  0  0  0  0  0  0  0  0  0  0
   -6.5653   -3.1377   -5.7485 C   0  0  1  0  0  0  0  0  0  0  0  0
   -3.6164    0.0019    0.5748 C   0  0  0  0  0  0  0  0  0  0  0  0
   -1.2135    0.9240    0.4687 C   0  0  1  0  0  0  0  0  0  0  0  0
    3.0738    0.1351   -1.4252 C   0  0  0  0  0  0  0  0  0  0  0  0
    1.2471    1.8187   -1.5396 C   0  0  0  0  0  0  0  0  0  0  0  0
   -7.7005   -3.4482   -6.7615 C   0  0  2  0  0  0  0  0  0  0  0  0
    0.1552    0.5924    1.1868 C   0  0  2  0  0  0  0  0  0  0  0  0
    0.3547    2.4326   -2.3310 O   0  0  0  0  0  0  0  0  0  0  0  0
    1.4872    2.5347   -0.2649 C   0  0  1  0  0  0  0  0  0  0  0  0
   -7.5536   -4.7684   -7.3035 N   0  0  0  0  0  0  0  0  0  0  0  0
    0.6902   -0.5803    0.5065 O   0  0  0  0  0  0  0  0  0  0  0  0
   -0.2081    0.2542    2.6873 C   0  0  0  0  0  0  0  0  0  0  0  0
    1.2255    1.7788    1.1168 C   0  0  1  0  0  0  0  0  0  0  0  0
    2.8535    3.2992   -0.3696 C   0  0  0  0  0  0  0  0  0  0  0  0
   -7.0324   -5.0964   -8.4972 C   0  0  0  0  0  0  0  0  0  0  0  0
   -7.8807   -5.9253   -6.6964 C   0  0  0  0  0  0  0  0  0  0  0  0
    1.5719   -1.5100    1.1767 C   0  0  0  0  0  0  0  0  0  0  0  0
    0.8648    2.7226    2.1761 O   0  0  0  0  0  0  0  0  0  0  0  0
   -7.0171   -6.4871   -8.6034 C   0  0  0  0  0  0  0  0  0  0  0  0
   -7.5541   -6.9731   -7.4699 N   0  0  0  0  0  0  0  0  0  0  0  0
    1.8410    3.6530    2.7030 C   0  0  1  0  0  0  0  0  0  0  0  0
   -6.5099   -7.2692   -9.6720 C   0  0  0  0  0  0  0  0  0  0  0  0
    1.4170    4.2034    4.0969 C   0  0  2  0  0  0  0  0  0  0  0  0
    3.1449    3.0448    2.8456 O   0  0  0  0  0  0  0  0  0  0  0  0
   -6.0561   -8.5911   -9.4463 C   0  0  0  0  0  0  0  0  0  0  0  0
   -6.4202   -6.7689  -10.9934 C   0  0  0  0  0  0  0  0  0  0  0  0
    0.1168    4.7883    4.0217 O   0  0  0  0  0  0  0  0  0  0  0  0
    2.4690    5.2525    4.5943 C   0  0  1  0  0  0  0  0  0  0  0  0
    4.2021    3.9529    3.2189 C   0  0  1  0  0  0  0  0  0  0  0  0
   -5.5161   -9.3555  -10.4965 C   0  0  0  0  0  0  0  0  0  0  0  0
   -5.9002   -7.5316  -11.9888 N   0  0  0  0  0  0  0  0  0  0  0  0
    2.0817    5.9455    5.8788 N   0  0  2  0  0  0  0  0  0  0  0  0
    3.8941    4.6124    4.5944 C   0  0  2  0  0  0  0  0  0  0  0  0
    5.5259    3.1551    3.2159 C   0  0  0  0  0  0  0  0  0  0  0  0
   -5.4463   -8.7927  -11.7818 C   0  0  0  0  0  0  0  0  0  0  0  0
    2.7391    7.2717    6.0903 C   0  0  0  0  0  0  0  0  0  0  0  0
    2.0662    5.1213    7.1235 C   0  0  0  0  0  0  0  0  0  0  0  0
   -3.5647    1.5682   -3.7504 H   0  0  0  0  0  0  0  0  0  0  0  0
   -2.0770    1.4749   -2.8179 H   0  0  0  0  0  0  0  0  0  0  0  0
   -2.0612    2.1985   -4.4265 H   0  0  0  0  0  0  0  0  0  0  0  0
   -2.5245   -2.1020   -4.1087 H   0  0  0  0  0  0  0  0  0  0  0  0
   -0.4630   -1.3125   -4.8030 H   0  0  0  0  0  0  0  0  0  0  0  0
   -4.0271   -0.7882   -1.9064 H   0  0  0  0  0  0  0  0  0  0  0  0
   -0.7418   -0.0653   -6.9312 H   0  0  0  0  0  0  0  0  0  0  0  0
   -0.3686    1.4556   -6.1115 H   0  0  0  0  0  0  0  0  0  0  0  0
   -5.9329   -0.5449   -3.4772 H   0  0  0  0  0  0  0  0  0  0  0  0
   -5.5689   -2.2427   -3.2985 H   0  0  0  0  0  0  0  0  0  0  0  0
   -3.6746   -2.9052   -0.7458 H   0  0  0  0  0  0  0  0  0  0  0  0
   -3.9310   -3.3710   -2.4195 H   0  0  0  0  0  0  0  0  0  0  0  0
   -2.3088   -3.3384   -1.7835 H   0  0  0  0  0  0  0  0  0  0  0  0
    1.4767    0.4738   -7.5283 H   0  0  0  0  0  0  0  0  0  0  0  0
    1.6020   -0.8734   -6.3926 H   0  0  0  0  0  0  0  0  0  0  0  0
    1.9529    0.7908   -5.8598 H   0  0  0  0  0  0  0  0  0  0  0  0
   -7.6884   -1.8668   -4.4230 H   0  0  0  0  0  0  0  0  0  0  0  0
   -6.9222   -0.9810   -5.7176 H   0  0  0  0  0  0  0  0  0  0  0  0
   -1.8540   -1.1413    0.7512 H   0  0  0  0  0  0  0  0  0  0  0  0
   -5.6131   -3.1222   -6.2836 H   0  0  0  0  0  0  0  0  0  0  0  0
   -6.5232   -3.9360   -5.0029 H   0  0  0  0  0  0  0  0  0  0  0  0
   -3.6322    0.3019    1.6241 H   0  0  0  0  0  0  0  0  0  0  0  0
   -4.0461    0.8068   -0.0234 H   0  0  0  0  0  0  0  0  0  0  0  0
   -4.2444   -0.8850    0.4861 H   0  0  0  0  0  0  0  0  0  0  0  0
   -1.0513    1.4495   -0.4585 H   0  0  0  0  0  0  0  0  0  0  0  0
   -1.7357    1.6559    1.0914 H   0  0  0  0  0  0  0  0  0  0  0  0
    3.9228    0.2657   -2.0998 H   0  0  0  0  0  0  0  0  0  0  0  0
    2.9379   -0.9349   -1.2730 H   0  0  0  0  0  0  0  0  0  0  0  0
    3.3518    0.5667   -0.4704 H   0  0  0  0  0  0  0  0  0  0  0  0
   -7.6744   -2.7030   -7.5630 H   0  0  0  0  0  0  0  0  0  0  0  0
   -8.6756   -3.3660   -6.2723 H   0  0  0  0  0  0  0  0  0  0  0  0
   -0.3638    2.7538   -1.7476 H   0  0  0  0  0  0  0  0  0  0  0  0
    0.7424    3.3389   -0.2284 H   0  0  0  0  0  0  0  0  0  0  0  0
   -0.8280   -0.6423    2.7635 H   0  0  0  0  0  0  0  0  0  0  0  0
    0.6947    0.0875    3.2755 H   0  0  0  0  0  0  0  0  0  0  0  0
   -0.7574    1.0695    3.1647 H   0  0  0  0  0  0  0  0  0  0  0  0
    2.1654    1.3108    1.4088 H   0  0  0  0  0  0  0  0  0  0  0  0
    2.7344    4.3441   -0.0819 H   0  0  0  0  0  0  0  0  0  0  0  0
    3.6093    2.8530    0.2744 H   0  0  0  0  0  0  0  0  0  0  0  0
    3.2609    3.3127   -1.3850 H   0  0  0  0  0  0  0  0  0  0  0  0
   -6.6797   -4.4353   -9.1926 H   0  0  0  0  0  0  0  0  0  0  0  0
   -8.3114   -6.0081   -5.7725 H   0  0  0  0  0  0  0  0  0  0  0  0
    2.4689   -1.0172    1.5515 H   0  0  0  0  0  0  0  0  0  0  0  0
    1.8697   -2.2707    0.4555 H   0  0  0  0  0  0  0  0  0  0  0  0
    1.0714   -2.0208    2.0003 H   0  0  0  0  0  0  0  0  0  0  0  0
    1.8768    4.4940    2.0101 H   0  0  0  0  0  0  0  0  0  0  0  0
    1.3710    3.3612    4.7923 H   0  0  0  0  0  0  0  0  0  0  0  0
   -6.0998   -9.0075   -8.5124 H   0  0  0  0  0  0  0  0  0  0  0  0
   -6.7491   -5.8312  -11.2280 H   0  0  0  0  0  0  0  0  0  0  0  0
   -0.0986    5.0530    4.9418 H   0  0  0  0  0  0  0  0  0  0  0  0
    2.4765    6.0280    3.8194 H   0  0  0  0  0  0  0  0  0  0  0  0
    4.2975    4.7373    2.4603 H   0  0  0  0  0  0  0  0  0  0  0  0
   -5.1763  -10.3050  -10.3272 H   0  0  0  0  0  0  0  0  0  0  0  0
    3.9533    3.8515    5.3747 H   0  0  0  0  0  0  0  0  0  0  0  0
    4.6474    5.3753    4.8026 H   0  0  0  0  0  0  0  0  0  0  0  0
    5.5048    2.3652    3.9704 H   0  0  0  0  0  0  0  0  0  0  0  0
    5.6759    2.6952    2.2359 H   0  0  0  0  0  0  0  0  0  0  0  0
    6.3693    3.8192    3.4169 H   0  0  0  0  0  0  0  0  0  0  0  0
   -5.0561   -9.3258  -12.5611 H   0  0  0  0  0  0  0  0  0  0  0  0
    2.6417    7.9001    5.2024 H   0  0  0  0  0  0  0  0  0  0  0  0
    2.2642    7.8086    6.9146 H   0  0  0  0  0  0  0  0  0  0  0  0
    3.8005    7.1524    6.3197 H   0  0  0  0  0  0  0  0  0  0  0  0
    1.4612    4.2259    6.9912 H   0  0  0  0  0  0  0  0  0  0  0  0
    1.6238    5.6854    7.9477 H   0  0  0  0  0  0  0  0  0  0  0  0
    3.0760    4.8272    7.4166 H   0  0  0  0  0  0  0  0  0  0  0  0
  2  1  1  0  0  0  0 
  2  3  1  0  0  0  0 
  2  4  1  0  0  0  0 
  2  5  1  0  0  0  0 
  3  6  1  0  0  0  0 
  3  7  1  0  0  0  0 
  4  8  1  0  0  0  0 
  4  9  1  0  0  0  0 
  5 10  1  0  0  0  0 
  6 10  1  0  0  0  0 
  6 11  1  0  0  0  0 
  7 12  1  0  0  0  0 
  7 13  1  0  0  0  0 
  8 14  1  0  0  0  0 
  9 15  1  0  0  0  0 
 10 16  2  0  0  0  0 
 11 17  1  0  0  0  0 
 13 18  2  0  0  0  0 
 19 13  1  0  0  0  0 
 15 20  2  0  0  0  0 
 21 15  1  0  0  0  0 
 17 22  1  0  0  0  0 
 19 23  1  0  0  0  0 
 19 24  1  0  0  0  0 
 21 25  1  0  0  0  0 
 21 26  2  0  0  0  0 
 22 27  1  0  0  0  0 
 28 24  1  0  0  0  0 
 26 29  1  0  0  0  0 
 30 26  1  0  0  0  0 
 27 31  1  0  0  0  0 
 28 32  1  0  0  0  0 
 28 33  1  0  0  0  0 
 34 28  1  0  0  0  0 
 34 30  1  0  0  0  0 
 30 35  1  0  0  0  0 
 31 36  1  0  0  0  0 
 31 37  1  0  0  0  0 
 32 38  1  0  0  0  0 
 34 39  1  0  0  0  0 
 36 40  2  0  0  0  0 
 37 41  2  0  0  0  0 
 42 39  1  0  0  0  0 
 40 41  1  0  0  0  0 
 40 43  1  0  0  0  0 
 44 42  1  0  0  0  0 
 42 45  1  0  0  0  0 
 43 46  2  0  0  0  0 
 43 47  1  0  0  0  0 
 44 48  1  0  0  0  0 
 44 49  1  0  0  0  0 
 50 45  1  0  0  0  0 
 46 51  1  0  0  0  0 
 47 52  2  0  0  0  0 
 49 53  1  0  0  0  0 
 49 54  1  0  0  0  0 
 50 54  1  0  0  0  0 
 50 55  1  0  0  0  0 
 51 56  2  0  0  0  0 
 52 56  1  0  0  0  0 
 53 57  1  0  0  0  0 
 53 58  1  0  0  0  0 
 59  1  1  0  0  0  0 
 60  1  1  0  0  0  0 
 61  1  1  0  0  0  0 
  3 62  1  0  0  0  0 
  4 63  1  0  0  0  0 
  7 64  1  0  0  0  0 
 65  8  1  0  0  0  0 
 66  8  1  0  0  0  0 
 67 11  1  0  0  0  0 
 68 11  1  0  0  0  0 
 69 12  1  0  0  0  0 
 70 12  1  0  0  0  0 
 71 12  1  0  0  0  0 
 72 14  1  0  0  0  0 
 73 14  1  0  0  0  0 
 74 14  1  0  0  0  0 
 75 17  1  0  0  0  0 
 76 17  1  0  0  0  0 
 19 77  1  0  0  0  0 
 78 22  1  0  0  0  0 
 79 22  1  0  0  0  0 
 80 23  1  0  0  0  0 
 81 23  1  0  0  0  0 
 82 23  1  0  0  0  0 
 83 24  1  0  0  0  0 
 84 24  1  0  0  0  0 
 85 25  1  0  0  0  0 
 86 25  1  0  0  0  0 
 87 25  1  0  0  0  0 
 88 27  1  0  0  0  0 
 89 27  1  0  0  0  0 
 90 29  1  0  0  0  0 
 30 91  1  0  0  0  0 
 92 33  1  0  0  0  0 
 93 33  1  0  0  0  0 
 94 33  1  0  0  0  0 
 34 95  1  0  0  0  0 
 96 35  1  0  0  0  0 
 97 35  1  0  0  0  0 
 98 35  1  0  0  0  0 
 99 36  1  0  0  0  0 
100 37  1  0  0  0  0 
101 38  1  0  0  0  0 
102 38  1  0  0  0  0 
103 38  1  0  0  0  0 
 42104  1  0  0  0  0 
 44105  1  0  0  0  0 
106 46  1  0  0  0  0 
107 47  1  0  0  0  0 
108 48  1  0  0  0  0 
 49109  1  0  0  0  0 
 50110  1  0  0  0  0 
111 51  1  0  0  0  0 
112 54  1  0  0  0  0 
113 54  1  0  0  0  0 
114 55  1  0  0  0  0 
115 55  1  0  0  0  0 
116 55  1  0  0  0  0 
117 56  1  0  0  0  0 
118 57  1  0  0  0  0 
119 57  1  0  0  0  0 
120 57  1  0  0  0  0 
121 58  1  0  0  0  0 
122 58  1  0  0  0  0 
123 58  1  0  0  0  0 
M  END
> <cdk:Title>
telithromycin

> <Conformer>
1

> <SuperDrugID>
SD002320

$$$$
