nelfinavir
  CDK     0628171801

 85 88  0  0  0  0  0  0  0  0999 V2000
    1.5680   -5.7149   -0.6326 C   0  0  0  0  0  0  0  0  0  0  0  0
    0.6975   -5.0827    0.2090 N   0  0  0  0  0  0  0  0  0  0  0  0
    1.0969   -6.4928   -1.5270 O   0  0  0  0  0  0  0  0  0  0  0  0
    3.0527   -5.4481   -0.3695 C   0  0  1  0  0  0  0  0  0  0  0  0
   -0.7445   -5.0913    0.2443 C   0  0  1  0  0  0  0  0  0  0  0  0
    3.6574   -4.0622   -0.7046 N   0  0  1  0  0  0  0  0  0  0  0  0
    3.4787   -5.8038    1.1814 C   0  0  1  0  0  0  0  0  0  0  0  0
   -1.3976   -4.9247   -1.1667 C   0  0  0  0  0  0  0  0  0  0  0  0
   -1.2319   -6.3846    0.9667 C   0  0  0  0  0  0  0  0  0  0  0  0
   -1.1435   -3.8520    1.1051 C   0  0  0  0  0  0  0  0  0  0  0  0
    2.7430   -2.8975   -0.4041 C   0  0  1  0  0  0  0  0  0  0  0  0
    5.1668   -3.8836   -0.4199 C   0  0  1  0  0  0  0  0  0  0  0  0
    5.0227   -5.6132    1.5103 C   0  0  1  0  0  0  0  0  0  0  0  0
    3.2138   -1.4325   -0.6809 C   0  0  2  0  0  0  0  0  0  0  0  0
    5.5561   -4.2070    1.0605 C   0  0  2  0  0  0  0  0  0  0  0  0
    5.4026   -5.9237    2.9953 C   0  0  2  0  0  0  0  0  0  0  0  0
    2.4242   -0.3052    0.0604 C   0  0  1  0  0  0  0  0  0  0  0  0
    3.1794   -1.1833   -2.0870 O   0  0  0  0  0  0  0  0  0  0  0  0
    5.1810   -3.0824    2.0776 C   0  0  2  0  0  0  0  0  0  0  0  0
    5.0402   -4.7813    3.9836 C   0  0  2  0  0  0  0  0  0  0  0  0
    1.0046   -0.3844   -0.1455 N   0  0  0  0  0  0  0  0  0  0  0  0
    2.6883   -0.2875    1.5958 C   0  0  1  0  0  0  0  0  0  0  0  0
    5.6235   -3.4206    3.5233 C   0  0  2  0  0  0  0  0  0  0  0  0
    0.1911    0.6465   -0.5210 C   0  0  0  0  0  0  0  0  0  0  0  0
    2.0017    1.2003    2.4023 S   0  0  0  0  0  0  0  0  0  0  0  0
    0.6766    1.7362   -0.9056 O   0  0  0  0  0  0  0  0  0  0  0  0
   -1.2172    0.4988   -0.4160 C   0  0  0  0  0  0  0  0  0  0  0  0
    2.2234    0.8935    4.1147 C   0  0  0  0  0  0  0  0  0  0  0  0
   -2.0602    1.4682    0.2169 C   0  0  0  0  0  0  0  0  0  0  0  0
   -1.7945   -0.6825   -0.9395 C   0  0  0  0  0  0  0  0  0  0  0  0
    1.3377    0.0492    4.8173 C   0  0  0  0  0  0  0  0  0  0  0  0
    3.2915    1.5094    4.7956 C   0  0  0  0  0  0  0  0  0  0  0  0
   -1.5084    2.7376    0.7783 C   0  0  0  0  0  0  0  0  0  0  0  0
   -3.4523    1.1953    0.3277 C   0  0  0  0  0  0  0  0  0  0  0  0
   -3.1712   -0.9251   -0.8331 C   0  0  0  0  0  0  0  0  0  0  0  0
    1.5174   -0.1683    6.1972 C   0  0  0  0  0  0  0  0  0  0  0  0
    3.4695    1.2915    6.1742 C   0  0  0  0  0  0  0  0  0  0  0  0
   -4.3232    2.0534    0.9221 O   0  0  0  0  0  0  0  0  0  0  0  0
   -3.9966    0.0044   -0.1861 C   0  0  0  0  0  0  0  0  0  0  0  0
    2.5809    0.4558    6.8763 C   0  0  0  0  0  0  0  0  0  0  0  0
    5.5411   -6.3598    0.9006 H   0  0  0  0  0  0  0  0  0  0  0  0
    6.6508   -4.2635    1.0751 H   0  0  0  0  0  0  0  0  0  0  0  0
    1.1176   -4.5566    0.9050 H   0  0  0  0  0  0  0  0  0  0  0  0
    3.5934   -6.1559   -1.0029 H   0  0  0  0  0  0  0  0  0  0  0  0
    2.9306   -5.2007    1.9496 H   0  0  0  0  0  0  0  0  0  0  0  0
    3.2459   -6.8610    1.4772 H   0  0  0  0  0  0  0  0  0  0  0  0
   -2.4637   -4.6983   -1.0795 H   0  0  0  0  0  0  0  0  0  0  0  0
   -1.3030   -5.8342   -1.7619 H   0  0  0  0  0  0  0  0  0  0  0  0
   -0.9185   -4.1078   -1.7125 H   0  0  0  0  0  0  0  0  0  0  0  0
   -2.3133   -6.3614    1.1206 H   0  0  0  0  0  0  0  0  0  0  0  0
   -0.9875   -7.2760    0.3865 H   0  0  0  0  0  0  0  0  0  0  0  0
   -0.7545   -6.4789    1.9453 H   0  0  0  0  0  0  0  0  0  0  0  0
   -2.2291   -3.7821    1.2066 H   0  0  0  0  0  0  0  0  0  0  0  0
   -0.7839   -2.9280    0.6479 H   0  0  0  0  0  0  0  0  0  0  0  0
   -0.7138   -3.9211    2.1060 H   0  0  0  0  0  0  0  0  0  0  0  0
    1.8418   -3.0238   -1.0096 H   0  0  0  0  0  0  0  0  0  0  0  0
    2.4326   -2.9758    0.6332 H   0  0  0  0  0  0  0  0  0  0  0  0
    5.6739   -4.6163   -1.0536 H   0  0  0  0  0  0  0  0  0  0  0  0
    5.5753   -2.9269   -0.7355 H   0  0  0  0  0  0  0  0  0  0  0  0
    4.2431   -1.2965   -0.3614 H   0  0  0  0  0  0  0  0  0  0  0  0
    6.4829   -6.0930    3.0544 H   0  0  0  0  0  0  0  0  0  0  0  0
    4.9180   -6.8476    3.3213 H   0  0  0  0  0  0  0  0  0  0  0  0
    2.8234    0.6375   -0.3297 H   0  0  0  0  0  0  0  0  0  0  0  0
    3.8258   -1.8074   -2.4766 H   0  0  0  0  0  0  0  0  0  0  0  0
    4.1069   -2.9237    2.1024 H   0  0  0  0  0  0  0  0  0  0  0  0
    5.6517   -2.1432    1.7762 H   0  0  0  0  0  0  0  0  0  0  0  0
    5.4285   -5.0235    4.9775 H   0  0  0  0  0  0  0  0  0  0  0  0
    3.9538   -4.6993    4.0731 H   0  0  0  0  0  0  0  0  0  0  0  0
    0.5768   -1.2270    0.0741 H   0  0  0  0  0  0  0  0  0  0  0  0
    2.2381   -1.1603    2.0713 H   0  0  0  0  0  0  0  0  0  0  0  0
    3.7624   -0.2992    1.7928 H   0  0  0  0  0  0  0  0  0  0  0  0
    5.2786   -2.6331    4.2004 H   0  0  0  0  0  0  0  0  0  0  0  0
    6.7158   -3.4516    3.5736 H   0  0  0  0  0  0  0  0  0  0  0  0
   -1.2144   -1.3820   -1.4111 H   0  0  0  0  0  0  0  0  0  0  0  0
    0.5599   -0.4068    4.3334 H   0  0  0  0  0  0  0  0  0  0  0  0
    3.9415    2.1193    4.2939 H   0  0  0  0  0  0  0  0  0  0  0  0
   -1.1141    3.3584   -0.0271 H   0  0  0  0  0  0  0  0  0  0  0  0
   -0.7050    2.5214    1.4844 H   0  0  0  0  0  0  0  0  0  0  0  0
   -2.2523    3.3343    1.3070 H   0  0  0  0  0  0  0  0  0  0  0  0
   -3.5714   -1.7786   -1.2281 H   0  0  0  0  0  0  0  0  0  0  0  0
    0.8735   -0.7775    6.7080 H   0  0  0  0  0  0  0  0  0  0  0  0
    4.2438    1.7439    6.6655 H   0  0  0  0  0  0  0  0  0  0  0  0
   -4.2587    2.8846    0.4049 H   0  0  0  0  0  0  0  0  0  0  0  0
   -4.9970   -0.1874   -0.0935 H   0  0  0  0  0  0  0  0  0  0  0  0
    2.7057    0.3065    7.8802 H   0  0  0  0  0  0  0  0  0  0  0  0
  1  2  1  0  0  0  0 
  1  3  2  0  0  0  0 
  2  5  1  0  0  0  0 
  4  1  1  0  0  0  0 
  4  6  1  0  0  0  0 
  4  7  1  0  0  0  0 
  5  8  1  0  0  0  0 
  5  9  1  0  0  0  0 
  5 10  1  0  0  0  0 
  6 11  1  0  0  0  0 
  6 12  1  0  0  0  0 
 13  7  1  0  0  0  0 
 15 12  1  0  0  0  0 
 15 13  1  0  0  0  0 
 13 16  1  0  0  0  0 
 13 41  1  0  0  0  0 
 14 11  1  0  0  0  0 
 14 17  1  0  0  0  0 
 14 18  1  0  0  0  0 
 15 19  1  0  0  0  0 
 15 42  1  0  0  0  0 
 16 20  1  0  0  0  0 
 17 21  1  0  0  0  0 
 17 22  1  0  0  0  0 
 19 23  1  0  0  0  0 
 20 23  1  0  0  0  0 
 21 24  1  0  0  0  0 
 22 25  1  0  0  0  0 
 24 26  2  0  0  0  0 
 24 27  1  0  0  0  0 
 25 28  1  0  0  0  0 
 27 29  2  0  0  0  0 
 27 30  1  0  0  0  0 
 28 31  2  0  0  0  0 
 28 32  1  0  0  0  0 
 29 33  1  0  0  0  0 
 29 34  1  0  0  0  0 
 30 35  2  0  0  0  0 
 31 36  1  0  0  0  0 
 32 37  2  0  0  0  0 
 34 38  1  0  0  0  0 
 34 39  2  0  0  0  0 
 35 39  1  0  0  0  0 
 36 40  2  0  0  0  0 
 37 40  1  0  0  0  0 
  2 43  1  0  0  0  0 
  4 44  1  0  0  0  0 
  7 45  1  0  0  0  0 
  7 46  1  0  0  0  0 
  8 47  1  0  0  0  0 
  8 48  1  0  0  0  0 
  8 49  1  0  0  0  0 
  9 50  1  0  0  0  0 
  9 51  1  0  0  0  0 
  9 52  1  0  0  0  0 
 10 53  1  0  0  0  0 
 10 54  1  0  0  0  0 
 10 55  1  0  0  0  0 
 11 56  1  0  0  0  0 
 11 57  1  0  0  0  0 
 12 58  1  0  0  0  0 
 12 59  1  0  0  0  0 
 14 60  1  0  0  0  0 
 16 61  1  0  0  0  0 
 16 62  1  0  0  0  0 
 17 63  1  0  0  0  0 
 18 64  1  0  0  0  0 
 19 65  1  0  0  0  0 
 19 66  1  0  0  0  0 
 20 67  1  0  0  0  0 
 20 68  1  0  0  0  0 
 21 69  1  0  0  0  0 
 22 70  1  0  0  0  0 
 22 71  1  0  0  0  0 
 23 72  1  0  0  0  0 
 23 73  1  0  0  0  0 
 30 74  1  0  0  0  0 
 31 75  1  0  0  0  0 
 32 76  1  0  0  0  0 
 33 77  1  0  0  0  0 
 33 78  1  0  0  0  0 
 33 79  1  0  0  0  0 
 35 80  1  0  0  0  0 
 36 81  1  0  0  0  0 
 37 82  1  0  0  0  0 
 38 83  1  0  0  0  0 
 39 84  1  0  0  0  0 
 40 85  1  0  0  0  0 
M  END
> <cdk:Title>
nelfinavir

> <Conformer>
1

> <SuperDrugID>
SD001688

$$$$
