chloroprednisone
  CDK     0628171801

 52 55  0  0  0  0  0  0  0  0999 V2000
    0.3788    3.2242    1.6958 C   0  0  0  0  0  0  0  0  0  0  0  0
   -0.5407    3.6412    2.9168 C   0  0  2  0  0  0  0  0  0  0  0  0
   -0.7563    5.1873    3.0715 C   0  0  2  0  0  0  0  0  0  0  0  0
    0.1976    3.3314    4.2747 C   0  0  2  0  0  0  0  0  0  0  0  0
   -1.9654    3.0165    2.7101 C   0  0  2  0  0  0  0  0  0  0  0  0
   -1.4010    5.8320    1.8008 C   0  0  1  0  0  0  0  0  0  0  0  0
    0.5978    5.7202    3.5879 C   0  0  1  0  0  0  0  0  0  0  0  0
    0.8307    1.9718    4.3919 C   0  0  0  0  0  0  0  0  0  0  0  0
   -0.7143    3.4273    5.3780 O   0  0  0  0  0  0  0  0  0  0  0  0
    1.1868    4.5433    4.4055 C   0  0  1  0  0  0  0  0  0  0  0  0
   -2.6430    3.6507    1.5393 C   0  0  0  0  0  0  0  0  0  0  0  0
   -2.7902    5.1515    1.4699 C   0  0  2  0  0  0  0  0  0  0  0  0
   -1.5810    7.3700    1.9438 C   0  0  1  0  0  0  0  0  0  0  0  0
    0.0525    0.7227    4.5659 C   0  0  1  0  0  0  0  0  0  0  0  0
    2.0765    1.8367    4.3394 O   0  0  0  0  0  0  0  0  0  0  0  0
   -3.0235    2.8872    0.6217 O   0  0  0  0  0  0  0  0  0  0  0  0
   -3.4803    5.8002    0.1835 C   0  0  2  0  0  0  0  0  0  0  0  0
   -2.1873    7.9762    0.6497 C   0  0  1  0  0  0  0  0  0  0  0  0
   -0.1531    0.1005    3.3052 O   0  0  0  0  0  0  0  0  0  0  0  0
   -2.7490    5.4412   -1.1601 C   0  0  0  0  0  0  0  0  0  0  0  0
   -3.4740    7.3046    0.3386 C   0  0  0  0  0  0  0  0  0  0  0  0
   -4.8541    5.2553    0.0245 C   0  0  0  0  0  0  0  0  0  0  0  0
   -2.1518    9.7424    0.8249 Cl  0  0  0  0  0  0  0  0  0  0  0  0
   -4.6240    8.0113    0.2170 C   0  0  0  0  0  0  0  0  0  0  0  0
   -5.9468    6.0278   -0.0790 C   0  0  0  0  0  0  0  0  0  0  0  0
   -5.8437    7.4016   -0.0215 C   0  0  0  0  0  0  0  0  0  0  0  0
   -6.8712    8.1033   -0.1756 O   0  0  0  0  0  0  0  0  0  0  0  0
   -0.7129    5.6742    0.9695 H   0  0  0  0  0  0  0  0  0  0  0  0
   -3.4564    5.3860    2.3114 H   0  0  0  0  0  0  0  0  0  0  0  0
   -1.4730    5.3732    3.8855 H   0  0  0  0  0  0  0  0  0  0  0  0
   -0.0565    3.4891    0.7322 H   0  0  0  0  0  0  0  0  0  0  0  0
    1.3607    3.6950    1.7482 H   0  0  0  0  0  0  0  0  0  0  0  0
    0.5351    2.1447    1.6797 H   0  0  0  0  0  0  0  0  0  0  0  0
   -2.5946    3.1724    3.5896 H   0  0  0  0  0  0  0  0  0  0  0  0
   -1.8817    1.9363    2.5690 H   0  0  0  0  0  0  0  0  0  0  0  0
    1.2516    5.9837    2.7510 H   0  0  0  0  0  0  0  0  0  0  0  0
    0.4639    6.6062    4.2165 H   0  0  0  0  0  0  0  0  0  0  0  0
   -0.1785    3.2060    6.1702 H   0  0  0  0  0  0  0  0  0  0  0  0
    1.3215    4.8304    5.4516 H   0  0  0  0  0  0  0  0  0  0  0  0
    2.1736    4.3078    3.9975 H   0  0  0  0  0  0  0  0  0  0  0  0
   -2.2322    7.5941    2.7968 H   0  0  0  0  0  0  0  0  0  0  0  0
   -0.6069    7.8314    2.1337 H   0  0  0  0  0  0  0  0  0  0  0  0
    0.5948    0.0211    5.2050 H   0  0  0  0  0  0  0  0  0  0  0  0
   -0.9175    0.9160    5.0258 H   0  0  0  0  0  0  0  0  0  0  0  0
   -1.4965    7.7878   -0.1756 H   0  0  0  0  0  0  0  0  0  0  0  0
   -0.7271   -0.6704    3.4993 H   0  0  0  0  0  0  0  0  0  0  0  0
   -2.8284    4.3780   -1.3975 H   0  0  0  0  0  0  0  0  0  0  0  0
   -1.6863    5.6811   -1.1283 H   0  0  0  0  0  0  0  0  0  0  0  0
   -3.1927    5.9957   -1.9936 H   0  0  0  0  0  0  0  0  0  0  0  0
   -4.9884    4.2726   -0.0374 H   0  0  0  0  0  0  0  0  0  0  0  0
   -4.6302    9.0006    0.3047 H   0  0  0  0  0  0  0  0  0  0  0  0
   -6.8375    5.6044   -0.2077 H   0  0  0  0  0  0  0  0  0  0  0  0
  2  1  1  0  0  0  0 
  3  2  1  0  0  0  0 
  2  4  1  0  0  0  0 
  2  5  1  0  0  0  0 
  6  3  1  0  0  0  0 
  3  7  1  0  0  0  0 
  3 30  1  0  0  0  0 
  4  8  1  0  0  0  0 
  4  9  1  0  0  0  0 
  4 10  1  0  0  0  0 
  5 11  1  0  0  0  0 
 12  6  1  0  0  0  0 
  6 13  1  0  0  0  0 
  6 28  1  0  0  0  0 
  7 10  1  0  0  0  0 
  8 14  1  0  0  0  0 
  8 15  2  0  0  0  0 
 12 11  1  0  0  0  0 
 11 16  2  0  0  0  0 
 12 17  1  0  0  0  0 
 12 29  1  0  0  0  0 
 18 13  1  0  0  0  0 
 14 19  1  0  0  0  0 
 17 20  1  0  0  0  0 
 17 21  1  0  0  0  0 
 17 22  1  0  0  0  0 
 18 21  1  0  0  0  0 
 18 23  1  0  0  0  0 
 21 24  2  0  0  0  0 
 22 25  2  0  0  0  0 
 24 26  1  0  0  0  0 
 25 26  1  0  0  0  0 
 26 27  2  0  0  0  0 
  1 31  1  0  0  0  0 
  1 32  1  0  0  0  0 
  1 33  1  0  0  0  0 
  5 34  1  0  0  0  0 
  5 35  1  0  0  0  0 
  7 36  1  0  0  0  0 
  7 37  1  0  0  0  0 
  9 38  1  0  0  0  0 
 10 39  1  0  0  0  0 
 10 40  1  0  0  0  0 
 13 41  1  0  0  0  0 
 13 42  1  0  0  0  0 
 14 43  1  0  0  0  0 
 14 44  1  0  0  0  0 
 18 45  1  0  0  0  0 
 19 46  1  0  0  0  0 
 20 47  1  0  0  0  0 
 20 48  1  0  0  0  0 
 20 49  1  0  0  0  0 
 22 50  1  0  0  0  0 
 24 51  1  0  0  0  0 
 25 52  1  0  0  0  0 
M  END
> <cdk:Title>
chloroprednisone

> <Conformer>
1

> <SuperDrugID>
SD002684

$$$$
