etiprednol dicloacetate
  CDK     0628171801

 62 65  0  0  0  0  0  0  0  0999 V2000
   -0.7776    3.2203   -1.8142 O   0  0  0  0  0  0  0  0  0  0  0  0
   -1.0653    2.6095   -3.0059 C   0  0  0  0  0  0  0  0  0  0  0  0
   -0.7782    2.7149   -0.4568 C   0  0  1  0  0  0  0  0  0  0  0  0
   -0.8489    3.3641   -4.2494 C   0  0  2  0  0  0  0  0  0  0  0  0
   -1.4802    1.4282   -3.0544 O   0  0  0  0  0  0  0  0  0  0  0  0
    0.2061    1.5901   -0.4380 C   0  0  0  0  0  0  0  0  0  0  0  0
   -0.4033    3.8968    0.5290 C   0  0  2  0  0  0  0  0  0  0  0  0
   -2.2399    2.3357   -0.0120 C   0  0  2  0  0  0  0  0  0  0  0  0
    0.8733    3.6719   -4.4394 Cl  0  0  0  0  0  0  0  0  0  0  0  0
   -1.7162    4.8956   -4.2090 Cl  0  0  0  0  0  0  0  0  0  0  0  0
   -0.1478    0.3636    0.0415 O   0  0  0  0  0  0  0  0  0  0  0  0
    1.3702    1.7875   -0.8615 O   0  0  0  0  0  0  0  0  0  0  0  0
    0.1186    3.2998    1.9010 C   0  0  0  0  0  0  0  0  0  0  0  0
   -1.7799    4.6323    0.6272 C   0  0  1  0  0  0  0  0  0  0  0  0
    0.6189    4.9599   -0.0215 C   0  0  2  0  0  0  0  0  0  0  0  0
   -2.7936    3.4951    0.8522 C   0  0  1  0  0  0  0  0  0  0  0  0
    0.6933   -0.7812    0.1947 C   0  0  1  0  0  0  0  0  0  0  0  0
   -1.7780    5.8633    1.5970 C   0  0  1  0  0  0  0  0  0  0  0  0
    0.6894    6.2759    0.8202 C   0  0  1  0  0  0  0  0  0  0  0  0
   -0.1414   -1.9275    0.7902 C   0  0  0  0  0  0  0  0  0  0  0  0
   -0.7185    6.9309    1.1070 C   0  0  2  0  0  0  0  0  0  0  0  0
   -3.1917    6.5135    1.6987 C   0  0  1  0  0  0  0  0  0  0  0  0
    1.4383    6.0303    2.0053 O   0  0  0  0  0  0  0  0  0  0  0  0
   -0.7374    8.2739    1.9722 C   0  0  2  0  0  0  0  0  0  0  0  0
   -3.1792    7.7981    2.5608 C   0  0  2  0  0  0  0  0  0  0  0  0
   -0.1889    8.1004    3.4346 C   0  0  0  0  0  0  0  0  0  0  0  0
   -2.1645    8.7342    2.0599 C   0  0  0  0  0  0  0  0  0  0  0  0
    0.1342    9.2974    1.3377 C   0  0  0  0  0  0  0  0  0  0  0  0
   -2.5385    9.9679    1.6467 C   0  0  0  0  0  0  0  0  0  0  0  0
   -0.3024   10.5048    0.9455 C   0  0  0  0  0  0  0  0  0  0  0  0
   -1.6271   10.8614    1.1076 C   0  0  0  0  0  0  0  0  0  0  0  0
   -2.0085   11.9984    0.7421 O   0  0  0  0  0  0  0  0  0  0  0  0
   -1.5204    5.5210    2.6000 H   0  0  0  0  0  0  0  0  0  0  0  0
   -1.0667    7.2363    0.1111 H   0  0  0  0  0  0  0  0  0  0  0  0
   -2.0346    5.0420   -0.3612 H   0  0  0  0  0  0  0  0  0  0  0  0
   -1.1914    2.7886   -5.1118 H   0  0  0  0  0  0  0  0  0  0  0  0
   -2.2780    1.4242    0.5884 H   0  0  0  0  0  0  0  0  0  0  0  0
   -2.8818    2.1817   -0.8815 H   0  0  0  0  0  0  0  0  0  0  0  0
    0.1255    4.0225    2.7107 H   0  0  0  0  0  0  0  0  0  0  0  0
   -0.4899    2.4568    2.2337 H   0  0  0  0  0  0  0  0  0  0  0  0
    1.1419    2.9351    1.7888 H   0  0  0  0  0  0  0  0  0  0  0  0
    0.3461    5.2546   -1.0387 H   0  0  0  0  0  0  0  0  0  0  0  0
    1.6139    4.5136   -0.0914 H   0  0  0  0  0  0  0  0  0  0  0  0
   -3.8001    3.7781    0.5330 H   0  0  0  0  0  0  0  0  0  0  0  0
   -2.8307    3.2172    1.9104 H   0  0  0  0  0  0  0  0  0  0  0  0
    1.0989   -1.0785   -0.7748 H   0  0  0  0  0  0  0  0  0  0  0  0
    1.5174   -0.5413    0.8709 H   0  0  0  0  0  0  0  0  0  0  0  0
    1.2840    6.9803    0.2329 H   0  0  0  0  0  0  0  0  0  0  0  0
    0.4631   -2.8330    0.8637 H   0  0  0  0  0  0  0  0  0  0  0  0
   -0.4882   -1.6476    1.7877 H   0  0  0  0  0  0  0  0  0  0  0  0
   -1.0075   -2.1268    0.1547 H   0  0  0  0  0  0  0  0  0  0  0  0
   -3.5587    6.7620    0.6975 H   0  0  0  0  0  0  0  0  0  0  0  0
   -3.8960    5.8055    2.1443 H   0  0  0  0  0  0  0  0  0  0  0  0
    2.3197    5.7354    1.6883 H   0  0  0  0  0  0  0  0  0  0  0  0
   -2.9664    7.5406    3.6002 H   0  0  0  0  0  0  0  0  0  0  0  0
   -4.1903    8.2180    2.5485 H   0  0  0  0  0  0  0  0  0  0  0  0
    0.8953    7.9817    3.4564 H   0  0  0  0  0  0  0  0  0  0  0  0
   -0.6163    7.2291    3.9286 H   0  0  0  0  0  0  0  0  0  0  0  0
   -0.4260    8.9762    4.0446 H   0  0  0  0  0  0  0  0  0  0  0  0
    1.0993    9.1008    1.2055 H   0  0  0  0  0  0  0  0  0  0  0  0
   -3.4889   10.2560    1.7126 H   0  0  0  0  0  0  0  0  0  0  0  0
    0.3353   11.1505    0.5355 H   0  0  0  0  0  0  0  0  0  0  0  0
  1  2  1  0  0  0  0 
  2  4  1  0  0  0  0 
  2  5  2  0  0  0  0 
  3  1  1  0  0  0  0 
  3  6  1  0  0  0  0 
  7  3  1  0  0  0  0 
  3  8  1  0  0  0  0 
  4  9  1  0  0  0  0 
  4 10  1  0  0  0  0 
  6 11  1  0  0  0  0 
  6 12  2  0  0  0  0 
  7 13  1  0  0  0  0 
 14  7  1  0  0  0  0 
  7 15  1  0  0  0  0 
  8 16  1  0  0  0  0 
 11 17  1  0  0  0  0 
 14 16  1  0  0  0  0 
 14 18  1  0  0  0  0 
 14 35  1  0  0  0  0 
 19 15  1  0  0  0  0 
 17 20  1  0  0  0  0 
 18 21  1  0  0  0  0 
 18 22  1  0  0  0  0 
 18 33  1  0  0  0  0 
 21 19  1  0  0  0  0 
 19 23  1  0  0  0  0 
 21 24  1  0  0  0  0 
 21 34  1  0  0  0  0 
 22 25  1  0  0  0  0 
 24 26  1  0  0  0  0 
 24 27  1  0  0  0  0 
 24 28  1  0  0  0  0 
 25 27  1  0  0  0  0 
 27 29  2  0  0  0  0 
 28 30  2  0  0  0  0 
 29 31  1  0  0  0  0 
 30 31  1  0  0  0  0 
 31 32  2  0  0  0  0 
  4 36  1  0  0  0  0 
  8 37  1  0  0  0  0 
  8 38  1  0  0  0  0 
 13 39  1  0  0  0  0 
 13 40  1  0  0  0  0 
 13 41  1  0  0  0  0 
 15 42  1  0  0  0  0 
 15 43  1  0  0  0  0 
 16 44  1  0  0  0  0 
 16 45  1  0  0  0  0 
 17 46  1  0  0  0  0 
 17 47  1  0  0  0  0 
 19 48  1  0  0  0  0 
 20 49  1  0  0  0  0 
 20 50  1  0  0  0  0 
 20 51  1  0  0  0  0 
 22 52  1  0  0  0  0 
 22 53  1  0  0  0  0 
 23 54  1  0  0  0  0 
 25 55  1  0  0  0  0 
 25 56  1  0  0  0  0 
 26 57  1  0  0  0  0 
 26 58  1  0  0  0  0 
 26 59  1  0  0  0  0 
 28 60  1  0  0  0  0 
 29 61  1  0  0  0  0 
 30 62  1  0  0  0  0 
M  END
> <cdk:Title>
etiprednol dicloacetate

> <Conformer>
1

> <SuperDrugID>
SD002777

$$$$
