tetrofosmin
  CDK     0628171801

 64 63  0  0  0  0  0  0  0  0999 V2000
   -4.1350    2.6518   -0.0246 P   0  0  1  0  0  0  0  0  0  0  0  0
   -4.5728    4.3140   -0.0164 C   0  0  2  0  0  0  0  0  0  0  0  0
   -4.8247    1.8985   -1.4059 C   0  0  2  0  0  0  0  0  0  0  0  0
   -2.4237    2.5316   -0.1389 C   0  0  2  0  0  0  0  0  0  0  0  0
   -4.1344    5.0747    1.2636 C   0  0  1  0  0  0  0  0  0  0  0  0
   -6.3717    1.9206   -1.4469 C   0  0  2  0  0  0  0  0  0  0  0  0
   -1.8750    1.0839   -0.1033 C   0  0  1  0  0  0  0  0  0  0  0  0
   -4.5632    6.7392    1.2725 P   0  0  2  0  0  0  0  0  0  0  0  0
   -6.8419    1.1930   -2.5997 O   0  0  0  0  0  0  0  0  0  0  0  0
   -0.4333    1.1230   -0.0823 O   0  0  0  0  0  0  0  0  0  0  0  0
   -3.8530    7.4934    2.6441 C   0  0  2  0  0  0  0  0  0  0  0  0
   -6.2728    6.8652    1.4076 C   0  0  2  0  0  0  0  0  0  0  0  0
   -8.2796    1.1362   -2.7082 C   0  0  1  0  0  0  0  0  0  0  0  0
    0.2034   -0.1691   -0.0062 C   0  0  2  0  0  0  0  0  0  0  0  0
   -2.3047    7.4581    2.6746 C   0  0  1  0  0  0  0  0  0  0  0  0
   -6.8172    8.3147    1.3645 C   0  0  1  0  0  0  0  0  0  0  0  0
   -8.6789    0.3917   -3.9943 C   0  0  0  0  0  0  0  0  0  0  0  0
    1.7328    0.0116    0.0305 C   0  0  0  0  0  0  0  0  0  0  0  0
   -1.8163    8.1880    3.8197 O   0  0  0  0  0  0  0  0  0  0  0  0
   -8.2590    8.2775    1.3475 O   0  0  0  0  0  0  0  0  0  0  0  0
   -0.3766    8.2543    3.9318 C   0  0  2  0  0  0  0  0  0  0  0  0
   -8.8930    9.5699    1.2611 C   0  0  2  0  0  0  0  0  0  0  0  0
   -0.0652    9.0444    5.2996 C   0  0  0  0  0  0  0  0  0  0  0  0
  -10.4211    9.3841    1.2210 C   0  0  0  0  0  0  0  0  0  0  0  0
   -5.6565    4.3749   -0.0882 H   0  0  0  0  0  0  0  0  0  0  0  0
   -4.1461    4.7934   -0.9003 H   0  0  0  0  0  0  0  0  0  0  0  0
   -4.5154    0.8529   -1.4054 H   0  0  0  0  0  0  0  0  0  0  0  0
   -4.4290    2.3685   -2.3090 H   0  0  0  0  0  0  0  0  0  0  0  0
   -1.9820    3.0670    0.7017 H   0  0  0  0  0  0  0  0  0  0  0  0
   -2.0935    3.0189   -1.0588 H   0  0  0  0  0  0  0  0  0  0  0  0
   -4.5648    4.5978    2.1467 H   0  0  0  0  0  0  0  0  0  0  0  0
   -3.0514    5.0114    1.3382 H   0  0  0  0  0  0  0  0  0  0  0  0
   -6.7251    2.9517   -1.5119 H   0  0  0  0  0  0  0  0  0  0  0  0
   -6.7634    1.4610   -0.5346 H   0  0  0  0  0  0  0  0  0  0  0  0
   -2.2443    0.5745    0.7917 H   0  0  0  0  0  0  0  0  0  0  0  0
   -2.2094    0.5401   -0.9897 H   0  0  0  0  0  0  0  0  0  0  0  0
   -4.2406    7.0326    3.5561 H   0  0  0  0  0  0  0  0  0  0  0  0
   -4.1522    8.5427    2.6436 H   0  0  0  0  0  0  0  0  0  0  0  0
   -6.5969    6.3854    2.3340 H   0  0  0  0  0  0  0  0  0  0  0  0
   -6.7235    6.3247    0.5756 H   0  0  0  0  0  0  0  0  0  0  0  0
   -8.7059    0.6055   -1.8516 H   0  0  0  0  0  0  0  0  0  0  0  0
   -8.7027    2.1447   -2.7461 H   0  0  0  0  0  0  0  0  0  0  0  0
   -0.0595   -0.7774   -0.8768 H   0  0  0  0  0  0  0  0  0  0  0  0
   -0.1046   -0.6969    0.9012 H   0  0  0  0  0  0  0  0  0  0  0  0
   -1.9597    6.4250    2.7441 H   0  0  0  0  0  0  0  0  0  0  0  0
   -1.9134    7.9064    1.7570 H   0  0  0  0  0  0  0  0  0  0  0  0
   -6.4774    8.8639    2.2459 H   0  0  0  0  0  0  0  0  0  0  0  0
   -6.4501    8.8159    0.4638 H   0  0  0  0  0  0  0  0  0  0  0  0
   -9.7674    0.3697   -4.0850 H   0  0  0  0  0  0  0  0  0  0  0  0
   -8.2610    0.8990   -4.8664 H   0  0  0  0  0  0  0  0  0  0  0  0
   -8.3071   -0.6343   -3.9663 H   0  0  0  0  0  0  0  0  0  0  0  0
    2.2207   -0.9659    0.0560 H   0  0  0  0  0  0  0  0  0  0  0  0
    2.0690    0.5532   -0.8564 H   0  0  0  0  0  0  0  0  0  0  0  0
    2.0241    0.5724    0.9215 H   0  0  0  0  0  0  0  0  0  0  0  0
    0.0087    8.7462    2.9959 H   0  0  0  0  0  0  0  0  0  0  0  0
    0.0208    7.2018    3.8909 H   0  0  0  0  0  0  0  0  0  0  0  0
   -8.5826   10.0927    0.3515 H   0  0  0  0  0  0  0  0  0  0  0  0
   -8.6330   10.1828    2.1293 H   0  0  0  0  0  0  0  0  0  0  0  0
   -0.4718   10.0556    5.2491 H   0  0  0  0  0  0  0  0  0  0  0  0
    1.0155    9.0995    5.4416 H   0  0  0  0  0  0  0  0  0  0  0  0
   -0.5083    8.5144    6.1440 H   0  0  0  0  0  0  0  0  0  0  0  0
  -10.7074    8.8188    0.3313 H   0  0  0  0  0  0  0  0  0  0  0  0
  -10.9127   10.3588    1.1912 H   0  0  0  0  0  0  0  0  0  0  0  0
  -10.7565    8.8434    2.1087 H   0  0  0  0  0  0  0  0  0  0  0  0
  1  2  1  0  0  0  0 
  1  3  1  0  0  0  0 
  1  4  1  0  0  0  0 
  2  5  1  0  0  0  0 
  3  6  1  0  0  0  0 
  4  7  1  0  0  0  0 
  5  8  1  0  0  0  0 
  6  9  1  0  0  0  0 
  7 10  1  0  0  0  0 
  8 11  1  0  0  0  0 
  8 12  1  0  0  0  0 
  9 13  1  0  0  0  0 
 10 14  1  0  0  0  0 
 11 15  1  0  0  0  0 
 12 16  1  0  0  0  0 
 13 17  1  0  0  0  0 
 14 18  1  0  0  0  0 
 15 19  1  0  0  0  0 
 16 20  1  0  0  0  0 
 19 21  1  0  0  0  0 
 20 22  1  0  0  0  0 
 21 23  1  0  0  0  0 
 22 24  1  0  0  0  0 
  2 25  1  0  0  0  0 
  2 26  1  0  0  0  0 
  3 27  1  0  0  0  0 
  3 28  1  0  0  0  0 
  4 29  1  0  0  0  0 
  4 30  1  0  0  0  0 
  5 31  1  0  0  0  0 
  5 32  1  0  0  0  0 
  6 33  1  0  0  0  0 
  6 34  1  0  0  0  0 
  7 35  1  0  0  0  0 
  7 36  1  0  0  0  0 
 11 37  1  0  0  0  0 
 11 38  1  0  0  0  0 
 12 39  1  0  0  0  0 
 12 40  1  0  0  0  0 
 13 41  1  0  0  0  0 
 13 42  1  0  0  0  0 
 14 43  1  0  0  0  0 
 14 44  1  0  0  0  0 
 15 45  1  0  0  0  0 
 15 46  1  0  0  0  0 
 16 47  1  0  0  0  0 
 16 48  1  0  0  0  0 
 17 49  1  0  0  0  0 
 17 50  1  0  0  0  0 
 17 51  1  0  0  0  0 
 18 52  1  0  0  0  0 
 18 53  1  0  0  0  0 
 18 54  1  0  0  0  0 
 21 55  1  0  0  0  0 
 21 56  1  0  0  0  0 
 22 57  1  0  0  0  0 
 22 58  1  0  0  0  0 
 23 59  1  0  0  0  0 
 23 60  1  0  0  0  0 
 23 61  1  0  0  0  0 
 24 62  1  0  0  0  0 
 24 63  1  0  0  0  0 
 24 64  1  0  0  0  0 
M  END
> <cdk:Title>
tetrofosmin

> <Conformer>
1

> <SuperDrugID>
SD003083

$$$$
