pixantrone
  CDK     0628171801

 43 45  0  0  0  0  0  0  0  0999 V2000
    5.7117   -0.4202   -2.0583 N   0  0  0  0  0  0  0  0  0  0  0  0
    6.0602   -1.4827   -2.9496 C   0  0  2  0  0  0  0  0  0  0  0  0
    4.4466    0.0691   -1.8896 C   0  0  0  0  0  0  0  0  0  0  0  0
    7.5810   -1.7498   -2.9672 C   0  0  1  0  0  0  0  0  0  0  0  0
    4.1323    1.4537   -2.0551 C   0  0  0  0  0  0  0  0  0  0  0  0
    3.4347   -0.8395   -1.5254 C   0  0  0  0  0  0  0  0  0  0  0  0
    8.3472   -0.5566   -3.3425 N   0  0  1  0  0  0  0  0  0  0  0  0
    2.7739    1.8913   -1.8987 C   0  0  0  0  0  0  0  0  0  0  0  0
    5.1445    2.4262   -2.3849 C   0  0  0  0  0  0  0  0  0  0  0  0
    2.1254   -0.4029   -1.3203 C   0  0  0  0  0  0  0  0  0  0  0  0
    1.7777    0.9528   -1.4816 C   0  0  0  0  0  0  0  0  0  0  0  0
    2.4570    3.2738   -2.1541 C   0  0  0  0  0  0  0  0  0  0  0  0
    6.3533    2.0964   -2.4625 O   0  0  0  0  0  0  0  0  0  0  0  0
    4.8179    3.7939   -2.6196 C   0  0  0  0  0  0  0  0  0  0  0  0
    0.4790    1.3131   -1.2381 N   0  0  0  0  0  0  0  0  0  0  0  0
    1.2756    3.6941   -2.0760 O   0  0  0  0  0  0  0  0  0  0  0  0
    3.4658    4.2149   -2.5138 C   0  0  0  0  0  0  0  0  0  0  0  0
    5.8115    4.7495   -2.9591 C   0  0  0  0  0  0  0  0  0  0  0  0
   -0.2105    1.0734   -0.0061 C   0  0  2  0  0  0  0  0  0  0  0  0
    3.1690    5.5778   -2.7738 C   0  0  0  0  0  0  0  0  0  0  0  0
    5.4487    6.0848   -3.1974 C   0  0  0  0  0  0  0  0  0  0  0  0
   -1.6821    1.5378   -0.0670 C   0  0  2  0  0  0  0  0  0  0  0  0
    4.1515    6.4532   -3.1003 N   0  0  0  0  0  0  0  0  0  0  0  0
   -2.3385    1.3144    1.2261 N   0  0  1  0  0  0  0  0  0  0  0  0
    6.4345    0.0382   -1.6015 H   0  0  0  0  0  0  0  0  0  0  0  0
    5.7366   -1.2165   -3.9601 H   0  0  0  0  0  0  0  0  0  0  0  0
    5.5571   -2.4069   -2.6559 H   0  0  0  0  0  0  0  0  0  0  0  0
    7.9144   -2.0858   -1.9827 H   0  0  0  0  0  0  0  0  0  0  0  0
    7.7991   -2.5358   -3.6938 H   0  0  0  0  0  0  0  0  0  0  0  0
    3.6425   -1.8318   -1.3891 H   0  0  0  0  0  0  0  0  0  0  0  0
    9.3256   -0.8461   -3.4100 H   0  0  0  0  0  0  0  0  0  0  0  0
    8.0498   -0.2915   -4.2841 H   0  0  0  0  0  0  0  0  0  0  0  0
    1.4223   -1.0986   -1.0603 H   0  0  0  0  0  0  0  0  0  0  0  0
    0.0201    1.8411   -1.9113 H   0  0  0  0  0  0  0  0  0  0  0  0
    6.7975    4.4905   -3.0396 H   0  0  0  0  0  0  0  0  0  0  0  0
    0.3036    1.6139    0.7908 H   0  0  0  0  0  0  0  0  0  0  0  0
   -0.2015    0.0099    0.2413 H   0  0  0  0  0  0  0  0  0  0  0  0
    2.2127    5.9338   -2.7220 H   0  0  0  0  0  0  0  0  0  0  0  0
    6.1580    6.7773   -3.4466 H   0  0  0  0  0  0  0  0  0  0  0  0
   -2.2205    0.9710   -0.8291 H   0  0  0  0  0  0  0  0  0  0  0  0
   -1.7400    2.6012   -0.3085 H   0  0  0  0  0  0  0  0  0  0  0  0
   -3.3323    1.5256    1.1076 H   0  0  0  0  0  0  0  0  0  0  0  0
   -2.2671    0.3170    1.4358 H   0  0  0  0  0  0  0  0  0  0  0  0
  1  2  1  0  0  0  0 
  1  3  1  0  0  0  0 
  2  4  1  0  0  0  0 
  3  5  2  0  0  0  0 
  3  6  1  0  0  0  0 
  4  7  1  0  0  0  0 
  5  8  1  0  0  0  0 
  5  9  1  0  0  0  0 
  6 10  2  0  0  0  0 
  8 11  2  0  0  0  0 
  8 12  1  0  0  0  0 
  9 13  2  0  0  0  0 
  9 14  1  0  0  0  0 
 10 11  1  0  0  0  0 
 11 15  1  0  0  0  0 
 12 16  2  0  0  0  0 
 12 17  1  0  0  0  0 
 14 17  2  0  0  0  0 
 14 18  1  0  0  0  0 
 15 19  1  0  0  0  0 
 17 20  1  0  0  0  0 
 18 21  2  0  0  0  0 
 19 22  1  0  0  0  0 
 20 23  2  0  0  0  0 
 21 23  1  0  0  0  0 
 22 24  1  0  0  0  0 
  1 25  1  0  0  0  0 
  2 26  1  0  0  0  0 
  2 27  1  0  0  0  0 
  4 28  1  0  0  0  0 
  4 29  1  0  0  0  0 
  6 30  1  0  0  0  0 
  7 31  1  0  0  0  0 
  7 32  1  0  0  0  0 
 10 33  1  0  0  0  0 
 15 34  1  0  0  0  0 
 18 35  1  0  0  0  0 
 19 36  1  0  0  0  0 
 19 37  1  0  0  0  0 
 20 38  1  0  0  0  0 
 21 39  1  0  0  0  0 
 22 40  1  0  0  0  0 
 22 41  1  0  0  0  0 
 24 42  1  0  0  0  0 
 24 43  1  0  0  0  0 
M  END
> <cdk:Title>
pixantrone

> <Conformer>
1

> <SuperDrugID>
SD003503

$$$$
