bucillamine
  CDK     0628171801

 26 25  0  0  0  0  0  0  0  0999 V2000
   -2.1654   -0.6769    0.6904 C   0  0  2  0  0  0  0  0  0  0  0  0
   -1.3149    0.4577    0.4760 N   0  0  0  0  0  0  0  0  0  0  0  0
   -3.5593   -0.1822    0.7711 C   0  0  0  0  0  0  0  0  0  0  0  0
   -1.7740   -1.4242    1.9936 C   0  0  1  0  0  0  0  0  0  0  0  0
   -0.2543    0.5435   -0.3819 C   0  0  0  0  0  0  0  0  0  0  0  0
   -3.9089    0.7561    1.6870 O   0  0  0  0  0  0  0  0  0  0  0  0
   -4.4445   -0.6164   -0.0013 O   0  0  0  0  0  0  0  0  0  0  0  0
   -0.1357   -2.1825    1.8918 S   0  0  0  0  0  0  0  0  0  0  0  0
    0.5341    1.8137   -0.4733 C   0  0  1  0  0  0  0  0  0  0  0  0
    0.0439   -0.4417   -1.1002 O   0  0  0  0  0  0  0  0  0  0  0  0
    1.9550    1.5949   -1.0803 C   0  0  0  0  0  0  0  0  0  0  0  0
   -0.2544    2.8500   -1.3252 C   0  0  0  0  0  0  0  0  0  0  0  0
    0.7865    2.5098    1.1893 S   0  0  0  0  0  0  0  0  0  0  0  0
   -2.0966   -1.3873   -0.1419 H   0  0  0  0  0  0  0  0  0  0  0  0
   -1.5064    1.2463    1.0067 H   0  0  0  0  0  0  0  0  0  0  0  0
   -1.7711   -0.7392    2.8438 H   0  0  0  0  0  0  0  0  0  0  0  0
   -2.4925   -2.2234    2.1904 H   0  0  0  0  0  0  0  0  0  0  0  0
   -4.8318    1.0849    1.7387 H   0  0  0  0  0  0  0  0  0  0  0  0
   -0.4431   -2.8948    0.7721 H   0  0  0  0  0  0  0  0  0  0  0  0
    2.5236    0.8826   -0.4770 H   0  0  0  0  0  0  0  0  0  0  0  0
    2.5133    2.5333   -1.1175 H   0  0  0  0  0  0  0  0  0  0  0  0
    1.8877    1.2041   -2.0986 H   0  0  0  0  0  0  0  0  0  0  0  0
    0.2994    3.7889   -1.4054 H   0  0  0  0  0  0  0  0  0  0  0  0
   -0.4206    2.4687   -2.3364 H   0  0  0  0  0  0  0  0  0  0  0  0
   -1.2277    3.0677   -0.8775 H   0  0  0  0  0  0  0  0  0  0  0  0
    1.4081    1.3923    1.6574 H   0  0  0  0  0  0  0  0  0  0  0  0
  1  2  1  0  0  0  0 
  1  3  1  0  0  0  0 
  1  4  1  0  0  0  0 
  2  5  1  0  0  0  0 
  3  6  1  0  0  0  0 
  3  7  2  0  0  0  0 
  4  8  1  0  0  0  0 
  5  9  1  0  0  0  0 
  5 10  2  0  0  0  0 
  9 11  1  0  0  0  0 
  9 12  1  0  0  0  0 
  9 13  1  0  0  0  0 
  1 14  1  0  0  0  0 
  2 15  1  0  0  0  0 
  4 16  1  0  0  0  0 
  4 17  1  0  0  0  0 
  6 18  1  0  0  0  0 
  8 19  1  0  0  0  0 
 11 20  1  0  0  0  0 
 11 21  1  0  0  0  0 
 11 22  1  0  0  0  0 
 12 23  1  0  0  0  0 
 12 24  1  0  0  0  0 
 12 25  1  0  0  0  0 
 13 26  1  0  0  0  0 
M  END
> <cdk:Title>
bucillamine

> <Conformer>
1

> <SuperDrugID>
SD000356

$$$$
