bimatoprost
  CDK     0628171801

 67 68  0  0  0  0  0  0  0  0999 V2000
    3.5495    7.4017    3.5099 C   0  0  0  0  0  0  0  0  0  0  0  0
    4.6684    7.5473    4.2402 C   0  0  0  0  0  0  0  0  0  0  0  0
    2.2305    7.8137    4.0005 C   0  0  2  0  0  0  0  0  0  0  0  0
    5.9896    7.1563    3.7749 C   0  0  2  0  0  0  0  0  0  0  0  0
    1.0327    7.4279    3.0581 C   0  0  1  0  0  0  0  0  0  0  0  0
    2.1349    9.3622    4.1995 C   0  0  2  0  0  0  0  0  0  0  0  0
    6.3155    5.6965    4.2052 C   0  0  1  0  0  0  0  0  0  0  0  0
    6.9308    8.0774    4.3282 O   0  0  0  0  0  0  0  0  0  0  0  0
   -0.1695    6.7565    3.8085 C   0  0  1  0  0  0  0  0  0  0  0  0
    0.6550    8.7695    2.3755 C   0  0  2  0  0  0  0  0  0  0  0  0
    2.0952    9.7251    5.5787 O   0  0  0  0  0  0  0  0  0  0  0  0
    0.8598    9.8272    3.4695 C   0  0  2  0  0  0  0  0  0  0  0  0
    7.6839    5.1706    3.6926 C   0  0  1  0  0  0  0  0  0  0  0  0
    0.1394    5.4157    4.2909 C   0  0  0  0  0  0  0  0  0  0  0  0
   -0.6608    8.8210    1.8257 O   0  0  0  0  0  0  0  0  0  0  0  0
    7.9528    3.7751    4.1445 C   0  0  0  0  0  0  0  0  0  0  0  0
    0.0524    4.2810    3.5726 C   0  0  0  0  0  0  0  0  0  0  0  0
    7.5871    2.6674    3.3460 C   0  0  0  0  0  0  0  0  0  0  0  0
    8.5635    3.5273    5.3956 C   0  0  0  0  0  0  0  0  0  0  0  0
   -0.3771    4.1995    2.1809 C   0  0  2  0  0  0  0  0  0  0  0  0
    7.8169    1.3517    3.7862 C   0  0  0  0  0  0  0  0  0  0  0  0
    8.8101    2.1860    5.8674 C   0  0  0  0  0  0  0  0  0  0  0  0
   -0.3328    2.7658    1.5872 C   0  0  1  0  0  0  0  0  0  0  0  0
    8.4190    1.1196    5.0358 C   0  0  0  0  0  0  0  0  0  0  0  0
   -0.8513    2.7311    0.1227 C   0  0  2  0  0  0  0  0  0  0  0  0
   -0.7929    1.3750   -0.4592 C   0  0  0  0  0  0  0  0  0  0  0  0
   -1.5392    0.3890    0.0964 N   0  0  0  0  0  0  0  0  0  0  0  0
   -0.0586    1.1576   -1.4510 O   0  0  0  0  0  0  0  0  0  0  0  0
   -1.5033   -0.9831   -0.2800 C   0  0  2  0  0  0  0  0  0  0  0  0
   -2.6663   -1.7196    0.4094 C   0  0  0  0  0  0  0  0  0  0  0  0
    3.6265    7.0034    2.6021 H   0  0  0  0  0  0  0  0  0  0  0  0
    4.5971    7.9354    5.1538 H   0  0  0  0  0  0  0  0  0  0  0  0
    2.0982    7.3170    4.9684 H   0  0  0  0  0  0  0  0  0  0  0  0
    6.0517    7.2420    2.6847 H   0  0  0  0  0  0  0  0  0  0  0  0
    1.3557    6.7407    2.2689 H   0  0  0  0  0  0  0  0  0  0  0  0
    2.9938    9.8790    3.7555 H   0  0  0  0  0  0  0  0  0  0  0  0
    6.3038    5.6416    5.2980 H   0  0  0  0  0  0  0  0  0  0  0  0
    5.5322    5.0331    3.8220 H   0  0  0  0  0  0  0  0  0  0  0  0
    7.7951    7.8331    3.9398 H   0  0  0  0  0  0  0  0  0  0  0  0
   -0.4692    7.3780    4.6586 H   0  0  0  0  0  0  0  0  0  0  0  0
   -1.0375    6.7082    3.1477 H   0  0  0  0  0  0  0  0  0  0  0  0
    1.3543    8.9592    1.5539 H   0  0  0  0  0  0  0  0  0  0  0  0
    2.0667   10.7056    5.5809 H   0  0  0  0  0  0  0  0  0  0  0  0
    0.9821   10.8236    3.0365 H   0  0  0  0  0  0  0  0  0  0  0  0
    0.0045    9.8364    4.1527 H   0  0  0  0  0  0  0  0  0  0  0  0
    7.6994    5.2185    2.6015 H   0  0  0  0  0  0  0  0  0  0  0  0
    8.4811    5.8283    4.0460 H   0  0  0  0  0  0  0  0  0  0  0  0
    0.4542    5.3371    5.2320 H   0  0  0  0  0  0  0  0  0  0  0  0
   -0.7159    9.6884    1.3716 H   0  0  0  0  0  0  0  0  0  0  0  0
    0.2934    3.4341    4.0367 H   0  0  0  0  0  0  0  0  0  0  0  0
    7.1422    2.8119    2.4359 H   0  0  0  0  0  0  0  0  0  0  0  0
    8.8390    4.3076    5.9929 H   0  0  0  0  0  0  0  0  0  0  0  0
    0.2651    4.8337    1.5655 H   0  0  0  0  0  0  0  0  0  0  0  0
   -1.4020    4.5723    2.1045 H   0  0  0  0  0  0  0  0  0  0  0  0
    7.5445    0.5603    3.1968 H   0  0  0  0  0  0  0  0  0  0  0  0
    9.2639    1.8946    6.7948 H   0  0  0  0  0  0  0  0  0  0  0  0
    0.6991    2.4004    1.6115 H   0  0  0  0  0  0  0  0  0  0  0  0
   -0.9467    2.1027    2.2052 H   0  0  0  0  0  0  0  0  0  0  0  0
    8.5753    0.1563    5.3436 H   0  0  0  0  0  0  0  0  0  0  0  0
   -0.2492    3.4188   -0.4794 H   0  0  0  0  0  0  0  0  0  0  0  0
   -1.8866    3.0805    0.0882 H   0  0  0  0  0  0  0  0  0  0  0  0
   -2.1186    0.6356    0.8330 H   0  0  0  0  0  0  0  0  0  0  0  0
   -0.5553   -1.4270    0.0345 H   0  0  0  0  0  0  0  0  0  0  0  0
   -1.6000   -1.0836   -1.3640 H   0  0  0  0  0  0  0  0  0  0  0  0
   -2.6370   -2.7826    0.1626 H   0  0  0  0  0  0  0  0  0  0  0  0
   -2.5959   -1.6106    1.4952 H   0  0  0  0  0  0  0  0  0  0  0  0
   -3.6186   -1.3033    0.0732 H   0  0  0  0  0  0  0  0  0  0  0  0
  1  2  2  0  0  0  0 
  4  2  1  0  0  0  0 
  3  1  1  0  0  0  0 
  5  3  1  0  0  0  0 
  3  6  1  0  0  0  0 
  4  7  1  0  0  0  0 
  4  8  1  0  0  0  0 
  5  9  1  0  0  0  0 
 10  5  1  0  0  0  0 
  6 11  1  0  0  0  0 
  6 12  1  0  0  0  0 
  7 13  1  0  0  0  0 
  9 14  1  0  0  0  0 
 10 12  1  0  0  0  0 
 10 15  1  0  0  0  0 
 13 16  1  0  0  0  0 
 14 17  2  0  0  0  0 
 16 18  2  0  0  0  0 
 16 19  1  0  0  0  0 
 17 20  1  0  0  0  0 
 18 21  1  0  0  0  0 
 19 22  2  0  0  0  0 
 20 23  1  0  0  0  0 
 21 24  2  0  0  0  0 
 22 24  1  0  0  0  0 
 23 25  1  0  0  0  0 
 25 26  1  0  0  0  0 
 26 27  1  0  0  0  0 
 26 28  2  0  0  0  0 
 27 29  1  0  0  0  0 
 29 30  1  0  0  0  0 
  1 31  1  0  0  0  0 
  2 32  1  0  0  0  0 
  3 33  1  0  0  0  0 
  4 34  1  0  0  0  0 
  5 35  1  0  0  0  0 
  6 36  1  0  0  0  0 
  7 37  1  0  0  0  0 
  7 38  1  0  0  0  0 
  8 39  1  0  0  0  0 
  9 40  1  0  0  0  0 
  9 41  1  0  0  0  0 
 10 42  1  0  0  0  0 
 11 43  1  0  0  0  0 
 12 44  1  0  0  0  0 
 12 45  1  0  0  0  0 
 13 46  1  0  0  0  0 
 13 47  1  0  0  0  0 
 14 48  1  0  0  0  0 
 15 49  1  0  0  0  0 
 17 50  1  0  0  0  0 
 18 51  1  0  0  0  0 
 19 52  1  0  0  0  0 
 20 53  1  0  0  0  0 
 20 54  1  0  0  0  0 
 21 55  1  0  0  0  0 
 22 56  1  0  0  0  0 
 23 57  1  0  0  0  0 
 23 58  1  0  0  0  0 
 24 59  1  0  0  0  0 
 25 60  1  0  0  0  0 
 25 61  1  0  0  0  0 
 27 62  1  0  0  0  0 
 29 63  1  0  0  0  0 
 29 64  1  0  0  0  0 
 30 65  1  0  0  0  0 
 30 66  1  0  0  0  0 
 30 67  1  0  0  0  0 
M  END
> <cdk:Title>
bimatoprost

> <Conformer>
1

> <SuperDrugID>
SD000316

$$$$
