flibanserin
  CDK     0628171802

 49 52  0  0  0  0  0  0  0  0999 V2000
   -1.6590   -6.7165    3.6933 C   0  0  0  0  0  0  0  0  0  0  0  0
   -1.6284   -5.4357    4.3060 C   0  0  0  0  0  0  0  0  0  0  0  0
   -1.8237   -5.3696    5.7043 C   0  0  0  0  0  0  0  0  0  0  0  0
   -2.0416   -6.5350    6.4585 C   0  0  0  0  0  0  0  0  0  0  0  0
   -2.0853   -7.7894    5.8273 C   0  0  0  0  0  0  0  0  0  0  0  0
   -1.9122   -7.9019    4.4281 C   0  0  0  0  0  0  0  0  0  0  0  0
   -1.4632   -4.2752    3.5657 N   0  0  0  0  0  0  0  0  0  0  0  0
   -2.1979   -4.0579    2.3411 C   0  0  1  0  0  0  0  0  0  0  0  0
   -1.2011   -3.7857    1.1926 C   0  0  1  0  0  0  0  0  0  0  0  0
   -0.3356   -2.6045    1.5145 N   0  0  1  0  0  0  0  0  0  0  0  0
    0.3807   -2.7928    2.8206 C   0  0  2  0  0  0  0  0  0  0  0  0
   -0.5840   -3.1963    3.9711 C   0  0  1  0  0  0  0  0  0  0  0  0
    0.5866   -2.2124    0.3972 C   0  0  1  0  0  0  0  0  0  0  0  0
   -2.0142   -9.2114    3.7176 C   0  0  1  0  0  0  0  0  0  0  0  0
   -2.1381  -10.3013    4.5476 F   0  0  0  0  0  0  0  0  0  0  0  0
   -3.1239   -9.2028    2.9077 F   0  0  0  0  0  0  0  0  0  0  0  0
   -0.9047   -9.4383    2.9384 F   0  0  0  0  0  0  0  0  0  0  0  0
   -0.1333   -1.5531   -0.8119 C   0  0  1  0  0  0  0  0  0  0  0  0
   -0.7638   -0.3019   -0.4731 N   0  0  0  0  0  0  0  0  0  0  0  0
   -2.0833   -0.0566   -0.2971 C   0  0  0  0  0  0  0  0  0  0  0  0
   -2.2316    1.2978    0.0028 C   0  0  0  0  0  0  0  0  0  0  0  0
   -1.0148    1.8485   -0.0021 N   0  0  0  0  0  0  0  0  0  0  0  0
   -0.1250    0.8785   -0.2706 C   0  0  0  0  0  0  0  0  0  0  0  0
   -3.4878    1.8716    0.2564 C   0  0  0  0  0  0  0  0  0  0  0  0
   -4.6225    1.0350    0.2217 C   0  0  0  0  0  0  0  0  0  0  0  0
   -4.4892   -0.3378   -0.0816 C   0  0  0  0  0  0  0  0  0  0  0  0
   -3.2194   -0.8906   -0.3557 C   0  0  0  0  0  0  0  0  0  0  0  0
    1.1124    1.0674   -0.3163 O   0  0  0  0  0  0  0  0  0  0  0  0
   -1.5008   -6.7928    2.6856 H   0  0  0  0  0  0  0  0  0  0  0  0
   -1.8240   -4.4666    6.1842 H   0  0  0  0  0  0  0  0  0  0  0  0
   -2.1746   -6.4694    7.4692 H   0  0  0  0  0  0  0  0  0  0  0  0
   -2.2510   -8.6191    6.4015 H   0  0  0  0  0  0  0  0  0  0  0  0
   -2.8487   -4.8950    2.0688 H   0  0  0  0  0  0  0  0  0  0  0  0
   -2.8476   -3.1864    2.4650 H   0  0  0  0  0  0  0  0  0  0  0  0
   -0.5887   -4.6769    1.0222 H   0  0  0  0  0  0  0  0  0  0  0  0
   -1.7908   -3.6076    0.2965 H   0  0  0  0  0  0  0  0  0  0  0  0
    0.8740   -1.8583    3.1081 H   0  0  0  0  0  0  0  0  0  0  0  0
    1.1506   -3.5650    2.7208 H   0  0  0  0  0  0  0  0  0  0  0  0
   -1.1994   -2.3316    4.2381 H   0  0  0  0  0  0  0  0  0  0  0  0
    0.0130   -3.4598    4.8495 H   0  0  0  0  0  0  0  0  0  0  0  0
    1.3166   -1.4857    0.7601 H   0  0  0  0  0  0  0  0  0  0  0  0
    1.1596   -3.0820    0.0556 H   0  0  0  0  0  0  0  0  0  0  0  0
    0.5997   -1.3769   -1.6044 H   0  0  0  0  0  0  0  0  0  0  0  0
   -0.8571   -2.2507   -1.2335 H   0  0  0  0  0  0  0  0  0  0  0  0
   -0.8129    2.7829    0.1643 H   0  0  0  0  0  0  0  0  0  0  0  0
   -3.5762    2.8677    0.4644 H   0  0  0  0  0  0  0  0  0  0  0  0
   -5.5473    1.4246    0.4150 H   0  0  0  0  0  0  0  0  0  0  0  0
   -5.3201   -0.9336   -0.1031 H   0  0  0  0  0  0  0  0  0  0  0  0
   -3.1360   -1.8789   -0.5902 H   0  0  0  0  0  0  0  0  0  0  0  0
  1  2  2  0  0  0  0 
  1  6  1  0  0  0  0 
  2  3  1  0  0  0  0 
  3  4  2  0  0  0  0 
  4  5  1  0  0  0  0 
  5  6  2  0  0  0  0 
  2  7  1  0  0  0  0 
  8  9  1  0  0  0  0 
  9 10  1  0  0  0  0 
 10 11  1  0  0  0  0 
 11 12  1  0  0  0  0 
  7  8  1  0  0  0  0 
  7 12  1  0  0  0  0 
 10 13  1  0  0  0  0 
  6 14  1  0  0  0  0 
 14 15  1  0  0  0  0 
 14 16  1  0  0  0  0 
 14 17  1  0  0  0  0 
 13 18  1  0  0  0  0 
 18 19  1  0  0  0  0 
 21 22  1  0  0  0  0 
 22 23  1  0  0  0  0 
 19 20  1  0  0  0  0 
 19 23  1  0  0  0  0 
 24 25  1  0  0  0  0 
 25 26  2  0  0  0  0 
 26 27  1  0  0  0  0 
 20 27  2  0  0  0  0 
 21 24  2  0  0  0  0 
 20 21  1  0  0  0  0 
 23 28  2  0  0  0  0 
  1 29  1  0  0  0  0 
  3 30  1  0  0  0  0 
  4 31  1  0  0  0  0 
  5 32  1  0  0  0  0 
  8 33  1  0  0  0  0 
  8 34  1  0  0  0  0 
  9 35  1  0  0  0  0 
  9 36  1  0  0  0  0 
 11 37  1  0  0  0  0 
 11 38  1  0  0  0  0 
 12 39  1  0  0  0  0 
 12 40  1  0  0  0  0 
 13 41  1  0  0  0  0 
 13 42  1  0  0  0  0 
 18 43  1  0  0  0  0 
 18 44  1  0  0  0  0 
 22 45  1  0  0  0  0 
 24 46  1  0  0  0  0 
 25 47  1  0  0  0  0 
 26 48  1  0  0  0  0 
 27 49  1  0  0  0  0 
M  END
> <cdk:Title>
flibanserin

> <Conformer>
1

> <SuperDrugID>
SD003878

$$$$
