polydatin
  CDK     0628171802

 50 52  0  0  0  0  0  0  0  0999 V2000
   -0.1102    1.9003    8.9708 O   0  0  0  0  0  0  0  0  0  0  0  0
   -1.3956    2.0770    9.6148 C   0  0  2  0  0  0  0  0  0  0  0  0
   -0.1907    1.1635    7.8138 C   0  0  0  0  0  0  0  0  0  0  0  0
   -2.2780    2.8352    8.7540 O   0  0  0  0  0  0  0  0  0  0  0  0
   -1.2039    2.8490   10.9487 C   0  0  2  0  0  0  0  0  0  0  0  0
   -0.4156    1.8021    6.5768 C   0  0  0  0  0  0  0  0  0  0  0  0
   -0.0586   -0.2357    7.8506 C   0  0  0  0  0  0  0  0  0  0  0  0
   -3.6089    3.0563    9.2691 C   0  0  2  0  0  0  0  0  0  0  0  0
   -0.4127    2.0844   11.8554 O   0  0  0  0  0  0  0  0  0  0  0  0
   -2.5783    3.1613   11.6040 C   0  0  2  0  0  0  0  0  0  0  0  0
   -0.5860    1.0725    5.3687 C   0  0  0  0  0  0  0  0  0  0  0  0
   -0.2036   -0.9887    6.6737 C   0  0  0  0  0  0  0  0  0  0  0  0
   -4.4028    3.7925    8.1643 C   0  0  1  0  0  0  0  0  0  0  0  0
   -3.5447    3.8559   10.6058 C   0  0  2  0  0  0  0  0  0  0  0  0
   -2.3985    3.9784   12.7599 O   0  0  0  0  0  0  0  0  0  0  0  0
   -0.8725    1.7851    4.1847 C   0  0  0  0  0  0  0  0  0  0  0  0
   -0.4709   -0.3422    5.4495 C   0  0  0  0  0  0  0  0  0  0  0  0
   -0.0950   -2.3378    6.7325 O   0  0  0  0  0  0  0  0  0  0  0  0
   -4.4233    3.0102    6.9763 O   0  0  0  0  0  0  0  0  0  0  0  0
   -4.8401    3.9590   11.1970 O   0  0  0  0  0  0  0  0  0  0  0  0
   -1.0911    1.2872    2.9478 C   0  0  0  0  0  0  0  0  0  0  0  0
   -1.3909    2.0104    1.7726 C   0  0  0  0  0  0  0  0  0  0  0  0
   -1.5748    1.2939    0.5581 C   0  0  0  0  0  0  0  0  0  0  0  0
   -1.5147    3.4270    1.7088 C   0  0  0  0  0  0  0  0  0  0  0  0
   -1.8394    1.9519   -0.6573 C   0  0  0  0  0  0  0  0  0  0  0  0
   -1.7764    4.0891    0.4934 C   0  0  0  0  0  0  0  0  0  0  0  0
   -1.9433    3.3514   -0.6906 C   0  0  0  0  0  0  0  0  0  0  0  0
   -2.2104    3.9816   -1.8577 O   0  0  0  0  0  0  0  0  0  0  0  0
   -1.8360    1.0951    9.8369 H   0  0  0  0  0  0  0  0  0  0  0  0
   -0.6805    3.7882   10.7455 H   0  0  0  0  0  0  0  0  0  0  0  0
   -0.4699    2.8252    6.5754 H   0  0  0  0  0  0  0  0  0  0  0  0
    0.1340   -0.7081    8.7351 H   0  0  0  0  0  0  0  0  0  0  0  0
   -4.0959    2.0910    9.4463 H   0  0  0  0  0  0  0  0  0  0  0  0
    0.4417    1.9472   11.3962 H   0  0  0  0  0  0  0  0  0  0  0  0
   -3.0327    2.2238   11.9370 H   0  0  0  0  0  0  0  0  0  0  0  0
   -5.4343    3.9611    8.4788 H   0  0  0  0  0  0  0  0  0  0  0  0
   -3.9396    4.7559    7.9397 H   0  0  0  0  0  0  0  0  0  0  0  0
   -3.1829    4.8705   10.4102 H   0  0  0  0  0  0  0  0  0  0  0  0
   -1.9738    4.7979   12.4298 H   0  0  0  0  0  0  0  0  0  0  0  0
   -0.9295    2.7692    4.2831 H   0  0  0  0  0  0  0  0  0  0  0  0
   -0.5772   -0.9328    4.6251 H   0  0  0  0  0  0  0  0  0  0  0  0
    0.6781   -2.5489    6.1701 H   0  0  0  0  0  0  0  0  0  0  0  0
   -4.9644    3.5316    6.3481 H   0  0  0  0  0  0  0  0  0  0  0  0
   -5.3677    4.4965   10.5692 H   0  0  0  0  0  0  0  0  0  0  0  0
   -1.0350    0.3017    2.8462 H   0  0  0  0  0  0  0  0  0  0  0  0
   -1.5138    0.2717    0.5402 H   0  0  0  0  0  0  0  0  0  0  0  0
   -1.4150    4.0121    2.5379 H   0  0  0  0  0  0  0  0  0  0  0  0
   -1.9537    1.4102   -1.5187 H   0  0  0  0  0  0  0  0  0  0  0  0
   -1.8452    5.1106    0.4738 H   0  0  0  0  0  0  0  0  0  0  0  0
   -1.3430    4.3215   -2.1587 H   0  0  0  0  0  0  0  0  0  0  0  0
  1  3  1  0  0  0  0 
  2  1  1  0  0  0  0 
  2  4  1  0  0  0  0 
  5  2  1  0  0  0  0 
  3  6  2  0  0  0  0 
  3  7  1  0  0  0  0 
  8  4  1  0  0  0  0 
  5  9  1  0  0  0  0 
 10  5  1  0  0  0  0 
  6 11  1  0  0  0  0 
  7 12  2  0  0  0  0 
  8 13  1  0  0  0  0 
 14  8  1  0  0  0  0 
 14 10  1  0  0  0  0 
 10 15  1  0  0  0  0 
 11 16  1  0  0  0  0 
 11 17  2  0  0  0  0 
 12 17  1  0  0  0  0 
 12 18  1  0  0  0  0 
 13 19  1  0  0  0  0 
 14 20  1  0  0  0  0 
 16 21  2  0  0  0  0 
 21 22  1  0  0  0  0 
 22 23  2  0  0  0  0 
 22 24  1  0  0  0  0 
 23 25  1  0  0  0  0 
 24 26  2  0  0  0  0 
 25 27  2  0  0  0  0 
 26 27  1  0  0  0  0 
 27 28  1  0  0  0  0 
  2 29  1  0  0  0  0 
  5 30  1  0  0  0  0 
  6 31  1  0  0  0  0 
  7 32  1  0  0  0  0 
  8 33  1  0  0  0  0 
  9 34  1  0  0  0  0 
 10 35  1  0  0  0  0 
 13 36  1  0  0  0  0 
 13 37  1  0  0  0  0 
 14 38  1  0  0  0  0 
 15 39  1  0  0  0  0 
 16 40  1  0  0  0  0 
 17 41  1  0  0  0  0 
 18 42  1  0  0  0  0 
 19 43  1  0  0  0  0 
 20 44  1  0  0  0  0 
 21 45  1  0  0  0  0 
 23 46  1  0  0  0  0 
 24 47  1  0  0  0  0 
 25 48  1  0  0  0  0 
 26 49  1  0  0  0  0 
 28 50  1  0  0  0  0 
M  END
> <cdk:Title>
polydatin

> <Conformer>
1

> <SuperDrugID>
SD003658

$$$$
