levisoprenaline
  CDK     0628171801

 32 32  0  0  0  0  0  0  0  0999 V2000
    2.0645   -0.7133    2.2412 C   0  0  0  0  0  0  0  0  0  0  0  0
    0.8205    0.2069    2.1682 C   0  0  1  0  0  0  0  0  0  0  0  0
    0.2552    0.4793    3.5888 C   0  0  0  0  0  0  0  0  0  0  0  0
    1.2189    1.4461    1.4522 N   0  0  2  0  0  0  0  0  0  0  0  0
    0.1353    2.3904    1.0857 C   0  0  1  0  0  0  0  0  0  0  0  0
    0.6894    3.5929    0.2742 C   0  0  2  0  0  0  0  0  0  0  0  0
   -0.3377    4.5713    0.1002 O   0  0  0  0  0  0  0  0  0  0  0  0
    1.2591    3.1878   -1.0464 C   0  0  0  0  0  0  0  0  0  0  0  0
    2.6387    2.8967   -1.1677 C   0  0  0  0  0  0  0  0  0  0  0  0
    3.1804    2.4629   -2.3910 C   0  0  0  0  0  0  0  0  0  0  0  0
    2.3560    2.3370   -3.5234 C   0  0  0  0  0  0  0  0  0  0  0  0
    2.8878    1.9160   -4.6949 O   0  0  0  0  0  0  0  0  0  0  0  0
    0.9851    2.6434   -3.4285 C   0  0  0  0  0  0  0  0  0  0  0  0
    0.1806    2.5231   -4.5118 O   0  0  0  0  0  0  0  0  0  0  0  0
    0.4429    3.0609   -2.1973 C   0  0  0  0  0  0  0  0  0  0  0  0
    2.4250   -0.9435    1.2373 H   0  0  0  0  0  0  0  0  0  0  0  0
    1.8163   -1.6542    2.7357 H   0  0  0  0  0  0  0  0  0  0  0  0
    2.8698   -0.2281    2.7968 H   0  0  0  0  0  0  0  0  0  0  0  0
    0.0599   -0.3145    1.5812 H   0  0  0  0  0  0  0  0  0  0  0  0
    0.9429    1.1053    4.1623 H   0  0  0  0  0  0  0  0  0  0  0  0
    0.1014   -0.4576    4.1270 H   0  0  0  0  0  0  0  0  0  0  0  0
   -0.7112    0.9807    3.5283 H   0  0  0  0  0  0  0  0  0  0  0  0
    1.6353    1.1389    0.5709 H   0  0  0  0  0  0  0  0  0  0  0  0
   -0.6377    1.8743    0.5094 H   0  0  0  0  0  0  0  0  0  0  0  0
   -0.3171    2.7816    1.9999 H   0  0  0  0  0  0  0  0  0  0  0  0
    1.4596    4.0796    0.8809 H   0  0  0  0  0  0  0  0  0  0  0  0
   -0.6592    4.7733    1.0036 H   0  0  0  0  0  0  0  0  0  0  0  0
    3.2592    2.9892   -0.3596 H   0  0  0  0  0  0  0  0  0  0  0  0
    4.1743    2.2360   -2.4526 H   0  0  0  0  0  0  0  0  0  0  0  0
    3.1419    2.7400   -5.1609 H   0  0  0  0  0  0  0  0  0  0  0  0
    0.0976    3.4326   -4.8688 H   0  0  0  0  0  0  0  0  0  0  0  0
   -0.5574    3.2678   -2.1460 H   0  0  0  0  0  0  0  0  0  0  0  0
  1  2  1  0  0  0  0 
  2  3  1  0  0  0  0 
  2  4  1  0  0  0  0 
  4  5  1  0  0  0  0 
  5  6  1  0  0  0  0 
  6  7  1  0  0  0  0 
  6  8  1  0  0  0  0 
  8  9  2  0  0  0  0 
  9 10  1  0  0  0  0 
 10 11  2  0  0  0  0 
 11 12  1  0  0  0  0 
 11 13  1  0  0  0  0 
 13 14  1  0  0  0  0 
 13 15  2  0  0  0  0 
  8 15  1  0  0  0  0 
  1 16  1  0  0  0  0 
  1 17  1  0  0  0  0 
  1 18  1  0  0  0  0 
  2 19  1  0  0  0  0 
  3 20  1  0  0  0  0 
  3 21  1  0  0  0  0 
  3 22  1  0  0  0  0 
  4 23  1  0  0  0  0 
  5 24  1  0  0  0  0 
  5 25  1  0  0  0  0 
  6 26  1  0  0  0  0 
  7 27  1  0  0  0  0 
  9 28  1  0  0  0  0 
 10 29  1  0  0  0  0 
 12 30  1  0  0  0  0 
 14 31  1  0  0  0  0 
 15 32  1  0  0  0  0 
M  END
> <cdk:Title>
levisoprenaline

> <Conformer>
1

> <SuperDrugID>
SD002149

$$$$
