betaxolol
  CDK     0628171801

 51 52  0  0  0  0  0  0  0  0999 V2000
    0.2460   -0.0776   -3.0917 O   0  0  0  0  0  0  0  0  0  0  0  0
    0.0731    0.7112   -1.8931 C   0  0  1  0  0  0  0  0  0  0  0  0
    0.1987    0.6609   -4.2418 C   0  0  0  0  0  0  0  0  0  0  0  0
   -0.0479   -0.2312   -0.6681 C   0  0  2  0  0  0  0  0  0  0  0  0
   -1.0274    0.8729   -4.9043 C   0  0  0  0  0  0  0  0  0  0  0  0
    1.3827    1.1961   -4.7837 C   0  0  0  0  0  0  0  0  0  0  0  0
   -1.2310   -1.2200   -0.8139 C   0  0  2  0  0  0  0  0  0  0  0  0
   -0.2354    0.5535    0.5109 O   0  0  0  0  0  0  0  0  0  0  0  0
   -1.0741    1.6571   -6.0718 C   0  0  0  0  0  0  0  0  0  0  0  0
    1.3358    1.9787   -5.9516 C   0  0  0  0  0  0  0  0  0  0  0  0
   -1.3729   -2.0668    0.3924 N   0  0  1  0  0  0  0  0  0  0  0  0
    0.1027    2.2452   -6.5918 C   0  0  0  0  0  0  0  0  0  0  0  0
   -2.4152   -3.1279    0.3228 C   0  0  1  0  0  0  0  0  0  0  0  0
    0.0318    3.1903   -7.7390 C   0  0  1  0  0  0  0  0  0  0  0  0
   -2.2431   -4.0594    1.5497 C   0  0  0  0  0  0  0  0  0  0  0  0
   -3.8536   -2.5440    0.2719 C   0  0  0  0  0  0  0  0  0  0  0  0
   -0.1843    4.6331   -7.2244 C   0  0  1  0  0  0  0  0  0  0  0  0
   -0.2174    5.5469   -8.3375 O   0  0  0  0  0  0  0  0  0  0  0  0
   -0.4296    6.9201   -7.9598 C   0  0  1  0  0  0  0  0  0  0  0  0
   -0.4242    7.7865   -9.2387 C   0  0  1  0  0  0  0  0  0  0  0  0
    0.0195    9.2568   -9.1434 C   0  0  2  0  0  0  0  0  0  0  0  0
    0.9348    8.2215   -9.8107 C   0  0  1  0  0  0  0  0  0  0  0  0
    0.9332    1.3748   -1.7481 H   0  0  0  0  0  0  0  0  0  0  0  0
   -0.8326    1.3276   -1.9484 H   0  0  0  0  0  0  0  0  0  0  0  0
    0.8831   -0.7952   -0.5558 H   0  0  0  0  0  0  0  0  0  0  0  0
   -1.8891    0.4662   -4.5315 H   0  0  0  0  0  0  0  0  0  0  0  0
    2.2781    1.0241   -4.3208 H   0  0  0  0  0  0  0  0  0  0  0  0
   -1.0719   -1.8560   -1.6868 H   0  0  0  0  0  0  0  0  0  0  0  0
   -2.1430   -0.6424   -0.9671 H   0  0  0  0  0  0  0  0  0  0  0  0
    0.5549    1.1340    0.5616 H   0  0  0  0  0  0  0  0  0  0  0  0
   -1.9759    1.8120   -6.5299 H   0  0  0  0  0  0  0  0  0  0  0  0
    2.2070    2.3682   -6.3199 H   0  0  0  0  0  0  0  0  0  0  0  0
   -0.4743   -2.5369    0.5270 H   0  0  0  0  0  0  0  0  0  0  0  0
   -2.2527   -3.7373   -0.5729 H   0  0  0  0  0  0  0  0  0  0  0  0
    0.9530    3.1518   -8.3278 H   0  0  0  0  0  0  0  0  0  0  0  0
   -0.7918    2.9239   -8.4080 H   0  0  0  0  0  0  0  0  0  0  0  0
   -1.2484   -4.5107    1.5445 H   0  0  0  0  0  0  0  0  0  0  0  0
   -2.3696   -3.4979    2.4785 H   0  0  0  0  0  0  0  0  0  0  0  0
   -2.9808   -4.8656    1.5237 H   0  0  0  0  0  0  0  0  0  0  0  0
   -3.9897   -1.8043    1.0634 H   0  0  0  0  0  0  0  0  0  0  0  0
   -4.0345   -2.0666   -0.6923 H   0  0  0  0  0  0  0  0  0  0  0  0
   -4.5980   -3.3339    0.3963 H   0  0  0  0  0  0  0  0  0  0  0  0
   -1.1304    4.6786   -6.6737 H   0  0  0  0  0  0  0  0  0  0  0  0
    0.6350    4.9014   -6.5482 H   0  0  0  0  0  0  0  0  0  0  0  0
   -1.4029    7.0312   -7.4755 H   0  0  0  0  0  0  0  0  0  0  0  0
    0.3483    7.2470   -7.2617 H   0  0  0  0  0  0  0  0  0  0  0  0
   -1.1907    7.5838   -9.9919 H   0  0  0  0  0  0  0  0  0  0  0  0
    0.3501    9.6130   -8.1644 H   0  0  0  0  0  0  0  0  0  0  0  0
   -0.4663    9.9553   -9.8277 H   0  0  0  0  0  0  0  0  0  0  0  0
    1.8251    7.9484   -9.2391 H   0  0  0  0  0  0  0  0  0  0  0  0
    0.9936    8.2709  -10.8996 H   0  0  0  0  0  0  0  0  0  0  0  0
  1  2  1  0  0  0  0 
  1  3  1  0  0  0  0 
  4  2  1  0  0  0  0 
  3  5  2  0  0  0  0 
  3  6  1  0  0  0  0 
  4  7  1  0  0  0  0 
  4  8  1  0  0  0  0 
  5  9  1  0  0  0  0 
  6 10  2  0  0  0  0 
  7 11  1  0  0  0  0 
  9 12  2  0  0  0  0 
 10 12  1  0  0  0  0 
 11 13  1  0  0  0  0 
 12 14  1  0  0  0  0 
 13 15  1  0  0  0  0 
 13 16  1  0  0  0  0 
 14 17  1  0  0  0  0 
 17 18  1  0  0  0  0 
 18 19  1  0  0  0  0 
 19 20  1  0  0  0  0 
 20 21  1  0  0  0  0 
 20 22  1  0  0  0  0 
 21 22  1  0  0  0  0 
  2 23  1  0  0  0  0 
  2 24  1  0  0  0  0 
  4 25  1  0  0  0  0 
  5 26  1  0  0  0  0 
  6 27  1  0  0  0  0 
  7 28  1  0  0  0  0 
  7 29  1  0  0  0  0 
  8 30  1  0  0  0  0 
  9 31  1  0  0  0  0 
 10 32  1  0  0  0  0 
 11 33  1  0  0  0  0 
 13 34  1  0  0  0  0 
 14 35  1  0  0  0  0 
 14 36  1  0  0  0  0 
 15 37  1  0  0  0  0 
 15 38  1  0  0  0  0 
 15 39  1  0  0  0  0 
 16 40  1  0  0  0  0 
 16 41  1  0  0  0  0 
 16 42  1  0  0  0  0 
 17 43  1  0  0  0  0 
 17 44  1  0  0  0  0 
 19 45  1  0  0  0  0 
 19 46  1  0  0  0  0 
 20 47  1  0  0  0  0 
 21 48  1  0  0  0  0 
 21 49  1  0  0  0  0 
 22 50  1  0  0  0  0 
 22 51  1  0  0  0  0 
M  END
> <cdk:Title>
betaxolol

> <Conformer>
1

> <SuperDrugID>
SD000301

$$$$
