benzylthiouracil
  CDK     0628171801

 25 26  0  0  0  0  0  0  0  0999 V2000
   -0.4601   -0.5484    0.3688 C   0  0  2  0  0  0  0  0  0  0  0  0
   -0.8340   -1.2514    1.6196 C   0  0  0  0  0  0  0  0  0  0  0  0
   -0.3432   -1.5146   -0.7542 C   0  0  0  0  0  0  0  0  0  0  0  0
   -2.0311   -0.9668    2.3108 C   0  0  0  0  0  0  0  0  0  0  0  0
    0.0002   -2.2093    2.1143 N   0  0  0  0  0  0  0  0  0  0  0  0
   -1.4716   -1.8592   -1.5353 C   0  0  0  0  0  0  0  0  0  0  0  0
    0.8935   -2.1415   -1.0375 C   0  0  0  0  0  0  0  0  0  0  0  0
   -2.3019   -1.6910    3.4857 C   0  0  0  0  0  0  0  0  0  0  0  0
   -0.2862   -2.9000    3.2453 C   0  0  0  0  0  0  0  0  0  0  0  0
   -1.3623   -2.7994   -2.5780 C   0  0  0  0  0  0  0  0  0  0  0  0
    0.9992   -3.0862   -2.0751 C   0  0  0  0  0  0  0  0  0  0  0  0
   -3.3468   -1.4771    4.1391 O   0  0  0  0  0  0  0  0  0  0  0  0
   -1.4299   -2.6349    3.9234 N   0  0  0  0  0  0  0  0  0  0  0  0
    0.8023   -4.1177    3.8166 S   0  0  0  0  0  0  0  0  0  0  0  0
   -0.1271   -3.4130   -2.8499 C   0  0  0  0  0  0  0  0  0  0  0  0
    0.4896   -0.0300    0.5254 H   0  0  0  0  0  0  0  0  0  0  0  0
   -1.1915    0.2243    0.1141 H   0  0  0  0  0  0  0  0  0  0  0  0
   -2.6862   -0.2579    1.9714 H   0  0  0  0  0  0  0  0  0  0  0  0
    0.8208   -2.4096    1.6392 H   0  0  0  0  0  0  0  0  0  0  0  0
   -2.3821   -1.4332   -1.3435 H   0  0  0  0  0  0  0  0  0  0  0  0
    1.7233   -1.9232   -0.4792 H   0  0  0  0  0  0  0  0  0  0  0  0
   -2.1835   -3.0438   -3.1359 H   0  0  0  0  0  0  0  0  0  0  0  0
    1.8950   -3.5418   -2.2627 H   0  0  0  0  0  0  0  0  0  0  0  0
   -1.6294   -3.1288    4.7340 H   0  0  0  0  0  0  0  0  0  0  0  0
   -0.0486   -4.0980   -3.6055 H   0  0  0  0  0  0  0  0  0  0  0  0
  1  2  1  0  0  0  0 
  1  3  1  0  0  0  0 
  2  4  2  0  0  0  0 
  2  5  1  0  0  0  0 
  3  6  2  0  0  0  0 
  3  7  1  0  0  0  0 
  4  8  1  0  0  0  0 
  5  9  1  0  0  0  0 
  6 10  1  0  0  0  0 
  7 11  2  0  0  0  0 
  8 12  2  0  0  0  0 
  8 13  1  0  0  0  0 
  9 13  1  0  0  0  0 
  9 14  2  0  0  0  0 
 10 15  2  0  0  0  0 
 11 15  1  0  0  0  0 
 16  1  1  0  0  0  0 
 17  1  1  0  0  0  0 
 18  4  1  0  0  0  0 
 19  5  1  0  0  0  0 
 20  6  1  0  0  0  0 
 21  7  1  0  0  0  0 
 22 10  1  0  0  0  0 
 23 11  1  0  0  0  0 
 24 13  1  0  0  0  0 
 25 15  1  0  0  0  0 
M  END
> <cdk:Title>
benzylthiouracil

> <Conformer>
1

> <SuperDrugID>
SD000285

$$$$
