rutoside
  CDK     0628171801

 73 77  0  0  0  0  0  0  0  0999 V2000
    1.7869   -5.7332   -6.0858 O   0  0  0  0  0  0  0  0  0  0  0  0
    2.2649   -6.5305   -5.0721 C   0  0  0  0  0  0  0  0  0  0  0  0
    2.5229   -4.4958   -6.2426 C   0  0  2  0  0  0  0  0  0  0  0  0
    3.3577   -7.4057   -5.2783 C   0  0  0  0  0  0  0  0  0  0  0  0
    1.6726   -6.4616   -3.7917 C   0  0  0  0  0  0  0  0  0  0  0  0
    2.2977   -3.6280   -5.1036 O   0  0  0  0  0  0  0  0  0  0  0  0
    2.0414   -3.7973   -7.5420 C   0  0  2  0  0  0  0  0  0  0  0  0
    3.8427   -8.1019   -4.2097 O   0  0  0  0  0  0  0  0  0  0  0  0
    4.0143   -7.5660   -6.5227 C   0  0  0  0  0  0  0  0  0  0  0  0
    0.5940   -5.6442   -3.6638 O   0  0  0  0  0  0  0  0  0  0  0  0
    2.2015   -7.1970   -2.6971 C   0  0  0  0  0  0  0  0  0  0  0  0
    2.9846   -2.3522   -5.1536 C   0  0  2  0  0  0  0  0  0  0  0  0
    2.3323   -4.6130   -8.6754 O   0  0  0  0  0  0  0  0  0  0  0  0
    2.7262   -2.4112   -7.6983 C   0  0  2  0  0  0  0  0  0  0  0  0
    3.3295   -8.0217   -2.9510 C   0  0  0  0  0  0  0  0  0  0  0  0
    5.4242   -7.4751   -6.5870 C   0  0  0  0  0  0  0  0  0  0  0  0
    3.2928   -7.8129   -7.7132 C   0  0  0  0  0  0  0  0  0  0  0  0
    1.6904   -7.1511   -1.3735 C   0  0  0  0  0  0  0  0  0  0  0  0
    2.6962   -1.5973   -3.8286 C   0  0  1  0  0  0  0  0  0  0  0  0
    2.5547   -1.5468   -6.4176 C   0  0  2  0  0  0  0  0  0  0  0  0
    2.1997   -1.7241   -8.8329 O   0  0  0  0  0  0  0  0  0  0  0  0
    3.9476   -8.7514   -1.9189 C   0  0  0  0  0  0  0  0  0  0  0  0
    6.1014   -7.5815   -7.8170 C   0  0  0  0  0  0  0  0  0  0  0  0
    3.9667   -7.9457   -8.9401 C   0  0  0  0  0  0  0  0  0  0  0  0
    0.6744   -6.4849   -1.0710 O   0  0  0  0  0  0  0  0  0  0  0  0
    2.3269   -7.8672   -0.3379 C   0  0  0  0  0  0  0  0  0  0  0  0
    3.3229   -2.3297   -2.7571 O   0  0  0  0  0  0  0  0  0  0  0  0
    3.3181   -0.3448   -6.5382 O   0  0  0  0  0  0  0  0  0  0  0  0
    3.4598   -8.6582   -0.6050 C   0  0  0  0  0  0  0  0  0  0  0  0
    7.4555   -7.4530   -7.8209 O   0  0  0  0  0  0  0  0  0  0  0  0
    5.3689   -7.8186   -8.9998 C   0  0  0  0  0  0  0  0  0  0  0  0
    3.0767   -1.8459   -1.4218 C   0  0  1  0  0  0  0  0  0  0  0  0
    4.0966   -9.3304    0.3885 O   0  0  0  0  0  0  0  0  0  0  0  0
    6.0169   -7.9342  -10.1877 O   0  0  0  0  0  0  0  0  0  0  0  0
    3.6952   -2.8807   -0.4476 C   0  0  2  0  0  0  0  0  0  0  0  0
    3.7010   -0.5526   -1.2333 O   0  0  0  0  0  0  0  0  0  0  0  0
    3.0714   -4.1525   -0.6190 O   0  0  0  0  0  0  0  0  0  0  0  0
    3.5673   -2.3994    1.0219 C   0  0  2  0  0  0  0  0  0  0  0  0
    3.6186    0.0195    0.0979 C   0  0  2  0  0  0  0  0  0  0  0  0
    2.2013   -2.4396    1.4320 O   0  0  0  0  0  0  0  0  0  0  0  0
    4.1334   -0.9615    1.2031 C   0  0  2  0  0  0  0  0  0  0  0  0
    2.2204    0.6331    0.3741 C   0  0  0  0  0  0  0  0  0  0  0  0
    5.5620   -0.9994    1.1690 O   0  0  0  0  0  0  0  0  0  0  0  0
    3.5952   -4.7084   -6.3411 H   0  0  0  0  0  0  0  0  0  0  0  0
    0.9568   -3.6663   -7.4927 H   0  0  0  0  0  0  0  0  0  0  0  0
    0.6959   -5.1947   -2.8006 H   0  0  0  0  0  0  0  0  0  0  0  0
    4.0650   -2.5282   -5.2015 H   0  0  0  0  0  0  0  0  0  0  0  0
    1.9390   -4.1336   -9.4351 H   0  0  0  0  0  0  0  0  0  0  0  0
    3.7940   -2.5655   -7.8816 H   0  0  0  0  0  0  0  0  0  0  0  0
    5.9699   -7.3178   -5.7342 H   0  0  0  0  0  0  0  0  0  0  0  0
    2.2743   -7.9109   -7.6943 H   0  0  0  0  0  0  0  0  0  0  0  0
    3.1083   -0.5843   -3.8776 H   0  0  0  0  0  0  0  0  0  0  0  0
    1.6134   -1.5320   -3.6758 H   0  0  0  0  0  0  0  0  0  0  0  0
    1.5036   -1.2612   -6.3223 H   0  0  0  0  0  0  0  0  0  0  0  0
    1.2483   -1.5917   -8.6381 H   0  0  0  0  0  0  0  0  0  0  0  0
    4.7585   -9.3419   -2.1208 H   0  0  0  0  0  0  0  0  0  0  0  0
    3.4323   -8.1385   -9.7890 H   0  0  0  0  0  0  0  0  0  0  0  0
    1.9652   -7.8145    0.6185 H   0  0  0  0  0  0  0  0  0  0  0  0
    4.2545   -0.6331   -6.5806 H   0  0  0  0  0  0  0  0  0  0  0  0
    7.7280   -7.3490   -8.7571 H   0  0  0  0  0  0  0  0  0  0  0  0
    1.9964   -1.7898   -1.2482 H   0  0  0  0  0  0  0  0  0  0  0  0
    3.7556   -8.9574    1.2298 H   0  0  0  0  0  0  0  0  0  0  0  0
    5.3239   -7.9028  -10.8820 H   0  0  0  0  0  0  0  0  0  0  0  0
    4.7557   -2.9982   -0.6909 H   0  0  0  0  0  0  0  0  0  0  0  0
    3.5711   -4.7577   -0.0328 H   0  0  0  0  0  0  0  0  0  0  0  0
    4.1139   -3.0902    1.6709 H   0  0  0  0  0  0  0  0  0  0  0  0
    4.3017    0.8729    0.0891 H   0  0  0  0  0  0  0  0  0  0  0  0
    2.2193   -2.1877    2.3800 H   0  0  0  0  0  0  0  0  0  0  0  0
    3.8623   -0.5911    2.1975 H   0  0  0  0  0  0  0  0  0  0  0  0
    2.2481    1.2317    1.2891 H   0  0  0  0  0  0  0  0  0  0  0  0
    1.9402    1.2873   -0.4559 H   0  0  0  0  0  0  0  0  0  0  0  0
    1.4543   -0.1372    0.4791 H   0  0  0  0  0  0  0  0  0  0  0  0
    5.8415   -0.0899    1.4123 H   0  0  0  0  0  0  0  0  0  0  0  0
  1  2  1  0  0  0  0 
  2  4  2  0  0  0  0 
  2  5  1  0  0  0  0 
  3  1  1  0  0  0  0 
  3  6  1  0  0  0  0 
  7  3  1  0  0  0  0 
  4  8  1  0  0  0  0 
  4  9  1  0  0  0  0 
  5 10  1  0  0  0  0 
  5 11  2  0  0  0  0 
 12  6  1  0  0  0  0 
  7 13  1  0  0  0  0 
  7 14  1  0  0  0  0 
  8 15  1  0  0  0  0 
  9 16  2  0  0  0  0 
  9 17  1  0  0  0  0 
 11 15  1  0  0  0  0 
 11 18  1  0  0  0  0 
 12 19  1  0  0  0  0 
 20 12  1  0  0  0  0 
 14 20  1  0  0  0  0 
 14 21  1  0  0  0  0 
 15 22  2  0  0  0  0 
 16 23  1  0  0  0  0 
 17 24  2  0  0  0  0 
 18 25  2  0  0  0  0 
 18 26  1  0  0  0  0 
 19 27  1  0  0  0  0 
 20 28  1  0  0  0  0 
 22 29  1  0  0  0  0 
 23 30  1  0  0  0  0 
 23 31  2  0  0  0  0 
 24 31  1  0  0  0  0 
 26 29  2  0  0  0  0 
 29 33  1  0  0  0  0 
 31 34  1  0  0  0  0 
 32 27  1  0  0  0  0 
 35 32  1  0  0  0  0 
 32 36  1  0  0  0  0 
 35 37  1  0  0  0  0 
 35 38  1  0  0  0  0 
 39 36  1  0  0  0  0 
 38 40  1  0  0  0  0 
 38 41  1  0  0  0  0 
 41 39  1  0  0  0  0 
 39 42  1  0  0  0  0 
 41 43  1  0  0  0  0 
  3 44  1  0  0  0  0 
  7 45  1  0  0  0  0 
 46 10  1  0  0  0  0 
 12 47  1  0  0  0  0 
 48 13  1  0  0  0  0 
 14 49  1  0  0  0  0 
 50 16  1  0  0  0  0 
 51 17  1  0  0  0  0 
 52 19  1  0  0  0  0 
 53 19  1  0  0  0  0 
 20 54  1  0  0  0  0 
 55 21  1  0  0  0  0 
 56 22  1  0  0  0  0 
 57 24  1  0  0  0  0 
 58 26  1  0  0  0  0 
 59 28  1  0  0  0  0 
 60 30  1  0  0  0  0 
 32 61  1  0  0  0  0 
 62 33  1  0  0  0  0 
 63 34  1  0  0  0  0 
 35 64  1  0  0  0  0 
 65 37  1  0  0  0  0 
 38 66  1  0  0  0  0 
 39 67  1  0  0  0  0 
 68 40  1  0  0  0  0 
 41 69  1  0  0  0  0 
 70 42  1  0  0  0  0 
 71 42  1  0  0  0  0 
 72 42  1  0  0  0  0 
 73 43  1  0  0  0  0 
M  END
> <cdk:Title>
rutoside

> <Conformer>
1

> <SuperDrugID>
SD003042

$$$$
