lasofoxifene
  CDK     0628171801

 62 66  0  0  0  0  0  0  0  0999 V2000
   -3.7805    8.0991    3.7994 C   0  0  0  0  0  0  0  0  0  0  0  0
   -3.7687    9.1387    2.8555 C   0  0  0  0  0  0  0  0  0  0  0  0
   -4.3966    8.9520    1.6102 C   0  0  0  0  0  0  0  0  0  0  0  0
   -5.0305    7.7268    1.2890 C   0  0  0  0  0  0  0  0  0  0  0  0
   -5.0655    6.6825    2.2573 C   0  0  0  0  0  0  0  0  0  0  0  0
   -4.4223    6.8860    3.5031 C   0  0  0  0  0  0  0  0  0  0  0  0
   -5.6787    7.5895   -0.0463 C   0  0  1  0  0  0  0  0  0  0  0  0
   -6.1354    6.1549   -0.4217 C   0  0  1  0  0  0  0  0  0  0  0  0
   -6.7751    5.4152    0.7902 C   0  0  1  0  0  0  0  0  0  0  0  0
   -5.7795    5.3807    2.0128 C   0  0  1  0  0  0  0  0  0  0  0  0
   -4.8300    4.2093    1.9627 C   0  0  0  0  0  0  0  0  0  0  0  0
   -8.1637    5.9344    1.0942 C   0  0  0  0  0  0  0  0  0  0  0  0
   -5.2228    2.9622    2.5115 C   0  0  0  0  0  0  0  0  0  0  0  0
   -4.3339    1.8718    2.5596 C   0  0  0  0  0  0  0  0  0  0  0  0
   -3.0278    1.9981    2.0471 C   0  0  0  0  0  0  0  0  0  0  0  0
   -2.6332    3.2183    1.4668 C   0  0  0  0  0  0  0  0  0  0  0  0
   -3.5292    4.3008    1.4042 C   0  0  0  0  0  0  0  0  0  0  0  0
   -8.4067    7.0417    1.9496 C   0  0  0  0  0  0  0  0  0  0  0  0
   -9.7121    7.5015    2.2034 C   0  0  0  0  0  0  0  0  0  0  0  0
  -10.8109    6.8667    1.6031 C   0  0  0  0  0  0  0  0  0  0  0  0
  -10.6005    5.7761    0.7441 C   0  0  0  0  0  0  0  0  0  0  0  0
   -9.2932    5.3177    0.4945 C   0  0  0  0  0  0  0  0  0  0  0  0
   -3.1597   10.3175    3.1431 O   0  0  0  0  0  0  0  0  0  0  0  0
   -2.1291    0.9681    2.1556 O   0  0  0  0  0  0  0  0  0  0  0  0
   -2.2139   -0.0407    1.1272 C   0  0  1  0  0  0  0  0  0  0  0  0
   -1.7102    0.4330   -0.2624 C   0  0  2  0  0  0  0  0  0  0  0  0
   -0.3521    1.0561   -0.2152 N   0  0  2  0  0  0  0  0  0  0  0  0
    0.0785    1.7702   -1.4448 C   0  0  1  0  0  0  0  0  0  0  0  0
    1.6225    1.7119   -1.4762 C   0  0  1  0  0  0  0  0  0  0  0  0
    2.0173    0.9948   -0.1754 C   0  0  2  0  0  0  0  0  0  0  0  0
    0.7701    0.1698    0.1658 C   0  0  1  0  0  0  0  0  0  0  0  0
   -6.4066    5.2324    2.9005 H   0  0  0  0  0  0  0  0  0  0  0  0
   -6.8988    4.3774    0.4580 H   0  0  0  0  0  0  0  0  0  0  0  0
   -3.3260    8.2246    4.7062 H   0  0  0  0  0  0  0  0  0  0  0  0
   -4.3910    9.7199    0.9324 H   0  0  0  0  0  0  0  0  0  0  0  0
   -4.4226    6.1486    4.2116 H   0  0  0  0  0  0  0  0  0  0  0  0
   -6.5444    8.2556   -0.0681 H   0  0  0  0  0  0  0  0  0  0  0  0
   -4.9872    7.9264   -0.8241 H   0  0  0  0  0  0  0  0  0  0  0  0
   -6.9271    6.2559   -1.2353 H   0  0  0  0  0  0  0  0  0  0  0  0
   -5.1945    5.5785   -0.7041 H   0  0  0  0  0  0  0  0  0  0  0  0
   -6.1640    2.8413    2.8929 H   0  0  0  0  0  0  0  0  0  0  0  0
   -4.6374    0.9897    2.9788 H   0  0  0  0  0  0  0  0  0  0  0  0
   -1.6873    3.3244    1.0935 H   0  0  0  0  0  0  0  0  0  0  0  0
   -3.2129    5.1660    0.9612 H   0  0  0  0  0  0  0  0  0  0  0  0
   -7.6389    7.5327    2.4046 H   0  0  0  0  0  0  0  0  0  0  0  0
   -9.8626    8.2998    2.8241 H   0  0  0  0  0  0  0  0  0  0  0  0
  -11.7598    7.1992    1.7894 H   0  0  0  0  0  0  0  0  0  0  0  0
  -11.3982    5.3179    0.2983 H   0  0  0  0  0  0  0  0  0  0  0  0
   -9.1732    4.5253   -0.1408 H   0  0  0  0  0  0  0  0  0  0  0  0
   -2.7221   10.1912    4.0139 H   0  0  0  0  0  0  0  0  0  0  0  0
   -1.5880   -0.8734    1.4531 H   0  0  0  0  0  0  0  0  0  0  0  0
   -3.2322   -0.4336    1.0447 H   0  0  0  0  0  0  0  0  0  0  0  0
   -2.4288    1.1622   -0.6453 H   0  0  0  0  0  0  0  0  0  0  0  0
   -1.7129   -0.4157   -0.9515 H   0  0  0  0  0  0  0  0  0  0  0  0
   -0.3288    1.3045   -2.3472 H   0  0  0  0  0  0  0  0  0  0  0  0
   -0.2653    2.8066   -1.4025 H   0  0  0  0  0  0  0  0  0  0  0  0
    1.9601    1.1305   -2.3396 H   0  0  0  0  0  0  0  0  0  0  0  0
    2.0668    2.7097   -1.5281 H   0  0  0  0  0  0  0  0  0  0  0  0
    2.2154    1.7240    0.6166 H   0  0  0  0  0  0  0  0  0  0  0  0
    2.8963    0.3590   -0.3065 H   0  0  0  0  0  0  0  0  0  0  0  0
    0.7513   -0.0690    1.2311 H   0  0  0  0  0  0  0  0  0  0  0  0
    0.7610   -0.7573   -0.4167 H   0  0  0  0  0  0  0  0  0  0  0  0
  1  2  2  0  0  0  0 
  2  3  1  0  0  0  0 
  3  4  2  0  0  0  0 
  4  5  1  0  0  0  0 
  5  6  2  0  0  0  0 
  1  6  1  0  0  0  0 
  7  8  1  0  0  0  0 
  9  8  1  0  0  0  0 
 10  9  1  0  0  0  0 
  4  7  1  0  0  0  0 
 10  5  1  0  0  0  0 
 10 11  1  0  0  0  0 
  9 12  1  0  0  0  0 
 13 14  1  0  0  0  0 
 14 15  2  0  0  0  0 
 15 16  1  0  0  0  0 
 16 17  2  0  0  0  0 
 11 13  2  0  0  0  0 
 11 17  1  0  0  0  0 
 18 19  1  0  0  0  0 
 19 20  2  0  0  0  0 
 20 21  1  0  0  0  0 
 21 22  2  0  0  0  0 
 12 18  2  0  0  0  0 
 12 22  1  0  0  0  0 
  2 23  1  0  0  0  0 
 15 24  1  0  0  0  0 
 24 25  1  0  0  0  0 
 25 26  1  0  0  0  0 
 26 27  1  0  0  0  0 
 28 29  1  0  0  0  0 
 29 30  1  0  0  0  0 
 30 31  1  0  0  0  0 
 27 28  1  0  0  0  0 
 27 31  1  0  0  0  0 
 10 32  1  0  0  0  0 
  9 33  1  0  0  0  0 
  1 34  1  0  0  0  0 
  3 35  1  0  0  0  0 
  6 36  1  0  0  0  0 
  7 37  1  0  0  0  0 
  7 38  1  0  0  0  0 
  8 39  1  0  0  0  0 
  8 40  1  0  0  0  0 
 13 41  1  0  0  0  0 
 14 42  1  0  0  0  0 
 16 43  1  0  0  0  0 
 17 44  1  0  0  0  0 
 18 45  1  0  0  0  0 
 19 46  1  0  0  0  0 
 20 47  1  0  0  0  0 
 21 48  1  0  0  0  0 
 22 49  1  0  0  0  0 
 23 50  1  0  0  0  0 
 25 51  1  0  0  0  0 
 25 52  1  0  0  0  0 
 26 53  1  0  0  0  0 
 26 54  1  0  0  0  0 
 28 55  1  0  0  0  0 
 28 56  1  0  0  0  0 
 29 57  1  0  0  0  0 
 29 58  1  0  0  0  0 
 30 59  1  0  0  0  0 
 30 60  1  0  0  0  0 
 31 61  1  0  0  0  0 
 31 62  1  0  0  0  0 
M  END
> <cdk:Title>
lasofoxifene

> <Conformer>
1

> <SuperDrugID>
SD003490

$$$$
