gestonorone caproate
  CDK     0628171801

 68 71  0  0  0  0  0  0  0  0999 V2000
   -0.8196   -1.1390   -0.7399 O   0  0  0  0  0  0  0  0  0  0  0  0
   -1.7281   -0.5743   -1.5908 C   0  0  0  0  0  0  0  0  0  0  0  0
   -0.2554   -0.7765    0.5426 C   0  0  1  0  0  0  0  0  0  0  0  0
   -1.8848   -1.2430   -2.8972 C   0  0  2  0  0  0  0  0  0  0  0  0
   -2.3388    0.4844   -1.3173 O   0  0  0  0  0  0  0  0  0  0  0  0
    0.2583    0.6300    0.4021 C   0  0  0  0  0  0  0  0  0  0  0  0
   -1.1820   -1.0577    1.7959 C   0  0  2  0  0  0  0  0  0  0  0  0
    0.8605   -1.8679    0.7387 C   0  0  2  0  0  0  0  0  0  0  0  0
   -3.2446   -1.0851   -3.6249 C   0  0  2  0  0  0  0  0  0  0  0  0
    1.5971    0.9712   -0.1253 C   0  0  0  0  0  0  0  0  0  0  0  0
   -0.5192    1.5861    0.6373 O   0  0  0  0  0  0  0  0  0  0  0  0
   -0.5271   -0.4221    3.0930 C   0  0  0  0  0  0  0  0  0  0  0  0
   -1.2253   -2.6234    1.8061 C   0  0  1  0  0  0  0  0  0  0  0  0
   -2.6755   -0.5923    1.7020 C   0  0  2  0  0  0  0  0  0  0  0  0
    0.2345   -3.0466    1.5323 C   0  0  1  0  0  0  0  0  0  0  0  0
   -4.4420   -1.7739   -2.9152 C   0  0  2  0  0  0  0  0  0  0  0  0
   -1.9520   -3.1981    3.0685 C   0  0  1  0  0  0  0  0  0  0  0  0
   -3.5469   -1.1188    2.8844 C   0  0  2  0  0  0  0  0  0  0  0  0
   -5.6861   -1.8617   -3.8408 C   0  0  1  0  0  0  0  0  0  0  0  0
   -3.4288   -2.6600    3.1616 C   0  0  2  0  0  0  0  0  0  0  0  0
   -2.0085   -4.7507    3.1175 C   0  0  1  0  0  0  0  0  0  0  0  0
   -6.9093   -2.5036   -3.1537 C   0  0  0  0  0  0  0  0  0  0  0  0
   -4.0815   -3.1105    4.5278 C   0  0  2  0  0  0  0  0  0  0  0  0
   -2.6465   -5.2218    4.4507 C   0  0  2  0  0  0  0  0  0  0  0  0
   -3.9258   -4.5683    4.7763 C   0  0  0  0  0  0  0  0  0  0  0  0
   -5.5746   -2.6403    4.6258 C   0  0  1  0  0  0  0  0  0  0  0  0
   -4.8991   -5.2937    5.3752 C   0  0  0  0  0  0  0  0  0  0  0  0
   -6.3364   -3.2961    5.8010 C   0  0  1  0  0  0  0  0  0  0  0  0
   -6.0825   -4.7504    5.8504 C   0  0  0  0  0  0  0  0  0  0  0  0
   -6.9345   -5.4930    6.3944 O   0  0  0  0  0  0  0  0  0  0  0  0
   -1.6776   -2.3088   -2.7731 H   0  0  0  0  0  0  0  0  0  0  0  0
   -1.1054   -0.8409   -3.5481 H   0  0  0  0  0  0  0  0  0  0  0  0
    1.7095   -1.4768    1.3072 H   0  0  0  0  0  0  0  0  0  0  0  0
    1.2579   -2.2287   -0.2162 H   0  0  0  0  0  0  0  0  0  0  0  0
   -3.1249   -1.5287   -4.6180 H   0  0  0  0  0  0  0  0  0  0  0  0
   -3.4674   -0.0240   -3.7661 H   0  0  0  0  0  0  0  0  0  0  0  0
    1.6406    2.0215   -0.4248 H   0  0  0  0  0  0  0  0  0  0  0  0
    1.8259    0.3597   -1.0002 H   0  0  0  0  0  0  0  0  0  0  0  0
    2.3543    0.8006    0.6423 H   0  0  0  0  0  0  0  0  0  0  0  0
   -0.5673    0.6664    3.0579 H   0  0  0  0  0  0  0  0  0  0  0  0
    0.5167   -0.7106    3.2101 H   0  0  0  0  0  0  0  0  0  0  0  0
   -1.0292   -0.7076    4.0124 H   0  0  0  0  0  0  0  0  0  0  0  0
   -1.8037   -2.9722    0.9380 H   0  0  0  0  0  0  0  0  0  0  0  0
   -3.1256   -0.9548    0.7751 H   0  0  0  0  0  0  0  0  0  0  0  0
   -2.7318    0.4984    1.6805 H   0  0  0  0  0  0  0  0  0  0  0  0
    0.2632   -3.9763    0.9531 H   0  0  0  0  0  0  0  0  0  0  0  0
    0.7754   -3.2053    2.4689 H   0  0  0  0  0  0  0  0  0  0  0  0
   -4.6979   -1.2108   -2.0138 H   0  0  0  0  0  0  0  0  0  0  0  0
   -4.1585   -2.7860   -2.6121 H   0  0  0  0  0  0  0  0  0  0  0  0
   -1.3900   -2.8924    3.9547 H   0  0  0  0  0  0  0  0  0  0  0  0
   -4.5870   -0.8816    2.6459 H   0  0  0  0  0  0  0  0  0  0  0  0
   -3.3002   -0.5613    3.7896 H   0  0  0  0  0  0  0  0  0  0  0  0
   -5.9615   -0.8590   -4.1777 H   0  0  0  0  0  0  0  0  0  0  0  0
   -5.4378   -2.4557   -4.7250 H   0  0  0  0  0  0  0  0  0  0  0  0
   -3.9969   -3.1440    2.3575 H   0  0  0  0  0  0  0  0  0  0  0  0
   -2.5897   -5.1378    2.2755 H   0  0  0  0  0  0  0  0  0  0  0  0
   -1.0015   -5.1692    3.0457 H   0  0  0  0  0  0  0  0  0  0  0  0
   -7.7232   -2.6089   -3.8735 H   0  0  0  0  0  0  0  0  0  0  0  0
   -7.2505   -1.8756   -2.3295 H   0  0  0  0  0  0  0  0  0  0  0  0
   -6.6555   -3.4928   -2.7684 H   0  0  0  0  0  0  0  0  0  0  0  0
   -3.5395   -2.6099    5.3374 H   0  0  0  0  0  0  0  0  0  0  0  0
   -1.9520   -4.9977    5.2651 H   0  0  0  0  0  0  0  0  0  0  0  0
   -2.7367   -6.3117    4.4040 H   0  0  0  0  0  0  0  0  0  0  0  0
   -5.6239   -1.5552    4.7528 H   0  0  0  0  0  0  0  0  0  0  0  0
   -6.0957   -2.8952    3.6984 H   0  0  0  0  0  0  0  0  0  0  0  0
   -4.7688   -6.2702    5.5150 H   0  0  0  0  0  0  0  0  0  0  0  0
   -6.0161   -2.8512    6.7461 H   0  0  0  0  0  0  0  0  0  0  0  0
   -7.4059   -3.1030    5.6815 H   0  0  0  0  0  0  0  0  0  0  0  0
  1  2  1  0  0  0  0 
  2  4  1  0  0  0  0 
  2  5  2  0  0  0  0 
  3  1  1  0  0  0  0 
  3  6  1  0  0  0  0 
  7  3  1  0  0  0  0 
  3  8  1  0  0  0  0 
  4  9  1  0  0  0  0 
  6 10  1  0  0  0  0 
  6 11  2  0  0  0  0 
  7 12  1  0  0  0  0 
  7 13  1  0  0  0  0 
  7 14  1  0  0  0  0 
  8 15  1  0  0  0  0 
  9 16  1  0  0  0  0 
 13 15  1  0  0  0  0 
 13 17  1  0  0  0  0 
 14 18  1  0  0  0  0 
 16 19  1  0  0  0  0 
 17 20  1  0  0  0  0 
 17 21  1  0  0  0  0 
 20 18  1  0  0  0  0 
 19 22  1  0  0  0  0 
 20 23  1  0  0  0  0 
 21 24  1  0  0  0  0 
 23 25  1  0  0  0  0 
 23 26  1  0  0  0  0 
 24 25  1  0  0  0  0 
 25 27  2  0  0  0  0 
 26 28  1  0  0  0  0 
 27 29  1  0  0  0  0 
 28 29  1  0  0  0  0 
 29 30  2  0  0  0  0 
 31  4  1  0  0  0  0 
 32  4  1  0  0  0  0 
 33  8  1  0  0  0  0 
 34  8  1  0  0  0  0 
 35  9  1  0  0  0  0 
 36  9  1  0  0  0  0 
 37 10  1  0  0  0  0 
 38 10  1  0  0  0  0 
 39 10  1  0  0  0  0 
 40 12  1  0  0  0  0 
 41 12  1  0  0  0  0 
 42 12  1  0  0  0  0 
 13 43  1  0  0  0  0 
 44 14  1  0  0  0  0 
 45 14  1  0  0  0  0 
 46 15  1  0  0  0  0 
 47 15  1  0  0  0  0 
 48 16  1  0  0  0  0 
 49 16  1  0  0  0  0 
 17 50  1  0  0  0  0 
 51 18  1  0  0  0  0 
 52 18  1  0  0  0  0 
 53 19  1  0  0  0  0 
 54 19  1  0  0  0  0 
 20 55  1  0  0  0  0 
 56 21  1  0  0  0  0 
 57 21  1  0  0  0  0 
 58 22  1  0  0  0  0 
 59 22  1  0  0  0  0 
 60 22  1  0  0  0  0 
 23 61  1  0  0  0  0 
 62 24  1  0  0  0  0 
 63 24  1  0  0  0  0 
 64 26  1  0  0  0  0 
 65 26  1  0  0  0  0 
 66 27  1  0  0  0  0 
 67 28  1  0  0  0  0 
 68 28  1  0  0  0  0 
M  END
> <cdk:Title>
gestonorone caproate

> <Conformer>
1

> <SuperDrugID>
SD002817

$$$$
