viloxazine
  CDK     0628171801

 36 37  0  0  0  0  0  0  0  0999 V2000
   -3.5313    4.6454   -1.5199 C   0  0  0  0  0  0  0  0  0  0  0  0
   -2.3222    5.5871   -1.3657 C   0  0  2  0  0  0  0  0  0  0  0  0
   -1.8008    5.4955   -0.0230 O   0  0  0  0  0  0  0  0  0  0  0  0
   -0.7099    6.3016    0.1797 C   0  0  0  0  0  0  0  0  0  0  0  0
   -0.8851    7.6150    0.6655 C   0  0  0  0  0  0  0  0  0  0  0  0
    0.2251    8.4618    0.8418 C   0  0  0  0  0  0  0  0  0  0  0  0
    1.5188    7.9984    0.5416 C   0  0  0  0  0  0  0  0  0  0  0  0
    1.7039    6.6818    0.0812 C   0  0  0  0  0  0  0  0  0  0  0  0
    0.5962    5.8232   -0.0769 C   0  0  0  0  0  0  0  0  0  0  0  0
    0.7937    4.5366   -0.4949 O   0  0  0  0  0  0  0  0  0  0  0  0
    0.9421    3.6104    0.6016 C   0  0  1  0  0  0  0  0  0  0  0  0
    1.1013    2.1733    0.0566 C   0  0  1  0  0  0  0  0  0  0  0  0
   -0.1421    1.7013   -0.7513 C   0  0  2  0  0  0  0  0  0  0  0  0
    0.1147    0.3528   -1.3043 N   0  0  2  0  0  0  0  0  0  0  0  0
    1.3380    0.3060   -2.1375 C   0  0  1  0  0  0  0  0  0  0  0  0
    2.5541    0.8184   -1.3287 C   0  0  2  0  0  0  0  0  0  0  0  0
    2.2839    2.1231   -0.7751 O   0  0  0  0  0  0  0  0  0  0  0  0
   -3.2289    3.6121   -1.3425 H   0  0  0  0  0  0  0  0  0  0  0  0
   -4.3119    4.9145   -0.8064 H   0  0  0  0  0  0  0  0  0  0  0  0
   -3.9377    4.7238   -2.5301 H   0  0  0  0  0  0  0  0  0  0  0  0
   -2.6493    6.6087   -1.5828 H   0  0  0  0  0  0  0  0  0  0  0  0
   -1.5635    5.2961   -2.0993 H   0  0  0  0  0  0  0  0  0  0  0  0
   -1.8225    7.9581    0.8849 H   0  0  0  0  0  0  0  0  0  0  0  0
    0.0925    9.4167    1.1833 H   0  0  0  0  0  0  0  0  0  0  0  0
    2.3248    8.6159    0.6632 H   0  0  0  0  0  0  0  0  0  0  0  0
    2.6465    6.3478   -0.1340 H   0  0  0  0  0  0  0  0  0  0  0  0
    1.8315    3.8582    1.1900 H   0  0  0  0  0  0  0  0  0  0  0  0
    0.0716    3.6378    1.2657 H   0  0  0  0  0  0  0  0  0  0  0  0
    1.2364    1.5058    0.9160 H   0  0  0  0  0  0  0  0  0  0  0  0
   -0.3583    2.3937   -1.5690 H   0  0  0  0  0  0  0  0  0  0  0  0
   -1.0193    1.6558   -0.1038 H   0  0  0  0  0  0  0  0  0  0  0  0
   -0.6746    0.1150   -1.9082 H   0  0  0  0  0  0  0  0  0  0  0  0
    1.5100   -0.7219   -2.4613 H   0  0  0  0  0  0  0  0  0  0  0  0
    1.1996    0.9271   -3.0258 H   0  0  0  0  0  0  0  0  0  0  0  0
    3.4225    0.8938   -1.9852 H   0  0  0  0  0  0  0  0  0  0  0  0
    2.7983    0.1134   -0.5302 H   0  0  0  0  0  0  0  0  0  0  0  0
  1  2  1  0  0  0  0 
  2  3  1  0  0  0  0 
  3  4  1  0  0  0  0 
  4  5  2  0  0  0  0 
  5  6  1  0  0  0  0 
  6  7  2  0  0  0  0 
  7  8  1  0  0  0  0 
  8  9  2  0  0  0  0 
  4  9  1  0  0  0  0 
  9 10  1  0  0  0  0 
 10 11  1  0  0  0  0 
 12 11  1  0  0  0  0 
 12 13  1  0  0  0  0 
 13 14  1  0  0  0  0 
 14 15  1  0  0  0  0 
 15 16  1  0  0  0  0 
 16 17  1  0  0  0  0 
 12 17  1  0  0  0  0 
  1 18  1  0  0  0  0 
  1 19  1  0  0  0  0 
  1 20  1  0  0  0  0 
  2 21  1  0  0  0  0 
  2 22  1  0  0  0  0 
  5 23  1  0  0  0  0 
  6 24  1  0  0  0  0 
  7 25  1  0  0  0  0 
  8 26  1  0  0  0  0 
 11 27  1  0  0  0  0 
 11 28  1  0  0  0  0 
 12 29  1  0  0  0  0 
 13 30  1  0  0  0  0 
 13 31  1  0  0  0  0 
 14 32  1  0  0  0  0 
 15 33  1  0  0  0  0 
 15 34  1  0  0  0  0 
 16 35  1  0  0  0  0 
 16 36  1  0  0  0  0 
M  END
> <cdk:Title>
viloxazine

> <Conformer>
1

> <SuperDrugID>
SD002544

$$$$
