lactulose
  CDK     0628171801

 45 46  0  0  0  0  0  0  0  0999 V2000
   -5.5450   -1.8696    3.8365 O   0  0  0  0  0  0  0  0  0  0  0  0
   -6.1534   -1.6442    2.5684 C   0  0  1  0  0  0  0  0  0  0  0  0
   -5.7797   -0.2434    2.0237 C   0  0  1  0  0  0  0  0  0  0  0  0
   -4.3426   -0.1812    1.8906 O   0  0  0  0  0  0  0  0  0  0  0  0
   -3.8288    1.1235    1.5266 C   0  0  1  0  0  0  0  0  0  0  0  0
   -2.3933    1.1257    1.3970 O   0  0  0  0  0  0  0  0  0  0  0  0
   -4.4072    1.5529    0.1512 C   0  0  2  0  0  0  0  0  0  0  0  0
   -3.9692    2.8692   -0.1805 O   0  0  0  0  0  0  0  0  0  0  0  0
   -5.9573    1.4773    0.1501 C   0  0  1  0  0  0  0  0  0  0  0  0
   -6.4598    1.7451   -1.1583 O   0  0  0  0  0  0  0  0  0  0  0  0
   -6.4598    0.0969    0.6628 C   0  0  1  0  0  0  0  0  0  0  0  0
   -6.1835   -0.9065   -0.3154 O   0  0  0  0  0  0  0  0  0  0  0  0
    1.4209    0.0091    0.0370 O   0  0  0  0  0  0  0  0  0  0  0  0
    0.0563    0.2395    0.3700 C   0  0  1  0  0  0  0  0  0  0  0  0
   -0.1206    0.3570    1.9039 C   0  0  1  0  0  0  0  0  0  0  0  0
    0.6016    1.4988    2.3967 O   0  0  0  0  0  0  0  0  0  0  0  0
   -0.2467    2.2413    3.2862 C   0  0  2  0  0  0  0  0  0  0  0  0
   -0.7879    3.3412    2.5499 O   0  0  0  0  0  0  0  0  0  0  0  0
    0.5657    2.7910    4.4851 C   0  0  2  0  0  0  0  0  0  0  0  0
    1.6377    3.6158    4.0380 O   0  0  0  0  0  0  0  0  0  0  0  0
   -1.3727    1.2698    3.6991 C   0  0  1  0  0  0  0  0  0  0  0  0
   -2.5239    1.9355    4.2069 O   0  0  0  0  0  0  0  0  0  0  0  0
   -1.5886    0.4644    2.4040 C   0  0  1  0  0  0  0  0  0  0  0  0
   -5.9159   -1.1779    4.4240 H   0  0  0  0  0  0  0  0  0  0  0  0
   -5.8080   -2.4236    1.8883 H   0  0  0  0  0  0  0  0  0  0  0  0
   -7.2351   -1.7303    2.6827 H   0  0  0  0  0  0  0  0  0  0  0  0
   -6.1078    0.4866    2.7728 H   0  0  0  0  0  0  0  0  0  0  0  0
   -4.1153    1.8640    2.2786 H   0  0  0  0  0  0  0  0  0  0  0  0
   -4.0187    0.8763   -0.6160 H   0  0  0  0  0  0  0  0  0  0  0  0
   -4.2977    3.4406    0.5453 H   0  0  0  0  0  0  0  0  0  0  0  0
   -6.3508    2.2568    0.8075 H   0  0  0  0  0  0  0  0  0  0  0  0
   -6.0477    1.0707   -1.7393 H   0  0  0  0  0  0  0  0  0  0  0  0
   -7.5438    0.1430    0.7961 H   0  0  0  0  0  0  0  0  0  0  0  0
   -6.6291   -1.7167    0.0121 H   0  0  0  0  0  0  0  0  0  0  0  0
    1.4341   -0.0351   -0.9425 H   0  0  0  0  0  0  0  0  0  0  0  0
   -0.2651    1.1624   -0.1176 H   0  0  0  0  0  0  0  0  0  0  0  0
   -0.5423   -0.5896   -0.0138 H   0  0  0  0  0  0  0  0  0  0  0  0
    0.3345   -0.5287    2.3618 H   0  0  0  0  0  0  0  0  0  0  0  0
   -0.0081    3.8425    2.2298 H   0  0  0  0  0  0  0  0  0  0  0  0
    0.9873    1.9680    5.0673 H   0  0  0  0  0  0  0  0  0  0  0  0
   -0.0822    3.3837    5.1344 H   0  0  0  0  0  0  0  0  0  0  0  0
    2.0859    3.9114    4.8585 H   0  0  0  0  0  0  0  0  0  0  0  0
   -1.0143    0.5890    4.4796 H   0  0  0  0  0  0  0  0  0  0  0  0
   -3.1567    1.2185    4.4251 H   0  0  0  0  0  0  0  0  0  0  0  0
   -1.9736   -0.5389    2.6197 H   0  0  0  0  0  0  0  0  0  0  0  0
  1  2  1  0  0  0  0 
  3  2  1  0  0  0  0 
  3  4  1  0  0  0  0 
  4  5  1  0  0  0  0 
  5  6  1  0  0  0  0 
  5  7  1  0  0  0  0 
  7  8  1  0  0  0  0 
  7  9  1  0  0  0  0 
  9 10  1  0  0  0  0 
  9 11  1  0  0  0  0 
  3 11  1  0  0  0  0 
 11 12  1  0  0  0  0 
 13 14  1  0  0  0  0 
 15 14  1  0  0  0  0 
 15 16  1  0  0  0  0 
 16 17  1  0  0  0  0 
 17 18  1  0  0  0  0 
 17 19  1  0  0  0  0 
 19 20  1  0  0  0  0 
 17 21  1  0  0  0  0 
 21 22  1  0  0  0  0 
 21 23  1  0  0  0  0 
 15 23  1  0  0  0  0 
 23  6  1  0  0  0  0 
  1 24  1  0  0  0  0 
  2 25  1  0  0  0  0 
  2 26  1  0  0  0  0 
  3 27  1  0  0  0  0 
  5 28  1  0  0  0  0 
  7 29  1  0  0  0  0 
  8 30  1  0  0  0  0 
  9 31  1  0  0  0  0 
 10 32  1  0  0  0  0 
 11 33  1  0  0  0  0 
 12 34  1  0  0  0  0 
 13 35  1  0  0  0  0 
 14 36  1  0  0  0  0 
 14 37  1  0  0  0  0 
 15 38  1  0  0  0  0 
 18 39  1  0  0  0  0 
 19 40  1  0  0  0  0 
 19 41  1  0  0  0  0 
 20 42  1  0  0  0  0 
 21 43  1  0  0  0  0 
 22 44  1  0  0  0  0 
 23 45  1  0  0  0  0 
M  END
> <cdk:Title>
lactulose

> <Conformer>
1

> <SuperDrugID>
SD001359

$$$$
