aminometradine
  CDK     0628171801

 27 27  0  0  0  0  0  0  0  0999 V2000
    2.0072   -1.1797    0.0089 C   0  0  1  0  0  0  0  0  0  0  0  0
    1.4111    0.1449   -0.0336 C   0  0  0  0  0  0  0  0  0  0  0  0
    1.6111   -1.9902   -1.1382 N   0  0  0  0  0  0  0  0  0  0  0  0
    0.1150    0.3710    0.2143 C   0  0  0  0  0  0  0  0  0  0  0  0
    0.6542   -2.9774   -1.0198 C   0  0  0  0  0  0  0  0  0  0  0  0
    2.1826   -1.7658   -2.3713 C   0  0  0  0  0  0  0  0  0  0  0  0
    0.1028   -3.1656    0.0947 O   0  0  0  0  0  0  0  0  0  0  0  0
    0.2661   -3.7559   -2.0902 N   0  0  0  0  0  0  0  0  0  0  0  0
    3.1295   -0.8234   -2.5908 N   0  0  0  0  0  0  0  0  0  0  0  0
    1.8013   -2.5294   -3.4862 C   0  0  0  0  0  0  0  0  0  0  0  0
   -0.7412   -4.7967   -1.9348 C   0  0  2  0  0  0  0  0  0  0  0  0
    0.8307   -3.5253   -3.3198 C   0  0  0  0  0  0  0  0  0  0  0  0
   -2.1673   -4.2292   -2.1038 C   0  0  0  0  0  0  0  0  0  0  0  0
    0.5083   -4.1704   -4.3471 O   0  0  0  0  0  0  0  0  0  0  0  0
    3.0962   -1.0881    0.0428 H   0  0  0  0  0  0  0  0  0  0  0  0
    1.7497   -1.6410    0.9661 H   0  0  0  0  0  0  0  0  0  0  0  0
    1.9897    0.9194   -0.2735 H   0  0  0  0  0  0  0  0  0  0  0  0
   -0.5007   -0.3703    0.4511 H   0  0  0  0  0  0  0  0  0  0  0  0
   -0.2474    1.2924    0.1656 H   0  0  0  0  0  0  0  0  0  0  0  0
    3.4901   -0.6956   -3.4834 H   0  0  0  0  0  0  0  0  0  0  0  0
    3.4503   -0.2704   -1.8612 H   0  0  0  0  0  0  0  0  0  0  0  0
    2.2200   -2.3640   -4.4070 H   0  0  0  0  0  0  0  0  0  0  0  0
   -0.6598   -5.2753   -0.9555 H   0  0  0  0  0  0  0  0  0  0  0  0
   -0.6037   -5.6088   -2.6555 H   0  0  0  0  0  0  0  0  0  0  0  0
   -2.9038   -5.0225   -1.9685 H   0  0  0  0  0  0  0  0  0  0  0  0
   -2.3536   -3.4486   -1.3658 H   0  0  0  0  0  0  0  0  0  0  0  0
   -2.2870   -3.8070   -3.1033 H   0  0  0  0  0  0  0  0  0  0  0  0
  1  2  1  0  0  0  0 
  1  3  1  0  0  0  0 
  2  4  2  0  0  0  0 
  3  5  1  0  0  0  0 
  3  6  1  0  0  0  0 
  5  7  2  0  0  0  0 
  5  8  1  0  0  0  0 
  6  9  1  0  0  0  0 
  6 10  2  0  0  0  0 
  8 11  1  0  0  0  0 
  8 12  1  0  0  0  0 
 10 12  1  0  0  0  0 
 11 13  1  0  0  0  0 
 12 14  2  0  0  0  0 
  1 15  1  0  0  0  0 
  1 16  1  0  0  0  0 
  2 17  1  0  0  0  0 
  4 18  1  0  0  0  0 
  4 19  1  0  0  0  0 
  9 20  1  0  0  0  0 
  9 21  1  0  0  0  0 
 10 22  1  0  0  0  0 
 11 23  1  0  0  0  0 
 11 24  1  0  0  0  0 
 13 25  1  0  0  0  0 
 13 26  1  0  0  0  0 
 13 27  1  0  0  0  0 
M  END
> <cdk:Title>
aminometradine

> <Conformer>
1

> <SuperDrugID>
SD000135

$$$$
