minodronic acid
  CDK     0628171801

 32 33  0  0  0  0  0  0  0  0999 V2000
    1.1890    3.0444   -3.5120 C   0  0  1  0  0  0  0  0  0  0  0  0
    1.2150    4.5605   -3.1172 C   0  0  1  0  0  0  0  0  0  0  0  0
    1.0824    2.1106   -2.3634 C   0  0  0  0  0  0  0  0  0  0  0  0
    1.5106    5.5300   -4.5131 P   0  0  1  0  0  0  0  0  0  0  0  0
   -0.2243    5.0671   -2.3100 P   0  0  2  0  0  0  0  0  0  0  0  0
    2.2975    4.8021   -2.2191 O   0  0  0  0  0  0  0  0  0  0  0  0
   -0.0024    1.4437   -1.9186 N   0  0  0  0  0  0  0  0  0  0  0  0
    2.1219    1.7779   -1.4943 C   0  0  0  0  0  0  0  0  0  0  0  0
    2.7728    5.1510   -5.1648 O   0  0  0  0  0  0  0  0  0  0  0  0
    0.3185    5.3665   -5.5516 O   0  0  0  0  0  0  0  0  0  0  0  0
    1.5884    7.0656   -4.1111 O   0  0  0  0  0  0  0  0  0  0  0  0
   -1.4288    4.8033   -3.1094 O   0  0  0  0  0  0  0  0  0  0  0  0
   -0.1582    6.6149   -1.9580 O   0  0  0  0  0  0  0  0  0  0  0  0
   -0.3486    4.3213   -0.9112 O   0  0  0  0  0  0  0  0  0  0  0  0
    0.3776    0.7410   -0.8249 C   0  0  0  0  0  0  0  0  0  0  0  0
   -1.2874    1.4311   -2.3812 C   0  0  0  0  0  0  0  0  0  0  0  0
    1.6782    0.9321   -0.5528 N   0  0  0  0  0  0  0  0  0  0  0  0
   -0.5394   -0.0491   -0.1120 C   0  0  0  0  0  0  0  0  0  0  0  0
   -2.2557    0.6725   -1.6952 C   0  0  0  0  0  0  0  0  0  0  0  0
   -1.8766   -0.0661   -0.5551 C   0  0  0  0  0  0  0  0  0  0  0  0
    0.3651    2.8607   -4.2024 H   0  0  0  0  0  0  0  0  0  0  0  0
    2.1020    2.7775   -4.0510 H   0  0  0  0  0  0  0  0  0  0  0  0
    3.1018    4.5058   -2.6951 H   0  0  0  0  0  0  0  0  0  0  0  0
    3.0804    2.1225   -1.5558 H   0  0  0  0  0  0  0  0  0  0  0  0
    0.5604    5.9458   -6.3055 H   0  0  0  0  0  0  0  0  0  0  0  0
    1.7284    7.5434   -4.9555 H   0  0  0  0  0  0  0  0  0  0  0  0
   -0.9929    6.7867   -1.4727 H   0  0  0  0  0  0  0  0  0  0  0  0
   -1.1491    4.7069   -0.4974 H   0  0  0  0  0  0  0  0  0  0  0  0
   -1.5653    1.9703   -3.2033 H   0  0  0  0  0  0  0  0  0  0  0  0
   -0.2471   -0.5868    0.7066 H   0  0  0  0  0  0  0  0  0  0  0  0
   -3.2253    0.6638   -2.0178 H   0  0  0  0  0  0  0  0  0  0  0  0
   -2.5772   -0.6117   -0.0489 H   0  0  0  0  0  0  0  0  0  0  0  0
  1  2  1  0  0  0  0 
  1  3  1  0  0  0  0 
  2  4  1  0  0  0  0 
  2  5  1  0  0  0  0 
  2  6  1  0  0  0  0 
  3  7  1  0  0  0  0 
  3  8  2  0  0  0  0 
  4  9  2  0  0  0  0 
  4 10  1  0  0  0  0 
  4 11  1  0  0  0  0 
  5 12  2  0  0  0  0 
  5 13  1  0  0  0  0 
  5 14  1  0  0  0  0 
  7 15  1  0  0  0  0 
  7 16  1  0  0  0  0 
  8 17  1  0  0  0  0 
 15 17  2  0  0  0  0 
 15 18  1  0  0  0  0 
 16 19  2  0  0  0  0 
 18 20  2  0  0  0  0 
 19 20  1  0  0  0  0 
  1 21  1  0  0  0  0 
  1 22  1  0  0  0  0 
  6 23  1  0  0  0  0 
  8 24  1  0  0  0  0 
 10 25  1  0  0  0  0 
 11 26  1  0  0  0  0 
 13 27  1  0  0  0  0 
 14 28  1  0  0  0  0 
 16 29  1  0  0  0  0 
 18 30  1  0  0  0  0 
 19 31  1  0  0  0  0 
 20 32  1  0  0  0  0 
M  END
> <cdk:Title>
minodronic acid

> <Conformer>
1

> <SuperDrugID>
SD003349

$$$$
