aztreonam
  CDK     0628171801

 45 46  0  0  0  0  0  0  0  0999 V2000
   -1.3375   -0.0595   -2.2647 N   0  0  0  0  0  0  0  0  0  0  0  0
   -1.6225   -0.0307   -3.5208 C   0  0  0  0  0  0  0  0  0  0  0  0
   -2.9699   -0.1974   -3.8726 C   0  0  0  0  0  0  0  0  0  0  0  0
   -0.6147    0.1809   -4.4643 C   0  0  0  0  0  0  0  0  0  0  0  0
   -3.3946   -0.2817   -5.1729 N   0  0  0  0  0  0  0  0  0  0  0  0
   -4.7153   -0.4398   -5.4108 C   0  0  0  0  0  0  0  0  0  0  0  0
   -5.5062   -0.4641   -3.8479 S   0  0  0  0  0  0  0  0  0  0  0  0
   -4.0230   -0.2713   -2.9355 C   0  0  0  0  0  0  0  0  0  0  0  0
   -5.3089   -0.5666   -6.6056 N   0  0  0  0  0  0  0  0  0  0  0  0
    0.3019    1.0012   -4.2090 O   0  0  0  0  0  0  0  0  0  0  0  0
   -0.5962   -0.4946   -5.6464 N   0  0  0  0  0  0  0  0  0  0  0  0
   -0.1837    0.0727   -1.7203 O   0  0  0  0  0  0  0  0  0  0  0  0
   -0.2165    0.4904   -0.3332 C   0  0  1  0  0  0  0  0  0  0  0  0
    1.2019    0.6799    0.0850 C   0  0  0  0  0  0  0  0  0  0  0  0
    1.4948    1.0391    1.2497 O   0  0  0  0  0  0  0  0  0  0  0  0
    2.2287    0.4508   -0.7694 O   0  0  0  0  0  0  0  0  0  0  0  0
   -0.9998    1.8330   -0.1750 C   0  0  0  0  0  0  0  0  0  0  0  0
   -0.8460   -0.6281    0.5517 C   0  0  0  0  0  0  0  0  0  0  0  0
    0.4019   -0.3291   -6.6496 C   0  0  1  0  0  0  0  0  0  0  0  0
    1.5821   -1.3545   -6.5966 C   0  0  1  0  0  0  0  0  0  0  0  0
    1.1150   -1.8074   -7.8603 N   0  0  0  0  0  0  0  0  0  0  0  0
    0.0765   -0.9807   -7.9151 C   0  0  0  0  0  0  0  0  0  0  0  0
   -0.8329   -0.7979   -8.7554 O   0  0  0  0  0  0  0  0  0  0  0  0
    1.7191   -2.9670   -8.9574 S   0  0  2  0  0  0  0  0  0  0  0  0
    3.0097   -0.7596   -6.5789 C   0  0  0  0  0  0  0  0  0  0  0  0
    2.2392   -4.2565   -8.1620 O   0  0  0  0  0  0  0  0  0  0  0  0
    2.9209   -2.3375   -9.8097 O   0  0  0  0  0  0  0  0  0  0  0  0
    0.4763   -3.4406  -10.0320 O   0  0  0  0  0  0  0  0  0  0  0  0
   -3.9575   -0.2159   -1.9181 H   0  0  0  0  0  0  0  0  0  0  0  0
   -6.2716   -0.6808   -6.6558 H   0  0  0  0  0  0  0  0  0  0  0  0
   -4.7791   -0.5502   -7.4190 H   0  0  0  0  0  0  0  0  0  0  0  0
   -1.2913   -1.1501   -5.8124 H   0  0  0  0  0  0  0  0  0  0  0  0
    3.1551    0.5608   -0.4682 H   0  0  0  0  0  0  0  0  0  0  0  0
   -0.9764    2.1861    0.8572 H   0  0  0  0  0  0  0  0  0  0  0  0
   -2.0477    1.7024   -0.4575 H   0  0  0  0  0  0  0  0  0  0  0  0
   -0.5689    2.6029   -0.8188 H   0  0  0  0  0  0  0  0  0  0  0  0
   -0.8371   -0.3444    1.6056 H   0  0  0  0  0  0  0  0  0  0  0  0
   -1.8814   -0.8134    0.2616 H   0  0  0  0  0  0  0  0  0  0  0  0
   -0.2878   -1.5590    0.4383 H   0  0  0  0  0  0  0  0  0  0  0  0
    0.6984    0.7103   -6.8170 H   0  0  0  0  0  0  0  0  0  0  0  0
    1.4560   -2.1227   -5.8257 H   0  0  0  0  0  0  0  0  0  0  0  0
    3.1301    0.0012   -7.3516 H   0  0  0  0  0  0  0  0  0  0  0  0
    3.7391   -1.5534   -6.7493 H   0  0  0  0  0  0  0  0  0  0  0  0
    3.2088   -0.3098   -5.6036 H   0  0  0  0  0  0  0  0  0  0  0  0
    0.3240   -4.3861   -9.8233 H   0  0  0  0  0  0  0  0  0  0  0  0
  1  2  2  0  0  0  0 
  2  3  1  0  0  0  0 
  2  4  1  0  0  0  0 
  5  6  2  0  0  0  0 
  6  7  1  0  0  0  0 
  7  8  1  0  0  0  0 
  3  5  1  0  0  0  0 
  3  8  2  0  0  0  0 
  6  9  1  0  0  0  0 
  4 10  2  0  0  0  0 
  4 11  1  0  0  0  0 
  1 12  1  0  0  0  0 
 12 13  1  0  0  0  0 
 13 14  1  0  0  0  0 
 14 15  2  0  0  0  0 
 14 16  1  0  0  0  0 
 13 17  1  0  0  0  0 
 13 18  1  0  0  0  0 
 19 11  1  0  0  0  0 
 20 21  1  0  0  0  0 
 21 22  1  0  0  0  0 
 19 20  1  0  0  0  0 
 22 19  1  0  0  0  0 
 22 23  2  0  0  0  0 
 21 24  1  0  0  0  0 
 20 25  1  0  0  0  0 
 24 26  2  0  0  0  0 
 24 27  2  0  0  0  0 
 24 28  1  0  0  0  0 
  8 29  1  0  0  0  0 
  9 30  1  0  0  0  0 
  9 31  1  0  0  0  0 
 11 32  1  0  0  0  0 
 16 33  1  0  0  0  0 
 17 34  1  0  0  0  0 
 17 35  1  0  0  0  0 
 17 36  1  0  0  0  0 
 18 37  1  0  0  0  0 
 18 38  1  0  0  0  0 
 18 39  1  0  0  0  0 
 19 40  1  0  0  0  0 
 20 41  1  0  0  0  0 
 25 42  1  0  0  0  0 
 25 43  1  0  0  0  0 
 25 44  1  0  0  0  0 
 28 45  1  0  0  0  0 
M  END
> <cdk:Title>
aztreonam

> <Conformer>
1

> <SuperDrugID>
SD000233

$$$$
