pazufloxacin
  CDK     0628171801

 38 41  0  0  0  0  0  0  0  0999 V2000
    6.3417    0.3173   -1.6315 O   0  0  0  0  0  0  0  0  0  0  0  0
    5.7664    0.4954   -0.5299 C   0  0  0  0  0  0  0  0  0  0  0  0
    4.3572    0.3866   -0.4612 C   0  0  0  0  0  0  0  0  0  0  0  0
    6.5233    0.7853    0.6321 C   0  0  0  0  0  0  0  0  0  0  0  0
    3.7121    0.6099    0.7878 C   0  0  0  0  0  0  0  0  0  0  0  0
    3.5782    0.0421   -1.5890 C   0  0  0  0  0  0  0  0  0  0  0  0
    7.9476    0.8964    0.6283 C   0  0  0  0  0  0  0  0  0  0  0  0
    5.8073    0.9757    1.8365 C   0  0  0  0  0  0  0  0  0  0  0  0
    2.3040    0.4311    0.8807 C   0  0  0  0  0  0  0  0  0  0  0  0
    4.4368    0.9604    1.9071 N   0  0  0  0  0  0  0  0  0  0  0  0
    2.1839   -0.0818   -1.4965 C   0  0  0  0  0  0  0  0  0  0  0  0
    8.6459    1.2380    1.7388 O   0  0  0  0  0  0  0  0  0  0  0  0
    8.6398    0.7047   -0.3979 O   0  0  0  0  0  0  0  0  0  0  0  0
    1.5247    0.1352   -0.2658 C   0  0  0  0  0  0  0  0  0  0  0  0
    1.6875    0.4552    2.1091 O   0  0  0  0  0  0  0  0  0  0  0  0
    3.7744    1.2745    3.1766 C   0  0  2  0  0  0  0  0  0  0  0  0
    1.5298   -0.4295   -2.5737 F   0  0  0  0  0  0  0  0  0  0  0  0
    0.0451   -0.0092   -0.1697 C   0  0  2  0  0  0  0  0  0  0  0  0
    2.2280    1.4268    3.0123 C   0  0  1  0  0  0  0  0  0  0  0  0
    4.3010    2.5575    3.8956 C   0  0  0  0  0  0  0  0  0  0  0  0
   -0.4831   -1.3388    0.1469 N   0  0  1  0  0  0  0  0  0  0  0  0
   -0.8328    0.8191   -1.1319 C   0  0  2  0  0  0  0  0  0  0  0  0
   -0.7900    1.1774    0.3545 C   0  0  1  0  0  0  0  0  0  0  0  0
    4.0220   -0.1324   -2.4931 H   0  0  0  0  0  0  0  0  0  0  0  0
    6.3463    1.1352    2.6891 H   0  0  0  0  0  0  0  0  0  0  0  0
    9.6203    1.3362    1.6917 H   0  0  0  0  0  0  0  0  0  0  0  0
    3.9511    0.4265    3.8455 H   0  0  0  0  0  0  0  0  0  0  0  0
    1.9669    2.4260    2.6484 H   0  0  0  0  0  0  0  0  0  0  0  0
    1.7380    1.2947    3.9789 H   0  0  0  0  0  0  0  0  0  0  0  0
    4.2217    3.4201    3.2306 H   0  0  0  0  0  0  0  0  0  0  0  0
    5.3408    2.4534    4.2073 H   0  0  0  0  0  0  0  0  0  0  0  0
    3.7189    2.7562    4.7993 H   0  0  0  0  0  0  0  0  0  0  0  0
   -0.1143   -1.9737   -0.5638 H   0  0  0  0  0  0  0  0  0  0  0  0
   -0.0735   -1.6173    1.0407 H   0  0  0  0  0  0  0  0  0  0  0  0
   -1.7677    0.3602   -1.4621 H   0  0  0  0  0  0  0  0  0  0  0  0
   -0.3401    1.5442   -1.7837 H   0  0  0  0  0  0  0  0  0  0  0  0
   -1.7120    0.9439    0.8901 H   0  0  0  0  0  0  0  0  0  0  0  0
   -0.2650    2.1072    0.5825 H   0  0  0  0  0  0  0  0  0  0  0  0
  1  2  2  0  0  0  0 
  2  3  1  0  0  0  0 
  2  4  1  0  0  0  0 
  3  5  1  0  0  0  0 
  3  6  2  0  0  0  0 
  4  7  1  0  0  0  0 
  4  8  2  0  0  0  0 
  5  9  2  0  0  0  0 
  5 10  1  0  0  0  0 
  6 11  1  0  0  0  0 
  7 12  1  0  0  0  0 
  7 13  2  0  0  0  0 
  8 10  1  0  0  0  0 
  9 14  1  0  0  0  0 
  9 15  1  0  0  0  0 
 16 10  1  0  0  0  0 
 11 14  2  0  0  0  0 
 11 17  1  0  0  0  0 
 14 18  1  0  0  0  0 
 15 19  1  0  0  0  0 
 16 19  1  0  0  0  0 
 16 20  1  0  0  0  0 
 18 21  1  0  0  0  0 
 18 22  1  0  0  0  0 
 18 23  1  0  0  0  0 
 22 23  1  0  0  0  0 
  6 24  1  0  0  0  0 
  8 25  1  0  0  0  0 
 12 26  1  0  0  0  0 
 16 27  1  0  0  0  0 
 19 28  1  0  0  0  0 
 19 29  1  0  0  0  0 
 20 30  1  0  0  0  0 
 20 31  1  0  0  0  0 
 20 32  1  0  0  0  0 
 21 33  1  0  0  0  0 
 21 34  1  0  0  0  0 
 22 35  1  0  0  0  0 
 22 36  1  0  0  0  0 
 23 37  1  0  0  0  0 
 23 38  1  0  0  0  0 
M  END
> <cdk:Title>
pazufloxacin

> <Conformer>
1

> <SuperDrugID>
SD001856

$$$$
