metoprolol
  CDK     0628171801

 44 44  0  0  0  0  0  0  0  0999 V2000
    0.2557   -0.0318   -3.0824 O   0  0  0  0  0  0  0  0  0  0  0  0
    0.0637    0.7413   -1.8765 C   0  0  1  0  0  0  0  0  0  0  0  0
    0.2117    0.7249   -4.2211 C   0  0  0  0  0  0  0  0  0  0  0  0
   -0.0556   -0.2061   -0.6548 C   0  0  2  0  0  0  0  0  0  0  0  0
   -1.0108    0.9355   -4.8903 C   0  0  0  0  0  0  0  0  0  0  0  0
    1.3918    1.2878   -4.7408 C   0  0  0  0  0  0  0  0  0  0  0  0
   -1.2262   -1.2094   -0.8096 C   0  0  2  0  0  0  0  0  0  0  0  0
   -0.2624    0.5724    0.5251 O   0  0  0  0  0  0  0  0  0  0  0  0
   -1.0566    1.7386   -6.0447 C   0  0  0  0  0  0  0  0  0  0  0  0
    1.3452    2.0901   -5.8956 C   0  0  0  0  0  0  0  0  0  0  0  0
   -1.3642   -2.0570    0.3976 N   0  0  1  0  0  0  0  0  0  0  0  0
    0.1180    2.3389   -6.5527 C   0  0  0  0  0  0  0  0  0  0  0  0
   -2.3871   -3.1349    0.3225 C   0  0  1  0  0  0  0  0  0  0  0  0
    0.0529    3.2699   -7.7130 C   0  0  1  0  0  0  0  0  0  0  0  0
   -2.2151   -4.0630    1.5506 C   0  0  0  0  0  0  0  0  0  0  0  0
   -3.8281   -2.5645    0.2603 C   0  0  0  0  0  0  0  0  0  0  0  0
   -0.1758    4.7211   -7.2251 C   0  0  2  0  0  0  0  0  0  0  0  0
   -0.2018    5.6177   -8.3533 O   0  0  0  0  0  0  0  0  0  0  0  0
   -0.4049    6.9995   -8.0060 C   0  0  0  0  0  0  0  0  0  0  0  0
    0.9131    1.4146   -1.7224 H   0  0  0  0  0  0  0  0  0  0  0  0
   -0.8488    1.3453   -1.9372 H   0  0  0  0  0  0  0  0  0  0  0  0
    0.8802   -0.7605   -0.5398 H   0  0  0  0  0  0  0  0  0  0  0  0
   -1.8701    0.5127   -4.5317 H   0  0  0  0  0  0  0  0  0  0  0  0
    2.2849    1.1215   -4.2717 H   0  0  0  0  0  0  0  0  0  0  0  0
   -1.0534   -1.8398   -1.6853 H   0  0  0  0  0  0  0  0  0  0  0  0
   -2.1444   -0.6413   -0.9678 H   0  0  0  0  0  0  0  0  0  0  0  0
    0.5194    1.1581    0.5946 H   0  0  0  0  0  0  0  0  0  0  0  0
   -1.9586    1.8943   -6.5023 H   0  0  0  0  0  0  0  0  0  0  0  0
    2.2141    2.5027   -6.2430 H   0  0  0  0  0  0  0  0  0  0  0  0
   -0.4601   -2.5115    0.5387 H   0  0  0  0  0  0  0  0  0  0  0  0
   -2.2142   -3.7422   -0.5717 H   0  0  0  0  0  0  0  0  0  0  0  0
    0.9794    3.2216   -8.2911 H   0  0  0  0  0  0  0  0  0  0  0  0
   -0.7604    2.9848   -8.3857 H   0  0  0  0  0  0  0  0  0  0  0  0
   -1.2128   -4.4969    1.5546 H   0  0  0  0  0  0  0  0  0  0  0  0
   -2.3601   -3.5072    2.4810 H   0  0  0  0  0  0  0  0  0  0  0  0
   -2.9382   -4.8814    1.5159 H   0  0  0  0  0  0  0  0  0  0  0  0
   -3.9870   -1.8333    1.0571 H   0  0  0  0  0  0  0  0  0  0  0  0
   -4.0003   -2.0825   -0.7023 H   0  0  0  0  0  0  0  0  0  0  0  0
   -4.5648   -3.3642    0.3603 H   0  0  0  0  0  0  0  0  0  0  0  0
    0.6337    5.0029   -6.5435 H   0  0  0  0  0  0  0  0  0  0  0  0
   -1.1285    4.7704   -6.6872 H   0  0  0  0  0  0  0  0  0  0  0  0
   -0.3998    7.5834   -8.9260 H   0  0  0  0  0  0  0  0  0  0  0  0
    0.3958    7.3698   -7.3605 H   0  0  0  0  0  0  0  0  0  0  0  0
   -1.3681    7.1475   -7.5107 H   0  0  0  0  0  0  0  0  0  0  0  0
  1  2  1  0  0  0  0 
  1  3  1  0  0  0  0 
  4  2  1  0  0  0  0 
  3  5  2  0  0  0  0 
  3  6  1  0  0  0  0 
  4  7  1  0  0  0  0 
  4  8  1  0  0  0  0 
  5  9  1  0  0  0  0 
  6 10  2  0  0  0  0 
  7 11  1  0  0  0  0 
  9 12  2  0  0  0  0 
 10 12  1  0  0  0  0 
 11 13  1  0  0  0  0 
 12 14  1  0  0  0  0 
 13 15  1  0  0  0  0 
 13 16  1  0  0  0  0 
 14 17  1  0  0  0  0 
 17 18  1  0  0  0  0 
 18 19  1  0  0  0  0 
  2 20  1  0  0  0  0 
  2 21  1  0  0  0  0 
  4 22  1  0  0  0  0 
  5 23  1  0  0  0  0 
  6 24  1  0  0  0  0 
  7 25  1  0  0  0  0 
  7 26  1  0  0  0  0 
  8 27  1  0  0  0  0 
  9 28  1  0  0  0  0 
 10 29  1  0  0  0  0 
 11 30  1  0  0  0  0 
 13 31  1  0  0  0  0 
 14 32  1  0  0  0  0 
 14 33  1  0  0  0  0 
 15 34  1  0  0  0  0 
 15 35  1  0  0  0  0 
 15 36  1  0  0  0  0 
 16 37  1  0  0  0  0 
 16 38  1  0  0  0  0 
 16 39  1  0  0  0  0 
 17 40  1  0  0  0  0 
 17 41  1  0  0  0  0 
 19 42  1  0  0  0  0 
 19 43  1  0  0  0  0 
 19 44  1  0  0  0  0 
M  END
> <cdk:Title>
metoprolol

> <Conformer>
1

> <SuperDrugID>
SD001586

$$$$
