vinburnine
  CDK     0628171801

 44 48  0  0  0  0  0  0  0  0999 V2000
   -2.9275   -2.5222   -0.1383 C   0  0  2  0  0  0  0  0  0  0  0  0
   -2.3328   -3.8922   -0.5559 C   0  0  0  0  0  0  0  0  0  0  0  0
   -2.1645   -1.2191   -0.6071 C   0  0  1  0  0  0  0  0  0  0  0  0
   -2.9339    0.0376   -0.0343 C   0  0  1  0  0  0  0  0  0  0  0  0
   -0.6855   -1.2342   -0.0447 C   0  0  2  0  0  0  0  0  0  0  0  0
   -2.1246   -1.1021   -2.1781 C   0  0  2  0  0  0  0  0  0  0  0  0
   -2.0746    1.2415   -0.0309 C   0  0  0  0  0  0  0  0  0  0  0  0
   -4.2418    0.3547   -0.7175 N   0  0  1  0  0  0  0  0  0  0  0  0
   -0.0003    0.0891   -0.0560 C   0  0  0  0  0  0  0  0  0  0  0  0
   -3.5045   -0.8209   -2.8276 C   0  0  1  0  0  0  0  0  0  0  0  0
   -0.7258    1.2501   -0.0422 N   0  0  0  0  0  0  0  0  0  0  0  0
   -2.5864    2.5325   -0.0374 C   0  0  0  0  0  0  0  0  0  0  0  0
   -4.9107    1.5539   -0.0964 C   0  0  1  0  0  0  0  0  0  0  0  0
   -4.1587    0.4358   -2.2112 C   0  0  2  0  0  0  0  0  0  0  0  0
    1.2528    0.1001   -0.0437 O   0  0  0  0  0  0  0  0  0  0  0  0
   -0.3366    2.5509   -0.0389 C   0  0  0  0  0  0  0  0  0  0  0  0
   -1.4761    3.3666   -0.0366 C   0  0  0  0  0  0  0  0  0  0  0  0
   -4.0301    2.8464   -0.1061 C   0  0  2  0  0  0  0  0  0  0  0  0
    0.9434    3.1460   -0.0445 C   0  0  0  0  0  0  0  0  0  0  0  0
   -1.3893    4.7704   -0.0437 C   0  0  0  0  0  0  0  0  0  0  0  0
    1.0499    4.5539   -0.0460 C   0  0  0  0  0  0  0  0  0  0  0  0
   -0.1089    5.3613   -0.0468 C   0  0  0  0  0  0  0  0  0  0  0  0
   -3.1522   -0.1543    1.0227 H   0  0  0  0  0  0  0  0  0  0  0  0
   -2.9756   -2.5310    0.9538 H   0  0  0  0  0  0  0  0  0  0  0  0
   -3.9633   -2.4912   -0.4880 H   0  0  0  0  0  0  0  0  0  0  0  0
   -2.9615   -4.6949   -0.1668 H   0  0  0  0  0  0  0  0  0  0  0  0
   -1.3275   -4.0223   -0.1502 H   0  0  0  0  0  0  0  0  0  0  0  0
   -2.2994   -3.9948   -1.6390 H   0  0  0  0  0  0  0  0  0  0  0  0
   -0.0843   -1.9454   -0.6185 H   0  0  0  0  0  0  0  0  0  0  0  0
   -0.6843   -1.5724    0.9952 H   0  0  0  0  0  0  0  0  0  0  0  0
   -1.7081   -2.0063   -2.6221 H   0  0  0  0  0  0  0  0  0  0  0  0
   -1.4557   -0.2873   -2.4702 H   0  0  0  0  0  0  0  0  0  0  0  0
   -3.3708   -0.6650   -3.9019 H   0  0  0  0  0  0  0  0  0  0  0  0
   -4.1672   -1.6812   -2.7018 H   0  0  0  0  0  0  0  0  0  0  0  0
   -5.8658    1.7575   -0.5888 H   0  0  0  0  0  0  0  0  0  0  0  0
   -5.1491    1.3020    0.9422 H   0  0  0  0  0  0  0  0  0  0  0  0
   -3.5846    1.3129   -2.5235 H   0  0  0  0  0  0  0  0  0  0  0  0
   -5.1637    0.5356   -2.6301 H   0  0  0  0  0  0  0  0  0  0  0  0
   -4.2129    3.3999   -1.0311 H   0  0  0  0  0  0  0  0  0  0  0  0
   -4.3021    3.4854    0.7371 H   0  0  0  0  0  0  0  0  0  0  0  0
    1.7914    2.5779   -0.0529 H   0  0  0  0  0  0  0  0  0  0  0  0
   -2.2309    5.3513   -0.0481 H   0  0  0  0  0  0  0  0  0  0  0  0
    1.9741    4.9909   -0.0483 H   0  0  0  0  0  0  0  0  0  0  0  0
   -0.0199    6.3792   -0.0523 H   0  0  0  0  0  0  0  0  0  0  0  0
  1  2  1  0  0  0  0 
  3  1  1  0  0  0  0 
  4  3  1  0  0  0  0 
  3  5  1  0  0  0  0 
  3  6  1  0  0  0  0 
  4  7  1  0  0  0  0 
  4  8  1  0  0  0  0 
  4 23  1  0  0  0  0 
  5  9  1  0  0  0  0 
  6 10  1  0  0  0  0 
  7 11  1  0  0  0  0 
  7 12  2  0  0  0  0 
  8 13  1  0  0  0  0 
  8 14  1  0  0  0  0 
  9 11  1  0  0  0  0 
  9 15  2  0  0  0  0 
 10 14  1  0  0  0  0 
 11 16  1  0  0  0  0 
 12 17  1  0  0  0  0 
 12 18  1  0  0  0  0 
 13 18  1  0  0  0  0 
 16 17  1  0  0  0  0 
 16 19  2  0  0  0  0 
 17 20  2  0  0  0  0 
 19 21  1  0  0  0  0 
 20 22  1  0  0  0  0 
 21 22  2  0  0  0  0 
  1 24  1  0  0  0  0 
  1 25  1  0  0  0  0 
  2 26  1  0  0  0  0 
  2 27  1  0  0  0  0 
  2 28  1  0  0  0  0 
  5 29  1  0  0  0  0 
  5 30  1  0  0  0  0 
  6 31  1  0  0  0  0 
  6 32  1  0  0  0  0 
 10 33  1  0  0  0  0 
 10 34  1  0  0  0  0 
 13 35  1  0  0  0  0 
 13 36  1  0  0  0  0 
 14 37  1  0  0  0  0 
 14 38  1  0  0  0  0 
 18 39  1  0  0  0  0 
 18 40  1  0  0  0  0 
 19 41  1  0  0  0  0 
 20 42  1  0  0  0  0 
 21 43  1  0  0  0  0 
 22 44  1  0  0  0  0 
M  END
> <cdk:Title>
vinburnine

> <Conformer>
1

> <SuperDrugID>
SD002547

$$$$
