diphenidol
  CDK     0628171801

 50 52  0  0  0  0  0  0  0  0999 V2000
   -0.6746   -1.1733   -0.1641 C   0  0  1  0  0  0  0  0  0  0  0  0
    0.1604   -2.3888    0.3896 C   0  0  2  0  0  0  0  0  0  0  0  0
   -1.7415   -1.0303    0.7864 O   0  0  0  0  0  0  0  0  0  0  0  0
    0.0584    0.1537   -0.1736 C   0  0  0  0  0  0  0  0  0  0  0  0
   -1.1887   -1.4297   -1.5582 C   0  0  0  0  0  0  0  0  0  0  0  0
   -0.5874   -3.7311    0.6694 C   0  0  2  0  0  0  0  0  0  0  0  0
    1.4749    0.2531   -0.2477 C   0  0  0  0  0  0  0  0  0  0  0  0
   -0.6697    1.3744   -0.1585 C   0  0  0  0  0  0  0  0  0  0  0  0
   -0.2757   -1.5421   -2.6389 C   0  0  0  0  0  0  0  0  0  0  0  0
   -2.5733   -1.5540   -1.8527 C   0  0  0  0  0  0  0  0  0  0  0  0
   -0.9003   -4.6238   -0.5676 C   0  0  2  0  0  0  0  0  0  0  0  0
    2.1274    1.4970   -0.2986 C   0  0  0  0  0  0  0  0  0  0  0  0
   -0.0204    2.6230   -0.1971 C   0  0  0  0  0  0  0  0  0  0  0  0
   -0.7254   -1.7259   -3.9588 C   0  0  0  0  0  0  0  0  0  0  0  0
   -3.0229   -1.7682   -3.1698 C   0  0  0  0  0  0  0  0  0  0  0  0
    0.2397   -4.7967   -1.5294 N   0  0  2  0  0  0  0  0  0  0  0  0
    1.3799    2.6840   -0.2680 C   0  0  0  0  0  0  0  0  0  0  0  0
   -2.0991   -1.8440   -4.2262 C   0  0  0  0  0  0  0  0  0  0  0  0
   -0.1826   -5.2649   -2.8888 C   0  0  2  0  0  0  0  0  0  0  0  0
    1.3853   -5.6043   -0.9981 C   0  0  1  0  0  0  0  0  0  0  0  0
    0.9933   -5.2034   -3.8987 C   0  0  2  0  0  0  0  0  0  0  0  0
    2.6085   -5.5349   -1.9467 C   0  0  1  0  0  0  0  0  0  0  0  0
    2.2362   -5.9716   -3.3849 C   0  0  1  0  0  0  0  0  0  0  0  0
    0.5924   -2.0718    1.3453 H   0  0  0  0  0  0  0  0  0  0  0  0
    1.0000   -2.6096   -0.2709 H   0  0  0  0  0  0  0  0  0  0  0  0
   -1.3023   -0.8129    1.6344 H   0  0  0  0  0  0  0  0  0  0  0  0
   -1.5189   -3.5303    1.2036 H   0  0  0  0  0  0  0  0  0  0  0  0
    0.0249   -4.3169    1.3581 H   0  0  0  0  0  0  0  0  0  0  0  0
    2.0631   -0.5783   -0.2819 H   0  0  0  0  0  0  0  0  0  0  0  0
   -1.6915    1.3650   -0.1192 H   0  0  0  0  0  0  0  0  0  0  0  0
    0.7322   -1.4802   -2.4756 H   0  0  0  0  0  0  0  0  0  0  0  0
   -3.2729   -1.5018   -1.1093 H   0  0  0  0  0  0  0  0  0  0  0  0
   -1.7530   -4.1711   -1.0768 H   0  0  0  0  0  0  0  0  0  0  0  0
   -1.2406   -5.6034   -0.2178 H   0  0  0  0  0  0  0  0  0  0  0  0
    3.1476    1.5377   -0.3637 H   0  0  0  0  0  0  0  0  0  0  0  0
   -0.5678    3.4871   -0.1786 H   0  0  0  0  0  0  0  0  0  0  0  0
   -0.0510   -1.7818   -4.7232 H   0  0  0  0  0  0  0  0  0  0  0  0
   -4.0235   -1.8667   -3.3632 H   0  0  0  0  0  0  0  0  0  0  0  0
    1.8530    3.5883   -0.3004 H   0  0  0  0  0  0  0  0  0  0  0  0
   -2.4253   -1.9818   -5.1867 H   0  0  0  0  0  0  0  0  0  0  0  0
   -0.9802   -4.6292   -3.2775 H   0  0  0  0  0  0  0  0  0  0  0  0
   -0.5715   -6.2862   -2.8339 H   0  0  0  0  0  0  0  0  0  0  0  0
    1.7058   -5.2268   -0.0245 H   0  0  0  0  0  0  0  0  0  0  0  0
    1.0858   -6.6496   -0.8719 H   0  0  0  0  0  0  0  0  0  0  0  0
    1.2674   -4.1583   -4.0655 H   0  0  0  0  0  0  0  0  0  0  0  0
    0.6765   -5.6272   -4.8547 H   0  0  0  0  0  0  0  0  0  0  0  0
    2.9896   -4.5099   -1.9668 H   0  0  0  0  0  0  0  0  0  0  0  0
    3.4009   -6.1843   -1.5657 H   0  0  0  0  0  0  0  0  0  0  0  0
    2.0365   -7.0472   -3.3999 H   0  0  0  0  0  0  0  0  0  0  0  0
    3.0822   -5.7789   -4.0510 H   0  0  0  0  0  0  0  0  0  0  0  0
  1  2  1  0  0  0  0 
  1  3  1  0  0  0  0 
  1  4  1  0  0  0  0 
  1  5  1  0  0  0  0 
  2  6  1  0  0  0  0 
  4  7  2  0  0  0  0 
  4  8  1  0  0  0  0 
  5  9  2  0  0  0  0 
  5 10  1  0  0  0  0 
  6 11  1  0  0  0  0 
  7 12  1  0  0  0  0 
  8 13  2  0  0  0  0 
  9 14  1  0  0  0  0 
 10 15  2  0  0  0  0 
 11 16  1  0  0  0  0 
 12 17  2  0  0  0  0 
 13 17  1  0  0  0  0 
 14 18  2  0  0  0  0 
 15 18  1  0  0  0  0 
 16 19  1  0  0  0  0 
 16 20  1  0  0  0  0 
 19 21  1  0  0  0  0 
 20 22  1  0  0  0  0 
 21 23  1  0  0  0  0 
 22 23  1  0  0  0  0 
  2 24  1  0  0  0  0 
  2 25  1  0  0  0  0 
  3 26  1  0  0  0  0 
  6 27  1  0  0  0  0 
  6 28  1  0  0  0  0 
  7 29  1  0  0  0  0 
  8 30  1  0  0  0  0 
  9 31  1  0  0  0  0 
 10 32  1  0  0  0  0 
 11 33  1  0  0  0  0 
 11 34  1  0  0  0  0 
 12 35  1  0  0  0  0 
 13 36  1  0  0  0  0 
 14 37  1  0  0  0  0 
 15 38  1  0  0  0  0 
 17 39  1  0  0  0  0 
 18 40  1  0  0  0  0 
 19 41  1  0  0  0  0 
 19 42  1  0  0  0  0 
 20 43  1  0  0  0  0 
 20 44  1  0  0  0  0 
 21 45  1  0  0  0  0 
 21 46  1  0  0  0  0 
 22 47  1  0  0  0  0 
 22 48  1  0  0  0  0 
 23 49  1  0  0  0  0 
 23 50  1  0  0  0  0 
M  END
> <cdk:Title>
diphenidol

> <Conformer>
1

> <SuperDrugID>
SD000262

$$$$
