aclidinium bromide
  CDK     0628171801

 63 67  0  0  0  0  0  0  0  0999 V2000
   -1.6133   -3.6940   -2.9634 C   0  0  1  0  0  0  0  0  0  0  0  0
   -1.8146   -3.1932   -4.4291 C   0  0  2  0  0  0  0  0  0  0  0  0
   -2.8050   -3.8207   -2.0269 N   0  0  1  0  0  0  0  0  0  0  0  0
   -0.4486   -2.9510   -5.1287 C   0  0  1  0  0  0  0  0  0  0  0  0
   -3.7973   -4.8830   -2.4810 C   0  0  2  0  0  0  0  0  0  0  0  0
   -2.2760   -4.2181   -0.6445 C   0  0  2  0  0  0  0  0  0  0  0  0
   -3.5732   -2.5156   -1.8694 C   0  0  1  0  0  0  0  0  0  0  0  0
   -0.6233   -2.3790   -6.4453 O   0  0  0  0  0  0  0  0  0  0  0  0
   -4.9197   -5.1275   -1.4104 C   0  0  2  0  0  0  0  0  0  0  0  0
   -3.4016   -4.3351    0.4339 C   0  0  2  0  0  0  0  0  0  0  0  0
   -4.7587   -2.6475   -0.8532 C   0  0  1  0  0  0  0  0  0  0  0  0
    0.5616   -1.9509   -6.9992 C   0  0  0  0  0  0  0  0  0  0  0  0
   -6.2521   -4.9677   -1.9203 O   0  0  0  0  0  0  0  0  0  0  0  0
   -4.7692   -4.0884   -0.2557 C   0  0  1  0  0  0  0  0  0  0  0  0
    1.3431   -2.8214   -7.7881 C   0  0  0  0  0  0  0  0  0  0  0  0
    1.0126   -0.6316   -6.7742 C   0  0  0  0  0  0  0  0  0  0  0  0
   -7.2595   -5.8882   -1.8878 C   0  0  0  0  0  0  0  0  0  0  0  0
    2.5766   -2.3911   -8.3123 C   0  0  0  0  0  0  0  0  0  0  0  0
    2.2419   -0.1994   -7.3049 C   0  0  0  0  0  0  0  0  0  0  0  0
   -8.6617   -5.4052   -1.9433 C   0  0  2  0  0  0  0  0  0  0  0  0
   -6.9983   -7.1079   -1.7516 O   0  0  0  0  0  0  0  0  0  0  0  0
    3.0245   -1.0789   -8.0730 C   0  0  0  0  0  0  0  0  0  0  0  0
   -9.5352   -6.5052   -1.6627 O   0  0  0  0  0  0  0  0  0  0  0  0
   -9.0104   -4.8489   -3.2788 C   0  0  0  0  0  0  0  0  0  0  0  0
   -8.8568   -4.4037   -0.8548 C   0  0  0  0  0  0  0  0  0  0  0  0
  -10.2919   -4.7805   -3.8472 C   0  0  0  0  0  0  0  0  0  0  0  0
   -7.9439   -4.0176   -4.4042 S   0  0  0  0  0  0  0  0  0  0  0  0
   -8.7635   -4.6419    0.5281 C   0  0  0  0  0  0  0  0  0  0  0  0
   -9.2040   -2.6859   -1.0164 S   0  0  0  0  0  0  0  0  0  0  0  0
  -10.3854   -4.1174   -5.0818 C   0  0  0  0  0  0  0  0  0  0  0  0
   -9.1834   -3.6076   -5.5718 C   0  0  0  0  0  0  0  0  0  0  0  0
   -8.9666   -3.5278    1.3618 C   0  0  0  0  0  0  0  0  0  0  0  0
   -9.2457   -2.3343    0.6974 C   0  0  0  0  0  0  0  0  0  0  0  0
   -1.1126   -4.6670   -3.0280 H   0  0  0  0  0  0  0  0  0  0  0  0
   -0.8978   -3.0049   -2.5012 H   0  0  0  0  0  0  0  0  0  0  0  0
   -2.3604   -2.2474   -4.4313 H   0  0  0  0  0  0  0  0  0  0  0  0
   -2.3885   -3.9304   -4.9977 H   0  0  0  0  0  0  0  0  0  0  0  0
    0.1342   -2.2678   -4.5013 H   0  0  0  0  0  0  0  0  0  0  0  0
    0.0927   -3.9005   -5.2024 H   0  0  0  0  0  0  0  0  0  0  0  0
   -3.2805   -5.8305   -2.6683 H   0  0  0  0  0  0  0  0  0  0  0  0
   -4.2639   -4.5929   -3.4285 H   0  0  0  0  0  0  0  0  0  0  0  0
   -1.5447   -3.4881   -0.2808 H   0  0  0  0  0  0  0  0  0  0  0  0
   -1.7529   -5.1803   -0.7013 H   0  0  0  0  0  0  0  0  0  0  0  0
   -2.9013   -1.7169   -1.5353 H   0  0  0  0  0  0  0  0  0  0  0  0
   -3.9945   -2.1914   -2.8258 H   0  0  0  0  0  0  0  0  0  0  0  0
   -4.7935   -6.1339   -0.9932 H   0  0  0  0  0  0  0  0  0  0  0  0
   -3.2526   -3.5985    1.2287 H   0  0  0  0  0  0  0  0  0  0  0  0
   -3.3880   -5.3258    0.8997 H   0  0  0  0  0  0  0  0  0  0  0  0
   -4.6521   -1.9121   -0.0495 H   0  0  0  0  0  0  0  0  0  0  0  0
   -5.7114   -2.4486   -1.3545 H   0  0  0  0  0  0  0  0  0  0  0  0
   -5.5805   -4.1918    0.4704 H   0  0  0  0  0  0  0  0  0  0  0  0
    1.0186   -3.7709   -7.9759 H   0  0  0  0  0  0  0  0  0  0  0  0
    0.4488    0.0137   -6.2154 H   0  0  0  0  0  0  0  0  0  0  0  0
    3.1493   -3.0335   -8.8652 H   0  0  0  0  0  0  0  0  0  0  0  0
    2.5669    0.7532   -7.1335 H   0  0  0  0  0  0  0  0  0  0  0  0
    3.9193   -0.7646   -8.4559 H   0  0  0  0  0  0  0  0  0  0  0  0
  -10.4316   -6.1143   -1.5904 H   0  0  0  0  0  0  0  0  0  0  0  0
  -11.1149   -5.1766   -3.3935 H   0  0  0  0  0  0  0  0  0  0  0  0
   -8.5516   -5.5660    0.9121 H   0  0  0  0  0  0  0  0  0  0  0  0
  -11.2694   -4.0073   -5.5806 H   0  0  0  0  0  0  0  0  0  0  0  0
   -9.0465   -3.0931   -6.4435 H   0  0  0  0  0  0  0  0  0  0  0  0
   -8.9198   -3.5881    2.3798 H   0  0  0  0  0  0  0  0  0  0  0  0
   -9.4354   -1.4266    1.1245 H   0  0  0  0  0  0  0  0  0  0  0  0
  1  2  1  0  0  0  0 
  1  3  1  0  0  0  0 
  2  4  1  0  0  0  0 
  3  5  1  0  0  0  0 
  3  6  1  0  0  0  0 
  3  7  1  0  0  0  0 
  4  8  1  0  0  0  0 
  9  5  1  0  0  0  0 
  6 10  1  0  0  0  0 
  7 11  1  0  0  0  0 
  8 12  1  0  0  0  0 
  9 13  1  0  0  0  0 
  9 14  1  0  0  0  0 
 10 14  1  0  0  0  0 
 11 14  1  0  0  0  0 
 12 15  2  0  0  0  0 
 12 16  1  0  0  0  0 
 13 17  1  0  0  0  0 
 15 18  1  0  0  0  0 
 16 19  2  0  0  0  0 
 17 20  1  0  0  0  0 
 17 21  2  0  0  0  0 
 18 22  2  0  0  0  0 
 19 22  1  0  0  0  0 
 20 23  1  0  0  0  0 
 20 24  1  0  0  0  0 
 20 25  1  0  0  0  0 
 24 26  2  0  0  0  0 
 24 27  1  0  0  0  0 
 25 28  2  0  0  0  0 
 25 29  1  0  0  0  0 
 26 30  1  0  0  0  0 
 27 31  1  0  0  0  0 
 28 32  1  0  0  0  0 
 29 33  1  0  0  0  0 
 30 31  2  0  0  0  0 
 32 33  2  0  0  0  0 
  1 34  1  0  0  0  0 
  1 35  1  0  0  0  0 
  2 36  1  0  0  0  0 
  2 37  1  0  0  0  0 
  4 38  1  0  0  0  0 
  4 39  1  0  0  0  0 
  5 40  1  0  0  0  0 
  5 41  1  0  0  0  0 
  6 42  1  0  0  0  0 
  6 43  1  0  0  0  0 
  7 44  1  0  0  0  0 
  7 45  1  0  0  0  0 
  9 46  1  0  0  0  0 
 10 47  1  0  0  0  0 
 10 48  1  0  0  0  0 
 11 49  1  0  0  0  0 
 11 50  1  0  0  0  0 
 14 51  1  0  0  0  0 
 15 52  1  0  0  0  0 
 16 53  1  0  0  0  0 
 18 54  1  0  0  0  0 
 19 55  1  0  0  0  0 
 22 56  1  0  0  0  0 
 23 57  1  0  0  0  0 
 26 58  1  0  0  0  0 
 28 59  1  0  0  0  0 
 30 60  1  0  0  0  0 
 31 61  1  0  0  0  0 
 32 62  1  0  0  0  0 
 33 63  1  0  0  0  0 
M  CHG  1   3   1
M  END
> <cdk:Title>
aclidinium bromide

> <Conformer>
1

> <SuperDrugID>
SD003591

$$$$
