tricyclamol chloride
  CDK     0628171801

 54 56  0  0  0  0  0  0  0  0999 V2000
    0.9568   -0.7709    2.9905 C   0  0  2  0  0  0  0  0  0  0  0  0
    0.9401    0.0316    1.6354 C   0  0  2  0  0  0  0  0  0  0  0  0
    2.0717   -0.2559    3.7364 O   0  0  0  0  0  0  0  0  0  0  0  0
    1.2165   -2.3245    2.7736 C   0  0  2  0  0  0  0  0  0  0  0  0
   -0.3329   -0.5381    3.7491 C   0  0  0  0  0  0  0  0  0  0  0  0
    0.5770    1.5533    1.6954 C   0  0  2  0  0  0  0  0  0  0  0  0
    1.2839   -3.1249    4.1213 C   0  0  1  0  0  0  0  0  0  0  0  0
    2.4881   -2.6457    1.9141 C   0  0  2  0  0  0  0  0  0  0  0  0
   -0.3622    0.1145    5.0116 C   0  0  0  0  0  0  0  0  0  0  0  0
   -1.5780   -0.9578    3.2081 C   0  0  0  0  0  0  0  0  0  0  0  0
    0.4383    2.2998    0.3661 N   0  0  2  0  0  0  0  0  0  0  0  0
    1.5272   -4.6440    3.9164 C   0  0  2  0  0  0  0  0  0  0  0  0
    2.7442   -4.1635    1.7266 C   0  0  2  0  0  0  0  0  0  0  0  0
   -1.5700    0.3289    5.7007 C   0  0  0  0  0  0  0  0  0  0  0  0
   -2.7866   -0.7521    3.8991 C   0  0  0  0  0  0  0  0  0  0  0  0
    1.7025    2.1761   -0.4567 C   0  0  0  0  0  0  0  0  0  0  0  0
    0.1453    3.7585    0.6315 C   0  0  1  0  0  0  0  0  0  0  0  0
   -0.7799    1.8579   -0.4247 C   0  0  1  0  0  0  0  0  0  0  0  0
    2.8033   -4.9115    3.0804 C   0  0  2  0  0  0  0  0  0  0  0  0
   -2.7829   -0.1071    5.1457 C   0  0  0  0  0  0  0  0  0  0  0  0
   -1.3779    3.8834    0.8005 C   0  0  1  0  0  0  0  0  0  0  0  0
   -1.9036    2.9054   -0.2536 C   0  0  1  0  0  0  0  0  0  0  0  0
    0.2655   -0.4786    0.9459 H   0  0  0  0  0  0  0  0  0  0  0  0
    1.9385   -0.0194    1.2005 H   0  0  0  0  0  0  0  0  0  0  0  0
    2.8560   -0.3387    3.1572 H   0  0  0  0  0  0  0  0  0  0  0  0
    0.3712   -2.7280    2.2097 H   0  0  0  0  0  0  0  0  0  0  0  0
    1.3534    2.0355    2.2996 H   0  0  0  0  0  0  0  0  0  0  0  0
   -0.3540    1.6574    2.2548 H   0  0  0  0  0  0  0  0  0  0  0  0
    2.0864   -2.7248    4.7444 H   0  0  0  0  0  0  0  0  0  0  0  0
    0.3483   -3.0149    4.6742 H   0  0  0  0  0  0  0  0  0  0  0  0
    3.3693   -2.1965    2.3779 H   0  0  0  0  0  0  0  0  0  0  0  0
    2.3808   -2.2246    0.9116 H   0  0  0  0  0  0  0  0  0  0  0  0
    0.4970    0.4496    5.4504 H   0  0  0  0  0  0  0  0  0  0  0  0
   -1.6186   -1.4185    2.2966 H   0  0  0  0  0  0  0  0  0  0  0  0
    0.6646   -5.0861    3.4099 H   0  0  0  0  0  0  0  0  0  0  0  0
    1.6254   -5.1314    4.8903 H   0  0  0  0  0  0  0  0  0  0  0  0
    3.6896   -4.3036    1.1940 H   0  0  0  0  0  0  0  0  0  0  0  0
    1.9499   -4.5944    1.1088 H   0  0  0  0  0  0  0  0  0  0  0  0
   -1.5656    0.8054    6.6059 H   0  0  0  0  0  0  0  0  0  0  0  0
   -3.6698   -1.0693    3.4924 H   0  0  0  0  0  0  0  0  0  0  0  0
    1.6688    2.7996   -1.3568 H   0  0  0  0  0  0  0  0  0  0  0  0
    2.5824    2.4771    0.1197 H   0  0  0  0  0  0  0  0  0  0  0  0
    1.8531    1.1497   -0.8030 H   0  0  0  0  0  0  0  0  0  0  0  0
    0.6598    4.1517    1.5110 H   0  0  0  0  0  0  0  0  0  0  0  0
    0.4300    4.3985   -0.2120 H   0  0  0  0  0  0  0  0  0  0  0  0
   -0.5697    1.7600   -1.4985 H   0  0  0  0  0  0  0  0  0  0  0  0
   -1.1696    0.8868   -0.1053 H   0  0  0  0  0  0  0  0  0  0  0  0
    2.9022   -5.9846    2.8956 H   0  0  0  0  0  0  0  0  0  0  0  0
    3.6858   -4.5870    3.6413 H   0  0  0  0  0  0  0  0  0  0  0  0
   -3.6611    0.0474    5.6470 H   0  0  0  0  0  0  0  0  0  0  0  0
   -1.6889    3.5784    1.8043 H   0  0  0  0  0  0  0  0  0  0  0  0
   -1.7267    4.9020    0.6145 H   0  0  0  0  0  0  0  0  0  0  0  0
   -2.0704    3.4345   -1.1982 H   0  0  0  0  0  0  0  0  0  0  0  0
   -2.8443    2.4488    0.0627 H   0  0  0  0  0  0  0  0  0  0  0  0
  1  2  1  0  0  0  0 
  1  3  1  0  0  0  0 
  1  4  1  0  0  0  0 
  1  5  1  0  0  0  0 
  2  6  1  0  0  0  0 
  4  7  1  0  0  0  0 
  4  8  1  0  0  0  0 
  5  9  2  0  0  0  0 
  5 10  1  0  0  0  0 
  6 11  1  0  0  0  0 
  7 12  1  0  0  0  0 
  8 13  1  0  0  0  0 
  9 14  1  0  0  0  0 
 10 15  2  0  0  0  0 
 11 16  1  0  0  0  0 
 11 17  1  0  0  0  0 
 11 18  1  0  0  0  0 
 12 19  1  0  0  0  0 
 13 19  1  0  0  0  0 
 14 20  2  0  0  0  0 
 15 20  1  0  0  0  0 
 17 21  1  0  0  0  0 
 18 22  1  0  0  0  0 
 21 22  1  0  0  0  0 
  2 23  1  0  0  0  0 
  2 24  1  0  0  0  0 
  3 25  1  0  0  0  0 
  4 26  1  0  0  0  0 
  6 27  1  0  0  0  0 
  6 28  1  0  0  0  0 
  7 29  1  0  0  0  0 
  7 30  1  0  0  0  0 
  8 31  1  0  0  0  0 
  8 32  1  0  0  0  0 
  9 33  1  0  0  0  0 
 10 34  1  0  0  0  0 
 12 35  1  0  0  0  0 
 12 36  1  0  0  0  0 
 13 37  1  0  0  0  0 
 13 38  1  0  0  0  0 
 14 39  1  0  0  0  0 
 15 40  1  0  0  0  0 
 16 41  1  0  0  0  0 
 16 42  1  0  0  0  0 
 16 43  1  0  0  0  0 
 17 44  1  0  0  0  0 
 17 45  1  0  0  0  0 
 18 46  1  0  0  0  0 
 18 47  1  0  0  0  0 
 19 48  1  0  0  0  0 
 19 49  1  0  0  0  0 
 20 50  1  0  0  0  0 
 21 51  1  0  0  0  0 
 21 52  1  0  0  0  0 
 22 53  1  0  0  0  0 
 22 54  1  0  0  0  0 
M  CHG  1  11   1
M  END
> <cdk:Title>
tricyclamol chloride

> <Conformer>
1

> <SuperDrugID>
SD002466

$$$$
