loratadine
  CDK     0628171801

 50 53  0  0  0  0  0  0  0  0999 V2000
   -0.7785   11.2768   -1.4630 Cl  0  0  0  0  0  0  0  0  0  0  0  0
   -1.7250    9.8922   -1.2312 C   0  0  0  0  0  0  0  0  0  0  0  0
   -2.4776    9.3638   -2.2936 C   0  0  0  0  0  0  0  0  0  0  0  0
   -1.7591    9.2620    0.0223 C   0  0  0  0  0  0  0  0  0  0  0  0
   -3.2637    8.1930   -2.1411 C   0  0  0  0  0  0  0  0  0  0  0  0
   -2.5380    8.1089    0.2049 C   0  0  0  0  0  0  0  0  0  0  0  0
   -3.2795    7.5451   -0.8650 C   0  0  0  0  0  0  0  0  0  0  0  0
   -4.0294    7.7579   -3.3590 C   0  0  2  0  0  0  0  0  0  0  0  0
   -4.0363    6.3964   -0.6020 C   0  0  0  0  0  0  0  0  0  0  0  0
   -5.0392    6.5757   -3.2860 C   0  0  1  0  0  0  0  0  0  0  0  0
   -5.3990    6.5927   -0.7949 C   0  0  0  0  0  0  0  0  0  0  0  0
   -3.5139    5.1914   -0.2292 C   0  0  0  0  0  0  0  0  0  0  0  0
   -5.9394    6.6702   -2.1054 C   0  0  0  0  0  0  0  0  0  0  0  0
   -6.2178    6.7228    0.2840 N   0  0  0  0  0  0  0  0  0  0  0  0
   -4.3414    4.0142    0.1069 C   0  0  1  0  0  0  0  0  0  0  0  0
   -2.0628    4.9210   -0.1479 C   0  0  2  0  0  0  0  0  0  0  0  0
   -7.3348    6.8513   -2.2375 C   0  0  0  0  0  0  0  0  0  0  0  0
   -7.5561    6.9157    0.1736 C   0  0  0  0  0  0  0  0  0  0  0  0
   -3.9313    2.7646   -0.7160 C   0  0  1  0  0  0  0  0  0  0  0  0
   -1.6575    3.6469   -0.9455 C   0  0  2  0  0  0  0  0  0  0  0  0
   -8.1494    6.9793   -1.0982 C   0  0  0  0  0  0  0  0  0  0  0  0
   -2.5061    2.5202   -0.6063 N   0  0  0  0  0  0  0  0  0  0  0  0
   -1.9897    1.3009   -0.2046 C   0  0  0  0  0  0  0  0  0  0  0  0
   -0.6368    1.0840   -0.1738 O   0  0  0  0  0  0  0  0  0  0  0  0
   -2.7416    0.3550    0.1338 O   0  0  0  0  0  0  0  0  0  0  0  0
    0.0442   -0.1391    0.1444 C   0  0  1  0  0  0  0  0  0  0  0  0
    1.5693    0.0637    0.0675 C   0  0  0  0  0  0  0  0  0  0  0  0
   -2.4577    9.8516   -3.1926 H   0  0  0  0  0  0  0  0  0  0  0  0
   -1.2174    9.6373    0.8056 H   0  0  0  0  0  0  0  0  0  0  0  0
   -2.5579    7.6820    1.1364 H   0  0  0  0  0  0  0  0  0  0  0  0
   -3.3006    7.5144   -4.1384 H   0  0  0  0  0  0  0  0  0  0  0  0
   -4.6020    8.6235   -3.7073 H   0  0  0  0  0  0  0  0  0  0  0  0
   -5.6168    6.5659   -4.2156 H   0  0  0  0  0  0  0  0  0  0  0  0
   -4.5011    5.6257   -3.2442 H   0  0  0  0  0  0  0  0  0  0  0  0
   -4.2079    3.7980    1.1695 H   0  0  0  0  0  0  0  0  0  0  0  0
   -5.4114    4.1610   -0.0473 H   0  0  0  0  0  0  0  0  0  0  0  0
   -1.7958    4.7803    0.9028 H   0  0  0  0  0  0  0  0  0  0  0  0
   -1.4458    5.7371   -0.5267 H   0  0  0  0  0  0  0  0  0  0  0  0
   -7.7673    6.8985   -3.1625 H   0  0  0  0  0  0  0  0  0  0  0  0
   -8.1251    7.0133    1.0161 H   0  0  0  0  0  0  0  0  0  0  0  0
   -4.5402    1.9224   -0.3775 H   0  0  0  0  0  0  0  0  0  0  0  0
   -4.1813    2.9274   -1.7696 H   0  0  0  0  0  0  0  0  0  0  0  0
   -0.5974    3.4548   -0.7551 H   0  0  0  0  0  0  0  0  0  0  0  0
   -1.7511    3.8476   -2.0176 H   0  0  0  0  0  0  0  0  0  0  0  0
   -9.1573    7.1213   -1.1928 H   0  0  0  0  0  0  0  0  0  0  0  0
   -0.2244   -0.4632    1.1530 H   0  0  0  0  0  0  0  0  0  0  0  0
   -0.2506   -0.9154   -0.5671 H   0  0  0  0  0  0  0  0  0  0  0  0
    2.0787   -0.8838    0.2540 H   0  0  0  0  0  0  0  0  0  0  0  0
    1.8553    0.4277   -0.9210 H   0  0  0  0  0  0  0  0  0  0  0  0
    1.8894    0.7887    0.8175 H   0  0  0  0  0  0  0  0  0  0  0  0
  1  2  1  0  0  0  0 
  2  3  2  0  0  0  0 
  2  4  1  0  0  0  0 
  3  5  1  0  0  0  0 
  4  6  2  0  0  0  0 
  5  7  2  0  0  0  0 
  5  8  1  0  0  0  0 
  6  7  1  0  0  0  0 
  7  9  1  0  0  0  0 
  8 10  1  0  0  0  0 
  9 11  1  0  0  0  0 
  9 12  2  0  0  0  0 
 10 13  1  0  0  0  0 
 11 13  2  0  0  0  0 
 11 14  1  0  0  0  0 
 12 15  1  0  0  0  0 
 12 16  1  0  0  0  0 
 13 17  1  0  0  0  0 
 14 18  2  0  0  0  0 
 15 19  1  0  0  0  0 
 16 20  1  0  0  0  0 
 17 21  2  0  0  0  0 
 18 21  1  0  0  0  0 
 19 22  1  0  0  0  0 
 20 22  1  0  0  0  0 
 22 23  1  0  0  0  0 
 23 24  1  0  0  0  0 
 23 25  2  0  0  0  0 
 24 26  1  0  0  0  0 
 26 27  1  0  0  0  0 
  3 28  1  0  0  0  0 
  4 29  1  0  0  0  0 
  6 30  1  0  0  0  0 
  8 31  1  0  0  0  0 
  8 32  1  0  0  0  0 
 10 33  1  0  0  0  0 
 10 34  1  0  0  0  0 
 15 35  1  0  0  0  0 
 15 36  1  0  0  0  0 
 16 37  1  0  0  0  0 
 16 38  1  0  0  0  0 
 17 39  1  0  0  0  0 
 18 40  1  0  0  0  0 
 19 41  1  0  0  0  0 
 19 42  1  0  0  0  0 
 20 43  1  0  0  0  0 
 20 44  1  0  0  0  0 
 21 45  1  0  0  0  0 
 26 46  1  0  0  0  0 
 26 47  1  0  0  0  0 
 27 48  1  0  0  0  0 
 27 49  1  0  0  0  0 
 27 50  1  0  0  0  0 
M  END
> <cdk:Title>
loratadine

> <Conformer>
1

> <SuperDrugID>
SD001419

$$$$
