deflazacort
  CDK     0628171802

 63 67  0  0  0  0  0  0  0  0999 V2000
   -1.1155   -2.5076    1.0613 C   0  0  0  0  0  0  0  0  0  0  0  0
   -2.4410   -3.0036    1.5092 C   0  0  2  0  0  0  0  0  0  0  0  0
   -1.0348   -1.2616    0.9419 O   0  0  0  0  0  0  0  0  0  0  0  0
    0.0967   -3.3604    0.7823 C   0  0  2  0  0  0  0  0  0  0  0  0
   -2.5478   -4.4300    1.5674 O   0  0  0  0  0  0  0  0  0  0  0  0
    0.9277   -3.8354    2.0461 C   0  0  2  0  0  0  0  0  0  0  0  0
    1.1679   -2.7245   -0.1681 C   0  0  1  0  0  0  0  0  0  0  0  0
   -0.3143   -4.3948   -0.0431 N   0  0  0  0  0  0  0  0  0  0  0  0
   -3.6593   -5.1461    1.8974 C   0  0  0  0  0  0  0  0  0  0  0  0
    0.9850   -2.6611    3.1032 C   0  0  0  0  0  0  0  0  0  0  0  0
    2.3133   -4.1663    1.3941 C   0  0  1  0  0  0  0  0  0  0  0  0
    0.4457   -5.1585    2.7437 C   0  0  2  0  0  0  0  0  0  0  0  0
    2.5807   -2.9897    0.4287 C   0  0  1  0  0  0  0  0  0  0  0  0
    1.0173   -3.3649   -1.4452 O   0  0  0  0  0  0  0  0  0  0  0  0
    0.1797   -4.3695   -1.2181 C   0  0  0  0  0  0  0  0  0  0  0  0
   -3.5808   -6.6088    1.8551 C   0  0  0  0  0  0  0  0  0  0  0  0
   -4.7288   -4.5839    2.2313 O   0  0  0  0  0  0  0  0  0  0  0  0
    3.4135   -4.5950    2.4233 C   0  0  1  0  0  0  0  0  0  0  0  0
    1.4776   -5.7724    3.7496 C   0  0  1  0  0  0  0  0  0  0  0  0
   -0.1459   -5.3621   -2.2116 C   0  0  0  0  0  0  0  0  0  0  0  0
    2.9496   -5.9010    3.1867 C   0  0  2  0  0  0  0  0  0  0  0  0
    4.7940   -4.8282    1.7347 C   0  0  1  0  0  0  0  0  0  0  0  0
    1.4185   -5.0560    4.9787 O   0  0  0  0  0  0  0  0  0  0  0  0
    4.0664   -6.4631    4.1820 C   0  0  2  0  0  0  0  0  0  0  0  0
    5.8568   -5.3632    2.7258 C   0  0  2  0  0  0  0  0  0  0  0  0
    4.3152   -5.5589    5.4453 C   0  0  0  0  0  0  0  0  0  0  0  0
    5.3569   -6.5575    3.4173 C   0  0  0  0  0  0  0  0  0  0  0  0
    3.6422   -7.7826    4.7158 C   0  0  0  0  0  0  0  0  0  0  0  0
    6.0421   -7.7214    3.3239 C   0  0  0  0  0  0  0  0  0  0  0  0
    4.3641   -8.9063    4.5747 C   0  0  0  0  0  0  0  0  0  0  0  0
    5.5741   -8.8872    3.9087 C   0  0  0  0  0  0  0  0  0  0  0  0
    6.2513   -9.9395    3.8307 O   0  0  0  0  0  0  0  0  0  0  0  0
   -3.1974   -2.6351    0.8120 H   0  0  0  0  0  0  0  0  0  0  0  0
   -2.6542   -2.5930    2.5004 H   0  0  0  0  0  0  0  0  0  0  0  0
    1.0448   -1.6496   -0.3198 H   0  0  0  0  0  0  0  0  0  0  0  0
    1.6880   -2.8454    3.9099 H   0  0  0  0  0  0  0  0  0  0  0  0
    1.2733   -1.7143    2.6443 H   0  0  0  0  0  0  0  0  0  0  0  0
    0.0066   -2.5146    3.5651 H   0  0  0  0  0  0  0  0  0  0  0  0
    2.1944   -5.0430    0.7417 H   0  0  0  0  0  0  0  0  0  0  0  0
    0.2470   -5.9206    1.9842 H   0  0  0  0  0  0  0  0  0  0  0  0
   -0.4989   -4.9808    3.2643 H   0  0  0  0  0  0  0  0  0  0  0  0
    3.2784   -3.3329   -0.4012 H   0  0  0  0  0  0  0  0  0  0  0  0
    2.9040   -2.0855    1.0367 H   0  0  0  0  0  0  0  0  0  0  0  0
   -2.8660   -6.9512    2.6039 H   0  0  0  0  0  0  0  0  0  0  0  0
   -3.2482   -6.9312    0.8687 H   0  0  0  0  0  0  0  0  0  0  0  0
   -4.5559   -7.0532    2.0616 H   0  0  0  0  0  0  0  0  0  0  0  0
    3.5644   -3.7848    3.1367 H   0  0  0  0  0  0  0  0  0  0  0  0
    1.1120   -6.7765    3.9826 H   0  0  0  0  0  0  0  0  0  0  0  0
   -1.2265   -5.4007   -2.3611 H   0  0  0  0  0  0  0  0  0  0  0  0
    0.3281   -5.1184   -3.1640 H   0  0  0  0  0  0  0  0  0  0  0  0
    0.2043   -6.3431   -1.8857 H   0  0  0  0  0  0  0  0  0  0  0  0
    2.8566   -6.6694    2.4074 H   0  0  0  0  0  0  0  0  0  0  0  0
    4.6836   -5.5391    0.9090 H   0  0  0  0  0  0  0  0  0  0  0  0
    5.1607   -3.8864    1.3150 H   0  0  0  0  0  0  0  0  0  0  0  0
    0.4861   -5.1333    5.2744 H   0  0  0  0  0  0  0  0  0  0  0  0
    6.0956   -4.5890    3.4579 H   0  0  0  0  0  0  0  0  0  0  0  0
    6.7779   -5.5516    2.1633 H   0  0  0  0  0  0  0  0  0  0  0  0
    3.4940   -5.6125    6.1615 H   0  0  0  0  0  0  0  0  0  0  0  0
    4.4413   -4.5097    5.1783 H   0  0  0  0  0  0  0  0  0  0  0  0
    5.2146   -5.8760    5.9801 H   0  0  0  0  0  0  0  0  0  0  0  0
    2.7889   -7.8511    5.2206 H   0  0  0  0  0  0  0  0  0  0  0  0
    6.8985   -7.7642    2.8178 H   0  0  0  0  0  0  0  0  0  0  0  0
    4.0261   -9.7592    4.9588 H   0  0  0  0  0  0  0  0  0  0  0  0
  1  2  1  0  0  0  0 
  1  3  2  0  0  0  0 
  2  5  1  0  0  0  0 
  4  1  1  0  0  0  0 
  6  4  1  0  0  0  0 
  4  7  1  0  0  0  0 
  4  8  1  0  0  0  0 
  5  9  1  0  0  0  0 
  6 10  1  0  0  0  0 
 11  6  1  0  0  0  0 
  6 12  1  0  0  0  0 
  7 13  1  0  0  0  0 
  7 14  1  0  0  0  0 
  8 15  2  0  0  0  0 
  9 16  1  0  0  0  0 
  9 17  2  0  0  0  0 
 11 13  1  0  0  0  0 
 18 11  1  0  0  0  0 
 19 12  1  0  0  0  0 
 14 15  1  0  0  0  0 
 15 20  1  0  0  0  0 
 21 18  1  0  0  0  0 
 18 22  1  0  0  0  0 
 21 19  1  0  0  0  0 
 19 23  1  0  0  0  0 
 21 24  1  0  0  0  0 
 22 25  1  0  0  0  0 
 24 26  1  0  0  0  0 
 24 27  1  0  0  0  0 
 24 28  1  0  0  0  0 
 25 27  1  0  0  0  0 
 27 29  2  0  0  0  0 
 28 30  2  0  0  0  0 
 29 31  1  0  0  0  0 
 30 31  1  0  0  0  0 
 31 32  2  0  0  0  0 
 33  2  1  0  0  0  0 
 34  2  1  0  0  0  0 
  7 35  1  0  0  0  0 
 36 10  1  0  0  0  0 
 37 10  1  0  0  0  0 
 38 10  1  0  0  0  0 
 11 39  1  0  0  0  0 
 40 12  1  0  0  0  0 
 41 12  1  0  0  0  0 
 42 13  1  0  0  0  0 
 43 13  1  0  0  0  0 
 44 16  1  0  0  0  0 
 45 16  1  0  0  0  0 
 46 16  1  0  0  0  0 
 18 47  1  0  0  0  0 
 19 48  1  0  0  0  0 
 49 20  1  0  0  0  0 
 50 20  1  0  0  0  0 
 51 20  1  0  0  0  0 
 21 52  1  0  0  0  0 
 53 22  1  0  0  0  0 
 54 22  1  0  0  0  0 
 55 23  1  0  0  0  0 
 56 25  1  0  0  0  0 
 57 25  1  0  0  0  0 
 58 26  1  0  0  0  0 
 59 26  1  0  0  0  0 
 60 26  1  0  0  0  0 
 61 28  1  0  0  0  0 
 62 29  1  0  0  0  0 
 63 30  1  0  0  0  0 
M  END
> <cdk:Title>
deflazacort

> <Conformer>
1

> <SuperDrugID>
SD000699

$$$$
