triclosan
  CDK     0628171801

 24 25  0  0  0  0  0  0  0  0999 V2000
    1.0286   -0.1093   -0.2883 O   0  0  0  0  0  0  0  0  0  0  0  0
    0.2066    0.3122    0.7029 C   0  0  0  0  0  0  0  0  0  0  0  0
   -0.9555   -0.4232    1.0372 C   0  0  0  0  0  0  0  0  0  0  0  0
   -1.2939   -1.5833    0.3792 O   0  0  0  0  0  0  0  0  0  0  0  0
   -0.8513   -2.7415    0.9832 C   0  0  0  0  0  0  0  0  0  0  0  0
   -1.4358   -3.2229    2.1799 C   0  0  0  0  0  0  0  0  0  0  0  0
   -0.9902   -4.4154    2.7779 C   0  0  0  0  0  0  0  0  0  0  0  0
    0.0406   -5.1590    2.1760 C   0  0  0  0  0  0  0  0  0  0  0  0
    0.5943   -6.5861    2.8987 Cl  0  0  0  0  0  0  0  0  0  0  0  0
    0.6057   -4.7148    0.9653 C   0  0  0  0  0  0  0  0  0  0  0  0
    0.1569   -3.5196    0.3651 C   0  0  0  0  0  0  0  0  0  0  0  0
    0.8300   -3.0674   -1.1223 Cl  0  0  0  0  0  0  0  0  0  0  0  0
   -1.8285    0.0907    2.0205 C   0  0  0  0  0  0  0  0  0  0  0  0
   -1.5171    1.2745    2.7126 C   0  0  0  0  0  0  0  0  0  0  0  0
   -0.3400    1.9826    2.4033 C   0  0  0  0  0  0  0  0  0  0  0  0
    0.0574    3.3999    3.2409 Cl  0  0  0  0  0  0  0  0  0  0  0  0
    0.5094    1.5079    1.3861 C   0  0  0  0  0  0  0  0  0  0  0  0
    1.7472    0.5551   -0.3496 H   0  0  0  0  0  0  0  0  0  0  0  0
   -2.1988   -2.7127    2.6253 H   0  0  0  0  0  0  0  0  0  0  0  0
   -1.4216   -4.7381    3.6484 H   0  0  0  0  0  0  0  0  0  0  0  0
    1.3433   -5.2669    0.5182 H   0  0  0  0  0  0  0  0  0  0  0  0
   -2.7006   -0.3974    2.2330 H   0  0  0  0  0  0  0  0  0  0  0  0
   -2.1543    1.6140    3.4359 H   0  0  0  0  0  0  0  0  0  0  0  0
    1.3498    2.0360    1.1381 H   0  0  0  0  0  0  0  0  0  0  0  0
  1  2  1  0  0  0  0 
  2  3  2  0  0  0  0 
  3  4  1  0  0  0  0 
  4  5  1  0  0  0  0 
  5  6  2  0  0  0  0 
  6  7  1  0  0  0  0 
  7  8  2  0  0  0  0 
  8  9  1  0  0  0  0 
  8 10  1  0  0  0  0 
 10 11  2  0  0  0  0 
  5 11  1  0  0  0  0 
 11 12  1  0  0  0  0 
  3 13  1  0  0  0  0 
 13 14  2  0  0  0  0 
 14 15  1  0  0  0  0 
 15 16  1  0  0  0  0 
 15 17  2  0  0  0  0 
  2 17  1  0  0  0  0 
  1 18  1  0  0  0  0 
  6 19  1  0  0  0  0 
  7 20  1  0  0  0  0 
 10 21  1  0  0  0  0 
 13 22  1  0  0  0  0 
 14 23  1  0  0  0  0 
 17 24  1  0  0  0  0 
M  END
> <cdk:Title>
triclosan

> <Conformer>
1

> <SuperDrugID>
SD003111

$$$$
