methapyrilene
  CDK     0628171801

 37 38  0  0  0  0  0  0  0  0999 V2000
    3.2074    2.9221    0.5301 N   0  0  0  0  0  0  0  0  0  0  0  0
    2.2185    2.0616    1.1580 C   0  0  1  0  0  0  0  0  0  0  0  0
    4.6174    2.6744    0.7786 C   0  0  1  0  0  0  0  0  0  0  0  0
    2.7829    3.9929   -0.2365 C   0  0  0  0  0  0  0  0  0  0  0  0
    1.0914    1.6735    0.2847 C   0  0  0  0  0  0  0  0  0  0  0  0
    5.0178    2.8216    2.2715 C   0  0  1  0  0  0  0  0  0  0  0  0
    3.3850    4.3661   -1.4641 C   0  0  0  0  0  0  0  0  0  0  0  0
    1.6936    4.6995    0.1825 N   0  0  0  0  0  0  0  0  0  0  0  0
    1.1603    1.0414   -0.9638 C   0  0  0  0  0  0  0  0  0  0  0  0
   -0.6120    1.9367    0.6203 S   0  0  0  0  0  0  0  0  0  0  0  0
    6.4707    2.4855    2.4307 N   0  0  1  0  0  0  0  0  0  0  0  0
    2.8545    5.4415   -2.1999 C   0  0  0  0  0  0  0  0  0  0  0  0
    1.1511    5.7340   -0.5046 C   0  0  0  0  0  0  0  0  0  0  0  0
   -0.0788    0.7948   -1.5841 C   0  0  0  0  0  0  0  0  0  0  0  0
   -1.2002    1.2157   -0.8647 C   0  0  0  0  0  0  0  0  0  0  0  0
    7.3769    3.6668    2.4932 C   0  0  0  0  0  0  0  0  0  0  0  0
    6.7815    1.4588    3.4651 C   0  0  0  0  0  0  0  0  0  0  0  0
    1.7255    6.1313   -1.7232 C   0  0  0  0  0  0  0  0  0  0  0  0
    2.6656    1.1303    1.5089 H   0  0  0  0  0  0  0  0  0  0  0  0
    1.8280    2.5786    2.0367 H   0  0  0  0  0  0  0  0  0  0  0  0
    4.8653    1.6645    0.4431 H   0  0  0  0  0  0  0  0  0  0  0  0
    5.2551    3.3538    0.2100 H   0  0  0  0  0  0  0  0  0  0  0  0
    4.7981    3.8398    2.6125 H   0  0  0  0  0  0  0  0  0  0  0  0
    4.3959    2.1482    2.8673 H   0  0  0  0  0  0  0  0  0  0  0  0
    4.1908    3.8579   -1.8385 H   0  0  0  0  0  0  0  0  0  0  0  0
    2.0484    0.7851   -1.4003 H   0  0  0  0  0  0  0  0  0  0  0  0
    3.2886    5.7169   -3.0832 H   0  0  0  0  0  0  0  0  0  0  0  0
    0.3291    6.2150   -0.1338 H   0  0  0  0  0  0  0  0  0  0  0  0
   -0.1540    0.3445   -2.4980 H   0  0  0  0  0  0  0  0  0  0  0  0
   -2.1765    1.1252   -1.1475 H   0  0  0  0  0  0  0  0  0  0  0  0
    8.4182    3.3456    2.4290 H   0  0  0  0  0  0  0  0  0  0  0  0
    7.1870    4.3454    1.6590 H   0  0  0  0  0  0  0  0  0  0  0  0
    7.2347    4.2128    3.4293 H   0  0  0  0  0  0  0  0  0  0  0  0
    6.1314    0.5892    3.3483 H   0  0  0  0  0  0  0  0  0  0  0  0
    7.8108    1.1139    3.3485 H   0  0  0  0  0  0  0  0  0  0  0  0
    6.6516    1.8634    4.4720 H   0  0  0  0  0  0  0  0  0  0  0  0
    1.3259    6.9098   -2.2519 H   0  0  0  0  0  0  0  0  0  0  0  0
  1  2  1  0  0  0  0 
  1  3  1  0  0  0  0 
  1  4  1  0  0  0  0 
  2  5  1  0  0  0  0 
  3  6  1  0  0  0  0 
  4  7  2  0  0  0  0 
  4  8  1  0  0  0  0 
  5  9  2  0  0  0  0 
  5 10  1  0  0  0  0 
  6 11  1  0  0  0  0 
  7 12  1  0  0  0  0 
  8 13  2  0  0  0  0 
  9 14  1  0  0  0  0 
 10 15  1  0  0  0  0 
 11 16  1  0  0  0  0 
 11 17  1  0  0  0  0 
 12 18  2  0  0  0  0 
 13 18  1  0  0  0  0 
 14 15  2  0  0  0  0 
  2 19  1  0  0  0  0 
  2 20  1  0  0  0  0 
  3 21  1  0  0  0  0 
  3 22  1  0  0  0  0 
  6 23  1  0  0  0  0 
  6 24  1  0  0  0  0 
  7 25  1  0  0  0  0 
  9 26  1  0  0  0  0 
 12 27  1  0  0  0  0 
 13 28  1  0  0  0  0 
 14 29  1  0  0  0  0 
 15 30  1  0  0  0  0 
 16 31  1  0  0  0  0 
 16 32  1  0  0  0  0 
 16 33  1  0  0  0  0 
 17 34  1  0  0  0  0 
 17 35  1  0  0  0  0 
 17 36  1  0  0  0  0 
 18 37  1  0  0  0  0 
M  END
> <cdk:Title>
methapyrilene

> <Conformer>
1

> <SuperDrugID>
SD001538

$$$$
