alfaxalone
  CDK     0628171801

 56 59  0  0  0  0  0  0  0  0999 V2000
    0.2208    3.1985    1.0027 C   0  0  0  0  0  0  0  0  0  0  0  0
   -0.2330    2.4534   -0.3117 C   0  0  1  0  0  0  0  0  0  0  0  0
   -0.6598    0.9468    0.0168 C   0  0  2  0  0  0  0  0  0  0  0  0
   -1.4798    3.1500   -1.0059 C   0  0  1  0  0  0  0  0  0  0  0  0
    0.9474    2.5280   -1.3640 C   0  0  2  0  0  0  0  0  0  0  0  0
   -1.9724    0.8997    0.9104 C   0  0  2  0  0  0  0  0  0  0  0  0
    0.3936    0.0094    0.5486 C   0  0  0  0  0  0  0  0  0  0  0  0
   -2.7930    3.0709   -0.1686 C   0  0  2  0  0  0  0  0  0  0  0  0
   -1.1935    4.6130   -1.4715 C   0  0  2  0  0  0  0  0  0  0  0  0
    1.2471    3.9508   -1.9295 C   0  0  2  0  0  0  0  0  0  0  0  0
   -2.3304   -0.5655    1.3208 C   0  0  1  0  0  0  0  0  0  0  0  0
   -3.1554    1.6100    0.1915 C   0  0  2  0  0  0  0  0  0  0  0  0
    1.5931    0.3434    0.6782 O   0  0  0  0  0  0  0  0  0  0  0  0
    0.0253   -1.3646    0.9983 C   0  0  2  0  0  0  0  0  0  0  0  0
   -0.0107    4.6749   -2.4743 C   0  0  1  0  0  0  0  0  0  0  0  0
   -1.1400   -1.2893    2.0383 C   0  0  1  0  0  0  0  0  0  0  0  0
   -3.5358   -0.8267    2.2547 C   0  0  2  0  0  0  0  0  0  0  0  0
   -0.3891    4.1180   -3.7336 O   0  0  0  0  0  0  0  0  0  0  0  0
   -0.6088   -0.5585    3.3373 C   0  0  0  0  0  0  0  0  0  0  0  0
   -1.8429   -2.6517    2.3840 C   0  0  2  0  0  0  0  0  0  0  0  0
   -3.2534   -2.2171    2.8860 C   0  0  1  0  0  0  0  0  0  0  0  0
   -1.1368   -3.5816    3.3162 C   0  0  0  0  0  0  0  0  0  0  0  0
   -0.5899   -4.8745    2.8596 C   0  0  0  0  0  0  0  0  0  0  0  0
   -1.0016   -3.2832    4.5273 O   0  0  0  0  0  0  0  0  0  0  0  0
   -1.8142    1.4474    1.8388 H   0  0  0  0  0  0  0  0  0  0  0  0
   -0.9299    0.4840   -0.9397 H   0  0  0  0  0  0  0  0  0  0  0  0
   -2.5624   -1.0865    0.3784 H   0  0  0  0  0  0  0  0  0  0  0  0
   -1.6981    2.5877   -1.9250 H   0  0  0  0  0  0  0  0  0  0  0  0
    0.5584    4.2124    0.8039 H   0  0  0  0  0  0  0  0  0  0  0  0
    1.0459    2.6756    1.4875 H   0  0  0  0  0  0  0  0  0  0  0  0
   -0.5832    3.2946    1.7273 H   0  0  0  0  0  0  0  0  0  0  0  0
    0.7217    1.8714   -2.2104 H   0  0  0  0  0  0  0  0  0  0  0  0
    1.8806    2.1712   -0.9268 H   0  0  0  0  0  0  0  0  0  0  0  0
   -3.6188    3.4935   -0.7460 H   0  0  0  0  0  0  0  0  0  0  0  0
   -2.7041    3.6612    0.7469 H   0  0  0  0  0  0  0  0  0  0  0  0
   -0.9790    5.2543   -0.6129 H   0  0  0  0  0  0  0  0  0  0  0  0
   -2.0811    5.0261   -1.9566 H   0  0  0  0  0  0  0  0  0  0  0  0
    1.9848    3.8671   -2.7317 H   0  0  0  0  0  0  0  0  0  0  0  0
    1.7034    4.5731   -1.1551 H   0  0  0  0  0  0  0  0  0  0  0  0
   -4.0329    1.6262    0.8425 H   0  0  0  0  0  0  0  0  0  0  0  0
   -3.4260    1.0627   -0.7174 H   0  0  0  0  0  0  0  0  0  0  0  0
    0.8829   -1.8761    1.4441 H   0  0  0  0  0  0  0  0  0  0  0  0
   -0.2701   -1.9451    0.1205 H   0  0  0  0  0  0  0  0  0  0  0  0
    0.2398    5.7232   -2.6560 H   0  0  0  0  0  0  0  0  0  0  0  0
   -4.4745   -0.8292    1.6934 H   0  0  0  0  0  0  0  0  0  0  0  0
   -3.5955   -0.0565    3.0297 H   0  0  0  0  0  0  0  0  0  0  0  0
   -1.0961    4.7089   -4.0690 H   0  0  0  0  0  0  0  0  0  0  0  0
   -1.3842   -0.4554    4.0973 H   0  0  0  0  0  0  0  0  0  0  0  0
    0.2259   -1.1144    3.7684 H   0  0  0  0  0  0  0  0  0  0  0  0
   -0.2319    0.4415    3.1266 H   0  0  0  0  0  0  0  0  0  0  0  0
   -2.0039   -3.1977    1.4431 H   0  0  0  0  0  0  0  0  0  0  0  0
   -3.2804   -2.1314    3.9771 H   0  0  0  0  0  0  0  0  0  0  0  0
   -4.0131   -2.9451    2.5887 H   0  0  0  0  0  0  0  0  0  0  0  0
    0.0541   -4.7232    1.9924 H   0  0  0  0  0  0  0  0  0  0  0  0
   -1.4109   -5.5373    2.5834 H   0  0  0  0  0  0  0  0  0  0  0  0
   -0.0049   -5.3567    3.6455 H   0  0  0  0  0  0  0  0  0  0  0  0
  2  1  1  0  0  0  0 
  3  2  1  0  0  0  0 
  2  4  1  0  0  0  0 
  2  5  1  0  0  0  0 
  6  3  1  0  0  0  0 
  3  7  1  0  0  0  0 
  3 26  1  0  0  0  0 
  4  8  1  0  0  0  0 
  4  9  1  0  0  0  0 
  4 28  1  0  0  0  0 
  5 10  1  0  0  0  0 
 11  6  1  0  0  0  0 
  6 12  1  0  0  0  0 
  6 25  1  0  0  0  0 
  7 13  2  0  0  0  0 
  7 14  1  0  0  0  0 
  8 12  1  0  0  0  0 
 15  9  1  0  0  0  0 
 15 10  1  0  0  0  0 
 11 16  1  0  0  0  0 
 11 17  1  0  0  0  0 
 11 27  1  0  0  0  0 
 16 14  1  0  0  0  0 
 15 18  1  0  0  0  0 
 16 19  1  0  0  0  0 
 16 20  1  0  0  0  0 
 17 21  1  0  0  0  0 
 20 21  1  0  0  0  0 
 20 22  1  0  0  0  0 
 22 23  1  0  0  0  0 
 22 24  2  0  0  0  0 
  1 29  1  0  0  0  0 
  1 30  1  0  0  0  0 
  1 31  1  0  0  0  0 
  5 32  1  0  0  0  0 
  5 33  1  0  0  0  0 
  8 34  1  0  0  0  0 
  8 35  1  0  0  0  0 
  9 36  1  0  0  0  0 
  9 37  1  0  0  0  0 
 10 38  1  0  0  0  0 
 10 39  1  0  0  0  0 
 12 40  1  0  0  0  0 
 12 41  1  0  0  0  0 
 14 42  1  0  0  0  0 
 14 43  1  0  0  0  0 
 15 44  1  0  0  0  0 
 17 45  1  0  0  0  0 
 17 46  1  0  0  0  0 
 18 47  1  0  0  0  0 
 19 48  1  0  0  0  0 
 19 49  1  0  0  0  0 
 19 50  1  0  0  0  0 
 20 51  1  0  0  0  0 
 21 52  1  0  0  0  0 
 21 53  1  0  0  0  0 
 23 54  1  0  0  0  0 
 23 55  1  0  0  0  0 
 23 56  1  0  0  0  0 
M  END
> <cdk:Title>
alfaxalone

> <Conformer>
1

> <SuperDrugID>
SD000102

$$$$
