rosaprostol
  CDK     0628171801

 55 55  0  0  0  0  0  0  0  0999 V2000
    0.8160    2.9026   -3.6921 C   0  0  2  0  0  0  0  0  0  0  0  0
    1.2929    2.1399   -2.4237 C   0  0  1  0  0  0  0  0  0  0  0  0
    1.4894    2.3995   -5.0068 C   0  0  2  0  0  0  0  0  0  0  0  0
    0.6139    2.6138   -1.1145 C   0  0  2  0  0  0  0  0  0  0  0  0
    3.0494    2.5656   -5.0574 C   0  0  1  0  0  0  0  0  0  0  0  0
    0.9600    3.1345   -6.2653 C   0  0  1  0  0  0  0  0  0  0  0  0
    1.1554    1.8545    0.1306 C   0  0  2  0  0  0  0  0  0  0  0  0
    3.8028    1.2223   -4.7754 C   0  0  2  0  0  0  0  0  0  0  0  0
    3.3570    3.1695   -6.4581 C   0  0  1  0  0  0  0  0  0  0  0  0
    2.0880    2.9570   -7.2927 C   0  0  1  0  0  0  0  0  0  0  0  0
    0.5118    2.3415    1.4546 C   0  0  1  0  0  0  0  0  0  0  0  0
    5.3358    1.3739   -4.5709 C   0  0  2  0  0  0  0  0  0  0  0  0
    1.0263    1.5670    2.6981 C   0  0  2  0  0  0  0  0  0  0  0  0
    6.0550    0.0194   -4.3099 C   0  0  1  0  0  0  0  0  0  0  0  0
    0.4045    2.0567    3.9424 C   0  0  0  0  0  0  0  0  0  0  0  0
    7.6013    0.1703   -4.3141 C   0  0  1  0  0  0  0  0  0  0  0  0
    1.1484    2.6569    4.8991 O   0  0  0  0  0  0  0  0  0  0  0  0
   -0.8271    1.9309    4.1317 O   0  0  0  0  0  0  0  0  0  0  0  0
    8.3600   -1.1631   -4.0790 C   0  0  2  0  0  0  0  0  0  0  0  0
    9.8942   -0.9716   -4.1011 C   0  0  0  0  0  0  0  0  0  0  0  0
   -0.2724    2.5936   -6.7359 O   0  0  0  0  0  0  0  0  0  0  0  0
    0.8174    4.2029   -6.0671 H   0  0  0  0  0  0  0  0  0  0  0  0
    3.3623    3.2962   -4.3021 H   0  0  0  0  0  0  0  0  0  0  0  0
    1.2309    1.3396   -5.1247 H   0  0  0  0  0  0  0  0  0  0  0  0
    1.0203    3.9698   -3.5687 H   0  0  0  0  0  0  0  0  0  0  0  0
   -0.2660    2.7793   -3.7896 H   0  0  0  0  0  0  0  0  0  0  0  0
    1.0978    1.0725   -2.5562 H   0  0  0  0  0  0  0  0  0  0  0  0
    2.3695    2.2784   -2.3065 H   0  0  0  0  0  0  0  0  0  0  0  0
   -0.4658    2.4587   -1.1931 H   0  0  0  0  0  0  0  0  0  0  0  0
    0.7974    3.6840   -0.9893 H   0  0  0  0  0  0  0  0  0  0  0  0
    2.2395    1.9907    0.1954 H   0  0  0  0  0  0  0  0  0  0  0  0
    0.9544    0.7864    0.0090 H   0  0  0  0  0  0  0  0  0  0  0  0
    3.6159    0.5376   -5.6079 H   0  0  0  0  0  0  0  0  0  0  0  0
    3.3956    0.7628   -3.8720 H   0  0  0  0  0  0  0  0  0  0  0  0
    3.5543    4.2417   -6.3674 H   0  0  0  0  0  0  0  0  0  0  0  0
    4.2144    2.7144   -6.9546 H   0  0  0  0  0  0  0  0  0  0  0  0
    2.0821    1.9425   -7.7051 H   0  0  0  0  0  0  0  0  0  0  0  0
    2.0149    3.6818   -8.1075 H   0  0  0  0  0  0  0  0  0  0  0  0
    0.7304    3.4060    1.5846 H   0  0  0  0  0  0  0  0  0  0  0  0
   -0.5730    2.2214    1.3796 H   0  0  0  0  0  0  0  0  0  0  0  0
    5.5227    2.0422   -3.7253 H   0  0  0  0  0  0  0  0  0  0  0  0
    5.7692    1.8329   -5.4599 H   0  0  0  0  0  0  0  0  0  0  0  0
    2.1115    1.6800    2.7702 H   0  0  0  0  0  0  0  0  0  0  0  0
    0.8057    0.5013    2.5925 H   0  0  0  0  0  0  0  0  0  0  0  0
    5.7327   -0.3752   -3.3415 H   0  0  0  0  0  0  0  0  0  0  0  0
    5.7641   -0.6986   -5.0842 H   0  0  0  0  0  0  0  0  0  0  0  0
    7.9089    0.5781   -5.2806 H   0  0  0  0  0  0  0  0  0  0  0  0
    7.8906    0.8826   -3.5358 H   0  0  0  0  0  0  0  0  0  0  0  0
    0.7216    2.9890    5.7163 H   0  0  0  0  0  0  0  0  0  0  0  0
    8.0870   -1.8821   -4.8558 H   0  0  0  0  0  0  0  0  0  0  0  0
    8.0712   -1.5814   -3.1113 H   0  0  0  0  0  0  0  0  0  0  0  0
   10.3928   -1.9270   -3.9276 H   0  0  0  0  0  0  0  0  0  0  0  0
   10.2166   -0.5833   -5.0698 H   0  0  0  0  0  0  0  0  0  0  0  0
   10.2008   -0.2724   -3.3210 H   0  0  0  0  0  0  0  0  0  0  0  0
   -0.4789    3.1068   -7.5456 H   0  0  0  0  0  0  0  0  0  0  0  0
  1  2  1  0  0  0  0 
  3  1  1  0  0  0  0 
  2  4  1  0  0  0  0 
  3  5  1  0  0  0  0 
  6  3  1  0  0  0  0 
  4  7  1  0  0  0  0 
  5  8  1  0  0  0  0 
  5  9  1  0  0  0  0 
  6 10  1  0  0  0  0 
  7 11  1  0  0  0  0 
  8 12  1  0  0  0  0 
  9 10  1  0  0  0  0 
 11 13  1  0  0  0  0 
 12 14  1  0  0  0  0 
 13 15  1  0  0  0  0 
 14 16  1  0  0  0  0 
 15 17  1  0  0  0  0 
 15 18  2  0  0  0  0 
 16 19  1  0  0  0  0 
 19 20  1  0  0  0  0 
  6 21  1  0  0  0  0 
  6 22  1  0  0  0  0 
  5 23  1  0  0  0  0 
  3 24  1  0  0  0  0 
  1 25  1  0  0  0  0 
  1 26  1  0  0  0  0 
  2 27  1  0  0  0  0 
  2 28  1  0  0  0  0 
  4 29  1  0  0  0  0 
  4 30  1  0  0  0  0 
  7 31  1  0  0  0  0 
  7 32  1  0  0  0  0 
  8 33  1  0  0  0  0 
  8 34  1  0  0  0  0 
  9 35  1  0  0  0  0 
  9 36  1  0  0  0  0 
 10 37  1  0  0  0  0 
 10 38  1  0  0  0  0 
 11 39  1  0  0  0  0 
 11 40  1  0  0  0  0 
 12 41  1  0  0  0  0 
 12 42  1  0  0  0  0 
 13 43  1  0  0  0  0 
 13 44  1  0  0  0  0 
 14 45  1  0  0  0  0 
 14 46  1  0  0  0  0 
 16 47  1  0  0  0  0 
 16 48  1  0  0  0  0 
 17 49  1  0  0  0  0 
 19 50  1  0  0  0  0 
 19 51  1  0  0  0  0 
 20 52  1  0  0  0  0 
 20 53  1  0  0  0  0 
 20 54  1  0  0  0  0 
 21 55  1  0  0  0  0 
M  END
> <cdk:Title>
rosaprostol

> <Conformer>
1

> <SuperDrugID>
SD002164

$$$$
