protionamide
  CDK     0628171801

 24 24  0  0  0  0  0  0  0  0999 V2000
    0.6920    2.8391    4.9935 C   0  0  1  0  0  0  0  0  0  0  0  0
   -0.2067    1.7988    5.7119 C   0  0  2  0  0  0  0  0  0  0  0  0
    0.5460    2.7557    3.5213 C   0  0  0  0  0  0  0  0  0  0  0  0
   -0.0973    1.8661    7.2513 C   0  0  0  0  0  0  0  0  0  0  0  0
   -0.4519    3.4777    2.8307 C   0  0  0  0  0  0  0  0  0  0  0  0
    1.3807    1.9516    2.8139 N   0  0  0  0  0  0  0  0  0  0  0  0
   -0.6044    3.3582    1.4229 C   0  0  0  0  0  0  0  0  0  0  0  0
    1.2992    1.8093    1.4702 C   0  0  0  0  0  0  0  0  0  0  0  0
   -1.6202    4.0508    0.7405 C   0  0  0  0  0  0  0  0  0  0  0  0
    0.3090    2.5017    0.7521 C   0  0  0  0  0  0  0  0  0  0  0  0
   -2.5919    4.6993    1.3601 N   0  0  0  0  0  0  0  0  0  0  0  0
   -1.7448    4.1376   -0.9588 S   0  0  0  0  0  0  0  0  0  0  0  0
    0.4349    3.8469    5.3344 H   0  0  0  0  0  0  0  0  0  0  0  0
    1.7384    2.6636    5.2580 H   0  0  0  0  0  0  0  0  0  0  0  0
    0.0764    0.7934    5.3884 H   0  0  0  0  0  0  0  0  0  0  0  0
   -1.2515    1.9622    5.4331 H   0  0  0  0  0  0  0  0  0  0  0  0
    0.9300    1.6860    7.5719 H   0  0  0  0  0  0  0  0  0  0  0  0
   -0.7388    1.1048    7.6963 H   0  0  0  0  0  0  0  0  0  0  0  0
   -0.4163    2.8448    7.6141 H   0  0  0  0  0  0  0  0  0  0  0  0
   -1.0650    4.0907    3.3722 H   0  0  0  0  0  0  0  0  0  0  0  0
    1.9526    1.1946    0.9856 H   0  0  0  0  0  0  0  0  0  0  0  0
    0.2711    2.3596   -0.2594 H   0  0  0  0  0  0  0  0  0  0  0  0
   -3.2750    5.1591    0.8455 H   0  0  0  0  0  0  0  0  0  0  0  0
   -2.6306    4.7245    2.3268 H   0  0  0  0  0  0  0  0  0  0  0  0
  1  2  1  0  0  0  0 
  1  3  1  0  0  0  0 
  2  4  1  0  0  0  0 
  3  5  2  0  0  0  0 
  3  6  1  0  0  0  0 
  5  7  1  0  0  0  0 
  6  8  2  0  0  0  0 
  7  9  1  0  0  0  0 
  7 10  2  0  0  0  0 
  8 10  1  0  0  0  0 
  9 11  1  0  0  0  0 
  9 12  2  0  0  0  0 
  1 13  1  0  0  0  0 
  1 14  1  0  0  0  0 
  2 15  1  0  0  0  0 
  2 16  1  0  0  0  0 
  4 17  1  0  0  0  0 
  4 18  1  0  0  0  0 
  4 19  1  0  0  0  0 
  5 20  1  0  0  0  0 
  8 21  1  0  0  0  0 
 10 22  1  0  0  0  0 
 11 23  1  0  0  0  0 
 11 24  1  0  0  0  0 
M  END
> <cdk:Title>
protionamide

> <Conformer>
1

> <SuperDrugID>
SD002078

$$$$
