fluazacort
  CDK     0628171801

 63 67  0  0  0  0  0  0  0  0999 V2000
    2.3021   -8.5965   -0.2986 C   0  0  0  0  0  0  0  0  0  0  0  0
    2.1404   -8.1233   -1.6914 C   0  0  1  0  0  0  0  0  0  0  0  0
    3.4779   -8.8360    0.0639 O   0  0  0  0  0  0  0  0  0  0  0  0
    1.1672   -8.7294    0.6814 C   0  0  2  0  0  0  0  0  0  0  0  0
    2.7744   -6.8457   -1.8312 O   0  0  0  0  0  0  0  0  0  0  0  0
    0.6781   -7.3772    1.3494 C   0  0  2  0  0  0  0  0  0  0  0  0
    1.4261   -9.6942    1.8869 C   0  0  1  0  0  0  0  0  0  0  0  0
    0.1691   -9.4517    0.0475 N   0  0  0  0  0  0  0  0  0  0  0  0
    3.4500   -6.3608   -2.9124 C   0  0  0  0  0  0  0  0  0  0  0  0
    1.9351   -6.4640    1.6452 C   0  0  0  0  0  0  0  0  0  0  0  0
   -0.0343   -7.9208    2.6341 C   0  0  1  0  0  0  0  0  0  0  0  0
   -0.4025   -6.5448    0.5674 C   0  0  2  0  0  0  0  0  0  0  0  0
    0.9191   -9.0039    3.1846 C   0  0  1  0  0  0  0  0  0  0  0  0
    0.6916  -10.8963    1.6134 O   0  0  0  0  0  0  0  0  0  0  0  0
   -0.0499  -10.6034    0.5533 C   0  0  0  0  0  0  0  0  0  0  0  0
    4.0526   -5.0225   -2.8472 C   0  0  0  0  0  0  0  0  0  0  0  0
    3.5734   -7.0320   -3.9632 O   0  0  0  0  0  0  0  0  0  0  0  0
   -0.5457   -6.7928    3.5901 C   0  0  1  0  0  0  0  0  0  0  0  0
   -1.0860   -5.4149    1.4185 C   0  0  1  0  0  0  0  0  0  0  0  0
   -1.0402  -11.5024    0.0200 C   0  0  0  0  0  0  0  0  0  0  0  0
   -1.6050   -5.8764    2.8476 C   0  0  1  0  0  0  0  0  0  0  0  0
   -1.1212   -7.3688    4.9201 C   0  0  1  0  0  0  0  0  0  0  0  0
   -0.2185   -4.2864    1.4725 O   0  0  0  0  0  0  0  0  0  0  0  0
   -2.6906   -6.6924    2.5507 F   0  0  0  0  0  0  0  0  0  0  0  0
   -2.1775   -4.7405    3.8237 C   0  0  2  0  0  0  0  0  0  0  0  0
   -1.6835   -6.2540    5.8325 C   0  0  2  0  0  0  0  0  0  0  0  0
   -1.1428   -3.6245    4.2241 C   0  0  0  0  0  0  0  0  0  0  0  0
   -2.6247   -5.3950    5.1023 C   0  0  0  0  0  0  0  0  0  0  0  0
   -3.2830   -4.0034    3.1607 C   0  0  0  0  0  0  0  0  0  0  0  0
   -3.8767   -5.2196    5.5842 C   0  0  0  0  0  0  0  0  0  0  0  0
   -4.5076   -3.8722    3.6948 C   0  0  0  0  0  0  0  0  0  0  0  0
   -4.8101   -4.4481    4.9136 C   0  0  0  0  0  0  0  0  0  0  0  0
   -5.9452   -4.2739    5.4130 O   0  0  0  0  0  0  0  0  0  0  0  0
    2.5693   -8.8671   -2.3708 H   0  0  0  0  0  0  0  0  0  0  0  0
    1.0878   -7.9943   -1.9435 H   0  0  0  0  0  0  0  0  0  0  0  0
    2.4752   -9.9666    2.0207 H   0  0  0  0  0  0  0  0  0  0  0  0
    1.7153   -5.6182    2.2884 H   0  0  0  0  0  0  0  0  0  0  0  0
    2.7414   -7.0254    2.1183 H   0  0  0  0  0  0  0  0  0  0  0  0
    2.3322   -6.0506    0.7181 H   0  0  0  0  0  0  0  0  0  0  0  0
   -0.9376   -8.4713    2.3330 H   0  0  0  0  0  0  0  0  0  0  0  0
   -1.1939   -7.2138    0.2190 H   0  0  0  0  0  0  0  0  0  0  0  0
    0.0455   -6.1066   -0.3293 H   0  0  0  0  0  0  0  0  0  0  0  0
    0.3237   -9.7494    3.8049 H   0  0  0  0  0  0  0  0  0  0  0  0
    1.7942   -8.4881    3.6933 H   0  0  0  0  0  0  0  0  0  0  0  0
    5.1144   -5.0849   -3.0922 H   0  0  0  0  0  0  0  0  0  0  0  0
    3.9436   -4.5932   -1.8480 H   0  0  0  0  0  0  0  0  0  0  0  0
    3.5663   -4.3662   -3.5692 H   0  0  0  0  0  0  0  0  0  0  0  0
    0.3097   -6.1878    3.8856 H   0  0  0  0  0  0  0  0  0  0  0  0
   -1.9457   -5.0725    0.8343 H   0  0  0  0  0  0  0  0  0  0  0  0
   -0.9826  -11.5135   -1.0705 H   0  0  0  0  0  0  0  0  0  0  0  0
   -0.8702  -12.5173    0.3849 H   0  0  0  0  0  0  0  0  0  0  0  0
   -2.0374  -11.1781    0.3244 H   0  0  0  0  0  0  0  0  0  0  0  0
   -1.9097   -8.0972    4.7059 H   0  0  0  0  0  0  0  0  0  0  0  0
   -0.3299   -7.8881    5.4684 H   0  0  0  0  0  0  0  0  0  0  0  0
   -0.1384   -3.9802    0.5441 H   0  0  0  0  0  0  0  0  0  0  0  0
   -0.8592   -5.6463    6.2119 H   0  0  0  0  0  0  0  0  0  0  0  0
   -2.1351   -6.7379    6.7046 H   0  0  0  0  0  0  0  0  0  0  0  0
   -1.5357   -3.0063    5.0371 H   0  0  0  0  0  0  0  0  0  0  0  0
   -0.9198   -2.9474    3.4004 H   0  0  0  0  0  0  0  0  0  0  0  0
   -0.1959   -4.0430    4.5591 H   0  0  0  0  0  0  0  0  0  0  0  0
   -3.1159   -3.5643    2.2857 H   0  0  0  0  0  0  0  0  0  0  0  0
   -4.1513   -5.6490    6.4387 H   0  0  0  0  0  0  0  0  0  0  0  0
   -5.1994   -3.3495    3.2083 H   0  0  0  0  0  0  0  0  0  0  0  0
  1  2  1  0  0  0  0 
  1  3  2  0  0  0  0 
  4  1  1  0  0  0  0 
  2  5  1  0  0  0  0 
  6  4  1  0  0  0  0 
  4  7  1  0  0  0  0 
  4  8  1  0  0  0  0 
  5  9  1  0  0  0  0 
  6 10  1  0  0  0  0 
 11  6  1  0  0  0  0 
  6 12  1  0  0  0  0 
  7 13  1  0  0  0  0 
  7 14  1  0  0  0  0 
  8 15  2  0  0  0  0 
  9 16  1  0  0  0  0 
  9 17  2  0  0  0  0 
 11 13  1  0  0  0  0 
 18 11  1  0  0  0  0 
 19 12  1  0  0  0  0 
 14 15  1  0  0  0  0 
 15 20  1  0  0  0  0 
 21 18  1  0  0  0  0 
 18 22  1  0  0  0  0 
 21 19  1  0  0  0  0 
 19 23  1  0  0  0  0 
 21 24  1  0  0  0  0 
 21 25  1  0  0  0  0 
 22 26  1  0  0  0  0 
 25 27  1  0  0  0  0 
 25 28  1  0  0  0  0 
 25 29  1  0  0  0  0 
 26 28  1  0  0  0  0 
 28 30  2  0  0  0  0 
 29 31  2  0  0  0  0 
 30 32  1  0  0  0  0 
 31 32  1  0  0  0  0 
 32 33  2  0  0  0  0 
 34  2  1  0  0  0  0 
 35  2  1  0  0  0  0 
  7 36  1  0  0  0  0 
 37 10  1  0  0  0  0 
 38 10  1  0  0  0  0 
 39 10  1  0  0  0  0 
 11 40  1  0  0  0  0 
 41 12  1  0  0  0  0 
 42 12  1  0  0  0  0 
 43 13  1  0  0  0  0 
 44 13  1  0  0  0  0 
 45 16  1  0  0  0  0 
 46 16  1  0  0  0  0 
 47 16  1  0  0  0  0 
 18 48  1  0  0  0  0 
 19 49  1  0  0  0  0 
 50 20  1  0  0  0  0 
 51 20  1  0  0  0  0 
 52 20  1  0  0  0  0 
 53 22  1  0  0  0  0 
 54 22  1  0  0  0  0 
 55 23  1  0  0  0  0 
 56 26  1  0  0  0  0 
 57 26  1  0  0  0  0 
 58 27  1  0  0  0  0 
 59 27  1  0  0  0  0 
 60 27  1  0  0  0  0 
 61 29  1  0  0  0  0 
 62 30  1  0  0  0  0 
 63 31  1  0  0  0  0 
M  END
> <cdk:Title>
fluazacort

> <Conformer>
1

> <SuperDrugID>
SD002796

$$$$
