cyclobenzaprine
  CDK     0628171802

 42 44  0  0  0  0  0  0  0  0999 V2000
   -1.9626    0.7631    1.8980 C   0  0  0  0  0  0  0  0  0  0  0  0
   -1.2564   -0.3623    1.2878 C   0  0  1  0  0  0  0  0  0  0  0  0
   -2.9637    0.6656    2.8082 C   0  0  0  0  0  0  0  0  0  0  0  0
   -0.1685    0.0179    0.2448 C   0  0  2  0  0  0  0  0  0  0  0  0
   -3.4502   -0.5528    3.2943 C   0  0  0  0  0  0  0  0  0  0  0  0
   -3.5854    1.8229    3.2849 C   0  0  0  0  0  0  0  0  0  0  0  0
    0.5074   -1.1826   -0.3575 N   0  0  1  0  0  0  0  0  0  0  0  0
   -4.8002   -0.9599    3.0729 C   0  0  0  0  0  0  0  0  0  0  0  0
   -2.5814   -1.4068    4.0220 C   0  0  0  0  0  0  0  0  0  0  0  0
   -4.9736    2.0726    3.0680 C   0  0  0  0  0  0  0  0  0  0  0  0
   -2.8037    2.7826    3.9777 C   0  0  0  0  0  0  0  0  0  0  0  0
    1.1811   -0.8753   -1.6525 C   0  0  0  0  0  0  0  0  0  0  0  0
    1.4153   -1.9210    0.5762 C   0  0  0  0  0  0  0  0  0  0  0  0
   -5.7571   -0.1690    2.4270 C   0  0  0  0  0  0  0  0  0  0  0  0
   -5.2057   -2.2420    3.5256 C   0  0  0  0  0  0  0  0  0  0  0  0
   -2.9998   -2.6760    4.4509 C   0  0  0  0  0  0  0  0  0  0  0  0
   -5.8346    1.1744    2.4265 C   0  0  0  0  0  0  0  0  0  0  0  0
   -5.5155    3.3079    3.5076 C   0  0  0  0  0  0  0  0  0  0  0  0
   -3.3705    3.9875    4.4224 C   0  0  0  0  0  0  0  0  0  0  0  0
   -4.3146   -3.0943    4.1995 C   0  0  0  0  0  0  0  0  0  0  0  0
   -4.7247    4.2564    4.1780 C   0  0  0  0  0  0  0  0  0  0  0  0
   -1.6882    1.6744    1.6007 H   0  0  0  0  0  0  0  0  0  0  0  0
   -0.7691   -0.9249    2.0794 H   0  0  0  0  0  0  0  0  0  0  0  0
   -1.9858   -1.0108    0.7952 H   0  0  0  0  0  0  0  0  0  0  0  0
    0.5726    0.6781    0.7068 H   0  0  0  0  0  0  0  0  0  0  0  0
   -0.6701    0.5916   -0.5407 H   0  0  0  0  0  0  0  0  0  0  0  0
   -1.6241   -1.1170    4.2428 H   0  0  0  0  0  0  0  0  0  0  0  0
   -1.8105    2.6130    4.1651 H   0  0  0  0  0  0  0  0  0  0  0  0
    1.6026   -1.7816   -2.0917 H   0  0  0  0  0  0  0  0  0  0  0  0
    0.4582   -0.4837   -2.3697 H   0  0  0  0  0  0  0  0  0  0  0  0
    1.9828   -0.1436   -1.5205 H   0  0  0  0  0  0  0  0  0  0  0  0
    0.8469   -2.3697    1.3905 H   0  0  0  0  0  0  0  0  0  0  0  0
    1.9184   -2.7446    0.0653 H   0  0  0  0  0  0  0  0  0  0  0  0
    2.1787   -1.2620    0.9990 H   0  0  0  0  0  0  0  0  0  0  0  0
   -6.4862   -0.6465    1.9412 H   0  0  0  0  0  0  0  0  0  0  0  0
   -6.1652   -2.5711    3.3800 H   0  0  0  0  0  0  0  0  0  0  0  0
   -2.3463   -3.2905    4.9457 H   0  0  0  0  0  0  0  0  0  0  0  0
   -6.6130    1.5652    1.9405 H   0  0  0  0  0  0  0  0  0  0  0  0
   -6.5026    3.5311    3.3517 H   0  0  0  0  0  0  0  0  0  0  0  0
   -2.7966    4.6695    4.9226 H   0  0  0  0  0  0  0  0  0  0  0  0
   -4.6242   -4.0175    4.5133 H   0  0  0  0  0  0  0  0  0  0  0  0
   -5.1368    5.1390    4.4929 H   0  0  0  0  0  0  0  0  0  0  0  0
  1  2  1  0  0  0  0 
  1  3  2  0  0  0  0 
  2  4  1  0  0  0  0 
  3  5  1  0  0  0  0 
  3  6  1  0  0  0  0 
  4  7  1  0  0  0  0 
  5  8  2  0  0  0  0 
  5  9  1  0  0  0  0 
  6 10  2  0  0  0  0 
  6 11  1  0  0  0  0 
  7 12  1  0  0  0  0 
  7 13  1  0  0  0  0 
  8 14  1  0  0  0  0 
  8 15  1  0  0  0  0 
  9 16  2  0  0  0  0 
 10 17  1  0  0  0  0 
 10 18  1  0  0  0  0 
 11 19  2  0  0  0  0 
 14 17  2  0  0  0  0 
 15 20  2  0  0  0  0 
 16 20  1  0  0  0  0 
 18 21  2  0  0  0  0 
 19 21  1  0  0  0  0 
  1 22  1  0  0  0  0 
  2 23  1  0  0  0  0 
  2 24  1  0  0  0  0 
  4 25  1  0  0  0  0 
  4 26  1  0  0  0  0 
  9 27  1  0  0  0  0 
 11 28  1  0  0  0  0 
 12 29  1  0  0  0  0 
 12 30  1  0  0  0  0 
 12 31  1  0  0  0  0 
 13 32  1  0  0  0  0 
 13 33  1  0  0  0  0 
 13 34  1  0  0  0  0 
 14 35  1  0  0  0  0 
 15 36  1  0  0  0  0 
 16 37  1  0  0  0  0 
 17 38  1  0  0  0  0 
 18 39  1  0  0  0  0 
 19 40  1  0  0  0  0 
 20 41  1  0  0  0  0 
 21 42  1  0  0  0  0 
M  END
> <cdk:Title>
cyclobenzaprine

> <Conformer>
1

> <SuperDrugID>
SD000660

$$$$
