nebivolol
  CDK     0628171801

 54 57  0  0  0  0  0  0  0  0999 V2000
   -9.2349    0.9763    5.8117 C   0  0  1  0  0  0  0  0  0  0  0  0
  -10.2728    2.0957    5.4786 C   0  0  1  0  0  0  0  0  0  0  0  0
   -9.0187    0.9762    7.2252 O   0  0  0  0  0  0  0  0  0  0  0  0
   -9.6212   -0.4544    5.3080 C   0  0  1  0  0  0  0  0  0  0  0  0
   -9.5758    3.3958    5.3007 N   0  0  2  0  0  0  0  0  0  0  0  0
   -9.8201   -0.3952    3.8758 O   0  0  0  0  0  0  0  0  0  0  0  0
   -8.5306   -1.5224    5.6389 C   0  0  2  0  0  0  0  0  0  0  0  0
  -10.3696    4.5756    4.8722 C   0  0  2  0  0  0  0  0  0  0  0  0
   -9.9705   -1.5789    3.1885 C   0  0  0  0  0  0  0  0  0  0  0  0
   -8.8869   -2.9078    5.0339 C   0  0  2  0  0  0  0  0  0  0  0  0
  -11.1474    4.4768    3.5250 C   0  0  1  0  0  0  0  0  0  0  0  0
   -9.5022   -2.8226    3.6865 C   0  0  0  0  0  0  0  0  0  0  0  0
  -10.5797   -1.5204    1.9185 C   0  0  0  0  0  0  0  0  0  0  0  0
  -11.8334    5.7178    3.3448 O   0  0  0  0  0  0  0  0  0  0  0  0
  -10.2935    4.1552    2.2559 C   0  0  1  0  0  0  0  0  0  0  0  0
   -9.6510   -3.9859    2.8980 C   0  0  0  0  0  0  0  0  0  0  0  0
  -10.7113   -2.6813    1.1357 C   0  0  0  0  0  0  0  0  0  0  0  0
   -9.4961    2.9752    2.5114 O   0  0  0  0  0  0  0  0  0  0  0  0
  -11.1978    3.9846    0.9955 C   0  0  2  0  0  0  0  0  0  0  0  0
  -10.2467   -3.9143    1.6253 C   0  0  0  0  0  0  0  0  0  0  0  0
   -9.0519    2.1962    1.4708 C   0  0  0  0  0  0  0  0  0  0  0  0
  -10.3654    3.5046   -0.2165 C   0  0  2  0  0  0  0  0  0  0  0  0
  -10.3662   -4.9934    0.9010 F   0  0  0  0  0  0  0  0  0  0  0  0
   -9.4929    2.3584    0.1330 C   0  0  0  0  0  0  0  0  0  0  0  0
   -8.1674    1.1487    1.7969 C   0  0  0  0  0  0  0  0  0  0  0  0
   -9.0832    1.4285   -0.8479 C   0  0  0  0  0  0  0  0  0  0  0  0
   -7.7804    0.2165    0.8192 C   0  0  0  0  0  0  0  0  0  0  0  0
   -8.2438    0.3534   -0.5016 C   0  0  0  0  0  0  0  0  0  0  0  0
   -7.8945   -0.5181   -1.4058 F   0  0  0  0  0  0  0  0  0  0  0  0
   -9.6027    4.9859    2.0793 H   0  0  0  0  0  0  0  0  0  0  0  0
  -10.5658   -0.7458    5.7788 H   0  0  0  0  0  0  0  0  0  0  0  0
   -8.2845    1.2386    5.3407 H   0  0  0  0  0  0  0  0  0  0  0  0
  -10.8025    1.8423    4.5604 H   0  0  0  0  0  0  0  0  0  0  0  0
  -11.0130    2.1842    6.2799 H   0  0  0  0  0  0  0  0  0  0  0  0
   -8.2588    0.3758    7.3784 H   0  0  0  0  0  0  0  0  0  0  0  0
   -8.8551    3.2550    4.5925 H   0  0  0  0  0  0  0  0  0  0  0  0
   -8.4095   -1.6226    6.7208 H   0  0  0  0  0  0  0  0  0  0  0  0
   -7.5716   -1.2018    5.2208 H   0  0  0  0  0  0  0  0  0  0  0  0
   -9.6732    5.4168    4.8082 H   0  0  0  0  0  0  0  0  0  0  0  0
  -11.0816    4.8042    5.6687 H   0  0  0  0  0  0  0  0  0  0  0  0
   -9.5897   -3.4218    5.6946 H   0  0  0  0  0  0  0  0  0  0  0  0
   -7.9774   -3.5139    4.9847 H   0  0  0  0  0  0  0  0  0  0  0  0
  -11.9162    3.7105    3.6383 H   0  0  0  0  0  0  0  0  0  0  0  0
  -10.9222   -0.6288    1.5548 H   0  0  0  0  0  0  0  0  0  0  0  0
  -12.4672    5.5616    2.6142 H   0  0  0  0  0  0  0  0  0  0  0  0
   -9.3222   -4.8891    3.2474 H   0  0  0  0  0  0  0  0  0  0  0  0
  -11.1422   -2.6247    0.2097 H   0  0  0  0  0  0  0  0  0  0  0  0
  -11.6863    4.9298    0.7438 H   0  0  0  0  0  0  0  0  0  0  0  0
  -11.9757    3.2422    1.1955 H   0  0  0  0  0  0  0  0  0  0  0  0
   -9.7374    4.3234   -0.5763 H   0  0  0  0  0  0  0  0  0  0  0  0
  -11.0489    3.2333   -1.0253 H   0  0  0  0  0  0  0  0  0  0  0  0
   -7.8195    1.0484    2.7536 H   0  0  0  0  0  0  0  0  0  0  0  0
   -9.4017    1.5300   -1.8159 H   0  0  0  0  0  0  0  0  0  0  0  0
   -7.1701   -0.5641    1.0741 H   0  0  0  0  0  0  0  0  0  0  0  0
  1  2  1  0  0  0  0 
  1  3  1  0  0  0  0 
  4  1  1  0  0  0  0 
  2  5  1  0  0  0  0 
  4  6  1  0  0  0  0 
  4  7  1  0  0  0  0 
  4 31  1  0  0  0  0 
  5  8  1  0  0  0  0 
  6  9  1  0  0  0  0 
  7 10  1  0  0  0  0 
 11  8  1  0  0  0  0 
  9 12  2  0  0  0  0 
  9 13  1  0  0  0  0 
 10 12  1  0  0  0  0 
 11 14  1  0  0  0  0 
 15 11  1  0  0  0  0 
 12 16  1  0  0  0  0 
 13 17  2  0  0  0  0 
 15 18  1  0  0  0  0 
 15 19  1  0  0  0  0 
 15 30  1  0  0  0  0 
 16 20  2  0  0  0  0 
 17 20  1  0  0  0  0 
 18 21  1  0  0  0  0 
 19 22  1  0  0  0  0 
 20 23  1  0  0  0  0 
 21 24  2  0  0  0  0 
 21 25  1  0  0  0  0 
 22 24  1  0  0  0  0 
 24 26  1  0  0  0  0 
 25 27  2  0  0  0  0 
 26 28  2  0  0  0  0 
 27 28  1  0  0  0  0 
 28 29  1  0  0  0  0 
  1 32  1  0  0  0  0 
  2 33  1  0  0  0  0 
  2 34  1  0  0  0  0 
  3 35  1  0  0  0  0 
  5 36  1  0  0  0  0 
  7 37  1  0  0  0  0 
  7 38  1  0  0  0  0 
  8 39  1  0  0  0  0 
  8 40  1  0  0  0  0 
 10 41  1  0  0  0  0 
 10 42  1  0  0  0  0 
 11 43  1  0  0  0  0 
 13 44  1  0  0  0  0 
 14 45  1  0  0  0  0 
 16 46  1  0  0  0  0 
 17 47  1  0  0  0  0 
 19 48  1  0  0  0  0 
 19 49  1  0  0  0  0 
 22 50  1  0  0  0  0 
 22 51  1  0  0  0  0 
 25 52  1  0  0  0  0 
 26 53  1  0  0  0  0 
 27 54  1  0  0  0  0 
M  END
> <cdk:Title>
nebivolol

> <Conformer>
1

> <SuperDrugID>
SD001683

$$$$
