blonanserin
  CDK     0628171801

 57 60  0  0  0  0  0  0  0  0999 V2000
    6.7943   -1.5358   -2.7867 F   0  0  0  0  0  0  0  0  0  0  0  0
    5.5655   -1.5248   -2.3466 C   0  0  0  0  0  0  0  0  0  0  0  0
    5.2999   -1.7715   -0.9872 C   0  0  0  0  0  0  0  0  0  0  0  0
    4.5033   -1.2534   -3.2284 C   0  0  0  0  0  0  0  0  0  0  0  0
    3.9772   -1.7378   -0.5094 C   0  0  0  0  0  0  0  0  0  0  0  0
    3.1800   -1.2325   -2.7536 C   0  0  0  0  0  0  0  0  0  0  0  0
    2.8990   -1.4870   -1.3906 C   0  0  0  0  0  0  0  0  0  0  0  0
    1.5503   -1.5045   -0.9364 C   0  0  0  0  0  0  0  0  0  0  0  0
    0.8927   -2.6891   -0.4791 C   0  0  0  0  0  0  0  0  0  0  0  0
    0.8507   -0.2756   -0.9490 C   0  0  0  0  0  0  0  0  0  0  0  0
   -0.4571   -2.5727   -0.0378 C   0  0  0  0  0  0  0  0  0  0  0  0
    1.5997   -4.0091   -0.4233 C   0  0  1  0  0  0  0  0  0  0  0  0
   -0.4945   -0.2048   -0.5332 C   0  0  0  0  0  0  0  0  0  0  0  0
   -1.0613   -1.3557   -0.0941 N   0  0  0  0  0  0  0  0  0  0  0  0
   -1.3059   -3.6919    0.4636 C   0  0  1  0  0  0  0  0  0  0  0  0
    2.1707   -4.2820    1.0035 C   0  0  1  0  0  0  0  0  0  0  0  0
   -1.2465    0.9590   -0.5477 N   0  0  0  0  0  0  0  0  0  0  0  0
   -0.8838   -4.3084    1.8361 C   0  0  1  0  0  0  0  0  0  0  0  0
    1.5218   -5.4366    1.8135 C   0  0  1  0  0  0  0  0  0  0  0  0
   -1.0966    1.9749   -1.5680 C   0  0  2  0  0  0  0  0  0  0  0  0
   -2.2350    1.2399    0.4754 C   0  0  1  0  0  0  0  0  0  0  0  0
   -0.0222   -5.6056    1.7567 C   0  0  2  0  0  0  0  0  0  0  0  0
   -0.7390    3.3291   -0.9083 C   0  0  2  0  0  0  0  0  0  0  0  0
   -1.9576    2.6201    1.1310 C   0  0  2  0  0  0  0  0  0  0  0  0
   -1.7730    3.7025    0.1091 N   0  0  1  0  0  0  0  0  0  0  0  0
   -1.5783    5.0472    0.7432 C   0  0  2  0  0  0  0  0  0  0  0  0
   -1.6269    6.2373   -0.2424 C   0  0  0  0  0  0  0  0  0  0  0  0
    6.0666   -1.9759   -0.3426 H   0  0  0  0  0  0  0  0  0  0  0  0
    4.6901   -1.0722   -4.2168 H   0  0  0  0  0  0  0  0  0  0  0  0
    3.8096   -1.9010    0.4851 H   0  0  0  0  0  0  0  0  0  0  0  0
    2.4215   -1.0322   -3.4110 H   0  0  0  0  0  0  0  0  0  0  0  0
    1.3299    0.5768   -1.2501 H   0  0  0  0  0  0  0  0  0  0  0  0
    0.9476   -4.8167   -0.7581 H   0  0  0  0  0  0  0  0  0  0  0  0
    2.4228   -4.0344   -1.1387 H   0  0  0  0  0  0  0  0  0  0  0  0
   -2.3331   -3.3255    0.5827 H   0  0  0  0  0  0  0  0  0  0  0  0
   -1.3684   -4.4624   -0.3078 H   0  0  0  0  0  0  0  0  0  0  0  0
    3.2374   -4.5120    0.9096 H   0  0  0  0  0  0  0  0  0  0  0  0
    2.1182   -3.3760    1.6169 H   0  0  0  0  0  0  0  0  0  0  0  0
   -0.3956   -3.5584    2.4655 H   0  0  0  0  0  0  0  0  0  0  0  0
   -1.8084   -4.5835    2.3546 H   0  0  0  0  0  0  0  0  0  0  0  0
    1.9686   -6.3796    1.4848 H   0  0  0  0  0  0  0  0  0  0  0  0
    1.8149   -5.2990    2.8599 H   0  0  0  0  0  0  0  0  0  0  0  0
   -2.0398    2.0805   -2.1094 H   0  0  0  0  0  0  0  0  0  0  0  0
   -0.3464    1.7315   -2.3218 H   0  0  0  0  0  0  0  0  0  0  0  0
   -3.2313    1.2492    0.0212 H   0  0  0  0  0  0  0  0  0  0  0  0
   -2.2458    0.4886    1.2718 H   0  0  0  0  0  0  0  0  0  0  0  0
   -0.2853   -6.1735    0.8607 H   0  0  0  0  0  0  0  0  0  0  0  0
   -0.2943   -6.2446    2.6029 H   0  0  0  0  0  0  0  0  0  0  0  0
   -0.6886    4.0750   -1.7038 H   0  0  0  0  0  0  0  0  0  0  0  0
    0.2493    3.2567   -0.4429 H   0  0  0  0  0  0  0  0  0  0  0  0
   -1.0648    2.5401    1.7604 H   0  0  0  0  0  0  0  0  0  0  0  0
   -2.8037    2.8609    1.7805 H   0  0  0  0  0  0  0  0  0  0  0  0
   -0.6305    5.0748    1.2901 H   0  0  0  0  0  0  0  0  0  0  0  0
   -2.3853    5.2125    1.4644 H   0  0  0  0  0  0  0  0  0  0  0  0
   -1.7056    7.1744    0.3136 H   0  0  0  0  0  0  0  0  0  0  0  0
   -0.7187    6.2748   -0.8468 H   0  0  0  0  0  0  0  0  0  0  0  0
   -2.4929    6.1485   -0.9011 H   0  0  0  0  0  0  0  0  0  0  0  0
  1  2  1  0  0  0  0 
  2  3  2  0  0  0  0 
  2  4  1  0  0  0  0 
  3  5  1  0  0  0  0 
  4  6  2  0  0  0  0 
  5  7  2  0  0  0  0 
  6  7  1  0  0  0  0 
  7  8  1  0  0  0  0 
  8  9  2  0  0  0  0 
  8 10  1  0  0  0  0 
  9 11  1  0  0  0  0 
  9 12  1  0  0  0  0 
 10 13  2  0  0  0  0 
 11 14  2  0  0  0  0 
 11 15  1  0  0  0  0 
 12 16  1  0  0  0  0 
 13 14  1  0  0  0  0 
 13 17  1  0  0  0  0 
 15 18  1  0  0  0  0 
 16 19  1  0  0  0  0 
 17 20  1  0  0  0  0 
 17 21  1  0  0  0  0 
 18 22  1  0  0  0  0 
 19 22  1  0  0  0  0 
 20 23  1  0  0  0  0 
 21 24  1  0  0  0  0 
 23 25  1  0  0  0  0 
 24 25  1  0  0  0  0 
 25 26  1  0  0  0  0 
 26 27  1  0  0  0  0 
  3 28  1  0  0  0  0 
  4 29  1  0  0  0  0 
  5 30  1  0  0  0  0 
  6 31  1  0  0  0  0 
 10 32  1  0  0  0  0 
 12 33  1  0  0  0  0 
 12 34  1  0  0  0  0 
 15 35  1  0  0  0  0 
 15 36  1  0  0  0  0 
 16 37  1  0  0  0  0 
 16 38  1  0  0  0  0 
 18 39  1  0  0  0  0 
 18 40  1  0  0  0  0 
 19 41  1  0  0  0  0 
 19 42  1  0  0  0  0 
 20 43  1  0  0  0  0 
 20 44  1  0  0  0  0 
 21 45  1  0  0  0  0 
 21 46  1  0  0  0  0 
 22 47  1  0  0  0  0 
 22 48  1  0  0  0  0 
 23 49  1  0  0  0  0 
 23 50  1  0  0  0  0 
 24 51  1  0  0  0  0 
 24 52  1  0  0  0  0 
 26 53  1  0  0  0  0 
 26 54  1  0  0  0  0 
 27 55  1  0  0  0  0 
 27 56  1  0  0  0  0 
 27 57  1  0  0  0  0 
M  END
> <cdk:Title>
blonanserin

> <Conformer>
1

> <SuperDrugID>
SD000330

$$$$
