dimethyltubocurarinium
  CDK     0628171802

 96102  0  0  0  0  0  0  0  0999 V2000
   -2.8984    4.1816   -3.8514 O   0  0  0  0  0  0  0  0  0  0  0  0
   -4.0499    5.0057   -3.6151 C   0  0  0  0  0  0  0  0  0  0  0  0
   -3.1316    2.8406   -3.6969 C   0  0  0  0  0  0  0  0  0  0  0  0
   -2.9974    2.2227   -2.4331 C   0  0  0  0  0  0  0  0  0  0  0  0
   -3.4654    2.0692   -4.8266 C   0  0  0  0  0  0  0  0  0  0  0  0
   -3.2075    0.8172   -2.2764 C   0  0  0  0  0  0  0  0  0  0  0  0
   -2.7140    3.0470   -1.3733 O   0  0  0  0  0  0  0  0  0  0  0  0
   -3.7353    2.6580   -6.0329 O   0  0  0  0  0  0  0  0  0  0  0  0
   -3.5307    0.6725   -4.7076 C   0  0  0  0  0  0  0  0  0  0  0  0
   -3.2449    0.1442   -0.9123 C   0  0  1  0  0  0  0  0  0  0  0  0
   -3.3057    0.0433   -3.4664 C   0  0  0  0  0  0  0  0  0  0  0  0
   -1.4067    3.2526   -0.9929 C   0  0  0  0  0  0  0  0  0  0  0  0
   -2.5832    2.7719   -6.8830 C   0  0  0  0  0  0  0  0  0  0  0  0
   -4.3397    0.8081    0.0713 C   0  0  1  0  0  0  0  0  0  0  0  0
   -3.2532   -1.4097   -0.9248 N   0  0  2  0  0  0  0  0  0  0  0  0
   -3.1032   -1.4230   -3.4740 C   0  0  2  0  0  0  0  0  0  0  0  0
   -1.1516    4.4644   -0.3202 C   0  0  0  0  0  0  0  0  0  0  0  0
   -0.3436    2.3295   -1.1430 C   0  0  0  0  0  0  0  0  0  0  0  0
   -4.0489    0.7059    1.6338 C   0  0  0  0  0  0  0  0  0  0  0  0
   -4.6437   -2.0247   -0.9539 C   0  0  0  0  0  0  0  0  0  0  0  0
   -2.5375   -1.9839    0.2873 C   0  0  0  0  0  0  0  0  0  0  0  0
   -2.4909   -1.9075   -2.1385 C   0  0  1  0  0  0  0  0  0  0  0  0
    0.1007    4.7102    0.2681 C   0  0  0  0  0  0  0  0  0  0  0  0
    0.9011    2.5645   -0.5310 C   0  0  0  0  0  0  0  0  0  0  0  0
   -2.9535    1.4624    2.1976 C   0  0  0  0  0  0  0  0  0  0  0  0
   -4.8901   -0.1173    2.4672 C   0  0  0  0  0  0  0  0  0  0  0  0
    1.1280    3.7399    0.2216 C   0  0  0  0  0  0  0  0  0  0  0  0
   -2.7270    1.3763    3.5882 C   0  0  0  0  0  0  0  0  0  0  0  0
   -4.5798   -0.1977    3.8336 C   0  0  0  0  0  0  0  0  0  0  0  0
    2.4172    3.9667    0.9397 C   0  0  1  0  0  0  0  0  0  0  0  0
   -1.7999    2.1591    4.2217 O   0  0  0  0  0  0  0  0  0  0  0  0
   -3.5320    0.5506    4.3995 C   0  0  0  0  0  0  0  0  0  0  0  0
    2.3098    4.1907    2.4984 C   0  0  1  0  0  0  0  0  0  0  0  0
   -0.4743    1.9644    3.9382 C   0  0  0  0  0  0  0  0  0  0  0  0
   -3.2949    0.4556    5.7448 O   0  0  0  0  0  0  0  0  0  0  0  0
    1.6037    3.0223    3.1374 C   0  0  0  0  0  0  0  0  0  0  0  0
    3.6212    4.5155    3.2273 N   0  0  2  0  0  0  0  0  0  0  0  0
    0.1948    3.0110    3.2751 C   0  0  0  0  0  0  0  0  0  0  0  0
    0.2620    0.8559    4.4123 C   0  0  0  0  0  0  0  0  0  0  0  0
   -4.1073    1.3547    6.5205 C   0  0  0  0  0  0  0  0  0  0  0  0
    2.3493    1.9511    3.6966 C   0  0  0  0  0  0  0  0  0  0  0  0
    3.3340    4.9806    4.6484 C   0  0  0  0  0  0  0  0  0  0  0  0
    4.3829    5.6480    2.5636 C   0  0  0  0  0  0  0  0  0  0  0  0
    4.5066    3.2850    3.2428 C   0  0  1  0  0  0  0  0  0  0  0  0
   -0.3639   -0.1496    5.1050 O   0  0  0  0  0  0  0  0  0  0  0  0
    1.6658    0.8560    4.2775 C   0  0  0  0  0  0  0  0  0  0  0  0
    3.8329    2.0003    3.8073 C   0  0  2  0  0  0  0  0  0  0  0  0
   -0.5396   -1.3684    4.3616 C   0  0  0  0  0  0  0  0  0  0  0  0
   -2.2888    0.4455   -0.4832 H   0  0  0  0  0  0  0  0  0  0  0  0
    1.6705    5.0726    2.6220 H   0  0  0  0  0  0  0  0  0  0  0  0
   -3.7802    6.0316   -3.8686 H   0  0  0  0  0  0  0  0  0  0  0  0
   -4.8965    4.7103   -4.2405 H   0  0  0  0  0  0  0  0  0  0  0  0
   -4.3416    4.9770   -2.5630 H   0  0  0  0  0  0  0  0  0  0  0  0
   -3.7121    0.1120   -5.5448 H   0  0  0  0  0  0  0  0  0  0  0  0
   -2.9063    3.2290   -7.8183 H   0  0  0  0  0  0  0  0  0  0  0  0
   -1.8226    3.4129   -6.4314 H   0  0  0  0  0  0  0  0  0  0  0  0
   -2.1498    1.7944   -7.1124 H   0  0  0  0  0  0  0  0  0  0  0  0
   -4.5003    1.8722   -0.2678 H   0  0  0  0  0  0  0  0  0  0  0  0
   -5.3292    0.3855   -0.2564 H   0  0  0  0  0  0  0  0  0  0  0  0
   -2.4019   -1.6945   -4.2711 H   0  0  0  0  0  0  0  0  0  0  0  0
   -4.0484   -1.9276   -3.6881 H   0  0  0  0  0  0  0  0  0  0  0  0
   -1.8890    5.1693   -0.2361 H   0  0  0  0  0  0  0  0  0  0  0  0
   -0.4715    1.4676   -1.6759 H   0  0  0  0  0  0  0  0  0  0  0  0
   -5.2784   -1.5474   -1.7044 H   0  0  0  0  0  0  0  0  0  0  0  0
   -5.1584   -1.9312    0.0046 H   0  0  0  0  0  0  0  0  0  0  0  0
   -4.6125   -3.0953   -1.1804 H   0  0  0  0  0  0  0  0  0  0  0  0
   -2.4326   -3.0718    0.2247 H   0  0  0  0  0  0  0  0  0  0  0  0
   -1.5309   -1.5707    0.3972 H   0  0  0  0  0  0  0  0  0  0  0  0
   -3.0724   -1.7856    1.2141 H   0  0  0  0  0  0  0  0  0  0  0  0
   -1.4536   -1.5494   -2.1028 H   0  0  0  0  0  0  0  0  0  0  0  0
   -2.4413   -3.0020   -2.1748 H   0  0  0  0  0  0  0  0  0  0  0  0
    0.2495    5.5970    0.7551 H   0  0  0  0  0  0  0  0  0  0  0  0
    1.6387    1.8622   -0.6315 H   0  0  0  0  0  0  0  0  0  0  0  0
   -2.2806    2.1093    1.6693 H   0  0  0  0  0  0  0  0  0  0  0  0
   -5.7373   -0.7004    2.1640 H   0  0  0  0  0  0  0  0  0  0  0  0
   -5.1407   -0.8039    4.4341 H   0  0  0  0  0  0  0  0  0  0  0  0
    3.1005    3.1370    0.7463 H   0  0  0  0  0  0  0  0  0  0  0  0
    2.8577    4.8482    0.4729 H   0  0  0  0  0  0  0  0  0  0  0  0
   -0.3621    3.7940    2.9257 H   0  0  0  0  0  0  0  0  0  0  0  0
   -3.8866    1.1831    7.5735 H   0  0  0  0  0  0  0  0  0  0  0  0
   -3.8808    2.3988    6.2910 H   0  0  0  0  0  0  0  0  0  0  0  0
   -5.1742    1.1727    6.3653 H   0  0  0  0  0  0  0  0  0  0  0  0
    4.2585    5.1665    5.2043 H   0  0  0  0  0  0  0  0  0  0  0  0
    2.7539    5.9098    4.6493 H   0  0  0  0  0  0  0  0  0  0  0  0
    2.7622    4.2502    5.2256 H   0  0  0  0  0  0  0  0  0  0  0  0
    3.7404    6.5194    2.4089 H   0  0  0  0  0  0  0  0  0  0  0  0
    4.7918    5.3624    1.5917 H   0  0  0  0  0  0  0  0  0  0  0  0
    5.2378    5.9703    3.1656 H   0  0  0  0  0  0  0  0  0  0  0  0
    4.8511    3.0529    2.2303 H   0  0  0  0  0  0  0  0  0  0  0  0
    5.4178    3.4767    3.8208 H   0  0  0  0  0  0  0  0  0  0  0  0
    2.1977    0.0689    4.6582 H   0  0  0  0  0  0  0  0  0  0  0  0
    4.2650    1.1230    3.3189 H   0  0  0  0  0  0  0  0  0  0  0  0
    4.0819    1.9419    4.8720 H   0  0  0  0  0  0  0  0  0  0  0  0
   -1.0517   -2.0810    5.0094 H   0  0  0  0  0  0  0  0  0  0  0  0
   -1.1535   -1.2081    3.4719 H   0  0  0  0  0  0  0  0  0  0  0  0
    0.4188   -1.8051    4.0712 H   0  0  0  0  0  0  0  0  0  0  0  0
  1  2  1  0  0  0  0 
  1  3  1  0  0  0  0 
  3  4  2  0  0  0  0 
  3  5  1  0  0  0  0 
  4  6  1  0  0  0  0 
  4  7  1  0  0  0  0 
  5  8  1  0  0  0  0 
  5  9  2  0  0  0  0 
 10  6  1  0  0  0  0 
  6 11  2  0  0  0  0 
  7 12  1  0  0  0  0 
  8 13  1  0  0  0  0 
  9 11  1  0  0  0  0 
 10 14  1  0  0  0  0 
 10 15  1  0  0  0  0 
 10 49  1  0  0  0  0 
 11 16  1  0  0  0  0 
 12 17  2  0  0  0  0 
 12 18  1  0  0  0  0 
 14 19  1  0  0  0  0 
 15 20  1  0  0  0  0 
 15 21  1  0  0  0  0 
 15 22  1  0  0  0  0 
 16 22  1  0  0  0  0 
 17 23  1  0  0  0  0 
 18 24  2  0  0  0  0 
 19 25  2  0  0  0  0 
 19 26  1  0  0  0  0 
 23 27  2  0  0  0  0 
 24 27  1  0  0  0  0 
 25 28  1  0  0  0  0 
 26 29  2  0  0  0  0 
 27 30  1  0  0  0  0 
 28 31  1  0  0  0  0 
 28 32  2  0  0  0  0 
 29 32  1  0  0  0  0 
 33 30  1  0  0  0  0 
 31 34  1  0  0  0  0 
 32 35  1  0  0  0  0 
 33 36  1  0  0  0  0 
 33 37  1  0  0  0  0 
 33 50  1  0  0  0  0 
 34 38  2  0  0  0  0 
 34 39  1  0  0  0  0 
 35 40  1  0  0  0  0 
 36 38  1  0  0  0  0 
 36 41  2  0  0  0  0 
 37 42  1  0  0  0  0 
 37 43  1  0  0  0  0 
 37 44  1  0  0  0  0 
 39 45  1  0  0  0  0 
 39 46  2  0  0  0  0 
 41 46  1  0  0  0  0 
 41 47  1  0  0  0  0 
 44 47  1  0  0  0  0 
 45 48  1  0  0  0  0 
  2 51  1  0  0  0  0 
  2 52  1  0  0  0  0 
  2 53  1  0  0  0  0 
  9 54  1  0  0  0  0 
 13 55  1  0  0  0  0 
 13 56  1  0  0  0  0 
 13 57  1  0  0  0  0 
 14 58  1  0  0  0  0 
 14 59  1  0  0  0  0 
 16 60  1  0  0  0  0 
 16 61  1  0  0  0  0 
 17 62  1  0  0  0  0 
 18 63  1  0  0  0  0 
 20 64  1  0  0  0  0 
 20 65  1  0  0  0  0 
 20 66  1  0  0  0  0 
 21 67  1  0  0  0  0 
 21 68  1  0  0  0  0 
 21 69  1  0  0  0  0 
 22 70  1  0  0  0  0 
 22 71  1  0  0  0  0 
 23 72  1  0  0  0  0 
 24 73  1  0  0  0  0 
 25 74  1  0  0  0  0 
 26 75  1  0  0  0  0 
 29 76  1  0  0  0  0 
 30 77  1  0  0  0  0 
 30 78  1  0  0  0  0 
 38 79  1  0  0  0  0 
 40 80  1  0  0  0  0 
 40 81  1  0  0  0  0 
 40 82  1  0  0  0  0 
 42 83  1  0  0  0  0 
 42 84  1  0  0  0  0 
 42 85  1  0  0  0  0 
 43 86  1  0  0  0  0 
 43 87  1  0  0  0  0 
 43 88  1  0  0  0  0 
 44 89  1  0  0  0  0 
 44 90  1  0  0  0  0 
 46 91  1  0  0  0  0 
 47 92  1  0  0  0  0 
 47 93  1  0  0  0  0 
 48 94  1  0  0  0  0 
 48 95  1  0  0  0  0 
 48 96  1  0  0  0  0 
M  CHG  1  15   1
M  CHG  1  37   1
M  END
> <cdk:Title>
dimethyltubocurarinium

> <Conformer>
1

> <SuperDrugID>
SD000807

$$$$
