ulipristal
  CDK     0628171801

 72 76  0  0  0  0  0  0  0  0999 V2000
   -2.0428   -5.1755    3.3004 C   0  0  0  0  0  0  0  0  0  0  0  0
   -3.1185   -6.3194    3.0820 C   0  0  1  0  0  0  0  0  0  0  0  0
   -4.5507   -6.0007    3.6321 C   0  0  2  0  0  0  0  0  0  0  0  0
   -3.2936   -6.5726    1.5437 C   0  0  2  0  0  0  0  0  0  0  0  0
   -2.7531   -7.5700    3.9793 C   0  0  2  0  0  0  0  0  0  0  0  0
   -5.2320   -4.7882    2.9091 C   0  0  1  0  0  0  0  0  0  0  0  0
   -4.3329   -6.0045    5.1624 C   0  0  1  0  0  0  0  0  0  0  0  0
   -4.0322   -5.4175    0.7621 C   0  0  1  0  0  0  0  0  0  0  0  0
   -1.3080   -7.9719    3.8951 C   0  0  0  0  0  0  0  0  0  0  0  0
   -3.5467   -8.7162    3.5736 O   0  0  0  0  0  0  0  0  0  0  0  0
   -3.2577   -7.1011    5.3949 C   0  0  1  0  0  0  0  0  0  0  0  0
   -5.3347   -5.1140    1.4444 C   0  0  0  0  0  0  0  0  0  0  0  0
   -6.5767   -4.3237    3.5601 C   0  0  1  0  0  0  0  0  0  0  0  0
   -3.1714   -4.2272    0.4033 C   0  0  0  0  0  0  0  0  0  0  0  0
   -0.7461   -8.6895    2.7319 C   0  0  0  0  0  0  0  0  0  0  0  0
   -0.5105   -7.7110    4.8265 O   0  0  0  0  0  0  0  0  0  0  0  0
   -6.5522   -5.1653    0.8092 C   0  0  0  0  0  0  0  0  0  0  0  0
   -7.7324   -5.1584    2.9777 C   0  0  1  0  0  0  0  0  0  0  0  0
   -1.9448   -4.4300   -0.2796 C   0  0  0  0  0  0  0  0  0  0  0  0
   -3.5215   -2.8816    0.6897 C   0  0  0  0  0  0  0  0  0  0  0  0
   -7.7423   -4.9865    1.5218 C   0  0  0  0  0  0  0  0  0  0  0  0
   -6.6508   -5.3668   -0.6566 C   0  0  2  0  0  0  0  0  0  0  0  0
   -1.0729   -3.3653   -0.5681 C   0  0  0  0  0  0  0  0  0  0  0  0
   -2.6389   -1.8175    0.4256 C   0  0  0  0  0  0  0  0  0  0  0  0
   -8.9055   -4.6508    0.9187 C   0  0  0  0  0  0  0  0  0  0  0  0
   -8.0589   -5.2492   -1.3152 C   0  0  1  0  0  0  0  0  0  0  0  0
   -1.3835   -2.0392   -0.1875 C   0  0  0  0  0  0  0  0  0  0  0  0
   -9.0450   -4.5826   -0.4487 C   0  0  0  0  0  0  0  0  0  0  0  0
   -0.4834   -1.0056   -0.3985 N   0  0  0  0  0  0  0  0  0  0  0  0
  -10.0611   -4.0513   -0.9548 O   0  0  0  0  0  0  0  0  0  0  0  0
    0.9224   -1.1672   -0.1033 C   0  0  0  0  0  0  0  0  0  0  0  0
   -0.9024    0.2827   -0.8988 C   0  0  0  0  0  0  0  0  0  0  0  0
   -3.5843   -9.9857    4.0835 C   0  0  0  0  0  0  0  0  0  0  0  0
   -4.5175  -10.9448    3.4828 C   0  0  0  0  0  0  0  0  0  0  0  0
   -2.8550  -10.3331    5.0424 O   0  0  0  0  0  0  0  0  0  0  0  0
   -2.3663   -4.2085    2.9329 H   0  0  0  0  0  0  0  0  0  0  0  0
   -1.1137   -5.4255    2.7851 H   0  0  0  0  0  0  0  0  0  0  0  0
   -1.7953   -5.0324    4.3519 H   0  0  0  0  0  0  0  0  0  0  0  0
   -5.2203   -6.8518    3.4367 H   0  0  0  0  0  0  0  0  0  0  0  0
   -3.8809   -7.4847    1.3978 H   0  0  0  0  0  0  0  0  0  0  0  0
   -2.3211   -6.7852    1.1007 H   0  0  0  0  0  0  0  0  0  0  0  0
   -4.5791   -3.9288    3.0467 H   0  0  0  0  0  0  0  0  0  0  0  0
   -3.9762   -5.0275    5.5016 H   0  0  0  0  0  0  0  0  0  0  0  0
   -5.2539   -6.2423    5.7006 H   0  0  0  0  0  0  0  0  0  0  0  0
   -4.2037   -5.8763   -0.2103 H   0  0  0  0  0  0  0  0  0  0  0  0
   -3.6843   -7.9290    5.9649 H   0  0  0  0  0  0  0  0  0  0  0  0
   -2.4533   -6.6767    6.0008 H   0  0  0  0  0  0  0  0  0  0  0  0
   -6.5557   -4.5134    4.6791 H   0  0  0  0  0  0  0  0  0  0  0  0
   -6.7580   -3.2440    3.2362 H   0  0  0  0  0  0  0  0  0  0  0  0
   -0.2643   -9.6098    3.0658 H   0  0  0  0  0  0  0  0  0  0  0  0
   -0.0080   -8.0611    2.2334 H   0  0  0  0  0  0  0  0  0  0  0  0
   -1.5147   -8.9569    2.0072 H   0  0  0  0  0  0  0  0  0  0  0  0
   -7.5860   -6.2183    3.2102 H   0  0  0  0  0  0  0  0  0  0  0  0
   -8.6644   -4.8477    3.4633 H   0  0  0  0  0  0  0  0  0  0  0  0
   -1.6635   -5.3660   -0.5783 H   0  0  0  0  0  0  0  0  0  0  0  0
   -4.4228   -2.6496    1.1092 H   0  0  0  0  0  0  0  0  0  0  0  0
   -6.2653   -6.3573   -0.9150 H   0  0  0  0  0  0  0  0  0  0  0  0
   -6.0160   -4.6181   -1.1410 H   0  0  0  0  0  0  0  0  0  0  0  0
   -0.1991   -3.5697   -1.0603 H   0  0  0  0  0  0  0  0  0  0  0  0
   -2.9180   -0.8735    0.7023 H   0  0  0  0  0  0  0  0  0  0  0  0
   -9.7147   -4.4598    1.4656 H   0  0  0  0  0  0  0  0  0  0  0  0
   -7.9811   -4.7140   -2.2661 H   0  0  0  0  0  0  0  0  0  0  0  0
   -8.4466   -6.2476   -1.5360 H   0  0  0  0  0  0  0  0  0  0  0  0
    1.2812   -0.3343    0.5049 H   0  0  0  0  0  0  0  0  0  0  0  0
    1.4926   -1.1920   -1.0341 H   0  0  0  0  0  0  0  0  0  0  0  0
    1.1373   -2.0825    0.4536 H   0  0  0  0  0  0  0  0  0  0  0  0
   -0.2845    0.5777   -1.7496 H   0  0  0  0  0  0  0  0  0  0  0  0
   -1.9413    0.2939   -1.2358 H   0  0  0  0  0  0  0  0  0  0  0  0
   -0.7913    1.0321   -0.1121 H   0  0  0  0  0  0  0  0  0  0  0  0
   -4.4594  -11.9132    3.9821 H   0  0  0  0  0  0  0  0  0  0  0  0
   -5.5325  -10.5594    3.5778 H   0  0  0  0  0  0  0  0  0  0  0  0
   -4.2858  -11.0790    2.4250 H   0  0  0  0  0  0  0  0  0  0  0  0
  2  1  1  0  0  0  0 
  2  3  1  0  0  0  0 
  2  4  1  0  0  0  0 
  2  5  1  0  0  0  0 
  3  6  1  0  0  0  0 
  3  7  1  0  0  0  0 
  8  4  1  0  0  0  0 
  5  9  1  0  0  0  0 
  5 10  1  0  0  0  0 
  5 11  1  0  0  0  0 
  6 12  1  0  0  0  0 
  6 13  1  0  0  0  0 
  7 11  1  0  0  0  0 
  8 12  1  0  0  0  0 
  8 14  1  0  0  0  0 
  9 15  1  0  0  0  0 
  9 16  2  0  0  0  0 
 12 17  2  0  0  0  0 
 13 18  1  0  0  0  0 
 14 19  2  0  0  0  0 
 14 20  1  0  0  0  0 
 17 21  1  0  0  0  0 
 17 22  1  0  0  0  0 
 18 21  1  0  0  0  0 
 19 23  1  0  0  0  0 
 20 24  2  0  0  0  0 
 21 25  2  0  0  0  0 
 22 26  1  0  0  0  0 
 23 27  2  0  0  0  0 
 24 27  1  0  0  0  0 
 25 28  1  0  0  0  0 
 26 28  1  0  0  0  0 
 27 29  1  0  0  0  0 
 28 30  2  0  0  0  0 
 29 31  1  0  0  0  0 
 29 32  1  0  0  0  0 
 10 33  1  0  0  0  0 
 33 34  1  0  0  0  0 
 33 35  2  0  0  0  0 
 36  1  1  0  0  0  0 
 37  1  1  0  0  0  0 
 38  1  1  0  0  0  0 
  3 39  1  0  0  0  0 
 40  4  1  0  0  0  0 
 41  4  1  0  0  0  0 
  6 42  1  0  0  0  0 
 43  7  1  0  0  0  0 
 44  7  1  0  0  0  0 
  8 45  1  0  0  0  0 
 46 11  1  0  0  0  0 
 47 11  1  0  0  0  0 
 48 13  1  0  0  0  0 
 49 13  1  0  0  0  0 
 50 15  1  0  0  0  0 
 51 15  1  0  0  0  0 
 52 15  1  0  0  0  0 
 53 18  1  0  0  0  0 
 54 18  1  0  0  0  0 
 55 19  1  0  0  0  0 
 56 20  1  0  0  0  0 
 57 22  1  0  0  0  0 
 58 22  1  0  0  0  0 
 59 23  1  0  0  0  0 
 60 24  1  0  0  0  0 
 61 25  1  0  0  0  0 
 62 26  1  0  0  0  0 
 63 26  1  0  0  0  0 
 64 31  1  0  0  0  0 
 65 31  1  0  0  0  0 
 66 31  1  0  0  0  0 
 67 32  1  0  0  0  0 
 68 32  1  0  0  0  0 
 69 32  1  0  0  0  0 
 70 34  1  0  0  0  0 
 71 34  1  0  0  0  0 
 72 34  1  0  0  0  0 
M  END
> <cdk:Title>
ulipristal

> <Conformer>
1

> <SuperDrugID>
SD003398

$$$$
