benzoctamine
  CDK     0628171801

 38 41  0  0  0  0  0  0  0  0999 V2000
   -0.4574    0.7479    0.9931 C   0  0  2  0  0  0  0  0  0  0  0  0
   -0.1003   -0.4856    0.2553 N   0  0  2  0  0  0  0  0  0  0  0  0
   -1.5026    0.4976    2.1309 C   0  0  1  0  0  0  0  0  0  0  0  0
    0.9804   -0.3096   -0.7333 C   0  0  0  0  0  0  0  0  0  0  0  0
   -1.0614   -0.4651    3.2279 C   0  0  0  0  0  0  0  0  0  0  0  0
   -1.9348    1.7541    2.8752 C   0  0  0  0  0  0  0  0  0  0  0  0
   -2.8525   -0.0940    1.5477 C   0  0  1  0  0  0  0  0  0  0  0  0
   -2.0374   -0.6796    4.2512 C   0  0  0  0  0  0  0  0  0  0  0  0
    0.1829   -1.1297    3.3323 C   0  0  0  0  0  0  0  0  0  0  0  0
   -2.8968    1.5293    3.9085 C   0  0  0  0  0  0  0  0  0  0  0  0
   -1.4932    3.0766    2.6346 C   0  0  0  0  0  0  0  0  0  0  0  0
   -3.9059   -0.3535    2.6960 C   0  0  1  0  0  0  0  0  0  0  0  0
   -3.3117    0.0944    4.0754 C   0  0  1  0  0  0  0  0  0  0  0  0
   -1.7770   -1.5535    5.3250 C   0  0  0  0  0  0  0  0  0  0  0  0
    0.4381   -2.0037    4.4061 C   0  0  0  0  0  0  0  0  0  0  0  0
   -3.3909    2.5999    4.6799 C   0  0  0  0  0  0  0  0  0  0  0  0
   -1.9987    4.1446    3.3978 C   0  0  0  0  0  0  0  0  0  0  0  0
   -0.5373   -2.2144    5.3974 C   0  0  0  0  0  0  0  0  0  0  0  0
   -2.9397    3.9071    4.4183 C   0  0  0  0  0  0  0  0  0  0  0  0
   -0.8658    1.4643    0.2759 H   0  0  0  0  0  0  0  0  0  0  0  0
    0.4428    1.1847    1.4350 H   0  0  0  0  0  0  0  0  0  0  0  0
   -0.9308   -0.7761   -0.2643 H   0  0  0  0  0  0  0  0  0  0  0  0
    1.9015    0.0176   -0.2455 H   0  0  0  0  0  0  0  0  0  0  0  0
    1.1657   -1.2688   -1.2174 H   0  0  0  0  0  0  0  0  0  0  0  0
    0.6885    0.4185   -1.4935 H   0  0  0  0  0  0  0  0  0  0  0  0
   -3.2780    0.6053    0.8206 H   0  0  0  0  0  0  0  0  0  0  0  0
   -2.6619   -1.0322    1.0207 H   0  0  0  0  0  0  0  0  0  0  0  0
    0.9156   -0.9884    2.6370 H   0  0  0  0  0  0  0  0  0  0  0  0
   -0.8085    3.2784    1.9043 H   0  0  0  0  0  0  0  0  0  0  0  0
   -4.8291    0.1977    2.4940 H   0  0  0  0  0  0  0  0  0  0  0  0
   -4.1656   -1.4164    2.7344 H   0  0  0  0  0  0  0  0  0  0  0  0
   -4.0263   -0.0587    4.8902 H   0  0  0  0  0  0  0  0  0  0  0  0
   -2.4788   -1.7146    6.0507 H   0  0  0  0  0  0  0  0  0  0  0  0
    1.3391   -2.4876    4.4645 H   0  0  0  0  0  0  0  0  0  0  0  0
   -4.0769    2.4374    5.4199 H   0  0  0  0  0  0  0  0  0  0  0  0
   -1.6820    5.0989    3.2072 H   0  0  0  0  0  0  0  0  0  0  0  0
   -0.3399   -2.8478    6.1742 H   0  0  0  0  0  0  0  0  0  0  0  0
   -3.2974    4.6903    4.9681 H   0  0  0  0  0  0  0  0  0  0  0  0
  1  2  1  0  0  0  0 
  1  3  1  0  0  0  0 
  2  4  1  0  0  0  0 
  3  5  1  0  0  0  0 
  3  6  1  0  0  0  0 
  3  7  1  0  0  0  0 
  5  8  2  0  0  0  0 
  5  9  1  0  0  0  0 
  6 10  2  0  0  0  0 
  6 11  1  0  0  0  0 
  7 12  1  0  0  0  0 
  8 13  1  0  0  0  0 
  8 14  1  0  0  0  0 
  9 15  2  0  0  0  0 
 10 13  1  0  0  0  0 
 10 16  1  0  0  0  0 
 11 17  2  0  0  0  0 
 12 13  1  0  0  0  0 
 14 18  2  0  0  0  0 
 15 18  1  0  0  0  0 
 16 19  2  0  0  0  0 
 17 19  1  0  0  0  0 
  1 20  1  0  0  0  0 
  1 21  1  0  0  0  0 
  2 22  1  0  0  0  0 
  4 23  1  0  0  0  0 
  4 24  1  0  0  0  0 
  4 25  1  0  0  0  0 
  7 26  1  0  0  0  0 
  7 27  1  0  0  0  0 
  9 28  1  0  0  0  0 
 11 29  1  0  0  0  0 
 12 30  1  0  0  0  0 
 12 31  1  0  0  0  0 
 13 32  1  0  0  0  0 
 14 33  1  0  0  0  0 
 15 34  1  0  0  0  0 
 16 35  1  0  0  0  0 
 17 36  1  0  0  0  0 
 18 37  1  0  0  0  0 
 19 38  1  0  0  0  0 
M  END
> <cdk:Title>
benzoctamine

> <Conformer>
1

> <SuperDrugID>
SD000273

$$$$
