fomepizole
  CDK     0628171801

 12 12  0  0  0  0  0  0  0  0999 V2000
   -1.7846    1.6501    0.7123 C   0  0  0  0  0  0  0  0  0  0  0  0
   -0.4239    1.2238    0.3480 C   0  0  0  0  0  0  0  0  0  0  0  0
    0.0518   -0.0705    0.1962 C   0  0  0  0  0  0  0  0  0  0  0  0
    1.3464    0.0157   -0.1399 N   0  0  0  0  0  0  0  0  0  0  0  0
    1.7284    1.2526   -0.2132 N   0  0  0  0  0  0  0  0  0  0  0  0
    0.6741    2.0331    0.0787 C   0  0  0  0  0  0  0  0  0  0  0  0
   -2.2013    2.2670   -0.0853 H   0  0  0  0  0  0  0  0  0  0  0  0
   -2.4351    0.7857    0.8637 H   0  0  0  0  0  0  0  0  0  0  0  0
   -1.7520    2.2302    1.6359 H   0  0  0  0  0  0  0  0  0  0  0  0
   -0.4800   -0.9334    0.3166 H   0  0  0  0  0  0  0  0  0  0  0  0
    1.9219   -0.7476   -0.3064 H   0  0  0  0  0  0  0  0  0  0  0  0
    0.6878    3.0543    0.0970 H   0  0  0  0  0  0  0  0  0  0  0  0
  1  2  1  0  0  0  0 
  2  3  2  0  0  0  0 
  3  4  1  0  0  0  0 
  4  5  1  0  0  0  0 
  5  6  2  0  0  0  0 
  2  6  1  0  0  0  0 
  1  7  1  0  0  0  0 
  1  8  1  0  0  0  0 
  1  9  1  0  0  0  0 
  3 10  1  0  0  0  0 
  4 11  1  0  0  0  0 
  6 12  1  0  0  0  0 
M  END
> <cdk:Title>
fomepizole

> <Conformer>
1

> <SuperDrugID>
SD001106

$$$$
