cyprodenate
  CDK     0628171802

 41 41  0  0  0  0  0  0  0  0999 V2000
    0.8444   -5.3139   -2.1419 C   0  0  1  0  0  0  0  0  0  0  0  0
   -0.1769   -4.3233   -1.5147 C   0  0  2  0  0  0  0  0  0  0  0  0
    0.5104   -6.8241   -1.9062 C   0  0  2  0  0  0  0  0  0  0  0  0
    0.1031   -2.9108   -1.8424 C   0  0  0  0  0  0  0  0  0  0  0  0
    0.5069   -7.2267   -0.3957 C   0  0  1  0  0  0  0  0  0  0  0  0
    1.5001   -7.7347   -2.7010 C   0  0  2  0  0  0  0  0  0  0  0  0
    0.4743   -2.0532   -0.8445 O   0  0  0  0  0  0  0  0  0  0  0  0
   -0.0239   -2.5131   -3.0259 O   0  0  0  0  0  0  0  0  0  0  0  0
    0.2247   -8.7369   -0.1877 C   0  0  2  0  0  0  0  0  0  0  0  0
    1.2156   -9.2458   -2.4911 C   0  0  2  0  0  0  0  0  0  0  0  0
    0.7131   -0.6472   -0.9894 C   0  0  2  0  0  0  0  0  0  0  0  0
    1.2100   -9.6252   -0.9881 C   0  0  2  0  0  0  0  0  0  0  0  0
    1.1179   -0.0137    0.3635 C   0  0  2  0  0  0  0  0  0  0  0  0
    2.2907   -0.6377    1.0623 N   0  0  2  0  0  0  0  0  0  0  0  0
    2.5336    0.0022    2.3921 C   0  0  0  0  0  0  0  0  0  0  0  0
    3.5389   -0.7126    0.2465 C   0  0  0  0  0  0  0  0  0  0  0  0
    0.8752   -5.1332   -3.2213 H   0  0  0  0  0  0  0  0  0  0  0  0
    1.8409   -5.0969   -1.7427 H   0  0  0  0  0  0  0  0  0  0  0  0
   -0.1641   -4.4331   -0.4289 H   0  0  0  0  0  0  0  0  0  0  0  0
   -1.1848   -4.5626   -1.8624 H   0  0  0  0  0  0  0  0  0  0  0  0
   -0.4951   -7.0043   -2.3051 H   0  0  0  0  0  0  0  0  0  0  0  0
    1.4720   -6.9750    0.0533 H   0  0  0  0  0  0  0  0  0  0  0  0
   -0.2667   -6.6747    0.1411 H   0  0  0  0  0  0  0  0  0  0  0  0
    2.5266   -7.5216   -2.3873 H   0  0  0  0  0  0  0  0  0  0  0  0
    1.4278   -7.5162   -3.7703 H   0  0  0  0  0  0  0  0  0  0  0  0
   -0.7978   -8.9579   -0.5072 H   0  0  0  0  0  0  0  0  0  0  0  0
    0.3020   -8.9778    0.8759 H   0  0  0  0  0  0  0  0  0  0  0  0
    1.9779   -9.8348   -3.0086 H   0  0  0  0  0  0  0  0  0  0  0  0
    0.2454   -9.4960   -2.9305 H   0  0  0  0  0  0  0  0  0  0  0  0
   -0.2038   -0.1651   -1.3399 H   0  0  0  0  0  0  0  0  0  0  0  0
    1.4920   -0.4710   -1.7352 H   0  0  0  0  0  0  0  0  0  0  0  0
    0.9198  -10.6748   -0.8798 H   0  0  0  0  0  0  0  0  0  0  0  0
    2.2181   -9.5131   -0.5780 H   0  0  0  0  0  0  0  0  0  0  0  0
    0.2432   -0.0964    1.0176 H   0  0  0  0  0  0  0  0  0  0  0  0
    1.3059    1.0529    0.2005 H   0  0  0  0  0  0  0  0  0  0  0  0
    1.6409   -0.0627    3.0190 H   0  0  0  0  0  0  0  0  0  0  0  0
    3.3393   -0.5045    2.9267 H   0  0  0  0  0  0  0  0  0  0  0  0
    2.8024    1.0557    2.2768 H   0  0  0  0  0  0  0  0  0  0  0  0
    3.3991   -1.3878   -0.5982 H   0  0  0  0  0  0  0  0  0  0  0  0
    4.3670   -1.1152    0.8350 H   0  0  0  0  0  0  0  0  0  0  0  0
    3.8221    0.2744   -0.1262 H   0  0  0  0  0  0  0  0  0  0  0  0
  1  2  1  0  0  0  0 
  1  3  1  0  0  0  0 
  2  4  1  0  0  0  0 
  3  5  1  0  0  0  0 
  3  6  1  0  0  0  0 
  4  7  1  0  0  0  0 
  4  8  2  0  0  0  0 
  5  9  1  0  0  0  0 
  6 10  1  0  0  0  0 
  7 11  1  0  0  0  0 
  9 12  1  0  0  0  0 
 10 12  1  0  0  0  0 
 11 13  1  0  0  0  0 
 13 14  1  0  0  0  0 
 14 15  1  0  0  0  0 
 14 16  1  0  0  0  0 
  1 17  1  0  0  0  0 
  1 18  1  0  0  0  0 
  2 19  1  0  0  0  0 
  2 20  1  0  0  0  0 
  3 21  1  0  0  0  0 
  5 22  1  0  0  0  0 
  5 23  1  0  0  0  0 
  6 24  1  0  0  0  0 
  6 25  1  0  0  0  0 
  9 26  1  0  0  0  0 
  9 27  1  0  0  0  0 
 10 28  1  0  0  0  0 
 10 29  1  0  0  0  0 
 11 30  1  0  0  0  0 
 11 31  1  0  0  0  0 
 12 32  1  0  0  0  0 
 12 33  1  0  0  0  0 
 13 34  1  0  0  0  0 
 13 35  1  0  0  0  0 
 15 36  1  0  0  0  0 
 15 37  1  0  0  0  0 
 15 38  1  0  0  0  0 
 16 39  1  0  0  0  0 
 16 40  1  0  0  0  0 
 16 41  1  0  0  0  0 
M  END
> <cdk:Title>
cyprodenate

> <Conformer>
1

> <SuperDrugID>
SD000673

$$$$
