ivacaftor
  CDK     0628171801

 57 59  0  0  0  0  0  0  0  0999 V2000
    1.6815    1.5091    3.2982 C   0  0  1  0  0  0  0  0  0  0  0  0
    0.3242    2.3121    3.2768 C   0  0  0  0  0  0  0  0  0  0  0  0
    2.7785    2.5811    3.6251 C   0  0  0  0  0  0  0  0  0  0  0  0
    1.5411    0.5091    4.5014 C   0  0  0  0  0  0  0  0  0  0  0  0
    2.0196    0.7659    1.9894 C   0  0  0  0  0  0  0  0  0  0  0  0
    3.2211    0.0092    1.8103 C   0  0  0  0  0  0  0  0  0  0  0  0
    1.1457    0.8124    0.8593 C   0  0  0  0  0  0  0  0  0  0  0  0
    4.1596   -0.1357    2.7963 N   0  0  0  0  0  0  0  0  0  0  0  0
    3.4667   -0.6567    0.5906 C   0  0  0  0  0  0  0  0  0  0  0  0
    1.3806    0.1824   -0.3976 C   0  0  0  0  0  0  0  0  0  0  0  0
    5.5181   -0.0073    2.7175 C   0  0  0  0  0  0  0  0  0  0  0  0
    2.5890   -0.5547   -0.4953 C   0  0  0  0  0  0  0  0  0  0  0  0
    0.4166    0.2914   -1.5860 C   0  0  1  0  0  0  0  0  0  0  0  0
    6.1498   -0.2937    3.7592 O   0  0  0  0  0  0  0  0  0  0  0  0
    6.2525    0.4067    1.5782 C   0  0  0  0  0  0  0  0  0  0  0  0
    2.9797   -1.1943   -1.6264 O   0  0  0  0  0  0  0  0  0  0  0  0
    1.1196    1.0286   -2.7789 C   0  0  0  0  0  0  0  0  0  0  0  0
   -0.0597   -1.1294   -2.0563 C   0  0  0  0  0  0  0  0  0  0  0  0
   -0.9012    1.1040   -1.2952 C   0  0  0  0  0  0  0  0  0  0  0  0
    5.9117    1.5652    0.8357 C   0  0  0  0  0  0  0  0  0  0  0  0
    7.3499   -0.3653    1.1347 C   0  0  0  0  0  0  0  0  0  0  0  0
    4.9459    2.4105    1.2741 O   0  0  0  0  0  0  0  0  0  0  0  0
    6.6022    1.8834   -0.3546 C   0  0  0  0  0  0  0  0  0  0  0  0
    8.0297   -0.0144    0.0175 N   0  0  0  0  0  0  0  0  0  0  0  0
    7.6994    1.0651   -0.7339 C   0  0  0  0  0  0  0  0  0  0  0  0
    6.2527    2.9834   -1.1718 C   0  0  0  0  0  0  0  0  0  0  0  0
    8.4470    1.3696   -1.8870 C   0  0  0  0  0  0  0  0  0  0  0  0
    7.0001    3.2787   -2.3261 C   0  0  0  0  0  0  0  0  0  0  0  0
    8.1033    2.4809   -2.6773 C   0  0  0  0  0  0  0  0  0  0  0  0
    0.1384    2.8219    4.2260 H   0  0  0  0  0  0  0  0  0  0  0  0
    0.3312    3.0811    2.5013 H   0  0  0  0  0  0  0  0  0  0  0  0
   -0.5222    1.6439    3.1024 H   0  0  0  0  0  0  0  0  0  0  0  0
    2.5145    3.1659    4.5093 H   0  0  0  0  0  0  0  0  0  0  0  0
    2.8963    3.2744    2.7887 H   0  0  0  0  0  0  0  0  0  0  0  0
    3.7465    2.1320    3.8356 H   0  0  0  0  0  0  0  0  0  0  0  0
    1.1246    1.0019    5.3840 H   0  0  0  0  0  0  0  0  0  0  0  0
    2.4924    0.0926    4.8230 H   0  0  0  0  0  0  0  0  0  0  0  0
    0.8780   -0.3162    4.2335 H   0  0  0  0  0  0  0  0  0  0  0  0
    0.2907    1.3405    0.9479 H   0  0  0  0  0  0  0  0  0  0  0  0
    3.8256   -0.3702    3.6677 H   0  0  0  0  0  0  0  0  0  0  0  0
    4.3050   -1.2340    0.4832 H   0  0  0  0  0  0  0  0  0  0  0  0
    3.6396   -0.5963   -2.0389 H   0  0  0  0  0  0  0  0  0  0  0  0
    0.4324    1.1555   -3.6198 H   0  0  0  0  0  0  0  0  0  0  0  0
    1.9801    0.4778   -3.1573 H   0  0  0  0  0  0  0  0  0  0  0  0
    1.4628    2.0186   -2.4683 H   0  0  0  0  0  0  0  0  0  0  0  0
   -0.8208   -1.0495   -2.8374 H   0  0  0  0  0  0  0  0  0  0  0  0
   -0.4890   -1.6875   -1.2210 H   0  0  0  0  0  0  0  0  0  0  0  0
    0.7505   -1.7224   -2.4785 H   0  0  0  0  0  0  0  0  0  0  0  0
   -1.5614    1.1279   -2.1678 H   0  0  0  0  0  0  0  0  0  0  0  0
   -1.4644    0.6532   -0.4734 H   0  0  0  0  0  0  0  0  0  0  0  0
   -0.6754    2.1423   -1.0376 H   0  0  0  0  0  0  0  0  0  0  0  0
    7.6441   -1.2073    1.6347 H   0  0  0  0  0  0  0  0  0  0  0  0
    5.1157    2.5055    2.2344 H   0  0  0  0  0  0  0  0  0  0  0  0
    5.4512    3.5751   -0.9389 H   0  0  0  0  0  0  0  0  0  0  0  0
    9.2393    0.7826   -2.1566 H   0  0  0  0  0  0  0  0  0  0  0  0
    6.7394    4.0758   -2.9110 H   0  0  0  0  0  0  0  0  0  0  0  0
    8.6505    2.7039   -3.5118 H   0  0  0  0  0  0  0  0  0  0  0  0
  1  2  1  0  0  0  0 
  1  3  1  0  0  0  0 
  1  4  1  0  0  0  0 
  1  5  1  0  0  0  0 
  5  6  2  0  0  0  0 
  5  7  1  0  0  0  0 
  6  8  1  0  0  0  0 
  6  9  1  0  0  0  0 
  7 10  2  0  0  0  0 
  8 11  1  0  0  0  0 
  9 12  2  0  0  0  0 
 10 12  1  0  0  0  0 
 10 13  1  0  0  0  0 
 11 14  2  0  0  0  0 
 11 15  1  0  0  0  0 
 12 16  1  0  0  0  0 
 13 17  1  0  0  0  0 
 13 18  1  0  0  0  0 
 13 19  1  0  0  0  0 
 15 20  1  0  0  0  0 
 15 21  2  0  0  0  0 
 20 22  1  0  0  0  0 
 20 23  2  0  0  0  0 
 21 24  1  0  0  0  0 
 23 25  1  0  0  0  0 
 23 26  1  0  0  0  0 
 24 25  2  0  0  0  0 
 25 27  1  0  0  0  0 
 26 28  2  0  0  0  0 
 27 29  2  0  0  0  0 
 28 29  1  0  0  0  0 
 30  2  1  0  0  0  0 
 31  2  1  0  0  0  0 
 32  2  1  0  0  0  0 
 33  3  1  0  0  0  0 
 34  3  1  0  0  0  0 
 35  3  1  0  0  0  0 
 36  4  1  0  0  0  0 
 37  4  1  0  0  0  0 
 38  4  1  0  0  0  0 
 39  7  1  0  0  0  0 
 40  8  1  0  0  0  0 
 41  9  1  0  0  0  0 
 42 16  1  0  0  0  0 
 43 17  1  0  0  0  0 
 44 17  1  0  0  0  0 
 45 17  1  0  0  0  0 
 46 18  1  0  0  0  0 
 47 18  1  0  0  0  0 
 48 18  1  0  0  0  0 
 49 19  1  0  0  0  0 
 50 19  1  0  0  0  0 
 51 19  1  0  0  0  0 
 52 21  1  0  0  0  0 
 53 22  1  0  0  0  0 
 54 26  1  0  0  0  0 
 55 27  1  0  0  0  0 
 56 28  1  0  0  0  0 
 57 29  1  0  0  0  0 
M  END
> <cdk:Title>
ivacaftor

> <Conformer>
1

> <SuperDrugID>
SD003439

$$$$
