probenecid
  CDK     0628171801

 38 38  0  0  0  0  0  0  0  0999 V2000
    0.2306   -0.6545   -0.1570 S   0  0  1  0  0  0  0  0  0  0  0  0
   -0.9094   -0.9445    1.1790 N   0  0  2  0  0  0  0  0  0  0  0  0
   -0.5977   -0.5747   -1.5286 O   0  0  0  0  0  0  0  0  0  0  0  0
    0.9703    0.7522    0.0711 O   0  0  0  0  0  0  0  0  0  0  0  0
    1.4365   -1.9486   -0.2370 C   0  0  0  0  0  0  0  0  0  0  0  0
   -1.5637   -2.2939    1.1056 C   0  0  2  0  0  0  0  0  0  0  0  0
   -1.8298    0.2154    1.4008 C   0  0  2  0  0  0  0  0  0  0  0  0
    1.2047   -3.1051   -1.0099 C   0  0  0  0  0  0  0  0  0  0  0  0
    2.6351   -1.8386    0.4950 C   0  0  0  0  0  0  0  0  0  0  0  0
   -0.8235   -3.3137    2.0098 C   0  0  1  0  0  0  0  0  0  0  0  0
   -2.3597    0.2641    2.8594 C   0  0  1  0  0  0  0  0  0  0  0  0
    2.1596   -4.1363   -1.0510 C   0  0  0  0  0  0  0  0  0  0  0  0
    3.5975   -2.8638    0.4410 C   0  0  0  0  0  0  0  0  0  0  0  0
   -1.2329   -4.7803    1.7404 C   0  0  0  0  0  0  0  0  0  0  0  0
   -3.1194    1.5705    3.1910 C   0  0  0  0  0  0  0  0  0  0  0  0
    3.3771   -4.0296   -0.3347 C   0  0  0  0  0  0  0  0  0  0  0  0
    4.3453   -5.0653   -0.4006 C   0  0  0  0  0  0  0  0  0  0  0  0
    4.0456   -6.2861   -0.9063 O   0  0  0  0  0  0  0  0  0  0  0  0
    5.5194   -4.8986    0.0008 O   0  0  0  0  0  0  0  0  0  0  0  0
   -1.5918   -2.6612    0.0759 H   0  0  0  0  0  0  0  0  0  0  0  0
   -2.6050   -2.2556    1.4353 H   0  0  0  0  0  0  0  0  0  0  0  0
   -2.6688    0.1767    0.6985 H   0  0  0  0  0  0  0  0  0  0  0  0
   -1.3027    1.1582    1.2244 H   0  0  0  0  0  0  0  0  0  0  0  0
    0.3385   -3.2087   -1.5452 H   0  0  0  0  0  0  0  0  0  0  0  0
    2.8148   -1.0135    1.0728 H   0  0  0  0  0  0  0  0  0  0  0  0
    0.2526   -3.2326    1.8581 H   0  0  0  0  0  0  0  0  0  0  0  0
   -1.0266   -3.0690    3.0565 H   0  0  0  0  0  0  0  0  0  0  0  0
   -3.0293   -0.5799    3.0408 H   0  0  0  0  0  0  0  0  0  0  0  0
   -1.5124    0.1748    3.5452 H   0  0  0  0  0  0  0  0  0  0  0  0
    1.9541   -4.9628   -1.6184 H   0  0  0  0  0  0  0  0  0  0  0  0
    4.4605   -2.7512    0.9814 H   0  0  0  0  0  0  0  0  0  0  0  0
   -0.7545   -5.4400    2.4644 H   0  0  0  0  0  0  0  0  0  0  0  0
   -2.3137   -4.9058    1.8161 H   0  0  0  0  0  0  0  0  0  0  0  0
   -0.9137   -5.0887    0.7432 H   0  0  0  0  0  0  0  0  0  0  0  0
   -3.5063    1.5250    4.2119 H   0  0  0  0  0  0  0  0  0  0  0  0
   -2.4462    2.4266    3.1133 H   0  0  0  0  0  0  0  0  0  0  0  0
   -3.9593    1.7157    2.5079 H   0  0  0  0  0  0  0  0  0  0  0  0
    4.7319   -6.9855   -0.9393 H   0  0  0  0  0  0  0  0  0  0  0  0
  1  2  1  0  0  0  0 
  1  3  2  0  0  0  0 
  1  4  2  0  0  0  0 
  1  5  1  0  0  0  0 
  2  6  1  0  0  0  0 
  2  7  1  0  0  0  0 
  5  8  2  0  0  0  0 
  5  9  1  0  0  0  0 
  6 10  1  0  0  0  0 
  7 11  1  0  0  0  0 
  8 12  1  0  0  0  0 
  9 13  2  0  0  0  0 
 10 14  1  0  0  0  0 
 11 15  1  0  0  0  0 
 12 16  2  0  0  0  0 
 13 16  1  0  0  0  0 
 16 17  1  0  0  0  0 
 17 18  1  0  0  0  0 
 17 19  2  0  0  0  0 
  6 20  1  0  0  0  0 
  6 21  1  0  0  0  0 
  7 22  1  0  0  0  0 
  7 23  1  0  0  0  0 
  8 24  1  0  0  0  0 
  9 25  1  0  0  0  0 
 10 26  1  0  0  0  0 
 10 27  1  0  0  0  0 
 11 28  1  0  0  0  0 
 11 29  1  0  0  0  0 
 12 30  1  0  0  0  0 
 13 31  1  0  0  0  0 
 14 32  1  0  0  0  0 
 14 33  1  0  0  0  0 
 14 34  1  0  0  0  0 
 15 35  1  0  0  0  0 
 15 36  1  0  0  0  0 
 15 37  1  0  0  0  0 
 18 38  1  0  0  0  0 
M  END
> <cdk:Title>
probenecid

> <Conformer>
1

> <SuperDrugID>
SD002034

$$$$
