flumetasone
  CDK     0628171801

 57 60  0  0  0  0  0  0  0  0999 V2000
    4.9608    4.5133    1.1183 F   0  0  0  0  0  0  0  0  0  0  0  0
    4.6097    3.4755    1.9739 C   0  0  2  0  0  0  0  0  0  0  0  0
    3.2638    3.9112    2.6896 C   0  0  2  0  0  0  0  0  0  0  0  0
    5.8368    3.3354    2.9971 C   0  0  2  0  0  0  0  0  0  0  0  0
    4.3475    2.2477    1.0150 C   0  0  1  0  0  0  0  0  0  0  0  0
    2.1177    4.1142    1.6346 C   0  0  1  0  0  0  0  0  0  0  0  0
    3.4932    5.1777    3.5711 C   0  0  1  0  0  0  0  0  0  0  0  0
    5.7411    2.1070    3.9762 C   0  0  0  0  0  0  0  0  0  0  0  0
    5.8897    4.5879    3.8298 C   0  0  0  0  0  0  0  0  0  0  0  0
    7.1008    3.1042    2.2456 C   0  0  0  0  0  0  0  0  0  0  0  0
    4.2172    1.0225    1.7305 O   0  0  0  0  0  0  0  0  0  0  0  0
    3.1057    2.4193    0.0769 C   0  0  1  0  0  0  0  0  0  0  0  0
    1.7721    2.8262    0.8134 C   0  0  1  0  0  0  0  0  0  0  0  0
    0.7456    4.6478    2.0922 C   0  0  2  0  0  0  0  0  0  0  0  0
    4.6731    4.9896    4.5616 C   0  0  1  0  0  0  0  0  0  0  0  0
    7.0115    5.3482    3.8740 C   0  0  0  0  0  0  0  0  0  0  0  0
    8.1745    3.9035    2.3423 C   0  0  0  0  0  0  0  0  0  0  0  0
    1.2448    1.6134    1.6799 C   0  0  0  0  0  0  0  0  0  0  0  0
    0.5870    3.3745   -0.0874 C   0  0  2  0  0  0  0  0  0  0  0  0
   -0.2165    4.3006    0.9175 C   0  0  2  0  0  0  0  0  0  0  0  0
    4.7798    6.1444    5.3127 F   0  0  0  0  0  0  0  0  0  0  0  0
    8.1499    5.0185    3.1560 C   0  0  0  0  0  0  0  0  0  0  0  0
   -0.2649    2.3408   -0.7813 C   0  0  0  0  0  0  0  0  0  0  0  0
    1.1322    4.1866   -1.1396 O   0  0  0  0  0  0  0  0  0  0  0  0
   -0.8754    5.5557    0.2805 C   0  0  0  0  0  0  0  0  0  0  0  0
    9.1705    5.7421    3.2358 O   0  0  0  0  0  0  0  0  0  0  0  0
    0.1742    1.5589   -1.9585 C   0  0  1  0  0  0  0  0  0  0  0  0
   -1.4328    2.1091   -0.3867 O   0  0  0  0  0  0  0  0  0  0  0  0
    0.1482    2.3673   -3.1283 O   0  0  0  0  0  0  0  0  0  0  0  0
    2.9515    3.1254    3.3762 H   0  0  0  0  0  0  0  0  0  0  0  0
    2.4901    4.8891    0.9483 H   0  0  0  0  0  0  0  0  0  0  0  0
    5.2175    2.1150    0.3635 H   0  0  0  0  0  0  0  0  0  0  0  0
    3.6892    6.0443    2.9340 H   0  0  0  0  0  0  0  0  0  0  0  0
    2.5901    5.3902    4.1505 H   0  0  0  0  0  0  0  0  0  0  0  0
    6.4875    2.1871    4.7722 H   0  0  0  0  0  0  0  0  0  0  0  0
    5.9289    1.1567    3.4717 H   0  0  0  0  0  0  0  0  0  0  0  0
    4.7596    2.0346    4.4431 H   0  0  0  0  0  0  0  0  0  0  0  0
    7.1754    2.3118    1.6496 H   0  0  0  0  0  0  0  0  0  0  0  0
    4.0812    0.3327    1.0483 H   0  0  0  0  0  0  0  0  0  0  0  0
    3.3658    3.1775   -0.6672 H   0  0  0  0  0  0  0  0  0  0  0  0
    2.9677    1.4879   -0.4721 H   0  0  0  0  0  0  0  0  0  0  0  0
    0.7886    5.7227    2.2926 H   0  0  0  0  0  0  0  0  0  0  0  0
    0.4344    4.1458    3.0140 H   0  0  0  0  0  0  0  0  0  0  0  0
    4.4162    4.2104    5.2812 H   0  0  0  0  0  0  0  0  0  0  0  0
    7.0407    6.1748    4.4235 H   0  0  0  0  0  0  0  0  0  0  0  0
    8.9966    3.6855    1.8237 H   0  0  0  0  0  0  0  0  0  0  0  0
    1.9196    1.3386    2.4844 H   0  0  0  0  0  0  0  0  0  0  0  0
    0.2857    1.8272    2.1473 H   0  0  0  0  0  0  0  0  0  0  0  0
    1.1120    0.7334    1.0492 H   0  0  0  0  0  0  0  0  0  0  0  0
   -1.0427    3.7384    1.3682 H   0  0  0  0  0  0  0  0  0  0  0  0
    0.3595    4.4843   -1.6641 H   0  0  0  0  0  0  0  0  0  0  0  0
   -1.4653    6.0876    1.0294 H   0  0  0  0  0  0  0  0  0  0  0  0
   -1.5378    5.2631   -0.5348 H   0  0  0  0  0  0  0  0  0  0  0  0
   -0.1168    6.2386   -0.1077 H   0  0  0  0  0  0  0  0  0  0  0  0
    1.1747    1.1634   -1.8134 H   0  0  0  0  0  0  0  0  0  0  0  0
   -0.4921    0.7093   -2.1275 H   0  0  0  0  0  0  0  0  0  0  0  0
    0.4265    1.7703   -3.8552 H   0  0  0  0  0  0  0  0  0  0  0  0
  2  1  1  0  0  0  0 
  3  2  1  0  0  0  0 
  2  4  1  0  0  0  0 
  2  5  1  0  0  0  0 
  6  3  1  0  0  0  0 
  3  7  1  0  0  0  0 
  3 30  1  0  0  0  0 
  4  8  1  0  0  0  0 
  4  9  1  0  0  0  0 
  4 10  1  0  0  0  0 
  5 11  1  0  0  0  0 
  5 12  1  0  0  0  0 
 13  6  1  0  0  0  0 
  6 14  1  0  0  0  0 
  6 31  1  0  0  0  0 
 15  7  1  0  0  0  0 
 15  9  1  0  0  0  0 
  9 16  2  0  0  0  0 
 10 17  2  0  0  0  0 
 13 12  1  0  0  0  0 
 13 18  1  0  0  0  0 
 13 19  1  0  0  0  0 
 20 14  1  0  0  0  0 
 15 21  1  0  0  0  0 
 16 22  1  0  0  0  0 
 17 22  1  0  0  0  0 
 19 20  1  0  0  0  0 
 19 23  1  0  0  0  0 
 19 24  1  0  0  0  0 
 20 25  1  0  0  0  0 
 22 26  2  0  0  0  0 
 23 27  1  0  0  0  0 
 23 28  2  0  0  0  0 
 27 29  1  0  0  0  0 
  5 32  1  0  0  0  0 
  7 33  1  0  0  0  0 
  7 34  1  0  0  0  0 
  8 35  1  0  0  0  0 
  8 36  1  0  0  0  0 
  8 37  1  0  0  0  0 
 10 38  1  0  0  0  0 
 11 39  1  0  0  0  0 
 12 40  1  0  0  0  0 
 12 41  1  0  0  0  0 
 14 42  1  0  0  0  0 
 14 43  1  0  0  0  0 
 15 44  1  0  0  0  0 
 16 45  1  0  0  0  0 
 17 46  1  0  0  0  0 
 18 47  1  0  0  0  0 
 18 48  1  0  0  0  0 
 18 49  1  0  0  0  0 
 20 50  1  0  0  0  0 
 24 51  1  0  0  0  0 
 25 52  1  0  0  0  0 
 25 53  1  0  0  0  0 
 25 54  1  0  0  0  0 
 27 55  1  0  0  0  0 
 27 56  1  0  0  0  0 
 29 57  1  0  0  0  0 
M  END
> <cdk:Title>
flumetasone

> <Conformer>
1

> <SuperDrugID>
SD003616

$$$$
