flavodic acid
  CDK     0628171801

 41 43  0  0  0  0  0  0  0  0999 V2000
   -0.7972   -6.3922    0.1142 O   0  0  0  0  0  0  0  0  0  0  0  0
   -1.2760   -6.4473    1.4776 C   0  0  1  0  0  0  0  0  0  0  0  0
   -1.2312   -5.2793   -0.5667 C   0  0  0  0  0  0  0  0  0  0  0  0
   -0.8799   -7.7305    2.0789 C   0  0  0  0  0  0  0  0  0  0  0  0
   -2.4451   -5.2777   -1.3081 C   0  0  0  0  0  0  0  0  0  0  0  0
   -0.4411   -4.1106   -0.5117 C   0  0  0  0  0  0  0  0  0  0  0  0
   -1.8126   -8.6248    2.4840 O   0  0  0  0  0  0  0  0  0  0  0  0
    0.3295   -8.0198    2.2207 O   0  0  0  0  0  0  0  0  0  0  0  0
   -2.8761   -4.0631   -1.9118 C   0  0  0  0  0  0  0  0  0  0  0  0
   -3.2722   -6.4176   -1.4809 C   0  0  0  0  0  0  0  0  0  0  0  0
   -0.8774   -2.9114   -1.1092 C   0  0  0  0  0  0  0  0  0  0  0  0
   -4.0667   -4.0176   -2.5829 O   0  0  0  0  0  0  0  0  0  0  0  0
   -2.0919   -2.8986   -1.8217 C   0  0  0  0  0  0  0  0  0  0  0  0
   -2.9561   -7.5385   -1.0158 O   0  0  0  0  0  0  0  0  0  0  0  0
   -4.4851   -6.3331   -2.1907 C   0  0  0  0  0  0  0  0  0  0  0  0
   -0.1297   -1.7668   -0.9977 O   0  0  0  0  0  0  0  0  0  0  0  0
   -4.8827   -5.1011   -2.7466 C   0  0  0  0  0  0  0  0  0  0  0  0
   -0.4426   -1.0110    0.1920 C   0  0  1  0  0  0  0  0  0  0  0  0
   -6.0843   -4.9618   -3.4769 C   0  0  0  0  0  0  0  0  0  0  0  0
    0.4197    0.1774    0.2623 C   0  0  0  0  0  0  0  0  0  0  0  0
   -6.3419   -5.7840   -4.5997 C   0  0  0  0  0  0  0  0  0  0  0  0
   -7.0502   -4.0019   -3.0957 C   0  0  0  0  0  0  0  0  0  0  0  0
   -0.1047    1.4247    0.2466 O   0  0  0  0  0  0  0  0  0  0  0  0
    1.6617    0.0526    0.3469 O   0  0  0  0  0  0  0  0  0  0  0  0
   -7.5510   -5.6642   -5.3107 C   0  0  0  0  0  0  0  0  0  0  0  0
   -8.2649   -3.8966   -3.8012 C   0  0  0  0  0  0  0  0  0  0  0  0
   -8.5187   -4.7276   -4.9072 C   0  0  0  0  0  0  0  0  0  0  0  0
   -0.8351   -5.6412    2.0686 H   0  0  0  0  0  0  0  0  0  0  0  0
   -2.3674   -6.3558    1.5250 H   0  0  0  0  0  0  0  0  0  0  0  0
    0.4522   -4.1268   -0.0150 H   0  0  0  0  0  0  0  0  0  0  0  0
   -1.5418   -9.4840    2.8722 H   0  0  0  0  0  0  0  0  0  0  0  0
   -2.4059   -2.0359   -2.2725 H   0  0  0  0  0  0  0  0  0  0  0  0
   -5.0789   -7.1618   -2.2937 H   0  0  0  0  0  0  0  0  0  0  0  0
   -1.4911   -0.6957    0.1849 H   0  0  0  0  0  0  0  0  0  0  0  0
   -0.2607   -1.6058    1.0915 H   0  0  0  0  0  0  0  0  0  0  0  0
   -5.6478   -6.4678   -4.9165 H   0  0  0  0  0  0  0  0  0  0  0  0
   -6.8848   -3.3829   -2.2967 H   0  0  0  0  0  0  0  0  0  0  0  0
    0.4818    2.2084    0.3085 H   0  0  0  0  0  0  0  0  0  0  0  0
   -7.7272   -6.2583   -6.1233 H   0  0  0  0  0  0  0  0  0  0  0  0
   -8.9668   -3.2142   -3.5085 H   0  0  0  0  0  0  0  0  0  0  0  0
   -9.4024   -4.6502   -5.4167 H   0  0  0  0  0  0  0  0  0  0  0  0
  1  2  1  0  0  0  0 
  1  3  1  0  0  0  0 
  2  4  1  0  0  0  0 
  3  5  2  0  0  0  0 
  3  6  1  0  0  0  0 
  4  7  1  0  0  0  0 
  4  8  2  0  0  0  0 
  5  9  1  0  0  0  0 
  5 10  1  0  0  0  0 
  6 11  2  0  0  0  0 
  9 12  1  0  0  0  0 
  9 13  2  0  0  0  0 
 10 14  2  0  0  0  0 
 10 15  1  0  0  0  0 
 11 13  1  0  0  0  0 
 11 16  1  0  0  0  0 
 12 17  1  0  0  0  0 
 15 17  2  0  0  0  0 
 16 18  1  0  0  0  0 
 17 19  1  0  0  0  0 
 18 20  1  0  0  0  0 
 19 21  2  0  0  0  0 
 19 22  1  0  0  0  0 
 20 23  1  0  0  0  0 
 20 24  2  0  0  0  0 
 21 25  1  0  0  0  0 
 22 26  2  0  0  0  0 
 25 27  2  0  0  0  0 
 26 27  1  0  0  0  0 
  2 28  1  0  0  0  0 
  2 29  1  0  0  0  0 
  6 30  1  0  0  0  0 
  7 31  1  0  0  0  0 
 13 32  1  0  0  0  0 
 15 33  1  0  0  0  0 
 18 34  1  0  0  0  0 
 18 35  1  0  0  0  0 
 21 36  1  0  0  0  0 
 22 37  1  0  0  0  0 
 23 38  1  0  0  0  0 
 25 39  1  0  0  0  0 
 26 40  1  0  0  0  0 
 27 41  1  0  0  0  0 
M  END
> <cdk:Title>
flavodic acid

> <Conformer>
1

> <SuperDrugID>
SD001050

$$$$
