fluorometholone acetate
  CDK     0628171802

 61 64  0  0  0  0  0  0  0  0999 V2000
   -3.1695    0.8540   -2.3853 F   0  0  0  0  0  0  0  0  0  0  0  0
   -3.8664    0.5621   -1.2172 C   0  0  2  0  0  0  0  0  0  0  0  0
   -5.1997    1.4125   -1.2605 C   0  0  2  0  0  0  0  0  0  0  0  0
   -2.9238    1.0382   -0.0115 C   0  0  2  0  0  0  0  0  0  0  0  0
   -4.1480   -0.9927   -1.3502 C   0  0  1  0  0  0  0  0  0  0  0  0
   -6.1202    0.9598   -2.4394 C   0  0  1  0  0  0  0  0  0  0  0  0
   -4.8762    2.9369   -1.3331 C   0  0  2  0  0  0  0  0  0  0  0  0
   -3.4817    0.7490    1.4349 C   0  0  0  0  0  0  0  0  0  0  0  0
   -2.7276    2.5321   -0.1295 C   0  0  0  0  0  0  0  0  0  0  0  0
   -1.6458    0.2822   -0.0541 C   0  0  0  0  0  0  0  0  0  0  0  0
   -4.5077   -1.6025   -0.1144 O   0  0  0  0  0  0  0  0  0  0  0  0
   -5.1988   -1.3795   -2.4459 C   0  0  1  0  0  0  0  0  0  0  0  0
   -6.5325   -0.5482   -2.3868 C   0  0  1  0  0  0  0  0  0  0  0  0
   -7.4443    1.7120   -2.6938 C   0  0  1  0  0  0  0  0  0  0  0  0
   -3.9370    3.3983   -0.1798 C   0  0  1  0  0  0  0  0  0  0  0  0
   -1.4750    3.0449   -0.2031 C   0  0  0  0  0  0  0  0  0  0  0  0
   -0.4439    0.8726   -0.1310 C   0  0  0  0  0  0  0  0  0  0  0  0
   -7.3444   -0.9517   -1.0897 C   0  0  0  0  0  0  0  0  0  0  0  0
   -7.4660   -0.6137   -3.6663 C   0  0  1  0  0  0  0  0  0  0  0  0
   -8.2957    0.7159   -3.5250 C   0  0  2  0  0  0  0  0  0  0  0  0
   -3.7512    4.9459   -0.2586 C   0  0  0  0  0  0  0  0  0  0  0  0
   -0.3414    2.2478   -0.1863 C   0  0  0  0  0  0  0  0  0  0  0  0
   -6.6527   -0.4969   -4.8650 O   0  0  0  0  0  0  0  0  0  0  0  0
   -8.2819   -1.8697   -3.7923 C   0  0  0  0  0  0  0  0  0  0  0  0
    0.7926    2.7807   -0.2315 O   0  0  0  0  0  0  0  0  0  0  0  0
   -7.0121   -0.4823   -6.1882 C   0  0  0  0  0  0  0  0  0  0  0  0
   -7.6648   -3.1951   -3.9982 C   0  0  0  0  0  0  0  0  0  0  0  0
   -9.5351   -1.8255   -3.7690 O   0  0  0  0  0  0  0  0  0  0  0  0
   -5.9825   -0.2839   -7.2180 C   0  0  0  0  0  0  0  0  0  0  0  0
   -8.2008   -0.6508   -6.5466 O   0  0  0  0  0  0  0  0  0  0  0  0
   -5.7568    1.2665   -0.3366 H   0  0  0  0  0  0  0  0  0  0  0  0
   -3.2167   -1.4914   -1.6394 H   0  0  0  0  0  0  0  0  0  0  0  0
   -5.5241    1.1350   -3.3449 H   0  0  0  0  0  0  0  0  0  0  0  0
   -5.8143    3.4951   -1.2640 H   0  0  0  0  0  0  0  0  0  0  0  0
   -4.4211    3.1791   -2.2995 H   0  0  0  0  0  0  0  0  0  0  0  0
   -4.5135    1.0743    1.5628 H   0  0  0  0  0  0  0  0  0  0  0  0
   -3.4541   -0.3115    1.6929 H   0  0  0  0  0  0  0  0  0  0  0  0
   -2.8793    1.2676    2.1872 H   0  0  0  0  0  0  0  0  0  0  0  0
   -1.6654   -0.7123   -0.0050 H   0  0  0  0  0  0  0  0  0  0  0  0
   -4.4661   -2.5689   -0.2871 H   0  0  0  0  0  0  0  0  0  0  0  0
   -4.7203   -1.2448   -3.4188 H   0  0  0  0  0  0  0  0  0  0  0  0
   -5.4159   -2.4469   -2.3615 H   0  0  0  0  0  0  0  0  0  0  0  0
   -7.9336    1.9535   -1.7455 H   0  0  0  0  0  0  0  0  0  0  0  0
   -7.2734    2.6427   -3.2449 H   0  0  0  0  0  0  0  0  0  0  0  0
   -4.4793    3.2487    0.7571 H   0  0  0  0  0  0  0  0  0  0  0  0
   -1.3285    4.0224   -0.2788 H   0  0  0  0  0  0  0  0  0  0  0  0
    0.3785    0.3123   -0.1449 H   0  0  0  0  0  0  0  0  0  0  0  0
   -7.5407   -2.0248   -1.0775 H   0  0  0  0  0  0  0  0  0  0  0  0
   -8.3069   -0.4449   -1.0301 H   0  0  0  0  0  0  0  0  0  0  0  0
   -6.8177   -0.7173   -0.1682 H   0  0  0  0  0  0  0  0  0  0  0  0
   -8.5433    1.1464   -4.4988 H   0  0  0  0  0  0  0  0  0  0  0  0
   -9.2403    0.5455   -3.0010 H   0  0  0  0  0  0  0  0  0  0  0  0
   -4.7188    5.4532   -0.2274 H   0  0  0  0  0  0  0  0  0  0  0  0
   -3.2457    5.2313   -1.1829 H   0  0  0  0  0  0  0  0  0  0  0  0
   -3.1678    5.3003    0.5929 H   0  0  0  0  0  0  0  0  0  0  0  0
   -7.4210   -3.6376   -3.0336 H   0  0  0  0  0  0  0  0  0  0  0  0
   -6.7551   -3.1145   -4.5933 H   0  0  0  0  0  0  0  0  0  0  0  0
   -8.3485   -3.8664   -4.5209 H   0  0  0  0  0  0  0  0  0  0  0  0
   -6.2825    0.6411   -7.7927 H   0  0  0  0  0  0  0  0  0  0  0  0
   -5.0214    0.0086   -6.7002 H   0  0  0  0  0  0  0  0  0  0  0  0
   -5.9537   -1.2838   -7.8248 H   0  0  0  0  0  0  0  0  0  0  0  0
  2  1  1  0  0  0  0 
  2  3  1  0  0  0  0 
  2  4  1  0  0  0  0 
  2  5  1  0  0  0  0 
  3  6  1  0  0  0  0 
  3  7  1  0  0  0  0 
  4  8  1  0  0  0  0 
  4  9  1  0  0  0  0 
  4 10  1  0  0  0  0 
  5 11  1  0  0  0  0 
  5 12  1  0  0  0  0 
  6 13  1  0  0  0  0 
  6 14  1  0  0  0  0 
 15  7  1  0  0  0  0 
 15  9  1  0  0  0  0 
  9 16  2  0  0  0  0 
 10 17  2  0  0  0  0 
 13 12  1  0  0  0  0 
 13 18  1  0  0  0  0 
 13 19  1  0  0  0  0 
 14 20  1  0  0  0  0 
 15 21  1  0  0  0  0 
 16 22  1  0  0  0  0 
 17 22  1  0  0  0  0 
 19 20  1  0  0  0  0 
 19 23  1  0  0  0  0 
 19 24  1  0  0  0  0 
 22 25  2  0  0  0  0 
 23 26  1  0  0  0  0 
 24 27  1  0  0  0  0 
 24 28  2  0  0  0  0 
 26 29  1  0  0  0  0 
 26 30  2  0  0  0  0 
  3 31  1  0  0  0  0 
  5 32  1  0  0  0  0 
  6 33  1  0  0  0  0 
 34  7  1  0  0  0  0 
 35  7  1  0  0  0  0 
 36  8  1  0  0  0  0 
 37  8  1  0  0  0  0 
 38  8  1  0  0  0  0 
 39 10  1  0  0  0  0 
 40 11  1  0  0  0  0 
 41 12  1  0  0  0  0 
 42 12  1  0  0  0  0 
 43 14  1  0  0  0  0 
 44 14  1  0  0  0  0 
 15 45  1  0  0  0  0 
 46 16  1  0  0  0  0 
 47 17  1  0  0  0  0 
 48 18  1  0  0  0  0 
 49 18  1  0  0  0  0 
 50 18  1  0  0  0  0 
 51 20  1  0  0  0  0 
 52 20  1  0  0  0  0 
 53 21  1  0  0  0  0 
 54 21  1  0  0  0  0 
 55 21  1  0  0  0  0 
 56 27  1  0  0  0  0 
 57 27  1  0  0  0  0 
 58 27  1  0  0  0  0 
 59 29  1  0  0  0  0 
 60 29  1  0  0  0  0 
 61 29  1  0  0  0  0 
M  END
> <cdk:Title>
fluorometholone acetate

> <Conformer>
1

> <SuperDrugID>
SD003681

$$$$
