ziprasidone
  CDK     0628171801

 49 53  0  0  0  0  0  0  0  0999 V2000
    1.9012    0.6688   -0.7624 C   0  0  1  0  0  0  0  0  0  0  0  0
    0.9630   -0.4807   -0.3160 C   0  0  1  0  0  0  0  0  0  0  0  0
    2.3608    1.4162    0.4458 N   0  0  1  0  0  0  0  0  0  0  0  0
   -0.2575    0.0065    0.3948 C   0  0  0  0  0  0  0  0  0  0  0  0
    3.8122    1.3362    0.7798 C   0  0  2  0  0  0  0  0  0  0  0  0
    1.7646    2.7663    0.6632 C   0  0  1  0  0  0  0  0  0  0  0  0
   -1.2994    0.5649   -0.3908 C   0  0  0  0  0  0  0  0  0  0  0  0
   -0.4184   -0.0469    1.8146 C   0  0  0  0  0  0  0  0  0  0  0  0
    4.0422    1.7909    2.2425 C   0  0  2  0  0  0  0  0  0  0  0  0
    1.9783    3.1809    2.1377 C   0  0  2  0  0  0  0  0  0  0  0  0
   -2.4800    1.0096    0.2239 C   0  0  0  0  0  0  0  0  0  0  0  0
    0.7981   -0.5979    2.8628 Cl  0  0  0  0  0  0  0  0  0  0  0  0
   -1.6193    0.3953    2.4171 C   0  0  0  0  0  0  0  0  0  0  0  0
    3.3656    3.0363    2.5171 N   0  0  0  0  0  0  0  0  0  0  0  0
   -2.6381    0.9088    1.6023 C   0  0  0  0  0  0  0  0  0  0  0  0
   -3.6734    1.6009   -0.3890 C   0  0  1  0  0  0  0  0  0  0  0  0
    4.0189    4.0720    3.1217 C   0  0  0  0  0  0  0  0  0  0  0  0
   -3.8531    1.3603    1.9318 N   0  0  0  0  0  0  0  0  0  0  0  0
   -4.4967    1.7638    0.8193 C   0  0  0  0  0  0  0  0  0  0  0  0
    3.6524    4.6057    4.3771 C   0  0  0  0  0  0  0  0  0  0  0  0
    5.0634    4.6840    2.5145 N   0  0  0  0  0  0  0  0  0  0  0  0
   -5.6614    2.2212    0.8144 O   0  0  0  0  0  0  0  0  0  0  0  0
    4.4185    5.7170    4.7478 C   0  0  0  0  0  0  0  0  0  0  0  0
    2.6401    4.1533    5.2511 C   0  0  0  0  0  0  0  0  0  0  0  0
    5.5964    5.9805    3.4865 S   0  0  0  0  0  0  0  0  0  0  0  0
    4.1964    6.4222    5.9411 C   0  0  0  0  0  0  0  0  0  0  0  0
    2.4013    4.8423    6.4586 C   0  0  0  0  0  0  0  0  0  0  0  0
    3.1726    5.9752    6.7978 C   0  0  0  0  0  0  0  0  0  0  0  0
    2.7448    0.2362   -1.3108 H   0  0  0  0  0  0  0  0  0  0  0  0
    1.3772    1.3233   -1.4657 H   0  0  0  0  0  0  0  0  0  0  0  0
    0.6548   -1.0562   -1.1941 H   0  0  0  0  0  0  0  0  0  0  0  0
    1.5385   -1.1700    0.3057 H   0  0  0  0  0  0  0  0  0  0  0  0
    4.3928    1.9612    0.0949 H   0  0  0  0  0  0  0  0  0  0  0  0
    4.1646    0.3050    0.6839 H   0  0  0  0  0  0  0  0  0  0  0  0
    2.2256    3.5008   -0.0040 H   0  0  0  0  0  0  0  0  0  0  0  0
    0.6892    2.7554    0.4668 H   0  0  0  0  0  0  0  0  0  0  0  0
   -1.2056    0.6467   -1.4054 H   0  0  0  0  0  0  0  0  0  0  0  0
    5.1188    1.8478    2.4279 H   0  0  0  0  0  0  0  0  0  0  0  0
    3.6393    1.0287    2.9127 H   0  0  0  0  0  0  0  0  0  0  0  0
    1.3713    2.5335    2.7743 H   0  0  0  0  0  0  0  0  0  0  0  0
    1.6129    4.2059    2.2672 H   0  0  0  0  0  0  0  0  0  0  0  0
   -1.7604    0.3488    3.4296 H   0  0  0  0  0  0  0  0  0  0  0  0
   -3.4484    2.5660   -0.8499 H   0  0  0  0  0  0  0  0  0  0  0  0
   -4.1405    0.9181   -1.1043 H   0  0  0  0  0  0  0  0  0  0  0  0
   -4.2181    1.3806    2.8312 H   0  0  0  0  0  0  0  0  0  0  0  0
    2.0803    3.3306    5.0246 H   0  0  0  0  0  0  0  0  0  0  0  0
    4.7615    7.2385    6.1780 H   0  0  0  0  0  0  0  0  0  0  0  0
    1.6664    4.5197    7.0899 H   0  0  0  0  0  0  0  0  0  0  0  0
    2.9885    6.4717    7.6724 H   0  0  0  0  0  0  0  0  0  0  0  0
  1  2  1  0  0  0  0 
  1  3  1  0  0  0  0 
  2  4  1  0  0  0  0 
  3  5  1  0  0  0  0 
  3  6  1  0  0  0  0 
  4  7  2  0  0  0  0 
  4  8  1  0  0  0  0 
  5  9  1  0  0  0  0 
  6 10  1  0  0  0  0 
  7 11  1  0  0  0  0 
  8 12  1  0  0  0  0 
  8 13  2  0  0  0  0 
  9 14  1  0  0  0  0 
 10 14  1  0  0  0  0 
 11 15  2  0  0  0  0 
 11 16  1  0  0  0  0 
 13 15  1  0  0  0  0 
 14 17  1  0  0  0  0 
 15 18  1  0  0  0  0 
 16 19  1  0  0  0  0 
 17 20  1  0  0  0  0 
 17 21  2  0  0  0  0 
 18 19  1  0  0  0  0 
 19 22  2  0  0  0  0 
 20 23  1  0  0  0  0 
 20 24  2  0  0  0  0 
 21 25  1  0  0  0  0 
 23 25  1  0  0  0  0 
 23 26  2  0  0  0  0 
 24 27  1  0  0  0  0 
 26 28  1  0  0  0  0 
 27 28  2  0  0  0  0 
  1 29  1  0  0  0  0 
  1 30  1  0  0  0  0 
  2 31  1  0  0  0  0 
  2 32  1  0  0  0  0 
  5 33  1  0  0  0  0 
  5 34  1  0  0  0  0 
  6 35  1  0  0  0  0 
  6 36  1  0  0  0  0 
  7 37  1  0  0  0  0 
  9 38  1  0  0  0  0 
  9 39  1  0  0  0  0 
 10 40  1  0  0  0  0 
 10 41  1  0  0  0  0 
 13 42  1  0  0  0  0 
 16 43  1  0  0  0  0 
 16 44  1  0  0  0  0 
 18 45  1  0  0  0  0 
 24 46  1  0  0  0  0 
 26 47  1  0  0  0  0 
 27 48  1  0  0  0  0 
 28 49  1  0  0  0  0 
M  END
> <cdk:Title>
ziprasidone

> <Conformer>
1

> <SuperDrugID>
SD002582

$$$$
