dihydroergotamine
  CDK     0628171802

 80 87  0  0  0  0  0  0  0  0999 V2000
   -2.8348    2.6156   -0.8712 O   0  0  0  0  0  0  0  0  0  0  0  0
   -3.3793    1.3748   -1.3236 C   0  0  1  0  0  0  0  0  0  0  0  0
   -2.6456    0.2716   -0.8006 N   0  0  0  0  0  0  0  0  0  0  0  0
   -4.8537    1.1701   -0.8650 C   0  0  1  0  0  0  0  0  0  0  0  0
   -3.2438    1.3278   -2.7586 O   0  0  0  0  0  0  0  0  0  0  0  0
   -2.6272   -0.0793    0.6067 C   0  0  1  0  0  0  0  0  0  0  0  0
   -2.1318   -0.4429   -1.8147 C   0  0  0  0  0  0  0  0  0  0  0  0
   -4.9630    0.8524    0.5284 N   0  0  0  0  0  0  0  0  0  0  0  0
   -5.8104    2.3675   -1.0420 C   0  0  1  0  0  0  0  0  0  0  0  0
   -2.5171    0.1344   -3.1068 C   0  0  2  0  0  0  0  0  0  0  0  0
   -1.5040    0.6576    1.4061 C   0  0  2  0  0  0  0  0  0  0  0  0
   -3.9664    0.1959    1.2224 C   0  0  0  0  0  0  0  0  0  0  0  0
   -1.4490   -1.4876   -1.6933 O   0  0  0  0  0  0  0  0  0  0  0  0
   -6.2022    1.2830    1.1005 C   0  0  2  0  0  0  0  0  0  0  0  0
   -6.9207    2.0638   -0.0214 C   0  0  1  0  0  0  0  0  0  0  0  0
   -1.3548    0.3745   -3.9113 N   0  0  0  0  0  0  0  0  0  0  0  0
   -3.4582   -0.8137   -3.8949 C   0  0  0  0  0  0  0  0  0  0  0  0
   -0.1692    0.7265    0.7456 C   0  0  0  0  0  0  0  0  0  0  0  0
   -4.1552   -0.1472    2.4141 O   0  0  0  0  0  0  0  0  0  0  0  0
   -0.4722    1.4062   -3.8210 C   0  0  0  0  0  0  0  0  0  0  0  0
    0.6043   -0.4424    0.5544 C   0  0  0  0  0  0  0  0  0  0  0  0
    0.3667    1.9688    0.3275 C   0  0  0  0  0  0  0  0  0  0  0  0
   -0.6876    2.3767   -3.0567 O   0  0  0  0  0  0  0  0  0  0  0  0
    0.8088    1.3501   -4.5804 C   0  0  2  0  0  0  0  0  0  0  0  0
    1.8905   -0.3681   -0.0142 C   0  0  0  0  0  0  0  0  0  0  0  0
    1.6539    2.0435   -0.2341 C   0  0  0  0  0  0  0  0  0  0  0  0
    0.6360    1.2502   -6.1289 C   0  0  1  0  0  0  0  0  0  0  0  0
    1.6754    0.1711   -4.0648 C   0  0  2  0  0  0  0  0  0  0  0  0
    2.4208    0.8773   -0.3939 C   0  0  0  0  0  0  0  0  0  0  0  0
    2.0155    1.1258   -6.8603 C   0  0  2  0  0  0  0  0  0  0  0  0
    3.0038    0.1091   -4.7546 N   0  0  2  0  0  0  0  0  0  0  0  0
    1.9297    1.0561   -8.3662 C   0  0  0  0  0  0  0  0  0  0  0  0
    2.8429   -0.0811   -6.2429 C   0  0  2  0  0  0  0  0  0  0  0  0
    3.9110   -0.8646   -4.0703 C   0  0  0  0  0  0  0  0  0  0  0  0
    2.9195    0.3191   -9.0372 C   0  0  0  0  0  0  0  0  0  0  0  0
    0.9836    1.6995   -9.2100 C   0  0  0  0  0  0  0  0  0  0  0  0
    4.2006   -0.3192   -7.0048 C   0  0  1  0  0  0  0  0  0  0  0  0
    3.9793   -0.3468   -8.4590 C   0  0  0  0  0  0  0  0  0  0  0  0
    2.9886    0.1412  -10.4107 C   0  0  0  0  0  0  0  0  0  0  0  0
    1.0436    1.5628  -10.6229 C   0  0  0  0  0  0  0  0  0  0  0  0
    4.6666   -0.9573   -9.5093 C   0  0  0  0  0  0  0  0  0  0  0  0
    4.0428   -0.6550  -10.6680 N   0  0  0  0  0  0  0  0  0  0  0  0
    2.0412    0.7689  -11.2355 C   0  0  0  0  0  0  0  0  0  0  0  0
   -2.9960    2.6353    0.0950 H   0  0  0  0  0  0  0  0  0  0  0  0
   -5.2656    0.3170   -1.4153 H   0  0  0  0  0  0  0  0  0  0  0  0
   -2.4568   -1.1574    0.7023 H   0  0  0  0  0  0  0  0  0  0  0  0
   -5.3232    3.3117   -0.7806 H   0  0  0  0  0  0  0  0  0  0  0  0
   -6.1983    2.4291   -2.0620 H   0  0  0  0  0  0  0  0  0  0  0  0
   -1.3665    0.1533    2.3686 H   0  0  0  0  0  0  0  0  0  0  0  0
   -1.8487    1.6682    1.6384 H   0  0  0  0  0  0  0  0  0  0  0  0
   -6.0147    1.9385    1.9541 H   0  0  0  0  0  0  0  0  0  0  0  0
   -6.8009    0.4278    1.4250 H   0  0  0  0  0  0  0  0  0  0  0  0
   -7.3844    2.9805    0.3517 H   0  0  0  0  0  0  0  0  0  0  0  0
   -7.6905    1.4395   -0.4831 H   0  0  0  0  0  0  0  0  0  0  0  0
   -1.1391   -0.3126   -4.5600 H   0  0  0  0  0  0  0  0  0  0  0  0
   -4.3845   -0.9924   -3.3461 H   0  0  0  0  0  0  0  0  0  0  0  0
   -2.9763   -1.7770   -4.0779 H   0  0  0  0  0  0  0  0  0  0  0  0
   -3.7109   -0.3708   -4.8608 H   0  0  0  0  0  0  0  0  0  0  0  0
    0.2392   -1.3557    0.8339 H   0  0  0  0  0  0  0  0  0  0  0  0
   -0.1708    2.8328    0.4339 H   0  0  0  0  0  0  0  0  0  0  0  0
    1.3635    2.2735   -4.3739 H   0  0  0  0  0  0  0  0  0  0  0  0
    2.4405   -1.2191   -0.1490 H   0  0  0  0  0  0  0  0  0  0  0  0
    2.0310    2.9472   -0.5250 H   0  0  0  0  0  0  0  0  0  0  0  0
    0.0089    0.3907   -6.3890 H   0  0  0  0  0  0  0  0  0  0  0  0
    0.1203    2.1551   -6.4623 H   0  0  0  0  0  0  0  0  0  0  0  0
    1.1407   -0.7773   -4.1931 H   0  0  0  0  0  0  0  0  0  0  0  0
    1.8224    0.3200   -2.9960 H   0  0  0  0  0  0  0  0  0  0  0  0
    3.3586    0.9352   -0.7976 H   0  0  0  0  0  0  0  0  0  0  0  0
    2.5736    2.0409   -6.6403 H   0  0  0  0  0  0  0  0  0  0  0  0
    2.2539   -0.9930   -6.4000 H   0  0  0  0  0  0  0  0  0  0  0  0
    4.9402   -0.7264   -4.4010 H   0  0  0  0  0  0  0  0  0  0  0  0
    3.9158   -0.7087   -2.9906 H   0  0  0  0  0  0  0  0  0  0  0  0
    3.6011   -1.8933   -4.2709 H   0  0  0  0  0  0  0  0  0  0  0  0
    0.2422    2.2790   -8.8143 H   0  0  0  0  0  0  0  0  0  0  0  0
    4.9106    0.4783   -6.7729 H   0  0  0  0  0  0  0  0  0  0  0  0
    4.6420   -1.2751   -6.7142 H   0  0  0  0  0  0  0  0  0  0  0  0
    0.3603    2.0438  -11.2121 H   0  0  0  0  0  0  0  0  0  0  0  0
    5.5017   -1.5387   -9.4219 H   0  0  0  0  0  0  0  0  0  0  0  0
    4.3160   -0.9641  -11.5470 H   0  0  0  0  0  0  0  0  0  0  0  0
    2.0797    0.6595  -12.2503 H   0  0  0  0  0  0  0  0  0  0  0  0
  2  1  1  0  0  0  0 
  2  3  1  0  0  0  0 
  2  4  1  0  0  0  0 
  2  5  1  0  0  0  0 
  6  3  1  0  0  0  0 
  3  7  1  0  0  0  0 
  4  8  1  0  0  0  0 
  4  9  1  0  0  0  0 
 10  5  1  0  0  0  0 
  6 11  1  0  0  0  0 
  6 12  1  0  0  0  0 
 10  7  1  0  0  0  0 
  7 13  2  0  0  0  0 
  8 12  1  0  0  0  0 
  8 14  1  0  0  0  0 
  9 15  1  0  0  0  0 
 10 16  1  0  0  0  0 
 10 17  1  0  0  0  0 
 11 18  1  0  0  0  0 
 12 19  2  0  0  0  0 
 14 15  1  0  0  0  0 
 16 20  1  0  0  0  0 
 18 21  2  0  0  0  0 
 18 22  1  0  0  0  0 
 20 23  2  0  0  0  0 
 21 25  1  0  0  0  0 
 22 26  2  0  0  0  0 
 24 20  1  0  0  0  0 
 24 27  1  0  0  0  0 
 24 28  1  0  0  0  0 
 25 29  2  0  0  0  0 
 26 29  1  0  0  0  0 
 30 27  1  0  0  0  0 
 28 31  1  0  0  0  0 
 30 32  1  0  0  0  0 
 30 33  1  0  0  0  0 
 33 31  1  0  0  0  0 
 31 34  1  0  0  0  0 
 32 35  2  0  0  0  0 
 32 36  1  0  0  0  0 
 33 37  1  0  0  0  0 
 35 38  1  0  0  0  0 
 35 39  1  0  0  0  0 
 36 40  2  0  0  0  0 
 37 38  1  0  0  0  0 
 38 41  2  0  0  0  0 
 39 42  1  0  0  0  0 
 39 43  2  0  0  0  0 
 40 43  1  0  0  0  0 
 41 42  1  0  0  0  0 
 44  1  1  0  0  0  0 
  4 45  1  0  0  0  0 
  6 46  1  0  0  0  0 
 47  9  1  0  0  0  0 
 48  9  1  0  0  0  0 
 49 11  1  0  0  0  0 
 50 11  1  0  0  0  0 
 51 14  1  0  0  0  0 
 52 14  1  0  0  0  0 
 53 15  1  0  0  0  0 
 54 15  1  0  0  0  0 
 55 16  1  0  0  0  0 
 56 17  1  0  0  0  0 
 57 17  1  0  0  0  0 
 58 17  1  0  0  0  0 
 59 21  1  0  0  0  0 
 60 22  1  0  0  0  0 
 24 61  1  0  0  0  0 
 62 25  1  0  0  0  0 
 63 26  1  0  0  0  0 
 64 27  1  0  0  0  0 
 65 27  1  0  0  0  0 
 66 28  1  0  0  0  0 
 67 28  1  0  0  0  0 
 68 29  1  0  0  0  0 
 30 69  1  0  0  0  0 
 33 70  1  0  0  0  0 
 71 34  1  0  0  0  0 
 72 34  1  0  0  0  0 
 73 34  1  0  0  0  0 
 74 36  1  0  0  0  0 
 75 37  1  0  0  0  0 
 76 37  1  0  0  0  0 
 77 40  1  0  0  0  0 
 78 41  1  0  0  0  0 
 79 42  1  0  0  0  0 
 80 43  1  0  0  0  0 
M  END
> <cdk:Title>
dihydroergotamine

> <Conformer>
1

> <SuperDrugID>
SD000790

$$$$
