uridine triacetate
  CDK     0628171802

 41 42  0  0  0  0  0  0  0  0999 V2000
    1.6920    0.5063   -2.1635 N   0  0  0  0  0  0  0  0  0  0  0  0
    0.4297    1.0082   -2.1532 C   0  0  0  0  0  0  0  0  0  0  0  0
   -0.6627    0.1824   -2.0018 N   0  0  0  0  0  0  0  0  0  0  0  0
   -0.4357   -1.1636   -1.8359 C   0  0  0  0  0  0  0  0  0  0  0  0
    0.8621   -1.7023   -1.8517 C   0  0  0  0  0  0  0  0  0  0  0  0
    1.9346   -0.8186   -2.0331 C   0  0  0  0  0  0  0  0  0  0  0  0
   -2.0197    0.7232   -2.0440 C   0  0  2  0  0  0  0  0  0  0  0  0
    3.1130   -1.2373   -2.0759 O   0  0  0  0  0  0  0  0  0  0  0  0
    0.3341    2.2499   -2.2943 O   0  0  0  0  0  0  0  0  0  0  0  0
   -2.9563   -0.0108   -1.2374 O   0  0  0  0  0  0  0  0  0  0  0  0
   -3.9017   -0.6811   -2.0899 C   0  0  1  0  0  0  0  0  0  0  0  0
   -3.3537   -0.6015   -3.5302 C   0  0  2  0  0  0  0  0  0  0  0  0
   -2.6124    0.7443   -3.4751 C   0  0  1  0  0  0  0  0  0  0  0  0
   -4.0857   -2.0267   -1.6321 O   0  0  0  0  0  0  0  0  0  0  0  0
   -3.5639    1.8199   -3.6156 O   0  0  0  0  0  0  0  0  0  0  0  0
   -4.3515   -0.6136   -4.5668 O   0  0  0  0  0  0  0  0  0  0  0  0
   -5.1765   -1.6420   -4.9220 C   0  0  0  0  0  0  0  0  0  0  0  0
   -3.4113    3.0466   -4.1972 C   0  0  0  0  0  0  0  0  0  0  0  0
   -4.5560   -2.3819   -0.3987 C   0  0  0  0  0  0  0  0  0  0  0  0
   -4.8628   -1.5202    0.4586 O   0  0  0  0  0  0  0  0  0  0  0  0
   -4.6965   -3.7991   -0.0504 C   0  0  0  0  0  0  0  0  0  0  0  0
   -5.1476   -2.7357   -4.3108 O   0  0  0  0  0  0  0  0  0  0  0  0
   -6.0991   -1.4572   -6.0544 C   0  0  0  0  0  0  0  0  0  0  0  0
   -2.1096    3.6022   -4.6108 C   0  0  0  0  0  0  0  0  0  0  0  0
   -4.4488    3.7335   -4.3397 O   0  0  0  0  0  0  0  0  0  0  0  0
    2.4413    1.1128   -2.2690 H   0  0  0  0  0  0  0  0  0  0  0  0
   -1.2083   -1.8170   -1.7007 H   0  0  0  0  0  0  0  0  0  0  0  0
    1.0164   -2.7065   -1.7347 H   0  0  0  0  0  0  0  0  0  0  0  0
   -2.0272    1.7368   -1.6316 H   0  0  0  0  0  0  0  0  0  0  0  0
   -4.8604   -0.1555   -2.0400 H   0  0  0  0  0  0  0  0  0  0  0  0
   -2.6367   -1.4088   -3.7189 H   0  0  0  0  0  0  0  0  0  0  0  0
   -1.8408    0.7889   -4.2486 H   0  0  0  0  0  0  0  0  0  0  0  0
   -4.3669   -4.4312   -0.8756 H   0  0  0  0  0  0  0  0  0  0  0  0
   -4.0906   -4.0218    0.8299 H   0  0  0  0  0  0  0  0  0  0  0  0
   -5.7423   -4.0178    0.1674 H   0  0  0  0  0  0  0  0  0  0  0  0
   -6.7073   -2.3518   -6.2145 H   0  0  0  0  0  0  0  0  0  0  0  0
   -6.7600   -0.6118   -5.8557 H   0  0  0  0  0  0  0  0  0  0  0  0
   -5.5237   -1.2585   -6.9603 H   0  0  0  0  0  0  0  0  0  0  0  0
   -1.4627    3.7056   -3.7397 H   0  0  0  0  0  0  0  0  0  0  0  0
   -1.6362    2.9388   -5.3340 H   0  0  0  0  0  0  0  0  0  0  0  0
   -2.2322    4.5853   -5.0712 H   0  0  0  0  0  0  0  0  0  0  0  0
  1  2  1  0  0  0  0 
  1  6  1  0  0  0  0 
  2  3  1  0  0  0  0 
  3  4  1  0  0  0  0 
  4  5  2  0  0  0  0 
  5  6  1  0  0  0  0 
  7  3  1  0  0  0  0 
  6  8  2  0  0  0  0 
  2  9  2  0  0  0  0 
 11 10  1  0  0  0  0 
 12 11  1  0  0  0  0 
 12 13  1  0  0  0  0 
  7 10  1  0  0  0  0 
 13  7  1  0  0  0  0 
 11 14  1  0  0  0  0 
 13 15  1  0  0  0  0 
 12 16  1  0  0  0  0 
 16 17  1  0  0  0  0 
 15 18  1  0  0  0  0 
 14 19  1  0  0  0  0 
 19 20  2  0  0  0  0 
 19 21  1  0  0  0  0 
 17 22  2  0  0  0  0 
 17 23  1  0  0  0  0 
 18 24  1  0  0  0  0 
 18 25  2  0  0  0  0 
 26  1  1  0  0  0  0 
 27  4  1  0  0  0  0 
 28  5  1  0  0  0  0 
  7 29  1  0  0  0  0 
 11 30  1  0  0  0  0 
 12 31  1  0  0  0  0 
 13 32  1  0  0  0  0 
 33 21  1  0  0  0  0 
 34 21  1  0  0  0  0 
 35 21  1  0  0  0  0 
 36 23  1  0  0  0  0 
 37 23  1  0  0  0  0 
 38 23  1  0  0  0  0 
 39 24  1  0  0  0  0 
 40 24  1  0  0  0  0 
 41 24  1  0  0  0  0 
M  END
> <cdk:Title>
uridine triacetate

> <Conformer>
1

> <SuperDrugID>
SD003880

$$$$
