guamecycline
  CDK     0628171801

 83 87  0  0  0  0  0  0  0  0999 V2000
   -8.9518   -8.6842    3.3931 O   0  0  0  0  0  0  0  0  0  0  0  0
   -7.9859   -8.7766    2.3388 C   0  0  1  0  0  0  0  0  0  0  0  0
   -6.8396   -9.7501    2.7974 C   0  0  1  0  0  0  0  0  0  0  0  0
   -8.7071   -9.2997    1.1620 C   0  0  0  0  0  0  0  0  0  0  0  0
   -7.4569   -7.4210    2.0807 C   0  0  0  0  0  0  0  0  0  0  0  0
   -7.4273  -11.1856    2.9503 C   0  0  1  0  0  0  0  0  0  0  0  0
   -5.5972   -9.6182    1.8419 C   0  0  2  0  0  0  0  0  0  0  0  0
   -9.3370   -8.4265    0.3692 O   0  0  0  0  0  0  0  0  0  0  0  0
   -8.7499  -10.6151    0.8376 C   0  0  0  0  0  0  0  0  0  0  0  0
   -8.3457   -6.4209    2.0824 O   0  0  0  0  0  0  0  0  0  0  0  0
   -6.1609   -7.1576    1.7855 C   0  0  0  0  0  0  0  0  0  0  0  0
   -8.1799  -11.6939    1.6684 C   0  0  1  0  0  0  0  0  0  0  0  0
   -4.4836  -10.5986    2.1277 N   0  0  1  0  0  0  0  0  0  0  0  0
   -5.1988   -8.1794    1.7837 C   0  0  0  0  0  0  0  0  0  0  0  0
   -9.3161  -11.0408   -0.3590 C   0  0  0  0  0  0  0  0  0  0  0  0
   -5.7786   -5.8639    1.4521 C   0  0  0  0  0  0  0  0  0  0  0  0
   -7.4062  -12.8140    0.8336 C   0  0  2  0  0  0  0  0  0  0  0  0
   -3.5169  -10.8655    1.0158 C   0  0  0  0  0  0  0  0  0  0  0  0
   -3.8179  -10.5477    3.4605 C   0  0  0  0  0  0  0  0  0  0  0  0
   -3.9798   -7.8851    1.7344 O   0  0  0  0  0  0  0  0  0  0  0  0
  -10.5073  -10.7564   -0.6292 O   0  0  0  0  0  0  0  0  0  0  0  0
   -8.5067  -11.8074   -1.2376 C   0  0  0  0  0  0  0  0  0  0  0  0
   -5.2773   -5.6414    0.2066 N   0  0  0  0  0  0  0  0  0  0  0  0
   -5.9214   -4.9387    2.2874 O   0  0  0  0  0  0  0  0  0  0  0  0
   -7.8959  -14.2394    1.2364 C   0  0  0  0  0  0  0  0  0  0  0  0
   -6.0119  -12.8088    1.1363 O   0  0  0  0  0  0  0  0  0  0  0  0
   -7.5238  -12.6650   -0.6644 C   0  0  0  0  0  0  0  0  0  0  0  0
   -8.6167  -11.7115   -2.6521 C   0  0  0  0  0  0  0  0  0  0  0  0
   -4.8867   -4.3824   -0.3398 C   0  0  2  0  0  0  0  0  0  0  0  0
   -6.6538  -13.3809   -1.5269 C   0  0  0  0  0  0  0  0  0  0  0  0
   -9.5243  -10.9177   -3.2819 O   0  0  0  0  0  0  0  0  0  0  0  0
   -7.7421  -12.4422   -3.4797 C   0  0  0  0  0  0  0  0  0  0  0  0
   -3.4014   -4.3004   -0.4855 N   0  0  1  0  0  0  0  0  0  0  0  0
   -6.7591  -13.2712   -2.9208 C   0  0  0  0  0  0  0  0  0  0  0  0
   -2.9748   -3.2014   -1.4103 C   0  0  1  0  0  0  0  0  0  0  0  0
   -2.6786   -4.2510    0.8300 C   0  0  1  0  0  0  0  0  0  0  0  0
   -1.4364   -3.1890   -1.5771 C   0  0  1  0  0  0  0  0  0  0  0  0
   -1.1411   -4.1925    0.6330 C   0  0  2  0  0  0  0  0  0  0  0  0
   -0.8216   -3.1047   -0.2700 N   0  0  0  0  0  0  0  0  0  0  0  0
   -0.0419   -2.0611    0.0927 C   0  0  0  0  0  0  0  0  0  0  0  0
   -0.3997   -0.8695   -0.2523 N   0  0  0  0  0  0  0  0  0  0  0  0
    1.0504   -2.2889    0.8071 N   0  0  0  0  0  0  0  0  0  0  0  0
    0.1062    0.3136   -0.0896 C   0  0  0  0  0  0  0  0  0  0  0  0
   -0.7006    1.2999   -0.1723 N   0  0  0  0  0  0  0  0  0  0  0  0
    1.3842    0.5676    0.1184 N   0  0  0  0  0  0  0  0  0  0  0  0
   -8.4708   -8.3014    4.1581 H   0  0  0  0  0  0  0  0  0  0  0  0
   -6.5225   -9.4312    3.7944 H   0  0  0  0  0  0  0  0  0  0  0  0
   -6.6535  -11.8819    3.2760 H   0  0  0  0  0  0  0  0  0  0  0  0
   -8.1404  -11.1593    3.7809 H   0  0  0  0  0  0  0  0  0  0  0  0
   -5.9656   -9.8507    0.8382 H   0  0  0  0  0  0  0  0  0  0  0  0
   -9.9099   -7.9096    0.9753 H   0  0  0  0  0  0  0  0  0  0  0  0
   -8.7539   -6.4291    2.9733 H   0  0  0  0  0  0  0  0  0  0  0  0
   -9.0856  -12.1731    2.0599 H   0  0  0  0  0  0  0  0  0  0  0  0
   -4.0452  -10.9142    0.0625 H   0  0  0  0  0  0  0  0  0  0  0  0
   -3.0920  -11.9057    1.1746 H   0  0  0  0  0  0  0  0  0  0  0  0
   -2.7871  -10.0021    0.9288 H   0  0  0  0  0  0  0  0  0  0  0  0
   -4.5406  -10.4872    4.2718 H   0  0  0  0  0  0  0  0  0  0  0  0
   -3.2389  -11.4583    3.6227 H   0  0  0  0  0  0  0  0  0  0  0  0
   -3.1424   -9.6952    3.5299 H   0  0  0  0  0  0  0  0  0  0  0  0
   -5.1881   -6.4119   -0.3753 H   0  0  0  0  0  0  0  0  0  0  0  0
   -7.8131  -14.3803    2.3146 H   0  0  0  0  0  0  0  0  0  0  0  0
   -8.9402  -14.3775    0.9509 H   0  0  0  0  0  0  0  0  0  0  0  0
   -7.3034  -15.0196    0.7551 H   0  0  0  0  0  0  0  0  0  0  0  0
   -5.6793  -11.9837    0.7347 H   0  0  0  0  0  0  0  0  0  0  0  0
   -5.2630   -3.5407    0.2486 H   0  0  0  0  0  0  0  0  0  0  0  0
   -5.3675   -4.3279   -1.3204 H   0  0  0  0  0  0  0  0  0  0  0  0
   -5.9253  -13.9915   -1.1464 H   0  0  0  0  0  0  0  0  0  0  0  0
   -9.8173  -10.2549   -2.6256 H   0  0  0  0  0  0  0  0  0  0  0  0
   -7.8089  -12.3681   -4.4972 H   0  0  0  0  0  0  0  0  0  0  0  0
   -6.1213  -13.7967   -3.5257 H   0  0  0  0  0  0  0  0  0  0  0  0
   -3.4197   -3.3535   -2.3959 H   0  0  0  0  0  0  0  0  0  0  0  0
   -3.3072   -2.2276   -1.0348 H   0  0  0  0  0  0  0  0  0  0  0  0
   -2.9964   -3.3764    1.4085 H   0  0  0  0  0  0  0  0  0  0  0  0
   -2.9069   -5.1426    1.4180 H   0  0  0  0  0  0  0  0  0  0  0  0
   -1.1198   -4.1172   -2.0632 H   0  0  0  0  0  0  0  0  0  0  0  0
   -1.1439   -2.3700   -2.2398 H   0  0  0  0  0  0  0  0  0  0  0  0
   -0.7940   -5.1372    0.2007 H   0  0  0  0  0  0  0  0  0  0  0  0
   -0.6669   -4.0922    1.6144 H   0  0  0  0  0  0  0  0  0  0  0  0
    1.3184   -3.1999    0.9973 H   0  0  0  0  0  0  0  0  0  0  0  0
    1.5781   -1.5552    1.1559 H   0  0  0  0  0  0  0  0  0  0  0  0
   -0.3946    2.1799   -0.0838 H   0  0  0  0  0  0  0  0  0  0  0  0
    1.6812    1.4817    0.2507 H   0  0  0  0  0  0  0  0  0  0  0  0
    2.0342   -0.1526    0.1328 H   0  0  0  0  0  0  0  0  0  0  0  0
  2  1  1  0  0  0  0 
  3  2  1  0  0  0  0 
  2  4  1  0  0  0  0 
  2  5  1  0  0  0  0 
  3  6  1  0  0  0  0 
  3  7  1  0  0  0  0 
  4  8  1  0  0  0  0 
  4  9  2  0  0  0  0 
  5 10  1  0  0  0  0 
  5 11  2  0  0  0  0 
 12  6  1  0  0  0  0 
  7 13  1  0  0  0  0 
  7 14  1  0  0  0  0 
 12  9  1  0  0  0  0 
  9 15  1  0  0  0  0 
 11 14  1  0  0  0  0 
 11 16  1  0  0  0  0 
 12 17  1  0  0  0  0 
 13 18  1  0  0  0  0 
 13 19  1  0  0  0  0 
 14 20  2  0  0  0  0 
 15 21  2  0  0  0  0 
 15 22  1  0  0  0  0 
 16 23  1  0  0  0  0 
 16 24  2  0  0  0  0 
 17 25  1  0  0  0  0 
 17 26  1  0  0  0  0 
 17 27  1  0  0  0  0 
 22 27  2  0  0  0  0 
 22 28  1  0  0  0  0 
 23 29  1  0  0  0  0 
 27 30  1  0  0  0  0 
 28 31  1  0  0  0  0 
 28 32  2  0  0  0  0 
 29 33  1  0  0  0  0 
 30 34  2  0  0  0  0 
 32 34  1  0  0  0  0 
 33 35  1  0  0  0  0 
 33 36  1  0  0  0  0 
 35 37  1  0  0  0  0 
 36 38  1  0  0  0  0 
 37 39  1  0  0  0  0 
 38 39  1  0  0  0  0 
 39 40  1  0  0  0  0 
 40 41  2  0  0  0  0 
 40 42  1  0  0  0  0 
 41 43  1  0  0  0  0 
 43 44  2  0  0  0  0 
 43 45  1  0  0  0  0 
 46  1  1  0  0  0  0 
  3 47  1  0  0  0  0 
 48  6  1  0  0  0  0 
 49  6  1  0  0  0  0 
  7 50  1  0  0  0  0 
 51  8  1  0  0  0  0 
 52 10  1  0  0  0  0 
 12 53  1  0  0  0  0 
 54 18  1  0  0  0  0 
 55 18  1  0  0  0  0 
 56 18  1  0  0  0  0 
 57 19  1  0  0  0  0 
 58 19  1  0  0  0  0 
 59 19  1  0  0  0  0 
 60 23  1  0  0  0  0 
 61 25  1  0  0  0  0 
 62 25  1  0  0  0  0 
 63 25  1  0  0  0  0 
 64 26  1  0  0  0  0 
 65 29  1  0  0  0  0 
 66 29  1  0  0  0  0 
 67 30  1  0  0  0  0 
 68 31  1  0  0  0  0 
 69 32  1  0  0  0  0 
 70 34  1  0  0  0  0 
 71 35  1  0  0  0  0 
 72 35  1  0  0  0  0 
 73 36  1  0  0  0  0 
 74 36  1  0  0  0  0 
 75 37  1  0  0  0  0 
 76 37  1  0  0  0  0 
 77 38  1  0  0  0  0 
 78 38  1  0  0  0  0 
 79 42  1  0  0  0  0 
 80 42  1  0  0  0  0 
 81 44  1  0  0  0  0 
 82 45  1  0  0  0  0 
 83 45  1  0  0  0  0 
M  END
> <cdk:Title>
guamecycline

> <Conformer>
1

> <SuperDrugID>
SD002828

$$$$
