chlorphentermine
  CDK     0628171802

 26 26  0  0  0  0  0  0  0  0999 V2000
   -1.9231   -1.3314    1.2421 C   0  0  0  0  0  0  0  0  0  0  0  0
   -0.5618   -1.3154    0.4816 C   0  0  2  0  0  0  0  0  0  0  0  0
   -0.8157   -1.1260   -1.0433 C   0  0  0  0  0  0  0  0  0  0  0  0
    0.0780   -2.6316    0.6791 N   0  0  1  0  0  0  0  0  0  0  0  0
    0.3578   -0.1883    1.0700 C   0  0  1  0  0  0  0  0  0  0  0  0
    1.6776   -0.0001    0.3957 C   0  0  0  0  0  0  0  0  0  0  0  0
    1.9263    1.1448   -0.3992 C   0  0  0  0  0  0  0  0  0  0  0  0
    3.1564    1.3120   -1.0610 C   0  0  0  0  0  0  0  0  0  0  0  0
    4.1670    0.3394   -0.9321 C   0  0  0  0  0  0  0  0  0  0  0  0
    5.6444    0.5325   -1.7360 Cl  0  0  0  0  0  0  0  0  0  0  0  0
    3.9419   -0.7943   -0.1287 C   0  0  0  0  0  0  0  0  0  0  0  0
    2.7105   -0.9584    0.5327 C   0  0  0  0  0  0  0  0  0  0  0  0
   -2.4549   -0.3866    1.1036 H   0  0  0  0  0  0  0  0  0  0  0  0
   -2.5642   -2.1386    0.8798 H   0  0  0  0  0  0  0  0  0  0  0  0
   -1.7625   -1.4778    2.3126 H   0  0  0  0  0  0  0  0  0  0  0  0
   -1.4730   -1.9102   -1.4261 H   0  0  0  0  0  0  0  0  0  0  0  0
    0.1219   -1.1739   -1.5995 H   0  0  0  0  0  0  0  0  0  0  0  0
   -1.2847   -0.1592   -1.2385 H   0  0  0  0  0  0  0  0  0  0  0  0
    0.1898   -2.7677    1.6869 H   0  0  0  0  0  0  0  0  0  0  0  0
   -0.5711   -3.3504    0.3494 H   0  0  0  0  0  0  0  0  0  0  0  0
   -0.2051    0.7498    1.0393 H   0  0  0  0  0  0  0  0  0  0  0  0
    0.5427   -0.3954    2.1275 H   0  0  0  0  0  0  0  0  0  0  0  0
    1.2121    1.8671   -0.5056 H   0  0  0  0  0  0  0  0  0  0  0  0
    3.3073    2.1437   -1.6372 H   0  0  0  0  0  0  0  0  0  0  0  0
    4.6703   -1.5039   -0.0220 H   0  0  0  0  0  0  0  0  0  0  0  0
    2.5748   -1.7846    1.1213 H   0  0  0  0  0  0  0  0  0  0  0  0
  1  2  1  0  0  0  0 
  2  3  1  0  0  0  0 
  2  4  1  0  0  0  0 
  2  5  1  0  0  0  0 
  5  6  1  0  0  0  0 
  6  7  2  0  0  0  0 
  7  8  1  0  0  0  0 
  8  9  2  0  0  0  0 
  9 10  1  0  0  0  0 
  9 11  1  0  0  0  0 
 11 12  2  0  0  0  0 
  6 12  1  0  0  0  0 
  1 13  1  0  0  0  0 
  1 14  1  0  0  0  0 
  1 15  1  0  0  0  0 
  3 16  1  0  0  0  0 
  3 17  1  0  0  0  0 
  3 18  1  0  0  0  0 
  4 19  1  0  0  0  0 
  4 20  1  0  0  0  0 
  5 21  1  0  0  0  0 
  5 22  1  0  0  0  0 
  7 23  1  0  0  0  0 
  8 24  1  0  0  0  0 
 11 25  1  0  0  0  0 
 12 26  1  0  0  0  0 
M  END
> <cdk:Title>
chlorphentermine

> <Conformer>
1

> <SuperDrugID>
SD000539

$$$$
