fencibutirol
  CDK     0628171801

 41 42  0  0  0  0  0  0  0  0999 V2000
    0.2005    2.7509    1.4621 C   0  0  1  0  0  0  0  0  0  0  0  0
   -0.1062    4.0558    0.8093 C   0  0  0  0  0  0  0  0  0  0  0  0
    1.7472    2.5164    1.5195 C   0  0  2  0  0  0  0  0  0  0  0  0
   -0.5572    2.6078    2.8495 C   0  0  1  0  0  0  0  0  0  0  0  0
   -0.9234    4.1018   -0.2682 O   0  0  0  0  0  0  0  0  0  0  0  0
    0.3568    5.1362    1.2431 O   0  0  0  0  0  0  0  0  0  0  0  0
    2.4532    2.5131    0.1401 C   0  0  0  0  0  0  0  0  0  0  0  0
   -0.0286    3.5813    3.7581 O   0  0  0  0  0  0  0  0  0  0  0  0
   -2.1050    2.8476    2.7254 C   0  0  1  0  0  0  0  0  0  0  0  0
   -0.3862    1.2275    3.5752 C   0  0  2  0  0  0  0  0  0  0  0  0
   -2.8246    1.7273    1.9240 C   0  0  2  0  0  0  0  0  0  0  0  0
   -1.0728    0.0434    2.8393 C   0  0  2  0  0  0  0  0  0  0  0  0
   -2.5865    0.3188    2.5482 C   0  0  2  0  0  0  0  0  0  0  0  0
   -3.2647   -0.7284    1.7114 C   0  0  0  0  0  0  0  0  0  0  0  0
   -2.7172   -1.1649    0.4768 C   0  0  0  0  0  0  0  0  0  0  0  0
   -4.5203   -1.2590    2.1056 C   0  0  0  0  0  0  0  0  0  0  0  0
   -3.3845   -2.1164   -0.3179 C   0  0  0  0  0  0  0  0  0  0  0  0
   -5.2016   -2.1886    1.2977 C   0  0  0  0  0  0  0  0  0  0  0  0
   -4.6294   -2.6257    0.0905 C   0  0  0  0  0  0  0  0  0  0  0  0
   -0.1855    1.9700    0.8037 H   0  0  0  0  0  0  0  0  0  0  0  0
    1.9473    1.5416    1.9619 H   0  0  0  0  0  0  0  0  0  0  0  0
    2.2215    3.2686    2.1547 H   0  0  0  0  0  0  0  0  0  0  0  0
   -1.1684    4.9614   -0.6693 H   0  0  0  0  0  0  0  0  0  0  0  0
    2.3840    3.4908   -0.3387 H   0  0  0  0  0  0  0  0  0  0  0  0
    3.5084    2.2669    0.2697 H   0  0  0  0  0  0  0  0  0  0  0  0
    2.0036    1.7651   -0.5155 H   0  0  0  0  0  0  0  0  0  0  0  0
   -0.2470    4.4535    3.3716 H   0  0  0  0  0  0  0  0  0  0  0  0
   -2.5445    2.8861    3.7269 H   0  0  0  0  0  0  0  0  0  0  0  0
   -2.3168    3.8127    2.2601 H   0  0  0  0  0  0  0  0  0  0  0  0
   -0.8255    1.2964    4.5753 H   0  0  0  0  0  0  0  0  0  0  0  0
    0.6675    0.9986    3.7318 H   0  0  0  0  0  0  0  0  0  0  0  0
   -2.4872    1.7423    0.8846 H   0  0  0  0  0  0  0  0  0  0  0  0
   -3.8982    1.9443    1.9168 H   0  0  0  0  0  0  0  0  0  0  0  0
   -0.9841   -0.8512    3.4637 H   0  0  0  0  0  0  0  0  0  0  0  0
   -0.5205   -0.1467    1.9192 H   0  0  0  0  0  0  0  0  0  0  0  0
   -3.0676    0.3448    3.5316 H   0  0  0  0  0  0  0  0  0  0  0  0
   -1.8270   -0.7921    0.1341 H   0  0  0  0  0  0  0  0  0  0  0  0
   -4.9590   -0.9603    2.9803 H   0  0  0  0  0  0  0  0  0  0  0  0
   -2.9663   -2.4345   -1.1971 H   0  0  0  0  0  0  0  0  0  0  0  0
   -6.1165   -2.5438    1.5880 H   0  0  0  0  0  0  0  0  0  0  0  0
   -5.1231   -3.3062   -0.4932 H   0  0  0  0  0  0  0  0  0  0  0  0
  1  2  1  0  0  0  0 
  1  3  1  0  0  0  0 
  1  4  1  0  0  0  0 
  2  5  1  0  0  0  0 
  2  6  2  0  0  0  0 
  3  7  1  0  0  0  0 
  4  8  1  0  0  0  0 
  4  9  1  0  0  0  0 
  4 10  1  0  0  0  0 
  9 11  1  0  0  0  0 
 10 12  1  0  0  0  0 
 11 13  1  0  0  0  0 
 12 13  1  0  0  0  0 
 13 14  1  0  0  0  0 
 14 15  2  0  0  0  0 
 14 16  1  0  0  0  0 
 15 17  1  0  0  0  0 
 16 18  2  0  0  0  0 
 17 19  2  0  0  0  0 
 18 19  1  0  0  0  0 
  1 20  1  0  0  0  0 
  3 21  1  0  0  0  0 
  3 22  1  0  0  0  0 
  5 23  1  0  0  0  0 
  7 24  1  0  0  0  0 
  7 25  1  0  0  0  0 
  7 26  1  0  0  0  0 
  8 27  1  0  0  0  0 
  9 28  1  0  0  0  0 
  9 29  1  0  0  0  0 
 10 30  1  0  0  0  0 
 10 31  1  0  0  0  0 
 11 32  1  0  0  0  0 
 11 33  1  0  0  0  0 
 12 34  1  0  0  0  0 
 12 35  1  0  0  0  0 
 13 36  1  0  0  0  0 
 15 37  1  0  0  0  0 
 16 38  1  0  0  0  0 
 17 39  1  0  0  0  0 
 18 40  1  0  0  0  0 
 19 41  1  0  0  0  0 
M  END
> <cdk:Title>
fencibutirol

> <Conformer>
1

> <SuperDrugID>
SD003202

$$$$
