domiodol
  CDK     0628171802

 18 18  0  0  0  0  0  0  0  0999 V2000
   -0.2160   -2.2560   -0.0449 C   0  0  1  0  0  0  0  0  0  0  0  0
   -1.3326   -1.9670   -0.8772 O   0  0  0  0  0  0  0  0  0  0  0  0
    0.6820   -1.0055    0.0922 C   0  0  2  0  0  0  0  0  0  0  0  0
    1.1975   -0.5884   -1.1714 O   0  0  0  0  0  0  0  0  0  0  0  0
    1.9308   -1.2200    0.9573 C   0  0  2  0  0  0  0  0  0  0  0  0
    2.5332   -0.1261   -0.9238 C   0  0  2  0  0  0  0  0  0  0  0  0
    2.8193   -0.2188    0.4792 O   0  0  0  0  0  0  0  0  0  0  0  0
    2.7181    1.3307   -1.3932 C   0  0  2  0  0  0  0  0  0  0  0  0
    2.1907    1.5595   -3.4364 I   0  0  0  0  0  0  0  0  0  0  0  0
   -0.5802   -2.5612    0.9377 H   0  0  0  0  0  0  0  0  0  0  0  0
    0.3460   -3.0836   -0.4842 H   0  0  0  0  0  0  0  0  0  0  0  0
   -1.8244   -2.8130   -0.9371 H   0  0  0  0  0  0  0  0  0  0  0  0
    0.0925   -0.1817    0.5087 H   0  0  0  0  0  0  0  0  0  0  0  0
    2.3688   -2.2117    0.8052 H   0  0  0  0  0  0  0  0  0  0  0  0
    1.7184   -1.0723    2.0191 H   0  0  0  0  0  0  0  0  0  0  0  0
    3.2248   -0.7702   -1.4743 H   0  0  0  0  0  0  0  0  0  0  0  0
    3.7625    1.6232   -1.2691 H   0  0  0  0  0  0  0  0  0  0  0  0
    2.0959    2.0002   -0.7958 H   0  0  0  0  0  0  0  0  0  0  0  0
  1  2  1  0  0  0  0 
  1  3  1  0  0  0  0 
  3  4  1  0  0  0  0 
  3  5  1  0  0  0  0 
  4  6  1  0  0  0  0 
  5  7  1  0  0  0  0 
  6  7  1  0  0  0  0 
  6  8  1  0  0  0  0 
  8  9  1  0  0  0  0 
  1 10  1  0  0  0  0 
  1 11  1  0  0  0  0 
  2 12  1  0  0  0  0 
  3 13  1  0  0  0  0 
  5 14  1  0  0  0  0 
  5 15  1  0  0  0  0 
  6 16  1  0  0  0  0 
  8 17  1  0  0  0  0 
  8 18  1  0  0  0  0 
M  END
> <cdk:Title>
domiodol

> <Conformer>
1

> <SuperDrugID>
SD000838

$$$$
