metildigoxin
  CDK     0628171801

122129  0  0  0  0  0  0  0  0999 V2000
    3.7634    2.9902   -0.4855 O   0  0  0  0  0  0  0  0  0  0  0  0
    3.1447    2.2126    0.5484 C   0  0  2  0  0  0  0  0  0  0  0  0
    1.6535    1.8893    0.1599 C   0  0  1  0  0  0  0  0  0  0  0  0
    3.3209    3.0899    1.8543 C   0  0  1  0  0  0  0  0  0  0  0  0
    3.8444    0.8116    0.5481 C   0  0  2  0  0  0  0  0  0  0  0  0
    0.9180    3.1170   -0.4901 C   0  0  0  0  0  0  0  0  0  0  0  0
    1.7871    0.6647   -0.8320 C   0  0  2  0  0  0  0  0  0  0  0  0
    0.8527    1.4272    1.4517 C   0  0  2  0  0  0  0  0  0  0  0  0
    2.4859    2.6003    3.0909 C   0  0  2  0  0  0  0  0  0  0  0  0
    4.8415    3.3105    2.1937 C   0  0  1  0  0  0  0  0  0  0  0  0
    2.9522   -0.1738   -0.2375 C   0  0  1  0  0  0  0  0  0  0  0  0
    1.9320    0.9442   -2.2805 C   0  0  0  0  0  0  0  0  0  0  0  0
   -0.5369    1.2412    1.1705 O   0  0  0  0  0  0  0  0  0  0  0  0
    0.9959    2.3656    2.6775 C   0  0  2  0  0  0  0  0  0  0  0  0
    2.6974    3.4545    4.4431 C   0  0  2  0  0  0  0  0  0  0  0  0
    5.1865    3.2759    3.6986 C   0  0  1  0  0  0  0  0  0  0  0  0
    0.9056    0.9625   -3.1377 C   0  0  0  0  0  0  0  0  0  0  0  0
    3.1521    1.2050   -3.0312 C   0  0  2  0  0  0  0  0  0  0  0  0
    1.6645    4.6383    4.5481 C   0  0  0  0  0  0  0  0  0  0  0  0
    4.1502    4.1141    4.4981 C   0  0  2  0  0  0  0  0  0  0  0  0
    2.4632    2.4823    5.6780 C   0  0  2  0  0  0  0  0  0  0  0  0
    1.3501    1.2069   -4.3927 C   0  0  0  0  0  0  0  0  0  0  0  0
    2.6851    1.3476   -4.3696 O   0  0  0  0  0  0  0  0  0  0  0  0
    4.6819    4.4568    5.9309 C   0  0  2  0  0  0  0  0  0  0  0  0
    3.0697    2.9109    7.0450 C   0  0  2  0  0  0  0  0  0  0  0  0
    0.6465    1.2908   -5.4235 O   0  0  0  0  0  0  0  0  0  0  0  0
    4.5758    3.2451    6.8964 C   0  0  2  0  0  0  0  0  0  0  0  0
    5.1955    3.3902    8.2037 O   0  0  0  0  0  0  0  0  0  0  0  0
    6.6092    3.7207    8.2362 C   0  0  1  0  0  0  0  0  0  0  0  0
    7.1959    3.6547    9.6788 C   0  0  1  0  0  0  0  0  0  0  0  0
    7.4204    3.0160    7.2582 O   0  0  0  0  0  0  0  0  0  0  0  0
    7.7732    2.2613   10.0444 C   0  0  2  0  0  0  0  0  0  0  0  0
    7.9215    1.6979    7.5833 C   0  0  1  0  0  0  0  0  0  0  0  0
    8.4733    2.3248   11.2869 O   0  0  0  0  0  0  0  0  0  0  0  0
    8.7178    1.7282    8.9277 C   0  0  1  0  0  0  0  0  0  0  0  0
    6.8600    0.5658    7.5069 C   0  0  0  0  0  0  0  0  0  0  0  0
    9.8938    2.5846    8.8805 O   0  0  0  0  0  0  0  0  0  0  0  0
   11.0453    2.1372    8.1223 C   0  0  1  0  0  0  0  0  0  0  0  0
   12.1183    3.2603    8.0383 C   0  0  1  0  0  0  0  0  0  0  0  0
   11.5884    0.8783    8.5851 O   0  0  0  0  0  0  0  0  0  0  0  0
   13.0502    3.3052    9.2774 C   0  0  2  0  0  0  0  0  0  0  0  0
   12.4124    0.8963    9.7725 C   0  0  1  0  0  0  0  0  0  0  0  0
   14.1211    4.2214    9.0466 O   0  0  0  0  0  0  0  0  0  0  0  0
   13.6104    1.8907    9.6084 C   0  0  1  0  0  0  0  0  0  0  0  0
   11.5979    1.0850   11.0804 C   0  0  0  0  0  0  0  0  0  0  0  0
   14.5383    1.5528    8.5400 O   0  0  0  0  0  0  0  0  0  0  0  0
   15.3114    0.3346    8.6296 C   0  0  1  0  0  0  0  0  0  0  0  0
   16.1689    0.1471    7.3483 C   0  0  1  0  0  0  0  0  0  0  0  0
   16.0944    0.2194    9.8422 O   0  0  0  0  0  0  0  0  0  0  0  0
   17.4745    0.9784    7.3898 C   0  0  2  0  0  0  0  0  0  0  0  0
   17.3290    0.9710    9.9360 C   0  0  1  0  0  0  0  0  0  0  0  0
   18.2967    0.6651    6.2658 O   0  0  0  0  0  0  0  0  0  0  0  0
   18.2575    0.7134    8.7054 C   0  0  1  0  0  0  0  0  0  0  0  0
   17.1051    2.4738   10.2463 C   0  0  0  0  0  0  0  0  0  0  0  0
   18.7160   -0.6609    8.6655 O   0  0  0  0  0  0  0  0  0  0  0  0
   19.8687   -0.9787    9.4652 C   0  0  0  0  0  0  0  0  0  0  0  0
    2.9136    4.0797    1.6205 H   0  0  0  0  0  0  0  0  0  0  0  0
    2.8828    1.6003    3.2782 H   0  0  0  0  0  0  0  0  0  0  0  0
    4.1208    5.0848    3.9855 H   0  0  0  0  0  0  0  0  0  0  0  0
    6.6682    4.7756    7.9584 H   0  0  0  0  0  0  0  0  0  0  0  0
   10.7358    1.9622    7.0932 H   0  0  0  0  0  0  0  0  0  0  0  0
   14.6171   -0.5048    8.6309 H   0  0  0  0  0  0  0  0  0  0  0  0
    4.6981    3.0972   -0.2105 H   0  0  0  0  0  0  0  0  0  0  0  0
    3.9817    0.4361    1.5644 H   0  0  0  0  0  0  0  0  0  0  0  0
    4.8323    0.8556    0.0796 H   0  0  0  0  0  0  0  0  0  0  0  0
    0.8456    3.9495    0.2091 H   0  0  0  0  0  0  0  0  0  0  0  0
    1.4452    3.4816   -1.3724 H   0  0  0  0  0  0  0  0  0  0  0  0
   -0.0920    2.8438   -0.8024 H   0  0  0  0  0  0  0  0  0  0  0  0
    0.8880    0.0433   -0.7429 H   0  0  0  0  0  0  0  0  0  0  0  0
    1.2082    0.4500    1.7867 H   0  0  0  0  0  0  0  0  0  0  0  0
    5.4825    2.5716    1.7137 H   0  0  0  0  0  0  0  0  0  0  0  0
    5.1475    4.2819    1.7943 H   0  0  0  0  0  0  0  0  0  0  0  0
    3.5237   -0.7264   -0.9855 H   0  0  0  0  0  0  0  0  0  0  0  0
    2.5512   -0.9268    0.4485 H   0  0  0  0  0  0  0  0  0  0  0  0
   -0.9247    0.8962    2.0031 H   0  0  0  0  0  0  0  0  0  0  0  0
    0.4658    1.9076    3.5180 H   0  0  0  0  0  0  0  0  0  0  0  0
    0.5007    3.3118    2.4536 H   0  0  0  0  0  0  0  0  0  0  0  0
    5.1876    2.2403    4.0488 H   0  0  0  0  0  0  0  0  0  0  0  0
    6.1985    3.6700    3.8267 H   0  0  0  0  0  0  0  0  0  0  0  0
   -0.0452    0.8133   -2.8998 H   0  0  0  0  0  0  0  0  0  0  0  0
    3.8584    0.3755   -2.9870 H   0  0  0  0  0  0  0  0  0  0  0  0
    3.6446    2.1289   -2.7387 H   0  0  0  0  0  0  0  0  0  0  0  0
    1.8631    5.2681    5.4178 H   0  0  0  0  0  0  0  0  0  0  0  0
    0.6389    4.2778    4.6480 H   0  0  0  0  0  0  0  0  0  0  0  0
    1.7150    5.2700    3.6581 H   0  0  0  0  0  0  0  0  0  0  0  0
    2.9018    1.5030    5.4699 H   0  0  0  0  0  0  0  0  0  0  0  0
    1.3925    2.3090    5.8227 H   0  0  0  0  0  0  0  0  0  0  0  0
    4.1261    5.2997    6.3490 H   0  0  0  0  0  0  0  0  0  0  0  0
    5.7159    4.7911    5.8476 H   0  0  0  0  0  0  0  0  0  0  0  0
    2.9542    2.0880    7.7561 H   0  0  0  0  0  0  0  0  0  0  0  0
    2.5216    3.7672    7.4487 H   0  0  0  0  0  0  0  0  0  0  0  0
    5.0474    2.3866    6.4228 H   0  0  0  0  0  0  0  0  0  0  0  0
    8.0024    4.3899    9.7654 H   0  0  0  0  0  0  0  0  0  0  0  0
    6.4251    3.9298   10.4032 H   0  0  0  0  0  0  0  0  0  0  0  0
    6.9459    1.5620   10.1931 H   0  0  0  0  0  0  0  0  0  0  0  0
    8.6159    1.4557    6.7805 H   0  0  0  0  0  0  0  0  0  0  0  0
    7.8005    2.5895   11.9488 H   0  0  0  0  0  0  0  0  0  0  0  0
    9.0224    0.7119    9.1969 H   0  0  0  0  0  0  0  0  0  0  0  0
    7.3120   -0.3936    7.7684 H   0  0  0  0  0  0  0  0  0  0  0  0
    6.0267    0.7522    8.1831 H   0  0  0  0  0  0  0  0  0  0  0  0
    6.4705    0.4824    6.4911 H   0  0  0  0  0  0  0  0  0  0  0  0
   12.7330    3.0923    7.1494 H   0  0  0  0  0  0  0  0  0  0  0  0
   11.6248    4.2282    7.9166 H   0  0  0  0  0  0  0  0  0  0  0  0
   12.4907    3.6956   10.1309 H   0  0  0  0  0  0  0  0  0  0  0  0
   12.8149   -0.1119    9.8614 H   0  0  0  0  0  0  0  0  0  0  0  0
   13.6874    5.0844    8.8758 H   0  0  0  0  0  0  0  0  0  0  0  0
   14.1593    1.9513   10.5516 H   0  0  0  0  0  0  0  0  0  0  0  0
   12.2427    0.9476   11.9506 H   0  0  0  0  0  0  0  0  0  0  0  0
   11.1539    2.0762   11.1395 H   0  0  0  0  0  0  0  0  0  0  0  0
   10.7983    0.3440   11.1268 H   0  0  0  0  0  0  0  0  0  0  0  0
   16.4298   -0.9107    7.2520 H   0  0  0  0  0  0  0  0  0  0  0  0
   15.5839    0.4250    6.4682 H   0  0  0  0  0  0  0  0  0  0  0  0
   17.2262    2.0396    7.3131 H   0  0  0  0  0  0  0  0  0  0  0  0
   17.8328    0.5770   10.8201 H   0  0  0  0  0  0  0  0  0  0  0  0
   17.7677    0.9181    5.4800 H   0  0  0  0  0  0  0  0  0  0  0  0
   19.1123    1.3994    8.7296 H   0  0  0  0  0  0  0  0  0  0  0  0
   18.0605    2.9691   10.4317 H   0  0  0  0  0  0  0  0  0  0  0  0
   16.6106    2.9809    9.4200 H   0  0  0  0  0  0  0  0  0  0  0  0
   16.4894    2.5798   11.1405 H   0  0  0  0  0  0  0  0  0  0  0  0
   20.1108   -2.0224    9.2613 H   0  0  0  0  0  0  0  0  0  0  0  0
   19.5953   -0.9268   10.5624 H   0  0  0  0  0  0  0  0  0  0  0  0
   20.7511   -0.3693    9.0973 H   0  0  0  0  0  0  0  0  0  0  0  0
  2  1  1  0  0  0  0 
  2  3  1  0  0  0  0 
  4  2  1  0  0  0  0 
  2  5  1  0  0  0  0 
  3  6  1  0  0  0  0 
  3  7  1  0  0  0  0 
  3  8  1  0  0  0  0 
  9  4  1  0  0  0  0 
  4 10  1  0  0  0  0 
  4 57  1  0  0  0  0 
  5 11  1  0  0  0  0 
  7 11  1  0  0  0  0 
  7 12  1  0  0  0  0 
  8 13  1  0  0  0  0 
  8 14  1  0  0  0  0 
  9 14  1  0  0  0  0 
 15  9  1  0  0  0  0 
  9 58  1  0  0  0  0 
 10 16  1  0  0  0  0 
 12 17  2  0  0  0  0 
 12 18  1  0  0  0  0 
 15 19  1  0  0  0  0 
 20 15  1  0  0  0  0 
 15 21  1  0  0  0  0 
 20 16  1  0  0  0  0 
 17 22  1  0  0  0  0 
 18 23  1  0  0  0  0 
 20 24  1  0  0  0  0 
 20 59  1  0  0  0  0 
 21 25  1  0  0  0  0 
 22 23  1  0  0  0  0 
 22 26  2  0  0  0  0 
 27 24  1  0  0  0  0 
 27 25  1  0  0  0  0 
 27 28  1  0  0  0  0 
 29 28  1  0  0  0  0 
 29 30  1  0  0  0  0 
 29 31  1  0  0  0  0 
 29 60  1  0  0  0  0 
 32 30  1  0  0  0  0 
 33 31  1  0  0  0  0 
 32 34  1  0  0  0  0 
 35 32  1  0  0  0  0 
 33 35  1  0  0  0  0 
 33 36  1  0  0  0  0 
 35 37  1  0  0  0  0 
 38 37  1  0  0  0  0 
 38 39  1  0  0  0  0 
 38 40  1  0  0  0  0 
 38 61  1  0  0  0  0 
 41 39  1  0  0  0  0 
 42 40  1  0  0  0  0 
 41 43  1  0  0  0  0 
 44 41  1  0  0  0  0 
 44 42  1  0  0  0  0 
 42 45  1  0  0  0  0 
 44 46  1  0  0  0  0 
 47 46  1  0  0  0  0 
 47 48  1  0  0  0  0 
 47 49  1  0  0  0  0 
 47 62  1  0  0  0  0 
 50 48  1  0  0  0  0 
 51 49  1  0  0  0  0 
 50 52  1  0  0  0  0 
 53 50  1  0  0  0  0 
 53 51  1  0  0  0  0 
 51 54  1  0  0  0  0 
 53 55  1  0  0  0  0 
 55 56  1  0  0  0  0 
  1 63  1  0  0  0  0 
  5 64  1  0  0  0  0 
  5 65  1  0  0  0  0 
  6 66  1  0  0  0  0 
  6 67  1  0  0  0  0 
  6 68  1  0  0  0  0 
  7 69  1  0  0  0  0 
  8 70  1  0  0  0  0 
 10 71  1  0  0  0  0 
 10 72  1  0  0  0  0 
 11 73  1  0  0  0  0 
 11 74  1  0  0  0  0 
 13 75  1  0  0  0  0 
 14 76  1  0  0  0  0 
 14 77  1  0  0  0  0 
 16 78  1  0  0  0  0 
 16 79  1  0  0  0  0 
 17 80  1  0  0  0  0 
 18 81  1  0  0  0  0 
 18 82  1  0  0  0  0 
 19 83  1  0  0  0  0 
 19 84  1  0  0  0  0 
 19 85  1  0  0  0  0 
 21 86  1  0  0  0  0 
 21 87  1  0  0  0  0 
 24 88  1  0  0  0  0 
 24 89  1  0  0  0  0 
 25 90  1  0  0  0  0 
 25 91  1  0  0  0  0 
 27 92  1  0  0  0  0 
 30 93  1  0  0  0  0 
 30 94  1  0  0  0  0 
 32 95  1  0  0  0  0 
 33 96  1  0  0  0  0 
 34 97  1  0  0  0  0 
 35 98  1  0  0  0  0 
 36 99  1  0  0  0  0 
 36100  1  0  0  0  0 
 36101  1  0  0  0  0 
 39102  1  0  0  0  0 
 39103  1  0  0  0  0 
 41104  1  0  0  0  0 
 42105  1  0  0  0  0 
 43106  1  0  0  0  0 
 44107  1  0  0  0  0 
 45108  1  0  0  0  0 
 45109  1  0  0  0  0 
 45110  1  0  0  0  0 
 48111  1  0  0  0  0 
 48112  1  0  0  0  0 
 50113  1  0  0  0  0 
 51114  1  0  0  0  0 
 52115  1  0  0  0  0 
 53116  1  0  0  0  0 
 54117  1  0  0  0  0 
 54118  1  0  0  0  0 
 54119  1  0  0  0  0 
 56120  1  0  0  0  0 
 56121  1  0  0  0  0 
 56122  1  0  0  0  0 
M  END
> <cdk:Title>
metildigoxin

> <Conformer>
1

> <SuperDrugID>
SD001561

$$$$
