morphine
  CDK     0628171801

 40 44  0  0  0  0  0  0  0  0999 V2000
   -5.8469   -0.6344    2.6873 O   0  0  0  0  0  0  0  0  0  0  0  0
   -4.5457   -0.8559    2.1343 C   0  0  2  0  0  0  0  0  0  0  0  0
   -3.4450   -0.5850    3.2258 C   0  0  1  0  0  0  0  0  0  0  0  0
   -4.3958   -0.1035    0.8923 C   0  0  0  0  0  0  0  0  0  0  0  0
   -2.1566    0.1286    2.6831 C   0  0  2  0  0  0  0  0  0  0  0  0
   -3.9441    0.2411    4.3141 O   0  0  0  0  0  0  0  0  0  0  0  0
   -3.2135    0.3283    0.4211 C   0  0  0  0  0  0  0  0  0  0  0  0
   -2.5135    1.4951    3.0698 C   0  0  0  0  0  0  0  0  0  0  0  0
   -1.9579    0.0944    1.1297 C   0  0  1  0  0  0  0  0  0  0  0  0
   -0.8431   -0.3397    3.3962 C   0  0  1  0  0  0  0  0  0  0  0  0
   -3.5228    1.4986    4.0202 C   0  0  0  0  0  0  0  0  0  0  0  0
   -2.0320    2.6762    2.4729 C   0  0  0  0  0  0  0  0  0  0  0  0
   -0.8045    1.1194    0.8074 C   0  0  1  0  0  0  0  0  0  0  0  0
    0.4237    0.4151    2.9058 C   0  0  1  0  0  0  0  0  0  0  0  0
   -4.0230    2.7172    4.5149 C   0  0  0  0  0  0  0  0  0  0  0  0
   -1.1451    2.5876    1.2794 C   0  0  2  0  0  0  0  0  0  0  0  0
   -2.5088    3.9040    2.9858 C   0  0  0  0  0  0  0  0  0  0  0  0
    0.4596    0.5723    1.4182 N   0  0  2  0  0  0  0  0  0  0  0  0
   -5.0047    2.7218    5.4505 O   0  0  0  0  0  0  0  0  0  0  0  0
   -3.4917    3.9230    4.0023 C   0  0  0  0  0  0  0  0  0  0  0  0
    1.7412    1.1519    0.9231 C   0  0  0  0  0  0  0  0  0  0  0  0
   -1.6230   -0.9050    0.8304 H   0  0  0  0  0  0  0  0  0  0  0  0
   -3.1801   -1.5535    3.6625 H   0  0  0  0  0  0  0  0  0  0  0  0
   -0.6715    1.1311   -0.2805 H   0  0  0  0  0  0  0  0  0  0  0  0
   -6.4816   -0.8271    1.9642 H   0  0  0  0  0  0  0  0  0  0  0  0
   -4.5066   -1.9127    1.8547 H   0  0  0  0  0  0  0  0  0  0  0  0
   -5.2072    0.0804    0.3500 H   0  0  0  0  0  0  0  0  0  0  0  0
   -3.1922    0.8151   -0.4450 H   0  0  0  0  0  0  0  0  0  0  0  0
   -0.9321   -0.2210    4.4814 H   0  0  0  0  0  0  0  0  0  0  0  0
   -0.7043   -1.4056    3.1963 H   0  0  0  0  0  0  0  0  0  0  0  0
    0.4664    1.3971    3.3852 H   0  0  0  0  0  0  0  0  0  0  0  0
    1.3008   -0.1484    3.2360 H   0  0  0  0  0  0  0  0  0  0  0  0
   -0.2314    3.1501    1.4792 H   0  0  0  0  0  0  0  0  0  0  0  0
   -1.6588    3.0972    0.4593 H   0  0  0  0  0  0  0  0  0  0  0  0
   -2.1602    4.7864    2.6037 H   0  0  0  0  0  0  0  0  0  0  0  0
   -5.3170    3.6491    5.5025 H   0  0  0  0  0  0  0  0  0  0  0  0
   -3.8341    4.8196    4.3524 H   0  0  0  0  0  0  0  0  0  0  0  0
    1.7270    1.2778   -0.1594 H   0  0  0  0  0  0  0  0  0  0  0  0
    1.9467    2.1170    1.3862 H   0  0  0  0  0  0  0  0  0  0  0  0
    2.5634    0.4773    1.1612 H   0  0  0  0  0  0  0  0  0  0  0  0
  2  1  1  0  0  0  0 
  3  2  1  0  0  0  0 
  2  4  1  0  0  0  0 
  5  3  1  0  0  0  0 
  3  6  1  0  0  0  0 
  3 23  1  0  0  0  0 
  4  7  2  0  0  0  0 
  5  8  1  0  0  0  0 
  9  5  1  0  0  0  0 
  5 10  1  0  0  0  0 
  6 11  1  0  0  0  0 
  9  7  1  0  0  0  0 
  8 11  2  0  0  0  0 
  8 12  1  0  0  0  0 
 13  9  1  0  0  0  0 
  9 22  1  0  0  0  0 
 10 14  1  0  0  0  0 
 11 15  1  0  0  0  0 
 12 16  1  0  0  0  0 
 12 17  2  0  0  0  0 
 13 16  1  0  0  0  0 
 13 18  1  0  0  0  0 
 13 24  1  0  0  0  0 
 14 18  1  0  0  0  0 
 15 19  1  0  0  0  0 
 15 20  2  0  0  0  0 
 17 20  1  0  0  0  0 
 18 21  1  0  0  0  0 
  1 25  1  0  0  0  0 
  2 26  1  0  0  0  0 
  4 27  1  0  0  0  0 
  7 28  1  0  0  0  0 
 10 29  1  0  0  0  0 
 10 30  1  0  0  0  0 
 14 31  1  0  0  0  0 
 14 32  1  0  0  0  0 
 16 33  1  0  0  0  0 
 16 34  1  0  0  0  0 
 17 35  1  0  0  0  0 
 19 36  1  0  0  0  0 
 20 37  1  0  0  0  0 
 21 38  1  0  0  0  0 
 21 39  1  0  0  0  0 
 21 40  1  0  0  0  0 
M  END
> <cdk:Title>
morphine

> <Conformer>
1

> <SuperDrugID>
SD001643

$$$$
