zofenopril
  CDK     0628171801

 52 54  0  0  0  0  0  0  0  0999 V2000
    0.5422   -3.5201    2.7861 C   0  0  0  0  0  0  0  0  0  0  0  0
   -0.8046   -3.9331    2.2805 C   0  0  1  0  0  0  0  0  0  0  0  0
    1.5022   -4.2344    2.4021 O   0  0  0  0  0  0  0  0  0  0  0  0
    0.8039   -2.4689    3.6567 N   0  0  0  0  0  0  0  0  0  0  0  0
   -0.8241   -4.2095    0.7440 C   0  0  1  0  0  0  0  0  0  0  0  0
   -1.2992   -5.1722    3.0755 C   0  0  0  0  0  0  0  0  0  0  0  0
   -0.1571   -1.5505    4.2177 C   0  0  2  0  0  0  0  0  0  0  0  0
    2.1344   -2.2160    4.1333 C   0  0  2  0  0  0  0  0  0  0  0  0
   -0.2369   -2.8212   -0.2846 S   0  0  0  0  0  0  0  0  0  0  0  0
   -0.9245   -0.7577    3.2243 C   0  0  0  0  0  0  0  0  0  0  0  0
    0.6582   -0.6038    5.1416 C   0  0  2  0  0  0  0  0  0  0  0  0
    2.0021   -1.3133    5.3765 C   0  0  2  0  0  0  0  0  0  0  0  0
   -1.4616   -1.5600   -0.2138 C   0  0  0  0  0  0  0  0  0  0  0  0
   -2.2802   -0.7502    3.2443 O   0  0  0  0  0  0  0  0  0  0  0  0
   -0.3312   -0.0736    2.3598 O   0  0  0  0  0  0  0  0  0  0  0  0
    3.4701   -0.2296    5.5496 S   0  0  0  0  0  0  0  0  0  0  0  0
   -2.5933   -1.8981    0.2052 O   0  0  0  0  0  0  0  0  0  0  0  0
   -1.2076   -0.2078   -0.6002 C   0  0  0  0  0  0  0  0  0  0  0  0
    2.9635    1.1707    6.4775 C   0  0  0  0  0  0  0  0  0  0  0  0
   -0.0080    0.1787   -1.2542 C   0  0  0  0  0  0  0  0  0  0  0  0
   -2.1546    0.8124   -0.3163 C   0  0  0  0  0  0  0  0  0  0  0  0
    2.9811    1.1498    7.8875 C   0  0  0  0  0  0  0  0  0  0  0  0
    2.5697    2.3469    5.8040 C   0  0  0  0  0  0  0  0  0  0  0  0
    0.2368    1.5195   -1.6013 C   0  0  0  0  0  0  0  0  0  0  0  0
   -1.9099    2.1547   -0.6622 C   0  0  0  0  0  0  0  0  0  0  0  0
    2.5996    2.2938    8.6155 C   0  0  0  0  0  0  0  0  0  0  0  0
    2.1870    3.4885    6.5326 C   0  0  0  0  0  0  0  0  0  0  0  0
   -0.7128    2.5099   -1.3050 C   0  0  0  0  0  0  0  0  0  0  0  0
    2.1988    3.4613    7.9391 C   0  0  0  0  0  0  0  0  0  0  0  0
   -1.5381   -3.1531    2.4606 H   0  0  0  0  0  0  0  0  0  0  0  0
   -0.1775   -5.0596    0.5178 H   0  0  0  0  0  0  0  0  0  0  0  0
   -1.8329   -4.4674    0.4150 H   0  0  0  0  0  0  0  0  0  0  0  0
   -1.3167   -4.9579    4.1469 H   0  0  0  0  0  0  0  0  0  0  0  0
   -0.6478   -6.0317    2.9014 H   0  0  0  0  0  0  0  0  0  0  0  0
   -2.3129   -5.4376    2.7679 H   0  0  0  0  0  0  0  0  0  0  0  0
   -0.8542   -2.1287    4.8348 H   0  0  0  0  0  0  0  0  0  0  0  0
    2.6945   -1.7224    3.3323 H   0  0  0  0  0  0  0  0  0  0  0  0
    2.6552   -3.1390    4.4147 H   0  0  0  0  0  0  0  0  0  0  0  0
    0.1382   -0.4279    6.0876 H   0  0  0  0  0  0  0  0  0  0  0  0
    0.8395    0.3621    4.6640 H   0  0  0  0  0  0  0  0  0  0  0  0
    1.9236   -1.9385    6.2724 H   0  0  0  0  0  0  0  0  0  0  0  0
   -2.7838   -0.2449    2.5716 H   0  0  0  0  0  0  0  0  0  0  0  0
    0.7120   -0.5057   -1.4907 H   0  0  0  0  0  0  0  0  0  0  0  0
   -3.0347    0.5948    0.1575 H   0  0  0  0  0  0  0  0  0  0  0  0
    3.2781    0.3100    8.3896 H   0  0  0  0  0  0  0  0  0  0  0  0
    2.5614    2.3812    4.7816 H   0  0  0  0  0  0  0  0  0  0  0  0
    1.1108    1.7755   -2.0655 H   0  0  0  0  0  0  0  0  0  0  0  0
   -2.6010    2.8737   -0.4387 H   0  0  0  0  0  0  0  0  0  0  0  0
    2.6159    2.2785    9.6377 H   0  0  0  0  0  0  0  0  0  0  0  0
    1.9023    4.3381    6.0395 H   0  0  0  0  0  0  0  0  0  0  0  0
   -0.5312    3.4854   -1.5525 H   0  0  0  0  0  0  0  0  0  0  0  0
    1.9188    4.2903    8.4685 H   0  0  0  0  0  0  0  0  0  0  0  0
  2  1  1  0  0  0  0 
  1  3  2  0  0  0  0 
  1  4  1  0  0  0  0 
  2  5  1  0  0  0  0 
  2  6  1  0  0  0  0 
  7  4  1  0  0  0  0 
  4  8  1  0  0  0  0 
  5  9  1  0  0  0  0 
  7 10  1  0  0  0  0 
  7 11  1  0  0  0  0 
 12  8  1  0  0  0  0 
  9 13  1  0  0  0  0 
 10 14  1  0  0  0  0 
 10 15  2  0  0  0  0 
 12 11  1  0  0  0  0 
 12 16  1  0  0  0  0 
 13 17  2  0  0  0  0 
 13 18  1  0  0  0  0 
 16 19  1  0  0  0  0 
 18 20  2  0  0  0  0 
 18 21  1  0  0  0  0 
 19 22  2  0  0  0  0 
 19 23  1  0  0  0  0 
 20 24  1  0  0  0  0 
 21 25  2  0  0  0  0 
 22 26  1  0  0  0  0 
 23 27  2  0  0  0  0 
 24 28  2  0  0  0  0 
 25 28  1  0  0  0  0 
 26 29  2  0  0  0  0 
 27 29  1  0  0  0  0 
  2 30  1  0  0  0  0 
  5 31  1  0  0  0  0 
  5 32  1  0  0  0  0 
  6 33  1  0  0  0  0 
  6 34  1  0  0  0  0 
  6 35  1  0  0  0  0 
  7 36  1  0  0  0  0 
  8 37  1  0  0  0  0 
  8 38  1  0  0  0  0 
 11 39  1  0  0  0  0 
 11 40  1  0  0  0  0 
 12 41  1  0  0  0  0 
 14 42  1  0  0  0  0 
 20 43  1  0  0  0  0 
 21 44  1  0  0  0  0 
 22 45  1  0  0  0  0 
 23 46  1  0  0  0  0 
 24 47  1  0  0  0  0 
 25 48  1  0  0  0  0 
 26 49  1  0  0  0  0 
 27 50  1  0  0  0  0 
 28 51  1  0  0  0  0 
 29 52  1  0  0  0  0 
M  END
> <cdk:Title>
zofenopril

> <Conformer>
1

> <SuperDrugID>
SD002583

$$$$
