sulfasalazine
  CDK     0628171801

 42 44  0  0  0  0  0  0  0  0999 V2000
   -0.7771    2.4601  -21.2909 O   0  0  0  0  0  0  0  0  0  0  0  0
   -0.3879    1.2290  -21.7046 C   0  0  0  0  0  0  0  0  0  0  0  0
   -0.3379    1.0745  -22.9459 O   0  0  0  0  0  0  0  0  0  0  0  0
   -0.0866    0.1824  -20.7806 C   0  0  0  0  0  0  0  0  0  0  0  0
   -0.2419    0.4083  -19.3880 C   0  0  0  0  0  0  0  0  0  0  0  0
    0.0093   -0.6000  -18.4330 C   0  0  0  0  0  0  0  0  0  0  0  0
    0.4273   -1.8724  -18.8792 C   0  0  0  0  0  0  0  0  0  0  0  0
    0.5983   -2.1206  -20.2502 C   0  0  0  0  0  0  0  0  0  0  0  0
    0.3570   -1.1043  -21.1935 C   0  0  0  0  0  0  0  0  0  0  0  0
    0.5676   -1.4293  -22.4934 O   0  0  0  0  0  0  0  0  0  0  0  0
   -0.1727   -0.2913  -17.1578 N   0  0  0  0  0  0  0  0  0  0  0  0
    0.0899   -0.9769  -16.1739 N   0  0  0  0  0  0  0  0  0  0  0  0
   -0.1183   -0.6224  -14.9126 C   0  0  0  0  0  0  0  0  0  0  0  0
   -0.8194    0.5492  -14.5386 C   0  0  0  0  0  0  0  0  0  0  0  0
   -0.9735    0.8899  -13.1859 C   0  0  0  0  0  0  0  0  0  0  0  0
   -0.4106    0.0809  -12.1795 C   0  0  0  0  0  0  0  0  0  0  0  0
    0.2653   -1.1021  -12.5410 C   0  0  0  0  0  0  0  0  0  0  0  0
    0.4028   -1.4531  -13.8976 C   0  0  0  0  0  0  0  0  0  0  0  0
   -0.5402    0.5681  -10.4795 S   0  0  2  0  0  0  0  0  0  0  0  0
    0.7961    0.1780   -9.6815 O   0  0  0  0  0  0  0  0  0  0  0  0
   -1.7838   -0.1857   -9.8031 O   0  0  0  0  0  0  0  0  0  0  0  0
   -0.7880    2.2652  -10.3657 N   0  0  0  0  0  0  0  0  0  0  0  0
    0.0870    3.1829  -10.8462 C   0  0  0  0  0  0  0  0  0  0  0  0
   -0.3231    4.5236  -11.0110 C   0  0  0  0  0  0  0  0  0  0  0  0
    0.5832    5.4593  -11.5457 C   0  0  0  0  0  0  0  0  0  0  0  0
    1.8847    5.0564  -11.8967 C   0  0  0  0  0  0  0  0  0  0  0  0
    2.2547    3.7135  -11.7059 C   0  0  0  0  0  0  0  0  0  0  0  0
    1.3556    2.8353  -11.1985 N   0  0  0  0  0  0  0  0  0  0  0  0
   -0.9812    3.1602  -21.9424 H   0  0  0  0  0  0  0  0  0  0  0  0
   -0.5472    1.3262  -19.0512 H   0  0  0  0  0  0  0  0  0  0  0  0
    0.6064   -2.6261  -18.2124 H   0  0  0  0  0  0  0  0  0  0  0  0
    0.8997   -3.0484  -20.5608 H   0  0  0  0  0  0  0  0  0  0  0  0
    0.9428   -0.6222  -22.9008 H   0  0  0  0  0  0  0  0  0  0  0  0
   -1.2160    1.1698  -15.2462 H   0  0  0  0  0  0  0  0  0  0  0  0
   -1.4866    1.7399  -12.9450 H   0  0  0  0  0  0  0  0  0  0  0  0
    0.6704   -1.7073  -11.8233 H   0  0  0  0  0  0  0  0  0  0  0  0
    0.9019   -2.3118  -14.1414 H   0  0  0  0  0  0  0  0  0  0  0  0
   -1.6229    2.5804   -9.9856 H   0  0  0  0  0  0  0  0  0  0  0  0
   -1.2705    4.8221  -10.7566 H   0  0  0  0  0  0  0  0  0  0  0  0
    0.2963    6.4314  -11.6811 H   0  0  0  0  0  0  0  0  0  0  0  0
    2.5517    5.7290  -12.2847 H   0  0  0  0  0  0  0  0  0  0  0  0
    3.1924    3.3916  -11.9459 H   0  0  0  0  0  0  0  0  0  0  0  0
  1  2  1  0  0  0  0 
  2  3  2  0  0  0  0 
  2  4  1  0  0  0  0 
  4  5  2  0  0  0  0 
  5  6  1  0  0  0  0 
  6  7  2  0  0  0  0 
  7  8  1  0  0  0  0 
  8  9  2  0  0  0  0 
  4  9  1  0  0  0  0 
  9 10  1  0  0  0  0 
 11  6  1  0  0  0  0 
 11 12  2  0  0  0  0 
 12 13  1  0  0  0  0 
 13 14  2  0  0  0  0 
 14 15  1  0  0  0  0 
 15 16  2  0  0  0  0 
 16 17  1  0  0  0  0 
 17 18  2  0  0  0  0 
 13 18  1  0  0  0  0 
 16 19  1  0  0  0  0 
 19 20  2  0  0  0  0 
 19 21  2  0  0  0  0 
 19 22  1  0  0  0  0 
 22 23  1  0  0  0  0 
 23 24  2  0  0  0  0 
 24 25  1  0  0  0  0 
 25 26  2  0  0  0  0 
 26 27  1  0  0  0  0 
 27 28  2  0  0  0  0 
 23 28  1  0  0  0  0 
 29  1  1  0  0  0  0 
 30  5  1  0  0  0  0 
 31  7  1  0  0  0  0 
 32  8  1  0  0  0  0 
 33 10  1  0  0  0  0 
 34 14  1  0  0  0  0 
 35 15  1  0  0  0  0 
 36 17  1  0  0  0  0 
 37 18  1  0  0  0  0 
 38 22  1  0  0  0  0 
 39 24  1  0  0  0  0 
 40 25  1  0  0  0  0 
 41 26  1  0  0  0  0 
 42 27  1  0  0  0  0 
M  END
> <cdk:Title>
sulfasalazine

> <Conformer>
1

> <SuperDrugID>
SD002271

$$$$
