protirelin
  CDK     0628171801

 48 50  0  0  0  0  0  0  0  0999 V2000
    1.4803   -2.6944    1.4930 C   0  0  0  0  0  0  0  0  0  0  0  0
    1.1436   -1.8786    2.7049 C   0  0  2  0  0  0  0  0  0  0  0  0
    1.5111   -3.9363    1.6744 O   0  0  0  0  0  0  0  0  0  0  0  0
    1.7348   -2.1834    0.2256 N   0  0  0  0  0  0  0  0  0  0  0  0
    2.2747   -1.8691    3.7734 C   0  0  1  0  0  0  0  0  0  0  0  0
   -0.0522   -2.3865    3.3130 N   0  0  0  0  0  0  0  0  0  0  0  0
    1.9150   -2.9862   -0.9607 C   0  0  2  0  0  0  0  0  0  0  0  0
    1.7867   -0.7799   -0.0833 C   0  0  2  0  0  0  0  0  0  0  0  0
    3.5708   -1.4143    3.2341 C   0  0  0  0  0  0  0  0  0  0  0  0
   -1.2942   -2.3665    2.7527 C   0  0  0  0  0  0  0  0  0  0  0  0
    2.7296   -4.2233   -0.8551 C   0  0  0  0  0  0  0  0  0  0  0  0
    2.5122   -2.0235   -2.0115 C   0  0  2  0  0  0  0  0  0  0  0  0
    1.9231   -0.6676   -1.6148 C   0  0  1  0  0  0  0  0  0  0  0  0
    4.1375   -0.1465    3.3176 C   0  0  0  0  0  0  0  0  0  0  0  0
    4.4319   -2.1654    2.5371 N   0  0  0  0  0  0  0  0  0  0  0  0
   -1.4922   -1.8141    1.6440 O   0  0  0  0  0  0  0  0  0  0  0  0
   -2.4289   -3.0373    3.4269 C   0  0  2  0  0  0  0  0  0  0  0  0
    2.2123   -5.4000   -1.2585 N   0  0  0  0  0  0  0  0  0  0  0  0
    3.8956   -4.1981   -0.3974 O   0  0  0  0  0  0  0  0  0  0  0  0
    5.3097   -0.1535    2.6627 N   0  0  0  0  0  0  0  0  0  0  0  0
    5.4737   -1.4000    2.1883 C   0  0  0  0  0  0  0  0  0  0  0  0
   -2.7417   -2.5446    4.8662 C   0  0  2  0  0  0  0  0  0  0  0  0
   -2.1765   -4.4196    3.5936 N   0  0  0  0  0  0  0  0  0  0  0  0
   -3.0016   -3.8299    5.6850 C   0  0  2  0  0  0  0  0  0  0  0  0
   -2.4910   -4.8801    4.8069 C   0  0  0  0  0  0  0  0  0  0  0  0
   -2.3853   -6.0842    5.1291 O   0  0  0  0  0  0  0  0  0  0  0  0
    0.9487   -0.8374    2.4430 H   0  0  0  0  0  0  0  0  0  0  0  0
    1.9794   -1.2044    4.5911 H   0  0  0  0  0  0  0  0  0  0  0  0
    2.4073   -2.8668    4.1998 H   0  0  0  0  0  0  0  0  0  0  0  0
    0.0335   -2.8071    4.1838 H   0  0  0  0  0  0  0  0  0  0  0  0
    0.9073   -3.2605   -1.2920 H   0  0  0  0  0  0  0  0  0  0  0  0
    2.6525   -0.3228    0.4046 H   0  0  0  0  0  0  0  0  0  0  0  0
    0.8771   -0.2602    0.2296 H   0  0  0  0  0  0  0  0  0  0  0  0
    2.2282   -2.3068   -3.0294 H   0  0  0  0  0  0  0  0  0  0  0  0
    3.6046   -1.9755   -1.9413 H   0  0  0  0  0  0  0  0  0  0  0  0
    0.9397   -0.5385   -2.0793 H   0  0  0  0  0  0  0  0  0  0  0  0
    2.5727    0.1593   -1.9156 H   0  0  0  0  0  0  0  0  0  0  0  0
    3.7313    0.6623    3.7914 H   0  0  0  0  0  0  0  0  0  0  0  0
    4.3173   -3.1038    2.3207 H   0  0  0  0  0  0  0  0  0  0  0  0
   -3.3318   -2.9446    2.8137 H   0  0  0  0  0  0  0  0  0  0  0  0
    2.7356   -6.2151   -1.2026 H   0  0  0  0  0  0  0  0  0  0  0  0
    1.3059   -5.4305   -1.6091 H   0  0  0  0  0  0  0  0  0  0  0  0
    6.2737   -1.7186    1.6406 H   0  0  0  0  0  0  0  0  0  0  0  0
   -3.6163   -1.8879    4.8738 H   0  0  0  0  0  0  0  0  0  0  0  0
   -1.8988   -1.9971    5.3002 H   0  0  0  0  0  0  0  0  0  0  0  0
   -1.8237   -4.9858    2.8880 H   0  0  0  0  0  0  0  0  0  0  0  0
   -4.0695   -3.9816    5.8618 H   0  0  0  0  0  0  0  0  0  0  0  0
   -2.4639   -3.8131    6.6362 H   0  0  0  0  0  0  0  0  0  0  0  0
  2  1  1  0  0  0  0 
  1  3  2  0  0  0  0 
  1  4  1  0  0  0  0 
  2  5  1  0  0  0  0 
  2  6  1  0  0  0  0 
  7  4  1  0  0  0  0 
  4  8  1  0  0  0  0 
  5  9  1  0  0  0  0 
  6 10  1  0  0  0  0 
  7 11  1  0  0  0  0 
  7 12  1  0  0  0  0 
  8 13  1  0  0  0  0 
  9 14  2  0  0  0  0 
  9 15  1  0  0  0  0 
 10 16  2  0  0  0  0 
 11 18  1  0  0  0  0 
 11 19  2  0  0  0  0 
 12 13  1  0  0  0  0 
 14 20  1  0  0  0  0 
 15 21  1  0  0  0  0 
 17 10  1  0  0  0  0 
 17 22  1  0  0  0  0 
 17 23  1  0  0  0  0 
 20 21  2  0  0  0  0 
 22 24  1  0  0  0  0 
 23 25  1  0  0  0  0 
 24 25  1  0  0  0  0 
 25 26  2  0  0  0  0 
  2 27  1  0  0  0  0 
 28  5  1  0  0  0  0 
 29  5  1  0  0  0  0 
 30  6  1  0  0  0  0 
  7 31  1  0  0  0  0 
 32  8  1  0  0  0  0 
 33  8  1  0  0  0  0 
 34 12  1  0  0  0  0 
 35 12  1  0  0  0  0 
 36 13  1  0  0  0  0 
 37 13  1  0  0  0  0 
 38 14  1  0  0  0  0 
 39 15  1  0  0  0  0 
 17 40  1  0  0  0  0 
 41 18  1  0  0  0  0 
 42 18  1  0  0  0  0 
 43 21  1  0  0  0  0 
 44 22  1  0  0  0  0 
 45 22  1  0  0  0  0 
 46 23  1  0  0  0  0 
 47 24  1  0  0  0  0 
 48 24  1  0  0  0  0 
M  END
> <cdk:Title>
protirelin

> <Conformer>
1

> <SuperDrugID>
SD002080

$$$$
