galactose
  CDK     0628171801

 24 24  0  0  0  0  0  0  0  0999 V2000
    1.4419    0.2506    0.3325 O   0  0  0  0  0  0  0  0  0  0  0  0
    0.2914   -0.3368   -0.2654 C   0  0  1  0  0  0  0  0  0  0  0  0
   -0.4842    0.7087   -1.1167 C   0  0  1  0  0  0  0  0  0  0  0  0
    0.3637    1.3631   -2.0913 O   0  0  0  0  0  0  0  0  0  0  0  0
    0.7315    0.5746   -3.2443 C   0  0  2  0  0  0  0  0  0  0  0  0
    1.5123    1.4051   -4.0992 O   0  0  0  0  0  0  0  0  0  0  0  0
   -0.5143    0.0519   -4.0099 C   0  0  2  0  0  0  0  0  0  0  0  0
   -1.1832    1.1472   -4.6359 O   0  0  0  0  0  0  0  0  0  0  0  0
   -1.4910   -0.6863   -3.0524 C   0  0  1  0  0  0  0  0  0  0  0  0
   -0.9506   -1.9607   -2.7014 O   0  0  0  0  0  0  0  0  0  0  0  0
   -1.7878    0.1781   -1.7943 C   0  0  1  0  0  0  0  0  0  0  0  0
   -2.6169   -0.5307   -0.8738 O   0  0  0  0  0  0  0  0  0  0  0  0
    1.8601   -0.4790    0.8383 H   0  0  0  0  0  0  0  0  0  0  0  0
    0.6221   -1.1798   -0.8703 H   0  0  0  0  0  0  0  0  0  0  0  0
   -0.3477   -0.7179    0.5332 H   0  0  0  0  0  0  0  0  0  0  0  0
   -0.7880    1.4968   -0.4208 H   0  0  0  0  0  0  0  0  0  0  0  0
    1.3680   -0.2620   -2.9442 H   0  0  0  0  0  0  0  0  0  0  0  0
    2.2650    1.7026   -3.5457 H   0  0  0  0  0  0  0  0  0  0  0  0
   -0.1910   -0.6311   -4.7996 H   0  0  0  0  0  0  0  0  0  0  0  0
   -1.9065    0.7382   -5.1544 H   0  0  0  0  0  0  0  0  0  0  0  0
   -2.4296   -0.8774   -3.5810 H   0  0  0  0  0  0  0  0  0  0  0  0
   -1.6177   -2.3668   -2.1080 H   0  0  0  0  0  0  0  0  0  0  0  0
   -2.3682    1.0468   -2.1219 H   0  0  0  0  0  0  0  0  0  0  0  0
   -2.8489    0.1273   -0.1843 H   0  0  0  0  0  0  0  0  0  0  0  0
  1  2  1  0  0  0  0 
  3  2  1  0  0  0  0 
  3  4  1  0  0  0  0 
  4  5  1  0  0  0  0 
  5  6  1  0  0  0  0 
  5  7  1  0  0  0  0 
  7  8  1  0  0  0  0 
  7  9  1  0  0  0  0 
  9 10  1  0  0  0  0 
  9 11  1  0  0  0  0 
  3 11  1  0  0  0  0 
 11 12  1  0  0  0  0 
  1 13  1  0  0  0  0 
  2 14  1  0  0  0  0 
  2 15  1  0  0  0  0 
  3 16  1  0  0  0  0 
  5 17  1  0  0  0  0 
  6 18  1  0  0  0  0 
  7 19  1  0  0  0  0 
  8 20  1  0  0  0  0 
  9 21  1  0  0  0  0 
 10 22  1  0  0  0  0 
 11 23  1  0  0  0  0 
 12 24  1  0  0  0  0 
M  END
> <cdk:Title>
galactose

> <Conformer>
1

> <SuperDrugID>
SD001134

$$$$
