ticarcillin
  CDK     0628171801

 41 43  0  0  0  0  0  0  0  0999 V2000
   -0.3323    2.2991    1.3163 N   0  0  0  0  0  0  0  0  0  0  0  0
    0.7584    3.0703    1.0724 C   0  0  0  0  0  0  0  0  0  0  0  0
   -0.4399    1.3810    2.3994 C   0  0  1  0  0  0  0  0  0  0  0  0
    0.9759    3.6926   -0.2561 C   0  0  2  0  0  0  0  0  0  0  0  0
    1.6592    3.1849    1.9404 O   0  0  0  0  0  0  0  0  0  0  0  0
   -1.7638    0.5535    2.4273 C   0  0  2  0  0  0  0  0  0  0  0  0
    0.1917    0.1073    2.0522 C   0  0  0  0  0  0  0  0  0  0  0  0
   -0.2681    4.1585   -0.9284 C   0  0  0  0  0  0  0  0  0  0  0  0
    1.7769    2.7457   -1.0907 C   0  0  0  0  0  0  0  0  0  0  0  0
   -0.9700   -0.5342    2.0138 N   0  0  0  0  0  0  0  0  0  0  0  0
   -2.9304    0.4823    1.0317 S   0  0  0  0  0  0  0  0  0  0  0  0
    1.3594   -0.2166    1.7395 O   0  0  0  0  0  0  0  0  0  0  0  0
   -1.2167    3.2999   -1.3737 O   0  0  0  0  0  0  0  0  0  0  0  0
   -0.4782    5.3802   -1.1074 O   0  0  0  0  0  0  0  0  0  0  0  0
    3.1151    3.0052   -1.4751 C   0  0  0  0  0  0  0  0  0  0  0  0
    1.3075    1.4923   -1.5282 C   0  0  0  0  0  0  0  0  0  0  0  0
   -1.4286   -1.7375    1.4132 C   0  0  2  0  0  0  0  0  0  0  0  0
   -2.7674   -1.3174    0.6750 C   0  0  1  0  0  0  0  0  0  0  0  0
    3.7514    2.0162   -2.2311 C   0  0  0  0  0  0  0  0  0  0  0  0
    2.5926    0.7186   -2.4379 S   0  0  0  0  0  0  0  0  0  0  0  0
   -1.4783   -2.8019    2.4429 C   0  0  0  0  0  0  0  0  0  0  0  0
   -0.7515   -3.9346    2.2901 O   0  0  0  0  0  0  0  0  0  0  0  0
   -2.1492   -2.6748    3.4921 O   0  0  0  0  0  0  0  0  0  0  0  0
   -2.2084    0.3789    3.4128 H   0  0  0  0  0  0  0  0  0  0  0  0
   -4.0690   -2.0002    1.1959 C   0  0  0  0  0  0  0  0  0  0  0  0
   -2.6533   -1.4818   -0.8702 C   0  0  0  0  0  0  0  0  0  0  0  0
   -1.0505    2.3054    0.6658 H   0  0  0  0  0  0  0  0  0  0  0  0
   -0.1411    1.7709    3.3774 H   0  0  0  0  0  0  0  0  0  0  0  0
    1.5809    4.5882   -0.0765 H   0  0  0  0  0  0  0  0  0  0  0  0
   -2.0211    3.6390   -1.8206 H   0  0  0  0  0  0  0  0  0  0  0  0
    3.6048    3.8604   -1.2061 H   0  0  0  0  0  0  0  0  0  0  0  0
    0.3910    1.0828   -1.3401 H   0  0  0  0  0  0  0  0  0  0  0  0
   -0.6761   -2.0474    0.6784 H   0  0  0  0  0  0  0  0  0  0  0  0
    4.7094    2.0370   -2.5849 H   0  0  0  0  0  0  0  0  0  0  0  0
   -0.7658   -4.6278    2.9829 H   0  0  0  0  0  0  0  0  0  0  0  0
   -4.9444   -1.6677    0.6340 H   0  0  0  0  0  0  0  0  0  0  0  0
   -3.9926   -3.0842    1.0948 H   0  0  0  0  0  0  0  0  0  0  0  0
   -4.2416   -1.7567    2.2462 H   0  0  0  0  0  0  0  0  0  0  0  0
   -3.5549   -1.1278   -1.3789 H   0  0  0  0  0  0  0  0  0  0  0  0
   -2.5056   -2.5321   -1.1293 H   0  0  0  0  0  0  0  0  0  0  0  0
   -1.8020   -0.9116   -1.2496 H   0  0  0  0  0  0  0  0  0  0  0  0
  1  2  1  0  0  0  0 
  4  2  1  0  0  0  0 
  2  5  2  0  0  0  0 
  3  1  1  0  0  0  0 
  6  3  1  0  0  0  0 
  3  7  1  0  0  0  0 
  4  8  1  0  0  0  0 
  4  9  1  0  0  0  0 
  6 10  1  0  0  0  0 
  6 11  1  0  0  0  0 
  6 24  1  0  0  0  0 
  7 10  1  0  0  0  0 
  7 12  2  0  0  0  0 
  8 13  1  0  0  0  0 
  8 14  2  0  0  0  0 
  9 15  1  0  0  0  0 
  9 16  2  0  0  0  0 
 17 10  1  0  0  0  0 
 11 18  1  0  0  0  0 
 15 19  2  0  0  0  0 
 16 20  1  0  0  0  0 
 17 18  1  0  0  0  0 
 17 21  1  0  0  0  0 
 19 20  1  0  0  0  0 
 21 22  1  0  0  0  0 
 21 23  2  0  0  0  0 
 18 25  1  0  0  0  0 
 18 26  1  0  0  0  0 
  1 27  1  0  0  0  0 
  3 28  1  0  0  0  0 
  4 29  1  0  0  0  0 
 13 30  1  0  0  0  0 
 15 31  1  0  0  0  0 
 16 32  1  0  0  0  0 
 17 33  1  0  0  0  0 
 19 34  1  0  0  0  0 
 22 35  1  0  0  0  0 
 25 36  1  0  0  0  0 
 25 37  1  0  0  0  0 
 25 38  1  0  0  0  0 
 26 39  1  0  0  0  0 
 26 40  1  0  0  0  0 
 26 41  1  0  0  0  0 
M  END
> <cdk:Title>
ticarcillin

> <Conformer>
1

> <SuperDrugID>
SD002389

$$$$
