hydrocortisone acetate
  CDK     0628171801

 61 64  0  0  0  0  0  0  0  0999 V2000
   -2.8494   -3.2551   -0.7625 C   0  0  0  0  0  0  0  0  0  0  0  0
   -1.6919   -4.2539   -0.3615 C   0  0  2  0  0  0  0  0  0  0  0  0
   -2.1832   -5.6811    0.0495 C   0  0  2  0  0  0  0  0  0  0  0  0
   -1.0391   -3.7865    1.0019 C   0  0  2  0  0  0  0  0  0  0  0  0
   -0.7227   -4.4645   -1.5828 C   0  0  2  0  0  0  0  0  0  0  0  0
   -2.9621   -6.4462   -1.0728 C   0  0  1  0  0  0  0  0  0  0  0  0
   -2.8632   -5.4672    1.4159 C   0  0  1  0  0  0  0  0  0  0  0  0
   -0.7675   -2.3157    1.1213 C   0  0  0  0  0  0  0  0  0  0  0  0
    0.2137   -4.4537    1.2230 O   0  0  0  0  0  0  0  0  0  0  0  0
   -2.0206   -4.3578    2.0886 C   0  0  2  0  0  0  0  0  0  0  0  0
   -1.3517   -5.2738   -2.7701 C   0  0  1  0  0  0  0  0  0  0  0  0
   -2.0394   -6.6299   -2.3378 C   0  0  2  0  0  0  0  0  0  0  0  0
   -3.4469   -7.8391   -0.5727 C   0  0  1  0  0  0  0  0  0  0  0  0
    0.4437   -1.6419    0.6085 C   0  0  2  0  0  0  0  0  0  0  0  0
   -1.5922   -1.5686    1.7020 O   0  0  0  0  0  0  0  0  0  0  0  0
   -2.2286   -4.4223   -3.5006 O   0  0  0  0  0  0  0  0  0  0  0  0
   -2.7077   -7.5160   -3.4924 C   0  0  2  0  0  0  0  0  0  0  0  0
   -4.1420   -8.6378   -1.6946 C   0  0  2  0  0  0  0  0  0  0  0  0
    0.0392   -0.5633   -0.2451 O   0  0  0  0  0  0  0  0  0  0  0  0
   -3.8670   -6.7739   -4.2531 C   0  0  0  0  0  0  0  0  0  0  0  0
   -3.3141   -8.7545   -2.9048 C   0  0  0  0  0  0  0  0  0  0  0  0
   -1.5852   -7.8972   -4.5419 C   0  0  1  0  0  0  0  0  0  0  0  0
    0.8231    0.4415   -0.7356 C   0  0  0  0  0  0  0  0  0  0  0  0
   -3.1871   -9.9736   -3.4826 C   0  0  0  0  0  0  0  0  0  0  0  0
   -1.9682   -9.0767   -5.4692 C   0  0  1  0  0  0  0  0  0  0  0  0
    0.2452    1.4379   -1.6524 C   0  0  0  0  0  0  0  0  0  0  0  0
    2.0264    0.5471   -0.4022 O   0  0  0  0  0  0  0  0  0  0  0  0
   -2.5331  -10.1899   -4.6829 C   0  0  0  0  0  0  0  0  0  0  0  0
   -2.4598  -11.3529   -5.1479 O   0  0  0  0  0  0  0  0  0  0  0  0
   -3.4985   -3.6460   -1.5417 H   0  0  0  0  0  0  0  0  0  0  0  0
   -3.4920   -3.0146    0.0846 H   0  0  0  0  0  0  0  0  0  0  0  0
   -2.4289   -2.3170   -1.1317 H   0  0  0  0  0  0  0  0  0  0  0  0
   -1.3047   -6.3071    0.2673 H   0  0  0  0  0  0  0  0  0  0  0  0
    0.1682   -5.0063   -1.2571 H   0  0  0  0  0  0  0  0  0  0  0  0
   -0.3730   -3.4954   -1.9478 H   0  0  0  0  0  0  0  0  0  0  0  0
   -3.8483   -5.8744   -1.3469 H   0  0  0  0  0  0  0  0  0  0  0  0
   -3.8998   -5.1433    1.2789 H   0  0  0  0  0  0  0  0  0  0  0  0
   -2.8589   -6.3839    2.0116 H   0  0  0  0  0  0  0  0  0  0  0  0
    0.4932   -4.1949    2.1265 H   0  0  0  0  0  0  0  0  0  0  0  0
   -2.7053   -3.6025    2.4774 H   0  0  0  0  0  0  0  0  0  0  0  0
   -1.4739   -4.7664    2.9434 H   0  0  0  0  0  0  0  0  0  0  0  0
   -0.5348   -5.5072   -3.4562 H   0  0  0  0  0  0  0  0  0  0  0  0
   -1.1994   -7.2341   -1.9690 H   0  0  0  0  0  0  0  0  0  0  0  0
   -2.6024   -8.4205   -0.1892 H   0  0  0  0  0  0  0  0  0  0  0  0
   -4.1632   -7.7097    0.2430 H   0  0  0  0  0  0  0  0  0  0  0  0
    1.0872   -2.3258    0.0504 H   0  0  0  0  0  0  0  0  0  0  0  0
    1.0069   -1.2535    1.4603 H   0  0  0  0  0  0  0  0  0  0  0  0
   -1.6628   -3.6851   -3.8195 H   0  0  0  0  0  0  0  0  0  0  0  0
   -5.0763   -8.1361   -1.9628 H   0  0  0  0  0  0  0  0  0  0  0  0
   -4.4236   -9.6089   -1.2754 H   0  0  0  0  0  0  0  0  0  0  0  0
   -3.4870   -5.9887   -4.9052 H   0  0  0  0  0  0  0  0  0  0  0  0
   -4.5773   -6.3195   -3.5598 H   0  0  0  0  0  0  0  0  0  0  0  0
   -4.4240   -7.4622   -4.8929 H   0  0  0  0  0  0  0  0  0  0  0  0
   -1.3270   -7.0377   -5.1656 H   0  0  0  0  0  0  0  0  0  0  0  0
   -0.6716   -8.1960   -4.0166 H   0  0  0  0  0  0  0  0  0  0  0  0
   -3.5998  -10.7690   -3.0507 H   0  0  0  0  0  0  0  0  0  0  0  0
   -2.7047   -8.7561   -6.2107 H   0  0  0  0  0  0  0  0  0  0  0  0
   -1.0751   -9.4107   -6.0050 H   0  0  0  0  0  0  0  0  0  0  0  0
    0.8428    1.3686   -2.6089 H   0  0  0  0  0  0  0  0  0  0  0  0
   -0.7910    1.0857   -1.9395 H   0  0  0  0  0  0  0  0  0  0  0  0
    0.2973    2.4616   -1.0856 H   0  0  0  0  0  0  0  0  0  0  0  0
  2  1  1  0  0  0  0 
  3  2  1  0  0  0  0 
  2  4  1  0  0  0  0 
  2  5  1  0  0  0  0 
  6  3  1  0  0  0  0 
  3  7  1  0  0  0  0 
  4  8  1  0  0  0  0 
  4  9  1  0  0  0  0 
  4 10  1  0  0  0  0 
 11  5  1  0  0  0  0 
 12  6  1  0  0  0  0 
  6 13  1  0  0  0  0 
  7 10  1  0  0  0  0 
  8 14  1  0  0  0  0 
  8 15  2  0  0  0  0 
 12 11  1  0  0  0  0 
 11 16  1  0  0  0  0 
 12 17  1  0  0  0  0 
 13 18  1  0  0  0  0 
 14 19  1  0  0  0  0 
 17 20  1  0  0  0  0 
 17 21  1  0  0  0  0 
 17 22  1  0  0  0  0 
 18 21  1  0  0  0  0 
 19 23  1  0  0  0  0 
 21 24  2  0  0  0  0 
 22 25  1  0  0  0  0 
 23 26  1  0  0  0  0 
 23 27  2  0  0  0  0 
 24 28  1  0  0  0  0 
 25 28  1  0  0  0  0 
 28 29  2  0  0  0  0 
 30  1  1  0  0  0  0 
 31  1  1  0  0  0  0 
 32  1  1  0  0  0  0 
  3 33  1  0  0  0  0 
 34  5  1  0  0  0  0 
 35  5  1  0  0  0  0 
  6 36  1  0  0  0  0 
 37  7  1  0  0  0  0 
 38  7  1  0  0  0  0 
 39  9  1  0  0  0  0 
 40 10  1  0  0  0  0 
 41 10  1  0  0  0  0 
 11 42  1  0  0  0  0 
 12 43  1  0  0  0  0 
 44 13  1  0  0  0  0 
 45 13  1  0  0  0  0 
 46 14  1  0  0  0  0 
 47 14  1  0  0  0  0 
 48 16  1  0  0  0  0 
 49 18  1  0  0  0  0 
 50 18  1  0  0  0  0 
 51 20  1  0  0  0  0 
 52 20  1  0  0  0  0 
 53 20  1  0  0  0  0 
 54 22  1  0  0  0  0 
 55 22  1  0  0  0  0 
 56 24  1  0  0  0  0 
 57 25  1  0  0  0  0 
 58 25  1  0  0  0  0 
 59 26  1  0  0  0  0 
 60 26  1  0  0  0  0 
 61 26  1  0  0  0  0 
M  END
> <cdk:Title>
hydrocortisone acetate

> <Conformer>
1

> <SuperDrugID>
SD003429

$$$$
