talbutal
  CDK     0628171801

 32 32  0  0  0  0  0  0  0  0999 V2000
    1.2207   -1.2571   -2.4306 C   0  0  1  0  0  0  0  0  0  0  0  0
    1.2841   -0.5426   -1.0305 C   0  0  1  0  0  0  0  0  0  0  0  0
    0.5502   -0.3111   -3.4799 C   0  0  0  0  0  0  0  0  0  0  0  0
    2.6169   -1.8880   -2.8763 C   0  0  1  0  0  0  0  0  0  0  0  0
   -0.0866   -0.1601   -0.4197 C   0  0  0  0  0  0  0  0  0  0  0  0
    2.5968   -2.6424   -4.2657 C   0  0  1  0  0  0  0  0  0  0  0  0
    3.6661   -0.8073   -2.9915 C   0  0  0  0  0  0  0  0  0  0  0  0
    3.0570   -2.9004   -1.8415 C   0  0  0  0  0  0  0  0  0  0  0  0
    1.5553   -3.6509   -4.4315 C   0  0  0  0  0  0  0  0  0  0  0  0
    3.5407    0.1421   -3.7996 O   0  0  0  0  0  0  0  0  0  0  0  0
    4.8100   -0.8024   -2.2585 N   0  0  0  0  0  0  0  0  0  0  0  0
    2.3308   -3.8767   -1.5380 O   0  0  0  0  0  0  0  0  0  0  0  0
    4.2340   -2.8080   -1.1673 N   0  0  0  0  0  0  0  0  0  0  0  0
    1.7889   -4.9683   -4.4997 C   0  0  0  0  0  0  0  0  0  0  0  0
    5.0888   -1.7777   -1.3645 C   0  0  0  0  0  0  0  0  0  0  0  0
    6.1575   -1.7238   -0.7159 O   0  0  0  0  0  0  0  0  0  0  0  0
    0.5219   -2.0916   -2.3145 H   0  0  0  0  0  0  0  0  0  0  0  0
    1.7728   -1.1937   -0.3040 H   0  0  0  0  0  0  0  0  0  0  0  0
    1.8891    0.3646   -1.1081 H   0  0  0  0  0  0  0  0  0  0  0  0
    0.5912   -0.7267   -4.4849 H   0  0  0  0  0  0  0  0  0  0  0  0
   -0.5066   -0.1683   -3.2395 H   0  0  0  0  0  0  0  0  0  0  0  0
    1.0275    0.6687   -3.4923 H   0  0  0  0  0  0  0  0  0  0  0  0
   -0.7717   -1.0072   -0.4455 H   0  0  0  0  0  0  0  0  0  0  0  0
    0.0471    0.1421    0.6209 H   0  0  0  0  0  0  0  0  0  0  0  0
   -0.5313    0.6742   -0.9626 H   0  0  0  0  0  0  0  0  0  0  0  0
    2.4706   -1.9305   -5.0859 H   0  0  0  0  0  0  0  0  0  0  0  0
    3.5816   -3.0976   -4.4337 H   0  0  0  0  0  0  0  0  0  0  0  0
    0.6134   -3.3419   -4.5080 H   0  0  0  0  0  0  0  0  0  0  0  0
    5.4481   -0.0840   -2.3891 H   0  0  0  0  0  0  0  0  0  0  0  0
    4.4670   -3.4966   -0.5249 H   0  0  0  0  0  0  0  0  0  0  0  0
    2.7093   -5.3342   -4.4354 H   0  0  0  0  0  0  0  0  0  0  0  0
    1.0351   -5.6031   -4.6153 H   0  0  0  0  0  0  0  0  0  0  0  0
  1  2  1  0  0  0  0 
  1  3  1  0  0  0  0 
  1  4  1  0  0  0  0 
  2  5  1  0  0  0  0 
  4  6  1  0  0  0  0 
  4  7  1  0  0  0  0 
  4  8  1  0  0  0  0 
  6  9  1  0  0  0  0 
  7 10  2  0  0  0  0 
  7 11  1  0  0  0  0 
  8 12  2  0  0  0  0 
  8 13  1  0  0  0  0 
  9 14  2  0  0  0  0 
 11 15  1  0  0  0  0 
 13 15  1  0  0  0  0 
 15 16  2  0  0  0  0 
 17  1  1  0  0  0  0 
 18  2  1  0  0  0  0 
 19  2  1  0  0  0  0 
 20  3  1  0  0  0  0 
 21  3  1  0  0  0  0 
 22  3  1  0  0  0  0 
 23  5  1  0  0  0  0 
 24  5  1  0  0  0  0 
 25  5  1  0  0  0  0 
 26  6  1  0  0  0  0 
 27  6  1  0  0  0  0 
 28  9  1  0  0  0  0 
 29 11  1  0  0  0  0 
 30 13  1  0  0  0  0 
 31 14  1  0  0  0  0 
 32 14  1  0  0  0  0 
M  END
> <cdk:Title>
talbutal

> <Conformer>
1

> <SuperDrugID>
SD002300

$$$$
