pargeverine
  CDK     0628171801

 48 49  0  0  0  0  0  0  0  0999 V2000
    1.2311   -4.1483   -6.2897 C   0  0  1  0  0  0  0  0  0  0  0  0
    1.3282   -4.5426   -4.8490 C   0  0  0  0  0  0  0  0  0  0  0  0
    2.5578   -4.3570   -6.8598 O   0  0  0  0  0  0  0  0  0  0  0  0
    0.2605   -5.0486   -7.0324 C   0  0  0  0  0  0  0  0  0  0  0  0
    0.8707   -2.6766   -6.1833 C   0  0  0  0  0  0  0  0  0  0  0  0
    0.1783   -4.7045   -4.1278 O   0  0  0  0  0  0  0  0  0  0  0  0
    2.4397   -4.6857   -4.2848 O   0  0  0  0  0  0  0  0  0  0  0  0
    2.7489   -4.2524   -8.2885 C   0  0  2  0  0  0  0  0  0  0  0  0
   -0.6533   -4.5469   -7.9966 C   0  0  0  0  0  0  0  0  0  0  0  0
    0.3039   -6.4578   -6.8543 C   0  0  0  0  0  0  0  0  0  0  0  0
    1.8267   -1.6447   -6.3894 C   0  0  0  0  0  0  0  0  0  0  0  0
   -0.4306   -2.2737   -5.7714 C   0  0  0  0  0  0  0  0  0  0  0  0
    0.0601   -4.9442   -2.7235 C   0  0  1  0  0  0  0  0  0  0  0  0
    4.0906   -4.1810   -8.5095 C   0  0  0  0  0  0  0  0  0  0  0  0
   -1.5194   -5.4013   -8.7045 C   0  0  0  0  0  0  0  0  0  0  0  0
   -0.5611   -7.3174   -7.5573 C   0  0  0  0  0  0  0  0  0  0  0  0
    1.4959   -0.2884   -6.2008 C   0  0  0  0  0  0  0  0  0  0  0  0
   -0.7651   -0.9217   -5.5828 C   0  0  0  0  0  0  0  0  0  0  0  0
   -1.4354   -4.9931   -2.3179 C   0  0  1  0  0  0  0  0  0  0  0  0
    5.2708   -4.1208   -8.6870 C   0  0  0  0  0  0  0  0  0  0  0  0
   -1.4780   -6.7869   -8.4800 C   0  0  0  0  0  0  0  0  0  0  0  0
    0.1989    0.0739   -5.8014 C   0  0  0  0  0  0  0  0  0  0  0  0
   -2.0506   -6.3563   -2.4217 N   0  0  1  0  0  0  0  0  0  0  0  0
   -3.3034   -6.4960   -1.6197 C   0  0  0  0  0  0  0  0  0  0  0  0
   -2.2167   -6.8589   -3.8174 C   0  0  0  0  0  0  0  0  0  0  0  0
    2.2708   -3.3642   -8.7084 H   0  0  0  0  0  0  0  0  0  0  0  0
    2.3644   -5.1404   -8.7951 H   0  0  0  0  0  0  0  0  0  0  0  0
   -0.6935   -3.5483   -8.2053 H   0  0  0  0  0  0  0  0  0  0  0  0
    0.9771   -6.8767   -6.2082 H   0  0  0  0  0  0  0  0  0  0  0  0
    2.7871   -1.8638   -6.6619 H   0  0  0  0  0  0  0  0  0  0  0  0
   -1.1529   -2.9742   -5.5916 H   0  0  0  0  0  0  0  0  0  0  0  0
    0.5686   -5.8706   -2.4386 H   0  0  0  0  0  0  0  0  0  0  0  0
    0.5399   -4.1071   -2.2088 H   0  0  0  0  0  0  0  0  0  0  0  0
   -2.1728   -5.0153   -9.3903 H   0  0  0  0  0  0  0  0  0  0  0  0
   -0.5182   -8.3292   -7.4031 H   0  0  0  0  0  0  0  0  0  0  0  0
    2.2025    0.4371   -6.3444 H   0  0  0  0  0  0  0  0  0  0  0  0
   -1.7078   -0.6643   -5.2807 H   0  0  0  0  0  0  0  0  0  0  0  0
   -1.4840   -4.6540   -1.2791 H   0  0  0  0  0  0  0  0  0  0  0  0
   -2.0040   -4.2700   -2.9110 H   0  0  0  0  0  0  0  0  0  0  0  0
    6.1811   -4.0777   -8.8201 H   0  0  0  0  0  0  0  0  0  0  0  0
   -2.1088   -7.4077   -8.9927 H   0  0  0  0  0  0  0  0  0  0  0  0
   -0.0428    1.0584   -5.6701 H   0  0  0  0  0  0  0  0  0  0  0  0
   -4.0991   -5.8550   -2.0085 H   0  0  0  0  0  0  0  0  0  0  0  0
   -3.1216   -6.2314   -0.5756 H   0  0  0  0  0  0  0  0  0  0  0  0
   -3.6517   -7.5308   -1.6303 H   0  0  0  0  0  0  0  0  0  0  0  0
   -2.9374   -6.2565   -4.3778 H   0  0  0  0  0  0  0  0  0  0  0  0
   -2.5592   -7.8957   -3.8054 H   0  0  0  0  0  0  0  0  0  0  0  0
   -1.2650   -6.8491   -4.3463 H   0  0  0  0  0  0  0  0  0  0  0  0
  1  2  1  0  0  0  0 
  1  3  1  0  0  0  0 
  1  4  1  0  0  0  0 
  1  5  1  0  0  0  0 
  2  6  1  0  0  0  0 
  2  7  2  0  0  0  0 
  3  8  1  0  0  0  0 
  4  9  2  0  0  0  0 
  4 10  1  0  0  0  0 
  5 11  2  0  0  0  0 
  5 12  1  0  0  0  0 
  6 13  1  0  0  0  0 
  8 14  1  0  0  0  0 
  9 15  1  0  0  0  0 
 10 16  2  0  0  0  0 
 11 17  1  0  0  0  0 
 12 18  2  0  0  0  0 
 13 19  1  0  0  0  0 
 14 20  3  0  0  0  0 
 15 21  2  0  0  0  0 
 16 21  1  0  0  0  0 
 17 22  2  0  0  0  0 
 18 22  1  0  0  0  0 
 19 23  1  0  0  0  0 
 23 24  1  0  0  0  0 
 23 25  1  0  0  0  0 
  8 26  1  0  0  0  0 
  8 27  1  0  0  0  0 
  9 28  1  0  0  0  0 
 10 29  1  0  0  0  0 
 11 30  1  0  0  0  0 
 12 31  1  0  0  0  0 
 13 32  1  0  0  0  0 
 13 33  1  0  0  0  0 
 15 34  1  0  0  0  0 
 16 35  1  0  0  0  0 
 17 36  1  0  0  0  0 
 18 37  1  0  0  0  0 
 19 38  1  0  0  0  0 
 19 39  1  0  0  0  0 
 20 40  1  0  0  0  0 
 21 41  1  0  0  0  0 
 22 42  1  0  0  0  0 
 24 43  1  0  0  0  0 
 24 44  1  0  0  0  0 
 24 45  1  0  0  0  0 
 25 46  1  0  0  0  0 
 25 47  1  0  0  0  0 
 25 48  1  0  0  0  0 
M  END
> <cdk:Title>
pargeverine

> <Conformer>
1

> <SuperDrugID>
SD001850

$$$$
