methyldopa
  CDK     0628171801

 28 28  0  0  0  0  0  0  0  0999 V2000
   -0.0887    0.7822   -2.9186 C   0  0  1  0  0  0  0  0  0  0  0  0
   -0.4815    2.3036   -2.9070 C   0  0  2  0  0  0  0  0  0  0  0  0
    1.0707    0.3636   -2.0731 C   0  0  0  0  0  0  0  0  0  0  0  0
    0.4871    3.2029   -3.5948 C   0  0  0  0  0  0  0  0  0  0  0  0
   -0.7731    2.8457   -1.4758 C   0  0  0  0  0  0  0  0  0  0  0  0
   -1.7409    2.4108   -3.6698 N   0  0  1  0  0  0  0  0  0  0  0  0
    2.3592    0.1798   -2.6311 C   0  0  0  0  0  0  0  0  0  0  0  0
    0.8946    0.0802   -0.6975 C   0  0  0  0  0  0  0  0  0  0  0  0
    1.6500    2.7732   -4.1313 O   0  0  0  0  0  0  0  0  0  0  0  0
    0.2349    4.4231   -3.7226 O   0  0  0  0  0  0  0  0  0  0  0  0
    3.4448   -0.2466   -1.8389 C   0  0  0  0  0  0  0  0  0  0  0  0
    1.9735   -0.3477    0.0969 C   0  0  0  0  0  0  0  0  0  0  0  0
    4.6733   -0.4232   -2.3867 O   0  0  0  0  0  0  0  0  0  0  0  0
    3.2518   -0.5041   -0.4682 C   0  0  0  0  0  0  0  0  0  0  0  0
    4.2783   -0.9103    0.3225 O   0  0  0  0  0  0  0  0  0  0  0  0
   -0.9548    0.1906   -2.6044 H   0  0  0  0  0  0  0  0  0  0  0  0
    0.0977    0.4818   -3.9540 H   0  0  0  0  0  0  0  0  0  0  0  0
   -1.4887    2.2070   -0.9551 H   0  0  0  0  0  0  0  0  0  0  0  0
    0.1429    2.8985   -0.8834 H   0  0  0  0  0  0  0  0  0  0  0  0
   -1.1990    3.8511   -1.5212 H   0  0  0  0  0  0  0  0  0  0  0  0
   -1.5721    2.0153   -4.5976 H   0  0  0  0  0  0  0  0  0  0  0  0
   -2.4251    1.8068   -3.2087 H   0  0  0  0  0  0  0  0  0  0  0  0
    2.5152    0.3467   -3.6268 H   0  0  0  0  0  0  0  0  0  0  0  0
   -0.0259    0.1697   -0.2631 H   0  0  0  0  0  0  0  0  0  0  0  0
    2.2414    3.4081   -4.5871 H   0  0  0  0  0  0  0  0  0  0  0  0
    1.8259   -0.5482    1.0886 H   0  0  0  0  0  0  0  0  0  0  0  0
    4.5758   -0.2140   -3.3379 H   0  0  0  0  0  0  0  0  0  0  0  0
    5.0913   -0.5938   -0.1260 H   0  0  0  0  0  0  0  0  0  0  0  0
  2  1  1  0  0  0  0 
  1  3  1  0  0  0  0 
  2  4  1  0  0  0  0 
  2  5  1  0  0  0  0 
  2  6  1  0  0  0  0 
  3  7  2  0  0  0  0 
  3  8  1  0  0  0  0 
  4  9  1  0  0  0  0 
  4 10  2  0  0  0  0 
  7 11  1  0  0  0  0 
  8 12  2  0  0  0  0 
 11 13  1  0  0  0  0 
 11 14  2  0  0  0  0 
 12 14  1  0  0  0  0 
 14 15  1  0  0  0  0 
  1 16  1  0  0  0  0 
  1 17  1  0  0  0  0 
  5 18  1  0  0  0  0 
  5 19  1  0  0  0  0 
  5 20  1  0  0  0  0 
  6 21  1  0  0  0  0 
  6 22  1  0  0  0  0 
  7 23  1  0  0  0  0 
  8 24  1  0  0  0  0 
  9 25  1  0  0  0  0 
 12 26  1  0  0  0  0 
 13 27  1  0  0  0  0 
 15 28  1  0  0  0  0 
M  END
> <cdk:Title>
methyldopa

> <Conformer>
1

> <SuperDrugID>
SD001562

$$$$
