sonidegib
  CDK     0628171802

 61 64  0  0  0  0  0  0  0  0999 V2000
    1.1552   -7.9447   -7.9243 C   0  0  0  0  0  0  0  0  0  0  0  0
    0.7372   -9.0433   -8.7401 C   0  0  0  0  0  0  0  0  0  0  0  0
   -0.3996   -9.7936   -8.3724 C   0  0  0  0  0  0  0  0  0  0  0  0
   -1.1464   -9.4441   -7.2382 C   0  0  0  0  0  0  0  0  0  0  0  0
   -0.7962   -8.3116   -6.4879 C   0  0  0  0  0  0  0  0  0  0  0  0
    0.3250   -7.5185   -6.8348 C   0  0  0  0  0  0  0  0  0  0  0  0
    1.4014   -9.3731   -9.9545 C   0  0  0  0  0  0  0  0  0  0  0  0
    1.2841   -8.5028  -11.0626 C   0  0  0  0  0  0  0  0  0  0  0  0
    2.0371   -8.7252  -12.2290 C   0  0  0  0  0  0  0  0  0  0  0  0
    2.9331   -9.8099  -12.3031 C   0  0  0  0  0  0  0  0  0  0  0  0
    2.9986  -10.7209  -11.2284 C   0  0  0  0  0  0  0  0  0  0  0  0
    2.2371  -10.5087  -10.0615 C   0  0  0  0  0  0  0  0  0  0  0  0
    3.7158   -9.9799  -13.4177 O   0  0  0  0  0  0  0  0  0  0  0  0
    4.9946   -9.3080  -13.3550 C   0  0  2  0  0  0  0  0  0  0  0  0
    5.8105   -9.8193  -12.3723 F   0  0  0  0  0  0  0  0  0  0  0  0
    4.8877   -7.9460  -13.1835 F   0  0  0  0  0  0  0  0  0  0  0  0
    5.6229   -9.5141  -14.5561 F   0  0  0  0  0  0  0  0  0  0  0  0
    2.4587   -7.2603   -8.1979 C   0  0  0  0  0  0  0  0  0  0  0  0
    0.5443   -6.3089   -6.1033 C   0  0  0  0  0  0  0  0  0  0  0  0
    0.9855   -5.3158   -6.7270 O   0  0  0  0  0  0  0  0  0  0  0  0
    0.2754   -6.2229   -4.7609 N   0  0  0  0  0  0  0  0  0  0  0  0
    0.4403   -5.1603   -3.9048 C   0  0  0  0  0  0  0  0  0  0  0  0
    0.5373   -5.4375   -2.5251 C   0  0  0  0  0  0  0  0  0  0  0  0
    0.8123   -4.4460   -1.6401 N   0  0  0  0  0  0  0  0  0  0  0  0
    0.9966   -3.1368   -1.9770 C   0  0  0  0  0  0  0  0  0  0  0  0
    0.8134   -2.7981   -3.3384 C   0  0  0  0  0  0  0  0  0  0  0  0
    0.5223   -3.7992   -4.2823 C   0  0  0  0  0  0  0  0  0  0  0  0
    1.4036   -2.2211   -1.0162 N   0  0  0  0  0  0  0  0  0  0  0  0
    2.2066   -2.6422    0.1153 C   0  0  1  0  0  0  0  0  0  0  0  0
    1.6185   -2.0929    1.4439 C   0  0  2  0  0  0  0  0  0  0  0  0
    1.4733   -0.6617    1.3527 O   0  0  0  0  0  0  0  0  0  0  0  0
    0.6453   -0.2141    0.2583 C   0  0  2  0  0  0  0  0  0  0  0  0
    1.1432   -0.7939   -1.1009 C   0  0  2  0  0  0  0  0  0  0  0  0
    0.6579    1.3335    0.2859 C   0  0  0  0  0  0  0  0  0  0  0  0
   -0.3848   -0.5477    0.4233 H   0  0  0  0  0  0  0  0  0  0  0  0
    2.5308   -2.3993    2.6539 C   0  0  0  0  0  0  0  0  0  0  0  0
    0.6422   -2.5547    1.6258 H   0  0  0  0  0  0  0  0  0  0  0  0
   -0.7029  -10.5923   -8.9369 H   0  0  0  0  0  0  0  0  0  0  0  0
   -1.9623  -10.0026   -6.9716 H   0  0  0  0  0  0  0  0  0  0  0  0
   -1.3924   -8.0653   -5.6928 H   0  0  0  0  0  0  0  0  0  0  0  0
    0.6615   -7.6908  -11.0222 H   0  0  0  0  0  0  0  0  0  0  0  0
    1.9411   -8.0870  -13.0211 H   0  0  0  0  0  0  0  0  0  0  0  0
    3.6120  -11.5361  -11.2917 H   0  0  0  0  0  0  0  0  0  0  0  0
    2.3173  -11.1714   -9.2850 H   0  0  0  0  0  0  0  0  0  0  0  0
    2.9753   -7.0282   -7.2647 H   0  0  0  0  0  0  0  0  0  0  0  0
    3.1482   -7.8788   -8.7728 H   0  0  0  0  0  0  0  0  0  0  0  0
    2.2850   -6.3368   -8.7534 H   0  0  0  0  0  0  0  0  0  0  0  0
   -0.0335   -7.0433   -4.3491 H   0  0  0  0  0  0  0  0  0  0  0  0
    0.4240   -6.3888   -2.1703 H   0  0  0  0  0  0  0  0  0  0  0  0
    0.9153   -1.8363   -3.6661 H   0  0  0  0  0  0  0  0  0  0  0  0
    0.3691   -3.5121   -5.2483 H   0  0  0  0  0  0  0  0  0  0  0  0
    2.3106   -3.7267    0.2007 H   0  0  0  0  0  0  0  0  0  0  0  0
    3.2138   -2.2435   -0.0294 H   0  0  0  0  0  0  0  0  0  0  0  0
    0.3912   -0.5457   -1.8537 H   0  0  0  0  0  0  0  0  0  0  0  0
    2.0765   -0.3034   -1.3905 H   0  0  0  0  0  0  0  0  0  0  0  0
    0.0761    1.7424   -0.5424 H   0  0  0  0  0  0  0  0  0  0  0  0
    1.6812    1.7092    0.2166 H   0  0  0  0  0  0  0  0  0  0  0  0
    0.2231    1.6894    1.2222 H   0  0  0  0  0  0  0  0  0  0  0  0
    2.6820   -3.4755    2.7596 H   0  0  0  0  0  0  0  0  0  0  0  0
    3.5024   -1.9175    2.5292 H   0  0  0  0  0  0  0  0  0  0  0  0
    2.0724   -2.0236    3.5703 H   0  0  0  0  0  0  0  0  0  0  0  0
  1  2  2  0  0  0  0 
  1  6  1  0  0  0  0 
  2  3  1  0  0  0  0 
  3  4  2  0  0  0  0 
  4  5  1  0  0  0  0 
  5  6  2  0  0  0  0 
  2  7  1  0  0  0  0 
  8  9  1  0  0  0  0 
  9 10  2  0  0  0  0 
 10 11  1  0  0  0  0 
 11 12  2  0  0  0  0 
  7  8  2  0  0  0  0 
  7 12  1  0  0  0  0 
 10 13  1  0  0  0  0 
 13 14  1  0  0  0  0 
 14 15  1  0  0  0  0 
 14 16  1  0  0  0  0 
 14 17  1  0  0  0  0 
  1 18  1  0  0  0  0 
  6 19  1  0  0  0  0 
 19 20  2  0  0  0  0 
 19 21  1  0  0  0  0 
 21 22  1  0  0  0  0 
 23 24  1  0  0  0  0 
 24 25  2  0  0  0  0 
 25 26  1  0  0  0  0 
 26 27  2  0  0  0  0 
 22 23  2  0  0  0  0 
 22 27  1  0  0  0  0 
 25 28  1  0  0  0  0 
 29 30  1  0  0  0  0 
 30 31  1  0  0  0  0 
 31 32  1  0  0  0  0 
 32 33  1  0  0  0  0 
 28 29  1  0  0  0  0 
 28 33  1  0  0  0  0 
 32 34  1  0  0  0  0 
 32 35  1  0  0  0  0 
 30 36  1  0  0  0  0 
 30 37  1  0  0  0  0 
  3 38  1  0  0  0  0 
  4 39  1  0  0  0  0 
  5 40  1  0  0  0  0 
  8 41  1  0  0  0  0 
  9 42  1  0  0  0  0 
 11 43  1  0  0  0  0 
 12 44  1  0  0  0  0 
 18 45  1  0  0  0  0 
 18 46  1  0  0  0  0 
 18 47  1  0  0  0  0 
 21 48  1  0  0  0  0 
 23 49  1  0  0  0  0 
 26 50  1  0  0  0  0 
 27 51  1  0  0  0  0 
 29 52  1  0  0  0  0 
 29 53  1  0  0  0  0 
 33 54  1  0  0  0  0 
 33 55  1  0  0  0  0 
 34 56  1  0  0  0  0 
 34 57  1  0  0  0  0 
 34 58  1  0  0  0  0 
 36 59  1  0  0  0  0 
 36 60  1  0  0  0  0 
 36 61  1  0  0  0  0 
M  END
> <cdk:Title>
sonidegib

> <Conformer>
1

> <SuperDrugID>
SD003872

$$$$
