cefamandole
  CDK     0628171802

 49 52  0  0  0  0  0  0  0  0999 V2000
   -2.0486   -4.6097    3.1513 C   0  0  0  0  0  0  0  0  0  0  0  0
   -2.4032   -3.8799    2.0690 O   0  0  0  0  0  0  0  0  0  0  0  0
   -2.9899   -5.0956    3.8213 O   0  0  0  0  0  0  0  0  0  0  0  0
   -0.7177   -4.8513    3.5056 C   0  0  0  0  0  0  0  0  0  0  0  0
   -0.4562   -6.0791    4.0097 N   0  0  0  0  0  0  0  0  0  0  0  0
    0.2952   -3.9414    3.3671 C   0  0  0  0  0  0  0  0  0  0  0  0
    0.5704   -6.5301    4.8767 C   0  0  1  0  0  0  0  0  0  0  0  0
   -0.9480   -7.3152    3.8090 C   0  0  0  0  0  0  0  0  0  0  0  0
    0.1146   -2.5975    2.7879 C   0  0  1  0  0  0  0  0  0  0  0  0
    1.6828   -4.2153    3.7993 C   0  0  2  0  0  0  0  0  0  0  0  0
    0.0815   -7.9849    4.5996 C   0  0  1  0  0  0  0  0  0  0  0  0
    2.1317   -5.9480    4.1504 S   0  0  0  0  0  0  0  0  0  0  0  0
   -1.9034   -7.7661    3.1368 O   0  0  0  0  0  0  0  0  0  0  0  0
    0.3721   -2.6907    0.9830 S   0  0  0  0  0  0  0  0  0  0  0  0
    0.9610   -8.7548    3.7771 N   0  0  0  0  0  0  0  0  0  0  0  0
   -0.2264   -1.1712    0.3438 C   0  0  0  0  0  0  0  0  0  0  0  0
    1.1032  -10.1048    3.7242 C   0  0  0  0  0  0  0  0  0  0  0  0
    0.4374   -0.0186    0.1597 N   0  0  0  0  0  0  0  0  0  0  0  0
   -1.4762   -0.9863   -0.0927 N   0  0  0  0  0  0  0  0  0  0  0  0
    0.3132  -11.0953    4.4961 C   0  0  2  0  0  0  0  0  0  0  0  0
    1.9697  -10.5101    2.9152 O   0  0  0  0  0  0  0  0  0  0  0  0
    1.7993    0.2698    0.4701 C   0  0  0  0  0  0  0  0  0  0  0  0
   -0.3967    0.8170   -0.3692 N   0  0  0  0  0  0  0  0  0  0  0  0
   -1.5435    0.2330   -0.5188 N   0  0  0  0  0  0  0  0  0  0  0  0
    0.9469  -12.3759    4.4621 O   0  0  0  0  0  0  0  0  0  0  0  0
   -1.0706  -11.2193    3.9551 C   0  0  0  0  0  0  0  0  0  0  0  0
   -1.2868  -11.6549    2.6238 C   0  0  0  0  0  0  0  0  0  0  0  0
   -2.1957  -10.9125    4.7562 C   0  0  0  0  0  0  0  0  0  0  0  0
   -2.5890  -11.7792    2.1072 C   0  0  0  0  0  0  0  0  0  0  0  0
   -3.4987  -11.0426    4.2410 C   0  0  0  0  0  0  0  0  0  0  0  0
   -3.6961  -11.4760    2.9182 C   0  0  0  0  0  0  0  0  0  0  0  0
    0.4179   -6.1903    5.9062 H   0  0  0  0  0  0  0  0  0  0  0  0
   -3.3492   -3.7421    1.8562 H   0  0  0  0  0  0  0  0  0  0  0  0
   -0.8674   -2.1800    3.0077 H   0  0  0  0  0  0  0  0  0  0  0  0
    0.8364   -1.8805    3.1900 H   0  0  0  0  0  0  0  0  0  0  0  0
    1.8659   -3.6493    4.7147 H   0  0  0  0  0  0  0  0  0  0  0  0
    2.3965   -3.8822    3.0431 H   0  0  0  0  0  0  0  0  0  0  0  0
   -0.3175   -8.4803    5.4887 H   0  0  0  0  0  0  0  0  0  0  0  0
    1.5318   -8.2478    3.1782 H   0  0  0  0  0  0  0  0  0  0  0  0
    0.3165  -10.7904    5.5455 H   0  0  0  0  0  0  0  0  0  0  0  0
    2.0543    1.2921    0.1829 H   0  0  0  0  0  0  0  0  0  0  0  0
    2.4623   -0.4111   -0.0661 H   0  0  0  0  0  0  0  0  0  0  0  0
    1.9641    0.1588    1.5429 H   0  0  0  0  0  0  0  0  0  0  0  0
    0.4161  -12.9488    5.0519 H   0  0  0  0  0  0  0  0  0  0  0  0
   -0.4926  -11.8856    2.0211 H   0  0  0  0  0  0  0  0  0  0  0  0
   -2.0746  -10.5930    5.7212 H   0  0  0  0  0  0  0  0  0  0  0  0
   -2.7288  -12.0937    1.1447 H   0  0  0  0  0  0  0  0  0  0  0  0
   -4.3036  -10.8246    4.8302 H   0  0  0  0  0  0  0  0  0  0  0  0
   -4.6428  -11.5721    2.5475 H   0  0  0  0  0  0  0  0  0  0  0  0
  1  2  1  0  0  0  0 
  1  3  2  0  0  0  0 
  1  4  1  0  0  0  0 
  4  5  1  0  0  0  0 
  4  6  2  0  0  0  0 
  7  5  1  0  0  0  0 
  5  8  1  0  0  0  0 
  6  9  1  0  0  0  0 
  6 10  1  0  0  0  0 
 11  7  1  0  0  0  0 
  7 12  1  0  0  0  0 
  7 32  1  0  0  0  0 
 11  8  1  0  0  0  0 
  8 13  2  0  0  0  0 
  9 14  1  0  0  0  0 
 10 12  1  0  0  0  0 
 11 15  1  0  0  0  0 
 14 16  1  0  0  0  0 
 15 17  1  0  0  0  0 
 16 18  1  0  0  0  0 
 16 19  2  0  0  0  0 
 20 17  1  0  0  0  0 
 17 21  2  0  0  0  0 
 18 22  1  0  0  0  0 
 18 23  1  0  0  0  0 
 19 24  1  0  0  0  0 
 20 25  1  0  0  0  0 
 20 26  1  0  0  0  0 
 23 24  2  0  0  0  0 
 26 27  2  0  0  0  0 
 26 28  1  0  0  0  0 
 27 29  1  0  0  0  0 
 28 30  2  0  0  0  0 
 29 31  2  0  0  0  0 
 30 31  1  0  0  0  0 
  2 33  1  0  0  0  0 
  9 34  1  0  0  0  0 
  9 35  1  0  0  0  0 
 10 36  1  0  0  0  0 
 10 37  1  0  0  0  0 
 11 38  1  0  0  0  0 
 15 39  1  0  0  0  0 
 20 40  1  0  0  0  0 
 22 41  1  0  0  0  0 
 22 42  1  0  0  0  0 
 22 43  1  0  0  0  0 
 25 44  1  0  0  0  0 
 27 45  1  0  0  0  0 
 28 46  1  0  0  0  0 
 29 47  1  0  0  0  0 
 30 48  1  0  0  0  0 
 31 49  1  0  0  0  0 
M  END
> <cdk:Title>
cefamandole

> <Conformer>
1

> <SuperDrugID>
SD000456

$$$$
