indocyanine green
  CDK     0628171801

102107  0  0  0  0  0  0  0  0999 V2000
    0.1071   -2.9647    8.7009 C   0  0  0  0  0  0  0  0  0  0  0  0
   -0.3128   -4.4726    8.7130 C   0  0  2  0  0  0  0  0  0  0  0  0
   -1.6908   -4.8121    8.0438 C   0  0  0  0  0  0  0  0  0  0  0  0
   -0.2628   -5.0744   10.1521 C   0  0  0  0  0  0  0  0  0  0  0  0
    0.8092   -5.3253    8.1792 C   0  0  0  0  0  0  0  0  0  0  0  0
    0.7814   -6.0948   10.3009 C   0  0  0  0  0  0  0  0  0  0  0  0
   -1.1462   -4.6835   11.2645 C   0  0  0  0  0  0  0  0  0  0  0  0
    1.2138   -5.3492    6.8821 C   0  0  0  0  0  0  0  0  0  0  0  0
    1.4472   -6.1227    9.1276 N   0  0  0  0  0  0  0  0  0  0  0  0
    0.8557   -6.7537   11.6192 C   0  0  0  0  0  0  0  0  0  0  0  0
   -0.9961   -5.3836   12.5158 C   0  0  0  0  0  0  0  0  0  0  0  0
   -2.1189   -3.6543   11.1925 C   0  0  0  0  0  0  0  0  0  0  0  0
    0.7892   -4.6072    5.8161 C   0  0  0  0  0  0  0  0  0  0  0  0
    2.7369   -6.7878    9.0173 C   0  0  2  0  0  0  0  0  0  0  0  0
   -0.0309   -6.4095   12.7126 C   0  0  0  0  0  0  0  0  0  0  0  0
   -1.8258   -5.0388   13.6113 C   0  0  0  0  0  0  0  0  0  0  0  0
   -2.9199   -3.3167   12.2938 C   0  0  0  0  0  0  0  0  0  0  0  0
    1.4897   -4.4960    4.6696 C   0  0  0  0  0  0  0  0  0  0  0  0
    3.8859   -5.7427    8.9289 C   0  0  1  0  0  0  0  0  0  0  0  0
   -2.7779   -4.0131   13.4999 C   0  0  0  0  0  0  0  0  0  0  0  0
    1.0765   -3.7810    3.5846 C   0  0  0  0  0  0  0  0  0  0  0  0
    5.3060   -6.3570    8.8024 C   0  0  1  0  0  0  0  0  0  0  0  0
    1.7525   -3.7663    2.4205 C   0  0  0  0  0  0  0  0  0  0  0  0
    6.3580   -5.2990    8.3811 C   0  0  1  0  0  0  0  0  0  0  0  0
    1.3783   -3.0164    1.3565 C   0  0  0  0  0  0  0  0  0  0  0  0
    8.0523   -5.9854    8.3469 S   0  0  2  0  0  0  0  0  0  0  0  0
    2.2703   -2.2674    0.6821 C   0  0  0  0  0  0  0  0  0  0  0  0
    9.0715   -4.9083    7.7408 O   0  0  0  0  0  0  0  0  0  0  0  0
    8.0939   -7.3198    7.4615 O   0  0  0  0  0  0  0  0  0  0  0  0
    8.5420   -6.3653    9.9404 O   0  0  0  0  0  0  0  0  0  0  0  0
    1.9651   -1.4255   -0.3548 C   0  0  0  0  0  0  0  0  0  0  0  0
    1.2372   -0.3537   -0.2591 N   0  0  0  0  0  0  0  0  0  0  0  0
    2.5166   -1.6424   -1.7063 C   0  0  2  0  0  0  0  0  0  0  0  0
    0.5716    0.1368    0.9018 C   0  0  2  0  0  0  0  0  0  0  0  0
    1.2244    0.2707   -1.4332 C   0  0  0  0  0  0  0  0  0  0  0  0
    1.9494   -2.9616   -2.3264 C   0  0  0  0  0  0  0  0  0  0  0  0
    4.0817   -1.6312   -1.6654 C   0  0  0  0  0  0  0  0  0  0  0  0
    1.9743   -0.4355   -2.3793 C   0  0  0  0  0  0  0  0  0  0  0  0
   -0.9629   -0.1211    0.8477 C   0  0  2  0  0  0  0  0  0  0  0  0
    0.6116    1.4956   -1.7763 C   0  0  0  0  0  0  0  0  0  0  0  0
    2.1239    0.0575   -3.7090 C   0  0  0  0  0  0  0  0  0  0  0  0
   -1.7172    0.2162    2.1623 C   0  0  2  0  0  0  0  0  0  0  0  0
    0.7500    2.0041   -3.0753 C   0  0  0  0  0  0  0  0  0  0  0  0
    1.4981    1.3005   -4.0442 C   0  0  0  0  0  0  0  0  0  0  0  0
    2.8660   -0.6060   -4.7189 C   0  0  0  0  0  0  0  0  0  0  0  0
   -1.8569    1.7314    2.4533 C   0  0  1  0  0  0  0  0  0  0  0  0
    1.6340    1.8382   -5.3444 C   0  0  0  0  0  0  0  0  0  0  0  0
    3.0031   -0.0561   -6.0052 C   0  0  0  0  0  0  0  0  0  0  0  0
   -2.7934    2.0198    3.9993 S   0  0  1  0  0  0  0  0  0  0  0  0
    2.3889    1.1651   -6.3177 C   0  0  0  0  0  0  0  0  0  0  0  0
   -1.9918    1.4105    5.2456 O   0  0  0  0  0  0  0  0  0  0  0  0
   -3.0329    3.5884    4.2181 O   0  0  0  0  0  0  0  0  0  0  0  0
   -4.3118    1.2383    3.8999 O   0  0  0  0  0  0  0  0  0  0  0  0
   -0.6533   -2.3101    9.1180 H   0  0  0  0  0  0  0  0  0  0  0  0
    1.0229   -2.8238    9.2822 H   0  0  0  0  0  0  0  0  0  0  0  0
    0.2967   -2.6132    7.6869 H   0  0  0  0  0  0  0  0  0  0  0  0
   -1.8439   -4.2699    7.1149 H   0  0  0  0  0  0  0  0  0  0  0  0
   -2.5368   -4.5595    8.6737 H   0  0  0  0  0  0  0  0  0  0  0  0
   -1.7633   -5.8821    7.8366 H   0  0  0  0  0  0  0  0  0  0  0  0
    1.9274   -5.9952    6.6575 H   0  0  0  0  0  0  0  0  0  0  0  0
    1.5492   -7.5244   11.8863 H   0  0  0  0  0  0  0  0  0  0  0  0
   -2.2721   -3.1204   10.3448 H   0  0  0  0  0  0  0  0  0  0  0  0
   -0.0669   -4.1250    5.8696 H   0  0  0  0  0  0  0  0  0  0  0  0
    2.7547   -7.4495    8.1481 H   0  0  0  0  0  0  0  0  0  0  0  0
    2.9339   -7.4311    9.8790 H   0  0  0  0  0  0  0  0  0  0  0  0
    0.0580   -6.9022   13.6087 H   0  0  0  0  0  0  0  0  0  0  0  0
   -1.7450   -5.5223   14.5110 H   0  0  0  0  0  0  0  0  0  0  0  0
   -3.6033   -2.5583   12.2180 H   0  0  0  0  0  0  0  0  0  0  0  0
    2.3681   -4.9608    4.6108 H   0  0  0  0  0  0  0  0  0  0  0  0
    3.7099   -5.0942    8.0683 H   0  0  0  0  0  0  0  0  0  0  0  0
    3.8561   -5.1206    9.8282 H   0  0  0  0  0  0  0  0  0  0  0  0
   -3.3671   -3.7694   14.2992 H   0  0  0  0  0  0  0  0  0  0  0  0
    0.2474   -3.2353    3.6589 H   0  0  0  0  0  0  0  0  0  0  0  0
    5.5940   -6.7929    9.7626 H   0  0  0  0  0  0  0  0  0  0  0  0
    5.2954   -7.1549    8.0556 H   0  0  0  0  0  0  0  0  0  0  0  0
    2.5830   -4.3093    2.3360 H   0  0  0  0  0  0  0  0  0  0  0  0
    6.1285   -4.9331    7.3793 H   0  0  0  0  0  0  0  0  0  0  0  0
    6.3415   -4.4494    9.0665 H   0  0  0  0  0  0  0  0  0  0  0  0
    0.4169   -3.0071    1.0979 H   0  0  0  0  0  0  0  0  0  0  0  0
    3.2270   -2.2978    0.9564 H   0  0  0  0  0  0  0  0  0  0  0  0
    8.0765   -5.7130   10.5060 H   0  0  0  0  0  0  0  0  0  0  0  0
    0.7679    1.2052    1.0163 H   0  0  0  0  0  0  0  0  0  0  0  0
    0.9627   -0.3141    1.8167 H   0  0  0  0  0  0  0  0  0  0  0  0
    0.8568   -2.9392   -2.3713 H   0  0  0  0  0  0  0  0  0  0  0  0
    2.2482   -3.8242   -1.7263 H   0  0  0  0  0  0  0  0  0  0  0  0
    2.3220   -3.1283   -3.3363 H   0  0  0  0  0  0  0  0  0  0  0  0
    4.5234   -1.6746   -2.6565 H   0  0  0  0  0  0  0  0  0  0  0  0
    4.4534   -0.7290   -1.1737 H   0  0  0  0  0  0  0  0  0  0  0  0
    4.4576   -2.4969   -1.1173 H   0  0  0  0  0  0  0  0  0  0  0  0
   -1.1281   -1.1795    0.6341 H   0  0  0  0  0  0  0  0  0  0  0  0
   -1.4110    0.4382    0.0243 H   0  0  0  0  0  0  0  0  0  0  0  0
    0.0703    2.0327   -1.0965 H   0  0  0  0  0  0  0  0  0  0  0  0
   -1.2154   -0.2737    3.0008 H   0  0  0  0  0  0  0  0  0  0  0  0
   -2.7211   -0.2105    2.0884 H   0  0  0  0  0  0  0  0  0  0  0  0
    0.3021    2.8960   -3.3060 H   0  0  0  0  0  0  0  0  0  0  0  0
    3.3211   -1.4995   -4.5493 H   0  0  0  0  0  0  0  0  0  0  0  0
   -0.8743    2.1954    2.5590 H   0  0  0  0  0  0  0  0  0  0  0  0
   -2.3888    2.2183    1.6332 H   0  0  0  0  0  0  0  0  0  0  0  0
    1.1940    2.7272   -5.5937 H   0  0  0  0  0  0  0  0  0  0  0  0
    3.5518   -0.5470   -6.7155 H   0  0  0  0  0  0  0  0  0  0  0  0
    2.4920    1.5637   -7.2541 H   0  0  0  0  0  0  0  0  0  0  0  0
   -4.5809    1.3287    2.9616 H   0  0  0  0  0  0  0  0  0  0  0  0
  1  2  1  0  0  0  0 
  2  3  1  0  0  0  0 
  2  4  1  0  0  0  0 
  2  5  1  0  0  0  0 
  4  6  1  0  0  0  0 
  4  7  2  0  0  0  0 
  5  8  2  0  0  0  0 
  5  9  1  0  0  0  0 
  6  9  1  0  0  0  0 
  6 10  2  0  0  0  0 
  7 11  1  0  0  0  0 
  7 12  1  0  0  0  0 
  8 13  1  0  0  0  0 
  9 14  1  0  0  0  0 
 10 15  1  0  0  0  0 
 11 15  2  0  0  0  0 
 11 16  1  0  0  0  0 
 12 17  2  0  0  0  0 
 13 18  2  0  0  0  0 
 14 19  1  0  0  0  0 
 16 20  2  0  0  0  0 
 17 20  1  0  0  0  0 
 18 21  1  0  0  0  0 
 19 22  1  0  0  0  0 
 21 23  2  0  0  0  0 
 22 24  1  0  0  0  0 
 23 25  1  0  0  0  0 
 24 26  1  0  0  0  0 
 25 27  2  0  0  0  0 
 26 28  2  0  0  0  0 
 26 29  2  0  0  0  0 
 26 30  1  0  0  0  0 
 27 31  1  0  0  0  0 
 31 32  2  0  0  0  0 
 31 33  1  0  0  0  0 
 32 34  1  0  0  0  0 
 32 35  1  0  0  0  0 
 33 36  1  0  0  0  0 
 33 37  1  0  0  0  0 
 33 38  1  0  0  0  0 
 34 39  1  0  0  0  0 
 35 38  1  0  0  0  0 
 35 40  2  0  0  0  0 
 38 41  2  0  0  0  0 
 39 42  1  0  0  0  0 
 40 43  1  0  0  0  0 
 41 44  1  0  0  0  0 
 41 45  1  0  0  0  0 
 42 46  1  0  0  0  0 
 43 44  2  0  0  0  0 
 44 47  1  0  0  0  0 
 45 48  2  0  0  0  0 
 46 49  1  0  0  0  0 
 47 50  2  0  0  0  0 
 48 50  1  0  0  0  0 
 49 51  2  0  0  0  0 
 49 52  2  0  0  0  0 
 49 53  1  0  0  0  0 
  1 54  1  0  0  0  0 
  1 55  1  0  0  0  0 
  1 56  1  0  0  0  0 
  3 57  1  0  0  0  0 
  3 58  1  0  0  0  0 
  3 59  1  0  0  0  0 
  8 60  1  0  0  0  0 
 10 61  1  0  0  0  0 
 12 62  1  0  0  0  0 
 13 63  1  0  0  0  0 
 14 64  1  0  0  0  0 
 14 65  1  0  0  0  0 
 15 66  1  0  0  0  0 
 16 67  1  0  0  0  0 
 17 68  1  0  0  0  0 
 18 69  1  0  0  0  0 
 19 70  1  0  0  0  0 
 19 71  1  0  0  0  0 
 20 72  1  0  0  0  0 
 21 73  1  0  0  0  0 
 22 74  1  0  0  0  0 
 22 75  1  0  0  0  0 
 23 76  1  0  0  0  0 
 24 77  1  0  0  0  0 
 24 78  1  0  0  0  0 
 25 79  1  0  0  0  0 
 27 80  1  0  0  0  0 
 30 81  1  0  0  0  0 
 34 82  1  0  0  0  0 
 34 83  1  0  0  0  0 
 36 84  1  0  0  0  0 
 36 85  1  0  0  0  0 
 36 86  1  0  0  0  0 
 37 87  1  0  0  0  0 
 37 88  1  0  0  0  0 
 37 89  1  0  0  0  0 
 39 90  1  0  0  0  0 
 39 91  1  0  0  0  0 
 40 92  1  0  0  0  0 
 42 93  1  0  0  0  0 
 42 94  1  0  0  0  0 
 43 95  1  0  0  0  0 
 45 96  1  0  0  0  0 
 46 97  1  0  0  0  0 
 46 98  1  0  0  0  0 
 47 99  1  0  0  0  0 
 48100  1  0  0  0  0 
 50101  1  0  0  0  0 
 53102  1  0  0  0  0 
M  CHG  1  32   1
M  END
> <cdk:Title>
indocyanine green

> <Conformer>
1

> <SuperDrugID>
SD002850

$$$$
