morclofone
  CDK     0628171801

 52 54  0  0  0  0  0  0  0  0999 V2000
    6.0122   -2.0029    5.8265 O   0  0  0  0  0  0  0  0  0  0  0  0
    5.3428   -1.3117    6.9048 C   0  0  2  0  0  0  0  0  0  0  0  0
    5.4986   -1.7972    4.5674 C   0  0  0  0  0  0  0  0  0  0  0  0
    5.6429    0.2069    6.9659 C   0  0  2  0  0  0  0  0  0  0  0  0
    6.1942   -0.9744    3.6549 C   0  0  0  0  0  0  0  0  0  0  0  0
    4.3100   -2.4380    4.1515 C   0  0  0  0  0  0  0  0  0  0  0  0
    7.1002    0.5506    6.9071 N   0  0  1  0  0  0  0  0  0  0  0  0
    7.3564   -0.3423    4.0144 O   0  0  0  0  0  0  0  0  0  0  0  0
    5.6706   -0.7533    2.3647 C   0  0  0  0  0  0  0  0  0  0  0  0
    3.6159   -3.2434    5.0136 O   0  0  0  0  0  0  0  0  0  0  0  0
    3.8045   -2.2144    2.8540 C   0  0  0  0  0  0  0  0  0  0  0  0
    7.3276    1.9971    6.5980 C   0  0  1  0  0  0  0  0  0  0  0  0
    7.8834    0.1248    8.1097 C   0  0  2  0  0  0  0  0  0  0  0  0
    8.5426   -1.1085    3.7389 C   0  0  0  0  0  0  0  0  0  0  0  0
    4.4693   -1.3698    1.9285 C   0  0  0  0  0  0  0  0  0  0  0  0
    3.9085   -4.6412    4.8543 C   0  0  0  0  0  0  0  0  0  0  0  0
    8.8394    2.2963    6.4654 C   0  0  1  0  0  0  0  0  0  0  0  0
    9.3828    0.4649    7.9288 C   0  0  2  0  0  0  0  0  0  0  0  0
    3.9121   -1.1275    0.6276 C   0  0  0  0  0  0  0  0  0  0  0  0
    9.5604    1.8635    7.6350 O   0  0  0  0  0  0  0  0  0  0  0  0
    2.7590   -1.5393    0.3485 O   0  0  0  0  0  0  0  0  0  0  0  0
    4.5590   -0.3835   -0.3918 C   0  0  0  0  0  0  0  0  0  0  0  0
    5.8269   -0.7650   -0.8904 C   0  0  0  0  0  0  0  0  0  0  0  0
    3.9397    0.7739   -0.9204 C   0  0  0  0  0  0  0  0  0  0  0  0
    6.4765    0.0154   -1.8645 C   0  0  0  0  0  0  0  0  0  0  0  0
    4.5896    1.5556   -1.8931 C   0  0  0  0  0  0  0  0  0  0  0  0
    5.8605    1.1778   -2.3689 C   0  0  0  0  0  0  0  0  0  0  0  0
    6.6391    2.1104   -3.5471 Cl  0  0  0  0  0  0  0  0  0  0  0  0
    5.6790   -1.7741    7.8323 H   0  0  0  0  0  0  0  0  0  0  0  0
    4.2611   -1.4657    6.8694 H   0  0  0  0  0  0  0  0  0  0  0  0
    5.1980    0.6205    7.8761 H   0  0  0  0  0  0  0  0  0  0  0  0
    5.1194    0.6596    6.1185 H   0  0  0  0  0  0  0  0  0  0  0  0
    6.1828   -0.1184    1.7506 H   0  0  0  0  0  0  0  0  0  0  0  0
    2.9300   -2.6791    2.5950 H   0  0  0  0  0  0  0  0  0  0  0  0
    6.8448    2.2648    5.6545 H   0  0  0  0  0  0  0  0  0  0  0  0
    6.9037    2.6259    7.3881 H   0  0  0  0  0  0  0  0  0  0  0  0
    7.8084   -0.9521    8.2660 H   0  0  0  0  0  0  0  0  0  0  0  0
    7.5071    0.6272    9.0063 H   0  0  0  0  0  0  0  0  0  0  0  0
    9.4090   -0.4854    3.9612 H   0  0  0  0  0  0  0  0  0  0  0  0
    8.5883   -1.9967    4.3727 H   0  0  0  0  0  0  0  0  0  0  0  0
    8.6029   -1.4045    2.6883 H   0  0  0  0  0  0  0  0  0  0  0  0
    3.2998   -5.2000    5.5655 H   0  0  0  0  0  0  0  0  0  0  0  0
    3.6584   -4.9908    3.8499 H   0  0  0  0  0  0  0  0  0  0  0  0
    4.9593   -4.8529    5.0643 H   0  0  0  0  0  0  0  0  0  0  0  0
    9.2452    1.8116    5.5733 H   0  0  0  0  0  0  0  0  0  0  0  0
    8.9814    3.3730    6.3571 H   0  0  0  0  0  0  0  0  0  0  0  0
    9.8204   -0.1458    7.1328 H   0  0  0  0  0  0  0  0  0  0  0  0
    9.9165    0.2391    8.8541 H   0  0  0  0  0  0  0  0  0  0  0  0
    6.2913   -1.6082   -0.5424 H   0  0  0  0  0  0  0  0  0  0  0  0
    3.0160    1.0677   -0.5909 H   0  0  0  0  0  0  0  0  0  0  0  0
    7.3999   -0.2680   -2.1985 H   0  0  0  0  0  0  0  0  0  0  0  0
    4.1334    2.4006   -2.2461 H   0  0  0  0  0  0  0  0  0  0  0  0
  1  2  1  0  0  0  0 
  1  3  1  0  0  0  0 
  2  4  1  0  0  0  0 
  3  5  2  0  0  0  0 
  3  6  1  0  0  0  0 
  4  7  1  0  0  0  0 
  5  8  1  0  0  0  0 
  5  9  1  0  0  0  0 
  6 10  1  0  0  0  0 
  6 11  2  0  0  0  0 
  7 12  1  0  0  0  0 
  7 13  1  0  0  0  0 
  8 14  1  0  0  0  0 
  9 15  2  0  0  0  0 
 10 16  1  0  0  0  0 
 11 15  1  0  0  0  0 
 12 17  1  0  0  0  0 
 13 18  1  0  0  0  0 
 15 19  1  0  0  0  0 
 17 20  1  0  0  0  0 
 18 20  1  0  0  0  0 
 19 21  2  0  0  0  0 
 19 22  1  0  0  0  0 
 22 23  2  0  0  0  0 
 22 24  1  0  0  0  0 
 23 25  1  0  0  0  0 
 24 26  2  0  0  0  0 
 25 27  2  0  0  0  0 
 26 27  1  0  0  0  0 
 27 28  1  0  0  0  0 
  2 29  1  0  0  0  0 
  2 30  1  0  0  0  0 
  4 31  1  0  0  0  0 
  4 32  1  0  0  0  0 
  9 33  1  0  0  0  0 
 11 34  1  0  0  0  0 
 12 35  1  0  0  0  0 
 12 36  1  0  0  0  0 
 13 37  1  0  0  0  0 
 13 38  1  0  0  0  0 
 14 39  1  0  0  0  0 
 14 40  1  0  0  0  0 
 14 41  1  0  0  0  0 
 16 42  1  0  0  0  0 
 16 43  1  0  0  0  0 
 16 44  1  0  0  0  0 
 17 45  1  0  0  0  0 
 17 46  1  0  0  0  0 
 18 47  1  0  0  0  0 
 18 48  1  0  0  0  0 
 23 49  1  0  0  0  0 
 24 50  1  0  0  0  0 
 25 51  1  0  0  0  0 
 26 52  1  0  0  0  0 
M  END
> <cdk:Title>
morclofone

> <Conformer>
1

> <SuperDrugID>
SD001639

$$$$
