xenysalate
  CDK     0628171801

 46 47  0  0  0  0  0  0  0  0999 V2000
    0.2483    4.9138    2.4116 O   0  0  0  0  0  0  0  0  0  0  0  0
    0.8263    3.7439    2.7973 C   0  0  0  0  0  0  0  0  0  0  0  0
   -0.0115    2.7189    3.3090 C   0  0  0  0  0  0  0  0  0  0  0  0
    2.2297    3.5464    2.6691 C   0  0  0  0  0  0  0  0  0  0  0  0
    0.5531    1.4581    3.6078 C   0  0  0  0  0  0  0  0  0  0  0  0
   -1.3942    2.9418    3.5479 C   0  0  0  0  0  0  0  0  0  0  0  0
    3.1189    4.5828    2.2587 C   0  0  0  0  0  0  0  0  0  0  0  0
    2.7561    2.2686    2.9809 C   0  0  0  0  0  0  0  0  0  0  0  0
    1.9266    1.2318    3.4308 C   0  0  0  0  0  0  0  0  0  0  0  0
   -1.7992    3.9592    4.4462 C   0  0  0  0  0  0  0  0  0  0  0  0
   -2.3882    2.1608    2.9095 C   0  0  0  0  0  0  0  0  0  0  0  0
    4.4012    4.2804    1.8881 O   0  0  0  0  0  0  0  0  0  0  0  0
    2.7662    5.7874    2.2582 O   0  0  0  0  0  0  0  0  0  0  0  0
   -3.1636    4.1997    4.6896 C   0  0  0  0  0  0  0  0  0  0  0  0
   -3.7534    2.4021    3.1572 C   0  0  0  0  0  0  0  0  0  0  0  0
    5.4036    5.2109    1.4616 C   0  0  2  0  0  0  0  0  0  0  0  0
   -4.1402    3.4155    4.0517 C   0  0  0  0  0  0  0  0  0  0  0  0
    6.7398    4.4660    1.2288 C   0  0  2  0  0  0  0  0  0  0  0  0
    7.8916    5.3429    0.8215 N   0  0  1  0  0  0  0  0  0  0  0  0
    7.8032    5.8302   -0.5973 C   0  0  1  0  0  0  0  0  0  0  0  0
    8.3289    6.3855    1.8150 C   0  0  1  0  0  0  0  0  0  0  0  0
    9.1658    6.2664   -1.1870 C   0  0  0  0  0  0  0  0  0  0  0  0
    8.6534    5.8582    3.2323 C   0  0  0  0  0  0  0  0  0  0  0  0
    0.7071    5.1731    1.5840 H   0  0  0  0  0  0  0  0  0  0  0  0
   -0.0275    0.6943    3.9672 H   0  0  0  0  0  0  0  0  0  0  0  0
    3.7572    2.0733    2.8956 H   0  0  0  0  0  0  0  0  0  0  0  0
    2.3277    0.3151    3.6406 H   0  0  0  0  0  0  0  0  0  0  0  0
   -1.1015    4.5273    4.9368 H   0  0  0  0  0  0  0  0  0  0  0  0
   -2.1255    1.4153    2.2580 H   0  0  0  0  0  0  0  0  0  0  0  0
   -3.4425    4.9432    5.3340 H   0  0  0  0  0  0  0  0  0  0  0  0
   -4.4646    1.8383    2.6866 H   0  0  0  0  0  0  0  0  0  0  0  0
    5.5324    5.9693    2.2361 H   0  0  0  0  0  0  0  0  0  0  0  0
    5.0801    5.6934    0.5358 H   0  0  0  0  0  0  0  0  0  0  0  0
   -5.1304    3.5775    4.2441 H   0  0  0  0  0  0  0  0  0  0  0  0
    6.5767    3.6979    0.4650 H   0  0  0  0  0  0  0  0  0  0  0  0
    7.0080    3.9201    2.1375 H   0  0  0  0  0  0  0  0  0  0  0  0
    7.4434    5.0204   -1.2382 H   0  0  0  0  0  0  0  0  0  0  0  0
    7.0883    6.6558   -0.6767 H   0  0  0  0  0  0  0  0  0  0  0  0
    9.2526    6.8474    1.4633 H   0  0  0  0  0  0  0  0  0  0  0  0
    7.5823    7.1802    1.8932 H   0  0  0  0  0  0  0  0  0  0  0  0
    9.4510    7.2552   -0.8218 H   0  0  0  0  0  0  0  0  0  0  0  0
    9.9369    5.5471   -0.9074 H   0  0  0  0  0  0  0  0  0  0  0  0
    9.1127    6.3096   -2.2754 H   0  0  0  0  0  0  0  0  0  0  0  0
    9.1362    6.6427    3.8212 H   0  0  0  0  0  0  0  0  0  0  0  0
    9.3323    5.0072    3.1663 H   0  0  0  0  0  0  0  0  0  0  0  0
    7.7442    5.5494    3.7500 H   0  0  0  0  0  0  0  0  0  0  0  0
  1  2  1  0  0  0  0 
  2  3  2  0  0  0  0 
  2  4  1  0  0  0  0 
  3  5  1  0  0  0  0 
  3  6  1  0  0  0  0 
  4  7  1  0  0  0  0 
  4  8  2  0  0  0  0 
  5  9  2  0  0  0  0 
  6 10  2  0  0  0  0 
  6 11  1  0  0  0  0 
  7 12  1  0  0  0  0 
  7 13  2  0  0  0  0 
  8  9  1  0  0  0  0 
 10 14  1  0  0  0  0 
 11 15  2  0  0  0  0 
 12 16  1  0  0  0  0 
 14 17  2  0  0  0  0 
 15 17  1  0  0  0  0 
 16 18  1  0  0  0  0 
 18 19  1  0  0  0  0 
 19 20  1  0  0  0  0 
 19 21  1  0  0  0  0 
 20 22  1  0  0  0  0 
 21 23  1  0  0  0  0 
  1 24  1  0  0  0  0 
  5 25  1  0  0  0  0 
  8 26  1  0  0  0  0 
  9 27  1  0  0  0  0 
 10 28  1  0  0  0  0 
 11 29  1  0  0  0  0 
 14 30  1  0  0  0  0 
 15 31  1  0  0  0  0 
 16 32  1  0  0  0  0 
 16 33  1  0  0  0  0 
 17 34  1  0  0  0  0 
 18 35  1  0  0  0  0 
 18 36  1  0  0  0  0 
 20 37  1  0  0  0  0 
 20 38  1  0  0  0  0 
 21 39  1  0  0  0  0 
 21 40  1  0  0  0  0 
 22 41  1  0  0  0  0 
 22 42  1  0  0  0  0 
 22 43  1  0  0  0  0 
 23 44  1  0  0  0  0 
 23 45  1  0  0  0  0 
 23 46  1  0  0  0  0 
M  END
> <cdk:Title>
xenysalate

> <Conformer>
1

> <SuperDrugID>
SD002631

$$$$
