rizatriptan
  CDK     0628171801

 39 41  0  0  0  0  0  0  0  0999 V2000
    2.2022    1.1645   -1.1616 C   0  0  2  0  0  0  0  0  0  0  0  0
    1.4851    0.5040    0.0451 C   0  0  2  0  0  0  0  0  0  0  0  0
    3.6757    0.9854   -1.1453 C   0  0  0  0  0  0  0  0  0  0  0  0
    1.6590   -0.9834    0.0922 N   0  0  1  0  0  0  0  0  0  0  0  0
    4.4361   -0.0538   -1.6852 C   0  0  0  0  0  0  0  0  0  0  0  0
    4.6056    1.8661   -0.5833 C   0  0  0  0  0  0  0  0  0  0  0  0
    1.6951   -1.5415    1.4734 C   0  0  0  0  0  0  0  0  0  0  0  0
    0.7336   -1.7410   -0.8020 C   0  0  0  0  0  0  0  0  0  0  0  0
    5.7781    0.2447   -1.4504 C   0  0  0  0  0  0  0  0  0  0  0  0
    4.0773   -1.2296   -2.3681 C   0  0  0  0  0  0  0  0  0  0  0  0
    5.8511    1.4000   -0.7776 N   0  0  0  0  0  0  0  0  0  0  0  0
    6.8069   -0.5979   -1.8998 C   0  0  0  0  0  0  0  0  0  0  0  0
    5.0929   -2.1124   -2.8212 C   0  0  0  0  0  0  0  0  0  0  0  0
    6.4557   -1.7754   -2.5935 C   0  0  0  0  0  0  0  0  0  0  0  0
    4.7113   -3.3766   -3.5077 C   0  0  2  0  0  0  0  0  0  0  0  0
    3.9613   -3.1198   -4.6979 N   0  0  0  0  0  0  0  0  0  0  0  0
    4.4435   -2.7230   -5.8904 C   0  0  0  0  0  0  0  0  0  0  0  0
    2.6732   -3.2247   -4.7841 N   0  0  0  0  0  0  0  0  0  0  0  0
    3.4245   -2.5691   -6.7458 N   0  0  0  0  0  0  0  0  0  0  0  0
    2.3327   -2.8824   -6.0342 C   0  0  0  0  0  0  0  0  0  0  0  0
    1.9813    2.2366   -1.1336 H   0  0  0  0  0  0  0  0  0  0  0  0
    1.7931    0.7870   -2.1007 H   0  0  0  0  0  0  0  0  0  0  0  0
    0.4217    0.7587    0.0208 H   0  0  0  0  0  0  0  0  0  0  0  0
    1.8911    0.9711    0.9460 H   0  0  0  0  0  0  0  0  0  0  0  0
    4.3810    2.7359   -0.0995 H   0  0  0  0  0  0  0  0  0  0  0  0
    2.5143   -1.0851    2.0330 H   0  0  0  0  0  0  0  0  0  0  0  0
    1.8781   -2.6171    1.4492 H   0  0  0  0  0  0  0  0  0  0  0  0
    0.7579   -1.3537    2.0015 H   0  0  0  0  0  0  0  0  0  0  0  0
    0.7458   -1.3408   -1.8147 H   0  0  0  0  0  0  0  0  0  0  0  0
    1.0462   -2.7837   -0.8676 H   0  0  0  0  0  0  0  0  0  0  0  0
   -0.2946   -1.7086   -0.4351 H   0  0  0  0  0  0  0  0  0  0  0  0
    3.0934   -1.4415   -2.5346 H   0  0  0  0  0  0  0  0  0  0  0  0
    6.6682    1.8268   -0.4793 H   0  0  0  0  0  0  0  0  0  0  0  0
    7.7869   -0.3613   -1.7286 H   0  0  0  0  0  0  0  0  0  0  0  0
    7.2040   -2.3883   -2.9303 H   0  0  0  0  0  0  0  0  0  0  0  0
    4.1039   -3.9692   -2.8164 H   0  0  0  0  0  0  0  0  0  0  0  0
    5.5873   -3.9830   -3.7586 H   0  0  0  0  0  0  0  0  0  0  0  0
    5.4276   -2.5678   -6.1207 H   0  0  0  0  0  0  0  0  0  0  0  0
    1.3753   -2.8622   -6.3880 H   0  0  0  0  0  0  0  0  0  0  0  0
  1  2  1  0  0  0  0 
  1  3  1  0  0  0  0 
  2  4  1  0  0  0  0 
  3  5  1  0  0  0  0 
  3  6  2  0  0  0  0 
  4  7  1  0  0  0  0 
  4  8  1  0  0  0  0 
  5  9  1  0  0  0  0 
  5 10  2  0  0  0  0 
  6 11  1  0  0  0  0 
  9 11  1  0  0  0  0 
  9 12  2  0  0  0  0 
 10 13  1  0  0  0  0 
 12 14  1  0  0  0  0 
 13 14  2  0  0  0  0 
 13 15  1  0  0  0  0 
 15 16  1  0  0  0  0 
 16 17  1  0  0  0  0 
 16 18  1  0  0  0  0 
 17 19  2  0  0  0  0 
 18 20  2  0  0  0  0 
 19 20  1  0  0  0  0 
  1 21  1  0  0  0  0 
  1 22  1  0  0  0  0 
  2 23  1  0  0  0  0 
  2 24  1  0  0  0  0 
  6 25  1  0  0  0  0 
  7 26  1  0  0  0  0 
  7 27  1  0  0  0  0 
  7 28  1  0  0  0  0 
  8 29  1  0  0  0  0 
  8 30  1  0  0  0  0 
  8 31  1  0  0  0  0 
 10 32  1  0  0  0  0 
 11 33  1  0  0  0  0 
 12 34  1  0  0  0  0 
 14 35  1  0  0  0  0 
 15 36  1  0  0  0  0 
 15 37  1  0  0  0  0 
 17 38  1  0  0  0  0 
 20 39  1  0  0  0  0 
M  END
> <cdk:Title>
rizatriptan

> <Conformer>
1

> <SuperDrugID>
SD002154

$$$$
