cetoxime
  CDK     0628171801

 36 37  0  0  0  0  0  0  0  0999 V2000
   -1.9213    0.0096   -1.4868 N   0  0  0  0  0  0  0  0  0  0  0  0
   -1.2974   -0.7425   -2.5615 C   0  0  1  0  0  0  0  0  0  0  0  0
   -1.8365   -0.4335   -0.1062 C   0  0  1  0  0  0  0  0  0  0  0  0
   -2.6100    1.1548   -1.8075 C   0  0  0  0  0  0  0  0  0  0  0  0
   -1.7605   -2.1554   -2.6228 C   0  0  0  0  0  0  0  0  0  0  0  0
   -0.4728   -0.7217    0.3247 C   0  0  0  0  0  0  0  0  0  0  0  0
   -1.9107    2.3096   -2.2266 C   0  0  0  0  0  0  0  0  0  0  0  0
   -4.0226    1.1845   -1.7739 C   0  0  0  0  0  0  0  0  0  0  0  0
   -3.1183   -2.4481   -2.8938 C   0  0  0  0  0  0  0  0  0  0  0  0
   -0.8637   -3.2299   -2.4121 C   0  0  0  0  0  0  0  0  0  0  0  0
    0.4765    0.2008    0.4110 N   0  0  0  0  0  0  0  0  0  0  0  0
   -0.1427   -1.9216    0.6217 N   0  0  0  0  0  0  0  0  0  0  0  0
   -2.6080    3.4655   -2.6230 C   0  0  0  0  0  0  0  0  0  0  0  0
   -4.7224    2.3316   -2.1940 C   0  0  0  0  0  0  0  0  0  0  0  0
   -3.5683   -3.7798   -2.9493 C   0  0  0  0  0  0  0  0  0  0  0  0
   -1.3119   -4.5618   -2.4734 C   0  0  0  0  0  0  0  0  0  0  0  0
    0.2732    1.4654    0.1634 O   0  0  0  0  0  0  0  0  0  0  0  0
   -4.0145    3.4707   -2.6194 C   0  0  0  0  0  0  0  0  0  0  0  0
   -2.6645   -4.8366   -2.7418 C   0  0  0  0  0  0  0  0  0  0  0  0
   -1.4963   -0.2980   -3.5425 H   0  0  0  0  0  0  0  0  0  0  0  0
   -0.2131   -0.6896   -2.4301 H   0  0  0  0  0  0  0  0  0  0  0  0
   -2.2424    0.3096    0.5861 H   0  0  0  0  0  0  0  0  0  0  0  0
   -2.4686   -1.3209   -0.0011 H   0  0  0  0  0  0  0  0  0  0  0  0
   -0.8889    2.3132   -2.2519 H   0  0  0  0  0  0  0  0  0  0  0  0
   -4.5463    0.3648   -1.4605 H   0  0  0  0  0  0  0  0  0  0  0  0
   -3.7881   -1.6922   -3.0537 H   0  0  0  0  0  0  0  0  0  0  0  0
    0.1225   -3.0523   -2.2108 H   0  0  0  0  0  0  0  0  0  0  0  0
    1.3670   -0.0749    0.6815 H   0  0  0  0  0  0  0  0  0  0  0  0
    0.7319   -2.1260    0.8852 H   0  0  0  0  0  0  0  0  0  0  0  0
   -2.0946    4.2990   -2.9197 H   0  0  0  0  0  0  0  0  0  0  0  0
   -5.7458    2.3344   -2.1962 H   0  0  0  0  0  0  0  0  0  0  0  0
   -4.5514   -3.9796   -3.1426 H   0  0  0  0  0  0  0  0  0  0  0  0
   -0.6534   -5.3293   -2.3227 H   0  0  0  0  0  0  0  0  0  0  0  0
    1.1693    1.8372    0.0235 H   0  0  0  0  0  0  0  0  0  0  0  0
   -4.5228    4.3008   -2.9293 H   0  0  0  0  0  0  0  0  0  0  0  0
   -2.9900   -5.8048   -2.7866 H   0  0  0  0  0  0  0  0  0  0  0  0
  1  2  1  0  0  0  0 
  1  3  1  0  0  0  0 
  1  4  1  0  0  0  0 
  2  5  1  0  0  0  0 
  3  6  1  0  0  0  0 
  4  7  2  0  0  0  0 
  4  8  1  0  0  0  0 
  5  9  2  0  0  0  0 
  5 10  1  0  0  0  0 
  6 11  1  0  0  0  0 
  6 12  2  0  0  0  0 
  7 13  1  0  0  0  0 
  8 14  2  0  0  0  0 
  9 15  1  0  0  0  0 
 10 16  2  0  0  0  0 
 11 17  1  0  0  0  0 
 13 18  2  0  0  0  0 
 14 18  1  0  0  0  0 
 15 19  2  0  0  0  0 
 16 19  1  0  0  0  0 
 20  2  1  0  0  0  0 
 21  2  1  0  0  0  0 
 22  3  1  0  0  0  0 
 23  3  1  0  0  0  0 
 24  7  1  0  0  0  0 
 25  8  1  0  0  0  0 
 26  9  1  0  0  0  0 
 27 10  1  0  0  0  0 
 28 11  1  0  0  0  0 
 29 12  1  0  0  0  0 
 30 13  1  0  0  0  0 
 31 14  1  0  0  0  0 
 32 15  1  0  0  0  0 
 33 16  1  0  0  0  0 
 34 17  1  0  0  0  0 
 35 18  1  0  0  0  0 
 36 19  1  0  0  0  0 
M  END
> <cdk:Title>
cetoxime

> <Conformer>
1

> <SuperDrugID>
SD003167

$$$$
