rioprostil
  CDK     0628171801

 63 63  0  0  0  0  0  0  0  0999 V2000
    5.1100    3.6348   -0.9191 C   0  0  1  0  0  0  0  0  0  0  0  0
    4.1767    4.1051   -2.0820 C   0  0  2  0  0  0  0  0  0  0  0  0
    3.5810    2.9260   -2.9347 C   0  0  1  0  0  0  0  0  0  0  0  0
    2.1232    2.9745   -3.0921 C   0  0  0  0  0  0  0  0  0  0  0  0
    4.3304    2.9666   -4.3039 C   0  0  1  0  0  0  0  0  0  0  0  0
    5.4269    4.0422   -4.1772 C   0  0  1  0  0  0  0  0  0  0  0  0
    4.9060    4.8737   -3.0990 C   0  0  0  0  0  0  0  0  0  0  0  0
    3.3910    4.7289   -1.6447 H   0  0  0  0  0  0  0  0  0  0  0  0
    3.8099    1.9801   -2.4306 H   0  0  0  0  0  0  0  0  0  0  0  0
    4.9715    6.1245   -3.1028 O   0  0  0  0  0  0  0  0  0  0  0  0
    4.8923    1.6979   -4.6380 O   0  0  0  0  0  0  0  0  0  0  0  0
    3.6587    3.2598   -5.1201 H   0  0  0  0  0  0  0  0  0  0  0  0
    5.7267    4.7957   -0.0850 C   0  0  2  0  0  0  0  0  0  0  0  0
    6.7627    4.3082    0.9650 C   0  0  1  0  0  0  0  0  0  0  0  0
    7.4107    5.4846    1.7460 C   0  0  2  0  0  0  0  0  0  0  0  0
    8.4889    5.0240    2.7641 C   0  0  2  0  0  0  0  0  0  0  0  0
    9.1178    6.2121    3.5429 C   0  0  1  0  0  0  0  0  0  0  0  0
   10.1843    5.7635    4.5692 C   0  0  1  0  0  0  0  0  0  0  0  0
   10.7167    6.8920    5.2572 O   0  0  0  0  0  0  0  0  0  0  0  0
    1.3985    1.9693   -3.6164 C   0  0  0  0  0  0  0  0  0  0  0  0
   -0.0581    1.9926   -3.7006 C   0  0  1  0  0  0  0  0  0  0  0  0
   -0.7757    1.2390   -2.5265 C   0  0  2  0  0  0  0  0  0  0  0  0
   -0.3992    1.8497   -1.1323 C   0  0  2  0  0  0  0  0  0  0  0  0
   -1.0108    1.1598    0.1190 C   0  0  1  0  0  0  0  0  0  0  0  0
   -0.4891    1.7871    1.4384 C   0  0  1  0  0  0  0  0  0  0  0  0
   -0.3726   -0.1344   -2.5624 O   0  0  0  0  0  0  0  0  0  0  0  0
   -2.3172    1.2781   -2.7575 C   0  0  0  0  0  0  0  0  0  0  0  0
   -1.0822    1.1013    2.6890 C   0  0  0  0  0  0  0  0  0  0  0  0
    4.5272    3.0034   -0.2421 H   0  0  0  0  0  0  0  0  0  0  0  0
    5.9158    3.0194   -1.3311 H   0  0  0  0  0  0  0  0  0  0  0  0
    1.6409    3.7864   -2.7883 H   0  0  0  0  0  0  0  0  0  0  0  0
    6.3847    3.6087   -3.8741 H   0  0  0  0  0  0  0  0  0  0  0  0
    5.5523    4.6032   -5.1072 H   0  0  0  0  0  0  0  0  0  0  0  0
    5.3732    1.8477   -5.4789 H   0  0  0  0  0  0  0  0  0  0  0  0
    4.9223    5.3359    0.4225 H   0  0  0  0  0  0  0  0  0  0  0  0
    6.2291    5.4924   -0.7588 H   0  0  0  0  0  0  0  0  0  0  0  0
    6.2683    3.6334    1.6698 H   0  0  0  0  0  0  0  0  0  0  0  0
    7.5499    3.7481    0.4527 H   0  0  0  0  0  0  0  0  0  0  0  0
    6.6235    6.0273    2.2766 H   0  0  0  0  0  0  0  0  0  0  0  0
    7.8734    6.1711    1.0309 H   0  0  0  0  0  0  0  0  0  0  0  0
    9.2795    4.4913    2.2278 H   0  0  0  0  0  0  0  0  0  0  0  0
    8.0324    4.3303    3.4748 H   0  0  0  0  0  0  0  0  0  0  0  0
    9.5836    6.9016    2.8337 H   0  0  0  0  0  0  0  0  0  0  0  0
    8.3293    6.7523    4.0734 H   0  0  0  0  0  0  0  0  0  0  0  0
    9.7405    5.0873    5.3030 H   0  0  0  0  0  0  0  0  0  0  0  0
   11.0021    5.2470    4.0626 H   0  0  0  0  0  0  0  0  0  0  0  0
   11.3740    6.5226    5.8848 H   0  0  0  0  0  0  0  0  0  0  0  0
    1.8647    1.1549   -3.9433 H   0  0  0  0  0  0  0  0  0  0  0  0
   -0.4228    3.0238   -3.7389 H   0  0  0  0  0  0  0  0  0  0  0  0
   -0.3365    1.5304   -4.6517 H   0  0  0  0  0  0  0  0  0  0  0  0
   -0.6798    2.9068   -1.1214 H   0  0  0  0  0  0  0  0  0  0  0  0
    0.6847    1.8001   -1.0105 H   0  0  0  0  0  0  0  0  0  0  0  0
   -2.0988    1.2575    0.1035 H   0  0  0  0  0  0  0  0  0  0  0  0
   -0.7608    0.0963    0.1063 H   0  0  0  0  0  0  0  0  0  0  0  0
    0.6007    1.7074    1.4839 H   0  0  0  0  0  0  0  0  0  0  0  0
   -0.7504    2.8498    1.4589 H   0  0  0  0  0  0  0  0  0  0  0  0
    0.5974   -0.1266   -2.4175 H   0  0  0  0  0  0  0  0  0  0  0  0
   -2.6936    2.2967   -2.6449 H   0  0  0  0  0  0  0  0  0  0  0  0
   -2.5707    0.9237   -3.7580 H   0  0  0  0  0  0  0  0  0  0  0  0
   -2.8414    0.6340   -2.0508 H   0  0  0  0  0  0  0  0  0  0  0  0
   -0.7090    1.5952    3.5869 H   0  0  0  0  0  0  0  0  0  0  0  0
   -2.1722    1.1670    2.6810 H   0  0  0  0  0  0  0  0  0  0  0  0
   -0.7913    0.0488    2.7226 H   0  0  0  0  0  0  0  0  0  0  0  0
  2  1  1  0  0  0  0 
  2  3  1  0  0  0  0 
  3  4  1  0  0  0  0 
  5  6  1  0  0  0  0 
  6  7  1  0  0  0  0 
  2  7  1  0  0  0  0 
  3  5  1  0  0  0  0 
  2  8  1  0  0  0  0 
  3  9  1  0  0  0  0 
  7 10  2  0  0  0  0 
  5 11  1  0  0  0  0 
  5 12  1  0  0  0  0 
  1 13  1  0  0  0  0 
 13 14  1  0  0  0  0 
 14 15  1  0  0  0  0 
 15 16  1  0  0  0  0 
 16 17  1  0  0  0  0 
 17 18  1  0  0  0  0 
 18 19  1  0  0  0  0 
  4 20  2  0  0  0  0 
 20 21  1  0  0  0  0 
 22 21  1  0  0  0  0 
 22 23  1  0  0  0  0 
 23 24  1  0  0  0  0 
 24 25  1  0  0  0  0 
 22 26  1  0  0  0  0 
 22 27  1  0  0  0  0 
 25 28  1  0  0  0  0 
  1 29  1  0  0  0  0 
  1 30  1  0  0  0  0 
  4 31  1  0  0  0  0 
  6 32  1  0  0  0  0 
  6 33  1  0  0  0  0 
 11 34  1  0  0  0  0 
 13 35  1  0  0  0  0 
 13 36  1  0  0  0  0 
 14 37  1  0  0  0  0 
 14 38  1  0  0  0  0 
 15 39  1  0  0  0  0 
 15 40  1  0  0  0  0 
 16 41  1  0  0  0  0 
 16 42  1  0  0  0  0 
 17 43  1  0  0  0  0 
 17 44  1  0  0  0  0 
 18 45  1  0  0  0  0 
 18 46  1  0  0  0  0 
 19 47  1  0  0  0  0 
 20 48  1  0  0  0  0 
 21 49  1  0  0  0  0 
 21 50  1  0  0  0  0 
 23 51  1  0  0  0  0 
 23 52  1  0  0  0  0 
 24 53  1  0  0  0  0 
 24 54  1  0  0  0  0 
 25 55  1  0  0  0  0 
 25 56  1  0  0  0  0 
 26 57  1  0  0  0  0 
 27 58  1  0  0  0  0 
 27 59  1  0  0  0  0 
 27 60  1  0  0  0  0 
 28 61  1  0  0  0  0 
 28 62  1  0  0  0  0 
 28 63  1  0  0  0  0 
M  END
> <cdk:Title>
rioprostil

> <Conformer>
1

> <SuperDrugID>
SD003037

$$$$
