gefarnate
  CDK     0628171801

 73 72  0  0  0  0  0  0  0  0999 V2000
    5.2308   -7.1480   -5.6464 C   0  0  0  0  0  0  0  0  0  0  0  0
    4.2215   -7.1627   -6.5512 C   0  0  0  0  0  0  0  0  0  0  0  0
    5.6279   -8.4192   -5.0167 C   0  0  2  0  0  0  0  0  0  0  0  0
    5.9586   -5.9419   -5.2451 C   0  0  0  0  0  0  0  0  0  0  0  0
    3.6459   -6.0337   -7.2713 C   0  0  2  0  0  0  0  0  0  0  0  0
    4.5801   -8.9495   -3.9893 C   0  0  2  0  0  0  0  0  0  0  0  0
    2.5832   -5.2868   -6.4156 C   0  0  2  0  0  0  0  0  0  0  0  0
    4.9046  -10.2818   -3.4983 C   0  0  0  0  0  0  0  0  0  0  0  0
    2.0188   -4.1303   -7.1397 C   0  0  0  0  0  0  0  0  0  0  0  0
    4.7819  -11.4545   -4.1679 C   0  0  0  0  0  0  0  0  0  0  0  0
    2.1814   -2.8777   -6.6170 O   0  0  0  0  0  0  0  0  0  0  0  0
    1.3735   -4.3154   -8.1992 O   0  0  0  0  0  0  0  0  0  0  0  0
    5.2476  -12.6910   -3.5157 C   0  0  2  0  0  0  0  0  0  0  0  0
    4.2213  -11.5786   -5.5172 C   0  0  0  0  0  0  0  0  0  0  0  0
    1.7782   -1.6457   -7.2267 C   0  0  1  0  0  0  0  0  0  0  0  0
    6.7981  -12.7579   -3.3720 C   0  0  2  0  0  0  0  0  0  0  0  0
    1.9816   -0.5472   -6.2997 C   0  0  0  0  0  0  0  0  0  0  0  0
    7.2436  -13.9103   -2.5974 C   0  0  0  0  0  0  0  0  0  0  0  0
    1.2083   -0.2462   -5.2284 C   0  0  0  0  0  0  0  0  0  0  0  0
    7.3720  -13.9723   -1.2504 C   0  0  0  0  0  0  0  0  0  0  0  0
    1.5240    0.9507   -4.4277 C   0  0  2  0  0  0  0  0  0  0  0  0
    0.0388   -1.0352   -4.8313 C   0  0  0  0  0  0  0  0  0  0  0  0
    7.8692  -15.1928   -0.6166 C   0  0  0  0  0  0  0  0  0  0  0  0
    7.0456  -12.8431   -0.3753 C   0  0  0  0  0  0  0  0  0  0  0  0
    2.7806    0.7994   -3.5212 C   0  0  1  0  0  0  0  0  0  0  0  0
    3.1325    2.0531   -2.8582 C   0  0  0  0  0  0  0  0  0  0  0  0
    3.9372    3.0268   -3.3487 C   0  0  0  0  0  0  0  0  0  0  0  0
    4.2019    4.2323   -2.5619 C   0  0  0  0  0  0  0  0  0  0  0  0
    4.5785    2.9266   -4.6619 C   0  0  0  0  0  0  0  0  0  0  0  0
    3.7925   -8.0400   -6.7479 H   0  0  0  0  0  0  0  0  0  0  0  0
    6.5866   -8.3203   -4.4958 H   0  0  0  0  0  0  0  0  0  0  0  0
    5.7969   -9.1558   -5.8072 H   0  0  0  0  0  0  0  0  0  0  0  0
    5.8875   -5.8030   -4.1644 H   0  0  0  0  0  0  0  0  0  0  0  0
    5.6017   -5.0258   -5.7106 H   0  0  0  0  0  0  0  0  0  0  0  0
    7.0100   -6.0512   -5.5133 H   0  0  0  0  0  0  0  0  0  0  0  0
    3.1601   -6.4227   -8.1734 H   0  0  0  0  0  0  0  0  0  0  0  0
    4.4296   -5.3510   -7.6126 H   0  0  0  0  0  0  0  0  0  0  0  0
    3.5713   -8.9570   -4.4077 H   0  0  0  0  0  0  0  0  0  0  0  0
    4.5578   -8.2593   -3.1394 H   0  0  0  0  0  0  0  0  0  0  0  0
    3.1095   -4.8726   -5.4973 H   0  0  0  0  0  0  0  0  0  0  0  0
    1.7201   -6.0060   -6.2381 H   0  0  0  0  0  0  0  0  0  0  0  0
    5.2821  -10.3106   -2.5760 H   0  0  0  0  0  0  0  0  0  0  0  0
    4.9248  -13.5774   -4.0707 H   0  0  0  0  0  0  0  0  0  0  0  0
    4.7699  -12.7639   -2.5359 H   0  0  0  0  0  0  0  0  0  0  0  0
    4.9787  -11.9759   -6.1978 H   0  0  0  0  0  0  0  0  0  0  0  0
    3.8566  -10.6435   -5.9395 H   0  0  0  0  0  0  0  0  0  0  0  0
    3.3741  -12.2666   -5.4964 H   0  0  0  0  0  0  0  0  0  0  0  0
    2.3822   -1.4878   -8.1248 H   0  0  0  0  0  0  0  0  0  0  0  0
    0.7297   -1.6851   -7.5368 H   0  0  0  0  0  0  0  0  0  0  0  0
    7.1823  -11.8399   -2.9267 H   0  0  0  0  0  0  0  0  0  0  0  0
    7.2406  -12.8160   -4.3720 H   0  0  0  0  0  0  0  0  0  0  0  0
    2.7700    0.0323   -6.4889 H   0  0  0  0  0  0  0  0  0  0  0  0
    7.4589  -14.7218   -3.1335 H   0  0  0  0  0  0  0  0  0  0  0  0
    0.6802    1.2208   -3.7850 H   0  0  0  0  0  0  0  0  0  0  0  0
    1.6567    1.7961   -5.1081 H   0  0  0  0  0  0  0  0  0  0  0  0
    0.0738   -1.2541   -3.7620 H   0  0  0  0  0  0  0  0  0  0  0  0
   -0.0467   -1.9930   -5.3443 H   0  0  0  0  0  0  0  0  0  0  0  0
   -0.8658   -0.4623   -5.0434 H   0  0  0  0  0  0  0  0  0  0  0  0
    8.7521  -14.9617   -0.0170 H   0  0  0  0  0  0  0  0  0  0  0  0
    8.1543  -15.9676   -1.3320 H   0  0  0  0  0  0  0  0  0  0  0  0
    7.1009  -15.6080    0.0376 H   0  0  0  0  0  0  0  0  0  0  0  0
    7.1634  -13.0896    0.6823 H   0  0  0  0  0  0  0  0  0  0  0  0
    6.0096  -12.5333   -0.5160 H   0  0  0  0  0  0  0  0  0  0  0  0
    7.7018  -11.9971   -0.5877 H   0  0  0  0  0  0  0  0  0  0  0  0
    2.5771    0.0446   -2.7544 H   0  0  0  0  0  0  0  0  0  0  0  0
    3.6244    0.4241   -4.1006 H   0  0  0  0  0  0  0  0  0  0  0  0
    2.7128    2.1925   -1.9651 H   0  0  0  0  0  0  0  0  0  0  0  0
    5.2777    4.3434   -2.4086 H   0  0  0  0  0  0  0  0  0  0  0  0
    3.7292    4.2198   -1.5768 H   0  0  0  0  0  0  0  0  0  0  0  0
    3.8335    5.1103   -3.0970 H   0  0  0  0  0  0  0  0  0  0  0  0
    5.1598    3.8180   -4.9104 H   0  0  0  0  0  0  0  0  0  0  0  0
    3.8298    2.8030   -5.4457 H   0  0  0  0  0  0  0  0  0  0  0  0
    5.2624    2.0760   -4.6841 H   0  0  0  0  0  0  0  0  0  0  0  0
  1  2  2  0  0  0  0 
  1  3  1  0  0  0  0 
  1  4  1  0  0  0  0 
  2  5  1  0  0  0  0 
  3  6  1  0  0  0  0 
  5  7  1  0  0  0  0 
  6  8  1  0  0  0  0 
  7  9  1  0  0  0  0 
  8 10  2  0  0  0  0 
  9 11  1  0  0  0  0 
  9 12  2  0  0  0  0 
 10 13  1  0  0  0  0 
 10 14  1  0  0  0  0 
 11 15  1  0  0  0  0 
 13 16  1  0  0  0  0 
 15 17  1  0  0  0  0 
 16 18  1  0  0  0  0 
 17 19  2  0  0  0  0 
 18 20  2  0  0  0  0 
 19 21  1  0  0  0  0 
 19 22  1  0  0  0  0 
 20 23  1  0  0  0  0 
 20 24  1  0  0  0  0 
 21 25  1  0  0  0  0 
 25 26  1  0  0  0  0 
 26 27  2  0  0  0  0 
 27 28  1  0  0  0  0 
 27 29  1  0  0  0  0 
  2 30  1  0  0  0  0 
  3 31  1  0  0  0  0 
  3 32  1  0  0  0  0 
  4 33  1  0  0  0  0 
  4 34  1  0  0  0  0 
  4 35  1  0  0  0  0 
  5 36  1  0  0  0  0 
  5 37  1  0  0  0  0 
  6 38  1  0  0  0  0 
  6 39  1  0  0  0  0 
  7 40  1  0  0  0  0 
  7 41  1  0  0  0  0 
  8 42  1  0  0  0  0 
 13 43  1  0  0  0  0 
 13 44  1  0  0  0  0 
 14 45  1  0  0  0  0 
 14 46  1  0  0  0  0 
 14 47  1  0  0  0  0 
 15 48  1  0  0  0  0 
 15 49  1  0  0  0  0 
 16 50  1  0  0  0  0 
 16 51  1  0  0  0  0 
 17 52  1  0  0  0  0 
 18 53  1  0  0  0  0 
 21 54  1  0  0  0  0 
 21 55  1  0  0  0  0 
 22 56  1  0  0  0  0 
 22 57  1  0  0  0  0 
 22 58  1  0  0  0  0 
 23 59  1  0  0  0  0 
 23 60  1  0  0  0  0 
 23 61  1  0  0  0  0 
 24 62  1  0  0  0  0 
 24 63  1  0  0  0  0 
 24 64  1  0  0  0  0 
 25 65  1  0  0  0  0 
 25 66  1  0  0  0  0 
 26 67  1  0  0  0  0 
 28 68  1  0  0  0  0 
 28 69  1  0  0  0  0 
 28 70  1  0  0  0  0 
 29 71  1  0  0  0  0 
 29 72  1  0  0  0  0 
 29 73  1  0  0  0  0 
M  END
> <cdk:Title>
gefarnate

> <Conformer>
1

> <SuperDrugID>
SD001142

$$$$
