selenium sulfide
  CDK     0628171801

  3  2  0  0  0  0  0  0  0  0999 V2000
    0.0000    0.0000    0.0000 Se  0  0  0  0  0  0  0  0  0  0  0  0
   -2.2400    0.0000    0.0000 S   0  0  0  0  0  0  0  0  0  0  0  0
    2.2400    0.0000    0.0000 S   0  0  0  0  0  0  0  0  0  0  0  0
  1  2  2  0  0  0  0 
  1  3  2  0  0  0  0 
M  END
> <cdk:Title>
selenium sulfide

> <Conformer>
1

> <SuperDrugID>
SD003469

$$$$
