fenbendazole
  CDK     0628171801

 34 36  0  0  0  0  0  0  0  0999 V2000
   -0.0213   -2.1363    0.6252 S   0  0  0  0  0  0  0  0  0  0  0  0
   -1.5600   -1.3006    0.4638 C   0  0  0  0  0  0  0  0  0  0  0  0
    1.1063   -1.1349   -0.2805 C   0  0  0  0  0  0  0  0  0  0  0  0
   -2.1033   -0.6142    1.5724 C   0  0  0  0  0  0  0  0  0  0  0  0
   -2.2443   -1.3121   -0.7768 C   0  0  0  0  0  0  0  0  0  0  0  0
    1.7289   -0.0344    0.3441 C   0  0  0  0  0  0  0  0  0  0  0  0
    1.3726   -1.4168   -1.6363 C   0  0  0  0  0  0  0  0  0  0  0  0
   -3.3456    0.0159    1.4154 C   0  0  0  0  0  0  0  0  0  0  0  0
   -3.4867   -0.6569   -0.9171 C   0  0  0  0  0  0  0  0  0  0  0  0
    2.6184    0.7770   -0.3849 C   0  0  0  0  0  0  0  0  0  0  0  0
    2.2627   -0.6028   -2.3619 C   0  0  0  0  0  0  0  0  0  0  0  0
   -4.0291   -0.0073    0.2042 C   0  0  0  0  0  0  0  0  0  0  0  0
   -4.0901    0.7063    2.2804 N   0  0  0  0  0  0  0  0  0  0  0  0
    2.8859    0.4931   -1.7369 C   0  0  0  0  0  0  0  0  0  0  0  0
   -5.1847    0.6575    0.3540 N   0  0  0  0  0  0  0  0  0  0  0  0
   -5.2069    1.0877    1.6369 C   0  0  0  0  0  0  0  0  0  0  0  0
   -6.1767    1.8020    2.2530 N   0  0  0  0  0  0  0  0  0  0  0  0
   -7.3796    2.1490    1.7328 C   0  0  0  0  0  0  0  0  0  0  0  0
   -8.1560    2.9387    2.5269 O   0  0  0  0  0  0  0  0  0  0  0  0
   -7.7601    1.7916    0.5915 O   0  0  0  0  0  0  0  0  0  0  0  0
   -9.4884    3.4016    2.2843 C   0  0  0  0  0  0  0  0  0  0  0  0
   -1.6158   -0.5703    2.4702 H   0  0  0  0  0  0  0  0  0  0  0  0
   -1.8437   -1.7952   -1.5839 H   0  0  0  0  0  0  0  0  0  0  0  0
    1.5369    0.1811    1.3266 H   0  0  0  0  0  0  0  0  0  0  0  0
    0.9194   -2.2093   -2.0998 H   0  0  0  0  0  0  0  0  0  0  0  0
   -3.9775   -0.6502   -1.8132 H   0  0  0  0  0  0  0  0  0  0  0  0
    3.0725    1.5728    0.0692 H   0  0  0  0  0  0  0  0  0  0  0  0
    2.4580   -0.8096   -3.3440 H   0  0  0  0  0  0  0  0  0  0  0  0
   -3.8677    0.8900    3.2075 H   0  0  0  0  0  0  0  0  0  0  0  0
    3.5363    1.0801   -2.2637 H   0  0  0  0  0  0  0  0  0  0  0  0
   -5.9927    2.0935    3.1597 H   0  0  0  0  0  0  0  0  0  0  0  0
   -9.4620    4.4646    2.0448 H   0  0  0  0  0  0  0  0  0  0  0  0
  -10.0701    3.2653    3.1951 H   0  0  0  0  0  0  0  0  0  0  0  0
   -9.9751    2.8575    1.4724 H   0  0  0  0  0  0  0  0  0  0  0  0
  1  2  1  0  0  0  0 
  1  3  1  0  0  0  0 
  2  4  1  0  0  0  0 
  2  5  2  0  0  0  0 
  3  6  2  0  0  0  0 
  3  7  1  0  0  0  0 
  4  8  2  0  0  0  0 
  5  9  1  0  0  0  0 
  6 10  1  0  0  0  0 
  7 11  2  0  0  0  0 
  8 12  1  0  0  0  0 
  8 13  1  0  0  0  0 
  9 12  2  0  0  0  0 
 10 14  2  0  0  0  0 
 11 14  1  0  0  0  0 
 12 15  1  0  0  0  0 
 13 16  1  0  0  0  0 
 15 16  2  0  0  0  0 
 16 17  1  0  0  0  0 
 17 18  1  0  0  0  0 
 18 19  1  0  0  0  0 
 18 20  2  0  0  0  0 
 19 21  1  0  0  0  0 
 22  4  1  0  0  0  0 
 23  5  1  0  0  0  0 
 24  6  1  0  0  0  0 
 25  7  1  0  0  0  0 
 26  9  1  0  0  0  0 
 27 10  1  0  0  0  0 
 28 11  1  0  0  0  0 
 29 13  1  0  0  0  0 
 30 14  1  0  0  0  0 
 31 17  1  0  0  0  0 
 32 21  1  0  0  0  0 
 33 21  1  0  0  0  0 
 34 21  1  0  0  0  0 
M  END
> <cdk:Title>
fenbendazole

> <Conformer>
1

> <SuperDrugID>
SD003611

$$$$
