feclobuzone
  CDK     0628171801

 59 62  0  0  0  0  0  0  0  0999 V2000
   -2.1591   -0.1356   -0.4649 C   0  0  2  0  0  0  0  0  0  0  0  0
   -0.9102    0.5372   -0.2564 O   0  0  0  0  0  0  0  0  0  0  0  0
   -3.4029    0.7819   -0.2209 C   0  0  2  0  0  0  0  0  0  0  0  0
    0.3279   -0.0483   -0.2951 C   0  0  0  0  0  0  0  0  0  0  0  0
   -3.3628    2.1301   -1.0260 C   0  0  2  0  0  0  0  0  0  0  0  0
   -3.6158    1.0062    1.2262 C   0  0  0  0  0  0  0  0  0  0  0  0
   -4.6264   -0.0044   -0.4823 C   0  0  0  0  0  0  0  0  0  0  0  0
    0.4127   -1.2942   -0.4185 O   0  0  0  0  0  0  0  0  0  0  0  0
    1.5024    0.7464   -0.1895 C   0  0  0  0  0  0  0  0  0  0  0  0
   -4.6132    3.0534   -0.8671 C   0  0  1  0  0  0  0  0  0  0  0  0
   -2.8427    1.6999    1.9284 O   0  0  0  0  0  0  0  0  0  0  0  0
   -4.8049    0.4898    1.6320 N   0  0  0  0  0  0  0  0  0  0  0  0
   -4.9220   -0.4667   -1.6104 O   0  0  0  0  0  0  0  0  0  0  0  0
   -5.2819   -0.2700    0.6716 N   0  0  0  0  0  0  0  0  0  0  0  0
    2.7777    0.1576    0.0084 C   0  0  0  0  0  0  0  0  0  0  0  0
    1.4303    2.1566   -0.2993 C   0  0  0  0  0  0  0  0  0  0  0  0
   -4.4651    4.4778   -1.4669 C   0  0  1  0  0  0  0  0  0  0  0  0
   -5.4948    0.8727    2.7639 C   0  0  0  0  0  0  0  0  0  0  0  0
   -6.1303   -1.3342    0.8490 C   0  0  0  0  0  0  0  0  0  0  0  0
    3.9381    0.9501    0.0889 C   0  0  0  0  0  0  0  0  0  0  0  0
    2.5894    2.9516   -0.2224 C   0  0  0  0  0  0  0  0  0  0  0  0
   -4.3589    4.5260   -3.0067 C   0  0  0  0  0  0  0  0  0  0  0  0
   -6.8534    1.2543    2.6525 C   0  0  0  0  0  0  0  0  0  0  0  0
   -4.8869    0.9113    4.0414 C   0  0  0  0  0  0  0  0  0  0  0  0
   -5.7973   -2.3225    1.8062 C   0  0  0  0  0  0  0  0  0  0  0  0
   -7.3264   -1.4735    0.1096 C   0  0  0  0  0  0  0  0  0  0  0  0
    3.8469    2.3496   -0.0293 C   0  0  0  0  0  0  0  0  0  0  0  0
   -7.5813    1.6785    3.7783 C   0  0  0  0  0  0  0  0  0  0  0  0
   -5.6180    1.3251    5.1718 C   0  0  0  0  0  0  0  0  0  0  0  0
   -6.6450   -3.4215    2.0253 C   0  0  0  0  0  0  0  0  0  0  0  0
   -8.1780   -2.5731    0.3343 C   0  0  0  0  0  0  0  0  0  0  0  0
    5.2378    3.3117    0.0617 Cl  0  0  0  0  0  0  0  0  0  0  0  0
   -6.9624    1.7142    5.0393 C   0  0  0  0  0  0  0  0  0  0  0  0
   -7.8377   -3.5471    1.2923 C   0  0  0  0  0  0  0  0  0  0  0  0
   -2.2049   -1.0104    0.1963 H   0  0  0  0  0  0  0  0  0  0  0  0
   -2.1680   -0.4985   -1.4970 H   0  0  0  0  0  0  0  0  0  0  0  0
   -3.2325    1.8967   -2.0853 H   0  0  0  0  0  0  0  0  0  0  0  0
   -2.4801    2.6918   -0.7088 H   0  0  0  0  0  0  0  0  0  0  0  0
   -5.4800    2.5660   -1.3185 H   0  0  0  0  0  0  0  0  0  0  0  0
   -4.8293    3.1814    0.1969 H   0  0  0  0  0  0  0  0  0  0  0  0
    2.8789   -0.8563    0.0998 H   0  0  0  0  0  0  0  0  0  0  0  0
    0.5330    2.6265   -0.4441 H   0  0  0  0  0  0  0  0  0  0  0  0
   -5.3449    5.0585   -1.1777 H   0  0  0  0  0  0  0  0  0  0  0  0
   -3.5928    4.9687   -1.0289 H   0  0  0  0  0  0  0  0  0  0  0  0
    4.8466    0.5018    0.2343 H   0  0  0  0  0  0  0  0  0  0  0  0
    2.5092    3.9672   -0.3088 H   0  0  0  0  0  0  0  0  0  0  0  0
   -4.2838    5.5639   -3.3349 H   0  0  0  0  0  0  0  0  0  0  0  0
   -3.4735    3.9920   -3.3509 H   0  0  0  0  0  0  0  0  0  0  0  0
   -5.2474    4.0828   -3.4612 H   0  0  0  0  0  0  0  0  0  0  0  0
   -7.3227    1.2366    1.7433 H   0  0  0  0  0  0  0  0  0  0  0  0
   -3.9099    0.6325    4.1571 H   0  0  0  0  0  0  0  0  0  0  0  0
   -4.9280   -2.2477    2.3435 H   0  0  0  0  0  0  0  0  0  0  0  0
   -7.5878   -0.7706   -0.5862 H   0  0  0  0  0  0  0  0  0  0  0  0
   -8.5583    1.9623    3.6783 H   0  0  0  0  0  0  0  0  0  0  0  0
   -5.1729    1.3417    6.0913 H   0  0  0  0  0  0  0  0  0  0  0  0
   -6.3926   -4.1301    2.7169 H   0  0  0  0  0  0  0  0  0  0  0  0
   -9.0463   -2.6651   -0.1977 H   0  0  0  0  0  0  0  0  0  0  0  0
   -7.4907    2.0231    5.8582 H   0  0  0  0  0  0  0  0  0  0  0  0
   -8.4557   -4.3456    1.4548 H   0  0  0  0  0  0  0  0  0  0  0  0
  1  2  1  0  0  0  0 
  1  3  1  0  0  0  0 
  2  4  1  0  0  0  0 
  3  5  1  0  0  0  0 
  3  6  1  0  0  0  0 
  3  7  1  0  0  0  0 
  4  8  2  0  0  0  0 
  4  9  1  0  0  0  0 
  5 10  1  0  0  0  0 
  6 11  2  0  0  0  0 
  6 12  1  0  0  0  0 
  7 13  2  0  0  0  0 
  7 14  1  0  0  0  0 
  9 15  2  0  0  0  0 
  9 16  1  0  0  0  0 
 10 17  1  0  0  0  0 
 12 14  1  0  0  0  0 
 12 18  1  0  0  0  0 
 14 19  1  0  0  0  0 
 15 20  1  0  0  0  0 
 16 21  2  0  0  0  0 
 17 22  1  0  0  0  0 
 18 23  2  0  0  0  0 
 18 24  1  0  0  0  0 
 19 25  2  0  0  0  0 
 19 26  1  0  0  0  0 
 20 27  2  0  0  0  0 
 21 27  1  0  0  0  0 
 23 28  1  0  0  0  0 
 24 29  2  0  0  0  0 
 25 30  1  0  0  0  0 
 26 31  2  0  0  0  0 
 27 32  1  0  0  0  0 
 28 33  2  0  0  0  0 
 29 33  1  0  0  0  0 
 30 34  2  0  0  0  0 
 31 34  1  0  0  0  0 
  1 35  1  0  0  0  0 
  1 36  1  0  0  0  0 
  5 37  1  0  0  0  0 
  5 38  1  0  0  0  0 
 10 39  1  0  0  0  0 
 10 40  1  0  0  0  0 
 15 41  1  0  0  0  0 
 16 42  1  0  0  0  0 
 17 43  1  0  0  0  0 
 17 44  1  0  0  0  0 
 20 45  1  0  0  0  0 
 21 46  1  0  0  0  0 
 22 47  1  0  0  0  0 
 22 48  1  0  0  0  0 
 22 49  1  0  0  0  0 
 23 50  1  0  0  0  0 
 24 51  1  0  0  0  0 
 25 52  1  0  0  0  0 
 26 53  1  0  0  0  0 
 28 54  1  0  0  0  0 
 29 55  1  0  0  0  0 
 30 56  1  0  0  0  0 
 31 57  1  0  0  0  0 
 33 58  1  0  0  0  0 
 34 59  1  0  0  0  0 
M  END
> <cdk:Title>
feclobuzone

> <Conformer>
1

> <SuperDrugID>
SD001015

$$$$
