cloforex
  CDK     0628171802

 35 35  0  0  0  0  0  0  0  0999 V2000
    0.6211   -1.0262    0.1402 C   0  0  2  0  0  0  0  0  0  0  0  0
    0.1289   -0.6698    1.5925 C   0  0  2  0  0  0  0  0  0  0  0  0
    2.0393   -0.6790   -0.1764 C   0  0  0  0  0  0  0  0  0  0  0  0
    0.2985    0.7262    1.9242 N   0  0  0  0  0  0  0  0  0  0  0  0
    0.9530   -1.4676    2.6558 C   0  0  0  0  0  0  0  0  0  0  0  0
   -1.3772   -1.0636    1.7533 C   0  0  0  0  0  0  0  0  0  0  0  0
    2.3875    0.6048   -0.6615 C   0  0  0  0  0  0  0  0  0  0  0  0
    3.0698   -1.6377   -0.0204 C   0  0  0  0  0  0  0  0  0  0  0  0
   -0.2402    1.8122    1.3070 C   0  0  0  0  0  0  0  0  0  0  0  0
    3.7237    0.9220   -0.9696 C   0  0  0  0  0  0  0  0  0  0  0  0
    4.4061   -1.3250   -0.3273 C   0  0  0  0  0  0  0  0  0  0  0  0
    0.0382    3.0295    1.8607 O   0  0  0  0  0  0  0  0  0  0  0  0
   -0.9738    1.7215    0.2944 O   0  0  0  0  0  0  0  0  0  0  0  0
    4.7360   -0.0447   -0.8105 C   0  0  0  0  0  0  0  0  0  0  0  0
   -0.3143    4.3246    1.3519 C   0  0  2  0  0  0  0  0  0  0  0  0
    6.3388    0.3206   -1.2138 Cl  0  0  0  0  0  0  0  0  0  0  0  0
   -1.5313    4.9039    2.0951 C   0  0  0  0  0  0  0  0  0  0  0  0
   -0.0249   -0.5474   -0.6006 H   0  0  0  0  0  0  0  0  0  0  0  0
    0.4801   -2.1007   -0.0171 H   0  0  0  0  0  0  0  0  0  0  0  0
    0.8587    0.9204    2.6933 H   0  0  0  0  0  0  0  0  0  0  0  0
    0.9267   -2.5383    2.4464 H   0  0  0  0  0  0  0  0  0  0  0  0
    1.9979   -1.1510    2.6614 H   0  0  0  0  0  0  0  0  0  0  0  0
    0.5530   -1.3129    3.6611 H   0  0  0  0  0  0  0  0  0  0  0  0
   -2.0080   -0.5319    1.0400 H   0  0  0  0  0  0  0  0  0  0  0  0
   -1.5215   -2.1328    1.5850 H   0  0  0  0  0  0  0  0  0  0  0  0
   -1.7369   -0.8232    2.7560 H   0  0  0  0  0  0  0  0  0  0  0  0
    1.6694    1.3181   -0.8056 H   0  0  0  0  0  0  0  0  0  0  0  0
    2.8554   -2.5776    0.3199 H   0  0  0  0  0  0  0  0  0  0  0  0
    3.9512    1.8576   -1.3151 H   0  0  0  0  0  0  0  0  0  0  0  0
    5.1306   -2.0366   -0.2006 H   0  0  0  0  0  0  0  0  0  0  0  0
   -0.5320    4.2851    0.2812 H   0  0  0  0  0  0  0  0  0  0  0  0
    0.5470    4.9804    1.4962 H   0  0  0  0  0  0  0  0  0  0  0  0
   -1.3602    4.8896    3.1723 H   0  0  0  0  0  0  0  0  0  0  0  0
   -2.4193    4.3117    1.8669 H   0  0  0  0  0  0  0  0  0  0  0  0
   -1.7005    5.9349    1.7767 H   0  0  0  0  0  0  0  0  0  0  0  0
  1  2  1  0  0  0  0 
  1  3  1  0  0  0  0 
  2  4  1  0  0  0  0 
  2  5  1  0  0  0  0 
  2  6  1  0  0  0  0 
  3  7  2  0  0  0  0 
  3  8  1  0  0  0  0 
  4  9  1  0  0  0  0 
  7 10  1  0  0  0  0 
  8 11  2  0  0  0  0 
  9 12  1  0  0  0  0 
  9 13  2  0  0  0  0 
 10 14  2  0  0  0  0 
 11 14  1  0  0  0  0 
 12 15  1  0  0  0  0 
 14 16  1  0  0  0  0 
 15 17  1  0  0  0  0 
 18  1  1  0  0  0  0 
 19  1  1  0  0  0  0 
 20  4  1  0  0  0  0 
 21  5  1  0  0  0  0 
 22  5  1  0  0  0  0 
 23  5  1  0  0  0  0 
 24  6  1  0  0  0  0 
 25  6  1  0  0  0  0 
 26  6  1  0  0  0  0 
 27  7  1  0  0  0  0 
 28  8  1  0  0  0  0 
 29 10  1  0  0  0  0 
 30 11  1  0  0  0  0 
 31 15  1  0  0  0  0 
 32 15  1  0  0  0  0 
 33 17  1  0  0  0  0 
 34 17  1  0  0  0  0 
 35 17  1  0  0  0  0 
M  END
> <cdk:Title>
cloforex

> <Conformer>
1

> <SuperDrugID>
SD000614

$$$$
