cystine
  CDK     0628171801

 26 25  0  0  0  0  0  0  0  0999 V2000
   -0.3767   -0.9402   -0.8624 S   0  0  0  0  0  0  0  0  0  0  0  0
    0.6376   -1.9436    0.2704 C   0  0  2  0  0  0  0  0  0  0  0  0
    0.3761   -3.4593    0.0593 C   0  0  1  0  0  0  0  0  0  0  0  0
    1.3127   -4.2947    0.8389 C   0  0  0  0  0  0  0  0  0  0  0  0
    2.1666   -5.0078    0.2649 O   0  0  0  0  0  0  0  0  0  0  0  0
    1.2786   -4.3086    2.1934 O   0  0  0  0  0  0  0  0  0  0  0  0
   -0.9968   -3.8249    0.4420 N   0  0  1  0  0  0  0  0  0  0  0  0
    1.8580    3.2537    1.1742 C   0  0  0  0  0  0  0  0  0  0  0  0
    1.8038    2.9663   -0.2779 C   0  0  2  0  0  0  0  0  0  0  0  0
    1.4631    1.4984   -0.6528 C   0  0  2  0  0  0  0  0  0  0  0  0
   -0.1881    0.9961   -0.0711 S   0  0  0  0  0  0  0  0  0  0  0  0
    3.1067    3.3244   -0.8576 N   0  0  1  0  0  0  0  0  0  0  0  0
    1.9985    4.4343    1.5668 O   0  0  0  0  0  0  0  0  0  0  0  0
    1.7683    2.2801    2.1144 O   0  0  0  0  0  0  0  0  0  0  0  0
    0.4114   -1.6617    1.3008 H   0  0  0  0  0  0  0  0  0  0  0  0
    1.6876   -1.7089    0.0760 H   0  0  0  0  0  0  0  0  0  0  0  0
    0.4986   -3.6879   -1.0030 H   0  0  0  0  0  0  0  0  0  0  0  0
    1.9121   -4.8662    2.6925 H   0  0  0  0  0  0  0  0  0  0  0  0
   -1.1005   -3.6054    1.4353 H   0  0  0  0  0  0  0  0  0  0  0  0
   -1.6305   -3.2012   -0.0623 H   0  0  0  0  0  0  0  0  0  0  0  0
    1.0528    3.6173   -0.7359 H   0  0  0  0  0  0  0  0  0  0  0  0
    2.2101    0.8194   -0.2357 H   0  0  0  0  0  0  0  0  0  0  0  0
    1.4767    1.3926   -1.7397 H   0  0  0  0  0  0  0  0  0  0  0  0
    3.8005    2.6847   -0.4642 H   0  0  0  0  0  0  0  0  0  0  0  0
    3.0569    3.1269   -1.8588 H   0  0  0  0  0  0  0  0  0  0  0  0
    1.8234    2.4987    3.0690 H   0  0  0  0  0  0  0  0  0  0  0  0
  1  2  1  0  0  0  0 
  3  2  1  0  0  0  0 
  3  4  1  0  0  0  0 
  4  5  2  0  0  0  0 
  4  6  1  0  0  0  0 
  3  7  1  0  0  0  0 
 13  8  2  0  0  0  0 
  8  9  1  0  0  0  0 
  9 12  1  0  0  0  0 
  9 10  1  0  0  0  0 
 10 11  1  0  0  0  0 
  8 14  1  0  0  0  0 
 11  1  1  0  0  0  0 
  2 15  1  0  0  0  0 
  2 16  1  0  0  0  0 
  3 17  1  0  0  0  0 
  6 18  1  0  0  0  0 
  7 19  1  0  0  0  0 
  7 20  1  0  0  0  0 
  9 21  1  0  0  0  0 
 10 22  1  0  0  0  0 
 10 23  1  0  0  0  0 
 12 24  1  0  0  0  0 
 12 25  1  0  0  0  0 
 14 26  1  0  0  0  0 
M  END
> <cdk:Title>
cystine

> <Conformer>
1

> <SuperDrugID>
SD003373

$$$$
