acetylmethadol
  CDK     0628171801

 57 58  0  0  0  0  0  0  0  0999 V2000
   -1.3322   -4.0514    2.6997 C   0  0  1  0  0  0  0  0  0  0  0  0
   -2.5656   -3.8920    1.6910 C   0  0  2  0  0  0  0  0  0  0  0  0
   -0.2587   -2.8903    2.4738 C   0  0  1  0  0  0  0  0  0  0  0  0
   -1.7301   -3.9686    4.1783 C   0  0  0  0  0  0  0  0  0  0  0  0
   -0.7698   -5.4572    2.4108 C   0  0  0  0  0  0  0  0  0  0  0  0
   -3.6452   -4.7743    2.0762 O   0  0  0  0  0  0  0  0  0  0  0  0
   -2.2713   -4.1610    0.1743 C   0  0  2  0  0  0  0  0  0  0  0  0
   -0.6449   -1.3757    2.6579 C   0  0  1  0  0  0  0  0  0  0  0  0
   -0.9031   -4.5396    5.1874 C   0  0  0  0  0  0  0  0  0  0  0  0
   -2.9179   -3.3317    4.6380 C   0  0  0  0  0  0  0  0  0  0  0  0
    0.4415   -5.6961    1.6978 C   0  0  0  0  0  0  0  0  0  0  0  0
   -1.4851   -6.6233    2.8156 C   0  0  0  0  0  0  0  0  0  0  0  0
   -4.9601   -4.4869    2.3379 C   0  0  0  0  0  0  0  0  0  0  0  0
   -3.4554   -3.8269   -0.7650 C   0  0  0  0  0  0  0  0  0  0  0  0
   -1.1082   -1.0314    4.0497 N   0  0  2  0  0  0  0  0  0  0  0  0
    0.4885   -0.4265    2.1642 C   0  0  0  0  0  0  0  0  0  0  0  0
   -1.2963   -4.5871    6.5380 C   0  0  0  0  0  0  0  0  0  0  0  0
   -3.3169   -3.3671    5.9872 C   0  0  0  0  0  0  0  0  0  0  0  0
    0.8836   -6.9923    1.3747 C   0  0  0  0  0  0  0  0  0  0  0  0
   -1.0483   -7.9238    2.4983 C   0  0  0  0  0  0  0  0  0  0  0  0
   -5.8465   -5.5508    2.8347 C   0  0  0  0  0  0  0  0  0  0  0  0
   -5.4297   -3.3389    2.1542 O   0  0  0  0  0  0  0  0  0  0  0  0
   -2.1277    0.0569    4.1232 C   0  0  0  0  0  0  0  0  0  0  0  0
   -0.0697   -0.9298    5.1194 C   0  0  0  0  0  0  0  0  0  0  0  0
   -2.5168   -4.0196    6.9386 C   0  0  0  0  0  0  0  0  0  0  0  0
    0.1346   -8.1094    1.7681 C   0  0  0  0  0  0  0  0  0  0  0  0
   -2.9287   -2.8668    1.7497 H   0  0  0  0  0  0  0  0  0  0  0  0
    0.6142   -3.0925    3.1016 H   0  0  0  0  0  0  0  0  0  0  0  0
    0.0983   -2.9603    1.4472 H   0  0  0  0  0  0  0  0  0  0  0  0
   -2.0157   -5.2123    0.0166 H   0  0  0  0  0  0  0  0  0  0  0  0
   -1.4239   -3.5587   -0.1537 H   0  0  0  0  0  0  0  0  0  0  0  0
   -1.4650   -1.1891    1.9631 H   0  0  0  0  0  0  0  0  0  0  0  0
   -0.0003   -4.9512    4.9432 H   0  0  0  0  0  0  0  0  0  0  0  0
   -3.5101   -2.8078    3.9980 H   0  0  0  0  0  0  0  0  0  0  0  0
    1.0340   -4.9358    1.3760 H   0  0  0  0  0  0  0  0  0  0  0  0
   -2.3494   -6.5429    3.3548 H   0  0  0  0  0  0  0  0  0  0  0  0
   -3.1502   -3.9549   -1.8049 H   0  0  0  0  0  0  0  0  0  0  0  0
   -3.7771   -2.7928   -0.6262 H   0  0  0  0  0  0  0  0  0  0  0  0
   -4.3011   -4.4905   -0.5737 H   0  0  0  0  0  0  0  0  0  0  0  0
    0.2035    0.6153    2.3157 H   0  0  0  0  0  0  0  0  0  0  0  0
    0.6758   -0.5682    1.0977 H   0  0  0  0  0  0  0  0  0  0  0  0
    1.4194   -0.6137    2.7038 H   0  0  0  0  0  0  0  0  0  0  0  0
   -0.6957   -5.0436    7.2284 H   0  0  0  0  0  0  0  0  0  0  0  0
   -4.1892   -2.9141    6.2738 H   0  0  0  0  0  0  0  0  0  0  0  0
    1.7510   -7.1203    0.8463 H   0  0  0  0  0  0  0  0  0  0  0  0
   -1.5927   -8.7373    2.7964 H   0  0  0  0  0  0  0  0  0  0  0  0
   -6.2389   -5.2817    3.8171 H   0  0  0  0  0  0  0  0  0  0  0  0
   -5.3035   -6.4921    2.9238 H   0  0  0  0  0  0  0  0  0  0  0  0
   -6.6795   -5.6908    2.1447 H   0  0  0  0  0  0  0  0  0  0  0  0
   -2.5384    0.1313    5.1315 H   0  0  0  0  0  0  0  0  0  0  0  0
   -1.6894    1.0173    3.8495 H   0  0  0  0  0  0  0  0  0  0  0  0
   -2.9596   -0.1559    3.4494 H   0  0  0  0  0  0  0  0  0  0  0  0
    0.6446   -1.7522    5.0616 H   0  0  0  0  0  0  0  0  0  0  0  0
    0.4780    0.0133    5.0438 H   0  0  0  0  0  0  0  0  0  0  0  0
   -0.5433   -0.9782    6.1025 H   0  0  0  0  0  0  0  0  0  0  0  0
   -2.8150   -4.0742    7.9176 H   0  0  0  0  0  0  0  0  0  0  0  0
    0.4533   -9.0511    1.5281 H   0  0  0  0  0  0  0  0  0  0  0  0
  2  1  1  0  0  0  0 
  1  3  1  0  0  0  0 
  1  4  1  0  0  0  0 
  1  5  1  0  0  0  0 
  2  6  1  0  0  0  0 
  2  7  1  0  0  0  0 
  8  3  1  0  0  0  0 
  4  9  2  0  0  0  0 
  4 10  1  0  0  0  0 
  5 11  2  0  0  0  0 
  5 12  1  0  0  0  0 
  6 13  1  0  0  0  0 
  7 14  1  0  0  0  0 
  8 15  1  0  0  0  0 
  8 16  1  0  0  0  0 
  9 17  1  0  0  0  0 
 10 18  2  0  0  0  0 
 11 19  1  0  0  0  0 
 12 20  2  0  0  0  0 
 13 21  1  0  0  0  0 
 13 22  2  0  0  0  0 
 15 23  1  0  0  0  0 
 15 24  1  0  0  0  0 
 17 25  2  0  0  0  0 
 18 25  1  0  0  0  0 
 19 26  2  0  0  0  0 
 20 26  1  0  0  0  0 
  2 27  1  0  0  0  0 
  3 28  1  0  0  0  0 
  3 29  1  0  0  0  0 
  7 30  1  0  0  0  0 
  7 31  1  0  0  0  0 
  8 32  1  0  0  0  0 
  9 33  1  0  0  0  0 
 10 34  1  0  0  0  0 
 11 35  1  0  0  0  0 
 12 36  1  0  0  0  0 
 14 37  1  0  0  0  0 
 14 38  1  0  0  0  0 
 14 39  1  0  0  0  0 
 16 40  1  0  0  0  0 
 16 41  1  0  0  0  0 
 16 42  1  0  0  0  0 
 17 43  1  0  0  0  0 
 18 44  1  0  0  0  0 
 19 45  1  0  0  0  0 
 20 46  1  0  0  0  0 
 21 47  1  0  0  0  0 
 21 48  1  0  0  0  0 
 21 49  1  0  0  0  0 
 23 50  1  0  0  0  0 
 23 51  1  0  0  0  0 
 23 52  1  0  0  0  0 
 24 53  1  0  0  0  0 
 24 54  1  0  0  0  0 
 24 55  1  0  0  0  0 
 25 56  1  0  0  0  0 
 26 57  1  0  0  0  0 
M  END
> <cdk:Title>
acetylmethadol

> <Conformer>
1

> <SuperDrugID>
SD001530

$$$$
