alendronic acid
  CDK     0628171801

 27 26  0  0  0  0  0  0  0  0999 V2000
   -4.4979   -1.5763    2.9692 N   0  0  2  0  0  0  0  0  0  0  0  0
   -3.2981   -1.3865    3.7899 C   0  0  2  0  0  0  0  0  0  0  0  0
   -2.2176   -0.5900    3.0170 C   0  0  1  0  0  0  0  0  0  0  0  0
   -0.8958   -0.4073    3.8222 C   0  0  2  0  0  0  0  0  0  0  0  0
    0.2308    0.4617    3.1527 C   0  0  1  0  0  0  0  0  0  0  0  0
   -0.2996    1.7530    2.8504 O   0  0  0  0  0  0  0  0  0  0  0  0
    1.5418    0.7135    4.2527 P   0  0  1  0  0  0  0  0  0  0  0  0
    0.9982    1.3722    5.5954 O   0  0  0  0  0  0  0  0  0  0  0  0
    2.2056   -0.6717    4.6608 O   0  0  0  0  0  0  0  0  0  0  0  0
    2.5826    1.5908    3.6981 O   0  0  0  0  0  0  0  0  0  0  0  0
    0.8110   -0.1888    1.6603 P   0  0  1  0  0  0  0  0  0  0  0  0
    2.0526    0.6481    1.1221 O   0  0  0  0  0  0  0  0  0  0  0  0
    1.3233   -1.6782    1.8675 O   0  0  0  0  0  0  0  0  0  0  0  0
   -0.2232   -0.1796    0.6158 O   0  0  0  0  0  0  0  0  0  0  0  0
   -5.0996   -2.2339    3.4697 H   0  0  0  0  0  0  0  0  0  0  0  0
   -4.2039   -2.0433    2.1086 H   0  0  0  0  0  0  0  0  0  0  0  0
   -2.9167   -2.3714    4.0670 H   0  0  0  0  0  0  0  0  0  0  0  0
   -3.5869   -0.8493    4.6936 H   0  0  0  0  0  0  0  0  0  0  0  0
   -2.0070   -1.1385    2.0999 H   0  0  0  0  0  0  0  0  0  0  0  0
   -2.6201    0.3917    2.7502 H   0  0  0  0  0  0  0  0  0  0  0  0
   -0.4983   -1.4007    4.0485 H   0  0  0  0  0  0  0  0  0  0  0  0
   -1.1752    0.0553    4.7746 H   0  0  0  0  0  0  0  0  0  0  0  0
   -0.6024    2.1244    3.7068 H   0  0  0  0  0  0  0  0  0  0  0  0
    0.6763    2.2564    5.3230 H   0  0  0  0  0  0  0  0  0  0  0  0
    1.4909   -1.1712    5.1046 H   0  0  0  0  0  0  0  0  0  0  0  0
    1.6817    1.5305    0.9159 H   0  0  0  0  0  0  0  0  0  0  0  0
    2.0903   -1.5931    2.4697 H   0  0  0  0  0  0  0  0  0  0  0  0
  1  2  1  0  0  0  0 
  2  3  1  0  0  0  0 
  3  4  1  0  0  0  0 
  4  5  1  0  0  0  0 
  5  6  1  0  0  0  0 
  5  7  1  0  0  0  0 
  7  8  1  0  0  0  0 
  7  9  1  0  0  0  0 
  7 10  2  0  0  0  0 
  5 11  1  0  0  0  0 
 11 12  1  0  0  0  0 
 11 13  1  0  0  0  0 
 11 14  2  0  0  0  0 
  1 15  1  0  0  0  0 
  1 16  1  0  0  0  0 
  2 17  1  0  0  0  0 
  2 18  1  0  0  0  0 
  3 19  1  0  0  0  0 
  3 20  1  0  0  0  0 
  4 21  1  0  0  0  0 
  4 22  1  0  0  0  0 
  6 23  1  0  0  0  0 
  8 24  1  0  0  0  0 
  9 25  1  0  0  0  0 
 12 26  1  0  0  0  0 
 13 27  1  0  0  0  0 
M  END
> <cdk:Title>
alendronic acid

> <Conformer>
1

> <SuperDrugID>
SD000084

$$$$
