flurazepam
  CDK     0628171801

 50 52  0  0  0  0  0  0  0  0999 V2000
    0.5247    6.8178    4.4348 C   0  0  1  0  0  0  0  0  0  0  0  0
    0.6389    5.8044    5.6164 C   0  0  2  0  0  0  0  0  0  0  0  0
    0.9819    6.4208    3.1060 N   0  0  0  0  0  0  0  0  0  0  0  0
   -0.0946    4.5046    5.5009 N   0  0  0  0  0  0  0  0  0  0  0  0
    0.1574    6.6615    2.0043 C   0  0  0  0  0  0  0  0  0  0  0  0
    2.2603    5.9086    2.9200 C   0  0  0  0  0  0  0  0  0  0  0  0
    0.5760    3.3438    4.8349 C   0  0  1  0  0  0  0  0  0  0  0  0
   -1.5876    4.5556    5.4378 C   0  0  1  0  0  0  0  0  0  0  0  0
   -0.1019    5.6947    0.9841 C   0  0  0  0  0  0  0  0  0  0  0  0
   -0.4233    7.9499    1.8735 C   0  0  0  0  0  0  0  0  0  0  0  0
    3.1128    5.9352    3.8400 O   0  0  0  0  0  0  0  0  0  0  0  0
    2.6931    5.2834    1.6473 C   0  0  2  0  0  0  0  0  0  0  0  0
    1.7667    2.7790    5.6431 C   0  0  0  0  0  0  0  0  0  0  0  0
   -2.2031    3.6799    6.5495 C   0  0  0  0  0  0  0  0  0  0  0  0
    0.5214    4.4323    0.9883 C   0  0  0  0  0  0  0  0  0  0  0  0
   -0.9837    6.0312   -0.0780 C   0  0  0  0  0  0  0  0  0  0  0  0
   -1.2785    8.2714    0.8105 C   0  0  0  0  0  0  0  0  0  0  0  0
    1.7730    4.2994    1.2827 N   0  0  0  0  0  0  0  0  0  0  0  0
   -0.1858    3.2617    0.6908 C   0  0  0  0  0  0  0  0  0  0  0  0
   -1.5710    7.3069   -0.1649 C   0  0  0  0  0  0  0  0  0  0  0  0
    0.2974    2.2954   -0.2342 C   0  0  0  0  0  0  0  0  0  0  0  0
   -1.4337    3.0181    1.3210 C   0  0  0  0  0  0  0  0  0  0  0  0
   -2.6103    7.6933   -1.4444 Cl  0  0  0  0  0  0  0  0  0  0  0  0
    1.4128    2.4719   -0.8934 F   0  0  0  0  0  0  0  0  0  0  0  0
   -0.4309    1.1156   -0.4875 C   0  0  0  0  0  0  0  0  0  0  0  0
   -2.1614    1.8445    1.0595 C   0  0  0  0  0  0  0  0  0  0  0  0
   -1.6585    0.8916    0.1589 C   0  0  0  0  0  0  0  0  0  0  0  0
   -0.5245    7.1283    4.4111 H   0  0  0  0  0  0  0  0  0  0  0  0
    1.0967    7.7088    4.7075 H   0  0  0  0  0  0  0  0  0  0  0  0
    0.2466    6.3081    6.5038 H   0  0  0  0  0  0  0  0  0  0  0  0
    1.6867    5.6265    5.8474 H   0  0  0  0  0  0  0  0  0  0  0  0
   -0.1322    2.5204    4.7000 H   0  0  0  0  0  0  0  0  0  0  0  0
    0.9178    3.6321    3.8439 H   0  0  0  0  0  0  0  0  0  0  0  0
   -1.9612    5.5733    5.5808 H   0  0  0  0  0  0  0  0  0  0  0  0
   -1.9435    4.2116    4.4629 H   0  0  0  0  0  0  0  0  0  0  0  0
   -0.2198    8.6812    2.5589 H   0  0  0  0  0  0  0  0  0  0  0  0
    3.6746    4.8146    1.7564 H   0  0  0  0  0  0  0  0  0  0  0  0
    2.7732    6.0406    0.8648 H   0  0  0  0  0  0  0  0  0  0  0  0
    2.6075    3.4733    5.6426 H   0  0  0  0  0  0  0  0  0  0  0  0
    1.4654    2.5868    6.6747 H   0  0  0  0  0  0  0  0  0  0  0  0
    2.1031    1.8411    5.1966 H   0  0  0  0  0  0  0  0  0  0  0  0
   -3.2901    3.7717    6.5305 H   0  0  0  0  0  0  0  0  0  0  0  0
   -1.8412    4.0035    7.5281 H   0  0  0  0  0  0  0  0  0  0  0  0
   -1.9403    2.6306    6.4063 H   0  0  0  0  0  0  0  0  0  0  0  0
   -1.1940    5.3486   -0.8126 H   0  0  0  0  0  0  0  0  0  0  0  0
   -1.6784    9.2107    0.7526 H   0  0  0  0  0  0  0  0  0  0  0  0
   -1.8301    3.6922    1.9812 H   0  0  0  0  0  0  0  0  0  0  0  0
   -0.0720    0.4151   -1.1423 H   0  0  0  0  0  0  0  0  0  0  0  0
   -3.0571    1.6843    1.5268 H   0  0  0  0  0  0  0  0  0  0  0  0
   -2.1857    0.0349   -0.0260 H   0  0  0  0  0  0  0  0  0  0  0  0
  1  2  1  0  0  0  0 
  1  3  1  0  0  0  0 
  2  4  1  0  0  0  0 
  3  5  1  0  0  0  0 
  3  6  1  0  0  0  0 
  4  7  1  0  0  0  0 
  4  8  1  0  0  0  0 
  5  9  2  0  0  0  0 
  5 10  1  0  0  0  0 
  6 11  2  0  0  0  0 
  6 12  1  0  0  0  0 
  7 13  1  0  0  0  0 
  8 14  1  0  0  0  0 
  9 15  1  0  0  0  0 
  9 16  1  0  0  0  0 
 10 17  2  0  0  0  0 
 12 18  1  0  0  0  0 
 15 18  2  0  0  0  0 
 15 19  1  0  0  0  0 
 16 20  2  0  0  0  0 
 17 20  1  0  0  0  0 
 19 21  2  0  0  0  0 
 19 22  1  0  0  0  0 
 20 23  1  0  0  0  0 
 21 24  1  0  0  0  0 
 21 25  1  0  0  0  0 
 22 26  2  0  0  0  0 
 25 27  2  0  0  0  0 
 26 27  1  0  0  0  0 
  1 28  1  0  0  0  0 
  1 29  1  0  0  0  0 
  2 30  1  0  0  0  0 
  2 31  1  0  0  0  0 
  7 32  1  0  0  0  0 
  7 33  1  0  0  0  0 
  8 34  1  0  0  0  0 
  8 35  1  0  0  0  0 
 10 36  1  0  0  0  0 
 12 37  1  0  0  0  0 
 12 38  1  0  0  0  0 
 13 39  1  0  0  0  0 
 13 40  1  0  0  0  0 
 13 41  1  0  0  0  0 
 14 42  1  0  0  0  0 
 14 43  1  0  0  0  0 
 14 44  1  0  0  0  0 
 16 45  1  0  0  0  0 
 17 46  1  0  0  0  0 
 22 47  1  0  0  0  0 
 25 48  1  0  0  0  0 
 26 49  1  0  0  0  0 
 27 50  1  0  0  0  0 
M  END
> <cdk:Title>
flurazepam

> <Conformer>
1

> <SuperDrugID>
SD001091

$$$$
