temazepam
  CDK     0628171801

 34 36  0  0  0  0  0  0  0  0999 V2000
    6.9650    1.4596    2.5915 C   0  0  0  0  0  0  0  0  0  0  0  0
    6.1881    1.8443    1.4288 N   0  0  0  0  0  0  0  0  0  0  0  0
    5.3095    2.9265    1.5069 C   0  0  0  0  0  0  0  0  0  0  0  0
    5.7686    4.1408    2.0811 C   0  0  0  0  0  0  0  0  0  0  0  0
    4.9344    5.2631    2.2038 C   0  0  0  0  0  0  0  0  0  0  0  0
    3.6165    5.2090    1.7252 C   0  0  0  0  0  0  0  0  0  0  0  0
    2.5996    6.5586    1.8557 Cl  0  0  0  0  0  0  0  0  0  0  0  0
    3.1454    4.0274    1.1311 C   0  0  0  0  0  0  0  0  0  0  0  0
    3.9672    2.8759    1.0168 C   0  0  0  0  0  0  0  0  0  0  0  0
    3.4357    1.7287    0.3975 C   0  0  0  0  0  0  0  0  0  0  0  0
    4.1256    1.0615   -0.4688 N   0  0  0  0  0  0  0  0  0  0  0  0
    5.4295    1.2847   -0.9044 C   0  0  2  0  0  0  0  0  0  0  0  0
    5.6943    0.3752   -1.9720 O   0  0  0  0  0  0  0  0  0  0  0  0
    6.3343    1.1050    0.2589 C   0  0  0  0  0  0  0  0  0  0  0  0
    7.2185    0.2171    0.1701 O   0  0  0  0  0  0  0  0  0  0  0  0
    2.1454    1.2629    0.6871 C   0  0  0  0  0  0  0  0  0  0  0  0
    1.6426    1.2903    2.0140 C   0  0  0  0  0  0  0  0  0  0  0  0
    0.3416    0.8440    2.3095 C   0  0  0  0  0  0  0  0  0  0  0  0
   -0.4797    0.3460    1.2842 C   0  0  0  0  0  0  0  0  0  0  0  0
    0.0001    0.2971   -0.0344 C   0  0  0  0  0  0  0  0  0  0  0  0
    1.2968    0.7566   -0.3318 C   0  0  0  0  0  0  0  0  0  0  0  0
    6.6970    2.0131    3.4952 H   0  0  0  0  0  0  0  0  0  0  0  0
    8.0266    1.6233    2.3949 H   0  0  0  0  0  0  0  0  0  0  0  0
    6.8084    0.4009    2.8142 H   0  0  0  0  0  0  0  0  0  0  0  0
    6.7325    4.2244    2.4129 H   0  0  0  0  0  0  0  0  0  0  0  0
    5.2935    6.1167    2.6360 H   0  0  0  0  0  0  0  0  0  0  0  0
    2.1864    4.0135    0.7732 H   0  0  0  0  0  0  0  0  0  0  0  0
    5.5339    2.2972   -1.3011 H   0  0  0  0  0  0  0  0  0  0  0  0
    6.5818    0.6289   -2.3017 H   0  0  0  0  0  0  0  0  0  0  0  0
    2.2209    1.6377    2.7849 H   0  0  0  0  0  0  0  0  0  0  0  0
   -0.0055    0.8798    3.2709 H   0  0  0  0  0  0  0  0  0  0  0  0
   -1.4226    0.0166    1.4980 H   0  0  0  0  0  0  0  0  0  0  0  0
   -0.5937   -0.0736   -0.7791 H   0  0  0  0  0  0  0  0  0  0  0  0
    1.6117    0.7258   -1.3046 H   0  0  0  0  0  0  0  0  0  0  0  0
  1  2  1  0  0  0  0 
  2  3  1  0  0  0  0 
  3  4  2  0  0  0  0 
  4  5  1  0  0  0  0 
  5  6  2  0  0  0  0 
  6  7  1  0  0  0  0 
  6  8  1  0  0  0  0 
  8  9  2  0  0  0  0 
  3  9  1  0  0  0  0 
  9 10  1  0  0  0  0 
 10 11  2  0  0  0  0 
 12 11  1  0  0  0  0 
 12 13  1  0  0  0  0 
 12 14  1  0  0  0  0 
  2 14  1  0  0  0  0 
 14 15  2  0  0  0  0 
 10 16  1  0  0  0  0 
 16 17  2  0  0  0  0 
 17 18  1  0  0  0  0 
 18 19  2  0  0  0  0 
 19 20  1  0  0  0  0 
 20 21  2  0  0  0  0 
 16 21  1  0  0  0  0 
  1 22  1  0  0  0  0 
  1 23  1  0  0  0  0 
  1 24  1  0  0  0  0 
  4 25  1  0  0  0  0 
  5 26  1  0  0  0  0 
  8 27  1  0  0  0  0 
 12 28  1  0  0  0  0 
 13 29  1  0  0  0  0 
 17 30  1  0  0  0  0 
 18 31  1  0  0  0  0 
 19 32  1  0  0  0  0 
 20 33  1  0  0  0  0 
 21 34  1  0  0  0  0 
M  END
> <cdk:Title>
temazepam

> <Conformer>
1

> <SuperDrugID>
SD002324

$$$$
