benzyl alcohol
  CDK     0628171801

 16 16  0  0  0  0  0  0  0  0999 V2000
    1.3854    0.3963   -0.2406 O   0  0  0  0  0  0  0  0  0  0  0  0
    0.5356    0.5631    0.8881 C   0  0  1  0  0  0  0  0  0  0  0  0
   -0.8135    0.0421    0.5657 C   0  0  0  0  0  0  0  0  0  0  0  0
   -1.5528    0.6045   -0.5027 C   0  0  0  0  0  0  0  0  0  0  0  0
   -2.8295    0.1116   -0.8297 C   0  0  0  0  0  0  0  0  0  0  0  0
   -3.3842   -0.9465   -0.0896 C   0  0  0  0  0  0  0  0  0  0  0  0
   -2.6626   -1.5129    0.9754 C   0  0  0  0  0  0  0  0  0  0  0  0
   -1.3851   -1.0225    1.3011 C   0  0  0  0  0  0  0  0  0  0  0  0
    2.2489    0.7630    0.0370 H   0  0  0  0  0  0  0  0  0  0  0  0
    0.9910    0.0417    1.7332 H   0  0  0  0  0  0  0  0  0  0  0  0
    0.4691    1.6230    1.1406 H   0  0  0  0  0  0  0  0  0  0  0  0
   -1.1645    1.3757   -1.0531 H   0  0  0  0  0  0  0  0  0  0  0  0
   -3.3524    0.5242   -1.6060 H   0  0  0  0  0  0  0  0  0  0  0  0
   -4.3097   -1.3043   -0.3254 H   0  0  0  0  0  0  0  0  0  0  0  0
   -3.0640   -2.2826    1.5153 H   0  0  0  0  0  0  0  0  0  0  0  0
   -0.8759   -1.4493    2.0791 H   0  0  0  0  0  0  0  0  0  0  0  0
  1  2  1  0  0  0  0 
  2  3  1  0  0  0  0 
  3  4  2  0  0  0  0 
  4  5  1  0  0  0  0 
  5  6  2  0  0  0  0 
  6  7  1  0  0  0  0 
  7  8  2  0  0  0  0 
  3  8  1  0  0  0  0 
  1  9  1  0  0  0  0 
  2 10  1  0  0  0  0 
  2 11  1  0  0  0  0 
  4 12  1  0  0  0  0 
  5 13  1  0  0  0  0 
  6 14  1  0  0  0  0 
  7 15  1  0  0  0  0 
  8 16  1  0  0  0  0 
M  END
> <cdk:Title>
benzyl alcohol

> <Conformer>
1

> <SuperDrugID>
SD000282

$$$$
