trovafloxacin
  CDK     0628171801

 45 49  0  0  0  0  0  0  0  0999 V2000
   -6.5535   -0.0850    6.9877 O   0  0  0  0  0  0  0  0  0  0  0  0
   -6.3531    0.5925    5.9488 C   0  0  0  0  0  0  0  0  0  0  0  0
   -5.0589    0.5971    5.3820 C   0  0  0  0  0  0  0  0  0  0  0  0
   -7.4068    1.3343    5.3528 C   0  0  0  0  0  0  0  0  0  0  0  0
   -4.8407    1.3433    4.1937 C   0  0  0  0  0  0  0  0  0  0  0  0
   -3.9701   -0.1180    5.9370 C   0  0  0  0  0  0  0  0  0  0  0  0
   -8.7334    1.3607    5.8816 C   0  0  0  0  0  0  0  0  0  0  0  0
   -7.0977    2.0758    4.1843 C   0  0  0  0  0  0  0  0  0  0  0  0
   -5.8503    2.0733    3.6165 N   0  0  0  0  0  0  0  0  0  0  0  0
   -3.6071    1.2877    3.6252 N   0  0  0  0  0  0  0  0  0  0  0  0
   -2.7114   -0.1166    5.3087 C   0  0  0  0  0  0  0  0  0  0  0  0
   -9.7236    2.0782    5.2965 O   0  0  0  0  0  0  0  0  0  0  0  0
   -9.0648    0.7315    6.9131 O   0  0  0  0  0  0  0  0  0  0  0  0
   -5.6351    2.8032    2.4571 C   0  0  0  0  0  0  0  0  0  0  0  0
   -2.5410    0.5906    4.0946 C   0  0  0  0  0  0  0  0  0  0  0  0
   -1.7354   -0.7676    5.8826 F   0  0  0  0  0  0  0  0  0  0  0  0
   -6.3359    2.5164    1.2568 C   0  0  0  0  0  0  0  0  0  0  0  0
   -4.6881    3.8572    2.4426 C   0  0  0  0  0  0  0  0  0  0  0  0
   -1.3955    0.5898    3.3281 N   0  0  0  0  0  0  0  0  0  0  0  0
   -7.2072    1.5446    1.2018 F   0  0  0  0  0  0  0  0  0  0  0  0
   -6.0977    3.2653    0.0868 C   0  0  0  0  0  0  0  0  0  0  0  0
   -4.4382    4.5948    1.2709 C   0  0  0  0  0  0  0  0  0  0  0  0
   -1.0152    1.6797    2.4748 C   0  0  1  0  0  0  0  0  0  0  0  0
   -0.4946   -0.5190    3.2402 C   0  0  2  0  0  0  0  0  0  0  0  0
   -5.1457    4.3005    0.0916 C   0  0  0  0  0  0  0  0  0  0  0  0
   -0.0157    1.1000    1.4643 C   0  0  1  0  0  0  0  0  0  0  0  0
    0.3044   -0.3192    1.9446 C   0  0  2  0  0  0  0  0  0  0  0  0
   -4.9200    4.9872   -0.9951 F   0  0  0  0  0  0  0  0  0  0  0  0
   -0.4192   -0.1077    0.6051 C   0  0  2  0  0  0  0  0  0  0  0  0
    0.3769   -0.3614   -0.5956 N   0  0  2  0  0  0  0  0  0  0  0  0
    0.8777    1.6674    1.1932 H   0  0  0  0  0  0  0  0  0  0  0  0
    1.3753   -0.5371    1.9327 H   0  0  0  0  0  0  0  0  0  0  0  0
   -4.0847   -0.6505    6.8050 H   0  0  0  0  0  0  0  0  0  0  0  0
   -7.8371    2.6367    3.7460 H   0  0  0  0  0  0  0  0  0  0  0  0
  -10.6274    2.0751    5.6763 H   0  0  0  0  0  0  0  0  0  0  0  0
   -4.1685    4.0930    3.2912 H   0  0  0  0  0  0  0  0  0  0  0  0
   -6.6156    3.0545   -0.7706 H   0  0  0  0  0  0  0  0  0  0  0  0
   -3.7422    5.3449    1.2797 H   0  0  0  0  0  0  0  0  0  0  0  0
   -1.8567    2.1052    1.9208 H   0  0  0  0  0  0  0  0  0  0  0  0
   -0.5358    2.4656    3.0647 H   0  0  0  0  0  0  0  0  0  0  0  0
   -1.0242   -1.4752    3.1864 H   0  0  0  0  0  0  0  0  0  0  0  0
    0.1915   -0.5219    4.0917 H   0  0  0  0  0  0  0  0  0  0  0  0
   -1.4836   -0.3495    0.5896 H   0  0  0  0  0  0  0  0  0  0  0  0
   -0.0610    0.1553   -1.3604 H   0  0  0  0  0  0  0  0  0  0  0  0
    0.2760   -1.3548   -0.8130 H   0  0  0  0  0  0  0  0  0  0  0  0
  1  2  2  0  0  0  0 
  2  3  1  0  0  0  0 
  2  4  1  0  0  0  0 
  3  5  1  0  0  0  0 
  3  6  2  0  0  0  0 
  4  7  1  0  0  0  0 
  4  8  2  0  0  0  0 
  5  9  1  0  0  0  0 
  5 10  2  0  0  0  0 
  6 11  1  0  0  0  0 
  7 12  1  0  0  0  0 
  7 13  2  0  0  0  0 
  8  9  1  0  0  0  0 
  9 14  1  0  0  0  0 
 10 15  1  0  0  0  0 
 11 15  2  0  0  0  0 
 11 16  1  0  0  0  0 
 14 17  2  0  0  0  0 
 14 18  1  0  0  0  0 
 15 19  1  0  0  0  0 
 17 20  1  0  0  0  0 
 17 21  1  0  0  0  0 
 18 22  2  0  0  0  0 
 19 23  1  0  0  0  0 
 19 24  1  0  0  0  0 
 21 25  2  0  0  0  0 
 22 25  1  0  0  0  0 
 23 26  1  0  0  0  0 
 27 24  1  0  0  0  0 
 25 28  1  0  0  0  0 
 27 26  1  0  0  0  0 
 29 26  1  0  0  0  0 
 26 31  1  0  0  0  0 
 29 27  1  0  0  0  0 
 27 32  1  0  0  0  0 
 29 30  1  0  0  0  0 
  6 33  1  0  0  0  0 
  8 34  1  0  0  0  0 
 12 35  1  0  0  0  0 
 18 36  1  0  0  0  0 
 21 37  1  0  0  0  0 
 22 38  1  0  0  0  0 
 23 39  1  0  0  0  0 
 23 40  1  0  0  0  0 
 24 41  1  0  0  0  0 
 24 42  1  0  0  0  0 
 29 43  1  0  0  0  0 
 30 44  1  0  0  0  0 
 30 45  1  0  0  0  0 
M  END
> <cdk:Title>
trovafloxacin

> <Conformer>
1

> <SuperDrugID>
SD002506

$$$$
