metamizole
  CDK     0628171802

 38 39  0  0  0  0  0  0  0  0999 V2000
   -1.4852   -3.8894   -0.6475 O   0  0  0  0  0  0  0  0  0  0  0  0
   -2.3512   -3.3454    0.0785 C   0  0  0  0  0  0  0  0  0  0  0  0
   -3.6720   -3.6269    0.1054 N   0  0  0  0  0  0  0  0  0  0  0  0
   -2.0746   -2.4133    1.0753 C   0  0  0  0  0  0  0  0  0  0  0  0
   -4.2610   -2.7974    0.9342 N   0  0  0  0  0  0  0  0  0  0  0  0
   -4.2308   -4.7332   -0.4910 C   0  0  0  0  0  0  0  0  0  0  0  0
   -0.8211   -1.9488    1.4192 N   0  0  0  0  0  0  0  0  0  0  0  0
   -3.3204   -2.1159    1.6371 C   0  0  0  0  0  0  0  0  0  0  0  0
   -5.6776   -2.5464    1.0151 C   0  0  0  0  0  0  0  0  0  0  0  0
   -4.0856   -4.9793   -1.8767 C   0  0  0  0  0  0  0  0  0  0  0  0
   -4.9500   -5.6690    0.2915 C   0  0  0  0  0  0  0  0  0  0  0  0
   -0.5171   -0.5336    1.4803 C   0  0  2  0  0  0  0  0  0  0  0  0
    0.2134   -2.8917    1.7655 C   0  0  0  0  0  0  0  0  0  0  0  0
   -3.5568   -1.1957    2.7714 C   0  0  0  0  0  0  0  0  0  0  0  0
   -4.6277   -6.1412   -2.4595 C   0  0  0  0  0  0  0  0  0  0  0  0
   -5.4878   -6.8311   -0.2897 C   0  0  0  0  0  0  0  0  0  0  0  0
   -0.8687    0.3757   -0.0696 S   0  0  2  0  0  0  0  0  0  0  0  0
   -5.3209   -7.0714   -1.6657 C   0  0  0  0  0  0  0  0  0  0  0  0
    0.0272   -0.2012   -1.2663 O   0  0  0  0  0  0  0  0  0  0  0  0
   -0.5553    1.9348    0.1267 O   0  0  0  0  0  0  0  0  0  0  0  0
   -2.5138    0.2124   -0.4991 O   0  0  0  0  0  0  0  0  0  0  0  0
   -6.0640   -2.9138    1.9685 H   0  0  0  0  0  0  0  0  0  0  0  0
   -5.8749   -1.4741    0.9363 H   0  0  0  0  0  0  0  0  0  0  0  0
   -6.2255   -3.0393    0.2109 H   0  0  0  0  0  0  0  0  0  0  0  0
   -3.5846   -4.3138   -2.4683 H   0  0  0  0  0  0  0  0  0  0  0  0
   -5.0735   -5.5132    1.2945 H   0  0  0  0  0  0  0  0  0  0  0  0
    0.5436   -0.3676    1.6878 H   0  0  0  0  0  0  0  0  0  0  0  0
   -1.0601   -0.0615    2.2966 H   0  0  0  0  0  0  0  0  0  0  0  0
    0.6072   -2.6599    2.7565 H   0  0  0  0  0  0  0  0  0  0  0  0
   -0.1390   -3.9261    1.7942 H   0  0  0  0  0  0  0  0  0  0  0  0
    1.0286   -2.8328    1.0422 H   0  0  0  0  0  0  0  0  0  0  0  0
   -4.5732   -1.2833    3.1529 H   0  0  0  0  0  0  0  0  0  0  0  0
   -2.8722   -1.4338    3.5868 H   0  0  0  0  0  0  0  0  0  0  0  0
   -3.4018   -0.1652    2.4519 H   0  0  0  0  0  0  0  0  0  0  0  0
   -4.5168   -6.3097   -3.4613 H   0  0  0  0  0  0  0  0  0  0  0  0
   -5.9977   -7.5035    0.2867 H   0  0  0  0  0  0  0  0  0  0  0  0
   -5.7063   -7.9196   -2.0868 H   0  0  0  0  0  0  0  0  0  0  0  0
   -2.4905   -0.1584   -1.4055 H   0  0  0  0  0  0  0  0  0  0  0  0
  1  2  2  0  0  0  0 
  2  3  1  0  0  0  0 
  2  4  1  0  0  0  0 
  3  5  1  0  0  0  0 
  3  6  1  0  0  0  0 
  4  7  1  0  0  0  0 
  4  8  2  0  0  0  0 
  5  8  1  0  0  0  0 
  5  9  1  0  0  0  0 
  6 10  2  0  0  0  0 
  6 11  1  0  0  0  0 
  7 12  1  0  0  0  0 
  7 13  1  0  0  0  0 
  8 14  1  0  0  0  0 
 10 15  1  0  0  0  0 
 11 16  2  0  0  0  0 
 12 17  1  0  0  0  0 
 15 18  2  0  0  0  0 
 16 18  1  0  0  0  0 
 17 19  2  0  0  0  0 
 17 20  2  0  0  0  0 
 17 21  1  0  0  0  0 
  9 22  1  0  0  0  0 
  9 23  1  0  0  0  0 
  9 24  1  0  0  0  0 
 10 25  1  0  0  0  0 
 11 26  1  0  0  0  0 
 12 27  1  0  0  0  0 
 12 28  1  0  0  0  0 
 13 29  1  0  0  0  0 
 13 30  1  0  0  0  0 
 13 31  1  0  0  0  0 
 14 32  1  0  0  0  0 
 14 33  1  0  0  0  0 
 14 34  1  0  0  0  0 
 15 35  1  0  0  0  0 
 16 36  1  0  0  0  0 
 18 37  1  0  0  0  0 
 21 38  1  0  0  0  0 
M  END
> <cdk:Title>
metamizole

> <Conformer>
1

> <SuperDrugID>
SD003692

$$$$
