laninamivir octanoate hydrate
  CDK     0628171802

 69 69  0  0  0  0  0  0  0  0999 V2000
   -0.1388   -1.2327    3.0431 C   0  0  1  0  0  0  0  0  0  0  0  0
   -0.2138   -2.2836    1.8905 C   0  0  1  0  0  0  0  0  0  0  0  0
    0.3986   -1.7928    0.5515 C   0  0  1  0  0  0  0  0  0  0  0  0
   -0.3900   -0.7707   -0.0724 O   0  0  0  0  0  0  0  0  0  0  0  0
    0.4943   -3.4702    2.2480 O   0  0  0  0  0  0  0  0  0  0  0  0
   -0.9591   -0.0987    2.6689 O   0  0  0  0  0  0  0  0  0  0  0  0
   -0.3186    1.1889    2.6538 C   0  0  0  0  0  0  0  0  0  0  0  0
   -0.6348   -1.7770    4.4237 C   0  0  1  0  0  0  0  0  0  0  0  0
   -0.4585   -0.7717    5.6066 C   0  0  2  0  0  0  0  0  0  0  0  0
    0.8478   -0.1874    5.7531 N   0  0  0  0  0  0  0  0  0  0  0  0
    2.0260   -0.8304    5.9772 C   0  0  0  0  0  0  0  0  0  0  0  0
    3.2679   -0.0555    6.1452 C   0  0  0  0  0  0  0  0  0  0  0  0
    2.0980   -2.0780    6.0564 O   0  0  0  0  0  0  0  0  0  0  0  0
   -0.9811   -1.4549    6.9095 C   0  0  1  0  0  0  0  0  0  0  0  0
   -1.1185   -0.5045    7.9306 N   0  0  0  0  0  0  0  0  0  0  0  0
   -0.3696   -0.2763    8.9500 C   0  0  0  0  0  0  0  0  0  0  0  0
    0.7502   -0.9196    9.2182 N   0  0  0  0  0  0  0  0  0  0  0  0
   -0.7322    0.6730    9.7795 N   0  0  0  0  0  0  0  0  0  0  0  0
   -2.2572   -2.1294    6.7002 C   0  0  0  0  0  0  0  0  0  0  0  0
   -2.7196   -2.4525    5.4721 C   0  0  0  0  0  0  0  0  0  0  0  0
   -2.0409   -2.1304    4.3364 O   0  0  0  0  0  0  0  0  0  0  0  0
   -3.9392   -3.0978    5.2949 C   0  0  0  0  0  0  0  0  0  0  0  0
   -4.7795   -3.3714    6.3264 O   0  0  0  0  0  0  0  0  0  0  0  0
   -4.3170   -3.4550    4.1545 O   0  0  0  0  0  0  0  0  0  0  0  0
   -0.1224   -0.2087   -1.2898 C   0  0  0  0  0  0  0  0  0  0  0  0
   -1.0715    0.7598   -1.8690 C   0  0  1  0  0  0  0  0  0  0  0  0
    0.9061   -0.5249   -1.9358 O   0  0  0  0  0  0  0  0  0  0  0  0
   -0.9847    2.1524   -1.1945 C   0  0  2  0  0  0  0  0  0  0  0  0
   -1.9806    3.1785   -1.8017 C   0  0  2  0  0  0  0  0  0  0  0  0
   -1.9799    4.5300   -1.0403 C   0  0  1  0  0  0  0  0  0  0  0  0
   -2.9299    5.5906   -1.6612 C   0  0  1  0  0  0  0  0  0  0  0  0
   -2.9620    6.8960   -0.8242 C   0  0  2  0  0  0  0  0  0  0  0  0
   -3.8724    7.9847   -1.4350 C   0  0  0  0  0  0  0  0  0  0  0  0
    0.9206   -0.9692    3.1538 H   0  0  0  0  0  0  0  0  0  0  0  0
   -1.2566   -2.5612    1.7141 H   0  0  0  0  0  0  0  0  0  0  0  0
    1.4161   -1.4269    0.7141 H   0  0  0  0  0  0  0  0  0  0  0  0
    0.4456   -2.6388   -0.1400 H   0  0  0  0  0  0  0  0  0  0  0  0
   -0.0109   -3.8563    2.9917 H   0  0  0  0  0  0  0  0  0  0  0  0
    0.4760    1.2204    1.9063 H   0  0  0  0  0  0  0  0  0  0  0  0
   -1.0667    1.9381    2.3976 H   0  0  0  0  0  0  0  0  0  0  0  0
    0.0933    1.4402    3.6303 H   0  0  0  0  0  0  0  0  0  0  0  0
   -0.0705   -2.6844    4.6574 H   0  0  0  0  0  0  0  0  0  0  0  0
   -1.1199    0.0752    5.3996 H   0  0  0  0  0  0  0  0  0  0  0  0
    0.8905    0.7817    5.7057 H   0  0  0  0  0  0  0  0  0  0  0  0
    4.0259   -0.4113    5.4452 H   0  0  0  0  0  0  0  0  0  0  0  0
    3.1060    1.0093    5.9671 H   0  0  0  0  0  0  0  0  0  0  0  0
    3.6388   -0.1829    7.1630 H   0  0  0  0  0  0  0  0  0  0  0  0
   -0.2809   -2.2426    7.2050 H   0  0  0  0  0  0  0  0  0  0  0  0
    1.0642   -1.6274    8.6372 H   0  0  0  0  0  0  0  0  0  0  0  0
    1.2699   -0.6775   10.0008 H   0  0  0  0  0  0  0  0  0  0  0  0
   -0.1756    0.8849   10.5456 H   0  0  0  0  0  0  0  0  0  0  0  0
   -1.5550    1.1658    9.6335 H   0  0  0  0  0  0  0  0  0  0  0  0
   -2.7818   -2.3763    7.5096 H   0  0  0  0  0  0  0  0  0  0  0  0
   -5.6351   -3.8225    6.1654 H   0  0  0  0  0  0  0  0  0  0  0  0
   -0.8698    0.8687   -2.9387 H   0  0  0  0  0  0  0  0  0  0  0  0
   -2.0806    0.3520   -1.7612 H   0  0  0  0  0  0  0  0  0  0  0  0
    0.0329    2.5390   -1.3086 H   0  0  0  0  0  0  0  0  0  0  0  0
   -1.1907    2.0434   -0.1280 H   0  0  0  0  0  0  0  0  0  0  0  0
   -2.9916    2.7626   -1.7755 H   0  0  0  0  0  0  0  0  0  0  0  0
   -1.7098    3.3592   -2.8451 H   0  0  0  0  0  0  0  0  0  0  0  0
   -2.2828    4.3505   -0.0047 H   0  0  0  0  0  0  0  0  0  0  0  0
   -0.9622    4.9298   -1.0330 H   0  0  0  0  0  0  0  0  0  0  0  0
   -2.5945    5.8244   -2.6754 H   0  0  0  0  0  0  0  0  0  0  0  0
   -3.9438    5.1850   -1.7225 H   0  0  0  0  0  0  0  0  0  0  0  0
   -1.9493    7.2988   -0.7462 H   0  0  0  0  0  0  0  0  0  0  0  0
   -3.3165    6.6693    0.1849 H   0  0  0  0  0  0  0  0  0  0  0  0
   -3.8586    8.8741   -0.8016 H   0  0  0  0  0  0  0  0  0  0  0  0
   -3.5162    8.2607   -2.4295 H   0  0  0  0  0  0  0  0  0  0  0  0
   -4.9011    7.6272   -1.5115 H   0  0  0  0  0  0  0  0  0  0  0  0
  1  2  1  0  0  0  0 
  1  6  1  0  0  0  0 
  1  8  1  0  0  0  0 
  2  3  1  0  0  0  0 
  2  5  1  0  0  0  0 
  3  4  1  0  0  0  0 
  6  7  1  0  0  0  0 
  8  9  1  0  0  0  0 
  8 21  1  0  0  0  0 
  9 10  1  0  0  0  0 
  9 14  1  0  0  0  0 
 10 11  1  0  0  0  0 
 11 12  1  0  0  0  0 
 11 13  2  0  0  0  0 
 14 15  1  0  0  0  0 
 14 19  1  0  0  0  0 
 15 16  2  0  0  0  0 
 16 17  1  0  0  0  0 
 16 18  1  0  0  0  0 
 20 19  2  0  0  0  0 
 20 22  1  0  0  0  0 
 21 20  1  0  0  0  0 
 22 23  1  0  0  0  0 
 22 24  2  0  0  0  0 
  4 25  1  0  0  0  0 
 25 26  1  0  0  0  0 
 25 27  2  0  0  0  0 
 26 28  1  0  0  0  0 
 28 29  1  0  0  0  0 
 29 30  1  0  0  0  0 
 30 31  1  0  0  0  0 
 31 32  1  0  0  0  0 
 32 33  1  0  0  0  0 
  1 34  1  0  0  0  0 
  2 35  1  0  0  0  0 
 36  3  1  0  0  0  0 
 37  3  1  0  0  0  0 
 38  5  1  0  0  0  0 
 39  7  1  0  0  0  0 
 40  7  1  0  0  0  0 
 41  7  1  0  0  0  0 
  8 42  1  0  0  0  0 
  9 43  1  0  0  0  0 
 44 10  1  0  0  0  0 
 45 12  1  0  0  0  0 
 46 12  1  0  0  0  0 
 47 12  1  0  0  0  0 
 14 48  1  0  0  0  0 
 49 17  1  0  0  0  0 
 50 17  1  0  0  0  0 
 51 18  1  0  0  0  0 
 52 18  1  0  0  0  0 
 53 19  1  0  0  0  0 
 54 23  1  0  0  0  0 
 55 26  1  0  0  0  0 
 56 26  1  0  0  0  0 
 57 28  1  0  0  0  0 
 58 28  1  0  0  0  0 
 59 29  1  0  0  0  0 
 60 29  1  0  0  0  0 
 61 30  1  0  0  0  0 
 62 30  1  0  0  0  0 
 63 31  1  0  0  0  0 
 64 31  1  0  0  0  0 
 65 32  1  0  0  0  0 
 66 32  1  0  0  0  0 
 67 33  1  0  0  0  0 
 68 33  1  0  0  0  0 
 69 33  1  0  0  0  0 
M  END
> <cdk:Title>
laninamivir octanoate hydrate

> <Conformer>
1

> <SuperDrugID>
SD003784

$$$$
