ezetimibe
  CDK     0628171801

 51 54  0  0  0  0  0  0  0  0999 V2000
   -0.2300   -0.3384   -2.0354 C   0  0  1  0  0  0  0  0  0  0  0  0
    0.6248   -0.4409   -0.7465 C   0  0  2  0  0  0  0  0  0  0  0  0
   -0.2330   -1.6629   -2.8453 C   0  0  2  0  0  0  0  0  0  0  0  0
    0.7068    0.8895    0.0558 C   0  0  2  0  0  0  0  0  0  0  0  0
   -1.0942   -1.6445   -4.1483 C   0  0  2  0  0  0  0  0  0  0  0  0
   -1.1908   -2.6737   -2.3984 C   0  0  0  0  0  0  0  0  0  0  0  0
    1.3196    1.9286   -0.7100 O   0  0  0  0  0  0  0  0  0  0  0  0
    1.4691    0.6983    1.3230 C   0  0  0  0  0  0  0  0  0  0  0  0
   -1.9308   -2.6223   -3.5166 N   0  0  0  0  0  0  0  0  0  0  0  0
   -0.4037   -2.0813   -5.4042 C   0  0  0  0  0  0  0  0  0  0  0  0
   -1.2731   -3.3319   -1.3360 O   0  0  0  0  0  0  0  0  0  0  0  0
    2.8663    0.4667    1.2980 C   0  0  0  0  0  0  0  0  0  0  0  0
    0.8112    0.7186    2.5759 C   0  0  0  0  0  0  0  0  0  0  0  0
   -3.0856   -3.2429   -3.9244 C   0  0  0  0  0  0  0  0  0  0  0  0
    0.1611   -3.3746   -5.5322 C   0  0  0  0  0  0  0  0  0  0  0  0
   -0.3063   -1.1988   -6.5063 C   0  0  0  0  0  0  0  0  0  0  0  0
    3.5823    0.2540    2.4898 C   0  0  0  0  0  0  0  0  0  0  0  0
    1.5265    0.5008    3.7677 C   0  0  0  0  0  0  0  0  0  0  0  0
   -3.7512   -2.8055   -5.0957 C   0  0  0  0  0  0  0  0  0  0  0  0
   -3.6480   -4.3262   -3.2066 C   0  0  0  0  0  0  0  0  0  0  0  0
    0.7870   -3.7806   -6.7240 C   0  0  0  0  0  0  0  0  0  0  0  0
    0.3346   -1.5994   -7.6948 C   0  0  0  0  0  0  0  0  0  0  0  0
    2.9133    0.2693    3.7269 C   0  0  0  0  0  0  0  0  0  0  0  0
   -4.9244   -3.4364   -5.5475 C   0  0  0  0  0  0  0  0  0  0  0  0
   -4.8312   -4.9491   -3.6466 C   0  0  0  0  0  0  0  0  0  0  0  0
    0.8827   -2.8896   -7.8091 C   0  0  0  0  0  0  0  0  0  0  0  0
    3.5774    0.0679    4.8320 F   0  0  0  0  0  0  0  0  0  0  0  0
   -5.4631   -4.5151   -4.8251 C   0  0  0  0  0  0  0  0  0  0  0  0
    1.4862   -3.2599   -8.9679 O   0  0  0  0  0  0  0  0  0  0  0  0
   -6.5442   -5.1126   -5.2505 F   0  0  0  0  0  0  0  0  0  0  0  0
   -1.2527   -0.0507   -1.7713 H   0  0  0  0  0  0  0  0  0  0  0  0
    0.1800    0.4415   -2.6812 H   0  0  0  0  0  0  0  0  0  0  0  0
    1.6328   -0.7607   -1.0234 H   0  0  0  0  0  0  0  0  0  0  0  0
    0.1889   -1.2120   -0.1036 H   0  0  0  0  0  0  0  0  0  0  0  0
    0.7668   -2.0841   -2.9801 H   0  0  0  0  0  0  0  0  0  0  0  0
   -0.3143    1.2194    0.2718 H   0  0  0  0  0  0  0  0  0  0  0  0
   -1.6424   -0.7037   -4.2725 H   0  0  0  0  0  0  0  0  0  0  0  0
    0.7392    2.0551   -1.4898 H   0  0  0  0  0  0  0  0  0  0  0  0
    3.3725    0.4504    0.4085 H   0  0  0  0  0  0  0  0  0  0  0  0
   -0.1971    0.8846    2.6290 H   0  0  0  0  0  0  0  0  0  0  0  0
    0.1220   -4.0333   -4.7549 H   0  0  0  0  0  0  0  0  0  0  0  0
   -0.6973   -0.2530   -6.4527 H   0  0  0  0  0  0  0  0  0  0  0  0
    4.5901    0.0868    2.4522 H   0  0  0  0  0  0  0  0  0  0  0  0
    1.0331    0.5092    4.6629 H   0  0  0  0  0  0  0  0  0  0  0  0
   -3.3886   -2.0184   -5.6341 H   0  0  0  0  0  0  0  0  0  0  0  0
   -3.1992   -4.6830   -2.3599 H   0  0  0  0  0  0  0  0  0  0  0  0
    1.1741   -4.7246   -6.7983 H   0  0  0  0  0  0  0  0  0  0  0  0
    0.3983   -0.9490   -8.4813 H   0  0  0  0  0  0  0  0  0  0  0  0
   -5.3822   -3.1064   -6.4012 H   0  0  0  0  0  0  0  0  0  0  0  0
   -5.2288   -5.7237   -3.1099 H   0  0  0  0  0  0  0  0  0  0  0  0
    1.6076   -4.2303   -8.9132 H   0  0  0  0  0  0  0  0  0  0  0  0
  1  2  1  0  0  0  0 
  4  2  1  0  0  0  0 
  3  1  1  0  0  0  0 
  5  3  1  0  0  0  0 
  3  6  1  0  0  0  0 
  4  7  1  0  0  0  0 
  4  8  1  0  0  0  0 
  5  9  1  0  0  0  0 
  5 10  1  0  0  0  0 
  6  9  1  0  0  0  0 
  6 11  2  0  0  0  0 
  8 12  2  0  0  0  0 
  8 13  1  0  0  0  0 
  9 14  1  0  0  0  0 
 10 15  2  0  0  0  0 
 10 16  1  0  0  0  0 
 12 17  1  0  0  0  0 
 13 18  2  0  0  0  0 
 14 19  2  0  0  0  0 
 14 20  1  0  0  0  0 
 15 21  1  0  0  0  0 
 16 22  2  0  0  0  0 
 17 23  2  0  0  0  0 
 18 23  1  0  0  0  0 
 19 24  1  0  0  0  0 
 20 25  2  0  0  0  0 
 21 26  2  0  0  0  0 
 22 26  1  0  0  0  0 
 23 27  1  0  0  0  0 
 24 28  2  0  0  0  0 
 25 28  1  0  0  0  0 
 26 29  1  0  0  0  0 
 28 30  1  0  0  0  0 
  1 31  1  0  0  0  0 
  1 32  1  0  0  0  0 
  2 33  1  0  0  0  0 
  2 34  1  0  0  0  0 
  3 35  1  0  0  0  0 
  4 36  1  0  0  0  0 
  5 37  1  0  0  0  0 
  7 38  1  0  0  0  0 
 12 39  1  0  0  0  0 
 13 40  1  0  0  0  0 
 15 41  1  0  0  0  0 
 16 42  1  0  0  0  0 
 17 43  1  0  0  0  0 
 18 44  1  0  0  0  0 
 19 45  1  0  0  0  0 
 20 46  1  0  0  0  0 
 21 47  1  0  0  0  0 
 22 48  1  0  0  0  0 
 24 49  1  0  0  0  0 
 25 50  1  0  0  0  0 
 29 51  1  0  0  0  0 
M  END
> <cdk:Title>
ezetimibe

> <Conformer>
1

> <SuperDrugID>
SD001004

$$$$
