belotecan
  CDK     0628171801

 59 63  0  0  0  0  0  0  0  0999 V2000
    3.6686   -5.3083    0.2964 O   0  0  0  0  0  0  0  0  0  0  0  0
    4.4045   -4.2932    0.2349 C   0  0  0  0  0  0  0  0  0  0  0  0
    3.8847   -3.1137   -0.2078 N   0  0  0  0  0  0  0  0  0  0  0  0
    5.7661   -4.3559    0.6316 C   0  0  0  0  0  0  0  0  0  0  0  0
    4.6288   -1.9890   -0.2844 C   0  0  0  0  0  0  0  0  0  0  0  0
    2.5339   -2.8863   -0.6248 C   0  0  1  0  0  0  0  0  0  0  0  0
    6.5758   -3.1841    0.5535 C   0  0  0  0  0  0  0  0  0  0  0  0
    6.3212   -5.6402    1.1318 C   0  0  1  0  0  0  0  0  0  0  0  0
    3.8217   -0.9455   -0.7123 C   0  0  0  0  0  0  0  0  0  0  0  0
    5.9887   -1.9864    0.0645 C   0  0  0  0  0  0  0  0  0  0  0  0
    2.5374   -1.4405   -0.9221 C   0  0  0  0  0  0  0  0  0  0  0  0
    8.0191   -3.1849    0.9846 C   0  0  2  0  0  0  0  0  0  0  0  0
    7.7110   -5.6132    1.4597 O   0  0  0  0  0  0  0  0  0  0  0  0
    4.1138    0.3605   -0.8926 N   0  0  0  0  0  0  0  0  0  0  0  0
    1.4849   -0.5782   -1.3286 C   0  0  0  0  0  0  0  0  0  0  0  0
    8.2947   -2.1666    2.1473 C   0  0  2  0  0  0  0  0  0  0  0  0
    8.7839   -2.7842   -0.1568 O   0  0  0  0  0  0  0  0  0  0  0  0
    8.5285   -4.5348    1.3589 C   0  0  0  0  0  0  0  0  0  0  0  0
    3.1548    1.2407   -1.2843 C   0  0  0  0  0  0  0  0  0  0  0  0
    0.1032   -1.1339   -1.5040 C   0  0  2  0  0  0  0  0  0  0  0  0
    1.8091    0.8051   -1.5174 C   0  0  0  0  0  0  0  0  0  0  0  0
    7.4752   -2.3942    3.4425 C   0  0  0  0  0  0  0  0  0  0  0  0
    9.7438   -4.7247    1.5992 O   0  0  0  0  0  0  0  0  0  0  0  0
    3.5194    2.5936   -1.4442 C   0  0  0  0  0  0  0  0  0  0  0  0
   -0.8023   -0.9107   -0.2645 C   0  0  2  0  0  0  0  0  0  0  0  0
    0.8681    1.7877   -1.9222 C   0  0  0  0  0  0  0  0  0  0  0  0
    2.5600    3.5393   -1.8409 C   0  0  0  0  0  0  0  0  0  0  0  0
   -0.1982   -1.5582    0.9215 N   0  0  1  0  0  0  0  0  0  0  0  0
    1.2383    3.1346   -2.0861 C   0  0  0  0  0  0  0  0  0  0  0  0
   -0.9107   -1.4655    2.2188 C   0  0  2  0  0  0  0  0  0  0  0  0
   -0.9498   -0.0189    2.7768 C   0  0  0  0  0  0  0  0  0  0  0  0
   -0.1711   -2.4137    3.1974 C   0  0  0  0  0  0  0  0  0  0  0  0
    2.2937   -3.4747   -1.5145 H   0  0  0  0  0  0  0  0  0  0  0  0
    1.8426   -3.1242    0.1854 H   0  0  0  0  0  0  0  0  0  0  0  0
    5.7744   -5.9394    2.0286 H   0  0  0  0  0  0  0  0  0  0  0  0
    6.1830   -6.4113    0.3702 H   0  0  0  0  0  0  0  0  0  0  0  0
    6.5331   -1.1256   -0.0308 H   0  0  0  0  0  0  0  0  0  0  0  0
    8.0960   -1.1500    1.7991 H   0  0  0  0  0  0  0  0  0  0  0  0
    9.3565   -2.1912    2.4125 H   0  0  0  0  0  0  0  0  0  0  0  0
    9.7196   -2.7953    0.1385 H   0  0  0  0  0  0  0  0  0  0  0  0
    0.1374   -2.2057   -1.7031 H   0  0  0  0  0  0  0  0  0  0  0  0
   -0.3679   -0.7032   -2.3887 H   0  0  0  0  0  0  0  0  0  0  0  0
    7.7111   -1.6109    4.1665 H   0  0  0  0  0  0  0  0  0  0  0  0
    6.4042   -2.3569    3.2359 H   0  0  0  0  0  0  0  0  0  0  0  0
    7.7212   -3.3615    3.8841 H   0  0  0  0  0  0  0  0  0  0  0  0
    4.4819    2.8984   -1.2746 H   0  0  0  0  0  0  0  0  0  0  0  0
   -1.7864   -1.3473   -0.4549 H   0  0  0  0  0  0  0  0  0  0  0  0
   -0.9286    0.1589   -0.0968 H   0  0  0  0  0  0  0  0  0  0  0  0
   -0.1058    1.5468   -2.1041 H   0  0  0  0  0  0  0  0  0  0  0  0
    2.8209    4.5217   -1.9507 H   0  0  0  0  0  0  0  0  0  0  0  0
   -0.1428   -2.5541    0.6947 H   0  0  0  0  0  0  0  0  0  0  0  0
    0.5423    3.8211   -2.3853 H   0  0  0  0  0  0  0  0  0  0  0  0
   -1.9363   -1.8296    2.0999 H   0  0  0  0  0  0  0  0  0  0  0  0
   -1.3657   -0.0104    3.7861 H   0  0  0  0  0  0  0  0  0  0  0  0
    0.0562    0.4042    2.8076 H   0  0  0  0  0  0  0  0  0  0  0  0
   -1.5796    0.6142    2.1512 H   0  0  0  0  0  0  0  0  0  0  0  0
   -0.6703   -2.4317    4.1684 H   0  0  0  0  0  0  0  0  0  0  0  0
    0.8624   -2.0859    3.3395 H   0  0  0  0  0  0  0  0  0  0  0  0
   -0.1598   -3.4320    2.8007 H   0  0  0  0  0  0  0  0  0  0  0  0
  1  2  2  0  0  0  0 
  2  3  1  0  0  0  0 
  2  4  1  0  0  0  0 
  3  5  1  0  0  0  0 
  3  6  1  0  0  0  0 
  4  7  2  0  0  0  0 
  4  8  1  0  0  0  0 
  5  9  1  0  0  0  0 
  5 10  2  0  0  0  0 
  6 11  1  0  0  0  0 
  7 10  1  0  0  0  0 
 12  7  1  0  0  0  0 
  8 13  1  0  0  0  0 
  9 11  2  0  0  0  0 
  9 14  1  0  0  0  0 
 11 15  1  0  0  0  0 
 12 16  1  0  0  0  0 
 12 17  1  0  0  0  0 
 12 18  1  0  0  0  0 
 13 18  1  0  0  0  0 
 14 19  2  0  0  0  0 
 15 20  1  0  0  0  0 
 15 21  2  0  0  0  0 
 16 22  1  0  0  0  0 
 18 23  2  0  0  0  0 
 19 21  1  0  0  0  0 
 19 24  1  0  0  0  0 
 20 25  1  0  0  0  0 
 21 26  1  0  0  0  0 
 24 27  2  0  0  0  0 
 25 28  1  0  0  0  0 
 26 29  2  0  0  0  0 
 27 29  1  0  0  0  0 
 28 30  1  0  0  0  0 
 30 31  1  0  0  0  0 
 30 32  1  0  0  0  0 
  6 33  1  0  0  0  0 
  6 34  1  0  0  0  0 
  8 35  1  0  0  0  0 
  8 36  1  0  0  0  0 
 10 37  1  0  0  0  0 
 16 38  1  0  0  0  0 
 16 39  1  0  0  0  0 
 17 40  1  0  0  0  0 
 20 41  1  0  0  0  0 
 20 42  1  0  0  0  0 
 22 43  1  0  0  0  0 
 22 44  1  0  0  0  0 
 22 45  1  0  0  0  0 
 24 46  1  0  0  0  0 
 25 47  1  0  0  0  0 
 25 48  1  0  0  0  0 
 26 49  1  0  0  0  0 
 27 50  1  0  0  0  0 
 28 51  1  0  0  0  0 
 29 52  1  0  0  0  0 
 30 53  1  0  0  0  0 
 31 54  1  0  0  0  0 
 31 55  1  0  0  0  0 
 31 56  1  0  0  0  0 
 32 57  1  0  0  0  0 
 32 58  1  0  0  0  0 
 32 59  1  0  0  0  0 
M  END
> <cdk:Title>
belotecan

> <Conformer>
1

> <SuperDrugID>
SD000248

$$$$
