antazoline
  CDK     0628171801

 39 41  0  0  0  0  0  0  0  0999 V2000
   -0.9838   -1.5170    0.3359 N   0  0  0  0  0  0  0  0  0  0  0  0
    0.4572   -1.6612    0.2073 C   0  0  2  0  0  0  0  0  0  0  0  0
   -1.6351   -1.3177    1.6214 C   0  0  2  0  0  0  0  0  0  0  0  0
   -1.7512   -1.4856   -0.8042 C   0  0  0  0  0  0  0  0  0  0  0  0
    1.1935   -0.5269    0.8305 C   0  0  0  0  0  0  0  0  0  0  0  0
   -1.1138   -2.1108    2.7206 C   0  0  0  0  0  0  0  0  0  0  0  0
   -2.3894   -0.2867   -1.1998 C   0  0  0  0  0  0  0  0  0  0  0  0
   -1.9029   -2.6394   -1.6063 C   0  0  0  0  0  0  0  0  0  0  0  0
    2.0353   -0.7238    1.9513 C   0  0  0  0  0  0  0  0  0  0  0  0
    1.0385    0.7854    0.3235 C   0  0  0  0  0  0  0  0  0  0  0  0
   -0.5456   -1.6301    3.7606 N   0  0  0  0  0  0  0  0  0  0  0  0
   -1.1574   -3.4186    2.7862 N   0  0  0  0  0  0  0  0  0  0  0  0
   -3.1604   -0.2405   -2.3768 C   0  0  0  0  0  0  0  0  0  0  0  0
   -2.6639   -2.5892   -2.7897 C   0  0  0  0  0  0  0  0  0  0  0  0
    2.6688    0.3685    2.5732 C   0  0  0  0  0  0  0  0  0  0  0  0
    1.6773    1.8771    0.9411 C   0  0  0  0  0  0  0  0  0  0  0  0
   -0.1270   -2.6070    4.6450 C   0  0  2  0  0  0  0  0  0  0  0  0
   -0.5804   -3.9157    3.9706 C   0  0  1  0  0  0  0  0  0  0  0  0
   -3.2989   -1.3932   -3.1705 C   0  0  0  0  0  0  0  0  0  0  0  0
    2.4835    1.6696    2.0741 C   0  0  0  0  0  0  0  0  0  0  0  0
    0.7738   -1.7196   -0.8400 H   0  0  0  0  0  0  0  0  0  0  0  0
    0.7487   -2.6130    0.6594 H   0  0  0  0  0  0  0  0  0  0  0  0
   -2.7055   -1.5378    1.5538 H   0  0  0  0  0  0  0  0  0  0  0  0
   -1.5490   -0.2576    1.8725 H   0  0  0  0  0  0  0  0  0  0  0  0
   -2.2871    0.5602   -0.6355 H   0  0  0  0  0  0  0  0  0  0  0  0
   -1.4614   -3.5200   -1.3310 H   0  0  0  0  0  0  0  0  0  0  0  0
    2.1831   -1.6614    2.3329 H   0  0  0  0  0  0  0  0  0  0  0  0
    0.4520    0.9549   -0.4963 H   0  0  0  0  0  0  0  0  0  0  0  0
   -1.5473   -3.9830    2.1022 H   0  0  0  0  0  0  0  0  0  0  0  0
   -3.6172    0.6316   -2.6554 H   0  0  0  0  0  0  0  0  0  0  0  0
   -2.7576   -3.4238   -3.3734 H   0  0  0  0  0  0  0  0  0  0  0  0
    3.2625    0.2169    3.3918 H   0  0  0  0  0  0  0  0  0  0  0  0
    1.5520    2.8214    0.5669 H   0  0  0  0  0  0  0  0  0  0  0  0
   -0.6003   -2.4695    5.6199 H   0  0  0  0  0  0  0  0  0  0  0  0
    0.9603   -2.5674    4.7544 H   0  0  0  0  0  0  0  0  0  0  0  0
   -1.3288   -4.4428    4.5634 H   0  0  0  0  0  0  0  0  0  0  0  0
    0.2606   -4.5756    3.7473 H   0  0  0  0  0  0  0  0  0  0  0  0
   -3.8605   -1.3619   -4.0247 H   0  0  0  0  0  0  0  0  0  0  0  0
    2.9370    2.4633    2.5326 H   0  0  0  0  0  0  0  0  0  0  0  0
  1  2  1  0  0  0  0 
  1  3  1  0  0  0  0 
  1  4  1  0  0  0  0 
  2  5  1  0  0  0  0 
  3  6  1  0  0  0  0 
  4  7  2  0  0  0  0 
  4  8  1  0  0  0  0 
  5  9  2  0  0  0  0 
  5 10  1  0  0  0  0 
  6 11  2  0  0  0  0 
  6 12  1  0  0  0  0 
  7 13  1  0  0  0  0 
  8 14  2  0  0  0  0 
  9 15  1  0  0  0  0 
 10 16  2  0  0  0  0 
 11 17  1  0  0  0  0 
 12 18  1  0  0  0  0 
 13 19  2  0  0  0  0 
 14 19  1  0  0  0  0 
 15 20  2  0  0  0  0 
 16 20  1  0  0  0  0 
 17 18  1  0  0  0  0 
 21  2  1  0  0  0  0 
 22  2  1  0  0  0  0 
 23  3  1  0  0  0  0 
 24  3  1  0  0  0  0 
 25  7  1  0  0  0  0 
 26  8  1  0  0  0  0 
 27  9  1  0  0  0  0 
 28 10  1  0  0  0  0 
 29 12  1  0  0  0  0 
 30 13  1  0  0  0  0 
 31 14  1  0  0  0  0 
 32 15  1  0  0  0  0 
 33 16  1  0  0  0  0 
 34 17  1  0  0  0  0 
 35 17  1  0  0  0  0 
 36 18  1  0  0  0  0 
 37 18  1  0  0  0  0 
 38 19  1  0  0  0  0 
 39 20  1  0  0  0  0 
M  END
> <cdk:Title>
antazoline

> <Conformer>
1

> <SuperDrugID>
SD000186

$$$$
