nedocromil
  CDK     0628171801

 44 46  0  0  0  0  0  0  0  0999 V2000
    2.4245    3.0055   -0.1593 C   0  0  2  0  0  0  0  0  0  0  0  0
    3.3633    1.8447   -0.6202 C   0  0  2  0  0  0  0  0  0  0  0  0
    1.1576    2.5990    0.5460 C   0  0  0  0  0  0  0  0  0  0  0  0
    4.5483    2.3401   -1.4802 C   0  0  0  0  0  0  0  0  0  0  0  0
   -0.1697    2.8783    0.0514 C   0  0  0  0  0  0  0  0  0  0  0  0
    1.3163    2.0459    1.8488 C   0  0  0  0  0  0  0  0  0  0  0  0
   -1.2439    2.8256    0.9983 C   0  0  0  0  0  0  0  0  0  0  0  0
   -0.5039    3.2191   -1.2599 N   0  0  0  0  0  0  0  0  0  0  0  0
    0.2139    1.8400    2.7094 C   0  0  0  0  0  0  0  0  0  0  0  0
    2.5558    1.7233    2.3314 O   0  0  0  0  0  0  0  0  0  0  0  0
   -1.0522    2.2673    2.2811 C   0  0  0  0  0  0  0  0  0  0  0  0
   -2.5041    3.3659    0.6558 C   0  0  0  0  0  0  0  0  0  0  0  0
    0.2057    2.6458   -2.4064 C   0  0  2  0  0  0  0  0  0  0  0  0
   -1.6275    3.9910   -1.5175 C   0  0  0  0  0  0  0  0  0  0  0  0
    0.4321    1.2651    3.9857 C   0  0  0  0  0  0  0  0  0  0  0  0
    2.8210    1.1837    3.5572 C   0  0  0  0  0  0  0  0  0  0  0  0
   -3.4872    3.3385    1.4356 O   0  0  0  0  0  0  0  0  0  0  0  0
   -2.6683    4.0187   -0.5690 C   0  0  0  0  0  0  0  0  0  0  0  0
   -0.6734    1.7868   -3.3561 C   0  0  0  0  0  0  0  0  0  0  0  0
   -1.8205    4.7457   -2.7096 C   0  0  0  0  0  0  0  0  0  0  0  0
   -0.5145    1.0406    4.7769 O   0  0  0  0  0  0  0  0  0  0  0  0
    1.7307    0.9354    4.4128 C   0  0  0  0  0  0  0  0  0  0  0  0
    4.1579    0.9069    3.9059 C   0  0  0  0  0  0  0  0  0  0  0  0
   -3.0330    4.8476   -3.3052 O   0  0  0  0  0  0  0  0  0  0  0  0
   -0.8680    5.3509   -3.2488 O   0  0  0  0  0  0  0  0  0  0  0  0
    4.4865    0.3529    5.0991 O   0  0  0  0  0  0  0  0  0  0  0  0
    5.0846    1.1857    3.1120 O   0  0  0  0  0  0  0  0  0  0  0  0
    2.2067    3.6606   -1.0017 H   0  0  0  0  0  0  0  0  0  0  0  0
    2.9946    3.6366    0.5279 H   0  0  0  0  0  0  0  0  0  0  0  0
    2.8096    1.1014   -1.1935 H   0  0  0  0  0  0  0  0  0  0  0  0
    3.7824    1.3282    0.2451 H   0  0  0  0  0  0  0  0  0  0  0  0
    4.1872    2.7815   -2.4113 H   0  0  0  0  0  0  0  0  0  0  0  0
    5.1990    1.4979   -1.7251 H   0  0  0  0  0  0  0  0  0  0  0  0
    5.1300    3.0895   -0.9395 H   0  0  0  0  0  0  0  0  0  0  0  0
   -1.8429    2.1890    2.9253 H   0  0  0  0  0  0  0  0  0  0  0  0
    0.9607    1.9361   -2.0922 H   0  0  0  0  0  0  0  0  0  0  0  0
    0.7200    3.4203   -2.9772 H   0  0  0  0  0  0  0  0  0  0  0  0
   -3.5524    4.5044   -0.7621 H   0  0  0  0  0  0  0  0  0  0  0  0
   -0.0496    1.3613   -4.1457 H   0  0  0  0  0  0  0  0  0  0  0  0
   -1.1328    0.9704   -2.7942 H   0  0  0  0  0  0  0  0  0  0  0  0
   -1.4622    2.3670   -3.8347 H   0  0  0  0  0  0  0  0  0  0  0  0
    1.8754    0.5280    5.3416 H   0  0  0  0  0  0  0  0  0  0  0  0
   -3.1342    5.3435   -4.1430 H   0  0  0  0  0  0  0  0  0  0  0  0
    5.4280    0.1930    5.3222 H   0  0  0  0  0  0  0  0  0  0  0  0
  1  2  1  0  0  0  0 
  1  3  1  0  0  0  0 
  2  4  1  0  0  0  0 
  3  5  2  0  0  0  0 
  3  6  1  0  0  0  0 
  5  7  1  0  0  0  0 
  5  8  1  0  0  0  0 
  6  9  2  0  0  0  0 
  6 10  1  0  0  0  0 
  7 11  2  0  0  0  0 
  7 12  1  0  0  0  0 
  8 13  1  0  0  0  0 
  8 14  1  0  0  0  0 
  9 11  1  0  0  0  0 
  9 15  1  0  0  0  0 
 10 16  1  0  0  0  0 
 12 17  2  0  0  0  0 
 12 18  1  0  0  0  0 
 13 19  1  0  0  0  0 
 14 18  2  0  0  0  0 
 14 20  1  0  0  0  0 
 15 21  2  0  0  0  0 
 15 22  1  0  0  0  0 
 16 22  2  0  0  0  0 
 16 23  1  0  0  0  0 
 20 24  1  0  0  0  0 
 20 25  2  0  0  0  0 
 23 26  1  0  0  0  0 
 23 27  2  0  0  0  0 
  1 28  1  0  0  0  0 
  1 29  1  0  0  0  0 
  2 30  1  0  0  0  0 
  2 31  1  0  0  0  0 
  4 32  1  0  0  0  0 
  4 33  1  0  0  0  0 
  4 34  1  0  0  0  0 
 11 35  1  0  0  0  0 
 13 36  1  0  0  0  0 
 13 37  1  0  0  0  0 
 18 38  1  0  0  0  0 
 19 39  1  0  0  0  0 
 19 40  1  0  0  0  0 
 19 41  1  0  0  0  0 
 22 42  1  0  0  0  0 
 24 43  1  0  0  0  0 
 26 44  1  0  0  0  0 
M  END
> <cdk:Title>
nedocromil

> <Conformer>
1

> <SuperDrugID>
SD001684

$$$$
