broxyquinoline
  CDK     0628171801

 18 19  0  0  0  0  0  0  0  0999 V2000
    0.8673   -0.5102   -0.1316 O   0  0  0  0  0  0  0  0  0  0  0  0
    0.2855    0.3052    0.7855 C   0  0  0  0  0  0  0  0  0  0  0  0
    0.8967    0.5666    2.0321 C   0  0  0  0  0  0  0  0  0  0  0  0
   -0.9538    0.8991    0.4783 C   0  0  0  0  0  0  0  0  0  0  0  0
    0.2695    1.4294    2.9775 C   0  0  0  0  0  0  0  0  0  0  0  0
    2.0906   -0.0090    2.3394 N   0  0  0  0  0  0  0  0  0  0  0  0
   -1.7960    0.5817   -1.1544 Br  0  0  0  0  0  0  0  0  0  0  0  0
   -1.5758    1.7524    1.4062 C   0  0  0  0  0  0  0  0  0  0  0  0
   -0.9755    2.0215    2.6494 C   0  0  0  0  0  0  0  0  0  0  0  0
    0.9275    1.6533    4.2093 C   0  0  0  0  0  0  0  0  0  0  0  0
    2.7336    0.1959    3.5156 C   0  0  0  0  0  0  0  0  0  0  0  0
   -1.8933    3.1682    3.7999 Br  0  0  0  0  0  0  0  0  0  0  0  0
    2.1616    1.0381    4.4816 C   0  0  0  0  0  0  0  0  0  0  0  0
    1.8314   -0.4564    0.0270 H   0  0  0  0  0  0  0  0  0  0  0  0
   -2.4732    2.1817    1.1715 H   0  0  0  0  0  0  0  0  0  0  0  0
    0.5231    2.2633    4.9226 H   0  0  0  0  0  0  0  0  0  0  0  0
    3.6291   -0.2618    3.6939 H   0  0  0  0  0  0  0  0  0  0  0  0
    2.6365    1.2002    5.3724 H   0  0  0  0  0  0  0  0  0  0  0  0
  1  2  1  0  0  0  0 
  2  3  2  0  0  0  0 
  2  4  1  0  0  0  0 
  3  5  1  0  0  0  0 
  3  6  1  0  0  0  0 
  4  7  1  0  0  0  0 
  4  8  2  0  0  0  0 
  5  9  2  0  0  0  0 
  5 10  1  0  0  0  0 
  6 11  2  0  0  0  0 
  8  9  1  0  0  0  0 
  9 12  1  0  0  0  0 
 10 13  2  0  0  0  0 
 11 13  1  0  0  0  0 
  1 14  1  0  0  0  0 
  8 15  1  0  0  0  0 
 10 16  1  0  0  0  0 
 11 17  1  0  0  0  0 
 13 18  1  0  0  0  0 
M  END
> <cdk:Title>
broxyquinoline

> <Conformer>
1

> <SuperDrugID>
SD000354

$$$$
