cicletanine
  CDK     0628171802

 30 32  0  0  0  0  0  0  0  0999 V2000
    0.3272    7.9868    1.1831 O   0  0  0  0  0  0  0  0  0  0  0  0
    1.0870    6.8818    1.3716 C   0  0  0  0  0  0  0  0  0  0  0  0
    1.2054    5.9300    0.3406 C   0  0  0  0  0  0  0  0  0  0  0  0
    1.7834    6.6350    2.5829 C   0  0  0  0  0  0  0  0  0  0  0  0
    1.9734    4.7896    0.5006 C   0  0  0  0  0  0  0  0  0  0  0  0
    0.6214    5.9284   -0.9941 C   0  0  2  0  0  0  0  0  0  0  0  0
    1.7195    7.5682    3.7275 C   0  0  0  0  0  0  0  0  0  0  0  0
    2.5392    5.5019    2.6958 N   0  0  0  0  0  0  0  0  0  0  0  0
    1.9196    3.9666   -0.7064 C   0  0  2  0  0  0  0  0  0  0  0  0
    2.6643    4.5779    1.7064 C   0  0  0  0  0  0  0  0  0  0  0  0
    1.1244    4.7365   -1.6387 O   0  0  0  0  0  0  0  0  0  0  0  0
    1.3552    2.6163   -0.4202 C   0  0  0  0  0  0  0  0  0  0  0  0
    2.2225    1.5464   -0.0918 C   0  0  0  0  0  0  0  0  0  0  0  0
   -0.0402    2.3746   -0.4197 C   0  0  0  0  0  0  0  0  0  0  0  0
    1.7147    0.2742    0.2293 C   0  0  0  0  0  0  0  0  0  0  0  0
   -0.5521    1.1004   -0.1091 C   0  0  0  0  0  0  0  0  0  0  0  0
    0.3250    0.0463    0.2152 C   0  0  0  0  0  0  0  0  0  0  0  0
   -0.2868   -1.4876    0.5897 Cl  0  0  0  0  0  0  0  0  0  0  0  0
    0.9118    8.7400    1.4150 H   0  0  0  0  0  0  0  0  0  0  0  0
    0.9342    6.8125   -1.5532 H   0  0  0  0  0  0  0  0  0  0  0  0
   -0.4684    5.8935   -0.9370 H   0  0  0  0  0  0  0  0  0  0  0  0
    0.6879    7.6768    4.0652 H   0  0  0  0  0  0  0  0  0  0  0  0
    2.3188    7.2018    4.5642 H   0  0  0  0  0  0  0  0  0  0  0  0
    2.1022    8.5465    3.4331 H   0  0  0  0  0  0  0  0  0  0  0  0
    2.9244    3.8799   -1.1288 H   0  0  0  0  0  0  0  0  0  0  0  0
    3.2448    3.7499    1.8433 H   0  0  0  0  0  0  0  0  0  0  0  0
    3.2363    1.6874   -0.0738 H   0  0  0  0  0  0  0  0  0  0  0  0
   -0.6985    3.1248   -0.6419 H   0  0  0  0  0  0  0  0  0  0  0  0
    2.3619   -0.4816    0.4730 H   0  0  0  0  0  0  0  0  0  0  0  0
   -1.5649    0.9478   -0.1193 H   0  0  0  0  0  0  0  0  0  0  0  0
  1  2  1  0  0  0  0 
  2  3  2  0  0  0  0 
  2  4  1  0  0  0  0 
  3  5  1  0  0  0  0 
  3  6  1  0  0  0  0 
  4  7  1  0  0  0  0 
  4  8  2  0  0  0  0 
  9  5  1  0  0  0  0 
  5 10  2  0  0  0  0 
  6 11  1  0  0  0  0 
  8 10  1  0  0  0  0 
  9 11  1  0  0  0  0 
  9 12  1  0  0  0  0 
 12 13  2  0  0  0  0 
 12 14  1  0  0  0  0 
 13 15  1  0  0  0  0 
 14 16  2  0  0  0  0 
 15 17  2  0  0  0  0 
 16 17  1  0  0  0  0 
 17 18  1  0  0  0  0 
  1 19  1  0  0  0  0 
  6 20  1  0  0  0  0 
  6 21  1  0  0  0  0 
  7 22  1  0  0  0  0 
  7 23  1  0  0  0  0 
  7 24  1  0  0  0  0 
  9 25  1  0  0  0  0 
 10 26  1  0  0  0  0 
 13 27  1  0  0  0  0 
 14 28  1  0  0  0  0 
 15 29  1  0  0  0  0 
 16 30  1  0  0  0  0 
M  END
> <cdk:Title>
cicletanine

> <Conformer>
1

> <SuperDrugID>
SD000555

$$$$
