codeine
  CDK     0628171802

 43 47  0  0  0  0  0  0  0  0999 V2000
   -3.4271    3.8103    1.8255 O   0  0  0  0  0  0  0  0  0  0  0  0
   -2.1565    4.3709    2.1595 C   0  0  2  0  0  0  0  0  0  0  0  0
   -1.0136    3.7094    1.3031 C   0  0  1  0  0  0  0  0  0  0  0  0
   -1.9599    4.3361    3.6054 C   0  0  0  0  0  0  0  0  0  0  0  0
    0.3486    3.5629    2.0676 C   0  0  2  0  0  0  0  0  0  0  0  0
   -1.3719    2.3835    0.8232 O   0  0  0  0  0  0  0  0  0  0  0  0
   -0.7445    4.3566    4.1776 C   0  0  0  0  0  0  0  0  0  0  0  0
    0.2120    2.1551    2.4421 C   0  0  0  0  0  0  0  0  0  0  0  0
    0.4803    4.4042    3.3820 C   0  0  1  0  0  0  0  0  0  0  0  0
    1.6011    3.7997    1.1574 C   0  0  1  0  0  0  0  0  0  0  0  0
   -0.7539    1.5239    1.6736 C   0  0  0  0  0  0  0  0  0  0  0  0
    0.8458    1.5262    3.5318 C   0  0  0  0  0  0  0  0  0  0  0  0
    1.7684    3.8787    4.1191 C   0  0  1  0  0  0  0  0  0  0  0  0
    2.9508    3.6037    1.9002 C   0  0  1  0  0  0  0  0  0  0  0  0
   -1.0287    0.1557    1.8635 C   0  0  0  0  0  0  0  0  0  0  0  0
    1.6797    2.3394    4.4654 C   0  0  2  0  0  0  0  0  0  0  0  0
    0.5645    0.1560    3.7391 C   0  0  0  0  0  0  0  0  0  0  0  0
    2.9462    4.2392    3.2532 N   0  0  2  0  0  0  0  0  0  0  0  0
   -1.8982   -0.4854    1.0215 O   0  0  0  0  0  0  0  0  0  0  0  0
   -0.3523   -0.5245    2.9050 C   0  0  0  0  0  0  0  0  0  0  0  0
    4.2811    4.2386    3.9207 C   0  0  0  0  0  0  0  0  0  0  0  0
   -3.1817   -0.7791    1.5980 C   0  0  0  0  0  0  0  0  0  0  0  0
    0.6247    5.4555    3.1131 H   0  0  0  0  0  0  0  0  0  0  0  0
   -0.8790    4.3371    0.4154 H   0  0  0  0  0  0  0  0  0  0  0  0
    1.8591    4.4401    5.0555 H   0  0  0  0  0  0  0  0  0  0  0  0
   -3.3719    2.8696    2.0962 H   0  0  0  0  0  0  0  0  0  0  0  0
   -2.2187    5.4298    1.8919 H   0  0  0  0  0  0  0  0  0  0  0  0
   -2.7590    4.3233    4.1967 H   0  0  0  0  0  0  0  0  0  0  0  0
   -0.6814    4.3489    5.1693 H   0  0  0  0  0  0  0  0  0  0  0  0
    1.5762    3.1364    0.2898 H   0  0  0  0  0  0  0  0  0  0  0  0
    1.5666    4.8267    0.7840 H   0  0  0  0  0  0  0  0  0  0  0  0
    3.1705    2.5383    1.9902 H   0  0  0  0  0  0  0  0  0  0  0  0
    3.7401    4.0513    1.2885 H   0  0  0  0  0  0  0  0  0  0  0  0
    2.6768    1.9020    4.5173 H   0  0  0  0  0  0  0  0  0  0  0  0
    1.2377    2.2458    5.4607 H   0  0  0  0  0  0  0  0  0  0  0  0
    1.0096   -0.3505    4.5085 H   0  0  0  0  0  0  0  0  0  0  0  0
   -0.5409   -1.5148    3.0703 H   0  0  0  0  0  0  0  0  0  0  0  0
    5.0243    4.7013    3.2647 H   0  0  0  0  0  0  0  0  0  0  0  0
    4.6068    3.2205    4.1478 H   0  0  0  0  0  0  0  0  0  0  0  0
    4.2536    4.8225    4.8454 H   0  0  0  0  0  0  0  0  0  0  0  0
   -3.8083   -1.2192    0.8204 H   0  0  0  0  0  0  0  0  0  0  0  0
   -3.6728    0.1273    1.9608 H   0  0  0  0  0  0  0  0  0  0  0  0
   -3.0910   -1.5024    2.4118 H   0  0  0  0  0  0  0  0  0  0  0  0
  2  1  1  0  0  0  0 
  3  2  1  0  0  0  0 
  2  4  1  0  0  0  0 
  5  3  1  0  0  0  0 
  3  6  1  0  0  0  0 
  3 24  1  0  0  0  0 
  4  7  2  0  0  0  0 
  5  8  1  0  0  0  0 
  9  5  1  0  0  0  0 
  5 10  1  0  0  0  0 
  6 11  1  0  0  0  0 
  9  7  1  0  0  0  0 
  8 11  2  0  0  0  0 
  8 12  1  0  0  0  0 
 13  9  1  0  0  0  0 
  9 23  1  0  0  0  0 
 10 14  1  0  0  0  0 
 11 15  1  0  0  0  0 
 12 16  1  0  0  0  0 
 12 17  2  0  0  0  0 
 13 16  1  0  0  0  0 
 13 18  1  0  0  0  0 
 13 25  1  0  0  0  0 
 14 18  1  0  0  0  0 
 15 19  1  0  0  0  0 
 15 20  2  0  0  0  0 
 17 20  1  0  0  0  0 
 18 21  1  0  0  0  0 
 19 22  1  0  0  0  0 
  1 26  1  0  0  0  0 
  2 27  1  0  0  0  0 
  4 28  1  0  0  0  0 
  7 29  1  0  0  0  0 
 10 30  1  0  0  0  0 
 10 31  1  0  0  0  0 
 14 32  1  0  0  0  0 
 14 33  1  0  0  0  0 
 16 34  1  0  0  0  0 
 16 35  1  0  0  0  0 
 17 36  1  0  0  0  0 
 20 37  1  0  0  0  0 
 21 38  1  0  0  0  0 
 21 39  1  0  0  0  0 
 21 40  1  0  0  0  0 
 22 41  1  0  0  0  0 
 22 42  1  0  0  0  0 
 22 43  1  0  0  0  0 
M  END
> <cdk:Title>
codeine

> <Conformer>
1

> <SuperDrugID>
SD000641

$$$$
