fingolimod
  CDK     0628171801

 55 55  0  0  0  0  0  0  0  0999 V2000
   -4.1045    5.1958   -7.4302 C   0  0  2  0  0  0  0  0  0  0  0  0
   -3.6429    5.8931   -6.1219 C   0  0  2  0  0  0  0  0  0  0  0  0
   -2.2886    5.3347   -5.6115 C   0  0  2  0  0  0  0  0  0  0  0  0
   -1.8003    6.0123   -4.3048 C   0  0  1  0  0  0  0  0  0  0  0  0
   -0.4432    5.4284   -3.8260 C   0  0  1  0  0  0  0  0  0  0  0  0
    0.0616    6.0954   -2.5222 C   0  0  1  0  0  0  0  0  0  0  0  0
    1.4204    5.5277   -2.0304 C   0  0  2  0  0  0  0  0  0  0  0  0
    1.8445    6.2135   -0.7800 C   0  0  0  0  0  0  0  0  0  0  0  0
    1.7923    6.4044    1.6629 C   0  0  0  0  0  0  0  0  0  0  0  0
    1.4337    5.7289    0.4812 C   0  0  0  0  0  0  0  0  0  0  0  0
    2.6255    7.3912   -0.8339 C   0  0  0  0  0  0  0  0  0  0  0  0
    2.9843    8.0647    0.3471 C   0  0  0  0  0  0  0  0  0  0  0  0
    2.5821    7.5756    1.6121 C   0  0  0  0  0  0  0  0  0  0  0  0
   -5.4514    5.7411   -7.9506 C   0  0  0  0  0  0  0  0  0  0  0  0
    2.9867    8.2716    2.8638 C   0  0  2  0  0  0  0  0  0  0  0  0
    1.9335    9.3186    3.3319 C   0  0  2  0  0  0  0  0  0  0  0  0
    2.2699   10.1134    4.6472 C   0  0  2  0  0  0  0  0  0  0  0  0
    1.1539   11.1780    4.9168 C   0  0  2  0  0  0  0  0  0  0  0  0
    1.0386   12.1133    3.8469 O   0  0  0  0  0  0  0  0  0  0  0  0
    3.5419   10.8459    4.4839 N   0  0  2  0  0  0  0  0  0  0  0  0
    2.4089    9.1648    5.8809 C   0  0  2  0  0  0  0  0  0  0  0  0
    2.6455    9.8778    7.0893 O   0  0  0  0  0  0  0  0  0  0  0  0
   -4.2071    4.1215   -7.2517 H   0  0  0  0  0  0  0  0  0  0  0  0
   -3.3457    5.3397   -8.2049 H   0  0  0  0  0  0  0  0  0  0  0  0
   -4.4037    5.7475   -5.3490 H   0  0  0  0  0  0  0  0  0  0  0  0
   -3.5409    6.9674   -6.3037 H   0  0  0  0  0  0  0  0  0  0  0  0
   -1.5324    5.4806   -6.3884 H   0  0  0  0  0  0  0  0  0  0  0  0
   -2.3950    4.2606   -5.4337 H   0  0  0  0  0  0  0  0  0  0  0  0
   -1.6904    7.0869   -4.4776 H   0  0  0  0  0  0  0  0  0  0  0  0
   -2.5518    5.8672   -3.5231 H   0  0  0  0  0  0  0  0  0  0  0  0
   -0.5583    4.3545   -3.6550 H   0  0  0  0  0  0  0  0  0  0  0  0
    0.3036    5.5731   -4.6116 H   0  0  0  0  0  0  0  0  0  0  0  0
    0.1676    7.1703   -2.6978 H   0  0  0  0  0  0  0  0  0  0  0  0
   -0.6911    5.9495   -1.7414 H   0  0  0  0  0  0  0  0  0  0  0  0
    2.1791    5.6594   -2.8076 H   0  0  0  0  0  0  0  0  0  0  0  0
    1.3293    4.4516   -1.8557 H   0  0  0  0  0  0  0  0  0  0  0  0
    1.4726    6.0354    2.5622 H   0  0  0  0  0  0  0  0  0  0  0  0
    0.8627    4.8818    0.5464 H   0  0  0  0  0  0  0  0  0  0  0  0
    2.9302    7.7695   -1.7356 H   0  0  0  0  0  0  0  0  0  0  0  0
    3.5410    8.9208    0.2792 H   0  0  0  0  0  0  0  0  0  0  0  0
   -5.7312    5.2209   -8.8681 H   0  0  0  0  0  0  0  0  0  0  0  0
   -6.2354    5.5847   -7.2077 H   0  0  0  0  0  0  0  0  0  0  0  0
   -5.3703    6.8080   -8.1651 H   0  0  0  0  0  0  0  0  0  0  0  0
    3.9506    8.7632    2.7077 H   0  0  0  0  0  0  0  0  0  0  0  0
    3.1380    7.5219    3.6436 H   0  0  0  0  0  0  0  0  0  0  0  0
    0.9762    8.8076    3.4707 H   0  0  0  0  0  0  0  0  0  0  0  0
    1.7964   10.0280    2.5100 H   0  0  0  0  0  0  0  0  0  0  0  0
    1.3662   11.7519    5.8237 H   0  0  0  0  0  0  0  0  0  0  0  0
    0.1843   10.6891    5.0504 H   0  0  0  0  0  0  0  0  0  0  0  0
    0.3277   12.7255    4.1263 H   0  0  0  0  0  0  0  0  0  0  0  0
    4.2825   10.1629    4.3202 H   0  0  0  0  0  0  0  0  0  0  0  0
    3.7526   11.2940    5.3781 H   0  0  0  0  0  0  0  0  0  0  0  0
    3.2530    8.4849    5.7527 H   0  0  0  0  0  0  0  0  0  0  0  0
    1.5029    8.5665    6.0069 H   0  0  0  0  0  0  0  0  0  0  0  0
    2.7624    9.1804    7.7656 H   0  0  0  0  0  0  0  0  0  0  0  0
  1  2  1  0  0  0  0 
  2  3  1  0  0  0  0 
  3  4  1  0  0  0  0 
  4  5  1  0  0  0  0 
  5  6  1  0  0  0  0 
  6  7  1  0  0  0  0 
  7  8  1  0  0  0  0 
 10  8  2  0  0  0  0 
  8 11  1  0  0  0  0 
  9 10  1  0  0  0  0 
  9 13  2  0  0  0  0 
 11 12  2  0  0  0  0 
 12 13  1  0  0  0  0 
  1 14  1  0  0  0  0 
 13 15  1  0  0  0  0 
 15 16  1  0  0  0  0 
 16 17  1  0  0  0  0 
 17 18  1  0  0  0  0 
 18 19  1  0  0  0  0 
 17 20  1  0  0  0  0 
 17 21  1  0  0  0  0 
 21 22  1  0  0  0  0 
  1 23  1  0  0  0  0 
  1 24  1  0  0  0  0 
  2 25  1  0  0  0  0 
  2 26  1  0  0  0  0 
  3 27  1  0  0  0  0 
  3 28  1  0  0  0  0 
  4 29  1  0  0  0  0 
  4 30  1  0  0  0  0 
  5 31  1  0  0  0  0 
  5 32  1  0  0  0  0 
  6 33  1  0  0  0  0 
  6 34  1  0  0  0  0 
  7 35  1  0  0  0  0 
  7 36  1  0  0  0  0 
  9 37  1  0  0  0  0 
 10 38  1  0  0  0  0 
 11 39  1  0  0  0  0 
 12 40  1  0  0  0  0 
 14 41  1  0  0  0  0 
 14 42  1  0  0  0  0 
 14 43  1  0  0  0  0 
 15 44  1  0  0  0  0 
 15 45  1  0  0  0  0 
 16 46  1  0  0  0  0 
 16 47  1  0  0  0  0 
 18 48  1  0  0  0  0 
 18 49  1  0  0  0  0 
 19 50  1  0  0  0  0 
 20 51  1  0  0  0  0 
 20 52  1  0  0  0  0 
 21 53  1  0  0  0  0 
 21 54  1  0  0  0  0 
 22 55  1  0  0  0  0 
M  END
> <cdk:Title>
fingolimod

> <Conformer>
1

> <SuperDrugID>
SD003399

$$$$
