sofalcone
  CDK     0628171801

 63 64  0  0  0  0  0  0  0  0999 V2000
   -5.6594   -3.1437   -2.3967 O   0  0  0  0  0  0  0  0  0  0  0  0
   -6.2173   -2.1438   -3.2659 C   0  0  1  0  0  0  0  0  0  0  0  0
   -4.2887   -3.2026   -2.4066 C   0  0  0  0  0  0  0  0  0  0  0  0
   -7.6803   -2.2676   -3.2108 C   0  0  0  0  0  0  0  0  0  0  0  0
   -3.5745   -4.1293   -3.2233 C   0  0  0  0  0  0  0  0  0  0  0  0
   -3.6008   -2.3408   -1.5245 C   0  0  0  0  0  0  0  0  0  0  0  0
   -8.3897   -2.5686   -4.3227 O   0  0  0  0  0  0  0  0  0  0  0  0
   -8.2925   -2.0946   -2.1327 O   0  0  0  0  0  0  0  0  0  0  0  0
   -4.2396   -5.0132   -4.1431 C   0  0  0  0  0  0  0  0  0  0  0  0
   -2.1603   -4.1695   -3.0801 C   0  0  0  0  0  0  0  0  0  0  0  0
   -2.1991   -2.3841   -1.4246 C   0  0  0  0  0  0  0  0  0  0  0  0
   -3.6183   -5.5554   -5.2751 C   0  0  0  0  0  0  0  0  0  0  0  0
   -5.4342   -5.3257   -3.9203 O   0  0  0  0  0  0  0  0  0  0  0  0
   -1.4822   -3.3063   -2.2040 C   0  0  0  0  0  0  0  0  0  0  0  0
   -1.5360   -1.5694   -0.5487 O   0  0  0  0  0  0  0  0  0  0  0  0
   -4.0345   -6.6511   -5.9417 C   0  0  0  0  0  0  0  0  0  0  0  0
   -1.1223   -0.3207   -1.1333 C   0  0  1  0  0  0  0  0  0  0  0  0
   -3.3924   -7.2572   -7.0310 C   0  0  0  0  0  0  0  0  0  0  0  0
   -0.3343    0.4133   -0.1579 C   0  0  0  0  0  0  0  0  0  0  0  0
   -4.1379   -8.1141   -7.8825 C   0  0  0  0  0  0  0  0  0  0  0  0
   -2.0062   -7.1047   -7.3050 C   0  0  0  0  0  0  0  0  0  0  0  0
    0.9206    0.1004    0.2424 C   0  0  0  0  0  0  0  0  0  0  0  0
   -3.5210   -8.8210   -8.9322 C   0  0  0  0  0  0  0  0  0  0  0  0
   -1.3879   -7.8109   -8.3524 C   0  0  0  0  0  0  0  0  0  0  0  0
    1.6089    0.9390    1.2254 C   0  0  0  0  0  0  0  0  0  0  0  0
    1.6385   -1.0629   -0.2826 C   0  0  0  0  0  0  0  0  0  0  0  0
   -2.1360   -8.6961   -9.1489 C   0  0  0  0  0  0  0  0  0  0  0  0
   -1.5136   -9.4361  -10.1154 O   0  0  0  0  0  0  0  0  0  0  0  0
   -1.0628  -10.7132   -9.6151 C   0  0  1  0  0  0  0  0  0  0  0  0
   -0.2919  -11.3929  -10.6398 C   0  0  0  0  0  0  0  0  0  0  0  0
    0.9067  -10.9919  -11.1255 C   0  0  0  0  0  0  0  0  0  0  0  0
    1.5813  -11.7850  -12.1553 C   0  0  0  0  0  0  0  0  0  0  0  0
    1.5794   -9.7725  -10.6674 C   0  0  0  0  0  0  0  0  0  0  0  0
   -5.9354   -1.1388   -2.9395 H   0  0  0  0  0  0  0  0  0  0  0  0
   -5.8758   -2.2905   -4.2943 H   0  0  0  0  0  0  0  0  0  0  0  0
   -4.1243   -1.6796   -0.9445 H   0  0  0  0  0  0  0  0  0  0  0  0
   -9.3654   -2.6487   -4.2747 H   0  0  0  0  0  0  0  0  0  0  0  0
   -1.5963   -4.8435   -3.6034 H   0  0  0  0  0  0  0  0  0  0  0  0
   -2.8045   -5.0918   -5.6046 H   0  0  0  0  0  0  0  0  0  0  0  0
   -0.4622   -3.3552   -2.1298 H   0  0  0  0  0  0  0  0  0  0  0  0
   -4.8718   -7.0872   -5.6258 H   0  0  0  0  0  0  0  0  0  0  0  0
   -0.5313   -0.4678   -2.0432 H   0  0  0  0  0  0  0  0  0  0  0  0
   -2.0046    0.2678   -1.4031 H   0  0  0  0  0  0  0  0  0  0  0  0
   -0.7792    1.2060    0.2485 H   0  0  0  0  0  0  0  0  0  0  0  0
   -5.1446   -8.2428   -7.7435 H   0  0  0  0  0  0  0  0  0  0  0  0
   -1.4150   -6.5004   -6.7341 H   0  0  0  0  0  0  0  0  0  0  0  0
   -4.0786   -9.4390   -9.5281 H   0  0  0  0  0  0  0  0  0  0  0  0
   -0.3856   -7.6949   -8.5213 H   0  0  0  0  0  0  0  0  0  0  0  0
    1.6896    0.4019    2.1728 H   0  0  0  0  0  0  0  0  0  0  0  0
    1.0980    1.8865    1.4136 H   0  0  0  0  0  0  0  0  0  0  0  0
    2.6136    1.1778    0.8714 H   0  0  0  0  0  0  0  0  0  0  0  0
    1.7228   -1.0025   -1.3687 H   0  0  0  0  0  0  0  0  0  0  0  0
    1.1140   -1.9815   -0.0166 H   0  0  0  0  0  0  0  0  0  0  0  0
    2.6544   -1.1372    0.1130 H   0  0  0  0  0  0  0  0  0  0  0  0
   -0.4445  -10.6120   -8.7173 H   0  0  0  0  0  0  0  0  0  0  0  0
   -1.9284  -11.3274   -9.3470 H   0  0  0  0  0  0  0  0  0  0  0  0
   -0.6990  -12.2258  -11.0035 H   0  0  0  0  0  0  0  0  0  0  0  0
    2.5584  -12.0984  -11.7814 H   0  0  0  0  0  0  0  0  0  0  0  0
    1.0350  -12.6877  -12.4438 H   0  0  0  0  0  0  0  0  0  0  0  0
    1.7285  -11.1827  -13.0559 H   0  0  0  0  0  0  0  0  0  0  0  0
    2.6640   -9.7701  -11.0049 H   0  0  0  0  0  0  0  0  0  0  0  0
    0.9387   -8.8859  -10.9675 H   0  0  0  0  0  0  0  0  0  0  0  0
    1.6337   -9.7803   -9.5793 H   0  0  0  0  0  0  0  0  0  0  0  0
  1  2  1  0  0  0  0 
  1  3  1  0  0  0  0 
  2  4  1  0  0  0  0 
  3  5  2  0  0  0  0 
  3  6  1  0  0  0  0 
  4  7  1  0  0  0  0 
  4  8  2  0  0  0  0 
  5  9  1  0  0  0  0 
  5 10  1  0  0  0  0 
  6 11  2  0  0  0  0 
  9 12  1  0  0  0  0 
  9 13  2  0  0  0  0 
 10 14  2  0  0  0  0 
 11 14  1  0  0  0  0 
 11 15  1  0  0  0  0 
 12 16  2  0  0  0  0 
 15 17  1  0  0  0  0 
 16 18  1  0  0  0  0 
 17 19  1  0  0  0  0 
 18 20  2  0  0  0  0 
 18 21  1  0  0  0  0 
 19 22  2  0  0  0  0 
 20 23  1  0  0  0  0 
 21 24  2  0  0  0  0 
 22 25  1  0  0  0  0 
 22 26  1  0  0  0  0 
 23 27  2  0  0  0  0 
 24 27  1  0  0  0  0 
 27 28  1  0  0  0  0 
 28 29  1  0  0  0  0 
 29 30  1  0  0  0  0 
 30 31  2  0  0  0  0 
 31 32  1  0  0  0  0 
 31 33  1  0  0  0  0 
  2 34  1  0  0  0  0 
  2 35  1  0  0  0  0 
  6 36  1  0  0  0  0 
  7 37  1  0  0  0  0 
 10 38  1  0  0  0  0 
 12 39  1  0  0  0  0 
 14 40  1  0  0  0  0 
 16 41  1  0  0  0  0 
 17 42  1  0  0  0  0 
 17 43  1  0  0  0  0 
 19 44  1  0  0  0  0 
 20 45  1  0  0  0  0 
 21 46  1  0  0  0  0 
 23 47  1  0  0  0  0 
 24 48  1  0  0  0  0 
 25 49  1  0  0  0  0 
 25 50  1  0  0  0  0 
 25 51  1  0  0  0  0 
 26 52  1  0  0  0  0 
 26 53  1  0  0  0  0 
 26 54  1  0  0  0  0 
 29 55  1  0  0  0  0 
 29 56  1  0  0  0  0 
 30 57  1  0  0  0  0 
 32 58  1  0  0  0  0 
 32 59  1  0  0  0  0 
 32 60  1  0  0  0  0 
 33 61  1  0  0  0  0 
 33 62  1  0  0  0  0 
 33 63  1  0  0  0  0 
M  END
> <cdk:Title>
sofalcone

> <Conformer>
1

> <SuperDrugID>
SD002206

$$$$
