balofloxacin
  CDK     0628171801

 52 55  0  0  0  0  0  0  0  0999 V2000
    2.5971    2.9845    2.0058 O   0  0  0  0  0  0  0  0  0  0  0  0
    3.2759    3.0608    0.7369 C   0  0  0  0  0  0  0  0  0  0  0  0
    1.3612    3.5797    1.9828 C   0  0  0  0  0  0  0  0  0  0  0  0
    1.1983    4.9784    2.2228 C   0  0  0  0  0  0  0  0  0  0  0  0
    0.2600    2.7512    1.6478 C   0  0  0  0  0  0  0  0  0  0  0  0
    2.1924    5.7938    2.7332 N   0  0  0  0  0  0  0  0  0  0  0  0
   -0.0595    5.5659    1.8849 C   0  0  0  0  0  0  0  0  0  0  0  0
   -1.0014    3.3447    1.4367 C   0  0  0  0  0  0  0  0  0  0  0  0
    0.4333    1.3898    1.5045 N   0  0  0  0  0  0  0  0  0  0  0  0
    2.0869    7.1571    2.6601 C   0  0  0  0  0  0  0  0  0  0  0  0
    3.3953    5.2999    3.3715 C   0  0  1  0  0  0  0  0  0  0  0  0
   -0.1867    6.9796    1.8954 C   0  0  0  0  0  0  0  0  0  0  0  0
   -1.1501    4.7371    1.5230 C   0  0  0  0  0  0  0  0  0  0  0  0
   -2.0454    2.6192    1.1382 F   0  0  0  0  0  0  0  0  0  0  0  0
    0.3171    0.7505    0.2118 C   0  0  1  0  0  0  0  0  0  0  0  0
    0.7662    0.5624    2.6429 C   0  0  2  0  0  0  0  0  0  0  0  0
    0.9115    7.8085    2.2317 C   0  0  0  0  0  0  0  0  0  0  0  0
    3.6318    5.7405    4.8368 C   0  0  2  0  0  0  0  0  0  0  0  0
    3.3171    4.2810    4.5285 C   0  0  1  0  0  0  0  0  0  0  0  0
   -1.2862    7.5011    1.5859 O   0  0  0  0  0  0  0  0  0  0  0  0
   -0.6787   -0.4481    0.2506 C   0  0  1  0  0  0  0  0  0  0  0  0
   -0.2259   -0.6216    2.7712 C   0  0  2  0  0  0  0  0  0  0  0  0
    0.8679    9.2358    2.1679 C   0  0  0  0  0  0  0  0  0  0  0  0
   -0.6288   -1.2537   -0.9949 N   0  0  1  0  0  0  0  0  0  0  0  0
   -0.3426   -1.3965    1.4353 C   0  0  2  0  0  0  0  0  0  0  0  0
   -0.1774    9.9126    1.6363 O   0  0  0  0  0  0  0  0  0  0  0  0
    1.8096    9.9522    2.5815 O   0  0  0  0  0  0  0  0  0  0  0  0
   -1.3582   -0.7171   -2.1575 C   0  0  0  0  0  0  0  0  0  0  0  0
    4.1801    2.4532    0.7986 H   0  0  0  0  0  0  0  0  0  0  0  0
    2.6633    2.6743   -0.0833 H   0  0  0  0  0  0  0  0  0  0  0  0
    3.5646    4.0881    0.5068 H   0  0  0  0  0  0  0  0  0  0  0  0
    2.8884    7.7352    2.9395 H   0  0  0  0  0  0  0  0  0  0  0  0
    4.3143    5.2852    2.7820 H   0  0  0  0  0  0  0  0  0  0  0  0
   -2.0689    5.1416    1.3187 H   0  0  0  0  0  0  0  0  0  0  0  0
    0.0023    1.4580   -0.5588 H   0  0  0  0  0  0  0  0  0  0  0  0
    1.3052    0.3853   -0.0809 H   0  0  0  0  0  0  0  0  0  0  0  0
    0.7570    1.1267    3.5809 H   0  0  0  0  0  0  0  0  0  0  0  0
    1.7771    0.1683    2.5097 H   0  0  0  0  0  0  0  0  0  0  0  0
    2.8254    6.2711    5.3518 H   0  0  0  0  0  0  0  0  0  0  0  0
    4.6646    5.9163    5.1436 H   0  0  0  0  0  0  0  0  0  0  0  0
    2.3211    3.9474    4.8272 H   0  0  0  0  0  0  0  0  0  0  0  0
    4.1575    3.5866    4.5970 H   0  0  0  0  0  0  0  0  0  0  0  0
   -1.6955   -0.0729    0.4050 H   0  0  0  0  0  0  0  0  0  0  0  0
   -1.2096   -0.2360    3.0513 H   0  0  0  0  0  0  0  0  0  0  0  0
    0.1102   -1.3039    3.5564 H   0  0  0  0  0  0  0  0  0  0  0  0
    0.3532   -1.3465   -1.2621 H   0  0  0  0  0  0  0  0  0  0  0  0
    0.6035   -1.9077    1.2391 H   0  0  0  0  0  0  0  0  0  0  0  0
   -1.1214   -2.1585    1.5287 H   0  0  0  0  0  0  0  0  0  0  0  0
   -0.1624   10.8924    1.6042 H   0  0  0  0  0  0  0  0  0  0  0  0
   -1.1999   -1.3857   -3.0022 H   0  0  0  0  0  0  0  0  0  0  0  0
   -0.9981    0.2749   -2.4326 H   0  0  0  0  0  0  0  0  0  0  0  0
   -2.4279   -0.6760   -1.9418 H   0  0  0  0  0  0  0  0  0  0  0  0
  1  2  1  0  0  0  0 
  1  3  1  0  0  0  0 
  3  4  2  0  0  0  0 
  3  5  1  0  0  0  0 
  4  6  1  0  0  0  0 
  4  7  1  0  0  0  0 
  5  8  2  0  0  0  0 
  5  9  1  0  0  0  0 
  6 10  1  0  0  0  0 
  6 11  1  0  0  0  0 
  7 12  1  0  0  0  0 
  7 13  2  0  0  0  0 
  8 13  1  0  0  0  0 
  8 14  1  0  0  0  0 
  9 15  1  0  0  0  0 
  9 16  1  0  0  0  0 
 10 17  2  0  0  0  0 
 11 18  1  0  0  0  0 
 11 19  1  0  0  0  0 
 12 17  1  0  0  0  0 
 12 20  2  0  0  0  0 
 21 15  1  0  0  0  0 
 16 22  1  0  0  0  0 
 17 23  1  0  0  0  0 
 18 19  1  0  0  0  0 
 21 24  1  0  0  0  0 
 21 25  1  0  0  0  0 
 22 25  1  0  0  0  0 
 23 26  1  0  0  0  0 
 23 27  2  0  0  0  0 
 24 28  1  0  0  0  0 
  2 29  1  0  0  0  0 
  2 30  1  0  0  0  0 
  2 31  1  0  0  0  0 
 10 32  1  0  0  0  0 
 11 33  1  0  0  0  0 
 13 34  1  0  0  0  0 
 15 35  1  0  0  0  0 
 15 36  1  0  0  0  0 
 16 37  1  0  0  0  0 
 16 38  1  0  0  0  0 
 18 39  1  0  0  0  0 
 18 40  1  0  0  0  0 
 19 41  1  0  0  0  0 
 19 42  1  0  0  0  0 
 21 43  1  0  0  0  0 
 22 44  1  0  0  0  0 
 22 45  1  0  0  0  0 
 24 46  1  0  0  0  0 
 25 47  1  0  0  0  0 
 25 48  1  0  0  0  0 
 26 49  1  0  0  0  0 
 28 50  1  0  0  0  0 
 28 51  1  0  0  0  0 
 28 52  1  0  0  0  0 
M  END
> <cdk:Title>
balofloxacin

> <Conformer>
1

> <SuperDrugID>
SD000236

$$$$
