nafarelin
  CDK     0628171801

179186  0  0  0  0  0  0  0  0999 V2000
  -19.2581   -5.8990    5.6970 C   0  0  0  0  0  0  0  0  0  0  0  0
  -17.9182   -5.8772    5.9739 N   0  0  0  0  0  0  0  0  0  0  0  0
  -14.6081   -5.3142    5.1870 N   0  0  0  0  0  0  0  0  0  0  0  0
  -12.8675   -7.6902    5.0198 N   0  0  0  0  0  0  0  0  0  0  0  0
  -10.2196   -9.6276    4.1436 N   0  0  0  0  0  0  0  0  0  0  0  0
   -7.1171   -9.5167    3.6805 N   0  0  0  0  0  0  0  0  0  0  0  0
   -6.2243   -7.1022    1.6873 N   0  0  0  0  0  0  0  0  0  0  0  0
   -4.7723   -4.1489    0.3221 N   0  0  0  0  0  0  0  0  0  0  0  0
   -2.7735   -4.8161    2.6558 N   0  0  0  0  0  0  0  0  0  0  0  0
   -0.2103   -7.1685    3.9578 N   0  0  0  0  0  0  0  0  0  0  0  0
    1.4250   -8.4515    6.0178 N   0  0  0  0  0  0  0  0  0  0  0  0
  -19.8296   -6.9638    6.0301 O   0  0  0  0  0  0  0  0  0  0  0  0
  -20.0927   -4.8418    5.0528 C   0  0  2  0  0  0  0  0  0  0  0  0
  -19.7264   -4.5175    3.5788 C   0  0  2  0  0  0  0  0  0  0  0  0
  -19.6427   -2.9774    3.5021 C   0  0  2  0  0  0  0  0  0  0  0  0
  -19.8119   -2.5619    4.8919 C   0  0  0  0  0  0  0  0  0  0  0  0
  -20.0470   -3.5929    5.7118 N   0  0  0  0  0  0  0  0  0  0  0  0
  -19.7500   -1.3732    5.2784 O   0  0  0  0  0  0  0  0  0  0  0  0
  -15.9276   -5.2162    4.8498 C   0  0  0  0  0  0  0  0  0  0  0  0
  -16.4255   -4.4232    7.2426 C   0  0  1  0  0  0  0  0  0  0  0  0
  -17.4315   -3.7406    8.0780 C   0  0  0  0  0  0  0  0  0  0  0  0
  -18.2256   -4.2884    9.0806 C   0  0  0  0  0  0  0  0  0  0  0  0
  -18.9886   -3.3171    9.6065 N   0  0  0  0  0  0  0  0  0  0  0  0
  -18.6750   -2.1886    8.9466 C   0  0  0  0  0  0  0  0  0  0  0  0
  -17.7427   -2.4391    8.0166 N   0  0  0  0  0  0  0  0  0  0  0  0
  -16.9711   -4.8089    5.8312 C   0  0  2  0  0  0  0  0  0  0  0  0
  -16.2796   -5.4146    3.6622 O   0  0  0  0  0  0  0  0  0  0  0  0
  -12.5130   -6.3794    4.8650 C   0  0  0  0  0  0  0  0  0  0  0  0
  -13.0155   -3.9984    3.9858 C   0  0  1  0  0  0  0  0  0  0  0  0
  -11.9566   -3.8869    2.9577 C   0  0  0  0  0  0  0  0  0  0  0  0
  -10.6285   -3.5156    3.1764 C   0  0  0  0  0  0  0  0  0  0  0  0
   -9.9695   -3.4795    2.0045 N   0  0  0  0  0  0  0  0  0  0  0  0
  -10.8193   -3.8058    1.0196 C   0  0  0  0  0  0  0  0  0  0  0  0
  -12.0707   -4.0716    1.5793 C   0  0  0  0  0  0  0  0  0  0  0  0
  -13.1644   -4.4272    0.7666 C   0  0  0  0  0  0  0  0  0  0  0  0
  -12.9656   -4.5091   -0.6283 C   0  0  0  0  0  0  0  0  0  0  0  0
  -11.6968   -4.2389   -1.1918 C   0  0  0  0  0  0  0  0  0  0  0  0
  -10.6067   -3.8868   -0.3668 C   0  0  0  0  0  0  0  0  0  0  0  0
  -13.5105   -5.4494    4.2743 C   0  0  2  0  0  0  0  0  0  0  0  0
  -11.3694   -5.9769    5.1879 O   0  0  0  0  0  0  0  0  0  0  0  0
  -11.5596   -9.5259    4.3444 C   0  0  0  0  0  0  0  0  0  0  0  0
  -12.8041   -9.6457    6.5236 C   0  0  1  0  0  0  0  0  0  0  0  0
  -11.9533  -10.6921    6.9900 O   0  0  0  0  0  0  0  0  0  0  0  0
  -12.0397   -8.7526    5.5130 C   0  0  2  0  0  0  0  0  0  0  0  0
  -12.3848  -10.0652    3.5670 O   0  0  0  0  0  0  0  0  0  0  0  0
   -8.1204  -10.3983    3.3658 C   0  0  0  0  0  0  0  0  0  0  0  0
   -9.7848   -9.4725    1.6689 C   0  0  2  0  0  0  0  0  0  0  0  0
   -9.4438  -10.3283    0.4995 C   0  0  0  0  0  0  0  0  0  0  0  0
  -10.4431  -11.0671   -0.1772 C   0  0  0  0  0  0  0  0  0  0  0  0
  -10.1129  -11.8809   -1.2766 C   0  0  0  0  0  0  0  0  0  0  0  0
   -8.7786  -11.9696   -1.7155 C   0  0  0  0  0  0  0  0  0  0  0  0
   -8.4745  -12.7631   -2.7729 O   0  0  0  0  0  0  0  0  0  0  0  0
   -7.7747  -11.2402   -1.0490 C   0  0  0  0  0  0  0  0  0  0  0  0
   -8.1054  -10.4348    0.0560 C   0  0  0  0  0  0  0  0  0  0  0  0
   -9.5602  -10.2113    3.0245 C   0  0  2  0  0  0  0  0  0  0  0  0
   -7.7153  -11.5842    3.3771 O   0  0  0  0  0  0  0  0  0  0  0  0
   -5.9070   -7.6663    2.8899 C   0  0  0  0  0  0  0  0  0  0  0  0
   -8.1645   -7.1017    3.9598 C   0  0  2  0  0  0  0  0  0  0  0  0
   -6.9599   -8.0943    3.8553 C   0  0  1  0  0  0  0  0  0  0  0  0
   -4.7084   -7.8664    3.1976 O   0  0  0  0  0  0  0  0  0  0  0  0
   -7.8341   -5.8175    4.6461 C   0  0  0  0  0  0  0  0  0  0  0  0
   -7.8908   -5.7255    6.0572 C   0  0  0  0  0  0  0  0  0  0  0  0
   -7.6645   -4.4988    6.7212 C   0  0  0  0  0  0  0  0  0  0  0  0
   -7.3455   -3.3382    5.9598 C   0  0  0  0  0  0  0  0  0  0  0  0
   -7.2465   -3.4378    4.5554 C   0  0  0  0  0  0  0  0  0  0  0  0
   -7.4942   -4.6621    3.9096 C   0  0  0  0  0  0  0  0  0  0  0  0
   -7.7640   -4.4024    8.1277 C   0  0  0  0  0  0  0  0  0  0  0  0
   -7.5673   -3.1672    8.7713 C   0  0  0  0  0  0  0  0  0  0  0  0
   -7.2587   -2.0205    8.0195 C   0  0  0  0  0  0  0  0  0  0  0  0
   -7.1411   -2.1051    6.6208 C   0  0  0  0  0  0  0  0  0  0  0  0
   -5.6286   -5.2132    0.3935 C   0  0  0  0  0  0  0  0  0  0  0  0
   -3.1236   -7.9817   -1.4314 C   0  0  0  0  0  0  0  0  0  0  0  0
   -5.6005   -7.5491   -0.6321 C   0  0  2  0  0  0  0  0  0  0  0  0
   -5.3259   -6.6487    0.6542 C   0  0  2  0  0  0  0  0  0  0  0  0
   -5.0375   -7.9214   -3.1137 C   0  0  0  0  0  0  0  0  0  0  0  0
   -4.5022   -7.3443   -1.7755 C   0  0  2  0  0  0  0  0  0  0  0  0
   -6.8270   -4.8921    0.2126 O   0  0  0  0  0  0  0  0  0  0  0  0
   -2.5408   -4.7972    1.2894 C   0  0  0  0  0  0  0  0  0  0  0  0
   -2.9286   -2.5670    0.1908 C   0  0  1  0  0  0  0  0  0  0  0  0
   -1.4064   -2.2774   -0.0011 C   0  0  2  0  0  0  0  0  0  0  0  0
   -1.1159   -0.7564   -0.0342 C   0  0  1  0  0  0  0  0  0  0  0  0
    0.2363   -0.4787   -0.2478 N   0  0  0  0  0  0  0  0  0  0  0  0
    0.8071    0.6737   -0.2658 C   0  0  0  0  0  0  0  0  0  0  0  0
    0.1563    1.8058   -0.0674 N   0  0  0  0  0  0  0  0  0  0  0  0
    2.1006    0.7285   -0.4924 N   0  0  0  0  0  0  0  0  0  0  0  0
   -3.3362   -4.0782    0.2479 C   0  0  2  0  0  0  0  0  0  0  0  0
   -1.5157   -5.3723    0.8456 O   0  0  0  0  0  0  0  0  0  0  0  0
   -1.3643   -6.7706    3.3566 C   0  0  0  0  0  0  0  0  0  0  0  0
   -1.8480   -5.3871    3.6077 C   0  0  2  0  0  0  0  0  0  0  0  0
   -2.5612   -5.2913    4.9741 C   0  0  2  0  0  0  0  0  0  0  0  0
   -3.5262   -4.1190    4.7810 C   0  0  2  0  0  0  0  0  0  0  0  0
   -3.9110   -4.2325    3.2978 C   0  0  1  0  0  0  0  0  0  0  0  0
   -1.9938   -7.5340    2.5861 O   0  0  0  0  0  0  0  0  0  0  0  0
    0.6817   -9.0642    5.0783 C   0  0  0  0  0  0  0  0  0  0  0  0
    0.4451   -8.4239    3.7749 C   0  0  1  0  0  0  0  0  0  0  0  0
    0.2004  -10.1918    5.3329 O   0  0  0  0  0  0  0  0  0  0  0  0
  -17.5600   -6.7015    6.3380 H   0  0  0  0  0  0  0  0  0  0  0  0
  -14.3790   -5.2083    6.1226 H   0  0  0  0  0  0  0  0  0  0  0  0
  -13.7652   -7.9308    4.7415 H   0  0  0  0  0  0  0  0  0  0  0  0
   -9.6539   -9.2683    4.8395 H   0  0  0  0  0  0  0  0  0  0  0  0
   -6.2813   -9.9805    3.8530 H   0  0  0  0  0  0  0  0  0  0  0  0
   -7.1703   -6.9912    1.5040 H   0  0  0  0  0  0  0  0  0  0  0  0
   -5.2196   -3.2917    0.2334 H   0  0  0  0  0  0  0  0  0  0  0  0
    0.2167   -6.5312    4.5529 H   0  0  0  0  0  0  0  0  0  0  0  0
    1.5772   -8.8864    6.8721 H   0  0  0  0  0  0  0  0  0  0  0  0
    1.8042   -7.5726    5.8446 H   0  0  0  0  0  0  0  0  0  0  0  0
  -21.1414   -5.1518    5.0822 H   0  0  0  0  0  0  0  0  0  0  0  0
  -20.4897   -4.8971    2.8932 H   0  0  0  0  0  0  0  0  0  0  0  0
  -18.7703   -4.9564    3.2846 H   0  0  0  0  0  0  0  0  0  0  0  0
  -20.4428   -2.5594    2.8884 H   0  0  0  0  0  0  0  0  0  0  0  0
  -18.6733   -2.6508    3.1168 H   0  0  0  0  0  0  0  0  0  0  0  0
  -20.1999   -3.4918    6.6657 H   0  0  0  0  0  0  0  0  0  0  0  0
  -15.5781   -3.7363    7.1480 H   0  0  0  0  0  0  0  0  0  0  0  0
  -16.0643   -5.3145    7.7634 H   0  0  0  0  0  0  0  0  0  0  0  0
  -18.2276   -5.2669    9.3744 H   0  0  0  0  0  0  0  0  0  0  0  0
  -19.0864   -1.2723    9.1288 H   0  0  0  0  0  0  0  0  0  0  0  0
  -17.3556   -1.7879    7.4084 H   0  0  0  0  0  0  0  0  0  0  0  0
  -17.4327   -3.9135    5.4141 H   0  0  0  0  0  0  0  0  0  0  0  0
  -12.6726   -3.5449    4.9207 H   0  0  0  0  0  0  0  0  0  0  0  0
  -13.8600   -3.3968    3.6350 H   0  0  0  0  0  0  0  0  0  0  0  0
  -10.2171   -3.3018    4.0871 H   0  0  0  0  0  0  0  0  0  0  0  0
   -9.0331   -3.2503    1.8906 H   0  0  0  0  0  0  0  0  0  0  0  0
  -14.0838   -4.6185    1.1714 H   0  0  0  0  0  0  0  0  0  0  0  0
  -13.7467   -4.7666   -1.2354 H   0  0  0  0  0  0  0  0  0  0  0  0
  -11.5677   -4.2975   -2.2040 H   0  0  0  0  0  0  0  0  0  0  0  0
   -9.6865   -3.6907   -0.7656 H   0  0  0  0  0  0  0  0  0  0  0  0
  -13.8357   -5.8952    3.3304 H   0  0  0  0  0  0  0  0  0  0  0  0
  -13.6926  -10.0877    6.0671 H   0  0  0  0  0  0  0  0  0  0  0  0
  -13.1194   -9.0513    7.3850 H   0  0  0  0  0  0  0  0  0  0  0  0
  -12.4989  -11.2091    7.6175 H   0  0  0  0  0  0  0  0  0  0  0  0
  -11.1830   -8.3389    6.0554 H   0  0  0  0  0  0  0  0  0  0  0  0
  -10.8298   -9.1590    1.5908 H   0  0  0  0  0  0  0  0  0  0  0  0
   -9.1955   -8.5603    1.6208 H   0  0  0  0  0  0  0  0  0  0  0  0
  -11.4177  -11.0234    0.1288 H   0  0  0  0  0  0  0  0  0  0  0  0
  -10.8462  -12.4100   -1.7562 H   0  0  0  0  0  0  0  0  0  0  0  0
   -7.4997  -12.7146   -2.8673 H   0  0  0  0  0  0  0  0  0  0  0  0
   -6.8024  -11.2966   -1.3657 H   0  0  0  0  0  0  0  0  0  0  0  0
   -7.3624   -9.9283    0.5394 H   0  0  0  0  0  0  0  0  0  0  0  0
  -10.0187  -11.2041    2.9145 H   0  0  0  0  0  0  0  0  0  0  0  0
   -8.9636   -7.5477    4.5348 H   0  0  0  0  0  0  0  0  0  0  0  0
   -8.5841   -6.8849    2.9788 H   0  0  0  0  0  0  0  0  0  0  0  0
   -6.5010   -8.0655    4.8486 H   0  0  0  0  0  0  0  0  0  0  0  0
   -8.1175   -6.5616    6.6046 H   0  0  0  0  0  0  0  0  0  0  0  0
   -7.0034   -2.6195    3.9906 H   0  0  0  0  0  0  0  0  0  0  0  0
   -7.4327   -4.7021    2.8914 H   0  0  0  0  0  0  0  0  0  0  0  0
   -7.9852   -5.2267    8.6930 H   0  0  0  0  0  0  0  0  0  0  0  0
   -7.6520   -3.1025    9.7884 H   0  0  0  0  0  0  0  0  0  0  0  0
   -7.1213   -1.1238    8.4905 H   0  0  0  0  0  0  0  0  0  0  0  0
   -6.9104   -1.2599    6.0908 H   0  0  0  0  0  0  0  0  0  0  0  0
   -2.4227   -7.8507   -2.2582 H   0  0  0  0  0  0  0  0  0  0  0  0
   -2.6827   -7.5134   -0.5522 H   0  0  0  0  0  0  0  0  0  0  0  0
   -3.2304   -9.0516   -1.2363 H   0  0  0  0  0  0  0  0  0  0  0  0
   -6.6980   -7.5222   -0.9999 H   0  0  0  0  0  0  0  0  0  0  0  0
   -5.4763   -8.5845   -0.3043 H   0  0  0  0  0  0  0  0  0  0  0  0
   -4.2915   -6.7673    0.9619 H   0  0  0  0  0  0  0  0  0  0  0  0
   -4.3192   -7.7615   -3.9210 H   0  0  0  0  0  0  0  0  0  0  0  0
   -5.2288   -8.9925   -3.0200 H   0  0  0  0  0  0  0  0  0  0  0  0
   -5.9690   -7.4219   -3.3876 H   0  0  0  0  0  0  0  0  0  0  0  0
   -4.3509   -6.2734   -1.9328 H   0  0  0  0  0  0  0  0  0  0  0  0
   -3.2730   -2.0642    1.0998 H   0  0  0  0  0  0  0  0  0  0  0  0
   -3.4572   -2.0971   -0.6460 H   0  0  0  0  0  0  0  0  0  0  0  0
   -1.0665   -2.7413   -0.9307 H   0  0  0  0  0  0  0  0  0  0  0  0
   -0.8333   -2.7140    0.8231 H   0  0  0  0  0  0  0  0  0  0  0  0
   -1.7070   -0.2981   -0.8312 H   0  0  0  0  0  0  0  0  0  0  0  0
   -1.4241   -0.3329    0.9280 H   0  0  0  0  0  0  0  0  0  0  0  0
    0.6264    2.6498   -0.1031 H   0  0  0  0  0  0  0  0  0  0  0  0
   -0.7947    1.7946    0.1209 H   0  0  0  0  0  0  0  0  0  0  0  0
    2.5556    1.5854   -0.4917 H   0  0  0  0  0  0  0  0  0  0  0  0
    2.6095   -0.0828   -0.6593 H   0  0  0  0  0  0  0  0  0  0  0  0
   -3.0781   -4.4898   -0.7338 H   0  0  0  0  0  0  0  0  0  0  0  0
   -0.9784   -4.7210    3.6224 H   0  0  0  0  0  0  0  0  0  0  0  0
   -1.8601   -5.1041    5.7913 H   0  0  0  0  0  0  0  0  0  0  0  0
   -3.1346   -6.1987    5.1925 H   0  0  0  0  0  0  0  0  0  0  0  0
   -3.0106   -3.1719    4.9679 H   0  0  0  0  0  0  0  0  0  0  0  0
   -4.3956   -4.1936    5.4372 H   0  0  0  0  0  0  0  0  0  0  0  0
   -4.1657   -3.2453    2.9108 H   0  0  0  0  0  0  0  0  0  0  0  0
   -4.7654   -4.9006    3.1824 H   0  0  0  0  0  0  0  0  0  0  0  0
   -0.1248   -9.0977    3.1281 H   0  0  0  0  0  0  0  0  0  0  0  0
    1.4064   -8.2353    3.2914 H   0  0  0  0  0  0  0  0  0  0  0  0
  1  2  1  0  0  0  0 
 19  3  1  0  0  0  0 
 28  4  1  0  0  0  0 
 41  5  1  0  0  0  0 
 46  6  1  0  0  0  0 
 57  7  1  0  0  0  0 
 71  8  1  0  0  0  0 
 78  9  1  0  0  0  0 
 88 10  1  0  0  0  0 
 94 11  1  0  0  0  0 
  1 12  2  0  0  0  0 
 13  1  1  0  0  0  0 
 14 15  1  0  0  0  0 
 15 16  1  0  0  0  0 
 16 17  1  0  0  0  0 
 13 14  1  0  0  0  0 
 13 17  1  0  0  0  0 
 16 18  2  0  0  0  0 
 26  2  1  0  0  0  0 
 26 20  1  0  0  0  0 
 20 21  1  0  0  0  0 
 21 22  2  0  0  0  0 
 22 23  1  0  0  0  0 
 23 24  2  0  0  0  0 
 24 25  1  0  0  0  0 
 21 25  1  0  0  0  0 
 26 19  1  0  0  0  0 
 19 27  2  0  0  0  0 
 39  3  1  0  0  0  0 
 39 29  1  0  0  0  0 
 29 30  1  0  0  0  0 
 30 31  2  0  0  0  0 
 31 32  1  0  0  0  0 
 32 33  1  0  0  0  0 
 33 34  1  0  0  0  0 
 30 34  1  0  0  0  0 
 34 35  2  0  0  0  0 
 35 36  1  0  0  0  0 
 36 37  2  0  0  0  0 
 37 38  1  0  0  0  0 
 33 38  2  0  0  0  0 
 39 28  1  0  0  0  0 
 28 40  2  0  0  0  0 
 44  4  1  0  0  0  0 
 44 42  1  0  0  0  0 
 42 43  1  0  0  0  0 
 44 41  1  0  0  0  0 
 41 45  2  0  0  0  0 
 55  5  1  0  0  0  0 
 55 47  1  0  0  0  0 
 47 48  1  0  0  0  0 
 48 49  2  0  0  0  0 
 49 50  1  0  0  0  0 
 50 51  2  0  0  0  0 
 51 52  1  0  0  0  0 
 51 53  1  0  0  0  0 
 53 54  2  0  0  0  0 
 48 54  1  0  0  0  0 
 55 46  1  0  0  0  0 
 46 56  2  0  0  0  0 
 59 58  1  0  0  0  0 
 59  6  1  0  0  0  0 
 59 57  1  0  0  0  0 
 57 60  2  0  0  0  0 
 58 61  1  0  0  0  0 
 62 63  2  0  0  0  0 
 63 64  1  0  0  0  0 
 64 65  2  0  0  0  0 
 65 66  1  0  0  0  0 
 61 62  1  0  0  0  0 
 61 66  2  0  0  0  0 
 67 68  2  0  0  0  0 
 68 69  1  0  0  0  0 
 69 70  2  0  0  0  0 
 63 67  1  0  0  0  0 
 64 70  1  0  0  0  0 
 75 76  1  0  0  0  0 
 76 72  1  0  0  0  0 
 76 73  1  0  0  0  0 
 74 73  1  0  0  0  0 
 74  7  1  0  0  0  0 
 74 71  1  0  0  0  0 
 71 77  2  0  0  0  0 
 86  8  1  0  0  0  0 
 86 79  1  0  0  0  0 
 79 80  1  0  0  0  0 
 80 81  1  0  0  0  0 
 81 82  1  0  0  0  0 
 82 83  2  0  0  0  0 
 83 84  1  0  0  0  0 
 83 85  1  0  0  0  0 
 86 78  1  0  0  0  0 
 78 87  2  0  0  0  0 
 93 88  2  0  0  0  0 
 89 88  1  0  0  0  0 
 89 90  1  0  0  0  0 
 90 91  1  0  0  0  0 
 91 92  1  0  0  0  0 
 92  9  1  0  0  0  0 
 89  9  1  0  0  0  0 
 10 95  1  0  0  0  0 
 95 94  1  0  0  0  0 
 94 96  2  0  0  0  0 
 97  2  1  0  0  0  0 
 98  3  1  0  0  0  0 
 99  4  1  0  0  0  0 
100  5  1  0  0  0  0 
101  6  1  0  0  0  0 
102  7  1  0  0  0  0 
103  8  1  0  0  0  0 
104 10  1  0  0  0  0 
105 11  1  0  0  0  0 
106 11  1  0  0  0  0 
 13107  1  0  0  0  0 
108 14  1  0  0  0  0 
109 14  1  0  0  0  0 
110 15  1  0  0  0  0 
111 15  1  0  0  0  0 
112 17  1  0  0  0  0 
113 20  1  0  0  0  0 
114 20  1  0  0  0  0 
115 22  1  0  0  0  0 
116 24  1  0  0  0  0 
117 25  1  0  0  0  0 
 26118  1  0  0  0  0 
119 29  1  0  0  0  0 
120 29  1  0  0  0  0 
121 31  1  0  0  0  0 
122 32  1  0  0  0  0 
123 35  1  0  0  0  0 
124 36  1  0  0  0  0 
125 37  1  0  0  0  0 
126 38  1  0  0  0  0 
 39127  1  0  0  0  0 
128 42  1  0  0  0  0 
129 42  1  0  0  0  0 
130 43  1  0  0  0  0 
 44131  1  0  0  0  0 
132 47  1  0  0  0  0 
133 47  1  0  0  0  0 
134 49  1  0  0  0  0 
135 50  1  0  0  0  0 
136 52  1  0  0  0  0 
137 53  1  0  0  0  0 
138 54  1  0  0  0  0 
 55139  1  0  0  0  0 
140 58  1  0  0  0  0 
141 58  1  0  0  0  0 
 59142  1  0  0  0  0 
143 62  1  0  0  0  0 
144 65  1  0  0  0  0 
145 66  1  0  0  0  0 
146 67  1  0  0  0  0 
147 68  1  0  0  0  0 
148 69  1  0  0  0  0 
149 70  1  0  0  0  0 
150 72  1  0  0  0  0 
151 72  1  0  0  0  0 
152 72  1  0  0  0  0 
153 73  1  0  0  0  0 
154 73  1  0  0  0  0 
 74155  1  0  0  0  0 
156 75  1  0  0  0  0 
157 75  1  0  0  0  0 
158 75  1  0  0  0  0 
159 76  1  0  0  0  0 
160 79  1  0  0  0  0 
161 79  1  0  0  0  0 
162 80  1  0  0  0  0 
163 80  1  0  0  0  0 
164 81  1  0  0  0  0 
165 81  1  0  0  0  0 
166 84  1  0  0  0  0 
167 84  1  0  0  0  0 
168 85  1  0  0  0  0 
169 85  1  0  0  0  0 
 86170  1  0  0  0  0 
 89171  1  0  0  0  0 
172 90  1  0  0  0  0 
173 90  1  0  0  0  0 
174 91  1  0  0  0  0 
175 91  1  0  0  0  0 
176 92  1  0  0  0  0 
177 92  1  0  0  0  0 
178 95  1  0  0  0  0 
179 95  1  0  0  0  0 
M  END
> <cdk:Title>
nafarelin

> <Conformer>
1

> <SuperDrugID>
SD001664

$$$$
