moexipril
  CDK     0628171801

 70 72  0  0  0  0  0  0  0  0999 V2000
   -1.6926    3.9540    2.5745 C   0  0  0  0  0  0  0  0  0  0  0  0
   -1.9013    2.9846    1.4463 C   0  0  1  0  0  0  0  0  0  0  0  0
   -0.6295    3.7482    3.2120 O   0  0  0  0  0  0  0  0  0  0  0  0
   -2.5517    4.9790    3.0001 N   0  0  0  0  0  0  0  0  0  0  0  0
   -3.2486    2.3434    1.4339 N   0  0  2  0  0  0  0  0  0  0  0  0
   -1.5620    3.5663    0.0492 C   0  0  0  0  0  0  0  0  0  0  0  0
   -3.7623    5.3223    2.2726 C   0  0  2  0  0  0  0  0  0  0  0  0
   -2.3216    5.6478    4.2772 C   0  0  2  0  0  0  0  0  0  0  0  0
   -3.6085    1.4265    2.5555 C   0  0  1  0  0  0  0  0  0  0  0  0
   -4.3249    6.6850    2.4721 C   0  0  0  0  0  0  0  0  0  0  0  0
   -3.0884    4.9387    5.3320 C   0  0  0  0  0  0  0  0  0  0  0  0
   -2.6027    7.1798    4.2416 C   0  0  1  0  0  0  0  0  0  0  0  0
   -5.1128    1.0285    2.4339 C   0  0  1  0  0  0  0  0  0  0  0  0
   -2.7699    0.2021    2.6254 C   0  0  0  0  0  0  0  0  0  0  0  0
   -3.7799    7.5708    3.4315 C   0  0  0  0  0  0  0  0  0  0  0  0
   -5.4111    7.1163    1.6752 C   0  0  0  0  0  0  0  0  0  0  0  0
   -2.4420    4.1734    6.2428 O   0  0  0  0  0  0  0  0  0  0  0  0
   -4.3364    5.0129    5.3997 O   0  0  0  0  0  0  0  0  0  0  0  0
   -6.0909    2.2216    2.6061 C   0  0  2  0  0  0  0  0  0  0  0  0
   -2.0490   -0.2252    1.5442 O   0  0  0  0  0  0  0  0  0  0  0  0
   -2.7314   -0.4377    3.7035 O   0  0  0  0  0  0  0  0  0  0  0  0
   -4.3402    8.8596    3.5917 C   0  0  0  0  0  0  0  0  0  0  0  0
   -5.9324    8.4192    1.8048 C   0  0  0  0  0  0  0  0  0  0  0  0
   -7.5115    1.7935    2.7042 C   0  0  0  0  0  0  0  0  0  0  0  0
   -1.2132   -1.3901    1.4773 C   0  0  1  0  0  0  0  0  0  0  0  0
   -5.4264    9.2809    2.8018 C   0  0  0  0  0  0  0  0  0  0  0  0
   -6.9284    8.8407    0.9642 O   0  0  0  0  0  0  0  0  0  0  0  0
   -8.2943    1.6041    1.5404 C   0  0  0  0  0  0  0  0  0  0  0  0
   -8.1121    1.5821    3.9685 C   0  0  0  0  0  0  0  0  0  0  0  0
   -2.0378   -2.6929    1.5017 C   0  0  0  0  0  0  0  0  0  0  0  0
   -5.9479   10.5356    2.9835 O   0  0  0  0  0  0  0  0  0  0  0  0
   -6.4133    9.3861   -0.2668 C   0  0  0  0  0  0  0  0  0  0  0  0
   -9.6557    1.2581    1.6406 C   0  0  0  0  0  0  0  0  0  0  0  0
   -9.4723    1.2345    4.0689 C   0  0  0  0  0  0  0  0  0  0  0  0
   -7.1013   10.5571    3.8463 C   0  0  0  0  0  0  0  0  0  0  0  0
  -10.2462    1.0802    2.9049 C   0  0  0  0  0  0  0  0  0  0  0  0
   -1.1719    2.1749    1.5593 H   0  0  0  0  0  0  0  0  0  0  0  0
   -3.3199    1.7982    0.5716 H   0  0  0  0  0  0  0  0  0  0  0  0
   -0.5302    3.9245    0.0308 H   0  0  0  0  0  0  0  0  0  0  0  0
   -2.2146    4.3849   -0.2426 H   0  0  0  0  0  0  0  0  0  0  0  0
   -1.6643    2.7799   -0.7021 H   0  0  0  0  0  0  0  0  0  0  0  0
   -4.5310    4.6111    2.5605 H   0  0  0  0  0  0  0  0  0  0  0  0
   -3.6024    5.2252    1.2044 H   0  0  0  0  0  0  0  0  0  0  0  0
   -1.2698    5.5850    4.5707 H   0  0  0  0  0  0  0  0  0  0  0  0
   -3.4710    1.9700    3.4943 H   0  0  0  0  0  0  0  0  0  0  0  0
   -2.7177    7.5475    5.2672 H   0  0  0  0  0  0  0  0  0  0  0  0
   -1.7372    7.6929    3.8102 H   0  0  0  0  0  0  0  0  0  0  0  0
   -5.2878    0.5692    1.4562 H   0  0  0  0  0  0  0  0  0  0  0  0
   -5.3519    0.2812    3.1969 H   0  0  0  0  0  0  0  0  0  0  0  0
   -5.8171    6.4891    0.9749 H   0  0  0  0  0  0  0  0  0  0  0  0
   -2.9475    3.6776    6.9202 H   0  0  0  0  0  0  0  0  0  0  0  0
   -5.9819    2.9067    1.7612 H   0  0  0  0  0  0  0  0  0  0  0  0
   -5.8218    2.7802    3.5074 H   0  0  0  0  0  0  0  0  0  0  0  0
   -3.9535    9.5044    4.2861 H   0  0  0  0  0  0  0  0  0  0  0  0
   -0.6470   -1.3486    0.5452 H   0  0  0  0  0  0  0  0  0  0  0  0
   -0.4994   -1.3848    2.3053 H   0  0  0  0  0  0  0  0  0  0  0  0
   -7.8794    1.7243    0.6126 H   0  0  0  0  0  0  0  0  0  0  0  0
   -7.5629    1.6837    4.8260 H   0  0  0  0  0  0  0  0  0  0  0  0
   -1.3752   -3.5541    1.4036 H   0  0  0  0  0  0  0  0  0  0  0  0
   -2.5844   -2.7814    2.4411 H   0  0  0  0  0  0  0  0  0  0  0  0
   -2.7512   -2.6984    0.6767 H   0  0  0  0  0  0  0  0  0  0  0  0
   -7.2561    9.7181   -0.8722 H   0  0  0  0  0  0  0  0  0  0  0  0
   -5.7670   10.2487   -0.0856 H   0  0  0  0  0  0  0  0  0  0  0  0
   -5.8624    8.6363   -0.8408 H   0  0  0  0  0  0  0  0  0  0  0  0
  -10.2176    1.1397    0.7942 H   0  0  0  0  0  0  0  0  0  0  0  0
   -9.8988    1.0974    4.9884 H   0  0  0  0  0  0  0  0  0  0  0  0
   -7.4412   11.5894    3.9397 H   0  0  0  0  0  0  0  0  0  0  0  0
   -7.9227    9.9698    3.4280 H   0  0  0  0  0  0  0  0  0  0  0  0
   -6.8618   10.1883    4.8472 H   0  0  0  0  0  0  0  0  0  0  0  0
  -11.2372    0.8387    2.9783 H   0  0  0  0  0  0  0  0  0  0  0  0
  2  1  1  0  0  0  0 
  1  3  2  0  0  0  0 
  1  4  1  0  0  0  0 
  2  5  1  0  0  0  0 
  2  6  1  0  0  0  0 
  4  7  1  0  0  0  0 
  8  4  1  0  0  0  0 
  9  5  1  0  0  0  0 
  7 10  1  0  0  0  0 
  8 11  1  0  0  0  0 
  8 12  1  0  0  0  0 
  9 13  1  0  0  0  0 
  9 14  1  0  0  0  0 
 10 15  2  0  0  0  0 
 10 16  1  0  0  0  0 
 11 17  1  0  0  0  0 
 11 18  2  0  0  0  0 
 12 15  1  0  0  0  0 
 13 19  1  0  0  0  0 
 14 20  1  0  0  0  0 
 14 21  2  0  0  0  0 
 15 22  1  0  0  0  0 
 16 23  2  0  0  0  0 
 19 24  1  0  0  0  0 
 20 25  1  0  0  0  0 
 22 26  2  0  0  0  0 
 23 26  1  0  0  0  0 
 23 27  1  0  0  0  0 
 24 28  2  0  0  0  0 
 24 29  1  0  0  0  0 
 25 30  1  0  0  0  0 
 26 31  1  0  0  0  0 
 27 32  1  0  0  0  0 
 28 33  1  0  0  0  0 
 29 34  2  0  0  0  0 
 31 35  1  0  0  0  0 
 33 36  2  0  0  0  0 
 34 36  1  0  0  0  0 
  2 37  1  0  0  0  0 
  5 38  1  0  0  0  0 
  6 39  1  0  0  0  0 
  6 40  1  0  0  0  0 
  6 41  1  0  0  0  0 
  7 42  1  0  0  0  0 
  7 43  1  0  0  0  0 
  8 44  1  0  0  0  0 
  9 45  1  0  0  0  0 
 12 46  1  0  0  0  0 
 12 47  1  0  0  0  0 
 13 48  1  0  0  0  0 
 13 49  1  0  0  0  0 
 16 50  1  0  0  0  0 
 17 51  1  0  0  0  0 
 19 52  1  0  0  0  0 
 19 53  1  0  0  0  0 
 22 54  1  0  0  0  0 
 25 55  1  0  0  0  0 
 25 56  1  0  0  0  0 
 28 57  1  0  0  0  0 
 29 58  1  0  0  0  0 
 30 59  1  0  0  0  0 
 30 60  1  0  0  0  0 
 30 61  1  0  0  0  0 
 32 62  1  0  0  0  0 
 32 63  1  0  0  0  0 
 32 64  1  0  0  0  0 
 33 65  1  0  0  0  0 
 34 66  1  0  0  0  0 
 35 67  1  0  0  0  0 
 35 68  1  0  0  0  0 
 35 69  1  0  0  0  0 
 36 70  1  0  0  0  0 
M  END
> <cdk:Title>
moexipril

> <Conformer>
1

> <SuperDrugID>
SD001626

$$$$
