sertindole
  CDK     0628171801

 57 61  0  0  0  0  0  0  0  0999 V2000
    5.6931   -3.0621    9.4359 Cl  0  0  0  0  0  0  0  0  0  0  0  0
    6.2416   -2.3212    8.0161 C   0  0  0  0  0  0  0  0  0  0  0  0
    5.3690   -2.1704    6.9140 C   0  0  0  0  0  0  0  0  0  0  0  0
    7.5745   -1.8549    7.9410 C   0  0  0  0  0  0  0  0  0  0  0  0
    5.8509   -1.5521    5.7435 C   0  0  0  0  0  0  0  0  0  0  0  0
    8.0481   -1.2363    6.7673 C   0  0  0  0  0  0  0  0  0  0  0  0
    5.2318   -1.2665    4.5217 C   0  0  0  0  0  0  0  0  0  0  0  0
    7.1697   -1.0863    5.6743 C   0  0  0  0  0  0  0  0  0  0  0  0
    6.2126   -0.6128    3.7722 C   0  0  0  0  0  0  0  0  0  0  0  0
    3.8318   -1.5482    4.0804 C   0  0  2  0  0  0  0  0  0  0  0  0
    7.3720   -0.5362    4.4578 N   0  0  0  0  0  0  0  0  0  0  0  0
    3.7482   -2.0898    2.6129 C   0  0  2  0  0  0  0  0  0  0  0  0
    2.9417   -0.2839    4.2716 C   0  0  1  0  0  0  0  0  0  0  0  0
    8.5172    0.0096    3.9543 C   0  0  0  0  0  0  0  0  0  0  0  0
    2.2914   -2.1727    2.0723 C   0  0  1  0  0  0  0  0  0  0  0  0
    1.5121   -0.4928    3.6978 C   0  0  1  0  0  0  0  0  0  0  0  0
    9.0790   -0.5085    2.7643 C   0  0  0  0  0  0  0  0  0  0  0  0
    9.1374    1.1120    4.5831 C   0  0  0  0  0  0  0  0  0  0  0  0
    1.5138   -0.9025    2.2549 N   0  0  1  0  0  0  0  0  0  0  0  0
   10.2218    0.0822    2.1969 C   0  0  0  0  0  0  0  0  0  0  0  0
   10.2815    1.7031    4.0163 C   0  0  0  0  0  0  0  0  0  0  0  0
    1.8344    0.2158    1.3014 C   0  0  1  0  0  0  0  0  0  0  0  0
   10.8197    1.1943    2.8187 C   0  0  0  0  0  0  0  0  0  0  0  0
    1.3731    0.0188   -0.1667 C   0  0  1  0  0  0  0  0  0  0  0  0
   11.8698    1.7539    2.2832 F   0  0  0  0  0  0  0  0  0  0  0  0
   -0.0560   -0.0698   -0.3179 N   0  0  0  0  0  0  0  0  0  0  0  0
   -0.8945    0.9732   -0.5142 C   0  0  0  0  0  0  0  0  0  0  0  0
   -0.7849   -1.2972   -0.3450 C   0  0  2  0  0  0  0  0  0  0  0  0
   -0.5787    2.1842   -0.5623 O   0  0  0  0  0  0  0  0  0  0  0  0
   -2.1481    0.5420   -0.6780 N   0  0  0  0  0  0  0  0  0  0  0  0
   -2.2506   -0.8621   -0.5785 C   0  0  2  0  0  0  0  0  0  0  0  0
    4.4046   -2.5027    6.9666 H   0  0  0  0  0  0  0  0  0  0  0  0
    8.2064   -1.9594    8.7396 H   0  0  0  0  0  0  0  0  0  0  0  0
    9.0129   -0.9010    6.7186 H   0  0  0  0  0  0  0  0  0  0  0  0
    6.0757   -0.2393    2.8293 H   0  0  0  0  0  0  0  0  0  0  0  0
    3.4222   -2.3315    4.7253 H   0  0  0  0  0  0  0  0  0  0  0  0
    4.2068   -3.0828    2.5646 H   0  0  0  0  0  0  0  0  0  0  0  0
    4.3060   -1.4468    1.9297 H   0  0  0  0  0  0  0  0  0  0  0  0
    2.8646   -0.0500    5.3391 H   0  0  0  0  0  0  0  0  0  0  0  0
    3.3975    0.5795    3.7782 H   0  0  0  0  0  0  0  0  0  0  0  0
    2.3229   -2.4604    1.0193 H   0  0  0  0  0  0  0  0  0  0  0  0
    1.7677   -2.9817    2.5900 H   0  0  0  0  0  0  0  0  0  0  0  0
    1.0038   -1.2625    4.2858 H   0  0  0  0  0  0  0  0  0  0  0  0
    0.9364    0.4248    3.8350 H   0  0  0  0  0  0  0  0  0  0  0  0
    8.6569   -1.3198    2.3048 H   0  0  0  0  0  0  0  0  0  0  0  0
    8.7507    1.4979    5.4480 H   0  0  0  0  0  0  0  0  0  0  0  0
   10.6119   -0.2991    1.3309 H   0  0  0  0  0  0  0  0  0  0  0  0
   10.7156    2.5065    4.4763 H   0  0  0  0  0  0  0  0  0  0  0  0
    1.3574    1.1367    1.6451 H   0  0  0  0  0  0  0  0  0  0  0  0
    2.9096    0.4054    1.2934 H   0  0  0  0  0  0  0  0  0  0  0  0
    1.7436    0.8678   -0.7519 H   0  0  0  0  0  0  0  0  0  0  0  0
    1.8514   -0.8630   -0.5962 H   0  0  0  0  0  0  0  0  0  0  0  0
   -0.6822   -1.8399    0.5983 H   0  0  0  0  0  0  0  0  0  0  0  0
   -0.4326   -1.9267   -1.1680 H   0  0  0  0  0  0  0  0  0  0  0  0
   -2.9052    1.1255   -0.8480 H   0  0  0  0  0  0  0  0  0  0  0  0
   -2.8920   -1.1262    0.2657 H   0  0  0  0  0  0  0  0  0  0  0  0
   -2.6531   -1.2867   -1.5031 H   0  0  0  0  0  0  0  0  0  0  0  0
  1  2  1  0  0  0  0 
  2  3  1  0  0  0  0 
  2  4  2  0  0  0  0 
  3  5  2  0  0  0  0 
  4  6  1  0  0  0  0 
  5  7  1  0  0  0  0 
  5  8  1  0  0  0  0 
  6  8  2  0  0  0  0 
  7  9  2  0  0  0  0 
  7 10  1  0  0  0  0 
  8 11  1  0  0  0  0 
  9 11  1  0  0  0  0 
 10 12  1  0  0  0  0 
 10 13  1  0  0  0  0 
 11 14  1  0  0  0  0 
 12 15  1  0  0  0  0 
 13 16  1  0  0  0  0 
 14 17  2  0  0  0  0 
 14 18  1  0  0  0  0 
 15 19  1  0  0  0  0 
 16 19  1  0  0  0  0 
 17 20  1  0  0  0  0 
 18 21  2  0  0  0  0 
 19 22  1  0  0  0  0 
 20 23  2  0  0  0  0 
 21 23  1  0  0  0  0 
 22 24  1  0  0  0  0 
 23 25  1  0  0  0  0 
 24 26  1  0  0  0  0 
 26 27  1  0  0  0  0 
 26 28  1  0  0  0  0 
 27 29  2  0  0  0  0 
 27 30  1  0  0  0  0 
 28 31  1  0  0  0  0 
 30 31  1  0  0  0  0 
 32  3  1  0  0  0  0 
 33  4  1  0  0  0  0 
 34  6  1  0  0  0  0 
 35  9  1  0  0  0  0 
 36 10  1  0  0  0  0 
 37 12  1  0  0  0  0 
 38 12  1  0  0  0  0 
 39 13  1  0  0  0  0 
 40 13  1  0  0  0  0 
 41 15  1  0  0  0  0 
 42 15  1  0  0  0  0 
 43 16  1  0  0  0  0 
 44 16  1  0  0  0  0 
 45 17  1  0  0  0  0 
 46 18  1  0  0  0  0 
 47 20  1  0  0  0  0 
 48 21  1  0  0  0  0 
 49 22  1  0  0  0  0 
 50 22  1  0  0  0  0 
 51 24  1  0  0  0  0 
 52 24  1  0  0  0  0 
 53 28  1  0  0  0  0 
 54 28  1  0  0  0  0 
 55 30  1  0  0  0  0 
 56 31  1  0  0  0  0 
 57 31  1  0  0  0  0 
M  END
> <cdk:Title>
sertindole

> <Conformer>
1

> <SuperDrugID>
SD002189

$$$$
