fluprednidene
  CDK     0628171801

 55 58  0  0  0  0  0  0  0  0999 V2000
    4.3459    4.3878   -2.1045 F   0  0  0  0  0  0  0  0  0  0  0  0
    4.5036    3.2852   -1.2721 C   0  0  2  0  0  0  0  0  0  0  0  0
    3.5807    3.5280   -0.0041 C   0  0  2  0  0  0  0  0  0  0  0  0
    6.0528    3.2724   -0.8623 C   0  0  2  0  0  0  0  0  0  0  0  0
    3.9749    2.0882   -2.1662 C   0  0  1  0  0  0  0  0  0  0  0  0
    2.0774    3.5771   -0.4244 C   0  0  1  0  0  0  0  0  0  0  0  0
    4.0028    4.8293    0.7437 C   0  0  1  0  0  0  0  0  0  0  0  0
    6.5060    2.0602    0.0338 C   0  0  0  0  0  0  0  0  0  0  0  0
    6.3290    4.5248   -0.0752 C   0  0  0  0  0  0  0  0  0  0  0  0
    6.8969    3.1779   -2.0811 C   0  0  0  0  0  0  0  0  0  0  0  0
    4.3424    0.8192   -1.6422 O   0  0  0  0  0  0  0  0  0  0  0  0
    2.4276    2.0909   -2.4233 C   0  0  1  0  0  0  0  0  0  0  0  0
    1.5708    2.2760   -1.1188 C   0  0  1  0  0  0  0  0  0  0  0  0
    0.9710    3.8812    0.6062 C   0  0  1  0  0  0  0  0  0  0  0  0
    5.5058    4.8250    1.1050 C   0  0  2  0  0  0  0  0  0  0  0  0
    7.2908    5.3971   -0.4558 C   0  0  0  0  0  0  0  0  0  0  0  0
    7.8317    4.0874   -2.4010 C   0  0  0  0  0  0  0  0  0  0  0  0
    1.6910    0.9840   -0.2125 C   0  0  0  0  0  0  0  0  0  0  0  0
    0.0449    2.6578   -1.3081 C   0  0  2  0  0  0  0  0  0  0  0  0
   -0.2275    3.4925   -0.1230 C   0  0  0  0  0  0  0  0  0  0  0  0
    8.0559    5.1851   -1.5904 C   0  0  0  0  0  0  0  0  0  0  0  0
   -0.8441    1.4728   -1.5704 C   0  0  0  0  0  0  0  0  0  0  0  0
   -0.1522    3.5260   -2.4359 O   0  0  0  0  0  0  0  0  0  0  0  0
   -1.4398    3.9456    0.2362 C   0  0  0  0  0  0  0  0  0  0  0  0
    8.9579    6.0036   -1.8895 O   0  0  0  0  0  0  0  0  0  0  0  0
   -1.6950    0.7796   -0.5747 C   0  0  2  0  0  0  0  0  0  0  0  0
   -0.8365    0.9781   -2.7231 O   0  0  0  0  0  0  0  0  0  0  0  0
   -3.0660    1.0057   -0.8787 O   0  0  0  0  0  0  0  0  0  0  0  0
    3.7135    2.7120    0.7061 H   0  0  0  0  0  0  0  0  0  0  0  0
    2.0260    4.4088   -1.1408 H   0  0  0  0  0  0  0  0  0  0  0  0
    4.4555    2.1394   -3.1481 H   0  0  0  0  0  0  0  0  0  0  0  0
    3.7919    5.7030    0.1214 H   0  0  0  0  0  0  0  0  0  0  0  0
    3.4267    4.9370    1.6655 H   0  0  0  0  0  0  0  0  0  0  0  0
    5.8933    1.9523    0.9273 H   0  0  0  0  0  0  0  0  0  0  0  0
    6.4688    1.1106   -0.4984 H   0  0  0  0  0  0  0  0  0  0  0  0
    7.5413    2.1917    0.3635 H   0  0  0  0  0  0  0  0  0  0  0  0
    6.7800    2.4045   -2.6949 H   0  0  0  0  0  0  0  0  0  0  0  0
    3.9519    0.1637   -2.2566 H   0  0  0  0  0  0  0  0  0  0  0  0
    2.2122    2.8999   -3.1244 H   0  0  0  0  0  0  0  0  0  0  0  0
    2.1355    1.1649   -2.9258 H   0  0  0  0  0  0  0  0  0  0  0  0
    1.0829    3.2914    1.5191 H   0  0  0  0  0  0  0  0  0  0  0  0
    0.9663    4.9464    0.8569 H   0  0  0  0  0  0  0  0  0  0  0  0
    5.6921    4.0814    1.8819 H   0  0  0  0  0  0  0  0  0  0  0  0
    5.7436    5.7971    1.5492 H   0  0  0  0  0  0  0  0  0  0  0  0
    7.4640    6.2203    0.0773 H   0  0  0  0  0  0  0  0  0  0  0  0
    8.3704    3.9690   -3.2289 H   0  0  0  0  0  0  0  0  0  0  0  0
    1.3717    0.1015   -0.7727 H   0  0  0  0  0  0  0  0  0  0  0  0
    1.0647    1.0559    0.6768 H   0  0  0  0  0  0  0  0  0  0  0  0
    2.7004    0.7915    0.1363 H   0  0  0  0  0  0  0  0  0  0  0  0
    0.4227    4.3030   -2.2884 H   0  0  0  0  0  0  0  0  0  0  0  0
   -1.5527    4.5161    1.0387 H   0  0  0  0  0  0  0  0  0  0  0  0
   -2.2435    3.7337   -0.3006 H   0  0  0  0  0  0  0  0  0  0  0  0
   -1.4961    1.1156    0.4425 H   0  0  0  0  0  0  0  0  0  0  0  0
   -1.5081   -0.2965   -0.6107 H   0  0  0  0  0  0  0  0  0  0  0  0
   -3.1920    1.9738   -0.7991 H   0  0  0  0  0  0  0  0  0  0  0  0
  2  1  1  0  0  0  0 
  3  2  1  0  0  0  0 
  2  4  1  0  0  0  0 
  2  5  1  0  0  0  0 
  6  3  1  0  0  0  0 
  3  7  1  0  0  0  0 
  3 29  1  0  0  0  0 
  4  8  1  0  0  0  0 
  4  9  1  0  0  0  0 
  4 10  1  0  0  0  0 
  5 11  1  0  0  0  0 
  5 12  1  0  0  0  0 
 13  6  1  0  0  0  0 
  6 14  1  0  0  0  0 
  6 30  1  0  0  0  0 
  7 15  1  0  0  0  0 
  9 15  1  0  0  0  0 
  9 16  2  0  0  0  0 
 10 17  2  0  0  0  0 
 13 12  1  0  0  0  0 
 13 18  1  0  0  0  0 
 13 19  1  0  0  0  0 
 14 20  1  0  0  0  0 
 16 21  1  0  0  0  0 
 17 21  1  0  0  0  0 
 19 20  1  0  0  0  0 
 19 22  1  0  0  0  0 
 19 23  1  0  0  0  0 
 20 24  2  0  0  0  0 
 21 25  2  0  0  0  0 
 22 26  1  0  0  0  0 
 22 27  2  0  0  0  0 
 26 28  1  0  0  0  0 
  5 31  1  0  0  0  0 
  7 32  1  0  0  0  0 
  7 33  1  0  0  0  0 
  8 34  1  0  0  0  0 
  8 35  1  0  0  0  0 
  8 36  1  0  0  0  0 
 10 37  1  0  0  0  0 
 11 38  1  0  0  0  0 
 12 39  1  0  0  0  0 
 12 40  1  0  0  0  0 
 14 41  1  0  0  0  0 
 14 42  1  0  0  0  0 
 15 43  1  0  0  0  0 
 15 44  1  0  0  0  0 
 16 45  1  0  0  0  0 
 17 46  1  0  0  0  0 
 18 47  1  0  0  0  0 
 18 48  1  0  0  0  0 
 18 49  1  0  0  0  0 
 23 50  1  0  0  0  0 
 24 51  1  0  0  0  0 
 24 52  1  0  0  0  0 
 26 53  1  0  0  0  0 
 26 54  1  0  0  0  0 
 28 55  1  0  0  0  0 
M  END
> <cdk:Title>
fluprednidene

> <Conformer>
1

> <SuperDrugID>
SD003619

$$$$
