dihydrostreptomycin
  CDK     0628171802

 81 83  0  0  0  0  0  0  0  0999 V2000
   -5.2790    4.9191    7.5292 C   0  0  2  0  0  0  0  0  0  0  0  0
   -5.8788    4.3253    6.2073 C   0  0  2  0  0  0  0  0  0  0  0  0
   -6.1845    5.4270    5.1440 C   0  0  1  0  0  0  0  0  0  0  0  0
   -4.9888    6.3983    4.9103 C   0  0  2  0  0  0  0  0  0  0  0  0
   -4.5390    7.0436    6.2557 C   0  0  1  0  0  0  0  0  0  0  0  0
   -4.1363    5.9578    7.2912 C   0  0  1  0  0  0  0  0  0  0  0  0
   -5.2234    7.3350    3.8915 N   0  0  0  0  0  0  0  0  0  0  0  0
   -6.0926    8.2728    3.7541 C   0  0  0  0  0  0  0  0  0  0  0  0
   -6.0448    8.9869    2.6544 N   0  0  0  0  0  0  0  0  0  0  0  0
   -7.0300    8.5699    4.6326 N   0  0  0  0  0  0  0  0  0  0  0  0
   -6.5507    4.7990    3.9124 O   0  0  0  0  0  0  0  0  0  0  0  0
   -7.1083    3.6897    6.4384 N   0  0  0  0  0  0  0  0  0  0  0  0
   -7.4210    2.5217    6.8683 C   0  0  0  0  0  0  0  0  0  0  0  0
   -8.6969    2.2320    6.9682 N   0  0  0  0  0  0  0  0  0  0  0  0
   -6.5450    1.6040    7.1993 N   0  0  0  0  0  0  0  0  0  0  0  0
   -3.4367    7.9262    6.0471 O   0  0  0  0  0  0  0  0  0  0  0  0
   -3.8069    6.6058    8.5223 O   0  0  0  0  0  0  0  0  0  0  0  0
   -4.9504    3.8949    8.5033 O   0  0  0  0  0  0  0  0  0  0  0  0
   -3.7654    3.0674    8.3525 C   0  0  2  0  0  0  0  0  0  0  0  0
   -3.8712    1.8064    9.2645 C   0  0  1  0  0  0  0  0  0  0  0  0
   -4.0934    0.4813    8.7130 O   0  0  0  0  0  0  0  0  0  0  0  0
   -2.6012    3.7766    8.7989 O   0  0  0  0  0  0  0  0  0  0  0  0
   -2.3691    3.4348   10.1685 C   0  0  1  0  0  0  0  0  0  0  0  0
   -2.6679    1.9123   10.2400 C   0  0  2  0  0  0  0  0  0  0  0  0
   -0.9370    3.8657   10.5741 C   0  0  0  0  0  0  0  0  0  0  0  0
   -1.5578    1.1599    9.7480 O   0  0  0  0  0  0  0  0  0  0  0  0
   -2.9745    1.4172   11.6858 C   0  0  1  0  0  0  0  0  0  0  0  0
   -3.4036    0.0583   11.6916 O   0  0  0  0  0  0  0  0  0  0  0  0
   -3.5908    0.0433    7.4301 C   0  0  2  0  0  0  0  0  0  0  0  0
   -2.1386   -1.7978    5.6282 C   0  0  1  0  0  0  0  0  0  0  0  0
   -3.6828   -1.8889    5.7869 C   0  0  1  0  0  0  0  0  0  0  0  0
   -4.1526   -1.3878    7.1862 C   0  0  1  0  0  0  0  0  0  0  0  0
   -2.1483    0.0147    7.3641 O   0  0  0  0  0  0  0  0  0  0  0  0
   -1.5688   -0.4225    6.1084 C   0  0  2  0  0  0  0  0  0  0  0  0
   -3.6871   -2.2806    8.2859 N   0  0  2  0  0  0  0  0  0  0  0  0
   -4.4623   -3.5202    8.5038 C   0  0  0  0  0  0  0  0  0  0  0  0
   -4.3196   -1.1296    4.7600 O   0  0  0  0  0  0  0  0  0  0  0  0
   -1.5233   -2.8513    6.3738 O   0  0  0  0  0  0  0  0  0  0  0  0
   -1.6077    0.6957    5.0301 C   0  0  1  0  0  0  0  0  0  0  0  0
   -1.0224    1.8895    5.5409 O   0  0  0  0  0  0  0  0  0  0  0  0
   -6.0908    5.4793    8.0045 H   0  0  0  0  0  0  0  0  0  0  0  0
   -5.1661    3.6262    5.7623 H   0  0  0  0  0  0  0  0  0  0  0  0
   -7.0473    6.0066    5.4837 H   0  0  0  0  0  0  0  0  0  0  0  0
   -4.1524    5.7990    4.5373 H   0  0  0  0  0  0  0  0  0  0  0  0
   -5.3566    7.6350    6.6760 H   0  0  0  0  0  0  0  0  0  0  0  0
   -3.2405    5.4501    6.9255 H   0  0  0  0  0  0  0  0  0  0  0  0
   -5.3802    8.7937    1.9740 H   0  0  0  0  0  0  0  0  0  0  0  0
   -6.6749    9.7126    2.5187 H   0  0  0  0  0  0  0  0  0  0  0  0
   -7.0989    8.0831    5.4668 H   0  0  0  0  0  0  0  0  0  0  0  0
   -7.6622    9.2808    4.4412 H   0  0  0  0  0  0  0  0  0  0  0  0
   -6.8577    5.5269    3.3312 H   0  0  0  0  0  0  0  0  0  0  0  0
   -9.3668    2.8839    6.7045 H   0  0  0  0  0  0  0  0  0  0  0  0
   -8.9766    1.3662    7.3063 H   0  0  0  0  0  0  0  0  0  0  0  0
   -5.6004    1.7981    7.1376 H   0  0  0  0  0  0  0  0  0  0  0  0
   -6.8392    0.7318    7.5073 H   0  0  0  0  0  0  0  0  0  0  0  0
   -3.8026    8.6661    5.5160 H   0  0  0  0  0  0  0  0  0  0  0  0
   -3.5203    5.8926    9.1300 H   0  0  0  0  0  0  0  0  0  0  0  0
   -3.5986    2.8069    7.3107 H   0  0  0  0  0  0  0  0  0  0  0  0
   -4.7723    1.9451    9.8701 H   0  0  0  0  0  0  0  0  0  0  0  0
   -3.0827    3.9913   10.7905 H   0  0  0  0  0  0  0  0  0  0  0  0
   -0.7404    3.6119   11.6172 H   0  0  0  0  0  0  0  0  0  0  0  0
   -0.8228    4.9447   10.4565 H   0  0  0  0  0  0  0  0  0  0  0  0
   -0.1955    3.3782    9.9406 H   0  0  0  0  0  0  0  0  0  0  0  0
   -1.3569    1.5470    8.8696 H   0  0  0  0  0  0  0  0  0  0  0  0
   -2.0805    1.4948   12.3095 H   0  0  0  0  0  0  0  0  0  0  0  0
   -3.7601    2.0236   12.1426 H   0  0  0  0  0  0  0  0  0  0  0  0
   -3.5885   -0.1373   12.6359 H   0  0  0  0  0  0  0  0  0  0  0  0
   -3.9876    0.7003    6.6570 H   0  0  0  0  0  0  0  0  0  0  0  0
   -1.8751   -1.9688    4.5802 H   0  0  0  0  0  0  0  0  0  0  0  0
   -4.0006   -2.9226    5.6346 H   0  0  0  0  0  0  0  0  0  0  0  0
   -5.2473   -1.3317    7.1973 H   0  0  0  0  0  0  0  0  0  0  0  0
   -0.5071   -0.5749    6.3232 H   0  0  0  0  0  0  0  0  0  0  0  0
   -3.7609   -1.7510    9.1573 H   0  0  0  0  0  0  0  0  0  0  0  0
   -3.9989   -4.0729    9.3225 H   0  0  0  0  0  0  0  0  0  0  0  0
   -5.4937   -3.2887    8.7802 H   0  0  0  0  0  0  0  0  0  0  0  0
   -4.4579   -4.1544    7.6161 H   0  0  0  0  0  0  0  0  0  0  0  0
   -5.2806   -1.2404    4.9228 H   0  0  0  0  0  0  0  0  0  0  0  0
   -1.8787   -3.6834    5.9928 H   0  0  0  0  0  0  0  0  0  0  0  0
   -1.0375    0.3834    4.1527 H   0  0  0  0  0  0  0  0  0  0  0  0
   -2.6268    0.9171    4.7141 H   0  0  0  0  0  0  0  0  0  0  0  0
   -1.0395    2.5216    4.7907 H   0  0  0  0  0  0  0  0  0  0  0  0
  1  2  1  0  0  0  0 
  1  6  1  0  0  0  0 
  2  3  1  0  0  0  0 
  3  4  1  0  0  0  0 
  5  4  1  0  0  0  0 
  6  5  1  0  0  0  0 
  4  7  1  0  0  0  0 
  7  8  2  0  0  0  0 
  8  9  1  0  0  0  0 
  8 10  1  0  0  0  0 
  3 11  1  0  0  0  0 
  2 12  1  0  0  0  0 
 12 13  2  0  0  0  0 
 13 14  1  0  0  0  0 
 13 15  1  0  0  0  0 
  5 16  1  0  0  0  0 
  6 17  1  0  0  0  0 
  1 18  1  0  0  0  0 
 19 18  1  0  0  0  0 
 20 21  1  0  0  0  0 
 19 22  1  0  0  0  0 
 20 19  1  0  0  0  0 
 20 24  1  0  0  0  0 
 23 22  1  0  0  0  0 
 24 23  1  0  0  0  0 
 23 25  1  0  0  0  0 
 24 26  1  0  0  0  0 
 24 27  1  0  0  0  0 
 27 28  1  0  0  0  0 
 29 21  1  0  0  0  0 
 32 29  1  0  0  0  0 
 29 33  1  0  0  0  0 
 30 31  1  0  0  0  0 
 30 34  1  0  0  0  0 
 31 32  1  0  0  0  0 
 34 33  1  0  0  0  0 
 32 35  1  0  0  0  0 
 35 36  1  0  0  0  0 
 31 37  1  0  0  0  0 
 30 38  1  0  0  0  0 
 34 39  1  0  0  0  0 
 39 40  1  0  0  0  0 
  1 41  1  0  0  0  0 
  2 42  1  0  0  0  0 
  3 43  1  0  0  0  0 
  4 44  1  0  0  0  0 
  5 45  1  0  0  0  0 
  6 46  1  0  0  0  0 
 47  9  1  0  0  0  0 
 48  9  1  0  0  0  0 
 49 10  1  0  0  0  0 
 50 10  1  0  0  0  0 
 51 11  1  0  0  0  0 
 52 14  1  0  0  0  0 
 53 14  1  0  0  0  0 
 54 15  1  0  0  0  0 
 55 15  1  0  0  0  0 
 56 16  1  0  0  0  0 
 57 17  1  0  0  0  0 
 19 58  1  0  0  0  0 
 20 59  1  0  0  0  0 
 23 60  1  0  0  0  0 
 61 25  1  0  0  0  0 
 62 25  1  0  0  0  0 
 63 25  1  0  0  0  0 
 64 26  1  0  0  0  0 
 65 27  1  0  0  0  0 
 66 27  1  0  0  0  0 
 67 28  1  0  0  0  0 
 29 68  1  0  0  0  0 
 30 69  1  0  0  0  0 
 31 70  1  0  0  0  0 
 32 71  1  0  0  0  0 
 34 72  1  0  0  0  0 
 73 35  1  0  0  0  0 
 74 36  1  0  0  0  0 
 75 36  1  0  0  0  0 
 76 36  1  0  0  0  0 
 77 37  1  0  0  0  0 
 78 38  1  0  0  0  0 
 79 39  1  0  0  0  0 
 80 39  1  0  0  0  0 
 81 40  1  0  0  0  0 
M  END
> <cdk:Title>
dihydrostreptomycin

> <Conformer>
1

> <SuperDrugID>
SD000792

$$$$
