valdecoxib
  CDK     0628171801

 36 38  0  0  0  0  0  0  0  0999 V2000
    4.2458   -0.7749   -5.0688 C   0  0  0  0  0  0  0  0  0  0  0  0
    3.8810   -2.1207   -5.5395 C   0  0  0  0  0  0  0  0  0  0  0  0
    2.9295   -3.0021   -5.0243 C   0  0  0  0  0  0  0  0  0  0  0  0
    4.4377   -2.7008   -6.6273 O   0  0  0  0  0  0  0  0  0  0  0  0
    3.0036   -4.1271   -5.8514 C   0  0  0  0  0  0  0  0  0  0  0  0
    2.0361   -2.7960   -3.9431 C   0  0  0  0  0  0  0  0  0  0  0  0
    3.9121   -3.8808   -6.8105 N   0  0  0  0  0  0  0  0  0  0  0  0
    2.3037   -5.3515   -5.7330 C   0  0  0  0  0  0  0  0  0  0  0  0
    2.4956   -2.4091   -2.6635 C   0  0  0  0  0  0  0  0  0  0  0  0
    0.6479   -2.9923   -4.1329 C   0  0  0  0  0  0  0  0  0  0  0  0
    1.6944   -5.9468   -6.8626 C   0  0  0  0  0  0  0  0  0  0  0  0
    2.2154   -6.0142   -4.4848 C   0  0  0  0  0  0  0  0  0  0  0  0
    1.5883   -2.2207   -1.6041 C   0  0  0  0  0  0  0  0  0  0  0  0
   -0.2570   -2.8102   -3.0735 C   0  0  0  0  0  0  0  0  0  0  0  0
    1.0022   -7.1665   -6.7422 C   0  0  0  0  0  0  0  0  0  0  0  0
    1.5307   -7.2366   -4.3665 C   0  0  0  0  0  0  0  0  0  0  0  0
    0.2068   -2.4173   -1.8026 C   0  0  0  0  0  0  0  0  0  0  0  0
    0.9222   -7.8115   -5.4955 C   0  0  0  0  0  0  0  0  0  0  0  0
   -0.9182   -2.1508   -0.4616 S   0  0  1  0  0  0  0  0  0  0  0  0
   -2.5756   -2.4937   -0.9348 N   0  0  2  0  0  0  0  0  0  0  0  0
   -0.5403   -3.0960    0.7782 O   0  0  0  0  0  0  0  0  0  0  0  0
   -0.8527   -0.6219    0.0192 O   0  0  0  0  0  0  0  0  0  0  0  0
    4.6537   -0.8236   -4.0582 H   0  0  0  0  0  0  0  0  0  0  0  0
    3.3708   -0.1221   -5.0755 H   0  0  0  0  0  0  0  0  0  0  0  0
    5.0062   -0.3471   -5.7258 H   0  0  0  0  0  0  0  0  0  0  0  0
    3.4925   -2.2748   -2.4820 H   0  0  0  0  0  0  0  0  0  0  0  0
    0.2783   -3.2671   -5.0464 H   0  0  0  0  0  0  0  0  0  0  0  0
    1.7388   -5.4937   -7.7793 H   0  0  0  0  0  0  0  0  0  0  0  0
    2.6574   -5.6212   -3.6505 H   0  0  0  0  0  0  0  0  0  0  0  0
    1.9443   -1.9408   -0.6862 H   0  0  0  0  0  0  0  0  0  0  0  0
   -1.2532   -2.9647   -3.2438 H   0  0  0  0  0  0  0  0  0  0  0  0
    0.5576   -7.5858   -7.5618 H   0  0  0  0  0  0  0  0  0  0  0  0
    1.4799   -7.7095   -3.4607 H   0  0  0  0  0  0  0  0  0  0  0  0
    0.4205   -8.6984   -5.4088 H   0  0  0  0  0  0  0  0  0  0  0  0
   -2.5784   -3.4489   -1.2961 H   0  0  0  0  0  0  0  0  0  0  0  0
   -2.7996   -1.8796   -1.7213 H   0  0  0  0  0  0  0  0  0  0  0  0
  1  2  1  0  0  0  0 
  2  3  2  0  0  0  0 
  2  4  1  0  0  0  0 
  3  5  1  0  0  0  0 
  3  6  1  0  0  0  0 
  4  7  1  0  0  0  0 
  5  7  2  0  0  0  0 
  5  8  1  0  0  0  0 
  6  9  2  0  0  0  0 
  6 10  1  0  0  0  0 
  8 11  2  0  0  0  0 
  8 12  1  0  0  0  0 
  9 13  1  0  0  0  0 
 10 14  2  0  0  0  0 
 11 15  1  0  0  0  0 
 12 16  2  0  0  0  0 
 13 17  2  0  0  0  0 
 14 17  1  0  0  0  0 
 15 18  2  0  0  0  0 
 16 18  1  0  0  0  0 
 17 19  1  0  0  0  0 
 19 20  1  0  0  0  0 
 19 21  2  0  0  0  0 
 19 22  2  0  0  0  0 
  1 23  1  0  0  0  0 
  1 24  1  0  0  0  0 
  1 25  1  0  0  0  0 
  9 26  1  0  0  0  0 
 10 27  1  0  0  0  0 
 11 28  1  0  0  0  0 
 12 29  1  0  0  0  0 
 13 30  1  0  0  0  0 
 14 31  1  0  0  0  0 
 15 32  1  0  0  0  0 
 16 33  1  0  0  0  0 
 18 34  1  0  0  0  0 
 20 35  1  0  0  0  0 
 20 36  1  0  0  0  0 
M  END
> <cdk:Title>
valdecoxib

> <Conformer>
1

> <SuperDrugID>
SD002524

$$$$
