exiproben
  CDK     0628171801

 45 45  0  0  0  0  0  0  0  0999 V2000
   -0.3744   -0.6230    2.5317 O   0  0  0  0  0  0  0  0  0  0  0  0
   -1.4502   -1.5837    2.4713 C   0  0  2  0  0  0  0  0  0  0  0  0
   -0.0057   -0.1285    1.3126 C   0  0  0  0  0  0  0  0  0  0  0  0
   -1.7845   -2.0458    3.9118 C   0  0  2  0  0  0  0  0  0  0  0  0
    1.0179   -0.7429    0.5376 C   0  0  0  0  0  0  0  0  0  0  0  0
   -0.6564    1.0385    0.8545 C   0  0  0  0  0  0  0  0  0  0  0  0
   -2.2164   -0.8594    4.8100 C   0  0  1  0  0  0  0  0  0  0  0  0
   -0.6461   -2.6855    4.4902 O   0  0  0  0  0  0  0  0  0  0  0  0
    1.7633   -1.8654    1.0065 C   0  0  0  0  0  0  0  0  0  0  0  0
    1.3042   -0.1917   -0.7362 C   0  0  0  0  0  0  0  0  0  0  0  0
   -0.3271    1.5848   -0.3967 C   0  0  0  0  0  0  0  0  0  0  0  0
   -2.5365   -1.3105    6.1423 O   0  0  0  0  0  0  0  0  0  0  0  0
    2.5828   -2.5749    0.1932 O   0  0  0  0  0  0  0  0  0  0  0  0
    1.7308   -2.2456    2.1983 O   0  0  0  0  0  0  0  0  0  0  0  0
    0.6410    0.9596   -1.1991 C   0  0  0  0  0  0  0  0  0  0  0  0
   -2.9114   -0.2392    7.0335 C   0  0  1  0  0  0  0  0  0  0  0  0
   -3.2379   -0.7940    8.4407 C   0  0  1  0  0  0  0  0  0  0  0  0
   -3.6689    0.3258    9.4268 C   0  0  1  0  0  0  0  0  0  0  0  0
   -4.0108   -0.2066   10.8444 C   0  0  2  0  0  0  0  0  0  0  0  0
   -4.4460    0.9391   11.7973 C   0  0  1  0  0  0  0  0  0  0  0  0
   -4.7980    0.4469   13.2185 C   0  0  0  0  0  0  0  0  0  0  0  0
   -1.1658   -2.4578    1.8760 H   0  0  0  0  0  0  0  0  0  0  0  0
   -2.3477   -1.1440    2.0239 H   0  0  0  0  0  0  0  0  0  0  0  0
   -2.5998   -2.7751    3.8690 H   0  0  0  0  0  0  0  0  0  0  0  0
   -1.3752    1.4900    1.4303 H   0  0  0  0  0  0  0  0  0  0  0  0
   -1.4000   -0.1324    4.8552 H   0  0  0  0  0  0  0  0  0  0  0  0
   -3.0880   -0.3765    4.3588 H   0  0  0  0  0  0  0  0  0  0  0  0
   -0.4333   -3.4275    3.8865 H   0  0  0  0  0  0  0  0  0  0  0  0
    2.0125   -0.6150   -1.3409 H   0  0  0  0  0  0  0  0  0  0  0  0
   -0.7957    2.4333   -0.7248 H   0  0  0  0  0  0  0  0  0  0  0  0
    3.1066   -3.3201    0.5565 H   0  0  0  0  0  0  0  0  0  0  0  0
    0.8656    1.3457   -2.1187 H   0  0  0  0  0  0  0  0  0  0  0  0
   -2.0898    0.4790    7.1212 H   0  0  0  0  0  0  0  0  0  0  0  0
   -3.7939    0.2766    6.6423 H   0  0  0  0  0  0  0  0  0  0  0  0
   -4.0442   -1.5273    8.3517 H   0  0  0  0  0  0  0  0  0  0  0  0
   -2.3529   -1.3014    8.8351 H   0  0  0  0  0  0  0  0  0  0  0  0
   -2.8590    1.0574    9.5123 H   0  0  0  0  0  0  0  0  0  0  0  0
   -4.5483    0.8368    9.0222 H   0  0  0  0  0  0  0  0  0  0  0  0
   -3.1321   -0.7083   11.2618 H   0  0  0  0  0  0  0  0  0  0  0  0
   -4.8209   -0.9386   10.7680 H   0  0  0  0  0  0  0  0  0  0  0  0
   -3.6366    1.6712   11.8750 H   0  0  0  0  0  0  0  0  0  0  0  0
   -5.3227    1.4429   11.3790 H   0  0  0  0  0  0  0  0  0  0  0  0
   -3.9324   -0.0346   13.6794 H   0  0  0  0  0  0  0  0  0  0  0  0
   -5.6266   -0.2642   13.1802 H   0  0  0  0  0  0  0  0  0  0  0  0
   -5.0954    1.2973   13.8367 H   0  0  0  0  0  0  0  0  0  0  0  0
  1  2  1  0  0  0  0 
  1  3  1  0  0  0  0 
  4  2  1  0  0  0  0 
  3  5  2  0  0  0  0 
  3  6  1  0  0  0  0 
  4  7  1  0  0  0  0 
  4  8  1  0  0  0  0 
  5  9  1  0  0  0  0 
  5 10  1  0  0  0  0 
  6 11  2  0  0  0  0 
  7 12  1  0  0  0  0 
  9 13  1  0  0  0  0 
  9 14  2  0  0  0  0 
 10 15  2  0  0  0  0 
 11 15  1  0  0  0  0 
 12 16  1  0  0  0  0 
 16 17  1  0  0  0  0 
 17 18  1  0  0  0  0 
 18 19  1  0  0  0  0 
 19 20  1  0  0  0  0 
 20 21  1  0  0  0  0 
  2 22  1  0  0  0  0 
  2 23  1  0  0  0  0 
  4 24  1  0  0  0  0 
  6 25  1  0  0  0  0 
  7 26  1  0  0  0  0 
  7 27  1  0  0  0  0 
  8 28  1  0  0  0  0 
 10 29  1  0  0  0  0 
 11 30  1  0  0  0  0 
 13 31  1  0  0  0  0 
 15 32  1  0  0  0  0 
 16 33  1  0  0  0  0 
 16 34  1  0  0  0  0 
 17 35  1  0  0  0  0 
 17 36  1  0  0  0  0 
 18 37  1  0  0  0  0 
 18 38  1  0  0  0  0 
 19 39  1  0  0  0  0 
 19 40  1  0  0  0  0 
 20 41  1  0  0  0  0 
 20 42  1  0  0  0  0 
 21 43  1  0  0  0  0 
 21 44  1  0  0  0  0 
 21 45  1  0  0  0  0 
M  END
> <cdk:Title>
exiproben

> <Conformer>
1

> <SuperDrugID>
SD003199

$$$$
