famciclovir
  CDK     0628171801

 42 43  0  0  0  0  0  0  0  0999 V2000
    1.7586   -1.0723   -3.0388 C   0  0  1  0  0  0  0  0  0  0  0  0
    0.6522   -1.9464   -2.3843 C   0  0  1  0  0  0  0  0  0  0  0  0
    3.0671   -1.5750   -2.7296 N   0  0  0  0  0  0  0  0  0  0  0  0
   -0.8162   -1.4598   -2.6221 C   0  0  1  0  0  0  0  0  0  0  0  0
    3.9348   -2.1760   -3.5609 C   0  0  0  0  0  0  0  0  0  0  0  0
    3.6682   -1.5439   -1.5180 C   0  0  0  0  0  0  0  0  0  0  0  0
   -1.8384   -2.5639   -2.2129 C   0  0  2  0  0  0  0  0  0  0  0  0
   -1.1003   -0.1140   -1.8818 C   0  0  1  0  0  0  0  0  0  0  0  0
    5.0510   -2.5255   -2.8104 C   0  0  0  0  0  0  0  0  0  0  0  0
    3.8639   -2.4599   -4.8862 N   0  0  0  0  0  0  0  0  0  0  0  0
    4.8827   -2.1262   -1.5442 N   0  0  0  0  0  0  0  0  0  0  0  0
   -1.5987   -3.7919   -2.9201 O   0  0  0  0  0  0  0  0  0  0  0  0
   -2.4901    0.2397   -1.8781 O   0  0  0  0  0  0  0  0  0  0  0  0
    6.1080   -3.2022   -3.4358 C   0  0  0  0  0  0  0  0  0  0  0  0
    4.9019   -3.1007   -5.4917 C   0  0  0  0  0  0  0  0  0  0  0  0
   -2.2962   -4.9575   -2.7863 C   0  0  0  0  0  0  0  0  0  0  0  0
   -3.0330    1.3621   -1.3167 C   0  0  0  0  0  0  0  0  0  0  0  0
    5.9995   -3.4661   -4.7674 N   0  0  0  0  0  0  0  0  0  0  0  0
    4.8463   -3.3735   -6.8039 N   0  0  0  0  0  0  0  0  0  0  0  0
   -1.9090   -6.1158   -3.6080 C   0  0  0  0  0  0  0  0  0  0  0  0
   -3.2527   -5.0463   -1.9806 O   0  0  0  0  0  0  0  0  0  0  0  0
   -4.4906    1.5458   -1.3139 C   0  0  0  0  0  0  0  0  0  0  0  0
   -2.3084    2.2517   -0.8115 O   0  0  0  0  0  0  0  0  0  0  0  0
    1.6050   -1.0610   -4.1220 H   0  0  0  0  0  0  0  0  0  0  0  0
    1.6918   -0.0400   -2.6880 H   0  0  0  0  0  0  0  0  0  0  0  0
    0.7704   -2.9537   -2.7932 H   0  0  0  0  0  0  0  0  0  0  0  0
    0.8284   -2.0153   -1.3065 H   0  0  0  0  0  0  0  0  0  0  0  0
   -0.9467   -1.2879   -3.6945 H   0  0  0  0  0  0  0  0  0  0  0  0
    3.2579   -1.1318   -0.6772 H   0  0  0  0  0  0  0  0  0  0  0  0
   -2.8521   -2.2352   -2.4536 H   0  0  0  0  0  0  0  0  0  0  0  0
   -1.7812   -2.7471   -1.1363 H   0  0  0  0  0  0  0  0  0  0  0  0
   -0.7598   -0.1822   -0.8453 H   0  0  0  0  0  0  0  0  0  0  0  0
   -0.5459    0.6874   -2.3717 H   0  0  0  0  0  0  0  0  0  0  0  0
    6.9332   -3.4941   -2.9093 H   0  0  0  0  0  0  0  0  0  0  0  0
    4.0801   -3.0926   -7.3281 H   0  0  0  0  0  0  0  0  0  0  0  0
    5.5758   -3.8479   -7.2311 H   0  0  0  0  0  0  0  0  0  0  0  0
   -2.5425   -6.9796   -3.3975 H   0  0  0  0  0  0  0  0  0  0  0  0
   -2.0035   -5.8604   -4.6639 H   0  0  0  0  0  0  0  0  0  0  0  0
   -0.8748   -6.3892   -3.3997 H   0  0  0  0  0  0  0  0  0  0  0  0
   -4.7558    2.4186   -1.9145 H   0  0  0  0  0  0  0  0  0  0  0  0
   -4.8466    1.6994   -0.2919 H   0  0  0  0  0  0  0  0  0  0  0  0
   -4.9929    0.6704   -1.7283 H   0  0  0  0  0  0  0  0  0  0  0  0
  1  2  1  0  0  0  0 
  1  3  1  0  0  0  0 
  2  4  1  0  0  0  0 
  3  5  1  0  0  0  0 
  3  6  1  0  0  0  0 
  4  7  1  0  0  0  0 
  4  8  1  0  0  0  0 
  5  9  1  0  0  0  0 
  5 10  2  0  0  0  0 
  6 11  2  0  0  0  0 
  7 12  1  0  0  0  0 
  8 13  1  0  0  0  0 
  9 11  1  0  0  0  0 
  9 14  2  0  0  0  0 
 10 15  1  0  0  0  0 
 12 16  1  0  0  0  0 
 13 17  1  0  0  0  0 
 14 18  1  0  0  0  0 
 15 18  2  0  0  0  0 
 15 19  1  0  0  0  0 
 16 20  1  0  0  0  0 
 16 21  2  0  0  0  0 
 17 22  1  0  0  0  0 
 17 23  2  0  0  0  0 
  1 24  1  0  0  0  0 
  1 25  1  0  0  0  0 
  2 26  1  0  0  0  0 
  2 27  1  0  0  0  0 
  4 28  1  0  0  0  0 
  6 29  1  0  0  0  0 
  7 30  1  0  0  0  0 
  7 31  1  0  0  0  0 
  8 32  1  0  0  0  0 
  8 33  1  0  0  0  0 
 14 34  1  0  0  0  0 
 19 35  1  0  0  0  0 
 19 36  1  0  0  0  0 
 20 37  1  0  0  0  0 
 20 38  1  0  0  0  0 
 20 39  1  0  0  0  0 
 22 40  1  0  0  0  0 
 22 41  1  0  0  0  0 
 22 42  1  0  0  0  0 
M  END
> <cdk:Title>
famciclovir

> <Conformer>
1

> <SuperDrugID>
SD001007

$$$$
