risedronic acid
  CDK     0628171801

 28 28  0  0  0  0  0  0  0  0999 V2000
    1.4414   -2.2522    0.7794 C   0  0  1  0  0  0  0  0  0  0  0  0
    1.3136   -1.3145   -0.4739 C   0  0  2  0  0  0  0  0  0  0  0  0
    1.7471   -3.8798    0.2903 P   0  0  1  0  0  0  0  0  0  0  0  0
    2.6553   -1.7163    1.8838 P   0  0  1  0  0  0  0  0  0  0  0  0
    0.2146   -2.2679    1.5073 O   0  0  0  0  0  0  0  0  0  0  0  0
    0.9024    0.0910   -0.1887 C   0  0  0  0  0  0  0  0  0  0  0  0
    2.9951   -3.9996   -0.4765 O   0  0  0  0  0  0  0  0  0  0  0  0
    1.8128   -4.8452    1.5510 O   0  0  0  0  0  0  0  0  0  0  0  0
    0.5408   -4.4034   -0.6035 O   0  0  0  0  0  0  0  0  0  0  0  0
    3.9670   -1.5871    1.2352 O   0  0  0  0  0  0  0  0  0  0  0  0
    2.2424   -0.3148    2.5127 O   0  0  0  0  0  0  0  0  0  0  0  0
    2.7685   -2.7166    3.1134 O   0  0  0  0  0  0  0  0  0  0  0  0
   -0.4430    0.4136    0.1094 C   0  0  0  0  0  0  0  0  0  0  0  0
    1.8395    1.1515   -0.2081 C   0  0  0  0  0  0  0  0  0  0  0  0
   -0.8190    1.7420    0.3839 C   0  0  0  0  0  0  0  0  0  0  0  0
    1.4487    2.4219    0.0687 N   0  0  0  0  0  0  0  0  0  0  0  0
    0.1646    2.7456    0.3616 C   0  0  0  0  0  0  0  0  0  0  0  0
    0.5810   -1.7266   -1.1746 H   0  0  0  0  0  0  0  0  0  0  0  0
    2.2653   -1.3097   -1.0144 H   0  0  0  0  0  0  0  0  0  0  0  0
   -0.4679   -2.5774    0.8747 H   0  0  0  0  0  0  0  0  0  0  0  0
    0.9321   -4.7629    1.9718 H   0  0  0  0  0  0  0  0  0  0  0  0
   -0.2364   -4.3753   -0.0075 H   0  0  0  0  0  0  0  0  0  0  0  0
    1.4138   -0.4928    3.0039 H   0  0  0  0  0  0  0  0  0  0  0  0
    1.8822   -2.6891    3.5318 H   0  0  0  0  0  0  0  0  0  0  0  0
   -1.1603   -0.3160    0.1235 H   0  0  0  0  0  0  0  0  0  0  0  0
    2.8253    0.9789   -0.4204 H   0  0  0  0  0  0  0  0  0  0  0  0
   -1.7922    1.9739    0.5937 H   0  0  0  0  0  0  0  0  0  0  0  0
   -0.0813    3.7171    0.5624 H   0  0  0  0  0  0  0  0  0  0  0  0
  1  2  1  0  0  0  0 
  1  3  1  0  0  0  0 
  1  4  1  0  0  0  0 
  1  5  1  0  0  0  0 
  2  6  1  0  0  0  0 
  3  7  2  0  0  0  0 
  3  8  1  0  0  0  0 
  3  9  1  0  0  0  0 
  4 10  2  0  0  0  0 
  4 11  1  0  0  0  0 
  4 12  1  0  0  0  0 
  6 13  2  0  0  0  0 
  6 14  1  0  0  0  0 
 13 15  1  0  0  0  0 
 14 16  2  0  0  0  0 
 15 17  2  0  0  0  0 
 16 17  1  0  0  0  0 
  2 18  1  0  0  0  0 
  2 19  1  0  0  0  0 
  5 20  1  0  0  0  0 
  8 21  1  0  0  0  0 
  9 22  1  0  0  0  0 
 11 23  1  0  0  0  0 
 12 24  1  0  0  0  0 
 13 25  1  0  0  0  0 
 14 26  1  0  0  0  0 
 15 27  1  0  0  0  0 
 17 28  1  0  0  0  0 
M  END
> <cdk:Title>
risedronic acid

> <Conformer>
1

> <SuperDrugID>
SD002148

$$$$
