resorcinol
  CDK     0628171801

 14 14  0  0  0  0  0  0  0  0999 V2000
   -4.0768    3.7705    6.0331 O   0  0  0  0  0  0  0  0  0  0  0  0
   -3.9375    2.4999    5.5792 C   0  0  0  0  0  0  0  0  0  0  0  0
   -3.4083    2.2763    4.2930 C   0  0  0  0  0  0  0  0  0  0  0  0
   -3.2566    0.9630    3.8106 C   0  0  0  0  0  0  0  0  0  0  0  0
   -3.6342   -0.1305    4.6118 C   0  0  0  0  0  0  0  0  0  0  0  0
   -4.1660    0.0861    5.8981 C   0  0  0  0  0  0  0  0  0  0  0  0
   -4.5279   -0.9764    6.6596 O   0  0  0  0  0  0  0  0  0  0  0  0
   -4.3161    1.4028    6.3797 C   0  0  0  0  0  0  0  0  0  0  0  0
   -4.4672    3.6949    6.9298 H   0  0  0  0  0  0  0  0  0  0  0  0
   -3.1304    3.0670    3.7077 H   0  0  0  0  0  0  0  0  0  0  0  0
   -2.8713    0.8031    2.8764 H   0  0  0  0  0  0  0  0  0  0  0  0
   -3.5239   -1.0824    4.2556 H   0  0  0  0  0  0  0  0  0  0  0  0
   -4.8559   -0.6026    7.5050 H   0  0  0  0  0  0  0  0  0  0  0  0
   -4.7013    1.5626    7.3137 H   0  0  0  0  0  0  0  0  0  0  0  0
  1  2  1  0  0  0  0 
  2  3  2  0  0  0  0 
  3  4  1  0  0  0  0 
  4  5  2  0  0  0  0 
  5  6  1  0  0  0  0 
  6  7  1  0  0  0  0 
  6  8  2  0  0  0  0 
  2  8  1  0  0  0  0 
  1  9  1  0  0  0  0 
  3 10  1  0  0  0  0 
  4 11  1  0  0  0  0 
  5 12  1  0  0  0  0 
  7 13  1  0  0  0  0 
  8 14  1  0  0  0  0 
M  END
> <cdk:Title>
resorcinol

> <Conformer>
1

> <SuperDrugID>
SD003033

$$$$
