aldosterone
  CDK     0628171801

 54 57  0  0  0  0  0  0  0  0999 V2000
   -0.9890    3.1862   -2.1173 C   0  0  0  0  0  0  0  0  0  0  0  0
   -2.1912    2.8336   -2.0957 O   0  0  0  0  0  0  0  0  0  0  0  0
    0.1728    2.2239   -2.1315 C   0  0  2  0  0  0  0  0  0  0  0  0
    0.9342    2.2251   -3.4994 C   0  0  2  0  0  0  0  0  0  0  0  0
   -0.3000    0.7187   -2.0870 C   0  0  1  0  0  0  0  0  0  0  0  0
    1.2364    2.6277   -1.0482 C   0  0  2  0  0  0  0  0  0  0  0  0
    1.5034    3.6276   -3.9004 C   0  0  1  0  0  0  0  0  0  0  0  0
   -0.0313    1.5026   -4.4595 C   0  0  1  0  0  0  0  0  0  0  0  0
   -1.3095    0.3088   -1.0544 C   0  0  0  0  0  0  0  0  0  0  0  0
   -0.7054    0.4264   -3.5713 C   0  0  2  0  0  0  0  0  0  0  0  0
    1.9765    3.9790   -1.3341 C   0  0  1  0  0  0  0  0  0  0  0  0
    2.5294    4.1205   -2.8079 C   0  0  2  0  0  0  0  0  0  0  0  0
    2.1920    3.5882   -5.2983 C   0  0  1  0  0  0  0  0  0  0  0  0
   -1.1025    0.5061    0.3957 C   0  0  2  0  0  0  0  0  0  0  0  0
   -2.3797   -0.2519   -1.3939 O   0  0  0  0  0  0  0  0  0  0  0  0
    1.1412    5.0660   -0.9433 O   0  0  0  0  0  0  0  0  0  0  0  0
    3.2385    5.5030   -3.1866 C   0  0  2  0  0  0  0  0  0  0  0  0
    2.8501    4.9419   -5.6501 C   0  0  2  0  0  0  0  0  0  0  0  0
   -1.5677    1.7918    0.7899 O   0  0  0  0  0  0  0  0  0  0  0  0
    2.2691    6.7421   -3.1457 C   0  0  0  0  0  0  0  0  0  0  0  0
    3.7627    5.4027   -4.5904 C   0  0  0  0  0  0  0  0  0  0  0  0
    4.4138    5.7675   -2.1539 C   0  0  1  0  0  0  0  0  0  0  0  0
    5.0359    5.7316   -4.9171 C   0  0  0  0  0  0  0  0  0  0  0  0
    5.4826    6.7451   -2.6965 C   0  0  1  0  0  0  0  0  0  0  0  0
    5.9447    6.2446   -4.0060 C   0  0  0  0  0  0  0  0  0  0  0  0
    7.1654    6.2878   -4.2890 O   0  0  0  0  0  0  0  0  0  0  0  0
   -0.8297    4.1915   -2.1463 H   0  0  0  0  0  0  0  0  0  0  0  0
    1.8107    1.5622   -3.4289 H   0  0  0  0  0  0  0  0  0  0  0  0
    0.5737    0.0917   -1.8737 H   0  0  0  0  0  0  0  0  0  0  0  0
    1.9967    1.8429   -0.9787 H   0  0  0  0  0  0  0  0  0  0  0  0
    0.7693    2.6881   -0.0648 H   0  0  0  0  0  0  0  0  0  0  0  0
    0.6755    4.3343   -3.9715 H   0  0  0  0  0  0  0  0  0  0  0  0
   -0.7695    2.2070   -4.8521 H   0  0  0  0  0  0  0  0  0  0  0  0
    0.5006    1.0464   -5.2984 H   0  0  0  0  0  0  0  0  0  0  0  0
   -1.7868    0.4792   -3.7206 H   0  0  0  0  0  0  0  0  0  0  0  0
   -0.3716   -0.5739   -3.8610 H   0  0  0  0  0  0  0  0  0  0  0  0
    2.8287    4.0091   -0.6490 H   0  0  0  0  0  0  0  0  0  0  0  0
    3.3336    3.3734   -2.8458 H   0  0  0  0  0  0  0  0  0  0  0  0
    2.9568    2.8046   -5.3221 H   0  0  0  0  0  0  0  0  0  0  0  0
    1.4518    3.3560   -6.0699 H   0  0  0  0  0  0  0  0  0  0  0  0
   -0.0468    0.4065    0.6502 H   0  0  0  0  0  0  0  0  0  0  0  0
   -1.6552   -0.2414    0.9697 H   0  0  0  0  0  0  0  0  0  0  0  0
    0.9973    4.9466    0.0206 H   0  0  0  0  0  0  0  0  0  0  0  0
    2.0674    5.6895   -5.7938 H   0  0  0  0  0  0  0  0  0  0  0  0
    3.3448    4.8295   -6.6203 H   0  0  0  0  0  0  0  0  0  0  0  0
   -2.5259    1.7926    0.5794 H   0  0  0  0  0  0  0  0  0  0  0  0
    2.7267    7.6123   -3.6206 H   0  0  0  0  0  0  0  0  0  0  0  0
    2.0288    7.0380   -2.1261 H   0  0  0  0  0  0  0  0  0  0  0  0
    1.3286    6.5462   -3.6590 H   0  0  0  0  0  0  0  0  0  0  0  0
    4.0289    6.1569   -1.2071 H   0  0  0  0  0  0  0  0  0  0  0  0
    4.9344    4.8328   -1.9188 H   0  0  0  0  0  0  0  0  0  0  0  0
    5.3562    5.6120   -5.8519 H   0  0  0  0  0  0  0  0  0  0  0  0
    5.0534    7.7416   -2.8264 H   0  0  0  0  0  0  0  0  0  0  0  0
    6.3125    6.8248   -1.9887 H   0  0  0  0  0  0  0  0  0  0  0  0
  1  2  2  0  0  0  0 
  3  1  1  0  0  0  0 
  4  3  1  0  0  0  0 
  3  5  1  0  0  0  0 
  3  6  1  0  0  0  0 
  7  4  1  0  0  0  0 
  4  8  1  0  0  0  0 
  5  9  1  0  0  0  0 
  5 10  1  0  0  0  0 
 11  6  1  0  0  0  0 
 12  7  1  0  0  0  0 
  7 13  1  0  0  0  0 
  8 10  1  0  0  0  0 
  9 14  1  0  0  0  0 
  9 15  2  0  0  0  0 
 12 11  1  0  0  0  0 
 11 16  1  0  0  0  0 
 12 17  1  0  0  0  0 
 13 18  1  0  0  0  0 
 14 19  1  0  0  0  0 
 17 20  1  0  0  0  0 
 17 21  1  0  0  0  0 
 17 22  1  0  0  0  0 
 18 21  1  0  0  0  0 
 21 23  2  0  0  0  0 
 22 24  1  0  0  0  0 
 23 25  1  0  0  0  0 
 24 25  1  0  0  0  0 
 25 26  2  0  0  0  0 
 27  1  1  0  0  0  0 
  4 28  1  0  0  0  0 
  5 29  1  0  0  0  0 
 30  6  1  0  0  0  0 
 31  6  1  0  0  0  0 
  7 32  1  0  0  0  0 
 33  8  1  0  0  0  0 
 34  8  1  0  0  0  0 
 35 10  1  0  0  0  0 
 36 10  1  0  0  0  0 
 11 37  1  0  0  0  0 
 12 38  1  0  0  0  0 
 39 13  1  0  0  0  0 
 40 13  1  0  0  0  0 
 41 14  1  0  0  0  0 
 42 14  1  0  0  0  0 
 43 16  1  0  0  0  0 
 44 18  1  0  0  0  0 
 45 18  1  0  0  0  0 
 46 19  1  0  0  0  0 
 47 20  1  0  0  0  0 
 48 20  1  0  0  0  0 
 49 20  1  0  0  0  0 
 50 22  1  0  0  0  0 
 51 22  1  0  0  0  0 
 52 23  1  0  0  0  0 
 53 24  1  0  0  0  0 
 54 24  1  0  0  0  0 
M  END
> <cdk:Title>
aldosterone

> <Conformer>
1

> <SuperDrugID>
SD000083

$$$$
