benzomethamine
  CDK     0628171801

 57 58  0  0  0  0  0  0  0  0999 V2000
    2.4904    1.4376    0.7482 C   0  0  1  0  0  0  0  0  0  0  0  0
    1.0589    0.9945    0.9592 C   0  0  0  0  0  0  0  0  0  0  0  0
    2.7110    1.0959   -0.6296 O   0  0  0  0  0  0  0  0  0  0  0  0
    2.7181    2.9176    0.9463 C   0  0  0  0  0  0  0  0  0  0  0  0
    3.4953    0.6976    1.6227 C   0  0  0  0  0  0  0  0  0  0  0  0
   -0.0654    1.3650    0.1954 N   0  0  0  0  0  0  0  0  0  0  0  0
    0.8675    0.1970    1.9140 O   0  0  0  0  0  0  0  0  0  0  0  0
    1.8750    3.7221    1.7605 C   0  0  0  0  0  0  0  0  0  0  0  0
    3.8629    3.5385    0.3835 C   0  0  0  0  0  0  0  0  0  0  0  0
    4.3930   -0.2729    1.1000 C   0  0  0  0  0  0  0  0  0  0  0  0
    3.5668    0.9453    3.0225 C   0  0  0  0  0  0  0  0  0  0  0  0
   -0.0639    2.3117   -0.9201 C   0  0  2  0  0  0  0  0  0  0  0  0
   -1.3372    0.7284    0.5042 C   0  0  0  0  0  0  0  0  0  0  0  0
    2.1431    5.0871    1.9738 C   0  0  0  0  0  0  0  0  0  0  0  0
    4.1469    4.8975    0.6073 C   0  0  0  0  0  0  0  0  0  0  0  0
    5.3214   -0.9405    1.9206 C   0  0  0  0  0  0  0  0  0  0  0  0
    4.4861    0.2741    3.8504 C   0  0  0  0  0  0  0  0  0  0  0  0
   -0.8097    3.6570   -0.6250 C   0  0  1  0  0  0  0  0  0  0  0  0
    3.2855    5.6719    1.4031 C   0  0  0  0  0  0  0  0  0  0  0  0
    5.3677   -0.6684    3.2980 C   0  0  0  0  0  0  0  0  0  0  0  0
   -1.1863    4.5711   -1.7965 N   0  0  2  0  0  0  0  0  0  0  0  0
   -2.3087    3.9778   -2.6451 C   0  0  2  0  0  0  0  0  0  0  0  0
    0.0415    4.7972   -2.6793 C   0  0  1  0  0  0  0  0  0  0  0  0
   -1.6312    5.9068   -1.2217 C   0  0  0  0  0  0  0  0  0  0  0  0
   -3.6339    3.5729   -1.9474 C   0  0  0  0  0  0  0  0  0  0  0  0
   -0.0043    5.8890   -3.7864 C   0  0  0  0  0  0  0  0  0  0  0  0
    3.6474    1.3011   -0.8248 H   0  0  0  0  0  0  0  0  0  0  0  0
    1.0557    3.3219    2.2214 H   0  0  0  0  0  0  0  0  0  0  0  0
    4.5151    2.9983   -0.1888 H   0  0  0  0  0  0  0  0  0  0  0  0
    4.3823   -0.5156    0.1093 H   0  0  0  0  0  0  0  0  0  0  0  0
    2.9424    1.6264    3.4596 H   0  0  0  0  0  0  0  0  0  0  0  0
   -0.5120    1.8189   -1.7862 H   0  0  0  0  0  0  0  0  0  0  0  0
    0.9425    2.5784   -1.2284 H   0  0  0  0  0  0  0  0  0  0  0  0
   -2.1294    0.9841   -0.2008 H   0  0  0  0  0  0  0  0  0  0  0  0
   -1.6738    1.0158    1.5033 H   0  0  0  0  0  0  0  0  0  0  0  0
   -1.2332   -0.3583    0.4690 H   0  0  0  0  0  0  0  0  0  0  0  0
    1.5116    5.6502    2.5494 H   0  0  0  0  0  0  0  0  0  0  0  0
    4.9858    5.3188    0.1964 H   0  0  0  0  0  0  0  0  0  0  0  0
    5.9608   -1.6314    1.5163 H   0  0  0  0  0  0  0  0  0  0  0  0
    4.5115    0.4670    4.8545 H   0  0  0  0  0  0  0  0  0  0  0  0
   -1.6980    3.4339   -0.0321 H   0  0  0  0  0  0  0  0  0  0  0  0
   -0.1585    4.2105    0.0524 H   0  0  0  0  0  0  0  0  0  0  0  0
    3.4952    6.6571    1.5724 H   0  0  0  0  0  0  0  0  0  0  0  0
    6.0380   -1.1579    3.8950 H   0  0  0  0  0  0  0  0  0  0  0  0
   -1.9545    3.0866   -3.1718 H   0  0  0  0  0  0  0  0  0  0  0  0
   -2.5987    4.6875   -3.4253 H   0  0  0  0  0  0  0  0  0  0  0  0
    0.9037    5.0468   -2.0516 H   0  0  0  0  0  0  0  0  0  0  0  0
    0.2987    3.8661   -3.1945 H   0  0  0  0  0  0  0  0  0  0  0  0
   -2.0904    6.5475   -1.9803 H   0  0  0  0  0  0  0  0  0  0  0  0
   -2.3668    5.7897   -0.4221 H   0  0  0  0  0  0  0  0  0  0  0  0
   -0.7896    6.4623   -0.7953 H   0  0  0  0  0  0  0  0  0  0  0  0
   -4.3823    3.3240   -2.7021 H   0  0  0  0  0  0  0  0  0  0  0  0
   -3.4891    2.6917   -1.3239 H   0  0  0  0  0  0  0  0  0  0  0  0
   -4.0255    4.3848   -1.3349 H   0  0  0  0  0  0  0  0  0  0  0  0
    0.9053    5.8321   -4.3898 H   0  0  0  0  0  0  0  0  0  0  0  0
   -0.8557    5.7556   -4.4541 H   0  0  0  0  0  0  0  0  0  0  0  0
   -0.0511    6.8859   -3.3441 H   0  0  0  0  0  0  0  0  0  0  0  0
  1  2  1  0  0  0  0 
  1  3  1  0  0  0  0 
  1  4  1  0  0  0  0 
  1  5  1  0  0  0  0 
  2  6  1  0  0  0  0 
  2  7  2  0  0  0  0 
  4  8  2  0  0  0  0 
  4  9  1  0  0  0  0 
  5 10  2  0  0  0  0 
  5 11  1  0  0  0  0 
  6 12  1  0  0  0  0 
  6 13  1  0  0  0  0 
  8 14  1  0  0  0  0 
  9 15  2  0  0  0  0 
 10 16  1  0  0  0  0 
 11 17  2  0  0  0  0 
 12 18  1  0  0  0  0 
 14 19  2  0  0  0  0 
 15 19  1  0  0  0  0 
 16 20  2  0  0  0  0 
 17 20  1  0  0  0  0 
 18 21  1  0  0  0  0 
 21 22  1  0  0  0  0 
 21 23  1  0  0  0  0 
 21 24  1  0  0  0  0 
 22 25  1  0  0  0  0 
 23 26  1  0  0  0  0 
  3 27  1  0  0  0  0 
  8 28  1  0  0  0  0 
  9 29  1  0  0  0  0 
 10 30  1  0  0  0  0 
 11 31  1  0  0  0  0 
 12 32  1  0  0  0  0 
 12 33  1  0  0  0  0 
 13 34  1  0  0  0  0 
 13 35  1  0  0  0  0 
 13 36  1  0  0  0  0 
 14 37  1  0  0  0  0 
 15 38  1  0  0  0  0 
 16 39  1  0  0  0  0 
 17 40  1  0  0  0  0 
 18 41  1  0  0  0  0 
 18 42  1  0  0  0  0 
 19 43  1  0  0  0  0 
 20 44  1  0  0  0  0 
 22 45  1  0  0  0  0 
 22 46  1  0  0  0  0 
 23 47  1  0  0  0  0 
 23 48  1  0  0  0  0 
 24 49  1  0  0  0  0 
 24 50  1  0  0  0  0 
 24 51  1  0  0  0  0 
 25 52  1  0  0  0  0 
 25 53  1  0  0  0  0 
 25 54  1  0  0  0  0 
 26 55  1  0  0  0  0 
 26 56  1  0  0  0  0 
 26 57  1  0  0  0  0 
M  CHG  1  21   1
M  END
> <cdk:Title>
benzomethamine

> <Conformer>
1

> <SuperDrugID>
SD000274

$$$$
