nifuratel
  CDK     0628171801

 30 31  0  0  0  0  0  0  0  0999 V2000
   -4.0606    4.2869    0.8901 N   0  0  0  0  0  0  0  0  0  0  0  0
   -4.8881    4.9087    0.1309 C   0  0  0  0  0  0  0  0  0  0  0  0
   -3.3471    3.2999    0.5109 N   0  0  0  0  0  0  0  0  0  0  0  0
   -5.6342    5.9560    0.6132 C   0  0  0  0  0  0  0  0  0  0  0  0
   -2.0646    3.4283   -0.0867 C   0  0  1  0  0  0  0  0  0  0  0  0
   -3.7041    2.0090    0.6225 C   0  0  0  0  0  0  0  0  0  0  0  0
   -5.6360    6.4043    1.8937 O   0  0  0  0  0  0  0  0  0  0  0  0
   -6.5259    6.7292   -0.1251 C   0  0  0  0  0  0  0  0  0  0  0  0
   -1.6716    1.9638   -0.4217 C   0  0  2  0  0  0  0  0  0  0  0  0
   -4.7722    1.5804    1.1156 O   0  0  0  0  0  0  0  0  0  0  0  0
   -2.7595    1.2052    0.1042 O   0  0  0  0  0  0  0  0  0  0  0  0
   -6.5121    7.4376    1.9982 C   0  0  0  0  0  0  0  0  0  0  0  0
   -7.0777    7.6567    0.7433 C   0  0  0  0  0  0  0  0  0  0  0  0
   -0.3269    1.5158    0.1980 C   0  0  1  0  0  0  0  0  0  0  0  0
   -6.7707    8.0991    3.1152 N   0  0  0  0  0  0  0  0  0  0  0  0
    0.0190   -0.2390   -0.1538 S   0  0  0  0  0  0  0  0  0  0  0  0
   -6.1915    7.8498    4.0972 O   0  0  0  0  0  0  0  0  0  0  0  0
   -7.6536    9.0114    3.1690 O   0  0  0  0  0  0  0  0  0  0  0  0
    1.6865   -0.4800    0.5329 C   0  0  0  0  0  0  0  0  0  0  0  0
   -5.0020    4.6290   -0.8182 H   0  0  0  0  0  0  0  0  0  0  0  0
   -2.1205    4.0314   -0.9968 H   0  0  0  0  0  0  0  0  0  0  0  0
   -1.3691    3.8980    0.6142 H   0  0  0  0  0  0  0  0  0  0  0  0
   -6.7415    6.6348   -1.1200 H   0  0  0  0  0  0  0  0  0  0  0  0
   -1.6443    1.8249   -1.5065 H   0  0  0  0  0  0  0  0  0  0  0  0
   -7.7719    8.3659    0.5039 H   0  0  0  0  0  0  0  0  0  0  0  0
    0.4811    2.1231   -0.2181 H   0  0  0  0  0  0  0  0  0  0  0  0
   -0.3486    1.6527    1.2830 H   0  0  0  0  0  0  0  0  0  0  0  0
    1.9197   -1.5447    0.5325 H   0  0  0  0  0  0  0  0  0  0  0  0
    1.7271   -0.1024    1.5564 H   0  0  0  0  0  0  0  0  0  0  0  0
    2.4165    0.0515   -0.0806 H   0  0  0  0  0  0  0  0  0  0  0  0
  1  2  2  0  0  0  0 
  1  3  1  0  0  0  0 
  2  4  1  0  0  0  0 
  3  5  1  0  0  0  0 
  3  6  1  0  0  0  0 
  4  7  1  0  0  0  0 
  4  8  2  0  0  0  0 
  5  9  1  0  0  0  0 
  6 10  2  0  0  0  0 
  6 11  1  0  0  0  0 
  7 12  1  0  0  0  0 
  8 13  1  0  0  0  0 
  9 11  1  0  0  0  0 
  9 14  1  0  0  0  0 
 12 13  2  0  0  0  0 
 12 15  1  0  0  0  0 
 14 16  1  0  0  0  0 
 15 17  2  0  0  0  0 
 15 18  1  0  0  0  0 
 16 19  1  0  0  0  0 
  2 20  1  0  0  0  0 
  5 21  1  0  0  0  0 
  5 22  1  0  0  0  0 
  8 23  1  0  0  0  0 
  9 24  1  0  0  0  0 
 13 25  1  0  0  0  0 
 14 26  1  0  0  0  0 
 14 27  1  0  0  0  0 
 19 28  1  0  0  0  0 
 19 29  1  0  0  0  0 
 19 30  1  0  0  0  0 
M  CHG  1  15   1
M  CHG  1  18  -1
M  END
> <cdk:Title>
nifuratel

> <Conformer>
1

> <SuperDrugID>
SD001721

$$$$
