etomidoline
  CDK     0628171801

 57 60  0  0  0  0  0  0  0  0999 V2000
   -5.2606   -2.7814    3.2039 N   0  0  0  0  0  0  0  0  0  0  0  0
   -6.0512   -3.4772    4.1754 C   0  0  2  0  0  0  0  0  0  0  0  0
   -4.2544   -1.9040    3.4757 C   0  0  0  0  0  0  0  0  0  0  0  0
   -6.5943   -4.7172    3.6087 C   0  0  0  0  0  0  0  0  0  0  0  0
   -7.2590   -2.7543    4.4931 N   0  0  0  0  0  0  0  0  0  0  0  0
   -4.1430   -0.7800    2.6322 C   0  0  0  0  0  0  0  0  0  0  0  0
   -3.3502   -2.0381    4.5558 C   0  0  0  0  0  0  0  0  0  0  0  0
   -7.9850   -4.6884    3.6275 C   0  0  0  0  0  0  0  0  0  0  0  0
   -5.9075   -5.8411    3.1119 C   0  0  0  0  0  0  0  0  0  0  0  0
   -7.2877   -1.4322    5.0715 C   0  0  1  0  0  0  0  0  0  0  0  0
   -8.3702   -3.4752    4.1724 C   0  0  0  0  0  0  0  0  0  0  0  0
   -3.1906    0.2201    2.8934 C   0  0  0  0  0  0  0  0  0  0  0  0
   -2.3941   -1.0399    4.8144 C   0  0  0  0  0  0  0  0  0  0  0  0
   -8.7456   -5.7743    3.1548 C   0  0  0  0  0  0  0  0  0  0  0  0
   -6.6546   -6.9327    2.6209 C   0  0  0  0  0  0  0  0  0  0  0  0
   -7.7414   -0.3491    4.0657 C   0  0  0  0  0  0  0  0  0  0  0  0
   -9.5582   -3.1150    4.3398 O   0  0  0  0  0  0  0  0  0  0  0  0
   -2.3256    0.1080    4.0011 C   0  0  0  0  0  0  0  0  0  0  0  0
   -8.0668   -6.9000    2.6435 C   0  0  0  0  0  0  0  0  0  0  0  0
   -1.4006    1.0822    4.2686 O   0  0  0  0  0  0  0  0  0  0  0  0
   -1.9205    2.2517    4.9394 C   0  0  1  0  0  0  0  0  0  0  0  0
   -2.3095    2.0190    6.4245 C   0  0  1  0  0  0  0  0  0  0  0  0
   -1.4033    1.0891    7.1775 N   0  0  2  0  0  0  0  0  0  0  0  0
   -2.0401    0.5893    8.4404 C   0  0  2  0  0  0  0  0  0  0  0  0
   -0.0113    1.6090    7.3913 C   0  0  1  0  0  0  0  0  0  0  0  0
   -1.1641   -0.4598    9.1677 C   0  0  2  0  0  0  0  0  0  0  0  0
    0.8996    0.5782    8.1095 C   0  0  1  0  0  0  0  0  0  0  0  0
    0.2583    0.0861    9.4284 C   0  0  1  0  0  0  0  0  0  0  0  0
   -5.5391   -2.8516    2.2763 H   0  0  0  0  0  0  0  0  0  0  0  0
   -5.5057   -3.7266    5.0881 H   0  0  0  0  0  0  0  0  0  0  0  0
   -4.7754   -0.6681    1.8366 H   0  0  0  0  0  0  0  0  0  0  0  0
   -3.3737   -2.8590    5.1636 H   0  0  0  0  0  0  0  0  0  0  0  0
   -4.8856   -5.8661    3.1063 H   0  0  0  0  0  0  0  0  0  0  0  0
   -7.9640   -1.4264    5.9306 H   0  0  0  0  0  0  0  0  0  0  0  0
   -6.2988   -1.1500    5.4444 H   0  0  0  0  0  0  0  0  0  0  0  0
   -3.1395    1.0366    2.2805 H   0  0  0  0  0  0  0  0  0  0  0  0
   -1.7524   -1.1500    5.6002 H   0  0  0  0  0  0  0  0  0  0  0  0
   -9.7657   -5.7540    3.1789 H   0  0  0  0  0  0  0  0  0  0  0  0
   -6.1692   -7.7509    2.2466 H   0  0  0  0  0  0  0  0  0  0  0  0
   -7.7114    0.6329    4.5414 H   0  0  0  0  0  0  0  0  0  0  0  0
   -8.7627   -0.5374    3.7306 H   0  0  0  0  0  0  0  0  0  0  0  0
   -7.0843   -0.3357    3.1946 H   0  0  0  0  0  0  0  0  0  0  0  0
   -8.5974   -7.6969    2.2851 H   0  0  0  0  0  0  0  0  0  0  0  0
   -1.1402    3.0131    4.9002 H   0  0  0  0  0  0  0  0  0  0  0  0
   -2.7785    2.6652    4.3989 H   0  0  0  0  0  0  0  0  0  0  0  0
   -2.3673    2.9850    6.9357 H   0  0  0  0  0  0  0  0  0  0  0  0
   -3.3218    1.6046    6.4111 H   0  0  0  0  0  0  0  0  0  0  0  0
   -2.9956    0.1076    8.2103 H   0  0  0  0  0  0  0  0  0  0  0  0
   -2.2415    1.4265    9.1157 H   0  0  0  0  0  0  0  0  0  0  0  0
    0.4562    1.8400    6.4311 H   0  0  0  0  0  0  0  0  0  0  0  0
   -0.0399    2.5310    7.9792 H   0  0  0  0  0  0  0  0  0  0  0  0
   -1.1016   -1.3636    8.5569 H   0  0  0  0  0  0  0  0  0  0  0  0
   -1.6283   -0.7305   10.1184 H   0  0  0  0  0  0  0  0  0  0  0  0
    1.0715   -0.2766    7.4500 H   0  0  0  0  0  0  0  0  0  0  0  0
    1.8698    1.0302    8.3278 H   0  0  0  0  0  0  0  0  0  0  0  0
    0.2112    0.9131   10.1419 H   0  0  0  0  0  0  0  0  0  0  0  0
    0.8755   -0.6999    9.8701 H   0  0  0  0  0  0  0  0  0  0  0  0
  1  2  1  0  0  0  0 
  1  3  1  0  0  0  0 
  2  4  1  0  0  0  0 
  2  5  1  0  0  0  0 
  3  6  2  0  0  0  0 
  3  7  1  0  0  0  0 
  4  8  2  0  0  0  0 
  4  9  1  0  0  0  0 
  5 10  1  0  0  0  0 
  5 11  1  0  0  0  0 
  6 12  1  0  0  0  0 
  7 13  2  0  0  0  0 
  8 11  1  0  0  0  0 
  8 14  1  0  0  0  0 
  9 15  2  0  0  0  0 
 10 16  1  0  0  0  0 
 11 17  2  0  0  0  0 
 12 18  2  0  0  0  0 
 13 18  1  0  0  0  0 
 14 19  2  0  0  0  0 
 15 19  1  0  0  0  0 
 18 20  1  0  0  0  0 
 20 21  1  0  0  0  0 
 21 22  1  0  0  0  0 
 22 23  1  0  0  0  0 
 23 24  1  0  0  0  0 
 23 25  1  0  0  0  0 
 24 26  1  0  0  0  0 
 25 27  1  0  0  0  0 
 26 28  1  0  0  0  0 
 27 28  1  0  0  0  0 
  1 29  1  0  0  0  0 
  2 30  1  0  0  0  0 
  6 31  1  0  0  0  0 
  7 32  1  0  0  0  0 
  9 33  1  0  0  0  0 
 10 34  1  0  0  0  0 
 10 35  1  0  0  0  0 
 12 36  1  0  0  0  0 
 13 37  1  0  0  0  0 
 14 38  1  0  0  0  0 
 15 39  1  0  0  0  0 
 16 40  1  0  0  0  0 
 16 41  1  0  0  0  0 
 16 42  1  0  0  0  0 
 19 43  1  0  0  0  0 
 21 44  1  0  0  0  0 
 21 45  1  0  0  0  0 
 22 46  1  0  0  0  0 
 22 47  1  0  0  0  0 
 24 48  1  0  0  0  0 
 24 49  1  0  0  0  0 
 25 50  1  0  0  0  0 
 25 51  1  0  0  0  0 
 26 52  1  0  0  0  0 
 26 53  1  0  0  0  0 
 27 54  1  0  0  0  0 
 27 55  1  0  0  0  0 
 28 56  1  0  0  0  0 
 28 57  1  0  0  0  0 
M  END
> <cdk:Title>
etomidoline

> <Conformer>
1

> <SuperDrugID>
SD002782

$$$$
