tacrolimus
  CDK     0628171801

126129  0  0  0  0  0  0  0  0999 V2000
    3.6449   -6.0781    8.5822 C   0  0  1  0  0  0  0  0  0  0  0  0
    2.5943   -5.5021    9.6145 C   0  0  1  0  0  0  0  0  0  0  0  0
    1.3013   -4.9561    8.9205 C   0  0  1  0  0  0  0  0  0  0  0  0
    0.9918   -5.6370    7.5624 C   0  0  1  0  0  0  0  0  0  0  0  0
    2.2355   -5.5011    6.6090 C   0  0  2  0  0  0  0  0  0  0  0  0
    3.4958   -5.3554    7.3252 O   0  0  0  0  0  0  0  0  0  0  0  0
    0.6376   -7.0156    7.8231 O   0  0  0  0  0  0  0  0  0  0  0  0
    2.1842   -6.5009   10.7830 C   0  0  0  0  0  0  0  0  0  0  0  0
    5.0664   -6.0030    9.0732 C   0  0  0  0  0  0  0  0  0  0  0  0
    5.3472   -6.4670   10.1991 O   0  0  0  0  0  0  0  0  0  0  0  0
    6.0908   -5.3325    8.3675 C   0  0  0  0  0  0  0  0  0  0  0  0
    7.2837   -5.8481    7.8269 N   0  0  0  0  0  0  0  0  0  0  0  0
   10.2070   -5.9824    7.6570 C   0  0  1  0  0  0  0  0  0  0  0  0
    9.4218   -4.6773    7.3976 C   0  0  1  0  0  0  0  0  0  0  0  0
    8.0116   -5.0138    6.8647 C   0  0  1  0  0  0  0  0  0  0  0  0
    7.9227   -7.1718    8.0468 C   0  0  1  0  0  0  0  0  0  0  0  0
    9.3900   -6.9450    8.5605 C   0  0  2  0  0  0  0  0  0  0  0  0
    7.2655   -8.2287    8.8801 C   0  0  0  0  0  0  0  0  0  0  0  0
    6.5322   -9.3355    8.4998 O   0  0  0  0  0  0  0  0  0  0  0  0
    7.3977   -8.1690   10.1238 O   0  0  0  0  0  0  0  0  0  0  0  0
    6.2460  -10.1613    7.3424 C   0  0  1  0  0  0  0  0  0  0  0  0
    5.1652   -9.6095    6.3315 C   0  0  2  0  0  0  0  0  0  0  0  0
    7.4338  -10.8611    6.7925 C   0  0  0  0  0  0  0  0  0  0  0  0
    8.2122  -10.2448    5.8713 C   0  0  0  0  0  0  0  0  0  0  0  0
    7.6723  -12.2323    7.2753 C   0  0  0  0  0  0  0  0  0  0  0  0
    9.3366  -10.7897    5.1073 C   0  0  1  0  0  0  0  0  0  0  0  0
   10.9398  -10.9914    2.5580 C   0  0  1  0  0  0  0  0  0  0  0  0
    9.8966  -12.0923    2.9133 C   0  0  1  0  0  0  0  0  0  0  0  0
    8.7836  -11.5226    3.8428 C   0  0  1  0  0  0  0  0  0  0  0  0
   10.3646   -9.6887    4.6959 C   0  0  2  0  0  0  0  0  0  0  0  0
   11.4997  -10.2767    3.8170 C   0  0  2  0  0  0  0  0  0  0  0  0
    9.3532  -12.5852    1.6641 O   0  0  0  0  0  0  0  0  0  0  0  0
   12.0283  -11.5633    1.8324 O   0  0  0  0  0  0  0  0  0  0  0  0
    4.7707  -10.5974    5.1564 C   0  0  2  0  0  0  0  0  0  0  0  0
    3.7981   -9.9365    4.1386 C   0  0  2  0  0  0  0  0  0  0  0  0
    4.1454  -11.7655    5.6884 O   0  0  0  0  0  0  0  0  0  0  0  0
    3.1530  -10.6481    2.9966 C   0  0  0  0  0  0  0  0  0  0  0  0
    3.4373  -11.8524    2.8015 O   0  0  0  0  0  0  0  0  0  0  0  0
    2.1083   -9.9712    2.1284 C   0  0  2  0  0  0  0  0  0  0  0  0
    2.1502  -10.4117    0.6262 C   0  0  1  0  0  0  0  0  0  0  0  0
    2.0485   -8.5166    2.4017 C   0  0  0  0  0  0  0  0  0  0  0  0
    2.9941   -7.5860    2.1132 C   0  0  0  0  0  0  0  0  0  0  0  0
    3.9521   -7.7280    1.0199 C   0  0  0  0  0  0  0  0  0  0  0  0
    3.2585   -6.5491    3.1318 C   0  0  1  0  0  0  0  0  0  0  0  0
    2.6199   -5.1336    3.0680 C   0  0  1  0  0  0  0  0  0  0  0  0
    3.0348   -4.3039    4.3535 C   0  0  1  0  0  0  0  0  0  0  0  0
    3.0228   -4.3990    1.7597 C   0  0  0  0  0  0  0  0  0  0  0  0
    2.0536   -4.3310    5.5780 C   0  0  2  0  0  0  0  0  0  0  0  0
    2.2334   -3.1317    6.3670 O   0  0  0  0  0  0  0  0  0  0  0  0
    1.4546   -1.9856    5.9942 C   0  0  0  0  0  0  0  0  0  0  0  0
   -0.0347   -7.7291    6.7671 C   0  0  0  0  0  0  0  0  0  0  0  0
    1.1782   -9.7384   -0.2248 C   0  0  0  0  0  0  0  0  0  0  0  0
   -0.1420   -9.9396   -0.1325 C   0  0  0  0  0  0  0  0  0  0  0  0
    8.5969  -13.8065    1.7102 C   0  0  0  0  0  0  0  0  0  0  0  0
    3.4152   -7.4660    8.3215 O   0  0  0  0  0  0  0  0  0  0  0  0
    2.3247   -6.4267    6.0594 H   0  0  0  0  0  0  0  0  0  0  0  0
    8.0384   -7.6319    7.0693 H   0  0  0  0  0  0  0  0  0  0  0  0
    5.4466   -8.1534    5.8616 C   0  0  0  0  0  0  0  0  0  0  0  0
    5.8144   -4.1144    8.2358 O   0  0  0  0  0  0  0  0  0  0  0  0
    3.0568   -4.6418   10.1109 H   0  0  0  0  0  0  0  0  0  0  0  0
    0.4273   -5.0447    9.5726 H   0  0  0  0  0  0  0  0  0  0  0  0
    1.4321   -3.8862    8.7446 H   0  0  0  0  0  0  0  0  0  0  0  0
    0.1119   -5.1303    7.1519 H   0  0  0  0  0  0  0  0  0  0  0  0
    1.4973   -6.1136   11.5815 H   0  0  0  0  0  0  0  0  0  0  0  0
    3.0783   -6.8519   11.2970 H   0  0  0  0  0  0  0  0  0  0  0  0
    1.6929   -7.3746   10.3568 H   0  0  0  0  0  0  0  0  0  0  0  0
   10.4342   -6.4681    6.7024 H   0  0  0  0  0  0  0  0  0  0  0  0
   11.1559   -5.7395    8.1429 H   0  0  0  0  0  0  0  0  0  0  0  0
    9.3211   -4.1136    8.3298 H   0  0  0  0  0  0  0  0  0  0  0  0
    9.9613   -4.0581    6.6762 H   0  0  0  0  0  0  0  0  0  0  0  0
    8.1023   -5.5516    5.9146 H   0  0  0  0  0  0  0  0  0  0  0  0
    7.5206   -4.0701    6.6107 H   0  0  0  0  0  0  0  0  0  0  0  0
    9.3619   -6.5177    9.5687 H   0  0  0  0  0  0  0  0  0  0  0  0
    9.9264   -7.8984    8.6192 H   0  0  0  0  0  0  0  0  0  0  0  0
    5.6585  -10.9335    7.8519 H   0  0  0  0  0  0  0  0  0  0  0  0
    4.2507   -9.5116    6.9286 H   0  0  0  0  0  0  0  0  0  0  0  0
    7.9699   -9.3249    5.6162 H   0  0  0  0  0  0  0  0  0  0  0  0
    8.5403  -12.7341    6.8592 H   0  0  0  0  0  0  0  0  0  0  0  0
    7.7987  -12.2180    8.3591 H   0  0  0  0  0  0  0  0  0  0  0  0
    6.8108  -12.8595    7.0406 H   0  0  0  0  0  0  0  0  0  0  0  0
    9.8982  -11.4952    5.7213 H   0  0  0  0  0  0  0  0  0  0  0  0
   10.4704  -10.2423    1.9125 H   0  0  0  0  0  0  0  0  0  0  0  0
   10.4221  -12.8953    3.4418 H   0  0  0  0  0  0  0  0  0  0  0  0
    8.1483  -12.3486    4.1720 H   0  0  0  0  0  0  0  0  0  0  0  0
    8.1585  -10.8360    3.2599 H   0  0  0  0  0  0  0  0  0  0  0  0
   10.8078   -9.2467    5.5933 H   0  0  0  0  0  0  0  0  0  0  0  0
    9.8665   -8.8858    4.1420 H   0  0  0  0  0  0  0  0  0  0  0  0
   12.1661   -9.4672    3.5055 H   0  0  0  0  0  0  0  0  0  0  0  0
   12.0871  -10.9877    4.4067 H   0  0  0  0  0  0  0  0  0  0  0  0
   11.6275  -11.9393    1.0207 H   0  0  0  0  0  0  0  0  0  0  0  0
    5.6659  -10.9060    4.6133 H   0  0  0  0  0  0  0  0  0  0  0  0
    4.3962   -9.1668    3.6626 H   0  0  0  0  0  0  0  0  0  0  0  0
    2.9945   -9.4769    4.7203 H   0  0  0  0  0  0  0  0  0  0  0  0
    4.8054  -12.1594    6.2959 H   0  0  0  0  0  0  0  0  0  0  0  0
    1.1642  -10.3818    2.5073 H   0  0  0  0  0  0  0  0  0  0  0  0
    3.1512  -10.2590    0.2188 H   0  0  0  0  0  0  0  0  0  0  0  0
    1.9663  -11.4897    0.5652 H   0  0  0  0  0  0  0  0  0  0  0  0
    1.3306   -8.2469    3.0406 H   0  0  0  0  0  0  0  0  0  0  0  0
    3.4295   -7.8267    0.0688 H   0  0  0  0  0  0  0  0  0  0  0  0
    4.6063   -6.8586    0.9283 H   0  0  0  0  0  0  0  0  0  0  0  0
    4.5871   -8.5997    1.1843 H   0  0  0  0  0  0  0  0  0  0  0  0
    2.9541   -6.9617    4.0853 H   0  0  0  0  0  0  0  0  0  0  0  0
    4.3440   -6.4317    3.2264 H   0  0  0  0  0  0  0  0  0  0  0  0
    1.5316   -5.2483    3.0442 H   0  0  0  0  0  0  0  0  0  0  0  0
    4.0295   -4.5971    4.7053 H   0  0  0  0  0  0  0  0  0  0  0  0
    3.1413   -3.2595    4.0569 H   0  0  0  0  0  0  0  0  0  0  0  0
    2.6644   -4.9431    0.8854 H   0  0  0  0  0  0  0  0  0  0  0  0
    4.1077   -4.3013    1.6991 H   0  0  0  0  0  0  0  0  0  0  0  0
    2.5800   -3.4022    1.7354 H   0  0  0  0  0  0  0  0  0  0  0  0
    1.0351   -4.3802    5.1761 H   0  0  0  0  0  0  0  0  0  0  0  0
    1.6898   -1.6519    4.9821 H   0  0  0  0  0  0  0  0  0  0  0  0
    1.7024   -1.1855    6.6905 H   0  0  0  0  0  0  0  0  0  0  0  0
    0.3854   -2.1952    6.0720 H   0  0  0  0  0  0  0  0  0  0  0  0
   -0.3147   -8.7074    7.1551 H   0  0  0  0  0  0  0  0  0  0  0  0
    0.6063   -7.8847    5.8983 H   0  0  0  0  0  0  0  0  0  0  0  0
   -0.9426   -7.2099    6.4579 H   0  0  0  0  0  0  0  0  0  0  0  0
    1.5096   -9.0858   -0.8989 H   0  0  0  0  0  0  0  0  0  0  0  0
   -0.5177  -10.5832    0.5224 H   0  0  0  0  0  0  0  0  0  0  0  0
   -0.7646   -9.4432   -0.7234 H   0  0  0  0  0  0  0  0  0  0  0  0
    8.3342  -14.0844    0.6905 H   0  0  0  0  0  0  0  0  0  0  0  0
    7.6722  -13.6813    2.2705 H   0  0  0  0  0  0  0  0  0  0  0  0
    9.1846  -14.6139    2.1445 H   0  0  0  0  0  0  0  0  0  0  0  0
    3.5676   -7.9287    9.1716 H   0  0  0  0  0  0  0  0  0  0  0  0
    4.5448   -7.6957    5.4806 H   0  0  0  0  0  0  0  0  0  0  0  0
    6.2097   -8.0903    5.0878 H   0  0  0  0  0  0  0  0  0  0  0  0
    5.7187   -7.5381    6.6950 H   0  0  0  0  0  0  0  0  0  0  0  0
  1  2  1  0  0  0  0 
  1  6  1  0  0  0  0 
  2  3  1  0  0  0  0 
  3  4  1  0  0  0  0 
  4  5  1  0  0  0  0 
  5  6  1  0  0  0  0 
  4  7  1  0  0  0  0 
  2  8  1  0  0  0  0 
  1  9  1  0  0  0  0 
  9 10  2  0  0  0  0 
  9 11  1  0  0  0  0 
 11 12  1  0  0  0  0 
 15 12  1  0  0  0  0 
 12 16  1  0  0  0  0 
 13 14  1  0  0  0  0 
 13 17  1  0  0  0  0 
 14 15  1  0  0  0  0 
 16 17  1  0  0  0  0 
 18 19  1  0  0  0  0 
 18 20  2  0  0  0  0 
 21 22  1  0  0  0  0 
 21 23  1  0  0  0  0 
 23 24  2  0  0  0  0 
 23 25  1  0  0  0  0 
 26 24  1  0  0  0  0 
 29 26  1  0  0  0  0 
 26 30  1  0  0  0  0 
 27 28  1  0  0  0  0 
 27 31  1  0  0  0  0 
 28 29  1  0  0  0  0 
 30 31  1  0  0  0  0 
 28 32  1  0  0  0  0 
 27 33  1  0  0  0  0 
 22 34  1  0  0  0  0 
 34 35  1  0  0  0  0 
 34 36  1  0  0  0  0 
 35 37  1  0  0  0  0 
 37 38  2  0  0  0  0 
 37 39  1  0  0  0  0 
 39 40  1  0  0  0  0 
 39 41  1  0  0  0  0 
 41 42  2  0  0  0  0 
 42 43  1  0  0  0  0 
 42 44  1  0  0  0  0 
 44 45  1  0  0  0  0 
 45 46  1  0  0  0  0 
 45 47  1  0  0  0  0 
 46 48  1  0  0  0  0 
 48 49  1  0  0  0  0 
 49 50  1  0  0  0  0 
  5 48  1  0  0  0  0 
  7 51  1  0  0  0  0 
 40 52  1  0  0  0  0 
 52 53  2  0  0  0  0 
 32 54  1  0  0  0  0 
  1 55  1  0  0  0  0 
  5 56  1  0  0  0  0 
 16 57  1  0  0  0  0 
 22 58  1  0  0  0  0 
 11 59  2  0  0  0  0 
 16 18  1  0  0  0  0 
 19 21  1  0  0  0  0 
  2 60  1  0  0  0  0 
  3 61  1  0  0  0  0 
  3 62  1  0  0  0  0 
  4 63  1  0  0  0  0 
  8 64  1  0  0  0  0 
  8 65  1  0  0  0  0 
  8 66  1  0  0  0  0 
 13 67  1  0  0  0  0 
 13 68  1  0  0  0  0 
 14 69  1  0  0  0  0 
 14 70  1  0  0  0  0 
 15 71  1  0  0  0  0 
 15 72  1  0  0  0  0 
 17 73  1  0  0  0  0 
 17 74  1  0  0  0  0 
 21 75  1  0  0  0  0 
 22 76  1  0  0  0  0 
 24 77  1  0  0  0  0 
 25 78  1  0  0  0  0 
 25 79  1  0  0  0  0 
 25 80  1  0  0  0  0 
 26 81  1  0  0  0  0 
 27 82  1  0  0  0  0 
 28 83  1  0  0  0  0 
 29 84  1  0  0  0  0 
 29 85  1  0  0  0  0 
 30 86  1  0  0  0  0 
 30 87  1  0  0  0  0 
 31 88  1  0  0  0  0 
 31 89  1  0  0  0  0 
 33 90  1  0  0  0  0 
 34 91  1  0  0  0  0 
 35 92  1  0  0  0  0 
 35 93  1  0  0  0  0 
 36 94  1  0  0  0  0 
 39 95  1  0  0  0  0 
 40 96  1  0  0  0  0 
 40 97  1  0  0  0  0 
 41 98  1  0  0  0  0 
 43 99  1  0  0  0  0 
 43100  1  0  0  0  0 
 43101  1  0  0  0  0 
 44102  1  0  0  0  0 
 44103  1  0  0  0  0 
 45104  1  0  0  0  0 
 46105  1  0  0  0  0 
 46106  1  0  0  0  0 
 47107  1  0  0  0  0 
 47108  1  0  0  0  0 
 47109  1  0  0  0  0 
 48110  1  0  0  0  0 
 50111  1  0  0  0  0 
 50112  1  0  0  0  0 
 50113  1  0  0  0  0 
 51114  1  0  0  0  0 
 51115  1  0  0  0  0 
 51116  1  0  0  0  0 
 52117  1  0  0  0  0 
 53118  1  0  0  0  0 
 53119  1  0  0  0  0 
 54120  1  0  0  0  0 
 54121  1  0  0  0  0 
 54122  1  0  0  0  0 
 55123  1  0  0  0  0 
 58124  1  0  0  0  0 
 58125  1  0  0  0  0 
 58126  1  0  0  0  0 
M  END
> <cdk:Title>
tacrolimus

> <Conformer>
1

> <SuperDrugID>
SD002296

$$$$
