ondansetron
  CDK     0628171801

 41 44  0  0  0  0  0  0  0  0999 V2000
   -3.4439    3.1185    1.9391 O   0  0  0  0  0  0  0  0  0  0  0  0
   -3.9553    2.0236    1.6069 C   0  0  0  0  0  0  0  0  0  0  0  0
   -5.1220    1.5704    2.2701 C   0  0  0  0  0  0  0  0  0  0  0  0
   -3.2733    1.1786    0.5747 C   0  0  2  0  0  0  0  0  0  0  0  0
   -5.9703    2.2182    3.1644 C   0  0  0  0  0  0  0  0  0  0  0  0
   -5.6269    0.2770    2.1189 C   0  0  0  0  0  0  0  0  0  0  0  0
   -2.8018    2.0258   -0.6557 C   0  0  1  0  0  0  0  0  0  0  0  0
   -4.1560   -0.0365    0.1197 C   0  0  1  0  0  0  0  0  0  0  0  0
   -6.9794    1.3098    3.5049 C   0  0  0  0  0  0  0  0  0  0  0  0
   -5.9373    3.5202    3.7068 C   0  0  0  0  0  0  0  0  0  0  0  0
   -6.7634    0.1378    2.8511 N   0  0  0  0  0  0  0  0  0  0  0  0
   -4.9176   -0.7259    1.2860 C   0  0  2  0  0  0  0  0  0  0  0  0
   -1.9474    1.3040   -1.5648 N   0  0  0  0  0  0  0  0  0  0  0  0
   -7.9924    1.6957    4.4105 C   0  0  0  0  0  0  0  0  0  0  0  0
   -6.9413    3.8978    4.6201 C   0  0  0  0  0  0  0  0  0  0  0  0
   -7.5677   -1.0529    2.9057 C   0  0  0  0  0  0  0  0  0  0  0  0
   -2.1964    0.9246   -2.8448 C   0  0  0  0  0  0  0  0  0  0  0  0
   -0.6945    0.9001   -1.2795 C   0  0  0  0  0  0  0  0  0  0  0  0
   -7.9645    2.9920    4.9675 C   0  0  0  0  0  0  0  0  0  0  0  0
   -3.4336    1.1254   -3.6212 C   0  0  0  0  0  0  0  0  0  0  0  0
   -1.1200    0.2992   -3.3593 N   0  0  0  0  0  0  0  0  0  0  0  0
   -0.1816    0.2785   -2.4055 C   0  0  0  0  0  0  0  0  0  0  0  0
   -2.3818    0.7767    1.0668 H   0  0  0  0  0  0  0  0  0  0  0  0
   -3.6819    2.4190   -1.1710 H   0  0  0  0  0  0  0  0  0  0  0  0
   -2.2347    2.8970   -0.3144 H   0  0  0  0  0  0  0  0  0  0  0  0
   -4.9030    0.3097   -0.5996 H   0  0  0  0  0  0  0  0  0  0  0  0
   -3.5270   -0.7775   -0.3820 H   0  0  0  0  0  0  0  0  0  0  0  0
   -5.2034    4.1836    3.4551 H   0  0  0  0  0  0  0  0  0  0  0  0
   -5.6202   -1.4518    0.8751 H   0  0  0  0  0  0  0  0  0  0  0  0
   -4.2053   -1.2583    1.9207 H   0  0  0  0  0  0  0  0  0  0  0  0
   -8.7383    1.0532    4.6767 H   0  0  0  0  0  0  0  0  0  0  0  0
   -6.9273    4.8320    5.0361 H   0  0  0  0  0  0  0  0  0  0  0  0
   -7.9108   -1.3124    1.9016 H   0  0  0  0  0  0  0  0  0  0  0  0
   -8.4517   -0.9371    3.5334 H   0  0  0  0  0  0  0  0  0  0  0  0
   -6.9806   -1.8843    3.3029 H   0  0  0  0  0  0  0  0  0  0  0  0
   -0.1947    1.0332   -0.3967 H   0  0  0  0  0  0  0  0  0  0  0  0
   -8.6878    3.2768    5.6313 H   0  0  0  0  0  0  0  0  0  0  0  0
   -4.2668    0.6306   -3.1224 H   0  0  0  0  0  0  0  0  0  0  0  0
   -3.3298    0.7048   -4.6236 H   0  0  0  0  0  0  0  0  0  0  0  0
   -3.6460    2.1902   -3.7101 H   0  0  0  0  0  0  0  0  0  0  0  0
    0.7520   -0.1246   -2.4978 H   0  0  0  0  0  0  0  0  0  0  0  0
  1  2  2  0  0  0  0 
  2  3  1  0  0  0  0 
  4  2  1  0  0  0  0 
  3  5  1  0  0  0  0 
  3  6  2  0  0  0  0 
  4  7  1  0  0  0  0 
  4  8  1  0  0  0  0 
  5  9  1  0  0  0  0 
  5 10  2  0  0  0  0 
  6 11  1  0  0  0  0 
  6 12  1  0  0  0  0 
  7 13  1  0  0  0  0 
  8 12  1  0  0  0  0 
  9 11  1  0  0  0  0 
  9 14  2  0  0  0  0 
 10 15  1  0  0  0  0 
 11 16  1  0  0  0  0 
 13 17  1  0  0  0  0 
 13 18  1  0  0  0  0 
 14 19  1  0  0  0  0 
 15 19  2  0  0  0  0 
 17 20  1  0  0  0  0 
 17 21  2  0  0  0  0 
 18 22  2  0  0  0  0 
 21 22  1  0  0  0  0 
 23  4  1  0  0  0  0 
 24  7  1  0  0  0  0 
 25  7  1  0  0  0  0 
 26  8  1  0  0  0  0 
 27  8  1  0  0  0  0 
 28 10  1  0  0  0  0 
 29 12  1  0  0  0  0 
 30 12  1  0  0  0  0 
 31 14  1  0  0  0  0 
 32 15  1  0  0  0  0 
 33 16  1  0  0  0  0 
 34 16  1  0  0  0  0 
 35 16  1  0  0  0  0 
 36 18  1  0  0  0  0 
 37 19  1  0  0  0  0 
 38 20  1  0  0  0  0 
 39 20  1  0  0  0  0 
 40 20  1  0  0  0  0 
 41 22  1  0  0  0  0 
M  END
> <cdk:Title>
ondansetron

> <Conformer>
1

> <SuperDrugID>
SD001782

$$$$
