fluacizine
  CDK     0628171801

 48 50  0  0  0  0  0  0  0  0999 V2000
    0.2672   -1.1920    6.0345 C   0  0  0  0  0  0  0  0  0  0  0  0
    0.9588    0.1944    6.0889 C   0  0  1  0  0  0  0  0  0  0  0  0
    0.3893    1.2299    5.1557 N   0  0  1  0  0  0  0  0  0  0  0  0
    0.8208    2.6353    5.4851 C   0  0  2  0  0  0  0  0  0  0  0  0
    0.2919    3.1862    6.8307 C   0  0  0  0  0  0  0  0  0  0  0  0
    0.5820    0.9039    3.6988 C   0  0  2  0  0  0  0  0  0  0  0  0
   -0.4963    1.5375    2.7703 C   0  0  1  0  0  0  0  0  0  0  0  0
   -0.6740    0.7471    1.5160 C   0  0  0  0  0  0  0  0  0  0  0  0
    0.3173    0.8013    0.7465 O   0  0  0  0  0  0  0  0  0  0  0  0
   -1.7992    0.0103    1.1421 N   0  0  0  0  0  0  0  0  0  0  0  0
   -1.8080   -0.7076   -0.0456 C   0  0  0  0  0  0  0  0  0  0  0  0
   -0.8179   -1.6748   -0.3425 C   0  0  0  0  0  0  0  0  0  0  0  0
   -0.8573   -2.3972   -1.5487 C   0  0  0  0  0  0  0  0  0  0  0  0
   -1.8856   -2.1549   -2.4764 C   0  0  0  0  0  0  0  0  0  0  0  0
   -2.8752   -1.1949   -2.2051 C   0  0  0  0  0  0  0  0  0  0  0  0
   -2.8402   -0.4838   -0.9923 C   0  0  0  0  0  0  0  0  0  0  0  0
   -4.1187    0.6564   -0.5672 S   0  0  0  0  0  0  0  0  0  0  0  0
   -4.1720    0.4715    1.1873 C   0  0  0  0  0  0  0  0  0  0  0  0
   -2.9928    0.0467    1.8488 C   0  0  0  0  0  0  0  0  0  0  0  0
   -3.0946   -0.3624    3.1985 C   0  0  0  0  0  0  0  0  0  0  0  0
   -4.3093   -0.2448    3.9203 C   0  0  0  0  0  0  0  0  0  0  0  0
   -5.4345    0.3001    3.2530 C   0  0  0  0  0  0  0  0  0  0  0  0
   -5.3745    0.6421    1.8918 C   0  0  0  0  0  0  0  0  0  0  0  0
   -4.3770   -0.7104    5.3351 C   0  0  2  0  0  0  0  0  0  0  0  0
   -4.1202   -2.0601    5.3755 F   0  0  0  0  0  0  0  0  0  0  0  0
   -5.5985   -0.5145    5.9393 F   0  0  0  0  0  0  0  0  0  0  0  0
   -3.4388   -0.0576    6.0993 F   0  0  0  0  0  0  0  0  0  0  0  0
   -0.8171   -1.0749    6.0186 H   0  0  0  0  0  0  0  0  0  0  0  0
    0.5782   -1.7565    5.1553 H   0  0  0  0  0  0  0  0  0  0  0  0
    0.5395   -1.7781    6.9149 H   0  0  0  0  0  0  0  0  0  0  0  0
    0.8372    0.5238    7.1207 H   0  0  0  0  0  0  0  0  0  0  0  0
    2.0315    0.0691    5.9101 H   0  0  0  0  0  0  0  0  0  0  0  0
    0.4458    3.3215    4.7214 H   0  0  0  0  0  0  0  0  0  0  0  0
    1.9132    2.7061    5.4810 H   0  0  0  0  0  0  0  0  0  0  0  0
    0.4700    4.2625    6.8853 H   0  0  0  0  0  0  0  0  0  0  0  0
    0.8049    2.7247    7.6762 H   0  0  0  0  0  0  0  0  0  0  0  0
   -0.7814    3.0043    6.9148 H   0  0  0  0  0  0  0  0  0  0  0  0
    0.5358   -0.1745    3.5490 H   0  0  0  0  0  0  0  0  0  0  0  0
    1.5766    1.2155    3.3655 H   0  0  0  0  0  0  0  0  0  0  0  0
   -1.4277    1.6420    3.3216 H   0  0  0  0  0  0  0  0  0  0  0  0
   -0.1971    2.5543    2.5021 H   0  0  0  0  0  0  0  0  0  0  0  0
   -0.0657   -1.8637    0.3239 H   0  0  0  0  0  0  0  0  0  0  0  0
   -0.1427   -3.1011   -1.7485 H   0  0  0  0  0  0  0  0  0  0  0  0
   -1.9194   -2.6828   -3.3492 H   0  0  0  0  0  0  0  0  0  0  0  0
   -3.6244   -1.0323   -2.8808 H   0  0  0  0  0  0  0  0  0  0  0  0
   -2.2657   -0.7502    3.6579 H   0  0  0  0  0  0  0  0  0  0  0  0
   -6.3227    0.4313    3.7447 H   0  0  0  0  0  0  0  0  0  0  0  0
   -6.2118    0.9825    1.4156 H   0  0  0  0  0  0  0  0  0  0  0  0
  1  2  1  0  0  0  0 
  2  3  1  0  0  0  0 
  3  4  1  0  0  0  0 
  4  5  1  0  0  0  0 
  3  6  1  0  0  0  0 
  6  7  1  0  0  0  0 
  7  8  1  0  0  0  0 
  8  9  2  0  0  0  0 
  8 10  1  0  0  0  0 
 10 11  1  0  0  0  0 
 11 12  2  0  0  0  0 
 12 13  1  0  0  0  0 
 13 14  2  0  0  0  0 
 14 15  1  0  0  0  0 
 15 16  2  0  0  0  0 
 11 16  1  0  0  0  0 
 16 17  1  0  0  0  0 
 17 18  1  0  0  0  0 
 18 19  2  0  0  0  0 
 10 19  1  0  0  0  0 
 19 20  1  0  0  0  0 
 20 21  2  0  0  0  0 
 21 22  1  0  0  0  0 
 22 23  2  0  0  0  0 
 18 23  1  0  0  0  0 
 21 24  1  0  0  0  0 
 24 25  1  0  0  0  0 
 24 26  1  0  0  0  0 
 24 27  1  0  0  0  0 
  1 28  1  0  0  0  0 
  1 29  1  0  0  0  0 
  1 30  1  0  0  0  0 
  2 31  1  0  0  0  0 
  2 32  1  0  0  0  0 
  4 33  1  0  0  0  0 
  4 34  1  0  0  0  0 
  5 35  1  0  0  0  0 
  5 36  1  0  0  0  0 
  5 37  1  0  0  0  0 
  6 38  1  0  0  0  0 
  6 39  1  0  0  0  0 
  7 40  1  0  0  0  0 
  7 41  1  0  0  0  0 
 12 42  1  0  0  0  0 
 13 43  1  0  0  0  0 
 14 44  1  0  0  0  0 
 15 45  1  0  0  0  0 
 20 46  1  0  0  0  0 
 22 47  1  0  0  0  0 
 23 48  1  0  0  0  0 
M  END
> <cdk:Title>
fluacizine

> <Conformer>
1

> <SuperDrugID>
SD002795

$$$$
