aminophenazone
  CDK     0628171801

 34 35  0  0  0  0  0  0  0  0999 V2000
    0.8258   -2.3948   -1.2485 O   0  0  0  0  0  0  0  0  0  0  0  0
   -0.1267   -2.3000   -0.4376 C   0  0  0  0  0  0  0  0  0  0  0  0
   -0.3965   -1.2462    0.3605 N   0  0  0  0  0  0  0  0  0  0  0  0
   -1.1124   -3.2618   -0.2596 C   0  0  0  0  0  0  0  0  0  0  0  0
   -1.4674   -1.5171    1.0753 N   0  0  0  0  0  0  0  0  0  0  0  0
    0.3346   -0.0831    0.3370 C   0  0  0  0  0  0  0  0  0  0  0  0
   -1.9621   -2.7343    0.7156 C   0  0  0  0  0  0  0  0  0  0  0  0
   -2.0095   -0.7114    2.1401 C   0  0  0  0  0  0  0  0  0  0  0  0
    1.7128   -0.0908    0.6574 C   0  0  0  0  0  0  0  0  0  0  0  0
   -0.2734    1.1432   -0.0203 C   0  0  0  0  0  0  0  0  0  0  0  0
   -3.1400   -3.4446    1.2749 C   0  0  0  0  0  0  0  0  0  0  0  0
    2.4652    1.0980    0.6206 C   0  0  0  0  0  0  0  0  0  0  0  0
    0.4783    2.3322   -0.0537 C   0  0  0  0  0  0  0  0  0  0  0  0
    1.8476    2.3090    0.2624 C   0  0  0  0  0  0  0  0  0  0  0  0
   -1.1958   -4.4608   -0.9246 N   0  0  0  0  0  0  0  0  0  0  0  0
   -0.0674   -5.3566   -0.9505 C   0  0  0  0  0  0  0  0  0  0  0  0
   -2.3832   -4.8296   -1.6505 C   0  0  0  0  0  0  0  0  0  0  0  0
   -1.4330    0.1955    2.3197 H   0  0  0  0  0  0  0  0  0  0  0  0
   -2.0129   -1.2800    3.0723 H   0  0  0  0  0  0  0  0  0  0  0  0
   -3.0323   -0.4151    1.8988 H   0  0  0  0  0  0  0  0  0  0  0  0
    2.1734   -0.9638    0.9226 H   0  0  0  0  0  0  0  0  0  0  0  0
   -1.2668    1.1741   -0.2619 H   0  0  0  0  0  0  0  0  0  0  0  0
   -2.8247   -4.4015    1.6941 H   0  0  0  0  0  0  0  0  0  0  0  0
   -3.8803   -3.6297    0.4979 H   0  0  0  0  0  0  0  0  0  0  0  0
   -3.6293   -2.8756    2.0622 H   0  0  0  0  0  0  0  0  0  0  0  0
    3.4600    1.0806    0.8568 H   0  0  0  0  0  0  0  0  0  0  0  0
    0.0294    3.2152   -0.3079 H   0  0  0  0  0  0  0  0  0  0  0  0
    2.3958    3.1709    0.2344 H   0  0  0  0  0  0  0  0  0  0  0  0
   -0.3760   -6.3706   -0.6941 H   0  0  0  0  0  0  0  0  0  0  0  0
    0.3672   -5.3671   -1.9511 H   0  0  0  0  0  0  0  0  0  0  0  0
    0.7146   -5.0666   -0.2437 H   0  0  0  0  0  0  0  0  0  0  0  0
   -2.1283   -5.0633   -2.6856 H   0  0  0  0  0  0  0  0  0  0  0  0
   -3.1301   -4.0326   -1.6793 H   0  0  0  0  0  0  0  0  0  0  0  0
   -2.8386   -5.7094   -1.1920 H   0  0  0  0  0  0  0  0  0  0  0  0
  1  2  2  0  0  0  0 
  2  3  1  0  0  0  0 
  2  4  1  0  0  0  0 
  3  5  1  0  0  0  0 
  3  6  1  0  0  0  0 
  4  7  2  0  0  0  0 
  5  7  1  0  0  0  0 
  5  8  1  0  0  0  0 
  6  9  2  0  0  0  0 
  6 10  1  0  0  0  0 
  7 11  1  0  0  0  0 
  9 12  1  0  0  0  0 
 10 13  2  0  0  0  0 
 12 14  2  0  0  0  0 
 13 14  1  0  0  0  0 
  4 15  1  0  0  0  0 
 15 16  1  0  0  0  0 
 15 17  1  0  0  0  0 
  8 18  1  0  0  0  0 
  8 19  1  0  0  0  0 
  8 20  1  0  0  0  0 
  9 21  1  0  0  0  0 
 10 22  1  0  0  0  0 
 11 23  1  0  0  0  0 
 11 24  1  0  0  0  0 
 11 25  1  0  0  0  0 
 12 26  1  0  0  0  0 
 13 27  1  0  0  0  0 
 14 28  1  0  0  0  0 
 16 29  1  0  0  0  0 
 16 30  1  0  0  0  0 
 16 31  1  0  0  0  0 
 17 32  1  0  0  0  0 
 17 33  1  0  0  0  0 
 17 34  1  0  0  0  0 
M  END
> <cdk:Title>
aminophenazone

> <Conformer>
1

> <SuperDrugID>
SD000137

$$$$
