propyromazine
  CDK     0628171801

 47 50  0  0  0  0  0  0  0  0999 V2000
    2.0577   -0.5323    1.4804 C   0  0  0  0  0  0  0  0  0  0  0  0
    1.1426    0.7347    1.5359 C   0  0  1  0  0  0  0  0  0  0  0  0
    0.1708    0.6955    0.3822 C   0  0  0  0  0  0  0  0  0  0  0  0
   -0.5684   -0.3202    0.3561 O   0  0  0  0  0  0  0  0  0  0  0  0
   -0.0091    1.6743   -0.6069 N   0  0  0  0  0  0  0  0  0  0  0  0
   -0.9971    1.5319   -1.5747 C   0  0  0  0  0  0  0  0  0  0  0  0
   -1.0370    0.4152   -2.4428 C   0  0  0  0  0  0  0  0  0  0  0  0
   -2.0743    0.2784   -3.3855 C   0  0  0  0  0  0  0  0  0  0  0  0
   -3.0680    1.2680   -3.4932 C   0  0  0  0  0  0  0  0  0  0  0  0
   -3.0227    2.4040   -2.6657 C   0  0  0  0  0  0  0  0  0  0  0  0
   -1.9931    2.5341   -1.7133 C   0  0  0  0  0  0  0  0  0  0  0  0
   -1.8440    3.9789   -0.7055 S   0  0  0  0  0  0  0  0  0  0  0  0
   -0.0892    4.0943   -0.5453 C   0  0  0  0  0  0  0  0  0  0  0  0
    0.6589    2.8900   -0.6196 C   0  0  0  0  0  0  0  0  0  0  0  0
    2.0630    2.9846   -0.7525 C   0  0  0  0  0  0  0  0  0  0  0  0
    2.7072    4.2339   -0.6977 C   0  0  0  0  0  0  0  0  0  0  0  0
    1.9554    5.4086   -0.5174 C   0  0  0  0  0  0  0  0  0  0  0  0
    0.5521    5.3438   -0.4492 C   0  0  0  0  0  0  0  0  0  0  0  0
    0.5249    1.0507    2.9099 N   0  0  1  0  0  0  0  0  0  0  0  0
   -0.3789   -0.0579    3.4273 C   0  0  0  0  0  0  0  0  0  0  0  0
    1.5922    1.3553    3.9388 C   0  0  1  0  0  0  0  0  0  0  0  0
    1.0088    2.3370    4.9797 C   0  0  1  0  0  0  0  0  0  0  0  0
   -0.2468    2.9330    4.3210 C   0  0  2  0  0  0  0  0  0  0  0  0
   -0.2322    2.3606    2.8890 C   0  0  1  0  0  0  0  0  0  0  0  0
    2.5030   -0.6242    0.4866 H   0  0  0  0  0  0  0  0  0  0  0  0
    2.8742   -0.4583    2.1998 H   0  0  0  0  0  0  0  0  0  0  0  0
    1.5005   -1.4476    1.6858 H   0  0  0  0  0  0  0  0  0  0  0  0
    1.8417    1.5421    1.3338 H   0  0  0  0  0  0  0  0  0  0  0  0
   -0.3091   -0.3027   -2.3917 H   0  0  0  0  0  0  0  0  0  0  0  0
   -2.1019   -0.5398   -3.9976 H   0  0  0  0  0  0  0  0  0  0  0  0
   -3.8179    1.1674   -4.1818 H   0  0  0  0  0  0  0  0  0  0  0  0
   -3.7305    3.1344   -2.7670 H   0  0  0  0  0  0  0  0  0  0  0  0
    2.6212    2.1380   -0.8809 H   0  0  0  0  0  0  0  0  0  0  0  0
    3.7241    4.2869   -0.7893 H   0  0  0  0  0  0  0  0  0  0  0  0
    2.4297    6.3118   -0.4581 H   0  0  0  0  0  0  0  0  0  0  0  0
    0.0073    6.2040   -0.3550 H   0  0  0  0  0  0  0  0  0  0  0  0
   -0.7848    0.1623    4.4192 H   0  0  0  0  0  0  0  0  0  0  0  0
    0.1536   -1.0065    3.5203 H   0  0  0  0  0  0  0  0  0  0  0  0
   -1.2366   -0.2204    2.7723 H   0  0  0  0  0  0  0  0  0  0  0  0
    1.9684    0.4527    4.4317 H   0  0  0  0  0  0  0  0  0  0  0  0
    2.4629    1.8443    3.4867 H   0  0  0  0  0  0  0  0  0  0  0  0
    0.7490    1.8078    5.9004 H   0  0  0  0  0  0  0  0  0  0  0  0
    1.7308    3.1221    5.2219 H   0  0  0  0  0  0  0  0  0  0  0  0
   -0.2120    4.0258    4.3097 H   0  0  0  0  0  0  0  0  0  0  0  0
   -1.1463    2.6170    4.8583 H   0  0  0  0  0  0  0  0  0  0  0  0
    0.2727    3.0993    2.2563 H   0  0  0  0  0  0  0  0  0  0  0  0
   -1.2543    2.2617    2.5075 H   0  0  0  0  0  0  0  0  0  0  0  0
  2  1  1  0  0  0  0 
  2  3  1  0  0  0  0 
  3  4  2  0  0  0  0 
  3  5  1  0  0  0  0 
  5  6  1  0  0  0  0 
  6  7  2  0  0  0  0 
  7  8  1  0  0  0  0 
  8  9  2  0  0  0  0 
  9 10  1  0  0  0  0 
 10 11  2  0  0  0  0 
  6 11  1  0  0  0  0 
 11 12  1  0  0  0  0 
 12 13  1  0  0  0  0 
 13 14  2  0  0  0  0 
  5 14  1  0  0  0  0 
 14 15  1  0  0  0  0 
 15 16  2  0  0  0  0 
 16 17  1  0  0  0  0 
 17 18  2  0  0  0  0 
 13 18  1  0  0  0  0 
  2 19  1  0  0  0  0 
 19 20  1  0  0  0  0 
 19 21  1  0  0  0  0 
 21 22  1  0  0  0  0 
 22 23  1  0  0  0  0 
 23 24  1  0  0  0  0 
 19 24  1  0  0  0  0 
  1 25  1  0  0  0  0 
  1 26  1  0  0  0  0 
  1 27  1  0  0  0  0 
  2 28  1  0  0  0  0 
  7 29  1  0  0  0  0 
  8 30  1  0  0  0  0 
  9 31  1  0  0  0  0 
 10 32  1  0  0  0  0 
 15 33  1  0  0  0  0 
 16 34  1  0  0  0  0 
 17 35  1  0  0  0  0 
 18 36  1  0  0  0  0 
 20 37  1  0  0  0  0 
 20 38  1  0  0  0  0 
 20 39  1  0  0  0  0 
 21 40  1  0  0  0  0 
 21 41  1  0  0  0  0 
 22 42  1  0  0  0  0 
 22 43  1  0  0  0  0 
 23 44  1  0  0  0  0 
 23 45  1  0  0  0  0 
 24 46  1  0  0  0  0 
 24 47  1  0  0  0  0 
M  CHG  1  19   1
M  END
> <cdk:Title>
propyromazine

> <Conformer>
1

> <SuperDrugID>
SD002074

$$$$
