protoporphyrin
  CDK     0628171801

 76 80  0  0  0  0  0  0  0  0999 V2000
   -3.6518    2.9444    0.2856 C   0  0  1  0  0  0  0  0  0  0  0  0
   -4.8968    2.2258    0.8688 C   0  0  2  0  0  0  0  0  0  0  0  0
   -3.6397    2.9096   -1.2059 C   0  0  0  0  0  0  0  0  0  0  0  0
   -4.9452    2.3052    2.3421 C   0  0  0  0  0  0  0  0  0  0  0  0
   -3.1206    1.8897   -2.0195 C   0  0  0  0  0  0  0  0  0  0  0  0
   -4.1474    3.8857   -2.0691 C   0  0  0  0  0  0  0  0  0  0  0  0
   -5.9646    2.9428    2.9651 O   0  0  0  0  0  0  0  0  0  0  0  0
   -4.0467    1.7808    3.0396 O   0  0  0  0  0  0  0  0  0  0  0  0
   -2.5243    0.7041   -1.5548 C   0  0  0  0  0  0  0  0  0  0  0  0
   -3.2806    2.2384   -3.3104 N   0  0  0  0  0  0  0  0  0  0  0  0
   -4.8269    5.1550   -1.7011 C   0  0  0  0  0  0  0  0  0  0  0  0
   -3.8962    3.4352   -3.3743 C   0  0  0  0  0  0  0  0  0  0  0  0
   -1.9300   -0.3689   -2.3699 C   0  0  0  0  0  0  0  0  0  0  0  0
   -4.2357    4.1371   -4.5466 C   0  0  0  0  0  0  0  0  0  0  0  0
   -1.2424   -1.5555   -1.9217 C   0  0  0  0  0  0  0  0  0  0  0  0
   -1.8885   -0.4632   -3.7475 N   0  0  0  0  0  0  0  0  0  0  0  0
   -4.0067    3.7456   -5.8809 C   0  0  0  0  0  0  0  0  0  0  0  0
   -0.9630   -1.8971   -0.4970 C   0  0  2  0  0  0  0  0  0  0  0  0
   -0.8497   -2.2987   -3.0365 C   0  0  0  0  0  0  0  0  0  0  0  0
   -1.2641   -1.5805   -4.1604 C   0  0  0  0  0  0  0  0  0  0  0  0
   -4.3307    4.4991   -7.0223 C   0  0  0  0  0  0  0  0  0  0  0  0
   -3.4572    2.5898   -6.2941 N   0  0  0  0  0  0  0  0  0  0  0  0
    0.4444   -1.4408   -0.0229 C   0  0  1  0  0  0  0  0  0  0  0  0
   -0.1191   -3.5897   -3.0556 C   0  0  0  0  0  0  0  0  0  0  0  0
   -1.0354   -1.9683   -5.4926 C   0  0  0  0  0  0  0  0  0  0  0  0
   -4.8614    5.7918   -7.0168 C   0  0  0  0  0  0  0  0  0  0  0  0
   -3.9545    3.7286   -8.1324 C   0  0  0  0  0  0  0  0  0  0  0  0
   -3.4102    2.5307   -7.6371 C   0  0  0  0  0  0  0  0  0  0  0  0
    0.6086    0.0272    0.0085 C   0  0  0  0  0  0  0  0  0  0  0  0
   -1.3761   -1.2490   -6.6511 C   0  0  0  0  0  0  0  0  0  0  0  0
   -5.7824    6.2708   -7.8644 C   0  0  0  0  0  0  0  0  0  0  0  0
   -4.0672    4.1487   -9.5550 C   0  0  0  0  0  0  0  0  0  0  0  0
   -2.8941    1.4757   -8.4142 C   0  0  0  0  0  0  0  0  0  0  0  0
   -0.0972    0.7730    0.8909 O   0  0  0  0  0  0  0  0  0  0  0  0
    1.4024    0.6062   -0.7674 O   0  0  0  0  0  0  0  0  0  0  0  0
   -2.0545   -0.0873   -6.7011 N   0  0  0  0  0  0  0  0  0  0  0  0
   -1.0626   -1.6165   -7.9689 C   0  0  0  0  0  0  0  0  0  0  0  0
   -2.2275    0.3162   -7.9719 C   0  0  0  0  0  0  0  0  0  0  0  0
   -0.2536   -2.7827   -8.4116 C   0  0  0  0  0  0  0  0  0  0  0  0
   -1.6159   -0.6361   -8.8039 C   0  0  0  0  0  0  0  0  0  0  0  0
   -1.5300   -0.5582  -10.1923 C   0  0  0  0  0  0  0  0  0  0  0  0
   -1.7390   -1.5775  -11.0347 C   0  0  0  0  0  0  0  0  0  0  0  0
   -3.6218    3.9743    0.6425 H   0  0  0  0  0  0  0  0  0  0  0  0
   -2.7437    2.4803    0.6747 H   0  0  0  0  0  0  0  0  0  0  0  0
   -4.8845    1.1710    0.5792 H   0  0  0  0  0  0  0  0  0  0  0  0
   -5.8044    2.6774    0.4559 H   0  0  0  0  0  0  0  0  0  0  0  0
   -5.9904    2.9915    3.9438 H   0  0  0  0  0  0  0  0  0  0  0  0
   -2.4871    0.5629   -0.5492 H   0  0  0  0  0  0  0  0  0  0  0  0
   -4.2544    6.0020   -2.0817 H   0  0  0  0  0  0  0  0  0  0  0  0
   -4.9352    5.2777   -0.6263 H   0  0  0  0  0  0  0  0  0  0  0  0
   -5.8265    5.1780   -2.1372 H   0  0  0  0  0  0  0  0  0  0  0  0
   -4.7046    5.0336   -4.4116 H   0  0  0  0  0  0  0  0  0  0  0  0
   -1.0501   -2.9749   -0.3583 H   0  0  0  0  0  0  0  0  0  0  0  0
   -1.7199   -1.4673    0.1593 H   0  0  0  0  0  0  0  0  0  0  0  0
   -3.1460    1.8913   -5.7013 H   0  0  0  0  0  0  0  0  0  0  0  0
    0.6124   -1.8168    0.9894 H   0  0  0  0  0  0  0  0  0  0  0  0
    1.2091   -1.8889   -0.6636 H   0  0  0  0  0  0  0  0  0  0  0  0
   -0.7386   -4.3506   -3.5347 H   0  0  0  0  0  0  0  0  0  0  0  0
    0.1412   -3.9418   -2.0589 H   0  0  0  0  0  0  0  0  0  0  0  0
    0.8071   -3.4755   -3.6214 H   0  0  0  0  0  0  0  0  0  0  0  0
   -0.5666   -2.8617   -5.6306 H   0  0  0  0  0  0  0  0  0  0  0  0
   -4.5388    6.4144   -6.3122 H   0  0  0  0  0  0  0  0  0  0  0  0
   -6.0875    7.2137   -7.7830 H   0  0  0  0  0  0  0  0  0  0  0  0
   -6.1848    5.7093   -8.5754 H   0  0  0  0  0  0  0  0  0  0  0  0
   -5.0957    4.0159   -9.8895 H   0  0  0  0  0  0  0  0  0  0  0  0
   -3.4188    3.5823  -10.2199 H   0  0  0  0  0  0  0  0  0  0  0  0
   -3.7868    5.1982   -9.6644 H   0  0  0  0  0  0  0  0  0  0  0  0
   -3.0012    1.5622   -9.4223 H   0  0  0  0  0  0  0  0  0  0  0  0
    0.0112    1.7472    0.9144 H   0  0  0  0  0  0  0  0  0  0  0  0
   -2.3854    0.3881   -5.9247 H   0  0  0  0  0  0  0  0  0  0  0  0
   -0.9180   -3.5893   -8.7188 H   0  0  0  0  0  0  0  0  0  0  0  0
    0.4023   -3.1560   -7.6260 H   0  0  0  0  0  0  0  0  0  0  0  0
    0.3874   -2.5086   -9.2500 H   0  0  0  0  0  0  0  0  0  0  0  0
   -1.3171    0.3284  -10.5906 H   0  0  0  0  0  0  0  0  0  0  0  0
   -1.6547   -1.4360  -12.0135 H   0  0  0  0  0  0  0  0  0  0  0  0
   -1.9891   -2.4812  -10.7103 H   0  0  0  0  0  0  0  0  0  0  0  0
  1  2  1  0  0  0  0 
  1  3  1  0  0  0  0 
  2  4  1  0  0  0  0 
  3  5  1  0  0  0  0 
  3  6  2  0  0  0  0 
  4  7  1  0  0  0  0 
  4  8  2  0  0  0  0 
  5  9  1  0  0  0  0 
  5 10  2  0  0  0  0 
  6 11  1  0  0  0  0 
  6 12  1  0  0  0  0 
  9 13  2  0  0  0  0 
 10 12  1  0  0  0  0 
 12 14  2  0  0  0  0 
 13 15  1  0  0  0  0 
 13 16  1  0  0  0  0 
 14 17  1  0  0  0  0 
 15 18  1  0  0  0  0 
 15 19  2  0  0  0  0 
 16 20  2  0  0  0  0 
 17 21  2  0  0  0  0 
 17 22  1  0  0  0  0 
 18 23  1  0  0  0  0 
 19 20  1  0  0  0  0 
 19 24  1  0  0  0  0 
 20 25  1  0  0  0  0 
 21 26  1  0  0  0  0 
 21 27  1  0  0  0  0 
 22 28  1  0  0  0  0 
 23 29  1  0  0  0  0 
 25 30  2  0  0  0  0 
 26 31  2  0  0  0  0 
 27 28  2  0  0  0  0 
 27 32  1  0  0  0  0 
 28 33  1  0  0  0  0 
 29 34  1  0  0  0  0 
 29 35  2  0  0  0  0 
 30 36  1  0  0  0  0 
 30 37  1  0  0  0  0 
 33 38  2  0  0  0  0 
 36 38  1  0  0  0  0 
 37 39  1  0  0  0  0 
 37 40  2  0  0  0  0 
 38 40  1  0  0  0  0 
 40 41  1  0  0  0  0 
 41 42  2  0  0  0  0 
 43  1  1  0  0  0  0 
 44  1  1  0  0  0  0 
 45  2  1  0  0  0  0 
 46  2  1  0  0  0  0 
 47  7  1  0  0  0  0 
 48  9  1  0  0  0  0 
 49 11  1  0  0  0  0 
 50 11  1  0  0  0  0 
 51 11  1  0  0  0  0 
 52 14  1  0  0  0  0 
 53 18  1  0  0  0  0 
 54 18  1  0  0  0  0 
 55 22  1  0  0  0  0 
 56 23  1  0  0  0  0 
 57 23  1  0  0  0  0 
 58 24  1  0  0  0  0 
 59 24  1  0  0  0  0 
 60 24  1  0  0  0  0 
 61 25  1  0  0  0  0 
 62 26  1  0  0  0  0 
 63 31  1  0  0  0  0 
 64 31  1  0  0  0  0 
 65 32  1  0  0  0  0 
 66 32  1  0  0  0  0 
 67 32  1  0  0  0  0 
 68 33  1  0  0  0  0 
 69 34  1  0  0  0  0 
 70 36  1  0  0  0  0 
 71 39  1  0  0  0  0 
 72 39  1  0  0  0  0 
 73 39  1  0  0  0  0 
 74 41  1  0  0  0  0 
 75 42  1  0  0  0  0 
 76 42  1  0  0  0  0 
M  END
> <cdk:Title>
protoporphyrin

> <Conformer>
1

> <SuperDrugID>
SD003016

$$$$
