pergolide
  CDK     0628171801

 48 51  0  0  0  0  0  0  0  0999 V2000
   -5.5098    2.8329   -2.6074 C   0  0  0  0  0  0  0  0  0  0  0  0
   -6.8873    2.7566   -2.4632 C   0  0  0  0  0  0  0  0  0  0  0  0
   -7.4488    2.6449   -1.1810 C   0  0  0  0  0  0  0  0  0  0  0  0
   -6.5739    2.6397   -0.0690 C   0  0  0  0  0  0  0  0  0  0  0  0
   -5.1699    2.7289   -0.2490 C   0  0  0  0  0  0  0  0  0  0  0  0
   -4.5939    2.8027   -1.5464 C   0  0  0  0  0  0  0  0  0  0  0  0
   -3.8193    3.1105   -4.4180 C   0  0  2  0  0  0  0  0  0  0  0  0
   -5.2096    2.9682   -3.9448 C   0  0  0  0  0  0  0  0  0  0  0  0
   -3.1334    2.9317   -1.8910 C   0  0  2  0  0  0  0  0  0  0  0  0
   -2.7901    2.5150   -3.3858 C   0  0  2  0  0  0  0  0  0  0  0  0
   -1.3446    2.8588   -3.6682 N   0  0  1  0  0  0  0  0  0  0  0  0
   -2.1878    2.1708   -0.9111 C   0  0  1  0  0  0  0  0  0  0  0  0
   -0.6869    2.4083   -1.2539 C   0  0  2  0  0  0  0  0  0  0  0  0
   -0.3911    2.1391   -2.7589 C   0  0  2  0  0  0  0  0  0  0  0  0
   -6.4390    2.9676   -4.6076 C   0  0  0  0  0  0  0  0  0  0  0  0
   -7.4262    2.8330   -3.6944 N   0  0  0  0  0  0  0  0  0  0  0  0
   -2.8988    1.4246   -3.4620 H   0  0  0  0  0  0  0  0  0  0  0  0
   -2.9141    3.9994   -1.7905 H   0  0  0  0  0  0  0  0  0  0  0  0
   -0.8709    2.9386   -5.0955 C   0  0  1  0  0  0  0  0  0  0  0  0
   -0.7901    1.5889   -5.8642 C   0  0  1  0  0  0  0  0  0  0  0  0
   -0.4086    1.7619   -7.3551 C   0  0  0  0  0  0  0  0  0  0  0  0
    0.2759    1.6441   -0.2932 C   0  0  2  0  0  0  0  0  0  0  0  0
    0.1711   -0.1755   -0.4146 S   0  0  0  0  0  0  0  0  0  0  0  0
    1.3665   -0.7614    0.8226 C   0  0  0  0  0  0  0  0  0  0  0  0
   -0.4975    3.4750   -1.0891 H   0  0  0  0  0  0  0  0  0  0  0  0
   -8.4620    2.5858   -1.0516 H   0  0  0  0  0  0  0  0  0  0  0  0
   -6.9602    2.5807    0.8764 H   0  0  0  0  0  0  0  0  0  0  0  0
   -4.5794    2.7475    0.5825 H   0  0  0  0  0  0  0  0  0  0  0  0
   -3.6230    4.1738   -4.5732 H   0  0  0  0  0  0  0  0  0  0  0  0
   -3.7265    2.5938   -5.3763 H   0  0  0  0  0  0  0  0  0  0  0  0
   -2.3499    2.5262    0.1096 H   0  0  0  0  0  0  0  0  0  0  0  0
   -2.4256    1.1036   -0.9370 H   0  0  0  0  0  0  0  0  0  0  0  0
    0.6343    2.4683   -2.9562 H   0  0  0  0  0  0  0  0  0  0  0  0
   -0.4389    1.0654   -2.9604 H   0  0  0  0  0  0  0  0  0  0  0  0
   -6.5766    3.0588   -5.6167 H   0  0  0  0  0  0  0  0  0  0  0  0
   -8.3756    2.8076   -3.8935 H   0  0  0  0  0  0  0  0  0  0  0  0
   -1.5073    3.6275   -5.6524 H   0  0  0  0  0  0  0  0  0  0  0  0
    0.1209    3.3984   -5.1065 H   0  0  0  0  0  0  0  0  0  0  0  0
   -0.0441    0.9431   -5.3934 H   0  0  0  0  0  0  0  0  0  0  0  0
   -1.7553    1.0826   -5.8144 H   0  0  0  0  0  0  0  0  0  0  0  0
    0.5559    2.2669   -7.4486 H   0  0  0  0  0  0  0  0  0  0  0  0
   -0.3335    0.7817   -7.8318 H   0  0  0  0  0  0  0  0  0  0  0  0
   -1.1697    2.3447   -7.8805 H   0  0  0  0  0  0  0  0  0  0  0  0
    0.0566    1.9278    0.7388 H   0  0  0  0  0  0  0  0  0  0  0  0
    1.3055    1.9419   -0.5044 H   0  0  0  0  0  0  0  0  0  0  0  0
    1.4053   -1.8494    0.7898 H   0  0  0  0  0  0  0  0  0  0  0  0
    1.0551   -0.4430    1.8173 H   0  0  0  0  0  0  0  0  0  0  0  0
    2.3564   -0.3617    0.6038 H   0  0  0  0  0  0  0  0  0  0  0  0
  1  2  1  0  0  0  0 
  2  3  2  0  0  0  0 
  3  4  1  0  0  0  0 
  4  5  2  0  0  0  0 
  5  6  1  0  0  0  0 
  1  6  2  0  0  0  0 
  7  8  1  0  0  0  0 
  9 10  1  0  0  0  0 
  7 10  1  0  0  0  0 
  8  1  1  0  0  0  0 
  6  9  1  0  0  0  0 
 12 13  1  0  0  0  0 
 13 14  1  0  0  0  0 
 11 14  1  0  0  0  0 
  9 12  1  0  0  0  0 
 11 10  1  0  0  0  0 
  8 15  2  0  0  0  0 
  2 16  1  0  0  0  0 
 15 16  1  0  0  0  0 
 10 17  1  0  0  0  0 
  9 18  1  0  0  0  0 
 11 19  1  0  0  0  0 
 19 20  1  0  0  0  0 
 20 21  1  0  0  0  0 
 13 22  1  0  0  0  0 
 22 23  1  0  0  0  0 
 23 24  1  0  0  0  0 
 13 25  1  0  0  0  0 
  3 26  1  0  0  0  0 
  4 27  1  0  0  0  0 
  5 28  1  0  0  0  0 
  7 29  1  0  0  0  0 
  7 30  1  0  0  0  0 
 12 31  1  0  0  0  0 
 12 32  1  0  0  0  0 
 14 33  1  0  0  0  0 
 14 34  1  0  0  0  0 
 15 35  1  0  0  0  0 
 16 36  1  0  0  0  0 
 19 37  1  0  0  0  0 
 19 38  1  0  0  0  0 
 20 39  1  0  0  0  0 
 20 40  1  0  0  0  0 
 21 41  1  0  0  0  0 
 21 42  1  0  0  0  0 
 21 43  1  0  0  0  0 
 22 44  1  0  0  0  0 
 22 45  1  0  0  0  0 
 24 46  1  0  0  0  0 
 24 47  1  0  0  0  0 
 24 48  1  0  0  0  0 
M  END
> <cdk:Title>
pergolide

> <Conformer>
1

> <SuperDrugID>
SD001887

$$$$
