irofulven
  CDK     0628171801

 36 38  0  0  0  0  0  0  0  0999 V2000
   -0.7283    1.3195    2.0559 C   0  0  0  0  0  0  0  0  0  0  0  0
    0.1421    2.1573    1.2157 C   0  0  0  0  0  0  0  0  0  0  0  0
    0.1064    3.6622    1.3049 C   0  0  2  0  0  0  0  0  0  0  0  0
    1.0162    1.5541    0.3524 C   0  0  0  0  0  0  0  0  0  0  0  0
    1.1510    4.5082    0.4460 C   0  0  1  0  0  0  0  0  0  0  0  0
   -0.2254    4.3030    2.6879 C   0  0  2  0  0  0  0  0  0  0  0  0
   -1.2857    4.3154    1.5814 C   0  0  1  0  0  0  0  0  0  0  0  0
    1.9171    2.2669   -0.3656 C   0  0  0  0  0  0  0  0  0  0  0  0
    1.2596    0.2235    0.0123 C   0  0  0  0  0  0  0  0  0  0  0  0
    0.5021    5.5611   -0.5104 C   0  0  0  0  0  0  0  0  0  0  0  0
    2.0411    5.2264    1.3087 O   0  0  0  0  0  0  0  0  0  0  0  0
    2.0563    3.6431   -0.3540 C   0  0  0  0  0  0  0  0  0  0  0  0
    2.6834    1.4342   -1.0657 C   0  0  0  0  0  0  0  0  0  0  0  0
    0.5499   -0.9959    0.4248 C   0  0  1  0  0  0  0  0  0  0  0  0
    2.2976    0.1879   -0.8442 C   0  0  0  0  0  0  0  0  0  0  0  0
    2.9920    4.1802   -1.0006 O   0  0  0  0  0  0  0  0  0  0  0  0
   -0.7467   -1.0458   -0.1588 O   0  0  0  0  0  0  0  0  0  0  0  0
    2.9286   -0.9665   -1.4768 C   0  0  0  0  0  0  0  0  0  0  0  0
   -0.1159    0.7044    2.7137 H   0  0  0  0  0  0  0  0  0  0  0  0
   -1.4044    1.8493    2.7146 H   0  0  0  0  0  0  0  0  0  0  0  0
   -1.3732    0.6998    1.4401 H   0  0  0  0  0  0  0  0  0  0  0  0
    0.1511    5.3013    2.9149 H   0  0  0  0  0  0  0  0  0  0  0  0
   -0.4431    3.6600    3.5395 H   0  0  0  0  0  0  0  0  0  0  0  0
   -1.5049    5.3256    1.2431 H   0  0  0  0  0  0  0  0  0  0  0  0
   -2.1492    3.6769    1.7559 H   0  0  0  0  0  0  0  0  0  0  0  0
    0.0743    6.3863    0.0595 H   0  0  0  0  0  0  0  0  0  0  0  0
   -0.2824    5.0975   -1.1118 H   0  0  0  0  0  0  0  0  0  0  0  0
    1.2313    6.0095   -1.1890 H   0  0  0  0  0  0  0  0  0  0  0  0
    2.4676    4.5415    1.8677 H   0  0  0  0  0  0  0  0  0  0  0  0
    3.4301    1.7017   -1.6652 H   0  0  0  0  0  0  0  0  0  0  0  0
    1.0493   -1.9087    0.1002 H   0  0  0  0  0  0  0  0  0  0  0  0
    0.4896   -1.0722    1.5077 H   0  0  0  0  0  0  0  0  0  0  0  0
   -1.1485   -1.8724    0.1851 H   0  0  0  0  0  0  0  0  0  0  0  0
    2.1947   -1.5052   -2.0793 H   0  0  0  0  0  0  0  0  0  0  0  0
    3.3278   -1.6342   -0.7105 H   0  0  0  0  0  0  0  0  0  0  0  0
    3.7541   -0.6813   -2.1351 H   0  0  0  0  0  0  0  0  0  0  0  0
  1  2  1  0  0  0  0 
  2  3  1  0  0  0  0 
  2  4  2  0  0  0  0 
  5  3  1  0  0  0  0 
  3  6  1  0  0  0  0 
  3  7  1  0  0  0  0 
  4  8  1  0  0  0  0 
  4  9  1  0  0  0  0 
  5 10  1  0  0  0  0 
  5 11  1  0  0  0  0 
  5 12  1  0  0  0  0 
  6  7  1  0  0  0  0 
  8 12  1  0  0  0  0 
  8 13  2  0  0  0  0 
  9 14  1  0  0  0  0 
  9 15  2  0  0  0  0 
 12 16  2  0  0  0  0 
 13 15  1  0  0  0  0 
 14 17  1  0  0  0  0 
 15 18  1  0  0  0  0 
  1 19  1  0  0  0  0 
  1 20  1  0  0  0  0 
  1 21  1  0  0  0  0 
  6 22  1  0  0  0  0 
  6 23  1  0  0  0  0 
  7 24  1  0  0  0  0 
  7 25  1  0  0  0  0 
 10 26  1  0  0  0  0 
 10 27  1  0  0  0  0 
 10 28  1  0  0  0  0 
 11 29  1  0  0  0  0 
 13 30  1  0  0  0  0 
 14 31  1  0  0  0  0 
 14 32  1  0  0  0  0 
 17 33  1  0  0  0  0 
 18 34  1  0  0  0  0 
 18 35  1  0  0  0  0 
 18 36  1  0  0  0  0 
M  END
> <cdk:Title>
irofulven

> <Conformer>
1

> <SuperDrugID>
SD001314

$$$$
