diethazine
  CDK     0628171802

 43 45  0  0  0  0  0  0  0  0999 V2000
   -2.1926   -3.7953    0.3003 C   0  0  0  0  0  0  0  0  0  0  0  0
   -2.8602   -2.6822    1.1414 C   0  0  1  0  0  0  0  0  0  0  0  0
   -1.9144   -1.5862    1.5552 N   0  0  2  0  0  0  0  0  0  0  0  0
   -2.3890   -0.8509    2.7822 C   0  0  2  0  0  0  0  0  0  0  0  0
   -2.0410   -1.5810    4.0996 C   0  0  0  0  0  0  0  0  0  0  0  0
   -1.5221   -0.6720    0.4258 C   0  0  2  0  0  0  0  0  0  0  0  0
   -0.1262    0.0048    0.5734 C   0  0  2  0  0  0  0  0  0  0  0  0
    1.0022   -0.8737    0.2714 N   0  0  0  0  0  0  0  0  0  0  0  0
    1.2663   -1.9846    1.0671 C   0  0  0  0  0  0  0  0  0  0  0  0
    1.2708   -1.9066    2.4802 C   0  0  0  0  0  0  0  0  0  0  0  0
    1.4899   -3.0460    3.2767 C   0  0  0  0  0  0  0  0  0  0  0  0
    1.7270   -4.2915    2.6725 C   0  0  0  0  0  0  0  0  0  0  0  0
    1.7699   -4.3915    1.2725 C   0  0  0  0  0  0  0  0  0  0  0  0
    1.5534   -3.2459    0.4810 C   0  0  0  0  0  0  0  0  0  0  0  0
    1.6800   -3.3593   -1.2705 S   0  0  0  0  0  0  0  0  0  0  0  0
    2.1389   -1.7207   -1.7210 C   0  0  0  0  0  0  0  0  0  0  0  0
    1.7832   -0.6478   -0.8611 C   0  0  0  0  0  0  0  0  0  0  0  0
    2.2545    0.6460   -1.1970 C   0  0  0  0  0  0  0  0  0  0  0  0
    2.9965    0.8719   -2.3715 C   0  0  0  0  0  0  0  0  0  0  0  0
    3.2934   -0.1988   -3.2315 C   0  0  0  0  0  0  0  0  0  0  0  0
    2.8716   -1.4985   -2.9036 C   0  0  0  0  0  0  0  0  0  0  0  0
   -1.9866   -3.4581   -0.7153 H   0  0  0  0  0  0  0  0  0  0  0  0
   -1.2603   -4.1101    0.7671 H   0  0  0  0  0  0  0  0  0  0  0  0
   -2.8571   -4.6582    0.2425 H   0  0  0  0  0  0  0  0  0  0  0  0
   -3.7117   -2.2673    0.5919 H   0  0  0  0  0  0  0  0  0  0  0  0
   -3.2700   -3.1810    2.0224 H   0  0  0  0  0  0  0  0  0  0  0  0
   -3.4703   -0.6921    2.7397 H   0  0  0  0  0  0  0  0  0  0  0  0
   -1.9352    0.1394    2.8547 H   0  0  0  0  0  0  0  0  0  0  0  0
   -2.3677   -0.9828    4.9518 H   0  0  0  0  0  0  0  0  0  0  0  0
   -0.9669   -1.7250    4.1800 H   0  0  0  0  0  0  0  0  0  0  0  0
   -2.5278   -2.5528    4.1569 H   0  0  0  0  0  0  0  0  0  0  0  0
   -2.2823    0.1084    0.3150 H   0  0  0  0  0  0  0  0  0  0  0  0
   -1.4983   -1.2025   -0.5273 H   0  0  0  0  0  0  0  0  0  0  0  0
   -0.0098    0.4514    1.5604 H   0  0  0  0  0  0  0  0  0  0  0  0
   -0.1539    0.8507   -0.1173 H   0  0  0  0  0  0  0  0  0  0  0  0
    1.1203   -1.0127    2.9472 H   0  0  0  0  0  0  0  0  0  0  0  0
    1.4790   -2.9677    4.2960 H   0  0  0  0  0  0  0  0  0  0  0  0
    1.8755   -5.1212    3.2521 H   0  0  0  0  0  0  0  0  0  0  0  0
    1.9665   -5.2974    0.8392 H   0  0  0  0  0  0  0  0  0  0  0  0
    2.0633    1.4424   -0.5856 H   0  0  0  0  0  0  0  0  0  0  0  0
    3.3165    1.8153   -2.6012 H   0  0  0  0  0  0  0  0  0  0  0  0
    3.8242   -0.0334   -4.0901 H   0  0  0  0  0  0  0  0  0  0  0  0
    3.1089   -2.2776   -3.5236 H   0  0  0  0  0  0  0  0  0  0  0  0
  1  2  1  0  0  0  0 
  2  3  1  0  0  0  0 
  3  4  1  0  0  0  0 
  4  5  1  0  0  0  0 
  3  6  1  0  0  0  0 
  6  7  1  0  0  0  0 
  7  8  1  0  0  0  0 
  8  9  1  0  0  0  0 
  9 10  2  0  0  0  0 
 10 11  1  0  0  0  0 
 11 12  2  0  0  0  0 
 12 13  1  0  0  0  0 
 13 14  2  0  0  0  0 
  9 14  1  0  0  0  0 
 14 15  1  0  0  0  0 
 15 16  1  0  0  0  0 
 16 17  2  0  0  0  0 
  8 17  1  0  0  0  0 
 17 18  1  0  0  0  0 
 18 19  2  0  0  0  0 
 19 20  1  0  0  0  0 
 20 21  2  0  0  0  0 
 16 21  1  0  0  0  0 
  1 22  1  0  0  0  0 
  1 23  1  0  0  0  0 
  1 24  1  0  0  0  0 
  2 25  1  0  0  0  0 
  2 26  1  0  0  0  0 
  4 27  1  0  0  0  0 
  4 28  1  0  0  0  0 
  5 29  1  0  0  0  0 
  5 30  1  0  0  0  0 
  5 31  1  0  0  0  0 
  6 32  1  0  0  0  0 
  6 33  1  0  0  0  0 
  7 34  1  0  0  0  0 
  7 35  1  0  0  0  0 
 10 36  1  0  0  0  0 
 11 37  1  0  0  0  0 
 12 38  1  0  0  0  0 
 13 39  1  0  0  0  0 
 18 40  1  0  0  0  0 
 19 41  1  0  0  0  0 
 20 42  1  0  0  0  0 
 21 43  1  0  0  0  0 
M  END
> <cdk:Title>
diethazine

> <Conformer>
1

> <SuperDrugID>
SD000775

$$$$
