arsthinol
  CDK     0628171801

 32 33  0  0  0  0  0  0  0  0999 V2000
    6.1241   -0.5318    4.3313 N   0  0  0  0  0  0  0  0  0  0  0  0
    5.6816    0.4022    5.2218 C   0  0  0  0  0  0  0  0  0  0  0  0
    5.3959   -1.2974    3.4605 C   0  0  0  0  0  0  0  0  0  0  0  0
    6.6806    1.0879    6.0598 C   0  0  0  0  0  0  0  0  0  0  0  0
    4.4669    0.6686    5.3844 O   0  0  0  0  0  0  0  0  0  0  0  0
    4.2141   -0.8445    2.8269 C   0  0  0  0  0  0  0  0  0  0  0  0
    5.8698   -2.5979    3.1630 C   0  0  0  0  0  0  0  0  0  0  0  0
    3.5126   -1.6761    1.9343 C   0  0  0  0  0  0  0  0  0  0  0  0
    6.9838   -3.0844    3.7673 O   0  0  0  0  0  0  0  0  0  0  0  0
    5.1835   -3.4183    2.2466 C   0  0  0  0  0  0  0  0  0  0  0  0
    4.0049   -2.9593    1.6332 C   0  0  0  0  0  0  0  0  0  0  0  0
    1.8953   -1.0577    1.1416 As  0  0  0  0  0  0  0  0  0  0  0  0
   -0.1470   -1.5491    1.9396 S   0  0  0  0  0  0  0  0  0  0  0  0
    1.5591    1.0840    0.5521 S   0  0  0  0  0  0  0  0  0  0  0  0
   -0.7951    0.1731    1.8793 C   0  0  1  0  0  0  0  0  0  0  0  0
   -0.2699    0.9787    0.6381 C   0  0  2  0  0  0  0  0  0  0  0  0
   -2.3435    0.1583    1.9435 C   0  0  1  0  0  0  0  0  0  0  0  0
   -2.7950   -0.4589    3.1459 O   0  0  0  0  0  0  0  0  0  0  0  0
    7.0798   -0.6971    4.3410 H   0  0  0  0  0  0  0  0  0  0  0  0
    6.2067    1.7834    6.7571 H   0  0  0  0  0  0  0  0  0  0  0  0
    7.2468    0.3508    6.6333 H   0  0  0  0  0  0  0  0  0  0  0  0
    7.3691    1.6496    5.4271 H   0  0  0  0  0  0  0  0  0  0  0  0
    3.8612    0.0990    2.9999 H   0  0  0  0  0  0  0  0  0  0  0  0
    6.9215   -4.0602    3.6826 H   0  0  0  0  0  0  0  0  0  0  0  0
    5.5410   -4.3513    2.0276 H   0  0  0  0  0  0  0  0  0  0  0  0
    3.5137   -3.5640    0.9692 H   0  0  0  0  0  0  0  0  0  0  0  0
   -0.4325    0.6823    2.7760 H   0  0  0  0  0  0  0  0  0  0  0  0
   -0.6158    0.4950   -0.2787 H   0  0  0  0  0  0  0  0  0  0  0  0
   -0.6581    1.9996    0.6563 H   0  0  0  0  0  0  0  0  0  0  0  0
   -2.7294    1.1808    1.9252 H   0  0  0  0  0  0  0  0  0  0  0  0
   -2.7585   -0.3838    1.0898 H   0  0  0  0  0  0  0  0  0  0  0  0
   -3.7730   -0.4363    3.0895 H   0  0  0  0  0  0  0  0  0  0  0  0
  1  2  1  0  0  0  0 
  1  3  1  0  0  0  0 
  2  4  1  0  0  0  0 
  2  5  2  0  0  0  0 
  3  6  2  0  0  0  0 
  3  7  1  0  0  0  0 
  6  8  1  0  0  0  0 
  7  9  1  0  0  0  0 
  7 10  2  0  0  0  0 
  8 11  2  0  0  0  0 
  8 12  1  0  0  0  0 
 10 11  1  0  0  0  0 
 12 13  1  0  0  0  0 
 12 14  1  0  0  0  0 
 13 15  1  0  0  0  0 
 14 16  1  0  0  0  0 
 15 16  1  0  0  0  0 
 15 17  1  0  0  0  0 
 17 18  1  0  0  0  0 
  1 19  1  0  0  0  0 
  4 20  1  0  0  0  0 
  4 21  1  0  0  0  0 
  4 22  1  0  0  0  0 
  6 23  1  0  0  0  0 
  9 24  1  0  0  0  0 
 10 25  1  0  0  0  0 
 11 26  1  0  0  0  0 
 15 27  1  0  0  0  0 
 16 28  1  0  0  0  0 
 16 29  1  0  0  0  0 
 17 30  1  0  0  0  0 
 17 31  1  0  0  0  0 
 18 32  1  0  0  0  0 
M  END
> <cdk:Title>
arsthinol

> <Conformer>
1

> <SuperDrugID>
SD002614

$$$$
