pyrrolnitrin
  CDK     0628171801

 22 23  0  0  0  0  0  0  0  0999 V2000
   -3.7416    0.4656    1.2224 N   0  0  0  0  0  0  0  0  0  0  0  0
   -2.9175    0.6592    2.1706 O   0  0  0  0  0  0  0  0  0  0  0  0
   -4.1919    1.4136    0.7097 O   0  0  0  0  0  0  0  0  0  0  0  0
   -4.0647   -0.7725    0.8328 C   0  0  0  0  0  0  0  0  0  0  0  0
   -3.0493   -1.7237    0.5104 C   0  0  0  0  0  0  0  0  0  0  0  0
   -5.4294   -1.1796    0.7744 C   0  0  0  0  0  0  0  0  0  0  0  0
   -3.4112   -3.0446    0.1609 C   0  0  0  0  0  0  0  0  0  0  0  0
   -1.6684   -1.4051    0.5192 C   0  0  0  0  0  0  0  0  0  0  0  0
   -6.7159   -0.1506    1.1910 Cl  0  0  0  0  0  0  0  0  0  0  0  0
   -5.7646   -2.4973    0.4035 C   0  0  0  0  0  0  0  0  0  0  0  0
   -4.7593   -3.4276    0.1026 C   0  0  0  0  0  0  0  0  0  0  0  0
   -1.0063   -0.4451   -0.2462 C   0  0  0  0  0  0  0  0  0  0  0  0
   -0.6962   -2.0047    1.3186 C   0  0  0  0  0  0  0  0  0  0  0  0
   -1.6733    0.5683   -1.4284 Cl  0  0  0  0  0  0  0  0  0  0  0  0
    0.3341   -0.4843    0.1253 C   0  0  0  0  0  0  0  0  0  0  0  0
    0.4892   -1.4322    1.0619 N   0  0  0  0  0  0  0  0  0  0  0  0
   -2.6958   -3.7422   -0.0653 H   0  0  0  0  0  0  0  0  0  0  0  0
   -6.7428   -2.7960    0.3580 H   0  0  0  0  0  0  0  0  0  0  0  0
   -5.0094   -4.3856   -0.1571 H   0  0  0  0  0  0  0  0  0  0  0  0
   -0.8547   -2.7522    1.9981 H   0  0  0  0  0  0  0  0  0  0  0  0
    1.0796    0.1047   -0.2502 H   0  0  0  0  0  0  0  0  0  0  0  0
    1.3280   -1.6673    1.4876 H   0  0  0  0  0  0  0  0  0  0  0  0
  1  2  1  0  0  0  0 
  1  3  2  0  0  0  0 
  1  4  1  0  0  0  0 
  4  5  2  0  0  0  0 
  4  6  1  0  0  0  0 
  5  7  1  0  0  0  0 
  5  8  1  0  0  0  0 
  6  9  1  0  0  0  0 
  6 10  2  0  0  0  0 
  7 11  2  0  0  0  0 
  8 12  1  0  0  0  0 
  8 13  2  0  0  0  0 
 10 11  1  0  0  0  0 
 12 14  1  0  0  0  0 
 12 15  2  0  0  0  0 
 13 16  1  0  0  0  0 
 15 16  1  0  0  0  0 
  7 17  1  0  0  0  0 
 10 18  1  0  0  0  0 
 11 19  1  0  0  0  0 
 13 20  1  0  0  0  0 
 15 21  1  0  0  0  0 
 16 22  1  0  0  0  0 
M  CHG  1   1   1
M  CHG  1   2  -1
M  END
> <cdk:Title>
pyrrolnitrin

> <Conformer>
1

> <SuperDrugID>
SD003025

$$$$
