mitoguazone
  CDK     0628171801

 25 24  0  0  0  0  0  0  0  0999 V2000
   -0.4994   -4.7717    0.2327 C   0  0  0  0  0  0  0  0  0  0  0  0
    0.8367   -4.8543    0.1525 N   0  0  0  0  0  0  0  0  0  0  0  0
   -1.0598   -3.5471    0.1644 C   0  0  0  0  0  0  0  0  0  0  0  0
   -1.3601   -5.9462    0.3895 C   0  0  0  0  0  0  0  0  0  0  0  0
    1.5225   -5.9205    0.2156 N   0  0  0  0  0  0  0  0  0  0  0  0
   -0.3495   -2.4701    0.0423 N   0  0  0  0  0  0  0  0  0  0  0  0
    2.8020   -5.9862    0.1520 C   0  0  0  0  0  0  0  0  0  0  0  0
   -0.7983   -1.3323   -0.0562 N   0  0  0  0  0  0  0  0  0  0  0  0
    3.5862   -4.9327    0.0136 N   0  0  0  0  0  0  0  0  0  0  0  0
    3.3626   -7.1693    0.2265 N   0  0  0  0  0  0  0  0  0  0  0  0
   -0.0903   -0.2596   -0.1721 C   0  0  0  0  0  0  0  0  0  0  0  0
   -0.7055    0.8497   -0.3122 N   0  0  0  0  0  0  0  0  0  0  0  0
    1.2293   -0.2483   -0.1443 N   0  0  0  0  0  0  0  0  0  0  0  0
    1.3252   -4.0221    0.0418 H   0  0  0  0  0  0  0  0  0  0  0  0
   -2.0522   -3.4613    0.2121 H   0  0  0  0  0  0  0  0  0  0  0  0
   -0.8069   -6.8866    0.3513 H   0  0  0  0  0  0  0  0  0  0  0  0
   -1.8723   -5.9023    1.3528 H   0  0  0  0  0  0  0  0  0  0  0  0
   -2.1091   -5.9727   -0.4066 H   0  0  0  0  0  0  0  0  0  0  0  0
    4.5494   -5.0466   -0.0158 H   0  0  0  0  0  0  0  0  0  0  0  0
    3.2049   -4.0429   -0.0550 H   0  0  0  0  0  0  0  0  0  0  0  0
    4.3247   -7.2557    0.1400 H   0  0  0  0  0  0  0  0  0  0  0  0
    2.8159   -7.9592    0.3628 H   0  0  0  0  0  0  0  0  0  0  0  0
   -0.2266    1.6492   -0.3893 H   0  0  0  0  0  0  0  0  0  0  0  0
    1.7205   -1.0720   -0.0006 H   0  0  0  0  0  0  0  0  0  0  0  0
    1.7112    0.5861   -0.2597 H   0  0  0  0  0  0  0  0  0  0  0  0
  1  2  1  0  0  0  0 
  1  3  2  0  0  0  0 
  1  4  1  0  0  0  0 
  2  5  1  0  0  0  0 
  3  6  1  0  0  0  0 
  5  7  2  0  0  0  0 
  6  8  2  0  0  0  0 
  7  9  1  0  0  0  0 
  7 10  1  0  0  0  0 
  8 11  1  0  0  0  0 
 11 12  2  0  0  0  0 
 11 13  1  0  0  0  0 
 14  2  1  0  0  0  0 
 15  3  1  0  0  0  0 
 16  4  1  0  0  0  0 
 17  4  1  0  0  0  0 
 18  4  1  0  0  0  0 
 19  9  1  0  0  0  0 
 20  9  1  0  0  0  0 
 21 10  1  0  0  0  0 
 22 10  1  0  0  0  0 
 23 12  1  0  0  0  0 
 24 13  1  0  0  0  0 
 25 13  1  0  0  0  0 
M  END
> <cdk:Title>
mitoguazone

> <Conformer>
1

> <SuperDrugID>
SD002900

$$$$
