lacidipine
  CDK     0628171801

 66 67  0  0  0  0  0  0  0  0999 V2000
    1.5267    3.0138    5.3977 N   0  0  0  0  0  0  0  0  0  0  0  0
    0.6923    3.2583    6.4083 C   0  0  0  0  0  0  0  0  0  0  0  0
    0.5604    2.2836    7.3757 C   0  0  0  0  0  0  0  0  0  0  0  0
    1.3184    0.9546    7.2252 C   0  0  2  0  0  0  0  0  0  0  0  0
    2.2713    0.8924    6.0734 C   0  0  0  0  0  0  0  0  0  0  0  0
    2.3239    1.9549    5.2216 C   0  0  0  0  0  0  0  0  0  0  0  0
    0.2884   -0.1700    7.1679 C   0  0  0  0  0  0  0  0  0  0  0  0
    0.1646   -1.0052    8.3125 C   0  0  0  0  0  0  0  0  0  0  0  0
   -0.7466   -2.0712    8.3634 C   0  0  0  0  0  0  0  0  0  0  0  0
   -1.5704   -2.3382    7.2635 C   0  0  0  0  0  0  0  0  0  0  0  0
   -1.4688   -1.5473    6.1101 C   0  0  0  0  0  0  0  0  0  0  0  0
   -0.5497   -0.4679    6.0415 C   0  0  0  0  0  0  0  0  0  0  0  0
    3.1938    2.0860    4.0539 C   0  0  0  0  0  0  0  0  0  0  0  0
    0.0669    4.6285    6.2727 C   0  0  0  0  0  0  0  0  0  0  0  0
    3.0709   -0.2704    5.9246 C   0  0  0  0  0  0  0  0  0  0  0  0
   -0.2039    2.5047    8.5307 C   0  0  0  0  0  0  0  0  0  0  0  0
   -0.0822    1.7527    9.5270 O   0  0  0  0  0  0  0  0  0  0  0  0
   -1.0712    3.5554    8.6319 O   0  0  0  0  0  0  0  0  0  0  0  0
   -1.9356    3.8877    9.7236 C   0  0  1  0  0  0  0  0  0  0  0  0
   -2.6460    5.2212    9.4243 C   0  0  0  0  0  0  0  0  0  0  0  0
    2.8943   -1.3522    6.7507 O   0  0  0  0  0  0  0  0  0  0  0  0
    3.9623   -0.3881    5.0498 O   0  0  0  0  0  0  0  0  0  0  0  0
    3.5598   -2.6223    6.6762 C   0  0  2  0  0  0  0  0  0  0  0  0
    3.0410   -3.5741    7.7699 C   0  0  0  0  0  0  0  0  0  0  0  0
   -0.4771    0.2595    4.8606 C   0  0  0  0  0  0  0  0  0  0  0  0
   -0.3082   -0.3031    3.6493 C   0  0  0  0  0  0  0  0  0  0  0  0
   -0.1025    0.4019    2.4801 C   0  0  0  0  0  0  0  0  0  0  0  0
   -0.2363   -0.2777    1.3000 O   0  0  0  0  0  0  0  0  0  0  0  0
    0.2154    1.6150    2.4985 O   0  0  0  0  0  0  0  0  0  0  0  0
    0.0309    0.1199   -0.0626 C   0  0  2  0  0  0  0  0  0  0  0  0
    1.5719    0.1433   -0.2811 C   0  0  0  0  0  0  0  0  0  0  0  0
   -0.6019    1.4983   -0.4211 C   0  0  0  0  0  0  0  0  0  0  0  0
   -0.6117   -0.9887   -0.9477 C   0  0  0  0  0  0  0  0  0  0  0  0
    1.5715    3.6989    4.7123 H   0  0  0  0  0  0  0  0  0  0  0  0
    2.0276    0.7230    8.0930 H   0  0  0  0  0  0  0  0  0  0  0  0
    0.7443   -0.8469    9.1389 H   0  0  0  0  0  0  0  0  0  0  0  0
   -0.8118   -2.6536    9.2016 H   0  0  0  0  0  0  0  0  0  0  0  0
   -2.2423   -3.1093    7.3010 H   0  0  0  0  0  0  0  0  0  0  0  0
   -2.0799   -1.7733    5.3195 H   0  0  0  0  0  0  0  0  0  0  0  0
    4.2383    2.0708    4.3687 H   0  0  0  0  0  0  0  0  0  0  0  0
    3.0422    3.0213    3.5052 H   0  0  0  0  0  0  0  0  0  0  0  0
    3.0063    1.2728    3.3513 H   0  0  0  0  0  0  0  0  0  0  0  0
    0.3785    5.1570    5.3668 H   0  0  0  0  0  0  0  0  0  0  0  0
    0.3534    5.2393    7.1296 H   0  0  0  0  0  0  0  0  0  0  0  0
   -1.0198    4.5356    6.2378 H   0  0  0  0  0  0  0  0  0  0  0  0
   -2.6769    3.0955    9.8548 H   0  0  0  0  0  0  0  0  0  0  0  0
   -1.3560    3.9884   10.6449 H   0  0  0  0  0  0  0  0  0  0  0  0
   -3.3086    5.4813   10.2515 H   0  0  0  0  0  0  0  0  0  0  0  0
   -1.9115    6.0191    9.2981 H   0  0  0  0  0  0  0  0  0  0  0  0
   -3.2372    5.1391    8.5105 H   0  0  0  0  0  0  0  0  0  0  0  0
    4.6368   -2.4828    6.7963 H   0  0  0  0  0  0  0  0  0  0  0  0
    3.3700   -3.0740    5.6991 H   0  0  0  0  0  0  0  0  0  0  0  0
    3.5445   -4.5388    7.6815 H   0  0  0  0  0  0  0  0  0  0  0  0
    3.2407   -3.1608    8.7605 H   0  0  0  0  0  0  0  0  0  0  0  0
    1.9659   -3.7295    7.6591 H   0  0  0  0  0  0  0  0  0  0  0  0
   -0.5175    1.2462    4.9300 H   0  0  0  0  0  0  0  0  0  0  0  0
   -0.2961   -1.2972    3.5797 H   0  0  0  0  0  0  0  0  0  0  0  0
    1.8066    0.3802   -1.3213 H   0  0  0  0  0  0  0  0  0  0  0  0
    2.0008   -0.8328   -0.0421 H   0  0  0  0  0  0  0  0  0  0  0  0
    2.0469    0.8896    0.3604 H   0  0  0  0  0  0  0  0  0  0  0  0
   -0.5506    1.6762   -1.4971 H   0  0  0  0  0  0  0  0  0  0  0  0
   -1.6489    1.5270   -0.1133 H   0  0  0  0  0  0  0  0  0  0  0  0
   -0.0743    2.3149    0.0740 H   0  0  0  0  0  0  0  0  0  0  0  0
   -0.4192   -0.8096   -2.0088 H   0  0  0  0  0  0  0  0  0  0  0  0
   -1.6934   -1.0173   -0.7969 H   0  0  0  0  0  0  0  0  0  0  0  0
   -0.2089   -1.9701   -0.6886 H   0  0  0  0  0  0  0  0  0  0  0  0
  1  2  1  0  0  0  0 
  2  3  2  0  0  0  0 
  3  4  1  0  0  0  0 
  4  5  1  0  0  0  0 
  5  6  2  0  0  0  0 
  1  6  1  0  0  0  0 
  4  7  1  0  0  0  0 
  8  9  1  0  0  0  0 
  9 10  2  0  0  0  0 
 10 11  1  0  0  0  0 
 11 12  2  0  0  0  0 
  7  8  2  0  0  0  0 
  7 12  1  0  0  0  0 
  6 13  1  0  0  0  0 
  2 14  1  0  0  0  0 
  5 15  1  0  0  0  0 
  3 16  1  0  0  0  0 
 16 17  2  0  0  0  0 
 16 18  1  0  0  0  0 
 18 19  1  0  0  0  0 
 19 20  1  0  0  0  0 
 15 21  1  0  0  0  0 
 15 22  2  0  0  0  0 
 21 23  1  0  0  0  0 
 23 24  1  0  0  0  0 
 25 12  1  0  0  0  0 
 25 26  2  0  0  0  0 
 26 27  1  0  0  0  0 
 27 28  1  0  0  0  0 
 27 29  2  0  0  0  0 
 28 30  1  0  0  0  0 
 30 31  1  0  0  0  0 
 30 32  1  0  0  0  0 
 30 33  1  0  0  0  0 
 34  1  1  0  0  0  0 
 35  4  1  0  0  0  0 
 36  8  1  0  0  0  0 
 37  9  1  0  0  0  0 
 38 10  1  0  0  0  0 
 39 11  1  0  0  0  0 
 40 13  1  0  0  0  0 
 41 13  1  0  0  0  0 
 42 13  1  0  0  0  0 
 43 14  1  0  0  0  0 
 44 14  1  0  0  0  0 
 45 14  1  0  0  0  0 
 46 19  1  0  0  0  0 
 47 19  1  0  0  0  0 
 48 20  1  0  0  0  0 
 49 20  1  0  0  0  0 
 50 20  1  0  0  0  0 
 51 23  1  0  0  0  0 
 52 23  1  0  0  0  0 
 53 24  1  0  0  0  0 
 54 24  1  0  0  0  0 
 55 24  1  0  0  0  0 
 25 56  1  0  0  0  0 
 57 26  1  0  0  0  0 
 58 31  1  0  0  0  0 
 59 31  1  0  0  0  0 
 60 31  1  0  0  0  0 
 61 32  1  0  0  0  0 
 62 32  1  0  0  0  0 
 63 32  1  0  0  0  0 
 64 33  1  0  0  0  0 
 65 33  1  0  0  0  0 
 66 33  1  0  0  0  0 
M  END
> <cdk:Title>
lacidipine

> <Conformer>
1

> <SuperDrugID>
SD001355

$$$$
