fendiline
  CDK     0628171801

 49 51  0  0  0  0  0  0  0  0999 V2000
    0.7108   -5.0038    1.4424 C   0  0  2  0  0  0  0  0  0  0  0  0
   -0.6910   -4.4147    1.8231 C   0  0  2  0  0  0  0  0  0  0  0  0
    0.8374   -5.3459   -0.0118 C   0  0  0  0  0  0  0  0  0  0  0  0
    1.1558   -6.1740    2.2803 C   0  0  0  0  0  0  0  0  0  0  0  0
   -1.1461   -3.1589    1.0360 C   0  0  2  0  0  0  0  0  0  0  0  0
    1.7841   -4.6858   -0.8356 C   0  0  0  0  0  0  0  0  0  0  0  0
    0.0086   -6.3291   -0.6070 C   0  0  0  0  0  0  0  0  0  0  0  0
    2.5296   -6.3210    2.6024 C   0  0  0  0  0  0  0  0  0  0  0  0
    0.2636   -7.1751    2.7458 C   0  0  0  0  0  0  0  0  0  0  0  0
   -0.2017   -2.0229    1.1878 N   0  0  1  0  0  0  0  0  0  0  0  0
    1.8696   -4.9699   -2.2108 C   0  0  0  0  0  0  0  0  0  0  0  0
    0.0901   -6.6126   -1.9812 C   0  0  0  0  0  0  0  0  0  0  0  0
    2.9945   -7.4186    3.3509 C   0  0  0  0  0  0  0  0  0  0  0  0
    0.7221   -8.2723    3.4987 C   0  0  0  0  0  0  0  0  0  0  0  0
   -0.5190   -0.8007    0.3995 C   0  0  1  0  0  0  0  0  0  0  0  0
    1.0115   -5.9220   -2.7869 C   0  0  0  0  0  0  0  0  0  0  0  0
    2.0884   -8.3948    3.7982 C   0  0  0  0  0  0  0  0  0  0  0  0
    0.4438    0.3365    0.8293 C   0  0  0  0  0  0  0  0  0  0  0  0
   -0.4620   -1.0959   -1.0663 C   0  0  0  0  0  0  0  0  0  0  0  0
   -1.6473   -1.0920   -1.8416 C   0  0  0  0  0  0  0  0  0  0  0  0
    0.7514   -1.4733   -1.6925 C   0  0  0  0  0  0  0  0  0  0  0  0
   -1.6256   -1.4805   -3.1924 C   0  0  0  0  0  0  0  0  0  0  0  0
    0.7777   -1.8400   -3.0494 C   0  0  0  0  0  0  0  0  0  0  0  0
   -0.4119   -1.8511   -3.7969 C   0  0  0  0  0  0  0  0  0  0  0  0
    1.4021   -4.1826    1.6645 H   0  0  0  0  0  0  0  0  0  0  0  0
   -0.6805   -4.1664    2.8874 H   0  0  0  0  0  0  0  0  0  0  0  0
   -1.4659   -5.1670    1.6696 H   0  0  0  0  0  0  0  0  0  0  0  0
   -2.1298   -2.8557    1.4070 H   0  0  0  0  0  0  0  0  0  0  0  0
   -1.2568   -3.4344   -0.0159 H   0  0  0  0  0  0  0  0  0  0  0  0
    2.4203   -3.9868   -0.4434 H   0  0  0  0  0  0  0  0  0  0  0  0
   -0.6678   -6.8481   -0.0448 H   0  0  0  0  0  0  0  0  0  0  0  0
    3.2113   -5.6252    2.2881 H   0  0  0  0  0  0  0  0  0  0  0  0
   -0.7332   -7.1223    2.5395 H   0  0  0  0  0  0  0  0  0  0  0  0
   -0.2371   -1.7504    2.1719 H   0  0  0  0  0  0  0  0  0  0  0  0
    2.5557   -4.4820   -2.7924 H   0  0  0  0  0  0  0  0  0  0  0  0
   -0.5209   -7.3225   -2.3914 H   0  0  0  0  0  0  0  0  0  0  0  0
    3.9921   -7.5048    3.5664 H   0  0  0  0  0  0  0  0  0  0  0  0
    0.0646   -8.9836    3.8291 H   0  0  0  0  0  0  0  0  0  0  0  0
   -1.5244   -0.4653    0.6822 H   0  0  0  0  0  0  0  0  0  0  0  0
    1.0600   -6.1132   -3.7901 H   0  0  0  0  0  0  0  0  0  0  0  0
    2.4231   -9.1928    4.3424 H   0  0  0  0  0  0  0  0  0  0  0  0
    0.2278    1.2547    0.2789 H   0  0  0  0  0  0  0  0  0  0  0  0
    0.3204    0.5371    1.8951 H   0  0  0  0  0  0  0  0  0  0  0  0
    1.4863    0.0645    0.6588 H   0  0  0  0  0  0  0  0  0  0  0  0
   -2.5431   -0.8278   -1.4229 H   0  0  0  0  0  0  0  0  0  0  0  0
    1.6256   -1.4986   -1.1632 H   0  0  0  0  0  0  0  0  0  0  0  0
   -2.4956   -1.4973   -3.7301 H   0  0  0  0  0  0  0  0  0  0  0  0
    1.6616   -2.1075   -3.4875 H   0  0  0  0  0  0  0  0  0  0  0  0
   -0.3950   -2.1363   -4.7769 H   0  0  0  0  0  0  0  0  0  0  0  0
  1  2  1  0  0  0  0 
  1  3  1  0  0  0  0 
  1  4  1  0  0  0  0 
  2  5  1  0  0  0  0 
  3  6  2  0  0  0  0 
  3  7  1  0  0  0  0 
  4  8  2  0  0  0  0 
  4  9  1  0  0  0  0 
  5 10  1  0  0  0  0 
  6 11  1  0  0  0  0 
  7 12  2  0  0  0  0 
  8 13  1  0  0  0  0 
  9 14  2  0  0  0  0 
 15 10  1  0  0  0  0 
 11 16  2  0  0  0  0 
 12 16  1  0  0  0  0 
 13 17  2  0  0  0  0 
 14 17  1  0  0  0  0 
 15 18  1  0  0  0  0 
 15 19  1  0  0  0  0 
 19 20  2  0  0  0  0 
 19 21  1  0  0  0  0 
 20 22  1  0  0  0  0 
 21 23  2  0  0  0  0 
 22 24  2  0  0  0  0 
 23 24  1  0  0  0  0 
  1 25  1  0  0  0  0 
  2 26  1  0  0  0  0 
  2 27  1  0  0  0  0 
  5 28  1  0  0  0  0 
  5 29  1  0  0  0  0 
  6 30  1  0  0  0  0 
  7 31  1  0  0  0  0 
  8 32  1  0  0  0  0 
  9 33  1  0  0  0  0 
 10 34  1  0  0  0  0 
 11 35  1  0  0  0  0 
 12 36  1  0  0  0  0 
 13 37  1  0  0  0  0 
 14 38  1  0  0  0  0 
 15 39  1  0  0  0  0 
 16 40  1  0  0  0  0 
 17 41  1  0  0  0  0 
 18 42  1  0  0  0  0 
 18 43  1  0  0  0  0 
 18 44  1  0  0  0  0 
 20 45  1  0  0  0  0 
 21 46  1  0  0  0  0 
 22 47  1  0  0  0  0 
 23 48  1  0  0  0  0 
 24 49  1  0  0  0  0 
M  END
> <cdk:Title>
fendiline

> <Conformer>
1

> <SuperDrugID>
SD001025

$$$$
