tidiacic
  CDK     0628171801

 18 18  0  0  0  0  0  0  0  0999 V2000
    4.0069    1.5915    0.0855 C   0  0  0  0  0  0  0  0  0  0  0  0
    5.3389    1.6346   -0.1541 O   0  0  0  0  0  0  0  0  0  0  0  0
    3.3743    2.6709    0.1271 O   0  0  0  0  0  0  0  0  0  0  0  0
    3.3285    0.2962    0.3000 C   0  0  1  0  0  0  0  0  0  0  0  0
    2.7081    0.2433    1.6463 N   0  0  1  0  0  0  0  0  0  0  0  0
    2.2216   -0.0045   -0.7446 C   0  0  1  0  0  0  0  0  0  0  0  0
    1.9340   -1.0071    1.7773 C   0  0  2  0  0  0  0  0  0  0  0  0
    1.1167   -1.1390    0.1544 S   0  0  0  0  0  0  0  0  0  0  0  0
    0.9796   -0.9645    2.8950 C   0  0  0  0  0  0  0  0  0  0  0  0
    0.0430    0.0089    2.9729 O   0  0  0  0  0  0  0  0  0  0  0  0
    1.0219   -1.8288    3.8007 O   0  0  0  0  0  0  0  0  0  0  0  0
    5.7943    2.4911   -0.2931 H   0  0  0  0  0  0  0  0  0  0  0  0
    4.0822   -0.4980    0.2453 H   0  0  0  0  0  0  0  0  0  0  0  0
    3.4526    0.2345    2.3472 H   0  0  0  0  0  0  0  0  0  0  0  0
    1.6564    0.8878   -1.0181 H   0  0  0  0  0  0  0  0  0  0  0  0
    2.6197   -0.4799   -1.6435 H   0  0  0  0  0  0  0  0  0  0  0  0
    2.6216   -1.8498    1.8914 H   0  0  0  0  0  0  0  0  0  0  0  0
   -0.5840    0.0247    3.7257 H   0  0  0  0  0  0  0  0  0  0  0  0
  1  2  1  0  0  0  0 
  1  3  2  0  0  0  0 
  1  4  1  0  0  0  0 
  4  5  1  0  0  0  0 
  4  6  1  0  0  0  0 
  5  7  1  0  0  0  0 
  6  8  1  0  0  0  0 
  7  8  1  0  0  0  0 
  7  9  1  0  0  0  0 
  9 10  1  0  0  0  0 
  9 11  2  0  0  0  0 
  2 12  1  0  0  0  0 
  4 13  1  0  0  0  0 
  5 14  1  0  0  0  0 
  6 15  1  0  0  0  0 
  6 16  1  0  0  0  0 
  7 17  1  0  0  0  0 
 10 18  1  0  0  0  0 
M  END
> <cdk:Title>
tidiacic

> <Conformer>
1

> <SuperDrugID>
SD002392

$$$$
