isepamicin
  CDK     0628171801

 82 84  0  0  0  0  0  0  0  0999 V2000
    0.4084   -5.8938    2.6543 O   0  0  0  0  0  0  0  0  0  0  0  0
    1.0561   -4.9850    1.7344 C   0  0  1  0  0  0  0  0  0  0  0  0
    0.4969   -5.6629    4.0760 C   0  0  2  0  0  0  0  0  0  0  0  0
    2.5986   -5.2119    1.6015 C   0  0  2  0  0  0  0  0  0  0  0  0
    0.3162   -5.2514    0.3862 C   0  0  1  0  0  0  0  0  0  0  0  0
   -0.3306   -6.7603    4.8032 C   0  0  2  0  0  0  0  0  0  0  0  0
    0.0891   -4.3383    4.4875 O   0  0  0  0  0  0  0  0  0  0  0  0
    3.3157   -4.8339    2.7871 N   0  0  0  0  0  0  0  0  0  0  0  0
    3.1699   -4.3754    0.4182 C   0  0  2  0  0  0  0  0  0  0  0  0
   -1.0407   -4.8305    0.5447 O   0  0  0  0  0  0  0  0  0  0  0  0
    0.9475   -4.5314   -0.8426 C   0  0  1  0  0  0  0  0  0  0  0  0
    0.0543   -8.0340    4.2864 O   0  0  0  0  0  0  0  0  0  0  0  0
   -1.8651   -6.5162    4.6395 C   0  0  1  0  0  0  0  0  0  0  0  0
   -1.3121   -4.0492    4.3041 C   0  0  1  0  0  0  0  0  0  0  0  0
    4.5662   -5.2710    3.1242 C   0  0  0  0  0  0  0  0  0  0  0  0
    2.4890   -4.7629   -0.9153 C   0  0  1  0  0  0  0  0  0  0  0  0
    0.2352   -4.7837   -2.0850 O   0  0  0  0  0  0  0  0  0  0  0  0
   -2.6831   -7.4752    5.4326 N   0  0  1  0  0  0  0  0  0  0  0  0
   -2.2277   -5.0531    5.0696 C   0  0  1  0  0  0  0  0  0  0  0  0
    5.2648   -4.7076    4.3015 C   0  0  2  0  0  0  0  0  0  0  0  0
    5.1680   -6.1205    2.4224 O   0  0  0  0  0  0  0  0  0  0  0  0
    3.0835   -3.9963   -2.0191 N   0  0  1  0  0  0  0  0  0  0  0  0
    0.3426   -6.0651   -2.7584 C   0  0  1  0  0  0  0  0  0  0  0  0
   -2.9112   -8.8221    4.8710 C   0  0  0  0  0  0  0  0  0  0  0  0
   -3.7306   -4.7212    4.8291 C   0  0  0  0  0  0  0  0  0  0  0  0
   -1.9636   -4.8757    6.4662 O   0  0  0  0  0  0  0  0  0  0  0  0
    4.5152   -4.9772    5.6289 C   0  0  1  0  0  0  0  0  0  0  0  0
    5.4319   -3.3048    4.0960 O   0  0  0  0  0  0  0  0  0  0  0  0
   -0.4298   -7.1106   -2.1256 O   0  0  0  0  0  0  0  0  0  0  0  0
   -0.0430   -5.9049   -4.2556 C   0  0  2  0  0  0  0  0  0  0  0  0
    5.3147   -4.5473    6.7806 N   0  0  2  0  0  0  0  0  0  0  0  0
   -1.8696   -6.9946   -2.2199 C   0  0  2  0  0  0  0  0  0  0  0  0
    0.6113   -4.7694   -4.8195 O   0  0  0  0  0  0  0  0  0  0  0  0
   -1.5772   -5.7775   -4.4352 C   0  0  2  0  0  0  0  0  0  0  0  0
   -2.4885   -8.1864   -1.4438 C   0  0  1  0  0  0  0  0  0  0  0  0
   -2.3103   -6.9418   -3.7141 C   0  0  2  0  0  0  0  0  0  0  0  0
   -1.9056   -5.7676   -5.8237 O   0  0  0  0  0  0  0  0  0  0  0  0
   -2.0650   -8.1791   -0.0382 N   0  0  1  0  0  0  0  0  0  0  0  0
   -3.7201   -6.7508   -3.8333 O   0  0  0  0  0  0  0  0  0  0  0  0
    1.5330   -5.7921    4.3877 H   0  0  0  0  0  0  0  0  0  0  0  0
    1.3770   -6.4093   -2.7659 H   0  0  0  0  0  0  0  0  0  0  0  0
    0.8697   -3.9454    2.0217 H   0  0  0  0  0  0  0  0  0  0  0  0
    2.7592   -6.2773    1.4003 H   0  0  0  0  0  0  0  0  0  0  0  0
    0.3204   -6.3278    0.2007 H   0  0  0  0  0  0  0  0  0  0  0  0
   -0.0773   -6.7447    5.8680 H   0  0  0  0  0  0  0  0  0  0  0  0
    2.8968   -4.1871    3.3767 H   0  0  0  0  0  0  0  0  0  0  0  0
    4.2458   -4.5453    0.3237 H   0  0  0  0  0  0  0  0  0  0  0  0
    3.0159   -3.3089    0.6105 H   0  0  0  0  0  0  0  0  0  0  0  0
   -1.4834   -5.0427   -0.2985 H   0  0  0  0  0  0  0  0  0  0  0  0
    0.8042   -3.4591   -0.6731 H   0  0  0  0  0  0  0  0  0  0  0  0
    1.0307   -8.0674    4.3783 H   0  0  0  0  0  0  0  0  0  0  0  0
   -2.1223   -6.6237    3.5798 H   0  0  0  0  0  0  0  0  0  0  0  0
   -1.4842   -3.0390    4.6832 H   0  0  0  0  0  0  0  0  0  0  0  0
   -1.5494   -4.0444    3.2371 H   0  0  0  0  0  0  0  0  0  0  0  0
    2.7059   -5.8188   -1.0929 H   0  0  0  0  0  0  0  0  0  0  0  0
   -2.2600   -7.5765    6.3571 H   0  0  0  0  0  0  0  0  0  0  0  0
    6.2653   -5.1488    4.3717 H   0  0  0  0  0  0  0  0  0  0  0  0
    4.0715   -4.2566   -2.0601 H   0  0  0  0  0  0  0  0  0  0  0  0
    2.6574   -4.3354   -2.8834 H   0  0  0  0  0  0  0  0  0  0  0  0
   -3.6401   -9.3366    5.4965 H   0  0  0  0  0  0  0  0  0  0  0  0
   -1.9948   -9.4095    4.8696 H   0  0  0  0  0  0  0  0  0  0  0  0
   -3.3077   -8.7596    3.8562 H   0  0  0  0  0  0  0  0  0  0  0  0
   -4.3711   -5.3910    5.4052 H   0  0  0  0  0  0  0  0  0  0  0  0
   -3.9885   -4.8243    3.7737 H   0  0  0  0  0  0  0  0  0  0  0  0
   -3.9520   -3.6992    5.1417 H   0  0  0  0  0  0  0  0  0  0  0  0
   -2.5483   -5.5132    6.9262 H   0  0  0  0  0  0  0  0  0  0  0  0
    3.5723   -4.4273    5.6426 H   0  0  0  0  0  0  0  0  0  0  0  0
    4.3102   -6.0451    5.7340 H   0  0  0  0  0  0  0  0  0  0  0  0
    5.9652   -2.9941    4.8576 H   0  0  0  0  0  0  0  0  0  0  0  0
    0.3040   -6.7875   -4.8018 H   0  0  0  0  0  0  0  0  0  0  0  0
    6.1519   -5.1328    6.7929 H   0  0  0  0  0  0  0  0  0  0  0  0
    4.7812   -4.7802    7.6202 H   0  0  0  0  0  0  0  0  0  0  0  0
   -2.2016   -6.0741   -1.7336 H   0  0  0  0  0  0  0  0  0  0  0  0
    1.5681   -4.9296   -4.6778 H   0  0  0  0  0  0  0  0  0  0  0  0
   -1.9104   -4.8243   -4.0120 H   0  0  0  0  0  0  0  0  0  0  0  0
   -3.5775   -8.1248   -1.4625 H   0  0  0  0  0  0  0  0  0  0  0  0
   -2.1831   -9.1331   -1.8940 H   0  0  0  0  0  0  0  0  0  0  0  0
   -2.0536   -7.8873   -4.2032 H   0  0  0  0  0  0  0  0  0  0  0  0
   -1.5643   -6.6178   -6.1710 H   0  0  0  0  0  0  0  0  0  0  0  0
   -2.4591   -9.0135    0.4012 H   0  0  0  0  0  0  0  0  0  0  0  0
   -1.0491   -8.2931   -0.0265 H   0  0  0  0  0  0  0  0  0  0  0  0
   -4.1219   -7.5570   -3.4462 H   0  0  0  0  0  0  0  0  0  0  0  0
  3  1  1  0  0  0  0 
  2  1  1  0  0  0  0 
  2  4  1  0  0  0  0 
  5  2  1  0  0  0  0 
  6  3  1  0  0  0  0 
  3  7  1  0  0  0  0 
  3 40  1  0  0  0  0 
  4  8  1  0  0  0  0 
  4  9  1  0  0  0  0 
  5 10  1  0  0  0  0 
 11  5  1  0  0  0  0 
  6 12  1  0  0  0  0 
 13  6  1  0  0  0  0 
  7 14  1  0  0  0  0 
  8 15  1  0  0  0  0 
 16  9  1  0  0  0  0 
 16 11  1  0  0  0  0 
 11 17  1  0  0  0  0 
 13 18  1  0  0  0  0 
 19 13  1  0  0  0  0 
 19 14  1  0  0  0  0 
 20 15  1  0  0  0  0 
 15 21  2  0  0  0  0 
 16 22  1  0  0  0  0 
 23 17  1  0  0  0  0 
 18 24  1  0  0  0  0 
 19 25  1  0  0  0  0 
 19 26  1  0  0  0  0 
 20 27  1  0  0  0  0 
 20 28  1  0  0  0  0 
 23 29  1  0  0  0  0 
 30 23  1  0  0  0  0 
 23 41  1  0  0  0  0 
 27 31  1  0  0  0  0 
 32 29  1  0  0  0  0 
 30 33  1  0  0  0  0 
 30 34  1  0  0  0  0 
 32 35  1  0  0  0  0 
 36 32  1  0  0  0  0 
 34 36  1  0  0  0  0 
 34 37  1  0  0  0  0 
 35 38  1  0  0  0  0 
 36 39  1  0  0  0  0 
  2 42  1  0  0  0  0 
  4 43  1  0  0  0  0 
  5 44  1  0  0  0  0 
  6 45  1  0  0  0  0 
  8 46  1  0  0  0  0 
  9 47  1  0  0  0  0 
  9 48  1  0  0  0  0 
 10 49  1  0  0  0  0 
 11 50  1  0  0  0  0 
 12 51  1  0  0  0  0 
 13 52  1  0  0  0  0 
 14 53  1  0  0  0  0 
 14 54  1  0  0  0  0 
 16 55  1  0  0  0  0 
 18 56  1  0  0  0  0 
 20 57  1  0  0  0  0 
 22 58  1  0  0  0  0 
 22 59  1  0  0  0  0 
 24 60  1  0  0  0  0 
 24 61  1  0  0  0  0 
 24 62  1  0  0  0  0 
 25 63  1  0  0  0  0 
 25 64  1  0  0  0  0 
 25 65  1  0  0  0  0 
 26 66  1  0  0  0  0 
 27 67  1  0  0  0  0 
 27 68  1  0  0  0  0 
 28 69  1  0  0  0  0 
 30 70  1  0  0  0  0 
 31 71  1  0  0  0  0 
 31 72  1  0  0  0  0 
 32 73  1  0  0  0  0 
 33 74  1  0  0  0  0 
 34 75  1  0  0  0  0 
 35 76  1  0  0  0  0 
 35 77  1  0  0  0  0 
 36 78  1  0  0  0  0 
 37 79  1  0  0  0  0 
 38 80  1  0  0  0  0 
 38 81  1  0  0  0  0 
 39 82  1  0  0  0  0 
M  END
> <cdk:Title>
isepamicin

> <Conformer>
1

> <SuperDrugID>
SD001317

$$$$
