ridaforolimus
  CDK     0628171802

153156  0  0  0  0  0  0  0  0999 V2000
   -5.6251    3.7050   -5.9472 O   0  0  0  0  0  0  0  0  0  0  0  0
   -6.1186    4.7632   -5.4847 C   0  0  0  0  0  0  0  0  0  0  0  0
   -5.8811    5.0223   -4.1227 N   0  0  0  0  0  0  0  0  0  0  0  0
   -6.7807    5.5819   -6.4611 C   0  0  0  0  0  0  0  0  0  0  0  0
   -6.6127    5.9145   -3.2064 C   0  0  2  0  0  0  0  0  0  0  0  0
   -4.6984    4.4218   -3.4932 C   0  0  2  0  0  0  0  0  0  0  0  0
   -7.2986    6.6598   -6.0976 O   0  0  0  0  0  0  0  0  0  0  0  0
   -6.7263    5.3207   -7.9487 C   0  0  2  0  0  0  0  0  0  0  0  0
   -8.0175    6.3274   -3.4796 C   0  0  0  0  0  0  0  0  0  0  0  0
   -5.6703    7.1100   -2.8354 C   0  0  2  0  0  0  0  0  0  0  0  0
   -3.6740    5.5453   -3.1856 C   0  0  2  0  0  0  0  0  0  0  0  0
   -7.1205    3.9580   -8.1425 O   0  0  0  0  0  0  0  0  0  0  0  0
   -5.3447    5.4124   -8.4130 O   0  0  0  0  0  0  0  0  0  0  0  0
   -7.6993    6.1858   -8.8496 C   0  0  2  0  0  0  0  0  0  0  0  0
   -8.4404    7.4182   -3.0244 O   0  0  0  0  0  0  0  0  0  0  0  0
   -8.8938    5.5041   -4.1367 O   0  0  0  0  0  0  0  0  0  0  0  0
   -4.2991    6.6371   -2.2851 C   0  0  2  0  0  0  0  0  0  0  0  0
   -4.7479    6.7193   -8.6578 C   0  0  2  0  0  0  0  0  0  0  0  0
   -8.1141    5.5030  -10.1931 C   0  0  0  0  0  0  0  0  0  0  0  0
   -7.1024    7.6008   -9.1141 C   0  0  2  0  0  0  0  0  0  0  0  0
  -10.2699    5.7854   -4.4890 C   0  0  2  0  0  0  0  0  0  0  0  0
   -4.2475    7.4282   -7.3459 C   0  0  2  0  0  0  0  0  0  0  0  0
   -5.6565    7.5036   -9.6425 C   0  0  1  0  0  0  0  0  0  0  0  0
  -10.9396    4.4411   -4.9661 C   0  0  1  0  0  0  0  0  0  0  0  0
  -10.3606    6.9898   -5.4910 C   0  0  2  0  0  0  0  0  0  0  0  0
   -3.7540    8.9139   -7.4287 C   0  0  2  0  0  0  0  0  0  0  0  0
  -10.1909    3.7544   -6.1630 C   0  0  2  0  0  0  0  0  0  0  0  0
  -11.0815    3.4717   -3.7519 C   0  0  0  0  0  0  0  0  0  0  0  0
  -11.6948    7.5643   -5.8009 C   0  0  0  0  0  0  0  0  0  0  0  0
   -2.8908    9.2610   -6.3174 O   0  0  0  0  0  0  0  0  0  0  0  0
   -4.8535    9.9117   -7.3828 C   0  0  0  0  0  0  0  0  0  0  0  0
  -10.9332    2.6081   -6.9335 C   0  0  1  0  0  0  0  0  0  0  0  0
  -12.7218    7.1009   -5.2524 O   0  0  0  0  0  0  0  0  0  0  0  0
  -11.8638    8.7061   -6.7511 C   0  0  2  0  0  0  0  0  0  0  0  0
   -1.5207    8.8222   -6.3727 C   0  0  0  0  0  0  0  0  0  0  0  0
   -5.6843   10.0180   -6.1731 C   0  0  0  0  0  0  0  0  0  0  0  0
   -5.0648   10.7371   -8.4384 C   0  0  0  0  0  0  0  0  0  0  0  0
  -12.1791    3.1339   -7.7224 C   0  0  2  0  0  0  0  0  0  0  0  0
   -9.9202    1.8899   -7.8810 C   0  0  2  0  0  0  0  0  0  0  0  0
  -11.3741    8.3163   -8.1764 C   0  0  0  0  0  0  0  0  0  0  0  0
  -11.2495    9.9520   -6.2637 C   0  0  0  0  0  0  0  0  0  0  0  0
   -6.0837   11.6372   -8.5874 C   0  0  0  0  0  0  0  0  0  0  0  0
  -12.8086    2.0883   -8.6936 C   0  0  1  0  0  0  0  0  0  0  0  0
  -10.5790    0.8658   -8.8357 C   0  0  1  0  0  0  0  0  0  0  0  0
  -11.6684   10.7102   -5.2207 C   0  0  0  0  0  0  0  0  0  0  0  0
   -6.1168   12.5580   -9.5695 C   0  0  0  0  0  0  0  0  0  0  0  0
  -13.8549    2.6795   -9.5054 O   0  0  0  0  0  0  0  0  0  0  0  0
  -11.7229    1.5257   -9.6594 C   0  0  1  0  0  0  0  0  0  0  0  0
  -12.8186   10.3107   -4.4027 C   0  0  0  0  0  0  0  0  0  0  0  0
  -11.0040   11.9885   -4.8816 C   0  0  1  0  0  0  0  0  0  0  0  0
   -7.1458   13.4173   -9.7673 C   0  0  0  0  0  0  0  0  0  0  0  0
  -15.1411    2.8434   -8.8751 C   0  0  0  0  0  0  0  0  0  0  0  0
  -12.3600    0.5881  -10.5631 O   0  0  0  0  0  0  0  0  0  0  0  0
   -9.6122   12.0281   -5.2081 O   0  0  0  0  0  0  0  0  0  0  0  0
  -11.7872   13.2182   -5.4501 C   0  0  1  0  0  0  0  0  0  0  0  0
   -8.4105   13.0261  -10.0149 C   0  0  0  0  0  0  0  0  0  0  0  0
  -11.6917    0.3319  -12.0088 P   0  0  2  0  0  0  0  0  0  0  0  0
  -11.3788   14.4107   -4.7395 O   0  0  0  0  0  0  0  0  0  0  0  0
  -11.7099   13.3703   -6.9424 C   0  0  0  0  0  0  0  0  0  0  0  0
   -9.5195   13.9537  -10.2490 C   0  0  1  0  0  0  0  0  0  0  0  0
  -11.5692    1.8112  -12.8742 C   0  0  0  0  0  0  0  0  0  0  0  0
  -12.7251   -0.7449  -12.8618 C   0  0  0  0  0  0  0  0  0  0  0  0
  -10.3658   -0.2865  -11.8456 O   0  0  0  0  0  0  0  0  0  0  0  0
  -12.3344   15.4921   -4.7117 C   0  0  0  0  0  0  0  0  0  0  0  0
  -12.7947   13.1924   -7.5493 O   0  0  0  0  0  0  0  0  0  0  0  0
  -10.4713   13.7049   -7.7386 C   0  0  1  0  0  0  0  0  0  0  0  0
   -9.9717   13.8813  -11.7352 C   0  0  0  0  0  0  0  0  0  0  0  0
  -10.7304   13.6917   -9.2904 C   0  0  2  0  0  0  0  0  0  0  0  0
   -9.8263   15.0461   -7.2798 C   0  0  0  0  0  0  0  0  0  0  0  0
   -6.7662    5.3520   -2.2781 H   0  0  0  0  0  0  0  0  0  0  0  0
   -4.1750    3.6830   -4.1046 H   0  0  0  0  0  0  0  0  0  0  0  0
   -4.9731    3.9020   -2.5707 H   0  0  0  0  0  0  0  0  0  0  0  0
   -6.1275    7.7481   -2.0729 H   0  0  0  0  0  0  0  0  0  0  0  0
   -5.5035    7.7157   -3.7262 H   0  0  0  0  0  0  0  0  0  0  0  0
   -3.3531    6.0033   -4.1267 H   0  0  0  0  0  0  0  0  0  0  0  0
   -2.7924    5.1236   -2.6958 H   0  0  0  0  0  0  0  0  0  0  0  0
   -6.3312    3.4123   -7.9396 H   0  0  0  0  0  0  0  0  0  0  0  0
   -8.6405    6.3289   -8.3148 H   0  0  0  0  0  0  0  0  0  0  0  0
   -4.4278    6.2409   -1.2726 H   0  0  0  0  0  0  0  0  0  0  0  0
   -3.6202    7.4918   -2.2258 H   0  0  0  0  0  0  0  0  0  0  0  0
   -3.8335    6.5133   -9.2241 H   0  0  0  0  0  0  0  0  0  0  0  0
   -7.2435    5.1501  -10.7470 H   0  0  0  0  0  0  0  0  0  0  0  0
   -8.7720    4.6542  -10.0045 H   0  0  0  0  0  0  0  0  0  0  0  0
   -8.6719    6.1934  -10.8258 H   0  0  0  0  0  0  0  0  0  0  0  0
   -7.1069    8.1793   -8.1923 H   0  0  0  0  0  0  0  0  0  0  0  0
   -7.7152    8.1550   -9.8299 H   0  0  0  0  0  0  0  0  0  0  0  0
  -10.7743    6.1113   -3.5737 H   0  0  0  0  0  0  0  0  0  0  0  0
   -3.4266    6.8092   -6.9769 H   0  0  0  0  0  0  0  0  0  0  0  0
   -4.9912    7.3765   -6.5676 H   0  0  0  0  0  0  0  0  0  0  0  0
   -5.2560    8.4883   -9.8557 H   0  0  0  0  0  0  0  0  0  0  0  0
   -5.6682    6.9755  -10.5990 H   0  0  0  0  0  0  0  0  0  0  0  0
  -11.9524    4.6777   -5.2928 H   0  0  0  0  0  0  0  0  0  0  0  0
   -9.9025    6.6941   -6.4257 H   0  0  0  0  0  0  0  0  0  0  0  0
   -9.7707    7.8160   -5.0945 H   0  0  0  0  0  0  0  0  0  0  0  0
   -3.1786    9.0035   -8.3564 H   0  0  0  0  0  0  0  0  0  0  0  0
   -9.2440    3.3645   -5.7822 H   0  0  0  0  0  0  0  0  0  0  0  0
   -9.9331    4.5066   -6.9072 H   0  0  0  0  0  0  0  0  0  0  0  0
  -11.6736    3.9978   -2.9389 H   0  0  0  0  0  0  0  0  0  0  0  0
  -10.0545    3.0709   -3.4799 H   0  0  0  0  0  0  0  0  0  0  0  0
  -11.6867    2.6114   -4.0378 H   0  0  0  0  0  0  0  0  0  0  0  0
  -11.2797    1.8596   -6.2173 H   0  0  0  0  0  0  0  0  0  0  0  0
  -12.9335    8.9045   -6.8768 H   0  0  0  0  0  0  0  0  0  0  0  0
   -0.9806    9.3133   -5.5630 H   0  0  0  0  0  0  0  0  0  0  0  0
   -1.0474    9.1024   -7.3164 H   0  0  0  0  0  0  0  0  0  0  0  0
   -1.4408    7.7444   -6.2283 H   0  0  0  0  0  0  0  0  0  0  0  0
   -5.3625    9.3471   -5.3802 H   0  0  0  0  0  0  0  0  0  0  0  0
   -6.7297    9.7902   -6.3915 H   0  0  0  0  0  0  0  0  0  0  0  0
   -5.6207   11.0306   -5.7688 H   0  0  0  0  0  0  0  0  0  0  0  0
   -4.4295   10.6667   -9.2011 H   0  0  0  0  0  0  0  0  0  0  0  0
  -11.8962    4.0136   -8.3065 H   0  0  0  0  0  0  0  0  0  0  0  0
  -12.9446    3.4412   -7.0084 H   0  0  0  0  0  0  0  0  0  0  0  0
   -9.1633    1.3736   -7.2819 H   0  0  0  0  0  0  0  0  0  0  0  0
   -9.4045    2.6354   -8.4911 H   0  0  0  0  0  0  0  0  0  0  0  0
  -11.7159    9.0525   -8.9050 H   0  0  0  0  0  0  0  0  0  0  0  0
  -11.7723    7.3406   -8.4673 H   0  0  0  0  0  0  0  0  0  0  0  0
  -10.2847    8.2807   -8.2288 H   0  0  0  0  0  0  0  0  0  0  0  0
  -10.4496   10.2688   -6.7624 H   0  0  0  0  0  0  0  0  0  0  0  0
   -6.8544   11.6028   -7.9597 H   0  0  0  0  0  0  0  0  0  0  0  0
  -13.2124    1.2516   -8.1109 H   0  0  0  0  0  0  0  0  0  0  0  0
   -9.8055    0.4867   -9.5034 H   0  0  0  0  0  0  0  0  0  0  0  0
  -10.9666    0.0179   -8.2651 H   0  0  0  0  0  0  0  0  0  0  0  0
   -5.3468   12.6348  -10.1952 H   0  0  0  0  0  0  0  0  0  0  0  0
  -11.3194    2.3850  -10.2040 H   0  0  0  0  0  0  0  0  0  0  0  0
  -12.5849    9.4018   -3.8488 H   0  0  0  0  0  0  0  0  0  0  0  0
  -13.6956   10.1399   -5.0277 H   0  0  0  0  0  0  0  0  0  0  0  0
  -13.0985   11.0685   -3.6681 H   0  0  0  0  0  0  0  0  0  0  0  0
  -10.9979   12.0801   -3.7904 H   0  0  0  0  0  0  0  0  0  0  0  0
   -6.9282   14.3874   -9.7527 H   0  0  0  0  0  0  0  0  0  0  0  0
  -15.8378    3.2517   -9.6099 H   0  0  0  0  0  0  0  0  0  0  0  0
  -15.0923    3.5366   -8.0328 H   0  0  0  0  0  0  0  0  0  0  0  0
  -15.5349    1.8829   -8.5348 H   0  0  0  0  0  0  0  0  0  0  0  0
   -9.2864   12.8842   -4.8561 H   0  0  0  0  0  0  0  0  0  0  0  0
  -12.8362   13.0427   -5.1762 H   0  0  0  0  0  0  0  0  0  0  0  0
   -8.6156   12.0509  -10.0488 H   0  0  0  0  0  0  0  0  0  0  0  0
   -9.1913   14.9870  -10.1007 H   0  0  0  0  0  0  0  0  0  0  0  0
  -12.5064    2.3625  -12.7907 H   0  0  0  0  0  0  0  0  0  0  0  0
  -11.3661    1.6056  -13.9249 H   0  0  0  0  0  0  0  0  0  0  0  0
  -10.7557    2.4188  -12.4765 H   0  0  0  0  0  0  0  0  0  0  0  0
  -13.7113   -0.2951  -12.9781 H   0  0  0  0  0  0  0  0  0  0  0  0
  -12.3049   -0.9485  -13.8479 H   0  0  0  0  0  0  0  0  0  0  0  0
  -12.8198   -1.6817  -12.3115 H   0  0  0  0  0  0  0  0  0  0  0  0
  -11.8916   16.3346   -4.1809 H   0  0  0  0  0  0  0  0  0  0  0  0
  -13.2409   15.1964   -4.1786 H   0  0  0  0  0  0  0  0  0  0  0  0
  -12.5981   15.8199   -5.7190 H   0  0  0  0  0  0  0  0  0  0  0  0
   -9.7460   12.9136   -7.5471 H   0  0  0  0  0  0  0  0  0  0  0  0
  -10.7725   14.6011  -11.9193 H   0  0  0  0  0  0  0  0  0  0  0  0
  -10.3402   12.8845  -11.9899 H   0  0  0  0  0  0  0  0  0  0  0  0
   -9.1429   14.1303  -12.4019 H   0  0  0  0  0  0  0  0  0  0  0  0
  -11.1515   12.7149   -9.5513 H   0  0  0  0  0  0  0  0  0  0  0  0
  -11.4974   14.4414   -9.5105 H   0  0  0  0  0  0  0  0  0  0  0  0
   -9.5177   14.9950   -6.2378 H   0  0  0  0  0  0  0  0  0  0  0  0
  -10.5272   15.8737   -7.4018 H   0  0  0  0  0  0  0  0  0  0  0  0
   -8.9218   15.2696   -7.8439 H   0  0  0  0  0  0  0  0  0  0  0  0
  1  2  2  0  0  0  0 
  2  3  1  0  0  0  0 
  2  4  1  0  0  0  0 
  5  3  1  0  0  0  0 
  3  6  1  0  0  0  0 
  4  7  2  0  0  0  0 
  8  4  1  0  0  0  0 
  5  9  1  0  0  0  0 
  5 10  1  0  0  0  0 
  6 11  1  0  0  0  0 
  8 12  1  0  0  0  0 
  8 13  1  0  0  0  0 
  8 14  1  0  0  0  0 
  9 15  2  0  0  0  0 
  9 16  1  0  0  0  0 
 10 17  1  0  0  0  0 
 11 17  1  0  0  0  0 
 18 13  1  0  0  0  0 
 14 19  1  0  0  0  0 
 14 20  1  0  0  0  0 
 21 16  1  0  0  0  0 
 18 22  1  0  0  0  0 
 18 23  1  0  0  0  0 
 20 23  1  0  0  0  0 
 21 24  1  0  0  0  0 
 21 25  1  0  0  0  0 
 26 22  1  0  0  0  0 
 24 27  1  0  0  0  0 
 24 28  1  0  0  0  0 
 25 29  1  0  0  0  0 
 26 30  1  0  0  0  0 
 26 31  1  0  0  0  0 
 29 33  2  0  0  0  0 
 34 29  1  0  0  0  0 
 30 35  1  0  0  0  0 
 31 36  1  0  0  0  0 
 31 37  2  0  0  0  0 
 32 27  1  0  0  0  0 
 32 38  1  0  0  0  0 
 32 39  1  0  0  0  0 
 34 40  1  0  0  0  0 
 34 41  1  0  0  0  0 
 37 42  1  0  0  0  0 
 43 38  1  0  0  0  0 
 39 44  1  0  0  0  0 
 41 45  2  0  0  0  0 
 42 46  2  0  0  0  0 
 43 47  1  0  0  0  0 
 43 48  1  0  0  0  0 
 48 44  1  0  0  0  0 
 45 49  1  0  0  0  0 
 50 45  1  0  0  0  0 
 46 51  1  0  0  0  0 
 47 52  1  0  0  0  0 
 48 53  1  0  0  0  0 
 50 54  1  0  0  0  0 
 50 55  1  0  0  0  0 
 51 56  2  0  0  0  0 
 53 57  1  0  0  0  0 
 55 58  1  0  0  0  0 
 55 59  1  0  0  0  0 
 60 56  1  0  0  0  0 
 57 61  1  0  0  0  0 
 57 62  1  0  0  0  0 
 57 63  2  0  0  0  0 
 58 64  1  0  0  0  0 
 59 65  2  0  0  0  0 
 66 59  1  0  0  0  0 
 60 67  1  0  0  0  0 
 60 68  1  0  0  0  0 
 66 68  1  0  0  0  0 
 66 69  1  0  0  0  0 
  5 70  1  0  0  0  0 
 71  6  1  0  0  0  0 
 72  6  1  0  0  0  0 
 73 10  1  0  0  0  0 
 74 10  1  0  0  0  0 
 75 11  1  0  0  0  0 
 76 11  1  0  0  0  0 
 77 12  1  0  0  0  0 
 14 78  1  0  0  0  0 
 79 17  1  0  0  0  0 
 80 17  1  0  0  0  0 
 18 81  1  0  0  0  0 
 82 19  1  0  0  0  0 
 83 19  1  0  0  0  0 
 84 19  1  0  0  0  0 
 85 20  1  0  0  0  0 
 86 20  1  0  0  0  0 
 21 87  1  0  0  0  0 
 88 22  1  0  0  0  0 
 89 22  1  0  0  0  0 
 90 23  1  0  0  0  0 
 91 23  1  0  0  0  0 
 24 92  1  0  0  0  0 
 93 25  1  0  0  0  0 
 94 25  1  0  0  0  0 
 26 95  1  0  0  0  0 
 96 27  1  0  0  0  0 
 97 27  1  0  0  0  0 
 98 28  1  0  0  0  0 
 99 28  1  0  0  0  0 
100 28  1  0  0  0  0 
 32101  1  0  0  0  0 
 34102  1  0  0  0  0 
103 35  1  0  0  0  0 
104 35  1  0  0  0  0 
105 35  1  0  0  0  0 
106 36  1  0  0  0  0 
107 36  1  0  0  0  0 
108 36  1  0  0  0  0 
109 37  1  0  0  0  0 
110 38  1  0  0  0  0 
111 38  1  0  0  0  0 
112 39  1  0  0  0  0 
113 39  1  0  0  0  0 
114 40  1  0  0  0  0 
115 40  1  0  0  0  0 
116 40  1  0  0  0  0 
117 41  1  0  0  0  0 
118 42  1  0  0  0  0 
 43119  1  0  0  0  0 
120 44  1  0  0  0  0 
121 44  1  0  0  0  0 
122 46  1  0  0  0  0 
 48123  1  0  0  0  0 
124 49  1  0  0  0  0 
125 49  1  0  0  0  0 
126 49  1  0  0  0  0 
 50127  1  0  0  0  0 
128 51  1  0  0  0  0 
129 52  1  0  0  0  0 
130 52  1  0  0  0  0 
131 52  1  0  0  0  0 
132 54  1  0  0  0  0 
 55133  1  0  0  0  0 
134 56  1  0  0  0  0 
 60135  1  0  0  0  0 
136 61  1  0  0  0  0 
137 61  1  0  0  0  0 
138 61  1  0  0  0  0 
139 62  1  0  0  0  0 
140 62  1  0  0  0  0 
141 62  1  0  0  0  0 
142 64  1  0  0  0  0 
143 64  1  0  0  0  0 
144 64  1  0  0  0  0 
 66145  1  0  0  0  0 
146 67  1  0  0  0  0 
147 67  1  0  0  0  0 
148 67  1  0  0  0  0 
149 68  1  0  0  0  0 
150 68  1  0  0  0  0 
151 69  1  0  0  0  0 
152 69  1  0  0  0  0 
153 69  1  0  0  0  0 
M  END
> <cdk:Title>
ridaforolimus

> <Conformer>
1

> <SuperDrugID>
SD003758

$$$$
