econazole
  CDK     0628171802

 39 41  0  0  0  0  0  0  0  0999 V2000
   -0.8298   -2.4796   -0.5223 C   0  0  1  0  0  0  0  0  0  0  0  0
   -0.0783   -3.2931   -1.6195 C   0  0  2  0  0  0  0  0  0  0  0  0
   -0.2464   -1.1627   -0.3314 O   0  0  0  0  0  0  0  0  0  0  0  0
   -2.2864   -2.3992   -0.8752 C   0  0  0  0  0  0  0  0  0  0  0  0
   -0.0550   -2.6462   -2.9008 N   0  0  0  0  0  0  0  0  0  0  0  0
    0.9239   -1.0827    0.5136 C   0  0  2  0  0  0  0  0  0  0  0  0
   -3.1986   -3.4554   -0.5814 C   0  0  0  0  0  0  0  0  0  0  0  0
   -2.7790   -1.2801   -1.5938 C   0  0  0  0  0  0  0  0  0  0  0  0
   -0.9216   -2.8284   -3.9113 C   0  0  0  0  0  0  0  0  0  0  0  0
    0.8507   -1.7471   -3.3312 C   0  0  0  0  0  0  0  0  0  0  0  0
    1.3222    0.3402    0.6641 C   0  0  0  0  0  0  0  0  0  0  0  0
   -2.7710   -4.8385    0.3082 Cl  0  0  0  0  0  0  0  0  0  0  0  0
   -4.5308   -3.4026   -1.0421 C   0  0  0  0  0  0  0  0  0  0  0  0
   -4.1094   -1.2290   -2.0444 C   0  0  0  0  0  0  0  0  0  0  0  0
   -0.5197   -2.0134   -4.9573 C   0  0  0  0  0  0  0  0  0  0  0  0
    0.5800   -1.3465   -4.5847 N   0  0  0  0  0  0  0  0  0  0  0  0
    1.1054    1.0333    1.8798 C   0  0  0  0  0  0  0  0  0  0  0  0
    1.9359    1.0315   -0.4064 C   0  0  0  0  0  0  0  0  0  0  0  0
   -4.9836   -2.2974   -1.7835 C   0  0  0  0  0  0  0  0  0  0  0  0
    1.5042    2.3744    2.0287 C   0  0  0  0  0  0  0  0  0  0  0  0
    2.3435    2.3725   -0.2588 C   0  0  0  0  0  0  0  0  0  0  0  0
   -6.5703   -2.2544   -2.3720 Cl  0  0  0  0  0  0  0  0  0  0  0  0
    2.1250    3.0475    0.9591 C   0  0  0  0  0  0  0  0  0  0  0  0
    2.5952    4.6652    1.1316 Cl  0  0  0  0  0  0  0  0  0  0  0  0
   -0.7475   -3.0242    0.4228 H   0  0  0  0  0  0  0  0  0  0  0  0
   -0.5464   -4.2751   -1.7242 H   0  0  0  0  0  0  0  0  0  0  0  0
    0.9448   -3.4908   -1.2949 H   0  0  0  0  0  0  0  0  0  0  0  0
    1.7598   -1.6485    0.0905 H   0  0  0  0  0  0  0  0  0  0  0  0
    0.7000   -1.5137    1.4950 H   0  0  0  0  0  0  0  0  0  0  0  0
   -2.1635   -0.4955   -1.8208 H   0  0  0  0  0  0  0  0  0  0  0  0
   -1.7348   -3.4472   -3.9143 H   0  0  0  0  0  0  0  0  0  0  0  0
    1.6480   -1.4167   -2.7880 H   0  0  0  0  0  0  0  0  0  0  0  0
   -5.1761   -4.1747   -0.8467 H   0  0  0  0  0  0  0  0  0  0  0  0
   -4.4337   -0.4174   -2.5759 H   0  0  0  0  0  0  0  0  0  0  0  0
   -0.9826   -1.9355   -5.8608 H   0  0  0  0  0  0  0  0  0  0  0  0
    0.6520    0.5667    2.6688 H   0  0  0  0  0  0  0  0  0  0  0  0
    2.0935    0.5598   -1.2988 H   0  0  0  0  0  0  0  0  0  0  0  0
    1.3387    2.8568    2.9164 H   0  0  0  0  0  0  0  0  0  0  0  0
    2.7964    2.8555   -1.0422 H   0  0  0  0  0  0  0  0  0  0  0  0
  1  2  1  0  0  0  0 
  1  3  1  0  0  0  0 
  1  4  1  0  0  0  0 
  2  5  1  0  0  0  0 
  3  6  1  0  0  0  0 
  4  7  2  0  0  0  0 
  4  8  1  0  0  0  0 
  5  9  1  0  0  0  0 
  5 10  1  0  0  0  0 
  6 11  1  0  0  0  0 
  7 12  1  0  0  0  0 
  7 13  1  0  0  0  0 
  8 14  2  0  0  0  0 
  9 15  2  0  0  0  0 
 10 16  2  0  0  0  0 
 11 17  2  0  0  0  0 
 11 18  1  0  0  0  0 
 13 19  2  0  0  0  0 
 14 19  1  0  0  0  0 
 15 16  1  0  0  0  0 
 17 20  1  0  0  0  0 
 18 21  2  0  0  0  0 
 19 22  1  0  0  0  0 
 20 23  2  0  0  0  0 
 21 23  1  0  0  0  0 
 23 24  1  0  0  0  0 
  1 25  1  0  0  0  0 
  2 26  1  0  0  0  0 
  2 27  1  0  0  0  0 
  6 28  1  0  0  0  0 
  6 29  1  0  0  0  0 
  8 30  1  0  0  0  0 
  9 31  1  0  0  0  0 
 10 32  1  0  0  0  0 
 13 33  1  0  0  0  0 
 14 34  1  0  0  0  0 
 15 35  1  0  0  0  0 
 17 36  1  0  0  0  0 
 18 37  1  0  0  0  0 
 20 38  1  0  0  0  0 
 21 39  1  0  0  0  0 
M  END
> <cdk:Title>
econazole

> <Conformer>
1

> <SuperDrugID>
SD000872

$$$$
