furosemide
  CDK     0628171801

 32 33  0  0  0  0  0  0  0  0999 V2000
    4.9543    4.9632   -0.2503 C   0  0  0  0  0  0  0  0  0  0  0  0
    5.7428    5.8298   -0.9348 O   0  0  0  0  0  0  0  0  0  0  0  0
    5.5717    4.0995    0.4138 O   0  0  0  0  0  0  0  0  0  0  0  0
    3.5263    5.0430   -0.2896 C   0  0  0  0  0  0  0  0  0  0  0  0
    2.6674    4.0492    0.2631 C   0  0  0  0  0  0  0  0  0  0  0  0
    2.9240    6.1462   -0.9478 C   0  0  0  0  0  0  0  0  0  0  0  0
    3.1667    2.8994    0.8136 N   0  0  0  0  0  0  0  0  0  0  0  0
    1.2662    4.2209    0.2096 C   0  0  0  0  0  0  0  0  0  0  0  0
    1.5237    6.2771   -1.0734 C   0  0  0  0  0  0  0  0  0  0  0  0
    2.8306    1.5812    0.3673 C   0  0  1  0  0  0  0  0  0  0  0  0
    0.6903    5.3190   -0.4521 C   0  0  0  0  0  0  0  0  0  0  0  0
    0.8559    7.6159   -2.0330 S   0  0  1  0  0  0  0  0  0  0  0  0
    3.2384    1.4116   -1.0397 C   0  0  0  0  0  0  0  0  0  0  0  0
   -1.0055    5.4130   -0.4817 Cl  0  0  0  0  0  0  0  0  0  0  0  0
   -0.0446    6.9657   -3.3975 N   0  0  2  0  0  0  0  0  0  0  0  0
   -0.1479    8.5015   -1.1498 O   0  0  0  0  0  0  0  0  0  0  0  0
    2.0076    8.5655   -2.6185 O   0  0  0  0  0  0  0  0  0  0  0  0
    4.4748    0.9585   -1.4976 C   0  0  0  0  0  0  0  0  0  0  0  0
    2.4665    1.7532   -2.1016 O   0  0  0  0  0  0  0  0  0  0  0  0
    4.4459    1.0420   -2.8803 C   0  0  0  0  0  0  0  0  0  0  0  0
    3.1916    1.5312   -3.2233 C   0  0  0  0  0  0  0  0  0  0  0  0
    6.7175    5.7461   -0.8893 H   0  0  0  0  0  0  0  0  0  0  0  0
    3.5156    6.8681   -1.3634 H   0  0  0  0  0  0  0  0  0  0  0  0
    3.8637    2.9805    1.4844 H   0  0  0  0  0  0  0  0  0  0  0  0
    0.6538    3.5313    0.6537 H   0  0  0  0  0  0  0  0  0  0  0  0
    3.3538    0.8542    0.9915 H   0  0  0  0  0  0  0  0  0  0  0  0
    1.7598    1.3943    0.4636 H   0  0  0  0  0  0  0  0  0  0  0  0
   -0.3803    7.7650   -3.9377 H   0  0  0  0  0  0  0  0  0  0  0  0
   -0.8711    6.4960   -3.0191 H   0  0  0  0  0  0  0  0  0  0  0  0
    5.2605    0.6392   -0.9257 H   0  0  0  0  0  0  0  0  0  0  0  0
    5.2000    0.7972   -3.5217 H   0  0  0  0  0  0  0  0  0  0  0  0
    2.8635    1.7056   -4.1743 H   0  0  0  0  0  0  0  0  0  0  0  0
  1  2  1  0  0  0  0 
  1  3  2  0  0  0  0 
  1  4  1  0  0  0  0 
  4  5  2  0  0  0  0 
  4  6  1  0  0  0  0 
  5  7  1  0  0  0  0 
  5  8  1  0  0  0  0 
  6  9  2  0  0  0  0 
  7 10  1  0  0  0  0 
  8 11  2  0  0  0  0 
  9 11  1  0  0  0  0 
  9 12  1  0  0  0  0 
 10 13  1  0  0  0  0 
 11 14  1  0  0  0  0 
 12 15  1  0  0  0  0 
 12 16  2  0  0  0  0 
 12 17  2  0  0  0  0 
 13 18  2  0  0  0  0 
 13 19  1  0  0  0  0 
 18 20  1  0  0  0  0 
 19 21  1  0  0  0  0 
 20 21  2  0  0  0  0 
  2 22  1  0  0  0  0 
  6 23  1  0  0  0  0 
  7 24  1  0  0  0  0 
  8 25  1  0  0  0  0 
 10 26  1  0  0  0  0 
 10 27  1  0  0  0  0 
 15 28  1  0  0  0  0 
 15 29  1  0  0  0  0 
 18 30  1  0  0  0  0 
 20 31  1  0  0  0  0 
 21 32  1  0  0  0  0 
M  END
> <cdk:Title>
furosemide

> <Conformer>
1

> <SuperDrugID>
SD001128

$$$$
