metochalcone
  CDK     0628171801

 40 41  0  0  0  0  0  0  0  0999 V2000
    6.9111   -2.0411    0.5512 C   0  0  0  0  0  0  0  0  0  0  0  0
    5.7543   -1.2416    0.5599 C   0  0  0  0  0  0  0  0  0  0  0  0
    7.1129   -2.7497   -0.4659 O   0  0  0  0  0  0  0  0  0  0  0  0
    7.8680   -2.1317    1.6277 C   0  0  0  0  0  0  0  0  0  0  0  0
    9.1979   -2.6145    1.4206 C   0  0  0  0  0  0  0  0  0  0  0  0
    7.5105   -1.7817    2.9585 C   0  0  0  0  0  0  0  0  0  0  0  0
    9.6396   -3.0582    0.1973 O   0  0  0  0  0  0  0  0  0  0  0  0
   10.1057   -2.7196    2.4975 C   0  0  0  0  0  0  0  0  0  0  0  0
    8.4225   -1.8811    4.0247 C   0  0  0  0  0  0  0  0  0  0  0  0
   10.4166   -2.1026   -0.5457 C   0  0  0  0  0  0  0  0  0  0  0  0
    9.7281   -2.3425    3.7971 C   0  0  0  0  0  0  0  0  0  0  0  0
   10.6116   -2.4567    4.8347 O   0  0  0  0  0  0  0  0  0  0  0  0
   11.3892   -1.2640    5.0324 C   0  0  0  0  0  0  0  0  0  0  0  0
    4.7836   -1.2799   -0.3793 C   0  0  0  0  0  0  0  0  0  0  0  0
    3.5748   -0.5697   -0.3808 C   0  0  0  0  0  0  0  0  0  0  0  0
    1.7140    0.5780    0.7472 C   0  0  0  0  0  0  0  0  0  0  0  0
    2.9727   -0.0491    0.7944 C   0  0  0  0  0  0  0  0  0  0  0  0
    2.8733   -0.4095   -1.6056 C   0  0  0  0  0  0  0  0  0  0  0  0
    1.6128    0.2141   -1.6534 C   0  0  0  0  0  0  0  0  0  0  0  0
    1.0187    0.6985   -0.4721 C   0  0  0  0  0  0  0  0  0  0  0  0
   -0.2141    1.2940   -0.4979 O   0  0  0  0  0  0  0  0  0  0  0  0
   -1.2893    0.3467   -0.3635 C   0  0  0  0  0  0  0  0  0  0  0  0
    5.6427   -0.6015    1.3072 H   0  0  0  0  0  0  0  0  0  0  0  0
    6.5674   -1.4654    3.1866 H   0  0  0  0  0  0  0  0  0  0  0  0
   11.0521   -3.0752    2.3389 H   0  0  0  0  0  0  0  0  0  0  0  0
    8.1348   -1.6235    4.9720 H   0  0  0  0  0  0  0  0  0  0  0  0
   10.7140   -2.5693   -1.4855 H   0  0  0  0  0  0  0  0  0  0  0  0
    9.8321   -1.2105   -0.7785 H   0  0  0  0  0  0  0  0  0  0  0  0
   11.3245   -1.8173   -0.0096 H   0  0  0  0  0  0  0  0  0  0  0  0
   12.0625   -1.4320    5.8724 H   0  0  0  0  0  0  0  0  0  0  0  0
   11.9940   -1.0348    4.1519 H   0  0  0  0  0  0  0  0  0  0  0  0
   10.7524   -0.4089    5.2723 H   0  0  0  0  0  0  0  0  0  0  0  0
    4.9264   -1.8871   -1.1536 H   0  0  0  0  0  0  0  0  0  0  0  0
    1.2951    0.9367    1.6091 H   0  0  0  0  0  0  0  0  0  0  0  0
    3.4253   -0.1383    1.7076 H   0  0  0  0  0  0  0  0  0  0  0  0
    3.2725   -0.7553   -2.4830 H   0  0  0  0  0  0  0  0  0  0  0  0
    1.1226    0.3067   -2.5468 H   0  0  0  0  0  0  0  0  0  0  0  0
   -2.2272    0.8975   -0.3009 H   0  0  0  0  0  0  0  0  0  0  0  0
   -1.3418   -0.3133   -1.2324 H   0  0  0  0  0  0  0  0  0  0  0  0
   -1.1890   -0.2528    0.5454 H   0  0  0  0  0  0  0  0  0  0  0  0
  1  2  1  0  0  0  0 
  1  3  2  0  0  0  0 
  1  4  1  0  0  0  0 
  4  5  2  0  0  0  0 
  4  6  1  0  0  0  0 
  5  7  1  0  0  0  0 
  5  8  1  0  0  0  0 
  6  9  2  0  0  0  0 
  7 10  1  0  0  0  0 
  8 11  2  0  0  0  0 
  9 11  1  0  0  0  0 
 11 12  1  0  0  0  0 
 12 13  1  0  0  0  0 
  2 14  2  0  0  0  0 
 14 15  1  0  0  0  0 
 16 17  1  0  0  0  0 
 18 19  2  0  0  0  0 
 19 20  1  0  0  0  0 
 16 20  2  0  0  0  0 
 17 15  2  0  0  0  0 
 15 18  1  0  0  0  0 
 20 21  1  0  0  0  0 
 21 22  1  0  0  0  0 
  2 23  1  0  0  0  0 
  6 24  1  0  0  0  0 
  8 25  1  0  0  0  0 
  9 26  1  0  0  0  0 
 10 27  1  0  0  0  0 
 10 28  1  0  0  0  0 
 10 29  1  0  0  0  0 
 13 30  1  0  0  0  0 
 13 31  1  0  0  0  0 
 13 32  1  0  0  0  0 
 14 33  1  0  0  0  0 
 16 34  1  0  0  0  0 
 17 35  1  0  0  0  0 
 18 36  1  0  0  0  0 
 19 37  1  0  0  0  0 
 22 38  1  0  0  0  0 
 22 39  1  0  0  0  0 
 22 40  1  0  0  0  0 
M  END
> <cdk:Title>
metochalcone

> <Conformer>
1

> <SuperDrugID>
SD001581

$$$$
