artisone acetate
  CDK     0628171801

 61 64  0  0  0  0  0  0  0  0999 V2000
   -1.8576   -3.1565   -2.2802 C   0  0  0  0  0  0  0  0  0  0  0  0
   -0.3647   -2.9864   -1.8004 C   0  0  2  0  0  0  0  0  0  0  0  0
    0.4081   -4.3269   -1.5760 C   0  0  2  0  0  0  0  0  0  0  0  0
   -0.3316   -2.4271   -0.3320 C   0  0  1  0  0  0  0  0  0  0  0  0
    0.4595   -2.1795   -2.8667 C   0  0  2  0  0  0  0  0  0  0  0  0
    0.4953   -5.2131   -2.8590 C   0  0  1  0  0  0  0  0  0  0  0  0
   -0.1939   -4.9294   -0.2893 C   0  0  1  0  0  0  0  0  0  0  0  0
   -1.2423   -1.2776   -0.0309 C   0  0  0  0  0  0  0  0  0  0  0  0
   -0.5494   -3.6911    0.5672 C   0  0  1  0  0  0  0  0  0  0  0  0
    0.6764   -2.9753   -4.1908 C   0  0  2  0  0  0  0  0  0  0  0  0
    1.2374   -4.4335   -4.0021 C   0  0  2  0  0  0  0  0  0  0  0  0
    1.2356   -6.5526   -2.5851 C   0  0  1  0  0  0  0  0  0  0  0  0
   -0.9001    0.1201   -0.3731 C   0  0  2  0  0  0  0  0  0  0  0  0
   -2.3403   -1.4706    0.5436 O   0  0  0  0  0  0  0  0  0  0  0  0
    1.3446   -5.3161   -5.3294 C   0  0  2  0  0  0  0  0  0  0  0  0
    1.6199   -7.2715   -3.7817 C   0  0  0  0  0  0  0  0  0  0  0  0
    0.3131    0.4932    0.2953 O   0  0  0  0  0  0  0  0  0  0  0  0
   -0.0054   -5.2606   -6.1407 C   0  0  0  0  0  0  0  0  0  0  0  0
    1.6677   -6.7503   -5.0300 C   0  0  0  0  0  0  0  0  0  0  0  0
    2.5089   -4.7265   -6.2197 C   0  0  2  0  0  0  0  0  0  0  0  0
    0.4771    1.4376    1.2663 C   0  0  0  0  0  0  0  0  0  0  0  0
    2.0617   -7.6438   -6.1413 C   0  0  1  0  0  0  0  0  0  0  0  0
    2.8693   -5.5870   -7.4575 C   0  0  1  0  0  0  0  0  0  0  0  0
    1.8246    1.6458    1.8138 C   0  0  0  0  0  0  0  0  0  0  0  0
   -0.4907    2.1072    1.6989 O   0  0  0  0  0  0  0  0  0  0  0  0
    3.1767   -7.0439   -7.0362 C   0  0  2  0  0  0  0  0  0  0  0  0
    3.3254   -7.8567   -8.1986 O   0  0  0  0  0  0  0  0  0  0  0  0
   -1.9344   -3.6429   -3.2503 H   0  0  0  0  0  0  0  0  0  0  0  0
   -2.4437   -3.7461   -1.5744 H   0  0  0  0  0  0  0  0  0  0  0  0
   -2.3384   -2.1813   -2.3724 H   0  0  0  0  0  0  0  0  0  0  0  0
    1.4510   -4.0909   -1.3140 H   0  0  0  0  0  0  0  0  0  0  0  0
    0.6864   -2.0751   -0.1214 H   0  0  0  0  0  0  0  0  0  0  0  0
    1.4407   -1.9133   -2.4644 H   0  0  0  0  0  0  0  0  0  0  0  0
   -0.0497   -1.2457   -3.1119 H   0  0  0  0  0  0  0  0  0  0  0  0
   -0.5172   -5.4654   -3.1815 H   0  0  0  0  0  0  0  0  0  0  0  0
   -1.0857   -5.5189   -0.5202 H   0  0  0  0  0  0  0  0  0  0  0  0
    0.5248   -5.5730    0.2265 H   0  0  0  0  0  0  0  0  0  0  0  0
    0.0860   -3.6392    1.4556 H   0  0  0  0  0  0  0  0  0  0  0  0
   -1.5844   -3.7913    0.9038 H   0  0  0  0  0  0  0  0  0  0  0  0
    1.3623   -2.4007   -4.8177 H   0  0  0  0  0  0  0  0  0  0  0  0
   -0.2791   -2.9985   -4.7113 H   0  0  0  0  0  0  0  0  0  0  0  0
    2.2585   -4.2867   -3.6299 H   0  0  0  0  0  0  0  0  0  0  0  0
    2.1429   -6.3753   -2.0002 H   0  0  0  0  0  0  0  0  0  0  0  0
    0.5789   -7.1955   -1.9913 H   0  0  0  0  0  0  0  0  0  0  0  0
   -1.7248    0.7875   -0.1031 H   0  0  0  0  0  0  0  0  0  0  0  0
   -0.7516    0.2188   -1.4471 H   0  0  0  0  0  0  0  0  0  0  0  0
    1.8644   -8.2261   -3.6369 H   0  0  0  0  0  0  0  0  0  0  0  0
   -0.1568   -4.2769   -6.5874 H   0  0  0  0  0  0  0  0  0  0  0  0
   -0.8620   -5.4827   -5.5042 H   0  0  0  0  0  0  0  0  0  0  0  0
   -0.0321   -5.9647   -6.9698 H   0  0  0  0  0  0  0  0  0  0  0  0
    3.4195   -4.6252   -5.6207 H   0  0  0  0  0  0  0  0  0  0  0  0
    2.2514   -3.7259   -6.5749 H   0  0  0  0  0  0  0  0  0  0  0  0
    2.4226   -8.6183   -5.7933 H   0  0  0  0  0  0  0  0  0  0  0  0
    1.1831   -7.8580   -6.7523 H   0  0  0  0  0  0  0  0  0  0  0  0
    2.0467   -5.5705   -8.1749 H   0  0  0  0  0  0  0  0  0  0  0  0
    3.7457   -5.1598   -7.9510 H   0  0  0  0  0  0  0  0  0  0  0  0
    1.7383    2.3395    2.7033 H   0  0  0  0  0  0  0  0  0  0  0  0
    2.1406    0.6534    2.2525 H   0  0  0  0  0  0  0  0  0  0  0  0
    2.4706    2.0402    0.9207 H   0  0  0  0  0  0  0  0  0  0  0  0
    4.1234   -7.0654   -6.4873 H   0  0  0  0  0  0  0  0  0  0  0  0
    4.0404   -7.4328   -8.7162 H   0  0  0  0  0  0  0  0  0  0  0  0
  2  1  1  0  0  0  0 
  2  3  1  0  0  0  0 
  2  4  1  0  0  0  0 
  2  5  1  0  0  0  0 
  3  6  1  0  0  0  0 
  3  7  1  0  0  0  0 
  4  8  1  0  0  0  0 
  4  9  1  0  0  0  0 
  5 10  1  0  0  0  0 
  6 11  1  0  0  0  0 
  6 12  1  0  0  0  0 
  7  9  1  0  0  0  0 
  8 13  1  0  0  0  0 
  8 14  2  0  0  0  0 
 11 10  1  0  0  0  0 
 11 15  1  0  0  0  0 
 12 16  1  0  0  0  0 
 13 17  1  0  0  0  0 
 15 18  1  0  0  0  0 
 15 19  1  0  0  0  0 
 15 20  1  0  0  0  0 
 16 19  2  0  0  0  0 
 17 21  1  0  0  0  0 
 19 22  1  0  0  0  0 
 20 23  1  0  0  0  0 
 21 24  1  0  0  0  0 
 21 25  2  0  0  0  0 
 26 22  1  0  0  0  0 
 26 23  1  0  0  0  0 
 26 27  1  0  0  0  0 
 28  1  1  0  0  0  0 
 29  1  1  0  0  0  0 
 30  1  1  0  0  0  0 
  3 31  1  0  0  0  0 
  4 32  1  0  0  0  0 
 33  5  1  0  0  0  0 
 34  5  1  0  0  0  0 
  6 35  1  0  0  0  0 
 36  7  1  0  0  0  0 
 37  7  1  0  0  0  0 
 38  9  1  0  0  0  0 
 39  9  1  0  0  0  0 
 40 10  1  0  0  0  0 
 41 10  1  0  0  0  0 
 11 42  1  0  0  0  0 
 43 12  1  0  0  0  0 
 44 12  1  0  0  0  0 
 45 13  1  0  0  0  0 
 46 13  1  0  0  0  0 
 47 16  1  0  0  0  0 
 48 18  1  0  0  0  0 
 49 18  1  0  0  0  0 
 50 18  1  0  0  0  0 
 51 20  1  0  0  0  0 
 52 20  1  0  0  0  0 
 53 22  1  0  0  0  0 
 54 22  1  0  0  0  0 
 55 23  1  0  0  0  0 
 56 23  1  0  0  0  0 
 57 24  1  0  0  0  0 
 58 24  1  0  0  0  0 
 59 24  1  0  0  0  0 
 26 60  1  0  0  0  0 
 61 27  1  0  0  0  0 
M  END
> <cdk:Title>
artisone acetate

> <Conformer>
1

> <SuperDrugID>
SD000012

$$$$
