alibendol
  CDK     0628171801

 35 35  0  0  0  0  0  0  0  0999 V2000
    1.2754   -0.1861    2.2768 C   0  0  0  0  0  0  0  0  0  0  0  0
    0.2397   -0.9275    1.7876 N   0  0  0  0  0  0  0  0  0  0  0  0
    1.6060    0.8795    1.6992 O   0  0  0  0  0  0  0  0  0  0  0  0
    1.9612   -0.5912    3.4587 C   0  0  0  0  0  0  0  0  0  0  0  0
   -0.5704   -0.5969    0.6580 C   0  0  2  0  0  0  0  0  0  0  0  0
    3.3194   -0.2431    3.6793 C   0  0  0  0  0  0  0  0  0  0  0  0
    1.2881   -1.3292    4.4676 C   0  0  0  0  0  0  0  0  0  0  0  0
    0.0886   -0.9722   -0.6877 C   0  0  2  0  0  0  0  0  0  0  0  0
    4.0648    0.3719    2.7242 O   0  0  0  0  0  0  0  0  0  0  0  0
    3.9537   -0.5494    4.8999 C   0  0  0  0  0  0  0  0  0  0  0  0
    1.9180   -1.6796    5.6846 C   0  0  0  0  0  0  0  0  0  0  0  0
   -0.7878   -0.6379   -1.7599 O   0  0  0  0  0  0  0  0  0  0  0  0
    5.2536   -0.1786    5.1253 O   0  0  0  0  0  0  0  0  0  0  0  0
    3.2585   -1.2790    5.8828 C   0  0  0  0  0  0  0  0  0  0  0  0
    1.1975   -2.4471    6.7410 C   0  0  1  0  0  0  0  0  0  0  0  0
    5.3710    1.1142    5.7456 C   0  0  0  0  0  0  0  0  0  0  0  0
    0.9478   -1.6252    7.9148 C   0  0  0  0  0  0  0  0  0  0  0  0
    1.6291   -1.7515    9.0608 C   0  0  0  0  0  0  0  0  0  0  0  0
    0.0352   -1.7577    2.2467 H   0  0  0  0  0  0  0  0  0  0  0  0
   -0.8195    0.4688    0.6694 H   0  0  0  0  0  0  0  0  0  0  0  0
   -1.5045   -1.1543    0.7506 H   0  0  0  0  0  0  0  0  0  0  0  0
    0.3117   -1.6060    4.3256 H   0  0  0  0  0  0  0  0  0  0  0  0
    0.2965   -2.0440   -0.7165 H   0  0  0  0  0  0  0  0  0  0  0  0
    1.0256   -0.4280   -0.8200 H   0  0  0  0  0  0  0  0  0  0  0  0
    3.8435   -0.0987    1.8932 H   0  0  0  0  0  0  0  0  0  0  0  0
   -0.2916   -0.8466   -2.5782 H   0  0  0  0  0  0  0  0  0  0  0  0
    3.7392   -1.5170    6.7560 H   0  0  0  0  0  0  0  0  0  0  0  0
    0.2318   -2.8136    6.3807 H   0  0  0  0  0  0  0  0  0  0  0  0
    1.7836   -3.3370    6.9916 H   0  0  0  0  0  0  0  0  0  0  0  0
    6.4276    1.3087    5.9241 H   0  0  0  0  0  0  0  0  0  0  0  0
    4.9856    1.9077    5.1006 H   0  0  0  0  0  0  0  0  0  0  0  0
    4.8548    1.1420    6.7077 H   0  0  0  0  0  0  0  0  0  0  0  0
    0.2308   -0.9357    7.8647 H   0  0  0  0  0  0  0  0  0  0  0  0
    1.4134   -1.1746    9.8390 H   0  0  0  0  0  0  0  0  0  0  0  0
    2.3609   -2.4167    9.1506 H   0  0  0  0  0  0  0  0  0  0  0  0
  1  2  1  0  0  0  0 
  1  3  2  0  0  0  0 
  1  4  1  0  0  0  0 
  2  5  1  0  0  0  0 
  4  6  2  0  0  0  0 
  4  7  1  0  0  0  0 
  5  8  1  0  0  0  0 
  6  9  1  0  0  0  0 
  6 10  1  0  0  0  0 
  7 11  2  0  0  0  0 
  8 12  1  0  0  0  0 
 10 13  1  0  0  0  0 
 10 14  2  0  0  0  0 
 11 14  1  0  0  0  0 
 11 15  1  0  0  0  0 
 13 16  1  0  0  0  0 
 15 17  1  0  0  0  0 
 17 18  2  0  0  0  0 
  2 19  1  0  0  0  0 
  5 20  1  0  0  0  0 
  5 21  1  0  0  0  0 
  7 22  1  0  0  0  0 
  8 23  1  0  0  0  0 
  8 24  1  0  0  0  0 
  9 25  1  0  0  0  0 
 12 26  1  0  0  0  0 
 14 27  1  0  0  0  0 
 15 28  1  0  0  0  0 
 15 29  1  0  0  0  0 
 16 30  1  0  0  0  0 
 16 31  1  0  0  0  0 
 16 32  1  0  0  0  0 
 17 33  1  0  0  0  0 
 18 34  1  0  0  0  0 
 18 35  1  0  0  0  0 
M  END
> <cdk:Title>
alibendol

> <Conformer>
1

> <SuperDrugID>
SD000088

$$$$
