piracetam
  CDK     0628171801

 20 20  0  0  0  0  0  0  0  0999 V2000
    2.5359   -4.5095   -0.0988 N   0  0  0  0  0  0  0  0  0  0  0  0
    1.9111   -3.7298   -1.0021 C   0  0  0  0  0  0  0  0  0  0  0  0
    1.6947   -4.1961   -2.1443 O   0  0  0  0  0  0  0  0  0  0  0  0
    1.4920   -2.3513   -0.6799 C   0  0  1  0  0  0  0  0  0  0  0  0
    0.0592   -2.1832   -0.7276 N   0  0  0  0  0  0  0  0  0  0  0  0
   -0.8229   -2.7558    0.2372 C   0  0  2  0  0  0  0  0  0  0  0  0
   -2.2478   -2.4711   -0.2831 C   0  0  2  0  0  0  0  0  0  0  0  0
   -2.0627   -1.4094   -1.3826 C   0  0  2  0  0  0  0  0  0  0  0  0
   -0.6207   -1.4302   -1.6276 C   0  0  0  0  0  0  0  0  0  0  0  0
   -0.0985   -0.7783   -2.5614 O   0  0  0  0  0  0  0  0  0  0  0  0
    2.7055   -4.1787    0.7976 H   0  0  0  0  0  0  0  0  0  0  0  0
    2.8204   -5.4047   -0.3431 H   0  0  0  0  0  0  0  0  0  0  0  0
    1.8384   -2.0781    0.3202 H   0  0  0  0  0  0  0  0  0  0  0  0
    1.9986   -1.6810   -1.3804 H   0  0  0  0  0  0  0  0  0  0  0  0
   -0.6670   -2.2752    1.2076 H   0  0  0  0  0  0  0  0  0  0  0  0
   -0.6616   -3.8309    0.3413 H   0  0  0  0  0  0  0  0  0  0  0  0
   -2.8971   -2.1044    0.5165 H   0  0  0  0  0  0  0  0  0  0  0  0
   -2.6898   -3.3801   -0.7061 H   0  0  0  0  0  0  0  0  0  0  0  0
   -2.3648   -0.4190   -1.0334 H   0  0  0  0  0  0  0  0  0  0  0  0
   -2.6225   -1.6691   -2.2850 H   0  0  0  0  0  0  0  0  0  0  0  0
  1  2  1  0  0  0  0 
  2  3  2  0  0  0  0 
  2  4  1  0  0  0  0 
  4  5  1  0  0  0  0 
  5  6  1  0  0  0  0 
  6  7  1  0  0  0  0 
  7  8  1  0  0  0  0 
  8  9  1  0  0  0  0 
  5  9  1  0  0  0  0 
  9 10  2  0  0  0  0 
  1 11  1  0  0  0  0 
  1 12  1  0  0  0  0 
  4 13  1  0  0  0  0 
  4 14  1  0  0  0  0 
  6 15  1  0  0  0  0 
  6 16  1  0  0  0  0 
  7 17  1  0  0  0  0 
  7 18  1  0  0  0  0 
  8 19  1  0  0  0  0 
  8 20  1  0  0  0  0 
M  END
> <cdk:Title>
piracetam

> <Conformer>
1

> <SuperDrugID>
SD001972

$$$$
