linopirdine
  CDK     0628171801

 51 55  0  0  0  0  0  0  0  0999 V2000
   -1.0814   -4.3173   -1.9159 C   0  0  2  0  0  0  0  0  0  0  0  0
   -1.0807   -3.4022   -0.6365 C   0  0  2  0  0  0  0  0  0  0  0  0
    0.0594   -5.2722   -2.0641 C   0  0  0  0  0  0  0  0  0  0  0  0
   -1.0317   -4.1923    0.7245 C   0  0  1  0  0  0  0  0  0  0  0  0
   -2.2379   -2.4699   -0.6890 C   0  0  0  0  0  0  0  0  0  0  0  0
    0.0079   -2.3895   -0.7052 C   0  0  0  0  0  0  0  0  0  0  0  0
    0.0206   -6.5437   -1.4424 C   0  0  0  0  0  0  0  0  0  0  0  0
    1.1887   -4.9510   -2.8571 C   0  0  0  0  0  0  0  0  0  0  0  0
   -1.1211   -3.3592    1.9666 C   0  0  0  0  0  0  0  0  0  0  0  0
   -1.8005   -1.1424   -0.7125 C   0  0  0  0  0  0  0  0  0  0  0  0
   -3.6207   -2.7641   -0.6853 C   0  0  0  0  0  0  0  0  0  0  0  0
    1.2246   -2.6973   -0.7166 O   0  0  0  0  0  0  0  0  0  0  0  0
   -0.4492   -1.1092   -0.7656 N   0  0  0  0  0  0  0  0  0  0  0  0
    1.0899   -7.4416   -1.6139 C   0  0  0  0  0  0  0  0  0  0  0  0
    2.2342   -5.8828   -2.9968 C   0  0  0  0  0  0  0  0  0  0  0  0
    0.0437   -2.8622    2.6013 C   0  0  0  0  0  0  0  0  0  0  0  0
   -2.3784   -3.0363    2.5323 C   0  0  0  0  0  0  0  0  0  0  0  0
   -2.7256   -0.0793   -0.6488 C   0  0  0  0  0  0  0  0  0  0  0  0
   -4.5505   -1.7039   -0.6582 C   0  0  0  0  0  0  0  0  0  0  0  0
    0.3381    0.0085   -0.9010 C   0  0  0  0  0  0  0  0  0  0  0  0
    2.1538   -7.0871   -2.3773 N   0  0  0  0  0  0  0  0  0  0  0  0
   -0.0753   -2.0428    3.7395 C   0  0  0  0  0  0  0  0  0  0  0  0
   -2.4439   -2.2078    3.6673 C   0  0  0  0  0  0  0  0  0  0  0  0
   -4.1044   -0.3669   -0.6299 C   0  0  0  0  0  0  0  0  0  0  0  0
    1.3993    0.2673   -0.0017 C   0  0  0  0  0  0  0  0  0  0  0  0
    0.1140    0.9164   -1.9640 C   0  0  0  0  0  0  0  0  0  0  0  0
   -1.3026   -1.7380    4.2302 N   0  0  0  0  0  0  0  0  0  0  0  0
    2.2095    1.4071   -0.1608 C   0  0  0  0  0  0  0  0  0  0  0  0
    0.9172    2.0607   -2.1194 C   0  0  0  0  0  0  0  0  0  0  0  0
    1.9659    2.3051   -1.2155 C   0  0  0  0  0  0  0  0  0  0  0  0
   -1.1166   -3.6772   -2.8065 H   0  0  0  0  0  0  0  0  0  0  0  0
   -2.0086   -4.8974   -1.9359 H   0  0  0  0  0  0  0  0  0  0  0  0
   -1.8383   -4.9304    0.7380 H   0  0  0  0  0  0  0  0  0  0  0  0
   -0.1044   -4.7694    0.7693 H   0  0  0  0  0  0  0  0  0  0  0  0
   -0.7810   -6.8250   -0.8732 H   0  0  0  0  0  0  0  0  0  0  0  0
    1.2583   -4.0481   -3.3316 H   0  0  0  0  0  0  0  0  0  0  0  0
   -3.9528   -3.7319   -0.6961 H   0  0  0  0  0  0  0  0  0  0  0  0
    1.0700   -8.3611   -1.1686 H   0  0  0  0  0  0  0  0  0  0  0  0
    3.0541   -5.6611   -3.5648 H   0  0  0  0  0  0  0  0  0  0  0  0
    0.9744   -3.0869    2.2417 H   0  0  0  0  0  0  0  0  0  0  0  0
   -3.2461   -3.3928    2.1248 H   0  0  0  0  0  0  0  0  0  0  0  0
   -2.4055    0.8903   -0.6073 H   0  0  0  0  0  0  0  0  0  0  0  0
   -5.5532   -1.9013   -0.6544 H   0  0  0  0  0  0  0  0  0  0  0  0
    0.7565   -1.6715    4.1999 H   0  0  0  0  0  0  0  0  0  0  0  0
   -3.3475   -1.9557    4.0706 H   0  0  0  0  0  0  0  0  0  0  0  0
   -4.7827    0.3979   -0.5930 H   0  0  0  0  0  0  0  0  0  0  0  0
    1.5836   -0.3708    0.7761 H   0  0  0  0  0  0  0  0  0  0  0  0
   -0.6338    0.7422   -2.6389 H   0  0  0  0  0  0  0  0  0  0  0  0
    2.9760    1.5861    0.4912 H   0  0  0  0  0  0  0  0  0  0  0  0
    0.7406    2.7097   -2.8916 H   0  0  0  0  0  0  0  0  0  0  0  0
    2.5541    3.1340   -1.3267 H   0  0  0  0  0  0  0  0  0  0  0  0
  1  2  1  0  0  0  0 
  1  3  1  0  0  0  0 
  2  4  1  0  0  0  0 
  2  5  1  0  0  0  0 
  2  6  1  0  0  0  0 
  3  7  2  0  0  0  0 
  3  8  1  0  0  0  0 
  4  9  1  0  0  0  0 
  5 10  2  0  0  0  0 
  5 11  1  0  0  0  0 
  6 12  2  0  0  0  0 
  6 13  1  0  0  0  0 
  7 14  1  0  0  0  0 
  8 15  2  0  0  0  0 
  9 16  2  0  0  0  0 
  9 17  1  0  0  0  0 
 10 13  1  0  0  0  0 
 10 18  1  0  0  0  0 
 11 19  2  0  0  0  0 
 13 20  1  0  0  0  0 
 14 21  2  0  0  0  0 
 15 21  1  0  0  0  0 
 16 22  1  0  0  0  0 
 17 23  2  0  0  0  0 
 18 24  2  0  0  0  0 
 19 24  1  0  0  0  0 
 20 25  2  0  0  0  0 
 20 26  1  0  0  0  0 
 22 27  2  0  0  0  0 
 23 27  1  0  0  0  0 
 25 28  1  0  0  0  0 
 26 29  2  0  0  0  0 
 28 30  2  0  0  0  0 
 29 30  1  0  0  0  0 
  1 31  1  0  0  0  0 
  1 32  1  0  0  0  0 
  4 33  1  0  0  0  0 
  4 34  1  0  0  0  0 
  7 35  1  0  0  0  0 
  8 36  1  0  0  0  0 
 11 37  1  0  0  0  0 
 14 38  1  0  0  0  0 
 15 39  1  0  0  0  0 
 16 40  1  0  0  0  0 
 17 41  1  0  0  0  0 
 18 42  1  0  0  0  0 
 19 43  1  0  0  0  0 
 22 44  1  0  0  0  0 
 23 45  1  0  0  0  0 
 24 46  1  0  0  0  0 
 25 47  1  0  0  0  0 
 26 48  1  0  0  0  0 
 28 49  1  0  0  0  0 
 29 50  1  0  0  0  0 
 30 51  1  0  0  0  0 
M  END
> <cdk:Title>
linopirdine

> <Conformer>
1

> <SuperDrugID>
SD003643

$$$$
