protriptyline
  CDK     0628171801

 41 43  0  0  0  0  0  0  0  0999 V2000
   -0.9475    0.3761    3.4267 C   0  0  1  0  0  0  0  0  0  0  0  0
   -0.9526    0.1908    1.8817 C   0  0  2  0  0  0  0  0  0  0  0  0
   -2.3638    0.2741    4.0856 C   0  0  2  0  0  0  0  0  0  0  0  0
    0.4615    0.2439    1.2495 C   0  0  2  0  0  0  0  0  0  0  0  0
   -3.3589    1.2699    3.5687 C   0  0  0  0  0  0  0  0  0  0  0  0
   -2.2993    0.3157    5.5834 C   0  0  0  0  0  0  0  0  0  0  0  0
    0.3478    0.1364   -0.2240 N   0  0  1  0  0  0  0  0  0  0  0  0
   -3.2328    2.6739    3.7900 C   0  0  0  0  0  0  0  0  0  0  0  0
   -4.4525    0.7965    2.7978 C   0  0  0  0  0  0  0  0  0  0  0  0
   -1.9539    1.4951    6.3108 C   0  0  0  0  0  0  0  0  0  0  0  0
   -2.5544   -0.8795    6.3054 C   0  0  0  0  0  0  0  0  0  0  0  0
    1.6194    0.2989   -0.9561 C   0  0  0  0  0  0  0  0  0  0  0  0
   -2.2521    3.2474    4.6001 C   0  0  0  0  0  0  0  0  0  0  0  0
   -4.1490    3.5513    3.1518 C   0  0  0  0  0  0  0  0  0  0  0  0
   -5.3778    1.6784    2.2201 C   0  0  0  0  0  0  0  0  0  0  0  0
   -1.6975    2.7316    5.7128 C   0  0  0  0  0  0  0  0  0  0  0  0
   -1.8358    1.4173    7.7244 C   0  0  0  0  0  0  0  0  0  0  0  0
   -2.4550   -0.9286    7.7031 C   0  0  0  0  0  0  0  0  0  0  0  0
   -5.2149    3.0602    2.3810 C   0  0  0  0  0  0  0  0  0  0  0  0
   -2.0850    0.2196    8.4136 C   0  0  0  0  0  0  0  0  0  0  0  0
   -0.3176   -0.4076    3.8602 H   0  0  0  0  0  0  0  0  0  0  0  0
   -0.4838    1.3354    3.6611 H   0  0  0  0  0  0  0  0  0  0  0  0
   -1.5634    0.9784    1.4314 H   0  0  0  0  0  0  0  0  0  0  0  0
   -1.4095   -0.7730    1.6391 H   0  0  0  0  0  0  0  0  0  0  0  0
   -2.7004   -0.7267    3.7924 H   0  0  0  0  0  0  0  0  0  0  0  0
    1.0680   -0.5822    1.6342 H   0  0  0  0  0  0  0  0  0  0  0  0
    0.9411    1.1904    1.5183 H   0  0  0  0  0  0  0  0  0  0  0  0
    0.0055   -0.8052   -0.4310 H   0  0  0  0  0  0  0  0  0  0  0  0
   -4.5830   -0.2051    2.6333 H   0  0  0  0  0  0  0  0  0  0  0  0
   -2.8068   -1.7423    5.8179 H   0  0  0  0  0  0  0  0  0  0  0  0
    1.4178    0.2135   -2.0249 H   0  0  0  0  0  0  0  0  0  0  0  0
    2.0516    1.2830   -0.7631 H   0  0  0  0  0  0  0  0  0  0  0  0
    2.3349   -0.4765   -0.6733 H   0  0  0  0  0  0  0  0  0  0  0  0
   -1.9438    4.1616    4.3480 H   0  0  0  0  0  0  0  0  0  0  0  0
   -4.0599    4.5674    3.2489 H   0  0  0  0  0  0  0  0  0  0  0  0
   -6.1606    1.3120    1.6742 H   0  0  0  0  0  0  0  0  0  0  0  0
   -1.0389    3.3204    6.1750 H   0  0  0  0  0  0  0  0  0  0  0  0
   -1.5694    2.2377    8.2773 H   0  0  0  0  0  0  0  0  0  0  0  0
   -2.6452   -1.8020    8.1988 H   0  0  0  0  0  0  0  0  0  0  0  0
   -5.8760    3.7062    1.9423 H   0  0  0  0  0  0  0  0  0  0  0  0
   -1.9946    0.1818    9.4316 H   0  0  0  0  0  0  0  0  0  0  0  0
  1  2  1  0  0  0  0 
  1  3  1  0  0  0  0 
  2  4  1  0  0  0  0 
  3  5  1  0  0  0  0 
  3  6  1  0  0  0  0 
  4  7  1  0  0  0  0 
  5  8  2  0  0  0  0 
  5  9  1  0  0  0  0 
  6 10  2  0  0  0  0 
  6 11  1  0  0  0  0 
  7 12  1  0  0  0  0 
  8 13  1  0  0  0  0 
  8 14  1  0  0  0  0 
  9 15  2  0  0  0  0 
 10 16  1  0  0  0  0 
 10 17  1  0  0  0  0 
 11 18  2  0  0  0  0 
 13 16  2  0  0  0  0 
 14 19  2  0  0  0  0 
 15 19  1  0  0  0  0 
 17 20  2  0  0  0  0 
 18 20  1  0  0  0  0 
  1 21  1  0  0  0  0 
  1 22  1  0  0  0  0 
  2 23  1  0  0  0  0 
  2 24  1  0  0  0  0 
  3 25  1  0  0  0  0 
  4 26  1  0  0  0  0 
  4 27  1  0  0  0  0 
  7 28  1  0  0  0  0 
  9 29  1  0  0  0  0 
 11 30  1  0  0  0  0 
 12 31  1  0  0  0  0 
 12 32  1  0  0  0  0 
 12 33  1  0  0  0  0 
 13 34  1  0  0  0  0 
 14 35  1  0  0  0  0 
 15 36  1  0  0  0  0 
 16 37  1  0  0  0  0 
 17 38  1  0  0  0  0 
 18 39  1  0  0  0  0 
 19 40  1  0  0  0  0 
 20 41  1  0  0  0  0 
M  END
> <cdk:Title>
protriptyline

> <Conformer>
1

> <SuperDrugID>
SD002084

$$$$
