fumagillin
  CDK     0628171801

 67 69  0  0  0  0  0  0  0  0999 V2000
   -1.2330  -11.0237   -3.3519 C   0  0  0  0  0  0  0  0  0  0  0  0
   -1.5341  -10.9363   -1.8242 C   0  0  1  0  0  0  0  0  0  0  0  0
   -2.7054  -10.0210   -1.2914 C   0  0  2  0  0  0  0  0  0  0  0  0
   -1.1405  -12.1106   -0.9194 C   0  0  2  0  0  0  0  0  0  0  0  0
   -0.3177  -10.9481   -1.0437 O   0  0  0  0  0  0  0  0  0  0  0  0
   -4.1422  -10.4858   -1.7331 C   0  0  2  0  0  0  0  0  0  0  0  0
   -2.4820   -8.5032   -1.6385 C   0  0  2  0  0  0  0  0  0  0  0  0
   -0.6258  -13.4501   -1.5057 C   0  0  2  0  0  0  0  0  0  0  0  0
   -4.5073  -11.9681   -1.6271 C   0  0  1  0  0  0  0  0  0  0  0  0
   -4.2145  -11.3250   -2.9226 O   0  0  0  0  0  0  0  0  0  0  0  0
   -5.3316   -9.5196   -1.3715 C   0  0  2  0  0  0  0  0  0  0  0  0
   -1.3258   -7.9676   -0.9472 O   0  0  0  0  0  0  0  0  0  0  0  0
   -3.6696   -7.5794   -1.2212 C   0  0  1  0  0  0  0  0  0  0  0  0
    0.1719  -14.1802   -0.5311 C   0  0  0  0  0  0  0  0  0  0  0  0
   -5.0181   -8.0747   -1.8097 C   0  0  2  0  0  0  0  0  0  0  0  0
   -0.0697   -7.8646   -1.6442 C   0  0  0  0  0  0  0  0  0  0  0  0
   -3.7220   -7.4398    0.2135 O   0  0  0  0  0  0  0  0  0  0  0  0
   -0.2827  -15.0428    0.4092 C   0  0  0  0  0  0  0  0  0  0  0  0
   -4.5364   -6.5773    0.8967 C   0  0  0  0  0  0  0  0  0  0  0  0
    0.6554  -15.6907    1.3274 C   0  0  0  0  0  0  0  0  0  0  0  0
   -1.7017  -15.3701    0.5500 C   0  0  0  0  0  0  0  0  0  0  0  0
   -4.3166   -5.2107    0.9893 C   0  0  0  0  0  0  0  0  0  0  0  0
   -5.5049   -7.0792    1.5126 O   0  0  0  0  0  0  0  0  0  0  0  0
   -3.1908   -4.5936    0.5846 C   0  0  0  0  0  0  0  0  0  0  0  0
   -3.0057   -3.2424    0.6657 C   0  0  0  0  0  0  0  0  0  0  0  0
   -1.8689   -2.6287    0.2821 C   0  0  0  0  0  0  0  0  0  0  0  0
   -1.6703   -1.2783    0.3582 C   0  0  0  0  0  0  0  0  0  0  0  0
   -0.5074   -0.6865    0.0193 C   0  0  0  0  0  0  0  0  0  0  0  0
   -0.2890    0.6593    0.0959 C   0  0  0  0  0  0  0  0  0  0  0  0
    0.8825    1.2353   -0.2395 C   0  0  0  0  0  0  0  0  0  0  0  0
    1.1474    2.5904   -0.1551 C   0  0  0  0  0  0  0  0  0  0  0  0
    2.3627    3.0587   -0.5228 O   0  0  0  0  0  0  0  0  0  0  0  0
    0.3109    3.4274    0.2574 O   0  0  0  0  0  0  0  0  0  0  0  0
   -2.7101  -10.0713   -0.1974 H   0  0  0  0  0  0  0  0  0  0  0  0
   -1.7731  -11.8652   -3.7879 H   0  0  0  0  0  0  0  0  0  0  0  0
   -1.5400  -10.1199   -3.8760 H   0  0  0  0  0  0  0  0  0  0  0  0
   -0.1650  -11.1597   -3.5406 H   0  0  0  0  0  0  0  0  0  0  0  0
   -1.6410  -12.1545    0.0494 H   0  0  0  0  0  0  0  0  0  0  0  0
   -2.3929   -8.3841   -2.7225 H   0  0  0  0  0  0  0  0  0  0  0  0
   -0.0092  -13.2735   -2.3884 H   0  0  0  0  0  0  0  0  0  0  0  0
   -1.4849  -14.0375   -1.8354 H   0  0  0  0  0  0  0  0  0  0  0  0
   -3.7521  -12.6005   -1.1239 H   0  0  0  0  0  0  0  0  0  0  0  0
   -5.5581  -12.1641   -1.3209 H   0  0  0  0  0  0  0  0  0  0  0  0
   -5.5099   -9.5495   -0.2936 H   0  0  0  0  0  0  0  0  0  0  0  0
   -6.2477   -9.8426   -1.8721 H   0  0  0  0  0  0  0  0  0  0  0  0
   -3.4750   -6.5895   -1.6439 H   0  0  0  0  0  0  0  0  0  0  0  0
    1.1500  -14.0021   -0.5682 H   0  0  0  0  0  0  0  0  0  0  0  0
   -5.8281   -7.4166   -1.4827 H   0  0  0  0  0  0  0  0  0  0  0  0
   -4.9787   -8.0283   -2.9021 H   0  0  0  0  0  0  0  0  0  0  0  0
    0.2950   -6.8456   -1.5214 H   0  0  0  0  0  0  0  0  0  0  0  0
   -0.1243   -8.0825   -2.7125 H   0  0  0  0  0  0  0  0  0  0  0  0
    0.6543   -8.5347   -1.1815 H   0  0  0  0  0  0  0  0  0  0  0  0
    0.4047  -15.4177    2.3548 H   0  0  0  0  0  0  0  0  0  0  0  0
    1.6993  -15.4131    1.1602 H   0  0  0  0  0  0  0  0  0  0  0  0
    0.5846  -16.7760    1.2218 H   0  0  0  0  0  0  0  0  0  0  0  0
   -1.8885  -16.0405    1.3928 H   0  0  0  0  0  0  0  0  0  0  0  0
   -2.0651  -15.8700   -0.3500 H   0  0  0  0  0  0  0  0  0  0  0  0
   -2.2895  -14.4657    0.7170 H   0  0  0  0  0  0  0  0  0  0  0  0
   -5.0461   -4.6591    1.3875 H   0  0  0  0  0  0  0  0  0  0  0  0
   -2.4544   -5.1509    0.2104 H   0  0  0  0  0  0  0  0  0  0  0  0
   -3.7485   -2.6806    1.0243 H   0  0  0  0  0  0  0  0  0  0  0  0
   -1.1274   -3.1917   -0.0776 H   0  0  0  0  0  0  0  0  0  0  0  0
   -2.4203   -0.7040    0.6814 H   0  0  0  0  0  0  0  0  0  0  0  0
    0.2398   -1.2652   -0.3023 H   0  0  0  0  0  0  0  0  0  0  0  0
   -1.0293    1.2425    0.4197 H   0  0  0  0  0  0  0  0  0  0  0  0
    1.6228    0.6568   -0.5697 H   0  0  0  0  0  0  0  0  0  0  0  0
    2.5617    4.0161   -0.4550 H   0  0  0  0  0  0  0  0  0  0  0  0
  2  1  1  0  0  0  0 
  3  2  1  0  0  0  0 
  2  4  1  0  0  0  0 
  2  5  1  0  0  0  0 
  3  6  1  0  0  0  0 
  7  3  1  0  0  0  0 
  3 34  1  0  0  0  0 
  4  5  1  0  0  0  0 
  4  8  1  0  0  0  0 
  6  9  1  0  0  0  0 
  6 10  1  0  0  0  0 
  6 11  1  0  0  0  0 
  7 12  1  0  0  0  0 
 13  7  1  0  0  0  0 
  8 14  1  0  0  0  0 
  9 10  1  0  0  0  0 
 11 15  1  0  0  0  0 
 12 16  1  0  0  0  0 
 13 15  1  0  0  0  0 
 13 17  1  0  0  0  0 
 14 18  2  0  0  0  0 
 17 19  1  0  0  0  0 
 18 20  1  0  0  0  0 
 18 21  1  0  0  0  0 
 19 22  1  0  0  0  0 
 19 23  2  0  0  0  0 
 22 24  2  0  0  0  0 
 24 25  1  0  0  0  0 
 25 26  2  0  0  0  0 
 26 27  1  0  0  0  0 
 27 28  2  0  0  0  0 
 28 29  1  0  0  0  0 
 29 30  2  0  0  0  0 
 30 31  1  0  0  0  0 
 31 32  1  0  0  0  0 
 31 33  2  0  0  0  0 
  1 35  1  0  0  0  0 
  1 36  1  0  0  0  0 
  1 37  1  0  0  0  0 
  4 38  1  0  0  0  0 
  7 39  1  0  0  0  0 
  8 40  1  0  0  0  0 
  8 41  1  0  0  0  0 
  9 42  1  0  0  0  0 
  9 43  1  0  0  0  0 
 11 44  1  0  0  0  0 
 11 45  1  0  0  0  0 
 13 46  1  0  0  0  0 
 14 47  1  0  0  0  0 
 15 48  1  0  0  0  0 
 15 49  1  0  0  0  0 
 16 50  1  0  0  0  0 
 16 51  1  0  0  0  0 
 16 52  1  0  0  0  0 
 20 53  1  0  0  0  0 
 20 54  1  0  0  0  0 
 20 55  1  0  0  0  0 
 21 56  1  0  0  0  0 
 21 57  1  0  0  0  0 
 21 58  1  0  0  0  0 
 22 59  1  0  0  0  0 
 24 60  1  0  0  0  0 
 25 61  1  0  0  0  0 
 26 62  1  0  0  0  0 
 27 63  1  0  0  0  0 
 28 64  1  0  0  0  0 
 29 65  1  0  0  0  0 
 30 66  1  0  0  0  0 
 32 67  1  0  0  0  0 
M  END
> <cdk:Title>
fumagillin

> <Conformer>
1

> <SuperDrugID>
SD002811

$$$$
