chlormezanone
  CDK     0628171802

 29 30  0  0  0  0  0  0  0  0999 V2000
    3.2497    5.6158   -1.0618 O   0  0  0  0  0  0  0  0  0  0  0  0
    2.2176    4.7949   -0.1479 S   0  0  1  0  0  0  0  0  0  0  0  0
    0.8252    4.6274   -0.9247 O   0  0  0  0  0  0  0  0  0  0  0  0
    2.9634    3.1721    0.2850 C   0  0  1  0  0  0  0  0  0  0  0  0
    1.9801    5.6855    1.4240 C   0  0  1  0  0  0  0  0  0  0  0  0
    3.7392    3.1479    1.5222 N   0  0  0  0  0  0  0  0  0  0  0  0
    1.8957    2.1214    0.2840 C   0  0  0  0  0  0  0  0  0  0  0  0
    3.2943    5.5842    2.2206 C   0  0  1  0  0  0  0  0  0  0  0  0
    4.4680    1.9304    1.8281 C   0  0  0  0  0  0  0  0  0  0  0  0
    3.8159    4.2060    2.4306 C   0  0  0  0  0  0  0  0  0  0  0  0
    1.8173    1.1550   -0.7501 C   0  0  0  0  0  0  0  0  0  0  0  0
    0.9429    2.0569    1.3308 C   0  0  0  0  0  0  0  0  0  0  0  0
    4.4232    4.0515    3.5197 O   0  0  0  0  0  0  0  0  0  0  0  0
    0.8174    0.1644   -0.7421 C   0  0  0  0  0  0  0  0  0  0  0  0
   -0.0535    1.0617    1.3461 C   0  0  0  0  0  0  0  0  0  0  0  0
   -0.1208    0.1136    0.3067 C   0  0  0  0  0  0  0  0  0  0  0  0
   -1.3278   -1.0742    0.3108 Cl  0  0  0  0  0  0  0  0  0  0  0  0
    3.6686    2.9882   -0.5324 H   0  0  0  0  0  0  0  0  0  0  0  0
    1.7433    6.7331    1.2220 H   0  0  0  0  0  0  0  0  0  0  0  0
    1.1543    5.2338    1.9756 H   0  0  0  0  0  0  0  0  0  0  0  0
    4.0678    6.1592    1.7037 H   0  0  0  0  0  0  0  0  0  0  0  0
    3.1332    6.0726    3.1869 H   0  0  0  0  0  0  0  0  0  0  0  0
    5.5157    2.1627    2.0266 H   0  0  0  0  0  0  0  0  0  0  0  0
    4.4502    1.1990    1.0166 H   0  0  0  0  0  0  0  0  0  0  0  0
    4.0357    1.4525    2.7084 H   0  0  0  0  0  0  0  0  0  0  0  0
    2.4887    1.1627   -1.5213 H   0  0  0  0  0  0  0  0  0  0  0  0
    0.9719    2.7344    2.0964 H   0  0  0  0  0  0  0  0  0  0  0  0
    0.7765   -0.5163   -1.5033 H   0  0  0  0  0  0  0  0  0  0  0  0
   -0.7257    1.0314    2.1166 H   0  0  0  0  0  0  0  0  0  0  0  0
  1  2  2  0  0  0  0 
  2  3  2  0  0  0  0 
  4  2  1  0  0  0  0 
  2  5  1  0  0  0  0 
  4  6  1  0  0  0  0 
  4  7  1  0  0  0  0 
  5  8  1  0  0  0  0 
  6  9  1  0  0  0  0 
  6 10  1  0  0  0  0 
  7 11  2  0  0  0  0 
  7 12  1  0  0  0  0 
  8 10  1  0  0  0  0 
 10 13  2  0  0  0  0 
 11 14  1  0  0  0  0 
 12 15  2  0  0  0  0 
 14 16  2  0  0  0  0 
 15 16  1  0  0  0  0 
 16 17  1  0  0  0  0 
  4 18  1  0  0  0  0 
  5 19  1  0  0  0  0 
  5 20  1  0  0  0  0 
  8 21  1  0  0  0  0 
  8 22  1  0  0  0  0 
  9 23  1  0  0  0  0 
  9 24  1  0  0  0  0 
  9 25  1  0  0  0  0 
 11 26  1  0  0  0  0 
 12 27  1  0  0  0  0 
 14 28  1  0  0  0  0 
 15 29  1  0  0  0  0 
M  END
> <cdk:Title>
chlormezanone

> <Conformer>
1

> <SuperDrugID>
SD000525

$$$$
