oxyfenamate
  CDK     0628171801

 30 30  0  0  0  0  0  0  0  0999 V2000
    2.3675    1.1446   -0.2984 C   0  0  2  0  0  0  0  0  0  0  0  0
    2.2985    2.0825   -1.5436 C   0  0  2  0  0  0  0  0  0  0  0  0
    3.0434   -0.2227   -0.6577 C   0  0  1  0  0  0  0  0  0  0  0  0
    1.0003    0.8320    0.0095 O   0  0  0  0  0  0  0  0  0  0  0  0
    3.0557    1.8485    0.8491 C   0  0  0  0  0  0  0  0  0  0  0  0
    1.5435    3.2606   -1.2227 O   0  0  0  0  0  0  0  0  0  0  0  0
    3.1091   -1.2405    0.5083 C   0  0  0  0  0  0  0  0  0  0  0  0
    4.4374    2.1688    0.7824 C   0  0  0  0  0  0  0  0  0  0  0  0
    2.3563    2.2229    2.0270 C   0  0  0  0  0  0  0  0  0  0  0  0
    1.1721    4.2627   -2.0641 C   0  0  0  0  0  0  0  0  0  0  0  0
    5.0950    2.8103    1.8497 C   0  0  0  0  0  0  0  0  0  0  0  0
    3.0096    2.8675    3.0930 C   0  0  0  0  0  0  0  0  0  0  0  0
    0.4827    5.2936   -1.5512 N   0  0  0  0  0  0  0  0  0  0  0  0
    1.4414    4.2502   -3.2866 O   0  0  0  0  0  0  0  0  0  0  0  0
    4.3824    3.1553    3.0080 C   0  0  0  0  0  0  0  0  0  0  0  0
    1.8059    1.5641   -2.3710 H   0  0  0  0  0  0  0  0  0  0  0  0
    3.3011    2.3675   -1.8731 H   0  0  0  0  0  0  0  0  0  0  0  0
    2.4838   -0.6931   -1.4715 H   0  0  0  0  0  0  0  0  0  0  0  0
    4.0563   -0.0544   -1.0300 H   0  0  0  0  0  0  0  0  0  0  0  0
    0.6426    0.3888   -0.7898 H   0  0  0  0  0  0  0  0  0  0  0  0
    2.1085   -1.4497    0.8913 H   0  0  0  0  0  0  0  0  0  0  0  0
    3.5463   -2.1759    0.1538 H   0  0  0  0  0  0  0  0  0  0  0  0
    3.7266   -0.8584    1.3231 H   0  0  0  0  0  0  0  0  0  0  0  0
    4.9851    1.9384   -0.0495 H   0  0  0  0  0  0  0  0  0  0  0  0
    1.3570    2.0379    2.1239 H   0  0  0  0  0  0  0  0  0  0  0  0
    6.0927    3.0302    1.7814 H   0  0  0  0  0  0  0  0  0  0  0  0
    2.4872    3.1324    3.9295 H   0  0  0  0  0  0  0  0  0  0  0  0
    0.1939    6.0217   -2.1236 H   0  0  0  0  0  0  0  0  0  0  0  0
    0.2716    5.3106   -0.6039 H   0  0  0  0  0  0  0  0  0  0  0  0
    4.8589    3.6176    3.7863 H   0  0  0  0  0  0  0  0  0  0  0  0
  1  2  1  0  0  0  0 
  1  3  1  0  0  0  0 
  1  4  1  0  0  0  0 
  1  5  1  0  0  0  0 
  2  6  1  0  0  0  0 
  3  7  1  0  0  0  0 
  5  8  2  0  0  0  0 
  5  9  1  0  0  0  0 
  6 10  1  0  0  0  0 
  8 11  1  0  0  0  0 
  9 12  2  0  0  0  0 
 10 13  1  0  0  0  0 
 10 14  2  0  0  0  0 
 11 15  2  0  0  0  0 
 12 15  1  0  0  0  0 
 16  2  1  0  0  0  0 
 17  2  1  0  0  0  0 
 18  3  1  0  0  0  0 
 19  3  1  0  0  0  0 
 20  4  1  0  0  0  0 
 21  7  1  0  0  0  0 
 22  7  1  0  0  0  0 
 23  7  1  0  0  0  0 
 24  8  1  0  0  0  0 
 25  9  1  0  0  0  0 
 26 11  1  0  0  0  0 
 27 12  1  0  0  0  0 
 28 13  1  0  0  0  0 
 29 13  1  0  0  0  0 
 30 15  1  0  0  0  0 
M  END
> <cdk:Title>
oxyfenamate

> <Conformer>
1

> <SuperDrugID>
SD001241

$$$$
