pantoprazole
  CDK     0628171801

 41 43  0  0  0  0  0  0  0  0999 V2000
    3.2625   -1.9340    3.1261 S   0  0  1  0  0  0  0  0  0  0  0  0
    2.8627   -0.1662    2.8642 C   0  0  1  0  0  0  0  0  0  0  0  0
    4.7897   -1.9414    3.6198 O   0  0  0  0  0  0  0  0  0  0  0  0
    2.3120   -2.4427    4.5133 C   0  0  0  0  0  0  0  0  0  0  0  0
    3.5206    0.2969    1.6301 C   0  0  0  0  0  0  0  0  0  0  0  0
    1.3723   -3.4090    4.4933 N   0  0  0  0  0  0  0  0  0  0  0  0
    2.4461   -1.9196    5.7422 N   0  0  0  0  0  0  0  0  0  0  0  0
    2.9085    0.2308    0.3525 C   0  0  0  0  0  0  0  0  0  0  0  0
    4.7774    0.8045    1.7410 N   0  0  0  0  0  0  0  0  0  0  0  0
    0.9260   -3.5032    5.7557 C   0  0  0  0  0  0  0  0  0  0  0  0
    1.6048   -2.5771    6.5407 C   0  0  0  0  0  0  0  0  0  0  0  0
    1.6333   -0.2536    0.1973 O   0  0  0  0  0  0  0  0  0  0  0  0
    3.6186    0.7282   -0.7665 C   0  0  0  0  0  0  0  0  0  0  0  0
    5.4844    1.2693    0.6831 C   0  0  0  0  0  0  0  0  0  0  0  0
   -0.0404   -4.3548    6.3177 C   0  0  0  0  0  0  0  0  0  0  0  0
    1.3721   -2.4703    7.9198 C   0  0  0  0  0  0  0  0  0  0  0  0
    1.5800   -1.6204   -0.2569 C   0  0  0  0  0  0  0  0  0  0  0  0
    3.0568    0.7111   -2.0136 O   0  0  0  0  0  0  0  0  0  0  0  0
    4.9205    1.2394   -0.6024 C   0  0  0  0  0  0  0  0  0  0  0  0
   -0.2727   -4.2792    7.7080 C   0  0  0  0  0  0  0  0  0  0  0  0
    0.4412   -3.3546    8.5119 C   0  0  0  0  0  0  0  0  0  0  0  0
    2.3271    1.9168   -2.3065 C   0  0  0  0  0  0  0  0  0  0  0  0
    0.2336   -3.3058    9.8636 O   0  0  0  0  0  0  0  0  0  0  0  0
    1.0942   -4.1956   10.6038 C   0  0  1  0  0  0  0  0  0  0  0  0
    2.4254   -3.8597   10.4946 F   0  0  0  0  0  0  0  0  0  0  0  0
    0.7531   -4.0972   11.9281 F   0  0  0  0  0  0  0  0  0  0  0  0
    1.7804   -0.0388    2.8050 H   0  0  0  0  0  0  0  0  0  0  0  0
    3.2133    0.4103    3.7230 H   0  0  0  0  0  0  0  0  0  0  0  0
    3.0511   -1.2067    6.0023 H   0  0  0  0  0  0  0  0  0  0  0  0
    6.4250    1.6371    0.8292 H   0  0  0  0  0  0  0  0  0  0  0  0
   -0.5582   -5.0146    5.7347 H   0  0  0  0  0  0  0  0  0  0  0  0
    1.8825   -1.7841    8.4797 H   0  0  0  0  0  0  0  0  0  0  0  0
    0.5341   -1.9006   -0.3803 H   0  0  0  0  0  0  0  0  0  0  0  0
    2.0785   -1.7500   -1.2205 H   0  0  0  0  0  0  0  0  0  0  0  0
    2.0236   -2.3034    0.4689 H   0  0  0  0  0  0  0  0  0  0  0  0
    5.4483    1.5884   -1.4039 H   0  0  0  0  0  0  0  0  0  0  0  0
   -0.9555   -4.9047    8.1379 H   0  0  0  0  0  0  0  0  0  0  0  0
    1.9031    1.8218   -3.3060 H   0  0  0  0  0  0  0  0  0  0  0  0
    1.5044    2.0685   -1.6022 H   0  0  0  0  0  0  0  0  0  0  0  0
    2.9817    2.7926   -2.2984 H   0  0  0  0  0  0  0  0  0  0  0  0
    0.9535   -5.2356   10.2941 H   0  0  0  0  0  0  0  0  0  0  0  0
  1  2  1  0  0  0  0 
  1  3  2  0  0  0  0 
  1  4  1  0  0  0  0 
  2  5  1  0  0  0  0 
  4  6  2  0  0  0  0 
  4  7  1  0  0  0  0 
  5  8  2  0  0  0  0 
  5  9  1  0  0  0  0 
  6 10  1  0  0  0  0 
  7 11  1  0  0  0  0 
  8 12  1  0  0  0  0 
  8 13  1  0  0  0  0 
  9 14  2  0  0  0  0 
 10 11  1  0  0  0  0 
 10 15  2  0  0  0  0 
 11 16  2  0  0  0  0 
 12 17  1  0  0  0  0 
 13 18  1  0  0  0  0 
 13 19  2  0  0  0  0 
 14 19  1  0  0  0  0 
 15 20  1  0  0  0  0 
 16 21  1  0  0  0  0 
 18 22  1  0  0  0  0 
 20 21  2  0  0  0  0 
 21 23  1  0  0  0  0 
 23 24  1  0  0  0  0 
 24 25  1  0  0  0  0 
 24 26  1  0  0  0  0 
 27  2  1  0  0  0  0 
 28  2  1  0  0  0  0 
 29  7  1  0  0  0  0 
 30 14  1  0  0  0  0 
 31 15  1  0  0  0  0 
 32 16  1  0  0  0  0 
 33 17  1  0  0  0  0 
 34 17  1  0  0  0  0 
 35 17  1  0  0  0  0 
 36 19  1  0  0  0  0 
 37 20  1  0  0  0  0 
 38 22  1  0  0  0  0 
 39 22  1  0  0  0  0 
 40 22  1  0  0  0  0 
 41 24  1  0  0  0  0 
M  END
> <cdk:Title>
pantoprazole

> <Conformer>
1

> <SuperDrugID>
SD001841

$$$$
