chlorambucil
  CDK     0628171802

 38 38  0  0  0  0  0  0  0  0999 V2000
    1.0284   -4.8241   -7.6679 N   0  0  0  0  0  0  0  0  0  0  0  0
   -0.2858   -5.3737   -7.3181 C   0  0  2  0  0  0  0  0  0  0  0  0
    1.6365   -5.1760   -8.9519 C   0  0  2  0  0  0  0  0  0  0  0  0
    1.7419   -4.0510   -6.7108 C   0  0  0  0  0  0  0  0  0  0  0  0
   -1.1531   -6.1403   -8.3561 C   0  0  1  0  0  0  0  0  0  0  0  0
    2.7317   -6.2595   -8.8020 C   0  0  2  0  0  0  0  0  0  0  0  0
    2.8983   -3.2841   -7.0411 C   0  0  0  0  0  0  0  0  0  0  0  0
    1.3684   -4.0013   -5.3347 C   0  0  0  0  0  0  0  0  0  0  0  0
   -2.7249   -6.5789   -7.6887 Cl  0  0  0  0  0  0  0  0  0  0  0  0
    3.4451   -6.6611  -10.3613 Cl  0  0  0  0  0  0  0  0  0  0  0  0
    3.6591   -2.5971   -6.0768 C   0  0  0  0  0  0  0  0  0  0  0  0
    2.1231   -3.3177   -4.3634 C   0  0  0  0  0  0  0  0  0  0  0  0
    3.2987   -2.6242   -4.7150 C   0  0  0  0  0  0  0  0  0  0  0  0
    4.1457   -1.9644   -3.6830 C   0  0  2  0  0  0  0  0  0  0  0  0
    3.8819   -0.4393   -3.5517 C   0  0  2  0  0  0  0  0  0  0  0  0
    4.7283    0.2073   -2.4204 C   0  0  2  0  0  0  0  0  0  0  0  0
    4.4225    1.6379   -2.2298 C   0  0  0  0  0  0  0  0  0  0  0  0
    3.8811    2.0742   -1.0685 O   0  0  0  0  0  0  0  0  0  0  0  0
    4.6685    2.4672   -3.1342 O   0  0  0  0  0  0  0  0  0  0  0  0
   -0.9024   -4.5445   -6.9598 H   0  0  0  0  0  0  0  0  0  0  0  0
   -0.1390   -6.0758   -6.4922 H   0  0  0  0  0  0  0  0  0  0  0  0
    2.0420   -4.2942   -9.4474 H   0  0  0  0  0  0  0  0  0  0  0  0
    0.9197   -5.5521   -9.6791 H   0  0  0  0  0  0  0  0  0  0  0  0
   -1.3308   -5.5223   -9.2382 H   0  0  0  0  0  0  0  0  0  0  0  0
   -0.6475   -7.0613   -8.6539 H   0  0  0  0  0  0  0  0  0  0  0  0
    2.3004   -7.1676   -8.3768 H   0  0  0  0  0  0  0  0  0  0  0  0
    3.5283   -5.9132   -8.1445 H   0  0  0  0  0  0  0  0  0  0  0  0
    3.2323   -3.2093   -7.9998 H   0  0  0  0  0  0  0  0  0  0  0  0
    0.5336   -4.4787   -4.9928 H   0  0  0  0  0  0  0  0  0  0  0  0
    4.4901   -2.0829   -6.3755 H   0  0  0  0  0  0  0  0  0  0  0  0
    1.8080   -3.3374   -3.3899 H   0  0  0  0  0  0  0  0  0  0  0  0
    5.2005   -2.1306   -3.9222 H   0  0  0  0  0  0  0  0  0  0  0  0
    3.9696   -2.4334   -2.7104 H   0  0  0  0  0  0  0  0  0  0  0  0
    2.8227   -0.2789   -3.3312 H   0  0  0  0  0  0  0  0  0  0  0  0
    4.1136    0.0511   -4.5026 H   0  0  0  0  0  0  0  0  0  0  0  0
    5.7926    0.0999   -2.6428 H   0  0  0  0  0  0  0  0  0  0  0  0
    4.5356   -0.3226   -1.4840 H   0  0  0  0  0  0  0  0  0  0  0  0
    3.6763    3.0243   -0.9415 H   0  0  0  0  0  0  0  0  0  0  0  0
  1  2  1  0  0  0  0 
  1  3  1  0  0  0  0 
  1  4  1  0  0  0  0 
  2  5  1  0  0  0  0 
  3  6  1  0  0  0  0 
  4  7  2  0  0  0  0 
  4  8  1  0  0  0  0 
  5  9  1  0  0  0  0 
  6 10  1  0  0  0  0 
  7 11  1  0  0  0  0 
  8 12  2  0  0  0  0 
 11 13  2  0  0  0  0 
 12 13  1  0  0  0  0 
 13 14  1  0  0  0  0 
 14 15  1  0  0  0  0 
 15 16  1  0  0  0  0 
 16 17  1  0  0  0  0 
 17 18  1  0  0  0  0 
 17 19  2  0  0  0  0 
  2 20  1  0  0  0  0 
  2 21  1  0  0  0  0 
  3 22  1  0  0  0  0 
  3 23  1  0  0  0  0 
  5 24  1  0  0  0  0 
  5 25  1  0  0  0  0 
  6 26  1  0  0  0  0 
  6 27  1  0  0  0  0 
  7 28  1  0  0  0  0 
  8 29  1  0  0  0  0 
 11 30  1  0  0  0  0 
 12 31  1  0  0  0  0 
 14 32  1  0  0  0  0 
 14 33  1  0  0  0  0 
 15 34  1  0  0  0  0 
 15 35  1  0  0  0  0 
 16 36  1  0  0  0  0 
 16 37  1  0  0  0  0 
 18 38  1  0  0  0  0 
M  END
> <cdk:Title>
chlorambucil

> <Conformer>
1

> <SuperDrugID>
SD000514

$$$$
