aspoxicillin
  CDK     0628171801

 61 63  0  0  0  0  0  0  0  0999 V2000
   -1.2904    2.2629   -2.4538 N   0  0  0  0  0  0  0  0  0  0  0  0
   -1.2520    3.2112   -1.4833 C   0  0  0  0  0  0  0  0  0  0  0  0
   -1.6665    2.4556   -3.8130 C   0  0  1  0  0  0  0  0  0  0  0  0
   -1.3002    2.7760   -0.0653 C   0  0  2  0  0  0  0  0  0  0  0  0
   -1.3061    4.4324   -1.7651 O   0  0  0  0  0  0  0  0  0  0  0  0
   -1.3725    1.2329   -4.7392 C   0  0  2  0  0  0  0  0  0  0  0  0
   -3.0687    2.0663   -3.9801 C   0  0  0  0  0  0  0  0  0  0  0  0
   -0.4683    1.6247    0.1628 N   0  0  0  0  0  0  0  0  0  0  0  0
   -2.7383    2.4960    0.2583 C   0  0  0  0  0  0  0  0  0  0  0  0
   -2.7562    0.9725   -4.6669 N   0  0  0  0  0  0  0  0  0  0  0  0
   -0.8135   -0.3810   -4.1166 S   0  0  0  0  0  0  0  0  0  0  0  0
   -4.1391    2.5061   -3.5031 O   0  0  0  0  0  0  0  0  0  0  0  0
   -0.3322    0.9684    1.3515 C   0  0  0  0  0  0  0  0  0  0  0  0
   -3.4659    3.3481    1.1236 C   0  0  0  0  0  0  0  0  0  0  0  0
   -3.4162    1.3828   -0.3032 C   0  0  0  0  0  0  0  0  0  0  0  0
   -3.4011   -0.2751   -4.9107 C   0  0  2  0  0  0  0  0  0  0  0  0
   -2.2897   -1.3632   -4.6127 C   0  0  1  0  0  0  0  0  0  0  0  0
    0.4207   -0.3150    1.3896 C   0  0  1  0  0  0  0  0  0  0  0  0
   -0.8786    1.4269    2.3848 O   0  0  0  0  0  0  0  0  0  0  0  0
   -4.8300    3.1189    1.3870 C   0  0  0  0  0  0  0  0  0  0  0  0
   -4.7805    1.1588   -0.0486 C   0  0  0  0  0  0  0  0  0  0  0  0
   -4.0296   -0.2830   -6.2529 C   0  0  0  0  0  0  0  0  0  0  0  0
    0.3750   -1.0323    2.7763 C   0  0  1  0  0  0  0  0  0  0  0  0
   -0.1506   -1.1851    0.3474 N   0  0  2  0  0  0  0  0  0  0  0  0
   -5.4930    2.0259    0.7985 C   0  0  0  0  0  0  0  0  0  0  0  0
   -5.3136   -0.6986   -6.3938 O   0  0  0  0  0  0  0  0  0  0  0  0
   -3.3984    0.0844   -7.2694 O   0  0  0  0  0  0  0  0  0  0  0  0
    1.1914   -2.2651    2.8959 C   0  0  0  0  0  0  0  0  0  0  0  0
   -6.8098    1.8153    1.0532 O   0  0  0  0  0  0  0  0  0  0  0  0
    2.0973   -2.3706    3.9103 N   0  0  0  0  0  0  0  0  0  0  0  0
    0.9906   -3.2160    2.1043 O   0  0  0  0  0  0  0  0  0  0  0  0
    2.8733   -3.5204    4.2436 C   0  0  0  0  0  0  0  0  0  0  0  0
   -1.0513    1.4672   -5.7571 H   0  0  0  0  0  0  0  0  0  0  0  0
   -1.8784   -2.2522   -5.8276 C   0  0  0  0  0  0  0  0  0  0  0  0
   -2.6738   -2.2703   -3.4055 C   0  0  0  0  0  0  0  0  0  0  0  0
   -1.1496    1.3473   -2.1695 H   0  0  0  0  0  0  0  0  0  0  0  0
   -1.4251    3.4272   -4.2533 H   0  0  0  0  0  0  0  0  0  0  0  0
   -0.9129    3.5927    0.5539 H   0  0  0  0  0  0  0  0  0  0  0  0
    0.0072    1.2565   -0.6014 H   0  0  0  0  0  0  0  0  0  0  0  0
   -3.0087    4.1480    1.5681 H   0  0  0  0  0  0  0  0  0  0  0  0
   -2.9236    0.7218   -0.9074 H   0  0  0  0  0  0  0  0  0  0  0  0
   -4.2159   -0.3695   -4.1833 H   0  0  0  0  0  0  0  0  0  0  0  0
    1.4617   -0.1098    1.1259 H   0  0  0  0  0  0  0  0  0  0  0  0
   -5.3393    3.7521    2.0090 H   0  0  0  0  0  0  0  0  0  0  0  0
   -5.2550    0.3643   -0.4832 H   0  0  0  0  0  0  0  0  0  0  0  0
    0.6975   -0.3215    3.5441 H   0  0  0  0  0  0  0  0  0  0  0  0
   -0.6612   -1.3029    2.9989 H   0  0  0  0  0  0  0  0  0  0  0  0
   -1.0420   -1.5352    0.7047 H   0  0  0  0  0  0  0  0  0  0  0  0
    0.4706   -1.9902    0.2421 H   0  0  0  0  0  0  0  0  0  0  0  0
   -5.7453   -0.7143   -7.2738 H   0  0  0  0  0  0  0  0  0  0  0  0
   -6.9904    0.8910    0.7800 H   0  0  0  0  0  0  0  0  0  0  0  0
    2.2152   -1.5947    4.4801 H   0  0  0  0  0  0  0  0  0  0  0  0
    3.9223   -3.2289    4.2958 H   0  0  0  0  0  0  0  0  0  0  0  0
    2.5621   -3.8860    5.2257 H   0  0  0  0  0  0  0  0  0  0  0  0
    2.7668   -4.3358    3.5234 H   0  0  0  0  0  0  0  0  0  0  0  0
   -1.5050   -1.6362   -6.6486 H   0  0  0  0  0  0  0  0  0  0  0  0
   -2.7344   -2.8304   -6.1869 H   0  0  0  0  0  0  0  0  0  0  0  0
   -1.0864   -2.9520   -5.5478 H   0  0  0  0  0  0  0  0  0  0  0  0
   -2.9187   -1.6646   -2.5277 H   0  0  0  0  0  0  0  0  0  0  0  0
   -3.5437   -2.8828   -3.6551 H   0  0  0  0  0  0  0  0  0  0  0  0
   -1.8486   -2.9373   -3.1417 H   0  0  0  0  0  0  0  0  0  0  0  0
  1  2  1  0  0  0  0 
  4  2  1  0  0  0  0 
  2  5  2  0  0  0  0 
  3  1  1  0  0  0  0 
  6  3  1  0  0  0  0 
  3  7  1  0  0  0  0 
  4  8  1  0  0  0  0 
  4  9  1  0  0  0  0 
  6 10  1  0  0  0  0 
  6 11  1  0  0  0  0 
  6 33  1  0  0  0  0 
  7 10  1  0  0  0  0 
  7 12  2  0  0  0  0 
  8 13  1  0  0  0  0 
  9 14  2  0  0  0  0 
  9 15  1  0  0  0  0 
 16 10  1  0  0  0  0 
 11 17  1  0  0  0  0 
 13 19  2  0  0  0  0 
 14 20  1  0  0  0  0 
 15 21  2  0  0  0  0 
 16 17  1  0  0  0  0 
 16 22  1  0  0  0  0 
 18 13  1  0  0  0  0 
 18 23  1  0  0  0  0 
 18 24  1  0  0  0  0 
 20 25  2  0  0  0  0 
 21 25  1  0  0  0  0 
 22 26  1  0  0  0  0 
 22 27  2  0  0  0  0 
 23 28  1  0  0  0  0 
 25 29  1  0  0  0  0 
 28 30  1  0  0  0  0 
 28 31  2  0  0  0  0 
 30 32  1  0  0  0  0 
 17 34  1  0  0  0  0 
 17 35  1  0  0  0  0 
  1 36  1  0  0  0  0 
  3 37  1  0  0  0  0 
  4 38  1  0  0  0  0 
  8 39  1  0  0  0  0 
 14 40  1  0  0  0  0 
 15 41  1  0  0  0  0 
 16 42  1  0  0  0  0 
 18 43  1  0  0  0  0 
 20 44  1  0  0  0  0 
 21 45  1  0  0  0  0 
 23 46  1  0  0  0  0 
 23 47  1  0  0  0  0 
 24 48  1  0  0  0  0 
 24 49  1  0  0  0  0 
 26 50  1  0  0  0  0 
 29 51  1  0  0  0  0 
 30 52  1  0  0  0  0 
 32 53  1  0  0  0  0 
 32 54  1  0  0  0  0 
 32 55  1  0  0  0  0 
 34 56  1  0  0  0  0 
 34 57  1  0  0  0  0 
 34 58  1  0  0  0  0 
 35 59  1  0  0  0  0 
 35 60  1  0  0  0  0 
 35 61  1  0  0  0  0 
M  END
> <cdk:Title>
aspoxicillin

> <Conformer>
1

> <SuperDrugID>
SD000205

$$$$
