palbociclib
  CDK     0628171802

 62 66  0  0  0  0  0  0  0  0999 V2000
   -1.7354   -5.6417   -3.0617 N   0  0  0  0  0  0  0  0  0  0  0  0
   -1.5710   -4.4758   -2.4015 C   0  0  0  0  0  0  0  0  0  0  0  0
   -2.0686   -4.3894   -1.1467 N   0  0  0  0  0  0  0  0  0  0  0  0
   -2.6732   -5.4030   -0.4662 C   0  0  0  0  0  0  0  0  0  0  0  0
   -2.7760   -6.6597   -1.1272 C   0  0  0  0  0  0  0  0  0  0  0  0
   -2.3164   -6.7303   -2.5036 C   0  0  0  0  0  0  0  0  0  0  0  0
   -3.1397   -5.1985    0.8204 N   0  0  0  0  0  0  0  0  0  0  0  0
   -3.6563   -6.2807    1.5010 C   0  0  0  0  0  0  0  0  0  0  0  0
   -3.7665   -7.5679    0.9093 C   0  0  0  0  0  0  0  0  0  0  0  0
   -3.3036   -7.7732   -0.4202 C   0  0  0  0  0  0  0  0  0  0  0  0
   -0.8765   -3.4766   -3.0114 N   0  0  0  0  0  0  0  0  0  0  0  0
   -0.3535   -2.3649   -2.4167 C   0  0  0  0  0  0  0  0  0  0  0  0
   -0.6462   -1.9999   -1.1372 N   0  0  0  0  0  0  0  0  0  0  0  0
   -0.0712   -0.9470   -0.5049 C   0  0  0  0  0  0  0  0  0  0  0  0
    0.8987   -0.1625   -1.1665 C   0  0  0  0  0  0  0  0  0  0  0  0
    1.1912   -0.4856   -2.5104 C   0  0  0  0  0  0  0  0  0  0  0  0
    0.5703   -1.5818   -3.1381 C   0  0  0  0  0  0  0  0  0  0  0  0
    1.5494    0.8672   -0.5275 N   0  0  0  0  0  0  0  0  0  0  0  0
    2.2877    0.6468    0.6981 C   0  0  2  0  0  0  0  0  0  0  0  0
    1.7658    1.5969    1.8048 C   0  0  2  0  0  0  0  0  0  0  0  0
    1.7400    2.9988    1.3251 N   0  0  1  0  0  0  0  0  0  0  0  0
    0.9891    3.1725    0.0589 C   0  0  1  0  0  0  0  0  0  0  0  0
    1.5184    2.2186   -1.0419 C   0  0  2  0  0  0  0  0  0  0  0  0
   -3.3705   -9.1339   -1.0473 C   0  0  0  0  0  0  0  0  0  0  0  0
   -3.0766   -3.8290    1.3743 C   0  0  2  0  0  0  0  0  0  0  0  0
   -3.2221   -3.4968    2.8865 C   0  0  2  0  0  0  0  0  0  0  0  0
   -3.3760   -1.9629    2.9248 C   0  0  1  0  0  0  0  0  0  0  0  0
   -4.1022   -1.5973    1.6092 C   0  0  2  0  0  0  0  0  0  0  0  0
   -4.1625   -2.8990    0.7751 C   0  0  2  0  0  0  0  0  0  0  0  0
   -4.0722   -6.1672    2.6783 O   0  0  0  0  0  0  0  0  0  0  0  0
   -4.3550   -8.6298    1.6549 C   0  0  0  0  0  0  0  0  0  0  0  0
   -3.6740   -9.2568    2.8039 C   0  0  0  0  0  0  0  0  0  0  0  0
   -5.4880   -9.0500    1.3214 O   0  0  0  0  0  0  0  0  0  0  0  0
   -2.3580   -7.5569   -3.1773 H   0  0  0  0  0  0  0  0  0  0  0  0
   -0.6714   -3.6026   -3.9531 H   0  0  0  0  0  0  0  0  0  0  0  0
   -0.3477   -0.7389    0.4556 H   0  0  0  0  0  0  0  0  0  0  0  0
    1.8764    0.0634   -3.0355 H   0  0  0  0  0  0  0  0  0  0  0  0
    0.8128   -1.8167   -4.1043 H   0  0  0  0  0  0  0  0  0  0  0  0
    3.3456    0.8597    0.5112 H   0  0  0  0  0  0  0  0  0  0  0  0
    2.2278   -0.3884    1.0529 H   0  0  0  0  0  0  0  0  0  0  0  0
    2.4241    1.5398    2.6730 H   0  0  0  0  0  0  0  0  0  0  0  0
    0.7635    1.2913    2.1166 H   0  0  0  0  0  0  0  0  0  0  0  0
    1.2680    3.5572    2.0399 H   0  0  0  0  0  0  0  0  0  0  0  0
   -0.0749    2.9859    0.2322 H   0  0  0  0  0  0  0  0  0  0  0  0
    1.1045    4.2076   -0.2698 H   0  0  0  0  0  0  0  0  0  0  0  0
    0.8851    2.3188   -1.9291 H   0  0  0  0  0  0  0  0  0  0  0  0
    2.5320    2.5190   -1.3232 H   0  0  0  0  0  0  0  0  0  0  0  0
   -2.5811   -9.3003   -1.7783 H   0  0  0  0  0  0  0  0  0  0  0  0
   -3.2490   -9.9322   -0.3144 H   0  0  0  0  0  0  0  0  0  0  0  0
   -4.3380   -9.2543   -1.5359 H   0  0  0  0  0  0  0  0  0  0  0  0
   -2.0882   -3.4217    1.1221 H   0  0  0  0  0  0  0  0  0  0  0  0
   -2.3559   -3.8320    3.4637 H   0  0  0  0  0  0  0  0  0  0  0  0
   -4.1321   -3.9124    3.3215 H   0  0  0  0  0  0  0  0  0  0  0  0
   -3.9496   -1.6504    3.8015 H   0  0  0  0  0  0  0  0  0  0  0  0
   -2.3904   -1.4866    2.9614 H   0  0  0  0  0  0  0  0  0  0  0  0
   -3.5434   -0.8214    1.0769 H   0  0  0  0  0  0  0  0  0  0  0  0
   -5.1100   -1.2241    1.8086 H   0  0  0  0  0  0  0  0  0  0  0  0
   -5.1484   -3.3678    0.8839 H   0  0  0  0  0  0  0  0  0  0  0  0
   -3.9937   -2.6943   -0.2842 H   0  0  0  0  0  0  0  0  0  0  0  0
   -3.4880  -10.3082    2.5802 H   0  0  0  0  0  0  0  0  0  0  0  0
   -2.7178   -8.7748    3.0144 H   0  0  0  0  0  0  0  0  0  0  0  0
   -4.3024   -9.1893    3.6946 H   0  0  0  0  0  0  0  0  0  0  0  0
  1  2  2  0  0  0  0 
  1  6  1  0  0  0  0 
  2  3  1  0  0  0  0 
  3  4  2  0  0  0  0 
  4  5  1  0  0  0  0 
  5  6  2  0  0  0  0 
  7  8  1  0  0  0  0 
  8  9  1  0  0  0  0 
  9 10  2  0  0  0  0 
  4  7  1  0  0  0  0 
  5 10  1  0  0  0  0 
  2 11  1  0  0  0  0 
 11 12  1  0  0  0  0 
 13 14  1  0  0  0  0 
 14 15  2  0  0  0  0 
 15 16  1  0  0  0  0 
 16 17  2  0  0  0  0 
 12 13  2  0  0  0  0 
 12 17  1  0  0  0  0 
 15 18  1  0  0  0  0 
 19 20  1  0  0  0  0 
 20 21  1  0  0  0  0 
 21 22  1  0  0  0  0 
 22 23  1  0  0  0  0 
 18 19  1  0  0  0  0 
 18 23  1  0  0  0  0 
 10 24  1  0  0  0  0 
  7 25  1  0  0  0  0 
 26 27  1  0  0  0  0 
 27 28  1  0  0  0  0 
 28 29  1  0  0  0  0 
 25 26  1  0  0  0  0 
 25 29  1  0  0  0  0 
  8 30  2  0  0  0  0 
  9 31  1  0  0  0  0 
 31 32  1  0  0  0  0 
 31 33  2  0  0  0  0 
 34  6  1  0  0  0  0 
 35 11  1  0  0  0  0 
 36 14  1  0  0  0  0 
 37 16  1  0  0  0  0 
 38 17  1  0  0  0  0 
 39 19  1  0  0  0  0 
 40 19  1  0  0  0  0 
 41 20  1  0  0  0  0 
 42 20  1  0  0  0  0 
 43 21  1  0  0  0  0 
 44 22  1  0  0  0  0 
 45 22  1  0  0  0  0 
 46 23  1  0  0  0  0 
 47 23  1  0  0  0  0 
 48 24  1  0  0  0  0 
 49 24  1  0  0  0  0 
 50 24  1  0  0  0  0 
 51 25  1  0  0  0  0 
 52 26  1  0  0  0  0 
 53 26  1  0  0  0  0 
 54 27  1  0  0  0  0 
 55 27  1  0  0  0  0 
 56 28  1  0  0  0  0 
 57 28  1  0  0  0  0 
 58 29  1  0  0  0  0 
 59 29  1  0  0  0  0 
 60 32  1  0  0  0  0 
 61 32  1  0  0  0  0 
 62 32  1  0  0  0  0 
M  END
> <cdk:Title>
palbociclib

> <Conformer>
1

> <SuperDrugID>
SD003857

$$$$
