bisoctrizole
  CDK     0628171801

 99104  0  0  0  0  0  0  0  0999 V2000
    2.4374   -4.2206    2.6888 O   0  0  0  0  0  0  0  0  0  0  0  0
    3.4053   -4.1072    1.7406 C   0  0  0  0  0  0  0  0  0  0  0  0
    3.3201   -4.9059    0.5786 C   0  0  0  0  0  0  0  0  0  0  0  0
    4.4714   -3.1912    1.9069 C   0  0  0  0  0  0  0  0  0  0  0  0
    2.3575   -5.8614    0.4394 N   0  0  0  0  0  0  0  0  0  0  0  0
    4.2810   -4.7454   -0.4407 C   0  0  0  0  0  0  0  0  0  0  0  0
    4.5819   -2.3071    3.1059 C   0  0  1  0  0  0  0  0  0  0  0  0
    5.4467   -3.1044    0.8868 C   0  0  0  0  0  0  0  0  0  0  0  0
    1.6199   -6.0142   -0.6257 N   0  0  0  0  0  0  0  0  0  0  0  0
    2.1116   -6.7614    1.3516 N   0  0  0  0  0  0  0  0  0  0  0  0
    5.3857   -3.8659   -0.3110 C   0  0  0  0  0  0  0  0  0  0  0  0
    3.8421   -1.0310    2.8797 C   0  0  0  0  0  0  0  0  0  0  0  0
    0.8454   -7.0810   -0.4023 C   0  0  0  0  0  0  0  0  0  0  0  0
    1.1657   -7.5642    0.8559 C   0  0  0  0  0  0  0  0  0  0  0  0
    6.4779   -3.7401   -1.3635 C   0  0  2  0  0  0  0  0  0  0  0  0
    4.4814    0.1408    2.4108 C   0  0  0  0  0  0  0  0  0  0  0  0
    2.4460   -0.9948    3.0848 C   0  0  0  0  0  0  0  0  0  0  0  0
   -0.1245   -7.7096   -1.1998 C   0  0  0  0  0  0  0  0  0  0  0  0
    0.5489   -8.7107    1.3823 C   0  0  0  0  0  0  0  0  0  0  0  0
    7.9019   -4.1290   -0.7756 C   0  0  1  0  0  0  0  0  0  0  0  0
    6.5256   -2.2311   -1.8221 C   0  0  0  0  0  0  0  0  0  0  0  0
    6.2132   -4.5256   -2.7031 C   0  0  0  0  0  0  0  0  0  0  0  0
    5.8225    0.1298    2.1849 O   0  0  0  0  0  0  0  0  0  0  0  0
    3.7262    1.3020    2.1275 C   0  0  0  0  0  0  0  0  0  0  0  0
    1.6495    0.1546    2.8447 C   0  0  0  0  0  0  0  0  0  0  0  0
   -0.7549   -8.8666   -0.6921 C   0  0  0  0  0  0  0  0  0  0  0  0
   -0.4177   -9.3674    0.5885 C   0  0  0  0  0  0  0  0  0  0  0  0
    8.2460   -5.5200   -0.0845 C   0  0  2  0  0  0  0  0  0  0  0  0
    2.3323    1.2985    2.3618 C   0  0  0  0  0  0  0  0  0  0  0  0
    4.3022    2.4072    1.5756 N   0  0  0  0  0  0  0  0  0  0  0  0
    0.1474    0.0991    3.0776 C   0  0  1  0  0  0  0  0  0  0  0  0
    8.0958   -6.7508   -1.0382 C   0  0  0  0  0  0  0  0  0  0  0  0
    7.4194   -5.8028    1.2145 C   0  0  0  0  0  0  0  0  0  0  0  0
    9.7566   -5.4442    0.3434 C   0  0  0  0  0  0  0  0  0  0  0  0
    3.8260    2.9740    0.5048 N   0  0  0  0  0  0  0  0  0  0  0  0
    5.3824    2.9945    2.0186 N   0  0  0  0  0  0  0  0  0  0  0  0
   -0.5474   -0.9752    2.1337 C   0  0  2  0  0  0  0  0  0  0  0  0
   -0.0928   -0.3332    4.5787 C   0  0  0  0  0  0  0  0  0  0  0  0
   -0.5971    1.4831    2.9733 C   0  0  0  0  0  0  0  0  0  0  0  0
    4.6404    3.9889    0.2105 C   0  0  0  0  0  0  0  0  0  0  0  0
    5.6281    4.0102    1.1822 C   0  0  0  0  0  0  0  0  0  0  0  0
   -0.4191   -1.0159    0.5485 C   0  0  1  0  0  0  0  0  0  0  0  0
    4.6190    4.9136   -0.8446 C   0  0  0  0  0  0  0  0  0  0  0  0
    6.6454    4.9783    1.1602 C   0  0  0  0  0  0  0  0  0  0  0  0
    1.0376   -1.2906    0.0420 C   0  0  0  0  0  0  0  0  0  0  0  0
   -1.3178   -2.2115    0.0548 C   0  0  0  0  0  0  0  0  0  0  0  0
   -0.9376    0.2842   -0.1493 C   0  0  0  0  0  0  0  0  0  0  0  0
    5.6329    5.8945   -0.8825 C   0  0  0  0  0  0  0  0  0  0  0  0
    6.6368    5.9306    0.1148 C   0  0  0  0  0  0  0  0  0  0  0  0
    1.6340   -4.5228    2.2130 H   0  0  0  0  0  0  0  0  0  0  0  0
    4.1718   -5.3149   -1.2776 H   0  0  0  0  0  0  0  0  0  0  0  0
    4.1978   -2.8131    3.9947 H   0  0  0  0  0  0  0  0  0  0  0  0
    5.6318   -2.1074    3.3360 H   0  0  0  0  0  0  0  0  0  0  0  0
    6.2295   -2.4646    1.0302 H   0  0  0  0  0  0  0  0  0  0  0  0
    1.9933   -1.8462    3.4078 H   0  0  0  0  0  0  0  0  0  0  0  0
   -0.3589   -7.3420   -2.1238 H   0  0  0  0  0  0  0  0  0  0  0  0
    0.8007   -9.0641    2.3078 H   0  0  0  0  0  0  0  0  0  0  0  0
    8.6203   -3.9988   -1.5926 H   0  0  0  0  0  0  0  0  0  0  0  0
    8.1632   -3.3572   -0.0447 H   0  0  0  0  0  0  0  0  0  0  0  0
    7.2396   -2.0829   -2.6368 H   0  0  0  0  0  0  0  0  0  0  0  0
    6.8301   -1.5624   -1.0157 H   0  0  0  0  0  0  0  0  0  0  0  0
    5.5442   -1.8993   -2.1729 H   0  0  0  0  0  0  0  0  0  0  0  0
    7.0535   -4.4262   -3.3953 H   0  0  0  0  0  0  0  0  0  0  0  0
    6.0562   -5.5852   -2.5391 H   0  0  0  0  0  0  0  0  0  0  0  0
    5.3202   -4.1501   -3.2093 H   0  0  0  0  0  0  0  0  0  0  0  0
    5.9345    0.5179    1.2928 H   0  0  0  0  0  0  0  0  0  0  0  0
   -1.4575   -9.3481   -1.2571 H   0  0  0  0  0  0  0  0  0  0  0  0
   -0.8743  -10.2116    0.9405 H   0  0  0  0  0  0  0  0  0  0  0  0
    1.8178    2.1558    2.1587 H   0  0  0  0  0  0  0  0  0  0  0  0
    8.5846   -7.6347   -0.6205 H   0  0  0  0  0  0  0  0  0  0  0  0
    8.5452   -6.5473   -2.0123 H   0  0  0  0  0  0  0  0  0  0  0  0
    7.0491   -7.0189   -1.1773 H   0  0  0  0  0  0  0  0  0  0  0  0
    7.8073   -6.6792    1.7403 H   0  0  0  0  0  0  0  0  0  0  0  0
    7.4633   -4.9533    1.8984 H   0  0  0  0  0  0  0  0  0  0  0  0
    6.3758   -6.0144    0.9872 H   0  0  0  0  0  0  0  0  0  0  0  0
   10.0813   -6.3623    0.8395 H   0  0  0  0  0  0  0  0  0  0  0  0
    9.9230   -4.6171    1.0385 H   0  0  0  0  0  0  0  0  0  0  0  0
   10.4015   -5.2909   -0.5256 H   0  0  0  0  0  0  0  0  0  0  0  0
   -1.6178   -0.9370    2.3647 H   0  0  0  0  0  0  0  0  0  0  0  0
   -0.2197   -1.9603    2.4786 H   0  0  0  0  0  0  0  0  0  0  0  0
   -1.1549   -0.3140    4.8343 H   0  0  0  0  0  0  0  0  0  0  0  0
    0.4313    0.3316    5.2717 H   0  0  0  0  0  0  0  0  0  0  0  0
    0.2514   -1.3490    4.7777 H   0  0  0  0  0  0  0  0  0  0  0  0
   -1.6717    1.3680    3.1415 H   0  0  0  0  0  0  0  0  0  0  0  0
   -0.2191    2.1890    3.7167 H   0  0  0  0  0  0  0  0  0  0  0  0
   -0.4712    1.9499    2.0046 H   0  0  0  0  0  0  0  0  0  0  0  0
    3.8932    4.8713   -1.5647 H   0  0  0  0  0  0  0  0  0  0  0  0
    7.3708    4.9894    1.8790 H   0  0  0  0  0  0  0  0  0  0  0  0
    1.0498   -1.4655   -1.0362 H   0  0  0  0  0  0  0  0  0  0  0  0
    1.4664   -2.1674    0.5287 H   0  0  0  0  0  0  0  0  0  0  0  0
    1.6900   -0.4385    0.2212 H   0  0  0  0  0  0  0  0  0  0  0  0
   -1.2872   -2.3209   -1.0327 H   0  0  0  0  0  0  0  0  0  0  0  0
   -0.9850   -3.1585    0.4897 H   0  0  0  0  0  0  0  0  0  0  0  0
   -2.3625   -2.0598    0.3418 H   0  0  0  0  0  0  0  0  0  0  0  0
   -1.0580    0.1286   -1.2235 H   0  0  0  0  0  0  0  0  0  0  0  0
   -0.2286    1.1049   -0.0410 H   0  0  0  0  0  0  0  0  0  0  0  0
   -1.9032    0.5919    0.2596 H   0  0  0  0  0  0  0  0  0  0  0  0
    5.6413    6.5818   -1.6396 H   0  0  0  0  0  0  0  0  0  0  0  0
    7.3640    6.6476    0.0780 H   0  0  0  0  0  0  0  0  0  0  0  0
  1  2  1  0  0  0  0 
  2  3  2  0  0  0  0 
  2  4  1  0  0  0  0 
  3  5  1  0  0  0  0 
  3  6  1  0  0  0  0 
  4  7  1  0  0  0  0 
  4  8  2  0  0  0  0 
  5  9  1  0  0  0  0 
  5 10  1  0  0  0  0 
  6 11  2  0  0  0  0 
  7 12  1  0  0  0  0 
  8 11  1  0  0  0  0 
  9 13  2  0  0  0  0 
 10 14  2  0  0  0  0 
 11 15  1  0  0  0  0 
 12 16  2  0  0  0  0 
 12 17  1  0  0  0  0 
 13 14  1  0  0  0  0 
 13 18  1  0  0  0  0 
 14 19  1  0  0  0  0 
 15 20  1  0  0  0  0 
 15 21  1  0  0  0  0 
 15 22  1  0  0  0  0 
 16 23  1  0  0  0  0 
 16 24  1  0  0  0  0 
 17 25  2  0  0  0  0 
 18 26  2  0  0  0  0 
 19 27  2  0  0  0  0 
 20 28  1  0  0  0  0 
 24 29  2  0  0  0  0 
 24 30  1  0  0  0  0 
 25 29  1  0  0  0  0 
 25 31  1  0  0  0  0 
 26 27  1  0  0  0  0 
 28 32  1  0  0  0  0 
 28 33  1  0  0  0  0 
 28 34  1  0  0  0  0 
 30 35  1  0  0  0  0 
 30 36  1  0  0  0  0 
 31 37  1  0  0  0  0 
 31 38  1  0  0  0  0 
 31 39  1  0  0  0  0 
 35 40  2  0  0  0  0 
 36 41  2  0  0  0  0 
 37 42  1  0  0  0  0 
 40 41  1  0  0  0  0 
 40 43  1  0  0  0  0 
 41 44  1  0  0  0  0 
 42 45  1  0  0  0  0 
 42 46  1  0  0  0  0 
 42 47  1  0  0  0  0 
 43 48  2  0  0  0  0 
 44 49  2  0  0  0  0 
 48 49  1  0  0  0  0 
  1 50  1  0  0  0  0 
  6 51  1  0  0  0  0 
  7 52  1  0  0  0  0 
  7 53  1  0  0  0  0 
  8 54  1  0  0  0  0 
 17 55  1  0  0  0  0 
 18 56  1  0  0  0  0 
 19 57  1  0  0  0  0 
 20 58  1  0  0  0  0 
 20 59  1  0  0  0  0 
 21 60  1  0  0  0  0 
 21 61  1  0  0  0  0 
 21 62  1  0  0  0  0 
 22 63  1  0  0  0  0 
 22 64  1  0  0  0  0 
 22 65  1  0  0  0  0 
 23 66  1  0  0  0  0 
 26 67  1  0  0  0  0 
 27 68  1  0  0  0  0 
 29 69  1  0  0  0  0 
 32 70  1  0  0  0  0 
 32 71  1  0  0  0  0 
 32 72  1  0  0  0  0 
 33 73  1  0  0  0  0 
 33 74  1  0  0  0  0 
 33 75  1  0  0  0  0 
 34 76  1  0  0  0  0 
 34 77  1  0  0  0  0 
 34 78  1  0  0  0  0 
 37 79  1  0  0  0  0 
 37 80  1  0  0  0  0 
 38 81  1  0  0  0  0 
 38 82  1  0  0  0  0 
 38 83  1  0  0  0  0 
 39 84  1  0  0  0  0 
 39 85  1  0  0  0  0 
 39 86  1  0  0  0  0 
 43 87  1  0  0  0  0 
 44 88  1  0  0  0  0 
 45 89  1  0  0  0  0 
 45 90  1  0  0  0  0 
 45 91  1  0  0  0  0 
 46 92  1  0  0  0  0 
 46 93  1  0  0  0  0 
 46 94  1  0  0  0  0 
 47 95  1  0  0  0  0 
 47 96  1  0  0  0  0 
 47 97  1  0  0  0  0 
 48 98  1  0  0  0  0 
 49 99  1  0  0  0  0 
M  END
> <cdk:Title>
bisoctrizole

> <Conformer>
1

> <SuperDrugID>
SD002633

$$$$
