ibudilast
  CDK     0628171801

 35 36  0  0  0  0  0  0  0  0999 V2000
    3.0324   -1.4130    0.0795 C   0  0  0  0  0  0  0  0  0  0  0  0
    3.3989   -0.1267    0.7334 C   0  0  1  0  0  0  0  0  0  0  0  0
    1.9135   -1.9283    0.3123 O   0  0  0  0  0  0  0  0  0  0  0  0
    3.8267   -2.0216   -0.9118 C   0  0  0  0  0  0  0  0  0  0  0  0
    2.5364    1.0297    0.1588 C   0  0  0  0  0  0  0  0  0  0  0  0
    3.2797   -0.1980    2.2814 C   0  0  0  0  0  0  0  0  0  0  0  0
    3.4906   -2.0880   -2.2635 C   0  0  0  0  0  0  0  0  0  0  0  0
    5.0621   -2.6842   -0.8154 C   0  0  0  0  0  0  0  0  0  0  0  0
    4.4857   -2.7414   -2.8972 N   0  0  0  0  0  0  0  0  0  0  0  0
    2.3759   -1.6070   -2.9819 C   0  0  0  0  0  0  0  0  0  0  0  0
    5.9388   -2.9910    0.3528 C   0  0  2  0  0  0  0  0  0  0  0  0
    5.3994   -3.0945   -2.0550 N   0  0  0  0  0  0  0  0  0  0  0  0
    4.4903   -2.9745   -4.2362 C   0  0  0  0  0  0  0  0  0  0  0  0
    2.3433   -1.8358   -4.3738 C   0  0  0  0  0  0  0  0  0  0  0  0
    5.2099   -3.8121    1.4476 C   0  0  0  0  0  0  0  0  0  0  0  0
    6.6835   -1.7518    0.9170 C   0  0  0  0  0  0  0  0  0  0  0  0
    3.4022   -2.5196   -5.0069 C   0  0  0  0  0  0  0  0  0  0  0  0
    4.4366    0.1206    0.4925 H   0  0  0  0  0  0  0  0  0  0  0  0
    2.6875    1.1098   -0.9204 H   0  0  0  0  0  0  0  0  0  0  0  0
    1.4728    0.8697    0.3503 H   0  0  0  0  0  0  0  0  0  0  0  0
    2.8268    1.9784    0.6148 H   0  0  0  0  0  0  0  0  0  0  0  0
    2.2499   -0.3988    2.5830 H   0  0  0  0  0  0  0  0  0  0  0  0
    3.9139   -0.9879    2.6842 H   0  0  0  0  0  0  0  0  0  0  0  0
    3.5906    0.7490    2.7294 H   0  0  0  0  0  0  0  0  0  0  0  0
    1.6118   -1.1091   -2.5191 H   0  0  0  0  0  0  0  0  0  0  0  0
    6.7338   -3.6464   -0.0210 H   0  0  0  0  0  0  0  0  0  0  0  0
    5.2687   -3.4701   -4.6797 H   0  0  0  0  0  0  0  0  0  0  0  0
    1.5503   -1.5044   -4.9296 H   0  0  0  0  0  0  0  0  0  0  0  0
    5.9143   -4.1138    2.2260 H   0  0  0  0  0  0  0  0  0  0  0  0
    4.4143   -3.2325    1.9115 H   0  0  0  0  0  0  0  0  0  0  0  0
    4.7740   -4.7138    1.0131 H   0  0  0  0  0  0  0  0  0  0  0  0
    7.5668   -2.0679    1.4780 H   0  0  0  0  0  0  0  0  0  0  0  0
    6.0530   -1.1794    1.5914 H   0  0  0  0  0  0  0  0  0  0  0  0
    7.0158   -1.0995    0.1069 H   0  0  0  0  0  0  0  0  0  0  0  0
    3.3843   -2.6825   -6.0156 H   0  0  0  0  0  0  0  0  0  0  0  0
  1  2  1  0  0  0  0 
  1  3  2  0  0  0  0 
  1  4  1  0  0  0  0 
  2  5  1  0  0  0  0 
  2  6  1  0  0  0  0 
  4  7  2  0  0  0  0 
  4  8  1  0  0  0  0 
  7  9  1  0  0  0  0 
  7 10  1  0  0  0  0 
  8 11  1  0  0  0  0 
  8 12  2  0  0  0  0 
  9 12  1  0  0  0  0 
  9 13  1  0  0  0  0 
 10 14  2  0  0  0  0 
 11 15  1  0  0  0  0 
 11 16  1  0  0  0  0 
 13 17  2  0  0  0  0 
 14 17  1  0  0  0  0 
 18  2  1  0  0  0  0 
 19  5  1  0  0  0  0 
 20  5  1  0  0  0  0 
 21  5  1  0  0  0  0 
 22  6  1  0  0  0  0 
 23  6  1  0  0  0  0 
 24  6  1  0  0  0  0 
 25 10  1  0  0  0  0 
 26 11  1  0  0  0  0 
 27 13  1  0  0  0  0 
 28 14  1  0  0  0  0 
 29 15  1  0  0  0  0 
 30 15  1  0  0  0  0 
 31 15  1  0  0  0  0 
 32 16  1  0  0  0  0 
 33 16  1  0  0  0  0 
 34 16  1  0  0  0  0 
 35 17  1  0  0  0  0 
M  END
> <cdk:Title>
ibudilast

> <Conformer>
1

> <SuperDrugID>
SD001249

$$$$
