cefradine
  CDK     0628171802

 43 45  0  0  0  0  0  0  0  0999 V2000
    0.3511   -0.7835    1.6780 O   0  0  0  0  0  0  0  0  0  0  0  0
   -0.7578   -0.6740    1.1065 C   0  0  0  0  0  0  0  0  0  0  0  0
   -1.1427   -0.7501   -0.1760 N   0  0  0  0  0  0  0  0  0  0  0  0
   -2.0836   -0.3106    1.6089 C   0  0  2  0  0  0  0  0  0  0  0  0
   -2.5072   -0.4896    0.1205 C   0  0  1  0  0  0  0  0  0  0  0  0
   -0.4927   -0.8721   -1.3541 C   0  0  0  0  0  0  0  0  0  0  0  0
   -2.1450    1.0217    2.1213 N   0  0  0  0  0  0  0  0  0  0  0  0
   -2.9558    0.9490   -0.8968 S   0  0  0  0  0  0  0  0  0  0  0  0
    0.7532   -1.4935   -1.3224 C   0  0  0  0  0  0  0  0  0  0  0  0
   -1.0497   -0.3692   -2.4939 C   0  0  0  0  0  0  0  0  0  0  0  0
   -1.5844    1.4264    3.2921 C   0  0  0  0  0  0  0  0  0  0  0  0
   -2.3349    0.3584   -2.5135 C   0  0  1  0  0  0  0  0  0  0  0  0
    1.8302   -0.9548   -1.9415 O   0  0  0  0  0  0  0  0  0  0  0  0
    0.9142   -2.5647   -0.6950 O   0  0  0  0  0  0  0  0  0  0  0  0
   -0.3999   -0.5073   -3.8027 C   0  0  0  0  0  0  0  0  0  0  0  0
   -1.6708    2.8542    3.6784 C   0  0  2  0  0  0  0  0  0  0  0  0
   -1.0025    0.6087    4.0467 O   0  0  0  0  0  0  0  0  0  0  0  0
   -0.4713    3.2720    4.4253 N   0  0  2  0  0  0  0  0  0  0  0  0
   -2.9143    3.1069    4.4230 C   0  0  0  0  0  0  0  0  0  0  0  0
   -3.0093    2.7005    5.8351 C   0  0  2  0  0  0  0  0  0  0  0  0
   -3.9748    3.6838    3.8152 C   0  0  0  0  0  0  0  0  0  0  0  0
   -4.2775    2.9486    6.5004 C   0  0  0  0  0  0  0  0  0  0  0  0
   -5.2532    3.9165    4.4747 C   0  0  1  0  0  0  0  0  0  0  0  0
   -5.3155    3.5178    5.8711 C   0  0  0  0  0  0  0  0  0  0  0  0
   -3.1463   -1.3597   -0.0658 H   0  0  0  0  0  0  0  0  0  0  0  0
   -2.5065   -1.0665    2.2748 H   0  0  0  0  0  0  0  0  0  0  0  0
   -2.6093    1.6904    1.5939 H   0  0  0  0  0  0  0  0  0  0  0  0
   -3.0978   -0.3008   -2.9334 H   0  0  0  0  0  0  0  0  0  0  0  0
   -2.2626    1.2457   -3.1473 H   0  0  0  0  0  0  0  0  0  0  0  0
    2.6980   -1.4049   -1.9167 H   0  0  0  0  0  0  0  0  0  0  0  0
   -1.0989   -0.3798   -4.6338 H   0  0  0  0  0  0  0  0  0  0  0  0
    0.3859    0.2467   -3.9006 H   0  0  0  0  0  0  0  0  0  0  0  0
    0.0452   -1.4976   -3.9266 H   0  0  0  0  0  0  0  0  0  0  0  0
   -1.6316    3.4535    2.7633 H   0  0  0  0  0  0  0  0  0  0  0  0
    0.3326    3.1203    3.8119 H   0  0  0  0  0  0  0  0  0  0  0  0
   -0.3660    2.6256    5.2124 H   0  0  0  0  0  0  0  0  0  0  0  0
   -2.2466    3.2335    6.4075 H   0  0  0  0  0  0  0  0  0  0  0  0
   -2.8093    1.6298    5.9060 H   0  0  0  0  0  0  0  0  0  0  0  0
   -3.9086    3.9625    2.8628 H   0  0  0  0  0  0  0  0  0  0  0  0
   -4.3706    2.6878    7.4550 H   0  0  0  0  0  0  0  0  0  0  0  0
   -5.4910    4.9810    4.4067 H   0  0  0  0  0  0  0  0  0  0  0  0
   -6.0220    3.3617    3.9306 H   0  0  0  0  0  0  0  0  0  0  0  0
   -6.1593    3.6739    6.3727 H   0  0  0  0  0  0  0  0  0  0  0  0
  1  2  2  0  0  0  0 
  2  3  1  0  0  0  0 
  4  2  1  0  0  0  0 
  5  3  1  0  0  0  0 
  3  6  1  0  0  0  0 
  5  4  1  0  0  0  0 
  4  7  1  0  0  0  0 
  5  8  1  0  0  0  0 
  5 25  1  0  0  0  0 
  6  9  1  0  0  0  0 
  6 10  2  0  0  0  0 
  7 11  1  0  0  0  0 
  8 12  1  0  0  0  0 
  9 13  1  0  0  0  0 
  9 14  2  0  0  0  0 
 10 12  1  0  0  0  0 
 10 15  1  0  0  0  0 
 16 11  1  0  0  0  0 
 11 17  2  0  0  0  0 
 16 18  1  0  0  0  0 
 16 19  1  0  0  0  0 
 19 20  1  0  0  0  0 
 19 21  2  0  0  0  0 
 20 22  1  0  0  0  0 
 21 23  1  0  0  0  0 
 22 24  2  0  0  0  0 
 23 24  1  0  0  0  0 
  4 26  1  0  0  0  0 
  7 27  1  0  0  0  0 
 12 28  1  0  0  0  0 
 12 29  1  0  0  0  0 
 13 30  1  0  0  0  0 
 15 31  1  0  0  0  0 
 15 32  1  0  0  0  0 
 15 33  1  0  0  0  0 
 16 34  1  0  0  0  0 
 18 35  1  0  0  0  0 
 18 36  1  0  0  0  0 
 20 37  1  0  0  0  0 
 20 38  1  0  0  0  0 
 21 39  1  0  0  0  0 
 22 40  1  0  0  0  0 
 23 41  1  0  0  0  0 
 23 42  1  0  0  0  0 
 24 43  1  0  0  0  0 
M  END
> <cdk:Title>
cefradine

> <Conformer>
1

> <SuperDrugID>
SD000503

$$$$
