alsactide
  CDK     0628171801

305310  0  0  0  0  0  0  0  0999 V2000
   -9.9925    4.9744   -1.1266 C   0  0  0  0  0  0  0  0  0  0  0  0
   -9.3822    3.7557   -1.0665 N   0  0  0  0  0  0  0  0  0  0  0  0
   -6.7363    3.7291   -2.3710 N   0  0  0  0  0  0  0  0  0  0  0  0
   -4.3570    2.0987   -3.8658 N   0  0  0  0  0  0  0  0  0  0  0  0
   -1.7569   -0.3965   -4.5735 N   0  0  0  0  0  0  0  0  0  0  0  0
   -1.6527   -2.1894   -7.2434 N   0  0  0  0  0  0  0  0  0  0  0  0
   -3.0902   -2.0516   -9.7663 N   0  0  0  0  0  0  0  0  0  0  0  0
   -1.2602   -0.5578  -11.6155 N   0  0  0  0  0  0  0  0  0  0  0  0
    0.4547    0.9593  -14.0565 N   0  0  0  0  0  0  0  0  0  0  0  0
    1.9078    2.7357  -16.5892 N   0  0  0  0  0  0  0  0  0  0  0  0
    2.1044    3.9958  -19.9743 N   0  0  0  0  0  0  0  0  0  0  0  0
   -0.4523    2.5100  -20.7650 N   0  0  0  0  0  0  0  0  0  0  0  0
   -4.0719    1.7145  -20.4686 N   0  0  0  0  0  0  0  0  0  0  0  0
   -6.5165    0.0146  -20.5624 N   0  0  0  0  0  0  0  0  0  0  0  0
   -6.0251   -2.7913  -21.4439 N   0  0  0  0  0  0  0  0  0  0  0  0
   -3.9670   -4.4135  -19.4777 N   0  0  0  0  0  0  0  0  0  0  0  0
   -2.3239   -6.3089  -17.9224 N   0  0  0  0  0  0  0  0  0  0  0  0
    0.0495   -8.2160  -16.3222 N   0  0  0  0  0  0  0  0  0  0  0  0
    1.3837   -8.7171  -16.3911 C   0  0  2  0  0  0  0  0  0  0  0  0
    2.0504   -8.6630  -14.9931 C   0  0  2  0  0  0  0  0  0  0  0  0
    3.4336   -9.3669  -14.9595 C   0  0  2  0  0  0  0  0  0  0  0  0
    4.1438   -9.2168  -13.5933 C   0  0  2  0  0  0  0  0  0  0  0  0
    5.4504   -9.8849  -13.6053 N   0  0  1  0  0  0  0  0  0  0  0  0
  -10.2720    5.5244   -2.2180 O   0  0  0  0  0  0  0  0  0  0  0  0
  -10.3352    5.6730    0.1314 C   0  0  1  0  0  0  0  0  0  0  0  0
  -11.3486    4.8774    0.9897 C   0  0  2  0  0  0  0  0  0  0  0  0
  -11.7108    5.6238    2.1997 N   0  0  1  0  0  0  0  0  0  0  0  0
   -7.9313    3.4906   -2.9770 C   0  0  0  0  0  0  0  0  0  0  0  0
  -10.2553    2.4074   -2.9894 C   0  0  2  0  0  0  0  0  0  0  0  0
  -11.3023    1.7416   -2.1590 C   0  0  0  0  0  0  0  0  0  0  0  0
  -11.0713    0.4741   -1.5726 C   0  0  0  0  0  0  0  0  0  0  0  0
  -12.0430   -0.1348   -0.7563 C   0  0  0  0  0  0  0  0  0  0  0  0
  -13.2636    0.5171   -0.5047 C   0  0  0  0  0  0  0  0  0  0  0  0
  -14.1959   -0.0459    0.3046 O   0  0  0  0  0  0  0  0  0  0  0  0
  -13.5182    1.7659   -1.0989 C   0  0  0  0  0  0  0  0  0  0  0  0
  -12.5490    2.3684   -1.9239 C   0  0  0  0  0  0  0  0  0  0  0  0
   -9.0247    2.9017   -2.1622 C   0  0  2  0  0  0  0  0  0  0  0  0
   -8.0847    3.7095   -4.2027 O   0  0  0  0  0  0  0  0  0  0  0  0
   -4.6069    2.9339   -2.8178 C   0  0  0  0  0  0  0  0  0  0  0  0
   -4.9674    5.4171   -2.4440 C   0  0  2  0  0  0  0  0  0  0  0  0
   -3.7610    5.7865   -3.1019 O   0  0  0  0  0  0  0  0  0  0  0  0
   -5.5125    4.0898   -3.0206 C   0  0  2  0  0  0  0  0  0  0  0  0
   -4.1626    2.6902   -1.6693 O   0  0  0  0  0  0  0  0  0  0  0  0
   -2.5825    0.6767   -4.7292 C   0  0  0  0  0  0  0  0  0  0  0  0
   -5.5617   -0.1394   -5.4388 C   0  0  1  0  0  0  0  0  0  0  0  0
   -4.8212   -0.2749   -4.0789 C   0  0  2  0  0  0  0  0  0  0  0  0
   -3.7325    0.8082   -3.7999 C   0  0  2  0  0  0  0  0  0  0  0  0
   -7.6369   -1.0535   -7.1949 C   0  0  0  0  0  0  0  0  0  0  0  0
   -6.7560   -1.4981   -5.6669 S   0  0  0  0  0  0  0  0  0  0  0  0
   -2.4044    1.5074   -5.6519 O   0  0  0  0  0  0  0  0  0  0  0  0
   -1.1522   -2.1183   -5.9801 C   0  0  0  0  0  0  0  0  0  0  0  0
    0.6429   -0.8714   -4.6597 C   0  0  2  0  0  0  0  0  0  0  0  0
    1.8720   -1.2395   -5.5350 C   0  0  1  0  0  0  0  0  0  0  0  0
    3.1022   -1.3675   -4.7291 C   0  0  0  0  0  0  0  0  0  0  0  0
    3.7409   -2.5573   -4.6328 O   0  0  0  0  0  0  0  0  0  0  0  0
    3.5722   -0.3824   -4.1147 O   0  0  0  0  0  0  0  0  0  0  0  0
   -0.6992   -0.8102   -5.4472 C   0  0  2  0  0  0  0  0  0  0  0  0
   -1.1508   -3.1265   -5.2326 O   0  0  0  0  0  0  0  0  0  0  0  0
   -2.3792   -3.1096   -9.2839 C   0  0  0  0  0  0  0  0  0  0  0  0
   -3.7326   -3.5038   -7.1873 C   0  0  2  0  0  0  0  0  0  0  0  0
   -4.5811   -4.5129   -7.8564 C   0  0  0  0  0  0  0  0  0  0  0  0
   -4.3718   -5.8856   -7.9207 C   0  0  0  0  0  0  0  0  0  0  0  0
   -5.3515   -6.4426   -8.6514 N   0  0  0  0  0  0  0  0  0  0  0  0
   -6.1616   -5.4375   -9.0253 C   0  0  0  0  0  0  0  0  0  0  0  0
   -5.7094   -4.2753   -8.5371 N   0  0  0  0  0  0  0  0  0  0  0  0
   -2.3140   -3.3246   -7.8186 C   0  0  2  0  0  0  0  0  0  0  0  0
   -1.7995   -3.9179  -10.0483 O   0  0  0  0  0  0  0  0  0  0  0  0
   -2.6129   -0.4940  -11.4312 C   0  0  0  0  0  0  0  0  0  0  0  0
   -4.8988   -1.7295  -11.3765 C   0  0  2  0  0  0  0  0  0  0  0  0
   -5.3312   -2.4311  -12.6147 C   0  0  0  0  0  0  0  0  0  0  0  0
   -5.1229   -3.8257  -12.7366 C   0  0  0  0  0  0  0  0  0  0  0  0
   -5.5202   -4.5114  -13.8973 C   0  0  0  0  0  0  0  0  0  0  0  0
   -6.1406   -3.8135  -14.9492 C   0  0  0  0  0  0  0  0  0  0  0  0
   -6.3664   -2.4301  -14.8376 C   0  0  0  0  0  0  0  0  0  0  0  0
   -5.9689   -1.7435  -13.6754 C   0  0  0  0  0  0  0  0  0  0  0  0
   -3.3438   -1.7518  -11.1435 C   0  0  2  0  0  0  0  0  0  0  0  0
   -3.2123    0.6082  -11.4431 O   0  0  0  0  0  0  0  0  0  0  0  0
    0.5777    0.2923  -12.8699 C   0  0  0  0  0  0  0  0  0  0  0  0
    0.2920    0.8454  -10.3927 C   0  0  2  0  0  0  0  0  0  0  0  0
    0.9889    2.2279  -10.2874 C   0  0  1  0  0  0  0  0  0  0  0  0
    1.5635    2.4826   -8.8683 C   0  0  2  0  0  0  0  0  0  0  0  0
    2.0297    3.7933   -8.7643 N   0  0  0  0  0  0  0  0  0  0  0  0
    2.5105    4.4012   -7.7375 C   0  0  0  0  0  0  0  0  0  0  0  0
    2.6447    3.8518   -6.5445 N   0  0  0  0  0  0  0  0  0  0  0  0
    2.8890    5.6507   -7.8762 N   0  0  0  0  0  0  0  0  0  0  0  0
   -0.3834    0.5679  -11.7703 C   0  0  2  0  0  0  0  0  0  0  0  0
    1.4708   -0.5725  -12.7025 O   0  0  0  0  0  0  0  0  0  0  0  0
    0.9266    1.8835  -16.1837 C   0  0  0  0  0  0  0  0  0  0  0  0
    0.9829   -0.6176  -15.8943 C   0  0  1  0  0  0  0  0  0  0  0  0
    1.8357   -0.9340  -17.0631 C   0  0  0  0  0  0  0  0  0  0  0  0
    1.4295   -0.9740  -18.4002 C   0  0  0  0  0  0  0  0  0  0  0  0
    2.4757   -1.2884  -19.1845 N   0  0  0  0  0  0  0  0  0  0  0  0
    3.5509   -1.4830  -18.4081 C   0  0  0  0  0  0  0  0  0  0  0  0
    3.1876   -1.2771  -17.0764 C   0  0  0  0  0  0  0  0  0  0  0  0
    4.1271   -1.4372  -16.0414 C   0  0  0  0  0  0  0  0  0  0  0  0
    5.4460   -1.8074  -16.3791 C   0  0  0  0  0  0  0  0  0  0  0  0
    5.8130   -2.0013  -17.7309 C   0  0  0  0  0  0  0  0  0  0  0  0
    4.8634   -1.8376  -18.7611 C   0  0  0  0  0  0  0  0  0  0  0  0
    1.2493    0.7757  -15.2402 C   0  0  2  0  0  0  0  0  0  0  0  0
   -0.2491    2.0165  -16.6040 O   0  0  0  0  0  0  0  0  0  0  0  0
    2.5111    3.6570  -18.7186 C   0  0  0  0  0  0  0  0  0  0  0  0
    1.7618    3.8664  -17.4582 C   0  0  2  0  0  0  0  0  0  0  0  0
    3.6539    3.1473  -18.6558 O   0  0  0  0  0  0  0  0  0  0  0  0
   -0.3368    3.8369  -20.3646 C   0  0  0  0  0  0  0  0  0  0  0  0
    0.3146    6.8897  -23.6665 C   0  0  1  0  0  0  0  0  0  0  0  0
   -0.0322    6.1414  -22.3513 C   0  0  1  0  0  0  0  0  0  0  0  0
    1.1391    5.2689  -21.8097 C   0  0  2  0  0  0  0  0  0  0  0  0
    0.9069    4.6719  -20.3838 C   0  0  2  0  0  0  0  0  0  0  0  0
   -0.4911    8.4672  -25.4113 N   0  0  1  0  0  0  0  0  0  0  0  0
   -0.8724    7.7272  -24.2038 C   0  0  1  0  0  0  0  0  0  0  0  0
   -1.3717    4.4661  -20.0346 O   0  0  0  0  0  0  0  0  0  0  0  0
   -2.8044    1.9441  -20.0270 C   0  0  0  0  0  0  0  0  0  0  0  0
   -1.7100    1.8428  -21.0224 C   0  0  2  0  0  0  0  0  0  0  0  0
   -1.3522    0.3609  -21.2672 C   0  0  2  0  0  0  0  0  0  0  0  0
    0.0818    0.4340  -21.7977 C   0  0  2  0  0  0  0  0  0  0  0  0
    0.6623    1.6648  -21.0801 C   0  0  1  0  0  0  0  0  0  0  0  0
   -2.5546    2.2546  -18.8384 O   0  0  0  0  0  0  0  0  0  0  0  0
   -6.0883    0.7951  -19.5269 C   0  0  0  0  0  0  0  0  0  0  0  0
   -6.6173    2.7456  -21.9491 C   0  0  0  0  0  0  0  0  0  0  0  0
   -5.2846    2.0228  -19.7722 C   0  0  2  0  0  0  0  0  0  0  0  0
   -7.1056    3.8678  -19.7075 C   0  0  0  0  0  0  0  0  0  0  0  0
   -6.0230    3.1638  -20.5704 C   0  0  2  0  0  0  0  0  0  0  0  0
   -6.3770    0.4898  -18.3432 O   0  0  0  0  0  0  0  0  0  0  0  0
   -6.7851   -2.3658  -20.3947 C   0  0  0  0  0  0  0  0  0  0  0  0
   -7.4568   -1.0567  -20.4658 C   0  0  2  0  0  0  0  0  0  0  0  0
   -6.9345   -3.0703  -19.3678 O   0  0  0  0  0  0  0  0  0  0  0  0
   -4.0558   -3.8338  -20.7078 C   0  0  0  0  0  0  0  0  0  0  0  0
   -4.8024   -6.4291  -24.6246 C   0  0  1  0  0  0  0  0  0  0  0  0
   -4.6958   -5.9598  -23.1474 C   0  0  2  0  0  0  0  0  0  0  0  0
   -5.1124   -4.4717  -22.9709 C   0  0  2  0  0  0  0  0  0  0  0  0
   -5.3032   -4.0300  -21.4898 C   0  0  2  0  0  0  0  0  0  0  0  0
   -4.7266   -8.3229  -26.2229 N   0  0  1  0  0  0  0  0  0  0  0  0
   -4.5600   -7.9467  -24.8113 C   0  0  1  0  0  0  0  0  0  0  0  0
   -3.1778   -3.0358  -21.1174 O   0  0  0  0  0  0  0  0  0  0  0  0
   -2.9571   -5.1796  -17.4930 C   0  0  0  0  0  0  0  0  0  0  0  0
   -3.3058   -0.6065  -16.3607 C   0  0  2  0  0  0  0  0  0  0  0  0
   -2.8723   -2.0844  -16.6036 C   0  0  2  0  0  0  0  0  0  0  0  0
   -3.6522   -2.7125  -17.7938 C   0  0  1  0  0  0  0  0  0  0  0  0
   -3.0744   -4.0252  -18.4207 C   0  0  2  0  0  0  0  0  0  0  0  0
   -3.3550    1.3474  -14.8401 N   0  0  2  0  0  0  0  0  0  0  0  0
   -2.9273   -0.0508  -14.9699 C   0  0  1  0  0  0  0  0  0  0  0  0
   -3.4595   -5.1367  -16.3450 O   0  0  0  0  0  0  0  0  0  0  0  0
   -0.7735   -8.0254  -17.3899 C   0  0  0  0  0  0  0  0  0  0  0  0
   -4.3722  -10.8332  -17.2136 C   0  0  2  0  0  0  0  0  0  0  0  0
   -3.2590   -9.8514  -16.7581 C   0  0  2  0  0  0  0  0  0  0  0  0
   -3.2491   -8.5429  -17.5967 C   0  0  1  0  0  0  0  0  0  0  0  0
   -2.1523   -7.5222  -17.1710 C   0  0  2  0  0  0  0  0  0  0  0  0
   -5.5055  -13.0036  -16.8164 N   0  0  2  0  0  0  0  0  0  0  0  0
   -4.4314  -12.1166  -16.3524 C   0  0  1  0  0  0  0  0  0  0  0  0
   -0.3847   -8.2793  -18.5558 O   0  0  0  0  0  0  0  0  0  0  0  0
   -9.1668    3.4228   -0.1816 H   0  0  0  0  0  0  0  0  0  0  0  0
   -6.6955    3.5880   -1.4123 H   0  0  0  0  0  0  0  0  0  0  0  0
   -4.6844    2.3780   -4.7357 H   0  0  0  0  0  0  0  0  0  0  0  0
   -1.9292   -0.9687   -3.8083 H   0  0  0  0  0  0  0  0  0  0  0  0
   -1.6066   -1.3822   -7.7811 H   0  0  0  0  0  0  0  0  0  0  0  0
   -3.4838   -1.4540   -9.1088 H   0  0  0  0  0  0  0  0  0  0  0  0
   -0.8558   -1.4416  -11.6064 H   0  0  0  0  0  0  0  0  0  0  0  0
   -0.2678    1.6030  -14.1133 H   0  0  0  0  0  0  0  0  0  0  0  0
    2.8022    2.5632  -16.2541 H   0  0  0  0  0  0  0  0  0  0  0  0
    2.7148    3.7540  -20.6883 H   0  0  0  0  0  0  0  0  0  0  0  0
   -4.1604    1.3734  -21.3729 H   0  0  0  0  0  0  0  0  0  0  0  0
   -6.1829    0.2305  -21.4493 H   0  0  0  0  0  0  0  0  0  0  0  0
   -5.9516   -2.1997  -22.2096 H   0  0  0  0  0  0  0  0  0  0  0  0
   -4.6376   -5.0793  -19.2609 H   0  0  0  0  0  0  0  0  0  0  0  0
   -1.9641   -6.2964  -18.8245 H   0  0  0  0  0  0  0  0  0  0  0  0
   -0.3045   -8.0109  -15.4426 H   0  0  0  0  0  0  0  0  0  0  0  0
    1.9700   -8.1135  -17.0910 H   0  0  0  0  0  0  0  0  0  0  0  0
    1.3575   -9.7491  -16.7524 H   0  0  0  0  0  0  0  0  0  0  0  0
    1.3937   -9.1425  -14.2609 H   0  0  0  0  0  0  0  0  0  0  0  0
    2.1702   -7.6138  -14.7068 H   0  0  0  0  0  0  0  0  0  0  0  0
    4.0733   -8.9434  -15.7377 H   0  0  0  0  0  0  0  0  0  0  0  0
    3.2943  -10.4306  -15.1710 H   0  0  0  0  0  0  0  0  0  0  0  0
    3.5340   -9.6565  -12.7999 H   0  0  0  0  0  0  0  0  0  0  0  0
    4.3024   -8.1595  -13.3703 H   0  0  0  0  0  0  0  0  0  0  0  0
    5.8765   -9.7222  -12.6906 H   0  0  0  0  0  0  0  0  0  0  0  0
    5.2731  -10.8900  -13.6732 H   0  0  0  0  0  0  0  0  0  0  0  0
   -9.4164    5.8173    0.7014 H   0  0  0  0  0  0  0  0  0  0  0  0
  -10.7503    6.6623   -0.0861 H   0  0  0  0  0  0  0  0  0  0  0  0
  -10.9124    3.9240    1.2954 H   0  0  0  0  0  0  0  0  0  0  0  0
  -12.2587    4.6819    0.4159 H   0  0  0  0  0  0  0  0  0  0  0  0
  -12.3360    5.0264    2.7449 H   0  0  0  0  0  0  0  0  0  0  0  0
  -10.8543    5.7372    2.7478 H   0  0  0  0  0  0  0  0  0  0  0  0
  -10.6720    3.2582   -3.5363 H   0  0  0  0  0  0  0  0  0  0  0  0
   -9.9175    1.6972   -3.7491 H   0  0  0  0  0  0  0  0  0  0  0  0
  -10.1891   -0.0158   -1.7363 H   0  0  0  0  0  0  0  0  0  0  0  0
  -11.8574   -1.0526   -0.3427 H   0  0  0  0  0  0  0  0  0  0  0  0
  -13.7773   -0.8458    0.6906 H   0  0  0  0  0  0  0  0  0  0  0  0
  -14.4066    2.2408   -0.9235 H   0  0  0  0  0  0  0  0  0  0  0  0
  -12.7587    3.2787   -2.3392 H   0  0  0  0  0  0  0  0  0  0  0  0
   -8.5864    2.0146   -1.6990 H   0  0  0  0  0  0  0  0  0  0  0  0
   -5.7002    6.2119   -2.5982 H   0  0  0  0  0  0  0  0  0  0  0  0
   -4.7763    5.3271   -1.3720 H   0  0  0  0  0  0  0  0  0  0  0  0
   -3.4930    6.6249   -2.6728 H   0  0  0  0  0  0  0  0  0  0  0  0
   -5.6678    4.2433   -4.0943 H   0  0  0  0  0  0  0  0  0  0  0  0
   -6.1105    0.8046   -5.4754 H   0  0  0  0  0  0  0  0  0  0  0  0
   -4.8484   -0.1613   -6.2653 H   0  0  0  0  0  0  0  0  0  0  0  0
   -4.3632   -1.2662   -4.0220 H   0  0  0  0  0  0  0  0  0  0  0  0
   -5.5658   -0.2201   -3.2794 H   0  0  0  0  0  0  0  0  0  0  0  0
   -3.3440    0.6298   -2.7912 H   0  0  0  0  0  0  0  0  0  0  0  0
   -8.3759   -1.8240   -7.4181 H   0  0  0  0  0  0  0  0  0  0  0  0
   -6.9338   -0.9793   -8.0257 H   0  0  0  0  0  0  0  0  0  0  0  0
   -8.1462   -0.0981   -7.0604 H   0  0  0  0  0  0  0  0  0  0  0  0
    0.8216    0.1114   -4.2118 H   0  0  0  0  0  0  0  0  0  0  0  0
    0.5556   -1.5935   -3.8411 H   0  0  0  0  0  0  0  0  0  0  0  0
    1.6844   -2.1856   -6.0489 H   0  0  0  0  0  0  0  0  0  0  0  0
    2.0321   -0.4697   -6.2944 H   0  0  0  0  0  0  0  0  0  0  0  0
    4.5546   -2.6369   -4.0918 H   0  0  0  0  0  0  0  0  0  0  0  0
   -0.5725   -0.0986   -6.2706 H   0  0  0  0  0  0  0  0  0  0  0  0
   -3.6335   -3.7940   -6.1387 H   0  0  0  0  0  0  0  0  0  0  0  0
   -4.2550   -2.5446   -7.2129 H   0  0  0  0  0  0  0  0  0  0  0  0
   -3.5998   -6.3909   -7.4848 H   0  0  0  0  0  0  0  0  0  0  0  0
   -6.9993   -5.5423   -9.5994 H   0  0  0  0  0  0  0  0  0  0  0  0
   -6.1272   -3.4080   -8.6634 H   0  0  0  0  0  0  0  0  0  0  0  0
   -1.7225   -4.2253   -7.6161 H   0  0  0  0  0  0  0  0  0  0  0  0
   -5.4137   -2.2243  -10.5480 H   0  0  0  0  0  0  0  0  0  0  0  0
   -5.2763   -0.7053  -11.3766 H   0  0  0  0  0  0  0  0  0  0  0  0
   -4.6802   -4.3513  -11.9773 H   0  0  0  0  0  0  0  0  0  0  0  0
   -5.3601   -5.5184  -13.9716 H   0  0  0  0  0  0  0  0  0  0  0  0
   -6.4302   -4.3111  -15.7941 H   0  0  0  0  0  0  0  0  0  0  0  0
   -6.8216   -1.9239  -15.6006 H   0  0  0  0  0  0  0  0  0  0  0  0
   -6.1459   -0.7375  -13.6127 H   0  0  0  0  0  0  0  0  0  0  0  0
   -2.8994   -2.5187  -11.7862 H   0  0  0  0  0  0  0  0  0  0  0  0
   -0.4791    0.8062   -9.6156 H   0  0  0  0  0  0  0  0  0  0  0  0
    1.0196    0.0586  -10.1735 H   0  0  0  0  0  0  0  0  0  0  0  0
    1.7987    2.2814  -11.0216 H   0  0  0  0  0  0  0  0  0  0  0  0
    0.2603    3.0121  -10.5188 H   0  0  0  0  0  0  0  0  0  0  0  0
    2.3853    1.7841   -8.6865 H   0  0  0  0  0  0  0  0  0  0  0  0
    0.7814    2.3140   -8.1186 H   0  0  0  0  0  0  0  0  0  0  0  0
    2.3488    2.9428   -6.3819 H   0  0  0  0  0  0  0  0  0  0  0  0
    3.0433    4.3601   -5.8201 H   0  0  0  0  0  0  0  0  0  0  0  0
    3.2374    6.1359   -7.1116 H   0  0  0  0  0  0  0  0  0  0  0  0
    2.8272    6.0940   -8.7369 H   0  0  0  0  0  0  0  0  0  0  0  0
   -0.9656    1.4553  -12.0377 H   0  0  0  0  0  0  0  0  0  0  0  0
   -0.0581   -0.6614  -16.2105 H   0  0  0  0  0  0  0  0  0  0  0  0
    1.1210   -1.4118  -15.1592 H   0  0  0  0  0  0  0  0  0  0  0  0
    0.4836   -0.7917  -18.7379 H   0  0  0  0  0  0  0  0  0  0  0  0
    2.4558   -1.3644  -20.1521 H   0  0  0  0  0  0  0  0  0  0  0  0
    3.8646   -1.2912  -15.0657 H   0  0  0  0  0  0  0  0  0  0  0  0
    6.1429   -1.9346  -15.6427 H   0  0  0  0  0  0  0  0  0  0  0  0
    6.7731   -2.2593  -17.9650 H   0  0  0  0  0  0  0  0  0  0  0  0
    5.1245   -1.9724  -19.7396 H   0  0  0  0  0  0  0  0  0  0  0  0
    2.3024    0.8442  -14.9468 H   0  0  0  0  0  0  0  0  0  0  0  0
    2.1939    4.7279  -16.9437 H   0  0  0  0  0  0  0  0  0  0  0  0
    0.7126    4.0921  -17.6580 H   0  0  0  0  0  0  0  0  0  0  0  0
    1.1611    7.5574  -23.4848 H   0  0  0  0  0  0  0  0  0  0  0  0
    0.6090    6.1634  -24.4297 H   0  0  0  0  0  0  0  0  0  0  0  0
   -0.3122    6.8765  -21.5912 H   0  0  0  0  0  0  0  0  0  0  0  0
   -0.8971    5.4995  -22.5396 H   0  0  0  0  0  0  0  0  0  0  0  0
    2.0414    5.8881  -21.7782 H   0  0  0  0  0  0  0  0  0  0  0  0
    1.3243    4.4594  -22.5208 H   0  0  0  0  0  0  0  0  0  0  0  0
    0.7836    5.5292  -19.7108 H   0  0  0  0  0  0  0  0  0  0  0  0
   -1.2991    9.0363  -25.6754 H   0  0  0  0  0  0  0  0  0  0  0  0
    0.2492    9.1183  -25.1398 H   0  0  0  0  0  0  0  0  0  0  0  0
   -1.7119    7.0736  -24.4520 H   0  0  0  0  0  0  0  0  0  0  0  0
   -1.1995    8.4485  -23.4508 H   0  0  0  0  0  0  0  0  0  0  0  0
   -2.0735    2.2714  -21.9650 H   0  0  0  0  0  0  0  0  0  0  0  0
   -2.0257   -0.1096  -21.9900 H   0  0  0  0  0  0  0  0  0  0  0  0
   -1.3699   -0.2156  -20.3367 H   0  0  0  0  0  0  0  0  0  0  0  0
    0.0687    0.5952  -22.8814 H   0  0  0  0  0  0  0  0  0  0  0  0
    0.6454   -0.4756  -21.5764 H   0  0  0  0  0  0  0  0  0  0  0  0
    1.3816    2.1508  -21.7421 H   0  0  0  0  0  0  0  0  0  0  0  0
    1.1635    1.3668  -20.1554 H   0  0  0  0  0  0  0  0  0  0  0  0
   -5.9075    2.1473  -22.5211 H   0  0  0  0  0  0  0  0  0  0  0  0
   -6.8580    3.6314  -22.5422 H   0  0  0  0  0  0  0  0  0  0  0  0
   -7.5348    2.1689  -21.8212 H   0  0  0  0  0  0  0  0  0  0  0  0
   -5.0292    2.4443  -18.7946 H   0  0  0  0  0  0  0  0  0  0  0  0
   -6.6479    4.3316  -18.8312 H   0  0  0  0  0  0  0  0  0  0  0  0
   -7.6053    4.6548  -20.2786 H   0  0  0  0  0  0  0  0  0  0  0  0
   -7.8561    3.1498  -19.3727 H   0  0  0  0  0  0  0  0  0  0  0  0
   -5.2732    3.9341  -20.7900 H   0  0  0  0  0  0  0  0  0  0  0  0
   -8.0819   -1.0287  -21.3612 H   0  0  0  0  0  0  0  0  0  0  0  0
   -8.1269   -0.9146  -19.6106 H   0  0  0  0  0  0  0  0  0  0  0  0
   -5.8054   -6.2085  -24.9987 H   0  0  0  0  0  0  0  0  0  0  0  0
   -4.0809   -5.8752  -25.2319 H   0  0  0  0  0  0  0  0  0  0  0  0
   -3.6696   -6.0905  -22.7927 H   0  0  0  0  0  0  0  0  0  0  0  0
   -5.3502   -6.5887  -22.5373 H   0  0  0  0  0  0  0  0  0  0  0  0
   -6.0740   -4.3351  -23.4765 H   0  0  0  0  0  0  0  0  0  0  0  0
   -4.3870   -3.8247  -23.4739 H   0  0  0  0  0  0  0  0  0  0  0  0
   -5.9172   -4.8015  -21.0117 H   0  0  0  0  0  0  0  0  0  0  0  0
   -4.6291   -9.3412  -26.2773 H   0  0  0  0  0  0  0  0  0  0  0  0
   -5.6952   -8.1086  -26.4771 H   0  0  0  0  0  0  0  0  0  0  0  0
   -3.5482   -8.2133  -24.4956 H   0  0  0  0  0  0  0  0  0  0  0  0
   -5.2775   -8.5199  -24.2165 H   0  0  0  0  0  0  0  0  0  0  0  0
   -4.3917   -0.5253  -16.4577 H   0  0  0  0  0  0  0  0  0  0  0  0
   -2.8536    0.0229  -17.1315 H   0  0  0  0  0  0  0  0  0  0  0  0
   -3.0649   -2.6669  -15.6989 H   0  0  0  0  0  0  0  0  0  0  0  0
   -1.7999   -2.1259  -16.8070 H   0  0  0  0  0  0  0  0  0  0  0  0
   -4.6777   -2.8968  -17.4599 H   0  0  0  0  0  0  0  0  0  0  0  0
   -3.7009   -1.9628  -18.5888 H   0  0  0  0  0  0  0  0  0  0  0  0
   -2.0766   -3.8153  -18.8197 H   0  0  0  0  0  0  0  0  0  0  0  0
   -2.8170    1.8909  -15.5175 H   0  0  0  0  0  0  0  0  0  0  0  0
   -3.0723    1.6667  -13.9122 H   0  0  0  0  0  0  0  0  0  0  0  0
   -3.4174   -0.6346  -14.1925 H   0  0  0  0  0  0  0  0  0  0  0  0
   -1.8548   -0.1058  -14.8099 H   0  0  0  0  0  0  0  0  0  0  0  0
   -4.1973  -11.1147  -18.2563 H   0  0  0  0  0  0  0  0  0  0  0  0
   -5.3406  -10.3288  -17.1536 H   0  0  0  0  0  0  0  0  0  0  0  0
   -2.2900  -10.3492  -16.8479 H   0  0  0  0  0  0  0  0  0  0  0  0
   -3.4156   -9.5971  -15.7056 H   0  0  0  0  0  0  0  0  0  0  0  0
   -3.1285   -8.7939  -18.6543 H   0  0  0  0  0  0  0  0  0  0  0  0
   -4.2268   -8.0635  -17.4831 H   0  0  0  0  0  0  0  0  0  0  0  0
   -2.2854   -7.3196  -16.1028 H   0  0  0  0  0  0  0  0  0  0  0  0
   -6.3911  -12.5228  -16.6412 H   0  0  0  0  0  0  0  0  0  0  0  0
   -5.4935  -13.8289  -16.2135 H   0  0  0  0  0  0  0  0  0  0  0  0
   -3.4844  -12.6569  -16.4179 H   0  0  0  0  0  0  0  0  0  0  0  0
   -4.6188  -11.8584  -15.3073 H   0  0  0  0  0  0  0  0  0  0  0  0
  1  2  1  0  0  0  0 
 28  3  1  0  0  0  0 
 39  4  1  0  0  0  0 
 44  5  1  0  0  0  0 
 51  6  1  0  0  0  0 
 59  7  1  0  0  0  0 
 68  8  1  0  0  0  0 
 78  9  1  0  0  0  0 
 88 10  1  0  0  0  0 
101 11  1  0  0  0  0 
104 12  1  0  0  0  0 
112 13  1  0  0  0  0 
118 14  1  0  0  0  0 
124 15  1  0  0  0  0 
127 16  1  0  0  0  0 
135 17  1  0  0  0  0 
143 18  1  0  0  0  0 
 18 19  1  0  0  0  0 
 19 20  1  0  0  0  0 
 20 21  1  0  0  0  0 
 21 22  1  0  0  0  0 
 22 23  1  0  0  0  0 
  1 24  2  0  0  0  0 
  1 25  1  0  0  0  0 
 25 26  1  0  0  0  0 
 26 27  1  0  0  0  0 
 37  2  1  0  0  0  0 
 37 29  1  0  0  0  0 
 29 30  1  0  0  0  0 
 30 31  2  0  0  0  0 
 31 32  1  0  0  0  0 
 32 33  2  0  0  0  0 
 33 34  1  0  0  0  0 
 33 35  1  0  0  0  0 
 35 36  2  0  0  0  0 
 30 36  1  0  0  0  0 
 37 28  1  0  0  0  0 
 28 38  2  0  0  0  0 
 42  3  1  0  0  0  0 
 42 40  1  0  0  0  0 
 40 41  1  0  0  0  0 
 42 39  1  0  0  0  0 
 39 43  2  0  0  0  0 
 48 49  1  0  0  0  0 
 49 45  1  0  0  0  0 
 45 46  1  0  0  0  0 
 47 46  1  0  0  0  0 
 47  4  1  0  0  0  0 
 47 44  1  0  0  0  0 
 44 50  2  0  0  0  0 
 57  5  1  0  0  0  0 
 57 52  1  0  0  0  0 
 52 53  1  0  0  0  0 
 53 54  1  0  0  0  0 
 54 55  1  0  0  0  0 
 54 56  2  0  0  0  0 
 57 51  1  0  0  0  0 
 51 58  2  0  0  0  0 
 66  6  1  0  0  0  0 
 66 60  1  0  0  0  0 
 60 61  1  0  0  0  0 
 61 62  2  0  0  0  0 
 62 63  1  0  0  0  0 
 63 64  2  0  0  0  0 
 64 65  1  0  0  0  0 
 61 65  1  0  0  0  0 
 66 59  1  0  0  0  0 
 59 67  2  0  0  0  0 
 76  7  1  0  0  0  0 
 76 69  1  0  0  0  0 
 69 70  1  0  0  0  0 
 70 71  2  0  0  0  0 
 71 72  1  0  0  0  0 
 72 73  2  0  0  0  0 
 73 74  1  0  0  0  0 
 74 75  2  0  0  0  0 
 70 75  1  0  0  0  0 
 76 68  1  0  0  0  0 
 68 77  2  0  0  0  0 
 86  8  1  0  0  0  0 
 86 79  1  0  0  0  0 
 79 80  1  0  0  0  0 
 80 81  1  0  0  0  0 
 81 82  1  0  0  0  0 
 82 83  2  0  0  0  0 
 83 84  1  0  0  0  0 
 83 85  1  0  0  0  0 
 86 78  1  0  0  0  0 
 78 87  2  0  0  0  0 
 99  9  1  0  0  0  0 
 99 89  1  0  0  0  0 
 89 90  1  0  0  0  0 
 90 91  2  0  0  0  0 
 91 92  1  0  0  0  0 
 92 93  1  0  0  0  0 
 93 94  1  0  0  0  0 
 90 94  1  0  0  0  0 
 94 95  2  0  0  0  0 
 95 96  1  0  0  0  0 
 96 97  2  0  0  0  0 
 97 98  1  0  0  0  0 
 93 98  2  0  0  0  0 
 99 88  1  0  0  0  0 
 88100  2  0  0  0  0 
 10102  1  0  0  0  0 
102101  1  0  0  0  0 
101103  2  0  0  0  0 
109110  1  0  0  0  0 
110105  1  0  0  0  0 
105106  1  0  0  0  0 
106107  1  0  0  0  0 
108107  1  0  0  0  0 
108 11  1  0  0  0  0 
108104  1  0  0  0  0 
104111  2  0  0  0  0 
117112  2  0  0  0  0 
113112  1  0  0  0  0 
113114  1  0  0  0  0 
114115  1  0  0  0  0 
115116  1  0  0  0  0 
116 12  1  0  0  0  0 
113 12  1  0  0  0  0 
121122  1  0  0  0  0 
122119  1  0  0  0  0 
120122  1  0  0  0  0 
120 13  1  0  0  0  0 
120118  1  0  0  0  0 
118123  2  0  0  0  0 
 14125  1  0  0  0  0 
125124  1  0  0  0  0 
124126  2  0  0  0  0 
132133  1  0  0  0  0 
133128  1  0  0  0  0 
128129  1  0  0  0  0 
129130  1  0  0  0  0 
131130  1  0  0  0  0 
131 15  1  0  0  0  0 
131127  1  0  0  0  0 
127134  2  0  0  0  0 
140141  1  0  0  0  0 
141136  1  0  0  0  0 
136137  1  0  0  0  0 
137138  1  0  0  0  0 
139138  1  0  0  0  0 
139 16  1  0  0  0  0 
139135  1  0  0  0  0 
135142  2  0  0  0  0 
148149  1  0  0  0  0 
149144  1  0  0  0  0 
144145  1  0  0  0  0 
145146  1  0  0  0  0 
147146  1  0  0  0  0 
147 17  1  0  0  0  0 
147143  1  0  0  0  0 
143150  2  0  0  0  0 
151  2  1  0  0  0  0 
152  3  1  0  0  0  0 
153  4  1  0  0  0  0 
154  5  1  0  0  0  0 
155  6  1  0  0  0  0 
156  7  1  0  0  0  0 
157  8  1  0  0  0  0 
158  9  1  0  0  0  0 
159 10  1  0  0  0  0 
160 11  1  0  0  0  0 
161 13  1  0  0  0  0 
162 14  1  0  0  0  0 
163 15  1  0  0  0  0 
164 16  1  0  0  0  0 
165 17  1  0  0  0  0 
166 18  1  0  0  0  0 
167 19  1  0  0  0  0 
168 19  1  0  0  0  0 
169 20  1  0  0  0  0 
170 20  1  0  0  0  0 
171 21  1  0  0  0  0 
172 21  1  0  0  0  0 
173 22  1  0  0  0  0 
174 22  1  0  0  0  0 
175 23  1  0  0  0  0 
176 23  1  0  0  0  0 
177 25  1  0  0  0  0 
178 25  1  0  0  0  0 
179 26  1  0  0  0  0 
180 26  1  0  0  0  0 
181 27  1  0  0  0  0 
182 27  1  0  0  0  0 
183 29  1  0  0  0  0 
184 29  1  0  0  0  0 
185 31  1  0  0  0  0 
186 32  1  0  0  0  0 
187 34  1  0  0  0  0 
188 35  1  0  0  0  0 
189 36  1  0  0  0  0 
 37190  1  0  0  0  0 
191 40  1  0  0  0  0 
192 40  1  0  0  0  0 
193 41  1  0  0  0  0 
 42194  1  0  0  0  0 
195 45  1  0  0  0  0 
196 45  1  0  0  0  0 
197 46  1  0  0  0  0 
198 46  1  0  0  0  0 
 47199  1  0  0  0  0 
200 48  1  0  0  0  0 
201 48  1  0  0  0  0 
202 48  1  0  0  0  0 
203 52  1  0  0  0  0 
204 52  1  0  0  0  0 
205 53  1  0  0  0  0 
206 53  1  0  0  0  0 
207 55  1  0  0  0  0 
 57208  1  0  0  0  0 
209 60  1  0  0  0  0 
210 60  1  0  0  0  0 
211 62  1  0  0  0  0 
212 64  1  0  0  0  0 
213 65  1  0  0  0  0 
 66214  1  0  0  0  0 
215 69  1  0  0  0  0 
216 69  1  0  0  0  0 
217 71  1  0  0  0  0 
218 72  1  0  0  0  0 
219 73  1  0  0  0  0 
220 74  1  0  0  0  0 
221 75  1  0  0  0  0 
 76222  1  0  0  0  0 
223 79  1  0  0  0  0 
224 79  1  0  0  0  0 
225 80  1  0  0  0  0 
226 80  1  0  0  0  0 
227 81  1  0  0  0  0 
228 81  1  0  0  0  0 
229 84  1  0  0  0  0 
230 84  1  0  0  0  0 
231 85  1  0  0  0  0 
232 85  1  0  0  0  0 
 86233  1  0  0  0  0 
234 89  1  0  0  0  0 
235 89  1  0  0  0  0 
236 91  1  0  0  0  0 
237 92  1  0  0  0  0 
238 95  1  0  0  0  0 
239 96  1  0  0  0  0 
240 97  1  0  0  0  0 
241 98  1  0  0  0  0 
 99242  1  0  0  0  0 
243102  1  0  0  0  0 
244102  1  0  0  0  0 
245105  1  0  0  0  0 
246105  1  0  0  0  0 
247106  1  0  0  0  0 
248106  1  0  0  0  0 
249107  1  0  0  0  0 
250107  1  0  0  0  0 
108251  1  0  0  0  0 
252109  1  0  0  0  0 
253109  1  0  0  0  0 
254110  1  0  0  0  0 
255110  1  0  0  0  0 
113256  1  0  0  0  0 
257114  1  0  0  0  0 
258114  1  0  0  0  0 
259115  1  0  0  0  0 
260115  1  0  0  0  0 
261116  1  0  0  0  0 
262116  1  0  0  0  0 
263119  1  0  0  0  0 
264119  1  0  0  0  0 
265119  1  0  0  0  0 
120266  1  0  0  0  0 
267121  1  0  0  0  0 
268121  1  0  0  0  0 
269121  1  0  0  0  0 
270122  1  0  0  0  0 
271125  1  0  0  0  0 
272125  1  0  0  0  0 
273128  1  0  0  0  0 
274128  1  0  0  0  0 
275129  1  0  0  0  0 
276129  1  0  0  0  0 
277130  1  0  0  0  0 
278130  1  0  0  0  0 
131279  1  0  0  0  0 
280132  1  0  0  0  0 
281132  1  0  0  0  0 
282133  1  0  0  0  0 
283133  1  0  0  0  0 
284136  1  0  0  0  0 
285136  1  0  0  0  0 
286137  1  0  0  0  0 
287137  1  0  0  0  0 
288138  1  0  0  0  0 
289138  1  0  0  0  0 
139290  1  0  0  0  0 
291140  1  0  0  0  0 
292140  1  0  0  0  0 
293141  1  0  0  0  0 
294141  1  0  0  0  0 
295144  1  0  0  0  0 
296144  1  0  0  0  0 
297145  1  0  0  0  0 
298145  1  0  0  0  0 
299146  1  0  0  0  0 
300146  1  0  0  0  0 
147301  1  0  0  0  0 
302148  1  0  0  0  0 
303148  1  0  0  0  0 
304149  1  0  0  0  0 
305149  1  0  0  0  0 
M  END
> <cdk:Title>
alsactide

> <Conformer>
1

> <SuperDrugID>
SD000108

$$$$
