oftasceine
  CDK     0628171802

 71 75  0  0  0  0  0  0  0  0999 V2000
    0.4507    9.4035    6.5883 O   0  0  0  0  0  0  0  0  0  0  0  0
   -0.4705   10.0084    7.1796 C   0  0  0  0  0  0  0  0  0  0  0  0
   -1.3297   10.8791    6.5873 O   0  0  0  0  0  0  0  0  0  0  0  0
   -0.7722    9.9250    8.5297 C   0  0  0  0  0  0  0  0  0  0  0  0
   -2.2709   11.4432    7.5231 C   0  0  1  0  0  0  0  0  0  0  0  0
   -1.8545   10.7689    8.7770 C   0  0  0  0  0  0  0  0  0  0  0  0
   -0.1710    9.1842    9.5623 C   0  0  0  0  0  0  0  0  0  0  0  0
   -2.0419   12.9163    7.6273 C   0  0  0  0  0  0  0  0  0  0  0  0
   -3.6554   11.0618    7.1099 C   0  0  0  0  0  0  0  0  0  0  0  0
   -2.3728   10.9009   10.0811 C   0  0  0  0  0  0  0  0  0  0  0  0
   -0.6883    9.3060   10.8682 C   0  0  0  0  0  0  0  0  0  0  0  0
   -3.1284   13.8157    7.5051 C   0  0  0  0  0  0  0  0  0  0  0  0
   -0.7541   13.4275    7.9002 C   0  0  0  0  0  0  0  0  0  0  0  0
   -4.6310   12.0704    6.9145 C   0  0  0  0  0  0  0  0  0  0  0  0
   -4.0071    9.7103    6.8827 C   0  0  0  0  0  0  0  0  0  0  0  0
   -1.7817   10.1610   11.1264 C   0  0  0  0  0  0  0  0  0  0  0  0
   -4.4056   13.4055    7.1838 O   0  0  0  0  0  0  0  0  0  0  0  0
   -2.9182   15.1908    7.7389 C   0  0  0  0  0  0  0  0  0  0  0  0
   -0.5435   14.7956    8.1725 C   0  0  0  0  0  0  0  0  0  0  0  0
   -5.9043   11.7167    6.4279 C   0  0  0  0  0  0  0  0  0  0  0  0
   -5.2910    9.3448    6.4199 C   0  0  0  0  0  0  0  0  0  0  0  0
   -1.6434   15.6838    8.0822 C   0  0  0  0  0  0  0  0  0  0  0  0
    0.8106   15.2291    8.6179 C   0  0  1  0  0  0  0  0  0  0  0  0
   -6.2365   10.3734    6.1706 C   0  0  0  0  0  0  0  0  0  0  0  0
   -5.5886    7.8961    6.2151 C   0  0  2  0  0  0  0  0  0  0  0  0
   -1.5301   17.0174    8.3193 O   0  0  0  0  0  0  0  0  0  0  0  0
    0.9104   15.5128   10.0845 N   0  0  0  0  0  0  0  0  0  0  0  0
   -7.4857   10.1319    5.6923 O   0  0  0  0  0  0  0  0  0  0  0  0
   -5.6868    7.1054    7.4822 N   0  0  0  0  0  0  0  0  0  0  0  0
    0.1987   14.6332   11.0605 C   0  0  2  0  0  0  0  0  0  0  0  0
    1.2772   16.8930   10.5148 C   0  0  2  0  0  0  0  0  0  0  0  0
   -6.4763    7.6296    8.6345 C   0  0  1  0  0  0  0  0  0  0  0  0
   -4.6935    6.0222    7.7340 C   0  0  1  0  0  0  0  0  0  0  0  0
    1.0807   14.2050   12.1579 C   0  0  0  0  0  0  0  0  0  0  0  0
    2.6608   17.1868   10.1066 C   0  0  0  0  0  0  0  0  0  0  0  0
   -7.5080    6.6633    9.0463 C   0  0  0  0  0  0  0  0  0  0  0  0
   -4.9447    4.8811    6.8384 C   0  0  0  0  0  0  0  0  0  0  0  0
    2.1608   13.4338   11.8920 O   0  0  0  0  0  0  0  0  0  0  0  0
    0.8359   14.5193   13.3442 O   0  0  0  0  0  0  0  0  0  0  0  0
    3.6709   16.3931   10.5321 O   0  0  0  0  0  0  0  0  0  0  0  0
    2.9209   18.1521    9.3544 O   0  0  0  0  0  0  0  0  0  0  0  0
   -8.5334    6.3797    8.2105 O   0  0  0  0  0  0  0  0  0  0  0  0
   -7.4662    6.1042   10.1656 O   0  0  0  0  0  0  0  0  0  0  0  0
   -6.1035    4.1889    6.9273 O   0  0  0  0  0  0  0  0  0  0  0  0
   -4.0962    4.5323    5.9878 O   0  0  0  0  0  0  0  0  0  0  0  0
    0.6263    8.5755    9.3729 H   0  0  0  0  0  0  0  0  0  0  0  0
   -3.1614   11.5231   10.2672 H   0  0  0  0  0  0  0  0  0  0  0  0
   -0.2658    8.7747   11.6321 H   0  0  0  0  0  0  0  0  0  0  0  0
    0.0394   12.7821    7.9408 H   0  0  0  0  0  0  0  0  0  0  0  0
   -3.3086    8.9804    7.0432 H   0  0  0  0  0  0  0  0  0  0  0  0
   -2.1468   10.2452   12.0766 H   0  0  0  0  0  0  0  0  0  0  0  0
   -3.7048   15.8420    7.6682 H   0  0  0  0  0  0  0  0  0  0  0  0
   -6.6036   12.4467    6.2681 H   0  0  0  0  0  0  0  0  0  0  0  0
    1.5548   14.4546    8.4160 H   0  0  0  0  0  0  0  0  0  0  0  0
    1.1225   16.0854    8.0185 H   0  0  0  0  0  0  0  0  0  0  0  0
   -4.8127    7.4820    5.5643 H   0  0  0  0  0  0  0  0  0  0  0  0
   -6.5232    7.7437    5.6753 H   0  0  0  0  0  0  0  0  0  0  0  0
   -0.5734   17.1996    8.4032 H   0  0  0  0  0  0  0  0  0  0  0  0
   -7.7071    9.2169    5.9566 H   0  0  0  0  0  0  0  0  0  0  0  0
   -0.1540   13.7134   10.5925 H   0  0  0  0  0  0  0  0  0  0  0  0
   -0.6752   15.1650   11.4440 H   0  0  0  0  0  0  0  0  0  0  0  0
    1.2319   16.9968   11.6021 H   0  0  0  0  0  0  0  0  0  0  0  0
    0.5785   17.6160   10.0850 H   0  0  0  0  0  0  0  0  0  0  0  0
   -5.8012    7.8489    9.4653 H   0  0  0  0  0  0  0  0  0  0  0  0
   -6.9925    8.5572    8.3809 H   0  0  0  0  0  0  0  0  0  0  0  0
   -3.6827    6.4147    7.5892 H   0  0  0  0  0  0  0  0  0  0  0  0
   -4.7566    5.6512    8.7610 H   0  0  0  0  0  0  0  0  0  0  0  0
    2.7374   13.1211   12.6195 H   0  0  0  0  0  0  0  0  0  0  0  0
    4.5911   16.5617   10.2382 H   0  0  0  0  0  0  0  0  0  0  0  0
   -9.2404    5.7605    8.4842 H   0  0  0  0  0  0  0  0  0  0  0  0
   -6.2695    3.4274    6.3311 H   0  0  0  0  0  0  0  0  0  0  0  0
  1  2  2  0  0  0  0 
  2  3  1  0  0  0  0 
  2  4  1  0  0  0  0 
  3  5  1  0  0  0  0 
  4  6  2  0  0  0  0 
  4  7  1  0  0  0  0 
  5  6  1  0  0  0  0 
  5  8  1  0  0  0  0 
  5  9  1  0  0  0  0 
  6 10  1  0  0  0  0 
  7 11  2  0  0  0  0 
  8 12  2  0  0  0  0 
  8 13  1  0  0  0  0 
  9 14  2  0  0  0  0 
  9 15  1  0  0  0  0 
 10 16  2  0  0  0  0 
 11 16  1  0  0  0  0 
 12 17  1  0  0  0  0 
 12 18  1  0  0  0  0 
 13 19  2  0  0  0  0 
 14 17  1  0  0  0  0 
 14 20  1  0  0  0  0 
 15 21  2  0  0  0  0 
 18 22  2  0  0  0  0 
 19 22  1  0  0  0  0 
 19 23  1  0  0  0  0 
 20 24  2  0  0  0  0 
 21 24  1  0  0  0  0 
 21 25  1  0  0  0  0 
 22 26  1  0  0  0  0 
 23 27  1  0  0  0  0 
 24 28  1  0  0  0  0 
 25 29  1  0  0  0  0 
 27 30  1  0  0  0  0 
 27 31  1  0  0  0  0 
 29 32  1  0  0  0  0 
 29 33  1  0  0  0  0 
 30 34  1  0  0  0  0 
 31 35  1  0  0  0  0 
 32 36  1  0  0  0  0 
 33 37  1  0  0  0  0 
 34 38  1  0  0  0  0 
 34 39  2  0  0  0  0 
 35 40  1  0  0  0  0 
 35 41  2  0  0  0  0 
 36 42  1  0  0  0  0 
 36 43  2  0  0  0  0 
 37 44  1  0  0  0  0 
 37 45  2  0  0  0  0 
  7 46  1  0  0  0  0 
 10 47  1  0  0  0  0 
 11 48  1  0  0  0  0 
 13 49  1  0  0  0  0 
 15 50  1  0  0  0  0 
 16 51  1  0  0  0  0 
 18 52  1  0  0  0  0 
 20 53  1  0  0  0  0 
 23 54  1  0  0  0  0 
 23 55  1  0  0  0  0 
 25 56  1  0  0  0  0 
 25 57  1  0  0  0  0 
 26 58  1  0  0  0  0 
 28 59  1  0  0  0  0 
 30 60  1  0  0  0  0 
 30 61  1  0  0  0  0 
 31 62  1  0  0  0  0 
 31 63  1  0  0  0  0 
 32 64  1  0  0  0  0 
 32 65  1  0  0  0  0 
 33 66  1  0  0  0  0 
 33 67  1  0  0  0  0 
 38 68  1  0  0  0  0 
 40 69  1  0  0  0  0 
 42 70  1  0  0  0  0 
 44 71  1  0  0  0  0 
M  END
> <cdk:Title>
oftasceine

> <Conformer>
1

> <SuperDrugID>
SD003676

$$$$
