buprenorphine
  CDK     0628171801

 75 81  0  0  0  0  0  0  0  0999 V2000
    0.0200    3.3109    7.9868 O   0  0  0  0  0  0  0  0  0  0  0  0
   -1.0433    3.9845    8.6871 C   0  0  0  0  0  0  0  0  0  0  0  0
   -0.2363    2.4245    6.8637 C   0  0  1  0  0  0  0  0  0  0  0  0
   -0.9510    3.1788    5.6615 C   0  0  1  0  0  0  0  0  0  0  0  0
    1.1755    1.8958    6.2871 C   0  0  1  0  0  0  0  0  0  0  0  0
   -1.1596    1.2105    7.2508 C   0  0  2  0  0  0  0  0  0  0  0  0
   -1.1102    2.1969    4.4481 C   0  0  1  0  0  0  0  0  0  0  0  0
   -2.2548    3.7659    5.9266 O   0  0  0  0  0  0  0  0  0  0  0  0
    2.3727    1.5338    7.2914 C   0  0  2  0  0  0  0  0  0  0  0  0
    0.9170    0.8353    5.1325 C   0  0  2  0  0  0  0  0  0  0  0  0
   -1.2569    0.1664    6.0953 C   0  0  2  0  0  0  0  0  0  0  0  0
   -0.6091    0.7362    4.7656 C   0  0  1  0  0  0  0  0  0  0  0  0
   -2.5605    2.1292    4.3656 C   0  0  0  0  0  0  0  0  0  0  0  0
   -0.5072    2.7792    3.1186 C   0  0  1  0  0  0  0  0  0  0  0  0
   -3.1543    3.0856    5.1693 C   0  0  0  0  0  0  0  0  0  0  0  0
    3.8516    1.3590    6.6571 C   0  0  2  0  0  0  0  0  0  0  0  0
    1.9755    0.3575    8.2457 C   0  0  0  0  0  0  0  0  0  0  0  0
    2.4864    2.6502    8.1845 O   0  0  0  0  0  0  0  0  0  0  0  0
   -0.9991   -0.1078    3.4856 C   0  0  2  0  0  0  0  0  0  0  0  0
   -3.2935    1.1152    3.7212 C   0  0  0  0  0  0  0  0  0  0  0  0
   -0.5703    1.8037    1.9117 C   0  0  1  0  0  0  0  0  0  0  0  0
   -4.5559    3.1971    5.1945 C   0  0  0  0  0  0  0  0  0  0  0  0
    4.1011   -0.0493    6.0055 C   0  0  0  0  0  0  0  0  0  0  0  0
    4.9833    1.5472    7.7442 C   0  0  0  0  0  0  0  0  0  0  0  0
    4.1714    2.4406    5.5629 C   0  0  0  0  0  0  0  0  0  0  0  0
   -0.2199    0.3954    2.2931 N   0  0  2  0  0  0  0  0  0  0  0  0
   -2.5668   -0.0908    3.2158 C   0  0  2  0  0  0  0  0  0  0  0  0
   -4.7029    1.2327    3.7258 C   0  0  0  0  0  0  0  0  0  0  0  0
   -5.1356    4.1617    5.9468 O   0  0  0  0  0  0  0  0  0  0  0  0
   -5.3284    2.2773    4.4457 C   0  0  0  0  0  0  0  0  0  0  0  0
   -0.1185   -0.5975    1.1674 C   0  0  2  0  0  0  0  0  0  0  0  0
    0.7974   -0.1754   -0.0087 C   0  0  1  0  0  0  0  0  0  0  0  0
    0.6693   -0.9625   -1.3266 C   0  0  2  0  0  0  0  0  0  0  0  0
    0.1598    0.4832   -1.2435 C   0  0  1  0  0  0  0  0  0  0  0  0
   -0.3223    4.0331    5.3892 H   0  0  0  0  0  0  0  0  0  0  0  0
   -0.6942   -1.1402    3.6894 H   0  0  0  0  0  0  0  0  0  0  0  0
    1.5696    2.7782    5.7794 H   0  0  0  0  0  0  0  0  0  0  0  0
   -0.6071    4.4645    9.5638 H   0  0  0  0  0  0  0  0  0  0  0  0
   -1.8181    3.2993    9.0332 H   0  0  0  0  0  0  0  0  0  0  0  0
   -1.4865    4.7682    8.0736 H   0  0  0  0  0  0  0  0  0  0  0  0
   -2.1656    1.5757    7.4710 H   0  0  0  0  0  0  0  0  0  0  0  0
   -0.8264    0.7222    8.1629 H   0  0  0  0  0  0  0  0  0  0  0  0
    1.2568   -0.1554    5.4284 H   0  0  0  0  0  0  0  0  0  0  0  0
    1.5016    1.0942    4.2484 H   0  0  0  0  0  0  0  0  0  0  0  0
   -2.3045   -0.1055    5.9600 H   0  0  0  0  0  0  0  0  0  0  0  0
   -0.7631   -0.7637    6.3929 H   0  0  0  0  0  0  0  0  0  0  0  0
   -1.0150    3.7110    2.8464 H   0  0  0  0  0  0  0  0  0  0  0  0
    0.5418    3.0347    3.2847 H   0  0  0  0  0  0  0  0  0  0  0  0
    1.2275    0.6758    8.9699 H   0  0  0  0  0  0  0  0  0  0  0  0
    1.5779   -0.4939    7.6949 H   0  0  0  0  0  0  0  0  0  0  0  0
    2.8168   -0.0011    8.8327 H   0  0  0  0  0  0  0  0  0  0  0  0
    2.7031    3.4213    7.6227 H   0  0  0  0  0  0  0  0  0  0  0  0
   -1.5663    1.8410    1.4628 H   0  0  0  0  0  0  0  0  0  0  0  0
    0.1289    2.1760    1.1616 H   0  0  0  0  0  0  0  0  0  0  0  0
    3.4947   -0.1972    5.1154 H   0  0  0  0  0  0  0  0  0  0  0  0
    5.1417   -0.1612    5.6876 H   0  0  0  0  0  0  0  0  0  0  0  0
    3.8898   -0.8592    6.7056 H   0  0  0  0  0  0  0  0  0  0  0  0
    4.9564    2.5499    8.1789 H   0  0  0  0  0  0  0  0  0  0  0  0
    5.9808    1.4209    7.3129 H   0  0  0  0  0  0  0  0  0  0  0  0
    4.8959    0.8277    8.5573 H   0  0  0  0  0  0  0  0  0  0  0  0
    3.9939    3.4465    5.9487 H   0  0  0  0  0  0  0  0  0  0  0  0
    3.5615    2.3020    4.6708 H   0  0  0  0  0  0  0  0  0  0  0  0
    5.2143    2.3895    5.2384 H   0  0  0  0  0  0  0  0  0  0  0  0
   -3.0004   -0.9618    3.7113 H   0  0  0  0  0  0  0  0  0  0  0  0
   -2.7880   -0.1915    2.1538 H   0  0  0  0  0  0  0  0  0  0  0  0
   -5.2780    0.5380    3.2417 H   0  0  0  0  0  0  0  0  0  0  0  0
   -6.1029    4.0399    5.8374 H   0  0  0  0  0  0  0  0  0  0  0  0
   -6.3487    2.3472    4.4469 H   0  0  0  0  0  0  0  0  0  0  0  0
   -1.1094   -0.8496    0.7857 H   0  0  0  0  0  0  0  0  0  0  0  0
    0.3148   -1.5178    1.5637 H   0  0  0  0  0  0  0  0  0  0  0  0
    1.8170    0.1358    0.2198 H   0  0  0  0  0  0  0  0  0  0  0  0
   -0.1130   -1.7235   -1.3877 H   0  0  0  0  0  0  0  0  0  0  0  0
    1.5775   -1.0894   -1.9177 H   0  0  0  0  0  0  0  0  0  0  0  0
   -0.9254    0.6036   -1.2336 H   0  0  0  0  0  0  0  0  0  0  0  0
    0.7703    1.2367   -1.7423 H   0  0  0  0  0  0  0  0  0  0  0  0
  1  2  1  0  0  0  0 
  3  1  1  0  0  0  0 
  4  3  1  0  0  0  0 
  3  5  1  0  0  0  0 
  3  6  1  0  0  0  0 
  7  4  1  0  0  0  0 
  4  8  1  0  0  0  0 
  4 35  1  0  0  0  0 
  5  9  1  0  0  0  0 
  5 10  1  0  0  0  0 
  5 37  1  0  0  0  0 
  6 11  1  0  0  0  0 
 12  7  1  0  0  0  0 
  7 13  1  0  0  0  0 
  7 14  1  0  0  0  0 
  8 15  1  0  0  0  0 
  9 16  1  0  0  0  0 
  9 17  1  0  0  0  0 
  9 18  1  0  0  0  0 
 12 10  1  0  0  0  0 
 12 11  1  0  0  0  0 
 12 19  1  0  0  0  0 
 13 15  2  0  0  0  0 
 13 20  1  0  0  0  0 
 14 21  1  0  0  0  0 
 15 22  1  0  0  0  0 
 16 23  1  0  0  0  0 
 16 24  1  0  0  0  0 
 16 25  1  0  0  0  0 
 19 26  1  0  0  0  0 
 19 27  1  0  0  0  0 
 19 36  1  0  0  0  0 
 20 27  1  0  0  0  0 
 20 28  2  0  0  0  0 
 21 26  1  0  0  0  0 
 22 29  1  0  0  0  0 
 22 30  2  0  0  0  0 
 26 31  1  0  0  0  0 
 28 30  1  0  0  0  0 
 31 32  1  0  0  0  0 
 32 33  1  0  0  0  0 
 32 34  1  0  0  0  0 
 33 34  1  0  0  0  0 
  2 38  1  0  0  0  0 
  2 39  1  0  0  0  0 
  2 40  1  0  0  0  0 
  6 41  1  0  0  0  0 
  6 42  1  0  0  0  0 
 10 43  1  0  0  0  0 
 10 44  1  0  0  0  0 
 11 45  1  0  0  0  0 
 11 46  1  0  0  0  0 
 14 47  1  0  0  0  0 
 14 48  1  0  0  0  0 
 17 49  1  0  0  0  0 
 17 50  1  0  0  0  0 
 17 51  1  0  0  0  0 
 18 52  1  0  0  0  0 
 21 53  1  0  0  0  0 
 21 54  1  0  0  0  0 
 23 55  1  0  0  0  0 
 23 56  1  0  0  0  0 
 23 57  1  0  0  0  0 
 24 58  1  0  0  0  0 
 24 59  1  0  0  0  0 
 24 60  1  0  0  0  0 
 25 61  1  0  0  0  0 
 25 62  1  0  0  0  0 
 25 63  1  0  0  0  0 
 27 64  1  0  0  0  0 
 27 65  1  0  0  0  0 
 28 66  1  0  0  0  0 
 29 67  1  0  0  0  0 
 30 68  1  0  0  0  0 
 31 69  1  0  0  0  0 
 31 70  1  0  0  0  0 
 32 71  1  0  0  0  0 
 33 72  1  0  0  0  0 
 33 73  1  0  0  0  0 
 34 74  1  0  0  0  0 
 34 75  1  0  0  0  0 
M  END
> <cdk:Title>
buprenorphine

> <Conformer>
1

> <SuperDrugID>
SD000376

$$$$
