gemfibrozil
  CDK     0628171801

 40 40  0  0  0  0  0  0  0  0999 V2000
    0.6289   -0.8661   -0.9992 O   0  0  0  0  0  0  0  0  0  0  0  0
    0.4997   -2.0846   -0.2335 C   0  0  2  0  0  0  0  0  0  0  0  0
    1.4881    0.0500   -0.4423 C   0  0  0  0  0  0  0  0  0  0  0  0
   -0.4440   -3.0860   -0.9487 C   0  0  1  0  0  0  0  0  0  0  0  0
    2.8528    0.1131   -0.8239 C   0  0  0  0  0  0  0  0  0  0  0  0
    0.9748    0.9741    0.4922 C   0  0  0  0  0  0  0  0  0  0  0  0
    0.0841   -3.5291   -2.3435 C   0  0  2  0  0  0  0  0  0  0  0  0
    3.4153   -0.8141   -1.8345 C   0  0  0  0  0  0  0  0  0  0  0  0
    3.6858    1.0803   -0.2168 C   0  0  0  0  0  0  0  0  0  0  0  0
    1.8038    1.9576    1.0764 C   0  0  0  0  0  0  0  0  0  0  0  0
   -0.8368   -4.5064   -3.1658 C   0  0  1  0  0  0  0  0  0  0  0  0
    3.1697    1.9883    0.7230 C   0  0  0  0  0  0  0  0  0  0  0  0
    1.2539    2.9306    2.0482 C   0  0  0  0  0  0  0  0  0  0  0  0
   -2.1734   -3.8770   -3.4218 C   0  0  0  0  0  0  0  0  0  0  0  0
   -2.2701   -2.6569   -4.0042 O   0  0  0  0  0  0  0  0  0  0  0  0
   -3.2584   -4.4316   -3.1294 O   0  0  0  0  0  0  0  0  0  0  0  0
   -0.1526   -4.7698   -4.5463 C   0  0  0  0  0  0  0  0  0  0  0  0
   -0.9891   -5.8872   -2.4393 C   0  0  0  0  0  0  0  0  0  0  0  0
    0.0782   -1.8636    0.7537 H   0  0  0  0  0  0  0  0  0  0  0  0
    1.4749   -2.5641   -0.0966 H   0  0  0  0  0  0  0  0  0  0  0  0
   -0.5473   -3.9649   -0.3069 H   0  0  0  0  0  0  0  0  0  0  0  0
   -1.4272   -2.6212   -1.0520 H   0  0  0  0  0  0  0  0  0  0  0  0
   -0.0164    0.9284    0.7413 H   0  0  0  0  0  0  0  0  0  0  0  0
    1.0622   -3.9954   -2.1961 H   0  0  0  0  0  0  0  0  0  0  0  0
    0.2591   -2.6268   -2.9372 H   0  0  0  0  0  0  0  0  0  0  0  0
    3.6987   -1.7488   -1.3501 H   0  0  0  0  0  0  0  0  0  0  0  0
    4.2978   -0.3902   -2.3175 H   0  0  0  0  0  0  0  0  0  0  0  0
    2.6853   -1.0262   -2.6166 H   0  0  0  0  0  0  0  0  0  0  0  0
    4.6787    1.1366   -0.4553 H   0  0  0  0  0  0  0  0  0  0  0  0
    3.7972    2.6777    1.1449 H   0  0  0  0  0  0  0  0  0  0  0  0
    1.8336    3.8570    2.0503 H   0  0  0  0  0  0  0  0  0  0  0  0
    0.2203    3.1860    1.8024 H   0  0  0  0  0  0  0  0  0  0  0  0
    1.2824    2.4973    3.0496 H   0  0  0  0  0  0  0  0  0  0  0  0
   -3.1527   -2.2576   -4.1534 H   0  0  0  0  0  0  0  0  0  0  0  0
   -0.7644   -5.4251   -5.1669 H   0  0  0  0  0  0  0  0  0  0  0  0
    0.8203   -5.2463   -4.4150 H   0  0  0  0  0  0  0  0  0  0  0  0
    0.0054   -3.8413   -5.0975 H   0  0  0  0  0  0  0  0  0  0  0  0
   -1.5305   -6.5973   -3.0706 H   0  0  0  0  0  0  0  0  0  0  0  0
   -0.0150   -6.3198   -2.2032 H   0  0  0  0  0  0  0  0  0  0  0  0
   -1.5488   -5.7836   -1.5082 H   0  0  0  0  0  0  0  0  0  0  0  0
  1  2  1  0  0  0  0 
  1  3  1  0  0  0  0 
  2  4  1  0  0  0  0 
  3  5  2  0  0  0  0 
  3  6  1  0  0  0  0 
  4  7  1  0  0  0  0 
  5  8  1  0  0  0  0 
  5  9  1  0  0  0  0 
  6 10  2  0  0  0  0 
  7 11  1  0  0  0  0 
  9 12  2  0  0  0  0 
 10 12  1  0  0  0  0 
 10 13  1  0  0  0  0 
 11 14  1  0  0  0  0 
 14 15  1  0  0  0  0 
 14 16  2  0  0  0  0 
 11 17  1  0  0  0  0 
 11 18  1  0  0  0  0 
  2 19  1  0  0  0  0 
  2 20  1  0  0  0  0 
  4 21  1  0  0  0  0 
  4 22  1  0  0  0  0 
  6 23  1  0  0  0  0 
  7 24  1  0  0  0  0 
  7 25  1  0  0  0  0 
  8 26  1  0  0  0  0 
  8 27  1  0  0  0  0 
  8 28  1  0  0  0  0 
  9 29  1  0  0  0  0 
 12 30  1  0  0  0  0 
 13 31  1  0  0  0  0 
 13 32  1  0  0  0  0 
 13 33  1  0  0  0  0 
 15 34  1  0  0  0  0 
 17 35  1  0  0  0  0 
 17 36  1  0  0  0  0 
 17 37  1  0  0  0  0 
 18 38  1  0  0  0  0 
 18 39  1  0  0  0  0 
 18 40  1  0  0  0  0 
M  END
> <cdk:Title>
gemfibrozil

> <Conformer>
1

> <SuperDrugID>
SD001146

$$$$
