bethanechol
  CDK     0628171801

 28 27  0  0  0  0  0  0  0  0999 V2000
   -0.7231   -0.5163   -0.7571 C   0  0  0  0  0  0  0  0  0  0  0  0
    0.5001   -1.4487   -0.9397 C   0  0  1  0  0  0  0  0  0  0  0  0
    0.8740   -2.3580    0.2798 C   0  0  1  0  0  0  0  0  0  0  0  0
    1.5600   -1.7947    1.5234 N   0  0  1  0  0  0  0  0  0  0  0  0
    2.1127   -2.9578    2.3259 C   0  0  0  0  0  0  0  0  0  0  0  0
    2.7103   -0.8817    1.1704 C   0  0  0  0  0  0  0  0  0  0  0  0
    0.5867   -1.0547    2.4100 C   0  0  0  0  0  0  0  0  0  0  0  0
    0.1845   -2.3335   -2.0347 O   0  0  0  0  0  0  0  0  0  0  0  0
    0.8412   -2.4684   -3.2228 C   0  0  0  0  0  0  0  0  0  0  0  0
    0.3882   -3.3608   -4.1129 N   0  0  0  0  0  0  0  0  0  0  0  0
    1.8522   -1.7929   -3.5204 O   0  0  0  0  0  0  0  0  0  0  0  0
   -1.0490   -0.1361   -1.7285 H   0  0  0  0  0  0  0  0  0  0  0  0
   -1.5552   -1.0551   -0.3009 H   0  0  0  0  0  0  0  0  0  0  0  0
   -0.4699    0.3471   -0.1446 H   0  0  0  0  0  0  0  0  0  0  0  0
    1.3592   -0.8309   -1.2080 H   0  0  0  0  0  0  0  0  0  0  0  0
   -0.0315   -2.9018    0.5737 H   0  0  0  0  0  0  0  0  0  0  0  0
    1.5425   -3.1119   -0.1509 H   0  0  0  0  0  0  0  0  0  0  0  0
    2.8826   -3.4994    1.7675 H   0  0  0  0  0  0  0  0  0  0  0  0
    1.3279   -3.6759    2.5807 H   0  0  0  0  0  0  0  0  0  0  0  0
    2.5723   -2.6297    3.2631 H   0  0  0  0  0  0  0  0  0  0  0  0
    3.3931   -1.3626    0.4639 H   0  0  0  0  0  0  0  0  0  0  0  0
    2.3629    0.0496    0.7169 H   0  0  0  0  0  0  0  0  0  0  0  0
    3.2910   -0.6036    2.0547 H   0  0  0  0  0  0  0  0  0  0  0  0
    0.2123   -0.1509    1.9362 H   0  0  0  0  0  0  0  0  0  0  0  0
   -0.2743   -1.6781    2.6655 H   0  0  0  0  0  0  0  0  0  0  0  0
    1.0562   -0.7418    3.3475 H   0  0  0  0  0  0  0  0  0  0  0  0
   -0.3890   -3.9025   -3.9089 H   0  0  0  0  0  0  0  0  0  0  0  0
    0.8391   -3.4663   -4.9642 H   0  0  0  0  0  0  0  0  0  0  0  0
  2  1  1  0  0  0  0 
  2  3  1  0  0  0  0 
  3  4  1  0  0  0  0 
  4  5  1  0  0  0  0 
  4  6  1  0  0  0  0 
  4  7  1  0  0  0  0 
  2  8  1  0  0  0  0 
  8  9  1  0  0  0  0 
  9 10  1  0  0  0  0 
  9 11  2  0  0  0  0 
 12  1  1  0  0  0  0 
 13  1  1  0  0  0  0 
 14  1  1  0  0  0  0 
 15  2  1  0  0  0  0 
 16  3  1  0  0  0  0 
 17  3  1  0  0  0  0 
 18  5  1  0  0  0  0 
 19  5  1  0  0  0  0 
 20  5  1  0  0  0  0 
 21  6  1  0  0  0  0 
 22  6  1  0  0  0  0 
 23  6  1  0  0  0  0 
 24  7  1  0  0  0  0 
 25  7  1  0  0  0  0 
 26  7  1  0  0  0  0 
 27 10  1  0  0  0  0 
 28 10  1  0  0  0  0 
M  CHG  1   4   1
M  END
> <cdk:Title>
bethanechol

> <Conformer>
1

> <SuperDrugID>
SD000303

$$$$
