malotilate
  CDK     0628171801

 34 34  0  0  0  0  0  0  0  0999 V2000
    2.8482    0.6712    2.3057 C   0  0  0  0  0  0  0  0  0  0  0  0
    2.3391    1.8703    2.7874 C   0  0  0  0  0  0  0  0  0  0  0  0
    1.9193   -0.1874    1.7043 C   0  0  0  0  0  0  0  0  0  0  0  0
    4.1637    0.3854    2.4386 C   0  0  0  0  0  0  0  0  0  0  0  0
    2.3876    2.1563    4.1256 O   0  0  0  0  0  0  0  0  0  0  0  0
    1.7709    2.6527    1.9889 O   0  0  0  0  0  0  0  0  0  0  0  0
    0.5997   -0.1086    2.0765 O   0  0  0  0  0  0  0  0  0  0  0  0
    2.2518   -1.0209    0.8288 O   0  0  0  0  0  0  0  0  0  0  0  0
    4.9829   -1.0696    1.9414 S   0  0  0  0  0  0  0  0  0  0  0  0
    5.3808    1.4096    3.1509 S   0  0  0  0  0  0  0  0  0  0  0  0
    1.8303    3.3043    4.7969 C   0  0  1  0  0  0  0  0  0  0  0  0
   -0.5252   -0.8747    1.6150 C   0  0  1  0  0  0  0  0  0  0  0  0
    6.6217   -0.7450    2.4011 C   0  0  0  0  0  0  0  0  0  0  0  0
    6.8122    0.4413    2.9779 C   0  0  0  0  0  0  0  0  0  0  0  0
    1.8351    3.0172    6.3187 C   0  0  0  0  0  0  0  0  0  0  0  0
    2.6033    4.6045    4.4549 C   0  0  0  0  0  0  0  0  0  0  0  0
   -1.0547   -1.7100    2.8037 C   0  0  0  0  0  0  0  0  0  0  0  0
   -1.5982    0.0910    1.0619 C   0  0  0  0  0  0  0  0  0  0  0  0
    0.7865    3.4233    4.4881 H   0  0  0  0  0  0  0  0  0  0  0  0
   -0.2336   -1.5604    0.8133 H   0  0  0  0  0  0  0  0  0  0  0  0
    7.3524   -1.3985    2.2433 H   0  0  0  0  0  0  0  0  0  0  0  0
    7.7014    0.7516    3.2890 H   0  0  0  0  0  0  0  0  0  0  0  0
    1.2838    2.0988    6.5277 H   0  0  0  0  0  0  0  0  0  0  0  0
    2.8577    2.8988    6.6824 H   0  0  0  0  0  0  0  0  0  0  0  0
    1.3565    3.8304    6.8699 H   0  0  0  0  0  0  0  0  0  0  0  0
    2.5131    4.8330    3.3919 H   0  0  0  0  0  0  0  0  0  0  0  0
    3.6614    4.4883    4.6974 H   0  0  0  0  0  0  0  0  0  0  0  0
    2.1993    5.4495    5.0183 H   0  0  0  0  0  0  0  0  0  0  0  0
   -0.2609   -2.3559    3.1832 H   0  0  0  0  0  0  0  0  0  0  0  0
   -1.3890   -1.0588    3.6141 H   0  0  0  0  0  0  0  0  0  0  0  0
   -1.8906   -2.3372    2.4882 H   0  0  0  0  0  0  0  0  0  0  0  0
   -1.1953    0.6500    0.2159 H   0  0  0  0  0  0  0  0  0  0  0  0
   -1.9078    0.7985    1.8342 H   0  0  0  0  0  0  0  0  0  0  0  0
   -2.4732   -0.4678    0.7234 H   0  0  0  0  0  0  0  0  0  0  0  0
  1  2  1  0  0  0  0 
  1  3  1  0  0  0  0 
  1  4  2  0  0  0  0 
  2  5  1  0  0  0  0 
  2  6  2  0  0  0  0 
  3  7  1  0  0  0  0 
  3  8  2  0  0  0  0 
  4  9  1  0  0  0  0 
  4 10  1  0  0  0  0 
  5 11  1  0  0  0  0 
  7 12  1  0  0  0  0 
  9 13  1  0  0  0  0 
 10 14  1  0  0  0  0 
 11 15  1  0  0  0  0 
 11 16  1  0  0  0  0 
 12 17  1  0  0  0  0 
 12 18  1  0  0  0  0 
 13 14  2  0  0  0  0 
 11 19  1  0  0  0  0 
 12 20  1  0  0  0  0 
 13 21  1  0  0  0  0 
 14 22  1  0  0  0  0 
 15 23  1  0  0  0  0 
 15 24  1  0  0  0  0 
 15 25  1  0  0  0  0 
 16 26  1  0  0  0  0 
 16 27  1  0  0  0  0 
 16 28  1  0  0  0  0 
 17 29  1  0  0  0  0 
 17 30  1  0  0  0  0 
 17 31  1  0  0  0  0 
 18 32  1  0  0  0  0 
 18 33  1  0  0  0  0 
 18 34  1  0  0  0  0 
M  END
> <cdk:Title>
malotilate

> <Conformer>
1

> <SuperDrugID>
SD001440

$$$$
