triamcinolone
  CDK     0628171801

 55 58  0  0  0  0  0  0  0  0999 V2000
    3.6354    5.0497    0.9787 F   0  0  0  0  0  0  0  0  0  0  0  0
    4.0610    3.9582    1.7286 C   0  0  2  0  0  0  0  0  0  0  0  0
    3.0624    3.8157    2.9506 C   0  0  2  0  0  0  0  0  0  0  0  0
    5.5494    4.3231    2.2039 C   0  0  2  0  0  0  0  0  0  0  0  0
    3.9001    2.7265    0.7499 C   0  0  1  0  0  0  0  0  0  0  0  0
    1.6052    3.5426    2.4393 C   0  0  1  0  0  0  0  0  0  0  0  0
    3.1226    5.0788    3.8631 C   0  0  1  0  0  0  0  0  0  0  0  0
    6.3072    3.1762    2.9703 C   0  0  0  0  0  0  0  0  0  0  0  0
    5.4605    5.5012    3.1343 C   0  0  0  0  0  0  0  0  0  0  0  0
    6.4116    4.6058    1.0249 C   0  0  0  0  0  0  0  0  0  0  0  0
    4.5306    1.5574    1.2634 O   0  0  0  0  0  0  0  0  0  0  0  0
    2.4131    2.3828    0.3710 C   0  0  1  0  0  0  0  0  0  0  0  0
    1.4428    2.2278    1.6040 C   0  0  1  0  0  0  0  0  0  0  0  0
    0.4488    3.5065    3.4569 C   0  0  2  0  0  0  0  0  0  0  0  0
    4.5663    5.4229    4.2979 C   0  0  2  0  0  0  0  0  0  0  0  0
    6.1577    6.6378    2.9011 C   0  0  0  0  0  0  0  0  0  0  0  0
    7.0798    5.7581    0.8595 C   0  0  0  0  0  0  0  0  0  0  0  0
    1.7826    0.9013    2.3935 C   0  0  0  0  0  0  0  0  0  0  0  0
   -0.1175    2.2791    1.3305 C   0  0  2  0  0  0  0  0  0  0  0  0
   -0.6945    2.7701    2.7121 C   0  0  2  0  0  0  0  0  0  0  0  0
    6.9794    6.7718    1.7938 C   0  0  0  0  0  0  0  0  0  0  0  0
   -0.7595    1.0220    0.8129 C   0  0  0  0  0  0  0  0  0  0  0  0
   -0.4226    3.2847    0.3527 O   0  0  0  0  0  0  0  0  0  0  0  0
   -1.8504    3.5966    2.5629 O   0  0  0  0  0  0  0  0  0  0  0  0
    7.6308    7.8298    1.6294 O   0  0  0  0  0  0  0  0  0  0  0  0
   -0.6542    0.5479   -0.5834 C   0  0  2  0  0  0  0  0  0  0  0  0
   -1.5075    0.3367    1.5509 O   0  0  0  0  0  0  0  0  0  0  0  0
   -0.2848   -0.8285   -0.6124 O   0  0  0  0  0  0  0  0  0  0  0  0
    3.3740    2.9729    3.5708 H   0  0  0  0  0  0  0  0  0  0  0  0
    1.3684    4.3998    1.7935 H   0  0  0  0  0  0  0  0  0  0  0  0
    4.4196    2.9520   -0.1861 H   0  0  0  0  0  0  0  0  0  0  0  0
    2.6959    5.9374    3.3369 H   0  0  0  0  0  0  0  0  0  0  0  0
    2.5262    4.9155    4.7641 H   0  0  0  0  0  0  0  0  0  0  0  0
    5.6976    2.7488    3.7662 H   0  0  0  0  0  0  0  0  0  0  0  0
    6.6009    2.3581    2.3079 H   0  0  0  0  0  0  0  0  0  0  0  0
    7.2292    3.5570    3.4228 H   0  0  0  0  0  0  0  0  0  0  0  0
    6.5236    3.9076    0.3247 H   0  0  0  0  0  0  0  0  0  0  0  0
    4.4319    0.8808    0.5614 H   0  0  0  0  0  0  0  0  0  0  0  0
    2.0495    3.1800   -0.2837 H   0  0  0  0  0  0  0  0  0  0  0  0
    2.4034    1.4695   -0.2280 H   0  0  0  0  0  0  0  0  0  0  0  0
    0.1544    4.5167    3.7545 H   0  0  0  0  0  0  0  0  0  0  0  0
    0.7506    2.9557    4.3523 H   0  0  0  0  0  0  0  0  0  0  0  0
    4.9300    4.6621    4.9928 H   0  0  0  0  0  0  0  0  0  0  0  0
    4.5238    6.3602    4.8626 H   0  0  0  0  0  0  0  0  0  0  0  0
    6.0868    7.4100    3.5256 H   0  0  0  0  0  0  0  0  0  0  0  0
    7.6568    5.8832    0.0577 H   0  0  0  0  0  0  0  0  0  0  0  0
    1.7212    0.0392    1.7255 H   0  0  0  0  0  0  0  0  0  0  0  0
    1.0894    0.7237    3.2163 H   0  0  0  0  0  0  0  0  0  0  0  0
    2.7776    0.9096    2.8292 H   0  0  0  0  0  0  0  0  0  0  0  0
   -1.0006    1.9272    3.3395 H   0  0  0  0  0  0  0  0  0  0  0  0
   -1.4012    3.2843    0.2746 H   0  0  0  0  0  0  0  0  0  0  0  0
   -2.1170    3.8316    3.4774 H   0  0  0  0  0  0  0  0  0  0  0  0
    0.0701    1.1211   -1.1604 H   0  0  0  0  0  0  0  0  0  0  0  0
   -1.6271    0.6578   -1.0646 H   0  0  0  0  0  0  0  0  0  0  0  0
   -0.3885   -1.1016   -1.5491 H   0  0  0  0  0  0  0  0  0  0  0  0
  2  1  1  0  0  0  0 
  3  2  1  0  0  0  0 
  2  4  1  0  0  0  0 
  2  5  1  0  0  0  0 
  6  3  1  0  0  0  0 
  3  7  1  0  0  0  0 
  3 29  1  0  0  0  0 
  4  8  1  0  0  0  0 
  4  9  1  0  0  0  0 
  4 10  1  0  0  0  0 
  5 11  1  0  0  0  0 
  5 12  1  0  0  0  0 
 13  6  1  0  0  0  0 
  6 14  1  0  0  0  0 
  6 30  1  0  0  0  0 
  7 15  1  0  0  0  0 
  9 15  1  0  0  0  0 
  9 16  2  0  0  0  0 
 10 17  2  0  0  0  0 
 13 12  1  0  0  0  0 
 13 18  1  0  0  0  0 
 13 19  1  0  0  0  0 
 20 14  1  0  0  0  0 
 16 21  1  0  0  0  0 
 17 21  1  0  0  0  0 
 19 20  1  0  0  0  0 
 19 22  1  0  0  0  0 
 19 23  1  0  0  0  0 
 20 24  1  0  0  0  0 
 21 25  2  0  0  0  0 
 22 26  1  0  0  0  0 
 22 27  2  0  0  0  0 
 26 28  1  0  0  0  0 
  5 31  1  0  0  0  0 
  7 32  1  0  0  0  0 
  7 33  1  0  0  0  0 
  8 34  1  0  0  0  0 
  8 35  1  0  0  0  0 
  8 36  1  0  0  0  0 
 10 37  1  0  0  0  0 
 11 38  1  0  0  0  0 
 12 39  1  0  0  0  0 
 12 40  1  0  0  0  0 
 14 41  1  0  0  0  0 
 14 42  1  0  0  0  0 
 15 43  1  0  0  0  0 
 15 44  1  0  0  0  0 
 16 45  1  0  0  0  0 
 17 46  1  0  0  0  0 
 18 47  1  0  0  0  0 
 18 48  1  0  0  0  0 
 18 49  1  0  0  0  0 
 20 50  1  0  0  0  0 
 23 51  1  0  0  0  0 
 24 52  1  0  0  0  0 
 26 53  1  0  0  0  0 
 26 54  1  0  0  0  0 
 28 55  1  0  0  0  0 
M  END
> <cdk:Title>
triamcinolone

> <Conformer>
1

> <SuperDrugID>
SD002455

$$$$
