tetracycline
  CDK     0628171801

 56 59  0  0  0  0  0  0  0  0999 V2000
   -4.8105    0.2508    6.3198 C   0  0  0  0  0  0  0  0  0  0  0  0
   -4.6488    1.2425    7.3003 C   0  0  0  0  0  0  0  0  0  0  0  0
   -4.5186    2.5851    6.9227 C   0  0  0  0  0  0  0  0  0  0  0  0
   -4.5851    2.9425    5.5657 C   0  0  0  0  0  0  0  0  0  0  0  0
   -4.7809    1.9677    4.5521 C   0  0  0  0  0  0  0  0  0  0  0  0
   -4.8530    0.5965    4.9408 C   0  0  0  0  0  0  0  0  0  0  0  0
   -4.8844    2.3745    3.0956 C   0  0  2  0  0  0  0  0  0  0  0  0
   -5.1171    1.1508    2.1055 C   0  0  2  0  0  0  0  0  0  0  0  0
   -4.5285   -0.0934    2.6211 C   0  0  0  0  0  0  0  0  0  0  0  0
   -4.9092   -0.4032    3.9298 C   0  0  0  0  0  0  0  0  0  0  0  0
   -4.8083    1.4225    0.5890 C   0  0  1  0  0  0  0  0  0  0  0  0
   -3.4782    0.8116    0.0432 C   0  0  2  0  0  0  0  0  0  0  0  0
   -3.3067   -0.6817    0.5102 C   0  0  2  0  0  0  0  0  0  0  0  0
   -3.6883   -0.8956    1.9213 C   0  0  0  0  0  0  0  0  0  0  0  0
   -2.1848    1.6451    0.3455 C   0  0  1  0  0  0  0  0  0  0  0  0
   -1.0277    0.9328   -0.2703 C   0  0  0  0  0  0  0  0  0  0  0  0
   -0.8754   -0.4544   -0.1283 C   0  0  0  0  0  0  0  0  0  0  0  0
   -1.9510   -1.2116    0.2118 C   0  0  0  0  0  0  0  0  0  0  0  0
   -4.8848   -1.0311    6.7547 O   0  0  0  0  0  0  0  0  0  0  0  0
   -5.3051   -1.5665    4.1859 O   0  0  0  0  0  0  0  0  0  0  0  0
   -3.6497    3.0102    2.7690 O   0  0  0  0  0  0  0  0  0  0  0  0
   -6.0291    3.4269    2.9111 C   0  0  0  0  0  0  0  0  0  0  0  0
   -3.1916   -1.9699    2.5454 O   0  0  0  0  0  0  0  0  0  0  0  0
   -4.2277   -1.4687   -0.2578 O   0  0  0  0  0  0  0  0  0  0  0  0
   -1.8134   -2.5375    0.3032 O   0  0  0  0  0  0  0  0  0  0  0  0
    0.3870   -1.0288   -0.3580 C   0  0  0  0  0  0  0  0  0  0  0  0
    0.5221   -2.1596   -0.8793 O   0  0  0  0  0  0  0  0  0  0  0  0
    1.5394   -0.4021   -0.0356 N   0  0  0  0  0  0  0  0  0  0  0  0
   -0.2051    1.5804   -0.9631 O   0  0  0  0  0  0  0  0  0  0  0  0
   -2.2945    3.1156    0.0076 N   0  0  1  0  0  0  0  0  0  0  0  0
   -1.2437    3.9881    0.6172 C   0  0  0  0  0  0  0  0  0  0  0  0
   -2.5960    3.4899   -1.4102 C   0  0  0  0  0  0  0  0  0  0  0  0
   -4.6100    0.9871    8.2898 H   0  0  0  0  0  0  0  0  0  0  0  0
   -4.3752    3.3050    7.6353 H   0  0  0  0  0  0  0  0  0  0  0  0
   -4.4858    3.9320    5.3272 H   0  0  0  0  0  0  0  0  0  0  0  0
   -6.1981    0.9560    2.1294 H   0  0  0  0  0  0  0  0  0  0  0  0
   -5.6218    0.9831   -0.0006 H   0  0  0  0  0  0  0  0  0  0  0  0
   -4.8387    2.4885    0.3686 H   0  0  0  0  0  0  0  0  0  0  0  0
   -3.5824    0.7861   -1.0485 H   0  0  0  0  0  0  0  0  0  0  0  0
   -2.0279    1.5700    1.4255 H   0  0  0  0  0  0  0  0  0  0  0  0
   -3.9539   -1.3343    6.7815 H   0  0  0  0  0  0  0  0  0  0  0  0
   -3.5962    3.7974    3.3516 H   0  0  0  0  0  0  0  0  0  0  0  0
   -6.9764    3.0339    3.2869 H   0  0  0  0  0  0  0  0  0  0  0  0
   -5.8113    4.3558    3.4410 H   0  0  0  0  0  0  0  0  0  0  0  0
   -6.1640    3.6837    1.8609 H   0  0  0  0  0  0  0  0  0  0  0  0
   -3.4928   -2.7382    2.0180 H   0  0  0  0  0  0  0  0  0  0  0  0
   -5.1222   -1.1323   -0.0352 H   0  0  0  0  0  0  0  0  0  0  0  0
   -2.2122   -2.8861   -0.5197 H   0  0  0  0  0  0  0  0  0  0  0  0
    2.3907   -0.8335   -0.2133 H   0  0  0  0  0  0  0  0  0  0  0  0
    1.5237    0.4784    0.3726 H   0  0  0  0  0  0  0  0  0  0  0  0
   -1.0496    3.7133    1.6559 H   0  0  0  0  0  0  0  0  0  0  0  0
   -1.5771    5.0273    0.6199 H   0  0  0  0  0  0  0  0  0  0  0  0
   -0.3037    3.9282    0.0636 H   0  0  0  0  0  0  0  0  0  0  0  0
   -3.4624    2.9528   -1.7909 H   0  0  0  0  0  0  0  0  0  0  0  0
   -2.8449    4.5513   -1.4709 H   0  0  0  0  0  0  0  0  0  0  0  0
   -1.7491    3.2929   -2.0715 H   0  0  0  0  0  0  0  0  0  0  0  0
  1  2  2  0  0  0  0 
  2  3  1  0  0  0  0 
  3  4  2  0  0  0  0 
  4  5  1  0  0  0  0 
  5  6  2  0  0  0  0 
  1  6  1  0  0  0  0 
  7  8  1  0  0  0  0 
  8  9  1  0  0  0  0 
  9 10  1  0  0  0  0 
  7  5  1  0  0  0  0 
  6 10  1  0  0  0  0 
 12 11  1  0  0  0  0 
 12 13  1  0  0  0  0 
 13 14  1  0  0  0  0 
  8 11  1  0  0  0  0 
  9 14  2  0  0  0  0 
 15 16  1  0  0  0  0 
 16 17  1  0  0  0  0 
 17 18  2  0  0  0  0 
 12 15  1  0  0  0  0 
 13 18  1  0  0  0  0 
  1 19  1  0  0  0  0 
 10 20  2  0  0  0  0 
  7 21  1  0  0  0  0 
  7 22  1  0  0  0  0 
 14 23  1  0  0  0  0 
 13 24  1  0  0  0  0 
 18 25  1  0  0  0  0 
 17 26  1  0  0  0  0 
 26 27  2  0  0  0  0 
 26 28  1  0  0  0  0 
 16 29  2  0  0  0  0 
 15 30  1  0  0  0  0 
 30 31  1  0  0  0  0 
 30 32  1  0  0  0  0 
 33  2  1  0  0  0  0 
 34  3  1  0  0  0  0 
 35  4  1  0  0  0  0 
  8 36  1  0  0  0  0 
 37 11  1  0  0  0  0 
 38 11  1  0  0  0  0 
 12 39  1  0  0  0  0 
 15 40  1  0  0  0  0 
 41 19  1  0  0  0  0 
 42 21  1  0  0  0  0 
 43 22  1  0  0  0  0 
 44 22  1  0  0  0  0 
 45 22  1  0  0  0  0 
 46 23  1  0  0  0  0 
 47 24  1  0  0  0  0 
 48 25  1  0  0  0  0 
 49 28  1  0  0  0  0 
 50 28  1  0  0  0  0 
 51 31  1  0  0  0  0 
 52 31  1  0  0  0  0 
 53 31  1  0  0  0  0 
 54 32  1  0  0  0  0 
 55 32  1  0  0  0  0 
 56 32  1  0  0  0  0 
M  END
> <cdk:Title>
tetracycline

> <Conformer>
1

> <SuperDrugID>
SD002350

$$$$
