telaprevir
  CDK     0628171801

102106  0  0  0  0  0  0  0  0999 V2000
    8.8958    2.7721    1.4806 C   0  0  2  0  0  0  0  0  0  0  0  0
    7.5424    2.7541    0.7615 C   0  0  1  0  0  0  0  0  0  0  0  0
    7.6984    2.0601    2.1256 C   0  0  1  0  0  0  0  0  0  0  0  0
    7.7233    0.6384    2.0921 N   0  0  0  0  0  0  0  0  0  0  0  0
    6.6965   -0.1593    2.4865 C   0  0  0  0  0  0  0  0  0  0  0  0
    5.6642    0.3084    3.0243 O   0  0  0  0  0  0  0  0  0  0  0  0
    6.7768   -1.5402    2.2146 C   0  0  0  0  0  0  0  0  0  0  0  0
    7.8461   -2.1362    2.4881 O   0  0  0  0  0  0  0  0  0  0  0  0
    5.6854   -2.3113    1.5533 C   0  0  1  0  0  0  0  0  0  0  0  0
    5.0285   -3.0774    2.5782 N   0  0  0  0  0  0  0  0  0  0  0  0
    4.9005   -1.4818    0.4792 C   0  0  1  0  0  0  0  0  0  0  0  0
    5.7690   -1.0549   -0.7408 C   0  0  2  0  0  0  0  0  0  0  0  0
    5.0493   -0.0598   -1.6743 C   0  0  0  0  0  0  0  0  0  0  0  0
    3.7598   -3.1550    3.0740 C   0  0  0  0  0  0  0  0  0  0  0  0
    3.6408   -4.0420    3.9519 O   0  0  0  0  0  0  0  0  0  0  0  0
    2.5296   -2.3829    2.7361 C   0  0  1  0  0  0  0  0  0  0  0  0
    1.4786   -3.2725    2.2949 N   0  0  0  0  0  0  0  0  0  0  0  0
    0.3566   -3.2870    3.1822 C   0  0  2  0  0  0  0  0  0  0  0  0
    1.9465   -0.0478    3.8834 C   0  0  1  0  0  0  0  0  0  0  0  0
    1.9790   -1.6014    3.9755 C   0  0  1  0  0  0  0  0  0  0  0  0
    0.5163   -2.0654    4.1108 C   0  0  1  0  0  0  0  0  0  0  0  0
   -0.3376   -0.8322    3.7365 C   0  0  1  0  0  0  0  0  0  0  0  0
    0.5030    0.3497    4.2382 C   0  0  1  0  0  0  0  0  0  0  0  0
    1.5752   -4.0472    1.1418 C   0  0  0  0  0  0  0  0  0  0  0  0
    0.5118   -4.9480    0.5998 C   0  0  1  0  0  0  0  0  0  0  0  0
    2.6181   -3.9558    0.4572 O   0  0  0  0  0  0  0  0  0  0  0  0
   -0.2520   -4.0802   -0.2606 N   0  0  0  0  0  0  0  0  0  0  0  0
    0.9841   -6.2849   -0.1224 C   0  0  1  0  0  0  0  0  0  0  0  0
   -1.5389   -3.6642   -0.0782 C   0  0  0  0  0  0  0  0  0  0  0  0
   -2.2640   -4.2260    0.7785 O   0  0  0  0  0  0  0  0  0  0  0  0
    1.9926   -7.0722    0.7824 C   0  0  0  0  0  0  0  0  0  0  0  0
   -0.2727   -7.1958   -0.3424 C   0  0  0  0  0  0  0  0  0  0  0  0
    1.6519   -6.0524   -1.5244 C   0  0  0  0  0  0  0  0  0  0  0  0
   -2.0856   -2.4995   -0.8366 C   0  0  2  0  0  0  0  0  0  0  0  0
   -2.1576   -2.6692   -2.3997 C   0  0  2  0  0  0  0  0  0  0  0  0
   -3.9208   -2.5049   -4.9129 C   0  0  2  0  0  0  0  0  0  0  0  0
   -2.8451   -1.4304   -4.6079 C   0  0  2  0  0  0  0  0  0  0  0  0
   -2.5583   -1.2828   -3.0892 C   0  0  2  0  0  0  0  0  0  0  0  0
   -3.1606   -3.9063   -2.7195 C   0  0  1  0  0  0  0  0  0  0  0  0
   -3.4947   -3.9073   -4.3243 C   0  0  1  0  0  0  0  0  0  0  0  0
   -1.4611   -1.2850   -0.3817 N   0  0  0  0  0  0  0  0  0  0  0  0
   -0.1818   -0.8448   -0.5840 C   0  0  0  0  0  0  0  0  0  0  0  0
    0.2197    0.4026   -0.0375 C   0  0  0  0  0  0  0  0  0  0  0  0
    0.6305   -1.5204   -1.2589 O   0  0  0  0  0  0  0  0  0  0  0  0
    1.5570    0.8623   -0.0550 C   0  0  0  0  0  0  0  0  0  0  0  0
   -0.7068    1.2263    0.5285 N   0  0  0  0  0  0  0  0  0  0  0  0
   -0.4117    2.4387    1.0632 C   0  0  0  0  0  0  0  0  0  0  0  0
    0.9252    2.8704    1.0477 C   0  0  0  0  0  0  0  0  0  0  0  0
    1.8646    2.0688    0.4862 N   0  0  0  0  0  0  0  0  0  0  0  0
    9.1796    3.7345    1.9133 H   0  0  0  0  0  0  0  0  0  0  0  0
    9.6701    2.1381    1.0389 H   0  0  0  0  0  0  0  0  0  0  0  0
    7.0132    3.7089    0.7548 H   0  0  0  0  0  0  0  0  0  0  0  0
    7.4976    2.1127   -0.1229 H   0  0  0  0  0  0  0  0  0  0  0  0
    7.2492    2.5821    2.9739 H   0  0  0  0  0  0  0  0  0  0  0  0
    8.5062    0.2112    1.7099 H   0  0  0  0  0  0  0  0  0  0  0  0
    6.1698   -3.1013    0.9675 H   0  0  0  0  0  0  0  0  0  0  0  0
    5.6340   -3.6987    3.0152 H   0  0  0  0  0  0  0  0  0  0  0  0
    4.0885   -2.0783    0.0773 H   0  0  0  0  0  0  0  0  0  0  0  0
    4.4572   -0.5934    0.9327 H   0  0  0  0  0  0  0  0  0  0  0  0
    6.0371   -1.9430   -1.3208 H   0  0  0  0  0  0  0  0  0  0  0  0
    6.6970   -0.5857   -0.4059 H   0  0  0  0  0  0  0  0  0  0  0  0
    4.1118   -0.4845   -2.0320 H   0  0  0  0  0  0  0  0  0  0  0  0
    5.6823    0.1537   -2.5359 H   0  0  0  0  0  0  0  0  0  0  0  0
    4.8420    0.8768   -1.1538 H   0  0  0  0  0  0  0  0  0  0  0  0
    2.7114   -1.6823    1.9312 H   0  0  0  0  0  0  0  0  0  0  0  0
    0.3743   -4.2082    3.7712 H   0  0  0  0  0  0  0  0  0  0  0  0
   -0.5951   -3.2294    2.6525 H   0  0  0  0  0  0  0  0  0  0  0  0
    2.6493    0.4082    4.5845 H   0  0  0  0  0  0  0  0  0  0  0  0
    2.1880    0.3097    2.8810 H   0  0  0  0  0  0  0  0  0  0  0  0
    2.5123   -1.8681    4.8963 H   0  0  0  0  0  0  0  0  0  0  0  0
    0.2983   -2.3456    5.1500 H   0  0  0  0  0  0  0  0  0  0  0  0
   -0.4711   -0.7583    2.6531 H   0  0  0  0  0  0  0  0  0  0  0  0
   -1.3206   -0.8602    4.2156 H   0  0  0  0  0  0  0  0  0  0  0  0
    0.3918    0.4479    5.3226 H   0  0  0  0  0  0  0  0  0  0  0  0
    0.2007    1.2834    3.7610 H   0  0  0  0  0  0  0  0  0  0  0  0
   -0.0891   -5.2662    1.4567 H   0  0  0  0  0  0  0  0  0  0  0  0
    0.2225   -3.6993   -1.0151 H   0  0  0  0  0  0  0  0  0  0  0  0
    1.5705   -7.2403    1.7746 H   0  0  0  0  0  0  0  0  0  0  0  0
    2.2361   -8.0436    0.3478 H   0  0  0  0  0  0  0  0  0  0  0  0
    2.9287   -6.5257    0.9021 H   0  0  0  0  0  0  0  0  0  0  0  0
   -0.7496   -7.4349    0.6114 H   0  0  0  0  0  0  0  0  0  0  0  0
   -0.0003   -8.1389   -0.8239 H   0  0  0  0  0  0  0  0  0  0  0  0
   -1.0110   -6.6966   -0.9745 H   0  0  0  0  0  0  0  0  0  0  0  0
    2.5770   -5.4834   -1.4486 H   0  0  0  0  0  0  0  0  0  0  0  0
    1.9073   -7.0051   -1.9945 H   0  0  0  0  0  0  0  0  0  0  0  0
    0.9814   -5.5183   -2.2000 H   0  0  0  0  0  0  0  0  0  0  0  0
   -3.1227   -2.3676   -0.5084 H   0  0  0  0  0  0  0  0  0  0  0  0
   -1.1002   -2.8373   -2.7465 H   0  0  0  0  0  0  0  0  0  0  0  0
   -4.0737   -2.5799   -5.9924 H   0  0  0  0  0  0  0  0  0  0  0  0
   -4.8668   -2.2022   -4.4556 H   0  0  0  0  0  0  0  0  0  0  0  0
   -3.1875   -0.4678   -5.0017 H   0  0  0  0  0  0  0  0  0  0  0  0
   -1.9164   -1.6878   -5.1261 H   0  0  0  0  0  0  0  0  0  0  0  0
   -1.7540   -0.5519   -2.9709 H   0  0  0  0  0  0  0  0  0  0  0  0
   -3.4515   -0.8751   -2.6071 H   0  0  0  0  0  0  0  0  0  0  0  0
   -2.7042   -4.8559   -2.4385 H   0  0  0  0  0  0  0  0  0  0  0  0
   -4.1053   -3.7885   -2.1829 H   0  0  0  0  0  0  0  0  0  0  0  0
   -4.3229   -4.6063   -4.6161 H   0  0  0  0  0  0  0  0  0  0  0  0
   -2.6351   -4.2402   -4.9668 H   0  0  0  0  0  0  0  0  0  0  0  0
   -2.0317   -0.7020    0.1452 H   0  0  0  0  0  0  0  0  0  0  0  0
    2.3024    0.3025   -0.4616 H   0  0  0  0  0  0  0  0  0  0  0  0
   -1.1504    3.0194    1.4651 H   0  0  0  0  0  0  0  0  0  0  0  0
    1.1880    3.7752    1.4416 H   0  0  0  0  0  0  0  0  0  0  0  0
  1  2  1  0  0  0  0 
  1  3  1  0  0  0  0 
  3  2  1  0  0  0  0 
  3  4  1  0  0  0  0 
  4  5  1  0  0  0  0 
  5  6  2  0  0  0  0 
  5  7  1  0  0  0  0 
  7  8  2  0  0  0  0 
  9  7  1  0  0  0  0 
  9 10  1  0  0  0  0 
  9 11  1  0  0  0  0 
 11 12  1  0  0  0  0 
 12 13  1  0  0  0  0 
 10 14  1  0  0  0  0 
 14 15  2  0  0  0  0 
 16 14  1  0  0  0  0 
 16 17  1  0  0  0  0 
 17 18  1  0  0  0  0 
 20 16  1  0  0  0  0 
 21 18  1  0  0  0  0 
 20 19  1  0  0  0  0 
 22 23  1  0  0  0  0 
 19 23  1  0  0  0  0 
 21 22  1  0  0  0  0 
 20 21  1  0  0  0  0 
 17 24  1  0  0  0  0 
 25 24  1  0  0  0  0 
 24 26  2  0  0  0  0 
 25 27  1  0  0  0  0 
 25 28  1  0  0  0  0 
 27 29  1  0  0  0  0 
 29 30  2  0  0  0  0 
 28 31  1  0  0  0  0 
 28 32  1  0  0  0  0 
 28 33  1  0  0  0  0 
 34 29  1  0  0  0  0 
 34 35  1  0  0  0  0 
 38 35  1  0  0  0  0 
 35 39  1  0  0  0  0 
 36 37  1  0  0  0  0 
 37 38  1  0  0  0  0 
 39 40  1  0  0  0  0 
 36 40  1  0  0  0  0 
 34 41  1  0  0  0  0 
 41 42  1  0  0  0  0 
 42 43  1  0  0  0  0 
 42 44  2  0  0  0  0 
 45 43  2  0  0  0  0 
 43 46  1  0  0  0  0 
 46 47  2  0  0  0  0 
 47 48  1  0  0  0  0 
 48 49  2  0  0  0  0 
 45 49  1  0  0  0  0 
 50  1  1  0  0  0  0 
 51  1  1  0  0  0  0 
 52  2  1  0  0  0  0 
 53  2  1  0  0  0  0 
 54  3  1  0  0  0  0 
 55  4  1  0  0  0  0 
  9 56  1  0  0  0  0 
 57 10  1  0  0  0  0 
 58 11  1  0  0  0  0 
 59 11  1  0  0  0  0 
 60 12  1  0  0  0  0 
 61 12  1  0  0  0  0 
 62 13  1  0  0  0  0 
 63 13  1  0  0  0  0 
 64 13  1  0  0  0  0 
 16 65  1  0  0  0  0 
 66 18  1  0  0  0  0 
 67 18  1  0  0  0  0 
 68 19  1  0  0  0  0 
 69 19  1  0  0  0  0 
 20 70  1  0  0  0  0 
 21 71  1  0  0  0  0 
 72 22  1  0  0  0  0 
 73 22  1  0  0  0  0 
 74 23  1  0  0  0  0 
 75 23  1  0  0  0  0 
 25 76  1  0  0  0  0 
 77 27  1  0  0  0  0 
 78 31  1  0  0  0  0 
 79 31  1  0  0  0  0 
 80 31  1  0  0  0  0 
 81 32  1  0  0  0  0 
 82 32  1  0  0  0  0 
 83 32  1  0  0  0  0 
 84 33  1  0  0  0  0 
 85 33  1  0  0  0  0 
 86 33  1  0  0  0  0 
 34 87  1  0  0  0  0 
 88 35  1  0  0  0  0 
 89 36  1  0  0  0  0 
 90 36  1  0  0  0  0 
 91 37  1  0  0  0  0 
 92 37  1  0  0  0  0 
 93 38  1  0  0  0  0 
 94 38  1  0  0  0  0 
 95 39  1  0  0  0  0 
 96 39  1  0  0  0  0 
 97 40  1  0  0  0  0 
 98 40  1  0  0  0  0 
 99 41  1  0  0  0  0 
100 45  1  0  0  0  0 
101 47  1  0  0  0  0 
102 48  1  0  0  0  0 
M  END
> <cdk:Title>
telaprevir

> <Conformer>
1

> <SuperDrugID>
SD003404

$$$$
