dopamine
  CDK     0628171802

 22 22  0  0  0  0  0  0  0  0999 V2000
    1.4113   -0.0236    0.0572 N   0  0  1  0  0  0  0  0  0  0  0  0
    0.2239    0.8021    0.2916 C   0  0  1  0  0  0  0  0  0  0  0  0
   -0.8084    0.0513    1.1630 C   0  0  1  0  0  0  0  0  0  0  0  0
   -2.0219    0.8784    1.3951 C   0  0  0  0  0  0  0  0  0  0  0  0
   -3.1117    0.8252    0.4944 C   0  0  0  0  0  0  0  0  0  0  0  0
   -4.2544    1.6227    0.6983 C   0  0  0  0  0  0  0  0  0  0  0  0
   -5.2865    1.5575   -0.1776 O   0  0  0  0  0  0  0  0  0  0  0  0
   -4.3181    2.4884    1.8074 C   0  0  0  0  0  0  0  0  0  0  0  0
   -5.4097    3.2636    2.0120 O   0  0  0  0  0  0  0  0  0  0  0  0
   -3.2368    2.5547    2.7053 C   0  0  0  0  0  0  0  0  0  0  0  0
   -2.0976    1.7558    2.5017 C   0  0  0  0  0  0  0  0  0  0  0  0
    2.0726    0.5513   -0.4693 H   0  0  0  0  0  0  0  0  0  0  0  0
    1.8350   -0.1983    0.9702 H   0  0  0  0  0  0  0  0  0  0  0  0
    0.5420    1.7195    0.7909 H   0  0  0  0  0  0  0  0  0  0  0  0
   -0.2120    1.0596   -0.6761 H   0  0  0  0  0  0  0  0  0  0  0  0
   -1.0800   -0.8866    0.6702 H   0  0  0  0  0  0  0  0  0  0  0  0
   -0.3451   -0.2132    2.1175 H   0  0  0  0  0  0  0  0  0  0  0  0
   -3.0734    0.2073   -0.3221 H   0  0  0  0  0  0  0  0  0  0  0  0
   -5.0693    2.2242   -0.8622 H   0  0  0  0  0  0  0  0  0  0  0  0
   -5.2197    4.0920    1.5237 H   0  0  0  0  0  0  0  0  0  0  0  0
   -3.2760    3.1914    3.5045 H   0  0  0  0  0  0  0  0  0  0  0  0
   -1.3198    1.8216    3.1638 H   0  0  0  0  0  0  0  0  0  0  0  0
  1  2  1  0  0  0  0 
  2  3  1  0  0  0  0 
  3  4  1  0  0  0  0 
  4  5  2  0  0  0  0 
  5  6  1  0  0  0  0 
  6  7  1  0  0  0  0 
  6  8  2  0  0  0  0 
  8  9  1  0  0  0  0 
  8 10  1  0  0  0  0 
 10 11  2  0  0  0  0 
  4 11  1  0  0  0  0 
  1 12  1  0  0  0  0 
  1 13  1  0  0  0  0 
  2 14  1  0  0  0  0 
  2 15  1  0  0  0  0 
  3 16  1  0  0  0  0 
  3 17  1  0  0  0  0 
  5 18  1  0  0  0  0 
  7 19  1  0  0  0  0 
  9 20  1  0  0  0  0 
 10 21  1  0  0  0  0 
 11 22  1  0  0  0  0 
M  END
> <cdk:Title>
dopamine

> <Conformer>
1

> <SuperDrugID>
SD000841

$$$$
