prasterone acetate
  CDK     0628171802

 54 57  0  0  0  0  0  0  0  0999 V2000
   -4.3626    4.2856   -1.2566 C   0  0  0  0  0  0  0  0  0  0  0  0
   -4.4293    2.8395   -1.8758 C   0  0  1  0  0  0  0  0  0  0  0  0
   -3.1813    1.9591   -1.4003 C   0  0  2  0  0  0  0  0  0  0  0  0
   -5.7344    2.2187   -1.4756 C   0  0  0  0  0  0  0  0  0  0  0  0
   -4.3847    2.9458   -3.4521 C   0  0  2  0  0  0  0  0  0  0  0  0
   -3.3838    1.4411    0.0715 C   0  0  2  0  0  0  0  0  0  0  0  0
   -1.7502    2.5824   -1.6308 C   0  0  1  0  0  0  0  0  0  0  0  0
   -5.8237    1.2262   -0.5591 C   0  0  0  0  0  0  0  0  0  0  0  0
   -6.9866    2.7140   -2.0888 C   0  0  1  0  0  0  0  0  0  0  0  0
   -5.6506    3.5633   -4.0997 C   0  0  1  0  0  0  0  0  0  0  0  0
   -2.1534    0.5811    0.4988 C   0  0  1  0  0  0  0  0  0  0  0  0
   -4.7088    0.6308    0.1535 C   0  0  2  0  0  0  0  0  0  0  0  0
   -0.5645    1.7563   -1.0384 C   0  0  1  0  0  0  0  0  0  0  0  0
   -6.9273    2.8183   -3.6355 C   0  0  2  0  0  0  0  0  0  0  0  0
   -0.8215    1.3906    0.4586 C   0  0  1  0  0  0  0  0  0  0  0  0
   -2.1214   -0.1296    1.8696 C   0  0  2  0  0  0  0  0  0  0  0  0
   -8.1059    3.5207   -4.0616 O   0  0  0  0  0  0  0  0  0  0  0  0
   -0.7255    2.6681    1.3722 C   0  0  0  0  0  0  0  0  0  0  0  0
    0.0658    0.3750    1.0670 C   0  0  0  0  0  0  0  0  0  0  0  0
   -0.6287   -0.5204    2.0117 C   0  0  1  0  0  0  0  0  0  0  0  0
   -8.5936    3.6705   -5.3284 C   0  0  0  0  0  0  0  0  0  0  0  0
    1.2975    0.3035    0.8501 O   0  0  0  0  0  0  0  0  0  0  0  0
   -9.7919    4.4956   -5.5354 C   0  0  0  0  0  0  0  0  0  0  0  0
   -8.0664    3.0966   -6.3099 O   0  0  0  0  0  0  0  0  0  0  0  0
   -3.4739    2.2873    0.7554 H   0  0  0  0  0  0  0  0  0  0  0  0
   -3.1847    1.0521   -2.0208 H   0  0  0  0  0  0  0  0  0  0  0  0
   -2.1006   -0.2369   -0.2380 H   0  0  0  0  0  0  0  0  0  0  0  0
   -3.5077    4.8426   -1.6391 H   0  0  0  0  0  0  0  0  0  0  0  0
   -4.2901    4.2511   -0.1694 H   0  0  0  0  0  0  0  0  0  0  0  0
   -5.2395    4.8822   -1.5018 H   0  0  0  0  0  0  0  0  0  0  0  0
   -4.2532    1.9508   -3.8886 H   0  0  0  0  0  0  0  0  0  0  0  0
   -3.5281    3.5457   -3.7675 H   0  0  0  0  0  0  0  0  0  0  0  0
   -1.5718    2.6970   -2.7007 H   0  0  0  0  0  0  0  0  0  0  0  0
   -1.7000    3.5778   -1.1975 H   0  0  0  0  0  0  0  0  0  0  0  0
   -6.7150    0.8443   -0.3368 H   0  0  0  0  0  0  0  0  0  0  0  0
   -7.8518    2.0846   -1.8492 H   0  0  0  0  0  0  0  0  0  0  0  0
   -7.2123    3.6984   -1.6706 H   0  0  0  0  0  0  0  0  0  0  0  0
   -5.7226    4.6218   -3.8407 H   0  0  0  0  0  0  0  0  0  0  0  0
   -5.5635    3.4989   -5.1858 H   0  0  0  0  0  0  0  0  0  0  0  0
   -4.9839    0.5204    1.2073 H   0  0  0  0  0  0  0  0  0  0  0  0
   -4.5642   -0.3729   -0.2575 H   0  0  0  0  0  0  0  0  0  0  0  0
   -0.4346    0.8459   -1.6316 H   0  0  0  0  0  0  0  0  0  0  0  0
    0.3599    2.3336   -1.1300 H   0  0  0  0  0  0  0  0  0  0  0  0
   -6.9380    1.8076   -4.0558 H   0  0  0  0  0  0  0  0  0  0  0  0
   -2.7681   -1.0109    1.8884 H   0  0  0  0  0  0  0  0  0  0  0  0
   -2.4280    0.5509    2.6678 H   0  0  0  0  0  0  0  0  0  0  0  0
   -1.4348    3.4391    1.0780 H   0  0  0  0  0  0  0  0  0  0  0  0
   -0.9136    2.4407    2.4236 H   0  0  0  0  0  0  0  0  0  0  0  0
    0.2762    3.1015    1.3040 H   0  0  0  0  0  0  0  0  0  0  0  0
   -0.2769   -0.3647    3.0341 H   0  0  0  0  0  0  0  0  0  0  0  0
   -0.4715   -1.5627    1.7233 H   0  0  0  0  0  0  0  0  0  0  0  0
  -10.6142    3.8640   -5.8725 H   0  0  0  0  0  0  0  0  0  0  0  0
  -10.0820    4.9878   -4.6049 H   0  0  0  0  0  0  0  0  0  0  0  0
   -9.5927    5.2596   -6.2893 H   0  0  0  0  0  0  0  0  0  0  0  0
  2  1  1  0  0  0  0 
  3  2  1  0  0  0  0 
  2  4  1  0  0  0  0 
  2  5  1  0  0  0  0 
  6  3  1  0  0  0  0 
  3  7  1  0  0  0  0 
  3 26  1  0  0  0  0 
  4  8  2  0  0  0  0 
  4  9  1  0  0  0  0 
  5 10  1  0  0  0  0 
 11  6  1  0  0  0  0 
  6 12  1  0  0  0  0 
  6 25  1  0  0  0  0 
  7 13  1  0  0  0  0 
  8 12  1  0  0  0  0 
 14  9  1  0  0  0  0 
 14 10  1  0  0  0  0 
 15 11  1  0  0  0  0 
 11 16  1  0  0  0  0 
 11 27  1  0  0  0  0 
 15 13  1  0  0  0  0 
 14 17  1  0  0  0  0 
 15 18  1  0  0  0  0 
 15 19  1  0  0  0  0 
 16 20  1  0  0  0  0 
 17 21  1  0  0  0  0 
 19 20  1  0  0  0  0 
 19 22  2  0  0  0  0 
 21 23  1  0  0  0  0 
 21 24  2  0  0  0  0 
  1 28  1  0  0  0  0 
  1 29  1  0  0  0  0 
  1 30  1  0  0  0  0 
  5 31  1  0  0  0  0 
  5 32  1  0  0  0  0 
  7 33  1  0  0  0  0 
  7 34  1  0  0  0  0 
  8 35  1  0  0  0  0 
  9 36  1  0  0  0  0 
  9 37  1  0  0  0  0 
 10 38  1  0  0  0  0 
 10 39  1  0  0  0  0 
 12 40  1  0  0  0  0 
 12 41  1  0  0  0  0 
 13 42  1  0  0  0  0 
 13 43  1  0  0  0  0 
 14 44  1  0  0  0  0 
 16 45  1  0  0  0  0 
 16 46  1  0  0  0  0 
 18 47  1  0  0  0  0 
 18 48  1  0  0  0  0 
 18 49  1  0  0  0  0 
 20 50  1  0  0  0  0 
 20 51  1  0  0  0  0 
 23 52  1  0  0  0  0 
 23 53  1  0  0  0  0 
 23 54  1  0  0  0  0 
M  END
> <cdk:Title>
prasterone acetate

> <Conformer>
1

> <SuperDrugID>
SD000702

$$$$
