atrasentan
  CDK     0628171801

 75 78  0  0  0  0  0  0  0  0999 V2000
    8.7766    4.4872   -1.1209 C   0  0  0  0  0  0  0  0  0  0  0  0
    9.9520    4.9271   -1.6322 O   0  0  0  0  0  0  0  0  0  0  0  0
    8.7985    3.4374   -0.4387 O   0  0  0  0  0  0  0  0  0  0  0  0
    7.5194    5.2542   -1.3447 C   0  0  1  0  0  0  0  0  0  0  0  0
    6.2942    4.3569   -1.7384 C   0  0  1  0  0  0  0  0  0  0  0  0
    7.0523    6.0141   -0.0667 C   0  0  2  0  0  0  0  0  0  0  0  0
    5.4849    4.2141   -0.4805 N   0  0  2  0  0  0  0  0  0  0  0  0
    5.5183    4.9426   -2.8908 C   0  0  0  0  0  0  0  0  0  0  0  0
    6.1676    4.9462    0.6165 C   0  0  2  0  0  0  0  0  0  0  0  0
    6.4226    7.3364   -0.4103 C   0  0  0  0  0  0  0  0  0  0  0  0
    4.9875    2.8578   -0.0851 C   0  0  2  0  0  0  0  0  0  0  0  0
    4.1958    5.4387   -2.7655 C   0  0  0  0  0  0  0  0  0  0  0  0
    6.1306    5.0362   -4.1668 C   0  0  0  0  0  0  0  0  0  0  0  0
    5.0236    7.5836   -0.3781 C   0  0  0  0  0  0  0  0  0  0  0  0
    7.2769    8.3963   -0.8247 C   0  0  0  0  0  0  0  0  0  0  0  0
    4.2852    2.1548   -1.1893 C   0  0  0  0  0  0  0  0  0  0  0  0
    3.5539    6.0893   -3.8350 C   0  0  0  0  0  0  0  0  0  0  0  0
    5.4918    5.6888   -5.2388 C   0  0  0  0  0  0  0  0  0  0  0  0
    4.5213    8.8290   -0.7870 C   0  0  0  0  0  0  0  0  0  0  0  0
    6.7617    9.6478   -1.2175 C   0  0  0  0  0  0  0  0  0  0  0  0
    4.7318    1.0139   -1.8597 N   0  0  0  0  0  0  0  0  0  0  0  0
    3.2167    2.7126   -1.5421 O   0  0  0  0  0  0  0  0  0  0  0  0
    4.2157    6.2569   -5.0667 C   0  0  0  0  0  0  0  0  0  0  0  0
    5.3722    9.8393   -1.2019 C   0  0  0  0  0  0  0  0  0  0  0  0
    3.2306    9.2099   -0.8443 O   0  0  0  0  0  0  0  0  0  0  0  0
    5.8578    0.2129   -1.3955 C   0  0  1  0  0  0  0  0  0  0  0  0
    4.0745    0.6259   -3.1032 C   0  0  1  0  0  0  0  0  0  0  0  0
    3.6360    6.9491   -6.0977 O   0  0  0  0  0  0  0  0  0  0  0  0
    4.6924   10.9456   -1.5560 O   0  0  0  0  0  0  0  0  0  0  0  0
    3.3376   10.4553   -1.5591 C   0  0  1  0  0  0  0  0  0  0  0  0
    5.5201   -0.6504   -0.1400 C   0  0  1  0  0  0  0  0  0  0  0  0
    4.5238    1.5340   -4.2855 C   0  0  2  0  0  0  0  0  0  0  0  0
    3.6977    8.3782   -5.9076 C   0  0  0  0  0  0  0  0  0  0  0  0
    6.5128   -1.8293    0.0693 C   0  0  2  0  0  0  0  0  0  0  0  0
    3.9353    1.0971   -5.6522 C   0  0  2  0  0  0  0  0  0  0  0  0
    6.3397   -2.5607    1.4211 C   0  0  0  0  0  0  0  0  0  0  0  0
    4.3580    2.0158   -6.8222 C   0  0  0  0  0  0  0  0  0  0  0  0
   10.7822    4.4338   -1.4625 H   0  0  0  0  0  0  0  0  0  0  0  0
    7.7533    5.9676   -2.1412 H   0  0  0  0  0  0  0  0  0  0  0  0
    6.6462    3.3721   -2.0653 H   0  0  0  0  0  0  0  0  0  0  0  0
    7.8942    6.2275    0.6050 H   0  0  0  0  0  0  0  0  0  0  0  0
    5.4510    5.3831    1.3146 H   0  0  0  0  0  0  0  0  0  0  0  0
    6.8126    4.2737    1.1925 H   0  0  0  0  0  0  0  0  0  0  0  0
    4.2814    2.9698    0.7423 H   0  0  0  0  0  0  0  0  0  0  0  0
    5.8220    2.2795    0.3003 H   0  0  0  0  0  0  0  0  0  0  0  0
    3.6822    5.3476   -1.8888 H   0  0  0  0  0  0  0  0  0  0  0  0
    7.0629    4.6430   -4.3182 H   0  0  0  0  0  0  0  0  0  0  0  0
    4.3573    6.8725   -0.0802 H   0  0  0  0  0  0  0  0  0  0  0  0
    8.2912    8.2607   -0.8514 H   0  0  0  0  0  0  0  0  0  0  0  0
    2.6059    6.4532   -3.7126 H   0  0  0  0  0  0  0  0  0  0  0  0
    5.9627    5.7638   -6.1428 H   0  0  0  0  0  0  0  0  0  0  0  0
    7.3864   10.4009   -1.5131 H   0  0  0  0  0  0  0  0  0  0  0  0
    6.2082   -0.4570   -2.1867 H   0  0  0  0  0  0  0  0  0  0  0  0
    6.7149    0.8568   -1.1873 H   0  0  0  0  0  0  0  0  0  0  0  0
    4.2897   -0.4157   -3.3628 H   0  0  0  0  0  0  0  0  0  0  0  0
    2.9861    0.6800   -3.0003 H   0  0  0  0  0  0  0  0  0  0  0  0
    3.0126   10.3032   -2.5933 H   0  0  0  0  0  0  0  0  0  0  0  0
    2.6797   11.1962   -1.1011 H   0  0  0  0  0  0  0  0  0  0  0  0
    5.5302   -0.0109    0.7455 H   0  0  0  0  0  0  0  0  0  0  0  0
    4.5098   -1.0575   -0.2437 H   0  0  0  0  0  0  0  0  0  0  0  0
    5.6150    1.5177   -4.3476 H   0  0  0  0  0  0  0  0  0  0  0  0
    4.2114    2.5612   -4.0861 H   0  0  0  0  0  0  0  0  0  0  0  0
    3.3341    8.8669   -6.8113 H   0  0  0  0  0  0  0  0  0  0  0  0
    3.0589    8.6865   -5.0772 H   0  0  0  0  0  0  0  0  0  0  0  0
    4.7181    8.7275   -5.7248 H   0  0  0  0  0  0  0  0  0  0  0  0
    7.5394   -1.4564    0.0081 H   0  0  0  0  0  0  0  0  0  0  0  0
    6.3677   -2.5532   -0.7372 H   0  0  0  0  0  0  0  0  0  0  0  0
    2.8441    1.0913   -5.5920 H   0  0  0  0  0  0  0  0  0  0  0  0
    4.2678    0.0798   -5.8729 H   0  0  0  0  0  0  0  0  0  0  0  0
    6.5907   -1.8957    2.2513 H   0  0  0  0  0  0  0  0  0  0  0  0
    5.3124   -2.9124    1.5443 H   0  0  0  0  0  0  0  0  0  0  0  0
    7.0088   -3.4237    1.4529 H   0  0  0  0  0  0  0  0  0  0  0  0
    3.8975    1.6613   -7.7468 H   0  0  0  0  0  0  0  0  0  0  0  0
    5.4427    2.0061   -6.9469 H   0  0  0  0  0  0  0  0  0  0  0  0
    4.0324    3.0424   -6.6457 H   0  0  0  0  0  0  0  0  0  0  0  0
  1  2  1  0  0  0  0 
  1  3  2  0  0  0  0 
  4  1  1  0  0  0  0 
  4  5  1  0  0  0  0 
  6  4  1  0  0  0  0 
  5  7  1  0  0  0  0 
  5  8  1  0  0  0  0 
  6  9  1  0  0  0  0 
  6 10  1  0  0  0  0 
  7  9  1  0  0  0  0 
  7 11  1  0  0  0  0 
  8 12  2  0  0  0  0 
  8 13  1  0  0  0  0 
 10 14  2  0  0  0  0 
 10 15  1  0  0  0  0 
 11 16  1  0  0  0  0 
 12 17  1  0  0  0  0 
 13 18  2  0  0  0  0 
 14 19  1  0  0  0  0 
 15 20  2  0  0  0  0 
 16 21  1  0  0  0  0 
 16 22  2  0  0  0  0 
 17 23  2  0  0  0  0 
 18 23  1  0  0  0  0 
 19 24  2  0  0  0  0 
 19 25  1  0  0  0  0 
 20 24  1  0  0  0  0 
 21 26  1  0  0  0  0 
 21 27  1  0  0  0  0 
 23 28  1  0  0  0  0 
 24 29  1  0  0  0  0 
 25 30  1  0  0  0  0 
 26 31  1  0  0  0  0 
 27 32  1  0  0  0  0 
 28 33  1  0  0  0  0 
 29 30  1  0  0  0  0 
 31 34  1  0  0  0  0 
 32 35  1  0  0  0  0 
 34 36  1  0  0  0  0 
 35 37  1  0  0  0  0 
  2 38  1  0  0  0  0 
  4 39  1  0  0  0  0 
  5 40  1  0  0  0  0 
  6 41  1  0  0  0  0 
  9 42  1  0  0  0  0 
  9 43  1  0  0  0  0 
 11 44  1  0  0  0  0 
 11 45  1  0  0  0  0 
 12 46  1  0  0  0  0 
 13 47  1  0  0  0  0 
 14 48  1  0  0  0  0 
 15 49  1  0  0  0  0 
 17 50  1  0  0  0  0 
 18 51  1  0  0  0  0 
 20 52  1  0  0  0  0 
 26 53  1  0  0  0  0 
 26 54  1  0  0  0  0 
 27 55  1  0  0  0  0 
 27 56  1  0  0  0  0 
 30 57  1  0  0  0  0 
 30 58  1  0  0  0  0 
 31 59  1  0  0  0  0 
 31 60  1  0  0  0  0 
 32 61  1  0  0  0  0 
 32 62  1  0  0  0  0 
 33 63  1  0  0  0  0 
 33 64  1  0  0  0  0 
 33 65  1  0  0  0  0 
 34 66  1  0  0  0  0 
 34 67  1  0  0  0  0 
 35 68  1  0  0  0  0 
 35 69  1  0  0  0  0 
 36 70  1  0  0  0  0 
 36 71  1  0  0  0  0 
 36 72  1  0  0  0  0 
 37 73  1  0  0  0  0 
 37 74  1  0  0  0  0 
 37 75  1  0  0  0  0 
M  END
> <cdk:Title>
atrasentan

> <Conformer>
1

> <SuperDrugID>
SD002616

$$$$
