imidafenacin
  CDK     0628171802

 45 47  0  0  0  0  0  0  0  0999 V2000
    0.3654   -2.1059   -2.2369 C   0  0  0  0  0  0  0  0  0  0  0  0
   -0.0199   -0.7366   -2.7875 C   0  0  2  0  0  0  0  0  0  0  0  0
   -0.8013   -0.8196   -4.0945 C   0  0  0  0  0  0  0  0  0  0  0  0
    1.3322   -0.0863   -2.9727 C   0  0  0  0  0  0  0  0  0  0  0  0
    1.9441    0.6493   -2.0209 N   0  0  0  0  0  0  0  0  0  0  0  0
    2.0020   -0.2518   -4.0197 O   0  0  0  0  0  0  0  0  0  0  0  0
   -0.8987    0.1852   -1.8412 C   0  0  1  0  0  0  0  0  0  0  0  0
   -0.7936    0.2522   -5.0291 C   0  0  0  0  0  0  0  0  0  0  0  0
   -1.5333    0.2011   -6.2245 C   0  0  0  0  0  0  0  0  0  0  0  0
   -2.3290   -0.9192   -6.5088 C   0  0  0  0  0  0  0  0  0  0  0  0
   -2.3758   -1.9868   -5.5994 C   0  0  0  0  0  0  0  0  0  0  0  0
   -1.6347   -1.9293   -4.4055 C   0  0  0  0  0  0  0  0  0  0  0  0
    0.1168   -2.5210   -0.9002 C   0  0  0  0  0  0  0  0  0  0  0  0
    0.4944   -3.7954   -0.4394 C   0  0  0  0  0  0  0  0  0  0  0  0
    1.1494   -4.6915   -1.2966 C   0  0  0  0  0  0  0  0  0  0  0  0
    1.4339   -4.3099   -2.6146 C   0  0  0  0  0  0  0  0  0  0  0  0
    1.0467   -3.0395   -3.0741 C   0  0  0  0  0  0  0  0  0  0  0  0
   -2.3779   -0.2249   -1.5625 C   0  0  2  0  0  0  0  0  0  0  0  0
   -3.0080    0.7025   -0.6571 N   0  0  0  0  0  0  0  0  0  0  0  0
   -3.7472    1.7606   -1.0386 C   0  0  0  0  0  0  0  0  0  0  0  0
   -4.1647    2.4236    0.1027 C   0  0  0  0  0  0  0  0  0  0  0  0
   -3.6769    1.7706    1.1647 N   0  0  0  0  0  0  0  0  0  0  0  0
   -2.9717    0.7202    0.6999 C   0  0  0  0  0  0  0  0  0  0  0  0
   -2.2896   -0.2358    1.5914 C   0  0  0  0  0  0  0  0  0  0  0  0
    1.5093    0.8218   -1.1713 H   0  0  0  0  0  0  0  0  0  0  0  0
    2.8302    1.0073   -2.1873 H   0  0  0  0  0  0  0  0  0  0  0  0
   -0.4056    0.2878   -0.8743 H   0  0  0  0  0  0  0  0  0  0  0  0
   -0.9321    1.1941   -2.2691 H   0  0  0  0  0  0  0  0  0  0  0  0
   -0.2461    1.0945   -4.8433 H   0  0  0  0  0  0  0  0  0  0  0  0
   -1.4958    0.9805   -6.8854 H   0  0  0  0  0  0  0  0  0  0  0  0
   -2.8775   -0.9551   -7.3703 H   0  0  0  0  0  0  0  0  0  0  0  0
   -2.9564   -2.8032   -5.8021 H   0  0  0  0  0  0  0  0  0  0  0  0
   -1.7268   -2.7094   -3.7515 H   0  0  0  0  0  0  0  0  0  0  0  0
   -0.3321   -1.9046   -0.2273 H   0  0  0  0  0  0  0  0  0  0  0  0
    0.3004   -4.0716    0.5246 H   0  0  0  0  0  0  0  0  0  0  0  0
    1.4245   -5.6171   -0.9620 H   0  0  0  0  0  0  0  0  0  0  0  0
    1.9242   -4.9568   -3.2368 H   0  0  0  0  0  0  0  0  0  0  0  0
    1.2726   -2.8021   -4.0437 H   0  0  0  0  0  0  0  0  0  0  0  0
   -2.4385   -1.2372   -1.1592 H   0  0  0  0  0  0  0  0  0  0  0  0
   -2.9342   -0.2341   -2.5044 H   0  0  0  0  0  0  0  0  0  0  0  0
   -3.9626    2.0387   -1.9990 H   0  0  0  0  0  0  0  0  0  0  0  0
   -4.7403    3.2669    0.1306 H   0  0  0  0  0  0  0  0  0  0  0  0
   -1.2183   -0.2331    1.3918 H   0  0  0  0  0  0  0  0  0  0  0  0
   -2.4472    0.0378    2.6366 H   0  0  0  0  0  0  0  0  0  0  0  0
   -2.6875   -1.2385    1.4300 H   0  0  0  0  0  0  0  0  0  0  0  0
  1  2  1  0  0  0  0 
  2  3  1  0  0  0  0 
  2  4  1  0  0  0  0 
  4  5  1  0  0  0  0 
  4  6  2  0  0  0  0 
  2  7  1  0  0  0  0 
  8  9  1  0  0  0  0 
  9 10  2  0  0  0  0 
 10 11  1  0  0  0  0 
 11 12  2  0  0  0  0 
  3  8  2  0  0  0  0 
  3 12  1  0  0  0  0 
 13 14  1  0  0  0  0 
 14 15  2  0  0  0  0 
 15 16  1  0  0  0  0 
 16 17  2  0  0  0  0 
  1 13  2  0  0  0  0 
  1 17  1  0  0  0  0 
  7 18  1  0  0  0  0 
 18 19  1  0  0  0  0 
 20 21  2  0  0  0  0 
 21 22  1  0  0  0  0 
 22 23  2  0  0  0  0 
 19 20  1  0  0  0  0 
 19 23  1  0  0  0  0 
 23 24  1  0  0  0  0 
  5 25  1  0  0  0  0 
  5 26  1  0  0  0  0 
  7 27  1  0  0  0  0 
  7 28  1  0  0  0  0 
  8 29  1  0  0  0  0 
  9 30  1  0  0  0  0 
 10 31  1  0  0  0  0 
 11 32  1  0  0  0  0 
 12 33  1  0  0  0  0 
 13 34  1  0  0  0  0 
 14 35  1  0  0  0  0 
 15 36  1  0  0  0  0 
 16 37  1  0  0  0  0 
 17 38  1  0  0  0  0 
 18 39  1  0  0  0  0 
 18 40  1  0  0  0  0 
 20 41  1  0  0  0  0 
 21 42  1  0  0  0  0 
 24 43  1  0  0  0  0 
 24 44  1  0  0  0  0 
 24 45  1  0  0  0  0 
M  END
> <cdk:Title>
imidafenacin

> <Conformer>
1

> <SuperDrugID>
SD003839

$$$$
