tubocurarine
  CDK     0628171801

 86 92  0  0  0  0  0  0  0  0999 V2000
    6.0942    3.9293   -2.2955 O   0  0  0  0  0  0  0  0  0  0  0  0
    6.3455    2.9516   -1.3856 C   0  0  0  0  0  0  0  0  0  0  0  0
    5.7691    3.0562   -0.0995 C   0  0  0  0  0  0  0  0  0  0  0  0
    7.1615    1.8485   -1.7157 C   0  0  0  0  0  0  0  0  0  0  0  0
    5.9817    2.0336    0.8638 C   0  0  0  0  0  0  0  0  0  0  0  0
    5.0856    4.1935    0.2413 O   0  0  0  0  0  0  0  0  0  0  0  0
    7.6503    1.7313   -2.9955 O   0  0  0  0  0  0  0  0  0  0  0  0
    7.4363    0.8781   -0.7307 C   0  0  0  0  0  0  0  0  0  0  0  0
    5.2388    1.9596    2.1769 C   0  0  1  0  0  0  0  0  0  0  0  0
    6.8941    0.9895    0.5665 C   0  0  0  0  0  0  0  0  0  0  0  0
    3.7775    4.3989   -0.1398 C   0  0  0  0  0  0  0  0  0  0  0  0
    9.0821    1.8340   -3.1517 C   0  0  0  0  0  0  0  0  0  0  0  0
    3.9859    1.0427    1.8606 C   0  0  1  0  0  0  0  0  0  0  0  0
    6.1513    1.5897    3.3860 N   0  0  2  0  0  0  0  0  0  0  0  0
    7.3160    0.0753    1.6598 C   0  0  2  0  0  0  0  0  0  0  0  0
    2.9632    3.5559   -0.9357 C   0  0  0  0  0  0  0  0  0  0  0  0
    3.2287    5.6058    0.3359 C   0  0  0  0  0  0  0  0  0  0  0  0
    2.7918    1.1842    2.7422 C   0  0  0  0  0  0  0  0  0  0  0  0
    5.4830    0.6897    4.4109 C   0  0  0  0  0  0  0  0  0  0  0  0
    6.5100    2.8564    4.1464 C   0  0  0  0  0  0  0  0  0  0  0  0
    7.4600    0.9194    2.9528 C   0  0  1  0  0  0  0  0  0  0  0  0
    1.6359    3.9261   -1.2386 C   0  0  0  0  0  0  0  0  0  0  0  0
    1.9078    5.9741    0.0368 C   0  0  0  0  0  0  0  0  0  0  0  0
    2.1866    2.4468    2.9469 C   0  0  0  0  0  0  0  0  0  0  0  0
    2.2053    0.0513    3.3570 C   0  0  0  0  0  0  0  0  0  0  0  0
    1.0900    5.1430   -0.7604 C   0  0  0  0  0  0  0  0  0  0  0  0
    1.0446    2.5872    3.7593 C   0  0  0  0  0  0  0  0  0  0  0  0
    1.0667    0.1856    4.1702 C   0  0  0  0  0  0  0  0  0  0  0  0
   -0.3059    5.5556   -1.0879 C   0  0  2  0  0  0  0  0  0  0  0  0
    0.5289    3.8372    3.9663 O   0  0  0  0  0  0  0  0  0  0  0  0
    0.4907    1.4496    4.3825 C   0  0  0  0  0  0  0  0  0  0  0  0
   -1.4653    4.6740   -0.5145 C   0  0  1  0  0  0  0  0  0  0  0  0
   -0.5504    4.1872    3.1900 C   0  0  0  0  0  0  0  0  0  0  0  0
   -0.5892    1.5373    5.1949 O   0  0  0  0  0  0  0  0  0  0  0  0
   -1.5682    4.6836    0.9907 C   0  0  0  0  0  0  0  0  0  0  0  0
   -2.7175    5.1441   -1.2152 N   0  0  1  0  0  0  0  0  0  0  0  0
   -0.5180    4.1582    1.7794 C   0  0  0  0  0  0  0  0  0  0  0  0
   -1.7056    4.6692    3.8361 C   0  0  0  0  0  0  0  0  0  0  0  0
   -2.7090    5.2115    1.6591 C   0  0  0  0  0  0  0  0  0  0  0  0
   -3.6086    4.0750   -1.7504 C   0  0  0  0  0  0  0  0  0  0  0  0
   -3.4257    6.2572   -0.5166 C   0  0  1  0  0  0  0  0  0  0  0  0
   -1.7773    4.6423    5.2052 O   0  0  0  0  0  0  0  0  0  0  0  0
   -2.7852    5.1505    3.0701 C   0  0  0  0  0  0  0  0  0  0  0  0
   -3.8355    5.8302    0.9115 C   0  0  2  0  0  0  0  0  0  0  0  0
   -1.5885    5.9286    5.8203 C   0  0  0  0  0  0  0  0  0  0  0  0
    4.8183    2.9504    2.3532 H   0  0  0  0  0  0  0  0  0  0  0  0
   -1.2585    3.6389   -0.8107 H   0  0  0  0  0  0  0  0  0  0  0  0
    6.5218    3.6509   -3.1310 H   0  0  0  0  0  0  0  0  0  0  0  0
    8.0399    0.0865   -0.9634 H   0  0  0  0  0  0  0  0  0  0  0  0
    9.2373    1.8574   -4.3137 H   0  0  0  0  0  0  0  0  0  0  0  0
    9.4507    2.7509   -2.5977 H   0  0  0  0  0  0  0  0  0  0  0  0
    9.5597    0.9559   -2.6196 H   0  0  0  0  0  0  0  0  0  0  0  0
    3.5974    1.2471    0.8579 H   0  0  0  0  0  0  0  0  0  0  0  0
    4.3165    0.0033    1.8296 H   0  0  0  0  0  0  0  0  0  0  0  0
    8.2788   -0.3914    1.4381 H   0  0  0  0  0  0  0  0  0  0  0  0
    6.5821   -0.7195    1.7989 H   0  0  0  0  0  0  0  0  0  0  0  0
    3.3246    2.6731   -1.3043 H   0  0  0  0  0  0  0  0  0  0  0  0
    3.7946    6.2354    0.9081 H   0  0  0  0  0  0  0  0  0  0  0  0
    5.2237   -0.2811    3.9915 H   0  0  0  0  0  0  0  0  0  0  0  0
    4.5758    1.1366    4.8194 H   0  0  0  0  0  0  0  0  0  0  0  0
    6.1332    0.4820    5.2664 H   0  0  0  0  0  0  0  0  0  0  0  0
    6.9911    3.5876    3.4915 H   0  0  0  0  0  0  0  0  0  0  0  0
    5.6234    3.3414    4.5685 H   0  0  0  0  0  0  0  0  0  0  0  0
    7.1965    2.6607    4.9767 H   0  0  0  0  0  0  0  0  0  0  0  0
    8.2345    1.6680    2.7378 H   0  0  0  0  0  0  0  0  0  0  0  0
    7.8933    0.2889    3.7362 H   0  0  0  0  0  0  0  0  0  0  0  0
    1.0688    3.2990   -1.8148 H   0  0  0  0  0  0  0  0  0  0  0  0
    1.5492    6.8570    0.4091 H   0  0  0  0  0  0  0  0  0  0  0  0
    2.5673    3.2828    2.5001 H   0  0  0  0  0  0  0  0  0  0  0  0
    2.5999   -0.8834    3.2174 H   0  0  0  0  0  0  0  0  0  0  0  0
    0.6584   -0.6404    4.6113 H   0  0  0  0  0  0  0  0  0  0  0  0
   -0.3790    5.5618   -2.1798 H   0  0  0  0  0  0  0  0  0  0  0  0
   -0.4769    6.5853   -0.7619 H   0  0  0  0  0  0  0  0  0  0  0  0
   -0.8041    2.4891    5.2504 H   0  0  0  0  0  0  0  0  0  0  0  0
    0.2972    3.7525    1.3279 H   0  0  0  0  0  0  0  0  0  0  0  0
   -4.0138    3.4668   -0.9411 H   0  0  0  0  0  0  0  0  0  0  0  0
   -3.0478    3.4316   -2.4294 H   0  0  0  0  0  0  0  0  0  0  0  0
   -4.4377    4.5007   -2.3204 H   0  0  0  0  0  0  0  0  0  0  0  0
   -2.7628    7.1254   -0.4511 H   0  0  0  0  0  0  0  0  0  0  0  0
   -4.3037    6.5829   -1.0800 H   0  0  0  0  0  0  0  0  0  0  0  0
   -3.6249    5.4786    3.5543 H   0  0  0  0  0  0  0  0  0  0  0  0
   -4.2032    6.7159    1.4378 H   0  0  0  0  0  0  0  0  0  0  0  0
   -4.6552    5.1118    0.8572 H   0  0  0  0  0  0  0  0  0  0  0  0
   -1.5432    5.7823    6.8986 H   0  0  0  0  0  0  0  0  0  0  0  0
   -0.6555    6.4003    5.5032 H   0  0  0  0  0  0  0  0  0  0  0  0
   -2.4266    6.5940    5.6045 H   0  0  0  0  0  0  0  0  0  0  0  0
  1  2  1  0  0  0  0 
  2  3  2  0  0  0  0 
  2  4  1  0  0  0  0 
  3  5  1  0  0  0  0 
  3  6  1  0  0  0  0 
  4  7  1  0  0  0  0 
  4  8  2  0  0  0  0 
  9  5  1  0  0  0  0 
  5 10  2  0  0  0  0 
  6 11  1  0  0  0  0 
  7 12  1  0  0  0  0 
  8 10  1  0  0  0  0 
  9 13  1  0  0  0  0 
  9 14  1  0  0  0  0 
  9 46  1  0  0  0  0 
 10 15  1  0  0  0  0 
 11 16  2  0  0  0  0 
 11 17  1  0  0  0  0 
 13 18  1  0  0  0  0 
 14 19  1  0  0  0  0 
 14 20  1  0  0  0  0 
 14 21  1  0  0  0  0 
 15 21  1  0  0  0  0 
 16 22  1  0  0  0  0 
 17 23  2  0  0  0  0 
 18 24  2  0  0  0  0 
 18 25  1  0  0  0  0 
 22 26  2  0  0  0  0 
 23 26  1  0  0  0  0 
 24 27  1  0  0  0  0 
 25 28  2  0  0  0  0 
 26 29  1  0  0  0  0 
 27 30  1  0  0  0  0 
 27 31  2  0  0  0  0 
 28 31  1  0  0  0  0 
 32 29  1  0  0  0  0 
 30 33  1  0  0  0  0 
 31 34  1  0  0  0  0 
 32 35  1  0  0  0  0 
 32 36  1  0  0  0  0 
 32 47  1  0  0  0  0 
 33 37  2  0  0  0  0 
 33 38  1  0  0  0  0 
 35 37  1  0  0  0  0 
 35 39  2  0  0  0  0 
 36 40  1  0  0  0  0 
 36 41  1  0  0  0  0 
 38 42  1  0  0  0  0 
 38 43  2  0  0  0  0 
 39 43  1  0  0  0  0 
 39 44  1  0  0  0  0 
 41 44  1  0  0  0  0 
 42 45  1  0  0  0  0 
  1 48  1  0  0  0  0 
  8 49  1  0  0  0  0 
 12 50  1  0  0  0  0 
 12 51  1  0  0  0  0 
 12 52  1  0  0  0  0 
 13 53  1  0  0  0  0 
 13 54  1  0  0  0  0 
 15 55  1  0  0  0  0 
 15 56  1  0  0  0  0 
 16 57  1  0  0  0  0 
 17 58  1  0  0  0  0 
 19 59  1  0  0  0  0 
 19 60  1  0  0  0  0 
 19 61  1  0  0  0  0 
 20 62  1  0  0  0  0 
 20 63  1  0  0  0  0 
 20 64  1  0  0  0  0 
 21 65  1  0  0  0  0 
 21 66  1  0  0  0  0 
 22 67  1  0  0  0  0 
 23 68  1  0  0  0  0 
 24 69  1  0  0  0  0 
 25 70  1  0  0  0  0 
 28 71  1  0  0  0  0 
 29 72  1  0  0  0  0 
 29 73  1  0  0  0  0 
 34 74  1  0  0  0  0 
 37 75  1  0  0  0  0 
 40 76  1  0  0  0  0 
 40 77  1  0  0  0  0 
 40 78  1  0  0  0  0 
 41 79  1  0  0  0  0 
 41 80  1  0  0  0  0 
 43 81  1  0  0  0  0 
 44 82  1  0  0  0  0 
 44 83  1  0  0  0  0 
 45 84  1  0  0  0  0 
 45 85  1  0  0  0  0 
 45 86  1  0  0  0  0 
M  CHG  1  14   1
M  END
> <cdk:Title>
tubocurarine

> <Conformer>
1

> <SuperDrugID>
SD002510

$$$$
