bromoform
  CDK     0628171801

  5  4  0  0  0  0  0  0  0  0999 V2000
    1.7484   -0.1225   -0.2548 Br  0  0  0  0  0  0  0  0  0  0  0  0
    0.9209    0.6315    1.3136 C   0  0  1  0  0  0  0  0  0  0  0  0
    1.2546   -0.5118    2.8285 Br  0  0  0  0  0  0  0  0  0  0  0  0
    1.6595    2.3787    1.6525 Br  0  0  0  0  0  0  0  0  0  0  0  0
   -0.1538    0.7164    1.1522 H   0  0  0  0  0  0  0  0  0  0  0  0
  1  2  1  0  0  0  0 
  2  3  1  0  0  0  0 
  2  4  1  0  0  0  0 
  2  5  1  0  0  0  0 
M  END
> <cdk:Title>
bromoform

> <Conformer>
1

> <SuperDrugID>
SD000347

$$$$
