cilastatin
  CDK     0628171802

 50 50  0  0  0  0  0  0  0  0999 V2000
    1.7932   -3.3576    3.4333 C   0  0  1  0  0  0  0  0  0  0  0  0
    1.7535   -1.9342    2.8193 C   0  0  1  0  0  0  0  0  0  0  0  0
    2.9856   -3.5355    4.2867 C   0  0  0  0  0  0  0  0  0  0  0  0
    0.5985   -3.6292    4.2468 N   0  0  1  0  0  0  0  0  0  0  0  0
    3.2039   -2.7160    5.3430 O   0  0  0  0  0  0  0  0  0  0  0  0
    3.8172   -4.4416    4.0532 O   0  0  0  0  0  0  0  0  0  0  0  0
    0.3430   -1.7300    1.6839 S   0  0  0  0  0  0  0  0  0  0  0  0
    0.4488    0.0140    1.1656 C   0  0  2  0  0  0  0  0  0  0  0  0
   -0.7238    0.3637    0.2217 C   0  0  2  0  0  0  0  0  0  0  0  0
   -0.6938    1.8325   -0.2789 C   0  0  2  0  0  0  0  0  0  0  0  0
   -1.8891    2.1214   -1.2284 C   0  0  2  0  0  0  0  0  0  0  0  0
   -1.9478    3.5015   -1.7015 C   0  0  0  0  0  0  0  0  0  0  0  0
   -2.3730    4.5623   -0.9800 C   0  0  0  0  0  0  0  0  0  0  0  0
   -2.4307    5.8479   -1.5322 C   0  0  0  0  0  0  0  0  0  0  0  0
   -2.7742    4.3473    0.2822 N   0  0  0  0  0  0  0  0  0  0  0  0
   -2.3311    4.9936    1.3967 C   0  0  0  0  0  0  0  0  0  0  0  0
   -1.9357    6.1446   -2.7611 O   0  0  0  0  0  0  0  0  0  0  0  0
   -2.9792    6.7954   -0.9235 O   0  0  0  0  0  0  0  0  0  0  0  0
   -2.8477    4.5534    2.7052 C   0  0  1  0  0  0  0  0  0  0  0  0
   -1.4545    5.8902    1.3517 O   0  0  0  0  0  0  0  0  0  0  0  0
   -3.0283    5.5872    3.8341 C   0  0  1  0  0  0  0  0  0  0  0  0
   -4.2709    4.9803    3.1472 C   0  0  1  0  0  0  0  0  0  0  0  0
   -5.0968    5.9566    2.2635 C   0  0  0  0  0  0  0  0  0  0  0  0
   -5.0760    3.9488    3.9804 C   0  0  0  0  0  0  0  0  0  0  0  0
   -2.5326    3.5636    3.0445 H   0  0  0  0  0  0  0  0  0  0  0  0
    1.8155   -4.0932    2.6232 H   0  0  0  0  0  0  0  0  0  0  0  0
    1.6738   -1.1866    3.6118 H   0  0  0  0  0  0  0  0  0  0  0  0
    2.6731   -1.7501    2.2590 H   0  0  0  0  0  0  0  0  0  0  0  0
    0.5261   -2.8794    4.9373 H   0  0  0  0  0  0  0  0  0  0  0  0
   -0.2169   -3.5523    3.6341 H   0  0  0  0  0  0  0  0  0  0  0  0
    4.0006   -2.8262    5.9021 H   0  0  0  0  0  0  0  0  0  0  0  0
    1.4005    0.1707    0.6539 H   0  0  0  0  0  0  0  0  0  0  0  0
    0.4114    0.6489    2.0534 H   0  0  0  0  0  0  0  0  0  0  0  0
   -1.6652    0.1920    0.7525 H   0  0  0  0  0  0  0  0  0  0  0  0
   -0.6938   -0.3043   -0.6436 H   0  0  0  0  0  0  0  0  0  0  0  0
    0.2423    2.0202   -0.8138 H   0  0  0  0  0  0  0  0  0  0  0  0
   -0.7325    2.5026    0.5840 H   0  0  0  0  0  0  0  0  0  0  0  0
   -2.8290    1.8710   -0.7279 H   0  0  0  0  0  0  0  0  0  0  0  0
   -1.8076    1.4533   -2.0924 H   0  0  0  0  0  0  0  0  0  0  0  0
   -1.6352    3.6507   -2.6337 H   0  0  0  0  0  0  0  0  0  0  0  0
   -3.3965    3.6155    0.4253 H   0  0  0  0  0  0  0  0  0  0  0  0
   -2.0050    7.0572   -3.1145 H   0  0  0  0  0  0  0  0  0  0  0  0
   -2.7763    5.2198    4.8319 H   0  0  0  0  0  0  0  0  0  0  0  0
   -2.7696    6.6185    3.5816 H   0  0  0  0  0  0  0  0  0  0  0  0
   -5.6374    5.3920    1.5023 H   0  0  0  0  0  0  0  0  0  0  0  0
   -4.4712    6.6980    1.7626 H   0  0  0  0  0  0  0  0  0  0  0  0
   -5.8206    6.4871    2.8841 H   0  0  0  0  0  0  0  0  0  0  0  0
   -5.6529    3.3121    3.3085 H   0  0  0  0  0  0  0  0  0  0  0  0
   -4.4301    3.3107    4.5877 H   0  0  0  0  0  0  0  0  0  0  0  0
   -5.7637    4.4719    4.6462 H   0  0  0  0  0  0  0  0  0  0  0  0
  1  2  1  0  0  0  0 
  1  3  1  0  0  0  0 
  1  4  1  0  0  0  0 
  3  5  1  0  0  0  0 
  3  6  2  0  0  0  0 
  2  7  1  0  0  0  0 
  7  8  1  0  0  0  0 
  8  9  1  0  0  0  0 
  9 10  1  0  0  0  0 
 10 11  1  0  0  0  0 
 11 12  1  0  0  0  0 
 12 13  2  0  0  0  0 
 13 14  1  0  0  0  0 
 13 15  1  0  0  0  0 
 15 16  1  0  0  0  0 
 14 17  1  0  0  0  0 
 14 18  2  0  0  0  0 
 16 19  1  0  0  0  0 
 16 20  2  0  0  0  0 
 21 22  1  0  0  0  0 
 19 21  1  0  0  0  0 
 22 19  1  0  0  0  0 
 22 23  1  0  0  0  0 
 22 24  1  0  0  0  0 
 19 25  1  0  0  0  0 
  1 26  1  0  0  0  0 
  2 27  1  0  0  0  0 
  2 28  1  0  0  0  0 
  4 29  1  0  0  0  0 
  4 30  1  0  0  0  0 
  5 31  1  0  0  0  0 
  8 32  1  0  0  0  0 
  8 33  1  0  0  0  0 
  9 34  1  0  0  0  0 
  9 35  1  0  0  0  0 
 10 36  1  0  0  0  0 
 10 37  1  0  0  0  0 
 11 38  1  0  0  0  0 
 11 39  1  0  0  0  0 
 12 40  1  0  0  0  0 
 15 41  1  0  0  0  0 
 17 42  1  0  0  0  0 
 21 43  1  0  0  0  0 
 21 44  1  0  0  0  0 
 23 45  1  0  0  0  0 
 23 46  1  0  0  0  0 
 23 47  1  0  0  0  0 
 24 48  1  0  0  0  0 
 24 49  1  0  0  0  0 
 24 50  1  0  0  0  0 
M  END
> <cdk:Title>
cilastatin

> <Conformer>
1

> <SuperDrugID>
SD000561

$$$$
