triamcinolone benetonide
  CDK     0628171801

 87 92  0  0  0  0  0  0  0  0999 V2000
   -3.2338   -4.7062    1.5810 C   0  0  0  0  0  0  0  0  0  0  0  0
   -3.4565   -3.6392    2.5904 C   0  0  1  0  0  0  0  0  0  0  0  0
   -2.5919   -5.7148    1.9642 O   0  0  0  0  0  0  0  0  0  0  0  0
   -3.6178   -4.6515    0.1256 C   0  0  2  0  0  0  0  0  0  0  0  0
   -4.8443   -3.3495    2.8153 O   0  0  0  0  0  0  0  0  0  0  0  0
   -2.4571   -4.2183   -0.8608 C   0  0  2  0  0  0  0  0  0  0  0  0
   -4.8244   -3.7676   -0.3189 C   0  0  1  0  0  0  0  0  0  0  0  0
   -4.0932   -5.9711   -0.1947 O   0  0  0  0  0  0  0  0  0  0  0  0
   -5.3448   -2.1768    3.3230 C   0  0  0  0  0  0  0  0  0  0  0  0
   -1.7467   -2.9216   -0.2963 C   0  0  0  0  0  0  0  0  0  0  0  0
   -3.2744   -3.9784   -2.1757 C   0  0  1  0  0  0  0  0  0  0  0  0
   -1.3800   -5.3145   -1.1858 C   0  0  1  0  0  0  0  0  0  0  0  0
   -4.4711   -3.1344   -1.6958 C   0  0  1  0  0  0  0  0  0  0  0  0
   -5.9664   -4.6190   -0.4407 O   0  0  0  0  0  0  0  0  0  0  0  0
   -5.5260   -5.9622   -0.2255 C   0  0  2  0  0  0  0  0  0  0  0  0
   -6.8081   -2.0072    3.5170 C   0  0  1  0  0  0  0  0  0  0  0  0
   -4.5769   -1.2291    3.6193 O   0  0  0  0  0  0  0  0  0  0  0  0
   -2.4224   -3.5273   -3.4146 C   0  0  1  0  0  0  0  0  0  0  0  0
   -0.5034   -4.9973   -2.4472 C   0  0  1  0  0  0  0  0  0  0  0  0
   -6.1124   -6.4852    1.1143 C   0  0  0  0  0  0  0  0  0  0  0  0
   -5.9793   -6.8477   -1.4159 C   0  0  0  0  0  0  0  0  0  0  0  0
   -7.5840   -2.1912    2.1776 C   0  0  2  0  0  0  0  0  0  0  0  0
   -7.3157   -2.9527    4.6393 C   0  0  0  0  0  0  0  0  0  0  0  0
   -1.3419   -4.6430   -3.7450 C   0  0  1  0  0  0  0  0  0  0  0  0
   -3.3667   -3.3092   -4.6851 C   0  0  1  0  0  0  0  0  0  0  0  0
    0.4338   -3.9783   -2.1131 O   0  0  0  0  0  0  0  0  0  0  0  0
   -8.9566   -1.8071    2.3192 N   0  0  0  0  0  0  0  0  0  0  0  0
   -2.0232   -5.8226   -4.0290 F   0  0  0  0  0  0  0  0  0  0  0  0
   -0.5201   -4.3068   -5.0794 C   0  0  2  0  0  0  0  0  0  0  0  0
   -2.5139   -2.9829   -6.0174 C   0  0  2  0  0  0  0  0  0  0  0  0
   -9.9231   -1.8862    1.3561 C   0  0  0  0  0  0  0  0  0  0  0  0
    0.4143   -3.0468   -4.9684 C   0  0  0  0  0  0  0  0  0  0  0  0
   -1.5180   -4.0556   -6.1802 C   0  0  0  0  0  0  0  0  0  0  0  0
    0.3952   -5.4356   -5.3976 C   0  0  0  0  0  0  0  0  0  0  0  0
   -9.5957   -2.3078    0.2199 O   0  0  0  0  0  0  0  0  0  0  0  0
  -11.2848   -1.5181    1.6163 C   0  0  0  0  0  0  0  0  0  0  0  0
   -1.5454   -4.8344   -7.2892 C   0  0  0  0  0  0  0  0  0  0  0  0
    0.3008   -6.1706   -6.5187 C   0  0  0  0  0  0  0  0  0  0  0  0
  -11.7055   -1.0485    2.8896 C   0  0  0  0  0  0  0  0  0  0  0  0
  -12.2785   -1.6224    0.6056 C   0  0  0  0  0  0  0  0  0  0  0  0
   -0.6632   -5.8880   -7.4656 C   0  0  0  0  0  0  0  0  0  0  0  0
  -13.0500   -0.7148    3.1448 C   0  0  0  0  0  0  0  0  0  0  0  0
  -13.6243   -1.2908    0.8575 C   0  0  0  0  0  0  0  0  0  0  0  0
   -0.7415   -6.6026   -8.4934 O   0  0  0  0  0  0  0  0  0  0  0  0
  -14.0125   -0.8401    2.1296 C   0  0  0  0  0  0  0  0  0  0  0  0
   -3.0270   -3.9321    3.5522 H   0  0  0  0  0  0  0  0  0  0  0  0
   -2.9347   -2.7377    2.2730 H   0  0  0  0  0  0  0  0  0  0  0  0
   -5.0580   -2.9677    0.3796 H   0  0  0  0  0  0  0  0  0  0  0  0
   -1.1228   -2.4093   -1.0222 H   0  0  0  0  0  0  0  0  0  0  0  0
   -1.1054   -3.1785    0.5486 H   0  0  0  0  0  0  0  0  0  0  0  0
   -2.4684   -2.1841    0.0533 H   0  0  0  0  0  0  0  0  0  0  0  0
   -3.7267   -4.9253   -2.4899 H   0  0  0  0  0  0  0  0  0  0  0  0
   -0.7305   -5.4625   -0.3192 H   0  0  0  0  0  0  0  0  0  0  0  0
   -1.8709   -6.2743   -1.3628 H   0  0  0  0  0  0  0  0  0  0  0  0
   -5.3110   -3.1821   -2.3942 H   0  0  0  0  0  0  0  0  0  0  0  0
   -4.1819   -2.0866   -1.5807 H   0  0  0  0  0  0  0  0  0  0  0  0
   -6.9910   -0.9821    3.8615 H   0  0  0  0  0  0  0  0  0  0  0  0
   -1.8570   -2.6109   -3.0943 H   0  0  0  0  0  0  0  0  0  0  0  0
    0.0961   -5.8916   -2.6381 H   0  0  0  0  0  0  0  0  0  0  0  0
   -7.1903   -6.6381    1.0257 H   0  0  0  0  0  0  0  0  0  0  0  0
   -5.6450   -7.4334    1.3858 H   0  0  0  0  0  0  0  0  0  0  0  0
   -5.9362   -5.7712    1.9205 H   0  0  0  0  0  0  0  0  0  0  0  0
   -7.0644   -6.8104   -1.5297 H   0  0  0  0  0  0  0  0  0  0  0  0
   -5.6773   -7.8846   -1.2555 H   0  0  0  0  0  0  0  0  0  0  0  0
   -5.5306   -6.5031   -2.3487 H   0  0  0  0  0  0  0  0  0  0  0  0
   -7.5284   -3.2352    1.8540 H   0  0  0  0  0  0  0  0  0  0  0  0
   -7.1271   -1.5668    1.4054 H   0  0  0  0  0  0  0  0  0  0  0  0
   -8.3776   -2.7808    4.8316 H   0  0  0  0  0  0  0  0  0  0  0  0
   -7.1785   -3.9995    4.3565 H   0  0  0  0  0  0  0  0  0  0  0  0
   -6.7698   -2.7654    5.5684 H   0  0  0  0  0  0  0  0  0  0  0  0
   -3.9914   -4.1872   -4.8679 H   0  0  0  0  0  0  0  0  0  0  0  0
   -4.0252   -2.4572   -4.5026 H   0  0  0  0  0  0  0  0  0  0  0  0
    0.8777   -4.2914   -1.2959 H   0  0  0  0  0  0  0  0  0  0  0  0
   -9.2196   -1.4582    3.1821 H   0  0  0  0  0  0  0  0  0  0  0  0
   -1.9489   -2.0144   -6.0097 H   0  0  0  0  0  0  0  0  0  0  0  0
   -3.1357   -2.8792   -6.9517 H   0  0  0  0  0  0  0  0  0  0  0  0
   -0.1115   -2.1804   -4.5709 H   0  0  0  0  0  0  0  0  0  0  0  0
    1.2727   -3.2249   -4.3196 H   0  0  0  0  0  0  0  0  0  0  0  0
    0.8097   -2.7706   -5.9497 H   0  0  0  0  0  0  0  0  0  0  0  0
    1.1211   -5.6723   -4.7594 H   0  0  0  0  0  0  0  0  0  0  0  0
   -2.2170   -4.6688   -8.0041 H   0  0  0  0  0  0  0  0  0  0  0  0
    0.9340   -6.9235   -6.6681 H   0  0  0  0  0  0  0  0  0  0  0  0
  -11.0418   -0.9444    3.6597 H   0  0  0  0  0  0  0  0  0  0  0  0
  -12.0353   -1.9484   -0.3319 H   0  0  0  0  0  0  0  0  0  0  0  0
  -13.3252   -0.3844    4.0737 H   0  0  0  0  0  0  0  0  0  0  0  0
  -14.3234   -1.3802    0.1175 H   0  0  0  0  0  0  0  0  0  0  0  0
  -14.9904   -0.6038    2.3169 H   0  0  0  0  0  0  0  0  0  0  0  0
  1  2  1  0  0  0  0 
  1  3  2  0  0  0  0 
  2  5  1  0  0  0  0 
  4  1  1  0  0  0  0 
  6  4  1  0  0  0  0 
  4  7  1  0  0  0  0 
  4  8  1  0  0  0  0 
  5  9  1  0  0  0  0 
  6 10  1  0  0  0  0 
 11  6  1  0  0  0  0 
  6 12  1  0  0  0  0 
  7 13  1  0  0  0  0 
  7 14  1  0  0  0  0 
  8 15  1  0  0  0  0 
  9 16  1  0  0  0  0 
  9 17  2  0  0  0  0 
 11 13  1  0  0  0  0 
 18 11  1  0  0  0  0 
 19 12  1  0  0  0  0 
 14 15  1  0  0  0  0 
 15 20  1  0  0  0  0 
 15 21  1  0  0  0  0 
 16 22  1  0  0  0  0 
 16 23  1  0  0  0  0 
 24 18  1  0  0  0  0 
 18 25  1  0  0  0  0 
 24 19  1  0  0  0  0 
 19 26  1  0  0  0  0 
 22 27  1  0  0  0  0 
 24 28  1  0  0  0  0 
 24 29  1  0  0  0  0 
 25 30  1  0  0  0  0 
 27 31  1  0  0  0  0 
 29 32  1  0  0  0  0 
 29 33  1  0  0  0  0 
 29 34  1  0  0  0  0 
 30 33  1  0  0  0  0 
 31 35  2  0  0  0  0 
 31 36  1  0  0  0  0 
 33 37  2  0  0  0  0 
 34 38  2  0  0  0  0 
 36 39  2  0  0  0  0 
 36 40  1  0  0  0  0 
 37 41  1  0  0  0  0 
 38 41  1  0  0  0  0 
 39 42  1  0  0  0  0 
 40 43  2  0  0  0  0 
 41 44  2  0  0  0  0 
 42 45  2  0  0  0  0 
 43 45  1  0  0  0  0 
 46  2  1  0  0  0  0 
 47  2  1  0  0  0  0 
  7 48  1  0  0  0  0 
 49 10  1  0  0  0  0 
 50 10  1  0  0  0  0 
 51 10  1  0  0  0  0 
 11 52  1  0  0  0  0 
 53 12  1  0  0  0  0 
 54 12  1  0  0  0  0 
 55 13  1  0  0  0  0 
 56 13  1  0  0  0  0 
 57 16  1  0  0  0  0 
 18 58  1  0  0  0  0 
 19 59  1  0  0  0  0 
 60 20  1  0  0  0  0 
 61 20  1  0  0  0  0 
 62 20  1  0  0  0  0 
 63 21  1  0  0  0  0 
 64 21  1  0  0  0  0 
 65 21  1  0  0  0  0 
 66 22  1  0  0  0  0 
 67 22  1  0  0  0  0 
 68 23  1  0  0  0  0 
 69 23  1  0  0  0  0 
 70 23  1  0  0  0  0 
 71 25  1  0  0  0  0 
 72 25  1  0  0  0  0 
 73 26  1  0  0  0  0 
 74 27  1  0  0  0  0 
 75 30  1  0  0  0  0 
 76 30  1  0  0  0  0 
 77 32  1  0  0  0  0 
 78 32  1  0  0  0  0 
 79 32  1  0  0  0  0 
 80 34  1  0  0  0  0 
 81 37  1  0  0  0  0 
 82 38  1  0  0  0  0 
 83 39  1  0  0  0  0 
 84 40  1  0  0  0  0 
 85 42  1  0  0  0  0 
 86 43  1  0  0  0  0 
 87 45  1  0  0  0  0 
M  END
> <cdk:Title>
triamcinolone benetonide

> <Conformer>
1

> <SuperDrugID>
SD003347

$$$$
