binifibrate
  CDK     0628171801

 58 60  0  0  0  0  0  0  0  0999 V2000
   -4.6738    1.2108   -0.6404 C   0  0  1  0  0  0  0  0  0  0  0  0
   -3.7457    0.2120   -1.0938 O   0  0  0  0  0  0  0  0  0  0  0  0
   -4.3111    2.5660   -1.3007 C   0  0  1  0  0  0  0  0  0  0  0  0
   -6.1227    0.7201   -0.9146 C   0  0  1  0  0  0  0  0  0  0  0  0
   -3.0270   -0.6939   -0.3626 C   0  0  0  0  0  0  0  0  0  0  0  0
   -2.8966    2.8020   -1.1646 O   0  0  0  0  0  0  0  0  0  0  0  0
   -6.2107   -0.0643   -2.1164 O   0  0  0  0  0  0  0  0  0  0  0  0
   -2.0147   -1.5693   -1.0331 C   0  0  2  0  0  0  0  0  0  0  0  0
   -3.2057   -0.7676    0.8765 O   0  0  0  0  0  0  0  0  0  0  0  0
   -2.2246    3.5912   -0.2680 C   0  0  0  0  0  0  0  0  0  0  0  0
   -7.3048   -0.7791   -2.5315 C   0  0  0  0  0  0  0  0  0  0  0  0
   -0.7074   -0.9291   -1.0327 O   0  0  0  0  0  0  0  0  0  0  0  0
   -2.3577   -1.7110   -2.5502 C   0  0  0  0  0  0  0  0  0  0  0  0
   -1.9798   -3.0057   -0.4167 C   0  0  0  0  0  0  0  0  0  0  0  0
   -2.8708    4.2565    0.5765 O   0  0  0  0  0  0  0  0  0  0  0  0
   -0.8014    3.5914   -0.2625 C   0  0  0  0  0  0  0  0  0  0  0  0
   -8.3749   -0.6766   -1.8848 O   0  0  0  0  0  0  0  0  0  0  0  0
   -7.2344   -1.6367   -3.6628 C   0  0  0  0  0  0  0  0  0  0  0  0
   -0.0340   -0.7489    0.1542 C   0  0  0  0  0  0  0  0  0  0  0  0
   -0.0618    3.1039   -1.3681 C   0  0  0  0  0  0  0  0  0  0  0  0
   -0.0554    4.0249    0.8624 C   0  0  0  0  0  0  0  0  0  0  0  0
   -6.1595   -1.5659   -4.5809 C   0  0  0  0  0  0  0  0  0  0  0  0
   -8.2286   -2.6162   -3.9160 C   0  0  0  0  0  0  0  0  0  0  0  0
    0.9998   -1.6397    0.5116 C   0  0  0  0  0  0  0  0  0  0  0  0
   -0.3069    0.3519    0.9933 C   0  0  0  0  0  0  0  0  0  0  0  0
    1.3426    3.0485   -1.3346 C   0  0  0  0  0  0  0  0  0  0  0  0
    1.3010    3.9581    0.8668 N   0  0  0  0  0  0  0  0  0  0  0  0
   -6.0914   -2.4356   -5.6864 C   0  0  0  0  0  0  0  0  0  0  0  0
   -8.1386   -3.4446   -4.9886 N   0  0  0  0  0  0  0  0  0  0  0  0
    1.7563   -1.4264    1.6807 C   0  0  0  0  0  0  0  0  0  0  0  0
    0.4370    0.5641    2.1679 C   0  0  0  0  0  0  0  0  0  0  0  0
    2.0149    3.4874   -0.1845 C   0  0  0  0  0  0  0  0  0  0  0  0
   -7.1112   -3.3838   -5.8706 C   0  0  0  0  0  0  0  0  0  0  0  0
    1.4774   -0.3205    2.5097 C   0  0  0  0  0  0  0  0  0  0  0  0
    2.3896   -0.0540    3.9106 Cl  0  0  0  0  0  0  0  0  0  0  0  0
   -4.5699    1.3552    0.4396 H   0  0  0  0  0  0  0  0  0  0  0  0
   -4.5438    2.5421   -2.3691 H   0  0  0  0  0  0  0  0  0  0  0  0
   -4.9002    3.3631   -0.8353 H   0  0  0  0  0  0  0  0  0  0  0  0
   -6.4265    0.0792   -0.0811 H   0  0  0  0  0  0  0  0  0  0  0  0
   -6.8241    1.5567   -0.9612 H   0  0  0  0  0  0  0  0  0  0  0  0
   -1.6397   -2.3650   -3.0503 H   0  0  0  0  0  0  0  0  0  0  0  0
   -2.3184   -0.7388   -3.0503 H   0  0  0  0  0  0  0  0  0  0  0  0
   -3.3589   -2.1287   -2.6893 H   0  0  0  0  0  0  0  0  0  0  0  0
   -1.2113   -3.6109   -0.9040 H   0  0  0  0  0  0  0  0  0  0  0  0
   -1.7488   -2.9671    0.6494 H   0  0  0  0  0  0  0  0  0  0  0  0
   -2.9441   -3.5050   -0.5397 H   0  0  0  0  0  0  0  0  0  0  0  0
   -0.5337    2.7804   -2.2137 H   0  0  0  0  0  0  0  0  0  0  0  0
   -0.5157    4.3796    1.7025 H   0  0  0  0  0  0  0  0  0  0  0  0
   -5.4153   -0.8764   -4.4593 H   0  0  0  0  0  0  0  0  0  0  0  0
   -9.0346   -2.7235   -3.2973 H   0  0  0  0  0  0  0  0  0  0  0  0
    1.2067   -2.4446   -0.0843 H   0  0  0  0  0  0  0  0  0  0  0  0
   -1.0502    1.0045    0.7525 H   0  0  0  0  0  0  0  0  0  0  0  0
    1.8663    2.6927   -2.1356 H   0  0  0  0  0  0  0  0  0  0  0  0
   -5.3111   -2.3799   -6.3459 H   0  0  0  0  0  0  0  0  0  0  0  0
    2.5103   -2.0770    1.9200 H   0  0  0  0  0  0  0  0  0  0  0  0
    0.2197    1.3643    2.7669 H   0  0  0  0  0  0  0  0  0  0  0  0
    3.0342    3.4533   -0.1352 H   0  0  0  0  0  0  0  0  0  0  0  0
   -7.0817   -4.0297   -6.6613 H   0  0  0  0  0  0  0  0  0  0  0  0
  1  2  1  0  0  0  0 
  1  3  1  0  0  0  0 
  1  4  1  0  0  0  0 
  2  5  1  0  0  0  0 
  3  6  1  0  0  0  0 
  4  7  1  0  0  0  0 
  5  8  1  0  0  0  0 
  5  9  2  0  0  0  0 
  6 10  1  0  0  0  0 
  7 11  1  0  0  0  0 
  8 12  1  0  0  0  0 
  8 13  1  0  0  0  0 
  8 14  1  0  0  0  0 
 10 15  2  0  0  0  0 
 10 16  1  0  0  0  0 
 11 17  2  0  0  0  0 
 11 18  1  0  0  0  0 
 12 19  1  0  0  0  0 
 16 20  2  0  0  0  0 
 16 21  1  0  0  0  0 
 18 22  2  0  0  0  0 
 18 23  1  0  0  0  0 
 19 24  2  0  0  0  0 
 19 25  1  0  0  0  0 
 20 26  1  0  0  0  0 
 21 27  2  0  0  0  0 
 22 28  1  0  0  0  0 
 23 29  2  0  0  0  0 
 24 30  1  0  0  0  0 
 25 31  2  0  0  0  0 
 26 32  2  0  0  0  0 
 27 32  1  0  0  0  0 
 28 33  2  0  0  0  0 
 29 33  1  0  0  0  0 
 30 34  2  0  0  0  0 
 31 34  1  0  0  0  0 
 34 35  1  0  0  0  0 
  1 36  1  0  0  0  0 
  3 37  1  0  0  0  0 
  3 38  1  0  0  0  0 
  4 39  1  0  0  0  0 
  4 40  1  0  0  0  0 
 13 41  1  0  0  0  0 
 13 42  1  0  0  0  0 
 13 43  1  0  0  0  0 
 14 44  1  0  0  0  0 
 14 45  1  0  0  0  0 
 14 46  1  0  0  0  0 
 20 47  1  0  0  0  0 
 21 48  1  0  0  0  0 
 22 49  1  0  0  0  0 
 23 50  1  0  0  0  0 
 24 51  1  0  0  0  0 
 25 52  1  0  0  0  0 
 26 53  1  0  0  0  0 
 28 54  1  0  0  0  0 
 30 55  1  0  0  0  0 
 31 56  1  0  0  0  0 
 32 57  1  0  0  0  0 
 33 58  1  0  0  0  0 
M  END
> <cdk:Title>
binifibrate

> <Conformer>
1

> <SuperDrugID>
SD000317

$$$$
