acetylcysteine
  CDK     0628171802

 19 18  0  0  0  0  0  0  0  0999 V2000
    2.5858   -4.1528   -2.8206 C   0  0  0  0  0  0  0  0  0  0  0  0
    2.3477   -3.6946   -1.4424 C   0  0  0  0  0  0  0  0  0  0  0  0
    3.3115   -3.2155   -0.8002 O   0  0  0  0  0  0  0  0  0  0  0  0
    1.1012   -3.7833   -0.9009 N   0  0  0  0  0  0  0  0  0  0  0  0
    0.7213   -3.3236    0.4034 C   0  0  1  0  0  0  0  0  0  0  0  0
    0.8500   -1.7815    0.5928 C   0  0  2  0  0  0  0  0  0  0  0  0
    0.1094   -0.7823   -0.7203 S   0  0  0  0  0  0  0  0  0  0  0  0
   -0.6449   -3.7962    0.7159 C   0  0  0  0  0  0  0  0  0  0  0  0
   -0.8595   -4.5726    1.8057 O   0  0  0  0  0  0  0  0  0  0  0  0
   -1.6264   -3.4807    0.0046 O   0  0  0  0  0  0  0  0  0  0  0  0
    3.4162   -4.8600   -2.8401 H   0  0  0  0  0  0  0  0  0  0  0  0
    1.7024   -4.6417   -3.2355 H   0  0  0  0  0  0  0  0  0  0  0  0
    2.8355   -3.2947   -3.4461 H   0  0  0  0  0  0  0  0  0  0  0  0
    0.4103   -4.1846   -1.4525 H   0  0  0  0  0  0  0  0  0  0  0  0
    1.3991   -3.7923    1.1236 H   0  0  0  0  0  0  0  0  0  0  0  0
    1.9042   -1.5111    0.6419 H   0  0  0  0  0  0  0  0  0  0  0  0
    0.3992   -1.4823    1.5410 H   0  0  0  0  0  0  0  0  0  0  0  0
    0.6414    0.3729   -0.2292 H   0  0  0  0  0  0  0  0  0  0  0  0
   -1.7643   -4.8665    2.0379 H   0  0  0  0  0  0  0  0  0  0  0  0
  1  2  1  0  0  0  0 
  2  3  2  0  0  0  0 
  2  4  1  0  0  0  0 
  5  4  1  0  0  0  0 
  5  6  1  0  0  0  0 
  6  7  1  0  0  0  0 
  5  8  1  0  0  0  0 
  8  9  1  0  0  0  0 
  8 10  2  0  0  0  0 
  1 11  1  0  0  0  0 
  1 12  1  0  0  0  0 
  1 13  1  0  0  0  0 
  4 14  1  0  0  0  0 
  5 15  1  0  0  0  0 
  6 16  1  0  0  0  0 
  6 17  1  0  0  0  0 
  7 18  1  0  0  0  0 
  9 19  1  0  0  0  0 
M  END
> <cdk:Title>
acetylcysteine

> <Conformer>
1

> <SuperDrugID>
SD000043

$$$$
