succimer
  CDK     0628171801

 16 15  0  0  0  0  0  0  0  0999 V2000
   -0.9363    0.4510    0.6000 C   0  0  1  0  0  0  0  0  0  0  0  0
   -2.2140    0.2490   -0.2775 C   0  0  2  0  0  0  0  0  0  0  0  0
    0.1807   -0.4351    0.1962 C   0  0  0  0  0  0  0  0  0  0  0  0
   -0.3211    2.1562    0.5341 S   0  0  0  0  0  0  0  0  0  0  0  0
   -3.3176    1.1636    0.0961 C   0  0  0  0  0  0  0  0  0  0  0  0
   -2.8647   -1.4380   -0.1559 S   0  0  0  0  0  0  0  0  0  0  0  0
    0.7523   -0.3184   -1.0281 O   0  0  0  0  0  0  0  0  0  0  0  0
    0.6240   -1.3089    0.9755 O   0  0  0  0  0  0  0  0  0  0  0  0
   -3.8186    1.1792    1.3549 O   0  0  0  0  0  0  0  0  0  0  0  0
   -3.8066    1.9528   -0.7456 O   0  0  0  0  0  0  0  0  0  0  0  0
   -1.1949    0.2493    1.6438 H   0  0  0  0  0  0  0  0  0  0  0  0
   -1.9523    0.4141   -1.3273 H   0  0  0  0  0  0  0  0  0  0  0  0
   -1.4987    2.6949    0.9579 H   0  0  0  0  0  0  0  0  0  0  0  0
   -1.7434   -2.0102   -0.6716 H   0  0  0  0  0  0  0  0  0  0  0  0
    1.5067   -0.8929   -1.2769 H   0  0  0  0  0  0  0  0  0  0  0  0
   -4.5349    1.8064    1.5902 H   0  0  0  0  0  0  0  0  0  0  0  0
  2  1  1  0  0  0  0 
  1  3  1  0  0  0  0 
  1  4  1  0  0  0  0 
  2  5  1  0  0  0  0 
  2  6  1  0  0  0  0 
  3  7  1  0  0  0  0 
  3  8  2  0  0  0  0 
  5  9  1  0  0  0  0 
  5 10  2  0  0  0  0 
  1 11  1  0  0  0  0 
  2 12  1  0  0  0  0 
  4 13  1  0  0  0  0 
  6 14  1  0  0  0  0 
  7 15  1  0  0  0  0 
  9 16  1  0  0  0  0 
M  END
> <cdk:Title>
succimer

> <Conformer>
1

> <SuperDrugID>
SD002234

$$$$
