fluperolone
  CDK     0628171801

 62 65  0  0  0  0  0  0  0  0999 V2000
   -3.3115    0.7448    2.4543 F   0  0  0  0  0  0  0  0  0  0  0  0
   -4.0775    0.6858    1.2956 C   0  0  2  0  0  0  0  0  0  0  0  0
   -5.4969    1.2866    1.6717 C   0  0  2  0  0  0  0  0  0  0  0  0
   -4.1756   -0.8687    0.9157 C   0  0  2  0  0  0  0  0  0  0  0  0
   -3.2815    1.6152    0.2873 C   0  0  1  0  0  0  0  0  0  0  0  0
   -5.3807    2.8110    2.0296 C   0  0  1  0  0  0  0  0  0  0  0  0
   -6.1722    0.4387    2.7949 C   0  0  2  0  0  0  0  0  0  0  0  0
   -4.9282   -1.1788   -0.4328 C   0  0  0  0  0  0  0  0  0  0  0  0
   -4.9309   -1.5709    2.0097 C   0  0  0  0  0  0  0  0  0  0  0  0
   -2.8147   -1.4362    0.7247 C   0  0  0  0  0  0  0  0  0  0  0  0
   -3.6803    1.4532   -1.0691 O   0  0  0  0  0  0  0  0  0  0  0  0
   -3.3178    3.1388    0.6455 C   0  0  1  0  0  0  0  0  0  0  0  0
   -4.7649    3.6944    0.8898 C   0  0  1  0  0  0  0  0  0  0  0  0
   -6.6372    3.5929    2.4604 C   0  0  1  0  0  0  0  0  0  0  0  0
   -6.2516   -1.0585    2.4017 C   0  0  2  0  0  0  0  0  0  0  0  0
   -4.4094   -2.6429    2.6502 C   0  0  0  0  0  0  0  0  0  0  0  0
   -2.3559   -2.4999    1.4045 C   0  0  0  0  0  0  0  0  0  0  0  0
   -5.5899    3.6553   -0.4606 C   0  0  0  0  0  0  0  0  0  0  0  0
   -4.8505    5.1309    1.5556 C   0  0  2  0  0  0  0  0  0  0  0  0
   -6.2533    5.0825    2.2554 C   0  0  2  0  0  0  0  0  0  0  0  0
   -3.1481   -3.1286    2.3454 C   0  0  0  0  0  0  0  0  0  0  0  0
   -4.6319    6.3414    0.6895 C   0  0  0  0  0  0  0  0  0  0  0  0
   -3.8491    5.2531    2.5781 O   0  0  0  0  0  0  0  0  0  0  0  0
   -2.7135   -4.1459    2.9342 O   0  0  0  0  0  0  0  0  0  0  0  0
   -4.9182    7.7295    1.1548 C   0  0  2  0  0  0  0  0  0  0  0  0
   -4.1623    6.2296   -0.4672 O   0  0  0  0  0  0  0  0  0  0  0  0
   -6.2265    8.2774    0.5357 C   0  0  0  0  0  0  0  0  0  0  0  0
   -3.8824    8.6599    0.7888 O   0  0  0  0  0  0  0  0  0  0  0  0
   -2.5568    8.6682    1.1199 C   0  0  0  0  0  0  0  0  0  0  0  0
   -2.0426    7.7567    1.8095 O   0  0  0  0  0  0  0  0  0  0  0  0
   -1.7130    9.7670    0.6297 C   0  0  0  0  0  0  0  0  0  0  0  0
   -6.1636    1.1986    0.8169 H   0  0  0  0  0  0  0  0  0  0  0  0
   -2.2276    1.3265    0.3032 H   0  0  0  0  0  0  0  0  0  0  0  0
   -4.7216    2.8534    2.9068 H   0  0  0  0  0  0  0  0  0  0  0  0
   -7.1877    0.7999    2.9745 H   0  0  0  0  0  0  0  0  0  0  0  0
   -5.6147    0.5361    3.7312 H   0  0  0  0  0  0  0  0  0  0  0  0
   -5.8775   -0.6496   -0.5049 H   0  0  0  0  0  0  0  0  0  0  0  0
   -4.3404   -0.9075   -1.3115 H   0  0  0  0  0  0  0  0  0  0  0  0
   -5.1423   -2.2492   -0.5197 H   0  0  0  0  0  0  0  0  0  0  0  0
   -2.2095   -1.0281    0.0477 H   0  0  0  0  0  0  0  0  0  0  0  0
   -3.0516    2.0044   -1.5827 H   0  0  0  0  0  0  0  0  0  0  0  0
   -2.7119    3.2774    1.5453 H   0  0  0  0  0  0  0  0  0  0  0  0
   -2.8310    3.7187   -0.1429 H   0  0  0  0  0  0  0  0  0  0  0  0
   -7.4935    3.3222    1.8351 H   0  0  0  0  0  0  0  0  0  0  0  0
   -6.8887    3.3917    3.5062 H   0  0  0  0  0  0  0  0  0  0  0  0
   -6.9479   -1.1788    1.5677 H   0  0  0  0  0  0  0  0  0  0  0  0
   -6.6851   -1.6066    3.2446 H   0  0  0  0  0  0  0  0  0  0  0  0
   -4.9256   -3.1047    3.3655 H   0  0  0  0  0  0  0  0  0  0  0  0
   -1.4377   -2.8379    1.2230 H   0  0  0  0  0  0  0  0  0  0  0  0
   -5.0070    4.0704   -1.2819 H   0  0  0  0  0  0  0  0  0  0  0  0
   -6.5176    4.2239   -0.3974 H   0  0  0  0  0  0  0  0  0  0  0  0
   -5.8625    2.6498   -0.7641 H   0  0  0  0  0  0  0  0  0  0  0  0
   -6.2397    5.6110    3.2142 H   0  0  0  0  0  0  0  0  0  0  0  0
   -7.0231    5.5418    1.6329 H   0  0  0  0  0  0  0  0  0  0  0  0
   -4.0300    6.0987    3.0402 H   0  0  0  0  0  0  0  0  0  0  0  0
   -5.0234    7.7530    2.2429 H   0  0  0  0  0  0  0  0  0  0  0  0
   -6.3607    9.3223    0.8232 H   0  0  0  0  0  0  0  0  0  0  0  0
   -7.0947    7.7213    0.8900 H   0  0  0  0  0  0  0  0  0  0  0  0
   -6.1845    8.2164   -0.5541 H   0  0  0  0  0  0  0  0  0  0  0  0
   -0.9914    9.3711   -0.0865 H   0  0  0  0  0  0  0  0  0  0  0  0
   -2.3201   10.5284    0.1341 H   0  0  0  0  0  0  0  0  0  0  0  0
   -1.1783   10.2336    1.4608 H   0  0  0  0  0  0  0  0  0  0  0  0
  2  1  1  0  0  0  0 
  2  3  1  0  0  0  0 
  2  4  1  0  0  0  0 
  2  5  1  0  0  0  0 
  3  6  1  0  0  0  0 
  3  7  1  0  0  0  0 
  4  8  1  0  0  0  0 
  4  9  1  0  0  0  0 
  4 10  1  0  0  0  0 
  5 11  1  0  0  0  0 
  5 12  1  0  0  0  0 
  6 13  1  0  0  0  0 
  6 14  1  0  0  0  0 
  7 15  1  0  0  0  0 
  9 15  1  0  0  0  0 
  9 16  2  0  0  0  0 
 10 17  2  0  0  0  0 
 13 12  1  0  0  0  0 
 13 18  1  0  0  0  0 
 13 19  1  0  0  0  0 
 14 20  1  0  0  0  0 
 16 21  1  0  0  0  0 
 17 21  1  0  0  0  0 
 19 20  1  0  0  0  0 
 19 22  1  0  0  0  0 
 19 23  1  0  0  0  0 
 21 24  2  0  0  0  0 
 25 22  1  0  0  0  0 
 22 26  2  0  0  0  0 
 25 27  1  0  0  0  0 
 25 28  1  0  0  0  0 
 28 29  1  0  0  0  0 
 29 30  2  0  0  0  0 
 29 31  1  0  0  0  0 
  3 32  1  0  0  0  0 
  5 33  1  0  0  0  0 
  6 34  1  0  0  0  0 
 35  7  1  0  0  0  0 
 36  7  1  0  0  0  0 
 37  8  1  0  0  0  0 
 38  8  1  0  0  0  0 
 39  8  1  0  0  0  0 
 40 10  1  0  0  0  0 
 41 11  1  0  0  0  0 
 42 12  1  0  0  0  0 
 43 12  1  0  0  0  0 
 44 14  1  0  0  0  0 
 45 14  1  0  0  0  0 
 46 15  1  0  0  0  0 
 47 15  1  0  0  0  0 
 48 16  1  0  0  0  0 
 49 17  1  0  0  0  0 
 50 18  1  0  0  0  0 
 51 18  1  0  0  0  0 
 52 18  1  0  0  0  0 
 53 20  1  0  0  0  0 
 54 20  1  0  0  0  0 
 55 23  1  0  0  0  0 
 25 56  1  0  0  0  0 
 57 27  1  0  0  0  0 
 58 27  1  0  0  0  0 
 59 27  1  0  0  0  0 
 60 31  1  0  0  0  0 
 61 31  1  0  0  0  0 
 62 31  1  0  0  0  0 
M  END
> <cdk:Title>
fluperolone

> <Conformer>
1

> <SuperDrugID>
SD002801

$$$$
