glucose-1-phosphate
  CDK     0628171801

 29 29  0  0  0  0  0  0  0  0999 V2000
    0.5046   -1.3351   -2.0104 O   0  0  0  0  0  0  0  0  0  0  0  0
    1.2112   -0.1831   -2.8647 P   0  0  2  0  0  0  0  0  0  0  0  0
   -0.9392   -1.3969   -2.0935 C   0  0  1  0  0  0  0  0  0  0  0  0
    0.7588    1.1433   -2.4356 O   0  0  0  0  0  0  0  0  0  0  0  0
    0.9361   -0.3920   -4.4102 O   0  0  0  0  0  0  0  0  0  0  0  0
    2.7732   -0.3189   -2.6351 O   0  0  0  0  0  0  0  0  0  0  0  0
   -1.4118   -1.7754   -3.4090 O   0  0  0  0  0  0  0  0  0  0  0  0
   -1.4876   -2.3933   -1.0357 C   0  0  2  0  0  0  0  0  0  0  0  0
   -1.0137   -3.0952   -3.8532 C   0  0  2  0  0  0  0  0  0  0  0  0
   -0.9672   -2.0890    0.2582 O   0  0  0  0  0  0  0  0  0  0  0  0
   -1.1362   -3.8555   -1.4189 C   0  0  2  0  0  0  0  0  0  0  0  0
   -1.5233   -3.2614   -5.3047 C   0  0  2  0  0  0  0  0  0  0  0  0
   -1.5623   -4.1789   -2.8773 C   0  0  2  0  0  0  0  0  0  0  0  0
   -1.7728   -4.7581   -0.5156 O   0  0  0  0  0  0  0  0  0  0  0  0
   -0.9770   -2.2459   -6.1388 O   0  0  0  0  0  0  0  0  0  0  0  0
   -1.0805   -5.4772   -3.2233 O   0  0  0  0  0  0  0  0  0  0  0  0
   -1.3685   -0.4159   -1.8600 H   0  0  0  0  0  0  0  0  0  0  0  0
    1.3451   -1.2596   -4.6203 H   0  0  0  0  0  0  0  0  0  0  0  0
    2.9826   -1.2271   -2.9408 H   0  0  0  0  0  0  0  0  0  0  0  0
   -2.5768   -2.2935   -0.9921 H   0  0  0  0  0  0  0  0  0  0  0  0
    0.0787   -3.1724   -3.8807 H   0  0  0  0  0  0  0  0  0  0  0  0
   -1.2721   -1.1770    0.4494 H   0  0  0  0  0  0  0  0  0  0  0  0
   -0.0549   -3.9972   -1.3201 H   0  0  0  0  0  0  0  0  0  0  0  0
   -2.6121   -3.1916   -5.3348 H   0  0  0  0  0  0  0  0  0  0  0  0
   -1.2167   -4.2273   -5.7070 H   0  0  0  0  0  0  0  0  0  0  0  0
   -2.6553   -4.1952   -2.9307 H   0  0  0  0  0  0  0  0  0  0  0  0
   -2.7339   -4.5994   -0.6326 H   0  0  0  0  0  0  0  0  0  0  0  0
   -1.3255   -2.4375   -7.0347 H   0  0  0  0  0  0  0  0  0  0  0  0
   -1.4639   -5.6700   -4.1048 H   0  0  0  0  0  0  0  0  0  0  0  0
  1  2  1  0  0  0  0 
  2  4  2  0  0  0  0 
  2  5  1  0  0  0  0 
  2  6  1  0  0  0  0 
  3  1  1  0  0  0  0 
  3  7  1  0  0  0  0 
  8  3  1  0  0  0  0 
  9  7  1  0  0  0  0 
  8 10  1  0  0  0  0 
 11  8  1  0  0  0  0 
  9 12  1  0  0  0  0 
 13  9  1  0  0  0  0 
 13 11  1  0  0  0  0 
 11 14  1  0  0  0  0 
 12 15  1  0  0  0  0 
 13 16  1  0  0  0  0 
  3 17  1  0  0  0  0 
  5 18  1  0  0  0  0 
  6 19  1  0  0  0  0 
  8 20  1  0  0  0  0 
  9 21  1  0  0  0  0 
 10 22  1  0  0  0  0 
 11 23  1  0  0  0  0 
 12 24  1  0  0  0  0 
 12 25  1  0  0  0  0 
 13 26  1  0  0  0  0 
 14 27  1  0  0  0  0 
 15 28  1  0  0  0  0 
 16 29  1  0  0  0  0 
M  END
> <cdk:Title>
glucose-1-phosphate

> <Conformer>
1

> <SuperDrugID>
SD002820

$$$$
