sulconazole
  CDK     0628171801

 39 41  0  0  0  0  0  0  0  0999 V2000
    0.9964   -0.8609    2.0366 C   0  0  0  0  0  0  0  0  0  0  0  0
    1.9630   -0.7389    3.0520 C   0  0  0  0  0  0  0  0  0  0  0  0
    3.1506   -0.0213    2.8136 C   0  0  0  0  0  0  0  0  0  0  0  0
    3.3863    0.5340    1.5420 C   0  0  0  0  0  0  0  0  0  0  0  0
    2.4210    0.4065    0.5266 C   0  0  0  0  0  0  0  0  0  0  0  0
    1.1998   -0.2653    0.7688 C   0  0  0  0  0  0  0  0  0  0  0  0
    4.2871    0.1823    4.0502 Cl  0  0  0  0  0  0  0  0  0  0  0  0
    0.1445   -0.3350   -0.2722 C   0  0  2  0  0  0  0  0  0  0  0  0
   -1.3594    0.5705    0.2248 S   0  0  0  0  0  0  0  0  0  0  0  0
   -0.9013    2.3407    0.0982 C   0  0  1  0  0  0  0  0  0  0  0  0
   -2.1873    3.2171    0.0587 C   0  0  1  0  0  0  0  0  0  0  0  0
    0.0429    2.7942    1.1761 C   0  0  0  0  0  0  0  0  0  0  0  0
   -0.2648    2.5166    2.5327 C   0  0  0  0  0  0  0  0  0  0  0  0
    0.5514    2.9805    3.5784 C   0  0  0  0  0  0  0  0  0  0  0  0
    1.6992    3.7362    3.2935 C   0  0  0  0  0  0  0  0  0  0  0  0
    2.0286    4.0221    1.9581 C   0  0  0  0  0  0  0  0  0  0  0  0
    1.2115    3.5648    0.9028 C   0  0  0  0  0  0  0  0  0  0  0  0
   -1.9034    4.6212   -0.0600 N   0  0  0  0  0  0  0  0  0  0  0  0
   -1.6598    5.4767    0.9494 C   0  0  0  0  0  0  0  0  0  0  0  0
   -1.4243    6.7259    0.3969 C   0  0  0  0  0  0  0  0  0  0  0  0
   -1.5275    6.6255   -0.9355 N   0  0  0  0  0  0  0  0  0  0  0  0
   -1.8180    5.3389   -1.1988 C   0  0  0  0  0  0  0  0  0  0  0  0
    1.6865    4.0252   -0.6622 Cl  0  0  0  0  0  0  0  0  0  0  0  0
    2.6670    4.3149    4.5548 Cl  0  0  0  0  0  0  0  0  0  0  0  0
   -0.4430    2.4365   -0.8867 H   0  0  0  0  0  0  0  0  0  0  0  0
    0.1367   -1.3803    2.2342 H   0  0  0  0  0  0  0  0  0  0  0  0
    1.7881   -1.1655    3.9655 H   0  0  0  0  0  0  0  0  0  0  0  0
    4.2546    1.0394    1.3498 H   0  0  0  0  0  0  0  0  0  0  0  0
    2.6141    0.8209   -0.3884 H   0  0  0  0  0  0  0  0  0  0  0  0
   -0.1219   -1.3799   -0.4387 H   0  0  0  0  0  0  0  0  0  0  0  0
    0.4895    0.0704   -1.2263 H   0  0  0  0  0  0  0  0  0  0  0  0
   -2.7973    2.9026   -0.7934 H   0  0  0  0  0  0  0  0  0  0  0  0
   -2.7939    3.0447    0.9519 H   0  0  0  0  0  0  0  0  0  0  0  0
   -1.1000    1.9782    2.7766 H   0  0  0  0  0  0  0  0  0  0  0  0
    0.3026    2.7729    4.5483 H   0  0  0  0  0  0  0  0  0  0  0  0
    2.8658    4.5757    1.7574 H   0  0  0  0  0  0  0  0  0  0  0  0
   -1.6457    5.2541    1.9473 H   0  0  0  0  0  0  0  0  0  0  0  0
   -1.2138    7.5778    0.9174 H   0  0  0  0  0  0  0  0  0  0  0  0
   -1.9474    4.9669   -2.1427 H   0  0  0  0  0  0  0  0  0  0  0  0
  1  2  2  0  0  0  0 
  2  3  1  0  0  0  0 
  3  4  2  0  0  0  0 
  4  5  1  0  0  0  0 
  5  6  2  0  0  0  0 
  1  6  1  0  0  0  0 
  3  7  1  0  0  0  0 
  6  8  1  0  0  0  0 
  8  9  1  0  0  0  0 
  9 10  1  0  0  0  0 
 10 11  1  0  0  0  0 
 10 12  1  0  0  0  0 
 13 14  1  0  0  0  0 
 14 15  2  0  0  0  0 
 15 16  1  0  0  0  0 
 16 17  2  0  0  0  0 
 12 13  2  0  0  0  0 
 12 17  1  0  0  0  0 
 11 18  1  0  0  0  0 
 19 20  2  0  0  0  0 
 20 21  1  0  0  0  0 
 21 22  2  0  0  0  0 
 18 19  1  0  0  0  0 
 18 22  1  0  0  0  0 
 17 23  1  0  0  0  0 
 15 24  1  0  0  0  0 
 10 25  1  0  0  0  0 
  1 26  1  0  0  0  0 
  2 27  1  0  0  0  0 
  4 28  1  0  0  0  0 
  5 29  1  0  0  0  0 
  8 30  1  0  0  0  0 
  8 31  1  0  0  0  0 
 11 32  1  0  0  0  0 
 11 33  1  0  0  0  0 
 13 34  1  0  0  0  0 
 14 35  1  0  0  0  0 
 16 36  1  0  0  0  0 
 19 37  1  0  0  0  0 
 20 38  1  0  0  0  0 
 22 39  1  0  0  0  0 
M  END
> <cdk:Title>
sulconazole

> <Conformer>
1

> <SuperDrugID>
SD002242

$$$$
