brivaracetam
  CDK     0628171802

 35 35  0  0  0  0  0  0  0  0999 V2000
    4.8128   -5.5498   -1.3965 C   0  0  2  0  0  0  0  0  0  0  0  0
    5.1533   -4.5082   -2.4878 C   0  0  1  0  0  0  0  0  0  0  0  0
    3.8634   -4.2495   -3.1192 C   0  0  0  0  0  0  0  0  0  0  0  0
    2.8140   -4.7460   -2.4130 N   0  0  0  0  0  0  0  0  0  0  0  0
    3.2711   -5.4391   -1.2521 C   0  0  2  0  0  0  0  0  0  0  0  0
    3.7823   -3.5862   -4.1780 O   0  0  0  0  0  0  0  0  0  0  0  0
    1.4052   -4.5855   -2.7139 C   0  0  2  0  0  0  0  0  0  0  0  0
    0.9794   -5.4833   -3.8205 C   0  0  0  0  0  0  0  0  0  0  0  0
    1.4589   -5.3607   -5.0703 N   0  0  0  0  0  0  0  0  0  0  0  0
    0.1567   -6.4047   -3.6101 O   0  0  0  0  0  0  0  0  0  0  0  0
    0.8512   -4.9047   -1.8244 H   0  0  0  0  0  0  0  0  0  0  0  0
    1.0172   -3.0863   -2.9213 C   0  0  2  0  0  0  0  0  0  0  0  0
   -0.4948   -2.7929   -2.7875 C   0  0  0  0  0  0  0  0  0  0  0  0
    5.0328   -6.5453   -1.8004 H   0  0  0  0  0  0  0  0  0  0  0  0
    5.5660   -5.3978   -0.0395 C   0  0  1  0  0  0  0  0  0  0  0  0
    7.0859   -5.7343   -0.0640 C   0  0  1  0  0  0  0  0  0  0  0  0
    8.0028   -4.6469   -0.6698 C   0  0  0  0  0  0  0  0  0  0  0  0
    5.5399   -3.5747   -2.0694 H   0  0  0  0  0  0  0  0  0  0  0  0
    5.8642   -4.9129   -3.2118 H   0  0  0  0  0  0  0  0  0  0  0  0
    2.9863   -4.8657   -0.3648 H   0  0  0  0  0  0  0  0  0  0  0  0
    2.8216   -6.4336   -1.1897 H   0  0  0  0  0  0  0  0  0  0  0  0
    2.0976   -4.6656   -5.2789 H   0  0  0  0  0  0  0  0  0  0  0  0
    1.1708   -5.9739   -5.7653 H   0  0  0  0  0  0  0  0  0  0  0  0
    1.3435   -2.7399   -3.9046 H   0  0  0  0  0  0  0  0  0  0  0  0
    1.5349   -2.4866   -2.1659 H   0  0  0  0  0  0  0  0  0  0  0  0
   -0.6623   -1.7169   -2.8530 H   0  0  0  0  0  0  0  0  0  0  0  0
   -0.8687   -3.1419   -1.8237 H   0  0  0  0  0  0  0  0  0  0  0  0
   -1.0494   -3.2822   -3.5891 H   0  0  0  0  0  0  0  0  0  0  0  0
    5.4184   -4.3913    0.3645 H   0  0  0  0  0  0  0  0  0  0  0  0
    5.1041   -6.0950    0.6666 H   0  0  0  0  0  0  0  0  0  0  0  0
    7.4107   -5.8892    0.9695 H   0  0  0  0  0  0  0  0  0  0  0  0
    7.2457   -6.6739   -0.5990 H   0  0  0  0  0  0  0  0  0  0  0  0
    7.8594   -4.5687   -1.7477 H   0  0  0  0  0  0  0  0  0  0  0  0
    7.8034   -3.6767   -0.2112 H   0  0  0  0  0  0  0  0  0  0  0  0
    9.0467   -4.9078   -0.4837 H   0  0  0  0  0  0  0  0  0  0  0  0
  1  2  1  0  0  0  0 
  1  5  1  0  0  0  0 
  2  3  1  0  0  0  0 
  3  4  1  0  0  0  0 
  4  5  1  0  0  0  0 
  3  6  2  0  0  0  0 
  4  7  1  0  0  0  0 
  7  8  1  0  0  0  0 
  8  9  1  0  0  0  0 
  8 10  2  0  0  0  0 
  7 11  1  0  0  0  0 
  7 12  1  0  0  0  0 
 12 13  1  0  0  0  0 
  1 14  1  0  0  0  0 
  1 15  1  0  0  0  0 
 15 16  1  0  0  0  0 
 16 17  1  0  0  0  0 
  2 18  1  0  0  0  0 
  2 19  1  0  0  0  0 
  5 20  1  0  0  0  0 
  5 21  1  0  0  0  0 
  9 22  1  0  0  0  0 
  9 23  1  0  0  0  0 
 12 24  1  0  0  0  0 
 12 25  1  0  0  0  0 
 13 26  1  0  0  0  0 
 13 27  1  0  0  0  0 
 13 28  1  0  0  0  0 
 15 29  1  0  0  0  0 
 15 30  1  0  0  0  0 
 16 31  1  0  0  0  0 
 16 32  1  0  0  0  0 
 17 33  1  0  0  0  0 
 17 34  1  0  0  0  0 
 17 35  1  0  0  0  0 
M  END
> <cdk:Title>
brivaracetam

> <Conformer>
1

> <SuperDrugID>
SD003897

$$$$
