ethinylestradiol
  CDK     0628171801

 46 49  0  0  0  0  0  0  0  0999 V2000
   -7.6344   -0.3129   -0.7299 C   0  0  0  0  0  0  0  0  0  0  0  0
   -7.3465    1.0462    0.0238 C   0  0  1  0  0  0  0  0  0  0  0  0
   -6.5061    0.8958    1.3344 C   0  0  2  0  0  0  0  0  0  0  0  0
   -6.5311    1.9813   -0.9393 C   0  0  2  0  0  0  0  0  0  0  0  0
   -8.7053    1.6008    0.6108 C   0  0  1  0  0  0  0  0  0  0  0  0
   -5.1022    0.2476    1.0958 C   0  0  1  0  0  0  0  0  0  0  0  0
   -7.4937    0.2507    2.3398 C   0  0  1  0  0  0  0  0  0  0  0  0
   -5.0817    1.4693   -1.2167 C   0  0  2  0  0  0  0  0  0  0  0  0
   -9.8179    1.4098   -0.2690 O   0  0  0  0  0  0  0  0  0  0  0  0
   -8.8962    0.7718    1.9228 C   0  0  2  0  0  0  0  0  0  0  0  0
   -4.2579    1.1058    0.0733 C   0  0  2  0  0  0  0  0  0  0  0  0
   -4.2881    0.1063    2.4134 C   0  0  1  0  0  0  0  0  0  0  0  0
   -2.8873    0.5098   -0.1535 C   0  0  0  0  0  0  0  0  0  0  0  0
   -2.9297   -0.5912    2.1618 C   0  0  2  0  0  0  0  0  0  0  0  0
   -2.2580   -0.2539    0.8765 C   0  0  0  0  0  0  0  0  0  0  0  0
   -2.1526    0.7224   -1.3514 C   0  0  0  0  0  0  0  0  0  0  0  0
   -0.9499   -0.7599    0.6930 C   0  0  0  0  0  0  0  0  0  0  0  0
   -0.8507    0.2180   -1.5199 C   0  0  0  0  0  0  0  0  0  0  0  0
   -0.2448   -0.5234   -0.4950 C   0  0  0  0  0  0  0  0  0  0  0  0
    1.0137   -1.0121   -0.6267 O   0  0  0  0  0  0  0  0  0  0  0  0
   -5.2474   -0.7583    0.6944 H   0  0  0  0  0  0  0  0  0  0  0  0
   -4.0554    2.0673    0.5573 H   0  0  0  0  0  0  0  0  0  0  0  0
   -6.2989    1.8987    1.7352 H   0  0  0  0  0  0  0  0  0  0  0  0
   -8.7070    2.9561    0.8910 C   0  0  0  0  0  0  0  0  0  0  0  0
   -8.7106    4.1234    1.1445 C   0  0  0  0  0  0  0  0  0  0  0  0
   -8.1616   -1.0295   -0.1012 H   0  0  0  0  0  0  0  0  0  0  0  0
   -8.2493   -0.1341   -1.6135 H   0  0  0  0  0  0  0  0  0  0  0  0
   -6.7302   -0.8068   -1.0731 H   0  0  0  0  0  0  0  0  0  0  0  0
   -6.4396    2.9814   -0.5084 H   0  0  0  0  0  0  0  0  0  0  0  0
   -7.0658    2.0953   -1.8858 H   0  0  0  0  0  0  0  0  0  0  0  0
   -7.4578   -0.8399    2.2727 H   0  0  0  0  0  0  0  0  0  0  0  0
   -7.2584    0.5410    3.3675 H   0  0  0  0  0  0  0  0  0  0  0  0
   -4.5743    2.2696   -1.7628 H   0  0  0  0  0  0  0  0  0  0  0  0
   -5.1135    0.6069   -1.8831 H   0  0  0  0  0  0  0  0  0  0  0  0
  -10.6095    1.6214    0.2700 H   0  0  0  0  0  0  0  0  0  0  0  0
   -9.5543   -0.0822    1.7321 H   0  0  0  0  0  0  0  0  0  0  0  0
   -9.3546    1.3504    2.7329 H   0  0  0  0  0  0  0  0  0  0  0  0
   -4.1095    1.0931    2.8469 H   0  0  0  0  0  0  0  0  0  0  0  0
   -4.8497   -0.4771    3.1472 H   0  0  0  0  0  0  0  0  0  0  0  0
   -3.0909   -1.6720    2.1747 H   0  0  0  0  0  0  0  0  0  0  0  0
   -2.2679   -0.3437    2.9963 H   0  0  0  0  0  0  0  0  0  0  0  0
   -2.5469    1.2538   -2.1259 H   0  0  0  0  0  0  0  0  0  0  0  0
   -0.4971   -1.3067    1.4317 H   0  0  0  0  0  0  0  0  0  0  0  0
   -0.3428    0.3982   -2.3885 H   0  0  0  0  0  0  0  0  0  0  0  0
    1.3269   -0.7252   -1.5095 H   0  0  0  0  0  0  0  0  0  0  0  0
   -8.7155    5.0232    1.3454 H   0  0  0  0  0  0  0  0  0  0  0  0
  2  1  1  0  0  0  0 
  3  2  1  0  0  0  0 
  2  4  1  0  0  0  0 
  2  5  1  0  0  0  0 
  6  3  1  0  0  0  0 
  3  7  1  0  0  0  0 
  3 23  1  0  0  0  0 
  4  8  1  0  0  0  0 
  5  9  1  0  0  0  0 
  5 10  1  0  0  0  0 
 11  6  1  0  0  0  0 
  6 12  1  0  0  0  0 
  6 21  1  0  0  0  0 
  7 10  1  0  0  0  0 
 11  8  1  0  0  0  0 
 11 13  1  0  0  0  0 
 11 22  1  0  0  0  0 
 12 14  1  0  0  0  0 
 13 15  2  0  0  0  0 
 13 16  1  0  0  0  0 
 14 15  1  0  0  0  0 
 15 17  1  0  0  0  0 
 16 18  2  0  0  0  0 
 17 19  2  0  0  0  0 
 18 19  1  0  0  0  0 
 19 20  1  0  0  0  0 
  5 24  1  0  0  0  0 
 24 25  3  0  0  0  0 
  1 26  1  0  0  0  0 
  1 27  1  0  0  0  0 
  1 28  1  0  0  0  0 
  4 29  1  0  0  0  0 
  4 30  1  0  0  0  0 
  7 31  1  0  0  0  0 
  7 32  1  0  0  0  0 
  8 33  1  0  0  0  0 
  8 34  1  0  0  0  0 
  9 35  1  0  0  0  0 
 10 36  1  0  0  0  0 
 10 37  1  0  0  0  0 
 12 38  1  0  0  0  0 
 12 39  1  0  0  0  0 
 14 40  1  0  0  0  0 
 14 41  1  0  0  0  0 
 16 42  1  0  0  0  0 
 17 43  1  0  0  0  0 
 18 44  1  0  0  0  0 
 20 45  1  0  0  0  0 
 25 46  1  0  0  0  0 
M  END
> <cdk:Title>
ethinylestradiol

> <Conformer>
1

> <SuperDrugID>
SD000966

$$$$
