tolazamide
  CDK     0628171801

 42 43  0  0  0  0  0  0  0  0999 V2000
   -0.7260    3.5373   -5.7261 S   0  0  2  0  0  0  0  0  0  0  0  0
   -0.6855    3.7761   -4.0264 N   0  0  0  0  0  0  0  0  0  0  0  0
   -2.2251    3.1473   -6.1496 O   0  0  0  0  0  0  0  0  0  0  0  0
    0.2441    2.3325   -6.1570 O   0  0  0  0  0  0  0  0  0  0  0  0
   -0.2312    5.0144   -6.5743 C   0  0  0  0  0  0  0  0  0  0  0  0
   -0.2632    2.8753   -3.1122 C   0  0  0  0  0  0  0  0  0  0  0  0
   -0.3789    5.0907   -7.9740 C   0  0  0  0  0  0  0  0  0  0  0  0
    0.3285    6.1062   -5.8785 C   0  0  0  0  0  0  0  0  0  0  0  0
   -0.3429    3.2401   -1.8131 N   0  0  0  0  0  0  0  0  0  0  0  0
    0.1528    1.7370   -3.4337 O   0  0  0  0  0  0  0  0  0  0  0  0
    0.0477    6.2347   -8.6713 C   0  0  0  0  0  0  0  0  0  0  0  0
    0.7624    7.2479   -6.5777 C   0  0  0  0  0  0  0  0  0  0  0  0
   -0.0512    2.3893   -0.7962 N   0  0  0  0  0  0  0  0  0  0  0  0
    0.6312    7.3225   -7.9839 C   0  0  0  0  0  0  0  0  0  0  0  0
   -1.2334    1.7612   -0.1530 C   0  0  1  0  0  0  0  0  0  0  0  0
    1.1195    2.7354    0.0491 C   0  0  2  0  0  0  0  0  0  0  0  0
    1.0867    8.5079   -8.7486 C   0  0  0  0  0  0  0  0  0  0  0  0
   -2.1424    2.7394    0.6291 C   0  0  2  0  0  0  0  0  0  0  0  0
    1.0186    4.0147    0.9325 C   0  0  2  0  0  0  0  0  0  0  0  0
   -1.4290    3.5082    1.7718 C   0  0  2  0  0  0  0  0  0  0  0  0
   -0.3934    4.5578    1.2833 C   0  0  2  0  0  0  0  0  0  0  0  0
   -1.0111    4.6262   -3.6940 H   0  0  0  0  0  0  0  0  0  0  0  0
   -0.7930    4.3135   -8.4948 H   0  0  0  0  0  0  0  0  0  0  0  0
    0.4289    6.0785   -4.8617 H   0  0  0  0  0  0  0  0  0  0  0  0
   -0.6575    4.1311   -1.5998 H   0  0  0  0  0  0  0  0  0  0  0  0
   -0.0637    6.2688   -9.6882 H   0  0  0  0  0  0  0  0  0  0  0  0
    1.1741    8.0235   -6.0532 H   0  0  0  0  0  0  0  0  0  0  0  0
   -1.8359    1.2888   -0.9339 H   0  0  0  0  0  0  0  0  0  0  0  0
   -0.9071    0.9595    0.5144 H   0  0  0  0  0  0  0  0  0  0  0  0
    1.9882    2.8352   -0.6068 H   0  0  0  0  0  0  0  0  0  0  0  0
    1.3335    1.8811    0.6971 H   0  0  0  0  0  0  0  0  0  0  0  0
    0.2275    8.9967   -9.2115 H   0  0  0  0  0  0  0  0  0  0  0  0
    1.5964    9.2368   -8.1151 H   0  0  0  0  0  0  0  0  0  0  0  0
    1.7802    8.1962   -9.5326 H   0  0  0  0  0  0  0  0  0  0  0  0
   -2.9646    2.1627    1.0632 H   0  0  0  0  0  0  0  0  0  0  0  0
   -2.5880    3.4542   -0.0676 H   0  0  0  0  0  0  0  0  0  0  0  0
    1.5608    4.8231    0.4334 H   0  0  0  0  0  0  0  0  0  0  0  0
    1.5498    3.8232    1.8700 H   0  0  0  0  0  0  0  0  0  0  0  0
   -0.9573    2.8040    2.4619 H   0  0  0  0  0  0  0  0  0  0  0  0
   -2.2044    4.0385    2.3330 H   0  0  0  0  0  0  0  0  0  0  0  0
   -0.7958    5.0993    0.4240 H   0  0  0  0  0  0  0  0  0  0  0  0
   -0.2653    5.2965    2.0806 H   0  0  0  0  0  0  0  0  0  0  0  0
  1  2  1  0  0  0  0 
  1  3  2  0  0  0  0 
  1  4  2  0  0  0  0 
  1  5  1  0  0  0  0 
  2  6  1  0  0  0  0 
  5  7  2  0  0  0  0 
  5  8  1  0  0  0  0 
  6  9  1  0  0  0  0 
  6 10  2  0  0  0  0 
  7 11  1  0  0  0  0 
  8 12  2  0  0  0  0 
  9 13  1  0  0  0  0 
 11 14  2  0  0  0  0 
 12 14  1  0  0  0  0 
 13 15  1  0  0  0  0 
 13 16  1  0  0  0  0 
 14 17  1  0  0  0  0 
 15 18  1  0  0  0  0 
 16 19  1  0  0  0  0 
 18 20  1  0  0  0  0 
 19 21  1  0  0  0  0 
 20 21  1  0  0  0  0 
  2 22  1  0  0  0  0 
  7 23  1  0  0  0  0 
  8 24  1  0  0  0  0 
  9 25  1  0  0  0  0 
 11 26  1  0  0  0  0 
 12 27  1  0  0  0  0 
 15 28  1  0  0  0  0 
 15 29  1  0  0  0  0 
 16 30  1  0  0  0  0 
 16 31  1  0  0  0  0 
 17 32  1  0  0  0  0 
 17 33  1  0  0  0  0 
 17 34  1  0  0  0  0 
 18 35  1  0  0  0  0 
 18 36  1  0  0  0  0 
 19 37  1  0  0  0  0 
 19 38  1  0  0  0  0 
 20 39  1  0  0  0  0 
 20 40  1  0  0  0  0 
 21 41  1  0  0  0  0 
 21 42  1  0  0  0  0 
M  END
> <cdk:Title>
tolazamide

> <Conformer>
1

> <SuperDrugID>
SD002425

$$$$
