dipiproverine
  CDK     0628171801

 54 56  0  0  0  0  0  0  0  0999 V2000
   -1.3973    2.3969    2.4244 C   0  0  1  0  0  0  0  0  0  0  0  0
   -1.2658    0.9144    2.4315 C   0  0  0  0  0  0  0  0  0  0  0  0
   -1.4012    2.8879    1.0081 C   0  0  0  0  0  0  0  0  0  0  0  0
   -2.5835    2.8697    3.2386 N   0  0  2  0  0  0  0  0  0  0  0  0
   -2.2116    0.1191    1.8395 O   0  0  0  0  0  0  0  0  0  0  0  0
   -0.2696    0.3947    2.9893 O   0  0  0  0  0  0  0  0  0  0  0  0
   -2.4497    2.5699    0.1080 C   0  0  0  0  0  0  0  0  0  0  0  0
   -0.3733    3.7530    0.5584 C   0  0  0  0  0  0  0  0  0  0  0  0
   -2.9183    4.3303    3.0722 C   0  0  2  0  0  0  0  0  0  0  0  0
   -2.4581    2.5214    4.7001 C   0  0  1  0  0  0  0  0  0  0  0  0
   -2.2666   -1.3122    1.9152 C   0  0  1  0  0  0  0  0  0  0  0  0
   -2.4743    3.1157   -1.1885 C   0  0  0  0  0  0  0  0  0  0  0  0
   -0.3982    4.3029   -0.7344 C   0  0  0  0  0  0  0  0  0  0  0  0
   -4.2077    4.7353    3.8262 C   0  0  2  0  0  0  0  0  0  0  0  0
   -3.7235    2.8923    5.5134 C   0  0  1  0  0  0  0  0  0  0  0  0
   -3.3526   -1.9575    1.0089 C   0  0  2  0  0  0  0  0  0  0  0  0
   -1.4561    3.9922   -1.6050 C   0  0  0  0  0  0  0  0  0  0  0  0
   -4.0940    4.3837    5.3265 C   0  0  1  0  0  0  0  0  0  0  0  0
   -4.4055   -1.0274    0.4836 N   0  0  2  0  0  0  0  0  0  0  0  0
   -5.3437   -0.5154    1.5356 C   0  0  2  0  0  0  0  0  0  0  0  0
   -5.1442   -1.6128   -0.6839 C   0  0  1  0  0  0  0  0  0  0  0  0
   -6.3141    0.5482    0.9581 C   0  0  2  0  0  0  0  0  0  0  0  0
   -6.1174   -0.5893   -1.3182 C   0  0  1  0  0  0  0  0  0  0  0  0
   -7.0902   -0.0094   -0.2626 C   0  0  1  0  0  0  0  0  0  0  0  0
   -0.5073    2.7991    2.9261 H   0  0  0  0  0  0  0  0  0  0  0  0
   -3.2144    1.9564    0.3931 H   0  0  0  0  0  0  0  0  0  0  0  0
    0.3995    4.0089    1.1787 H   0  0  0  0  0  0  0  0  0  0  0  0
   -3.0960    4.5738    2.0239 H   0  0  0  0  0  0  0  0  0  0  0  0
   -2.0896    4.9536    3.4218 H   0  0  0  0  0  0  0  0  0  0  0  0
   -2.3021    1.4478    4.8265 H   0  0  0  0  0  0  0  0  0  0  0  0
   -1.5934    3.0317    5.1406 H   0  0  0  0  0  0  0  0  0  0  0  0
   -1.2885   -1.7269    1.6490 H   0  0  0  0  0  0  0  0  0  0  0  0
   -2.4675   -1.5719    2.9574 H   0  0  0  0  0  0  0  0  0  0  0  0
   -3.2405    2.8839   -1.8245 H   0  0  0  0  0  0  0  0  0  0  0  0
    0.3455    4.9349   -1.0333 H   0  0  0  0  0  0  0  0  0  0  0  0
   -5.0646    4.2146    3.3884 H   0  0  0  0  0  0  0  0  0  0  0  0
   -4.3714    5.8114    3.7167 H   0  0  0  0  0  0  0  0  0  0  0  0
   -4.5594    2.2635    5.1905 H   0  0  0  0  0  0  0  0  0  0  0  0
   -3.5445    2.6965    6.5747 H   0  0  0  0  0  0  0  0  0  0  0  0
   -3.8254   -2.7819    1.5535 H   0  0  0  0  0  0  0  0  0  0  0  0
   -2.8209   -2.4094    0.1661 H   0  0  0  0  0  0  0  0  0  0  0  0
   -1.4865    4.4045   -2.5387 H   0  0  0  0  0  0  0  0  0  0  0  0
   -3.3250    5.0131    5.7872 H   0  0  0  0  0  0  0  0  0  0  0  0
   -5.0423    4.5928    5.8273 H   0  0  0  0  0  0  0  0  0  0  0  0
   -4.7843   -0.0470    2.3489 H   0  0  0  0  0  0  0  0  0  0  0  0
   -5.9240   -1.3410    1.9596 H   0  0  0  0  0  0  0  0  0  0  0  0
   -4.4374   -1.9123   -1.4631 H   0  0  0  0  0  0  0  0  0  0  0  0
   -5.6992   -2.5043   -0.3745 H   0  0  0  0  0  0  0  0  0  0  0  0
   -5.7450    1.4321    0.6565 H   0  0  0  0  0  0  0  0  0  0  0  0
   -7.0213    0.8528    1.7348 H   0  0  0  0  0  0  0  0  0  0  0  0
   -5.5396    0.2253   -1.7617 H   0  0  0  0  0  0  0  0  0  0  0  0
   -6.6883   -1.0752   -2.1137 H   0  0  0  0  0  0  0  0  0  0  0  0
   -7.7815   -0.7911    0.0668 H   0  0  0  0  0  0  0  0  0  0  0  0
   -7.6802    0.7933   -0.7143 H   0  0  0  0  0  0  0  0  0  0  0  0
  1  2  1  0  0  0  0 
  1  3  1  0  0  0  0 
  1  4  1  0  0  0  0 
  2  5  1  0  0  0  0 
  2  6  2  0  0  0  0 
  3  7  2  0  0  0  0 
  3  8  1  0  0  0  0 
  4  9  1  0  0  0  0 
  4 10  1  0  0  0  0 
  5 11  1  0  0  0  0 
  7 12  1  0  0  0  0 
  8 13  2  0  0  0  0 
  9 14  1  0  0  0  0 
 10 15  1  0  0  0  0 
 11 16  1  0  0  0  0 
 12 17  2  0  0  0  0 
 13 17  1  0  0  0  0 
 14 18  1  0  0  0  0 
 15 18  1  0  0  0  0 
 16 19  1  0  0  0  0 
 19 20  1  0  0  0  0 
 19 21  1  0  0  0  0 
 20 22  1  0  0  0  0 
 21 23  1  0  0  0  0 
 22 24  1  0  0  0  0 
 23 24  1  0  0  0  0 
  1 25  1  0  0  0  0 
  7 26  1  0  0  0  0 
  8 27  1  0  0  0  0 
  9 28  1  0  0  0  0 
  9 29  1  0  0  0  0 
 10 30  1  0  0  0  0 
 10 31  1  0  0  0  0 
 11 32  1  0  0  0  0 
 11 33  1  0  0  0  0 
 12 34  1  0  0  0  0 
 13 35  1  0  0  0  0 
 14 36  1  0  0  0  0 
 14 37  1  0  0  0  0 
 15 38  1  0  0  0  0 
 15 39  1  0  0  0  0 
 16 40  1  0  0  0  0 
 16 41  1  0  0  0  0 
 17 42  1  0  0  0  0 
 18 43  1  0  0  0  0 
 18 44  1  0  0  0  0 
 20 45  1  0  0  0  0 
 20 46  1  0  0  0  0 
 21 47  1  0  0  0  0 
 21 48  1  0  0  0  0 
 22 49  1  0  0  0  0 
 22 50  1  0  0  0  0 
 23 51  1  0  0  0  0 
 23 52  1  0  0  0  0 
 24 53  1  0  0  0  0 
 24 54  1  0  0  0  0 
M  END
> <cdk:Title>
dipiproverine

> <Conformer>
1

> <SuperDrugID>
SD003194

$$$$
