formestane
  CDK     0628171801

 48 51  0  0  0  0  0  0  0  0999 V2000
   -3.6380   -4.7281    1.3454 C   0  0  0  0  0  0  0  0  0  0  0  0
   -3.7112   -3.5479    2.3832 C   0  0  1  0  0  0  0  0  0  0  0  0
   -2.6228   -2.4307    2.0595 C   0  0  2  0  0  0  0  0  0  0  0  0
   -5.1432   -2.8677    2.4067 C   0  0  1  0  0  0  0  0  0  0  0  0
   -3.4999   -4.1292    3.8373 C   0  0  1  0  0  0  0  0  0  0  0  0
   -2.9561   -1.5845    0.7618 C   0  0  2  0  0  0  0  0  0  0  0  0
   -1.1250   -2.9237    2.0600 C   0  0  1  0  0  0  0  0  0  0  0  0
   -5.4571   -2.0819    1.0944 C   0  0  2  0  0  0  0  0  0  0  0  0
   -6.2200   -3.8132    2.8283 C   0  0  0  0  0  0  0  0  0  0  0  0
   -4.6198   -5.0955    4.3220 C   0  0  2  0  0  0  0  0  0  0  0  0
   -1.8775   -0.4648    0.6046 C   0  0  1  0  0  0  0  0  0  0  0  0
   -4.3937   -0.9909    0.8264 C   0  0  1  0  0  0  0  0  0  0  0  0
   -0.0835   -1.8091    1.7342 C   0  0  1  0  0  0  0  0  0  0  0  0
   -7.3491   -3.7915    2.2825 O   0  0  0  0  0  0  0  0  0  0  0  0
   -5.9841   -4.7534    3.8596 C   0  0  0  0  0  0  0  0  0  0  0  0
   -0.4425   -1.0495    0.4182 C   0  0  1  0  0  0  0  0  0  0  0  0
   -1.9790    0.6143   -0.4976 C   0  0  2  0  0  0  0  0  0  0  0  0
   -6.9456   -5.3805    4.3664 O   0  0  0  0  0  0  0  0  0  0  0  0
   -0.1964   -1.9541   -0.8454 C   0  0  0  0  0  0  0  0  0  0  0  0
    0.2797    0.2134    0.1652 C   0  0  0  0  0  0  0  0  0  0  0  0
   -0.5616    1.2406   -0.4696 C   0  0  2  0  0  0  0  0  0  0  0  0
    1.4934    0.3882    0.4221 O   0  0  0  0  0  0  0  0  0  0  0  0
   -4.4605   -5.4315    1.4732 H   0  0  0  0  0  0  0  0  0  0  0  0
   -2.7131   -5.2929    1.4631 H   0  0  0  0  0  0  0  0  0  0  0  0
   -3.6806   -4.3673    0.3198 H   0  0  0  0  0  0  0  0  0  0  0  0
   -2.6743   -1.7209    2.8939 H   0  0  0  0  0  0  0  0  0  0  0  0
   -5.1406   -2.1111    3.2008 H   0  0  0  0  0  0  0  0  0  0  0  0
   -2.5489   -4.6613    3.9071 H   0  0  0  0  0  0  0  0  0  0  0  0
   -3.4464   -3.3010    4.5532 H   0  0  0  0  0  0  0  0  0  0  0  0
   -2.9197   -2.2266   -0.1207 H   0  0  0  0  0  0  0  0  0  0  0  0
   -0.8671   -3.3171    3.0437 H   0  0  0  0  0  0  0  0  0  0  0  0
   -0.9948   -3.7367    1.3452 H   0  0  0  0  0  0  0  0  0  0  0  0
   -6.4294   -1.5861    1.1751 H   0  0  0  0  0  0  0  0  0  0  0  0
   -5.5067   -2.7654    0.2421 H   0  0  0  0  0  0  0  0  0  0  0  0
   -4.6030   -5.1257    5.4155 H   0  0  0  0  0  0  0  0  0  0  0  0
   -4.3936   -6.1035    3.9654 H   0  0  0  0  0  0  0  0  0  0  0  0
   -1.9207    0.1033    1.5477 H   0  0  0  0  0  0  0  0  0  0  0  0
   -4.4498   -0.2361    1.6164 H   0  0  0  0  0  0  0  0  0  0  0  0
   -4.6361   -0.4983   -0.1196 H   0  0  0  0  0  0  0  0  0  0  0  0
   -0.0499   -1.1049    2.5713 H   0  0  0  0  0  0  0  0  0  0  0  0
    0.9116   -2.2549    1.6515 H   0  0  0  0  0  0  0  0  0  0  0  0
   -2.7478    1.3579   -0.2724 H   0  0  0  0  0  0  0  0  0  0  0  0
   -2.1995    0.1594   -1.4674 H   0  0  0  0  0  0  0  0  0  0  0  0
   -0.4249   -1.4325   -1.7787 H   0  0  0  0  0  0  0  0  0  0  0  0
    0.8534   -2.2555   -0.8872 H   0  0  0  0  0  0  0  0  0  0  0  0
   -0.7984   -2.8624   -0.8297 H   0  0  0  0  0  0  0  0  0  0  0  0
   -0.5504    2.1462    0.1410 H   0  0  0  0  0  0  0  0  0  0  0  0
   -0.2107    1.4695   -1.4781 H   0  0  0  0  0  0  0  0  0  0  0  0
  2  1  1  0  0  0  0 
  2  3  1  0  0  0  0 
  2  4  1  0  0  0  0 
  2  5  1  0  0  0  0 
  3  6  1  0  0  0  0 
  3  7  1  0  0  0  0 
  4  8  1  0  0  0  0 
  4  9  1  0  0  0  0 
  5 10  1  0  0  0  0 
  6 11  1  0  0  0  0 
  6 12  1  0  0  0  0 
  7 13  1  0  0  0  0 
  8 12  1  0  0  0  0 
  9 14  2  0  0  0  0 
  9 15  1  0  0  0  0 
 10 15  1  0  0  0  0 
 11 16  1  0  0  0  0 
 11 17  1  0  0  0  0 
 16 13  1  0  0  0  0 
 15 18  2  0  0  0  0 
 16 19  1  0  0  0  0 
 16 20  1  0  0  0  0 
 17 21  1  0  0  0  0 
 20 21  1  0  0  0  0 
 20 22  2  0  0  0  0 
 23  1  1  0  0  0  0 
 24  1  1  0  0  0  0 
 25  1  1  0  0  0  0 
  3 26  1  0  0  0  0 
 27  4  1  0  0  0  0 
 28  5  1  0  0  0  0 
 29  5  1  0  0  0  0 
  6 30  1  0  0  0  0 
 31  7  1  0  0  0  0 
 32  7  1  0  0  0  0 
 33  8  1  0  0  0  0 
 34  8  1  0  0  0  0 
 35 10  1  0  0  0  0 
 36 10  1  0  0  0  0 
 11 37  1  0  0  0  0 
 38 12  1  0  0  0  0 
 39 12  1  0  0  0  0 
 40 13  1  0  0  0  0 
 41 13  1  0  0  0  0 
 42 17  1  0  0  0  0 
 43 17  1  0  0  0  0 
 44 19  1  0  0  0  0 
 45 19  1  0  0  0  0 
 46 19  1  0  0  0  0 
 47 21  1  0  0  0  0 
 48 21  1  0  0  0  0 
M  END
> <cdk:Title>
formestane

> <Conformer>
1

> <SuperDrugID>
SD001111

$$$$
