clofarabine
  CDK     0628171802

 31 33  0  0  0  0  0  0  0  0999 V2000
    1.2160   -8.1605    1.5140 N   0  0  0  0  0  0  0  0  0  0  0  0
    0.9717   -6.8860    1.1550 C   0  0  0  0  0  0  0  0  0  0  0  0
    2.0055   -5.9463    0.9951 C   0  0  0  0  0  0  0  0  0  0  0  0
   -0.3072   -6.4673    0.9416 N   0  0  0  0  0  0  0  0  0  0  0  0
    1.6848   -4.6365    0.6538 C   0  0  0  0  0  0  0  0  0  0  0  0
    3.3354   -6.0574    1.1105 N   0  0  0  0  0  0  0  0  0  0  0  0
   -0.5995   -5.1816    0.5936 C   0  0  0  0  0  0  0  0  0  0  0  0
    2.8329   -3.9379    0.5843 N   0  0  0  0  0  0  0  0  0  0  0  0
    0.3952   -4.2651    0.4536 N   0  0  0  0  0  0  0  0  0  0  0  0
    3.8195   -4.8270    0.8511 C   0  0  0  0  0  0  0  0  0  0  0  0
   -2.1984   -4.7208    0.3252 Cl  0  0  0  0  0  0  0  0  0  0  0  0
    3.0063   -2.5304    0.3148 C   0  0  2  0  0  0  0  0  0  0  0  0
    1.7689   -1.8051    0.4773 O   0  0  0  0  0  0  0  0  0  0  0  0
    3.5270   -2.2227   -1.1118 C   0  0  1  0  0  0  0  0  0  0  0  0
    1.4716   -1.0941   -0.7331 C   0  0  1  0  0  0  0  0  0  0  0  0
    4.1841   -3.2660   -1.7284 F   0  0  0  0  0  0  0  0  0  0  0  0
    2.2416   -1.8312   -1.8463 C   0  0  1  0  0  0  0  0  0  0  0  0
   -0.0536   -1.0134   -0.9785 C   0  0  2  0  0  0  0  0  0  0  0  0
    2.5014   -1.0122   -2.9829 O   0  0  0  0  0  0  0  0  0  0  0  0
   -0.6993   -0.3933    0.1277 O   0  0  0  0  0  0  0  0  0  0  0  0
    0.4783   -8.7802    1.6385 H   0  0  0  0  0  0  0  0  0  0  0  0
    2.1272   -8.4656    1.6549 H   0  0  0  0  0  0  0  0  0  0  0  0
    4.8167   -4.6030    0.8684 H   0  0  0  0  0  0  0  0  0  0  0  0
    3.7100   -2.1247    1.0487 H   0  0  0  0  0  0  0  0  0  0  0  0
    4.2067   -1.3640   -1.0787 H   0  0  0  0  0  0  0  0  0  0  0  0
    1.8599   -0.0732   -0.6302 H   0  0  0  0  0  0  0  0  0  0  0  0
    1.7058   -2.7322   -2.1646 H   0  0  0  0  0  0  0  0  0  0  0  0
   -0.4757   -2.0105   -1.1119 H   0  0  0  0  0  0  0  0  0  0  0  0
   -0.2528   -0.4239   -1.8763 H   0  0  0  0  0  0  0  0  0  0  0  0
    3.0214   -1.5885   -3.5850 H   0  0  0  0  0  0  0  0  0  0  0  0
   -1.6507   -0.4010   -0.1030 H   0  0  0  0  0  0  0  0  0  0  0  0
  1  2  1  0  0  0  0 
  2  3  2  0  0  0  0 
  2  4  1  0  0  0  0 
  3  5  1  0  0  0  0 
  3  6  1  0  0  0  0 
  4  7  2  0  0  0  0 
  5  8  1  0  0  0  0 
  5  9  2  0  0  0  0 
  6 10  2  0  0  0  0 
  7  9  1  0  0  0  0 
  7 11  1  0  0  0  0 
  8 10  1  0  0  0  0 
 12  8  1  0  0  0  0 
 12 13  1  0  0  0  0 
 14 12  1  0  0  0  0 
 15 13  1  0  0  0  0 
 14 16  1  0  0  0  0 
 17 14  1  0  0  0  0 
 15 17  1  0  0  0  0 
 15 18  1  0  0  0  0 
 17 19  1  0  0  0  0 
 18 20  1  0  0  0  0 
  1 21  1  0  0  0  0 
  1 22  1  0  0  0  0 
 10 23  1  0  0  0  0 
 12 24  1  0  0  0  0 
 14 25  1  0  0  0  0 
 15 26  1  0  0  0  0 
 17 27  1  0  0  0  0 
 18 28  1  0  0  0  0 
 18 29  1  0  0  0  0 
 19 30  1  0  0  0  0 
 20 31  1  0  0  0  0 
M  END
> <cdk:Title>
clofarabine

> <Conformer>
1

> <SuperDrugID>
SD000608

$$$$
