flavoxate
  CDK     0628171801

 54 57  0  0  0  0  0  0  0  0999 V2000
    1.6880   -0.3097   -4.5984 C   0  0  0  0  0  0  0  0  0  0  0  0
    1.6040   -0.1481   -5.9493 O   0  0  0  0  0  0  0  0  0  0  0  0
    0.8964   -1.1133   -4.0493 O   0  0  0  0  0  0  0  0  0  0  0  0
    2.6407    0.4454   -3.8559 C   0  0  0  0  0  0  0  0  0  0  0  0
    0.6458   -0.7380   -6.8327 C   0  0  2  0  0  0  0  0  0  0  0  0
    2.5687    0.5695   -2.4421 C   0  0  0  0  0  0  0  0  0  0  0  0
    3.6863    1.1227   -4.5312 C   0  0  0  0  0  0  0  0  0  0  0  0
    0.8931   -0.1760   -8.2484 C   0  0  2  0  0  0  0  0  0  0  0  0
    3.5076    1.3459   -1.7138 C   0  0  0  0  0  0  0  0  0  0  0  0
    1.5794   -0.0517   -1.7428 O   0  0  0  0  0  0  0  0  0  0  0  0
    4.6327    1.8798   -3.8226 C   0  0  0  0  0  0  0  0  0  0  0  0
   -0.2554   -0.4824   -9.1631 N   0  0  2  0  0  0  0  0  0  0  0  0
    3.3544    1.4503   -0.3076 C   0  0  0  0  0  0  0  0  0  0  0  0
    4.5444    1.9930   -2.4255 C   0  0  0  0  0  0  0  0  0  0  0  0
    1.4127    0.0070   -0.3939 C   0  0  0  0  0  0  0  0  0  0  0  0
    0.1646   -0.7449  -10.5752 C   0  0  2  0  0  0  0  0  0  0  0  0
   -1.3609    0.5292   -9.0640 C   0  0  1  0  0  0  0  0  0  0  0  0
    4.1679    2.1510    0.3434 O   0  0  0  0  0  0  0  0  0  0  0  0
    2.3021    0.7925    0.3816 C   0  0  0  0  0  0  0  0  0  0  0  0
    0.3482   -0.7735    0.0968 C   0  0  0  0  0  0  0  0  0  0  0  0
   -1.0341   -1.1563  -11.4671 C   0  0  2  0  0  0  0  0  0  0  0  0
   -2.5850    0.1470   -9.9291 C   0  0  1  0  0  0  0  0  0  0  0  0
    2.1572    0.9689    1.8540 C   0  0  0  0  0  0  0  0  0  0  0  0
    0.6036   -1.8993    0.9118 C   0  0  0  0  0  0  0  0  0  0  0  0
   -0.9833   -0.4770   -0.2744 C   0  0  0  0  0  0  0  0  0  0  0  0
   -2.1592   -0.0944  -11.3969 C   0  0  1  0  0  0  0  0  0  0  0  0
   -0.4585   -2.7057    1.3611 C   0  0  0  0  0  0  0  0  0  0  0  0
   -2.0421   -1.2928    0.1671 C   0  0  0  0  0  0  0  0  0  0  0  0
   -1.7808   -2.4045    0.9877 C   0  0  0  0  0  0  0  0  0  0  0  0
   -0.3517   -0.4705   -6.4827 H   0  0  0  0  0  0  0  0  0  0  0  0
    0.7357   -1.8286   -6.8360 H   0  0  0  0  0  0  0  0  0  0  0  0
    3.7800    1.0693   -5.5503 H   0  0  0  0  0  0  0  0  0  0  0  0
    1.8289   -0.6201   -8.6029 H   0  0  0  0  0  0  0  0  0  0  0  0
    1.0644    0.9044   -8.1870 H   0  0  0  0  0  0  0  0  0  0  0  0
    5.3887    2.3491   -4.3258 H   0  0  0  0  0  0  0  0  0  0  0  0
    5.2454    2.5548   -1.9360 H   0  0  0  0  0  0  0  0  0  0  0  0
    0.8929   -1.5598  -10.5970 H   0  0  0  0  0  0  0  0  0  0  0  0
    0.6399    0.1446  -10.9977 H   0  0  0  0  0  0  0  0  0  0  0  0
   -1.7049    0.6204   -8.0308 H   0  0  0  0  0  0  0  0  0  0  0  0
   -0.9984    1.5120   -9.3810 H   0  0  0  0  0  0  0  0  0  0  0  0
   -1.4214   -2.1230  -11.1332 H   0  0  0  0  0  0  0  0  0  0  0  0
   -0.7024   -1.2696  -12.5012 H   0  0  0  0  0  0  0  0  0  0  0  0
   -3.0479   -0.7574   -9.5245 H   0  0  0  0  0  0  0  0  0  0  0  0
   -3.3231    0.9511   -9.8879 H   0  0  0  0  0  0  0  0  0  0  0  0
    1.9574    2.0191    2.0729 H   0  0  0  0  0  0  0  0  0  0  0  0
    3.0831    0.6802    2.3556 H   0  0  0  0  0  0  0  0  0  0  0  0
    1.3438    0.3838    2.2824 H   0  0  0  0  0  0  0  0  0  0  0  0
    1.5622   -2.1467    1.1744 H   0  0  0  0  0  0  0  0  0  0  0  0
   -1.1910    0.3313   -0.8693 H   0  0  0  0  0  0  0  0  0  0  0  0
   -1.8018    0.8451  -11.8302 H   0  0  0  0  0  0  0  0  0  0  0  0
   -3.0205   -0.4260  -11.9827 H   0  0  0  0  0  0  0  0  0  0  0  0
   -0.2674   -3.5174    1.9531 H   0  0  0  0  0  0  0  0  0  0  0  0
   -3.0005   -1.0805   -0.1138 H   0  0  0  0  0  0  0  0  0  0  0  0
   -2.5501   -2.9963    1.3054 H   0  0  0  0  0  0  0  0  0  0  0  0
  1  2  1  0  0  0  0 
  1  3  2  0  0  0  0 
  1  4  1  0  0  0  0 
  2  5  1  0  0  0  0 
  4  6  2  0  0  0  0 
  4  7  1  0  0  0  0 
  5  8  1  0  0  0  0 
  6  9  1  0  0  0  0 
  6 10  1  0  0  0  0 
  7 11  2  0  0  0  0 
  8 12  1  0  0  0  0 
  9 13  1  0  0  0  0 
  9 14  2  0  0  0  0 
 10 15  1  0  0  0  0 
 11 14  1  0  0  0  0 
 12 16  1  0  0  0  0 
 12 17  1  0  0  0  0 
 13 18  2  0  0  0  0 
 13 19  1  0  0  0  0 
 15 19  2  0  0  0  0 
 15 20  1  0  0  0  0 
 16 21  1  0  0  0  0 
 17 22  1  0  0  0  0 
 19 23  1  0  0  0  0 
 20 24  2  0  0  0  0 
 20 25  1  0  0  0  0 
 21 26  1  0  0  0  0 
 22 26  1  0  0  0  0 
 24 27  1  0  0  0  0 
 25 28  2  0  0  0  0 
 27 29  2  0  0  0  0 
 28 29  1  0  0  0  0 
  5 30  1  0  0  0  0 
  5 31  1  0  0  0  0 
  7 32  1  0  0  0  0 
  8 33  1  0  0  0  0 
  8 34  1  0  0  0  0 
 11 35  1  0  0  0  0 
 14 36  1  0  0  0  0 
 16 37  1  0  0  0  0 
 16 38  1  0  0  0  0 
 17 39  1  0  0  0  0 
 17 40  1  0  0  0  0 
 21 41  1  0  0  0  0 
 21 42  1  0  0  0  0 
 22 43  1  0  0  0  0 
 22 44  1  0  0  0  0 
 23 45  1  0  0  0  0 
 23 46  1  0  0  0  0 
 23 47  1  0  0  0  0 
 24 48  1  0  0  0  0 
 25 49  1  0  0  0  0 
 26 50  1  0  0  0  0 
 26 51  1  0  0  0  0 
 27 52  1  0  0  0  0 
 28 53  1  0  0  0  0 
 29 54  1  0  0  0  0 
M  END
> <cdk:Title>
flavoxate

> <Conformer>
1

> <SuperDrugID>
SD001051

$$$$
