aripiprazole
  CDK     0628171801

 57 60  0  0  0  0  0  0  0  0999 V2000
    8.8832   -2.6508    3.9309 O   0  0  0  0  0  0  0  0  0  0  0  0
    7.9468   -2.2707    2.9058 C   0  0  1  0  0  0  0  0  0  0  0  0
   10.1281   -2.1402    3.7186 C   0  0  0  0  0  0  0  0  0  0  0  0
    6.5794   -2.8574    3.2986 C   0  0  1  0  0  0  0  0  0  0  0  0
   10.4665   -0.8801    4.2474 C   0  0  0  0  0  0  0  0  0  0  0  0
   11.0788   -2.8813    2.9917 C   0  0  0  0  0  0  0  0  0  0  0  0
    5.4798   -2.5875    2.2410 C   0  0  2  0  0  0  0  0  0  0  0  0
   11.7529   -0.3506    4.0351 C   0  0  0  0  0  0  0  0  0  0  0  0
   12.3649   -2.3551    2.7771 C   0  0  0  0  0  0  0  0  0  0  0  0
    4.1036   -3.0971    2.7416 C   0  0  1  0  0  0  0  0  0  0  0  0
   12.7095   -1.0814    3.2830 C   0  0  0  0  0  0  0  0  0  0  0  0
   12.0575    0.8630    4.5683 N   0  0  0  0  0  0  0  0  0  0  0  0
    2.9708   -3.0503    1.7642 N   0  0  1  0  0  0  0  0  0  0  0  0
   14.0729   -0.5173    3.0925 C   0  0  2  0  0  0  0  0  0  0  0  0
   13.1761    1.5575    4.2373 C   0  0  0  0  0  0  0  0  0  0  0  0
    1.7198   -3.5736    2.4078 C   0  0  2  0  0  0  0  0  0  0  0  0
    2.7708   -1.7259    1.0866 C   0  0  1  0  0  0  0  0  0  0  0  0
   14.1317    1.0319    3.2343 C   0  0  2  0  0  0  0  0  0  0  0  0
   13.3670    2.6742    4.7693 O   0  0  0  0  0  0  0  0  0  0  0  0
    0.5284   -3.5751    1.4314 C   0  0  2  0  0  0  0  0  0  0  0  0
    1.5137   -1.7011    0.1786 C   0  0  2  0  0  0  0  0  0  0  0  0
    0.3907   -2.2439    0.9004 N   0  0  0  0  0  0  0  0  0  0  0  0
   -0.7356   -1.5067    1.1668 C   0  0  0  0  0  0  0  0  0  0  0  0
   -2.0126   -1.8749    0.6675 C   0  0  0  0  0  0  0  0  0  0  0  0
   -0.6166   -0.3739    2.0041 C   0  0  0  0  0  0  0  0  0  0  0  0
   -2.1685   -3.2029   -0.3853 Cl  0  0  0  0  0  0  0  0  0  0  0  0
   -3.1541   -1.1243    1.0423 C   0  0  0  0  0  0  0  0  0  0  0  0
   -1.7496    0.3712    2.3653 C   0  0  0  0  0  0  0  0  0  0  0  0
   -4.7162   -1.5165    0.5059 Cl  0  0  0  0  0  0  0  0  0  0  0  0
   -3.0149   -0.0088    1.8914 C   0  0  0  0  0  0  0  0  0  0  0  0
    7.8580   -1.1816    2.8362 H   0  0  0  0  0  0  0  0  0  0  0  0
    8.2486   -2.6702    1.9325 H   0  0  0  0  0  0  0  0  0  0  0  0
    6.6852   -3.9379    3.4384 H   0  0  0  0  0  0  0  0  0  0  0  0
    6.2815   -2.4158    4.2555 H   0  0  0  0  0  0  0  0  0  0  0  0
    9.7693   -0.3492    4.7796 H   0  0  0  0  0  0  0  0  0  0  0  0
   10.8359   -3.8038    2.6244 H   0  0  0  0  0  0  0  0  0  0  0  0
    5.7362   -3.0874    1.3021 H   0  0  0  0  0  0  0  0  0  0  0  0
    5.4224   -1.5101    2.0614 H   0  0  0  0  0  0  0  0  0  0  0  0
   13.0487   -2.9062    2.2532 H   0  0  0  0  0  0  0  0  0  0  0  0
    4.2331   -4.1421    3.0422 H   0  0  0  0  0  0  0  0  0  0  0  0
    3.8391   -2.5248    3.6367 H   0  0  0  0  0  0  0  0  0  0  0  0
   11.4422    1.2540    5.2099 H   0  0  0  0  0  0  0  0  0  0  0  0
   14.4623   -0.7894    2.1058 H   0  0  0  0  0  0  0  0  0  0  0  0
   14.7211   -0.9717    3.8455 H   0  0  0  0  0  0  0  0  0  0  0  0
    1.4524   -2.9610    3.2769 H   0  0  0  0  0  0  0  0  0  0  0  0
    1.8721   -4.5985    2.7557 H   0  0  0  0  0  0  0  0  0  0  0  0
    2.6929   -0.9294    1.8313 H   0  0  0  0  0  0  0  0  0  0  0  0
    3.6319   -1.5086    0.4513 H   0  0  0  0  0  0  0  0  0  0  0  0
   13.8801    1.4874    2.2737 H   0  0  0  0  0  0  0  0  0  0  0  0
   15.1503    1.3314    3.4933 H   0  0  0  0  0  0  0  0  0  0  0  0
   -0.3640   -3.9108    1.9697 H   0  0  0  0  0  0  0  0  0  0  0  0
    0.7104   -4.2846    0.6204 H   0  0  0  0  0  0  0  0  0  0  0  0
    1.6946   -2.3121   -0.7123 H   0  0  0  0  0  0  0  0  0  0  0  0
    1.3340   -0.6734   -0.1570 H   0  0  0  0  0  0  0  0  0  0  0  0
    0.2965   -0.0926    2.3667 H   0  0  0  0  0  0  0  0  0  0  0  0
   -1.6542    1.1851    2.9767 H   0  0  0  0  0  0  0  0  0  0  0  0
   -3.8325    0.5376    2.1685 H   0  0  0  0  0  0  0  0  0  0  0  0
  1  2  1  0  0  0  0 
  1  3  1  0  0  0  0 
  2  4  1  0  0  0  0 
  3  5  2  0  0  0  0 
  3  6  1  0  0  0  0 
  4  7  1  0  0  0  0 
  5  8  1  0  0  0  0 
  6  9  2  0  0  0  0 
  7 10  1  0  0  0  0 
  8 11  2  0  0  0  0 
  8 12  1  0  0  0  0 
  9 11  1  0  0  0  0 
 10 13  1  0  0  0  0 
 11 14  1  0  0  0  0 
 12 15  1  0  0  0  0 
 13 16  1  0  0  0  0 
 13 17  1  0  0  0  0 
 14 18  1  0  0  0  0 
 15 18  1  0  0  0  0 
 15 19  2  0  0  0  0 
 16 20  1  0  0  0  0 
 17 21  1  0  0  0  0 
 20 22  1  0  0  0  0 
 21 22  1  0  0  0  0 
 22 23  1  0  0  0  0 
 23 24  2  0  0  0  0 
 23 25  1  0  0  0  0 
 24 26  1  0  0  0  0 
 24 27  1  0  0  0  0 
 25 28  2  0  0  0  0 
 27 29  1  0  0  0  0 
 27 30  2  0  0  0  0 
 28 30  1  0  0  0  0 
  2 31  1  0  0  0  0 
  2 32  1  0  0  0  0 
  4 33  1  0  0  0  0 
  4 34  1  0  0  0  0 
  5 35  1  0  0  0  0 
  6 36  1  0  0  0  0 
  7 37  1  0  0  0  0 
  7 38  1  0  0  0  0 
  9 39  1  0  0  0  0 
 10 40  1  0  0  0  0 
 10 41  1  0  0  0  0 
 12 42  1  0  0  0  0 
 14 43  1  0  0  0  0 
 14 44  1  0  0  0  0 
 16 45  1  0  0  0  0 
 16 46  1  0  0  0  0 
 17 47  1  0  0  0  0 
 17 48  1  0  0  0  0 
 18 49  1  0  0  0  0 
 18 50  1  0  0  0  0 
 20 51  1  0  0  0  0 
 20 52  1  0  0  0  0 
 21 53  1  0  0  0  0 
 21 54  1  0  0  0  0 
 25 55  1  0  0  0  0 
 28 56  1  0  0  0  0 
 30 57  1  0  0  0  0 
M  END
> <cdk:Title>
aripiprazole

> <Conformer>
1

> <SuperDrugID>
SD000199

$$$$
