amisulpride
  CDK     0628171801

 52 53  0  0  0  0  0  0  0  0999 V2000
    1.5978   -0.0172   -2.3446 C   0  0  0  0  0  0  0  0  0  0  0  0
    1.0126    0.9644   -1.5851 N   0  0  0  0  0  0  0  0  0  0  0  0
    0.8605   -0.7222   -3.0751 O   0  0  0  0  0  0  0  0  0  0  0  0
    3.0105   -0.2591   -2.3308 C   0  0  0  0  0  0  0  0  0  0  0  0
   -0.3974    1.2222   -1.4936 C   0  0  2  0  0  0  0  0  0  0  0  0
    3.5636   -1.4939   -2.7778 C   0  0  0  0  0  0  0  0  0  0  0  0
    3.9170    0.7371   -1.8823 C   0  0  0  0  0  0  0  0  0  0  0  0
   -0.7366    2.7252   -1.2750 C   0  0  1  0  0  0  0  0  0  0  0  0
    2.7856   -2.5347   -3.2217 O   0  0  0  0  0  0  0  0  0  0  0  0
    4.9585   -1.6829   -2.8210 C   0  0  0  0  0  0  0  0  0  0  0  0
    5.3174    0.5463   -1.9090 C   0  0  0  0  0  0  0  0  0  0  0  0
   -2.2203    2.9245   -1.1673 N   0  0  2  0  0  0  0  0  0  0  0  0
   -0.1277    3.3167    0.0221 C   0  0  2  0  0  0  0  0  0  0  0  0
    2.4429   -3.4828   -2.1941 C   0  0  0  0  0  0  0  0  0  0  0  0
    5.8398   -0.6699   -2.4041 C   0  0  0  0  0  0  0  0  0  0  0  0
    6.3925    1.8464   -1.3450 S   0  0  1  0  0  0  0  0  0  0  0  0
   -2.9238    3.4444   -2.3841 C   0  0  1  0  0  0  0  0  0  0  0  0
   -2.4880    3.7140    0.0694 C   0  0  2  0  0  0  0  0  0  0  0  0
   -1.1557    4.3651    0.4643 C   0  0  2  0  0  0  0  0  0  0  0  0
    7.1668   -0.9072   -2.5038 N   0  0  0  0  0  0  0  0  0  0  0  0
    7.3113    1.3293    0.1594 C   0  0  2  0  0  0  0  0  0  0  0  0
    7.4658    2.1932   -2.4868 O   0  0  0  0  0  0  0  0  0  0  0  0
    5.5721    3.1877   -1.0217 O   0  0  0  0  0  0  0  0  0  0  0  0
   -2.8714    2.5047   -3.6105 C   0  0  0  0  0  0  0  0  0  0  0  0
    6.4017    1.2227    1.3981 C   0  0  0  0  0  0  0  0  0  0  0  0
    1.5917    1.5118   -1.0349 H   0  0  0  0  0  0  0  0  0  0  0  0
   -0.7928    0.6334   -0.6631 H   0  0  0  0  0  0  0  0  0  0  0  0
   -0.9063    0.8863   -2.3976 H   0  0  0  0  0  0  0  0  0  0  0  0
    3.5566    1.6311   -1.5449 H   0  0  0  0  0  0  0  0  0  0  0  0
   -0.3349    3.2966   -2.1206 H   0  0  0  0  0  0  0  0  0  0  0  0
    5.3302   -2.5742   -3.1655 H   0  0  0  0  0  0  0  0  0  0  0  0
    0.8504    3.7720   -0.1548 H   0  0  0  0  0  0  0  0  0  0  0  0
   -0.0283    2.5562    0.8033 H   0  0  0  0  0  0  0  0  0  0  0  0
    1.8148   -4.2494   -2.6489 H   0  0  0  0  0  0  0  0  0  0  0  0
    3.3297   -3.9692   -1.7794 H   0  0  0  0  0  0  0  0  0  0  0  0
    1.8755   -3.0107   -1.3891 H   0  0  0  0  0  0  0  0  0  0  0  0
   -3.9830    3.5838   -2.1435 H   0  0  0  0  0  0  0  0  0  0  0  0
   -2.5146    4.4204   -2.6647 H   0  0  0  0  0  0  0  0  0  0  0  0
   -2.8039    3.0234    0.8558 H   0  0  0  0  0  0  0  0  0  0  0  0
   -3.2670    4.4771   -0.0368 H   0  0  0  0  0  0  0  0  0  0  0  0
   -1.0145    5.3035   -0.0840 H   0  0  0  0  0  0  0  0  0  0  0  0
   -1.1025    4.5608    1.5394 H   0  0  0  0  0  0  0  0  0  0  0  0
    7.8076   -0.2381   -2.2254 H   0  0  0  0  0  0  0  0  0  0  0  0
    7.4857   -1.7495   -2.8622 H   0  0  0  0  0  0  0  0  0  0  0  0
    8.0923    2.0668    0.3530 H   0  0  0  0  0  0  0  0  0  0  0  0
    7.7877    0.3647   -0.0249 H   0  0  0  0  0  0  0  0  0  0  0  0
   -3.5499    2.8707   -4.3839 H   0  0  0  0  0  0  0  0  0  0  0  0
   -1.8634    2.4703   -4.0281 H   0  0  0  0  0  0  0  0  0  0  0  0
   -3.1791    1.4958   -3.3300 H   0  0  0  0  0  0  0  0  0  0  0  0
    5.5814    0.5260    1.2164 H   0  0  0  0  0  0  0  0  0  0  0  0
    6.9826    0.8627    2.2495 H   0  0  0  0  0  0  0  0  0  0  0  0
    5.9915    2.2032    1.6478 H   0  0  0  0  0  0  0  0  0  0  0  0
  1  2  1  0  0  0  0 
  1  3  2  0  0  0  0 
  1  4  1  0  0  0  0 
  2  5  1  0  0  0  0 
  4  6  2  0  0  0  0 
  4  7  1  0  0  0  0 
  8  5  1  0  0  0  0 
  6  9  1  0  0  0  0 
  6 10  1  0  0  0  0 
  7 11  2  0  0  0  0 
  8 12  1  0  0  0  0 
  8 13  1  0  0  0  0 
  9 14  1  0  0  0  0 
 10 15  2  0  0  0  0 
 11 15  1  0  0  0  0 
 11 16  1  0  0  0  0 
 12 17  1  0  0  0  0 
 12 18  1  0  0  0  0 
 13 19  1  0  0  0  0 
 15 20  1  0  0  0  0 
 16 21  1  0  0  0  0 
 16 22  2  0  0  0  0 
 16 23  2  0  0  0  0 
 17 24  1  0  0  0  0 
 18 19  1  0  0  0  0 
 21 25  1  0  0  0  0 
  2 26  1  0  0  0  0 
  5 27  1  0  0  0  0 
  5 28  1  0  0  0  0 
  7 29  1  0  0  0  0 
  8 30  1  0  0  0  0 
 10 31  1  0  0  0  0 
 13 32  1  0  0  0  0 
 13 33  1  0  0  0  0 
 14 34  1  0  0  0  0 
 14 35  1  0  0  0  0 
 14 36  1  0  0  0  0 
 17 37  1  0  0  0  0 
 17 38  1  0  0  0  0 
 18 39  1  0  0  0  0 
 18 40  1  0  0  0  0 
 19 41  1  0  0  0  0 
 19 42  1  0  0  0  0 
 20 43  1  0  0  0  0 
 20 44  1  0  0  0  0 
 21 45  1  0  0  0  0 
 21 46  1  0  0  0  0 
 24 47  1  0  0  0  0 
 24 48  1  0  0  0  0 
 24 49  1  0  0  0  0 
 25 50  1  0  0  0  0 
 25 51  1  0  0  0  0 
 25 52  1  0  0  0  0 
M  END
> <cdk:Title>
amisulpride

> <Conformer>
1

> <SuperDrugID>
SD000144

$$$$
