moxifloxacin
  CDK     0628171801

 53 57  0  0  0  0  0  0  0  0999 V2000
    1.8896    1.3992    2.3603 O   0  0  0  0  0  0  0  0  0  0  0  0
    3.0263    1.7573    1.5528 C   0  0  0  0  0  0  0  0  0  0  0  0
    0.8548    2.3000    2.3184 C   0  0  0  0  0  0  0  0  0  0  0  0
    0.7717    3.3844    3.2506 C   0  0  0  0  0  0  0  0  0  0  0  0
   -0.1363    2.1006    1.3222 C   0  0  0  0  0  0  0  0  0  0  0  0
    1.5861    3.5159    4.3620 N   0  0  0  0  0  0  0  0  0  0  0  0
   -0.2204    4.3873    3.0156 C   0  0  0  0  0  0  0  0  0  0  0  0
   -1.1706    3.0516    1.1934 C   0  0  0  0  0  0  0  0  0  0  0  0
   -0.1211    0.9859    0.5096 N   0  0  0  0  0  0  0  0  0  0  0  0
    1.5990    4.6759    5.0899 C   0  0  0  0  0  0  0  0  0  0  0  0
    2.4527    2.4639    4.8531 C   0  0  1  0  0  0  0  0  0  0  0  0
   -0.2355    5.5592    3.8146 C   0  0  0  0  0  0  0  0  0  0  0  0
   -1.1880    4.1961    2.0011 C   0  0  0  0  0  0  0  0  0  0  0  0
   -2.1499    2.8936    0.3428 F   0  0  0  0  0  0  0  0  0  0  0  0
   -0.0009    1.0404   -0.9174 C   0  0  2  0  0  0  0  0  0  0  0  0
   -0.2330   -0.3462    1.0195 C   0  0  2  0  0  0  0  0  0  0  0  0
    0.7010    5.7383    4.8585 C   0  0  0  0  0  0  0  0  0  0  0  0
    2.3524    2.0418    6.3369 C   0  0  2  0  0  0  0  0  0  0  0  0
    1.8142    1.1141    5.2511 C   0  0  1  0  0  0  0  0  0  0  0  0
   -1.0916    6.4504    3.5874 O   0  0  0  0  0  0  0  0  0  0  0  0
   -0.0493   -0.4384   -1.3762 C   0  0  1  0  0  0  0  0  0  0  0  0
   -0.7289   -1.1676   -0.1863 C   0  0  2  0  0  0  0  0  0  0  0  0
    0.7466    6.9102    5.6793 C   0  0  0  0  0  0  0  0  0  0  0  0
   -0.7410   -0.6959   -2.7485 C   0  0  1  0  0  0  0  0  0  0  0  0
   -2.2171   -1.1418   -0.2344 N   0  0  2  0  0  0  0  0  0  0  0  0
   -0.0971    7.9563    5.5082 O   0  0  0  0  0  0  0  0  0  0  0  0
    1.5712    7.0401    6.6144 O   0  0  0  0  0  0  0  0  0  0  0  0
   -2.2870   -0.6618   -2.6687 C   0  0  2  0  0  0  0  0  0  0  0  0
   -2.7901   -1.5750   -1.5268 C   0  0  1  0  0  0  0  0  0  0  0  0
    0.9846   -0.7964   -1.4548 H   0  0  0  0  0  0  0  0  0  0  0  0
   -0.3922   -2.2060   -0.1125 H   0  0  0  0  0  0  0  0  0  0  0  0
    3.7978    1.0062    1.7203 H   0  0  0  0  0  0  0  0  0  0  0  0
    2.7765    1.7591    0.4915 H   0  0  0  0  0  0  0  0  0  0  0  0
    3.4386    2.7302    1.8275 H   0  0  0  0  0  0  0  0  0  0  0  0
    2.2781    4.7767    5.8526 H   0  0  0  0  0  0  0  0  0  0  0  0
    3.4659    2.4018    4.4499 H   0  0  0  0  0  0  0  0  0  0  0  0
   -1.9350    4.8821    1.8512 H   0  0  0  0  0  0  0  0  0  0  0  0
    0.9412    1.5084   -1.2180 H   0  0  0  0  0  0  0  0  0  0  0  0
   -0.8195    1.6101   -1.3556 H   0  0  0  0  0  0  0  0  0  0  0  0
   -0.9259   -0.4153    1.8622 H   0  0  0  0  0  0  0  0  0  0  0  0
    0.7470   -0.7082    1.3404 H   0  0  0  0  0  0  0  0  0  0  0  0
    1.5833    2.5169    6.9483 H   0  0  0  0  0  0  0  0  0  0  0  0
    3.2819    1.7189    6.8085 H   0  0  0  0  0  0  0  0  0  0  0  0
    0.7241    1.0446    5.2099 H   0  0  0  0  0  0  0  0  0  0  0  0
    2.4115    0.2181    5.0740 H   0  0  0  0  0  0  0  0  0  0  0  0
   -0.3976    0.0400   -3.4796 H   0  0  0  0  0  0  0  0  0  0  0  0
   -0.4416   -1.6827   -3.1122 H   0  0  0  0  0  0  0  0  0  0  0  0
   -2.5113   -0.1719   -0.0963 H   0  0  0  0  0  0  0  0  0  0  0  0
   -0.0451    8.7368    6.1005 H   0  0  0  0  0  0  0  0  0  0  0  0
   -2.7086   -0.9956   -3.6203 H   0  0  0  0  0  0  0  0  0  0  0  0
   -2.6291    0.3625   -2.4904 H   0  0  0  0  0  0  0  0  0  0  0  0
   -2.5256   -2.6181   -1.7237 H   0  0  0  0  0  0  0  0  0  0  0  0
   -3.8783   -1.5088   -1.4653 H   0  0  0  0  0  0  0  0  0  0  0  0
  1  2  1  0  0  0  0 
  1  3  1  0  0  0  0 
  3  4  2  0  0  0  0 
  3  5  1  0  0  0  0 
  4  6  1  0  0  0  0 
  4  7  1  0  0  0  0 
  5  8  2  0  0  0  0 
  5  9  1  0  0  0  0 
  6 10  1  0  0  0  0 
  6 11  1  0  0  0  0 
  7 12  1  0  0  0  0 
  7 13  2  0  0  0  0 
  8 13  1  0  0  0  0 
  8 14  1  0  0  0  0 
  9 15  1  0  0  0  0 
  9 16  1  0  0  0  0 
 10 17  2  0  0  0  0 
 11 18  1  0  0  0  0 
 11 19  1  0  0  0  0 
 12 17  1  0  0  0  0 
 12 20  2  0  0  0  0 
 21 15  1  0  0  0  0 
 22 16  1  0  0  0  0 
 17 23  1  0  0  0  0 
 18 19  1  0  0  0  0 
 22 21  1  0  0  0  0 
 21 24  1  0  0  0  0 
 21 30  1  0  0  0  0 
 22 25  1  0  0  0  0 
 22 31  1  0  0  0  0 
 23 26  1  0  0  0  0 
 23 27  2  0  0  0  0 
 24 28  1  0  0  0  0 
 25 29  1  0  0  0  0 
 28 29  1  0  0  0  0 
  2 32  1  0  0  0  0 
  2 33  1  0  0  0  0 
  2 34  1  0  0  0  0 
 10 35  1  0  0  0  0 
 11 36  1  0  0  0  0 
 13 37  1  0  0  0  0 
 15 38  1  0  0  0  0 
 15 39  1  0  0  0  0 
 16 40  1  0  0  0  0 
 16 41  1  0  0  0  0 
 18 42  1  0  0  0  0 
 18 43  1  0  0  0  0 
 19 44  1  0  0  0  0 
 19 45  1  0  0  0  0 
 24 46  1  0  0  0  0 
 24 47  1  0  0  0  0 
 25 48  1  0  0  0  0 
 26 49  1  0  0  0  0 
 28 50  1  0  0  0  0 
 28 51  1  0  0  0  0 
 29 52  1  0  0  0  0 
 29 53  1  0  0  0  0 
M  END
> <cdk:Title>
moxifloxacin

> <Conformer>
1

> <SuperDrugID>
SD001650

$$$$
