cladribine
  CDK     0628171802

 31 33  0  0  0  0  0  0  0  0999 V2000
    9.5688   -2.2910   -2.0383 N   0  0  0  0  0  0  0  0  0  0  0  0
    8.5104   -1.6572   -1.5081 C   0  0  0  0  0  0  0  0  0  0  0  0
    7.4484   -2.3510   -0.9038 C   0  0  0  0  0  0  0  0  0  0  0  0
    8.4474   -0.2977   -1.5477 N   0  0  0  0  0  0  0  0  0  0  0  0
    6.3733   -1.6272   -0.3986 C   0  0  0  0  0  0  0  0  0  0  0  0
    7.2333   -3.6569   -0.6969 N   0  0  0  0  0  0  0  0  0  0  0  0
    7.3924    0.3933   -1.0294 C   0  0  0  0  0  0  0  0  0  0  0  0
    5.4869   -2.5081    0.0985 N   0  0  0  0  0  0  0  0  0  0  0  0
    6.3522   -0.2721   -0.4586 N   0  0  0  0  0  0  0  0  0  0  0  0
    6.0377   -3.7308   -0.0779 C   0  0  0  0  0  0  0  0  0  0  0  0
    7.3718    2.0787   -1.0954 Cl  0  0  0  0  0  0  0  0  0  0  0  0
    4.2088   -2.2383    0.7008 C   0  0  2  0  0  0  0  0  0  0  0  0
    3.7081   -0.9438    0.3133 O   0  0  0  0  0  0  0  0  0  0  0  0
    4.2693   -2.2848    2.2464 C   0  0  1  0  0  0  0  0  0  0  0  0
    3.2270   -0.2732    1.4830 C   0  0  1  0  0  0  0  0  0  0  0  0
    4.0877   -0.8170    2.6404 C   0  0  1  0  0  0  0  0  0  0  0  0
    3.2963    1.2642    1.3108 C   0  0  2  0  0  0  0  0  0  0  0  0
    3.4613   -0.6559    3.9089 O   0  0  0  0  0  0  0  0  0  0  0  0
    4.6359    1.7154    1.1414 O   0  0  0  0  0  0  0  0  0  0  0  0
   10.2825   -1.7767   -2.4487 H   0  0  0  0  0  0  0  0  0  0  0  0
    9.6259   -3.2592   -2.0081 H   0  0  0  0  0  0  0  0  0  0  0  0
    5.6090   -4.6111    0.2184 H   0  0  0  0  0  0  0  0  0  0  0  0
    3.4896   -2.9794    0.3385 H   0  0  0  0  0  0  0  0  0  0  0  0
    3.4483   -2.8910    2.6391 H   0  0  0  0  0  0  0  0  0  0  0  0
    5.2146   -2.6794    2.6296 H   0  0  0  0  0  0  0  0  0  0  0  0
    2.1784   -0.5579    1.6320 H   0  0  0  0  0  0  0  0  0  0  0  0
    5.0662   -0.3292    2.6639 H   0  0  0  0  0  0  0  0  0  0  0  0
    2.8713    1.7566    2.1881 H   0  0  0  0  0  0  0  0  0  0  0  0
    2.7223    1.5644    0.4319 H   0  0  0  0  0  0  0  0  0  0  0  0
    3.4087    0.3161    4.0355 H   0  0  0  0  0  0  0  0  0  0  0  0
    4.5679    2.6891    1.0526 H   0  0  0  0  0  0  0  0  0  0  0  0
  1  2  1  0  0  0  0 
  2  3  2  0  0  0  0 
  2  4  1  0  0  0  0 
  3  5  1  0  0  0  0 
  3  6  1  0  0  0  0 
  4  7  2  0  0  0  0 
  5  8  1  0  0  0  0 
  5  9  2  0  0  0  0 
  6 10  2  0  0  0  0 
  7  9  1  0  0  0  0 
  7 11  1  0  0  0  0 
  8 10  1  0  0  0  0 
 12  8  1  0  0  0  0 
 12 13  1  0  0  0  0 
 12 14  1  0  0  0  0 
 15 13  1  0  0  0  0 
 16 14  1  0  0  0  0 
 15 16  1  0  0  0  0 
 15 17  1  0  0  0  0 
 16 18  1  0  0  0  0 
 17 19  1  0  0  0  0 
  1 20  1  0  0  0  0 
  1 21  1  0  0  0  0 
 10 22  1  0  0  0  0 
 12 23  1  0  0  0  0 
 14 24  1  0  0  0  0 
 14 25  1  0  0  0  0 
 15 26  1  0  0  0  0 
 16 27  1  0  0  0  0 
 17 28  1  0  0  0  0 
 17 29  1  0  0  0  0 
 18 30  1  0  0  0  0 
 19 31  1  0  0  0  0 
M  END
> <cdk:Title>
cladribine

> <Conformer>
1

> <SuperDrugID>
SD000586

$$$$
