mepyramine
  CDK     0628171801

 44 45  0  0  0  0  0  0  0  0999 V2000
    0.3128    3.3052    4.5048 N   0  0  0  0  0  0  0  0  0  0  0  0
    1.4635    2.9124    3.7038 C   0  0  1  0  0  0  0  0  0  0  0  0
    0.2305    4.6685    5.0024 C   0  0  1  0  0  0  0  0  0  0  0  0
   -0.6509    2.3739    4.8315 C   0  0  0  0  0  0  0  0  0  0  0  0
    1.2117    1.9350    2.6041 C   0  0  0  0  0  0  0  0  0  0  0  0
    1.4084    5.0459    5.9427 C   0  0  1  0  0  0  0  0  0  0  0  0
   -2.0381    2.6346    4.7235 C   0  0  0  0  0  0  0  0  0  0  0  0
   -0.2581    1.1360    5.2458 N   0  0  0  0  0  0  0  0  0  0  0  0
    1.9124    0.7067    2.5465 C   0  0  0  0  0  0  0  0  0  0  0  0
    0.2786    2.2299    1.5826 C   0  0  0  0  0  0  0  0  0  0  0  0
    1.3322    6.4990    6.3029 N   0  0  1  0  0  0  0  0  0  0  0  0
   -2.9616    1.6251    5.0504 C   0  0  0  0  0  0  0  0  0  0  0  0
   -1.1210    0.1371    5.5590 C   0  0  0  0  0  0  0  0  0  0  0  0
    1.6977   -0.1936    1.4865 C   0  0  0  0  0  0  0  0  0  0  0  0
    0.0547    1.3231    0.5292 C   0  0  0  0  0  0  0  0  0  0  0  0
    0.6793    6.7610    7.6168 C   0  0  0  0  0  0  0  0  0  0  0  0
    2.6125    7.2464    6.1387 C   0  0  0  0  0  0  0  0  0  0  0  0
   -2.5050    0.3611    5.4630 C   0  0  0  0  0  0  0  0  0  0  0  0
    0.7619    0.1054    0.4758 C   0  0  0  0  0  0  0  0  0  0  0  0
    0.5802   -0.7563   -0.5748 O   0  0  0  0  0  0  0  0  0  0  0  0
   -0.4116   -1.7698   -0.3292 C   0  0  0  0  0  0  0  0  0  0  0  0
    1.9040    3.7912    3.2229 H   0  0  0  0  0  0  0  0  0  0  0  0
    2.2185    2.5241    4.3940 H   0  0  0  0  0  0  0  0  0  0  0  0
    0.2177    5.3502    4.1471 H   0  0  0  0  0  0  0  0  0  0  0  0
   -0.6941    4.8434    5.5609 H   0  0  0  0  0  0  0  0  0  0  0  0
    1.3809    4.4073    6.8323 H   0  0  0  0  0  0  0  0  0  0  0  0
    2.3490    4.8240    5.4329 H   0  0  0  0  0  0  0  0  0  0  0  0
   -2.3793    3.5419    4.3978 H   0  0  0  0  0  0  0  0  0  0  0  0
    2.5939    0.4620    3.2690 H   0  0  0  0  0  0  0  0  0  0  0  0
   -0.2407    3.1112    1.5985 H   0  0  0  0  0  0  0  0  0  0  0  0
   -3.9651    1.8097    4.9837 H   0  0  0  0  0  0  0  0  0  0  0  0
   -0.7608   -0.7708    5.8577 H   0  0  0  0  0  0  0  0  0  0  0  0
    2.2304   -1.0664    1.4455 H   0  0  0  0  0  0  0  0  0  0  0  0
   -0.6186    1.5540   -0.2039 H   0  0  0  0  0  0  0  0  0  0  0  0
    0.4658    7.8255    7.7280 H   0  0  0  0  0  0  0  0  0  0  0  0
   -0.2668    6.2210    7.6943 H   0  0  0  0  0  0  0  0  0  0  0  0
    1.3284    6.4457    8.4373 H   0  0  0  0  0  0  0  0  0  0  0  0
    3.0124    7.1025    5.1317 H   0  0  0  0  0  0  0  0  0  0  0  0
    2.4516    8.3178    6.2757 H   0  0  0  0  0  0  0  0  0  0  0  0
    3.3552    6.9038    6.8634 H   0  0  0  0  0  0  0  0  0  0  0  0
   -3.1687   -0.3837    5.6874 H   0  0  0  0  0  0  0  0  0  0  0  0
   -0.4477   -2.4224   -1.2020 H   0  0  0  0  0  0  0  0  0  0  0  0
   -0.1584   -2.3818    0.5402 H   0  0  0  0  0  0  0  0  0  0  0  0
   -1.4037   -1.3333   -0.1907 H   0  0  0  0  0  0  0  0  0  0  0  0
  1  2  1  0  0  0  0 
  1  3  1  0  0  0  0 
  1  4  1  0  0  0  0 
  2  5  1  0  0  0  0 
  3  6  1  0  0  0  0 
  4  7  2  0  0  0  0 
  4  8  1  0  0  0  0 
  5  9  2  0  0  0  0 
  5 10  1  0  0  0  0 
  6 11  1  0  0  0  0 
  7 12  1  0  0  0  0 
  8 13  2  0  0  0  0 
  9 14  1  0  0  0  0 
 10 15  2  0  0  0  0 
 11 16  1  0  0  0  0 
 11 17  1  0  0  0  0 
 12 18  2  0  0  0  0 
 13 18  1  0  0  0  0 
 14 19  2  0  0  0  0 
 15 19  1  0  0  0  0 
 19 20  1  0  0  0  0 
 20 21  1  0  0  0  0 
  2 22  1  0  0  0  0 
  2 23  1  0  0  0  0 
  3 24  1  0  0  0  0 
  3 25  1  0  0  0  0 
  6 26  1  0  0  0  0 
  6 27  1  0  0  0  0 
  7 28  1  0  0  0  0 
  9 29  1  0  0  0  0 
 10 30  1  0  0  0  0 
 12 31  1  0  0  0  0 
 13 32  1  0  0  0  0 
 14 33  1  0  0  0  0 
 15 34  1  0  0  0  0 
 16 35  1  0  0  0  0 
 16 36  1  0  0  0  0 
 16 37  1  0  0  0  0 
 17 38  1  0  0  0  0 
 17 39  1  0  0  0  0 
 17 40  1  0  0  0  0 
 18 41  1  0  0  0  0 
 21 42  1  0  0  0  0 
 21 43  1  0  0  0  0 
 21 44  1  0  0  0  0 
M  END
> <cdk:Title>
mepyramine

> <Conformer>
1

> <SuperDrugID>
SD002095

$$$$
