clioquinol
  CDK     0628171802

 18 19  0  0  0  0  0  0  0  0999 V2000
    1.1253   -0.2498   -0.1686 O   0  0  0  0  0  0  0  0  0  0  0  0
    0.3127   -0.0478    0.9036 C   0  0  0  0  0  0  0  0  0  0  0  0
    0.7663    0.6172    2.0659 C   0  0  0  0  0  0  0  0  0  0  0  0
   -1.0131   -0.5174    0.8437 C   0  0  0  0  0  0  0  0  0  0  0  0
   -0.1097    0.8142    3.1748 C   0  0  0  0  0  0  0  0  0  0  0  0
    2.0474    1.0747    2.1323 N   0  0  0  0  0  0  0  0  0  0  0  0
   -1.7167   -1.4893   -0.8242 I   0  0  0  0  0  0  0  0  0  0  0  0
   -1.8797   -0.3260    1.9329 C   0  0  0  0  0  0  0  0  0  0  0  0
   -1.4429    0.3341    3.0968 C   0  0  0  0  0  0  0  0  0  0  0  0
    0.4068    1.4875    4.3083 C   0  0  0  0  0  0  0  0  0  0  0  0
    2.5519    1.7208    3.2133 C   0  0  0  0  0  0  0  0  0  0  0  0
   -2.5693    0.5132    4.3547 Cl  0  0  0  0  0  0  0  0  0  0  0  0
    1.7350    1.9421    4.3326 C   0  0  0  0  0  0  0  0  0  0  0  0
    1.9931    0.1420    0.0619 H   0  0  0  0  0  0  0  0  0  0  0  0
   -2.8385   -0.6739    1.8708 H   0  0  0  0  0  0  0  0  0  0  0  0
   -0.1715    1.6582    5.1325 H   0  0  0  0  0  0  0  0  0  0  0  0
    3.5207    2.0455    3.2152 H   0  0  0  0  0  0  0  0  0  0  0  0
    2.0963    2.4264    5.1556 H   0  0  0  0  0  0  0  0  0  0  0  0
  1  2  1  0  0  0  0 
  2  3  2  0  0  0  0 
  2  4  1  0  0  0  0 
  3  5  1  0  0  0  0 
  3  6  1  0  0  0  0 
  4  7  1  0  0  0  0 
  4  8  2  0  0  0  0 
  5  9  2  0  0  0  0 
  5 10  1  0  0  0  0 
  6 11  2  0  0  0  0 
  8  9  1  0  0  0  0 
  9 12  1  0  0  0  0 
 10 13  2  0  0  0  0 
 11 13  1  0  0  0  0 
  1 14  1  0  0  0  0 
  8 15  1  0  0  0  0 
 10 16  1  0  0  0  0 
 11 17  1  0  0  0  0 
 13 18  1  0  0  0  0 
M  END
> <cdk:Title>
clioquinol

> <Conformer>
1

> <SuperDrugID>
SD000600

$$$$
