ribostamycin
  CDK     0628171801

 65 67  0  0  0  0  0  0  0  0999 V2000
   -6.5594   74.6254   18.4154 O   0  0  0  0  0  0  0  0  0  0  0  0
   -6.3121   75.7189   17.4936 C   0  0  1  0  0  0  0  0  0  0  0  0
   -5.6990   73.4662   18.3854 C   0  0  2  0  0  0  0  0  0  0  0  0
   -7.5649   76.6574   17.5538 C   0  0  2  0  0  0  0  0  0  0  0  0
   -5.0018   76.4944   17.8522 C   0  0  1  0  0  0  0  0  0  0  0  0
   -5.5216   72.9478   17.0567 O   0  0  0  0  0  0  0  0  0  0  0  0
   -6.2888   72.3215   19.2343 C   0  0  2  0  0  0  0  0  0  0  0  0
   -8.7680   76.0473   17.0208 O   0  0  0  0  0  0  0  0  0  0  0  0
   -7.3618   77.9508   16.7082 C   0  0  1  0  0  0  0  0  0  0  0  0
   -3.8545   75.6895   17.5836 O   0  0  0  0  0  0  0  0  0  0  0  0
   -4.8337   77.8180   17.0530 C   0  0  1  0  0  0  0  0  0  0  0  0
   -6.3195   71.7667   16.8798 C   0  0  1  0  0  0  0  0  0  0  0  0
   -5.2448   71.5561   19.8340 O   0  0  0  0  0  0  0  0  0  0  0  0
   -7.0733   71.4970   18.2051 C   0  0  1  0  0  0  0  0  0  0  0  0
   -9.4462   75.0285   17.7888 C   0  0  1  0  0  0  0  0  0  0  0  0
   -8.5345   78.8384   16.8132 N   0  0  1  0  0  0  0  0  0  0  0  0
   -6.0906   78.7187   17.1502 C   0  0  1  0  0  0  0  0  0  0  0  0
   -3.6544   78.5565   17.5300 N   0  0  2  0  0  0  0  0  0  0  0  0
   -7.2527   71.9251   15.6527 C   0  0  1  0  0  0  0  0  0  0  0  0
   -7.1260   70.1071   18.5303 O   0  0  0  0  0  0  0  0  0  0  0  0
   -9.6686   75.3977   19.1704 O   0  0  0  0  0  0  0  0  0  0  0  0
  -10.7777   74.6254   17.0956 C   0  0  2  0  0  0  0  0  0  0  0  0
   -6.5005   72.1770   14.4694 O   0  0  0  0  0  0  0  0  0  0  0  0
  -10.6034   76.4827   19.3757 C   0  0  2  0  0  0  0  0  0  0  0  0
  -10.5572   74.3723   15.6628 N   0  0  1  0  0  0  0  0  0  0  0  0
  -11.8666   75.7124   17.3058 C   0  0  2  0  0  0  0  0  0  0  0  0
  -10.6074   76.8412   20.8834 C   0  0  2  0  0  0  0  0  0  0  0  0
  -12.0003   76.0905   18.8075 C   0  0  2  0  0  0  0  0  0  0  0  0
  -13.1228   75.2585   16.8013 O   0  0  0  0  0  0  0  0  0  0  0  0
  -10.9549   75.6985   21.7374 N   0  0  1  0  0  0  0  0  0  0  0  0
  -12.9360   77.1618   18.9362 O   0  0  0  0  0  0  0  0  0  0  0  0
   -6.2365   75.3387   16.4703 H   0  0  0  0  0  0  0  0  0  0  0  0
   -8.8285   74.1358   17.7928 H   0  0  0  0  0  0  0  0  0  0  0  0
   -4.7292   73.7445   18.7978 H   0  0  0  0  0  0  0  0  0  0  0  0
   -7.7189   76.9641   18.5950 H   0  0  0  0  0  0  0  0  0  0  0  0
   -5.0144   76.7148   18.9241 H   0  0  0  0  0  0  0  0  0  0  0  0
   -6.9444   72.6872   20.0289 H   0  0  0  0  0  0  0  0  0  0  0  0
   -7.2576   77.6757   15.6534 H   0  0  0  0  0  0  0  0  0  0  0  0
   -3.1009   76.1906   17.9600 H   0  0  0  0  0  0  0  0  0  0  0  0
   -4.6567   77.5764   16.0005 H   0  0  0  0  0  0  0  0  0  0  0  0
   -5.6264   70.9432   16.6796 H   0  0  0  0  0  0  0  0  0  0  0  0
   -4.8016   72.1773   20.4502 H   0  0  0  0  0  0  0  0  0  0  0  0
   -8.0983   71.8742   18.1559 H   0  0  0  0  0  0  0  0  0  0  0  0
   -8.3702   79.6382   16.1974 H   0  0  0  0  0  0  0  0  0  0  0  0
   -9.3312   78.3312   16.4211 H   0  0  0  0  0  0  0  0  0  0  0  0
   -5.9539   79.5888   16.5031 H   0  0  0  0  0  0  0  0  0  0  0  0
   -6.2130   79.0736   18.1781 H   0  0  0  0  0  0  0  0  0  0  0  0
   -3.8574   78.8695   18.4823 H   0  0  0  0  0  0  0  0  0  0  0  0
   -3.5713   79.3943   16.9501 H   0  0  0  0  0  0  0  0  0  0  0  0
   -7.8445   71.0169   15.5090 H   0  0  0  0  0  0  0  0  0  0  0  0
   -7.9312   72.7654   15.8073 H   0  0  0  0  0  0  0  0  0  0  0  0
   -7.6271   69.6921   17.7964 H   0  0  0  0  0  0  0  0  0  0  0  0
  -11.1297   73.6914   17.5414 H   0  0  0  0  0  0  0  0  0  0  0  0
   -7.1738   72.2768   13.7628 H   0  0  0  0  0  0  0  0  0  0  0  0
  -10.2522   77.3749   18.8476 H   0  0  0  0  0  0  0  0  0  0  0  0
   -9.9279   73.5697   15.5932 H   0  0  0  0  0  0  0  0  0  0  0  0
  -11.4513   74.0798   15.2650 H   0  0  0  0  0  0  0  0  0  0  0  0
  -11.5910   76.6060   16.7382 H   0  0  0  0  0  0  0  0  0  0  0  0
  -11.3063   77.6578   21.0750 H   0  0  0  0  0  0  0  0  0  0  0  0
   -9.6107   77.1840   21.1715 H   0  0  0  0  0  0  0  0  0  0  0  0
  -12.3864   75.2278   19.3604 H   0  0  0  0  0  0  0  0  0  0  0  0
  -13.3405   74.4596   17.3264 H   0  0  0  0  0  0  0  0  0  0  0  0
  -10.9111   76.0315   22.7029 H   0  0  0  0  0  0  0  0  0  0  0  0
  -11.9321   75.4627   21.5514 H   0  0  0  0  0  0  0  0  0  0  0  0
  -13.0773   77.2694   19.9003 H   0  0  0  0  0  0  0  0  0  0  0  0
  2  1  1  0  0  0  0 
  2  4  1  0  0  0  0 
  5  2  1  0  0  0  0 
  2 32  1  0  0  0  0 
  3  1  1  0  0  0  0 
  3  6  1  0  0  0  0 
  7  3  1  0  0  0  0 
  4  8  1  0  0  0  0 
  4  9  1  0  0  0  0 
  5 10  1  0  0  0  0 
 11  5  1  0  0  0  0 
 12  6  1  0  0  0  0 
  7 13  1  0  0  0  0 
 14  7  1  0  0  0  0 
 15  8  1  0  0  0  0 
  9 16  1  0  0  0  0 
  9 17  1  0  0  0  0 
 11 17  1  0  0  0  0 
 11 18  1  0  0  0  0 
 14 12  1  0  0  0  0 
 12 19  1  0  0  0  0 
 14 20  1  0  0  0  0 
 15 21  1  0  0  0  0 
 22 15  1  0  0  0  0 
 15 33  1  0  0  0  0 
 19 23  1  0  0  0  0 
 24 21  1  0  0  0  0 
 22 25  1  0  0  0  0 
 26 22  1  0  0  0  0 
 24 27  1  0  0  0  0 
 28 24  1  0  0  0  0 
 28 26  1  0  0  0  0 
 26 29  1  0  0  0  0 
 27 30  1  0  0  0  0 
 28 31  1  0  0  0  0 
  3 34  1  0  0  0  0 
  4 35  1  0  0  0  0 
  5 36  1  0  0  0  0 
  7 37  1  0  0  0  0 
  9 38  1  0  0  0  0 
 10 39  1  0  0  0  0 
 11 40  1  0  0  0  0 
 12 41  1  0  0  0  0 
 13 42  1  0  0  0  0 
 14 43  1  0  0  0  0 
 16 44  1  0  0  0  0 
 16 45  1  0  0  0  0 
 17 46  1  0  0  0  0 
 17 47  1  0  0  0  0 
 18 48  1  0  0  0  0 
 18 49  1  0  0  0  0 
 19 50  1  0  0  0  0 
 19 51  1  0  0  0  0 
 20 52  1  0  0  0  0 
 22 53  1  0  0  0  0 
 23 54  1  0  0  0  0 
 24 55  1  0  0  0  0 
 25 56  1  0  0  0  0 
 25 57  1  0  0  0  0 
 26 58  1  0  0  0  0 
 27 59  1  0  0  0  0 
 27 60  1  0  0  0  0 
 28 61  1  0  0  0  0 
 29 62  1  0  0  0  0 
 30 63  1  0  0  0  0 
 30 64  1  0  0  0  0 
 31 65  1  0  0  0  0 
M  END
> <cdk:Title>
ribostamycin

> <Conformer>
1

> <SuperDrugID>
SD003035

$$$$
