epirubicin
  CDK     0628171801

 68 72  0  0  0  0  0  0  0  0999 V2000
   -2.7914   -4.4609    3.1685 O   0  0  0  0  0  0  0  0  0  0  0  0
   -1.6760   -3.9161    3.7269 C   0  0  0  0  0  0  0  0  0  0  0  0
   -0.8274   -3.1590    2.8862 C   0  0  0  0  0  0  0  0  0  0  0  0
   -1.3849   -4.1052    5.1040 C   0  0  0  0  0  0  0  0  0  0  0  0
    0.3945   -2.6384    3.3986 C   0  0  0  0  0  0  0  0  0  0  0  0
   -1.2418   -2.9200    1.4695 C   0  0  1  0  0  0  0  0  0  0  0  0
   -0.1927   -3.5434    5.6435 C   0  0  0  0  0  0  0  0  0  0  0  0
   -2.2681   -4.8394    5.9656 C   0  0  0  0  0  0  0  0  0  0  0  0
    1.3627   -1.8810    2.5222 C   0  0  1  0  0  0  0  0  0  0  0  0
    0.6730   -2.8067    4.7821 C   0  0  0  0  0  0  0  0  0  0  0  0
   -0.5744   -1.6801    0.8075 C   0  0  2  0  0  0  0  0  0  0  0  0
    0.0980   -3.7539    7.0397 C   0  0  0  0  0  0  0  0  0  0  0  0
   -3.2751   -5.4252    5.4969 O   0  0  0  0  0  0  0  0  0  0  0  0
   -2.0286   -4.9343    7.3685 C   0  0  0  0  0  0  0  0  0  0  0  0
    2.6932   -2.4604    2.6540 O   0  0  0  0  0  0  0  0  0  0  0  0
    0.9558   -1.8357    1.0155 C   0  0  1  0  0  0  0  0  0  0  0  0
    1.8071   -2.2191    5.2613 O   0  0  0  0  0  0  0  0  0  0  0  0
   -1.0807   -0.3579    1.2994 C   0  0  0  0  0  0  0  0  0  0  0  0
   -0.8724   -1.7414   -0.5895 O   0  0  0  0  0  0  0  0  0  0  0  0
    1.2208   -3.4311    7.4945 O   0  0  0  0  0  0  0  0  0  0  0  0
   -0.8411   -4.3768    7.9256 C   0  0  0  0  0  0  0  0  0  0  0  0
   -2.9541   -5.5937    8.2178 C   0  0  0  0  0  0  0  0  0  0  0  0
    3.8276   -1.6451    2.2608 C   0  0  1  0  0  0  0  0  0  0  0  0
   -0.5897    0.9180    0.7270 C   0  0  2  0  0  0  0  0  0  0  0  0
   -1.9512   -0.3062    2.2021 O   0  0  0  0  0  0  0  0  0  0  0  0
   -0.6354   -4.4741    9.3359 C   0  0  0  0  0  0  0  0  0  0  0  0
   -2.7163   -5.7188    9.5922 C   0  0  0  0  0  0  0  0  0  0  0  0
    5.1252   -2.3175    2.7757 C   0  0  2  0  0  0  0  0  0  0  0  0
    3.8967   -1.5373    0.8214 O   0  0  0  0  0  0  0  0  0  0  0  0
   -1.4093    2.0308    1.0751 O   0  0  0  0  0  0  0  0  0  0  0  0
    0.4624   -3.9444    9.9681 O   0  0  0  0  0  0  0  0  0  0  0  0
   -1.5586   -5.1626   10.1471 C   0  0  0  0  0  0  0  0  0  0  0  0
    6.3999   -1.5609    2.3010 C   0  0  2  0  0  0  0  0  0  0  0  0
    4.9855   -0.7619    0.2700 C   0  0  2  0  0  0  0  0  0  0  0  0
    0.2193   -2.6491   10.5482 C   0  0  0  0  0  0  0  0  0  0  0  0
    6.5805   -0.3085    3.0539 N   0  0  2  0  0  0  0  0  0  0  0  0
    6.3669   -1.2933    0.7662 C   0  0  2  0  0  0  0  0  0  0  0  0
    4.7763    0.7668    0.4381 C   0  0  0  0  0  0  0  0  0  0  0  0
    6.6613   -2.5126    0.0837 O   0  0  0  0  0  0  0  0  0  0  0  0
    3.7380   -0.6582    2.7254 H   0  0  0  0  0  0  0  0  0  0  0  0
   -2.6046   -5.4219    3.1198 H   0  0  0  0  0  0  0  0  0  0  0  0
   -1.0008   -3.8214    0.8992 H   0  0  0  0  0  0  0  0  0  0  0  0
   -2.3243   -2.7830    1.3953 H   0  0  0  0  0  0  0  0  0  0  0  0
    1.3661   -0.8532    2.9019 H   0  0  0  0  0  0  0  0  0  0  0  0
    1.4742   -1.0189    0.5087 H   0  0  0  0  0  0  0  0  0  0  0  0
    1.2855   -2.7654    0.5405 H   0  0  0  0  0  0  0  0  0  0  0  0
    1.5557   -1.7974    6.1096 H   0  0  0  0  0  0  0  0  0  0  0  0
   -0.5177   -2.6016   -0.8941 H   0  0  0  0  0  0  0  0  0  0  0  0
   -3.8163   -6.0002    7.8465 H   0  0  0  0  0  0  0  0  0  0  0  0
   -0.5627    0.8491   -0.3618 H   0  0  0  0  0  0  0  0  0  0  0  0
    0.4197    1.1149    1.0893 H   0  0  0  0  0  0  0  0  0  0  0  0
   -3.3868   -6.2105   10.1872 H   0  0  0  0  0  0  0  0  0  0  0  0
    5.1614   -3.3443    2.4022 H   0  0  0  0  0  0  0  0  0  0  0  0
    5.1011   -2.3628    3.8661 H   0  0  0  0  0  0  0  0  0  0  0  0
   -2.2943    1.8108    0.7153 H   0  0  0  0  0  0  0  0  0  0  0  0
   -1.3872   -5.2606   11.1506 H   0  0  0  0  0  0  0  0  0  0  0  0
    7.2753   -2.1769    2.5295 H   0  0  0  0  0  0  0  0  0  0  0  0
    4.9351   -0.9386   -0.8078 H   0  0  0  0  0  0  0  0  0  0  0  0
    1.1400   -2.3121   11.0242 H   0  0  0  0  0  0  0  0  0  0  0  0
   -0.0578   -1.9214    9.7825 H   0  0  0  0  0  0  0  0  0  0  0  0
   -0.5600   -2.6864   11.3138 H   0  0  0  0  0  0  0  0  0  0  0  0
    7.4566    0.1124    2.7336 H   0  0  0  0  0  0  0  0  0  0  0  0
    6.7259   -0.5637    4.0340 H   0  0  0  0  0  0  0  0  0  0  0  0
    7.1624   -0.5932    0.4919 H   0  0  0  0  0  0  0  0  0  0  0  0
    4.8815    1.0778    1.4765 H   0  0  0  0  0  0  0  0  0  0  0  0
    3.7767    1.0426    0.0952 H   0  0  0  0  0  0  0  0  0  0  0  0
    5.5074    1.3139   -0.1603 H   0  0  0  0  0  0  0  0  0  0  0  0
    5.9299   -3.1213    0.3163 H   0  0  0  0  0  0  0  0  0  0  0  0
  1  2  1  0  0  0  0 
  2  3  2  0  0  0  0 
  2  4  1  0  0  0  0 
  3  5  1  0  0  0  0 
  3  6  1  0  0  0  0 
  4  7  2  0  0  0  0 
  4  8  1  0  0  0  0 
  9  5  1  0  0  0  0 
  5 10  2  0  0  0  0 
 11  6  1  0  0  0  0 
  7 10  1  0  0  0  0 
  7 12  1  0  0  0  0 
  8 13  2  0  0  0  0 
  8 14  1  0  0  0  0 
  9 15  1  0  0  0  0 
  9 16  1  0  0  0  0 
 10 17  1  0  0  0  0 
 11 16  1  0  0  0  0 
 11 18  1  0  0  0  0 
 11 19  1  0  0  0  0 
 12 20  2  0  0  0  0 
 12 21  1  0  0  0  0 
 14 21  2  0  0  0  0 
 14 22  1  0  0  0  0 
 23 15  1  0  0  0  0 
 18 24  1  0  0  0  0 
 18 25  2  0  0  0  0 
 21 26  1  0  0  0  0 
 22 27  2  0  0  0  0 
 23 28  1  0  0  0  0 
 23 29  1  0  0  0  0 
 23 40  1  0  0  0  0 
 24 30  1  0  0  0  0 
 26 31  1  0  0  0  0 
 26 32  2  0  0  0  0 
 27 32  1  0  0  0  0 
 33 28  1  0  0  0  0 
 34 29  1  0  0  0  0 
 31 35  1  0  0  0  0 
 33 36  1  0  0  0  0 
 37 33  1  0  0  0  0 
 37 34  1  0  0  0  0 
 34 38  1  0  0  0  0 
 37 39  1  0  0  0  0 
  1 41  1  0  0  0  0 
  6 42  1  0  0  0  0 
  6 43  1  0  0  0  0 
  9 44  1  0  0  0  0 
 16 45  1  0  0  0  0 
 16 46  1  0  0  0  0 
 17 47  1  0  0  0  0 
 19 48  1  0  0  0  0 
 22 49  1  0  0  0  0 
 24 50  1  0  0  0  0 
 24 51  1  0  0  0  0 
 27 52  1  0  0  0  0 
 28 53  1  0  0  0  0 
 28 54  1  0  0  0  0 
 30 55  1  0  0  0  0 
 32 56  1  0  0  0  0 
 33 57  1  0  0  0  0 
 34 58  1  0  0  0  0 
 35 59  1  0  0  0  0 
 35 60  1  0  0  0  0 
 35 61  1  0  0  0  0 
 36 62  1  0  0  0  0 
 36 63  1  0  0  0  0 
 37 64  1  0  0  0  0 
 38 65  1  0  0  0  0 
 38 66  1  0  0  0  0 
 38 67  1  0  0  0  0 
 39 68  1  0  0  0  0 
M  END
> <cdk:Title>
epirubicin

> <Conformer>
1

> <SuperDrugID>
SD000917

$$$$
