thiopental
  CDK     0628171801

 34 34  0  0  0  0  0  0  0  0999 V2000
    2.7829   -3.3309    2.3556 C   0  0  0  0  0  0  0  0  0  0  0  0
    3.0083   -2.3286    1.2007 C   0  0  2  0  0  0  0  0  0  0  0  0
    1.6879   -1.8741    0.5111 C   0  0  1  0  0  0  0  0  0  0  0  0
    1.8342   -0.8019   -0.6352 C   0  0  1  0  0  0  0  0  0  0  0  0
    2.8453   -1.3041   -1.7198 C   0  0  0  0  0  0  0  0  0  0  0  0
    0.4317   -0.2949   -1.2095 C   0  0  1  0  0  0  0  0  0  0  0  0
    0.5753    0.8251   -2.3127 C   0  0  2  0  0  0  0  0  0  0  0  0
   -0.7405    1.4296   -2.8756 C   0  0  0  0  0  0  0  0  0  0  0  0
   -0.3496   -1.4386   -1.8002 C   0  0  0  0  0  0  0  0  0  0  0  0
    0.0741   -2.0831   -2.7878 O   0  0  0  0  0  0  0  0  0  0  0  0
   -1.5632   -1.8185   -1.3222 N   0  0  0  0  0  0  0  0  0  0  0  0
   -2.1545   -1.1892   -0.3152 C   0  0  0  0  0  0  0  0  0  0  0  0
   -3.7041   -1.6822    0.1807 S   0  0  0  0  0  0  0  0  0  0  0  0
   -1.5736   -0.1706    0.3053 N   0  0  0  0  0  0  0  0  0  0  0  0
   -0.3578    0.3082   -0.0738 C   0  0  0  0  0  0  0  0  0  0  0  0
    0.0841    1.2891    0.5683 O   0  0  0  0  0  0  0  0  0  0  0  0
    2.2766   -4.2267    1.9886 H   0  0  0  0  0  0  0  0  0  0  0  0
    2.1797   -2.8789    3.1445 H   0  0  0  0  0  0  0  0  0  0  0  0
    3.7440   -3.6299    2.7800 H   0  0  0  0  0  0  0  0  0  0  0  0
    3.6559   -2.8257    0.4760 H   0  0  0  0  0  0  0  0  0  0  0  0
    3.5370   -1.4546    1.5905 H   0  0  0  0  0  0  0  0  0  0  0  0
    1.1916   -2.7602    0.1076 H   0  0  0  0  0  0  0  0  0  0  0  0
    1.0452   -1.4700    1.2979 H   0  0  0  0  0  0  0  0  0  0  0  0
    2.3173    0.0687   -0.1800 H   0  0  0  0  0  0  0  0  0  0  0  0
    3.8489   -1.3865   -1.3011 H   0  0  0  0  0  0  0  0  0  0  0  0
    2.5513   -2.2799   -2.1100 H   0  0  0  0  0  0  0  0  0  0  0  0
    2.9320   -0.6129   -2.5525 H   0  0  0  0  0  0  0  0  0  0  0  0
    1.1007    0.4323   -3.1842 H   0  0  0  0  0  0  0  0  0  0  0  0
    1.1817    1.6448   -1.9164 H   0  0  0  0  0  0  0  0  0  0  0  0
   -0.5009    2.1948   -3.6176 H   0  0  0  0  0  0  0  0  0  0  0  0
   -1.3386    0.6576   -3.3652 H   0  0  0  0  0  0  0  0  0  0  0  0
   -1.3331    1.8911   -2.0838 H   0  0  0  0  0  0  0  0  0  0  0  0
   -2.0154   -2.5688   -1.7391 H   0  0  0  0  0  0  0  0  0  0  0  0
   -2.0313    0.2485    1.0523 H   0  0  0  0  0  0  0  0  0  0  0  0
  1  2  1  0  0  0  0 
  2  3  1  0  0  0  0 
  4  3  1  0  0  0  0 
  4  5  1  0  0  0  0 
  4  6  1  0  0  0  0 
  6  7  1  0  0  0  0 
  7  8  1  0  0  0  0 
  6  9  1  0  0  0  0 
  9 10  2  0  0  0  0 
  9 11  1  0  0  0  0 
 11 12  1  0  0  0  0 
 12 13  2  0  0  0  0 
 12 14  1  0  0  0  0 
 14 15  1  0  0  0  0 
  6 15  1  0  0  0  0 
 15 16  2  0  0  0  0 
 17  1  1  0  0  0  0 
 18  1  1  0  0  0  0 
 19  1  1  0  0  0  0 
 20  2  1  0  0  0  0 
 21  2  1  0  0  0  0 
 22  3  1  0  0  0  0 
 23  3  1  0  0  0  0 
 24  4  1  0  0  0  0 
 25  5  1  0  0  0  0 
 26  5  1  0  0  0  0 
 27  5  1  0  0  0  0 
 28  7  1  0  0  0  0 
 29  7  1  0  0  0  0 
 30  8  1  0  0  0  0 
 31  8  1  0  0  0  0 
 32  8  1  0  0  0  0 
 33 11  1  0  0  0  0 
 34 14  1  0  0  0  0 
M  END
> <cdk:Title>
thiopental

> <Conformer>
1

> <SuperDrugID>
SD002368

$$$$
