mestanolone
  CDK     0628171801

 54 57  0  0  0  0  0  0  0  0999 V2000
   -1.2289   -0.4368    3.6347 C   0  0  0  0  0  0  0  0  0  0  0  0
   -1.5179   -1.2058    2.2896 C   0  0  1  0  0  0  0  0  0  0  0  0
   -2.3588   -2.5326    2.5649 C   0  0  2  0  0  0  0  0  0  0  0  0
   -2.3263   -0.3330    1.2408 C   0  0  1  0  0  0  0  0  0  0  0  0
   -0.1358   -1.5374    1.5980 C   0  0  1  0  0  0  0  0  0  0  0  0
   -3.8546   -2.2475    3.0011 C   0  0  2  0  0  0  0  0  0  0  0  0
   -1.6665   -3.5699    3.5178 C   0  0  1  0  0  0  0  0  0  0  0  0
   -3.7734   -0.0111    1.7122 C   0  0  2  0  0  0  0  0  0  0  0  0
   -1.5657    0.9473    0.7675 C   0  0  2  0  0  0  0  0  0  0  0  0
    0.6529   -0.2900    1.1029 C   0  0  1  0  0  0  0  0  0  0  0  0
   -4.6200   -3.6041    3.1892 C   0  0  1  0  0  0  0  0  0  0  0  0
   -4.5723   -1.3128    1.9802 C   0  0  2  0  0  0  0  0  0  0  0  0
   -2.5083   -4.8620    3.7393 C   0  0  1  0  0  0  0  0  0  0  0  0
   -0.2052    0.6009    0.2925 C   0  0  0  0  0  0  0  0  0  0  0  0
   -3.9662   -4.5631    4.2382 C   0  0  1  0  0  0  0  0  0  0  0  0
   -6.1087   -3.5905    3.5915 C   0  0  1  0  0  0  0  0  0  0  0  0
    0.1979    1.0157   -0.8189 O   0  0  0  0  0  0  0  0  0  0  0  0
   -3.8916   -3.9675    5.7049 C   0  0  0  0  0  0  0  0  0  0  0  0
   -4.9988   -5.7634    4.2240 C   0  0  1  0  0  0  0  0  0  0  0  0
   -6.3830   -5.0430    4.0666 C   0  0  1  0  0  0  0  0  0  0  0  0
   -4.7878   -6.8416    3.1113 C   0  0  0  0  0  0  0  0  0  0  0  0
   -4.9673   -6.5048    5.4510 O   0  0  0  0  0  0  0  0  0  0  0  0
   -3.8687   -1.7223    3.9560 H   0  0  0  0  0  0  0  0  0  0  0  0
   -2.4267   -3.0499    1.6018 H   0  0  0  0  0  0  0  0  0  0  0  0
   -4.5974   -4.0814    2.2010 H   0  0  0  0  0  0  0  0  0  0  0  0
   -2.4494   -0.9386    0.3319 H   0  0  0  0  0  0  0  0  0  0  0  0
   -0.7853    0.5423    3.4641 H   0  0  0  0  0  0  0  0  0  0  0  0
   -0.5266   -0.9914    4.2583 H   0  0  0  0  0  0  0  0  0  0  0  0
   -2.1306   -0.2752    4.2203 H   0  0  0  0  0  0  0  0  0  0  0  0
    0.5169   -2.0884    2.2783 H   0  0  0  0  0  0  0  0  0  0  0  0
   -0.3092   -2.1843    0.7326 H   0  0  0  0  0  0  0  0  0  0  0  0
   -0.7102   -3.8796    3.0928 H   0  0  0  0  0  0  0  0  0  0  0  0
   -1.4514   -3.1142    4.4837 H   0  0  0  0  0  0  0  0  0  0  0  0
   -4.2960    0.5578    0.9380 H   0  0  0  0  0  0  0  0  0  0  0  0
   -3.7519    0.6046    2.6139 H   0  0  0  0  0  0  0  0  0  0  0  0
   -1.4902    1.6762    1.5765 H   0  0  0  0  0  0  0  0  0  0  0  0
   -2.1254    1.4218   -0.0437 H   0  0  0  0  0  0  0  0  0  0  0  0
    1.0360    0.2739    1.9558 H   0  0  0  0  0  0  0  0  0  0  0  0
    1.5163   -0.6218    0.5185 H   0  0  0  0  0  0  0  0  0  0  0  0
   -5.5596   -1.0333    2.3587 H   0  0  0  0  0  0  0  0  0  0  0  0
   -4.7212   -1.8415    1.0326 H   0  0  0  0  0  0  0  0  0  0  0  0
   -2.5302   -5.3859    2.7813 H   0  0  0  0  0  0  0  0  0  0  0  0
   -1.9920   -5.5128    4.4486 H   0  0  0  0  0  0  0  0  0  0  0  0
   -6.2827   -2.8757    4.4020 H   0  0  0  0  0  0  0  0  0  0  0  0
   -6.7490   -3.3225    2.7461 H   0  0  0  0  0  0  0  0  0  0  0  0
   -3.3768   -3.0112    5.7485 H   0  0  0  0  0  0  0  0  0  0  0  0
   -4.8818   -3.8098    6.1367 H   0  0  0  0  0  0  0  0  0  0  0  0
   -3.3550   -4.6519    6.3650 H   0  0  0  0  0  0  0  0  0  0  0  0
   -6.9226   -5.0191    5.0179 H   0  0  0  0  0  0  0  0  0  0  0  0
   -7.0239   -5.5537    3.3424 H   0  0  0  0  0  0  0  0  0  0  0  0
   -3.8337   -7.3544    3.2493 H   0  0  0  0  0  0  0  0  0  0  0  0
   -5.5784   -7.5962    3.1566 H   0  0  0  0  0  0  0  0  0  0  0  0
   -4.8020   -6.4004    2.1145 H   0  0  0  0  0  0  0  0  0  0  0  0
   -5.7252   -7.1246    5.4023 H   0  0  0  0  0  0  0  0  0  0  0  0
  2  1  1  0  0  0  0 
  3  2  1  0  0  0  0 
  2  4  1  0  0  0  0 
  2  5  1  0  0  0  0 
  6  3  1  0  0  0  0 
  3  7  1  0  0  0  0 
  3 24  1  0  0  0  0 
  4  8  1  0  0  0  0 
  4  9  1  0  0  0  0 
  4 26  1  0  0  0  0 
  5 10  1  0  0  0  0 
 11  6  1  0  0  0  0 
  6 12  1  0  0  0  0 
  6 23  1  0  0  0  0 
  7 13  1  0  0  0  0 
  8 12  1  0  0  0  0 
  9 14  1  0  0  0  0 
 10 14  1  0  0  0  0 
 15 11  1  0  0  0  0 
 11 16  1  0  0  0  0 
 11 25  1  0  0  0  0 
 15 13  1  0  0  0  0 
 14 17  2  0  0  0  0 
 15 18  1  0  0  0  0 
 15 19  1  0  0  0  0 
 16 20  1  0  0  0  0 
 19 20  1  0  0  0  0 
 19 21  1  0  0  0  0 
 19 22  1  0  0  0  0 
  1 27  1  0  0  0  0 
  1 28  1  0  0  0  0 
  1 29  1  0  0  0  0 
  5 30  1  0  0  0  0 
  5 31  1  0  0  0  0 
  7 32  1  0  0  0  0 
  7 33  1  0  0  0  0 
  8 34  1  0  0  0  0 
  8 35  1  0  0  0  0 
  9 36  1  0  0  0  0 
  9 37  1  0  0  0  0 
 10 38  1  0  0  0  0 
 10 39  1  0  0  0  0 
 12 40  1  0  0  0  0 
 12 41  1  0  0  0  0 
 13 42  1  0  0  0  0 
 13 43  1  0  0  0  0 
 16 44  1  0  0  0  0 
 16 45  1  0  0  0  0 
 18 46  1  0  0  0  0 
 18 47  1  0  0  0  0 
 18 48  1  0  0  0  0 
 20 49  1  0  0  0  0 
 20 50  1  0  0  0  0 
 21 51  1  0  0  0  0 
 21 52  1  0  0  0  0 
 21 53  1  0  0  0  0 
 22 54  1  0  0  0  0 
M  END
> <cdk:Title>
mestanolone

> <Conformer>
1

> <SuperDrugID>
SD002883

$$$$
