nadifloxacin
  CDK     0628171801

 47 50  0  0  0  0  0  0  0  0999 V2000
    1.6614   -2.8142    0.9186 C   0  0  0  0  0  0  0  0  0  0  0  0
    1.0602   -1.7876    1.7012 C   0  0  0  0  0  0  0  0  0  0  0  0
    1.7384   -1.2760    2.8258 C   0  0  0  0  0  0  0  0  0  0  0  0
    3.0158   -1.7495    3.1514 C   0  0  0  0  0  0  0  0  0  0  0  0
    3.6505   -2.7388    2.3630 C   0  0  0  0  0  0  0  0  0  0  0  0
    2.9658   -3.3006    1.2440 C   0  0  0  0  0  0  0  0  0  0  0  0
    3.5767   -4.2949    0.4990 N   0  0  0  0  0  0  0  0  0  0  0  0
    4.9654   -3.1769    2.6599 C   0  0  0  0  0  0  0  0  0  0  0  0
    5.6014   -4.1642    1.8692 C   0  0  0  0  0  0  0  0  0  0  0  0
    4.8498   -4.7036    0.8037 C   0  0  0  0  0  0  0  0  0  0  0  0
    5.5755   -2.6811    3.6387 O   0  0  0  0  0  0  0  0  0  0  0  0
    6.9363   -4.6256    2.0946 C   0  0  0  0  0  0  0  0  0  0  0  0
    7.4391   -5.7073    1.4440 O   0  0  0  0  0  0  0  0  0  0  0  0
    7.7261   -4.0574    2.8842 O   0  0  0  0  0  0  0  0  0  0  0  0
    1.3760   -4.8228   -0.5592 C   0  0  1  0  0  0  0  0  0  0  0  0
    0.9555   -3.3669   -0.2727 C   0  0  1  0  0  0  0  0  0  0  0  0
    2.9215   -4.9504   -0.6320 C   0  0  1  0  0  0  0  0  0  0  0  0
    3.4972   -4.4521   -1.9910 C   0  0  0  0  0  0  0  0  0  0  0  0
    1.2044   -0.3444    3.5758 F   0  0  0  0  0  0  0  0  0  0  0  0
   -0.1605   -1.2458    1.3797 N   0  0  0  0  0  0  0  0  0  0  0  0
   -2.2232   -0.6184    2.6028 C   0  0  2  0  0  0  0  0  0  0  0  0
   -2.4150    0.5515    1.5999 C   0  0  2  0  0  0  0  0  0  0  0  0
   -1.0392    1.0433    1.0761 C   0  0  1  0  0  0  0  0  0  0  0  0
   -0.2319   -0.1302    0.4601 C   0  0  2  0  0  0  0  0  0  0  0  0
   -1.3805   -1.7588    1.9704 C   0  0  1  0  0  0  0  0  0  0  0  0
   -3.1239    1.6267    2.2118 O   0  0  0  0  0  0  0  0  0  0  0  0
    3.4829   -1.3559    3.9735 H   0  0  0  0  0  0  0  0  0  0  0  0
    5.2842   -5.4307    0.2271 H   0  0  0  0  0  0  0  0  0  0  0  0
    8.3614   -6.0005    1.6021 H   0  0  0  0  0  0  0  0  0  0  0  0
    1.0070   -5.4569    0.2537 H   0  0  0  0  0  0  0  0  0  0  0  0
    0.9121   -5.1743   -1.4839 H   0  0  0  0  0  0  0  0  0  0  0  0
   -0.1275   -3.3690   -0.1383 H   0  0  0  0  0  0  0  0  0  0  0  0
    1.1784   -2.7311   -1.1321 H   0  0  0  0  0  0  0  0  0  0  0  0
    3.1130   -6.0313   -0.5872 H   0  0  0  0  0  0  0  0  0  0  0  0
    4.5526   -4.7192   -2.0806 H   0  0  0  0  0  0  0  0  0  0  0  0
    3.4091   -3.3678   -2.0716 H   0  0  0  0  0  0  0  0  0  0  0  0
    2.9671   -4.9101   -2.8294 H   0  0  0  0  0  0  0  0  0  0  0  0
   -3.2005   -1.0046    2.9057 H   0  0  0  0  0  0  0  0  0  0  0  0
   -1.7136   -0.2530    3.4987 H   0  0  0  0  0  0  0  0  0  0  0  0
   -3.0175    0.2045    0.7551 H   0  0  0  0  0  0  0  0  0  0  0  0
   -1.1863    1.8244    0.3247 H   0  0  0  0  0  0  0  0  0  0  0  0
   -0.4663    1.4758    1.9028 H   0  0  0  0  0  0  0  0  0  0  0  0
   -0.7195   -0.4616   -0.4610 H   0  0  0  0  0  0  0  0  0  0  0  0
    0.7615    0.2434    0.1872 H   0  0  0  0  0  0  0  0  0  0  0  0
   -1.9771   -2.2499    1.1951 H   0  0  0  0  0  0  0  0  0  0  0  0
   -1.1751   -2.5071    2.7431 H   0  0  0  0  0  0  0  0  0  0  0  0
   -3.2835    2.2673    1.4875 H   0  0  0  0  0  0  0  0  0  0  0  0
  1  2  1  0  0  0  0 
  1  6  2  0  0  0  0 
  2  3  2  0  0  0  0 
  3  4  1  0  0  0  0 
  4  5  2  0  0  0  0 
  5  6  1  0  0  0  0 
  8  9  1  0  0  0  0 
  9 10  2  0  0  0  0 
  7 10  1  0  0  0  0 
  5  8  1  0  0  0  0 
  7  6  1  0  0  0  0 
  8 11  2  0  0  0  0 
  9 12  1  0  0  0  0 
 12 13  1  0  0  0  0 
 12 14  2  0  0  0  0 
 15 16  1  0  0  0  0 
 17 15  1  0  0  0  0 
 16  1  1  0  0  0  0 
 17  7  1  0  0  0  0 
 17 18  1  0  0  0  0 
  3 19  1  0  0  0  0 
  2 20  1  0  0  0  0 
 21 22  1  0  0  0  0 
 22 23  1  0  0  0  0 
 23 24  1  0  0  0  0 
 21 25  1  0  0  0  0 
 24 20  1  0  0  0  0 
 20 25  1  0  0  0  0 
 22 26  1  0  0  0  0 
  4 27  1  0  0  0  0 
 10 28  1  0  0  0  0 
 13 29  1  0  0  0  0 
 15 30  1  0  0  0  0 
 15 31  1  0  0  0  0 
 16 32  1  0  0  0  0 
 16 33  1  0  0  0  0 
 17 34  1  0  0  0  0 
 18 35  1  0  0  0  0 
 18 36  1  0  0  0  0 
 18 37  1  0  0  0  0 
 21 38  1  0  0  0  0 
 21 39  1  0  0  0  0 
 22 40  1  0  0  0  0 
 23 41  1  0  0  0  0 
 23 42  1  0  0  0  0 
 24 43  1  0  0  0  0 
 24 44  1  0  0  0  0 
 25 45  1  0  0  0  0 
 25 46  1  0  0  0  0 
 26 47  1  0  0  0  0 
M  END
> <cdk:Title>
nadifloxacin

> <Conformer>
1

> <SuperDrugID>
SD001660

$$$$
