naphazoline
  CDK     0628171801

 30 32  0  0  0  0  0  0  0  0999 V2000
    3.2333    0.7973   -0.0910 C   0  0  2  0  0  0  0  0  0  0  0  0
    1.8710    0.2681    0.2476 C   0  0  0  0  0  0  0  0  0  0  0  0
    3.8304    1.4875    1.0379 C   0  0  0  0  0  0  0  0  0  0  0  0
    1.6450   -0.8434    1.1230 C   0  0  0  0  0  0  0  0  0  0  0  0
    0.7486    0.9177   -0.3250 C   0  0  0  0  0  0  0  0  0  0  0  0
    4.8944    1.1184    1.6441 N   0  0  0  0  0  0  0  0  0  0  0  0
    3.3376    2.5731    1.5891 N   0  0  0  0  0  0  0  0  0  0  0  0
    0.3044   -1.2333    1.4379 C   0  0  0  0  0  0  0  0  0  0  0  0
    2.6989   -1.6042    1.6954 C   0  0  0  0  0  0  0  0  0  0  0  0
   -0.5613    0.5276   -0.0108 C   0  0  0  0  0  0  0  0  0  0  0  0
    5.2153    1.9361    2.7131 C   0  0  2  0  0  0  0  0  0  0  0  0
    4.0807    2.9794    2.7157 C   0  0  1  0  0  0  0  0  0  0  0  0
   -0.7846   -0.5365    0.8731 C   0  0  0  0  0  0  0  0  0  0  0  0
    0.0554   -2.3221    2.3066 C   0  0  0  0  0  0  0  0  0  0  0  0
    2.4408   -2.6894    2.5521 C   0  0  0  0  0  0  0  0  0  0  0  0
    1.1208   -3.0425    2.8653 C   0  0  0  0  0  0  0  0  0  0  0  0
    3.1972    1.5076   -0.9228 H   0  0  0  0  0  0  0  0  0  0  0  0
    3.8662   -0.0269   -0.4316 H   0  0  0  0  0  0  0  0  0  0  0  0
    0.8727    1.6933   -0.9816 H   0  0  0  0  0  0  0  0  0  0  0  0
    2.5547    3.0445    1.2600 H   0  0  0  0  0  0  0  0  0  0  0  0
    3.6752   -1.3940    1.4909 H   0  0  0  0  0  0  0  0  0  0  0  0
   -1.3556    1.0204   -0.4274 H   0  0  0  0  0  0  0  0  0  0  0  0
    6.1914    2.4019    2.5606 H   0  0  0  0  0  0  0  0  0  0  0  0
    5.2286    1.3561    3.6390 H   0  0  0  0  0  0  0  0  0  0  0  0
    4.4608    3.9939    2.5843 H   0  0  0  0  0  0  0  0  0  0  0  0
    3.4710    2.9161    3.6208 H   0  0  0  0  0  0  0  0  0  0  0  0
   -1.7505   -0.7981    1.0949 H   0  0  0  0  0  0  0  0  0  0  0  0
   -0.9016   -2.6059    2.5340 H   0  0  0  0  0  0  0  0  0  0  0  0
    3.2168   -3.2246    2.9468 H   0  0  0  0  0  0  0  0  0  0  0  0
    0.9334   -3.8252    3.4961 H   0  0  0  0  0  0  0  0  0  0  0  0
  1  2  1  0  0  0  0 
  1  3  1  0  0  0  0 
  2  4  2  0  0  0  0 
  2  5  1  0  0  0  0 
  3  6  2  0  0  0  0 
  3  7  1  0  0  0  0 
  4  8  1  0  0  0  0 
  4  9  1  0  0  0  0 
  5 10  2  0  0  0  0 
  6 11  1  0  0  0  0 
  7 12  1  0  0  0  0 
  8 13  2  0  0  0  0 
  8 14  1  0  0  0  0 
  9 15  2  0  0  0  0 
 10 13  1  0  0  0  0 
 11 12  1  0  0  0  0 
 14 16  2  0  0  0  0 
 15 16  1  0  0  0  0 
 17  1  1  0  0  0  0 
 18  1  1  0  0  0  0 
 19  5  1  0  0  0  0 
 20  7  1  0  0  0  0 
 21  9  1  0  0  0  0 
 22 10  1  0  0  0  0 
 23 11  1  0  0  0  0 
 24 11  1  0  0  0  0 
 25 12  1  0  0  0  0 
 26 12  1  0  0  0  0 
 27 13  1  0  0  0  0 
 28 14  1  0  0  0  0 
 29 15  1  0  0  0  0 
 30 16  1  0  0  0  0 
M  END
> <cdk:Title>
naphazoline

> <Conformer>
1

> <SuperDrugID>
SD002905

$$$$
