hexafluronium
  CDK     0628171801

 80 85  0  0  0  0  0  0  0  0999 V2000
    1.2256   -0.0309   -0.8738 N   0  0  1  0  0  0  0  0  0  0  0  0
    1.0601   -1.2206    0.0726 C   0  0  2  0  0  0  0  0  0  0  0  0
    0.1290    0.9878   -0.6125 C   0  0  0  0  0  0  0  0  0  0  0  0
    2.5429    0.6744   -0.5936 C   0  0  0  0  0  0  0  0  0  0  0  0
    1.1795   -0.5032   -2.3514 C   0  0  1  0  0  0  0  0  0  0  0  0
    1.0926   -0.9911    1.6161 C   0  0  1  0  0  0  0  0  0  0  0  0
    2.1886   -1.5395   -2.7334 C   0  0  0  0  0  0  0  0  0  0  0  0
   -0.0535   -1.2475   -2.7718 C   0  0  0  0  0  0  0  0  0  0  0  0
    0.9546   -2.3299    2.3920 C   0  0  1  0  0  0  0  0  0  0  0  0
    1.5924   -2.7654   -3.0528 C   0  0  0  0  0  0  0  0  0  0  0  0
    3.5945   -1.4211   -2.8017 C   0  0  0  0  0  0  0  0  0  0  0  0
    0.2195   -2.5886   -3.0706 C   0  0  0  0  0  0  0  0  0  0  0  0
   -1.3688   -0.7481   -2.9008 C   0  0  0  0  0  0  0  0  0  0  0  0
    1.0550   -2.1736    3.9331 C   0  0  2  0  0  0  0  0  0  0  0  0
    2.3610   -3.9084   -3.3491 C   0  0  0  0  0  0  0  0  0  0  0  0
    4.3799   -2.5575   -3.0808 C   0  0  0  0  0  0  0  0  0  0  0  0
   -0.7935   -3.5126   -3.3859 C   0  0  0  0  0  0  0  0  0  0  0  0
   -2.4163   -1.6966   -3.2027 C   0  0  0  0  0  0  0  0  0  0  0  0
    0.8594   -3.5310    4.6604 C   0  0  1  0  0  0  0  0  0  0  0  0
    3.7649   -3.7977   -3.3470 C   0  0  0  0  0  0  0  0  0  0  0  0
   -2.1352   -3.0925   -3.4425 C   0  0  0  0  0  0  0  0  0  0  0  0
    0.8918   -3.4098    6.2155 C   0  0  1  0  0  0  0  0  0  0  0  0
    0.5906   -4.6654    7.0411 N   0  0  1  0  0  0  0  0  0  0  0  0
    1.7410   -5.6355    6.8317 C   0  0  0  0  0  0  0  0  0  0  0  0
    0.6166   -4.2510    8.5025 C   0  0  0  0  0  0  0  0  0  0  0  0
   -0.7624   -5.3247    6.6799 C   0  0  2  0  0  0  0  0  0  0  0  0
   -1.9920   -4.5167    6.9609 C   0  0  0  0  0  0  0  0  0  0  0  0
   -1.1512   -6.5585    7.4314 C   0  0  0  0  0  0  0  0  0  0  0  0
   -2.8175   -5.1198    7.9195 C   0  0  0  0  0  0  0  0  0  0  0  0
   -2.4103   -3.3018    6.3725 C   0  0  0  0  0  0  0  0  0  0  0  0
   -2.3087   -6.3772    8.1988 C   0  0  0  0  0  0  0  0  0  0  0  0
   -0.5556   -7.8392    7.3854 C   0  0  0  0  0  0  0  0  0  0  0  0
   -3.9981   -4.5038    8.3819 C   0  0  0  0  0  0  0  0  0  0  0  0
   -3.5945   -2.6772    6.8116 C   0  0  0  0  0  0  0  0  0  0  0  0
   -2.8401   -7.4083    8.9988 C   0  0  0  0  0  0  0  0  0  0  0  0
   -1.0835   -8.8877    8.1647 C   0  0  0  0  0  0  0  0  0  0  0  0
   -4.3820   -3.2733    7.8169 C   0  0  0  0  0  0  0  0  0  0  0  0
   -2.2186   -8.6715    8.9727 C   0  0  0  0  0  0  0  0  0  0  0  0
    1.8453   -1.9536   -0.1386 H   0  0  0  0  0  0  0  0  0  0  0  0
    0.1099   -1.7217   -0.1410 H   0  0  0  0  0  0  0  0  0  0  0  0
   -0.8547    0.5192   -0.5475 H   0  0  0  0  0  0  0  0  0  0  0  0
    0.2576    1.5158    0.3354 H   0  0  0  0  0  0  0  0  0  0  0  0
    0.0993    1.7537   -1.3938 H   0  0  0  0  0  0  0  0  0  0  0  0
    2.7975    1.3822   -1.3882 H   0  0  0  0  0  0  0  0  0  0  0  0
    2.5304    1.2465    0.3373 H   0  0  0  0  0  0  0  0  0  0  0  0
    3.3669   -0.0333   -0.4857 H   0  0  0  0  0  0  0  0  0  0  0  0
    1.3006    0.3411   -3.0369 H   0  0  0  0  0  0  0  0  0  0  0  0
    2.0349   -0.5192    1.9012 H   0  0  0  0  0  0  0  0  0  0  0  0
    0.2726   -0.3314    1.9099 H   0  0  0  0  0  0  0  0  0  0  0  0
   -0.0117   -2.7780    2.1389 H   0  0  0  0  0  0  0  0  0  0  0  0
    1.7399   -3.0152    2.0598 H   0  0  0  0  0  0  0  0  0  0  0  0
    4.0527   -0.5220   -2.6501 H   0  0  0  0  0  0  0  0  0  0  0  0
   -1.4833    0.3092   -2.7665 H   0  0  0  0  0  0  0  0  0  0  0  0
    0.2871   -1.4726    4.2717 H   0  0  0  0  0  0  0  0  0  0  0  0
    2.0331   -1.7620    4.1964 H   0  0  0  0  0  0  0  0  0  0  0  0
    1.9173   -4.8011   -3.5736 H   0  0  0  0  0  0  0  0  0  0  0  0
    5.3999   -2.4808   -3.0934 H   0  0  0  0  0  0  0  0  0  0  0  0
   -0.5606   -4.4882   -3.5835 H   0  0  0  0  0  0  0  0  0  0  0  0
   -3.3821   -1.3706   -3.2553 H   0  0  0  0  0  0  0  0  0  0  0  0
   -0.0983   -3.9348    4.3382 H   0  0  0  0  0  0  0  0  0  0  0  0
    1.6391   -4.2229    4.3367 H   0  0  0  0  0  0  0  0  0  0  0  0
    4.3401   -4.6163   -3.5555 H   0  0  0  0  0  0  0  0  0  0  0  0
   -2.8424   -3.8648   -3.6798 H   0  0  0  0  0  0  0  0  0  0  0  0
    1.8874   -3.0255    6.4712 H   0  0  0  0  0  0  0  0  0  0  0  0
    0.2121   -2.6046    6.4988 H   0  0  0  0  0  0  0  0  0  0  0  0
    1.7593   -6.4209    7.5896 H   0  0  0  0  0  0  0  0  0  0  0  0
    1.6816   -6.1249    5.8558 H   0  0  0  0  0  0  0  0  0  0  0  0
    2.7188   -5.1460    6.8953 H   0  0  0  0  0  0  0  0  0  0  0  0
   -0.1451   -3.4982    8.7215 H   0  0  0  0  0  0  0  0  0  0  0  0
    0.4378   -5.0979    9.1696 H   0  0  0  0  0  0  0  0  0  0  0  0
    1.5829   -3.8193    8.7816 H   0  0  0  0  0  0  0  0  0  0  0  0
   -0.7866   -5.6161    5.6275 H   0  0  0  0  0  0  0  0  0  0  0  0
   -1.8768   -2.8691    5.6207 H   0  0  0  0  0  0  0  0  0  0  0  0
    0.2421   -8.0235    6.7760 H   0  0  0  0  0  0  0  0  0  0  0  0
   -4.5803   -4.9453    9.0959 H   0  0  0  0  0  0  0  0  0  0  0  0
   -3.8886   -1.7917    6.3928 H   0  0  0  0  0  0  0  0  0  0  0  0
   -3.6760   -7.2590    9.5669 H   0  0  0  0  0  0  0  0  0  0  0  0
   -0.6493   -9.8129    8.1354 H   0  0  0  0  0  0  0  0  0  0  0  0
   -5.2451   -2.8199    8.1238 H   0  0  0  0  0  0  0  0  0  0  0  0
   -2.6041   -9.4398    9.5264 H   0  0  0  0  0  0  0  0  0  0  0  0
  1  2  1  0  0  0  0 
  1  3  1  0  0  0  0 
  1  4  1  0  0  0  0 
  1  5  1  0  0  0  0 
  2  6  1  0  0  0  0 
  5  7  1  0  0  0  0 
  5  8  1  0  0  0  0 
  6  9  1  0  0  0  0 
  7 10  2  0  0  0  0 
  7 11  1  0  0  0  0 
  8 12  2  0  0  0  0 
  8 13  1  0  0  0  0 
  9 14  1  0  0  0  0 
 10 12  1  0  0  0  0 
 10 15  1  0  0  0  0 
 11 16  2  0  0  0  0 
 12 17  1  0  0  0  0 
 13 18  2  0  0  0  0 
 14 19  1  0  0  0  0 
 15 20  2  0  0  0  0 
 16 20  1  0  0  0  0 
 17 21  2  0  0  0  0 
 18 21  1  0  0  0  0 
 19 22  1  0  0  0  0 
 22 23  1  0  0  0  0 
 23 24  1  0  0  0  0 
 23 25  1  0  0  0  0 
 23 26  1  0  0  0  0 
 26 27  1  0  0  0  0 
 26 28  1  0  0  0  0 
 27 29  2  0  0  0  0 
 27 30  1  0  0  0  0 
 28 31  2  0  0  0  0 
 28 32  1  0  0  0  0 
 29 31  1  0  0  0  0 
 29 33  1  0  0  0  0 
 30 34  2  0  0  0  0 
 31 35  1  0  0  0  0 
 32 36  2  0  0  0  0 
 33 37  2  0  0  0  0 
 34 37  1  0  0  0  0 
 35 38  2  0  0  0  0 
 36 38  1  0  0  0  0 
  2 39  1  0  0  0  0 
  2 40  1  0  0  0  0 
  3 41  1  0  0  0  0 
  3 42  1  0  0  0  0 
  3 43  1  0  0  0  0 
  4 44  1  0  0  0  0 
  4 45  1  0  0  0  0 
  4 46  1  0  0  0  0 
  5 47  1  0  0  0  0 
  6 48  1  0  0  0  0 
  6 49  1  0  0  0  0 
  9 50  1  0  0  0  0 
  9 51  1  0  0  0  0 
 11 52  1  0  0  0  0 
 13 53  1  0  0  0  0 
 14 54  1  0  0  0  0 
 14 55  1  0  0  0  0 
 15 56  1  0  0  0  0 
 16 57  1  0  0  0  0 
 17 58  1  0  0  0  0 
 18 59  1  0  0  0  0 
 19 60  1  0  0  0  0 
 19 61  1  0  0  0  0 
 20 62  1  0  0  0  0 
 21 63  1  0  0  0  0 
 22 64  1  0  0  0  0 
 22 65  1  0  0  0  0 
 24 66  1  0  0  0  0 
 24 67  1  0  0  0  0 
 24 68  1  0  0  0  0 
 25 69  1  0  0  0  0 
 25 70  1  0  0  0  0 
 25 71  1  0  0  0  0 
 26 72  1  0  0  0  0 
 30 73  1  0  0  0  0 
 32 74  1  0  0  0  0 
 33 75  1  0  0  0  0 
 34 76  1  0  0  0  0 
 35 77  1  0  0  0  0 
 36 78  1  0  0  0  0 
 37 79  1  0  0  0  0 
 38 80  1  0  0  0  0 
M  CHG  1   1   1
M  CHG  1  23   1
M  END
> <cdk:Title>
hexafluronium

> <Conformer>
1

> <SuperDrugID>
SD001211

$$$$
