oxytetracycline
  CDK     0628171801

 57 60  0  0  0  0  0  0  0  0999 V2000
   -1.5647    6.9092    0.2259 C   0  0  0  0  0  0  0  0  0  0  0  0
   -0.9204    5.6036   -0.0885 N   0  0  1  0  0  0  0  0  0  0  0  0
    0.5237    5.5538    0.3023 C   0  0  0  0  0  0  0  0  0  0  0  0
   -1.7628    4.3753    0.1797 C   0  0  1  0  0  0  0  0  0  0  0  0
   -1.5149    3.2892   -0.9399 C   0  0  2  0  0  0  0  0  0  0  0  0
   -2.6563    3.1990   -2.0112 C   0  0  1  0  0  0  0  0  0  0  0  0
   -2.0706    2.8580   -3.2737 O   0  0  0  0  0  0  0  0  0  0  0  0
   -3.8338    2.1942   -1.6852 C   0  0  1  0  0  0  0  0  0  0  0  0
   -3.5057    1.1418   -0.7100 C   0  0  0  0  0  0  0  0  0  0  0  0
   -4.5344    0.2255   -0.4594 C   0  0  0  0  0  0  0  0  0  0  0  0
   -4.2688   -1.0027   -0.4588 O   0  0  0  0  0  0  0  0  0  0  0  0
   -5.8746    0.6651   -0.2713 C   0  0  0  0  0  0  0  0  0  0  0  0
   -6.8344   -0.1489    0.3958 C   0  0  0  0  0  0  0  0  0  0  0  0
   -6.5390   -1.3646    0.9252 O   0  0  0  0  0  0  0  0  0  0  0  0
   -8.1571    0.2955    0.5632 C   0  0  0  0  0  0  0  0  0  0  0  0
   -8.5326    1.5648    0.1075 C   0  0  0  0  0  0  0  0  0  0  0  0
   -7.5814    2.3979   -0.5029 C   0  0  0  0  0  0  0  0  0  0  0  0
   -6.2494    1.9609   -0.7337 C   0  0  0  0  0  0  0  0  0  0  0  0
   -5.2487    2.8682   -1.4166 C   0  0  2  0  0  0  0  0  0  0  0  0
   -5.8267    3.4094   -2.7674 C   0  0  0  0  0  0  0  0  0  0  0  0
   -5.0952    3.9808   -0.5374 O   0  0  0  0  0  0  0  0  0  0  0  0
   -2.2922    1.0042   -0.1235 C   0  0  0  0  0  0  0  0  0  0  0  0
   -2.0983   -0.0186    0.7188 O   0  0  0  0  0  0  0  0  0  0  0  0
   -1.1360    1.8713   -0.3859 C   0  0  1  0  0  0  0  0  0  0  0  0
   -0.3986    1.1817   -1.4055 O   0  0  0  0  0  0  0  0  0  0  0  0
   -0.3063    1.9951    0.8322 C   0  0  0  0  0  0  0  0  0  0  0  0
    0.6960    1.1265    0.9645 O   0  0  0  0  0  0  0  0  0  0  0  0
   -0.5858    2.8849    1.8179 C   0  0  0  0  0  0  0  0  0  0  0  0
    0.0868    2.8846    3.0546 C   0  0  0  0  0  0  0  0  0  0  0  0
    0.0486    3.9140    3.9255 N   0  0  0  0  0  0  0  0  0  0  0  0
    0.7717    1.9126    3.4491 O   0  0  0  0  0  0  0  0  0  0  0  0
   -1.5781    3.8379    1.5597 C   0  0  0  0  0  0  0  0  0  0  0  0
   -2.3361    4.2531    2.4704 O   0  0  0  0  0  0  0  0  0  0  0  0
   -1.7846    6.9855    1.2942 H   0  0  0  0  0  0  0  0  0  0  0  0
   -2.4958    7.0073   -0.3366 H   0  0  0  0  0  0  0  0  0  0  0  0
   -0.9226    7.7458   -0.0637 H   0  0  0  0  0  0  0  0  0  0  0  0
    0.6364    5.6734    1.3844 H   0  0  0  0  0  0  0  0  0  0  0  0
    1.0780    6.3511   -0.1969 H   0  0  0  0  0  0  0  0  0  0  0  0
    0.9857    4.6085    0.0095 H   0  0  0  0  0  0  0  0  0  0  0  0
   -2.8098    4.6721    0.1217 H   0  0  0  0  0  0  0  0  0  0  0  0
   -0.6308    3.6330   -1.4889 H   0  0  0  0  0  0  0  0  0  0  0  0
   -3.0470    4.2064   -2.1692 H   0  0  0  0  0  0  0  0  0  0  0  0
   -1.7134    1.9528   -3.1583 H   0  0  0  0  0  0  0  0  0  0  0  0
   -3.9751    1.6144   -2.6078 H   0  0  0  0  0  0  0  0  0  0  0  0
   -5.6730   -1.2480    1.3703 H   0  0  0  0  0  0  0  0  0  0  0  0
   -8.8465   -0.2974    1.0325 H   0  0  0  0  0  0  0  0  0  0  0  0
   -9.4958    1.8866    0.2298 H   0  0  0  0  0  0  0  0  0  0  0  0
   -7.8807    3.3348   -0.7803 H   0  0  0  0  0  0  0  0  0  0  0  0
   -5.0928    4.0182   -3.2954 H   0  0  0  0  0  0  0  0  0  0  0  0
   -6.6997    4.0411   -2.6075 H   0  0  0  0  0  0  0  0  0  0  0  0
   -6.1148    2.5796   -3.4182 H   0  0  0  0  0  0  0  0  0  0  0  0
   -4.7454    3.5988    0.2944 H   0  0  0  0  0  0  0  0  0  0  0  0
   -1.3929   -0.5550    0.2988 H   0  0  0  0  0  0  0  0  0  0  0  0
    0.4089    1.7197   -1.5488 H   0  0  0  0  0  0  0  0  0  0  0  0
    1.2791    1.2954    0.1954 H   0  0  0  0  0  0  0  0  0  0  0  0
    0.5171    3.8411    4.7718 H   0  0  0  0  0  0  0  0  0  0  0  0
   -0.4451    4.7224    3.7164 H   0  0  0  0  0  0  0  0  0  0  0  0
  1  2  1  0  0  0  0 
  2  3  1  0  0  0  0 
  4  2  1  0  0  0  0 
  5  4  1  0  0  0  0 
  5  6  1  0  0  0  0 
  6  7  1  0  0  0  0 
  6  8  1  0  0  0  0 
  8  9  1  0  0  0  0 
  9 10  1  0  0  0  0 
 10 11  2  0  0  0  0 
 10 12  1  0  0  0  0 
 12 13  2  0  0  0  0 
 13 14  1  0  0  0  0 
 13 15  1  0  0  0  0 
 15 16  2  0  0  0  0 
 16 17  1  0  0  0  0 
 17 18  2  0  0  0  0 
 12 18  1  0  0  0  0 
 19 18  1  0  0  0  0 
  8 19  1  0  0  0  0 
 19 20  1  0  0  0  0 
 19 21  1  0  0  0  0 
  9 22  2  0  0  0  0 
 22 23  1  0  0  0  0 
 24 22  1  0  0  0  0 
  5 24  1  0  0  0  0 
 24 25  1  0  0  0  0 
 24 26  1  0  0  0  0 
 26 27  1  0  0  0  0 
 26 28  2  0  0  0  0 
 28 29  1  0  0  0  0 
 29 30  1  0  0  0  0 
 29 31  2  0  0  0  0 
 28 32  1  0  0  0  0 
  4 32  1  0  0  0  0 
 32 33  2  0  0  0  0 
 34  1  1  0  0  0  0 
 35  1  1  0  0  0  0 
 36  1  1  0  0  0  0 
 37  3  1  0  0  0  0 
 38  3  1  0  0  0  0 
 39  3  1  0  0  0  0 
  4 40  1  0  0  0  0 
  5 41  1  0  0  0  0 
  6 42  1  0  0  0  0 
 43  7  1  0  0  0  0 
  8 44  1  0  0  0  0 
 45 14  1  0  0  0  0 
 46 15  1  0  0  0  0 
 47 16  1  0  0  0  0 
 48 17  1  0  0  0  0 
 49 20  1  0  0  0  0 
 50 20  1  0  0  0  0 
 51 20  1  0  0  0  0 
 52 21  1  0  0  0  0 
 53 23  1  0  0  0  0 
 54 25  1  0  0  0  0 
 55 27  1  0  0  0  0 
 56 30  1  0  0  0  0 
 57 30  1  0  0  0  0 
M  END
> <cdk:Title>
oxytetracycline

> <Conformer>
1

> <SuperDrugID>
SD001828

$$$$
