osimertinib
  CDK     0628171802

 70 73  0  0  0  0  0  0  0  0999 V2000
    3.1632   10.5455   -2.2521 C   0  0  0  0  0  0  0  0  0  0  0  0
    3.2218   10.0284   -3.5600 C   0  0  0  0  0  0  0  0  0  0  0  0
    3.0922    8.6311   -3.7378 C   0  0  0  0  0  0  0  0  0  0  0  0
    2.9164    7.8744   -2.6260 N   0  0  0  0  0  0  0  0  0  0  0  0
    2.8510    8.3697   -1.3629 C   0  0  0  0  0  0  0  0  0  0  0  0
    2.9804    9.7099   -1.1968 N   0  0  0  0  0  0  0  0  0  0  0  0
    3.1101    7.9769   -5.0005 C   0  0  0  0  0  0  0  0  0  0  0  0
    2.6869    7.5604   -0.2803 N   0  0  0  0  0  0  0  0  0  0  0  0
    2.4623    6.2146   -0.3411 C   0  0  0  0  0  0  0  0  0  0  0  0
    3.2145    5.3565    0.4844 C   0  0  0  0  0  0  0  0  0  0  0  0
    3.0768    3.9608    0.3466 C   0  0  0  0  0  0  0  0  0  0  0  0
    2.1872    3.3816   -0.5959 C   0  0  0  0  0  0  0  0  0  0  0  0
    1.3637    4.2546   -1.3650 C   0  0  0  0  0  0  0  0  0  0  0  0
    1.5039    5.6554   -1.2122 C   0  0  0  0  0  0  0  0  0  0  0  0
    4.0721    5.8730    1.4230 O   0  0  0  0  0  0  0  0  0  0  0  0
    5.4427    5.9077    0.9901 C   0  0  0  0  0  0  0  0  0  0  0  0
    2.1706    1.9979   -0.7502 N   0  0  0  0  0  0  0  0  0  0  0  0
    0.4244    3.7174   -2.2050 N   0  0  0  0  0  0  0  0  0  0  0  0
    2.2915    1.3914   -2.0580 C   0  0  0  0  0  0  0  0  0  0  0  0
    2.1043    1.1145    0.4018 C   0  0  2  0  0  0  0  0  0  0  0  0
    3.4667    0.4207    0.6888 C   0  0  1  0  0  0  0  0  0  0  0  0
    3.6291    0.0343    2.1268 N   0  0  1  0  0  0  0  0  0  0  0  0
    2.8017   -1.1371    2.5382 C   0  0  0  0  0  0  0  0  0  0  0  0
    5.0606   -0.1177    2.5190 C   0  0  0  0  0  0  0  0  0  0  0  0
   -0.0290    4.1901   -3.4103 C   0  0  0  0  0  0  0  0  0  0  0  0
    0.4497    5.2300   -3.9216 O   0  0  0  0  0  0  0  0  0  0  0  0
   -1.0110    3.5298   -4.1359 C   0  0  0  0  0  0  0  0  0  0  0  0
   -1.6357    2.4087   -3.7519 C   0  0  0  0  0  0  0  0  0  0  0  0
    2.8871    8.5625   -6.2506 C   0  0  0  0  0  0  0  0  0  0  0  0
    2.9101    7.6345   -7.2331 N   0  0  0  0  0  0  0  0  0  0  0  0
    3.1586    6.4373   -6.6598 C   0  0  0  0  0  0  0  0  0  0  0  0
    3.3150    6.6197   -5.2815 C   0  0  0  0  0  0  0  0  0  0  0  0
    3.2850    5.1549   -7.2369 C   0  0  0  0  0  0  0  0  0  0  0  0
    3.6073    4.0605   -6.4083 C   0  0  0  0  0  0  0  0  0  0  0  0
    3.7995    4.2487   -5.0246 C   0  0  0  0  0  0  0  0  0  0  0  0
    3.6444    5.5268   -4.4513 C   0  0  0  0  0  0  0  0  0  0  0  0
    2.7073    7.8907   -8.6272 C   0  0  0  0  0  0  0  0  0  0  0  0
    3.2572   11.5489   -2.0920 H   0  0  0  0  0  0  0  0  0  0  0  0
    3.3623   10.6614   -4.3518 H   0  0  0  0  0  0  0  0  0  0  0  0
    2.8039    7.9556    0.5983 H   0  0  0  0  0  0  0  0  0  0  0  0
    3.6589    3.3667    0.9414 H   0  0  0  0  0  0  0  0  0  0  0  0
    0.8945    6.2926   -1.7290 H   0  0  0  0  0  0  0  0  0  0  0  0
    6.0275    6.3919    1.7708 H   0  0  0  0  0  0  0  0  0  0  0  0
    5.8415    4.9008    0.8478 H   0  0  0  0  0  0  0  0  0  0  0  0
    5.5577    6.4836    0.0681 H   0  0  0  0  0  0  0  0  0  0  0  0
    0.0601    2.8670   -1.9198 H   0  0  0  0  0  0  0  0  0  0  0  0
    3.1592    0.7328   -2.0918 H   0  0  0  0  0  0  0  0  0  0  0  0
    1.4012    0.8040   -2.2838 H   0  0  0  0  0  0  0  0  0  0  0  0
    2.4238    2.1210   -2.8576 H   0  0  0  0  0  0  0  0  0  0  0  0
    1.3410    0.3488    0.2389 H   0  0  0  0  0  0  0  0  0  0  0  0
    1.7918    1.6618    1.2973 H   0  0  0  0  0  0  0  0  0  0  0  0
    3.5742   -0.4575    0.0460 H   0  0  0  0  0  0  0  0  0  0  0  0
    4.2629    1.1154    0.4024 H   0  0  0  0  0  0  0  0  0  0  0  0
    2.8089   -1.2359    3.6264 H   0  0  0  0  0  0  0  0  0  0  0  0
    1.7608   -1.0130    2.2386 H   0  0  0  0  0  0  0  0  0  0  0  0
    3.1812   -2.0598    2.0908 H   0  0  0  0  0  0  0  0  0  0  0  0
    5.5827    0.8345    2.3967 H   0  0  0  0  0  0  0  0  0  0  0  0
    5.1545   -0.4078    3.5683 H   0  0  0  0  0  0  0  0  0  0  0  0
    5.5545   -0.8701    1.8978 H   0  0  0  0  0  0  0  0  0  0  0  0
   -1.2805    3.9147   -5.0147 H   0  0  0  0  0  0  0  0  0  0  0  0
   -1.4238    1.9524   -2.8964 H   0  0  0  0  0  0  0  0  0  0  0  0
   -2.3364    2.0117   -4.3308 H   0  0  0  0  0  0  0  0  0  0  0  0
    2.7145    9.5594   -6.4019 H   0  0  0  0  0  0  0  0  0  0  0  0
    3.1560    5.0146   -8.2414 H   0  0  0  0  0  0  0  0  0  0  0  0
    3.7082    3.1268   -6.8108 H   0  0  0  0  0  0  0  0  0  0  0  0
    4.0592    3.4552   -4.4340 H   0  0  0  0  0  0  0  0  0  0  0  0
    3.7872    5.6398   -3.4477 H   0  0  0  0  0  0  0  0  0  0  0  0
    3.5349    7.4753   -9.2042 H   0  0  0  0  0  0  0  0  0  0  0  0
    2.6549    8.9625   -8.8368 H   0  0  0  0  0  0  0  0  0  0  0  0
    1.7760    7.4249   -8.9553 H   0  0  0  0  0  0  0  0  0  0  0  0
  1  2  2  0  0  0  0 
  1  6  1  0  0  0  0 
  2  3  1  0  0  0  0 
  3  4  2  0  0  0  0 
  4  5  1  0  0  0  0 
  5  6  2  0  0  0  0 
  3  7  1  0  0  0  0 
  5  8  1  0  0  0  0 
  8  9  1  0  0  0  0 
 10 11  1  0  0  0  0 
 11 12  2  0  0  0  0 
 12 13  1  0  0  0  0 
 13 14  2  0  0  0  0 
  9 10  2  0  0  0  0 
  9 14  1  0  0  0  0 
 10 15  1  0  0  0  0 
 15 16  1  0  0  0  0 
 12 17  1  0  0  0  0 
 13 18  1  0  0  0  0 
 17 19  1  0  0  0  0 
 17 20  1  0  0  0  0 
 20 21  1  0  0  0  0 
 21 22  1  0  0  0  0 
 22 23  1  0  0  0  0 
 22 24  1  0  0  0  0 
 18 25  1  0  0  0  0 
 25 26  2  0  0  0  0 
 25 27  1  0  0  0  0 
 27 28  2  0  0  0  0 
 29 30  1  0  0  0  0 
 30 31  1  0  0  0  0 
 31 32  1  0  0  0  0 
  7 29  2  0  0  0  0 
  7 32  1  0  0  0  0 
 33 34  1  0  0  0  0 
 34 35  2  0  0  0  0 
 35 36  1  0  0  0  0 
 31 33  2  0  0  0  0 
 32 36  2  0  0  0  0 
 30 37  1  0  0  0  0 
  1 38  1  0  0  0  0 
  2 39  1  0  0  0  0 
  8 40  1  0  0  0  0 
 11 41  1  0  0  0  0 
 14 42  1  0  0  0  0 
 16 43  1  0  0  0  0 
 16 44  1  0  0  0  0 
 16 45  1  0  0  0  0 
 18 46  1  0  0  0  0 
 19 47  1  0  0  0  0 
 19 48  1  0  0  0  0 
 19 49  1  0  0  0  0 
 20 50  1  0  0  0  0 
 20 51  1  0  0  0  0 
 21 52  1  0  0  0  0 
 21 53  1  0  0  0  0 
 23 54  1  0  0  0  0 
 23 55  1  0  0  0  0 
 23 56  1  0  0  0  0 
 24 57  1  0  0  0  0 
 24 58  1  0  0  0  0 
 24 59  1  0  0  0  0 
 27 60  1  0  0  0  0 
 28 61  1  0  0  0  0 
 28 62  1  0  0  0  0 
 29 63  1  0  0  0  0 
 33 64  1  0  0  0  0 
 34 65  1  0  0  0  0 
 35 66  1  0  0  0  0 
 36 67  1  0  0  0  0 
 37 68  1  0  0  0  0 
 37 69  1  0  0  0  0 
 37 70  1  0  0  0  0 
M  END
> <cdk:Title>
osimertinib

> <Conformer>
1

> <SuperDrugID>
SD003893

$$$$
