tegafur
  CDK     0628171801

 23 24  0  0  0  0  0  0  0  0999 V2000
   -1.3986   -2.5832   -3.0347 C   0  0  0  0  0  0  0  0  0  0  0  0
   -0.9230   -1.3162   -3.0641 N   0  0  0  0  0  0  0  0  0  0  0  0
   -0.0539   -0.8579   -2.1268 C   0  0  0  0  0  0  0  0  0  0  0  0
    0.3915   -1.6733   -1.1114 N   0  0  0  0  0  0  0  0  0  0  0  0
   -0.0791   -2.9624   -1.0596 C   0  0  0  0  0  0  0  0  0  0  0  0
   -0.9910   -3.4536   -2.0105 C   0  0  0  0  0  0  0  0  0  0  0  0
   -1.4336   -4.6804   -1.9301 F   0  0  0  0  0  0  0  0  0  0  0  0
   -2.1960   -2.9545   -3.9258 O   0  0  0  0  0  0  0  0  0  0  0  0
    0.3068    0.3351   -2.2521 O   0  0  0  0  0  0  0  0  0  0  0  0
    1.3341   -1.2054   -0.1046 C   0  0  2  0  0  0  0  0  0  0  0  0
    0.8467   -0.0362    0.5779 O   0  0  0  0  0  0  0  0  0  0  0  0
    2.0024    0.6174    1.1166 C   0  0  2  0  0  0  0  0  0  0  0  0
    3.0528    0.5139    0.0037 C   0  0  2  0  0  0  0  0  0  0  0  0
    2.7372   -0.8385   -0.6557 C   0  0  1  0  0  0  0  0  0  0  0  0
   -1.2154   -0.7211   -3.7728 H   0  0  0  0  0  0  0  0  0  0  0  0
    0.2262   -3.6005   -0.3190 H   0  0  0  0  0  0  0  0  0  0  0  0
    1.4799   -1.9652    0.6765 H   0  0  0  0  0  0  0  0  0  0  0  0
    2.3430    0.1084    2.0247 H   0  0  0  0  0  0  0  0  0  0  0  0
    1.7833    1.6595    1.3571 H   0  0  0  0  0  0  0  0  0  0  0  0
    4.0712    0.5500    0.3973 H   0  0  0  0  0  0  0  0  0  0  0  0
    2.9093    1.3276   -0.7138 H   0  0  0  0  0  0  0  0  0  0  0  0
    3.4658   -1.6010   -0.3644 H   0  0  0  0  0  0  0  0  0  0  0  0
    2.7560   -0.7405   -1.7436 H   0  0  0  0  0  0  0  0  0  0  0  0
  1  2  1  0  0  0  0 
  2  3  1  0  0  0  0 
  3  4  1  0  0  0  0 
  4  5  1  0  0  0  0 
  5  6  2  0  0  0  0 
  1  6  1  0  0  0  0 
  6  7  1  0  0  0  0 
  1  8  2  0  0  0  0 
  3  9  2  0  0  0  0 
 10  4  1  0  0  0  0 
 11 12  1  0  0  0  0 
 12 13  1  0  0  0  0 
 13 14  1  0  0  0  0 
 10 11  1  0  0  0  0 
 10 14  1  0  0  0  0 
 15  2  1  0  0  0  0 
 16  5  1  0  0  0  0 
 17 10  1  0  0  0  0 
 18 12  1  0  0  0  0 
 19 12  1  0  0  0  0 
 20 13  1  0  0  0  0 
 21 13  1  0  0  0  0 
 22 14  1  0  0  0  0 
 23 14  1  0  0  0  0 
M  END
> <cdk:Title>
tegafur

> <Conformer>
1

> <SuperDrugID>
SD003542

$$$$
