cilnidipine
  CDK     0628171802

 64 66  0  0  0  0  0  0  0  0999 V2000
   -4.9611   -3.9298    0.0747 C   0  0  0  0  0  0  0  0  0  0  0  0
   -6.1384   -4.3507   -0.4825 O   0  0  0  0  0  0  0  0  0  0  0  0
   -4.8058   -4.1344    1.3048 O   0  0  0  0  0  0  0  0  0  0  0  0
   -3.9400   -3.3071   -0.6755 C   0  0  0  0  0  0  0  0  0  0  0  0
   -7.2062   -5.0485    0.1699 C   0  0  1  0  0  0  0  0  0  0  0  0
   -2.5683   -3.2544   -0.0933 C   0  0  2  0  0  0  0  0  0  0  0  0
   -4.1227   -2.7746   -1.9127 C   0  0  0  0  0  0  0  0  0  0  0  0
   -8.3106   -5.2258   -0.7560 C   0  0  0  0  0  0  0  0  0  0  0  0
   -1.5508   -2.4268   -0.7971 C   0  0  0  0  0  0  0  0  0  0  0  0
   -2.0452   -4.6584    0.0549 C   0  0  0  0  0  0  0  0  0  0  0  0
   -5.3716   -2.7748   -2.6708 C   0  0  0  0  0  0  0  0  0  0  0  0
   -3.0953   -2.1857   -2.5375 N   0  0  0  0  0  0  0  0  0  0  0  0
   -8.6187   -6.4013   -1.3356 C   0  0  0  0  0  0  0  0  0  0  0  0
   -0.3144   -2.1763   -0.1529 C   0  0  0  0  0  0  0  0  0  0  0  0
   -1.8797   -1.9490   -2.0268 C   0  0  0  0  0  0  0  0  0  0  0  0
   -1.9300   -5.5201   -1.0660 C   0  0  0  0  0  0  0  0  0  0  0  0
   -1.6690   -5.1593    1.3215 C   0  0  0  0  0  0  0  0  0  0  0  0
   -9.7033   -6.6501   -2.1838 C   0  0  0  0  0  0  0  0  0  0  0  0
    0.7599   -1.5906   -0.7699 O   0  0  0  0  0  0  0  0  0  0  0  0
   -0.1567   -2.4831    1.0548 O   0  0  0  0  0  0  0  0  0  0  0  0
   -1.0116   -1.1511   -2.8837 C   0  0  0  0  0  0  0  0  0  0  0  0
   -1.4872   -6.8628   -0.9494 C   0  0  0  0  0  0  0  0  0  0  0  0
   -1.1770   -6.4660    1.4590 C   0  0  0  0  0  0  0  0  0  0  0  0
  -10.9174   -5.9193   -2.1177 C   0  0  0  0  0  0  0  0  0  0  0  0
   -9.6156   -7.7030   -3.1310 C   0  0  0  0  0  0  0  0  0  0  0  0
    2.0418   -1.2992   -0.1942 C   0  0  1  0  0  0  0  0  0  0  0  0
   -1.4566   -7.6817   -2.0181 N   0  0  0  0  0  0  0  0  0  0  0  0
   -1.0934   -7.3087    0.3382 C   0  0  0  0  0  0  0  0  0  0  0  0
  -11.9943   -6.2207   -2.9729 C   0  0  0  0  0  0  0  0  0  0  0  0
  -10.6912   -8.0054   -3.9873 C   0  0  0  0  0  0  0  0  0  0  0  0
    2.9303   -0.5364   -1.1971 C   0  0  1  0  0  0  0  0  0  0  0  0
   -1.0239   -8.7665   -1.9780 O   0  0  0  0  0  0  0  0  0  0  0  0
   -1.9144   -7.3420   -3.1550 O   0  0  0  0  0  0  0  0  0  0  0  0
  -11.8806   -7.2614   -3.9098 C   0  0  0  0  0  0  0  0  0  0  0  0
    4.1800   -0.2514   -0.5401 O   0  0  0  0  0  0  0  0  0  0  0  0
    5.0724    0.5799   -1.2998 C   0  0  0  0  0  0  0  0  0  0  0  0
   -6.8219   -6.0026    0.5426 H   0  0  0  0  0  0  0  0  0  0  0  0
   -7.5572   -4.4677    1.0272 H   0  0  0  0  0  0  0  0  0  0  0  0
   -2.6913   -2.7780    0.8866 H   0  0  0  0  0  0  0  0  0  0  0  0
   -8.8568   -4.4204   -0.9553 H   0  0  0  0  0  0  0  0  0  0  0  0
   -5.6431   -3.7993   -2.9274 H   0  0  0  0  0  0  0  0  0  0  0  0
   -5.2958   -2.2176   -3.6078 H   0  0  0  0  0  0  0  0  0  0  0  0
   -6.1751   -2.3178   -2.0910 H   0  0  0  0  0  0  0  0  0  0  0  0
   -3.2550   -1.8768   -3.4431 H   0  0  0  0  0  0  0  0  0  0  0  0
   -8.0142   -7.1668   -1.1446 H   0  0  0  0  0  0  0  0  0  0  0  0
   -2.1912   -5.1576   -1.9860 H   0  0  0  0  0  0  0  0  0  0  0  0
   -1.7477   -4.5731    2.1569 H   0  0  0  0  0  0  0  0  0  0  0  0
   -0.1232   -1.7238   -3.1574 H   0  0  0  0  0  0  0  0  0  0  0  0
   -0.7165   -0.2379   -2.3647 H   0  0  0  0  0  0  0  0  0  0  0  0
   -1.5015   -0.8498   -3.8125 H   0  0  0  0  0  0  0  0  0  0  0  0
   -0.8871   -6.8078    2.3784 H   0  0  0  0  0  0  0  0  0  0  0  0
  -11.0420   -5.1690   -1.4349 H   0  0  0  0  0  0  0  0  0  0  0  0
   -8.7620   -8.2632   -3.2108 H   0  0  0  0  0  0  0  0  0  0  0  0
    1.8990   -0.6828    0.6972 H   0  0  0  0  0  0  0  0  0  0  0  0
    2.5302   -2.2344    0.0924 H   0  0  0  0  0  0  0  0  0  0  0  0
   -0.7465   -8.2606    0.4753 H   0  0  0  0  0  0  0  0  0  0  0  0
  -12.8642   -5.6874   -2.9084 H   0  0  0  0  0  0  0  0  0  0  0  0
  -10.6088   -8.7687   -4.6640 H   0  0  0  0  0  0  0  0  0  0  0  0
    3.1391   -1.2418   -2.0612 H   0  0  0  0  0  0  0  0  0  0  0  0
    2.4042    0.4442   -1.4224 H   0  0  0  0  0  0  0  0  0  0  0  0
  -12.6636   -7.4787   -4.5300 H   0  0  0  0  0  0  0  0  0  0  0  0
    5.9990    0.6903   -0.7355 H   0  0  0  0  0  0  0  0  0  0  0  0
    4.6449    1.5735   -1.4506 H   0  0  0  0  0  0  0  0  0  0  0  0
    5.3113    0.1328   -2.2673 H   0  0  0  0  0  0  0  0  0  0  0  0
  1  2  1  0  0  0  0 
  1  3  2  0  0  0  0 
  1  4  1  0  0  0  0 
  2  5  1  0  0  0  0 
  6  4  1  0  0  0  0 
  4  7  2  0  0  0  0 
  5  8  1  0  0  0  0 
  6  9  1  0  0  0  0 
  6 10  1  0  0  0  0 
  7 11  1  0  0  0  0 
  7 12  1  0  0  0  0 
  8 13  2  0  0  0  0 
  9 14  1  0  0  0  0 
  9 15  2  0  0  0  0 
 10 16  2  0  0  0  0 
 10 17  1  0  0  0  0 
 12 15  1  0  0  0  0 
 13 18  1  0  0  0  0 
 14 19  1  0  0  0  0 
 14 20  2  0  0  0  0 
 15 21  1  0  0  0  0 
 16 22  1  0  0  0  0 
 17 23  2  0  0  0  0 
 18 24  2  0  0  0  0 
 18 25  1  0  0  0  0 
 19 26  1  0  0  0  0 
 22 27  1  0  0  0  0 
 22 28  2  0  0  0  0 
 23 28  1  0  0  0  0 
 24 29  1  0  0  0  0 
 25 30  2  0  0  0  0 
 26 31  1  0  0  0  0 
 27 32  2  0  0  0  0 
 27 33  1  0  0  0  0 
 29 34  2  0  0  0  0 
 30 34  1  0  0  0  0 
 31 35  1  0  0  0  0 
 35 36  1  0  0  0  0 
 37  5  1  0  0  0  0 
 38  5  1  0  0  0  0 
 39  6  1  0  0  0  0 
 40  8  1  0  0  0  0 
 41 11  1  0  0  0  0 
 42 11  1  0  0  0  0 
 43 11  1  0  0  0  0 
 44 12  1  0  0  0  0 
 45 13  1  0  0  0  0 
 46 16  1  0  0  0  0 
 47 17  1  0  0  0  0 
 48 21  1  0  0  0  0 
 49 21  1  0  0  0  0 
 50 21  1  0  0  0  0 
 51 23  1  0  0  0  0 
 52 24  1  0  0  0  0 
 53 25  1  0  0  0  0 
 54 26  1  0  0  0  0 
 55 26  1  0  0  0  0 
 56 28  1  0  0  0  0 
 57 29  1  0  0  0  0 
 58 30  1  0  0  0  0 
 59 31  1  0  0  0  0 
 60 31  1  0  0  0  0 
 61 34  1  0  0  0  0 
 62 36  1  0  0  0  0 
 63 36  1  0  0  0  0 
 64 36  1  0  0  0  0 
M  CHG  1  27   1
M  CHG  1  33  -1
M  END
> <cdk:Title>
cilnidipine

> <Conformer>
1

> <SuperDrugID>
SD000563

$$$$
