plaunotol
  CDK     0628171801

 56 55  0  0  0  0  0  0  0  0999 V2000
   -3.5688   -6.1250    2.7546 C   0  0  0  0  0  0  0  0  0  0  0  0
   -3.1178   -7.1651    3.6936 C   0  0  1  0  0  0  0  0  0  0  0  0
   -2.7928   -5.8499    1.6776 C   0  0  0  0  0  0  0  0  0  0  0  0
   -4.8292   -5.4374    3.0613 C   0  0  2  0  0  0  0  0  0  0  0  0
   -1.9583   -6.6874    4.6179 C   0  0  1  0  0  0  0  0  0  0  0  0
   -3.0314   -4.8400    0.6575 C   0  0  2  0  0  0  0  0  0  0  0  0
   -4.7448   -4.7722    4.3158 O   0  0  0  0  0  0  0  0  0  0  0  0
   -1.4441   -7.7526    5.4705 C   0  0  0  0  0  0  0  0  0  0  0  0
   -2.5371   -3.4363    1.1146 C   0  0  1  0  0  0  0  0  0  0  0  0
   -0.5583   -8.7203    5.1322 C   0  0  0  0  0  0  0  0  0  0  0  0
   -2.9913   -2.3601    0.2236 C   0  0  0  0  0  0  0  0  0  0  0  0
   -0.1379   -9.6927    6.1549 C   0  0  2  0  0  0  0  0  0  0  0  0
    0.0254   -8.8668    3.7960 C   0  0  0  0  0  0  0  0  0  0  0  0
   -2.4710   -2.2844   -1.0232 C   0  0  0  0  0  0  0  0  0  0  0  0
   -4.0076   -1.4446    0.7489 C   0  0  0  0  0  0  0  0  0  0  0  0
    0.7637   -9.0706    7.2602 C   0  0  2  0  0  0  0  0  0  0  0  0
   -2.8392   -1.3410   -2.0600 C   0  0  1  0  0  0  0  0  0  0  0  0
    1.2906  -10.0901    8.1614 C   0  0  0  0  0  0  0  0  0  0  0  0
   -4.1624   -1.5978   -2.5192 O   0  0  0  0  0  0  0  0  0  0  0  0
    2.4901  -10.7108    8.0695 C   0  0  0  0  0  0  0  0  0  0  0  0
    2.8699  -11.7307    9.0482 C   0  0  0  0  0  0  0  0  0  0  0  0
    3.4534  -10.4016    7.0118 C   0  0  0  0  0  0  0  0  0  0  0  0
   -3.9424   -7.4950    4.3328 H   0  0  0  0  0  0  0  0  0  0  0  0
   -2.8116   -8.0495    3.1283 H   0  0  0  0  0  0  0  0  0  0  0  0
   -1.9449   -6.3615    1.5676 H   0  0  0  0  0  0  0  0  0  0  0  0
   -5.6397   -6.1664    3.1027 H   0  0  0  0  0  0  0  0  0  0  0  0
   -5.1172   -4.6859    2.3298 H   0  0  0  0  0  0  0  0  0  0  0  0
   -1.1409   -6.2496    4.0385 H   0  0  0  0  0  0  0  0  0  0  0  0
   -2.3364   -5.8854    5.2603 H   0  0  0  0  0  0  0  0  0  0  0  0
   -4.0862   -4.8142    0.3712 H   0  0  0  0  0  0  0  0  0  0  0  0
   -2.4817   -5.1281   -0.2435 H   0  0  0  0  0  0  0  0  0  0  0  0
   -5.6070   -4.3188    4.4172 H   0  0  0  0  0  0  0  0  0  0  0  0
   -1.8068   -7.7618    6.3978 H   0  0  0  0  0  0  0  0  0  0  0  0
   -2.8760   -3.2535    2.1395 H   0  0  0  0  0  0  0  0  0  0  0  0
   -1.4428   -3.4357    1.1539 H   0  0  0  0  0  0  0  0  0  0  0  0
    0.4076  -10.5227    5.6908 H   0  0  0  0  0  0  0  0  0  0  0  0
   -1.0263  -10.1323    6.6198 H   0  0  0  0  0  0  0  0  0  0  0  0
    1.1104   -8.7947    3.8620 H   0  0  0  0  0  0  0  0  0  0  0  0
   -0.3033   -8.1253    3.0716 H   0  0  0  0  0  0  0  0  0  0  0  0
   -0.2346   -9.8447    3.3877 H   0  0  0  0  0  0  0  0  0  0  0  0
   -1.7712   -2.9448   -1.2796 H   0  0  0  0  0  0  0  0  0  0  0  0
   -4.8809   -2.0082    1.0820 H   0  0  0  0  0  0  0  0  0  0  0  0
   -4.3556   -0.7026    0.0329 H   0  0  0  0  0  0  0  0  0  0  0  0
   -3.5999   -0.9030    1.6034 H   0  0  0  0  0  0  0  0  0  0  0  0
    0.1753   -8.3656    7.8559 H   0  0  0  0  0  0  0  0  0  0  0  0
    1.5658   -8.4913    6.7986 H   0  0  0  0  0  0  0  0  0  0  0  0
   -2.7707   -0.3167   -1.6894 H   0  0  0  0  0  0  0  0  0  0  0  0
   -2.1587   -1.4367   -2.9094 H   0  0  0  0  0  0  0  0  0  0  0  0
    0.6791  -10.3479    8.9043 H   0  0  0  0  0  0  0  0  0  0  0  0
   -4.3339   -0.8972   -3.1827 H   0  0  0  0  0  0  0  0  0  0  0  0
    3.0407  -12.6821    8.5407 H   0  0  0  0  0  0  0  0  0  0  0  0
    2.1106  -11.8967    9.8158 H   0  0  0  0  0  0  0  0  0  0  0  0
    3.7925  -11.4363    9.5523 H   0  0  0  0  0  0  0  0  0  0  0  0
    4.3326  -11.0501    7.0458 H   0  0  0  0  0  0  0  0  0  0  0  0
    3.8023   -9.3719    7.1126 H   0  0  0  0  0  0  0  0  0  0  0  0
    2.9942  -10.5302    6.0301 H   0  0  0  0  0  0  0  0  0  0  0  0
  1  2  1  0  0  0  0 
  1  3  2  0  0  0  0 
  1  4  1  0  0  0  0 
  2  5  1  0  0  0  0 
  3  6  1  0  0  0  0 
  4  7  1  0  0  0  0 
  5  8  1  0  0  0  0 
  6  9  1  0  0  0  0 
  8 10  2  0  0  0  0 
  9 11  1  0  0  0  0 
 10 12  1  0  0  0  0 
 10 13  1  0  0  0  0 
 11 14  2  0  0  0  0 
 11 15  1  0  0  0  0 
 12 16  1  0  0  0  0 
 14 17  1  0  0  0  0 
 16 18  1  0  0  0  0 
 17 19  1  0  0  0  0 
 18 20  2  0  0  0  0 
 20 21  1  0  0  0  0 
 20 22  1  0  0  0  0 
  2 23  1  0  0  0  0 
  2 24  1  0  0  0  0 
  3 25  1  0  0  0  0 
  4 26  1  0  0  0  0 
  4 27  1  0  0  0  0 
  5 28  1  0  0  0  0 
  5 29  1  0  0  0  0 
  6 30  1  0  0  0  0 
  6 31  1  0  0  0  0 
  7 32  1  0  0  0  0 
  8 33  1  0  0  0  0 
  9 34  1  0  0  0  0 
  9 35  1  0  0  0  0 
 12 36  1  0  0  0  0 
 12 37  1  0  0  0  0 
 13 38  1  0  0  0  0 
 13 39  1  0  0  0  0 
 13 40  1  0  0  0  0 
 14 41  1  0  0  0  0 
 15 42  1  0  0  0  0 
 15 43  1  0  0  0  0 
 15 44  1  0  0  0  0 
 16 45  1  0  0  0  0 
 16 46  1  0  0  0  0 
 17 47  1  0  0  0  0 
 17 48  1  0  0  0  0 
 18 49  1  0  0  0  0 
 19 50  1  0  0  0  0 
 21 51  1  0  0  0  0 
 21 52  1  0  0  0  0 
 21 53  1  0  0  0  0 
 22 54  1  0  0  0  0 
 22 55  1  0  0  0  0 
 22 56  1  0  0  0  0 
M  END
> <cdk:Title>
plaunotol

> <Conformer>
1

> <SuperDrugID>
SD001995

$$$$
