ethacrynic acid
  CDK     0628171801

 31 31  0  0  0  0  0  0  0  0999 V2000
    2.5516    0.5100    4.7111 C   0  0  0  0  0  0  0  0  0  0  0  0
    2.6914    1.8599    5.0992 C   0  0  0  0  0  0  0  0  0  0  0  0
    3.5024   -0.2924    4.8786 O   0  0  0  0  0  0  0  0  0  0  0  0
    1.3845   -0.0556    4.1201 C   0  0  0  0  0  0  0  0  0  0  0  0
    3.8590    2.2765    5.9004 C   0  0  1  0  0  0  0  0  0  0  0  0
    1.7894    2.7944    4.7294 C   0  0  0  0  0  0  0  0  0  0  0  0
    1.3820   -0.6109    2.8091 C   0  0  0  0  0  0  0  0  0  0  0  0
    0.1866   -0.0637    4.8713 C   0  0  0  0  0  0  0  0  0  0  0  0
    3.7765    1.8371    7.3834 C   0  0  0  0  0  0  0  0  0  0  0  0
    2.7971   -0.5836    1.8583 Cl  0  0  0  0  0  0  0  0  0  0  0  0
    0.1914   -1.1747    2.2784 C   0  0  0  0  0  0  0  0  0  0  0  0
   -0.9944   -0.5952    4.3307 C   0  0  0  0  0  0  0  0  0  0  0  0
    0.1508   -1.9084    0.7437 Cl  0  0  0  0  0  0  0  0  0  0  0  0
   -1.0009   -1.1514    3.0383 C   0  0  0  0  0  0  0  0  0  0  0  0
   -2.1542   -1.7278    2.5732 O   0  0  0  0  0  0  0  0  0  0  0  0
   -3.0554   -0.8311    1.8953 C   0  0  1  0  0  0  0  0  0  0  0  0
   -4.1809   -1.6383    1.4012 C   0  0  0  0  0  0  0  0  0  0  0  0
   -4.4465   -1.7237    0.0783 O   0  0  0  0  0  0  0  0  0  0  0  0
   -4.8966   -2.2887    2.1978 O   0  0  0  0  0  0  0  0  0  0  0  0
    4.7738    1.8720    5.4557 H   0  0  0  0  0  0  0  0  0  0  0  0
    3.9871    3.3639    5.8943 H   0  0  0  0  0  0  0  0  0  0  0  0
    1.8871    3.7435    5.0002 H   0  0  0  0  0  0  0  0  0  0  0  0
    0.9996    2.5718    4.1722 H   0  0  0  0  0  0  0  0  0  0  0  0
    0.1620    0.3168    5.8224 H   0  0  0  0  0  0  0  0  0  0  0  0
    4.6536    2.2026    7.9224 H   0  0  0  0  0  0  0  0  0  0  0  0
    2.8854    2.2564    7.8558 H   0  0  0  0  0  0  0  0  0  0  0  0
    3.7489    0.7496    7.4747 H   0  0  0  0  0  0  0  0  0  0  0  0
   -1.8524   -0.5870    4.8878 H   0  0  0  0  0  0  0  0  0  0  0  0
   -3.4405   -0.0659    2.5762 H   0  0  0  0  0  0  0  0  0  0  0  0
   -2.5625   -0.3385    1.0495 H   0  0  0  0  0  0  0  0  0  0  0  0
   -5.1862   -2.2841   -0.2373 H   0  0  0  0  0  0  0  0  0  0  0  0
  1  2  1  0  0  0  0 
  1  3  2  0  0  0  0 
  1  4  1  0  0  0  0 
  2  5  1  0  0  0  0 
  2  6  2  0  0  0  0 
  4  7  2  0  0  0  0 
  4  8  1  0  0  0  0 
  5  9  1  0  0  0  0 
  7 10  1  0  0  0  0 
  7 11  1  0  0  0  0 
  8 12  2  0  0  0  0 
 11 13  1  0  0  0  0 
 11 14  2  0  0  0  0 
 12 14  1  0  0  0  0 
 14 15  1  0  0  0  0 
 15 16  1  0  0  0  0 
 16 17  1  0  0  0  0 
 17 18  1  0  0  0  0 
 17 19  2  0  0  0  0 
  5 20  1  0  0  0  0 
  5 21  1  0  0  0  0 
  6 22  1  0  0  0  0 
  6 23  1  0  0  0  0 
  8 24  1  0  0  0  0 
  9 25  1  0  0  0  0 
  9 26  1  0  0  0  0 
  9 27  1  0  0  0  0 
 12 28  1  0  0  0  0 
 16 29  1  0  0  0  0 
 16 30  1  0  0  0  0 
 18 31  1  0  0  0  0 
M  END
> <cdk:Title>
ethacrynic acid

> <Conformer>
1

> <SuperDrugID>
SD000956

$$$$
