secretin human
  CDK     0628171801

434435  0  0  0  0  0  0  0  0999 V2000
  -21.4450  -10.1473   -2.2463 N   0  0  1  0  0  0  0  0  0  0  0  0
  -20.7752  -12.4136   -0.5450 N   0  0  0  0  0  0  0  0  0  0  0  0
  -22.8568  -13.5404    1.3890 N   0  0  0  0  0  0  0  0  0  0  0  0
  -23.8308  -10.9857    2.7069 N   0  0  0  0  0  0  0  0  0  0  0  0
  -25.3157   -8.5217    2.3367 N   0  0  0  0  0  0  0  0  0  0  0  0
  -26.8373   -6.3639    3.5508 N   0  0  0  0  0  0  0  0  0  0  0  0
  -28.2978   -3.4080    3.8301 N   0  0  0  0  0  0  0  0  0  0  0  0
  -30.3063   -1.3025    4.2485 N   0  0  0  0  0  0  0  0  0  0  0  0
  -31.1121    1.8669    5.0150 N   0  0  0  0  0  0  0  0  0  0  0  0
  -31.1994    4.9133    4.4485 N   0  0  0  0  0  0  0  0  0  0  0  0
  -28.4320    5.6052    3.5747 N   0  0  0  0  0  0  0  0  0  0  0  0
  -25.9796    5.2501    1.4961 N   0  0  0  0  0  0  0  0  0  0  0  0
  -23.3933    5.8396    0.4572 N   0  0  0  0  0  0  0  0  0  0  0  0
  -20.6552    5.0573   -0.5563 N   0  0  0  0  0  0  0  0  0  0  0  0
  -18.1579    5.5191   -1.9631 N   0  0  0  0  0  0  0  0  0  0  0  0
  -15.0040    5.7558   -3.3910 N   0  0  0  0  0  0  0  0  0  0  0  0
  -12.4417    4.7281   -1.9080 N   0  0  0  0  0  0  0  0  0  0  0  0
  -10.0475    2.3717   -2.9576 N   0  0  0  0  0  0  0  0  0  0  0  0
   -8.3841    0.3779   -1.7197 N   0  0  0  0  0  0  0  0  0  0  0  0
   -7.0717   -2.3509   -1.3878 N   0  0  0  0  0  0  0  0  0  0  0  0
   -4.9291   -3.9559   -0.0682 N   0  0  0  0  0  0  0  0  0  0  0  0
   -3.6769   -6.3972    0.9166 N   0  0  0  0  0  0  0  0  0  0  0  0
   -1.2908   -8.2020    1.2217 N   0  0  0  0  0  0  0  0  0  0  0  0
    0.4342  -10.6721    2.5925 N   0  0  0  0  0  0  0  0  0  0  0  0
    2.1868  -13.1838    4.3331 N   0  0  0  0  0  0  0  0  0  0  0  0
    3.7592  -15.2911    2.5537 N   0  0  0  0  0  0  0  0  0  0  0  0
    7.0630  -14.6332    2.0735 N   0  0  0  0  0  0  0  0  0  0  0  0
   10.4895  -13.5566    1.4855 N   0  0  0  0  0  0  0  0  0  0  0  0
  -19.9406  -11.7852   -1.4198 C   0  0  0  0  0  0  0  0  0  0  0  0
  -19.4840  -10.7026   -3.7007 C   0  0  1  0  0  0  0  0  0  0  0  0
  -20.1007  -10.0237   -4.8599 C   0  0  0  0  0  0  0  0  0  0  0  0
  -19.7694   -8.7781   -5.3883 C   0  0  0  0  0  0  0  0  0  0  0  0
  -20.5843   -8.5095   -6.4204 N   0  0  0  0  0  0  0  0  0  0  0  0
  -21.4038   -9.5675   -6.5391 C   0  0  0  0  0  0  0  0  0  0  0  0
  -21.1119  -10.4854   -5.6067 N   0  0  0  0  0  0  0  0  0  0  0  0
  -20.5251  -11.2208   -2.6614 C   0  0  2  0  0  0  0  0  0  0  0  0
  -18.7214  -11.6527   -1.1552 O   0  0  0  0  0  0  0  0  0  0  0  0
  -21.5016  -13.7030    1.3635 C   0  0  0  0  0  0  0  0  0  0  0  0
  -20.2752  -11.5373    1.7056 C   0  0  1  0  0  0  0  0  0  0  0  0
  -20.0948  -11.8888    3.0761 O   0  0  0  0  0  0  0  0  0  0  0  0
  -20.4655  -12.7886    0.8031 C   0  0  2  0  0  0  0  0  0  0  0  0
  -21.1072  -14.7585    1.9108 O   0  0  0  0  0  0  0  0  0  0  0  0
  -24.4577  -11.8817    1.8960 C   0  0  0  0  0  0  0  0  0  0  0  0
  -24.5231  -13.2001   -0.3154 C   0  0  1  0  0  0  0  0  0  0  0  0
  -25.3628  -12.2595   -1.0856 C   0  0  0  0  0  0  0  0  0  0  0  0
  -26.7113  -12.3701   -1.0788 O   0  0  0  0  0  0  0  0  0  0  0  0
  -24.8436  -11.3474   -1.7679 O   0  0  0  0  0  0  0  0  0  0  0  0
  -23.6753  -12.5185    0.8048 C   0  0  2  0  0  0  0  0  0  0  0  0
  -25.6719  -12.1493    2.0585 O   0  0  0  0  0  0  0  0  0  0  0  0
  -24.5173   -8.8303    3.3924 C   0  0  0  0  0  0  0  0  0  0  0  0
  -24.4139  -10.2468    3.7822 C   0  0  1  0  0  0  0  0  0  0  0  0
  -23.8787   -7.9573    4.0268 O   0  0  0  0  0  0  0  0  0  0  0  0
  -26.7277   -6.6077    2.2131 C   0  0  0  0  0  0  0  0  0  0  0  0
  -25.5289   -6.1850   -0.5093 O   0  0  0  0  0  0  0  0  0  0  0  0
  -25.4794   -7.2408    1.7114 C   0  0  2  0  0  0  0  0  0  0  0  0
  -26.3685   -8.4602   -0.4574 C   0  0  0  0  0  0  0  0  0  0  0  0
  -25.3759   -7.4371    0.1608 C   0  0  1  0  0  0  0  0  0  0  0  0
  -27.6497   -6.2751    1.4296 O   0  0  0  0  0  0  0  0  0  0  0  0
  -27.6764   -4.3996    4.5333 C   0  0  0  0  0  0  0  0  0  0  0  0
  -28.2914   -6.6948    5.4720 C   0  0  1  0  0  0  0  0  0  0  0  0
  -29.6103   -6.4009    6.0959 C   0  0  0  0  0  0  0  0  0  0  0  0
  -30.8049   -6.8180    5.4602 C   0  0  0  0  0  0  0  0  0  0  0  0
  -32.0572   -6.5708    6.0513 C   0  0  0  0  0  0  0  0  0  0  0  0
  -32.1318   -5.9030    7.2864 C   0  0  0  0  0  0  0  0  0  0  0  0
  -30.9547   -5.4756    7.9270 C   0  0  0  0  0  0  0  0  0  0  0  0
  -29.7024   -5.7219    7.3345 C   0  0  0  0  0  0  0  0  0  0  0  0
  -27.9803   -5.8179    4.2210 C   0  0  2  0  0  0  0  0  0  0  0  0
  -26.8047   -4.1296    5.3951 O   0  0  0  0  0  0  0  0  0  0  0  0
  -29.1738   -1.2114    3.4904 C   0  0  0  0  0  0  0  0  0  0  0  0
  -26.3557   -0.3071    3.1613 O   0  0  0  0  0  0  0  0  0  0  0  0
  -27.9840   -2.0091    3.8994 C   0  0  2  0  0  0  0  0  0  0  0  0
  -26.5957   -2.2107    1.6710 C   0  0  0  0  0  0  0  0  0  0  0  0
  -26.6472   -1.7060    3.1358 C   0  0  1  0  0  0  0  0  0  0  0  0
  -29.1219   -0.4151    2.5229 O   0  0  0  0  0  0  0  0  0  0  0  0
  -31.2793    0.5405    5.2935 C   0  0  0  0  0  0  0  0  0  0  0  0
  -32.7637   -1.2565    4.3210 C   0  0  2  0  0  0  0  0  0  0  0  0
  -33.9017   -0.3980    4.3646 O   0  0  0  0  0  0  0  0  0  0  0  0
  -31.4532   -0.4375    4.1898 C   0  0  2  0  0  0  0  0  0  0  0  0
  -31.2277    0.1185    6.4750 O   0  0  0  0  0  0  0  0  0  0  0  0
  -31.2886    4.2123    5.6152 C   0  0  0  0  0  0  0  0  0  0  0  0
  -29.1629    2.8707    6.1113 C   0  0  1  0  0  0  0  0  0  0  0  0
  -28.6069    3.8660    7.1668 C   0  0  1  0  0  0  0  0  0  0  0  0
  -27.1612    3.6837    7.4057 C   0  0  0  0  0  0  0  0  0  0  0  0
  -26.2769    4.6679    7.1247 O   0  0  0  0  0  0  0  0  0  0  0  0
  -26.7266    2.6129    7.8871 O   0  0  0  0  0  0  0  0  0  0  0  0
  -30.7157    2.8758    5.9598 C   0  0  2  0  0  0  0  0  0  0  0  0
  -31.9426    4.8130    6.4989 O   0  0  0  0  0  0  0  0  0  0  0  0
  -29.5915    5.5725    2.8586 C   0  0  0  0  0  0  0  0  0  0  0  0
  -30.9405    2.3356    0.7716 C   0  0  0  0  0  0  0  0  0  0  0  0
  -31.7671    4.3767    2.1624 C   0  0  1  0  0  0  0  0  0  0  0  0
  -30.6085    4.5436    3.2002 C   0  0  2  0  0  0  0  0  0  0  0  0
  -32.5330    4.0397   -0.2600 C   0  0  0  0  0  0  0  0  0  0  0  0
  -31.3671    3.8315    0.7488 C   0  0  2  0  0  0  0  0  0  0  0  0
  -29.7741    6.3713    1.9088 O   0  0  0  0  0  0  0  0  0  0  0  0
  -26.2653    5.3506    2.8232 C   0  0  0  0  0  0  0  0  0  0  0  0
  -26.7708    7.2065    4.4635 C   0  0  2  0  0  0  0  0  0  0  0  0
  -25.5716    7.9081    4.1392 O   0  0  0  0  0  0  0  0  0  0  0  0
  -27.2557    6.3617    3.2596 C   0  0  2  0  0  0  0  0  0  0  0  0
  -25.7735    4.5540    3.6600 O   0  0  0  0  0  0  0  0  0  0  0  0
  -24.2710    4.9327   -0.0655 C   0  0  0  0  0  0  0  0  0  0  0  0
  -26.1872    3.2105    0.2424 C   0  0  2  0  0  0  0  0  0  0  0  0
  -25.5368    1.8948   -0.2638 C   0  0  1  0  0  0  0  0  0  0  0  0
  -26.5804    0.9381   -0.8949 C   0  0  2  0  0  0  0  0  0  0  0  0
  -25.9306   -0.1640   -1.4417 N   0  0  0  0  0  0  0  0  0  0  0  0
  -26.4323   -1.1765   -2.0526 C   0  0  0  0  0  0  0  0  0  0  0  0
  -27.7216   -1.3468   -2.2643 N   0  0  0  0  0  0  0  0  0  0  0  0
  -25.6019   -2.0895   -2.4954 N   0  0  0  0  0  0  0  0  0  0  0  0
  -25.1873    4.2326    0.8700 C   0  0  2  0  0  0  0  0  0  0  0  0
  -24.3219    4.7219   -1.3008 O   0  0  0  0  0  0  0  0  0  0  0  0
  -21.1109    6.1675    0.0894 C   0  0  0  0  0  0  0  0  0  0  0  0
  -22.2350    9.2240   -2.2310 C   0  0  0  0  0  0  0  0  0  0  0  0
  -22.7675    8.1550    0.0834 C   0  0  1  0  0  0  0  0  0  0  0  0
  -22.4652    6.6625   -0.2648 C   0  0  2  0  0  0  0  0  0  0  0  0
  -22.2243   10.6527   -0.1225 C   0  0  0  0  0  0  0  0  0  0  0  0
  -21.9503    9.2349   -0.7015 C   0  0  2  0  0  0  0  0  0  0  0  0
  -20.4488    6.7115    1.0053 O   0  0  0  0  0  0  0  0  0  0  0  0
  -18.6367    4.3215   -1.5141 C   0  0  0  0  0  0  0  0  0  0  0  0
  -19.9367    2.9165    0.2303 C   0  0  1  0  0  0  0  0  0  0  0  0
  -18.8132    2.0002    0.7890 C   0  0  1  0  0  0  0  0  0  0  0  0
  -19.3868    0.6802    1.3667 C   0  0  1  0  0  0  0  0  0  0  0  0
  -18.3697   -0.1033    1.9140 N   0  0  0  0  0  0  0  0  0  0  0  0
  -18.4796   -1.2306    2.5201 C   0  0  0  0  0  0  0  0  0  0  0  0
  -19.6333   -1.8376    2.7234 N   0  0  0  0  0  0  0  0  0  0  0  0
  -17.3863   -1.8039    2.9633 N   0  0  0  0  0  0  0  0  0  0  0  0
  -19.4610    4.3135   -0.2769 C   0  0  2  0  0  0  0  0  0  0  0  0
  -18.4101    3.2622   -2.1464 O   0  0  0  0  0  0  0  0  0  0  0  0
  -16.1445    6.3575   -2.9317 C   0  0  0  0  0  0  0  0  0  0  0  0
  -18.3941    6.7135   -4.0488 C   0  0  1  0  0  0  0  0  0  0  0  0
  -17.8909    7.0061   -5.4903 C   0  0  1  0  0  0  0  0  0  0  0  0
  -18.8965    7.7204   -6.3059 C   0  0  0  0  0  0  0  0  0  0  0  0
  -18.6432    8.9567   -6.7971 O   0  0  0  0  0  0  0  0  0  0  0  0
  -19.9997    7.1898   -6.5698 O   0  0  0  0  0  0  0  0  0  0  0  0
  -17.4798    5.7702   -3.2057 C   0  0  2  0  0  0  0  0  0  0  0  0
  -16.0899    7.4366   -2.2933 O   0  0  0  0  0  0  0  0  0  0  0  0
  -12.6208    5.3201   -3.1240 C   0  0  0  0  0  0  0  0  0  0  0  0
  -13.6901    6.3220   -3.3108 C   0  0  1  0  0  0  0  0  0  0  0  0
  -11.8334    5.0864   -4.0726 O   0  0  0  0  0  0  0  0  0  0  0  0
  -11.2012    2.6599   -2.2883 C   0  0  0  0  0  0  0  0  0  0  0  0
  -11.3406    3.6572   -0.0062 C   0  0  0  0  0  0  0  0  0  0  0  0
  -11.3052    3.9332   -1.5312 C   0  0  2  0  0  0  0  0  0  0  0  0
  -12.1671    1.8603   -2.2752 O   0  0  0  0  0  0  0  0  0  0  0  0
   -8.4250    0.6904   -3.0487 C   0  0  0  0  0  0  0  0  0  0  0  0
   -9.7547    1.3814   -5.1630 C   0  0  2  0  0  0  0  0  0  0  0  0
   -9.6405    0.0879   -6.0208 C   0  0  1  0  0  0  0  0  0  0  0  0
   -9.8330    0.3697   -7.5341 C   0  0  2  0  0  0  0  0  0  0  0  0
   -9.6428   -0.7999   -8.2715 N   0  0  0  0  0  0  0  0  0  0  0  0
   -9.7750   -0.9820   -9.5362 C   0  0  0  0  0  0  0  0  0  0  0  0
   -9.5261   -2.1769  -10.0161 N   0  0  0  0  0  0  0  0  0  0  0  0
  -10.1471   -0.0407  -10.3804 N   0  0  0  0  0  0  0  0  0  0  0  0
   -9.7231    1.1395   -3.6213 C   0  0  2  0  0  0  0  0  0  0  0  0
   -7.3873    0.6412   -3.7517 O   0  0  0  0  0  0  0  0  0  0  0  0
   -7.3657   -1.3613   -0.4966 C   0  0  0  0  0  0  0  0  0  0  0  0
   -4.5246    1.2565    0.4547 C   0  0  0  0  0  0  0  0  0  0  0  0
   -7.1168    1.1056    0.2101 C   0  0  1  0  0  0  0  0  0  0  0  0
   -7.2258    0.0510   -0.9378 C   0  0  2  0  0  0  0  0  0  0  0  0
   -6.0501    1.9240    2.3917 C   0  0  0  0  0  0  0  0  0  0  0  0
   -5.8809    0.9821    1.1650 C   0  0  2  0  0  0  0  0  0  0  0  0
   -7.7527   -1.6357    0.6648 O   0  0  0  0  0  0  0  0  0  0  0  0
   -5.6866   -4.2129   -1.1706 C   0  0  0  0  0  0  0  0  0  0  0  0
   -8.0367   -4.4353   -2.1966 C   0  0  1  0  0  0  0  0  0  0  0  0
   -8.2801   -5.9497   -1.9441 C   0  0  1  0  0  0  0  0  0  0  0  0
   -9.2447   -6.5236   -2.9063 C   0  0  0  0  0  0  0  0  0  0  0  0
  -10.5200   -6.0944   -2.9400 N   0  0  0  0  0  0  0  0  0  0  0  0
   -8.8983   -7.4222   -3.7064 O   0  0  0  0  0  0  0  0  0  0  0  0
   -7.1004   -3.7667   -1.1478 C   0  0  2  0  0  0  0  0  0  0  0  0
   -5.1909   -4.7426   -2.1941 O   0  0  0  0  0  0  0  0  0  0  0  0
   -3.2488   -5.1147    1.1165 C   0  0  0  0  0  0  0  0  0  0  0  0
   -2.9513   -2.6717    0.3028 C   0  0  2  0  0  0  0  0  0  0  0  0
   -1.4044   -2.5367    0.2390 C   0  0  1  0  0  0  0  0  0  0  0  0
   -0.9548   -1.0547    0.3347 C   0  0  2  0  0  0  0  0  0  0  0  0
    0.4328   -0.9581    0.2435 N   0  0  0  0  0  0  0  0  0  0  0  0
    1.1623    0.0999    0.2402 C   0  0  0  0  0  0  0  0  0  0  0  0
    0.6792    1.3212    0.3236 N   0  0  0  0  0  0  0  0  0  0  0  0
    2.4595   -0.0485    0.1458 N   0  0  0  0  0  0  0  0  0  0  0  0
   -3.5096   -4.1082    0.0564 C   0  0  2  0  0  0  0  0  0  0  0  0
   -2.6622   -4.7902    2.1765 O   0  0  0  0  0  0  0  0  0  0  0  0
   -2.6244   -8.4852    1.2155 C   0  0  0  0  0  0  0  0  0  0  0  0
   -6.4397   -9.7942    3.3580 C   0  0  0  0  0  0  0  0  0  0  0  0
   -4.9641   -8.0402    2.1941 C   0  0  2  0  0  0  0  0  0  0  0  0
   -3.5457   -7.4973    1.8298 C   0  0  2  0  0  0  0  0  0  0  0  0
   -4.5416   -8.7182    4.6796 C   0  0  0  0  0  0  0  0  0  0  0  0
   -5.0136   -9.1800    3.2709 C   0  0  1  0  0  0  0  0  0  0  0  0
   -3.0558   -9.5572    0.7262 O   0  0  0  0  0  0  0  0  0  0  0  0
    0.4975   -9.4049    2.0975 C   0  0  0  0  0  0  0  0  0  0  0  0
    1.4180  -10.5453   -1.5313 C   0  0  0  0  0  0  0  0  0  0  0  0
    0.6612   -8.4104   -0.2469 C   0  0  1  0  0  0  0  0  0  0  0  0
   -0.2256   -9.0833    0.8427 C   0  0  2  0  0  0  0  0  0  0  0  0
    2.8087   -8.4095   -1.6546 C   0  0  0  0  0  0  0  0  0  0  0  0
    1.8647   -9.2668   -0.7650 C   0  0  2  0  0  0  0  0  0  0  0  0
    1.1122   -8.4978    2.7096 O   0  0  0  0  0  0  0  0  0  0  0  0
    1.0627  -12.5910    3.8360 C   0  0  0  0  0  0  0  0  0  0  0  0
   -0.0409  -10.6631    5.0081 C   0  0  2  0  0  0  0  0  0  0  0  0
    0.5085  -10.9328    6.4387 C   0  0  1  0  0  0  0  0  0  0  0  0
   -0.4352  -10.5446    7.5096 C   0  0  0  0  0  0  0  0  0  0  0  0
   -0.8087   -9.2642    7.6821 N   0  0  0  0  0  0  0  0  0  0  0  0
   -0.8974  -11.4024    8.2961 O   0  0  0  0  0  0  0  0  0  0  0  0
    0.9273  -11.1117    3.8656 C   0  0  2  0  0  0  0  0  0  0  0  0
    0.1027  -13.2804    3.4126 O   0  0  0  0  0  0  0  0  0  0  0  0
    3.6797  -15.0135    3.8886 C   0  0  0  0  0  0  0  0  0  0  0  0
    2.3956  -14.5921    4.4802 C   0  0  1  0  0  0  0  0  0  0  0  0
    4.6764  -15.1376    4.6408 O   0  0  0  0  0  0  0  0  0  0  0  0
    5.8133  -14.6816    1.5334 C   0  0  0  0  0  0  0  0  0  0  0  0
    5.1075  -17.9986   -1.4702 C   0  0  0  0  0  0  0  0  0  0  0  0
    4.4887  -16.6458    0.6283 C   0  0  2  0  0  0  0  0  0  0  0  0
    4.9153  -15.8099    1.8782 C   0  0  2  0  0  0  0  0  0  0  0  0
    6.3292  -18.4982    0.7046 C   0  0  0  0  0  0  0  0  0  0  0  0
    5.6363  -17.3894   -0.1401 C   0  0  1  0  0  0  0  0  0  0  0  0
    5.4063  -13.7858    0.7548 O   0  0  0  0  0  0  0  0  0  0  0  0
    9.4160  -14.1755    2.0081 C   0  0  0  0  0  0  0  0  0  0  0  0
    8.5952  -11.1134    2.4387 C   0  0  0  0  0  0  0  0  0  0  0  0
    8.0488  -13.6058    1.8603 C   0  0  2  0  0  0  0  0  0  0  0  0
    7.8984  -12.7201    4.3100 C   0  0  0  0  0  0  0  0  0  0  0  0
    7.7623  -12.3775    2.7976 C   0  0  1  0  0  0  0  0  0  0  0  0
    9.6232  -15.2597    2.6010 O   0  0  0  0  0  0  0  0  0  0  0  0
  -20.8732   -9.3824   -1.8837 H   0  0  0  0  0  0  0  0  0  0  0  0
  -21.9212   -9.7980   -3.0809 H   0  0  0  0  0  0  0  0  0  0  0  0
  -21.6822  -12.5652   -0.8478 H   0  0  0  0  0  0  0  0  0  0  0  0
  -23.3445  -14.2377    1.8527 H   0  0  0  0  0  0  0  0  0  0  0  0
  -22.8962  -10.8192    2.5264 H   0  0  0  0  0  0  0  0  0  0  0  0
  -25.8112   -9.2611    1.9520 H   0  0  0  0  0  0  0  0  0  0  0  0
  -26.0751   -6.5931    4.1059 H   0  0  0  0  0  0  0  0  0  0  0  0
  -28.9663   -3.6776    3.1800 H   0  0  0  0  0  0  0  0  0  0  0  0
  -30.3077   -1.9737    4.9488 H   0  0  0  0  0  0  0  0  0  0  0  0
  -31.2126    2.1327    4.0886 H   0  0  0  0  0  0  0  0  0  0  0  0
  -31.6170    5.7890    4.4601 H   0  0  0  0  0  0  0  0  0  0  0  0
  -28.3750    5.0141    4.3397 H   0  0  0  0  0  0  0  0  0  0  0  0
  -26.3857    5.9076    0.9065 H   0  0  0  0  0  0  0  0  0  0  0  0
  -23.4008    5.9405    1.4235 H   0  0  0  0  0  0  0  0  0  0  0  0
  -21.2167    4.7156   -1.2701 H   0  0  0  0  0  0  0  0  0  0  0  0
  -18.3379    6.2936   -1.4058 H   0  0  0  0  0  0  0  0  0  0  0  0
  -15.0998    4.9078   -3.8538 H   0  0  0  0  0  0  0  0  0  0  0  0
  -13.1071    4.9040   -1.2240 H   0  0  0  0  0  0  0  0  0  0  0  0
   -9.3600    3.0570   -2.9618 H   0  0  0  0  0  0  0  0  0  0  0  0
   -9.2297    0.4026   -1.2431 H   0  0  0  0  0  0  0  0  0  0  0  0
   -6.7965   -2.0679   -2.2747 H   0  0  0  0  0  0  0  0  0  0  0  0
   -5.3923   -3.5924    0.7043 H   0  0  0  0  0  0  0  0  0  0  0  0
   -4.1183   -6.5829    0.0719 H   0  0  0  0  0  0  0  0  0  0  0  0
   -1.0337   -7.3288    1.5579 H   0  0  0  0  0  0  0  0  0  0  0  0
   -0.0359  -11.3267    2.0534 H   0  0  0  0  0  0  0  0  0  0  0  0
    2.8932  -12.5948    4.6457 H   0  0  0  0  0  0  0  0  0  0  0  0
    2.9656  -15.1354    2.0196 H   0  0  0  0  0  0  0  0  0  0  0  0
    7.3010  -15.3512    2.6817 H   0  0  0  0  0  0  0  0  0  0  0  0
   11.3701  -13.9467    1.5928 H   0  0  0  0  0  0  0  0  0  0  0  0
   10.3883  -12.7192    1.0067 H   0  0  0  0  0  0  0  0  0  0  0  0
  -18.9056  -11.5496   -4.0771 H   0  0  0  0  0  0  0  0  0  0  0  0
  -18.7881  -10.0122   -3.2159 H   0  0  0  0  0  0  0  0  0  0  0  0
  -19.0289   -8.1619   -5.0483 H   0  0  0  0  0  0  0  0  0  0  0  0
  -22.1438   -9.6571   -7.2360 H   0  0  0  0  0  0  0  0  0  0  0  0
  -21.5678  -11.3333   -5.4841 H   0  0  0  0  0  0  0  0  0  0  0  0
  -21.1224  -12.0018   -3.1391 H   0  0  0  0  0  0  0  0  0  0  0  0
  -21.1320  -10.8687    1.6225 H   0  0  0  0  0  0  0  0  0  0  0  0
  -19.3900  -10.9827    1.3875 H   0  0  0  0  0  0  0  0  0  0  0  0
  -19.9962  -11.0298    3.5394 H   0  0  0  0  0  0  0  0  0  0  0  0
  -19.5091  -13.3242    0.7906 H   0  0  0  0  0  0  0  0  0  0  0  0
  -25.1596  -13.9714    0.1306 H   0  0  0  0  0  0  0  0  0  0  0  0
  -23.8535  -13.7016   -1.0228 H   0  0  0  0  0  0  0  0  0  0  0  0
  -27.1455  -13.0844   -0.5669 H   0  0  0  0  0  0  0  0  0  0  0  0
  -23.0803  -11.7338    0.3358 H   0  0  0  0  0  0  0  0  0  0  0  0
  -25.4046  -10.6188    4.0547 H   0  0  0  0  0  0  0  0  0  0  0  0
  -23.7670  -10.3578    4.6536 H   0  0  0  0  0  0  0  0  0  0  0  0
  -24.8205   -5.6123   -0.1463 H   0  0  0  0  0  0  0  0  0  0  0  0
  -24.6564   -6.5742    1.9962 H   0  0  0  0  0  0  0  0  0  0  0  0
  -27.4021   -8.1531   -0.3010 H   0  0  0  0  0  0  0  0  0  0  0  0
  -26.1934   -8.5396   -1.5316 H   0  0  0  0  0  0  0  0  0  0  0  0
  -26.2347   -9.4511   -0.0233 H   0  0  0  0  0  0  0  0  0  0  0  0
  -24.3645   -7.7883   -0.0682 H   0  0  0  0  0  0  0  0  0  0  0  0
  -27.4853   -6.5811    6.2025 H   0  0  0  0  0  0  0  0  0  0  0  0
  -28.2863   -7.7500    5.1825 H   0  0  0  0  0  0  0  0  0  0  0  0
  -30.7686   -7.3132    4.5655 H   0  0  0  0  0  0  0  0  0  0  0  0
  -32.9135   -6.8793    5.5855 H   0  0  0  0  0  0  0  0  0  0  0  0
  -33.0417   -5.7285    7.7166 H   0  0  0  0  0  0  0  0  0  0  0  0
  -31.0078   -4.9878    8.8245 H   0  0  0  0  0  0  0  0  0  0  0  0
  -28.8568   -5.4040    7.8132 H   0  0  0  0  0  0  0  0  0  0  0  0
  -28.8510   -5.8593    3.5597 H   0  0  0  0  0  0  0  0  0  0  0  0
  -26.3204   -0.0670    4.1117 H   0  0  0  0  0  0  0  0  0  0  0  0
  -27.8116   -1.7426    4.9470 H   0  0  0  0  0  0  0  0  0  0  0  0
  -26.7527   -3.2902    1.6272 H   0  0  0  0  0  0  0  0  0  0  0  0
  -27.3564   -1.7205    1.0635 H   0  0  0  0  0  0  0  0  0  0  0  0
  -25.6153   -1.9964    1.2408 H   0  0  0  0  0  0  0  0  0  0  0  0
  -25.8295   -2.1989    3.6685 H   0  0  0  0  0  0  0  0  0  0  0  0
  -32.8719   -1.9212    3.4611 H   0  0  0  0  0  0  0  0  0  0  0  0
  -32.7482   -1.8669    5.2267 H   0  0  0  0  0  0  0  0  0  0  0  0
  -34.6727   -0.9948    4.4704 H   0  0  0  0  0  0  0  0  0  0  0  0
  -31.4957    0.0941    3.2332 H   0  0  0  0  0  0  0  0  0  0  0  0
  -28.6890    3.0787    5.1512 H   0  0  0  0  0  0  0  0  0  0  0  0
  -28.8644    1.8600    6.4045 H   0  0  0  0  0  0  0  0  0  0  0  0
  -28.7862    4.8887    6.8268 H   0  0  0  0  0  0  0  0  0  0  0  0
  -29.1290    3.7278    8.1167 H   0  0  0  0  0  0  0  0  0  0  0  0
  -25.3177    4.5310    7.2748 H   0  0  0  0  0  0  0  0  0  0  0  0
  -31.1180    2.5952    6.9414 H   0  0  0  0  0  0  0  0  0  0  0  0
  -30.6814    1.9954   -0.2338 H   0  0  0  0  0  0  0  0  0  0  0  0
  -30.0633    2.1894    1.4020 H   0  0  0  0  0  0  0  0  0  0  0  0
  -31.7535    1.7122    1.1489 H   0  0  0  0  0  0  0  0  0  0  0  0
  -32.5201    3.6994    2.5799 H   0  0  0  0  0  0  0  0  0  0  0  0
  -32.2551    5.3505    2.0449 H   0  0  0  0  0  0  0  0  0  0  0  0
  -30.0878    3.5918    3.2769 H   0  0  0  0  0  0  0  0  0  0  0  0
  -32.7738    5.1016   -0.3467 H   0  0  0  0  0  0  0  0  0  0  0  0
  -32.2551    3.6783   -1.2525 H   0  0  0  0  0  0  0  0  0  0  0  0
  -33.4276    3.5053    0.0697 H   0  0  0  0  0  0  0  0  0  0  0  0
  -30.5185    4.4079    0.3716 H   0  0  0  0  0  0  0  0  0  0  0  0
  -27.5378    7.9343    4.7365 H   0  0  0  0  0  0  0  0  0  0  0  0
  -26.5799    6.5695    5.3268 H   0  0  0  0  0  0  0  0  0  0  0  0
  -25.3142    8.3667    4.9670 H   0  0  0  0  0  0  0  0  0  0  0  0
  -27.4466    7.0613    2.4383 H   0  0  0  0  0  0  0  0  0  0  0  0
  -26.9257    2.9374    1.0041 H   0  0  0  0  0  0  0  0  0  0  0  0
  -26.7276    3.6946   -0.5776 H   0  0  0  0  0  0  0  0  0  0  0  0
  -24.7700    2.1289   -1.0073 H   0  0  0  0  0  0  0  0  0  0  0  0
  -25.0496    1.3894    0.5760 H   0  0  0  0  0  0  0  0  0  0  0  0
  -27.1288    1.4634   -1.6835 H   0  0  0  0  0  0  0  0  0  0  0  0
  -27.2925    0.6129   -0.1302 H   0  0  0  0  0  0  0  0  0  0  0  0
  -28.0368   -2.1343   -2.7353 H   0  0  0  0  0  0  0  0  0  0  0  0
  -28.3596   -0.6885   -1.9518 H   0  0  0  0  0  0  0  0  0  0  0  0
  -25.9400   -2.8679   -2.9643 H   0  0  0  0  0  0  0  0  0  0  0  0
  -24.6465   -1.9874   -2.3598 H   0  0  0  0  0  0  0  0  0  0  0  0
  -24.5690    3.7025    1.6015 H   0  0  0  0  0  0  0  0  0  0  0  0
  -21.7155   10.0459   -2.7280 H   0  0  0  0  0  0  0  0  0  0  0  0
  -21.8816    8.2978   -2.6832 H   0  0  0  0  0  0  0  0  0  0  0  0
  -23.3050    9.3244   -2.4229 H   0  0  0  0  0  0  0  0  0  0  0  0
  -23.8317    8.3414   -0.0980 H   0  0  0  0  0  0  0  0  0  0  0  0
  -22.6030    8.2941    1.1564 H   0  0  0  0  0  0  0  0  0  0  0  0
  -22.6067    6.5358   -1.3400 H   0  0  0  0  0  0  0  0  0  0  0  0
  -21.9617   10.6896    0.9364 H   0  0  0  0  0  0  0  0  0  0  0  0
  -21.6236   11.4032   -0.6403 H   0  0  0  0  0  0  0  0  0  0  0  0
  -23.2784   10.9185   -0.2297 H   0  0  0  0  0  0  0  0  0  0  0  0
  -20.8856    9.0315   -0.5588 H   0  0  0  0  0  0  0  0  0  0  0  0
  -20.4615    2.3902   -0.5731 H   0  0  0  0  0  0  0  0  0  0  0  0
  -20.6609    3.0772    1.0373 H   0  0  0  0  0  0  0  0  0  0  0  0
  -18.1016    1.7559   -0.0040 H   0  0  0  0  0  0  0  0  0  0  0  0
  -18.2717    2.5324    1.5771 H   0  0  0  0  0  0  0  0  0  0  0  0
  -20.1217    0.9154    2.1443 H   0  0  0  0  0  0  0  0  0  0  0  0
  -19.8887    0.1217    0.5683 H   0  0  0  0  0  0  0  0  0  0  0  0
  -19.6615   -2.6854    3.1935 H   0  0  0  0  0  0  0  0  0  0  0  0
  -20.4569   -1.4377    2.4006 H   0  0  0  0  0  0  0  0  0  0  0  0
  -17.4398   -2.6509    3.4313 H   0  0  0  0  0  0  0  0  0  0  0  0
  -16.5237   -1.3823    2.8268 H   0  0  0  0  0  0  0  0  0  0  0  0
  -18.8757    4.7804    0.5224 H   0  0  0  0  0  0  0  0  0  0  0  0
  -18.5285    7.6664   -3.5254 H   0  0  0  0  0  0  0  0  0  0  0  0
  -19.3785    6.2391   -4.1184 H   0  0  0  0  0  0  0  0  0  0  0  0
  -16.9809    7.6107   -5.4353 H   0  0  0  0  0  0  0  0  0  0  0  0
  -17.6447    6.0697   -5.9952 H   0  0  0  0  0  0  0  0  0  0  0  0
  -19.3131    9.4201   -7.3444 H   0  0  0  0  0  0  0  0  0  0  0  0
  -17.3505    4.8419   -3.7720 H   0  0  0  0  0  0  0  0  0  0  0  0
  -13.5138    6.8689   -4.2406 H   0  0  0  0  0  0  0  0  0  0  0  0
  -13.6136    7.0441   -2.4954 H   0  0  0  0  0  0  0  0  0  0  0  0
  -11.3083    4.5995    0.5445 H   0  0  0  0  0  0  0  0  0  0  0  0
  -12.2519    3.1227    0.2727 H   0  0  0  0  0  0  0  0  0  0  0  0
  -10.4771    3.0583    0.2951 H   0  0  0  0  0  0  0  0  0  0  0  0
  -10.4092    4.5390   -1.7127 H   0  0  0  0  0  0  0  0  0  0  0  0
  -10.7053    1.8639   -5.4111 H   0  0  0  0  0  0  0  0  0  0  0  0
   -8.9548    2.0742   -5.4435 H   0  0  0  0  0  0  0  0  0  0  0  0
   -8.6588   -0.3684   -5.8646 H   0  0  0  0  0  0  0  0  0  0  0  0
  -10.4020   -0.6300   -5.6979 H   0  0  0  0  0  0  0  0  0  0  0  0
   -9.1134    1.1282   -7.8606 H   0  0  0  0  0  0  0  0  0  0  0  0
  -10.8461    0.7517   -7.7006 H   0  0  0  0  0  0  0  0  0  0  0  0
   -9.6242   -2.3471  -10.9655 H   0  0  0  0  0  0  0  0  0  0  0  0
   -9.2404   -2.8918   -9.4265 H   0  0  0  0  0  0  0  0  0  0  0  0
  -10.3414    0.8539  -10.0613 H   0  0  0  0  0  0  0  0  0  0  0  0
  -10.2333   -0.2447  -11.3243 H   0  0  0  0  0  0  0  0  0  0  0  0
  -10.4656    0.3689   -3.3935 H   0  0  0  0  0  0  0  0  0  0  0  0
   -3.6997    1.2059    1.1690 H   0  0  0  0  0  0  0  0  0  0  0  0
   -4.3338    0.5104   -0.3159 H   0  0  0  0  0  0  0  0  0  0  0  0
   -4.5237    2.2458   -0.0070 H   0  0  0  0  0  0  0  0  0  0  0  0
   -7.0981    2.1042   -0.2381 H   0  0  0  0  0  0  0  0  0  0  0  0
   -8.0330    1.0469    0.8074 H   0  0  0  0  0  0  0  0  0  0  0  0
   -6.3188    0.1303   -1.5414 H   0  0  0  0  0  0  0  0  0  0  0  0
   -6.9598    1.6712    2.9408 H   0  0  0  0  0  0  0  0  0  0  0  0
   -5.2077    1.8199    3.0791 H   0  0  0  0  0  0  0  0  0  0  0  0
   -6.1137    2.9674    2.0736 H   0  0  0  0  0  0  0  0  0  0  0  0
   -5.8414   -0.0367    1.5580 H   0  0  0  0  0  0  0  0  0  0  0  0
   -7.6278   -4.2982   -3.2025 H   0  0  0  0  0  0  0  0  0  0  0  0
   -8.9997   -3.9167   -2.1616 H   0  0  0  0  0  0  0  0  0  0  0  0
   -7.3301   -6.4873   -2.0132 H   0  0  0  0  0  0  0  0  0  0  0  0
   -8.6704   -6.0985   -0.9341 H   0  0  0  0  0  0  0  0  0  0  0  0
  -11.1461   -6.4703   -3.5785 H   0  0  0  0  0  0  0  0  0  0  0  0
  -10.8141   -5.4011   -2.3285 H   0  0  0  0  0  0  0  0  0  0  0  0
   -7.5104   -3.9921   -0.1582 H   0  0  0  0  0  0  0  0  0  0  0  0
   -3.3692   -2.0169   -0.4691 H   0  0  0  0  0  0  0  0  0  0  0  0
   -3.3052   -2.2995    1.2697 H   0  0  0  0  0  0  0  0  0  0  0  0
   -0.9482   -3.1005    1.0569 H   0  0  0  0  0  0  0  0  0  0  0  0
   -1.0450   -2.9593   -0.7039 H   0  0  0  0  0  0  0  0  0  0  0  0
   -1.2925   -0.6314    1.2870 H   0  0  0  0  0  0  0  0  0  0  0  0
   -1.4113   -0.4855   -0.4822 H   0  0  0  0  0  0  0  0  0  0  0  0
   -0.2785    1.4577    0.3898 H   0  0  0  0  0  0  0  0  0  0  0  0
    1.2798    2.0842    0.3173 H   0  0  0  0  0  0  0  0  0  0  0  0
    2.8416   -0.9371    0.0895 H   0  0  0  0  0  0  0  0  0  0  0  0
    3.0377    0.7303    0.1333 H   0  0  0  0  0  0  0  0  0  0  0  0
   -3.0683   -4.4816   -0.8725 H   0  0  0  0  0  0  0  0  0  0  0  0
   -7.1660   -9.0429    3.6762 H   0  0  0  0  0  0  0  0  0  0  0  0
   -6.4596  -10.6221    4.0705 H   0  0  0  0  0  0  0  0  0  0  0  0
   -6.7451  -10.1864    2.3855 H   0  0  0  0  0  0  0  0  0  0  0  0
   -5.4341   -8.3976    1.2731 H   0  0  0  0  0  0  0  0  0  0  0  0
   -5.5719   -7.2045    2.5555 H   0  0  0  0  0  0  0  0  0  0  0  0
   -3.0844   -7.1618    2.7608 H   0  0  0  0  0  0  0  0  0  0  0  0
   -5.1296   -7.8642    5.0211 H   0  0  0  0  0  0  0  0  0  0  0  0
   -3.4890   -8.4365    4.6631 H   0  0  0  0  0  0  0  0  0  0  0  0
   -4.6482   -9.5269    5.4061 H   0  0  0  0  0  0  0  0  0  0  0  0
   -4.3496   -9.9893    2.9575 H   0  0  0  0  0  0  0  0  0  0  0  0
    2.2864  -11.0954   -1.8995 H   0  0  0  0  0  0  0  0  0  0  0  0
    0.8632  -11.2173   -0.8770 H   0  0  0  0  0  0  0  0  0  0  0  0
    0.7857  -10.2830   -2.3818 H   0  0  0  0  0  0  0  0  0  0  0  0
    0.0241   -8.1557   -1.1012 H   0  0  0  0  0  0  0  0  0  0  0  0
    1.0415   -7.4676    0.1584 H   0  0  0  0  0  0  0  0  0  0  0  0
   -0.6373  -10.0029    0.4186 H   0  0  0  0  0  0  0  0  0  0  0  0
    3.1766   -7.5466   -1.0952 H   0  0  0  0  0  0  0  0  0  0  0  0
    3.6742   -8.9958   -1.9705 H   0  0  0  0  0  0  0  0  0  0  0  0
    2.2849   -8.0525   -2.5442 H   0  0  0  0  0  0  0  0  0  0  0  0
    2.4543   -9.5876    0.0984 H   0  0  0  0  0  0  0  0  0  0  0  0
   -0.2230   -9.5886    4.9115 H   0  0  0  0  0  0  0  0  0  0  0  0
   -1.0070  -11.1646    4.8902 H   0  0  0  0  0  0  0  0  0  0  0  0
    0.7414  -11.9963    6.5401 H   0  0  0  0  0  0  0  0  0  0  0  0
    1.4378  -10.3768    6.5814 H   0  0  0  0  0  0  0  0  0  0  0  0
   -1.4209   -9.0284    8.3971 H   0  0  0  0  0  0  0  0  0  0  0  0
   -0.4659   -8.5734    7.0940 H   0  0  0  0  0  0  0  0  0  0  0  0
    1.9137  -10.6654    4.0392 H   0  0  0  0  0  0  0  0  0  0  0  0
    2.3968  -14.8098    5.5505 H   0  0  0  0  0  0  0  0  0  0  0  0
    1.5896  -15.1850    4.0417 H   0  0  0  0  0  0  0  0  0  0  0  0
    4.3405  -18.7500   -1.2725 H   0  0  0  0  0  0  0  0  0  0  0  0
    5.9201  -18.4711   -2.0261 H   0  0  0  0  0  0  0  0  0  0  0  0
    4.6788  -17.2214   -2.1054 H   0  0  0  0  0  0  0  0  0  0  0  0
    3.9723  -15.9769   -0.0670 H   0  0  0  0  0  0  0  0  0  0  0  0
    3.7550  -17.3900    0.9478 H   0  0  0  0  0  0  0  0  0  0  0  0
    5.4259  -16.4916    2.5645 H   0  0  0  0  0  0  0  0  0  0  0  0
    5.6029  -19.2444    1.0321 H   0  0  0  0  0  0  0  0  0  0  0  0
    6.8168  -18.0760    1.5824 H   0  0  0  0  0  0  0  0  0  0  0  0
    7.0997  -19.0020    0.1171 H   0  0  0  0  0  0  0  0  0  0  0  0
    6.3994  -16.6557   -0.4131 H   0  0  0  0  0  0  0  0  0  0  0  0
    9.6493  -11.2538    2.6824 H   0  0  0  0  0  0  0  0  0  0  0  0
    8.2298  -10.2502    2.9990 H   0  0  0  0  0  0  0  0  0  0  0  0
    8.5074  -10.8853    1.3743 H   0  0  0  0  0  0  0  0  0  0  0  0
    7.9650  -13.2799    0.8179 H   0  0  0  0  0  0  0  0  0  0  0  0
    8.9345  -12.9524    4.5650 H   0  0  0  0  0  0  0  0  0  0  0  0
    7.2777  -13.5801    4.5677 H   0  0  0  0  0  0  0  0  0  0  0  0
    7.5725  -11.8764    4.9216 H   0  0  0  0  0  0  0  0  0  0  0  0
    6.7170  -12.0915    2.6362 H   0  0  0  0  0  0  0  0  0  0  0  0
 29  2  1  0  0  0  0 
 38  3  1  0  0  0  0 
 43  4  1  0  0  0  0 
 50  5  1  0  0  0  0 
 53  6  1  0  0  0  0 
 59  7  1  0  0  0  0 
 69  8  1  0  0  0  0 
 75  9  1  0  0  0  0 
 80 10  1  0  0  0  0 
 88 11  1  0  0  0  0 
 95 12  1  0  0  0  0 
100 13  1  0  0  0  0 
110 14  1  0  0  0  0 
117 15  1  0  0  0  0 
127 16  1  0  0  0  0 
135 17  1  0  0  0  0 
138 18  1  0  0  0  0 
142 19  1  0  0  0  0 
152 20  1  0  0  0  0 
159 21  1  0  0  0  0 
167 22  1  0  0  0  0 
177 23  1  0  0  0  0 
184 24  1  0  0  0  0 
191 25  1  0  0  0  0 
199 26  1  0  0  0  0 
202 27  1  0  0  0  0 
209 28  1  0  0  0  0 
 36  1  1  0  0  0  0 
 36 30  1  0  0  0  0 
 30 31  1  0  0  0  0 
 31 32  2  0  0  0  0 
 32 33  1  0  0  0  0 
 33 34  2  0  0  0  0 
 34 35  1  0  0  0  0 
 31 35  1  0  0  0  0 
 36 29  1  0  0  0  0 
 29 37  2  0  0  0  0 
 41  2  1  0  0  0  0 
 41 39  1  0  0  0  0 
 39 40  1  0  0  0  0 
 41 38  1  0  0  0  0 
 38 42  2  0  0  0  0 
 48  3  1  0  0  0  0 
 48 44  1  0  0  0  0 
 44 45  1  0  0  0  0 
 45 46  1  0  0  0  0 
 45 47  2  0  0  0  0 
 48 43  1  0  0  0  0 
 43 49  2  0  0  0  0 
  4 51  1  0  0  0  0 
 51 50  1  0  0  0  0 
 50 52  2  0  0  0  0 
 57 56  1  0  0  0  0 
 57 54  1  0  0  0  0 
 55 57  1  0  0  0  0 
 55  5  1  0  0  0  0 
 55 53  1  0  0  0  0 
 53 58  2  0  0  0  0 
 67  6  1  0  0  0  0 
 67 60  1  0  0  0  0 
 60 61  1  0  0  0  0 
 61 62  2  0  0  0  0 
 62 63  1  0  0  0  0 
 63 64  2  0  0  0  0 
 64 65  1  0  0  0  0 
 65 66  2  0  0  0  0 
 61 66  1  0  0  0  0 
 67 59  1  0  0  0  0 
 59 68  2  0  0  0  0 
 73 72  1  0  0  0  0 
 73 70  1  0  0  0  0 
 71 73  1  0  0  0  0 
 71  7  1  0  0  0  0 
 71 69  1  0  0  0  0 
 69 74  2  0  0  0  0 
 78  8  1  0  0  0  0 
 78 76  1  0  0  0  0 
 76 77  1  0  0  0  0 
 78 75  1  0  0  0  0 
 75 79  2  0  0  0  0 
 86  9  1  0  0  0  0 
 86 81  1  0  0  0  0 
 81 82  1  0  0  0  0 
 82 83  1  0  0  0  0 
 83 84  1  0  0  0  0 
 83 85  2  0  0  0  0 
 86 80  1  0  0  0  0 
 80 87  2  0  0  0  0 
 92 93  1  0  0  0  0 
 93 89  1  0  0  0  0 
 93 90  1  0  0  0  0 
 91 90  1  0  0  0  0 
 91 10  1  0  0  0  0 
 91 88  1  0  0  0  0 
 88 94  2  0  0  0  0 
 98 11  1  0  0  0  0 
 98 96  1  0  0  0  0 
 96 97  1  0  0  0  0 
 98 95  1  0  0  0  0 
 95 99  2  0  0  0  0 
108 12  1  0  0  0  0 
108101  1  0  0  0  0 
101102  1  0  0  0  0 
102103  1  0  0  0  0 
103104  1  0  0  0  0 
104105  2  0  0  0  0 
105106  1  0  0  0  0 
105107  1  0  0  0  0 
108100  1  0  0  0  0 
100109  2  0  0  0  0 
114115  1  0  0  0  0 
115111  1  0  0  0  0 
115112  1  0  0  0  0 
113112  1  0  0  0  0 
113 13  1  0  0  0  0 
113110  1  0  0  0  0 
110116  2  0  0  0  0 
125 14  1  0  0  0  0 
125118  1  0  0  0  0 
118119  1  0  0  0  0 
119120  1  0  0  0  0 
120121  1  0  0  0  0 
121122  2  0  0  0  0 
122123  1  0  0  0  0 
122124  1  0  0  0  0 
125117  1  0  0  0  0 
117126  2  0  0  0  0 
133 15  1  0  0  0  0 
133128  1  0  0  0  0 
128129  1  0  0  0  0 
129130  1  0  0  0  0 
130131  1  0  0  0  0 
130132  2  0  0  0  0 
133127  1  0  0  0  0 
127134  2  0  0  0  0 
 16136  1  0  0  0  0 
136135  1  0  0  0  0 
135137  2  0  0  0  0 
140139  1  0  0  0  0 
140 17  1  0  0  0  0 
140138  1  0  0  0  0 
138141  2  0  0  0  0 
150 18  1  0  0  0  0 
150143  1  0  0  0  0 
143144  1  0  0  0  0 
144145  1  0  0  0  0 
145146  1  0  0  0  0 
146147  2  0  0  0  0 
147148  1  0  0  0  0 
147149  1  0  0  0  0 
150142  1  0  0  0  0 
142151  2  0  0  0  0 
156157  1  0  0  0  0 
157153  1  0  0  0  0 
157154  1  0  0  0  0 
155154  1  0  0  0  0 
155 19  1  0  0  0  0 
155152  1  0  0  0  0 
152158  2  0  0  0  0 
165 20  1  0  0  0  0 
165160  1  0  0  0  0 
160161  1  0  0  0  0 
161162  1  0  0  0  0 
162163  1  0  0  0  0 
162164  2  0  0  0  0 
165159  1  0  0  0  0 
159166  2  0  0  0  0 
175 21  1  0  0  0  0 
175168  1  0  0  0  0 
168169  1  0  0  0  0 
169170  1  0  0  0  0 
170171  1  0  0  0  0 
171172  2  0  0  0  0 
172173  1  0  0  0  0 
172174  1  0  0  0  0 
175167  1  0  0  0  0 
167176  2  0  0  0  0 
181182  1  0  0  0  0 
182178  1  0  0  0  0 
182179  1  0  0  0  0 
180179  1  0  0  0  0 
180 22  1  0  0  0  0 
180177  1  0  0  0  0 
177183  2  0  0  0  0 
188189  1  0  0  0  0 
189185  1  0  0  0  0 
189186  1  0  0  0  0 
187186  1  0  0  0  0 
187 23  1  0  0  0  0 
187184  1  0  0  0  0 
184190  2  0  0  0  0 
197 24  1  0  0  0  0 
197192  1  0  0  0  0 
192193  1  0  0  0  0 
193194  1  0  0  0  0 
194195  1  0  0  0  0 
194196  2  0  0  0  0 
197191  1  0  0  0  0 
191198  2  0  0  0  0 
 25200  1  0  0  0  0 
200199  1  0  0  0  0 
199201  2  0  0  0  0 
206207  1  0  0  0  0 
207203  1  0  0  0  0 
207204  1  0  0  0  0 
205204  1  0  0  0  0 
205 26  1  0  0  0  0 
205202  1  0  0  0  0 
202208  2  0  0  0  0 
212213  1  0  0  0  0 
213210  1  0  0  0  0 
211213  1  0  0  0  0 
211 27  1  0  0  0  0 
211209  1  0  0  0  0 
209214  2  0  0  0  0 
215  1  1  0  0  0  0 
216  1  1  0  0  0  0 
217  2  1  0  0  0  0 
218  3  1  0  0  0  0 
219  4  1  0  0  0  0 
220  5  1  0  0  0  0 
221  6  1  0  0  0  0 
222  7  1  0  0  0  0 
223  8  1  0  0  0  0 
224  9  1  0  0  0  0 
225 10  1  0  0  0  0 
226 11  1  0  0  0  0 
227 12  1  0  0  0  0 
228 13  1  0  0  0  0 
229 14  1  0  0  0  0 
230 15  1  0  0  0  0 
231 16  1  0  0  0  0 
232 17  1  0  0  0  0 
233 18  1  0  0  0  0 
234 19  1  0  0  0  0 
235 20  1  0  0  0  0 
236 21  1  0  0  0  0 
237 22  1  0  0  0  0 
238 23  1  0  0  0  0 
239 24  1  0  0  0  0 
240 25  1  0  0  0  0 
241 26  1  0  0  0  0 
242 27  1  0  0  0  0 
243 28  1  0  0  0  0 
244 28  1  0  0  0  0 
245 30  1  0  0  0  0 
246 30  1  0  0  0  0 
247 32  1  0  0  0  0 
248 34  1  0  0  0  0 
249 35  1  0  0  0  0 
 36250  1  0  0  0  0 
251 39  1  0  0  0  0 
252 39  1  0  0  0  0 
253 40  1  0  0  0  0 
 41254  1  0  0  0  0 
255 44  1  0  0  0  0 
256 44  1  0  0  0  0 
257 46  1  0  0  0  0 
 48258  1  0  0  0  0 
259 51  1  0  0  0  0 
260 51  1  0  0  0  0 
261 54  1  0  0  0  0 
 55262  1  0  0  0  0 
263 56  1  0  0  0  0 
264 56  1  0  0  0  0 
265 56  1  0  0  0  0 
 57266  1  0  0  0  0 
267 60  1  0  0  0  0 
268 60  1  0  0  0  0 
269 62  1  0  0  0  0 
270 63  1  0  0  0  0 
271 64  1  0  0  0  0 
272 65  1  0  0  0  0 
273 66  1  0  0  0  0 
 67274  1  0  0  0  0 
275 70  1  0  0  0  0 
 71276  1  0  0  0  0 
277 72  1  0  0  0  0 
278 72  1  0  0  0  0 
279 72  1  0  0  0  0 
 73280  1  0  0  0  0 
281 76  1  0  0  0  0 
282 76  1  0  0  0  0 
283 77  1  0  0  0  0 
 78284  1  0  0  0  0 
285 81  1  0  0  0  0 
286 81  1  0  0  0  0 
287 82  1  0  0  0  0 
288 82  1  0  0  0  0 
289 84  1  0  0  0  0 
 86290  1  0  0  0  0 
291 89  1  0  0  0  0 
292 89  1  0  0  0  0 
293 89  1  0  0  0  0 
294 90  1  0  0  0  0 
295 90  1  0  0  0  0 
 91296  1  0  0  0  0 
297 92  1  0  0  0  0 
298 92  1  0  0  0  0 
299 92  1  0  0  0  0 
300 93  1  0  0  0  0 
301 96  1  0  0  0  0 
302 96  1  0  0  0  0 
303 97  1  0  0  0  0 
 98304  1  0  0  0  0 
305101  1  0  0  0  0 
306101  1  0  0  0  0 
307102  1  0  0  0  0 
308102  1  0  0  0  0 
309103  1  0  0  0  0 
310103  1  0  0  0  0 
311106  1  0  0  0  0 
312106  1  0  0  0  0 
313107  1  0  0  0  0 
314107  1  0  0  0  0 
108315  1  0  0  0  0 
316111  1  0  0  0  0 
317111  1  0  0  0  0 
318111  1  0  0  0  0 
319112  1  0  0  0  0 
320112  1  0  0  0  0 
113321  1  0  0  0  0 
322114  1  0  0  0  0 
323114  1  0  0  0  0 
324114  1  0  0  0  0 
325115  1  0  0  0  0 
326118  1  0  0  0  0 
327118  1  0  0  0  0 
328119  1  0  0  0  0 
329119  1  0  0  0  0 
330120  1  0  0  0  0 
331120  1  0  0  0  0 
332123  1  0  0  0  0 
333123  1  0  0  0  0 
334124  1  0  0  0  0 
335124  1  0  0  0  0 
125336  1  0  0  0  0 
337128  1  0  0  0  0 
338128  1  0  0  0  0 
339129  1  0  0  0  0 
340129  1  0  0  0  0 
341131  1  0  0  0  0 
133342  1  0  0  0  0 
343136  1  0  0  0  0 
344136  1  0  0  0  0 
345139  1  0  0  0  0 
346139  1  0  0  0  0 
347139  1  0  0  0  0 
140348  1  0  0  0  0 
349143  1  0  0  0  0 
350143  1  0  0  0  0 
351144  1  0  0  0  0 
352144  1  0  0  0  0 
353145  1  0  0  0  0 
354145  1  0  0  0  0 
355148  1  0  0  0  0 
356148  1  0  0  0  0 
357149  1  0  0  0  0 
358149  1  0  0  0  0 
150359  1  0  0  0  0 
360153  1  0  0  0  0 
361153  1  0  0  0  0 
362153  1  0  0  0  0 
363154  1  0  0  0  0 
364154  1  0  0  0  0 
155365  1  0  0  0  0 
366156  1  0  0  0  0 
367156  1  0  0  0  0 
368156  1  0  0  0  0 
369157  1  0  0  0  0 
370160  1  0  0  0  0 
371160  1  0  0  0  0 
372161  1  0  0  0  0 
373161  1  0  0  0  0 
374163  1  0  0  0  0 
375163  1  0  0  0  0 
165376  1  0  0  0  0 
377168  1  0  0  0  0 
378168  1  0  0  0  0 
379169  1  0  0  0  0 
380169  1  0  0  0  0 
381170  1  0  0  0  0 
382170  1  0  0  0  0 
383173  1  0  0  0  0 
384173  1  0  0  0  0 
385174  1  0  0  0  0 
386174  1  0  0  0  0 
175387  1  0  0  0  0 
388178  1  0  0  0  0 
389178  1  0  0  0  0 
390178  1  0  0  0  0 
391179  1  0  0  0  0 
392179  1  0  0  0  0 
180393  1  0  0  0  0 
394181  1  0  0  0  0 
395181  1  0  0  0  0 
396181  1  0  0  0  0 
397182  1  0  0  0  0 
398185  1  0  0  0  0 
399185  1  0  0  0  0 
400185  1  0  0  0  0 
401186  1  0  0  0  0 
402186  1  0  0  0  0 
187403  1  0  0  0  0 
404188  1  0  0  0  0 
405188  1  0  0  0  0 
406188  1  0  0  0  0 
407189  1  0  0  0  0 
408192  1  0  0  0  0 
409192  1  0  0  0  0 
410193  1  0  0  0  0 
411193  1  0  0  0  0 
412195  1  0  0  0  0 
413195  1  0  0  0  0 
197414  1  0  0  0  0 
415200  1  0  0  0  0 
416200  1  0  0  0  0 
417203  1  0  0  0  0 
418203  1  0  0  0  0 
419203  1  0  0  0  0 
420204  1  0  0  0  0 
421204  1  0  0  0  0 
205422  1  0  0  0  0 
423206  1  0  0  0  0 
424206  1  0  0  0  0 
425206  1  0  0  0  0 
426207  1  0  0  0  0 
427210  1  0  0  0  0 
428210  1  0  0  0  0 
429210  1  0  0  0  0 
211430  1  0  0  0  0 
431212  1  0  0  0  0 
432212  1  0  0  0  0 
433212  1  0  0  0  0 
434213  1  0  0  0  0 
M  END
> <cdk:Title>
secretin human

> <Conformer>
1

> <SuperDrugID>
SD002293

$$$$
