aniracetam
  CDK     0628171801

 29 30  0  0  0  0  0  0  0  0999 V2000
   -0.8600    1.4428    0.1637 C   0  0  0  0  0  0  0  0  0  0  0  0
   -0.5707    2.3110   -0.6954 O   0  0  0  0  0  0  0  0  0  0  0  0
    0.0362    0.4314    0.4795 N   0  0  0  0  0  0  0  0  0  0  0  0
   -2.1261    1.6155    0.7754 C   0  0  0  0  0  0  0  0  0  0  0  0
    1.2684    0.2844   -0.0813 C   0  0  0  0  0  0  0  0  0  0  0  0
   -0.1714   -0.5765    1.4805 C   0  0  2  0  0  0  0  0  0  0  0  0
   -3.1157    0.6090    0.7021 C   0  0  0  0  0  0  0  0  0  0  0  0
   -2.4318    2.8246    1.4470 C   0  0  0  0  0  0  0  0  0  0  0  0
    1.7573    1.0116   -0.9781 O   0  0  0  0  0  0  0  0  0  0  0  0
    2.0496   -0.8180    0.4706 C   0  0  2  0  0  0  0  0  0  0  0  0
    1.0912   -1.4705    1.4803 C   0  0  2  0  0  0  0  0  0  0  0  0
   -4.3607    0.7821    1.3319 C   0  0  0  0  0  0  0  0  0  0  0  0
   -3.6835    3.0030    2.0646 C   0  0  0  0  0  0  0  0  0  0  0  0
   -4.6409    1.9691    2.0361 C   0  0  0  0  0  0  0  0  0  0  0  0
   -5.8429    2.1107    2.6738 O   0  0  0  0  0  0  0  0  0  0  0  0
   -5.7476    1.8022    4.0764 C   0  0  0  0  0  0  0  0  0  0  0  0
   -1.0431   -1.1961    1.2600 H   0  0  0  0  0  0  0  0  0  0  0  0
   -0.3051   -0.1096    2.4617 H   0  0  0  0  0  0  0  0  0  0  0  0
   -2.9455   -0.2566    0.1840 H   0  0  0  0  0  0  0  0  0  0  0  0
   -1.7450    3.5832    1.4959 H   0  0  0  0  0  0  0  0  0  0  0  0
    2.9453   -0.4290    0.9651 H   0  0  0  0  0  0  0  0  0  0  0  0
    2.3359   -1.5187   -0.3186 H   0  0  0  0  0  0  0  0  0  0  0  0
    0.8479   -2.4919    1.1685 H   0  0  0  0  0  0  0  0  0  0  0  0
    1.5446   -1.5133    2.4754 H   0  0  0  0  0  0  0  0  0  0  0  0
   -5.0606    0.0387    1.2800 H   0  0  0  0  0  0  0  0  0  0  0  0
   -3.8962    3.8812    2.5435 H   0  0  0  0  0  0  0  0  0  0  0  0
   -6.7436    1.8743    4.5099 H   0  0  0  0  0  0  0  0  0  0  0  0
   -5.3782    0.7861    4.2410 H   0  0  0  0  0  0  0  0  0  0  0  0
   -5.1003    2.5144    4.5952 H   0  0  0  0  0  0  0  0  0  0  0  0
  1  2  2  0  0  0  0 
  1  3  1  0  0  0  0 
  1  4  1  0  0  0  0 
  3  5  1  0  0  0  0 
  3  6  1  0  0  0  0 
  4  7  2  0  0  0  0 
  4  8  1  0  0  0  0 
  5  9  2  0  0  0  0 
  5 10  1  0  0  0  0 
  6 11  1  0  0  0  0 
  7 12  1  0  0  0  0 
  8 13  2  0  0  0  0 
 10 11  1  0  0  0  0 
 12 14  2  0  0  0  0 
 13 14  1  0  0  0  0 
 14 15  1  0  0  0  0 
 15 16  1  0  0  0  0 
  6 17  1  0  0  0  0 
  6 18  1  0  0  0  0 
  7 19  1  0  0  0  0 
  8 20  1  0  0  0  0 
 10 21  1  0  0  0  0 
 10 22  1  0  0  0  0 
 11 23  1  0  0  0  0 
 11 24  1  0  0  0  0 
 12 25  1  0  0  0  0 
 13 26  1  0  0  0  0 
 16 27  1  0  0  0  0 
 16 28  1  0  0  0  0 
 16 29  1  0  0  0  0 
M  END
> <cdk:Title>
aniracetam

> <Conformer>
1

> <SuperDrugID>
SD000183

$$$$
