articaine
  CDK     0628171801

 39 39  0  0  0  0  0  0  0  0999 V2000
   -2.6275    1.5810   -0.4326 N   0  0  0  0  0  0  0  0  0  0  0  0
   -2.2617    1.0643   -1.6385 C   0  0  0  0  0  0  0  0  0  0  0  0
   -3.0522    0.8573    0.6328 C   0  0  0  0  0  0  0  0  0  0  0  0
   -1.8205    1.9566   -2.7437 C   0  0  2  0  0  0  0  0  0  0  0  0
   -2.3003   -0.1737   -1.8433 O   0  0  0  0  0  0  0  0  0  0  0  0
   -2.1804    0.1691    1.5028 C   0  0  0  0  0  0  0  0  0  0  0  0
   -4.4315    0.7861    0.9549 C   0  0  0  0  0  0  0  0  0  0  0  0
   -1.5819    3.3573   -2.2938 N   0  0  1  0  0  0  0  0  0  0  0  0
   -2.8778    1.9702   -3.8750 C   0  0  0  0  0  0  0  0  0  0  0  0
   -0.7769    0.0406    1.4537 C   0  0  0  0  0  0  0  0  0  0  0  0
   -3.1943   -0.5409    2.7480 S   0  0  0  0  0  0  0  0  0  0  0  0
   -5.4980    1.4106    0.1356 C   0  0  0  0  0  0  0  0  0  0  0  0
   -4.7135    0.0472    2.1109 C   0  0  0  0  0  0  0  0  0  0  0  0
   -0.2928    3.5851   -1.5992 C   0  0  1  0  0  0  0  0  0  0  0  0
   -0.0660    0.5176    0.3921 O   0  0  0  0  0  0  0  0  0  0  0  0
   -0.1793   -0.5274    2.3975 O   0  0  0  0  0  0  0  0  0  0  0  0
   -0.3122    4.9195   -0.8183 C   0  0  1  0  0  0  0  0  0  0  0  0
    1.3522    0.4581    0.2170 C   0  0  0  0  0  0  0  0  0  0  0  0
    0.9614    5.1315    0.0325 C   0  0  0  0  0  0  0  0  0  0  0  0
   -2.6162    2.5448   -0.3300 H   0  0  0  0  0  0  0  0  0  0  0  0
   -0.8929    1.5556   -3.1660 H   0  0  0  0  0  0  0  0  0  0  0  0
   -1.5679    3.9510   -3.1257 H   0  0  0  0  0  0  0  0  0  0  0  0
   -2.5509    2.6233   -4.6859 H   0  0  0  0  0  0  0  0  0  0  0  0
   -3.0155    0.9668   -4.2846 H   0  0  0  0  0  0  0  0  0  0  0  0
   -3.8382    2.3329   -3.5014 H   0  0  0  0  0  0  0  0  0  0  0  0
   -5.3122    2.4815    0.0309 H   0  0  0  0  0  0  0  0  0  0  0  0
   -6.4861    1.2770    0.5832 H   0  0  0  0  0  0  0  0  0  0  0  0
   -5.5085    0.9530   -0.8565 H   0  0  0  0  0  0  0  0  0  0  0  0
   -5.6345   -0.1312    2.5131 H   0  0  0  0  0  0  0  0  0  0  0  0
   -0.0965    2.7822   -0.8912 H   0  0  0  0  0  0  0  0  0  0  0  0
    0.5086    3.5970   -2.3418 H   0  0  0  0  0  0  0  0  0  0  0  0
   -0.4150    5.7481   -1.5230 H   0  0  0  0  0  0  0  0  0  0  0  0
   -1.1768    4.9327   -0.1483 H   0  0  0  0  0  0  0  0  0  0  0  0
    1.6843   -0.5805    0.1917 H   0  0  0  0  0  0  0  0  0  0  0  0
    1.6186    0.9359   -0.7264 H   0  0  0  0  0  0  0  0  0  0  0  0
    1.8476    0.9840    1.0341 H   0  0  0  0  0  0  0  0  0  0  0  0
    1.8504    5.1269   -0.6007 H   0  0  0  0  0  0  0  0  0  0  0  0
    1.0559    4.3429    0.7821 H   0  0  0  0  0  0  0  0  0  0  0  0
    0.9035    6.0921    0.5471 H   0  0  0  0  0  0  0  0  0  0  0  0
  1  2  1  0  0  0  0 
  1  3  1  0  0  0  0 
  4  2  1  0  0  0  0 
  2  5  2  0  0  0  0 
  3  6  2  0  0  0  0 
  3  7  1  0  0  0  0 
  4  8  1  0  0  0  0 
  4  9  1  0  0  0  0 
  6 10  1  0  0  0  0 
  6 11  1  0  0  0  0 
  7 12  1  0  0  0  0 
  7 13  2  0  0  0  0 
  8 14  1  0  0  0  0 
 10 15  1  0  0  0  0 
 10 16  2  0  0  0  0 
 11 13  1  0  0  0  0 
 14 17  1  0  0  0  0 
 15 18  1  0  0  0  0 
 17 19  1  0  0  0  0 
  1 20  1  0  0  0  0 
  4 21  1  0  0  0  0 
  8 22  1  0  0  0  0 
  9 23  1  0  0  0  0 
  9 24  1  0  0  0  0 
  9 25  1  0  0  0  0 
 12 26  1  0  0  0  0 
 12 27  1  0  0  0  0 
 12 28  1  0  0  0  0 
 13 29  1  0  0  0  0 
 14 30  1  0  0  0  0 
 14 31  1  0  0  0  0 
 17 32  1  0  0  0  0 
 17 33  1  0  0  0  0 
 18 34  1  0  0  0  0 
 18 35  1  0  0  0  0 
 18 36  1  0  0  0  0 
 19 37  1  0  0  0  0 
 19 38  1  0  0  0  0 
 19 39  1  0  0  0  0 
M  END
> <cdk:Title>
articaine

> <Conformer>
1

> <SuperDrugID>
SD002666

$$$$
