perampanel
  CDK     0628171802

 42 45  0  0  0  0  0  0  0  0999 V2000
    0.0672   -0.8685   -0.9257 O   0  0  0  0  0  0  0  0  0  0  0  0
   -0.5090   -0.4543    0.1120 C   0  0  0  0  0  0  0  0  0  0  0  0
   -1.4053   -1.3265    0.7827 C   0  0  0  0  0  0  0  0  0  0  0  0
   -0.2497    0.8085    0.5975 N   0  0  0  0  0  0  0  0  0  0  0  0
   -2.0203   -0.8616    1.9653 C   0  0  0  0  0  0  0  0  0  0  0  0
   -1.6936   -2.6428    0.2996 C   0  0  0  0  0  0  0  0  0  0  0  0
   -0.8481    1.2431    1.7537 C   0  0  0  0  0  0  0  0  0  0  0  0
    0.6194    1.6583   -0.0588 C   0  0  0  0  0  0  0  0  0  0  0  0
   -1.7429    0.4227    2.4747 C   0  0  0  0  0  0  0  0  0  0  0  0
   -1.3990   -3.8273    1.0374 C   0  0  0  0  0  0  0  0  0  0  0  0
   -2.2874   -2.7731   -0.9801 C   0  0  0  0  0  0  0  0  0  0  0  0
    1.8088    2.1054    0.5655 C   0  0  0  0  0  0  0  0  0  0  0  0
    0.3462    2.0902   -1.3789 C   0  0  0  0  0  0  0  0  0  0  0  0
   -2.3429    0.8623    3.6780 C   0  0  0  0  0  0  0  0  0  0  0  0
   -0.8320   -3.7975    2.2142 C   0  0  0  0  0  0  0  0  0  0  0  0
   -1.6939   -5.0957    0.4856 C   0  0  0  0  0  0  0  0  0  0  0  0
   -2.5588   -4.0388   -1.5271 C   0  0  0  0  0  0  0  0  0  0  0  0
    2.7102    2.9408   -0.1193 C   0  0  0  0  0  0  0  0  0  0  0  0
    1.2497    2.9202   -2.0670 C   0  0  0  0  0  0  0  0  0  0  0  0
   -3.1321    2.0330    3.7407 C   0  0  0  0  0  0  0  0  0  0  0  0
   -2.1536    0.1354    4.8140 N   0  0  0  0  0  0  0  0  0  0  0  0
   -0.3312   -3.7734    3.2468 N   0  0  0  0  0  0  0  0  0  0  0  0
   -2.2628   -5.1989   -0.7945 C   0  0  0  0  0  0  0  0  0  0  0  0
    2.4334    3.3428   -1.4377 C   0  0  0  0  0  0  0  0  0  0  0  0
   -3.7000    2.4161    4.9704 C   0  0  0  0  0  0  0  0  0  0  0  0
   -2.6767    0.4874    6.0164 C   0  0  0  0  0  0  0  0  0  0  0  0
   -3.4696    1.6431    6.1218 C   0  0  0  0  0  0  0  0  0  0  0  0
   -2.6899   -1.4627    2.4569 H   0  0  0  0  0  0  0  0  0  0  0  0
   -0.6457    2.1827    2.1190 H   0  0  0  0  0  0  0  0  0  0  0  0
   -2.5267   -1.9429   -1.5293 H   0  0  0  0  0  0  0  0  0  0  0  0
    2.0275    1.8175    1.5219 H   0  0  0  0  0  0  0  0  0  0  0  0
   -0.5151    1.7987   -1.8458 H   0  0  0  0  0  0  0  0  0  0  0  0
   -1.4921   -5.9606    1.0004 H   0  0  0  0  0  0  0  0  0  0  0  0
   -2.9683   -4.1154   -2.4599 H   0  0  0  0  0  0  0  0  0  0  0  0
    3.5684    3.2533    0.3401 H   0  0  0  0  0  0  0  0  0  0  0  0
    1.0456    3.2152   -3.0240 H   0  0  0  0  0  0  0  0  0  0  0  0
   -3.3038    2.5976    2.9050 H   0  0  0  0  0  0  0  0  0  0  0  0
   -2.4601   -6.1206   -1.1914 H   0  0  0  0  0  0  0  0  0  0  0  0
    3.0916    3.9429   -1.9384 H   0  0  0  0  0  0  0  0  0  0  0  0
   -4.2803    3.2569    5.0250 H   0  0  0  0  0  0  0  0  0  0  0  0
   -2.4894   -0.0870    6.8387 H   0  0  0  0  0  0  0  0  0  0  0  0
   -3.8720    1.9177    7.0191 H   0  0  0  0  0  0  0  0  0  0  0  0
  1  2  2  0  0  0  0 
  2  3  1  0  0  0  0 
  2  4  1  0  0  0  0 
  3  5  2  0  0  0  0 
  3  6  1  0  0  0  0 
  4  7  1  0  0  0  0 
  4  8  1  0  0  0  0 
  5  9  1  0  0  0  0 
  6 10  2  0  0  0  0 
  6 11  1  0  0  0  0 
  7  9  2  0  0  0  0 
  8 12  2  0  0  0  0 
  8 13  1  0  0  0  0 
  9 14  1  0  0  0  0 
 10 15  1  0  0  0  0 
 10 16  1  0  0  0  0 
 11 17  2  0  0  0  0 
 12 18  1  0  0  0  0 
 13 19  2  0  0  0  0 
 14 20  2  0  0  0  0 
 14 21  1  0  0  0  0 
 15 22  3  0  0  0  0 
 16 23  2  0  0  0  0 
 17 23  1  0  0  0  0 
 18 24  2  0  0  0  0 
 19 24  1  0  0  0  0 
 20 25  1  0  0  0  0 
 21 26  2  0  0  0  0 
 25 27  2  0  0  0  0 
 26 27  1  0  0  0  0 
  5 28  1  0  0  0  0 
  7 29  1  0  0  0  0 
 11 30  1  0  0  0  0 
 12 31  1  0  0  0  0 
 13 32  1  0  0  0  0 
 16 33  1  0  0  0  0 
 17 34  1  0  0  0  0 
 18 35  1  0  0  0  0 
 19 36  1  0  0  0  0 
 20 37  1  0  0  0  0 
 23 38  1  0  0  0  0 
 24 39  1  0  0  0  0 
 25 40  1  0  0  0  0 
 26 41  1  0  0  0  0 
 27 42  1  0  0  0  0 
M  END
> <cdk:Title>
perampanel

> <Conformer>
1

> <SuperDrugID>
SD003714

$$$$
