dexpanthenol
  CDK     0628171802

 33 32  0  0  0  0  0  0  0  0999 V2000
   -0.6242    2.1818   -1.9598 C   0  0  0  0  0  0  0  0  0  0  0  0
   -1.9416    2.1274   -2.8012 C   0  0  1  0  0  0  0  0  0  0  0  0
   -2.6757    3.5076   -2.6893 C   0  0  0  0  0  0  0  0  0  0  0  0
   -1.5445    1.8965   -4.3045 C   0  0  1  0  0  0  0  0  0  0  0  0
   -2.6772    1.8423   -5.1677 O   0  0  0  0  0  0  0  0  0  0  0  0
   -2.8885    0.9649   -2.3031 C   0  0  1  0  0  0  0  0  0  0  0  0
   -2.2862   -0.3249   -2.4410 O   0  0  0  0  0  0  0  0  0  0  0  0
   -3.3697    1.0649   -0.8994 C   0  0  0  0  0  0  0  0  0  0  0  0
   -2.6244    0.7108    0.0460 O   0  0  0  0  0  0  0  0  0  0  0  0
   -4.6352    1.5075   -0.6561 N   0  0  0  0  0  0  0  0  0  0  0  0
   -5.2913    1.4794    0.6112 C   0  0  1  0  0  0  0  0  0  0  0  0
   -6.5987    2.3065    0.5550 C   0  0  2  0  0  0  0  0  0  0  0  0
   -7.4518    2.1867    1.8362 C   0  0  2  0  0  0  0  0  0  0  0  0
   -8.6213    2.9870    1.7125 O   0  0  0  0  0  0  0  0  0  0  0  0
   -0.1337    1.2059   -1.9566 H   0  0  0  0  0  0  0  0  0  0  0  0
   -0.8244    2.4685   -0.9243 H   0  0  0  0  0  0  0  0  0  0  0  0
    0.0776    2.9097   -2.3782 H   0  0  0  0  0  0  0  0  0  0  0  0
   -2.0521    4.3147   -3.0815 H   0  0  0  0  0  0  0  0  0  0  0  0
   -2.9143    3.7446   -1.6503 H   0  0  0  0  0  0  0  0  0  0  0  0
   -3.6101    3.4980   -3.2540 H   0  0  0  0  0  0  0  0  0  0  0  0
   -0.9003    2.7070   -4.6553 H   0  0  0  0  0  0  0  0  0  0  0  0
   -0.9856    0.9645   -4.4228 H   0  0  0  0  0  0  0  0  0  0  0  0
   -2.3031    1.7196   -6.0650 H   0  0  0  0  0  0  0  0  0  0  0  0
   -3.7703    0.9447   -2.9508 H   0  0  0  0  0  0  0  0  0  0  0  0
   -2.1460   -0.4449   -3.4028 H   0  0  0  0  0  0  0  0  0  0  0  0
   -5.1445    1.8313   -1.4158 H   0  0  0  0  0  0  0  0  0  0  0  0
   -5.5282    0.4396    0.8521 H   0  0  0  0  0  0  0  0  0  0  0  0
   -4.6355    1.8798    1.3895 H   0  0  0  0  0  0  0  0  0  0  0  0
   -7.2023    1.9632   -0.2905 H   0  0  0  0  0  0  0  0  0  0  0  0
   -6.3483    3.3591    0.3897 H   0  0  0  0  0  0  0  0  0  0  0  0
   -6.8869    2.5201    2.7101 H   0  0  0  0  0  0  0  0  0  0  0  0
   -7.7565    1.1482    1.9843 H   0  0  0  0  0  0  0  0  0  0  0  0
   -9.1086    2.8346    2.5489 H   0  0  0  0  0  0  0  0  0  0  0  0
  1  2  1  0  0  0  0 
  2  3  1  0  0  0  0 
  2  4  1  0  0  0  0 
  4  5  1  0  0  0  0 
  2  6  1  0  0  0  0 
  6  7  1  0  0  0  0 
  6  8  1  0  0  0  0 
  8  9  2  0  0  0  0 
  8 10  1  0  0  0  0 
 10 11  1  0  0  0  0 
 11 12  1  0  0  0  0 
 12 13  1  0  0  0  0 
 13 14  1  0  0  0  0 
  1 15  1  0  0  0  0 
  1 16  1  0  0  0  0 
  1 17  1  0  0  0  0 
  3 18  1  0  0  0  0 
  3 19  1  0  0  0  0 
  3 20  1  0  0  0  0 
  4 21  1  0  0  0  0 
  4 22  1  0  0  0  0 
  5 23  1  0  0  0  0 
  6 24  1  0  0  0  0 
  7 25  1  0  0  0  0 
 10 26  1  0  0  0  0 
 11 27  1  0  0  0  0 
 11 28  1  0  0  0  0 
 12 29  1  0  0  0  0 
 12 30  1  0  0  0  0 
 13 31  1  0  0  0  0 
 13 32  1  0  0  0  0 
 14 33  1  0  0  0  0 
M  END
> <cdk:Title>
dexpanthenol

> <Conformer>
1

> <SuperDrugID>
SD000742

$$$$
