pyrinoline
  CDK     0628171801

 52 56  0  0  0  0  0  0  0  0999 V2000
   -2.6548    0.9207   -0.1146 C   0  0  1  0  0  0  0  0  0  0  0  0
   -2.1665    2.2740   -0.0208 O   0  0  0  0  0  0  0  0  0  0  0  0
   -1.9587    0.2964   -1.2634 C   0  0  0  0  0  0  0  0  0  0  0  0
   -2.3397    0.2180    1.1844 C   0  0  0  0  0  0  0  0  0  0  0  0
   -4.1428    1.0126   -0.3665 C   0  0  0  0  0  0  0  0  0  0  0  0
   -2.0210   -0.9818   -1.6601 C   0  0  0  0  0  0  0  0  0  0  0  0
   -1.1358    0.8913   -2.1454 C   0  0  0  0  0  0  0  0  0  0  0  0
   -1.5904    0.8071    2.2396 C   0  0  0  0  0  0  0  0  0  0  0  0
   -2.7879   -1.0561    1.3874 N   0  0  0  0  0  0  0  0  0  0  0  0
   -4.9915   -0.1045   -0.5931 C   0  0  0  0  0  0  0  0  0  0  0  0
   -4.7361    2.2431   -0.3929 N   0  0  0  0  0  0  0  0  0  0  0  0
   -1.2907   -1.1950   -2.7783 C   0  0  0  0  0  0  0  0  0  0  0  0
   -0.7380    0.0016   -3.0485 C   0  0  0  0  0  0  0  0  0  0  0  0
   -1.3628    0.0977    3.4336 C   0  0  0  0  0  0  0  0  0  0  0  0
   -2.5809   -1.7763    2.5194 C   0  0  0  0  0  0  0  0  0  0  0  0
   -6.3605    0.0823   -0.8615 C   0  0  0  0  0  0  0  0  0  0  0  0
   -6.0527    2.4668   -0.6252 C   0  0  0  0  0  0  0  0  0  0  0  0
   -1.1623   -2.3542   -3.4747 C   0  0  0  0  0  0  0  0  0  0  0  0
   -1.8657   -1.2044    3.5832 C   0  0  0  0  0  0  0  0  0  0  0  0
   -6.9009    1.3785   -0.8792 C   0  0  0  0  0  0  0  0  0  0  0  0
   -0.3074   -2.4930   -4.5725 C   0  0  0  0  0  0  0  0  0  0  0  0
   -1.8962   -3.4894   -3.1238 C   0  0  0  0  0  0  0  0  0  0  0  0
    1.0728   -2.1801   -4.5157 C   0  0  0  0  0  0  0  0  0  0  0  0
   -0.8060   -2.9954   -5.7385 N   0  0  0  0  0  0  0  0  0  0  0  0
   -1.2614   -4.6927   -2.7368 C   0  0  0  0  0  0  0  0  0  0  0  0
   -3.2599   -3.4521   -3.1491 N   0  0  0  0  0  0  0  0  0  0  0  0
    1.8794   -2.3862   -5.6497 C   0  0  0  0  0  0  0  0  0  0  0  0
   -0.0535   -3.2108   -6.8471 C   0  0  0  0  0  0  0  0  0  0  0  0
   -2.0426   -5.8108   -2.3934 C   0  0  0  0  0  0  0  0  0  0  0  0
   -4.0422   -4.5131   -2.8184 C   0  0  0  0  0  0  0  0  0  0  0  0
    1.3186   -2.9118   -6.8256 C   0  0  0  0  0  0  0  0  0  0  0  0
   -3.4447   -5.7265   -2.4317 C   0  0  0  0  0  0  0  0  0  0  0  0
   -2.6689    2.6857    0.7144 H   0  0  0  0  0  0  0  0  0  0  0  0
   -2.5335   -1.6875   -1.1881 H   0  0  0  0  0  0  0  0  0  0  0  0
   -0.8574    1.8455   -2.1377 H   0  0  0  0  0  0  0  0  0  0  0  0
   -1.2030    1.7497    2.1603 H   0  0  0  0  0  0  0  0  0  0  0  0
   -4.6373   -1.0592   -0.5703 H   0  0  0  0  0  0  0  0  0  0  0  0
   -0.1306    0.2121   -3.8048 H   0  0  0  0  0  0  0  0  0  0  0  0
   -0.8333    0.5308    4.1931 H   0  0  0  0  0  0  0  0  0  0  0  0
   -2.9489   -2.7259    2.5946 H   0  0  0  0  0  0  0  0  0  0  0  0
   -6.9640   -0.7251   -1.0404 H   0  0  0  0  0  0  0  0  0  0  0  0
   -6.4156    3.4203   -0.6139 H   0  0  0  0  0  0  0  0  0  0  0  0
   -1.7128   -1.7257    4.4489 H   0  0  0  0  0  0  0  0  0  0  0  0
   -7.8937    1.5261   -1.0701 H   0  0  0  0  0  0  0  0  0  0  0  0
    1.4989   -1.8183   -3.6580 H   0  0  0  0  0  0  0  0  0  0  0  0
   -0.2411   -4.7600   -2.6973 H   0  0  0  0  0  0  0  0  0  0  0  0
    2.8753   -2.1600   -5.6195 H   0  0  0  0  0  0  0  0  0  0  0  0
   -0.4887   -3.5919   -7.6877 H   0  0  0  0  0  0  0  0  0  0  0  0
   -1.5901   -6.6824   -2.1125 H   0  0  0  0  0  0  0  0  0  0  0  0
   -5.0597   -4.4231   -2.8512 H   0  0  0  0  0  0  0  0  0  0  0  0
    1.8960   -3.0744   -7.6523 H   0  0  0  0  0  0  0  0  0  0  0  0
   -4.0181   -6.5338   -2.1797 H   0  0  0  0  0  0  0  0  0  0  0  0
  1  2  1  0  0  0  0 
  1  3  1  0  0  0  0 
  1  4  1  0  0  0  0 
  1  5  1  0  0  0  0 
  3  6  2  0  0  0  0 
  3  7  1  0  0  0  0 
  4  8  2  0  0  0  0 
  4  9  1  0  0  0  0 
  5 10  2  0  0  0  0 
  5 11  1  0  0  0  0 
  6 12  1  0  0  0  0 
  7 13  2  0  0  0  0 
  8 14  1  0  0  0  0 
  9 15  2  0  0  0  0 
 10 16  1  0  0  0  0 
 11 17  2  0  0  0  0 
 12 13  1  0  0  0  0 
 12 18  2  0  0  0  0 
 14 19  2  0  0  0  0 
 15 19  1  0  0  0  0 
 16 20  2  0  0  0  0 
 17 20  1  0  0  0  0 
 18 21  1  0  0  0  0 
 18 22  1  0  0  0  0 
 21 23  2  0  0  0  0 
 21 24  1  0  0  0  0 
 22 25  2  0  0  0  0 
 22 26  1  0  0  0  0 
 23 27  1  0  0  0  0 
 24 28  2  0  0  0  0 
 25 29  1  0  0  0  0 
 26 30  2  0  0  0  0 
 27 31  2  0  0  0  0 
 28 31  1  0  0  0  0 
 29 32  2  0  0  0  0 
 30 32  1  0  0  0  0 
  2 33  1  0  0  0  0 
  6 34  1  0  0  0  0 
  7 35  1  0  0  0  0 
  8 36  1  0  0  0  0 
 10 37  1  0  0  0  0 
 13 38  1  0  0  0  0 
 14 39  1  0  0  0  0 
 15 40  1  0  0  0  0 
 16 41  1  0  0  0  0 
 17 42  1  0  0  0  0 
 19 43  1  0  0  0  0 
 20 44  1  0  0  0  0 
 23 45  1  0  0  0  0 
 25 46  1  0  0  0  0 
 27 47  1  0  0  0  0 
 28 48  1  0  0  0  0 
 29 49  1  0  0  0  0 
 30 50  1  0  0  0  0 
 31 51  1  0  0  0  0 
 32 52  1  0  0  0  0 
M  END
> <cdk:Title>
pyrinoline

> <Conformer>
1

> <SuperDrugID>
SD003020

$$$$
