edoxaban
  CDK     0628171802

 67 70  0  0  0  0  0  0  0  0999 V2000
    1.6828   -4.6045   -1.5132 C   0  0  2  0  0  0  0  0  0  0  0  0
    2.3339   -5.9112   -0.9701 C   0  0  2  0  0  0  0  0  0  0  0  0
    3.8321   -5.8936   -1.0476 N   0  0  2  0  0  0  0  0  0  0  0  0
    4.4386   -4.7366   -0.3029 C   0  0  1  0  0  0  0  0  0  0  0  0
    3.7153   -3.4744   -0.5492 C   0  0  0  0  0  0  0  0  0  0  0  0
    2.4309   -3.3953   -1.1020 C   0  0  0  0  0  0  0  0  0  0  0  0
    4.1811   -1.8211   -0.1920 S   0  0  0  0  0  0  0  0  0  0  0  0
    1.9149   -2.1420   -1.2073 N   0  0  0  0  0  0  0  0  0  0  0  0
    2.6719   -1.1131   -0.7540 C   0  0  0  0  0  0  0  0  0  0  0  0
    4.3757   -6.0964   -2.4215 C   0  0  0  0  0  0  0  0  0  0  0  0
    2.2625    0.2332   -0.7133 C   0  0  0  0  0  0  0  0  0  0  0  0
    3.0074    1.1047   -0.2104 O   0  0  0  0  0  0  0  0  0  0  0  0
    1.0349    0.5157   -1.2220 N   0  0  0  0  0  0  0  0  0  0  0  0
    0.2975    1.7495   -1.2584 C   0  0  2  0  0  0  0  0  0  0  0  0
   -1.8601    2.6460   -2.5130 C   0  0  2  0  0  0  0  0  0  0  0  0
   -0.9214    1.4349   -2.1891 C   0  0  1  0  0  0  0  0  0  0  0  0
    1.0852    3.0333   -1.7004 C   0  0  2  0  0  0  0  0  0  0  0  0
    0.0986    4.2180   -1.9429 C   0  0  2  0  0  0  0  0  0  0  0  0
   -1.0027    3.8645   -2.9711 C   0  0  2  0  0  0  0  0  0  0  0  0
   -2.8658    3.0259   -1.4646 C   0  0  0  0  0  0  0  0  0  0  0  0
   -4.0337    3.7608   -1.7010 N   0  0  0  0  0  0  0  0  0  0  0  0
   -2.6121    2.6488   -0.2945 O   0  0  0  0  0  0  0  0  0  0  0  0
   -4.9483    4.1081   -0.6281 C   0  0  0  0  0  0  0  0  0  0  0  0
   -4.4518    4.2362   -3.0065 C   0  0  0  0  0  0  0  0  0  0  0  0
    1.9592    2.7522   -2.8067 N   0  0  0  0  0  0  0  0  0  0  0  0
    2.9180    3.5842   -3.3126 C   0  0  0  0  0  0  0  0  0  0  0  0
    3.0070    4.7789   -2.9427 O   0  0  0  0  0  0  0  0  0  0  0  0
    3.8925    3.0968   -4.2061 C   0  0  0  0  0  0  0  0  0  0  0  0
    4.5197    3.9064   -4.9312 O   0  0  0  0  0  0  0  0  0  0  0  0
    4.1866    1.7660   -4.1915 N   0  0  0  0  0  0  0  0  0  0  0  0
    5.2276    1.1272   -4.7959 C   0  0  0  0  0  0  0  0  0  0  0  0
    7.1906    1.1210   -6.1705 C   0  0  0  0  0  0  0  0  0  0  0  0
    6.1187    1.7479   -5.6203 N   0  0  0  0  0  0  0  0  0  0  0  0
    5.4194   -0.2392   -4.5044 C   0  0  0  0  0  0  0  0  0  0  0  0
    6.5213   -0.9190   -5.0534 C   0  0  0  0  0  0  0  0  0  0  0  0
    7.4216   -0.2397   -5.8951 C   0  0  0  0  0  0  0  0  0  0  0  0
    8.7532   -1.0444   -6.5606 Cl  0  0  0  0  0  0  0  0  0  0  0  0
    0.6593   -4.5408   -1.1346 H   0  0  0  0  0  0  0  0  0  0  0  0
    1.6392   -4.6339   -2.6046 H   0  0  0  0  0  0  0  0  0  0  0  0
    1.9278   -6.7734   -1.5045 H   0  0  0  0  0  0  0  0  0  0  0  0
    2.0500   -6.0316    0.0806 H   0  0  0  0  0  0  0  0  0  0  0  0
    4.3805   -4.9462    0.7676 H   0  0  0  0  0  0  0  0  0  0  0  0
    5.4942   -4.6100   -0.5536 H   0  0  0  0  0  0  0  0  0  0  0  0
    4.2179   -5.2148   -3.0450 H   0  0  0  0  0  0  0  0  0  0  0  0
    3.9021   -6.9545   -2.9017 H   0  0  0  0  0  0  0  0  0  0  0  0
    5.4456   -6.3026   -2.3686 H   0  0  0  0  0  0  0  0  0  0  0  0
    0.5657   -0.2525   -1.5847 H   0  0  0  0  0  0  0  0  0  0  0  0
   -0.0765    1.9199   -0.2453 H   0  0  0  0  0  0  0  0  0  0  0  0
   -2.4394    2.2935   -3.3689 H   0  0  0  0  0  0  0  0  0  0  0  0
   -0.4736    1.1282   -3.1920 H   0  0  0  0  0  0  0  0  0  0  0  0
   -1.5539    0.6462   -1.6611 H   0  0  0  0  0  0  0  0  0  0  0  0
    1.7267    3.3243   -0.8627 H   0  0  0  0  0  0  0  0  0  0  0  0
    0.6281    5.1057   -2.2895 H   0  0  0  0  0  0  0  0  0  0  0  0
   -0.3730    4.4880   -0.9946 H   0  0  0  0  0  0  0  0  0  0  0  0
   -1.6257    4.7457   -3.1384 H   0  0  0  0  0  0  0  0  0  0  0  0
   -0.5299    3.6305   -3.9292 H   0  0  0  0  0  0  0  0  0  0  0  0
   -4.6370    3.7619    0.3578 H   0  0  0  0  0  0  0  0  0  0  0  0
   -5.0558    5.1927   -0.5680 H   0  0  0  0  0  0  0  0  0  0  0  0
   -5.9327    3.6785   -0.8243 H   0  0  0  0  0  0  0  0  0  0  0  0
   -4.5307    5.3253   -2.9934 H   0  0  0  0  0  0  0  0  0  0  0  0
   -3.7877    3.9831   -3.8291 H   0  0  0  0  0  0  0  0  0  0  0  0
   -5.4311    3.8224   -3.2576 H   0  0  0  0  0  0  0  0  0  0  0  0
    1.8995    1.8674   -3.1969 H   0  0  0  0  0  0  0  0  0  0  0  0
    3.6144    1.2114   -3.6385 H   0  0  0  0  0  0  0  0  0  0  0  0
    7.8216    1.6449   -6.7792 H   0  0  0  0  0  0  0  0  0  0  0  0
    4.7735   -0.7389   -3.8872 H   0  0  0  0  0  0  0  0  0  0  0  0
    6.6631   -1.9074   -4.8344 H   0  0  0  0  0  0  0  0  0  0  0  0
  1  2  1  0  0  0  0 
  1  6  1  0  0  0  0 
  2  3  1  0  0  0  0 
  3  4  1  0  0  0  0 
  4  5  1  0  0  0  0 
  5  6  2  0  0  0  0 
  8  9  2  0  0  0  0 
  7  9  1  0  0  0  0 
  7  5  1  0  0  0  0 
  6  8  1  0  0  0  0 
  3 10  1  0  0  0  0 
  9 11  1  0  0  0  0 
 11 12  2  0  0  0  0 
 11 13  1  0  0  0  0 
 14 13  1  0  0  0  0 
 15 16  1  0  0  0  0 
 17 18  1  0  0  0  0 
 18 19  1  0  0  0  0 
 15 19  1  0  0  0  0 
 16 14  1  0  0  0  0 
 14 17  1  0  0  0  0 
 15 20  1  0  0  0  0 
 20 21  1  0  0  0  0 
 20 22  2  0  0  0  0 
 21 23  1  0  0  0  0 
 21 24  1  0  0  0  0 
 17 25  1  0  0  0  0 
 25 26  1  0  0  0  0 
 26 27  2  0  0  0  0 
 26 28  1  0  0  0  0 
 28 29  2  0  0  0  0 
 28 30  1  0  0  0  0 
 30 31  1  0  0  0  0 
 32 33  1  0  0  0  0 
 34 35  2  0  0  0  0 
 35 36  1  0  0  0  0 
 32 36  2  0  0  0  0 
 33 31  2  0  0  0  0 
 31 34  1  0  0  0  0 
 36 37  1  0  0  0  0 
  1 38  1  0  0  0  0 
  1 39  1  0  0  0  0 
  2 40  1  0  0  0  0 
  2 41  1  0  0  0  0 
  4 42  1  0  0  0  0 
  4 43  1  0  0  0  0 
 10 44  1  0  0  0  0 
 10 45  1  0  0  0  0 
 10 46  1  0  0  0  0 
 13 47  1  0  0  0  0 
 14 48  1  0  0  0  0 
 15 49  1  0  0  0  0 
 16 50  1  0  0  0  0 
 16 51  1  0  0  0  0 
 17 52  1  0  0  0  0 
 18 53  1  0  0  0  0 
 18 54  1  0  0  0  0 
 19 55  1  0  0  0  0 
 19 56  1  0  0  0  0 
 23 57  1  0  0  0  0 
 23 58  1  0  0  0  0 
 23 59  1  0  0  0  0 
 24 60  1  0  0  0  0 
 24 61  1  0  0  0  0 
 24 62  1  0  0  0  0 
 25 63  1  0  0  0  0 
 30 64  1  0  0  0  0 
 32 65  1  0  0  0  0 
 34 66  1  0  0  0  0 
 35 67  1  0  0  0  0 
M  END
> <cdk:Title>
edoxaban

> <Conformer>
1

> <SuperDrugID>
SD003835

$$$$
