fluphenazine decanoate
  CDK     0628171801

 85 88  0  0  0  0  0  0  0  0999 V2000
   -2.2096  -11.2831    0.3327 C   0  0  0  0  0  0  0  0  0  0  0  0
   -3.2969  -10.2009    0.1529 C   0  0  2  0  0  0  0  0  0  0  0  0
   -3.1532   -9.3974   -1.1713 C   0  0  1  0  0  0  0  0  0  0  0  0
   -4.2599   -8.3189   -1.3173 C   0  0  2  0  0  0  0  0  0  0  0  0
   -4.1654   -7.4590   -2.6128 C   0  0  1  0  0  0  0  0  0  0  0  0
   -5.3178   -6.3799   -2.6897 C   0  0  1  0  0  0  0  0  0  0  0  0
   -5.3391   -5.3752   -3.9898 C   0  0  2  0  0  0  0  0  0  0  0  0
   -6.5444   -4.3136   -3.7692 C   0  0  2  0  0  0  0  0  0  0  0  0
   -6.6549   -3.3442   -4.9767 C   0  0  2  0  0  0  0  0  0  0  0  0
   -7.7321   -2.3408   -4.8149 C   0  0  0  0  0  0  0  0  0  0  0  0
   -8.7409   -2.3572   -5.5597 O   0  0  0  0  0  0  0  0  0  0  0  0
   -7.5977   -1.4119   -3.8283 O   0  0  0  0  0  0  0  0  0  0  0  0
   -8.4399   -0.2935   -3.5289 C   0  0  1  0  0  0  0  0  0  0  0  0
   -7.9143    0.4370   -2.2686 C   0  0  1  0  0  0  0  0  0  0  0  0
   -6.4366    0.6878   -2.3724 N   0  0  1  0  0  0  0  0  0  0  0  0
   -5.9881    2.0759   -2.0510 C   0  0  1  0  0  0  0  0  0  0  0  0
   -4.4813    2.2603   -2.3731 C   0  0  1  0  0  0  0  0  0  0  0  0
   -3.6162    1.2008   -1.7480 N   0  0  2  0  0  0  0  0  0  0  0  0
   -2.1558    1.4348   -2.0237 C   0  0  1  0  0  0  0  0  0  0  0  0
   -1.1385    0.4759   -1.3269 C   0  0  2  0  0  0  0  0  0  0  0  0
    0.3385    0.9612   -1.4648 C   0  0  2  0  0  0  0  0  0  0  0  0
    1.3446   -0.0541   -1.1645 N   0  0  0  0  0  0  0  0  0  0  0  0
    1.3533   -0.7045    0.0696 C   0  0  0  0  0  0  0  0  0  0  0  0
    1.1781   -0.0065    1.2929 C   0  0  0  0  0  0  0  0  0  0  0  0
    1.1947   -0.6817    2.5288 C   0  0  0  0  0  0  0  0  0  0  0  0
    1.3913   -2.0721    2.5703 C   0  0  0  0  0  0  0  0  0  0  0  0
    1.5720   -2.7877    1.3751 C   0  0  0  0  0  0  0  0  0  0  0  0
    1.5553   -2.1079    0.1422 C   0  0  0  0  0  0  0  0  0  0  0  0
    1.8316   -3.0049   -1.3468 S   0  0  0  0  0  0  0  0  0  0  0  0
    2.5610   -1.7855   -2.3813 C   0  0  0  0  0  0  0  0  0  0  0  0
    2.2782   -0.4197   -2.1371 C   0  0  0  0  0  0  0  0  0  0  0  0
    2.9900    0.5421   -2.8986 C   0  0  0  0  0  0  0  0  0  0  0  0
    3.9245    0.1730   -3.9008 C   0  0  0  0  0  0  0  0  0  0  0  0
    4.1200   -1.2055   -4.1532 C   0  0  0  0  0  0  0  0  0  0  0  0
    3.4492   -2.1777   -3.3974 C   0  0  0  0  0  0  0  0  0  0  0  0
    4.6744    1.2271   -4.6446 C   0  0  2  0  0  0  0  0  0  0  0  0
    5.3684    2.0210   -3.7626 F   0  0  0  0  0  0  0  0  0  0  0  0
    3.8017    2.0162   -5.3551 F   0  0  0  0  0  0  0  0  0  0  0  0
    5.5999    0.7488   -5.5439 F   0  0  0  0  0  0  0  0  0  0  0  0
   -4.1081   -0.1698   -2.0876 C   0  0  2  0  0  0  0  0  0  0  0  0
   -5.5919   -0.3398   -1.6911 C   0  0  1  0  0  0  0  0  0  0  0  0
   -1.2182  -10.8274    0.3487 H   0  0  0  0  0  0  0  0  0  0  0  0
   -2.2559  -12.0083   -0.4813 H   0  0  0  0  0  0  0  0  0  0  0  0
   -2.3639  -11.8107    1.2763 H   0  0  0  0  0  0  0  0  0  0  0  0
   -3.2418   -9.5147    1.0021 H   0  0  0  0  0  0  0  0  0  0  0  0
   -4.2746  -10.6892    0.1782 H   0  0  0  0  0  0  0  0  0  0  0  0
   -2.1738   -8.9122   -1.1893 H   0  0  0  0  0  0  0  0  0  0  0  0
   -3.2099  -10.0887   -2.0165 H   0  0  0  0  0  0  0  0  0  0  0  0
   -4.2060   -7.6518   -0.4521 H   0  0  0  0  0  0  0  0  0  0  0  0
   -5.2332   -8.8178   -1.3003 H   0  0  0  0  0  0  0  0  0  0  0  0
   -3.1992   -6.9479   -2.6399 H   0  0  0  0  0  0  0  0  0  0  0  0
   -4.2315   -8.1101   -3.4886 H   0  0  0  0  0  0  0  0  0  0  0  0
   -6.2632   -6.9765   -2.5834 H   0  0  0  0  0  0  0  0  0  0  0  0
   -5.2478   -5.8304   -1.7119 H   0  0  0  0  0  0  0  0  0  0  0  0
   -5.4956   -5.9577   -4.9015 H   0  0  0  0  0  0  0  0  0  0  0  0
   -4.3843   -4.8515   -4.0633 H   0  0  0  0  0  0  0  0  0  0  0  0
   -6.4339   -3.6701   -2.8538 H   0  0  0  0  0  0  0  0  0  0  0  0
   -7.5612   -4.7765   -3.6547 H   0  0  0  0  0  0  0  0  0  0  0  0
   -6.8292   -3.9258   -5.8848 H   0  0  0  0  0  0  0  0  0  0  0  0
   -5.7078   -2.8127   -5.0957 H   0  0  0  0  0  0  0  0  0  0  0  0
   -8.4260    0.3976   -4.3737 H   0  0  0  0  0  0  0  0  0  0  0  0
   -9.4698   -0.6280   -3.3741 H   0  0  0  0  0  0  0  0  0  0  0  0
   -8.4775    1.3684   -2.1722 H   0  0  0  0  0  0  0  0  0  0  0  0
   -8.1567   -0.1582   -1.3839 H   0  0  0  0  0  0  0  0  0  0  0  0
   -6.5576    2.7890   -2.6545 H   0  0  0  0  0  0  0  0  0  0  0  0
   -6.1691    2.3038   -0.9964 H   0  0  0  0  0  0  0  0  0  0  0  0
   -4.3560    2.2509   -3.4613 H   0  0  0  0  0  0  0  0  0  0  0  0
   -4.1801    3.2489   -2.0164 H   0  0  0  0  0  0  0  0  0  0  0  0
   -1.9760    1.4020   -3.1040 H   0  0  0  0  0  0  0  0  0  0  0  0
   -1.9191    2.4471   -1.6839 H   0  0  0  0  0  0  0  0  0  0  0  0
   -1.2187   -0.5155   -1.7782 H   0  0  0  0  0  0  0  0  0  0  0  0
   -1.3910    0.3887   -0.2668 H   0  0  0  0  0  0  0  0  0  0  0  0
    0.4901    1.8303   -0.8205 H   0  0  0  0  0  0  0  0  0  0  0  0
    0.4499    1.3208   -2.4910 H   0  0  0  0  0  0  0  0  0  0  0  0
    1.0515    1.0067    1.2993 H   0  0  0  0  0  0  0  0  0  0  0  0
    1.0682   -0.1606    3.4004 H   0  0  0  0  0  0  0  0  0  0  0  0
    1.4077   -2.5602    3.4691 H   0  0  0  0  0  0  0  0  0  0  0  0
    1.7260   -3.7976    1.4126 H   0  0  0  0  0  0  0  0  0  0  0  0
    2.8373    1.5369   -2.7091 H   0  0  0  0  0  0  0  0  0  0  0  0
    4.7654   -1.5181   -4.8822 H   0  0  0  0  0  0  0  0  0  0  0  0
    3.6229   -3.1683   -3.5799 H   0  0  0  0  0  0  0  0  0  0  0  0
   -3.5437   -0.9280   -1.5423 H   0  0  0  0  0  0  0  0  0  0  0  0
   -3.9965   -0.3599   -3.1592 H   0  0  0  0  0  0  0  0  0  0  0  0
   -5.6897   -0.2423   -0.6062 H   0  0  0  0  0  0  0  0  0  0  0  0
   -5.9050   -1.3489   -1.9653 H   0  0  0  0  0  0  0  0  0  0  0  0
  1  2  1  0  0  0  0 
  2  3  1  0  0  0  0 
  3  4  1  0  0  0  0 
  4  5  1  0  0  0  0 
  5  6  1  0  0  0  0 
  6  7  1  0  0  0  0 
  7  8  1  0  0  0  0 
  8  9  1  0  0  0  0 
  9 10  1  0  0  0  0 
 10 11  2  0  0  0  0 
 10 12  1  0  0  0  0 
 12 13  1  0  0  0  0 
 13 14  1  0  0  0  0 
 14 15  1  0  0  0  0 
 15 16  1  0  0  0  0 
 16 17  1  0  0  0  0 
 17 18  1  0  0  0  0 
 18 19  1  0  0  0  0 
 19 20  1  0  0  0  0 
 20 21  1  0  0  0  0 
 21 22  1  0  0  0  0 
 22 23  1  0  0  0  0 
 23 24  2  0  0  0  0 
 24 25  1  0  0  0  0 
 25 26  2  0  0  0  0 
 26 27  1  0  0  0  0 
 27 28  2  0  0  0  0 
 23 28  1  0  0  0  0 
 28 29  1  0  0  0  0 
 29 30  1  0  0  0  0 
 30 31  2  0  0  0  0 
 22 31  1  0  0  0  0 
 31 32  1  0  0  0  0 
 32 33  2  0  0  0  0 
 33 34  1  0  0  0  0 
 34 35  2  0  0  0  0 
 30 35  1  0  0  0  0 
 33 36  1  0  0  0  0 
 36 37  1  0  0  0  0 
 36 38  1  0  0  0  0 
 36 39  1  0  0  0  0 
 18 40  1  0  0  0  0 
 40 41  1  0  0  0  0 
 15 41  1  0  0  0  0 
  1 42  1  0  0  0  0 
  1 43  1  0  0  0  0 
  1 44  1  0  0  0  0 
  2 45  1  0  0  0  0 
  2 46  1  0  0  0  0 
  3 47  1  0  0  0  0 
  3 48  1  0  0  0  0 
  4 49  1  0  0  0  0 
  4 50  1  0  0  0  0 
  5 51  1  0  0  0  0 
  5 52  1  0  0  0  0 
  6 53  1  0  0  0  0 
  6 54  1  0  0  0  0 
  7 55  1  0  0  0  0 
  7 56  1  0  0  0  0 
  8 57  1  0  0  0  0 
  8 58  1  0  0  0  0 
  9 59  1  0  0  0  0 
  9 60  1  0  0  0  0 
 13 61  1  0  0  0  0 
 13 62  1  0  0  0  0 
 14 63  1  0  0  0  0 
 14 64  1  0  0  0  0 
 16 65  1  0  0  0  0 
 16 66  1  0  0  0  0 
 17 67  1  0  0  0  0 
 17 68  1  0  0  0  0 
 19 69  1  0  0  0  0 
 19 70  1  0  0  0  0 
 20 71  1  0  0  0  0 
 20 72  1  0  0  0  0 
 21 73  1  0  0  0  0 
 21 74  1  0  0  0  0 
 24 75  1  0  0  0  0 
 25 76  1  0  0  0  0 
 26 77  1  0  0  0  0 
 27 78  1  0  0  0  0 
 32 79  1  0  0  0  0 
 34 80  1  0  0  0  0 
 35 81  1  0  0  0  0 
 40 82  1  0  0  0  0 
 40 83  1  0  0  0  0 
 41 84  1  0  0  0  0 
 41 85  1  0  0  0  0 
M  END
> <cdk:Title>
fluphenazine decanoate

> <Conformer>
1

> <SuperDrugID>
SD001086

$$$$
