etallobarbital
  CDK     0628171802

 26 26  0  0  0  0  0  0  0  0999 V2000
    1.0828   -1.4930   -1.5020 C   0  0  1  0  0  0  0  0  0  0  0  0
    0.2197   -2.3509   -0.6978 C   0  0  0  0  0  0  0  0  0  0  0  0
    2.6152   -1.5194   -1.1326 C   0  0  2  0  0  0  0  0  0  0  0  0
   -0.3538   -3.4715   -1.1552 C   0  0  0  0  0  0  0  0  0  0  0  0
    2.8907   -1.0990    0.3607 C   0  0  2  0  0  0  0  0  0  0  0  0
    3.3013   -0.5373   -2.0493 C   0  0  0  0  0  0  0  0  0  0  0  0
    3.1603   -2.9052   -1.3648 C   0  0  0  0  0  0  0  0  0  0  0  0
    4.3849   -1.0690    0.7810 C   0  0  0  0  0  0  0  0  0  0  0  0
    3.0184    0.6832   -2.0165 O   0  0  0  0  0  0  0  0  0  0  0  0
    4.2491   -0.9133   -2.9477 N   0  0  0  0  0  0  0  0  0  0  0  0
    2.7608   -3.8827   -0.6910 O   0  0  0  0  0  0  0  0  0  0  0  0
    4.1198   -3.1714   -2.2856 N   0  0  0  0  0  0  0  0  0  0  0  0
    4.6508   -2.2006   -3.0635 C   0  0  0  0  0  0  0  0  0  0  0  0
    5.5297   -2.5009   -3.8998 O   0  0  0  0  0  0  0  0  0  0  0  0
    0.9770   -1.7440   -2.5645 H   0  0  0  0  0  0  0  0  0  0  0  0
    0.6942   -0.4762   -1.3924 H   0  0  0  0  0  0  0  0  0  0  0  0
    0.0431   -2.0874    0.2442 H   0  0  0  0  0  0  0  0  0  0  0  0
   -0.2064   -3.7789   -2.0868 H   0  0  0  0  0  0  0  0  0  0  0  0
   -0.9353   -4.0163   -0.5632 H   0  0  0  0  0  0  0  0  0  0  0  0
    2.3846   -1.7928    1.0373 H   0  0  0  0  0  0  0  0  0  0  0  0
    2.4644   -0.1082    0.5506 H   0  0  0  0  0  0  0  0  0  0  0  0
    4.4687   -0.7637    1.8250 H   0  0  0  0  0  0  0  0  0  0  0  0
    4.9451   -0.3611    0.1685 H   0  0  0  0  0  0  0  0  0  0  0  0
    4.8353   -2.0580    0.6781 H   0  0  0  0  0  0  0  0  0  0  0  0
    4.6525   -0.2415   -3.5199 H   0  0  0  0  0  0  0  0  0  0  0  0
    4.4329   -4.0850   -2.3864 H   0  0  0  0  0  0  0  0  0  0  0  0
  1  2  1  0  0  0  0 
  1  3  1  0  0  0  0 
  2  4  2  0  0  0  0 
  3  5  1  0  0  0  0 
  3  6  1  0  0  0  0 
  3  7  1  0  0  0  0 
  5  8  1  0  0  0  0 
  6  9  2  0  0  0  0 
  6 10  1  0  0  0  0 
  7 11  2  0  0  0  0 
  7 12  1  0  0  0  0 
 10 13  1  0  0  0  0 
 12 13  1  0  0  0  0 
 13 14  2  0  0  0  0 
 15  1  1  0  0  0  0 
 16  1  1  0  0  0  0 
 17  2  1  0  0  0  0 
 18  4  1  0  0  0  0 
 19  4  1  0  0  0  0 
 20  5  1  0  0  0  0 
 21  5  1  0  0  0  0 
 22  8  1  0  0  0  0 
 23  8  1  0  0  0  0 
 24  8  1  0  0  0  0 
 25 10  1  0  0  0  0 
 26 12  1  0  0  0  0 
M  END
> <cdk:Title>
etallobarbital

> <Conformer>
1

> <SuperDrugID>
SD003741

$$$$
