rocuronium
  CDK     0628171801

 91 96  0  0  0  0  0  0  0  0999 V2000
  -16.0769   -7.8094    5.5783 C   0  0  1  0  0  0  0  0  0  0  0  0
  -16.3456   -6.4351    5.1537 C   0  0  0  0  0  0  0  0  0  0  0  0
  -15.6017   -8.8057    4.5071 N   0  0  2  0  0  0  0  0  0  0  0  0
  -17.5694   -5.8947    5.0811 C   0  0  0  0  0  0  0  0  0  0  0  0
  -16.7415   -9.0699    3.5388 C   0  0  1  0  0  0  0  0  0  0  0  0
  -15.4134  -10.1549    5.1673 C   0  0  1  0  0  0  0  0  0  0  0  0
  -14.3300   -8.3013    3.7932 C   0  0  2  0  0  0  0  0  0  0  0  0
  -17.6002  -10.2337    4.0831 C   0  0  1  0  0  0  0  0  0  0  0  0
  -16.7812  -10.8643    5.2179 C   0  0  1  0  0  0  0  0  0  0  0  0
  -13.6556   -9.1047    2.6047 C   0  0  2  0  0  0  0  0  0  0  0  0
  -13.1272   -7.9159    4.7161 C   0  0  1  0  0  0  0  0  0  0  0  0
  -14.1960  -10.4125    2.3303 O   0  0  0  0  0  0  0  0  0  0  0  0
  -12.1204   -9.2096    2.9126 C   0  0  1  0  0  0  0  0  0  0  0  0
  -11.8996   -7.9255    3.7816 C   0  0  2  0  0  0  0  0  0  0  0  0
  -14.6076  -10.9489    1.1440 C   0  0  0  0  0  0  0  0  0  0  0  0
  -11.8014  -10.5709    3.6537 C   0  0  0  0  0  0  0  0  0  0  0  0
  -11.2128   -9.1178    1.6347 C   0  0  2  0  0  0  0  0  0  0  0  0
  -10.4252   -7.8903    4.3789 C   0  0  1  0  0  0  0  0  0  0  0  0
  -15.1074  -12.3303    1.1498 C   0  0  0  0  0  0  0  0  0  0  0  0
  -14.5760  -10.2913    0.0783 O   0  0  0  0  0  0  0  0  0  0  0  0
   -9.6704   -9.0399    1.9940 C   0  0  2  0  0  0  0  0  0  0  0  0
   -9.2607   -7.9992    3.2049 C   0  0  2  0  0  0  0  0  0  0  0  0
  -10.1586   -6.7071    5.4044 C   0  0  1  0  0  0  0  0  0  0  0  0
   -7.8349   -8.1614    3.9329 C   0  0  2  0  0  0  0  0  0  0  0  0
   -8.7329   -6.8362    6.0413 C   0  0  2  0  0  0  0  0  0  0  0  0
   -7.7729   -9.5793    4.6234 C   0  0  0  0  0  0  0  0  0  0  0  0
   -7.5735   -6.9751    4.9959 C   0  0  1  0  0  0  0  0  0  0  0  0
   -6.6762   -8.0496    2.8640 C   0  0  2  0  0  0  0  0  0  0  0  0
   -6.1373   -7.0040    5.6013 C   0  0  2  0  0  0  0  0  0  0  0  0
   -5.2029   -8.1475    3.4276 C   0  0  1  0  0  0  0  0  0  0  0  0
   -5.0489   -6.9884    4.4844 C   0  0  1  0  0  0  0  0  0  0  0  0
   -4.7877   -9.5370    3.9007 N   0  0  1  0  0  0  0  0  0  0  0  0
   -5.0646   -5.7221    3.8190 O   0  0  0  0  0  0  0  0  0  0  0  0
   -4.9323  -10.6484    2.8906 C   0  0  1  0  0  0  0  0  0  0  0  0
   -3.4391   -9.6602    4.5597 C   0  0  2  0  0  0  0  0  0  0  0  0
   -4.7191  -12.0323    3.5537 C   0  0  1  0  0  0  0  0  0  0  0  0
   -3.2155  -11.0770    5.1505 C   0  0  2  0  0  0  0  0  0  0  0  0
   -3.4201  -12.1045    4.1648 O   0  0  0  0  0  0  0  0  0  0  0  0
  -10.4623   -8.7465    5.0874 H   0  0  0  0  0  0  0  0  0  0  0  0
   -9.2587   -7.0183    2.7230 H   0  0  0  0  0  0  0  0  0  0  0  0
  -11.9841   -7.0361    3.1417 H   0  0  0  0  0  0  0  0  0  0  0  0
   -7.6277   -6.0380    4.4301 H   0  0  0  0  0  0  0  0  0  0  0  0
  -15.3296   -7.7324    6.3730 H   0  0  0  0  0  0  0  0  0  0  0  0
  -16.9705   -8.1977    6.0799 H   0  0  0  0  0  0  0  0  0  0  0  0
  -15.5728   -5.8545    4.9193 H   0  0  0  0  0  0  0  0  0  0  0  0
  -18.3791   -6.4237    5.3056 H   0  0  0  0  0  0  0  0  0  0  0  0
  -17.6827   -4.9505    4.7984 H   0  0  0  0  0  0  0  0  0  0  0  0
  -17.3778   -8.1976    3.3658 H   0  0  0  0  0  0  0  0  0  0  0  0
  -16.3954   -9.3517    2.5468 H   0  0  0  0  0  0  0  0  0  0  0  0
  -14.7448  -10.8060    4.6111 H   0  0  0  0  0  0  0  0  0  0  0  0
  -14.9918  -10.0853    6.1757 H   0  0  0  0  0  0  0  0  0  0  0  0
  -14.6298   -7.3561    3.3230 H   0  0  0  0  0  0  0  0  0  0  0  0
  -18.5547   -9.8624    4.4666 H   0  0  0  0  0  0  0  0  0  0  0  0
  -17.8036  -10.9704    3.3012 H   0  0  0  0  0  0  0  0  0  0  0  0
  -16.6777  -11.9443    5.0808 H   0  0  0  0  0  0  0  0  0  0  0  0
  -17.2672  -10.6870    6.1819 H   0  0  0  0  0  0  0  0  0  0  0  0
  -13.7794   -8.4977    1.6985 H   0  0  0  0  0  0  0  0  0  0  0  0
  -13.2611   -6.9235    5.1529 H   0  0  0  0  0  0  0  0  0  0  0  0
  -12.9991   -8.6344    5.5265 H   0  0  0  0  0  0  0  0  0  0  0  0
  -12.0179  -11.4251    3.0083 H   0  0  0  0  0  0  0  0  0  0  0  0
  -12.3882  -10.6824    4.5633 H   0  0  0  0  0  0  0  0  0  0  0  0
  -10.7552  -10.6631    3.9371 H   0  0  0  0  0  0  0  0  0  0  0  0
  -11.4755   -8.2275    1.0571 H   0  0  0  0  0  0  0  0  0  0  0  0
  -11.3955   -9.9787    0.9862 H   0  0  0  0  0  0  0  0  0  0  0  0
  -15.9166  -12.4216    1.8765 H   0  0  0  0  0  0  0  0  0  0  0  0
  -14.3008  -13.0104    1.4262 H   0  0  0  0  0  0  0  0  0  0  0  0
  -15.4828  -12.6147    0.1648 H   0  0  0  0  0  0  0  0  0  0  0  0
   -9.1717   -8.8130    1.0153 H   0  0  0  0  0  0  0  0  0  0  0  0
   -9.3708  -10.0998    2.1717 H   0  0  0  0  0  0  0  0  0  0  0  0
  -10.2369   -5.7538    4.8771 H   0  0  0  0  0  0  0  0  0  0  0  0
  -10.9068   -6.7114    6.2017 H   0  0  0  0  0  0  0  0  0  0  0  0
   -8.7180   -7.6924    6.7198 H   0  0  0  0  0  0  0  0  0  0  0  0
   -8.5564   -5.9441    6.6491 H   0  0  0  0  0  0  0  0  0  0  0  0
   -8.5672   -9.7398    5.3420 H   0  0  0  0  0  0  0  0  0  0  0  0
   -7.8328  -10.3779    3.8865 H   0  0  0  0  0  0  0  0  0  0  0  0
   -6.8625   -9.7327    5.1912 H   0  0  0  0  0  0  0  0  0  0  0  0
   -6.7694   -7.0814    2.3610 H   0  0  0  0  0  0  0  0  0  0  0  0
   -6.8286   -8.7707    2.0652 H   0  0  0  0  0  0  0  0  0  0  0  0
   -6.0027   -7.8831    6.2342 H   0  0  0  0  0  0  0  0  0  0  0  0
   -5.9964   -6.1270    6.2397 H   0  0  0  0  0  0  0  0  0  0  0  0
   -4.5276   -7.9047    2.5983 H   0  0  0  0  0  0  0  0  0  0  0  0
   -4.0684   -7.0105    4.9541 H   0  0  0  0  0  0  0  0  0  0  0  0
   -4.8551   -5.0652    4.5195 H   0  0  0  0  0  0  0  0  0  0  0  0
   -5.9221  -10.6873    2.4470 H   0  0  0  0  0  0  0  0  0  0  0  0
   -4.2115  -10.5188    2.0772 H   0  0  0  0  0  0  0  0  0  0  0  0
   -3.3323   -8.9809    5.4021 H   0  0  0  0  0  0  0  0  0  0  0  0
   -2.6472   -9.4388    3.8369 H   0  0  0  0  0  0  0  0  0  0  0  0
   -5.5020  -12.2210    4.2954 H   0  0  0  0  0  0  0  0  0  0  0  0
   -4.7815  -12.8131    2.7935 H   0  0  0  0  0  0  0  0  0  0  0  0
   -3.8864  -11.2384    6.0004 H   0  0  0  0  0  0  0  0  0  0  0  0
   -2.1894  -11.1607    5.5117 H   0  0  0  0  0  0  0  0  0  0  0  0
  1  2  1  0  0  0  0 
  1  3  1  0  0  0  0 
  2  4  2  0  0  0  0 
  3  5  1  0  0  0  0 
  3  6  1  0  0  0  0 
  5  8  1  0  0  0  0 
  6  9  1  0  0  0  0 
  7  3  1  0  0  0  0 
 10  7  1  0  0  0  0 
  7 11  1  0  0  0  0 
  8  9  1  0  0  0  0 
 10 12  1  0  0  0  0 
 13 10  1  0  0  0  0 
 14 11  1  0  0  0  0 
 12 15  1  0  0  0  0 
 14 13  1  0  0  0  0 
 13 16  1  0  0  0  0 
 13 17  1  0  0  0  0 
 14 18  1  0  0  0  0 
 14 41  1  0  0  0  0 
 15 19  1  0  0  0  0 
 15 20  2  0  0  0  0 
 17 21  1  0  0  0  0 
 18 22  1  0  0  0  0 
 18 23  1  0  0  0  0 
 18 39  1  0  0  0  0 
 22 21  1  0  0  0  0 
 22 24  1  0  0  0  0 
 22 40  1  0  0  0  0 
 23 25  1  0  0  0  0 
 24 26  1  0  0  0  0 
 24 27  1  0  0  0  0 
 24 28  1  0  0  0  0 
 27 25  1  0  0  0  0 
 27 29  1  0  0  0  0 
 27 42  1  0  0  0  0 
 30 28  1  0  0  0  0 
 31 29  1  0  0  0  0 
 30 31  1  0  0  0  0 
 30 32  1  0  0  0  0 
 31 33  1  0  0  0  0 
 32 34  1  0  0  0  0 
 32 35  1  0  0  0  0 
 34 36  1  0  0  0  0 
 35 37  1  0  0  0  0 
 36 38  1  0  0  0  0 
 37 38  1  0  0  0  0 
  1 43  1  0  0  0  0 
  1 44  1  0  0  0  0 
  2 45  1  0  0  0  0 
  4 46  1  0  0  0  0 
  4 47  1  0  0  0  0 
  5 48  1  0  0  0  0 
  5 49  1  0  0  0  0 
  6 50  1  0  0  0  0 
  6 51  1  0  0  0  0 
  7 52  1  0  0  0  0 
  8 53  1  0  0  0  0 
  8 54  1  0  0  0  0 
  9 55  1  0  0  0  0 
  9 56  1  0  0  0  0 
 10 57  1  0  0  0  0 
 11 58  1  0  0  0  0 
 11 59  1  0  0  0  0 
 16 60  1  0  0  0  0 
 16 61  1  0  0  0  0 
 16 62  1  0  0  0  0 
 17 63  1  0  0  0  0 
 17 64  1  0  0  0  0 
 19 65  1  0  0  0  0 
 19 66  1  0  0  0  0 
 19 67  1  0  0  0  0 
 21 68  1  0  0  0  0 
 21 69  1  0  0  0  0 
 23 70  1  0  0  0  0 
 23 71  1  0  0  0  0 
 25 72  1  0  0  0  0 
 25 73  1  0  0  0  0 
 26 74  1  0  0  0  0 
 26 75  1  0  0  0  0 
 26 76  1  0  0  0  0 
 28 77  1  0  0  0  0 
 28 78  1  0  0  0  0 
 29 79  1  0  0  0  0 
 29 80  1  0  0  0  0 
 30 81  1  0  0  0  0 
 31 82  1  0  0  0  0 
 33 83  1  0  0  0  0 
 34 84  1  0  0  0  0 
 34 85  1  0  0  0  0 
 35 86  1  0  0  0  0 
 35 87  1  0  0  0  0 
 36 88  1  0  0  0  0 
 36 89  1  0  0  0  0 
 37 90  1  0  0  0  0 
 37 91  1  0  0  0  0 
M  CHG  1   3   1
M  END
> <cdk:Title>
rocuronium

> <Conformer>
1

> <SuperDrugID>
SD002156

$$$$
