enocitabine
  CDK     0628171801

 95 96  0  0  0  0  0  0  0  0999 V2000
    1.9190    6.1554   -2.3958 O   0  0  0  0  0  0  0  0  0  0  0  0
    0.7936    6.5464   -3.1849 C   0  0  2  0  0  0  0  0  0  0  0  0
   -0.3180    5.4686   -3.3011 C   0  0  1  0  0  0  0  0  0  0  0  0
    1.1763    6.7710   -4.6505 C   0  0  2  0  0  0  0  0  0  0  0  0
   -0.8375    5.5209   -4.6458 O   0  0  0  0  0  0  0  0  0  0  0  0
    0.1716    4.1420   -2.9577 N   0  0  0  0  0  0  0  0  0  0  0  0
    1.7468    8.0576   -4.8665 O   0  0  0  0  0  0  0  0  0  0  0  0
   -0.1792    6.5794   -5.3602 C   0  0  2  0  0  0  0  0  0  0  0  0
    0.0523    3.6488   -1.6806 C   0  0  0  0  0  0  0  0  0  0  0  0
    0.8410    3.3870   -3.8899 C   0  0  0  0  0  0  0  0  0  0  0  0
   -0.0567    6.2424   -6.8665 C   0  0  2  0  0  0  0  0  0  0  0  0
   -0.5690    4.2411   -0.7675 O   0  0  0  0  0  0  0  0  0  0  0  0
    0.6748    2.4961   -1.3310 N   0  0  0  0  0  0  0  0  0  0  0  0
    1.4907    2.1920   -3.5408 C   0  0  0  0  0  0  0  0  0  0  0  0
   -1.3422    5.9781   -7.4190 O   0  0  0  0  0  0  0  0  0  0  0  0
    1.4269    1.7711   -2.2012 C   0  0  0  0  0  0  0  0  0  0  0  0
    2.2137    0.7327   -1.7938 N   0  0  0  0  0  0  0  0  0  0  0  0
    2.2163    0.1485   -0.5604 C   0  0  0  0  0  0  0  0  0  0  0  0
    3.4795   -0.4380   -0.0545 C   0  0  1  0  0  0  0  0  0  0  0  0
    1.2293    0.2313    0.2112 O   0  0  0  0  0  0  0  0  0  0  0  0
    3.7449   -1.9392   -0.3596 C   0  0  1  0  0  0  0  0  0  0  0  0
    5.1462   -2.3512    0.1851 C   0  0  1  0  0  0  0  0  0  0  0  0
    5.5234   -3.8520    0.0421 C   0  0  2  0  0  0  0  0  0  0  0  0
    6.9205   -4.1432    0.6681 C   0  0  1  0  0  0  0  0  0  0  0  0
    7.3512   -5.6357    0.6296 C   0  0  1  0  0  0  0  0  0  0  0  0
    8.7330   -5.8830    1.3087 C   0  0  2  0  0  0  0  0  0  0  0  0
    9.1538   -7.3801    1.3013 C   0  0  2  0  0  0  0  0  0  0  0  0
   10.5263   -7.6702    1.9785 C   0  0  1  0  0  0  0  0  0  0  0  0
   10.8896   -9.1841    1.9359 C   0  0  2  0  0  0  0  0  0  0  0  0
   12.2555   -9.5269    2.5939 C   0  0  1  0  0  0  0  0  0  0  0  0
   12.5947  -11.0462    2.5312 C   0  0  2  0  0  0  0  0  0  0  0  0
   13.9671  -11.3658    3.1927 C   0  0  1  0  0  0  0  0  0  0  0  0
   14.3341  -12.8769    3.1444 C   0  0  1  0  0  0  0  0  0  0  0  0
   15.7065  -13.1962    3.8056 C   0  0  1  0  0  0  0  0  0  0  0  0
   16.0749  -14.7076    3.7581 C   0  0  2  0  0  0  0  0  0  0  0  0
   17.4473  -15.0232    4.4202 C   0  0  1  0  0  0  0  0  0  0  0  0
   17.8141  -16.5346    4.3721 C   0  0  1  0  0  0  0  0  0  0  0  0
   19.1862  -16.8438    5.0351 C   0  0  2  0  0  0  0  0  0  0  0  0
   19.5557  -18.3520    4.9889 C   0  0  2  0  0  0  0  0  0  0  0  0
   20.9208  -18.6520    5.6497 C   0  0  0  0  0  0  0  0  0  0  0  0
    2.5614    6.8908   -2.4815 H   0  0  0  0  0  0  0  0  0  0  0  0
    0.3792    7.4674   -2.7583 H   0  0  0  0  0  0  0  0  0  0  0  0
   -1.1504    5.7558   -2.6520 H   0  0  0  0  0  0  0  0  0  0  0  0
    1.8896    6.0035   -4.9660 H   0  0  0  0  0  0  0  0  0  0  0  0
    1.9440    8.0818   -5.8265 H   0  0  0  0  0  0  0  0  0  0  0  0
   -0.7804    7.4914   -5.2577 H   0  0  0  0  0  0  0  0  0  0  0  0
    0.9145    3.6944   -4.8613 H   0  0  0  0  0  0  0  0  0  0  0  0
    0.5725    5.3613   -7.0157 H   0  0  0  0  0  0  0  0  0  0  0  0
    0.3883    7.0853   -7.4017 H   0  0  0  0  0  0  0  0  0  0  0  0
    2.0215    1.6659   -4.2422 H   0  0  0  0  0  0  0  0  0  0  0  0
   -1.1741    5.8078   -8.3702 H   0  0  0  0  0  0  0  0  0  0  0  0
    2.9112    0.4542   -2.4099 H   0  0  0  0  0  0  0  0  0  0  0  0
    4.3061    0.1575   -0.4551 H   0  0  0  0  0  0  0  0  0  0  0  0
    3.5003   -0.2969    1.0300 H   0  0  0  0  0  0  0  0  0  0  0  0
    2.9688   -2.5421    0.1205 H   0  0  0  0  0  0  0  0  0  0  0  0
    3.7033   -2.1095   -1.4394 H   0  0  0  0  0  0  0  0  0  0  0  0
    5.9035   -1.7552   -0.3332 H   0  0  0  0  0  0  0  0  0  0  0  0
    5.1885   -2.0902    1.2467 H   0  0  0  0  0  0  0  0  0  0  0  0
    5.5348   -4.1221   -1.0172 H   0  0  0  0  0  0  0  0  0  0  0  0
    4.7673   -4.4608    0.5443 H   0  0  0  0  0  0  0  0  0  0  0  0
    7.6704   -3.5512    0.1366 H   0  0  0  0  0  0  0  0  0  0  0  0
    6.9129   -3.8161    1.7117 H   0  0  0  0  0  0  0  0  0  0  0  0
    6.5930   -6.2369    1.1392 H   0  0  0  0  0  0  0  0  0  0  0  0
    7.3995   -5.9641   -0.4122 H   0  0  0  0  0  0  0  0  0  0  0  0
    8.6873   -5.5360    2.3452 H   0  0  0  0  0  0  0  0  0  0  0  0
    9.4964   -5.2963    0.7890 H   0  0  0  0  0  0  0  0  0  0  0  0
    9.1977   -7.7227    0.2636 H   0  0  0  0  0  0  0  0  0  0  0  0
    8.3825   -7.9587    1.8177 H   0  0  0  0  0  0  0  0  0  0  0  0
   11.3073   -7.0990    1.4680 H   0  0  0  0  0  0  0  0  0  0  0  0
   10.4912   -7.3383    3.0205 H   0  0  0  0  0  0  0  0  0  0  0  0
   10.9126   -9.5082    0.8916 H   0  0  0  0  0  0  0  0  0  0  0  0
   10.1031   -9.7469    2.4465 H   0  0  0  0  0  0  0  0  0  0  0  0
   13.0421   -8.9634    2.0844 H   0  0  0  0  0  0  0  0  0  0  0  0
   12.2316   -9.2082    3.6397 H   0  0  0  0  0  0  0  0  0  0  0  0
   12.6874  -11.3194    1.4315 H   0  0  0  0  0  0  0  0  0  0  0  0
   11.8014  -11.5875    3.1397 H   0  0  0  0  0  0  0  0  0  0  0  0
   14.7498  -10.7982    2.6814 H   0  0  0  0  0  0  0  0  0  0  0  0
   13.9425  -11.0439    4.2377 H   0  0  0  0  0  0  0  0  0  0  0  0
   13.5549  -13.4483    3.6569 H   0  0  0  0  0  0  0  0  0  0  0  0
   14.3620  -13.2024    2.1005 H   0  0  0  0  0  0  0  0  0  0  0  0
   16.4885  -12.6273    3.2937 H   0  0  0  0  0  0  0  0  0  0  0  0
   15.6813  -12.8730    4.8505 H   0  0  0  0  0  0  0  0  0  0  0  0
   16.1049  -15.0344    2.7142 H   0  0  0  0  0  0  0  0  0  0  0  0
   15.2968  -15.2802    4.2720 H   0  0  0  0  0  0  0  0  0  0  0  0
   18.2291  -14.4536    3.9077 H   0  0  0  0  0  0  0  0  0  0  0  0
   17.4211  -14.6993    5.4655 H   0  0  0  0  0  0  0  0  0  0  0  0
   17.0350  -17.1068    4.8858 H   0  0  0  0  0  0  0  0  0  0  0  0
   17.8433  -16.8610    3.3276 H   0  0  0  0  0  0  0  0  0  0  0  0
   19.1568  -16.5177    6.0796 H   0  0  0  0  0  0  0  0  0  0  0  0
   19.9653  -16.2719    4.5211 H   0  0  0  0  0  0  0  0  0  0  0  0
   19.5917  -18.6854    3.9475 H   0  0  0  0  0  0  0  0  0  0  0  0
   18.7839  -18.9309    5.5047 H   0  0  0  0  0  0  0  0  0  0  0  0
   20.9079  -18.3569    6.7012 H   0  0  0  0  0  0  0  0  0  0  0  0
   21.7191  -18.1103    5.1376 H   0  0  0  0  0  0  0  0  0  0  0  0
   21.1327  -19.7212    5.5910 H   0  0  0  0  0  0  0  0  0  0  0  0
  2  1  1  0  0  0  0 
  2  3  1  0  0  0  0 
  4  2  1  0  0  0  0 
  3  5  1  0  0  0  0 
  3  6  1  0  0  0  0 
  4  7  1  0  0  0  0 
  8  4  1  0  0  0  0 
  8  5  1  0  0  0  0 
  6  9  1  0  0  0  0 
  6 10  1  0  0  0  0 
  8 11  1  0  0  0  0 
  9 12  2  0  0  0  0 
  9 13  1  0  0  0  0 
 10 14  2  0  0  0  0 
 11 15  1  0  0  0  0 
 13 16  2  0  0  0  0 
 14 16  1  0  0  0  0 
 16 17  1  0  0  0  0 
 17 18  1  0  0  0  0 
 18 19  1  0  0  0  0 
 18 20  2  0  0  0  0 
 19 21  1  0  0  0  0 
 21 22  1  0  0  0  0 
 22 23  1  0  0  0  0 
 23 24  1  0  0  0  0 
 24 25  1  0  0  0  0 
 25 26  1  0  0  0  0 
 26 27  1  0  0  0  0 
 27 28  1  0  0  0  0 
 28 29  1  0  0  0  0 
 29 30  1  0  0  0  0 
 30 31  1  0  0  0  0 
 31 32  1  0  0  0  0 
 32 33  1  0  0  0  0 
 33 34  1  0  0  0  0 
 34 35  1  0  0  0  0 
 35 36  1  0  0  0  0 
 36 37  1  0  0  0  0 
 37 38  1  0  0  0  0 
 38 39  1  0  0  0  0 
 39 40  1  0  0  0  0 
  1 41  1  0  0  0  0 
  2 42  1  0  0  0  0 
  3 43  1  0  0  0  0 
  4 44  1  0  0  0  0 
  7 45  1  0  0  0  0 
  8 46  1  0  0  0  0 
 10 47  1  0  0  0  0 
 11 48  1  0  0  0  0 
 11 49  1  0  0  0  0 
 14 50  1  0  0  0  0 
 15 51  1  0  0  0  0 
 17 52  1  0  0  0  0 
 19 53  1  0  0  0  0 
 19 54  1  0  0  0  0 
 21 55  1  0  0  0  0 
 21 56  1  0  0  0  0 
 22 57  1  0  0  0  0 
 22 58  1  0  0  0  0 
 23 59  1  0  0  0  0 
 23 60  1  0  0  0  0 
 24 61  1  0  0  0  0 
 24 62  1  0  0  0  0 
 25 63  1  0  0  0  0 
 25 64  1  0  0  0  0 
 26 65  1  0  0  0  0 
 26 66  1  0  0  0  0 
 27 67  1  0  0  0  0 
 27 68  1  0  0  0  0 
 28 69  1  0  0  0  0 
 28 70  1  0  0  0  0 
 29 71  1  0  0  0  0 
 29 72  1  0  0  0  0 
 30 73  1  0  0  0  0 
 30 74  1  0  0  0  0 
 31 75  1  0  0  0  0 
 31 76  1  0  0  0  0 
 32 77  1  0  0  0  0 
 32 78  1  0  0  0  0 
 33 79  1  0  0  0  0 
 33 80  1  0  0  0  0 
 34 81  1  0  0  0  0 
 34 82  1  0  0  0  0 
 35 83  1  0  0  0  0 
 35 84  1  0  0  0  0 
 36 85  1  0  0  0  0 
 36 86  1  0  0  0  0 
 37 87  1  0  0  0  0 
 37 88  1  0  0  0  0 
 38 89  1  0  0  0  0 
 38 90  1  0  0  0  0 
 39 91  1  0  0  0  0 
 39 92  1  0  0  0  0 
 40 93  1  0  0  0  0 
 40 94  1  0  0  0  0 
 40 95  1  0  0  0  0 
M  END
> <cdk:Title>
enocitabine

> <Conformer>
1

> <SuperDrugID>
SD000899

$$$$
