viminol
  CDK     0628171801

 56 57  0  0  0  0  0  0  0  0999 V2000
   -1.7572    1.2616   -0.9402 C   0  0  1  0  0  0  0  0  0  0  0  0
   -2.6838    2.2092   -0.3622 N   0  0  0  0  0  0  0  0  0  0  0  0
   -0.3528    1.5173   -0.4889 C   0  0  0  0  0  0  0  0  0  0  0  0
   -3.4777    3.1364   -0.9754 C   0  0  0  0  0  0  0  0  0  0  0  0
   -2.8954    2.2970    0.9738 C   0  0  0  0  0  0  0  0  0  0  0  0
    0.2801    0.8246    0.5822 C   0  0  0  0  0  0  0  0  0  0  0  0
    0.3824    2.5275   -1.1515 C   0  0  0  0  0  0  0  0  0  0  0  0
   -3.6789    3.4286   -2.4247 C   0  0  2  0  0  0  0  0  0  0  0  0
   -4.1704    3.8285    0.0242 C   0  0  0  0  0  0  0  0  0  0  0  0
   -3.8119    3.2975    1.2464 C   0  0  0  0  0  0  0  0  0  0  0  0
   -0.4646   -0.4309    1.4512 Cl  0  0  0  0  0  0  0  0  0  0  0  0
    1.5918    1.1732    0.9730 C   0  0  0  0  0  0  0  0  0  0  0  0
    1.6929    2.8609   -0.7704 C   0  0  0  0  0  0  0  0  0  0  0  0
   -3.1045    4.8092   -2.8688 C   0  0  1  0  0  0  0  0  0  0  0  0
   -5.0852    3.4034   -2.6806 O   0  0  0  0  0  0  0  0  0  0  0  0
    2.2967    2.1854    0.3001 C   0  0  0  0  0  0  0  0  0  0  0  0
   -1.6166    4.8125   -3.1512 N   0  0  0  0  0  0  0  0  0  0  0  0
   -0.8139    5.9514   -2.5492 C   0  0  2  0  0  0  0  0  0  0  0  0
   -1.1570    4.1063   -4.4277 C   0  0  2  0  0  0  0  0  0  0  0  0
    0.3874    4.0779   -4.7211 C   0  0  2  0  0  0  0  0  0  0  0  0
   -1.9421    4.5798   -5.6933 C   0  0  0  0  0  0  0  0  0  0  0  0
    0.8772    2.9001   -5.6072 C   0  0  0  0  0  0  0  0  0  0  0  0
   -0.9546    6.0062   -0.9882 C   0  0  1  0  0  0  0  0  0  0  0  0
   -1.1155    7.3148   -3.2271 C   0  0  0  0  0  0  0  0  0  0  0  0
    0.2127    6.6726   -0.2236 C   0  0  0  0  0  0  0  0  0  0  0  0
   -2.0787    0.2519   -0.6765 H   0  0  0  0  0  0  0  0  0  0  0  0
   -1.7765    1.2861   -2.0305 H   0  0  0  0  0  0  0  0  0  0  0  0
   -2.4520    1.7199    1.6917 H   0  0  0  0  0  0  0  0  0  0  0  0
   -0.0412    3.0298   -1.9248 H   0  0  0  0  0  0  0  0  0  0  0  0
   -3.2585    2.6410   -3.0423 H   0  0  0  0  0  0  0  0  0  0  0  0
   -4.8386    4.5896   -0.1115 H   0  0  0  0  0  0  0  0  0  0  0  0
   -4.1587    3.5838    2.1638 H   0  0  0  0  0  0  0  0  0  0  0  0
    2.0473    0.6886    1.7503 H   0  0  0  0  0  0  0  0  0  0  0  0
    2.2044    3.5887   -1.2725 H   0  0  0  0  0  0  0  0  0  0  0  0
   -3.6431    5.1602   -3.7495 H   0  0  0  0  0  0  0  0  0  0  0  0
   -3.3773    5.5384   -2.1073 H   0  0  0  0  0  0  0  0  0  0  0  0
   -5.1791    3.6142   -3.6338 H   0  0  0  0  0  0  0  0  0  0  0  0
    3.2482    2.4220    0.5874 H   0  0  0  0  0  0  0  0  0  0  0  0
    0.2441    5.7731   -2.7267 H   0  0  0  0  0  0  0  0  0  0  0  0
   -1.4141    3.0523   -4.2839 H   0  0  0  0  0  0  0  0  0  0  0  0
    0.9465    3.9756   -3.7928 H   0  0  0  0  0  0  0  0  0  0  0  0
    0.6862    5.0260   -5.1775 H   0  0  0  0  0  0  0  0  0  0  0  0
   -2.9421    4.1389   -5.7049 H   0  0  0  0  0  0  0  0  0  0  0  0
   -1.4526    4.2837   -6.6221 H   0  0  0  0  0  0  0  0  0  0  0  0
   -2.0421    5.6653   -5.6955 H   0  0  0  0  0  0  0  0  0  0  0  0
    1.9148    3.0752   -5.9022 H   0  0  0  0  0  0  0  0  0  0  0  0
    0.2786    2.7818   -6.5124 H   0  0  0  0  0  0  0  0  0  0  0  0
    0.8314    1.9657   -5.0405 H   0  0  0  0  0  0  0  0  0  0  0  0
   -1.8680    6.5354   -0.7105 H   0  0  0  0  0  0  0  0  0  0  0  0
   -1.0401    4.9883   -0.6036 H   0  0  0  0  0  0  0  0  0  0  0  0
   -2.1597    7.5945   -3.0849 H   0  0  0  0  0  0  0  0  0  0  0  0
   -0.4832    8.1017   -2.8084 H   0  0  0  0  0  0  0  0  0  0  0  0
   -0.9127    7.2580   -4.2971 H   0  0  0  0  0  0  0  0  0  0  0  0
   -0.0223    6.6805    0.8432 H   0  0  0  0  0  0  0  0  0  0  0  0
    0.3625    7.7017   -0.5495 H   0  0  0  0  0  0  0  0  0  0  0  0
    1.1403    6.1176   -0.3744 H   0  0  0  0  0  0  0  0  0  0  0  0
  1  2  1  0  0  0  0 
  1  3  1  0  0  0  0 
  2  4  1  0  0  0  0 
  2  5  1  0  0  0  0 
  3  6  2  0  0  0  0 
  3  7  1  0  0  0  0 
  4  8  1  0  0  0  0 
  4  9  2  0  0  0  0 
  5 10  2  0  0  0  0 
  6 11  1  0  0  0  0 
  6 12  1  0  0  0  0 
  7 13  2  0  0  0  0 
  8 14  1  0  0  0  0 
  8 15  1  0  0  0  0 
  9 10  1  0  0  0  0 
 12 16  2  0  0  0  0 
 13 16  1  0  0  0  0 
 14 17  1  0  0  0  0 
 17 18  1  0  0  0  0 
 17 19  1  0  0  0  0 
 19 20  1  0  0  0  0 
 19 21  1  0  0  0  0 
 20 22  1  0  0  0  0 
 18 23  1  0  0  0  0 
 18 24  1  0  0  0  0 
 23 25  1  0  0  0  0 
  1 26  1  0  0  0  0 
  1 27  1  0  0  0  0 
  5 28  1  0  0  0  0 
  7 29  1  0  0  0  0 
  8 30  1  0  0  0  0 
  9 31  1  0  0  0  0 
 10 32  1  0  0  0  0 
 12 33  1  0  0  0  0 
 13 34  1  0  0  0  0 
 14 35  1  0  0  0  0 
 14 36  1  0  0  0  0 
 15 37  1  0  0  0  0 
 16 38  1  0  0  0  0 
 18 39  1  0  0  0  0 
 19 40  1  0  0  0  0 
 20 41  1  0  0  0  0 
 20 42  1  0  0  0  0 
 21 43  1  0  0  0  0 
 21 44  1  0  0  0  0 
 21 45  1  0  0  0  0 
 22 46  1  0  0  0  0 
 22 47  1  0  0  0  0 
 22 48  1  0  0  0  0 
 23 49  1  0  0  0  0 
 23 50  1  0  0  0  0 
 24 51  1  0  0  0  0 
 24 52  1  0  0  0  0 
 24 53  1  0  0  0  0 
 25 54  1  0  0  0  0 
 25 55  1  0  0  0  0 
 25 56  1  0  0  0  0 
M  END
> <cdk:Title>
viminol

> <Conformer>
1

> <SuperDrugID>
SD002545

$$$$
