regorafenib
  CDK     0628171802

 48 50  0  0  0  0  0  0  0  0999 V2000
   -5.3433    3.7632   -6.1504 O   0  0  0  0  0  0  0  0  0  0  0  0
   -6.2800    2.9313   -6.7112 C   0  0  0  0  0  0  0  0  0  0  0  0
   -5.9010    4.4549   -5.1056 C   0  0  0  0  0  0  0  0  0  0  0  0
   -7.0698    3.3905   -7.7851 C   0  0  0  0  0  0  0  0  0  0  0  0
   -6.4677    1.6192   -6.2281 C   0  0  0  0  0  0  0  0  0  0  0  0
   -6.6157    5.6524   -5.3231 C   0  0  0  0  0  0  0  0  0  0  0  0
   -5.7824    3.9532   -3.7942 C   0  0  0  0  0  0  0  0  0  0  0  0
   -8.0711    2.5590   -8.3399 C   0  0  0  0  0  0  0  0  0  0  0  0
   -7.4664    0.8155   -6.8025 C   0  0  0  0  0  0  0  0  0  0  0  0
   -7.2951    6.2779   -4.2596 C   0  0  0  0  0  0  0  0  0  0  0  0
   -6.4440    4.5857   -2.7275 C   0  0  0  0  0  0  0  0  0  0  0  0
   -8.9142    2.9901   -9.3959 C   0  0  0  0  0  0  0  0  0  0  0  0
   -8.2216    1.3077   -7.8177 N   0  0  0  0  0  0  0  0  0  0  0  0
   -7.9882    7.3590   -4.5075 F   0  0  0  0  0  0  0  0  0  0  0  0
   -7.2296    5.7424   -2.9529 C   0  0  0  0  0  0  0  0  0  0  0  0
   -9.9476    2.2073   -9.8147 N   0  0  0  0  0  0  0  0  0  0  0  0
   -8.7263    4.1085   -9.9362 O   0  0  0  0  0  0  0  0  0  0  0  0
   -7.9784    6.3354   -1.9746 N   0  0  0  0  0  0  0  0  0  0  0  0
  -10.8831    2.5571  -10.8303 C   0  0  0  0  0  0  0  0  0  0  0  0
   -7.6729    6.4772   -0.6572 C   0  0  0  0  0  0  0  0  0  0  0  0
   -8.6616    6.9415    0.1505 N   0  0  0  0  0  0  0  0  0  0  0  0
   -6.5377    6.1907   -0.2043 O   0  0  0  0  0  0  0  0  0  0  0  0
   -8.5565    7.2562    1.4742 C   0  0  0  0  0  0  0  0  0  0  0  0
   -7.4978    8.0339    1.9980 C   0  0  0  0  0  0  0  0  0  0  0  0
   -9.5759    6.8196    2.3387 C   0  0  0  0  0  0  0  0  0  0  0  0
   -7.4305    8.3738    3.3756 C   0  0  0  0  0  0  0  0  0  0  0  0
   -9.5338    7.1406    3.7039 C   0  0  0  0  0  0  0  0  0  0  0  0
   -6.3078    9.2130    3.9007 C   0  0  1  0  0  0  0  0  0  0  0  0
   -8.4745    7.9087    4.2275 C   0  0  0  0  0  0  0  0  0  0  0  0
   -5.3688    9.5758    2.9608 F   0  0  0  0  0  0  0  0  0  0  0  0
   -6.8019   10.3878    4.4171 F   0  0  0  0  0  0  0  0  0  0  0  0
   -5.6220    8.5448    4.8888 F   0  0  0  0  0  0  0  0  0  0  0  0
   -8.5327    8.2400    5.8931 Cl  0  0  0  0  0  0  0  0  0  0  0  0
   -6.9117    4.3343   -8.1478 H   0  0  0  0  0  0  0  0  0  0  0  0
   -5.8955    1.2575   -5.4618 H   0  0  0  0  0  0  0  0  0  0  0  0
   -6.6632    6.0552   -6.2632 H   0  0  0  0  0  0  0  0  0  0  0  0
   -5.2340    3.1090   -3.6189 H   0  0  0  0  0  0  0  0  0  0  0  0
   -7.6314   -0.1315   -6.4560 H   0  0  0  0  0  0  0  0  0  0  0  0
   -6.3710    4.1760   -1.7948 H   0  0  0  0  0  0  0  0  0  0  0  0
  -10.0711    1.3522   -9.3740 H   0  0  0  0  0  0  0  0  0  0  0  0
   -8.8296    6.7088   -2.2594 H   0  0  0  0  0  0  0  0  0  0  0  0
  -11.5816    1.7315  -10.9650 H   0  0  0  0  0  0  0  0  0  0  0  0
  -11.4444    3.4472  -10.5371 H   0  0  0  0  0  0  0  0  0  0  0  0
  -10.3743    2.7432  -11.7777 H   0  0  0  0  0  0  0  0  0  0  0  0
   -9.5420    7.0267   -0.2466 H   0  0  0  0  0  0  0  0  0  0  0  0
   -6.7799    8.3705    1.3510 H   0  0  0  0  0  0  0  0  0  0  0  0
  -10.3530    6.2584    1.9798 H   0  0  0  0  0  0  0  0  0  0  0  0
  -10.2882    6.8100    4.3102 H   0  0  0  0  0  0  0  0  0  0  0  0
  1  2  1  0  0  0  0 
  1  3  1  0  0  0  0 
  2  4  2  0  0  0  0 
  2  5  1  0  0  0  0 
  3  6  2  0  0  0  0 
  3  7  1  0  0  0  0 
  4  8  1  0  0  0  0 
  5  9  2  0  0  0  0 
  6 10  1  0  0  0  0 
  7 11  2  0  0  0  0 
  8 12  1  0  0  0  0 
  8 13  2  0  0  0  0 
  9 13  1  0  0  0  0 
 10 14  1  0  0  0  0 
 10 15  2  0  0  0  0 
 11 15  1  0  0  0  0 
 12 16  1  0  0  0  0 
 12 17  2  0  0  0  0 
 15 18  1  0  0  0  0 
 16 19  1  0  0  0  0 
 18 20  1  0  0  0  0 
 20 21  1  0  0  0  0 
 20 22  2  0  0  0  0 
 21 23  1  0  0  0  0 
 23 24  2  0  0  0  0 
 23 25  1  0  0  0  0 
 24 26  1  0  0  0  0 
 25 27  2  0  0  0  0 
 26 28  1  0  0  0  0 
 26 29  2  0  0  0  0 
 27 29  1  0  0  0  0 
 28 30  1  0  0  0  0 
 28 31  1  0  0  0  0 
 28 32  1  0  0  0  0 
 29 33  1  0  0  0  0 
  4 34  1  0  0  0  0 
  5 35  1  0  0  0  0 
  6 36  1  0  0  0  0 
  7 37  1  0  0  0  0 
  9 38  1  0  0  0  0 
 11 39  1  0  0  0  0 
 16 40  1  0  0  0  0 
 18 41  1  0  0  0  0 
 19 42  1  0  0  0  0 
 19 43  1  0  0  0  0 
 19 44  1  0  0  0  0 
 21 45  1  0  0  0  0 
 24 46  1  0  0  0  0 
 25 47  1  0  0  0  0 
 27 48  1  0  0  0  0 
M  END
> <cdk:Title>
regorafenib

> <Conformer>
1

> <SuperDrugID>
SD003688

$$$$
