trimipramine
  CDK     0628171801

 48 50  0  0  0  0  0  0  0  0999 V2000
    0.5081    0.6304    0.7173 C   0  0  2  0  0  0  0  0  0  0  0  0
   -0.4772    0.6333    1.9398 C   0  0  1  0  0  0  0  0  0  0  0  0
    1.0460   -0.6336    0.2073 N   0  0  0  0  0  0  0  0  0  0  0  0
   -0.7407    2.0880    2.4515 C   0  0  2  0  0  0  0  0  0  0  0  0
   -1.8324   -0.0528    1.6165 C   0  0  0  0  0  0  0  0  0  0  0  0
    1.4149   -0.7675   -1.1369 C   0  0  0  0  0  0  0  0  0  0  0  0
    1.3609   -1.6380    1.1029 C   0  0  0  0  0  0  0  0  0  0  0  0
    0.4880    2.8363    2.8862 N   0  0  1  0  0  0  0  0  0  0  0  0
    1.2554   -1.9655   -1.9095 C   0  0  0  0  0  0  0  0  0  0  0  0
    2.0311    0.3460   -1.7782 C   0  0  0  0  0  0  0  0  0  0  0  0
    0.7566   -2.9210    1.0321 C   0  0  0  0  0  0  0  0  0  0  0  0
    2.2898   -1.3809    2.1408 C   0  0  0  0  0  0  0  0  0  0  0  0
    0.2925    4.3168    2.8923 C   0  0  0  0  0  0  0  0  0  0  0  0
    1.0823    2.3544    4.1712 C   0  0  0  0  0  0  0  0  0  0  0  0
    0.6105   -3.2356   -1.4515 C   0  0  2  0  0  0  0  0  0  0  0  0
    1.7370   -2.0009   -3.2453 C   0  0  0  0  0  0  0  0  0  0  0  0
    2.4542    0.3054   -3.1151 C   0  0  0  0  0  0  0  0  0  0  0  0
   -0.1368   -3.2574   -0.1015 C   0  0  1  0  0  0  0  0  0  0  0  0
    1.0125   -3.8742    2.0486 C   0  0  0  0  0  0  0  0  0  0  0  0
    2.5585   -2.3413    3.1309 C   0  0  0  0  0  0  0  0  0  0  0  0
    2.3168   -0.8762   -3.8484 C   0  0  0  0  0  0  0  0  0  0  0  0
    1.8999   -3.5803    3.0984 C   0  0  0  0  0  0  0  0  0  0  0  0
    1.3776    1.2304    0.9943 H   0  0  0  0  0  0  0  0  0  0  0  0
    0.0042    1.1679   -0.0918 H   0  0  0  0  0  0  0  0  0  0  0  0
   -0.0359    0.0685    2.7614 H   0  0  0  0  0  0  0  0  0  0  0  0
   -1.4609    2.0656    3.2756 H   0  0  0  0  0  0  0  0  0  0  0  0
   -1.2262    2.6224    1.6296 H   0  0  0  0  0  0  0  0  0  0  0  0
   -1.6910   -1.1133    1.4322 H   0  0  0  0  0  0  0  0  0  0  0  0
   -2.3032    0.4029    0.7421 H   0  0  0  0  0  0  0  0  0  0  0  0
   -2.5136    0.0347    2.4664 H   0  0  0  0  0  0  0  0  0  0  0  0
    2.1951    1.2171   -1.2715 H   0  0  0  0  0  0  0  0  0  0  0  0
    2.7710   -0.4802    2.1873 H   0  0  0  0  0  0  0  0  0  0  0  0
    1.2175    4.8328    3.1610 H   0  0  0  0  0  0  0  0  0  0  0  0
    0.0105    4.6686    1.8985 H   0  0  0  0  0  0  0  0  0  0  0  0
   -0.4878    4.6044    3.6012 H   0  0  0  0  0  0  0  0  0  0  0  0
    0.3619    2.4378    4.9887 H   0  0  0  0  0  0  0  0  0  0  0  0
    1.4022    1.3154    4.0898 H   0  0  0  0  0  0  0  0  0  0  0  0
    1.9697    2.9361    4.4371 H   0  0  0  0  0  0  0  0  0  0  0  0
    1.3775   -4.0178   -1.4359 H   0  0  0  0  0  0  0  0  0  0  0  0
   -0.1353   -3.5229   -2.2014 H   0  0  0  0  0  0  0  0  0  0  0  0
    1.6657   -2.8570   -3.8054 H   0  0  0  0  0  0  0  0  0  0  0  0
    2.8700    1.1315   -3.5503 H   0  0  0  0  0  0  0  0  0  0  0  0
   -0.5684   -4.2560    0.0206 H   0  0  0  0  0  0  0  0  0  0  0  0
   -0.9704   -2.5601   -0.1469 H   0  0  0  0  0  0  0  0  0  0  0  0
    0.5564   -4.7915    2.0337 H   0  0  0  0  0  0  0  0  0  0  0  0
    3.2262   -2.1354    3.8771 H   0  0  0  0  0  0  0  0  0  0  0  0
    2.6406   -0.9185   -4.8184 H   0  0  0  0  0  0  0  0  0  0  0  0
    2.0707   -4.2688    3.8355 H   0  0  0  0  0  0  0  0  0  0  0  0
  2  1  1  0  0  0  0 
  1  3  1  0  0  0  0 
  2  4  1  0  0  0  0 
  2  5  1  0  0  0  0 
  3  6  1  0  0  0  0 
  3  7  1  0  0  0  0 
  4  8  1  0  0  0  0 
  6  9  2  0  0  0  0 
  6 10  1  0  0  0  0 
  7 11  2  0  0  0  0 
  7 12  1  0  0  0  0 
  8 13  1  0  0  0  0 
  8 14  1  0  0  0  0 
  9 15  1  0  0  0  0 
  9 16  1  0  0  0  0 
 10 17  2  0  0  0  0 
 11 18  1  0  0  0  0 
 11 19  1  0  0  0  0 
 12 20  2  0  0  0  0 
 15 18  1  0  0  0  0 
 16 21  2  0  0  0  0 
 17 21  1  0  0  0  0 
 19 22  2  0  0  0  0 
 20 22  1  0  0  0  0 
  1 23  1  0  0  0  0 
  1 24  1  0  0  0  0 
  2 25  1  0  0  0  0 
  4 26  1  0  0  0  0 
  4 27  1  0  0  0  0 
  5 28  1  0  0  0  0 
  5 29  1  0  0  0  0 
  5 30  1  0  0  0  0 
 10 31  1  0  0  0  0 
 12 32  1  0  0  0  0 
 13 33  1  0  0  0  0 
 13 34  1  0  0  0  0 
 13 35  1  0  0  0  0 
 14 36  1  0  0  0  0 
 14 37  1  0  0  0  0 
 14 38  1  0  0  0  0 
 15 39  1  0  0  0  0 
 15 40  1  0  0  0  0 
 16 41  1  0  0  0  0 
 17 42  1  0  0  0  0 
 18 43  1  0  0  0  0 
 18 44  1  0  0  0  0 
 19 45  1  0  0  0  0 
 20 46  1  0  0  0  0 
 21 47  1  0  0  0  0 
 22 48  1  0  0  0  0 
M  END
> <cdk:Title>
trimipramine

> <Conformer>
1

> <SuperDrugID>
SD002487

$$$$
