cetirizine
  CDK     0628171802

 52 54  0  0  0  0  0  0  0  0999 V2000
    2.0787   -0.5878   -2.2627 C   0  0  2  0  0  0  0  0  0  0  0  0
    3.0013   -1.2755   -1.2817 N   0  0  1  0  0  0  0  0  0  0  0  0
    2.5454   -0.7137   -3.6864 C   0  0  0  0  0  0  0  0  0  0  0  0
    1.8343    0.8679   -1.9540 C   0  0  0  0  0  0  0  0  0  0  0  0
    2.5691   -1.1911    0.1517 C   0  0  1  0  0  0  0  0  0  0  0  0
    3.3726   -2.6968   -1.6003 C   0  0  1  0  0  0  0  0  0  0  0  0
    3.7604   -0.1268   -4.1200 C   0  0  0  0  0  0  0  0  0  0  0  0
    1.8042   -1.4688   -4.6314 C   0  0  0  0  0  0  0  0  0  0  0  0
    2.8627    1.7074   -1.4504 C   0  0  0  0  0  0  0  0  0  0  0  0
    0.5498    1.4387   -2.1382 C   0  0  0  0  0  0  0  0  0  0  0  0
    3.7247   -1.6201    1.0828 C   0  0  1  0  0  0  0  0  0  0  0  0
    4.5213   -3.1848   -0.6797 C   0  0  2  0  0  0  0  0  0  0  0  0
    4.1977   -0.2485   -5.4507 C   0  0  0  0  0  0  0  0  0  0  0  0
    2.2491   -1.6157   -5.9581 C   0  0  0  0  0  0  0  0  0  0  0  0
    2.6120    3.0494   -1.1118 C   0  0  0  0  0  0  0  0  0  0  0  0
    0.2978    2.7845   -1.8095 C   0  0  0  0  0  0  0  0  0  0  0  0
    4.2198   -2.9985    0.7766 N   0  0  1  0  0  0  0  0  0  0  0  0
    3.4434   -0.9971   -6.3734 C   0  0  0  0  0  0  0  0  0  0  0  0
    1.3264    3.5872   -1.2884 C   0  0  0  0  0  0  0  0  0  0  0  0
    5.3638   -3.4492    1.6428 C   0  0  1  0  0  0  0  0  0  0  0  0
    3.9681   -1.1487   -7.9756 Cl  0  0  0  0  0  0  0  0  0  0  0  0
    5.0923   -3.4146    3.1677 C   0  0  1  0  0  0  0  0  0  0  0  0
    3.8729   -4.1293    3.4417 O   0  0  0  0  0  0  0  0  0  0  0  0
    3.4224   -4.0474    4.8065 C   0  0  2  0  0  0  0  0  0  0  0  0
    2.2514   -4.9189    4.9939 C   0  0  0  0  0  0  0  0  0  0  0  0
    1.0732   -4.4202    5.4384 O   0  0  0  0  0  0  0  0  0  0  0  0
    2.3328   -6.1469    4.7657 O   0  0  0  0  0  0  0  0  0  0  0  0
    1.1188   -1.1074   -2.1677 H   0  0  0  0  0  0  0  0  0  0  0  0
    2.2979   -0.1745    0.4378 H   0  0  0  0  0  0  0  0  0  0  0  0
    1.6924   -1.8231    0.3288 H   0  0  0  0  0  0  0  0  0  0  0  0
    2.5060   -3.3545   -1.4876 H   0  0  0  0  0  0  0  0  0  0  0  0
    3.7244   -2.7958   -2.6283 H   0  0  0  0  0  0  0  0  0  0  0  0
    4.3460    0.3965   -3.4689 H   0  0  0  0  0  0  0  0  0  0  0  0
    0.9332   -1.9316   -4.3595 H   0  0  0  0  0  0  0  0  0  0  0  0
    3.8068    1.3444   -1.3070 H   0  0  0  0  0  0  0  0  0  0  0  0
   -0.2185    0.8732   -2.5068 H   0  0  0  0  0  0  0  0  0  0  0  0
    4.5433   -0.8986    1.0043 H   0  0  0  0  0  0  0  0  0  0  0  0
    3.3299   -1.5778    2.0991 H   0  0  0  0  0  0  0  0  0  0  0  0
    5.4339   -2.6456   -0.9495 H   0  0  0  0  0  0  0  0  0  0  0  0
    4.6950   -4.2457   -0.8821 H   0  0  0  0  0  0  0  0  0  0  0  0
    5.0671    0.2092   -5.7388 H   0  0  0  0  0  0  0  0  0  0  0  0
    1.6994   -2.1742   -6.6174 H   0  0  0  0  0  0  0  0  0  0  0  0
    3.3630    3.6308   -0.7310 H   0  0  0  0  0  0  0  0  0  0  0  0
   -0.6358    3.1783   -1.9424 H   0  0  0  0  0  0  0  0  0  0  0  0
    1.1408    4.5604   -1.0354 H   0  0  0  0  0  0  0  0  0  0  0  0
    5.6107   -4.4843    1.3884 H   0  0  0  0  0  0  0  0  0  0  0  0
    6.2529   -2.8464    1.4337 H   0  0  0  0  0  0  0  0  0  0  0  0
    5.9284   -3.8884    3.6918 H   0  0  0  0  0  0  0  0  0  0  0  0
    5.0224   -2.3756    3.5037 H   0  0  0  0  0  0  0  0  0  0  0  0
    3.1485   -3.0155    5.0464 H   0  0  0  0  0  0  0  0  0  0  0  0
    4.2062   -4.3777    5.4939 H   0  0  0  0  0  0  0  0  0  0  0  0
    0.3061   -5.0153    5.5812 H   0  0  0  0  0  0  0  0  0  0  0  0
  1  2  1  0  0  0  0 
  1  3  1  0  0  0  0 
  1  4  1  0  0  0  0 
  2  5  1  0  0  0  0 
  2  6  1  0  0  0  0 
  3  7  2  0  0  0  0 
  3  8  1  0  0  0  0 
  4  9  2  0  0  0  0 
  4 10  1  0  0  0  0 
  5 11  1  0  0  0  0 
  6 12  1  0  0  0  0 
  7 13  1  0  0  0  0 
  8 14  2  0  0  0  0 
  9 15  1  0  0  0  0 
 10 16  2  0  0  0  0 
 11 17  1  0  0  0  0 
 12 17  1  0  0  0  0 
 13 18  2  0  0  0  0 
 14 18  1  0  0  0  0 
 15 19  2  0  0  0  0 
 16 19  1  0  0  0  0 
 17 20  1  0  0  0  0 
 18 21  1  0  0  0  0 
 20 22  1  0  0  0  0 
 22 23  1  0  0  0  0 
 23 24  1  0  0  0  0 
 24 25  1  0  0  0  0 
 25 26  1  0  0  0  0 
 25 27  2  0  0  0  0 
  1 28  1  0  0  0  0 
  5 29  1  0  0  0  0 
  5 30  1  0  0  0  0 
  6 31  1  0  0  0  0 
  6 32  1  0  0  0  0 
  7 33  1  0  0  0  0 
  8 34  1  0  0  0  0 
  9 35  1  0  0  0  0 
 10 36  1  0  0  0  0 
 11 37  1  0  0  0  0 
 11 38  1  0  0  0  0 
 12 39  1  0  0  0  0 
 12 40  1  0  0  0  0 
 13 41  1  0  0  0  0 
 14 42  1  0  0  0  0 
 15 43  1  0  0  0  0 
 16 44  1  0  0  0  0 
 19 45  1  0  0  0  0 
 20 46  1  0  0  0  0 
 20 47  1  0  0  0  0 
 22 48  1  0  0  0  0 
 22 49  1  0  0  0  0 
 24 50  1  0  0  0  0 
 24 51  1  0  0  0  0 
 26 52  1  0  0  0  0 
M  END
> <cdk:Title>
cetirizine

> <Conformer>
1

> <SuperDrugID>
SD000508

$$$$
