oxymethurea
  CDK     0628171801

 16 15  0  0  0  0  0  0  0  0999 V2000
    0.8850   -1.3803    2.0920 O   0  0  0  0  0  0  0  0  0  0  0  0
    0.4544   -0.0761    1.7224 C   0  0  1  0  0  0  0  0  0  0  0  0
   -0.3304   -0.1746    0.5356 N   0  0  0  0  0  0  0  0  0  0  0  0
   -1.4112    0.5869    0.2257 C   0  0  0  0  0  0  0  0  0  0  0  0
   -1.8258    1.4810    1.0012 O   0  0  0  0  0  0  0  0  0  0  0  0
   -2.0254    0.3354   -0.9595 N   0  0  0  0  0  0  0  0  0  0  0  0
   -3.1728    1.0096   -1.4761 C   0  0  1  0  0  0  0  0  0  0  0  0
   -2.9970    1.2289   -2.8694 O   0  0  0  0  0  0  0  0  0  0  0  0
    1.4372   -1.2459    2.8921 H   0  0  0  0  0  0  0  0  0  0  0  0
   -0.1021    0.3585    2.5567 H   0  0  0  0  0  0  0  0  0  0  0  0
    1.3327    0.5387    1.5187 H   0  0  0  0  0  0  0  0  0  0  0  0
   -0.0603   -0.8424   -0.1136 H   0  0  0  0  0  0  0  0  0  0  0  0
   -1.6522   -0.3731   -1.5073 H   0  0  0  0  0  0  0  0  0  0  0  0
   -4.0511    0.3772   -1.3356 H   0  0  0  0  0  0  0  0  0  0  0  0
   -3.3481    1.9756   -0.9972 H   0  0  0  0  0  0  0  0  0  0  0  0
   -2.2232    1.8284   -2.9333 H   0  0  0  0  0  0  0  0  0  0  0  0
  1  2  1  0  0  0  0 
  2  3  1  0  0  0  0 
  3  4  1  0  0  0  0 
  4  5  2  0  0  0  0 
  4  6  1  0  0  0  0 
  6  7  1  0  0  0  0 
  7  8  1  0  0  0  0 
  9  1  1  0  0  0  0 
 10  2  1  0  0  0  0 
 11  2  1  0  0  0  0 
 12  3  1  0  0  0  0 
 13  6  1  0  0  0  0 
 14  7  1  0  0  0  0 
 15  7  1  0  0  0  0 
 16  8  1  0  0  0  0 
M  END
> <cdk:Title>
oxymethurea

> <Conformer>
1

> <SuperDrugID>
SD002940

$$$$
