amodiaquine
  CDK     0628171801

 47 49  0  0  0  0  0  0  0  0999 V2000
   -4.1438    0.2894    1.9208 N   0  0  0  0  0  0  0  0  0  0  0  0
   -3.4828   -0.1913    0.8158 C   0  0  0  0  0  0  0  0  0  0  0  0
   -5.4709    0.2421    2.2488 C   0  0  0  0  0  0  0  0  0  0  0  0
   -2.0575   -0.2720    0.8291 C   0  0  0  0  0  0  0  0  0  0  0  0
   -4.1694   -0.5466   -0.3723 C   0  0  0  0  0  0  0  0  0  0  0  0
   -6.3176   -0.8704    2.0266 C   0  0  0  0  0  0  0  0  0  0  0  0
   -5.9994    1.3755    2.8991 C   0  0  0  0  0  0  0  0  0  0  0  0
   -1.3891   -0.7170   -0.3499 C   0  0  0  0  0  0  0  0  0  0  0  0
   -1.2562    0.0748    1.9491 C   0  0  0  0  0  0  0  0  0  0  0  0
   -3.4518   -0.9670   -1.5035 C   0  0  0  0  0  0  0  0  0  0  0  0
   -7.6761   -0.8580    2.4304 C   0  0  0  0  0  0  0  0  0  0  0  0
   -7.3401    1.4019    3.3175 C   0  0  0  0  0  0  0  0  0  0  0  0
    0.0160   -0.8190   -0.3949 C   0  0  0  0  0  0  0  0  0  0  0  0
   -2.1019   -1.0418   -1.4574 N   0  0  0  0  0  0  0  0  0  0  0  0
    0.1482   -0.0272    1.9018 C   0  0  0  0  0  0  0  0  0  0  0  0
   -8.5645   -2.0284    2.1598 C   0  0  1  0  0  0  0  0  0  0  0  0
   -8.1729    0.2878    3.1026 C   0  0  0  0  0  0  0  0  0  0  0  0
    0.7868   -0.4787    0.7323 C   0  0  0  0  0  0  0  0  0  0  0  0
   -9.8016   -1.6675    1.3861 N   0  0  1  0  0  0  0  0  0  0  0  0
   -9.4506    0.3605    3.5625 O   0  0  0  0  0  0  0  0  0  0  0  0
    2.4748   -0.6106    0.6793 Cl  0  0  0  0  0  0  0  0  0  0  0  0
   -9.5468   -1.1157    0.0066 C   0  0  1  0  0  0  0  0  0  0  0  0
  -10.9147   -2.6771    1.4373 C   0  0  1  0  0  0  0  0  0  0  0  0
  -10.2461    0.2520   -0.1500 C   0  0  0  0  0  0  0  0  0  0  0  0
  -11.5780   -2.8419    2.8265 C   0  0  0  0  0  0  0  0  0  0  0  0
   -3.5970    0.7839    2.5501 H   0  0  0  0  0  0  0  0  0  0  0  0
   -5.1840   -0.4818   -0.4409 H   0  0  0  0  0  0  0  0  0  0  0  0
   -5.9341   -1.7054    1.5788 H   0  0  0  0  0  0  0  0  0  0  0  0
   -5.4140    2.1970    3.0714 H   0  0  0  0  0  0  0  0  0  0  0  0
   -1.6792    0.4099    2.8173 H   0  0  0  0  0  0  0  0  0  0  0  0
   -3.9411   -1.2091   -2.3676 H   0  0  0  0  0  0  0  0  0  0  0  0
   -7.7053    2.2327    3.7905 H   0  0  0  0  0  0  0  0  0  0  0  0
    0.4789   -1.1380   -1.2514 H   0  0  0  0  0  0  0  0  0  0  0  0
    0.7020    0.2277    2.7248 H   0  0  0  0  0  0  0  0  0  0  0  0
   -8.0365   -2.8236    1.6256 H   0  0  0  0  0  0  0  0  0  0  0  0
   -8.8243   -2.4300    3.1380 H   0  0  0  0  0  0  0  0  0  0  0  0
   -9.7697   -0.5633    3.6208 H   0  0  0  0  0  0  0  0  0  0  0  0
   -8.4797   -0.9725   -0.1877 H   0  0  0  0  0  0  0  0  0  0  0  0
   -9.9097   -1.7863   -0.7786 H   0  0  0  0  0  0  0  0  0  0  0  0
  -11.7181   -2.3710    0.7592 H   0  0  0  0  0  0  0  0  0  0  0  0
  -10.5485   -3.6490    1.0975 H   0  0  0  0  0  0  0  0  0  0  0  0
   -9.9465    0.7271   -1.0870 H   0  0  0  0  0  0  0  0  0  0  0  0
  -11.3307    0.1286   -0.1510 H   0  0  0  0  0  0  0  0  0  0  0  0
   -9.9699    0.9128    0.6717 H   0  0  0  0  0  0  0  0  0  0  0  0
  -12.4575   -3.4843    2.7433 H   0  0  0  0  0  0  0  0  0  0  0  0
  -10.9008   -3.3062    3.5433 H   0  0  0  0  0  0  0  0  0  0  0  0
  -11.8938   -1.8707    3.2118 H   0  0  0  0  0  0  0  0  0  0  0  0
  1  2  1  0  0  0  0 
  1  3  1  0  0  0  0 
  2  4  2  0  0  0  0 
  2  5  1  0  0  0  0 
  3  6  2  0  0  0  0 
  3  7  1  0  0  0  0 
  4  8  1  0  0  0  0 
  4  9  1  0  0  0  0 
  5 10  2  0  0  0  0 
  6 11  1  0  0  0  0 
  7 12  2  0  0  0  0 
  8 13  1  0  0  0  0 
  8 14  2  0  0  0  0 
  9 15  2  0  0  0  0 
 10 14  1  0  0  0  0 
 11 16  1  0  0  0  0 
 11 17  2  0  0  0  0 
 12 17  1  0  0  0  0 
 13 18  2  0  0  0  0 
 15 18  1  0  0  0  0 
 16 19  1  0  0  0  0 
 17 20  1  0  0  0  0 
 18 21  1  0  0  0  0 
 19 22  1  0  0  0  0 
 19 23  1  0  0  0  0 
 22 24  1  0  0  0  0 
 23 25  1  0  0  0  0 
  1 26  1  0  0  0  0 
  5 27  1  0  0  0  0 
  6 28  1  0  0  0  0 
  7 29  1  0  0  0  0 
  9 30  1  0  0  0  0 
 10 31  1  0  0  0  0 
 12 32  1  0  0  0  0 
 13 33  1  0  0  0  0 
 15 34  1  0  0  0  0 
 16 35  1  0  0  0  0 
 16 36  1  0  0  0  0 
 20 37  1  0  0  0  0 
 22 38  1  0  0  0  0 
 22 39  1  0  0  0  0 
 23 40  1  0  0  0  0 
 23 41  1  0  0  0  0 
 24 42  1  0  0  0  0 
 24 43  1  0  0  0  0 
 24 44  1  0  0  0  0 
 25 45  1  0  0  0  0 
 25 46  1  0  0  0  0 
 25 47  1  0  0  0  0 
M  END
> <cdk:Title>
amodiaquine

> <Conformer>
1

> <SuperDrugID>
SD000151

$$$$
