tolnaftate
  CDK     0628171801

 39 41  0  0  0  0  0  0  0  0999 V2000
   -1.5525    1.9067    0.2600 O   0  0  0  0  0  0  0  0  0  0  0  0
   -1.5164    0.6422    0.6989 C   0  0  0  0  0  0  0  0  0  0  0  0
   -1.0149    2.0061   -0.9964 C   0  0  0  0  0  0  0  0  0  0  0  0
   -2.5645   -0.1779    0.4912 N   0  0  0  0  0  0  0  0  0  0  0  0
   -0.1685    0.1135    1.6002 S   0  0  0  0  0  0  0  0  0  0  0  0
   -1.8100    1.7747   -2.1389 C   0  0  0  0  0  0  0  0  0  0  0  0
    0.3418    2.3547   -1.1563 C   0  0  0  0  0  0  0  0  0  0  0  0
   -2.3450   -1.3186   -0.3731 C   0  0  0  0  0  0  0  0  0  0  0  0
   -3.8124    0.0829    1.0715 C   0  0  0  0  0  0  0  0  0  0  0  0
   -1.2509    1.8477   -3.4340 C   0  0  0  0  0  0  0  0  0  0  0  0
    0.9074    2.4457   -2.4405 C   0  0  0  0  0  0  0  0  0  0  0  0
   -3.9374    0.8914    2.2362 C   0  0  0  0  0  0  0  0  0  0  0  0
   -5.0167   -0.4657    0.5516 C   0  0  0  0  0  0  0  0  0  0  0  0
    0.1251    2.1856   -3.5878 C   0  0  0  0  0  0  0  0  0  0  0  0
   -2.0343    1.5819   -4.5802 C   0  0  0  0  0  0  0  0  0  0  0  0
   -5.1781    1.1213    2.8730 C   0  0  0  0  0  0  0  0  0  0  0  0
   -6.2616   -0.2354    1.1606 C   0  0  0  0  0  0  0  0  0  0  0  0
    0.6828    2.2572   -4.8850 C   0  0  0  0  0  0  0  0  0  0  0  0
   -1.4639    1.6490   -5.8634 C   0  0  0  0  0  0  0  0  0  0  0  0
   -5.2281    1.9666    4.0860 C   0  0  0  0  0  0  0  0  0  0  0  0
   -6.3411    0.5379    2.3281 C   0  0  0  0  0  0  0  0  0  0  0  0
   -0.1086    1.9867   -6.0155 C   0  0  0  0  0  0  0  0  0  0  0  0
   -2.7989    1.5449   -2.0166 H   0  0  0  0  0  0  0  0  0  0  0  0
    0.9230    2.5353   -0.3339 H   0  0  0  0  0  0  0  0  0  0  0  0
   -2.7179   -2.2269    0.1032 H   0  0  0  0  0  0  0  0  0  0  0  0
   -1.2937   -1.4913   -0.6143 H   0  0  0  0  0  0  0  0  0  0  0  0
   -2.8658   -1.1715   -1.3213 H   0  0  0  0  0  0  0  0  0  0  0  0
    1.8941    2.6981   -2.5265 H   0  0  0  0  0  0  0  0  0  0  0  0
   -3.1033    1.3157    2.6489 H   0  0  0  0  0  0  0  0  0  0  0  0
   -5.0116   -1.0516   -0.2838 H   0  0  0  0  0  0  0  0  0  0  0  0
   -3.0251    1.3366   -4.4919 H   0  0  0  0  0  0  0  0  0  0  0  0
   -7.1100   -0.6337    0.7546 H   0  0  0  0  0  0  0  0  0  0  0  0
    1.6659    2.5092   -5.0191 H   0  0  0  0  0  0  0  0  0  0  0  0
   -2.0362    1.4494   -6.6869 H   0  0  0  0  0  0  0  0  0  0  0  0
   -4.9070    2.9782    3.8298 H   0  0  0  0  0  0  0  0  0  0  0  0
   -4.5571    1.5615    4.8462 H   0  0  0  0  0  0  0  0  0  0  0  0
   -6.2323    2.0221    4.5105 H   0  0  0  0  0  0  0  0  0  0  0  0
   -7.2535    0.6726    2.7749 H   0  0  0  0  0  0  0  0  0  0  0  0
    0.3008    2.0355   -6.9507 H   0  0  0  0  0  0  0  0  0  0  0  0
  1  2  1  0  0  0  0 
  1  3  1  0  0  0  0 
  2  4  1  0  0  0  0 
  2  5  2  0  0  0  0 
  3  6  1  0  0  0  0 
  3  7  2  0  0  0  0 
  4  8  1  0  0  0  0 
  4  9  1  0  0  0  0 
  6 10  2  0  0  0  0 
  7 11  1  0  0  0  0 
  9 12  2  0  0  0  0 
  9 13  1  0  0  0  0 
 10 14  1  0  0  0  0 
 10 15  1  0  0  0  0 
 11 14  2  0  0  0  0 
 12 16  1  0  0  0  0 
 13 17  2  0  0  0  0 
 14 18  1  0  0  0  0 
 15 19  2  0  0  0  0 
 16 20  1  0  0  0  0 
 16 21  2  0  0  0  0 
 17 21  1  0  0  0  0 
 18 22  2  0  0  0  0 
 19 22  1  0  0  0  0 
  6 23  1  0  0  0  0 
  7 24  1  0  0  0  0 
  8 25  1  0  0  0  0 
  8 26  1  0  0  0  0 
  8 27  1  0  0  0  0 
 11 28  1  0  0  0  0 
 12 29  1  0  0  0  0 
 13 30  1  0  0  0  0 
 15 31  1  0  0  0  0 
 17 32  1  0  0  0  0 
 18 33  1  0  0  0  0 
 19 34  1  0  0  0  0 
 20 35  1  0  0  0  0 
 20 36  1  0  0  0  0 
 20 37  1  0  0  0  0 
 21 38  1  0  0  0  0 
 22 39  1  0  0  0  0 
M  END
> <cdk:Title>
tolnaftate

> <Conformer>
1

> <SuperDrugID>
SD003098

$$$$
