caffeine
  CDK     0628171802

 24 25  0  0  0  0  0  0  0  0999 V2000
   -0.8019   -4.5568    0.7619 C   0  0  0  0  0  0  0  0  0  0  0  0
   -0.6368   -3.3084    0.0785 N   0  0  0  0  0  0  0  0  0  0  0  0
   -0.4724   -3.1517   -1.2522 C   0  0  0  0  0  0  0  0  0  0  0  0
   -0.3454   -1.8543   -1.5776 N   0  0  0  0  0  0  0  0  0  0  0  0
   -0.4238   -1.1609   -0.4297 C   0  0  0  0  0  0  0  0  0  0  0  0
   -0.6044   -2.0670    0.6078 C   0  0  0  0  0  0  0  0  0  0  0  0
   -0.7042   -1.5772    1.9213 C   0  0  0  0  0  0  0  0  0  0  0  0
   -0.8945   -2.3975    2.8512 O   0  0  0  0  0  0  0  0  0  0  0  0
   -0.5795   -0.2248    2.1503 N   0  0  0  0  0  0  0  0  0  0  0  0
   -0.6429    0.2454    3.5225 C   0  0  0  0  0  0  0  0  0  0  0  0
   -0.3898    0.6374    1.0841 C   0  0  0  0  0  0  0  0  0  0  0  0
   -0.2582    1.8690    1.2985 O   0  0  0  0  0  0  0  0  0  0  0  0
   -0.3345    0.1850   -0.2178 N   0  0  0  0  0  0  0  0  0  0  0  0
   -0.1546    1.0886   -1.3342 C   0  0  0  0  0  0  0  0  0  0  0  0
    0.0199   -4.7063    1.4662 H   0  0  0  0  0  0  0  0  0  0  0  0
   -0.8076   -5.3977    0.0643 H   0  0  0  0  0  0  0  0  0  0  0  0
   -1.7480   -4.5610    1.3075 H   0  0  0  0  0  0  0  0  0  0  0  0
   -0.4440   -3.9108   -1.9359 H   0  0  0  0  0  0  0  0  0  0  0  0
   -1.6038   -0.0247    3.9665 H   0  0  0  0  0  0  0  0  0  0  0  0
    0.1572   -0.2117    4.1091 H   0  0  0  0  0  0  0  0  0  0  0  0
   -0.5349    1.3236    3.6310 H   0  0  0  0  0  0  0  0  0  0  0  0
   -0.7241    2.0111   -1.1932 H   0  0  0  0  0  0  0  0  0  0  0  0
   -0.4896    0.6614   -2.2809 H   0  0  0  0  0  0  0  0  0  0  0  0
    0.9034    1.3378   -1.4339 H   0  0  0  0  0  0  0  0  0  0  0  0
  1  2  1  0  0  0  0 
  2  3  1  0  0  0  0 
  3  4  2  0  0  0  0 
  4  5  1  0  0  0  0 
  5  6  2  0  0  0  0 
  2  6  1  0  0  0  0 
  6  7  1  0  0  0  0 
  7  8  2  0  0  0  0 
  7  9  1  0  0  0  0 
  9 10  1  0  0  0  0 
  9 11  1  0  0  0  0 
 11 12  2  0  0  0  0 
 11 13  1  0  0  0  0 
  5 13  1  0  0  0  0 
 13 14  1  0  0  0  0 
  1 15  1  0  0  0  0 
  1 16  1  0  0  0  0 
  1 17  1  0  0  0  0 
  3 18  1  0  0  0  0 
 10 19  1  0  0  0  0 
 10 20  1  0  0  0  0 
 10 21  1  0  0  0  0 
 14 22  1  0  0  0  0 
 14 23  1  0  0  0  0 
 14 24  1  0  0  0  0 
M  END
> <cdk:Title>
caffeine

> <Conformer>
1

> <SuperDrugID>
SD000403

$$$$
