dapoxetine
  CDK     0628171801

 46 48  0  0  0  0  0  0  0  0999 V2000
    0.2500   -0.0020   -0.5734 O   0  0  0  0  0  0  0  0  0  0  0  0
   -0.4464   -1.1563   -1.0763 C   0  0  1  0  0  0  0  0  0  0  0  0
    1.0382   -0.2084    0.5245 C   0  0  0  0  0  0  0  0  0  0  0  0
   -1.1813   -0.7660   -2.3889 C   0  0  1  0  0  0  0  0  0  0  0  0
    2.4467   -0.3098    0.4003 C   0  0  0  0  0  0  0  0  0  0  0  0
    0.4411   -0.2253    1.8004 C   0  0  0  0  0  0  0  0  0  0  0  0
   -2.3345    0.2864   -2.2383 C   0  0  2  0  0  0  0  0  0  0  0  0
    3.2495   -0.4163    1.5761 C   0  0  0  0  0  0  0  0  0  0  0  0
    3.0804   -0.2897   -0.8659 C   0  0  0  0  0  0  0  0  0  0  0  0
    1.2331   -0.3282    2.9557 C   0  0  0  0  0  0  0  0  0  0  0  0
   -3.1778    0.4185   -3.4855 N   0  0  1  0  0  0  0  0  0  0  0  0
   -1.8904    1.6089   -1.6760 C   0  0  0  0  0  0  0  0  0  0  0  0
    2.6316   -0.4139    2.8474 C   0  0  0  0  0  0  0  0  0  0  0  0
    4.6556   -0.5105    1.4569 C   0  0  0  0  0  0  0  0  0  0  0  0
    4.4807   -0.3674   -0.9684 C   0  0  0  0  0  0  0  0  0  0  0  0
   -4.5397    0.9968   -3.2711 C   0  0  0  0  0  0  0  0  0  0  0  0
   -2.5315    0.9509   -4.7227 C   0  0  0  0  0  0  0  0  0  0  0  0
   -0.7876    2.3198   -2.2153 C   0  0  0  0  0  0  0  0  0  0  0  0
   -2.5546    2.1698   -0.5557 C   0  0  0  0  0  0  0  0  0  0  0  0
    5.2668   -0.4783    0.1907 C   0  0  0  0  0  0  0  0  0  0  0  0
   -0.3316    3.5127   -1.6246 C   0  0  0  0  0  0  0  0  0  0  0  0
   -2.1132    3.3735    0.0249 C   0  0  0  0  0  0  0  0  0  0  0  0
   -0.9928    4.0384   -0.5019 C   0  0  0  0  0  0  0  0  0  0  0  0
    0.2650   -1.9564   -1.3081 H   0  0  0  0  0  0  0  0  0  0  0  0
   -1.1665   -1.5328   -0.3421 H   0  0  0  0  0  0  0  0  0  0  0  0
   -0.4285   -0.4116   -3.0947 H   0  0  0  0  0  0  0  0  0  0  0  0
   -1.6087   -1.6778   -2.8137 H   0  0  0  0  0  0  0  0  0  0  0  0
   -0.5745   -0.1492    1.8908 H   0  0  0  0  0  0  0  0  0  0  0  0
   -2.9899   -0.1875   -1.4977 H   0  0  0  0  0  0  0  0  0  0  0  0
    2.5322   -0.2160   -1.7272 H   0  0  0  0  0  0  0  0  0  0  0  0
    0.7910   -0.3320    3.8786 H   0  0  0  0  0  0  0  0  0  0  0  0
    3.1916   -0.4690    3.7027 H   0  0  0  0  0  0  0  0  0  0  0  0
    5.2461   -0.5974    2.2898 H   0  0  0  0  0  0  0  0  0  0  0  0
    4.9279   -0.3418   -1.8883 H   0  0  0  0  0  0  0  0  0  0  0  0
   -5.0435    0.5124   -2.4321 H   0  0  0  0  0  0  0  0  0  0  0  0
   -5.1626    0.8376   -4.1548 H   0  0  0  0  0  0  0  0  0  0  0  0
   -4.4815    2.0698   -3.0741 H   0  0  0  0  0  0  0  0  0  0  0  0
   -1.6146    0.4102   -4.9550 H   0  0  0  0  0  0  0  0  0  0  0  0
   -3.1967    0.8252   -5.5794 H   0  0  0  0  0  0  0  0  0  0  0  0
   -2.3039    2.0135   -4.6259 H   0  0  0  0  0  0  0  0  0  0  0  0
   -0.2877    1.9641   -3.0325 H   0  0  0  0  0  0  0  0  0  0  0  0
   -3.3700    1.7039   -0.1497 H   0  0  0  0  0  0  0  0  0  0  0  0
    6.2849   -0.5344    0.1127 H   0  0  0  0  0  0  0  0  0  0  0  0
    0.4804    3.9977   -2.0138 H   0  0  0  0  0  0  0  0  0  0  0  0
   -2.6024    3.7619    0.8351 H   0  0  0  0  0  0  0  0  0  0  0  0
   -0.6603    4.9039   -0.0705 H   0  0  0  0  0  0  0  0  0  0  0  0
  1  2  1  0  0  0  0 
  1  3  1  0  0  0  0 
  2  4  1  0  0  0  0 
  3  5  2  0  0  0  0 
  3  6  1  0  0  0  0 
  7  4  1  0  0  0  0 
  5  8  1  0  0  0  0 
  5  9  1  0  0  0  0 
  6 10  2  0  0  0  0 
  7 11  1  0  0  0  0 
  7 12  1  0  0  0  0 
  8 13  2  0  0  0  0 
  8 14  1  0  0  0  0 
  9 15  2  0  0  0  0 
 10 13  1  0  0  0  0 
 11 16  1  0  0  0  0 
 11 17  1  0  0  0  0 
 12 18  2  0  0  0  0 
 12 19  1  0  0  0  0 
 14 20  2  0  0  0  0 
 15 20  1  0  0  0  0 
 18 21  1  0  0  0  0 
 19 22  2  0  0  0  0 
 21 23  2  0  0  0  0 
 22 23  1  0  0  0  0 
  2 24  1  0  0  0  0 
  2 25  1  0  0  0  0 
  4 26  1  0  0  0  0 
  4 27  1  0  0  0  0 
  6 28  1  0  0  0  0 
  7 29  1  0  0  0  0 
  9 30  1  0  0  0  0 
 10 31  1  0  0  0  0 
 13 32  1  0  0  0  0 
 14 33  1  0  0  0  0 
 15 34  1  0  0  0  0 
 16 35  1  0  0  0  0 
 16 36  1  0  0  0  0 
 16 37  1  0  0  0  0 
 17 38  1  0  0  0  0 
 17 39  1  0  0  0  0 
 17 40  1  0  0  0  0 
 18 41  1  0  0  0  0 
 19 42  1  0  0  0  0 
 20 43  1  0  0  0  0 
 21 44  1  0  0  0  0 
 22 45  1  0  0  0  0 
 23 46  1  0  0  0  0 
M  END
> <cdk:Title>
dapoxetine

> <Conformer>
1

> <SuperDrugID>
SD003534

$$$$
