temafloxacin
  CDK     0628171801

 48 51  0  0  0  0  0  0  0  0999 V2000
    3.7034   -5.0037   -1.7739 O   0  0  0  0  0  0  0  0  0  0  0  0
    4.2681   -3.8817   -1.7593 C   0  0  0  0  0  0  0  0  0  0  0  0
    5.6392   -3.7935   -2.1114 C   0  0  0  0  0  0  0  0  0  0  0  0
    3.5263   -2.7234   -1.4135 C   0  0  0  0  0  0  0  0  0  0  0  0
    6.2691   -2.5139   -2.1331 C   0  0  0  0  0  0  0  0  0  0  0  0
    6.3881   -4.9483   -2.4488 C   0  0  0  0  0  0  0  0  0  0  0  0
    2.1378   -2.7545   -1.0673 C   0  0  0  0  0  0  0  0  0  0  0  0
    4.2213   -1.4927   -1.4170 C   0  0  0  0  0  0  0  0  0  0  0  0
    5.5440   -1.3979   -1.7644 N   0  0  0  0  0  0  0  0  0  0  0  0
    7.6255   -2.4462   -2.5568 C   0  0  0  0  0  0  0  0  0  0  0  0
    7.7241   -4.8496   -2.8692 C   0  0  0  0  0  0  0  0  0  0  0  0
    1.4094   -1.6213   -0.8977 O   0  0  0  0  0  0  0  0  0  0  0  0
    1.5071   -3.8248   -0.9042 O   0  0  0  0  0  0  0  0  0  0  0  0
    6.1047   -0.1397   -1.7292 C   0  0  0  0  0  0  0  0  0  0  0  0
    8.3500   -3.5882   -2.9628 C   0  0  0  0  0  0  0  0  0  0  0  0
    8.3674   -5.9434   -3.1762 F   0  0  0  0  0  0  0  0  0  0  0  0
    6.8839    0.2808   -0.6236 C   0  0  0  0  0  0  0  0  0  0  0  0
    5.9224    0.7406   -2.8201 C   0  0  0  0  0  0  0  0  0  0  0  0
    9.6199   -3.4504   -3.4759 N   0  0  0  0  0  0  0  0  0  0  0  0
    7.0738   -0.5094    0.4007 F   0  0  0  0  0  0  0  0  0  0  0  0
    7.4747    1.5603   -0.6180 C   0  0  0  0  0  0  0  0  0  0  0  0
    6.5172    2.0157   -2.8136 C   0  0  0  0  0  0  0  0  0  0  0  0
   10.6877   -2.8502   -2.7063 C   0  0  1  0  0  0  0  0  0  0  0  0
    9.9126   -3.8677   -4.8290 C   0  0  2  0  0  0  0  0  0  0  0  0
    7.2953    2.4262   -1.7143 C   0  0  0  0  0  0  0  0  0  0  0  0
   11.9590   -3.7376   -2.7515 C   0  0  2  0  0  0  0  0  0  0  0  0
   11.1664   -4.7885   -4.8527 C   0  0  2  0  0  0  0  0  0  0  0  0
    7.8472    3.6093   -1.7112 F   0  0  0  0  0  0  0  0  0  0  0  0
   12.2881   -4.1221   -4.1412 N   0  0  2  0  0  0  0  0  0  0  0  0
   11.6140   -5.1317   -6.2925 C   0  0  0  0  0  0  0  0  0  0  0  0
    5.9648   -5.8789   -2.4011 H   0  0  0  0  0  0  0  0  0  0  0  0
    3.7127   -0.6409   -1.1478 H   0  0  0  0  0  0  0  0  0  0  0  0
    8.1001   -1.5422   -2.6004 H   0  0  0  0  0  0  0  0  0  0  0  0
    0.4558   -1.6790   -0.6753 H   0  0  0  0  0  0  0  0  0  0  0  0
    5.3588    0.4526   -3.6243 H   0  0  0  0  0  0  0  0  0  0  0  0
    8.0392    1.8604    0.1828 H   0  0  0  0  0  0  0  0  0  0  0  0
    6.3822    2.6414   -3.6105 H   0  0  0  0  0  0  0  0  0  0  0  0
   10.9188   -1.8707   -3.1361 H   0  0  0  0  0  0  0  0  0  0  0  0
   10.4086   -2.7025   -1.6581 H   0  0  0  0  0  0  0  0  0  0  0  0
   10.0932   -2.9726   -5.4307 H   0  0  0  0  0  0  0  0  0  0  0  0
    9.0720   -4.3949   -5.2932 H   0  0  0  0  0  0  0  0  0  0  0  0
   11.8113   -4.6368   -2.1488 H   0  0  0  0  0  0  0  0  0  0  0  0
   12.8062   -3.1869   -2.3366 H   0  0  0  0  0  0  0  0  0  0  0  0
   10.9309   -5.7283   -4.3414 H   0  0  0  0  0  0  0  0  0  0  0  0
   13.0668   -4.7845   -4.1002 H   0  0  0  0  0  0  0  0  0  0  0  0
   12.4612   -5.8215   -6.2636 H   0  0  0  0  0  0  0  0  0  0  0  0
   10.7994   -5.6064   -6.8409 H   0  0  0  0  0  0  0  0  0  0  0  0
   11.9193   -4.2286   -6.8248 H   0  0  0  0  0  0  0  0  0  0  0  0
  1  2  2  0  0  0  0 
  2  3  1  0  0  0  0 
  2  4  1  0  0  0  0 
  3  5  1  0  0  0  0 
  3  6  2  0  0  0  0 
  4  7  1  0  0  0  0 
  4  8  2  0  0  0  0 
  5  9  1  0  0  0  0 
  5 10  2  0  0  0  0 
  6 11  1  0  0  0  0 
  7 12  1  0  0  0  0 
  7 13  2  0  0  0  0 
  8  9  1  0  0  0  0 
  9 14  1  0  0  0  0 
 10 15  1  0  0  0  0 
 11 15  2  0  0  0  0 
 11 16  1  0  0  0  0 
 14 17  2  0  0  0  0 
 14 18  1  0  0  0  0 
 15 19  1  0  0  0  0 
 17 20  1  0  0  0  0 
 17 21  1  0  0  0  0 
 18 22  2  0  0  0  0 
 19 23  1  0  0  0  0 
 19 24  1  0  0  0  0 
 21 25  2  0  0  0  0 
 22 25  1  0  0  0  0 
 23 26  1  0  0  0  0 
 27 24  1  0  0  0  0 
 25 28  1  0  0  0  0 
 26 29  1  0  0  0  0 
 27 29  1  0  0  0  0 
 27 30  1  0  0  0  0 
  6 31  1  0  0  0  0 
  8 32  1  0  0  0  0 
 10 33  1  0  0  0  0 
 12 34  1  0  0  0  0 
 18 35  1  0  0  0  0 
 21 36  1  0  0  0  0 
 22 37  1  0  0  0  0 
 23 38  1  0  0  0  0 
 23 39  1  0  0  0  0 
 24 40  1  0  0  0  0 
 24 41  1  0  0  0  0 
 26 42  1  0  0  0  0 
 26 43  1  0  0  0  0 
 27 44  1  0  0  0  0 
 29 45  1  0  0  0  0 
 30 46  1  0  0  0  0 
 30 47  1  0  0  0  0 
 30 48  1  0  0  0  0 
M  END
> <cdk:Title>
temafloxacin

> <Conformer>
1

> <SuperDrugID>
SD002323

$$$$
