acetophenazine
  CDK     0628171802

 58 61  0  0  0  0  0  0  0  0999 V2000
   -4.2491    1.3289    2.1932 C   0  0  0  0  0  0  0  0  0  0  0  0
   -5.2454    0.6203    1.5035 C   0  0  0  0  0  0  0  0  0  0  0  0
   -4.9690    0.0593    0.2462 C   0  0  0  0  0  0  0  0  0  0  0  0
   -3.6881    0.2095   -0.3190 C   0  0  0  0  0  0  0  0  0  0  0  0
   -2.6507    0.8958    0.3671 C   0  0  0  0  0  0  0  0  0  0  0  0
   -2.9681    1.4625    1.6294 C   0  0  0  0  0  0  0  0  0  0  0  0
   -3.3724   -0.4478   -1.9190 S   0  0  0  0  0  0  0  0  0  0  0  0
   -2.0627    0.5741   -2.4933 C   0  0  0  0  0  0  0  0  0  0  0  0
   -1.2128    1.2049   -1.5531 C   0  0  0  0  0  0  0  0  0  0  0  0
   -1.3692    0.9872   -0.1825 N   0  0  0  0  0  0  0  0  0  0  0  0
   -1.8999    0.7754   -3.8736 C   0  0  0  0  0  0  0  0  0  0  0  0
   -0.8748    1.6097   -4.3435 C   0  0  0  0  0  0  0  0  0  0  0  0
    0.0034    2.2684   -3.4499 C   0  0  0  0  0  0  0  0  0  0  0  0
   -0.2075    2.0677   -2.0600 C   0  0  0  0  0  0  0  0  0  0  0  0
   -0.1961    0.8102    0.6720 C   0  0  1  0  0  0  0  0  0  0  0  0
   -0.1621   -0.5098    1.4973 C   0  0  2  0  0  0  0  0  0  0  0  0
   -0.2597   -1.8058    0.6491 C   0  0  1  0  0  0  0  0  0  0  0  0
    0.6735   -1.8647   -0.5270 N   0  0  1  0  0  0  0  0  0  0  0  0
    2.1225   -1.9536   -0.1627 C   0  0  1  0  0  0  0  0  0  0  0  0
    3.0400   -1.9394   -1.4105 C   0  0  1  0  0  0  0  0  0  0  0  0
    2.6365   -2.9817   -2.4059 N   0  0  1  0  0  0  0  0  0  0  0  0
    1.1891   -2.8702   -2.7687 C   0  0  2  0  0  0  0  0  0  0  0  0
    0.2888   -2.9232   -1.5131 C   0  0  1  0  0  0  0  0  0  0  0  0
    3.5172   -3.0693   -3.6170 C   0  0  1  0  0  0  0  0  0  0  0  0
    4.9887   -3.4376   -3.3149 C   0  0  1  0  0  0  0  0  0  0  0  0
    5.6851   -3.7662   -4.5115 O   0  0  0  0  0  0  0  0  0  0  0  0
    1.0739    3.0986   -3.9189 C   0  0  0  0  0  0  0  0  0  0  0  0
    1.4703    3.2171   -5.3414 C   0  0  0  0  0  0  0  0  0  0  0  0
    1.7525    3.7674   -3.1019 O   0  0  0  0  0  0  0  0  0  0  0  0
   -4.4542    1.7460    3.1029 H   0  0  0  0  0  0  0  0  0  0  0  0
   -6.1754    0.5153    1.9121 H   0  0  0  0  0  0  0  0  0  0  0  0
   -5.7045   -0.4499   -0.2505 H   0  0  0  0  0  0  0  0  0  0  0  0
   -2.2667    1.9851    2.1551 H   0  0  0  0  0  0  0  0  0  0  0  0
   -2.5309    0.3252   -4.5436 H   0  0  0  0  0  0  0  0  0  0  0  0
   -0.7892    1.7292   -5.3543 H   0  0  0  0  0  0  0  0  0  0  0  0
    0.3887    2.5608   -1.3910 H   0  0  0  0  0  0  0  0  0  0  0  0
    0.7316    0.8122    0.0965 H   0  0  0  0  0  0  0  0  0  0  0  0
   -0.1192    1.6551    1.3607 H   0  0  0  0  0  0  0  0  0  0  0  0
   -0.9776   -0.5101    2.2273 H   0  0  0  0  0  0  0  0  0  0  0  0
    0.7647   -0.5370    2.0750 H   0  0  0  0  0  0  0  0  0  0  0  0
   -0.0840   -2.6616    1.3091 H   0  0  0  0  0  0  0  0  0  0  0  0
   -1.2959   -1.8727    0.3016 H   0  0  0  0  0  0  0  0  0  0  0  0
    2.4155   -1.1073    0.4610 H   0  0  0  0  0  0  0  0  0  0  0  0
    2.3114   -2.8698    0.4058 H   0  0  0  0  0  0  0  0  0  0  0  0
    3.0292   -0.9473   -1.8702 H   0  0  0  0  0  0  0  0  0  0  0  0
    4.0542   -2.1272   -1.0532 H   0  0  0  0  0  0  0  0  0  0  0  0
    0.9031   -3.7036   -3.4177 H   0  0  0  0  0  0  0  0  0  0  0  0
    0.9989   -1.9338   -3.3040 H   0  0  0  0  0  0  0  0  0  0  0  0
    0.3683   -3.9164   -1.0580 H   0  0  0  0  0  0  0  0  0  0  0  0
   -0.7461   -2.7787   -1.8402 H   0  0  0  0  0  0  0  0  0  0  0  0
    3.1293   -3.8567   -4.2700 H   0  0  0  0  0  0  0  0  0  0  0  0
    3.4884   -2.1280   -4.1765 H   0  0  0  0  0  0  0  0  0  0  0  0
    5.4996   -2.5940   -2.8509 H   0  0  0  0  0  0  0  0  0  0  0  0
    5.0281   -4.2979   -2.6435 H   0  0  0  0  0  0  0  0  0  0  0  0
    6.6035   -3.9505   -4.2197 H   0  0  0  0  0  0  0  0  0  0  0  0
    2.3820    3.8076   -5.4542 H   0  0  0  0  0  0  0  0  0  0  0  0
    1.6600    2.2286   -5.7620 H   0  0  0  0  0  0  0  0  0  0  0  0
    0.6772    3.7048   -5.9092 H   0  0  0  0  0  0  0  0  0  0  0  0
  1  2  2  0  0  0  0 
  2  3  1  0  0  0  0 
  3  4  2  0  0  0  0 
  4  5  1  0  0  0  0 
  5  6  2  0  0  0  0 
  1  6  1  0  0  0  0 
  7  8  1  0  0  0  0 
  9 10  1  0  0  0  0 
  5 10  1  0  0  0  0 
  4  7  1  0  0  0  0 
 11 12  1  0  0  0  0 
 12 13  2  0  0  0  0 
 13 14  1  0  0  0  0 
  8 11  2  0  0  0  0 
  9 14  2  0  0  0  0 
  9  8  1  0  0  0  0 
 10 15  1  0  0  0  0 
 15 16  1  0  0  0  0 
 16 17  1  0  0  0  0 
 17 18  1  0  0  0  0 
 19 20  1  0  0  0  0 
 20 21  1  0  0  0  0 
 21 22  1  0  0  0  0 
 22 23  1  0  0  0  0 
 18 19  1  0  0  0  0 
 18 23  1  0  0  0  0 
 21 24  1  0  0  0  0 
 24 25  1  0  0  0  0 
 25 26  1  0  0  0  0 
 13 27  1  0  0  0  0 
 27 28  1  0  0  0  0 
 27 29  2  0  0  0  0 
 30  1  1  0  0  0  0 
 31  2  1  0  0  0  0 
 32  3  1  0  0  0  0 
 33  6  1  0  0  0  0 
 34 11  1  0  0  0  0 
 35 12  1  0  0  0  0 
 36 14  1  0  0  0  0 
 37 15  1  0  0  0  0 
 38 15  1  0  0  0  0 
 39 16  1  0  0  0  0 
 40 16  1  0  0  0  0 
 41 17  1  0  0  0  0 
 42 17  1  0  0  0  0 
 43 19  1  0  0  0  0 
 44 19  1  0  0  0  0 
 45 20  1  0  0  0  0 
 46 20  1  0  0  0  0 
 47 22  1  0  0  0  0 
 48 22  1  0  0  0  0 
 49 23  1  0  0  0  0 
 50 23  1  0  0  0  0 
 51 24  1  0  0  0  0 
 52 24  1  0  0  0  0 
 53 25  1  0  0  0  0 
 54 25  1  0  0  0  0 
 55 26  1  0  0  0  0 
 56 28  1  0  0  0  0 
 57 28  1  0  0  0  0 
 58 28  1  0  0  0  0 
M  END
> <cdk:Title>
acetophenazine

> <Conformer>
1

> <SuperDrugID>
SD000036

$$$$
