butriptyline
  CDK     0628171801

 49 51  0  0  0  0  0  0  0  0999 V2000
    0.1372   11.2475    3.3970 C   0  0  1  0  0  0  0  0  0  0  0  0
    1.3077   10.3495    3.9241 C   0  0  1  0  0  0  0  0  0  0  0  0
   -1.1896   11.2413    4.2291 C   0  0  1  0  0  0  0  0  0  0  0  0
    2.3980   10.1499    2.8229 C   0  0  1  0  0  0  0  0  0  0  0  0
    1.9514   10.9405    5.2127 C   0  0  0  0  0  0  0  0  0  0  0  0
   -2.2219   12.1049    3.5522 C   0  0  0  0  0  0  0  0  0  0  0  0
   -1.6870    9.8961    4.7046 C   0  0  0  0  0  0  0  0  0  0  0  0
    1.9002    9.4686    1.5788 N   0  0  2  0  0  0  0  0  0  0  0  0
   -3.2155   11.6518    2.6235 C   0  0  0  0  0  0  0  0  0  0  0  0
   -2.1640   13.4982    3.8409 C   0  0  0  0  0  0  0  0  0  0  0  0
   -2.2162    8.9026    3.8298 C   0  0  0  0  0  0  0  0  0  0  0  0
   -1.6078    9.5798    6.0900 C   0  0  0  0  0  0  0  0  0  0  0  0
    1.6771    7.9996    1.7362 C   0  0  0  0  0  0  0  0  0  0  0  0
    2.7268    9.7857    0.3790 C   0  0  0  0  0  0  0  0  0  0  0  0
   -3.3873   10.2698    2.0710 C   0  0  1  0  0  0  0  0  0  0  0  0
   -4.1637   12.5901    2.1317 C   0  0  0  0  0  0  0  0  0  0  0  0
   -3.0769   14.4115    3.2961 C   0  0  0  0  0  0  0  0  0  0  0  0
   -2.3724    9.1475    2.3758 C   0  0  1  0  0  0  0  0  0  0  0  0
   -2.6194    7.6463    4.3487 C   0  0  0  0  0  0  0  0  0  0  0  0
   -2.0038    8.3294    6.5900 C   0  0  0  0  0  0  0  0  0  0  0  0
   -4.0950   13.9524    2.4550 C   0  0  0  0  0  0  0  0  0  0  0  0
   -2.5067    7.3573    5.7163 C   0  0  0  0  0  0  0  0  0  0  0  0
    0.5071   12.2776    3.3497 H   0  0  0  0  0  0  0  0  0  0  0  0
   -0.0871   10.9891    2.3649 H   0  0  0  0  0  0  0  0  0  0  0  0
    0.9171    9.3663    4.1911 H   0  0  0  0  0  0  0  0  0  0  0  0
   -0.9028   11.7779    5.1391 H   0  0  0  0  0  0  0  0  0  0  0  0
    2.7796   11.1458    2.5741 H   0  0  0  0  0  0  0  0  0  0  0  0
    3.2404    9.5844    3.2321 H   0  0  0  0  0  0  0  0  0  0  0  0
    1.2165   11.0234    6.0139 H   0  0  0  0  0  0  0  0  0  0  0  0
    2.3653   11.9319    5.0162 H   0  0  0  0  0  0  0  0  0  0  0  0
    2.7576   10.2953    5.5664 H   0  0  0  0  0  0  0  0  0  0  0  0
   -1.4407   13.8766    4.4576 H   0  0  0  0  0  0  0  0  0  0  0  0
   -1.2513   10.2606    6.7629 H   0  0  0  0  0  0  0  0  0  0  0  0
    2.5962    7.4942    2.0422 H   0  0  0  0  0  0  0  0  0  0  0  0
    0.9036    7.8037    2.4773 H   0  0  0  0  0  0  0  0  0  0  0  0
    1.3304    7.5562    0.8011 H   0  0  0  0  0  0  0  0  0  0  0  0
    3.7596    9.4632    0.5204 H   0  0  0  0  0  0  0  0  0  0  0  0
    2.3257    9.3028   -0.5127 H   0  0  0  0  0  0  0  0  0  0  0  0
    2.7160   10.8593    0.1908 H   0  0  0  0  0  0  0  0  0  0  0  0
   -4.3729    9.9072    2.3816 H   0  0  0  0  0  0  0  0  0  0  0  0
   -3.4016   10.3548    0.9792 H   0  0  0  0  0  0  0  0  0  0  0  0
   -4.9213   12.2915    1.5099 H   0  0  0  0  0  0  0  0  0  0  0  0
   -3.0007   15.4081    3.5139 H   0  0  0  0  0  0  0  0  0  0  0  0
   -1.4094    9.3514    1.9192 H   0  0  0  0  0  0  0  0  0  0  0  0
   -2.7347    8.2493    1.8651 H   0  0  0  0  0  0  0  0  0  0  0  0
   -3.0066    6.9238    3.7344 H   0  0  0  0  0  0  0  0  0  0  0  0
   -1.9271    8.1268    7.5893 H   0  0  0  0  0  0  0  0  0  0  0  0
   -4.7784   14.6096    2.0727 H   0  0  0  0  0  0  0  0  0  0  0  0
   -2.7956    6.4439    6.0740 H   0  0  0  0  0  0  0  0  0  0  0  0
  2  1  1  0  0  0  0 
  1  3  1  0  0  0  0 
  2  4  1  0  0  0  0 
  2  5  1  0  0  0  0 
  3  6  1  0  0  0  0 
  3  7  1  0  0  0  0 
  4  8  1  0  0  0  0 
  6  9  2  0  0  0  0 
  6 10  1  0  0  0  0 
  7 11  2  0  0  0  0 
  7 12  1  0  0  0  0 
  8 13  1  0  0  0  0 
  8 14  1  0  0  0  0 
  9 15  1  0  0  0  0 
  9 16  1  0  0  0  0 
 10 17  2  0  0  0  0 
 11 18  1  0  0  0  0 
 11 19  1  0  0  0  0 
 12 20  2  0  0  0  0 
 15 18  1  0  0  0  0 
 16 21  2  0  0  0  0 
 17 21  1  0  0  0  0 
 19 22  2  0  0  0  0 
 20 22  1  0  0  0  0 
  1 23  1  0  0  0  0 
  1 24  1  0  0  0  0 
  2 25  1  0  0  0  0 
  3 26  1  0  0  0  0 
  4 27  1  0  0  0  0 
  4 28  1  0  0  0  0 
  5 29  1  0  0  0  0 
  5 30  1  0  0  0  0 
  5 31  1  0  0  0  0 
 10 32  1  0  0  0  0 
 12 33  1  0  0  0  0 
 13 34  1  0  0  0  0 
 13 35  1  0  0  0  0 
 13 36  1  0  0  0  0 
 14 37  1  0  0  0  0 
 14 38  1  0  0  0  0 
 14 39  1  0  0  0  0 
 15 40  1  0  0  0  0 
 15 41  1  0  0  0  0 
 16 42  1  0  0  0  0 
 17 43  1  0  0  0  0 
 18 44  1  0  0  0  0 
 18 45  1  0  0  0  0 
 19 46  1  0  0  0  0 
 20 47  1  0  0  0  0 
 21 48  1  0  0  0  0 
 22 49  1  0  0  0  0 
M  END
> <cdk:Title>
butriptyline

> <Conformer>
1

> <SuperDrugID>
SD000396

$$$$
