bidisomide
  CDK     0628171801

 62 63  0  0  0  0  0  0  0  0999 V2000
    1.4298   -0.2698    6.2313 C   0  0  1  0  0  0  0  0  0  0  0  0
    0.9146   -0.4990    7.7204 C   0  0  1  0  0  0  0  0  0  0  0  0
    0.3155   -0.7866    5.2138 C   0  0  1  0  0  0  0  0  0  0  0  0
    1.5842    1.1879    5.8907 C   0  0  0  0  0  0  0  0  0  0  0  0
    2.8034   -0.9470    6.0984 C   0  0  0  0  0  0  0  0  0  0  0  0
    1.0908   -1.9413    8.2924 C   0  0  1  0  0  0  0  0  0  0  0  0
   -0.9566    0.1071    4.9781 C   0  0  1  0  0  0  0  0  0  0  0  0
    2.1242    1.5947    4.7216 N   0  0  0  0  0  0  0  0  0  0  0  0
    1.1693    2.0951    6.6482 O   0  0  0  0  0  0  0  0  0  0  0  0
    3.9832   -0.4624    6.7575 C   0  0  0  0  0  0  0  0  0  0  0  0
    2.9601   -2.1591    5.3617 C   0  0  0  0  0  0  0  0  0  0  0  0
    0.4830   -2.2230    9.6256 N   0  0  2  0  0  0  0  0  0  0  0  0
   -2.0982   -0.5764    4.3697 N   0  0  0  0  0  0  0  0  0  0  0  0
    4.0495    0.9292    7.7323 Cl  0  0  0  0  0  0  0  0  0  0  0  0
    5.2178   -1.1397    6.6462 C   0  0  0  0  0  0  0  0  0  0  0  0
    4.1908   -2.8285    5.2533 C   0  0  0  0  0  0  0  0  0  0  0  0
   -0.9747   -2.5416    9.6502 C   0  0  2  0  0  0  0  0  0  0  0  0
    0.9508   -1.3880   10.7733 C   0  0  1  0  0  0  0  0  0  0  0  0
   -2.3067   -0.4860    2.9170 C   0  0  2  0  0  0  0  0  0  0  0  0
   -2.9993   -1.2976    5.1641 C   0  0  0  0  0  0  0  0  0  0  0  0
    5.3251   -2.3146    5.8898 C   0  0  0  0  0  0  0  0  0  0  0  0
   -1.3315   -3.2888   10.9577 C   0  0  2  0  0  0  0  0  0  0  0  0
    0.6434   -2.1096   12.1089 C   0  0  1  0  0  0  0  0  0  0  0  0
   -1.0947   -0.9869    2.0868 C   0  0  0  0  0  0  0  0  0  0  0  0
   -2.7670    0.9308    2.4746 C   0  0  0  0  0  0  0  0  0  0  0  0
   -2.9034   -1.4364    6.6362 C   0  0  0  0  0  0  0  0  0  0  0  0
   -3.9907   -1.8775    4.6561 O   0  0  0  0  0  0  0  0  0  0  0  0
   -0.8497   -2.5154   12.2111 C   0  0  1  0  0  0  0  0  0  0  0  0
    1.4380    0.1736    8.4009 H   0  0  0  0  0  0  0  0  0  0  0  0
   -0.1391   -0.2328    7.8026 H   0  0  0  0  0  0  0  0  0  0  0  0
    0.7802   -0.9034    4.2323 H   0  0  0  0  0  0  0  0  0  0  0  0
   -0.0155   -1.7811    5.5139 H   0  0  0  0  0  0  0  0  0  0  0  0
    0.7104   -2.6633    7.5703 H   0  0  0  0  0  0  0  0  0  0  0  0
    2.1560   -2.1541    8.3951 H   0  0  0  0  0  0  0  0  0  0  0  0
   -1.2648    0.5731    5.9136 H   0  0  0  0  0  0  0  0  0  0  0  0
   -0.6543    0.9490    4.3505 H   0  0  0  0  0  0  0  0  0  0  0  0
    2.4680    0.9474    4.0866 H   0  0  0  0  0  0  0  0  0  0  0  0
    2.1585    2.5404    4.5084 H   0  0  0  0  0  0  0  0  0  0  0  0
    2.1728   -2.6057    4.8974 H   0  0  0  0  0  0  0  0  0  0  0  0
    6.0543   -0.7833    7.1182 H   0  0  0  0  0  0  0  0  0  0  0  0
    4.2597   -3.6978    4.7190 H   0  0  0  0  0  0  0  0  0  0  0  0
   -1.2372   -3.2001    8.8182 H   0  0  0  0  0  0  0  0  0  0  0  0
   -1.5681   -1.6272    9.5648 H   0  0  0  0  0  0  0  0  0  0  0  0
    2.0322   -1.2306   10.7147 H   0  0  0  0  0  0  0  0  0  0  0  0
    0.4598   -0.4090   10.7597 H   0  0  0  0  0  0  0  0  0  0  0  0
   -3.1210   -1.1443    2.6003 H   0  0  0  0  0  0  0  0  0  0  0  0
    6.2248   -2.7962    5.8076 H   0  0  0  0  0  0  0  0  0  0  0  0
   -0.8590   -4.2757   10.9388 H   0  0  0  0  0  0  0  0  0  0  0  0
   -2.4141   -3.4319   11.0118 H   0  0  0  0  0  0  0  0  0  0  0  0
    1.2659   -3.0068   12.1761 H   0  0  0  0  0  0  0  0  0  0  0  0
    0.9002   -1.4541   12.9462 H   0  0  0  0  0  0  0  0  0  0  0  0
   -1.3755   -1.0933    1.0354 H   0  0  0  0  0  0  0  0  0  0  0  0
   -0.7740   -1.9648    2.4571 H   0  0  0  0  0  0  0  0  0  0  0  0
   -0.2567   -0.2883    2.1457 H   0  0  0  0  0  0  0  0  0  0  0  0
   -3.0533    0.9143    1.4206 H   0  0  0  0  0  0  0  0  0  0  0  0
   -3.6343    1.2459    3.0595 H   0  0  0  0  0  0  0  0  0  0  0  0
   -1.9768    1.6723    2.5991 H   0  0  0  0  0  0  0  0  0  0  0  0
   -3.7161   -2.0468    7.0347 H   0  0  0  0  0  0  0  0  0  0  0  0
   -1.9643   -1.9163    6.8953 H   0  0  0  0  0  0  0  0  0  0  0  0
   -2.9535   -0.4586    7.1161 H   0  0  0  0  0  0  0  0  0  0  0  0
   -1.4608   -1.6170   12.3340 H   0  0  0  0  0  0  0  0  0  0  0  0
   -0.9903   -3.1436   13.0948 H   0  0  0  0  0  0  0  0  0  0  0  0
  1  2  1  0  0  0  0 
  1  3  1  0  0  0  0 
  1  4  1  0  0  0  0 
  1  5  1  0  0  0  0 
  2  6  1  0  0  0  0 
  3  7  1  0  0  0  0 
  4  8  1  0  0  0  0 
  4  9  2  0  0  0  0 
  5 10  2  0  0  0  0 
  5 11  1  0  0  0  0 
  6 12  1  0  0  0  0 
  7 13  1  0  0  0  0 
 10 14  1  0  0  0  0 
 10 15  1  0  0  0  0 
 11 16  2  0  0  0  0 
 12 17  1  0  0  0  0 
 12 18  1  0  0  0  0 
 13 19  1  0  0  0  0 
 13 20  1  0  0  0  0 
 15 21  2  0  0  0  0 
 16 21  1  0  0  0  0 
 17 22  1  0  0  0  0 
 18 23  1  0  0  0  0 
 19 24  1  0  0  0  0 
 19 25  1  0  0  0  0 
 20 26  1  0  0  0  0 
 20 27  2  0  0  0  0 
 22 28  1  0  0  0  0 
 23 28  1  0  0  0  0 
  2 29  1  0  0  0  0 
  2 30  1  0  0  0  0 
  3 31  1  0  0  0  0 
  3 32  1  0  0  0  0 
  6 33  1  0  0  0  0 
  6 34  1  0  0  0  0 
  7 35  1  0  0  0  0 
  7 36  1  0  0  0  0 
  8 37  1  0  0  0  0 
  8 38  1  0  0  0  0 
 11 39  1  0  0  0  0 
 15 40  1  0  0  0  0 
 16 41  1  0  0  0  0 
 17 42  1  0  0  0  0 
 17 43  1  0  0  0  0 
 18 44  1  0  0  0  0 
 18 45  1  0  0  0  0 
 19 46  1  0  0  0  0 
 21 47  1  0  0  0  0 
 22 48  1  0  0  0  0 
 22 49  1  0  0  0  0 
 23 50  1  0  0  0  0 
 23 51  1  0  0  0  0 
 24 52  1  0  0  0  0 
 24 53  1  0  0  0  0 
 24 54  1  0  0  0  0 
 25 55  1  0  0  0  0 
 25 56  1  0  0  0  0 
 25 57  1  0  0  0  0 
 26 58  1  0  0  0  0 
 26 59  1  0  0  0  0 
 26 60  1  0  0  0  0 
 28 61  1  0  0  0  0 
 28 62  1  0  0  0  0 
M  END
> <cdk:Title>
bidisomide

> <Conformer>
1

> <SuperDrugID>
SD000313

$$$$
