radium Ra 223 dichloride
  CDK     0628171802

  3  2  0  0  0  0  0  0  0  0999 V2000
    0.5525    0.7813    0.0000 Ra  0  0  0  0  0  0  0  0  0  0  0  0
   -1.4775    2.2173    0.0000 Cl  0  0  0  0  0  0  0  0  0  0  0  0
    2.5830   -0.6539    0.0000 Cl  0  0  0  0  0  0  0  0  0  0  0  0
  1  2  1  0  0  0  0 
  1  3  1  0  0  0  0 
M  ISO  1   1 223
M  END
> <cdk:Title>
radium Ra 223 dichloride

> <Conformer>
1

> <SuperDrugID>
SD003763

$$$$
