fudosteine
  CDK     0628171801

 24 23  0  0  0  0  0  0  0  0999 V2000
   -3.9833   -3.2926    2.3440 C   0  0  1  0  0  0  0  0  0  0  0  0
   -3.4835   -2.0071    1.6341 C   0  0  1  0  0  0  0  0  0  0  0  0
   -5.3308   -3.1173    2.9220 C   0  0  0  0  0  0  0  0  0  0  0  0
   -4.0129   -4.4364    1.4205 N   0  0  1  0  0  0  0  0  0  0  0  0
   -1.7556   -2.1769    1.0766 S   0  0  0  0  0  0  0  0  0  0  0  0
   -5.5125   -3.1652    4.2637 O   0  0  0  0  0  0  0  0  0  0  0  0
   -6.3286   -2.9201    2.1910 O   0  0  0  0  0  0  0  0  0  0  0  0
   -1.3702   -0.5419    0.3704 C   0  0  2  0  0  0  0  0  0  0  0  0
    0.0869   -0.4922   -0.1469 C   0  0  1  0  0  0  0  0  0  0  0  0
    0.4409    0.8692   -0.7879 C   0  0  2  0  0  0  0  0  0  0  0  0
    1.7834    0.8560   -1.2603 O   0  0  0  0  0  0  0  0  0  0  0  0
   -3.2883   -3.5346    3.1525 H   0  0  0  0  0  0  0  0  0  0  0  0
   -4.1107   -1.7870    0.7675 H   0  0  0  0  0  0  0  0  0  0  0  0
   -3.5334   -1.1585    2.3209 H   0  0  0  0  0  0  0  0  0  0  0  0
   -4.6002   -4.1690    0.6282 H   0  0  0  0  0  0  0  0  0  0  0  0
   -3.0671   -4.5570    1.0562 H   0  0  0  0  0  0  0  0  0  0  0  0
   -6.4061   -3.0530    4.6506 H   0  0  0  0  0  0  0  0  0  0  0  0
   -1.5130    0.2146    1.1450 H   0  0  0  0  0  0  0  0  0  0  0  0
   -2.0637   -0.3432   -0.4496 H   0  0  0  0  0  0  0  0  0  0  0  0
    0.7724   -0.6775    0.6854 H   0  0  0  0  0  0  0  0  0  0  0  0
    0.2333   -1.2786   -0.8930 H   0  0  0  0  0  0  0  0  0  0  0  0
    0.3366    1.6714   -0.0535 H   0  0  0  0  0  0  0  0  0  0  0  0
   -0.2229    1.0722   -1.6316 H   0  0  0  0  0  0  0  0  0  0  0  0
    1.9188    1.7429   -1.6539 H   0  0  0  0  0  0  0  0  0  0  0  0
  1  2  1  0  0  0  0 
  1  3  1  0  0  0  0 
  1  4  1  0  0  0  0 
  2  5  1  0  0  0  0 
  3  6  1  0  0  0  0 
  3  7  2  0  0  0  0 
  5  8  1  0  0  0  0 
  8  9  1  0  0  0  0 
  9 10  1  0  0  0  0 
 10 11  1  0  0  0  0 
  1 12  1  0  0  0  0 
  2 13  1  0  0  0  0 
  2 14  1  0  0  0  0 
  4 15  1  0  0  0  0 
  4 16  1  0  0  0  0 
  6 17  1  0  0  0  0 
  8 18  1  0  0  0  0 
  8 19  1  0  0  0  0 
  9 20  1  0  0  0  0 
  9 21  1  0  0  0  0 
 10 22  1  0  0  0  0 
 10 23  1  0  0  0  0 
 11 24  1  0  0  0  0 
M  END
> <cdk:Title>
fudosteine

> <Conformer>
1

> <SuperDrugID>
SD001124

$$$$
