suxibuzone
  CDK     0628171801

 58 60  0  0  0  0  0  0  0  0999 V2000
   -0.3152    2.3548    1.6053 C   0  0  2  0  0  0  0  0  0  0  0  0
    1.0193    2.4625    1.0874 O   0  0  0  0  0  0  0  0  0  0  0  0
   -0.4018    1.5308    2.9305 C   0  0  2  0  0  0  0  0  0  0  0  0
    1.3721    3.2190    0.0028 C   0  0  0  0  0  0  0  0  0  0  0  0
    0.3056    2.2569    4.1275 C   0  0  2  0  0  0  0  0  0  0  0  0
    0.0819    0.1452    2.7534 C   0  0  0  0  0  0  0  0  0  0  0  0
   -1.8240    1.2169    3.1942 C   0  0  0  0  0  0  0  0  0  0  0  0
    2.7487    3.1633   -0.5239 C   0  0  2  0  0  0  0  0  0  0  0  0
    0.5421    3.9762   -0.5554 O   0  0  0  0  0  0  0  0  0  0  0  0
    0.3510    1.4820    5.4804 C   0  0  1  0  0  0  0  0  0  0  0  0
    1.2843   -0.1436    2.5418 O   0  0  0  0  0  0  0  0  0  0  0  0
   -0.9118   -0.7410    3.0071 N   0  0  0  0  0  0  0  0  0  0  0  0
   -2.6994    2.0992    3.3650 O   0  0  0  0  0  0  0  0  0  0  0  0
   -2.0578   -0.1060    3.0174 N   0  0  0  0  0  0  0  0  0  0  0  0
    2.7819    2.5811   -1.9636 C   0  0  1  0  0  0  0  0  0  0  0  0
    1.1790    2.2352    6.5553 C   0  0  1  0  0  0  0  0  0  0  0  0
   -0.7269   -2.0498    3.3831 C   0  0  0  0  0  0  0  0  0  0  0  0
   -3.2609   -0.6326    2.6093 C   0  0  0  0  0  0  0  0  0  0  0  0
    4.1282    2.5719   -2.5598 C   0  0  0  0  0  0  0  0  0  0  0  0
    1.2046    1.5058    7.9162 C   0  0  0  0  0  0  0  0  0  0  0  0
   -0.0256   -2.9550    2.5546 C   0  0  0  0  0  0  0  0  0  0  0  0
   -1.2497   -2.5191    4.6132 C   0  0  0  0  0  0  0  0  0  0  0  0
   -4.4658   -0.3870    3.3074 C   0  0  0  0  0  0  0  0  0  0  0  0
   -3.3068   -1.4163    1.4309 C   0  0  0  0  0  0  0  0  0  0  0  0
    4.3351    3.1601   -3.7620 O   0  0  0  0  0  0  0  0  0  0  0  0
    5.0822    1.9979   -1.9873 O   0  0  0  0  0  0  0  0  0  0  0  0
    0.1558   -4.2944    2.9484 C   0  0  0  0  0  0  0  0  0  0  0  0
   -1.0673   -3.8581    5.0078 C   0  0  0  0  0  0  0  0  0  0  0  0
   -5.6877   -0.8937    2.8239 C   0  0  0  0  0  0  0  0  0  0  0  0
   -4.5254   -1.9262    0.9512 C   0  0  0  0  0  0  0  0  0  0  0  0
   -0.3651   -4.7466    4.1747 C   0  0  0  0  0  0  0  0  0  0  0  0
   -5.7179   -1.6614    1.6458 C   0  0  0  0  0  0  0  0  0  0  0  0
   -0.9325    1.8873    0.8282 H   0  0  0  0  0  0  0  0  0  0  0  0
   -0.7107    3.3596    1.7883 H   0  0  0  0  0  0  0  0  0  0  0  0
   -0.1910    3.2159    4.3022 H   0  0  0  0  0  0  0  0  0  0  0  0
    1.3343    2.4790    3.8301 H   0  0  0  0  0  0  0  0  0  0  0  0
    3.3584    2.5392    0.1364 H   0  0  0  0  0  0  0  0  0  0  0  0
    3.1717    4.1712   -0.5174 H   0  0  0  0  0  0  0  0  0  0  0  0
   -0.6697    1.3323    5.8443 H   0  0  0  0  0  0  0  0  0  0  0  0
    0.8049    0.4988    5.3293 H   0  0  0  0  0  0  0  0  0  0  0  0
    2.4186    1.5510   -1.9473 H   0  0  0  0  0  0  0  0  0  0  0  0
    2.1199    3.1650   -2.6135 H   0  0  0  0  0  0  0  0  0  0  0  0
    2.2090    2.3449    6.2015 H   0  0  0  0  0  0  0  0  0  0  0  0
    0.7612    3.2354    6.7000 H   0  0  0  0  0  0  0  0  0  0  0  0
    1.7900    2.0874    8.6297 H   0  0  0  0  0  0  0  0  0  0  0  0
    0.1920    1.3916    8.3064 H   0  0  0  0  0  0  0  0  0  0  0  0
    1.6606    0.5196    7.8125 H   0  0  0  0  0  0  0  0  0  0  0  0
    0.3458   -2.6462    1.6529 H   0  0  0  0  0  0  0  0  0  0  0  0
   -1.7616   -1.8880    5.2348 H   0  0  0  0  0  0  0  0  0  0  0  0
   -4.4583    0.1632    4.1701 H   0  0  0  0  0  0  0  0  0  0  0  0
   -2.4522   -1.6076    0.9020 H   0  0  0  0  0  0  0  0  0  0  0  0
    5.2161    3.1267   -4.1889 H   0  0  0  0  0  0  0  0  0  0  0  0
    0.6646   -4.9398    2.3398 H   0  0  0  0  0  0  0  0  0  0  0  0
   -1.4437   -4.1856    5.9008 H   0  0  0  0  0  0  0  0  0  0  0  0
   -6.5554   -0.7014    3.3277 H   0  0  0  0  0  0  0  0  0  0  0  0
   -4.5423   -2.4843    0.0944 H   0  0  0  0  0  0  0  0  0  0  0  0
   -0.2348   -5.7195    4.4604 H   0  0  0  0  0  0  0  0  0  0  0  0
   -6.6056   -2.0266    1.2957 H   0  0  0  0  0  0  0  0  0  0  0  0
  1  2  1  0  0  0  0 
  1  3  1  0  0  0  0 
  2  4  1  0  0  0  0 
  3  5  1  0  0  0  0 
  3  6  1  0  0  0  0 
  3  7  1  0  0  0  0 
  4  8  1  0  0  0  0 
  4  9  2  0  0  0  0 
  5 10  1  0  0  0  0 
  6 11  2  0  0  0  0 
  6 12  1  0  0  0  0 
  7 13  2  0  0  0  0 
  7 14  1  0  0  0  0 
  8 15  1  0  0  0  0 
 10 16  1  0  0  0  0 
 12 14  1  0  0  0  0 
 12 17  1  0  0  0  0 
 14 18  1  0  0  0  0 
 15 19  1  0  0  0  0 
 16 20  1  0  0  0  0 
 17 21  2  0  0  0  0 
 17 22  1  0  0  0  0 
 18 23  2  0  0  0  0 
 18 24  1  0  0  0  0 
 19 25  1  0  0  0  0 
 19 26  2  0  0  0  0 
 21 27  1  0  0  0  0 
 22 28  2  0  0  0  0 
 23 29  1  0  0  0  0 
 24 30  2  0  0  0  0 
 27 31  2  0  0  0  0 
 28 31  1  0  0  0  0 
 29 32  2  0  0  0  0 
 30 32  1  0  0  0  0 
  1 33  1  0  0  0  0 
  1 34  1  0  0  0  0 
  5 35  1  0  0  0  0 
  5 36  1  0  0  0  0 
  8 37  1  0  0  0  0 
  8 38  1  0  0  0  0 
 10 39  1  0  0  0  0 
 10 40  1  0  0  0  0 
 15 41  1  0  0  0  0 
 15 42  1  0  0  0  0 
 16 43  1  0  0  0  0 
 16 44  1  0  0  0  0 
 20 45  1  0  0  0  0 
 20 46  1  0  0  0  0 
 20 47  1  0  0  0  0 
 21 48  1  0  0  0  0 
 22 49  1  0  0  0  0 
 23 50  1  0  0  0  0 
 24 51  1  0  0  0  0 
 25 52  1  0  0  0  0 
 27 53  1  0  0  0  0 
 28 54  1  0  0  0  0 
 29 55  1  0  0  0  0 
 30 56  1  0  0  0  0 
 31 57  1  0  0  0  0 
 32 58  1  0  0  0  0 
M  END
> <cdk:Title>
suxibuzone

> <Conformer>
1

> <SuperDrugID>
SD002292

$$$$
