lanreotide
  CDK     0628171801

146151  0  0  0  0  0  0  0  0999 V2000
    1.5216   -2.9513   -1.3767 C   0  0  0  0  0  0  0  0  0  0  0  0
    0.5661   -3.0371   -2.3448 N   0  0  0  0  0  0  0  0  0  0  0  0
    1.7553   -1.7920   -4.5203 N   0  0  0  0  0  0  0  0  0  0  0  0
    1.8779    1.3908   -4.6512 N   0  0  0  0  0  0  0  0  0  0  0  0
   -0.5380    2.2887   -6.2922 N   0  0  0  0  0  0  0  0  0  0  0  0
   -2.7551    1.4826   -8.0769 N   0  0  0  0  0  0  0  0  0  0  0  0
   -4.4765   -1.2710   -7.2953 N   0  0  0  0  0  0  0  0  0  0  0  0
   -5.7918   -3.5681   -8.6966 N   0  0  0  0  0  0  0  0  0  0  0  0
   -7.4230   -6.5449   -9.6155 N   0  0  0  0  0  0  0  0  0  0  0  0
    2.5709   -3.6338   -1.4458 O   0  0  0  0  0  0  0  0  0  0  0  0
    1.3297   -2.0287   -0.2319 C   0  0  1  0  0  0  0  0  0  0  0  0
    1.3861   -0.6531   -0.7336 N   0  0  1  0  0  0  0  0  0  0  0  0
    2.1599   -2.1348    0.4718 H   0  0  0  0  0  0  0  0  0  0  0  0
   -0.0056   -2.2349    0.5356 C   0  0  1  0  0  0  0  0  0  0  0  0
   -0.0993   -3.5802    1.1602 C   0  0  0  0  0  0  0  0  0  0  0  0
   -0.6260   -4.6740    0.4352 C   0  0  0  0  0  0  0  0  0  0  0  0
   -0.7115   -5.9565    1.0145 C   0  0  0  0  0  0  0  0  0  0  0  0
   -0.2743   -6.1515    2.3554 C   0  0  0  0  0  0  0  0  0  0  0  0
    0.2459   -5.0576    3.0825 C   0  0  0  0  0  0  0  0  0  0  0  0
    0.3396   -3.7895    2.4862 C   0  0  0  0  0  0  0  0  0  0  0  0
   -0.3680   -7.4339    2.9384 C   0  0  0  0  0  0  0  0  0  0  0  0
   -0.8917   -8.5113    2.2005 C   0  0  0  0  0  0  0  0  0  0  0  0
   -1.3201   -8.3189    0.8757 C   0  0  0  0  0  0  0  0  0  0  0  0
   -1.2272   -7.0496    0.2804 C   0  0  0  0  0  0  0  0  0  0  0  0
    1.6867   -3.1538   -4.4646 C   0  0  0  0  0  0  0  0  0  0  0  0
   -2.1147   -4.4057   -3.4970 S   0  0  0  0  0  0  0  0  0  0  0  0
   -0.6552   -3.7582   -4.3681 C   0  0  1  0  0  0  0  0  0  0  0  0
    0.6797   -3.7736   -3.5690 C   0  0  2  0  0  0  0  0  0  0  0  0
    2.3320   -3.8807   -5.2562 O   0  0  0  0  0  0  0  0  0  0  0  0
    2.5865    0.3536   -5.2107 C   0  0  0  0  0  0  0  0  0  0  0  0
    1.1735   -1.0727   -6.8025 C   0  0  1  0  0  0  0  0  0  0  0  0
    1.7853   -0.9374   -8.1521 C   0  0  0  0  0  0  0  0  0  0  0  0
    2.0161   -2.0782   -8.9566 C   0  0  0  0  0  0  0  0  0  0  0  0
    2.5619   -1.9499  -10.2469 C   0  0  0  0  0  0  0  0  0  0  0  0
    2.8760   -0.6773  -10.7599 C   0  0  0  0  0  0  0  0  0  0  0  0
    3.3843   -0.5697  -12.0151 O   0  0  0  0  0  0  0  0  0  0  0  0
    2.6584    0.4647   -9.9643 C   0  0  0  0  0  0  0  0  0  0  0  0
    2.1379    0.3314   -8.6631 C   0  0  0  0  0  0  0  0  0  0  0  0
    2.2076   -1.0277   -5.6336 C   0  0  2  0  0  0  0  0  0  0  0  0
    3.7855    0.6680   -5.4001 O   0  0  0  0  0  0  0  0  0  0  0  0
   -0.1164    2.6326   -5.0429 C   0  0  0  0  0  0  0  0  0  0  0  0
   -1.4953    1.3972   -1.6223 C   0  0  0  0  0  0  0  0  0  0  0  0
   -2.7253    1.6592   -1.1487 N   0  0  0  0  0  0  0  0  0  0  0  0
   -3.6218    1.3925   -2.1074 C   0  0  0  0  0  0  0  0  0  0  0  0
   -2.9451    0.9532   -3.2467 C   0  0  0  0  0  0  0  0  0  0  0  0
   -3.6550    0.6225   -4.4148 C   0  0  0  0  0  0  0  0  0  0  0  0
   -5.0639    0.7101   -4.3958 C   0  0  0  0  0  0  0  0  0  0  0  0
   -5.7435    1.1406   -3.2358 C   0  0  0  0  0  0  0  0  0  0  0  0
   -5.0223    1.4951   -2.0773 C   0  0  0  0  0  0  0  0  0  0  0  0
    0.5400    1.6312   -4.1619 C   0  0  1  0  0  0  0  0  0  0  0  0
   -0.4453    0.4846   -3.7871 C   0  0  1  0  0  0  0  0  0  0  0  0
   -1.5837    0.9339   -2.9414 C   0  0  0  0  0  0  0  0  0  0  0  0
   -0.2758    3.7983   -4.6111 O   0  0  0  0  0  0  0  0  0  0  0  0
   -2.5010    2.7209   -7.5660 C   0  0  0  0  0  0  0  0  0  0  0  0
    0.5343    4.1118  -10.7960 C   0  0  1  0  0  0  0  0  0  0  0  0
   -0.4724    4.1978   -9.6149 C   0  0  1  0  0  0  0  0  0  0  0  0
   -0.1763    3.1218   -8.5350 C   0  0  1  0  0  0  0  0  0  0  0  0
   -1.1065    3.1534   -7.2869 C   0  0  2  0  0  0  0  0  0  0  0  0
    1.2215    4.9547  -13.0228 N   0  0  1  0  0  0  0  0  0  0  0  0
    0.2935    5.1649  -11.9042 C   0  0  1  0  0  0  0  0  0  0  0  0
   -3.4412    3.5094   -7.3078 O   0  0  0  0  0  0  0  0  0  0  0  0
   -3.8706   -0.5602   -8.2903 C   0  0  0  0  0  0  0  0  0  0  0  0
   -6.1145    0.8916   -9.9417 C   0  0  0  0  0  0  0  0  0  0  0  0
   -4.0477    0.9161   -8.3510 C   0  0  2  0  0  0  0  0  0  0  0  0
   -3.8020    1.3469  -10.9358 C   0  0  0  0  0  0  0  0  0  0  0  0
   -4.6958    1.4714   -9.6710 C   0  0  1  0  0  0  0  0  0  0  0  0
   -3.1339   -1.1319   -9.1290 O   0  0  0  0  0  0  0  0  0  0  0  0
   -5.5814   -3.3291   -7.3739 C   0  0  0  0  0  0  0  0  0  0  0  0
   -3.4991   -4.5534   -5.0777 S   0  0  0  0  0  0  0  0  0  0  0  0
   -3.8870   -2.8209   -5.5035 C   0  0  2  0  0  0  0  0  0  0  0  0
   -4.3122   -2.6637   -6.9957 C   0  0  2  0  0  0  0  0  0  0  0  0
   -6.4312   -3.6409   -6.5054 O   0  0  0  0  0  0  0  0  0  0  0  0
   -6.6319   -5.4810   -9.8442 C   0  0  0  0  0  0  0  0  0  0  0  0
   -8.7481   -3.6723  -10.8986 O   0  0  0  0  0  0  0  0  0  0  0  0
   -6.9579   -4.1404   -9.3003 C   0  0  2  0  0  0  0  0  0  0  0  0
   -6.5820   -2.8285  -11.5562 C   0  0  0  0  0  0  0  0  0  0  0  0
   -7.5239   -3.1600  -10.3716 C   0  0  1  0  0  0  0  0  0  0  0  0
   -5.6087   -5.6664  -10.5424 O   0  0  0  0  0  0  0  0  0  0  0  0
   -0.2441   -2.5231   -2.2112 H   0  0  0  0  0  0  0  0  0  0  0  0
    1.3896   -1.3109   -3.7730 H   0  0  0  0  0  0  0  0  0  0  0  0
    2.4350    2.1792   -4.5381 H   0  0  0  0  0  0  0  0  0  0  0  0
   -0.4236    1.3660   -6.5449 H   0  0  0  0  0  0  0  0  0  0  0  0
   -1.9834    0.9297   -8.2758 H   0  0  0  0  0  0  0  0  0  0  0  0
   -5.0702   -0.7765   -6.7128 H   0  0  0  0  0  0  0  0  0  0  0  0
   -5.0786   -3.3037   -9.2980 H   0  0  0  0  0  0  0  0  0  0  0  0
   -8.2289   -6.4511   -9.0841 H   0  0  0  0  0  0  0  0  0  0  0  0
   -7.1881   -7.4103   -9.9872 H   0  0  0  0  0  0  0  0  0  0  0  0
    0.5426   -0.5204   -1.2919 H   0  0  0  0  0  0  0  0  0  0  0  0
    1.3027   -0.0334    0.0760 H   0  0  0  0  0  0  0  0  0  0  0  0
   -0.0917   -1.4669    1.3106 H   0  0  0  0  0  0  0  0  0  0  0  0
   -0.8480   -2.0740   -0.1430 H   0  0  0  0  0  0  0  0  0  0  0  0
   -0.9452   -4.5348   -0.5267 H   0  0  0  0  0  0  0  0  0  0  0  0
    0.5638   -5.1755    4.0484 H   0  0  0  0  0  0  0  0  0  0  0  0
    0.7315   -3.0160    3.0302 H   0  0  0  0  0  0  0  0  0  0  0  0
   -0.0590   -7.5938    3.9015 H   0  0  0  0  0  0  0  0  0  0  0  0
   -0.9551   -9.4366    2.6275 H   0  0  0  0  0  0  0  0  0  0  0  0
   -1.6978   -9.1051    0.3410 H   0  0  0  0  0  0  0  0  0  0  0  0
   -1.5416   -6.9281   -0.6871 H   0  0  0  0  0  0  0  0  0  0  0  0
   -0.5336   -4.3474   -5.2827 H   0  0  0  0  0  0  0  0  0  0  0  0
   -0.8943   -2.7334   -4.6549 H   0  0  0  0  0  0  0  0  0  0  0  0
    0.9421   -4.8148   -3.3540 H   0  0  0  0  0  0  0  0  0  0  0  0
    0.4177   -0.3063   -6.6768 H   0  0  0  0  0  0  0  0  0  0  0  0
    0.6187   -2.0134   -6.7658 H   0  0  0  0  0  0  0  0  0  0  0  0
    1.7864   -3.0131   -8.6092 H   0  0  0  0  0  0  0  0  0  0  0  0
    2.7235   -2.7856  -10.8145 H   0  0  0  0  0  0  0  0  0  0  0  0
    3.4304    0.3901  -12.2136 H   0  0  0  0  0  0  0  0  0  0  0  0
    2.8761    1.3946  -10.3294 H   0  0  0  0  0  0  0  0  0  0  0  0
    2.0080    1.1649   -8.0888 H   0  0  0  0  0  0  0  0  0  0  0  0
    3.1163   -1.5304   -5.9877 H   0  0  0  0  0  0  0  0  0  0  0  0
   -0.6317    1.5126   -1.0881 H   0  0  0  0  0  0  0  0  0  0  0  0
   -2.9307    1.9827   -0.2576 H   0  0  0  0  0  0  0  0  0  0  0  0
   -3.1647    0.3279   -5.2580 H   0  0  0  0  0  0  0  0  0  0  0  0
   -5.6036    0.4600   -5.2234 H   0  0  0  0  0  0  0  0  0  0  0  0
   -6.7640    1.1955   -3.2380 H   0  0  0  0  0  0  0  0  0  0  0  0
   -5.5059    1.8171   -1.2369 H   0  0  0  0  0  0  0  0  0  0  0  0
    0.7621    2.1259   -3.2089 H   0  0  0  0  0  0  0  0  0  0  0  0
   -0.8110   -0.0124   -4.6849 H   0  0  0  0  0  0  0  0  0  0  0  0
    0.0681   -0.2532   -3.1890 H   0  0  0  0  0  0  0  0  0  0  0  0
    1.5495    4.2434  -10.4108 H   0  0  0  0  0  0  0  0  0  0  0  0
    0.4701    3.1164  -11.2444 H   0  0  0  0  0  0  0  0  0  0  0  0
   -0.4051    5.1904   -9.1610 H   0  0  0  0  0  0  0  0  0  0  0  0
   -1.4881    4.0611   -9.9933 H   0  0  0  0  0  0  0  0  0  0  0  0
   -0.2203    2.1313   -8.9972 H   0  0  0  0  0  0  0  0  0  0  0  0
    0.8503    3.2823   -8.1917 H   0  0  0  0  0  0  0  0  0  0  0  0
   -1.1224    4.1841   -6.9209 H   0  0  0  0  0  0  0  0  0  0  0  0
    1.0310    5.6794  -13.7184 H   0  0  0  0  0  0  0  0  0  0  0  0
    2.1668    5.1231  -12.6709 H   0  0  0  0  0  0  0  0  0  0  0  0
   -0.7263    5.0848  -12.2844 H   0  0  0  0  0  0  0  0  0  0  0  0
    0.4444    6.1733  -11.5131 H   0  0  0  0  0  0  0  0  0  0  0  0
   -6.0628   -0.1760  -10.1526 H   0  0  0  0  0  0  0  0  0  0  0  0
   -6.5751    1.3897  -10.7989 H   0  0  0  0  0  0  0  0  0  0  0  0
   -6.7621    1.0427   -9.0767 H   0  0  0  0  0  0  0  0  0  0  0  0
   -4.7136    1.2081   -7.5309 H   0  0  0  0  0  0  0  0  0  0  0  0
   -3.6953    0.3066  -11.2452 H   0  0  0  0  0  0  0  0  0  0  0  0
   -2.8124    1.7655  -10.7481 H   0  0  0  0  0  0  0  0  0  0  0  0
   -4.2486    1.9028  -11.7625 H   0  0  0  0  0  0  0  0  0  0  0  0
   -4.8398    2.5456   -9.5162 H   0  0  0  0  0  0  0  0  0  0  0  0
   -2.9981   -2.2108   -5.3407 H   0  0  0  0  0  0  0  0  0  0  0  0
   -4.6675   -2.4562   -4.8303 H   0  0  0  0  0  0  0  0  0  0  0  0
   -3.5034   -3.0972   -7.5952 H   0  0  0  0  0  0  0  0  0  0  0  0
   -9.3484   -3.7351  -10.1260 H   0  0  0  0  0  0  0  0  0  0  0  0
   -7.7429   -4.2629   -8.5463 H   0  0  0  0  0  0  0  0  0  0  0  0
   -7.0524   -2.0771  -12.1928 H   0  0  0  0  0  0  0  0  0  0  0  0
   -5.6280   -2.4348  -11.1995 H   0  0  0  0  0  0  0  0  0  0  0  0
   -6.3956   -3.7166  -12.1599 H   0  0  0  0  0  0  0  0  0  0  0  0
   -7.7601   -2.2177   -9.8680 H   0  0  0  0  0  0  0  0  0  0  0  0
  1  2  1  0  0  0  0 
 25  3  1  0  0  0  0 
 30  4  1  0  0  0  0 
 41  5  1  0  0  0  0 
 54  6  1  0  0  0  0 
 62  7  1  0  0  0  0 
 68  8  1  0  0  0  0 
 73  9  1  0  0  0  0 
 26 69  1  0  0  0  0 
  1 10  2  0  0  0  0 
  1 11  1  0  0  0  0 
 11 12  1  0  0  0  0 
 11 13  1  0  0  0  0 
 11 14  1  0  0  0  0 
 14 15  1  0  0  0  0 
 15 16  1  0  0  0  0 
 15 20  2  0  0  0  0 
 16 17  2  0  0  0  0 
 18 19  2  0  0  0  0 
 19 20  1  0  0  0  0 
 17 24  1  0  0  0  0 
 17 18  1  0  0  0  0 
 18 21  1  0  0  0  0 
 21 22  2  0  0  0  0 
 22 23  1  0  0  0  0 
 23 24  2  0  0  0  0 
 28  2  1  0  0  0  0 
 28 27  1  0  0  0  0 
 27 26  1  0  0  0  0 
 28 25  1  0  0  0  0 
 25 29  2  0  0  0  0 
 39  3  1  0  0  0  0 
 39 31  1  0  0  0  0 
 31 32  1  0  0  0  0 
 32 33  2  0  0  0  0 
 33 34  1  0  0  0  0 
 34 35  2  0  0  0  0 
 35 36  1  0  0  0  0 
 35 37  1  0  0  0  0 
 37 38  2  0  0  0  0 
 32 38  1  0  0  0  0 
 39 30  1  0  0  0  0 
 30 40  2  0  0  0  0 
 50  4  1  0  0  0  0 
 50 51  1  0  0  0  0 
 51 52  1  0  0  0  0 
 52 42  2  0  0  0  0 
 42 43  1  0  0  0  0 
 43 44  1  0  0  0  0 
 44 45  1  0  0  0  0 
 52 45  1  0  0  0  0 
 45 46  2  0  0  0  0 
 46 47  1  0  0  0  0 
 47 48  2  0  0  0  0 
 48 49  1  0  0  0  0 
 44 49  2  0  0  0  0 
 50 41  1  0  0  0  0 
 41 53  2  0  0  0  0 
 59 60  1  0  0  0  0 
 60 55  1  0  0  0  0 
 55 56  1  0  0  0  0 
 56 57  1  0  0  0  0 
 57 58  1  0  0  0  0 
 58  5  1  0  0  0  0 
 58 54  1  0  0  0  0 
 54 61  2  0  0  0  0 
 65 66  1  0  0  0  0 
 66 63  1  0  0  0  0 
 66 64  1  0  0  0  0 
 64  6  1  0  0  0  0 
 64 62  1  0  0  0  0 
 62 67  2  0  0  0  0 
 71  7  1  0  0  0  0 
 71 70  1  0  0  0  0 
 70 69  1  0  0  0  0 
 71 68  1  0  0  0  0 
 68 72  2  0  0  0  0 
 76 77  1  0  0  0  0 
 77 74  1  0  0  0  0 
 77 75  1  0  0  0  0 
 75  8  1  0  0  0  0 
 75 73  1  0  0  0  0 
 73 78  2  0  0  0  0 
  2 79  1  0  0  0  0 
  3 80  1  0  0  0  0 
  4 81  1  0  0  0  0 
  5 82  1  0  0  0  0 
  6 83  1  0  0  0  0 
  7 84  1  0  0  0  0 
  8 85  1  0  0  0  0 
  9 86  1  0  0  0  0 
  9 87  1  0  0  0  0 
 12 88  1  0  0  0  0 
 12 89  1  0  0  0  0 
 14 90  1  0  0  0  0 
 14 91  1  0  0  0  0 
 16 92  1  0  0  0  0 
 19 93  1  0  0  0  0 
 20 94  1  0  0  0  0 
 21 95  1  0  0  0  0 
 22 96  1  0  0  0  0 
 23 97  1  0  0  0  0 
 24 98  1  0  0  0  0 
 27 99  1  0  0  0  0 
 27100  1  0  0  0  0 
 28101  1  0  0  0  0 
 31102  1  0  0  0  0 
 31103  1  0  0  0  0 
 33104  1  0  0  0  0 
 34105  1  0  0  0  0 
 36106  1  0  0  0  0 
 37107  1  0  0  0  0 
 38108  1  0  0  0  0 
 39109  1  0  0  0  0 
 42110  1  0  0  0  0 
 43111  1  0  0  0  0 
 46112  1  0  0  0  0 
 47113  1  0  0  0  0 
 48114  1  0  0  0  0 
 49115  1  0  0  0  0 
 50116  1  0  0  0  0 
 51117  1  0  0  0  0 
 51118  1  0  0  0  0 
 55119  1  0  0  0  0 
 55120  1  0  0  0  0 
 56121  1  0  0  0  0 
 56122  1  0  0  0  0 
 57123  1  0  0  0  0 
 57124  1  0  0  0  0 
 58125  1  0  0  0  0 
 59126  1  0  0  0  0 
 59127  1  0  0  0  0 
 60128  1  0  0  0  0 
 60129  1  0  0  0  0 
 63130  1  0  0  0  0 
 63131  1  0  0  0  0 
 63132  1  0  0  0  0 
 64133  1  0  0  0  0 
 65134  1  0  0  0  0 
 65135  1  0  0  0  0 
 65136  1  0  0  0  0 
 66137  1  0  0  0  0 
 70138  1  0  0  0  0 
 70139  1  0  0  0  0 
 71140  1  0  0  0  0 
 74141  1  0  0  0  0 
 75142  1  0  0  0  0 
 76143  1  0  0  0  0 
 76144  1  0  0  0  0 
 76145  1  0  0  0  0 
 77146  1  0  0  0  0 
M  END
> <cdk:Title>
lanreotide

> <Conformer>
1

> <SuperDrugID>
SD001365

$$$$
