cyclopentolate
  CDK     0628171802

 46 47  0  0  0  0  0  0  0  0999 V2000
   -3.5066    0.5587   -4.9697 C   0  0  1  0  0  0  0  0  0  0  0  0
   -4.8316    0.2560   -4.3483 C   0  0  0  0  0  0  0  0  0  0  0  0
   -3.0746    2.0716   -4.8199 C   0  0  1  0  0  0  0  0  0  0  0  0
   -2.4678   -0.4298   -4.5133 C   0  0  0  0  0  0  0  0  0  0  0  0
   -5.0556    0.4783   -3.0110 O   0  0  0  0  0  0  0  0  0  0  0  0
   -5.7539   -0.2054   -5.0643 O   0  0  0  0  0  0  0  0  0  0  0  0
   -3.0117    2.4510   -3.4411 O   0  0  0  0  0  0  0  0  0  0  0  0
   -1.7239    2.4126   -5.5185 C   0  0  2  0  0  0  0  0  0  0  0  0
   -4.0314    3.0577   -5.5493 C   0  0  2  0  0  0  0  0  0  0  0  0
   -2.0964   -0.5510   -3.1509 C   0  0  0  0  0  0  0  0  0  0  0  0
   -1.7996   -1.2611   -5.4514 C   0  0  0  0  0  0  0  0  0  0  0  0
   -6.2512    0.1396   -2.2882 C   0  0  1  0  0  0  0  0  0  0  0  0
   -2.0601    2.7388   -6.9898 C   0  0  2  0  0  0  0  0  0  0  0  0
   -3.5608    3.1016   -7.0175 C   0  0  2  0  0  0  0  0  0  0  0  0
   -1.1082   -1.4645   -2.7434 C   0  0  0  0  0  0  0  0  0  0  0  0
   -0.8153   -2.1810   -5.0462 C   0  0  0  0  0  0  0  0  0  0  0  0
   -6.1500    0.4695   -0.7717 C   0  0  2  0  0  0  0  0  0  0  0  0
   -0.4688   -2.2836   -3.6888 C   0  0  0  0  0  0  0  0  0  0  0  0
   -6.7262    1.8109   -0.4239 N   0  0  1  0  0  0  0  0  0  0  0  0
   -7.1852    1.9295    0.9915 C   0  0  0  0  0  0  0  0  0  0  0  0
   -5.8877    2.9717   -0.8392 C   0  0  0  0  0  0  0  0  0  0  0  0
   -3.6387    0.4065   -6.0462 H   0  0  0  0  0  0  0  0  0  0  0  0
   -2.2318    1.9829   -3.0797 H   0  0  0  0  0  0  0  0  0  0  0  0
   -0.9906    1.6053   -5.4576 H   0  0  0  0  0  0  0  0  0  0  0  0
   -1.2751    3.2941   -5.0485 H   0  0  0  0  0  0  0  0  0  0  0  0
   -3.9390    4.0596   -5.1166 H   0  0  0  0  0  0  0  0  0  0  0  0
   -5.0798    2.7614   -5.4786 H   0  0  0  0  0  0  0  0  0  0  0  0
   -2.5415    0.0253   -2.4366 H   0  0  0  0  0  0  0  0  0  0  0  0
   -2.0145   -1.2026   -6.4490 H   0  0  0  0  0  0  0  0  0  0  0  0
   -7.1102    0.6563   -2.7242 H   0  0  0  0  0  0  0  0  0  0  0  0
   -6.4081   -0.9352   -2.4113 H   0  0  0  0  0  0  0  0  0  0  0  0
   -1.8708    1.8670   -7.6242 H   0  0  0  0  0  0  0  0  0  0  0  0
   -1.4463    3.5694   -7.3498 H   0  0  0  0  0  0  0  0  0  0  0  0
   -3.7252    4.0910   -7.4537 H   0  0  0  0  0  0  0  0  0  0  0  0
   -4.1155    2.3657   -7.6088 H   0  0  0  0  0  0  0  0  0  0  0  0
   -0.8529   -1.5338   -1.7562 H   0  0  0  0  0  0  0  0  0  0  0  0
   -0.3489   -2.7737   -5.7381 H   0  0  0  0  0  0  0  0  0  0  0  0
   -5.1095    0.3973   -0.4404 H   0  0  0  0  0  0  0  0  0  0  0  0
   -6.7065   -0.3108   -0.2411 H   0  0  0  0  0  0  0  0  0  0  0  0
    0.2465   -2.9515   -3.3919 H   0  0  0  0  0  0  0  0  0  0  0  0
   -7.6664    2.8961    1.1588 H   0  0  0  0  0  0  0  0  0  0  0  0
   -7.9283    1.1601    1.2104 H   0  0  0  0  0  0  0  0  0  0  0  0
   -6.3520    1.8253    1.6921 H   0  0  0  0  0  0  0  0  0  0  0  0
   -5.6417    2.9120   -1.8993 H   0  0  0  0  0  0  0  0  0  0  0  0
   -6.4355    3.9040   -0.6909 H   0  0  0  0  0  0  0  0  0  0  0  0
   -4.9596    3.0189   -0.2645 H   0  0  0  0  0  0  0  0  0  0  0  0
  1  2  1  0  0  0  0 
  1  3  1  0  0  0  0 
  1  4  1  0  0  0  0 
  2  5  1  0  0  0  0 
  2  6  2  0  0  0  0 
  3  7  1  0  0  0  0 
  3  8  1  0  0  0  0 
  3  9  1  0  0  0  0 
  4 10  2  0  0  0  0 
  4 11  1  0  0  0  0 
  5 12  1  0  0  0  0 
  8 13  1  0  0  0  0 
  9 14  1  0  0  0  0 
 10 15  1  0  0  0  0 
 11 16  2  0  0  0  0 
 12 17  1  0  0  0  0 
 13 14  1  0  0  0  0 
 15 18  2  0  0  0  0 
 16 18  1  0  0  0  0 
 17 19  1  0  0  0  0 
 19 20  1  0  0  0  0 
 19 21  1  0  0  0  0 
  1 22  1  0  0  0  0 
  7 23  1  0  0  0  0 
  8 24  1  0  0  0  0 
  8 25  1  0  0  0  0 
  9 26  1  0  0  0  0 
  9 27  1  0  0  0  0 
 10 28  1  0  0  0  0 
 11 29  1  0  0  0  0 
 12 30  1  0  0  0  0 
 12 31  1  0  0  0  0 
 13 32  1  0  0  0  0 
 13 33  1  0  0  0  0 
 14 34  1  0  0  0  0 
 14 35  1  0  0  0  0 
 15 36  1  0  0  0  0 
 16 37  1  0  0  0  0 
 17 38  1  0  0  0  0 
 17 39  1  0  0  0  0 
 18 40  1  0  0  0  0 
 20 41  1  0  0  0  0 
 20 42  1  0  0  0  0 
 20 43  1  0  0  0  0 
 21 44  1  0  0  0  0 
 21 45  1  0  0  0  0 
 21 46  1  0  0  0  0 
M  END
> <cdk:Title>
cyclopentolate

> <Conformer>
1

> <SuperDrugID>
SD000666

$$$$
