tribromoethanol
  CDK     0628171801

  9  8  0  0  0  0  0  0  0  0999 V2000
    1.4462   -0.1397    0.4745 C   0  0  2  0  0  0  0  0  0  0  0  0
    0.2709   -0.0878   -0.5228 C   0  0  2  0  0  0  0  0  0  0  0  0
    0.9887    0.7686    2.1167 Br  0  0  0  0  0  0  0  0  0  0  0  0
    3.0174    0.6946   -0.2780 Br  0  0  0  0  0  0  0  0  0  0  0  0
    1.8881   -1.9687    0.9053 Br  0  0  0  0  0  0  0  0  0  0  0  0
   -0.0503    1.2614   -0.8365 O   0  0  0  0  0  0  0  0  0  0  0  0
   -0.6119   -0.5643   -0.0916 H   0  0  0  0  0  0  0  0  0  0  0  0
    0.5360   -0.6062   -1.4465 H   0  0  0  0  0  0  0  0  0  0  0  0
   -0.7963    1.2023   -1.4667 H   0  0  0  0  0  0  0  0  0  0  0  0
  1  2  1  0  0  0  0 
  1  3  1  0  0  0  0 
  1  4  1  0  0  0  0 
  1  5  1  0  0  0  0 
  2  6  1  0  0  0  0 
  2  7  1  0  0  0  0 
  2  8  1  0  0  0  0 
  6  9  1  0  0  0  0 
M  END
> <cdk:Title>
tribromoethanol

> <Conformer>
1

> <SuperDrugID>
SD002461

$$$$
