homocamfin
  CDK     0628171801

 27 27  0  0  0  0  0  0  0  0999 V2000
   -2.2956    2.8194   -0.6967 C   0  0  0  0  0  0  0  0  0  0  0  0
   -1.3944    1.6897   -1.2753 C   0  0  2  0  0  0  0  0  0  0  0  0
   -1.5254    1.6582   -2.8251 C   0  0  0  0  0  0  0  0  0  0  0  0
   -1.6357    0.3142   -0.5503 C   0  0  2  0  0  0  0  0  0  0  0  0
   -0.5685   -0.7707   -0.8891 C   0  0  2  0  0  0  0  0  0  0  0  0
   -0.8315   -1.9782   -0.0710 C   0  0  0  0  0  0  0  0  0  0  0  0
    0.1225   -2.5920    0.4614 O   0  0  0  0  0  0  0  0  0  0  0  0
   -2.1314   -2.4207    0.1268 C   0  0  0  0  0  0  0  0  0  0  0  0
   -3.2125   -1.6705   -0.1870 C   0  0  0  0  0  0  0  0  0  0  0  0
   -4.5637   -2.1965   -0.0131 C   0  0  0  0  0  0  0  0  0  0  0  0
   -3.0682   -0.3074   -0.7280 C   0  0  1  0  0  0  0  0  0  0  0  0
   -1.9929    3.7883   -1.0983 H   0  0  0  0  0  0  0  0  0  0  0  0
   -3.3420    2.6526   -0.9572 H   0  0  0  0  0  0  0  0  0  0  0  0
   -2.2092    2.8633    0.3907 H   0  0  0  0  0  0  0  0  0  0  0  0
   -0.3609    1.9862   -1.0568 H   0  0  0  0  0  0  0  0  0  0  0  0
   -1.2800    2.6382   -3.2419 H   0  0  0  0  0  0  0  0  0  0  0  0
   -0.8395    0.9305   -3.2602 H   0  0  0  0  0  0  0  0  0  0  0  0
   -2.5435    1.4095   -3.1258 H   0  0  0  0  0  0  0  0  0  0  0  0
   -1.5113    0.5227    0.5219 H   0  0  0  0  0  0  0  0  0  0  0  0
    0.4406   -0.3907   -0.7003 H   0  0  0  0  0  0  0  0  0  0  0  0
   -0.6365   -1.0543   -1.9422 H   0  0  0  0  0  0  0  0  0  0  0  0
   -2.2567   -3.3276    0.5191 H   0  0  0  0  0  0  0  0  0  0  0  0
   -4.5796   -3.1654    0.4926 H   0  0  0  0  0  0  0  0  0  0  0  0
   -5.1663   -1.5072    0.5813 H   0  0  0  0  0  0  0  0  0  0  0  0
   -5.0340   -2.3193   -0.9908 H   0  0  0  0  0  0  0  0  0  0  0  0
   -3.7823    0.3523   -0.2282 H   0  0  0  0  0  0  0  0  0  0  0  0
   -3.3322   -0.3472   -1.7869 H   0  0  0  0  0  0  0  0  0  0  0  0
  1  2  1  0  0  0  0 
  2  3  1  0  0  0  0 
  2  4  1  0  0  0  0 
  4  5  1  0  0  0  0 
  5  6  1  0  0  0  0 
  6  7  2  0  0  0  0 
  6  8  1  0  0  0  0 
  8  9  2  0  0  0  0 
  9 10  1  0  0  0  0 
  9 11  1  0  0  0  0 
  4 11  1  0  0  0  0 
 12  1  1  0  0  0  0 
 13  1  1  0  0  0  0 
 14  1  1  0  0  0  0 
 15  2  1  0  0  0  0 
 16  3  1  0  0  0  0 
 17  3  1  0  0  0  0 
 18  3  1  0  0  0  0 
 19  4  1  0  0  0  0 
 20  5  1  0  0  0  0 
 21  5  1  0  0  0  0 
 22  8  1  0  0  0  0 
 23 10  1  0  0  0  0 
 24 10  1  0  0  0  0 
 25 10  1  0  0  0  0 
 26 11  1  0  0  0  0 
 27 11  1  0  0  0  0 
M  END
> <cdk:Title>
homocamfin

> <Conformer>
1

> <SuperDrugID>
SD003208

$$$$
