clofenotane
  CDK     0628171801

 28 29  0  0  0  0  0  0  0  0999 V2000
    1.9793    3.4807   -0.8381 C   0  0  2  0  0  0  0  0  0  0  0  0
    2.4142    3.2560    0.6591 C   0  0  2  0  0  0  0  0  0  0  0  0
    1.3146    4.7793   -1.2122 C   0  0  0  0  0  0  0  0  0  0  0  0
    1.2088    2.3267   -1.4159 C   0  0  0  0  0  0  0  0  0  0  0  0
    1.1370    2.9091    1.8272 Cl  0  0  0  0  0  0  0  0  0  0  0  0
    3.3240    4.6293    1.2874 Cl  0  0  0  0  0  0  0  0  0  0  0  0
    3.5001    1.8734    0.8000 Cl  0  0  0  0  0  0  0  0  0  0  0  0
    0.3545    5.4281   -0.3948 C   0  0  0  0  0  0  0  0  0  0  0  0
    1.6224    5.3809   -2.4609 C   0  0  0  0  0  0  0  0  0  0  0  0
   -0.1382    2.0770   -1.0541 C   0  0  0  0  0  0  0  0  0  0  0  0
    1.8116    1.4416   -2.3458 C   0  0  0  0  0  0  0  0  0  0  0  0
   -0.2691    6.6214   -0.8045 C   0  0  0  0  0  0  0  0  0  0  0  0
    1.0017    6.5721   -2.8751 C   0  0  0  0  0  0  0  0  0  0  0  0
   -0.8407    0.9713   -1.5622 C   0  0  0  0  0  0  0  0  0  0  0  0
    1.1118    0.3366   -2.8638 C   0  0  0  0  0  0  0  0  0  0  0  0
    0.0531    7.1977   -2.0474 C   0  0  0  0  0  0  0  0  0  0  0  0
   -0.2132    0.0909   -2.4608 C   0  0  0  0  0  0  0  0  0  0  0  0
   -0.6998    8.6319   -2.5410 Cl  0  0  0  0  0  0  0  0  0  0  0  0
   -1.0465   -1.2590   -3.0481 Cl  0  0  0  0  0  0  0  0  0  0  0  0
    2.9486    3.5137   -1.3479 H   0  0  0  0  0  0  0  0  0  0  0  0
    0.0872    5.0445    0.5094 H   0  0  0  0  0  0  0  0  0  0  0  0
    2.3045    4.9495   -3.0887 H   0  0  0  0  0  0  0  0  0  0  0  0
   -0.6265    2.7000   -0.4101 H   0  0  0  0  0  0  0  0  0  0  0  0
    2.7754    1.5867   -2.6528 H   0  0  0  0  0  0  0  0  0  0  0  0
   -0.9588    7.0632   -0.1929 H   0  0  0  0  0  0  0  0  0  0  0  0
    1.2438    6.9750   -3.7833 H   0  0  0  0  0  0  0  0  0  0  0  0
   -1.8091    0.8142   -1.2720 H   0  0  0  0  0  0  0  0  0  0  0  0
    1.5744   -0.2863   -3.5303 H   0  0  0  0  0  0  0  0  0  0  0  0
  1  2  1  0  0  0  0 
  1  3  1  0  0  0  0 
  1  4  1  0  0  0  0 
  2  5  1  0  0  0  0 
  2  6  1  0  0  0  0 
  2  7  1  0  0  0  0 
  3  8  2  0  0  0  0 
  3  9  1  0  0  0  0 
  4 10  2  0  0  0  0 
  4 11  1  0  0  0  0 
  8 12  1  0  0  0  0 
  9 13  2  0  0  0  0 
 10 14  1  0  0  0  0 
 11 15  2  0  0  0  0 
 12 16  2  0  0  0  0 
 13 16  1  0  0  0  0 
 14 17  2  0  0  0  0 
 15 17  1  0  0  0  0 
 16 18  1  0  0  0  0 
 17 19  1  0  0  0  0 
  1 20  1  0  0  0  0 
  8 21  1  0  0  0  0 
  9 22  1  0  0  0  0 
 10 23  1  0  0  0  0 
 11 24  1  0  0  0  0 
 12 25  1  0  0  0  0 
 13 26  1  0  0  0  0 
 14 27  1  0  0  0  0 
 15 28  1  0  0  0  0 
M  END
> <cdk:Title>
clofenotane

> <Conformer>
1

> <SuperDrugID>
SD003540

$$$$
