quinisocaine
  CDK     0628171801

 44 45  0  0  0  0  0  0  0  0999 V2000
    2.0428   -2.8660    4.1232 O   0  0  0  0  0  0  0  0  0  0  0  0
    3.0673   -3.5215    4.9045 C   0  0  1  0  0  0  0  0  0  0  0  0
    2.0684   -1.5086    4.3109 C   0  0  0  0  0  0  0  0  0  0  0  0
    3.1330   -5.0296    4.5568 C   0  0  1  0  0  0  0  0  0  0  0  0
    2.9096   -0.6589    3.5514 C   0  0  0  0  0  0  0  0  0  0  0  0
    1.2955   -0.9848    5.2968 N   0  0  0  0  0  0  0  0  0  0  0  0
    4.1859   -5.7996    5.3027 N   0  0  1  0  0  0  0  0  0  0  0  0
    2.9477    0.7279    3.8775 C   0  0  0  0  0  0  0  0  0  0  0  0
    3.7295   -1.1498    2.5078 C   0  0  0  0  0  0  0  0  0  0  0  0
    1.2924    0.3327    5.6317 C   0  0  0  0  0  0  0  0  0  0  0  0
    4.0606   -7.2748    5.0964 C   0  0  0  0  0  0  0  0  0  0  0  0
    5.5889   -5.3314    5.0788 C   0  0  0  0  0  0  0  0  0  0  0  0
    2.1348    1.2187    4.9248 C   0  0  0  0  0  0  0  0  0  0  0  0
    3.8107    1.5866    3.1574 C   0  0  0  0  0  0  0  0  0  0  0  0
    4.5915   -0.2869    1.8100 C   0  0  0  0  0  0  0  0  0  0  0  0
    0.4430    0.7851    6.7624 C   0  0  2  0  0  0  0  0  0  0  0  0
    4.6305    1.0794    2.1319 C   0  0  0  0  0  0  0  0  0  0  0  0
    1.2244    0.7445    8.1042 C   0  0  2  0  0  0  0  0  0  0  0  0
    0.3785    1.2325    9.3117 C   0  0  1  0  0  0  0  0  0  0  0  0
    1.1479    1.1937   10.6517 C   0  0  0  0  0  0  0  0  0  0  0  0
    4.0400   -3.0661    4.6996 H   0  0  0  0  0  0  0  0  0  0  0  0
    2.8483   -3.4189    5.9718 H   0  0  0  0  0  0  0  0  0  0  0  0
    2.1522   -5.4428    4.8109 H   0  0  0  0  0  0  0  0  0  0  0  0
    3.2716   -5.1507    3.4771 H   0  0  0  0  0  0  0  0  0  0  0  0
    3.7149   -2.1390    2.2480 H   0  0  0  0  0  0  0  0  0  0  0  0
    4.7723   -7.8126    5.7281 H   0  0  0  0  0  0  0  0  0  0  0  0
    3.0622   -7.6178    5.3753 H   0  0  0  0  0  0  0  0  0  0  0  0
    4.2452   -7.5476    4.0533 H   0  0  0  0  0  0  0  0  0  0  0  0
    5.7330   -4.3256    5.4718 H   0  0  0  0  0  0  0  0  0  0  0  0
    6.3065   -5.9679    5.6007 H   0  0  0  0  0  0  0  0  0  0  0  0
    5.8394   -5.3315    4.0166 H   0  0  0  0  0  0  0  0  0  0  0  0
    2.1603    2.2102    5.1848 H   0  0  0  0  0  0  0  0  0  0  0  0
    3.8527    2.5858    3.3736 H   0  0  0  0  0  0  0  0  0  0  0  0
    5.1935   -0.6577    1.0712 H   0  0  0  0  0  0  0  0  0  0  0  0
   -0.4362    0.1380    6.8384 H   0  0  0  0  0  0  0  0  0  0  0  0
    0.0807    1.7997    6.5736 H   0  0  0  0  0  0  0  0  0  0  0  0
    5.2592    1.7044    1.6217 H   0  0  0  0  0  0  0  0  0  0  0  0
    2.1167    1.3720    8.0193 H   0  0  0  0  0  0  0  0  0  0  0  0
    1.5491   -0.2841    8.2907 H   0  0  0  0  0  0  0  0  0  0  0  0
    0.0511    2.2598    9.1323 H   0  0  0  0  0  0  0  0  0  0  0  0
   -0.5110    0.6043    9.4060 H   0  0  0  0  0  0  0  0  0  0  0  0
    0.5012    1.5515   11.4547 H   0  0  0  0  0  0  0  0  0  0  0  0
    2.0302    1.8341   10.6066 H   0  0  0  0  0  0  0  0  0  0  0  0
    1.4600    0.1749   10.8863 H   0  0  0  0  0  0  0  0  0  0  0  0
  1  2  1  0  0  0  0 
  1  3  1  0  0  0  0 
  2  4  1  0  0  0  0 
  3  5  2  0  0  0  0 
  3  6  1  0  0  0  0 
  4  7  1  0  0  0  0 
  5  8  1  0  0  0  0 
  5  9  1  0  0  0  0 
  6 10  2  0  0  0  0 
  7 11  1  0  0  0  0 
  7 12  1  0  0  0  0 
  8 13  2  0  0  0  0 
  8 14  1  0  0  0  0 
  9 15  2  0  0  0  0 
 10 13  1  0  0  0  0 
 10 16  1  0  0  0  0 
 14 17  2  0  0  0  0 
 15 17  1  0  0  0  0 
 16 18  1  0  0  0  0 
 18 19  1  0  0  0  0 
 19 20  1  0  0  0  0 
  2 21  1  0  0  0  0 
  2 22  1  0  0  0  0 
  4 23  1  0  0  0  0 
  4 24  1  0  0  0  0 
  9 25  1  0  0  0  0 
 11 26  1  0  0  0  0 
 11 27  1  0  0  0  0 
 11 28  1  0  0  0  0 
 12 29  1  0  0  0  0 
 12 30  1  0  0  0  0 
 12 31  1  0  0  0  0 
 13 32  1  0  0  0  0 
 14 33  1  0  0  0  0 
 15 34  1  0  0  0  0 
 16 35  1  0  0  0  0 
 16 36  1  0  0  0  0 
 17 37  1  0  0  0  0 
 18 38  1  0  0  0  0 
 18 39  1  0  0  0  0 
 19 40  1  0  0  0  0 
 19 41  1  0  0  0  0 
 20 42  1  0  0  0  0 
 20 43  1  0  0  0  0 
 20 44  1  0  0  0  0 
M  END
> <cdk:Title>
quinisocaine

> <Conformer>
1

> <SuperDrugID>
SD002730

$$$$
