stannous fluoride
  CDK     0628171801

  3  2  0  0  0  0  0  0  0  0999 V2000
    0.0000    0.0000    0.0000 Sn  0  0  0  0  0  0  0  0  0  0  0  0
   -0.6583    1.8613    0.0000 F   0  0  0  0  0  0  0  0  0  0  0  0
    1.9743   -0.0002    0.0000 F   0  0  0  0  0  0  0  0  0  0  0  0
  1  2  1  0  0  0  0 
  1  3  1  0  0  0  0 
M  END
> <cdk:Title>
stannous fluoride

> <Conformer>
1

> <SuperDrugID>
SD003468

$$$$
