favipiravir
  CDK     0628171802

 15 15  0  0  0  0  0  0  0  0999 V2000
   -0.5031   -2.5190    0.1827 N   0  0  0  0  0  0  0  0  0  0  0  0
   -0.1383   -3.8188    0.3162 C   0  0  0  0  0  0  0  0  0  0  0  0
    1.2302   -4.1291    0.3672 C   0  0  0  0  0  0  0  0  0  0  0  0
    2.1315   -3.1190    0.2809 N   0  0  0  0  0  0  0  0  0  0  0  0
    1.7605   -1.8179    0.1471 C   0  0  0  0  0  0  0  0  0  0  0  0
    0.3824   -1.4845    0.0938 C   0  0  0  0  0  0  0  0  0  0  0  0
   -0.1107   -0.1598   -0.0441 C   0  0  0  0  0  0  0  0  0  0  0  0
    0.6513    0.8311   -0.1305 O   0  0  0  0  0  0  0  0  0  0  0  0
   -1.4302    0.1009   -0.0894 N   0  0  0  0  0  0  0  0  0  0  0  0
    2.6728   -0.9638    0.0765 O   0  0  0  0  0  0  0  0  0  0  0  0
   -1.0442   -4.7509    0.3947 F   0  0  0  0  0  0  0  0  0  0  0  0
    1.5522   -5.0949    0.4672 H   0  0  0  0  0  0  0  0  0  0  0  0
    3.0762   -3.3348    0.3162 H   0  0  0  0  0  0  0  0  0  0  0  0
   -1.7417    1.0143   -0.1841 H   0  0  0  0  0  0  0  0  0  0  0  0
   -2.0738   -0.6210   -0.0278 H   0  0  0  0  0  0  0  0  0  0  0  0
  1  2  1  0  0  0  0 
  1  6  2  0  0  0  0 
  2  3  2  0  0  0  0 
  3  4  1  0  0  0  0 
  4  5  1  0  0  0  0 
  5  6  1  0  0  0  0 
  6  7  1  0  0  0  0 
  7  8  2  0  0  0  0 
  7  9  1  0  0  0  0 
  5 10  2  0  0  0  0 
  2 11  1  0  0  0  0 
 12  3  1  0  0  0  0 
 13  4  1  0  0  0  0 
 14  9  1  0  0  0  0 
 15  9  1  0  0  0  0 
M  END
> <cdk:Title>
favipiravir

> <Conformer>
1

> <SuperDrugID>
SD003825

$$$$
