thioproperazine
  CDK     0628171801

 60 63  0  0  0  0  0  0  0  0999 V2000
   -0.5257   -7.5565   -1.2682 C   0  0  0  0  0  0  0  0  0  0  0  0
   -0.6372   -6.0876   -1.4762 N   0  0  1  0  0  0  0  0  0  0  0  0
    0.6539   -5.3641   -1.2921 C   0  0  0  0  0  0  0  0  0  0  0  0
   -1.4314   -5.7168   -3.0224 S   0  0  1  0  0  0  0  0  0  0  0  0
   -0.5741   -6.3473   -4.2241 O   0  0  0  0  0  0  0  0  0  0  0  0
   -2.8924   -6.3787   -3.0038 O   0  0  0  0  0  0  0  0  0  0  0  0
   -1.5874   -3.9637   -3.2029 C   0  0  0  0  0  0  0  0  0  0  0  0
   -1.9812   -3.1898   -2.0931 C   0  0  0  0  0  0  0  0  0  0  0  0
   -1.9391   -1.7734   -2.1188 C   0  0  0  0  0  0  0  0  0  0  0  0
   -1.5711   -1.1634   -3.3455 C   0  0  0  0  0  0  0  0  0  0  0  0
   -1.5199    0.5896   -3.4424 S   0  0  0  0  0  0  0  0  0  0  0  0
   -2.6721    1.0711   -2.2065 C   0  0  0  0  0  0  0  0  0  0  0  0
   -3.3248    2.3116   -2.3371 C   0  0  0  0  0  0  0  0  0  0  0  0
   -4.2996    2.6869   -1.3987 C   0  0  0  0  0  0  0  0  0  0  0  0
   -4.6180    1.8268   -0.3360 C   0  0  0  0  0  0  0  0  0  0  0  0
   -3.9480    0.5946   -0.2040 C   0  0  0  0  0  0  0  0  0  0  0  0
   -2.9455    0.1916   -1.1245 C   0  0  0  0  0  0  0  0  0  0  0  0
   -2.2384   -1.0078   -0.9879 N   0  0  0  0  0  0  0  0  0  0  0  0
   -1.7773   -1.4428    0.3307 C   0  0  1  0  0  0  0  0  0  0  0  0
   -0.9609   -0.3972    1.1474 C   0  0  2  0  0  0  0  0  0  0  0  0
    0.2772    0.1897    0.4111 C   0  0  2  0  0  0  0  0  0  0  0  0
    1.2787   -0.8212   -0.0714 N   0  0  1  0  0  0  0  0  0  0  0  0
    2.1990   -0.2445   -1.1042 C   0  0  2  0  0  0  0  0  0  0  0  0
    3.2287   -1.2810   -1.6135 C   0  0  2  0  0  0  0  0  0  0  0  0
    3.9985   -1.8398   -0.4642 N   0  0  2  0  0  0  0  0  0  0  0  0
    5.1229   -2.7240   -0.8812 C   0  0  0  0  0  0  0  0  0  0  0  0
    3.0989   -2.4810    0.5373 C   0  0  1  0  0  0  0  0  0  0  0  0
    2.0278   -1.4841    1.0453 C   0  0  2  0  0  0  0  0  0  0  0  0
   -1.2664   -1.9267   -4.4882 C   0  0  0  0  0  0  0  0  0  0  0  0
   -1.2697   -3.3281   -4.4163 C   0  0  0  0  0  0  0  0  0  0  0  0
   -0.1285   -7.7688   -0.2733 H   0  0  0  0  0  0  0  0  0  0  0  0
   -1.5080   -8.0298   -1.3294 H   0  0  0  0  0  0  0  0  0  0  0  0
    0.1339   -8.0117   -2.0120 H   0  0  0  0  0  0  0  0  0  0  0  0
    0.4875   -4.2520   -1.4485 H   0  0  0  0  0  0  0  0  0  0  0  0
    1.0977   -5.6760   -0.2929 H   0  0  0  0  0  0  0  0  0  0  0  0
    1.3601   -5.6799   -2.0621 H   0  0  0  0  0  0  0  0  0  0  0  0
   -2.2805   -3.6753   -1.2456 H   0  0  0  0  0  0  0  0  0  0  0  0
   -3.1055    2.9375   -3.1172 H   0  0  0  0  0  0  0  0  0  0  0  0
   -4.7842    3.5808   -1.4995 H   0  0  0  0  0  0  0  0  0  0  0  0
   -5.3410    2.0975    0.3366 H   0  0  0  0  0  0  0  0  0  0  0  0
   -4.2091   -0.0105    0.5748 H   0  0  0  0  0  0  0  0  0  0  0  0
   -2.6468   -1.7484    0.9175 H   0  0  0  0  0  0  0  0  0  0  0  0
   -1.1348   -2.3258    0.2670 H   0  0  0  0  0  0  0  0  0  0  0  0
   -0.6423   -0.8589    2.0868 H   0  0  0  0  0  0  0  0  0  0  0  0
   -1.6127    0.4335    1.4272 H   0  0  0  0  0  0  0  0  0  0  0  0
    0.7701    0.8992    1.0836 H   0  0  0  0  0  0  0  0  0  0  0  0
   -0.0943    0.7765   -0.4338 H   0  0  0  0  0  0  0  0  0  0  0  0
    2.7402    0.6166   -0.6961 H   0  0  0  0  0  0  0  0  0  0  0  0
    1.6159    0.0943   -1.9650 H   0  0  0  0  0  0  0  0  0  0  0  0
    3.9028   -0.7731   -2.3090 H   0  0  0  0  0  0  0  0  0  0  0  0
    2.7151   -2.0794   -2.1603 H   0  0  0  0  0  0  0  0  0  0  0  0
    5.8040   -2.1825   -1.5406 H   0  0  0  0  0  0  0  0  0  0  0  0
    5.6993   -3.0465   -0.0105 H   0  0  0  0  0  0  0  0  0  0  0  0
    4.7555   -3.6096   -1.4053 H   0  0  0  0  0  0  0  0  0  0  0  0
    2.6054   -3.3527    0.0994 H   0  0  0  0  0  0  0  0  0  0  0  0
    3.6859   -2.8158    1.3966 H   0  0  0  0  0  0  0  0  0  0  0  0
    1.3338   -2.0418    1.6774 H   0  0  0  0  0  0  0  0  0  0  0  0
    2.5187   -0.7323    1.6709 H   0  0  0  0  0  0  0  0  0  0  0  0
   -1.0374   -1.4724   -5.3748 H   0  0  0  0  0  0  0  0  0  0  0  0
   -1.0346   -3.8764   -5.2463 H   0  0  0  0  0  0  0  0  0  0  0  0
  1  2  1  0  0  0  0 
  2  3  1  0  0  0  0 
  2  4  1  0  0  0  0 
  4  5  2  0  0  0  0 
  4  6  2  0  0  0  0 
  4  7  1  0  0  0  0 
  7  8  2  0  0  0  0 
  8  9  1  0  0  0  0 
  9 10  2  0  0  0  0 
 10 11  1  0  0  0  0 
 11 12  1  0  0  0  0 
 12 13  2  0  0  0  0 
 13 14  1  0  0  0  0 
 14 15  2  0  0  0  0 
 15 16  1  0  0  0  0 
 16 17  2  0  0  0  0 
 12 17  1  0  0  0  0 
 17 18  1  0  0  0  0 
  9 18  1  0  0  0  0 
 18 19  1  0  0  0  0 
 19 20  1  0  0  0  0 
 20 21  1  0  0  0  0 
 21 22  1  0  0  0  0 
 22 23  1  0  0  0  0 
 23 24  1  0  0  0  0 
 24 25  1  0  0  0  0 
 25 26  1  0  0  0  0 
 25 27  1  0  0  0  0 
 27 28  1  0  0  0  0 
 22 28  1  0  0  0  0 
 10 29  1  0  0  0  0 
 29 30  2  0  0  0  0 
  7 30  1  0  0  0  0 
  1 31  1  0  0  0  0 
  1 32  1  0  0  0  0 
  1 33  1  0  0  0  0 
  3 34  1  0  0  0  0 
  3 35  1  0  0  0  0 
  3 36  1  0  0  0  0 
  8 37  1  0  0  0  0 
 13 38  1  0  0  0  0 
 14 39  1  0  0  0  0 
 15 40  1  0  0  0  0 
 16 41  1  0  0  0  0 
 19 42  1  0  0  0  0 
 19 43  1  0  0  0  0 
 20 44  1  0  0  0  0 
 20 45  1  0  0  0  0 
 21 46  1  0  0  0  0 
 21 47  1  0  0  0  0 
 23 48  1  0  0  0  0 
 23 49  1  0  0  0  0 
 24 50  1  0  0  0  0 
 24 51  1  0  0  0  0 
 26 52  1  0  0  0  0 
 26 53  1  0  0  0  0 
 26 54  1  0  0  0  0 
 27 55  1  0  0  0  0 
 27 56  1  0  0  0  0 
 28 57  1  0  0  0  0 
 28 58  1  0  0  0  0 
 29 59  1  0  0  0  0 
 30 60  1  0  0  0  0 
M  END
> <cdk:Title>
thioproperazine

> <Conformer>
1

> <SuperDrugID>
SD002370

$$$$
