N-Acetyltyrosine
  CDK     0628171801

 29 29  0  0  0  0  0  0  0  0999 V2000
   -0.0833    0.5636    0.6852 C   0  0  2  0  0  0  0  0  0  0  0  0
    0.1592    1.3038   -0.6684 C   0  0  2  0  0  0  0  0  0  0  0  0
   -1.1309    1.1671    1.5603 C   0  0  0  0  0  0  0  0  0  0  0  0
    0.7044    2.6189   -0.4958 N   0  0  0  0  0  0  0  0  0  0  0  0
   -1.0686    1.4021   -1.4934 C   0  0  0  0  0  0  0  0  0  0  0  0
   -2.4089    0.5698    1.6871 C   0  0  0  0  0  0  0  0  0  0  0  0
   -0.8741    2.3622    2.2741 C   0  0  0  0  0  0  0  0  0  0  0  0
    2.0148    2.9188   -0.2723 C   0  0  0  0  0  0  0  0  0  0  0  0
   -1.2020    0.6771   -2.6294 O   0  0  0  0  0  0  0  0  0  0  0  0
   -2.0125    2.1625   -1.1765 O   0  0  0  0  0  0  0  0  0  0  0  0
   -3.4096    1.1676    2.4774 C   0  0  0  0  0  0  0  0  0  0  0  0
   -1.8724    2.9606    3.0649 C   0  0  0  0  0  0  0  0  0  0  0  0
    2.4155    4.3321   -0.1738 C   0  0  0  0  0  0  0  0  0  0  0  0
    2.8869    2.0237   -0.1634 O   0  0  0  0  0  0  0  0  0  0  0  0
   -3.1490    2.3734    3.1562 C   0  0  0  0  0  0  0  0  0  0  0  0
   -4.1333    2.9571    3.8867 O   0  0  0  0  0  0  0  0  0  0  0  0
    0.8539    0.5240    1.2449 H   0  0  0  0  0  0  0  0  0  0  0  0
   -0.3390   -0.4758    0.4549 H   0  0  0  0  0  0  0  0  0  0  0  0
    0.8767    0.7017   -1.2379 H   0  0  0  0  0  0  0  0  0  0  0  0
    0.0830    3.3629   -0.5299 H   0  0  0  0  0  0  0  0  0  0  0  0
   -2.6287   -0.3006    1.1968 H   0  0  0  0  0  0  0  0  0  0  0  0
    0.0434    2.8097    2.2225 H   0  0  0  0  0  0  0  0  0  0  0  0
   -2.0211    0.7485   -3.1624 H   0  0  0  0  0  0  0  0  0  0  0  0
   -4.3289    0.7265    2.5534 H   0  0  0  0  0  0  0  0  0  0  0  0
   -1.6637    3.8246    3.5711 H   0  0  0  0  0  0  0  0  0  0  0  0
    3.4918    4.4261   -0.0195 H   0  0  0  0  0  0  0  0  0  0  0  0
    2.1538    4.8499   -1.0970 H   0  0  0  0  0  0  0  0  0  0  0  0
    1.8998    4.8092    0.6600 H   0  0  0  0  0  0  0  0  0  0  0  0
   -3.8154    3.8622    4.0917 H   0  0  0  0  0  0  0  0  0  0  0  0
  2  1  1  0  0  0  0 
  1  3  1  0  0  0  0 
  2  4  1  0  0  0  0 
  2  5  1  0  0  0  0 
  3  6  2  0  0  0  0 
  3  7  1  0  0  0  0 
  4  8  1  0  0  0  0 
  5  9  1  0  0  0  0 
  5 10  2  0  0  0  0 
  6 11  1  0  0  0  0 
  7 12  2  0  0  0  0 
  8 13  1  0  0  0  0 
  8 14  2  0  0  0  0 
 11 15  2  0  0  0  0 
 12 15  1  0  0  0  0 
 15 16  1  0  0  0  0 
  1 17  1  0  0  0  0 
  1 18  1  0  0  0  0 
  2 19  1  0  0  0  0 
  4 20  1  0  0  0  0 
  6 21  1  0  0  0  0 
  7 22  1  0  0  0  0 
  9 23  1  0  0  0  0 
 11 24  1  0  0  0  0 
 12 25  1  0  0  0  0 
 13 26  1  0  0  0  0 
 13 27  1  0  0  0  0 
 13 28  1  0  0  0  0 
 16 29  1  0  0  0  0 
M  END
> <cdk:Title>
N-Acetyltyrosine

> <Conformer>
1

> <SuperDrugID>
SD003588

$$$$
