gentian violet
  CDK     0628171801

 58 60  0  0  0  0  0  0  0  0999 V2000
   -0.2144    4.2628   -3.9023 C   0  0  0  0  0  0  0  0  0  0  0  0
    0.8500    3.2920   -3.7960 N   0  0  0  0  0  0  0  0  0  0  0  0
    1.2578    2.6066   -5.0012 C   0  0  0  0  0  0  0  0  0  0  0  0
    1.4932    3.0741   -2.5869 C   0  0  0  0  0  0  0  0  0  0  0  0
    1.8477    1.7654   -2.1767 C   0  0  0  0  0  0  0  0  0  0  0  0
    2.5590    1.5405   -0.9854 C   0  0  0  0  0  0  0  0  0  0  0  0
    2.9180    2.6223   -0.1540 C   0  0  0  0  0  0  0  0  0  0  0  0
    2.5158    3.9270   -0.5173 C   0  0  0  0  0  0  0  0  0  0  0  0
    1.8220    4.1471   -1.7210 C   0  0  0  0  0  0  0  0  0  0  0  0
    3.7166    2.3429    1.0627 C   0  0  0  0  0  0  0  0  0  0  0  0
    4.9475    3.1438    1.2609 C   0  0  0  0  0  0  0  0  0  0  0  0
    6.1371    2.7139    0.6359 C   0  0  0  0  0  0  0  0  0  0  0  0
    7.3399    3.4112    0.8413 C   0  0  0  0  0  0  0  0  0  0  0  0
    7.3990    4.5416    1.6928 C   0  0  0  0  0  0  0  0  0  0  0  0
    6.1884    4.9888    2.2791 C   0  0  0  0  0  0  0  0  0  0  0  0
    4.9773    4.3076    2.0611 C   0  0  0  0  0  0  0  0  0  0  0  0
    8.6031    5.1825    1.9429 N   0  0  0  0  0  0  0  0  0  0  0  0
    8.6718    6.6235    2.0205 C   0  0  0  0  0  0  0  0  0  0  0  0
    9.8158    4.4383    2.1963 C   0  0  0  0  0  0  0  0  0  0  0  0
    2.9742    1.9350    2.2786 C   0  0  0  0  0  0  0  0  0  0  0  0
    3.3791    0.7629    2.9512 C   0  0  0  0  0  0  0  0  0  0  0  0
    2.6705    0.3091    4.0767 C   0  0  0  0  0  0  0  0  0  0  0  0
    1.5255    0.9946    4.5513 C   0  0  0  0  0  0  0  0  0  0  0  0
    1.1569    2.1949    3.8940 C   0  0  0  0  0  0  0  0  0  0  0  0
    1.8739    2.6659    2.7796 C   0  0  0  0  0  0  0  0  0  0  0  0
    0.7919    0.5006    5.6196 N   0  0  0  0  0  0  0  0  0  0  0  0
    0.4818   -0.9062    5.7354 C   0  0  0  0  0  0  0  0  0  0  0  0
    0.2579    1.3903    6.6247 C   0  0  0  0  0  0  0  0  0  0  0  0
    0.2129    5.2557   -4.0577 H   0  0  0  0  0  0  0  0  0  0  0  0
   -0.8846    4.0469   -4.7390 H   0  0  0  0  0  0  0  0  0  0  0  0
   -0.8241    4.2775   -2.9950 H   0  0  0  0  0  0  0  0  0  0  0  0
    1.4604    3.3301   -5.7938 H   0  0  0  0  0  0  0  0  0  0  0  0
    2.1659    2.0134   -4.8715 H   0  0  0  0  0  0  0  0  0  0  0  0
    0.4600    1.9379   -5.3298 H   0  0  0  0  0  0  0  0  0  0  0  0
    1.5886    0.9567   -2.7490 H   0  0  0  0  0  0  0  0  0  0  0  0
    2.8083    0.5777   -0.7377 H   0  0  0  0  0  0  0  0  0  0  0  0
    2.7331    4.7294    0.0805 H   0  0  0  0  0  0  0  0  0  0  0  0
    1.5724    5.1086   -1.9663 H   0  0  0  0  0  0  0  0  0  0  0  0
    6.1463    1.8908    0.0253 H   0  0  0  0  0  0  0  0  0  0  0  0
    8.1819    3.0820    0.3601 H   0  0  0  0  0  0  0  0  0  0  0  0
    6.1776    5.8107    2.8886 H   0  0  0  0  0  0  0  0  0  0  0  0
    4.1251    4.6637    2.5027 H   0  0  0  0  0  0  0  0  0  0  0  0
    9.6771    6.9985    1.8097 H   0  0  0  0  0  0  0  0  0  0  0  0
    8.3930    6.9480    3.0253 H   0  0  0  0  0  0  0  0  0  0  0  0
    7.9950    7.0873    1.2983 H   0  0  0  0  0  0  0  0  0  0  0  0
   10.2697    4.7676    3.1335 H   0  0  0  0  0  0  0  0  0  0  0  0
    9.6496    3.3620    2.2847 H   0  0  0  0  0  0  0  0  0  0  0  0
   10.5246    4.6055    1.3832 H   0  0  0  0  0  0  0  0  0  0  0  0
    4.1912    0.2242    2.6337 H   0  0  0  0  0  0  0  0  0  0  0  0
    3.0003   -0.5364    4.5513 H   0  0  0  0  0  0  0  0  0  0  0  0
    0.3476    2.7346    4.2115 H   0  0  0  0  0  0  0  0  0  0  0  0
    1.5756    3.5380    2.3339 H   0  0  0  0  0  0  0  0  0  0  0  0
   -0.5942   -1.0439    5.8612 H   0  0  0  0  0  0  0  0  0  0  0  0
    0.7758   -1.4850    4.8567 H   0  0  0  0  0  0  0  0  0  0  0  0
    0.9947   -1.3241    6.6036 H   0  0  0  0  0  0  0  0  0  0  0  0
    0.0823    0.8779    7.5747 H   0  0  0  0  0  0  0  0  0  0  0  0
   -0.6940    1.7995    6.2794 H   0  0  0  0  0  0  0  0  0  0  0  0
    0.9466    2.2156    6.8242 H   0  0  0  0  0  0  0  0  0  0  0  0
  1  2  1  0  0  0  0 
  2  3  1  0  0  0  0 
  2  4  1  0  0  0  0 
  4  5  2  0  0  0  0 
  5  6  1  0  0  0  0 
  6  7  2  0  0  0  0 
  7  8  1  0  0  0  0 
  8  9  2  0  0  0  0 
  4  9  1  0  0  0  0 
  7 10  1  0  0  0  0 
 10 11  1  0  0  0  0 
 11 12  2  0  0  0  0 
 12 13  1  0  0  0  0 
 13 14  2  0  0  0  0 
 14 15  1  0  0  0  0 
 15 16  2  0  0  0  0 
 11 16  1  0  0  0  0 
 14 17  1  0  0  0  0 
 17 18  1  0  0  0  0 
 17 19  1  0  0  0  0 
 10 20  1  0  0  0  0 
 20 21  2  0  0  0  0 
 21 22  1  0  0  0  0 
 22 23  2  0  0  0  0 
 23 24  1  0  0  0  0 
 24 25  2  0  0  0  0 
 20 25  1  0  0  0  0 
 23 26  1  0  0  0  0 
 26 27  1  0  0  0  0 
 26 28  1  0  0  0  0 
  1 29  1  0  0  0  0 
  1 30  1  0  0  0  0 
  1 31  1  0  0  0  0 
  3 32  1  0  0  0  0 
  3 33  1  0  0  0  0 
  3 34  1  0  0  0  0 
  5 35  1  0  0  0  0 
  6 36  1  0  0  0  0 
  8 37  1  0  0  0  0 
  9 38  1  0  0  0  0 
 12 39  1  0  0  0  0 
 13 40  1  0  0  0  0 
 15 41  1  0  0  0  0 
 16 42  1  0  0  0  0 
 18 43  1  0  0  0  0 
 18 44  1  0  0  0  0 
 18 45  1  0  0  0  0 
 19 46  1  0  0  0  0 
 19 47  1  0  0  0  0 
 19 48  1  0  0  0  0 
 21 49  1  0  0  0  0 
 22 50  1  0  0  0  0 
 24 51  1  0  0  0  0 
 25 52  1  0  0  0  0 
 27 53  1  0  0  0  0 
 27 54  1  0  0  0  0 
 27 55  1  0  0  0  0 
 28 56  1  0  0  0  0 
 28 57  1  0  0  0  0 
 28 58  1  0  0  0  0 
M  CHG  1  10   1
M  END
> <cdk:Title>
gentian violet

> <Conformer>
1

> <SuperDrugID>
SD003377

$$$$
