iotrolan
  CDK     0628171801

115116  0  0  0  0  0  0  0  0999 V2000
   -0.8544    7.2508    8.8238 N   0  0  0  0  0  0  0  0  0  0  0  0
   -2.1566    7.3622    9.3058 C   0  0  0  0  0  0  0  0  0  0  0  0
   -0.0686    8.4011    8.4263 C   0  0  0  0  0  0  0  0  0  0  0  0
   -0.2025    6.0384    8.8122 C   0  0  0  0  0  0  0  0  0  0  0  0
   -2.7505    8.6512    9.7567 C   0  0  1  0  0  0  0  0  0  0  0  0
   -2.8386    6.3299    9.5208 O   0  0  0  0  0  0  0  0  0  0  0  0
    0.3297    5.5420   10.0279 C   0  0  0  0  0  0  0  0  0  0  0  0
    0.0405    5.3471    7.6034 C   0  0  0  0  0  0  0  0  0  0  0  0
   -4.2106    8.8464    9.5479 C   0  0  0  0  0  0  0  0  0  0  0  0
   -0.0220    6.5744   11.7833 I   0  0  0  0  0  0  0  0  0  0  0  0
    1.1132    4.3646   10.0357 C   0  0  0  0  0  0  0  0  0  0  0  0
   -0.8041    6.0465    5.8559 I   0  0  0  0  0  0  0  0  0  0  0  0
    0.8674    4.1973    7.5970 C   0  0  0  0  0  0  0  0  0  0  0  0
   -5.1265    8.9638   10.5818 N   0  0  0  0  0  0  0  0  0  0  0  0
   -4.5772    9.0382    8.3616 O   0  0  0  0  0  0  0  0  0  0  0  0
    1.6578    3.8926   11.2456 C   0  0  0  0  0  0  0  0  0  0  0  0
    1.3784    3.6915    8.8184 C   0  0  0  0  0  0  0  0  0  0  0  0
    1.2448    3.5873    6.3849 C   0  0  0  0  0  0  0  0  0  0  0  0
   -4.9400    8.3318   11.8704 C   0  0  0  0  0  0  0  0  0  0  0  0
   -6.2049    9.8027   10.4343 C   0  0  0  0  0  0  0  0  0  0  0  0
    2.6516    4.6055   11.8441 N   0  0  0  0  0  0  0  0  0  0  0  0
    1.2136    2.8257   11.7311 O   0  0  0  0  0  0  0  0  0  0  0  0
    2.5617    1.9979    8.8162 I   0  0  0  0  0  0  0  0  0  0  0  0
    2.1738    4.2223    5.6137 N   0  0  0  0  0  0  0  0  0  0  0  0
    0.7646    2.4663    6.0912 O   0  0  0  0  0  0  0  0  0  0  0  0
   -6.0073   11.1801   10.6875 C   0  0  0  0  0  0  0  0  0  0  0  0
   -7.4944    9.3247   10.1038 C   0  0  0  0  0  0  0  0  0  0  0  0
    3.3126    4.2855   13.0779 C   0  0  1  0  0  0  0  0  0  0  0  0
    2.8430    3.7309    4.4395 C   0  0  1  0  0  0  0  0  0  0  0  0
   -4.1116   11.8701   11.1433 I   0  0  0  0  0  0  0  0  0  0  0  0
   -7.0976   12.0775   10.6294 C   0  0  0  0  0  0  0  0  0  0  0  0
   -7.7423    7.3112    9.7285 I   0  0  0  0  0  0  0  0  0  0  0  0
   -8.5936   10.2210   10.0538 C   0  0  0  0  0  0  0  0  0  0  0  0
    4.8175    3.9704   12.8096 C   0  0  1  0  0  0  0  0  0  0  0  0
    3.1284    5.4664   14.0692 C   0  0  1  0  0  0  0  0  0  0  0  0
    4.0020    2.7391    4.7935 C   0  0  1  0  0  0  0  0  0  0  0  0
    1.8949    3.1776    3.3383 C   0  0  1  0  0  0  0  0  0  0  0  0
   -6.9126   13.4143   11.0229 C   0  0  0  0  0  0  0  0  0  0  0  0
   -8.3759   11.6080   10.2435 C   0  0  0  0  0  0  0  0  0  0  0  0
   -9.9033    9.7346    9.8274 C   0  0  0  0  0  0  0  0  0  0  0  0
    5.0456    2.7363   11.9006 C   0  0  2  0  0  0  0  0  0  0  0  0
    5.4768    5.0908   12.2183 O   0  0  0  0  0  0  0  0  0  0  0  0
    1.7469    5.5976   14.4621 O   0  0  0  0  0  0  0  0  0  0  0  0
    5.1281    3.3638    5.6578 C   0  0  1  0  0  0  0  0  0  0  0  0
    3.5124    1.5838    5.4733 O   0  0  0  0  0  0  0  0  0  0  0  0
    0.7798    4.0393    3.1356 O   0  0  0  0  0  0  0  0  0  0  0  0
   -6.6732   13.6472   12.3443 N   0  0  0  0  0  0  0  0  0  0  0  0
   -6.9825   14.3314   10.1715 O   0  0  0  0  0  0  0  0  0  0  0  0
   -9.9170   12.9480    9.9339 I   0  0  0  0  0  0  0  0  0  0  0  0
  -10.8976    9.6648   10.7652 N   0  0  0  0  0  0  0  0  0  0  0  0
  -10.1903    9.3314    8.6772 O   0  0  0  0  0  0  0  0  0  0  0  0
    4.4506    1.5665   12.4536 O   0  0  0  0  0  0  0  0  0  0  0  0
    5.8377    4.3610    4.9291 O   0  0  0  0  0  0  0  0  0  0  0  0
   -6.4915   14.9220   12.9715 C   0  0  1  0  0  0  0  0  0  0  0  0
  -10.8377   10.0098   12.1625 C   0  0  1  0  0  0  0  0  0  0  0  0
   -7.6515   15.1740   13.9871 C   0  0  1  0  0  0  0  0  0  0  0  0
   -5.0960   14.9693   13.6543 C   0  0  1  0  0  0  0  0  0  0  0  0
  -12.2662   10.3897   12.6815 C   0  0  1  0  0  0  0  0  0  0  0  0
  -10.2411    8.8366   12.9923 C   0  0  1  0  0  0  0  0  0  0  0  0
   -9.0613   15.2028   13.3416 C   0  0  2  0  0  0  0  0  0  0  0  0
   -7.6625   14.1862   15.0194 O   0  0  0  0  0  0  0  0  0  0  0  0
   -4.0447   14.8735   12.6987 O   0  0  0  0  0  0  0  0  0  0  0  0
  -12.8720   11.6607   12.0321 C   0  0  1  0  0  0  0  0  0  0  0  0
  -13.1849    9.3121   12.4920 O   0  0  0  0  0  0  0  0  0  0  0  0
   -8.8460    8.6752   12.7754 O   0  0  0  0  0  0  0  0  0  0  0  0
   -9.1804   16.2468   12.3807 O   0  0  0  0  0  0  0  0  0  0  0  0
  -12.1215   12.8177   12.3847 O   0  0  0  0  0  0  0  0  0  0  0  0
    0.9024    8.1340    7.9946 H   0  0  0  0  0  0  0  0  0  0  0  0
    0.1266    9.0320    9.2982 H   0  0  0  0  0  0  0  0  0  0  0  0
   -0.6053    8.9829    7.6708 H   0  0  0  0  0  0  0  0  0  0  0  0
   -2.4907    8.7553   10.8097 H   0  0  0  0  0  0  0  0  0  0  0  0
   -2.2711    9.4993    9.2689 H   0  0  0  0  0  0  0  0  0  0  0  0
   -5.8241    8.4030   12.5118 H   0  0  0  0  0  0  0  0  0  0  0  0
   -4.1165    8.7928   12.4165 H   0  0  0  0  0  0  0  0  0  0  0  0
   -4.7229    7.2705   11.7338 H   0  0  0  0  0  0  0  0  0  0  0  0
    2.9418    5.4142   11.3917 H   0  0  0  0  0  0  0  0  0  0  0  0
    2.4563    5.0994    5.9225 H   0  0  0  0  0  0  0  0  0  0  0  0
    2.8660    3.4059   13.5531 H   0  0  0  0  0  0  0  0  0  0  0  0
    3.3079    4.6167    3.9964 H   0  0  0  0  0  0  0  0  0  0  0  0
    5.3107    3.7671   13.7639 H   0  0  0  0  0  0  0  0  0  0  0  0
    3.7158    5.2987   14.9745 H   0  0  0  0  0  0  0  0  0  0  0  0
    3.4482    6.4068   13.6147 H   0  0  0  0  0  0  0  0  0  0  0  0
    4.4647    2.3878    3.8667 H   0  0  0  0  0  0  0  0  0  0  0  0
    2.4378    3.0960    2.3931 H   0  0  0  0  0  0  0  0  0  0  0  0
    1.5249    2.1864    3.6031 H   0  0  0  0  0  0  0  0  0  0  0  0
    6.1158    2.5530   11.7908 H   0  0  0  0  0  0  0  0  0  0  0  0
    4.6303    2.9138   10.9089 H   0  0  0  0  0  0  0  0  0  0  0  0
    5.4103    5.8084   12.8830 H   0  0  0  0  0  0  0  0  0  0  0  0
    1.6342    6.3557   15.0996 H   0  0  0  0  0  0  0  0  0  0  0  0
    4.7176    3.8071    6.5675 H   0  0  0  0  0  0  0  0  0  0  0  0
    5.8426    2.5893    5.9467 H   0  0  0  0  0  0  0  0  0  0  0  0
    2.9274    1.1365    4.8280 H   0  0  0  0  0  0  0  0  0  0  0  0
    0.2348    3.5851    2.4591 H   0  0  0  0  0  0  0  0  0  0  0  0
   -6.6332   12.8712   12.9273 H   0  0  0  0  0  0  0  0  0  0  0  0
  -11.7491    9.3148   10.4589 H   0  0  0  0  0  0  0  0  0  0  0  0
    4.6640    0.8472   11.8226 H   0  0  0  0  0  0  0  0  0  0  0  0
    6.5251    4.6838    5.5489 H   0  0  0  0  0  0  0  0  0  0  0  0
   -6.5090   15.7295   12.2333 H   0  0  0  0  0  0  0  0  0  0  0  0
  -10.1938   10.8785   12.3140 H   0  0  0  0  0  0  0  0  0  0  0  0
   -7.4926   16.1417   14.4700 H   0  0  0  0  0  0  0  0  0  0  0  0
   -4.9747   15.9153   14.1872 H   0  0  0  0  0  0  0  0  0  0  0  0
   -4.9796   14.1511   14.3693 H   0  0  0  0  0  0  0  0  0  0  0  0
  -12.2149   10.5809   13.7589 H   0  0  0  0  0  0  0  0  0  0  0  0
  -10.3819    9.0124   14.0617 H   0  0  0  0  0  0  0  0  0  0  0  0
  -10.7328    7.8994   12.7301 H   0  0  0  0  0  0  0  0  0  0  0  0
   -9.8128   15.3713   14.1153 H   0  0  0  0  0  0  0  0  0  0  0  0
   -9.2819   14.2495   12.8589 H   0  0  0  0  0  0  0  0  0  0  0  0
   -6.8228   14.3148   15.5081 H   0  0  0  0  0  0  0  0  0  0  0  0
   -3.2193   14.9310   13.2271 H   0  0  0  0  0  0  0  0  0  0  0  0
  -12.9015   11.5734   10.9445 H   0  0  0  0  0  0  0  0  0  0  0  0
  -13.8950   11.7990   12.3906 H   0  0  0  0  0  0  0  0  0  0  0  0
  -12.8398    8.5799   13.0448 H   0  0  0  0  0  0  0  0  0  0  0  0
   -8.4521    9.5267   13.0561 H   0  0  0  0  0  0  0  0  0  0  0  0
  -10.0905   16.1575   12.0259 H   0  0  0  0  0  0  0  0  0  0  0  0
  -12.5973   13.5668   11.9676 H   0  0  0  0  0  0  0  0  0  0  0  0
  1  2  1  0  0  0  0 
  1  3  1  0  0  0  0 
  1  4  1  0  0  0  0 
  2  5  1  0  0  0  0 
  2  6  2  0  0  0  0 
  4  7  2  0  0  0  0 
  4  8  1  0  0  0  0 
  5  9  1  0  0  0  0 
  7 10  1  0  0  0  0 
  7 11  1  0  0  0  0 
  8 12  1  0  0  0  0 
  8 13  2  0  0  0  0 
  9 14  1  0  0  0  0 
  9 15  2  0  0  0  0 
 11 16  1  0  0  0  0 
 11 17  2  0  0  0  0 
 13 17  1  0  0  0  0 
 13 18  1  0  0  0  0 
 14 19  1  0  0  0  0 
 14 20  1  0  0  0  0 
 16 21  1  0  0  0  0 
 16 22  2  0  0  0  0 
 17 23  1  0  0  0  0 
 18 24  1  0  0  0  0 
 18 25  2  0  0  0  0 
 20 26  2  0  0  0  0 
 20 27  1  0  0  0  0 
 21 28  1  0  0  0  0 
 24 29  1  0  0  0  0 
 26 30  1  0  0  0  0 
 26 31  1  0  0  0  0 
 27 32  1  0  0  0  0 
 27 33  2  0  0  0  0 
 28 34  1  0  0  0  0 
 28 35  1  0  0  0  0 
 29 36  1  0  0  0  0 
 29 37  1  0  0  0  0 
 31 38  1  0  0  0  0 
 31 39  2  0  0  0  0 
 33 39  1  0  0  0  0 
 33 40  1  0  0  0  0 
 34 41  1  0  0  0  0 
 34 42  1  0  0  0  0 
 35 43  1  0  0  0  0 
 36 44  1  0  0  0  0 
 36 45  1  0  0  0  0 
 37 46  1  0  0  0  0 
 38 47  1  0  0  0  0 
 38 48  2  0  0  0  0 
 39 49  1  0  0  0  0 
 40 50  1  0  0  0  0 
 40 51  2  0  0  0  0 
 41 52  1  0  0  0  0 
 44 53  1  0  0  0  0 
 47 54  1  0  0  0  0 
 50 55  1  0  0  0  0 
 54 56  1  0  0  0  0 
 54 57  1  0  0  0  0 
 55 58  1  0  0  0  0 
 55 59  1  0  0  0  0 
 56 60  1  0  0  0  0 
 56 61  1  0  0  0  0 
 57 62  1  0  0  0  0 
 58 63  1  0  0  0  0 
 58 64  1  0  0  0  0 
 59 65  1  0  0  0  0 
 60 66  1  0  0  0  0 
 63 67  1  0  0  0  0 
  3 68  1  0  0  0  0 
  3 69  1  0  0  0  0 
  3 70  1  0  0  0  0 
  5 71  1  0  0  0  0 
  5 72  1  0  0  0  0 
 19 73  1  0  0  0  0 
 19 74  1  0  0  0  0 
 19 75  1  0  0  0  0 
 21 76  1  0  0  0  0 
 24 77  1  0  0  0  0 
 28 78  1  0  0  0  0 
 29 79  1  0  0  0  0 
 34 80  1  0  0  0  0 
 35 81  1  0  0  0  0 
 35 82  1  0  0  0  0 
 36 83  1  0  0  0  0 
 37 84  1  0  0  0  0 
 37 85  1  0  0  0  0 
 41 86  1  0  0  0  0 
 41 87  1  0  0  0  0 
 42 88  1  0  0  0  0 
 43 89  1  0  0  0  0 
 44 90  1  0  0  0  0 
 44 91  1  0  0  0  0 
 45 92  1  0  0  0  0 
 46 93  1  0  0  0  0 
 47 94  1  0  0  0  0 
 50 95  1  0  0  0  0 
 52 96  1  0  0  0  0 
 53 97  1  0  0  0  0 
 54 98  1  0  0  0  0 
 55 99  1  0  0  0  0 
 56100  1  0  0  0  0 
 57101  1  0  0  0  0 
 57102  1  0  0  0  0 
 58103  1  0  0  0  0 
 59104  1  0  0  0  0 
 59105  1  0  0  0  0 
 60106  1  0  0  0  0 
 60107  1  0  0  0  0 
 61108  1  0  0  0  0 
 62109  1  0  0  0  0 
 63110  1  0  0  0  0 
 63111  1  0  0  0  0 
 64112  1  0  0  0  0 
 65113  1  0  0  0  0 
 66114  1  0  0  0  0 
 67115  1  0  0  0  0 
M  END
> <cdk:Title>
iotrolan

> <Conformer>
1

> <SuperDrugID>
SD001301

$$$$
