thiram
  CDK     0628171801

 24 23  0  0  0  0  0  0  0  0999 V2000
    1.1523   -0.5007   -0.8263 C   0  0  0  0  0  0  0  0  0  0  0  0
    0.2041   -1.0777   -0.0343 N   0  0  0  0  0  0  0  0  0  0  0  0
    1.2766    1.2079   -1.0675 S   0  0  0  0  0  0  0  0  0  0  0  0
    2.2984   -1.3689   -1.7450 S   0  0  0  0  0  0  0  0  0  0  0  0
    0.2635   -2.4603    0.3958 C   0  0  0  0  0  0  0  0  0  0  0  0
   -0.9425   -0.3153    0.4153 C   0  0  0  0  0  0  0  0  0  0  0  0
    3.0879    1.7303   -0.1253 S   0  0  0  0  0  0  0  0  0  0  0  0
    2.5979    2.2825    1.4326 C   0  0  0  0  0  0  0  0  0  0  0  0
    2.4918    3.5926    1.7168 N   0  0  0  0  0  0  0  0  0  0  0  0
    2.2558    1.0822    2.5921 S   0  0  0  0  0  0  0  0  0  0  0  0
    3.1628    4.1760    2.8540 C   0  0  0  0  0  0  0  0  0  0  0  0
    1.7377    4.4515    0.8383 C   0  0  0  0  0  0  0  0  0  0  0  0
   -0.5581   -3.0181   -0.0592 H   0  0  0  0  0  0  0  0  0  0  0  0
    1.1903   -2.9728    0.1450 H   0  0  0  0  0  0  0  0  0  0  0  0
    0.1652   -2.5164    1.4816 H   0  0  0  0  0  0  0  0  0  0  0  0
   -1.4952    0.0692   -0.4448 H   0  0  0  0  0  0  0  0  0  0  0  0
   -0.6217    0.5238    1.0348 H   0  0  0  0  0  0  0  0  0  0  0  0
   -1.6428   -0.9033    1.0140 H   0  0  0  0  0  0  0  0  0  0  0  0
    3.8720    4.9312    2.5080 H   0  0  0  0  0  0  0  0  0  0  0  0
    3.7214    3.4493    3.4480 H   0  0  0  0  0  0  0  0  0  0  0  0
    2.4340    4.6571    3.5090 H   0  0  0  0  0  0  0  0  0  0  0  0
    1.4949    5.4079    1.3055 H   0  0  0  0  0  0  0  0  0  0  0  0
    2.3121    4.6562   -0.0666 H   0  0  0  0  0  0  0  0  0  0  0  0
    0.7922    3.9817    0.5571 H   0  0  0  0  0  0  0  0  0  0  0  0
  1  2  1  0  0  0  0 
  1  3  1  0  0  0  0 
  1  4  2  0  0  0  0 
  2  5  1  0  0  0  0 
  2  6  1  0  0  0  0 
  3  7  1  0  0  0  0 
  7  8  1  0  0  0  0 
  8  9  1  0  0  0  0 
  8 10  2  0  0  0  0 
  9 11  1  0  0  0  0 
  9 12  1  0  0  0  0 
  5 13  1  0  0  0  0 
  5 14  1  0  0  0  0 
  5 15  1  0  0  0  0 
  6 16  1  0  0  0  0 
  6 17  1  0  0  0  0 
  6 18  1  0  0  0  0 
 11 19  1  0  0  0  0 
 11 20  1  0  0  0  0 
 11 21  1  0  0  0  0 
 12 22  1  0  0  0  0 
 12 23  1  0  0  0  0 
 12 24  1  0  0  0  0 
M  END
> <cdk:Title>
thiram

> <Conformer>
1

> <SuperDrugID>
SD003087

$$$$
