arformoterol
  CDK     0628171802

 49 50  0  0  0  0  0  0  0  0999 V2000
    0.5866    3.3926   -3.1436 C   0  0  0  0  0  0  0  0  0  0  0  0
   -0.5590    3.7426   -2.4080 C   0  0  0  0  0  0  0  0  0  0  0  0
   -1.0364    2.8928   -1.3934 C   0  0  0  0  0  0  0  0  0  0  0  0
   -0.3605    1.6923   -1.0850 C   0  0  0  0  0  0  0  0  0  0  0  0
    0.7820    1.3459   -1.8460 C   0  0  0  0  0  0  0  0  0  0  0  0
    1.2735    2.1857   -2.8765 C   0  0  0  0  0  0  0  0  0  0  0  0
   -2.1544    3.2529   -0.7129 O   0  0  0  0  0  0  0  0  0  0  0  0
    2.4695    1.7870   -3.6784 C   0  0  1  0  0  0  0  0  0  0  0  0
    3.5134    1.3445   -2.8114 O   0  0  0  0  0  0  0  0  0  0  0  0
    2.1331    0.6750   -4.7043 C   0  0  2  0  0  0  0  0  0  0  0  0
    1.2327    1.2216   -5.7432 N   0  0  1  0  0  0  0  0  0  0  0  0
    0.6941    0.2783   -6.7582 C   0  0  1  0  0  0  0  0  0  0  0  0
   -0.3620    1.0439   -7.6091 C   0  0  1  0  0  0  0  0  0  0  0  0
   -1.5393    1.5068   -6.8231 C   0  0  0  0  0  0  0  0  0  0  0  0
   -1.5782    2.8082   -6.2697 C   0  0  0  0  0  0  0  0  0  0  0  0
   -2.7124    3.2593   -5.5714 C   0  0  0  0  0  0  0  0  0  0  0  0
   -3.8318    2.4186   -5.4152 C   0  0  0  0  0  0  0  0  0  0  0  0
   -3.7912    1.1113   -5.9385 C   0  0  0  0  0  0  0  0  0  0  0  0
   -2.6534    0.6579   -6.6300 C   0  0  0  0  0  0  0  0  0  0  0  0
   -4.9357    2.8556   -4.7340 O   0  0  0  0  0  0  0  0  0  0  0  0
   -5.8950    3.5101   -5.5819 C   0  0  0  0  0  0  0  0  0  0  0  0
    1.8215   -0.2807   -7.6681 C   0  0  0  0  0  0  0  0  0  0  0  0
   -0.8785    0.9227   -0.0792 N   0  0  0  0  0  0  0  0  0  0  0  0
   -0.2185    0.1289    0.8009 C   0  0  0  0  0  0  0  0  0  0  0  0
    1.0276    0.0159    0.8508 O   0  0  0  0  0  0  0  0  0  0  0  0
   -0.7709   -0.3816    1.4897 H   0  0  0  0  0  0  0  0  0  0  0  0
    0.9081    4.0217   -3.8831 H   0  0  0  0  0  0  0  0  0  0  0  0
   -1.0464    4.6177   -2.6169 H   0  0  0  0  0  0  0  0  0  0  0  0
    1.2585    0.4620   -1.6585 H   0  0  0  0  0  0  0  0  0  0  0  0
   -1.8882    4.0372   -0.1890 H   0  0  0  0  0  0  0  0  0  0  0  0
    2.8729    2.6435   -4.2286 H   0  0  0  0  0  0  0  0  0  0  0  0
    4.2440    1.0809   -3.4099 H   0  0  0  0  0  0  0  0  0  0  0  0
    1.6635   -0.1706   -4.1961 H   0  0  0  0  0  0  0  0  0  0  0  0
    3.0603    0.3309   -5.1689 H   0  0  0  0  0  0  0  0  0  0  0  0
    0.4283    1.6013   -5.2407 H   0  0  0  0  0  0  0  0  0  0  0  0
    0.1987   -0.5630   -6.2602 H   0  0  0  0  0  0  0  0  0  0  0  0
    0.1196    1.9022   -8.0879 H   0  0  0  0  0  0  0  0  0  0  0  0
   -0.7158    0.4009   -8.4207 H   0  0  0  0  0  0  0  0  0  0  0  0
   -0.7801    3.4389   -6.3726 H   0  0  0  0  0  0  0  0  0  0  0  0
   -2.7227    4.2032   -5.1802 H   0  0  0  0  0  0  0  0  0  0  0  0
   -4.5917    0.4875   -5.8198 H   0  0  0  0  0  0  0  0  0  0  0  0
   -2.6469   -0.2955   -6.9995 H   0  0  0  0  0  0  0  0  0  0  0  0
   -6.7347    3.8230   -4.9612 H   0  0  0  0  0  0  0  0  0  0  0  0
   -5.4689    4.3993   -6.0534 H   0  0  0  0  0  0  0  0  0  0  0  0
   -6.2730    2.8336   -6.3527 H   0  0  0  0  0  0  0  0  0  0  0  0
    1.4016   -0.8414   -8.5055 H   0  0  0  0  0  0  0  0  0  0  0  0
    2.4276    0.5366   -8.0645 H   0  0  0  0  0  0  0  0  0  0  0  0
    2.4667   -0.9557   -7.1037 H   0  0  0  0  0  0  0  0  0  0  0  0
   -1.8381    0.9844    0.0519 H   0  0  0  0  0  0  0  0  0  0  0  0
  1  2  2  0  0  0  0 
  1  6  1  0  0  0  0 
  2  3  1  0  0  0  0 
  3  4  2  0  0  0  0 
  4  5  1  0  0  0  0 
  5  6  2  0  0  0  0 
  3  7  1  0  0  0  0 
  6  8  1  0  0  0  0 
  8  9  1  0  0  0  0 
  8 10  1  0  0  0  0 
 10 11  1  0  0  0  0 
 11 12  1  0  0  0  0 
 12 13  1  0  0  0  0 
 13 14  1  0  0  0  0 
 15 16  1  0  0  0  0 
 16 17  2  0  0  0  0 
 17 18  1  0  0  0  0 
 18 19  2  0  0  0  0 
 14 15  2  0  0  0  0 
 14 19  1  0  0  0  0 
 17 20  1  0  0  0  0 
 20 21  1  0  0  0  0 
 12 22  1  0  0  0  0 
  4 23  1  0  0  0  0 
 23 24  1  0  0  0  0 
 24 25  2  0  0  0  0 
 24 26  1  0  0  0  0 
  1 27  1  0  0  0  0 
  2 28  1  0  0  0  0 
  5 29  1  0  0  0  0 
  7 30  1  0  0  0  0 
  8 31  1  0  0  0  0 
  9 32  1  0  0  0  0 
 10 33  1  0  0  0  0 
 10 34  1  0  0  0  0 
 11 35  1  0  0  0  0 
 12 36  1  0  0  0  0 
 13 37  1  0  0  0  0 
 13 38  1  0  0  0  0 
 15 39  1  0  0  0  0 
 16 40  1  0  0  0  0 
 18 41  1  0  0  0  0 
 19 42  1  0  0  0  0 
 21 43  1  0  0  0  0 
 21 44  1  0  0  0  0 
 21 45  1  0  0  0  0 
 22 46  1  0  0  0  0 
 22 47  1  0  0  0  0 
 22 48  1  0  0  0  0 
 23 49  1  0  0  0  0 
M  END
> <cdk:Title>
arformoterol

> <Conformer>
1

> <SuperDrugID>
SD003859

$$$$
