arbutamine
  CDK     0628171801

 46 47  0  0  0  0  0  0  0  0999 V2000
    2.1653   -0.3061    0.6036 C   0  0  2  0  0  0  0  0  0  0  0  0
    1.2160    0.7577   -0.0041 C   0  0  2  0  0  0  0  0  0  0  0  0
    3.3101    0.3098    1.1941 O   0  0  0  0  0  0  0  0  0  0  0  0
    2.5627   -1.2916   -0.4420 C   0  0  0  0  0  0  0  0  0  0  0  0
    0.7919    1.7313    1.0275 N   0  0  1  0  0  0  0  0  0  0  0  0
    3.6811   -1.0702   -1.2832 C   0  0  0  0  0  0  0  0  0  0  0  0
    1.7719   -2.4428   -0.6647 C   0  0  0  0  0  0  0  0  0  0  0  0
   -0.1225    2.7736    0.5131 C   0  0  2  0  0  0  0  0  0  0  0  0
    3.9951   -1.9663   -2.3234 C   0  0  0  0  0  0  0  0  0  0  0  0
    2.0760   -3.3355   -1.7078 C   0  0  0  0  0  0  0  0  0  0  0  0
   -0.4934    3.7638    1.6404 C   0  0  2  0  0  0  0  0  0  0  0  0
    5.0600   -1.7254   -3.1277 O   0  0  0  0  0  0  0  0  0  0  0  0
    3.1877   -3.0998   -2.5367 C   0  0  0  0  0  0  0  0  0  0  0  0
   -1.4476    4.8795    1.1423 C   0  0  2  0  0  0  0  0  0  0  0  0
    3.4672   -3.9687   -3.5348 O   0  0  0  0  0  0  0  0  0  0  0  0
   -1.8490    5.8933    2.2459 C   0  0  2  0  0  0  0  0  0  0  0  0
   -2.7624    6.9310    1.6943 C   0  0  0  0  0  0  0  0  0  0  0  0
   -4.1639    6.7341    1.6942 C   0  0  0  0  0  0  0  0  0  0  0  0
   -2.2458    8.1175    1.1213 C   0  0  0  0  0  0  0  0  0  0  0  0
   -5.0238    7.6930    1.1260 C   0  0  0  0  0  0  0  0  0  0  0  0
   -3.1073    9.0751    0.5536 C   0  0  0  0  0  0  0  0  0  0  0  0
   -4.4974    8.8639    0.5525 C   0  0  0  0  0  0  0  0  0  0  0  0
   -5.3254    9.7864    0.0074 O   0  0  0  0  0  0  0  0  0  0  0  0
    1.6420   -0.8171    1.4171 H   0  0  0  0  0  0  0  0  0  0  0  0
    0.3338    0.2571   -0.4180 H   0  0  0  0  0  0  0  0  0  0  0  0
    1.7301    1.2818   -0.8161 H   0  0  0  0  0  0  0  0  0  0  0  0
    2.9529    0.8961    1.8940 H   0  0  0  0  0  0  0  0  0  0  0  0
    0.2859    1.2087    1.7465 H   0  0  0  0  0  0  0  0  0  0  0  0
    4.2663   -0.2424   -1.1540 H   0  0  0  0  0  0  0  0  0  0  0  0
    0.9586   -2.6297   -0.0744 H   0  0  0  0  0  0  0  0  0  0  0  0
   -1.0326    2.3106    0.1236 H   0  0  0  0  0  0  0  0  0  0  0  0
    0.3698    3.3214   -0.2952 H   0  0  0  0  0  0  0  0  0  0  0  0
    1.4821   -4.1539   -1.8644 H   0  0  0  0  0  0  0  0  0  0  0  0
    0.4218    4.2180    2.0285 H   0  0  0  0  0  0  0  0  0  0  0  0
   -0.9746    3.2142    2.4538 H   0  0  0  0  0  0  0  0  0  0  0  0
    5.8427   -2.0049   -2.6075 H   0  0  0  0  0  0  0  0  0  0  0  0
   -2.3541    4.4144    0.7449 H   0  0  0  0  0  0  0  0  0  0  0  0
   -0.9605    5.4201    0.3263 H   0  0  0  0  0  0  0  0  0  0  0  0
    4.1181   -4.5869   -3.1420 H   0  0  0  0  0  0  0  0  0  0  0  0
   -0.9510    6.3642    2.6559 H   0  0  0  0  0  0  0  0  0  0  0  0
   -2.3365    5.3644    3.0694 H   0  0  0  0  0  0  0  0  0  0  0  0
   -4.5670    5.8859    2.1003 H   0  0  0  0  0  0  0  0  0  0  0  0
   -1.2370    8.2875    1.1058 H   0  0  0  0  0  0  0  0  0  0  0  0
   -6.0337    7.5357    1.1250 H   0  0  0  0  0  0  0  0  0  0  0  0
   -2.7215    9.9243    0.1358 H   0  0  0  0  0  0  0  0  0  0  0  0
   -5.4172    9.5238   -0.9332 H   0  0  0  0  0  0  0  0  0  0  0  0
  1  2  1  0  0  0  0 
  1  3  1  0  0  0  0 
  1  4  1  0  0  0  0 
  2  5  1  0  0  0  0 
  4  6  2  0  0  0  0 
  4  7  1  0  0  0  0 
  5  8  1  0  0  0  0 
  6  9  1  0  0  0  0 
  7 10  2  0  0  0  0 
  8 11  1  0  0  0  0 
  9 12  1  0  0  0  0 
  9 13  2  0  0  0  0 
 10 13  1  0  0  0  0 
 11 14  1  0  0  0  0 
 13 15  1  0  0  0  0 
 14 16  1  0  0  0  0 
 16 17  1  0  0  0  0 
 17 18  2  0  0  0  0 
 17 19  1  0  0  0  0 
 18 20  1  0  0  0  0 
 19 21  2  0  0  0  0 
 20 22  2  0  0  0  0 
 21 22  1  0  0  0  0 
 22 23  1  0  0  0  0 
  1 24  1  0  0  0  0 
  2 25  1  0  0  0  0 
  2 26  1  0  0  0  0 
  3 27  1  0  0  0  0 
  5 28  1  0  0  0  0 
  6 29  1  0  0  0  0 
  7 30  1  0  0  0  0 
  8 31  1  0  0  0  0 
  8 32  1  0  0  0  0 
 10 33  1  0  0  0  0 
 11 34  1  0  0  0  0 
 11 35  1  0  0  0  0 
 12 36  1  0  0  0  0 
 14 37  1  0  0  0  0 
 14 38  1  0  0  0  0 
 15 39  1  0  0  0  0 
 16 40  1  0  0  0  0 
 16 41  1  0  0  0  0 
 18 42  1  0  0  0  0 
 19 43  1  0  0  0  0 
 20 44  1  0  0  0  0 
 21 45  1  0  0  0  0 
 23 46  1  0  0  0  0 
M  END
> <cdk:Title>
arbutamine

> <Conformer>
1

> <SuperDrugID>
SD000197

$$$$
