gitoxin
  CDK     0628171801

119126  0  0  0  0  0  0  0  0999 V2000
    1.1858   -0.9130    1.4042 O   0  0  0  0  0  0  0  0  0  0  0  0
    1.3956    0.4647    1.7514 C   0  0  1  0  0  0  0  0  0  0  0  0
    2.9689    0.6277    1.8289 C   0  0  1  0  0  0  0  0  0  0  0  0
    0.6722    1.3668    0.6859 C   0  0  1  0  0  0  0  0  0  0  0  0
    0.6244    0.7463    3.0867 C   0  0  2  0  0  0  0  0  0  0  0  0
    3.4571    2.1215    1.9132 C   0  0  1  0  0  0  0  0  0  0  0  0
    3.5750   -0.3019    2.9440 C   0  0  1  0  0  0  0  0  0  0  0  0
    0.8195    0.8275   -0.7845 C   0  0  0  0  0  0  0  0  0  0  0  0
   -0.8293    1.3845    1.1954 C   0  0  2  0  0  0  0  0  0  0  0  0
    1.2636    2.8356    0.7246 C   0  0  2  0  0  0  0  0  0  0  0  0
   -0.7154    1.4369    2.7479 C   0  0  1  0  0  0  0  0  0  0  0  0
    5.0446    2.3289    2.1034 C   0  0  2  0  0  0  0  0  0  0  0  0
    2.8124    2.9302    0.7395 C   0  0  1  0  0  0  0  0  0  0  0  0
    4.7112    0.3430    3.7660 C   0  0  1  0  0  0  0  0  0  0  0  0
   -1.7406    0.3203    0.7220 C   0  0  0  0  0  0  0  0  0  0  0  0
   -1.8125    0.8708    3.4699 O   0  0  0  0  0  0  0  0  0  0  0  0
    5.7721    2.4881    0.7196 C   0  0  0  0  0  0  0  0  0  0  0  0
    5.7116    1.0704    2.8235 C   0  0  2  0  0  0  0  0  0  0  0  0
    5.2819    3.6608    2.9381 C   0  0  2  0  0  0  0  0  0  0  0  0
   -1.7899   -0.9575    1.1161 C   0  0  0  0  0  0  0  0  0  0  0  0
   -2.7773    0.5362   -0.2683 C   0  0  2  0  0  0  0  0  0  0  0  0
    7.0705    1.3504    3.5458 C   0  0  2  0  0  0  0  0  0  0  0  0
    6.6715    3.8171    3.6196 C   0  0  2  0  0  0  0  0  0  0  0  0
   -2.7745   -1.6092    0.4523 C   0  0  0  0  0  0  0  0  0  0  0  0
   -3.3890   -0.7498   -0.3811 O   0  0  0  0  0  0  0  0  0  0  0  0
    6.9886    2.5772    4.4951 C   0  0  2  0  0  0  0  0  0  0  0  0
   -3.0751   -2.8154    0.5904 O   0  0  0  0  0  0  0  0  0  0  0  0
    8.1478    2.8277    5.3358 O   0  0  0  0  0  0  0  0  0  0  0  0
    8.6303    1.7272    6.1517 C   0  0  1  0  0  0  0  0  0  0  0  0
    9.7567    2.1589    7.1339 C   0  0  1  0  0  0  0  0  0  0  0  0
    7.5915    0.9495    6.8012 O   0  0  0  0  0  0  0  0  0  0  0  0
    9.2260    2.6459    8.5069 C   0  0  2  0  0  0  0  0  0  0  0  0
    7.0498    1.4259    8.0547 C   0  0  1  0  0  0  0  0  0  0  0  0
   10.3148    2.8285    9.4111 O   0  0  0  0  0  0  0  0  0  0  0  0
    8.1853    1.6541    9.1086 C   0  0  1  0  0  0  0  0  0  0  0  0
    6.0806    2.6309    7.9087 C   0  0  0  0  0  0  0  0  0  0  0  0
    8.8700    0.4265    9.4964 O   0  0  0  0  0  0  0  0  0  0  0  0
    8.1630   -0.5003   10.3627 C   0  0  1  0  0  0  0  0  0  0  0  0
    8.9377   -1.8398   10.5276 C   0  0  1  0  0  0  0  0  0  0  0  0
    7.7771    0.0812   11.6317 O   0  0  0  0  0  0  0  0  0  0  0  0
   10.0271   -1.7810   11.6299 C   0  0  2  0  0  0  0  0  0  0  0  0
    8.7798    0.1737   12.6708 C   0  0  1  0  0  0  0  0  0  0  0  0
   10.5736   -3.0832   11.8400 O   0  0  0  0  0  0  0  0  0  0  0  0
    9.4317   -1.2212   12.9552 C   0  0  1  0  0  0  0  0  0  0  0  0
    9.8050    1.3180   12.4419 C   0  0  0  0  0  0  0  0  0  0  0  0
    8.5143   -2.2384   13.4387 O   0  0  0  0  0  0  0  0  0  0  0  0
    7.7911   -2.0440   14.6738 C   0  0  1  0  0  0  0  0  0  0  0  0
    6.8767   -3.2821   14.8945 C   0  0  1  0  0  0  0  0  0  0  0  0
    8.6870   -1.8258   15.8287 O   0  0  0  0  0  0  0  0  0  0  0  0
    7.6696   -4.5639   15.2608 C   0  0  2  0  0  0  0  0  0  0  0  0
    9.4502   -3.0429   16.3373 C   0  0  1  0  0  0  0  0  0  0  0  0
    6.7730   -5.6533   15.4868 O   0  0  0  0  0  0  0  0  0  0  0  0
    8.5531   -4.3362   16.5148 C   0  0  1  0  0  0  0  0  0  0  0  0
   10.7613   -3.3871   15.5345 C   0  0  0  0  0  0  0  0  0  0  0  0
    7.7138   -4.1771   17.6606 O   0  0  0  0  0  0  0  0  0  0  0  0
    3.3694    0.2556    0.8784 H   0  0  0  0  0  0  0  0  0  0  0  0
    2.9794    2.5045    2.8167 H   0  0  0  0  0  0  0  0  0  0  0  0
    5.9689    0.3213    2.0633 H   0  0  0  0  0  0  0  0  0  0  0  0
    9.1189    1.0438    5.4538 H   0  0  0  0  0  0  0  0  0  0  0  0
    7.2308   -0.7828    9.8755 H   0  0  0  0  0  0  0  0  0  0  0  0
    7.0651   -1.2115   14.4871 H   0  0  0  0  0  0  0  0  0  0  0  0
    1.5252   -1.4337    2.1614 H   0  0  0  0  0  0  0  0  0  0  0  0
    1.1952    1.3949    3.7543 H   0  0  0  0  0  0  0  0  0  0  0  0
    0.4415   -0.1825    3.6324 H   0  0  0  0  0  0  0  0  0  0  0  0
    2.8277   -0.6319    3.6663 H   0  0  0  0  0  0  0  0  0  0  0  0
    3.9547   -1.2141    2.4707 H   0  0  0  0  0  0  0  0  0  0  0  0
    1.8665    0.7866   -1.0871 H   0  0  0  0  0  0  0  0  0  0  0  0
    0.4126   -0.1781   -0.8939 H   0  0  0  0  0  0  0  0  0  0  0  0
    0.2891    1.4709   -1.4889 H   0  0  0  0  0  0  0  0  0  0  0  0
   -1.2903    2.3282    0.8816 H   0  0  0  0  0  0  0  0  0  0  0  0
    0.9191    3.3693    1.6124 H   0  0  0  0  0  0  0  0  0  0  0  0
    0.8960    3.4090   -0.1324 H   0  0  0  0  0  0  0  0  0  0  0  0
   -0.6669    2.4804    3.0734 H   0  0  0  0  0  0  0  0  0  0  0  0
    3.0891    3.9840    0.8328 H   0  0  0  0  0  0  0  0  0  0  0  0
    3.1931    2.5788   -0.2225 H   0  0  0  0  0  0  0  0  0  0  0  0
    4.2835    1.0514    4.4813 H   0  0  0  0  0  0  0  0  0  0  0  0
    5.2095   -0.4491    4.3340 H   0  0  0  0  0  0  0  0  0  0  0  0
   -2.6046    1.3574    3.1590 H   0  0  0  0  0  0  0  0  0  0  0  0
    6.8549    2.5370    0.8370 H   0  0  0  0  0  0  0  0  0  0  0  0
    5.4654    3.3985    0.2044 H   0  0  0  0  0  0  0  0  0  0  0  0
    5.5423    1.6421    0.0694 H   0  0  0  0  0  0  0  0  0  0  0  0
    4.5498    3.7365    3.7465 H   0  0  0  0  0  0  0  0  0  0  0  0
    5.1173    4.5365    2.3044 H   0  0  0  0  0  0  0  0  0  0  0  0
   -1.2145   -1.3812    1.8042 H   0  0  0  0  0  0  0  0  0  0  0  0
   -2.3539    0.8440   -1.2258 H   0  0  0  0  0  0  0  0  0  0  0  0
   -3.5079    1.2719    0.0768 H   0  0  0  0  0  0  0  0  0  0  0  0
    7.8641    1.5129    2.8111 H   0  0  0  0  0  0  0  0  0  0  0  0
    7.3532    0.4575    4.1043 H   0  0  0  0  0  0  0  0  0  0  0  0
    6.6622    4.7098    4.2511 H   0  0  0  0  0  0  0  0  0  0  0  0
    7.4481    3.9627    2.8627 H   0  0  0  0  0  0  0  0  0  0  0  0
    6.1432    2.4345    5.1649 H   0  0  0  0  0  0  0  0  0  0  0  0
   10.4130    1.3016    7.3106 H   0  0  0  0  0  0  0  0  0  0  0  0
   10.3614    2.9455    6.6757 H   0  0  0  0  0  0  0  0  0  0  0  0
    8.7638    3.6281    8.3771 H   0  0  0  0  0  0  0  0  0  0  0  0
    6.4092    0.6163    8.4009 H   0  0  0  0  0  0  0  0  0  0  0  0
   10.9093    3.4725    8.9721 H   0  0  0  0  0  0  0  0  0  0  0  0
    7.7616    2.1224   10.0033 H   0  0  0  0  0  0  0  0  0  0  0  0
    5.7074    2.9369    8.8870 H   0  0  0  0  0  0  0  0  0  0  0  0
    6.5736    3.4857    7.4472 H   0  0  0  0  0  0  0  0  0  0  0  0
    5.2198    2.3484    7.2992 H   0  0  0  0  0  0  0  0  0  0  0  0
    8.2229   -2.6247   10.7963 H   0  0  0  0  0  0  0  0  0  0  0  0
    9.3892   -2.1242    9.5739 H   0  0  0  0  0  0  0  0  0  0  0  0
   10.8511   -1.1514   11.2887 H   0  0  0  0  0  0  0  0  0  0  0  0
    8.2399    0.4830   13.5665 H   0  0  0  0  0  0  0  0  0  0  0  0
   10.9306   -3.3565   10.9684 H   0  0  0  0  0  0  0  0  0  0  0  0
   10.2395   -1.1013   13.6814 H   0  0  0  0  0  0  0  0  0  0  0  0
   10.4546    1.4157   13.3140 H   0  0  0  0  0  0  0  0  0  0  0  0
   10.4336    1.1320   11.5733 H   0  0  0  0  0  0  0  0  0  0  0  0
    9.2823    2.2662   12.2982 H   0  0  0  0  0  0  0  0  0  0  0  0
    6.1651   -3.0595   15.6946 H   0  0  0  0  0  0  0  0  0  0  0  0
    6.2987   -3.4691   13.9853 H   0  0  0  0  0  0  0  0  0  0  0  0
    8.3051   -4.8447   14.4168 H   0  0  0  0  0  0  0  0  0  0  0  0
    9.8593   -2.8584   17.3656 H   0  0  0  0  0  0  0  0  0  0  0  0
    6.2754   -5.7596   14.6477 H   0  0  0  0  0  0  0  0  0  0  0  0
    9.1711   -5.2210   16.6918 H   0  0  0  0  0  0  0  0  0  0  0  0
   11.3949   -2.4993   15.4797 H   0  0  0  0  0  0  0  0  0  0  0  0
   10.5264   -3.7145   14.5233 H   0  0  0  0  0  0  0  0  0  0  0  0
   11.3280   -4.1782   16.0291 H   0  0  0  0  0  0  0  0  0  0  0  0
    8.3269   -4.1048   18.4234 H   0  0  0  0  0  0  0  0  0  0  0  0
  2  1  1  0  0  0  0 
  3  2  1  0  0  0  0 
  2  4  1  0  0  0  0 
  2  5  1  0  0  0  0 
  6  3  1  0  0  0  0 
  3  7  1  0  0  0  0 
  3 56  1  0  0  0  0 
  4  8  1  0  0  0  0 
  4  9  1  0  0  0  0 
  4 10  1  0  0  0  0 
 11  5  1  0  0  0  0 
 12  6  1  0  0  0  0 
  6 13  1  0  0  0  0 
  6 57  1  0  0  0  0 
  7 14  1  0  0  0  0 
  9 11  1  0  0  0  0 
  9 15  1  0  0  0  0 
 10 13  1  0  0  0  0 
 11 16  1  0  0  0  0 
 12 17  1  0  0  0  0 
 18 12  1  0  0  0  0 
 12 19  1  0  0  0  0 
 18 14  1  0  0  0  0 
 15 20  2  0  0  0  0 
 15 21  1  0  0  0  0 
 18 22  1  0  0  0  0 
 18 58  1  0  0  0  0 
 19 23  1  0  0  0  0 
 20 24  1  0  0  0  0 
 21 25  1  0  0  0  0 
 26 22  1  0  0  0  0 
 26 23  1  0  0  0  0 
 24 25  1  0  0  0  0 
 24 27  2  0  0  0  0 
 26 28  1  0  0  0  0 
 29 28  1  0  0  0  0 
 29 30  1  0  0  0  0 
 29 31  1  0  0  0  0 
 29 59  1  0  0  0  0 
 32 30  1  0  0  0  0 
 33 31  1  0  0  0  0 
 32 34  1  0  0  0  0 
 35 32  1  0  0  0  0 
 33 35  1  0  0  0  0 
 33 36  1  0  0  0  0 
 35 37  1  0  0  0  0 
 38 37  1  0  0  0  0 
 38 39  1  0  0  0  0 
 38 40  1  0  0  0  0 
 38 60  1  0  0  0  0 
 41 39  1  0  0  0  0 
 42 40  1  0  0  0  0 
 41 43  1  0  0  0  0 
 44 41  1  0  0  0  0 
 44 42  1  0  0  0  0 
 42 45  1  0  0  0  0 
 44 46  1  0  0  0  0 
 47 46  1  0  0  0  0 
 47 48  1  0  0  0  0 
 47 49  1  0  0  0  0 
 47 61  1  0  0  0  0 
 50 48  1  0  0  0  0 
 51 49  1  0  0  0  0 
 50 52  1  0  0  0  0 
 53 50  1  0  0  0  0 
 53 51  1  0  0  0  0 
 51 54  1  0  0  0  0 
 53 55  1  0  0  0  0 
  1 62  1  0  0  0  0 
  5 63  1  0  0  0  0 
  5 64  1  0  0  0  0 
  7 65  1  0  0  0  0 
  7 66  1  0  0  0  0 
  8 67  1  0  0  0  0 
  8 68  1  0  0  0  0 
  8 69  1  0  0  0  0 
  9 70  1  0  0  0  0 
 10 71  1  0  0  0  0 
 10 72  1  0  0  0  0 
 11 73  1  0  0  0  0 
 13 74  1  0  0  0  0 
 13 75  1  0  0  0  0 
 14 76  1  0  0  0  0 
 14 77  1  0  0  0  0 
 16 78  1  0  0  0  0 
 17 79  1  0  0  0  0 
 17 80  1  0  0  0  0 
 17 81  1  0  0  0  0 
 19 82  1  0  0  0  0 
 19 83  1  0  0  0  0 
 20 84  1  0  0  0  0 
 21 85  1  0  0  0  0 
 21 86  1  0  0  0  0 
 22 87  1  0  0  0  0 
 22 88  1  0  0  0  0 
 23 89  1  0  0  0  0 
 23 90  1  0  0  0  0 
 26 91  1  0  0  0  0 
 30 92  1  0  0  0  0 
 30 93  1  0  0  0  0 
 32 94  1  0  0  0  0 
 33 95  1  0  0  0  0 
 34 96  1  0  0  0  0 
 35 97  1  0  0  0  0 
 36 98  1  0  0  0  0 
 36 99  1  0  0  0  0 
 36100  1  0  0  0  0 
 39101  1  0  0  0  0 
 39102  1  0  0  0  0 
 41103  1  0  0  0  0 
 42104  1  0  0  0  0 
 43105  1  0  0  0  0 
 44106  1  0  0  0  0 
 45107  1  0  0  0  0 
 45108  1  0  0  0  0 
 45109  1  0  0  0  0 
 48110  1  0  0  0  0 
 48111  1  0  0  0  0 
 50112  1  0  0  0  0 
 51113  1  0  0  0  0 
 52114  1  0  0  0  0 
 53115  1  0  0  0  0 
 54116  1  0  0  0  0 
 54117  1  0  0  0  0 
 54118  1  0  0  0  0 
 55119  1  0  0  0  0 
M  END
> <cdk:Title>
gitoxin

> <Conformer>
1

> <SuperDrugID>
SD002818

$$$$
