hexobendine
  CDK     0628171801

 86 87  0  0  0  0  0  0  0  0999 V2000
    5.6520   -1.7156    9.0867 O   0  0  0  0  0  0  0  0  0  0  0  0
    4.7179   -1.0260    8.2340 C   0  0  0  0  0  0  0  0  0  0  0  0
    6.5453   -2.4906    8.3898 C   0  0  0  0  0  0  0  0  0  0  0  0
    6.2628   -3.8508    8.1300 C   0  0  0  0  0  0  0  0  0  0  0  0
    7.7692   -1.9406    7.9550 C   0  0  0  0  0  0  0  0  0  0  0  0
    5.1007   -4.4107    8.5892 O   0  0  0  0  0  0  0  0  0  0  0  0
    7.1685   -4.6293    7.3775 C   0  0  0  0  0  0  0  0  0  0  0  0
    8.0905   -0.6410    8.2520 O   0  0  0  0  0  0  0  0  0  0  0  0
    8.6557   -2.7256    7.1924 C   0  0  0  0  0  0  0  0  0  0  0  0
    5.2313   -4.9777    9.9059 C   0  0  0  0  0  0  0  0  0  0  0  0
    8.3828   -4.0837    6.8930 C   0  0  0  0  0  0  0  0  0  0  0  0
    8.9337   -0.5198    9.4142 C   0  0  0  0  0  0  0  0  0  0  0  0
    9.3101   -4.8679    6.1461 C   0  0  0  0  0  0  0  0  0  0  0  0
    9.0771   -6.1922    5.8689 O   0  0  0  0  0  0  0  0  0  0  0  0
   10.3695   -4.3456    5.7185 O   0  0  0  0  0  0  0  0  0  0  0  0
    9.9623   -7.0609    5.1367 C   0  0  1  0  0  0  0  0  0  0  0  0
    9.3086   -8.4954    4.9888 C   0  0  2  0  0  0  0  0  0  0  0  0
   10.1968   -9.4110    4.0961 C   0  0  1  0  0  0  0  0  0  0  0  0
    9.6765  -10.8009    3.8539 N   0  0  1  0  0  0  0  0  0  0  0  0
    8.4322  -10.8143    3.0067 C   0  0  2  0  0  0  0  0  0  0  0  0
   10.7553  -11.6967    3.3162 C   0  0  0  0  0  0  0  0  0  0  0  0
    7.7904  -12.2078    2.7736 C   0  0  2  0  0  0  0  0  0  0  0  0
    6.3924  -12.1921    2.2161 N   0  0  2  0  0  0  0  0  0  0  0  0
    5.7780  -13.5615    2.1354 C   0  0  1  0  0  0  0  0  0  0  0  0
    6.3006  -11.4755    0.9033 C   0  0  0  0  0  0  0  0  0  0  0  0
    5.4588  -14.2227    3.5058 C   0  0  1  0  0  0  0  0  0  0  0  0
    4.7448  -15.5850    3.3478 C   0  0  1  0  0  0  0  0  0  0  0  0
    4.6707  -16.2346    4.6240 O   0  0  0  0  0  0  0  0  0  0  0  0
    4.3041  -17.5370    4.7743 C   0  0  0  0  0  0  0  0  0  0  0  0
    3.1154  -17.7564    5.1029 O   0  0  0  0  0  0  0  0  0  0  0  0
    5.2406  -18.5936    4.6137 C   0  0  0  0  0  0  0  0  0  0  0  0
    6.6317  -18.3302    4.6122 C   0  0  0  0  0  0  0  0  0  0  0  0
    4.8116  -19.9287    4.4205 C   0  0  0  0  0  0  0  0  0  0  0  0
    7.5718  -19.3635    4.4292 C   0  0  0  0  0  0  0  0  0  0  0  0
    5.7400  -20.9705    4.2196 C   0  0  0  0  0  0  0  0  0  0  0  0
    8.9103  -19.0656    4.4282 O   0  0  0  0  0  0  0  0  0  0  0  0
    7.1260  -20.6953    4.2734 C   0  0  0  0  0  0  0  0  0  0  0  0
    5.2917  -22.2436    3.9826 O   0  0  0  0  0  0  0  0  0  0  0  0
    9.4262  -18.7855    3.1125 C   0  0  0  0  0  0  0  0  0  0  0  0
    8.0361  -21.7113    4.1391 O   0  0  0  0  0  0  0  0  0  0  0  0
    5.0961  -22.5157    2.5802 C   0  0  0  0  0  0  0  0  0  0  0  0
    8.4318  -22.2826    5.4007 C   0  0  0  0  0  0  0  0  0  0  0  0
    4.0577   -0.4344    8.8682 H   0  0  0  0  0  0  0  0  0  0  0  0
    5.2269   -0.3457    7.5455 H   0  0  0  0  0  0  0  0  0  0  0  0
    4.1034   -1.7278    7.6637 H   0  0  0  0  0  0  0  0  0  0  0  0
    6.9297   -5.6060    7.1907 H   0  0  0  0  0  0  0  0  0  0  0  0
    9.5161   -2.2849    6.8632 H   0  0  0  0  0  0  0  0  0  0  0  0
    4.2614   -5.3841   10.1945 H   0  0  0  0  0  0  0  0  0  0  0  0
    5.9596   -5.7927    9.9196 H   0  0  0  0  0  0  0  0  0  0  0  0
    5.5159   -4.2235   10.6447 H   0  0  0  0  0  0  0  0  0  0  0  0
    9.1413    0.5385    9.5765 H   0  0  0  0  0  0  0  0  0  0  0  0
    8.4402   -0.9098   10.3079 H   0  0  0  0  0  0  0  0  0  0  0  0
    9.8895   -1.0321    9.2741 H   0  0  0  0  0  0  0  0  0  0  0  0
   10.2411   -6.5318    4.1807 H   0  0  0  0  0  0  0  0  0  0  0  0
   10.8854   -7.1736    5.7143 H   0  0  0  0  0  0  0  0  0  0  0  0
    8.3258   -8.3560    4.5374 H   0  0  0  0  0  0  0  0  0  0  0  0
    9.1750   -8.9467    5.9779 H   0  0  0  0  0  0  0  0  0  0  0  0
   10.3692   -8.9136    3.1364 H   0  0  0  0  0  0  0  0  0  0  0  0
   11.1611   -9.4751    4.6077 H   0  0  0  0  0  0  0  0  0  0  0  0
    8.6548  -10.3595    2.0382 H   0  0  0  0  0  0  0  0  0  0  0  0
    7.6578  -10.2213    3.4909 H   0  0  0  0  0  0  0  0  0  0  0  0
   11.0248  -11.4198    2.2933 H   0  0  0  0  0  0  0  0  0  0  0  0
   10.4408  -12.7412    3.3235 H   0  0  0  0  0  0  0  0  0  0  0  0
   11.6545  -11.6502    3.9328 H   0  0  0  0  0  0  0  0  0  0  0  0
    7.7886  -12.6916    3.7502 H   0  0  0  0  0  0  0  0  0  0  0  0
    8.4333  -12.7912    2.1084 H   0  0  0  0  0  0  0  0  0  0  0  0
    4.8269  -13.4966    1.5981 H   0  0  0  0  0  0  0  0  0  0  0  0
    6.4331  -14.2243    1.5617 H   0  0  0  0  0  0  0  0  0  0  0  0
    6.5392  -10.4180    1.0181 H   0  0  0  0  0  0  0  0  0  0  0  0
    5.2888  -11.5139    0.4989 H   0  0  0  0  0  0  0  0  0  0  0  0
    6.9815  -11.9132    0.1699 H   0  0  0  0  0  0  0  0  0  0  0  0
    6.3802  -14.4026    4.0600 H   0  0  0  0  0  0  0  0  0  0  0  0
    4.8308  -13.5518    4.0986 H   0  0  0  0  0  0  0  0  0  0  0  0
    3.7409  -15.4354    2.9365 H   0  0  0  0  0  0  0  0  0  0  0  0
    5.3183  -16.2143    2.6584 H   0  0  0  0  0  0  0  0  0  0  0  0
    6.9754  -17.3751    4.7453 H   0  0  0  0  0  0  0  0  0  0  0  0
    3.8124  -20.1537    4.4052 H   0  0  0  0  0  0  0  0  0  0  0  0
   10.4883  -18.5582    3.2065 H   0  0  0  0  0  0  0  0  0  0  0  0
    9.3241  -19.6471    2.4476 H   0  0  0  0  0  0  0  0  0  0  0  0
    8.9351  -17.9187    2.6622 H   0  0  0  0  0  0  0  0  0  0  0  0
    4.7532  -23.5455    2.4844 H   0  0  0  0  0  0  0  0  0  0  0  0
    4.3343  -21.8643    2.1426 H   0  0  0  0  0  0  0  0  0  0  0  0
    6.0254  -22.4158    2.0129 H   0  0  0  0  0  0  0  0  0  0  0  0
    9.1575  -23.0728    5.2065 H   0  0  0  0  0  0  0  0  0  0  0  0
    8.9071  -21.5395    6.0465 H   0  0  0  0  0  0  0  0  0  0  0  0
    7.5791  -22.7262    5.9209 H   0  0  0  0  0  0  0  0  0  0  0  0
  1  2  1  0  0  0  0 
  1  3  1  0  0  0  0 
  3  4  2  0  0  0  0 
  3  5  1  0  0  0  0 
  4  6  1  0  0  0  0 
  4  7  1  0  0  0  0 
  5  8  1  0  0  0  0 
  5  9  2  0  0  0  0 
  6 10  1  0  0  0  0 
  7 11  2  0  0  0  0 
  8 12  1  0  0  0  0 
  9 11  1  0  0  0  0 
 11 13  1  0  0  0  0 
 13 14  1  0  0  0  0 
 13 15  2  0  0  0  0 
 14 16  1  0  0  0  0 
 16 17  1  0  0  0  0 
 17 18  1  0  0  0  0 
 18 19  1  0  0  0  0 
 19 20  1  0  0  0  0 
 19 21  1  0  0  0  0 
 20 22  1  0  0  0  0 
 22 23  1  0  0  0  0 
 23 24  1  0  0  0  0 
 23 25  1  0  0  0  0 
 24 26  1  0  0  0  0 
 26 27  1  0  0  0  0 
 27 28  1  0  0  0  0 
 28 29  1  0  0  0  0 
 29 30  2  0  0  0  0 
 29 31  1  0  0  0  0 
 31 32  2  0  0  0  0 
 31 33  1  0  0  0  0 
 32 34  1  0  0  0  0 
 33 35  2  0  0  0  0 
 34 36  1  0  0  0  0 
 34 37  2  0  0  0  0 
 35 37  1  0  0  0  0 
 35 38  1  0  0  0  0 
 36 39  1  0  0  0  0 
 37 40  1  0  0  0  0 
 38 41  1  0  0  0  0 
 40 42  1  0  0  0  0 
  2 43  1  0  0  0  0 
  2 44  1  0  0  0  0 
  2 45  1  0  0  0  0 
  7 46  1  0  0  0  0 
  9 47  1  0  0  0  0 
 10 48  1  0  0  0  0 
 10 49  1  0  0  0  0 
 10 50  1  0  0  0  0 
 12 51  1  0  0  0  0 
 12 52  1  0  0  0  0 
 12 53  1  0  0  0  0 
 16 54  1  0  0  0  0 
 16 55  1  0  0  0  0 
 17 56  1  0  0  0  0 
 17 57  1  0  0  0  0 
 18 58  1  0  0  0  0 
 18 59  1  0  0  0  0 
 20 60  1  0  0  0  0 
 20 61  1  0  0  0  0 
 21 62  1  0  0  0  0 
 21 63  1  0  0  0  0 
 21 64  1  0  0  0  0 
 22 65  1  0  0  0  0 
 22 66  1  0  0  0  0 
 24 67  1  0  0  0  0 
 24 68  1  0  0  0  0 
 25 69  1  0  0  0  0 
 25 70  1  0  0  0  0 
 25 71  1  0  0  0  0 
 26 72  1  0  0  0  0 
 26 73  1  0  0  0  0 
 27 74  1  0  0  0  0 
 27 75  1  0  0  0  0 
 32 76  1  0  0  0  0 
 33 77  1  0  0  0  0 
 39 78  1  0  0  0  0 
 39 79  1  0  0  0  0 
 39 80  1  0  0  0  0 
 41 81  1  0  0  0  0 
 41 82  1  0  0  0  0 
 41 83  1  0  0  0  0 
 42 84  1  0  0  0  0 
 42 85  1  0  0  0  0 
 42 86  1  0  0  0  0 
M  END
> <cdk:Title>
hexobendine

> <Conformer>
1

> <SuperDrugID>
SD001216

$$$$
