hematoporphyrin
  CDK     0628171801

 82 86  0  0  0  0  0  0  0  0999 V2000
    3.7166   -1.3165   -3.2225 C   0  0  1  0  0  0  0  0  0  0  0  0
    4.6639   -2.5001   -2.8856 C   0  0  2  0  0  0  0  0  0  0  0  0
    2.5085   -1.7634   -3.9771 C   0  0  0  0  0  0  0  0  0  0  0  0
    5.9183   -2.0438   -2.2559 C   0  0  0  0  0  0  0  0  0  0  0  0
    1.2811   -2.1842   -3.4384 C   0  0  0  0  0  0  0  0  0  0  0  0
    2.3902   -1.8565   -5.3700 C   0  0  0  0  0  0  0  0  0  0  0  0
    7.1118   -2.2484   -2.8604 O   0  0  0  0  0  0  0  0  0  0  0  0
    5.9033   -1.4547   -1.1517 O   0  0  0  0  0  0  0  0  0  0  0  0
    0.9732   -2.2596   -2.0688 C   0  0  0  0  0  0  0  0  0  0  0  0
    0.4702   -2.4940   -4.4655 N   0  0  0  0  0  0  0  0  0  0  0  0
    3.4330   -1.5602   -6.3847 C   0  0  0  0  0  0  0  0  0  0  0  0
    1.0918   -2.3102   -5.6432 C   0  0  0  0  0  0  0  0  0  0  0  0
   -0.2457   -2.6340   -1.4740 C   0  0  0  0  0  0  0  0  0  0  0  0
    0.5563   -2.5333   -6.9251 C   0  0  0  0  0  0  0  0  0  0  0  0
   -0.5250   -2.6099   -0.0967 C   0  0  0  0  0  0  0  0  0  0  0  0
   -1.3545   -3.0586   -2.1072 N   0  0  0  0  0  0  0  0  0  0  0  0
   -0.7217   -3.0360   -7.2335 C   0  0  0  0  0  0  0  0  0  0  0  0
    0.3790   -2.1532    1.0018 C   0  0  2  0  0  0  0  0  0  0  0  0
   -1.8453   -3.0526    0.0537 C   0  0  0  0  0  0  0  0  0  0  0  0
   -2.3357   -3.3291   -1.2290 C   0  0  0  0  0  0  0  0  0  0  0  0
   -1.2059   -3.2952   -8.5224 C   0  0  0  0  0  0  0  0  0  0  0  0
   -1.6822   -3.3574   -6.3448 N   0  0  0  0  0  0  0  0  0  0  0  0
    0.1683   -0.6588    1.3683 C   0  0  2  0  0  0  0  0  0  0  0  0
   -2.6178   -3.1932    1.3132 C   0  0  0  0  0  0  0  0  0  0  0  0
   -3.6306   -3.7977   -1.5135 C   0  0  0  0  0  0  0  0  0  0  0  0
   -0.4671   -3.1241   -9.8128 C   0  0  2  0  0  0  0  0  0  0  0  0
   -2.5206   -3.7420   -8.3576 C   0  0  0  0  0  0  0  0  0  0  0  0
   -2.8290   -3.8279   -6.9527 C   0  0  0  0  0  0  0  0  0  0  0  0
    0.5420    0.2847    0.2955 C   0  0  0  0  0  0  0  0  0  0  0  0
   -4.1790   -4.0639   -2.7817 C   0  0  0  0  0  0  0  0  0  0  0  0
   -0.5868   -1.6875  -10.3737 C   0  0  0  0  0  0  0  0  0  0  0  0
   -0.8867   -4.0607  -10.8052 O   0  0  0  0  0  0  0  0  0  0  0  0
   -3.4619   -4.0857   -9.4501 C   0  0  0  0  0  0  0  0  0  0  0  0
   -4.0724   -4.3044   -6.3201 C   0  0  0  0  0  0  0  0  0  0  0  0
   -0.4051    0.9910   -0.3644 O   0  0  0  0  0  0  0  0  0  0  0  0
    1.7422    0.4534   -0.0173 O   0  0  0  0  0  0  0  0  0  0  0  0
   -3.5506   -3.9399   -3.9658 N   0  0  0  0  0  0  0  0  0  0  0  0
   -5.4895   -4.5090   -3.0093 C   0  0  0  0  0  0  0  0  0  0  0  0
   -4.3904   -4.3049   -4.9521 C   0  0  0  0  0  0  0  0  0  0  0  0
   -6.4973   -4.7509   -1.9426 C   0  0  0  0  0  0  0  0  0  0  0  0
   -5.6296   -4.6720   -4.3939 C   0  0  0  0  0  0  0  0  0  0  0  0
   -6.8550   -5.1376   -5.1183 C   0  0  2  0  0  0  0  0  0  0  0  0
   -6.7596   -6.6299   -5.5123 C   0  0  0  0  0  0  0  0  0  0  0  0
   -7.1264   -4.3273   -6.2607 O   0  0  0  0  0  0  0  0  0  0  0  0
    3.4226   -0.8091   -2.3017 H   0  0  0  0  0  0  0  0  0  0  0  0
    4.2568   -0.5635   -3.7990 H   0  0  0  0  0  0  0  0  0  0  0  0
    4.9057   -3.0467   -3.8009 H   0  0  0  0  0  0  0  0  0  0  0  0
    4.1649   -3.1961   -2.2059 H   0  0  0  0  0  0  0  0  0  0  0  0
    7.9398   -1.9321   -2.4404 H   0  0  0  0  0  0  0  0  0  0  0  0
    1.7233   -2.0054   -1.4334 H   0  0  0  0  0  0  0  0  0  0  0  0
   -0.4399   -2.8090   -4.3736 H   0  0  0  0  0  0  0  0  0  0  0  0
    3.0790   -0.7803   -7.0604 H   0  0  0  0  0  0  0  0  0  0  0  0
    3.6407   -2.4626   -6.9612 H   0  0  0  0  0  0  0  0  0  0  0  0
    4.3718   -1.2258   -5.9462 H   0  0  0  0  0  0  0  0  0  0  0  0
    1.1641   -2.3102   -7.7122 H   0  0  0  0  0  0  0  0  0  0  0  0
   -1.4382   -3.1586   -3.0652 H   0  0  0  0  0  0  0  0  0  0  0  0
    1.4268   -2.3259    0.7543 H   0  0  0  0  0  0  0  0  0  0  0  0
    0.2036   -2.7562    1.8932 H   0  0  0  0  0  0  0  0  0  0  0  0
    0.7658   -0.4201    2.2514 H   0  0  0  0  0  0  0  0  0  0  0  0
   -0.8792   -0.5027    1.6357 H   0  0  0  0  0  0  0  0  0  0  0  0
   -2.0423   -2.9268    2.1972 H   0  0  0  0  0  0  0  0  0  0  0  0
   -3.4892   -2.5374    1.2729 H   0  0  0  0  0  0  0  0  0  0  0  0
   -2.9528   -4.2269    1.4247 H   0  0  0  0  0  0  0  0  0  0  0  0
   -4.2423   -3.9610   -0.7119 H   0  0  0  0  0  0  0  0  0  0  0  0
    0.5893   -3.3484   -9.6558 H   0  0  0  0  0  0  0  0  0  0  0  0
    0.0017   -1.6056  -11.2891 H   0  0  0  0  0  0  0  0  0  0  0  0
   -0.2103   -0.9562   -9.6559 H   0  0  0  0  0  0  0  0  0  0  0  0
   -1.6262   -1.4493  -10.6071 H   0  0  0  0  0  0  0  0  0  0  0  0
   -0.3529   -3.8514  -11.6002 H   0  0  0  0  0  0  0  0  0  0  0  0
   -4.5019   -4.0265   -9.1318 H   0  0  0  0  0  0  0  0  0  0  0  0
   -3.3536   -3.3913  -10.2832 H   0  0  0  0  0  0  0  0  0  0  0  0
   -3.2572   -5.1006   -9.7951 H   0  0  0  0  0  0  0  0  0  0  0  0
   -4.7759   -4.6657   -6.9576 H   0  0  0  0  0  0  0  0  0  0  0  0
   -0.1479    1.6163   -1.0746 H   0  0  0  0  0  0  0  0  0  0  0  0
   -6.1151   -5.4935   -1.2395 H   0  0  0  0  0  0  0  0  0  0  0  0
   -7.4477   -5.1193   -2.3154 H   0  0  0  0  0  0  0  0  0  0  0  0
   -6.6893   -3.8186   -1.4075 H   0  0  0  0  0  0  0  0  0  0  0  0
   -7.7403   -5.0248   -4.4927 H   0  0  0  0  0  0  0  0  0  0  0  0
   -7.6796   -6.9393   -6.0095 H   0  0  0  0  0  0  0  0  0  0  0  0
   -6.6265   -7.2489   -4.6219 H   0  0  0  0  0  0  0  0  0  0  0  0
   -5.9247   -6.8080   -6.1913 H   0  0  0  0  0  0  0  0  0  0  0  0
   -7.9626   -4.6793   -6.6335 H   0  0  0  0  0  0  0  0  0  0  0  0
  1  2  1  0  0  0  0 
  1  3  1  0  0  0  0 
  2  4  1  0  0  0  0 
  3  5  2  0  0  0  0 
  3  6  1  0  0  0  0 
  4  7  1  0  0  0  0 
  4  8  2  0  0  0  0 
  5  9  1  0  0  0  0 
  5 10  1  0  0  0  0 
  6 11  1  0  0  0  0 
  6 12  2  0  0  0  0 
  9 13  2  0  0  0  0 
 10 12  1  0  0  0  0 
 12 14  1  0  0  0  0 
 13 15  1  0  0  0  0 
 13 16  1  0  0  0  0 
 14 17  2  0  0  0  0 
 15 18  1  0  0  0  0 
 15 19  2  0  0  0  0 
 16 20  1  0  0  0  0 
 17 21  1  0  0  0  0 
 17 22  1  0  0  0  0 
 18 23  1  0  0  0  0 
 19 20  1  0  0  0  0 
 19 24  1  0  0  0  0 
 20 25  2  0  0  0  0 
 21 26  1  0  0  0  0 
 21 27  2  0  0  0  0 
 22 28  2  0  0  0  0 
 23 29  1  0  0  0  0 
 25 30  1  0  0  0  0 
 26 31  1  0  0  0  0 
 26 32  1  0  0  0  0 
 27 28  1  0  0  0  0 
 27 33  1  0  0  0  0 
 28 34  1  0  0  0  0 
 29 35  1  0  0  0  0 
 29 36  2  0  0  0  0 
 30 37  2  0  0  0  0 
 30 38  1  0  0  0  0 
 34 39  2  0  0  0  0 
 37 39  1  0  0  0  0 
 38 40  1  0  0  0  0 
 38 41  2  0  0  0  0 
 39 41  1  0  0  0  0 
 41 42  1  0  0  0  0 
 42 43  1  0  0  0  0 
 42 44  1  0  0  0  0 
 45  1  1  0  0  0  0 
 46  1  1  0  0  0  0 
 47  2  1  0  0  0  0 
 48  2  1  0  0  0  0 
 49  7  1  0  0  0  0 
 50  9  1  0  0  0  0 
 51 10  1  0  0  0  0 
 52 11  1  0  0  0  0 
 53 11  1  0  0  0  0 
 54 11  1  0  0  0  0 
 55 14  1  0  0  0  0 
 56 16  1  0  0  0  0 
 57 18  1  0  0  0  0 
 58 18  1  0  0  0  0 
 59 23  1  0  0  0  0 
 60 23  1  0  0  0  0 
 61 24  1  0  0  0  0 
 62 24  1  0  0  0  0 
 63 24  1  0  0  0  0 
 64 25  1  0  0  0  0 
 65 26  1  0  0  0  0 
 66 31  1  0  0  0  0 
 67 31  1  0  0  0  0 
 68 31  1  0  0  0  0 
 69 32  1  0  0  0  0 
 70 33  1  0  0  0  0 
 71 33  1  0  0  0  0 
 72 33  1  0  0  0  0 
 73 34  1  0  0  0  0 
 74 35  1  0  0  0  0 
 75 40  1  0  0  0  0 
 76 40  1  0  0  0  0 
 77 40  1  0  0  0  0 
 78 42  1  0  0  0  0 
 79 43  1  0  0  0  0 
 80 43  1  0  0  0  0 
 81 43  1  0  0  0  0 
 82 44  1  0  0  0  0 
M  END
> <cdk:Title>
hematoporphyrin

> <Conformer>
1

> <SuperDrugID>
SD002829

$$$$
