vinpocetine
  CDK     0628171801

 52 56  0  0  0  0  0  0  0  0999 V2000
   -4.0500    4.1503    1.7670 C   0  0  1  0  0  0  0  0  0  0  0  0
   -5.2911    3.3577    1.2780 C   0  0  0  0  0  0  0  0  0  0  0  0
   -2.9173    4.4707    0.7106 C   0  0  1  0  0  0  0  0  0  0  0  0
   -1.7588    5.2814    1.4351 C   0  0  1  0  0  0  0  0  0  0  0  0
   -2.4491    3.1639    0.1947 C   0  0  0  0  0  0  0  0  0  0  0  0
   -3.4906    5.3716   -0.4442 C   0  0  1  0  0  0  0  0  0  0  0  0
   -0.7787    4.3487    2.0099 C   0  0  0  0  0  0  0  0  0  0  0  0
   -0.8463    6.1716    0.6438 N   0  0  2  0  0  0  0  0  0  0  0  0
   -1.4095    2.4760    0.7298 C   0  0  0  0  0  0  0  0  0  0  0  0
   -2.3938    6.0268   -1.3205 C   0  0  2  0  0  0  0  0  0  0  0  0
   -0.6854    3.0312    1.7436 N   0  0  0  0  0  0  0  0  0  0  0  0
    0.2971    4.7976    2.7544 C   0  0  0  0  0  0  0  0  0  0  0  0
    0.1196    6.9680    1.5074 C   0  0  1  0  0  0  0  0  0  0  0  0
   -1.4799    6.9342   -0.4628 C   0  0  1  0  0  0  0  0  0  0  0  0
   -1.0206    1.2928    0.1079 C   0  0  0  0  0  0  0  0  0  0  0  0
    0.2934    2.5591    2.5676 C   0  0  0  0  0  0  0  0  0  0  0  0
    0.9321    3.6455    3.1928 C   0  0  0  0  0  0  0  0  0  0  0  0
    0.6182    6.2392    2.8150 C   0  0  2  0  0  0  0  0  0  0  0  0
    0.3066    1.0959   -0.1396 O   0  0  0  0  0  0  0  0  0  0  0  0
   -1.8678    0.4478   -0.2725 O   0  0  0  0  0  0  0  0  0  0  0  0
    0.7359    1.2474    2.8467 C   0  0  0  0  0  0  0  0  0  0  0  0
    2.0179    3.4730    4.0696 C   0  0  0  0  0  0  0  0  0  0  0  0
    0.8987    0.0127   -0.8627 C   0  0  1  0  0  0  0  0  0  0  0  0
    1.8224    1.0563    3.7271 C   0  0  0  0  0  0  0  0  0  0  0  0
    2.4583    2.1613    4.3359 C   0  0  0  0  0  0  0  0  0  0  0  0
    2.4279    0.1221   -0.7474 C   0  0  0  0  0  0  0  0  0  0  0  0
   -2.1996    5.8859    2.2387 H   0  0  0  0  0  0  0  0  0  0  0  0
   -4.4222    5.0877    2.1899 H   0  0  0  0  0  0  0  0  0  0  0  0
   -3.6157    3.5864    2.5989 H   0  0  0  0  0  0  0  0  0  0  0  0
   -6.0093    3.2611    2.0959 H   0  0  0  0  0  0  0  0  0  0  0  0
   -5.0090    2.3531    0.9554 H   0  0  0  0  0  0  0  0  0  0  0  0
   -5.7838    3.8735    0.4523 H   0  0  0  0  0  0  0  0  0  0  0  0
   -2.9452    2.7788   -0.5805 H   0  0  0  0  0  0  0  0  0  0  0  0
   -4.1451    4.7932   -1.1026 H   0  0  0  0  0  0  0  0  0  0  0  0
   -4.1036    6.1741   -0.0208 H   0  0  0  0  0  0  0  0  0  0  0  0
   -2.8640    6.6292   -2.1031 H   0  0  0  0  0  0  0  0  0  0  0  0
   -1.7943    5.2527   -1.8068 H   0  0  0  0  0  0  0  0  0  0  0  0
    0.9918    7.2046    0.8924 H   0  0  0  0  0  0  0  0  0  0  0  0
   -0.3403    7.9153    1.8030 H   0  0  0  0  0  0  0  0  0  0  0  0
   -2.0628    7.7708   -0.0628 H   0  0  0  0  0  0  0  0  0  0  0  0
   -0.6985    7.3426   -1.1109 H   0  0  0  0  0  0  0  0  0  0  0  0
    1.6960    6.3758    2.9371 H   0  0  0  0  0  0  0  0  0  0  0  0
    0.1163    6.6614    3.6892 H   0  0  0  0  0  0  0  0  0  0  0  0
    0.2748    0.4363    2.4325 H   0  0  0  0  0  0  0  0  0  0  0  0
    2.4725    4.2767    4.5114 H   0  0  0  0  0  0  0  0  0  0  0  0
    0.5619   -0.9457   -0.4586 H   0  0  0  0  0  0  0  0  0  0  0  0
    0.6066    0.0779   -1.9117 H   0  0  0  0  0  0  0  0  0  0  0  0
    2.1514    0.1089    3.9259 H   0  0  0  0  0  0  0  0  0  0  0  0
    3.2394    2.0072    4.9792 H   0  0  0  0  0  0  0  0  0  0  0  0
    2.8990   -0.6675   -1.3335 H   0  0  0  0  0  0  0  0  0  0  0  0
    2.7618    1.0910   -1.1253 H   0  0  0  0  0  0  0  0  0  0  0  0
    2.7333    0.0240    0.2971 H   0  0  0  0  0  0  0  0  0  0  0  0
  1  2  1  0  0  0  0 
  3  1  1  0  0  0  0 
  4  3  1  0  0  0  0 
  3  5  1  0  0  0  0 
  3  6  1  0  0  0  0 
  4  7  1  0  0  0  0 
  4  8  1  0  0  0  0 
  4 27  1  0  0  0  0 
  5  9  2  0  0  0  0 
  6 10  1  0  0  0  0 
  7 11  1  0  0  0  0 
  7 12  2  0  0  0  0 
  8 13  1  0  0  0  0 
  8 14  1  0  0  0  0 
  9 11  1  0  0  0  0 
  9 15  1  0  0  0  0 
 10 14  1  0  0  0  0 
 11 16  1  0  0  0  0 
 12 17  1  0  0  0  0 
 12 18  1  0  0  0  0 
 13 18  1  0  0  0  0 
 15 19  1  0  0  0  0 
 15 20  2  0  0  0  0 
 16 17  1  0  0  0  0 
 16 21  2  0  0  0  0 
 17 22  2  0  0  0  0 
 19 23  1  0  0  0  0 
 21 24  1  0  0  0  0 
 22 25  1  0  0  0  0 
 23 26  1  0  0  0  0 
 24 25  2  0  0  0  0 
  1 28  1  0  0  0  0 
  1 29  1  0  0  0  0 
  2 30  1  0  0  0  0 
  2 31  1  0  0  0  0 
  2 32  1  0  0  0  0 
  5 33  1  0  0  0  0 
  6 34  1  0  0  0  0 
  6 35  1  0  0  0  0 
 10 36  1  0  0  0  0 
 10 37  1  0  0  0  0 
 13 38  1  0  0  0  0 
 13 39  1  0  0  0  0 
 14 40  1  0  0  0  0 
 14 41  1  0  0  0  0 
 18 42  1  0  0  0  0 
 18 43  1  0  0  0  0 
 21 44  1  0  0  0  0 
 22 45  1  0  0  0  0 
 23 46  1  0  0  0  0 
 23 47  1  0  0  0  0 
 24 48  1  0  0  0  0 
 25 49  1  0  0  0  0 
 26 50  1  0  0  0  0 
 26 51  1  0  0  0  0 
 26 52  1  0  0  0  0 
M  END
> <cdk:Title>
vinpocetine

> <Conformer>
1

> <SuperDrugID>
SD002551

$$$$
