mexiletine
  CDK     0628171801

 30 30  0  0  0  0  0  0  0  0999 V2000
   -1.8675    0.7292    0.1069 O   0  0  0  0  0  0  0  0  0  0  0  0
   -0.8588   -0.2968   -0.0167 C   0  0  1  0  0  0  0  0  0  0  0  0
   -3.0433    0.2824    0.6532 C   0  0  0  0  0  0  0  0  0  0  0  0
    0.4109    0.3040   -0.6654 C   0  0  1  0  0  0  0  0  0  0  0  0
   -4.0732   -0.2038   -0.1963 C   0  0  0  0  0  0  0  0  0  0  0  0
   -3.2352    0.3491    2.0605 C   0  0  0  0  0  0  0  0  0  0  0  0
    0.1486    0.8530   -2.0896 C   0  0  0  0  0  0  0  0  0  0  0  0
    0.9372    1.3709    0.1978 N   0  0  1  0  0  0  0  0  0  0  0  0
   -3.9266   -0.2276   -1.6746 C   0  0  0  0  0  0  0  0  0  0  0  0
   -5.2666   -0.6888    0.3872 C   0  0  0  0  0  0  0  0  0  0  0  0
   -2.2026    0.9102    2.9688 C   0  0  0  0  0  0  0  0  0  0  0  0
   -4.4419   -0.1445    2.6071 C   0  0  0  0  0  0  0  0  0  0  0  0
   -5.4460   -0.6704    1.7794 C   0  0  0  0  0  0  0  0  0  0  0  0
   -0.5912   -0.6972    0.9659 H   0  0  0  0  0  0  0  0  0  0  0  0
   -1.2128   -1.1263   -0.6368 H   0  0  0  0  0  0  0  0  0  0  0  0
    1.1680   -0.4811   -0.7293 H   0  0  0  0  0  0  0  0  0  0  0  0
    1.0777    1.2171   -2.5274 H   0  0  0  0  0  0  0  0  0  0  0  0
   -0.2502    0.0659   -2.7318 H   0  0  0  0  0  0  0  0  0  0  0  0
   -0.5673    1.6762   -2.0615 H   0  0  0  0  0  0  0  0  0  0  0  0
    1.1379    0.9486    1.1076 H   0  0  0  0  0  0  0  0  0  0  0  0
    1.8302    1.6702   -0.1981 H   0  0  0  0  0  0  0  0  0  0  0  0
   -4.8990   -0.1544   -2.1662 H   0  0  0  0  0  0  0  0  0  0  0  0
   -3.3173    0.6060   -2.0312 H   0  0  0  0  0  0  0  0  0  0  0  0
   -3.4536   -1.1644   -1.9727 H   0  0  0  0  0  0  0  0  0  0  0  0
   -6.0175   -1.0609   -0.1991 H   0  0  0  0  0  0  0  0  0  0  0  0
   -1.5116    0.1176    3.2597 H   0  0  0  0  0  0  0  0  0  0  0  0
   -2.6583    1.3258    3.8701 H   0  0  0  0  0  0  0  0  0  0  0  0
   -1.6383    1.7130    2.4887 H   0  0  0  0  0  0  0  0  0  0  0  0
   -4.6000   -0.1249    3.6177 H   0  0  0  0  0  0  0  0  0  0  0  0
   -6.3093   -1.0364    2.1897 H   0  0  0  0  0  0  0  0  0  0  0  0
  1  2  1  0  0  0  0 
  1  3  1  0  0  0  0 
  4  2  1  0  0  0  0 
  3  5  2  0  0  0  0 
  3  6  1  0  0  0  0 
  4  7  1  0  0  0  0 
  4  8  1  0  0  0  0 
  5  9  1  0  0  0  0 
  5 10  1  0  0  0  0 
  6 11  1  0  0  0  0 
  6 12  2  0  0  0  0 
 10 13  2  0  0  0  0 
 12 13  1  0  0  0  0 
  2 14  1  0  0  0  0 
  2 15  1  0  0  0  0 
  4 16  1  0  0  0  0 
  7 17  1  0  0  0  0 
  7 18  1  0  0  0  0 
  7 19  1  0  0  0  0 
  8 20  1  0  0  0  0 
  8 21  1  0  0  0  0 
  9 22  1  0  0  0  0 
  9 23  1  0  0  0  0 
  9 24  1  0  0  0  0 
 10 25  1  0  0  0  0 
 11 26  1  0  0  0  0 
 11 27  1  0  0  0  0 
 11 28  1  0  0  0  0 
 12 29  1  0  0  0  0 
 13 30  1  0  0  0  0 
M  END
> <cdk:Title>
mexiletine

> <Conformer>
1

> <SuperDrugID>
SD001594

$$$$
