clomifene
  CDK     0628171802

 57 59  0  0  0  0  0  0  0  0999 V2000
    4.6377    5.4235   -2.2892 C   0  0  0  0  0  0  0  0  0  0  0  0
    4.5015    4.1020   -2.7499 C   0  0  0  0  0  0  0  0  0  0  0  0
    5.1584    3.0521   -2.0821 C   0  0  0  0  0  0  0  0  0  0  0  0
    5.9507    3.3117   -0.9377 C   0  0  0  0  0  0  0  0  0  0  0  0
    6.0854    4.6491   -0.4892 C   0  0  0  0  0  0  0  0  0  0  0  0
    5.4328    5.6979   -1.1627 C   0  0  0  0  0  0  0  0  0  0  0  0
    6.5844    2.2678   -0.2695 C   0  0  0  0  0  0  0  0  0  0  0  0
    5.9262    1.2486    0.3456 C   0  0  0  0  0  0  0  0  0  0  0  0
    8.2581    2.3667   -0.3001 Cl  0  0  0  0  0  0  0  0  0  0  0  0
    6.6298    0.1943    0.9281 C   0  0  0  0  0  0  0  0  0  0  0  0
    4.5213    1.1839    0.4450 C   0  0  0  0  0  0  0  0  0  0  0  0
    3.7922    2.2303    1.0614 C   0  0  0  0  0  0  0  0  0  0  0  0
    2.3877    2.2010    1.1170 C   0  0  0  0  0  0  0  0  0  0  0  0
    1.6727    1.1069    0.5898 C   0  0  0  0  0  0  0  0  0  0  0  0
    2.3838    0.0375    0.0105 C   0  0  0  0  0  0  0  0  0  0  0  0
    3.7908    0.0797   -0.0674 C   0  0  0  0  0  0  0  0  0  0  0  0
    6.7574    0.1034    2.3342 C   0  0  0  0  0  0  0  0  0  0  0  0
    7.4356   -0.9816    2.9205 C   0  0  0  0  0  0  0  0  0  0  0  0
    7.9996   -1.9817    2.1080 C   0  0  0  0  0  0  0  0  0  0  0  0
    7.9106   -1.8812    0.7082 C   0  0  0  0  0  0  0  0  0  0  0  0
    7.2308   -0.7996    0.1196 C   0  0  0  0  0  0  0  0  0  0  0  0
    0.3014    1.1291    0.5762 O   0  0  0  0  0  0  0  0  0  0  0  0
   -0.3489    0.8061    1.8252 C   0  0  1  0  0  0  0  0  0  0  0  0
   -1.7890    1.3777    1.7669 C   0  0  2  0  0  0  0  0  0  0  0  0
   -2.6624    1.1187    2.9635 N   0  0  1  0  0  0  0  0  0  0  0  0
   -2.1437    1.6752    4.2633 C   0  0  1  0  0  0  0  0  0  0  0  0
   -4.1074    1.4472    2.7007 C   0  0  1  0  0  0  0  0  0  0  0  0
   -1.6730    0.5264    5.1815 C   0  0  0  0  0  0  0  0  0  0  0  0
   -5.0918    0.7246    3.6514 C   0  0  0  0  0  0  0  0  0  0  0  0
    4.1606    6.1851   -2.7756 H   0  0  0  0  0  0  0  0  0  0  0  0
    3.9265    3.9014   -3.5712 H   0  0  0  0  0  0  0  0  0  0  0  0
    5.0570    2.0974   -2.4392 H   0  0  0  0  0  0  0  0  0  0  0  0
    6.6531    4.8695    0.3344 H   0  0  0  0  0  0  0  0  0  0  0  0
    5.5375    6.6595   -0.8324 H   0  0  0  0  0  0  0  0  0  0  0  0
    4.2786    3.0299    1.4735 H   0  0  0  0  0  0  0  0  0  0  0  0
    1.8854    2.9859    1.5381 H   0  0  0  0  0  0  0  0  0  0  0  0
    1.8786   -0.7665   -0.3681 H   0  0  0  0  0  0  0  0  0  0  0  0
    4.2784   -0.7029   -0.5122 H   0  0  0  0  0  0  0  0  0  0  0  0
    6.3610    0.8265    2.9401 H   0  0  0  0  0  0  0  0  0  0  0  0
    7.5186   -1.0422    3.9381 H   0  0  0  0  0  0  0  0  0  0  0  0
    8.4751   -2.7791    2.5342 H   0  0  0  0  0  0  0  0  0  0  0  0
    8.3381   -2.5955    0.1164 H   0  0  0  0  0  0  0  0  0  0  0  0
    7.1772   -0.7439   -0.9012 H   0  0  0  0  0  0  0  0  0  0  0  0
   -0.3872   -0.2794    1.9489 H   0  0  0  0  0  0  0  0  0  0  0  0
    0.1782    1.2434    2.6770 H   0  0  0  0  0  0  0  0  0  0  0  0
   -2.2559    0.9311    0.8831 H   0  0  0  0  0  0  0  0  0  0  0  0
   -1.7259    2.4579    1.5989 H   0  0  0  0  0  0  0  0  0  0  0  0
   -1.3184    2.3743    4.1064 H   0  0  0  0  0  0  0  0  0  0  0  0
   -2.9007    2.2452    4.8106 H   0  0  0  0  0  0  0  0  0  0  0  0
   -4.2697    2.5288    2.7671 H   0  0  0  0  0  0  0  0  0  0  0  0
   -4.3929    1.1415    1.6902 H   0  0  0  0  0  0  0  0  0  0  0  0
   -1.2923    0.9350    6.1189 H   0  0  0  0  0  0  0  0  0  0  0  0
   -0.8798   -0.0531    4.7066 H   0  0  0  0  0  0  0  0  0  0  0  0
   -2.5060   -0.1423    5.4073 H   0  0  0  0  0  0  0  0  0  0  0  0
   -6.1177    0.9819    3.3768 H   0  0  0  0  0  0  0  0  0  0  0  0
   -4.9340    1.0183    4.6903 H   0  0  0  0  0  0  0  0  0  0  0  0
   -4.9683   -0.3578    3.5681 H   0  0  0  0  0  0  0  0  0  0  0  0
  1  2  2  0  0  0  0 
  2  3  1  0  0  0  0 
  3  4  2  0  0  0  0 
  4  5  1  0  0  0  0 
  5  6  2  0  0  0  0 
  1  6  1  0  0  0  0 
  4  7  1  0  0  0  0 
  7  9  1  0  0  0  0 
  8 10  1  0  0  0  0 
  8 11  1  0  0  0  0 
 12 13  1  0  0  0  0 
 13 14  2  0  0  0  0 
 14 15  1  0  0  0  0 
 15 16  2  0  0  0  0 
 11 12  2  0  0  0  0 
 11 16  1  0  0  0  0 
 17 18  1  0  0  0  0 
 18 19  2  0  0  0  0 
 19 20  1  0  0  0  0 
 20 21  2  0  0  0  0 
 10 17  2  0  0  0  0 
 10 21  1  0  0  0  0 
 14 22  1  0  0  0  0 
 22 23  1  0  0  0  0 
 23 24  1  0  0  0  0 
 24 25  1  0  0  0  0 
 25 26  1  0  0  0  0 
 25 27  1  0  0  0  0 
 26 28  1  0  0  0  0 
 27 29  1  0  0  0  0 
  7  8  2  0  0  0  0 
  1 30  1  0  0  0  0 
  2 31  1  0  0  0  0 
  3 32  1  0  0  0  0 
  5 33  1  0  0  0  0 
  6 34  1  0  0  0  0 
 12 35  1  0  0  0  0 
 13 36  1  0  0  0  0 
 15 37  1  0  0  0  0 
 16 38  1  0  0  0  0 
 17 39  1  0  0  0  0 
 18 40  1  0  0  0  0 
 19 41  1  0  0  0  0 
 20 42  1  0  0  0  0 
 21 43  1  0  0  0  0 
 23 44  1  0  0  0  0 
 23 45  1  0  0  0  0 
 24 46  1  0  0  0  0 
 24 47  1  0  0  0  0 
 26 48  1  0  0  0  0 
 26 49  1  0  0  0  0 
 27 50  1  0  0  0  0 
 27 51  1  0  0  0  0 
 28 52  1  0  0  0  0 
 28 53  1  0  0  0  0 
 28 54  1  0  0  0  0 
 29 55  1  0  0  0  0 
 29 56  1  0  0  0  0 
 29 57  1  0  0  0  0 
M  END
> <cdk:Title>
clomifene

> <Conformer>
1

> <SuperDrugID>
SD000617

$$$$
