donepezil
  CDK     0628171802

 57 60  0  0  0  0  0  0  0  0999 V2000
   -5.0971   -4.3110    3.7071 O   0  0  0  0  0  0  0  0  0  0  0  0
   -6.0325   -3.9107    2.9771 C   0  0  0  0  0  0  0  0  0  0  0  0
   -7.3673   -3.9692    3.3356 C   0  0  0  0  0  0  0  0  0  0  0  0
   -5.8637   -3.3813    1.6095 C   0  0  2  0  0  0  0  0  0  0  0  0
   -8.1593   -3.6117    2.2500 C   0  0  0  0  0  0  0  0  0  0  0  0
   -7.9335   -4.3386    4.5657 C   0  0  0  0  0  0  0  0  0  0  0  0
   -5.0777   -2.0278    1.5644 C   0  0  2  0  0  0  0  0  0  0  0  0
   -7.3345   -3.2579    1.0889 C   0  0  2  0  0  0  0  0  0  0  0  0
   -9.5633   -3.6379    2.3546 C   0  0  0  0  0  0  0  0  0  0  0  0
   -9.3384   -4.3607    4.6893 C   0  0  0  0  0  0  0  0  0  0  0  0
   -3.5973   -2.0356    2.0851 C   0  0  2  0  0  0  0  0  0  0  0  0
  -10.1558   -3.9997    3.5869 C   0  0  0  0  0  0  0  0  0  0  0  0
   -9.9017   -4.7113    5.8875 O   0  0  0  0  0  0  0  0  0  0  0  0
   -2.9671   -0.6046    1.9864 C   0  0  2  0  0  0  0  0  0  0  0  0
   -2.7295   -3.1128    1.3627 C   0  0  1  0  0  0  0  0  0  0  0  0
  -11.5216   -4.0343    3.6983 O   0  0  0  0  0  0  0  0  0  0  0  0
  -10.0014   -6.1357    6.0673 C   0  0  0  0  0  0  0  0  0  0  0  0
   -1.4256   -0.5821    2.2027 C   0  0  1  0  0  0  0  0  0  0  0  0
   -1.2216   -2.9697    1.6838 C   0  0  1  0  0  0  0  0  0  0  0  0
  -12.0926   -2.7588    4.0399 C   0  0  0  0  0  0  0  0  0  0  0  0
   -0.7019   -1.6010    1.3783 N   0  0  1  0  0  0  0  0  0  0  0  0
   -0.5828   -1.2291   -0.0739 C   0  0  1  0  0  0  0  0  0  0  0  0
    0.1171   -2.2382   -0.9155 C   0  0  0  0  0  0  0  0  0  0  0  0
    1.4802   -2.5450   -0.6893 C   0  0  0  0  0  0  0  0  0  0  0  0
   -0.5778   -2.9356   -1.9347 C   0  0  0  0  0  0  0  0  0  0  0  0
    2.1208   -3.5435   -1.4478 C   0  0  0  0  0  0  0  0  0  0  0  0
    0.0641   -3.9343   -2.6877 C   0  0  0  0  0  0  0  0  0  0  0  0
    1.4131   -4.2424   -2.4424 C   0  0  0  0  0  0  0  0  0  0  0  0
   -5.3472   -4.1342    1.0056 H   0  0  0  0  0  0  0  0  0  0  0  0
   -7.3355   -4.5913    5.3541 H   0  0  0  0  0  0  0  0  0  0  0  0
   -5.6356   -1.2846    2.1439 H   0  0  0  0  0  0  0  0  0  0  0  0
   -5.0706   -1.6904    0.5224 H   0  0  0  0  0  0  0  0  0  0  0  0
   -7.5187   -3.9674    0.2766 H   0  0  0  0  0  0  0  0  0  0  0  0
   -7.5791   -2.2473    0.7460 H   0  0  0  0  0  0  0  0  0  0  0  0
  -10.1433   -3.3991    1.5467 H   0  0  0  0  0  0  0  0  0  0  0  0
   -3.6054   -2.2850    3.1512 H   0  0  0  0  0  0  0  0  0  0  0  0
   -3.4265    0.0405    2.7407 H   0  0  0  0  0  0  0  0  0  0  0  0
   -3.1931   -0.1661    1.0122 H   0  0  0  0  0  0  0  0  0  0  0  0
   -3.0437   -4.1106    1.6814 H   0  0  0  0  0  0  0  0  0  0  0  0
   -2.8774   -3.0422    0.2832 H   0  0  0  0  0  0  0  0  0  0  0  0
  -10.4536   -6.3262    7.0410 H   0  0  0  0  0  0  0  0  0  0  0  0
  -10.6370   -6.5853    5.3007 H   0  0  0  0  0  0  0  0  0  0  0  0
   -9.0187   -6.6154    6.0522 H   0  0  0  0  0  0  0  0  0  0  0  0
   -1.0438    0.4198    1.9854 H   0  0  0  0  0  0  0  0  0  0  0  0
   -1.2142   -0.7717    3.2602 H   0  0  0  0  0  0  0  0  0  0  0  0
   -1.0662   -3.1755    2.7470 H   0  0  0  0  0  0  0  0  0  0  0  0
   -0.6589   -3.7340    1.1459 H   0  0  0  0  0  0  0  0  0  0  0  0
  -13.1733   -2.8819    4.1061 H   0  0  0  0  0  0  0  0  0  0  0  0
  -11.7299   -2.4054    5.0082 H   0  0  0  0  0  0  0  0  0  0  0  0
  -11.8843   -2.0058    3.2753 H   0  0  0  0  0  0  0  0  0  0  0  0
   -1.5734   -1.0281   -0.4905 H   0  0  0  0  0  0  0  0  0  0  0  0
   -0.0221   -0.2942   -0.1495 H   0  0  0  0  0  0  0  0  0  0  0  0
    2.0119   -2.0472    0.0308 H   0  0  0  0  0  0  0  0  0  0  0  0
   -1.5605   -2.7295   -2.1321 H   0  0  0  0  0  0  0  0  0  0  0  0
    3.1026   -3.7637   -1.2742 H   0  0  0  0  0  0  0  0  0  0  0  0
   -0.4539   -4.4368   -3.4110 H   0  0  0  0  0  0  0  0  0  0  0  0
    1.8787   -4.9709   -2.9907 H   0  0  0  0  0  0  0  0  0  0  0  0
  1  2  2  0  0  0  0 
  2  3  1  0  0  0  0 
  4  2  1  0  0  0  0 
  3  5  2  0  0  0  0 
  3  6  1  0  0  0  0 
  4  7  1  0  0  0  0 
  4  8  1  0  0  0  0 
  5  8  1  0  0  0  0 
  5  9  1  0  0  0  0 
  6 10  2  0  0  0  0 
  7 11  1  0  0  0  0 
  9 12  2  0  0  0  0 
 10 12  1  0  0  0  0 
 10 13  1  0  0  0  0 
 11 14  1  0  0  0  0 
 11 15  1  0  0  0  0 
 12 16  1  0  0  0  0 
 13 17  1  0  0  0  0 
 14 18  1  0  0  0  0 
 15 19  1  0  0  0  0 
 16 20  1  0  0  0  0 
 18 21  1  0  0  0  0 
 19 21  1  0  0  0  0 
 21 22  1  0  0  0  0 
 22 23  1  0  0  0  0 
 23 24  2  0  0  0  0 
 23 25  1  0  0  0  0 
 24 26  1  0  0  0  0 
 25 27  2  0  0  0  0 
 26 28  2  0  0  0  0 
 27 28  1  0  0  0  0 
 29  4  1  0  0  0  0 
 30  6  1  0  0  0  0 
 31  7  1  0  0  0  0 
 32  7  1  0  0  0  0 
 33  8  1  0  0  0  0 
 34  8  1  0  0  0  0 
 35  9  1  0  0  0  0 
 36 11  1  0  0  0  0 
 37 14  1  0  0  0  0 
 38 14  1  0  0  0  0 
 39 15  1  0  0  0  0 
 40 15  1  0  0  0  0 
 41 17  1  0  0  0  0 
 42 17  1  0  0  0  0 
 43 17  1  0  0  0  0 
 44 18  1  0  0  0  0 
 45 18  1  0  0  0  0 
 46 19  1  0  0  0  0 
 47 19  1  0  0  0  0 
 48 20  1  0  0  0  0 
 49 20  1  0  0  0  0 
 50 20  1  0  0  0  0 
 51 22  1  0  0  0  0 
 52 22  1  0  0  0  0 
 53 24  1  0  0  0  0 
 54 25  1  0  0  0  0 
 55 26  1  0  0  0  0 
 56 27  1  0  0  0  0 
 57 28  1  0  0  0  0 
M  END
> <cdk:Title>
donepezil

> <Conformer>
1

> <SuperDrugID>
SD000840

$$$$
