methyl aminolevulinate
  CDK     0628171801

 21 20  0  0  0  0  0  0  0  0999 V2000
   -3.2170   -1.4831    7.6281 C   0  0  0  0  0  0  0  0  0  0  0  0
   -2.2753   -2.2595    6.8817 O   0  0  0  0  0  0  0  0  0  0  0  0
   -1.0312   -2.6365    7.3037 C   0  0  0  0  0  0  0  0  0  0  0  0
   -0.6258   -2.3564    8.4574 O   0  0  0  0  0  0  0  0  0  0  0  0
   -0.1562   -3.3965    6.3867 C   0  0  1  0  0  0  0  0  0  0  0  0
    1.1204   -2.6265    5.9572 C   0  0  1  0  0  0  0  0  0  0  0  0
    0.8290   -1.3891    5.1939 C   0  0  0  0  0  0  0  0  0  0  0  0
    0.9435   -0.2814    5.7681 O   0  0  0  0  0  0  0  0  0  0  0  0
    0.4746   -1.4020    3.7611 C   0  0  1  0  0  0  0  0  0  0  0  0
    1.6023   -0.8923    2.9741 N   0  0  2  0  0  0  0  0  0  0  0  0
   -2.7961   -0.5033    7.8589 H   0  0  0  0  0  0  0  0  0  0  0  0
   -4.1198   -1.3487    7.0332 H   0  0  0  0  0  0  0  0  0  0  0  0
   -3.4799   -1.9927    8.5554 H   0  0  0  0  0  0  0  0  0  0  0  0
    0.1433   -4.3194    6.8900 H   0  0  0  0  0  0  0  0  0  0  0  0
   -0.7212   -3.6802    5.4951 H   0  0  0  0  0  0  0  0  0  0  0  0
    1.7145   -2.3882    6.8462 H   0  0  0  0  0  0  0  0  0  0  0  0
    1.7325   -3.2826    5.3340 H   0  0  0  0  0  0  0  0  0  0  0  0
    0.2281   -2.4097    3.4204 H   0  0  0  0  0  0  0  0  0  0  0  0
   -0.3917   -0.7603    3.5923 H   0  0  0  0  0  0  0  0  0  0  0  0
    1.3368   -0.9432    1.9882 H   0  0  0  0  0  0  0  0  0  0  0  0
    2.3840   -1.5381    3.1075 H   0  0  0  0  0  0  0  0  0  0  0  0
  1  2  1  0  0  0  0 
  2  3  1  0  0  0  0 
  3  4  2  0  0  0  0 
  3  5  1  0  0  0  0 
  5  6  1  0  0  0  0 
  6  7  1  0  0  0  0 
  7  8  2  0  0  0  0 
  7  9  1  0  0  0  0 
  9 10  1  0  0  0  0 
  1 11  1  0  0  0  0 
  1 12  1  0  0  0  0 
  1 13  1  0  0  0  0 
  5 14  1  0  0  0  0 
  5 15  1  0  0  0  0 
  6 16  1  0  0  0  0 
  6 17  1  0  0  0  0 
  9 18  1  0  0  0  0 
  9 19  1  0  0  0  0 
 10 20  1  0  0  0  0 
 10 21  1  0  0  0  0 
M  END
> <cdk:Title>
methyl aminolevulinate

> <Conformer>
1

> <SuperDrugID>
SD000134

$$$$
