butorphanol
  CDK     0628171801

 53 57  0  0  0  0  0  0  0  0999 V2000
    1.3460    1.3055   -4.3010 O   0  0  0  0  0  0  0  0  0  0  0  0
    1.0097    2.2359   -3.2593 C   0  0  1  0  0  0  0  0  0  0  0  0
   -0.4174    2.8695   -3.5151 C   0  0  2  0  0  0  0  0  0  0  0  0
    0.9247    1.4203   -1.9266 C   0  0  2  0  0  0  0  0  0  0  0  0
    2.1445    3.3231   -3.2724 C   0  0  2  0  0  0  0  0  0  0  0  0
   -0.8484    3.7254   -2.3281 C   0  0  0  0  0  0  0  0  0  0  0  0
   -1.4578    1.7045   -3.6679 C   0  0  1  0  0  0  0  0  0  0  0  0
   -0.3330    3.6524   -4.8845 C   0  0  1  0  0  0  0  0  0  0  0  0
   -0.0643    0.2879   -2.0893 N   0  0  2  0  0  0  0  0  0  0  0  0
    0.6105    2.3600   -0.7203 C   0  0  2  0  0  0  0  0  0  0  0  0
    2.1416    4.1823   -4.5653 C   0  0  1  0  0  0  0  0  0  0  0  0
   -0.3368    3.4726   -1.0160 C   0  0  0  0  0  0  0  0  0  0  0  0
   -1.7946    4.7766   -2.4683 C   0  0  0  0  0  0  0  0  0  0  0  0
   -1.4510    0.7221   -2.4681 C   0  0  1  0  0  0  0  0  0  0  0  0
    0.7406    4.7710   -4.8689 C   0  0  2  0  0  0  0  0  0  0  0  0
   -0.0148   -0.7738   -1.0268 C   0  0  2  0  0  0  0  0  0  0  0  0
   -0.7109    4.3029    0.0656 C   0  0  0  0  0  0  0  0  0  0  0  0
   -2.1718    5.5911   -1.3860 C   0  0  0  0  0  0  0  0  0  0  0  0
   -0.4303   -2.1743   -1.5630 C   0  0  2  0  0  0  0  0  0  0  0  0
   -1.6148    5.3596   -0.1212 C   0  0  0  0  0  0  0  0  0  0  0  0
   -3.0656    6.6014   -1.5505 O   0  0  0  0  0  0  0  0  0  0  0  0
   -0.4559   -3.3309   -0.5398 C   0  0  2  0  0  0  0  0  0  0  0  0
    0.6174   -2.9455   -2.3965 C   0  0  1  0  0  0  0  0  0  0  0  0
    0.4345   -4.1675   -1.4764 C   0  0  2  0  0  0  0  0  0  0  0  0
    1.9119    0.9765   -1.7552 H   0  0  0  0  0  0  0  0  0  0  0  0
    2.2370    0.9651   -4.0772 H   0  0  0  0  0  0  0  0  0  0  0  0
    3.1195    2.8396   -3.1729 H   0  0  0  0  0  0  0  0  0  0  0  0
    2.0374    4.0044   -2.4273 H   0  0  0  0  0  0  0  0  0  0  0  0
   -2.4671    2.1075   -3.7926 H   0  0  0  0  0  0  0  0  0  0  0  0
   -1.2393    1.1245   -4.5697 H   0  0  0  0  0  0  0  0  0  0  0  0
   -0.0856    2.9626   -5.6991 H   0  0  0  0  0  0  0  0  0  0  0  0
   -1.2958    4.0823   -5.1616 H   0  0  0  0  0  0  0  0  0  0  0  0
    1.5462    2.8008   -0.3655 H   0  0  0  0  0  0  0  0  0  0  0  0
    0.2132    1.7618    0.1030 H   0  0  0  0  0  0  0  0  0  0  0  0
    2.8567    5.0006   -4.4538 H   0  0  0  0  0  0  0  0  0  0  0  0
    2.4741    3.5717   -5.4105 H   0  0  0  0  0  0  0  0  0  0  0  0
   -2.2314    4.9720   -3.3660 H   0  0  0  0  0  0  0  0  0  0  0  0
   -1.9549    1.1767   -1.6097 H   0  0  0  0  0  0  0  0  0  0  0  0
   -2.0519   -0.1346   -2.7706 H   0  0  0  0  0  0  0  0  0  0  0  0
    0.4877    5.5250   -4.1180 H   0  0  0  0  0  0  0  0  0  0  0  0
    0.7590    5.2711   -5.8411 H   0  0  0  0  0  0  0  0  0  0  0  0
   -0.6756   -0.5062   -0.1960 H   0  0  0  0  0  0  0  0  0  0  0  0
    0.9931   -0.8537   -0.6112 H   0  0  0  0  0  0  0  0  0  0  0  0
   -0.3324    4.1403    1.0035 H   0  0  0  0  0  0  0  0  0  0  0  0
   -1.3888   -2.1429   -2.0845 H   0  0  0  0  0  0  0  0  0  0  0  0
   -1.8702    5.9553    0.6692 H   0  0  0  0  0  0  0  0  0  0  0  0
   -3.4092    6.5177   -2.4660 H   0  0  0  0  0  0  0  0  0  0  0  0
   -1.4545   -3.7546   -0.3912 H   0  0  0  0  0  0  0  0  0  0  0  0
    0.0366   -3.0890    0.4066 H   0  0  0  0  0  0  0  0  0  0  0  0
    0.3085   -3.1256   -3.4291 H   0  0  0  0  0  0  0  0  0  0  0  0
    1.6283   -2.5308   -2.3363 H   0  0  0  0  0  0  0  0  0  0  0  0
   -0.1157   -4.9794   -1.9598 H   0  0  0  0  0  0  0  0  0  0  0  0
    1.3596   -4.5089   -1.0064 H   0  0  0  0  0  0  0  0  0  0  0  0
  2  1  1  0  0  0  0 
  2  3  1  0  0  0  0 
  4  2  1  0  0  0  0 
  2  5  1  0  0  0  0 
  3  6  1  0  0  0  0 
  3  7  1  0  0  0  0 
  3  8  1  0  0  0  0 
  4  9  1  0  0  0  0 
  4 10  1  0  0  0  0 
  4 25  1  0  0  0  0 
  5 11  1  0  0  0  0 
  6 12  2  0  0  0  0 
  6 13  1  0  0  0  0 
  7 14  1  0  0  0  0 
  8 15  1  0  0  0  0 
  9 14  1  0  0  0  0 
  9 16  1  0  0  0  0 
 10 12  1  0  0  0  0 
 11 15  1  0  0  0  0 
 12 17  1  0  0  0  0 
 13 18  2  0  0  0  0 
 16 19  1  0  0  0  0 
 17 20  2  0  0  0  0 
 18 20  1  0  0  0  0 
 18 21  1  0  0  0  0 
 19 22  1  0  0  0  0 
 19 23  1  0  0  0  0 
 22 24  1  0  0  0  0 
 23 24  1  0  0  0  0 
  1 26  1  0  0  0  0 
  5 27  1  0  0  0  0 
  5 28  1  0  0  0  0 
  7 29  1  0  0  0  0 
  7 30  1  0  0  0  0 
  8 31  1  0  0  0  0 
  8 32  1  0  0  0  0 
 10 33  1  0  0  0  0 
 10 34  1  0  0  0  0 
 11 35  1  0  0  0  0 
 11 36  1  0  0  0  0 
 13 37  1  0  0  0  0 
 14 38  1  0  0  0  0 
 14 39  1  0  0  0  0 
 15 40  1  0  0  0  0 
 15 41  1  0  0  0  0 
 16 42  1  0  0  0  0 
 16 43  1  0  0  0  0 
 17 44  1  0  0  0  0 
 19 45  1  0  0  0  0 
 20 46  1  0  0  0  0 
 21 47  1  0  0  0  0 
 22 48  1  0  0  0  0 
 22 49  1  0  0  0  0 
 23 50  1  0  0  0  0 
 23 51  1  0  0  0  0 
 24 52  1  0  0  0  0 
 24 53  1  0  0  0  0 
M  END
> <cdk:Title>
butorphanol

> <Conformer>
1

> <SuperDrugID>
SD000395

$$$$
