prednisolone
  CDK     0628171801

 54 57  0  0  0  0  0  0  0  0999 V2000
    0.6876   -3.7339   -1.1272 C   0  0  0  0  0  0  0  0  0  0  0  0
    1.0892   -3.1026    0.2666 C   0  0  2  0  0  0  0  0  0  0  0  0
    1.2562   -4.1465    1.4183 C   0  0  2  0  0  0  0  0  0  0  0  0
   -0.1161   -2.2527    0.8389 C   0  0  2  0  0  0  0  0  0  0  0  0
    2.4728   -2.3662    0.1449 C   0  0  2  0  0  0  0  0  0  0  0  0
    2.3328   -5.2381    1.1305 C   0  0  1  0  0  0  0  0  0  0  0  0
   -0.1810   -4.5979    1.7421 C   0  0  1  0  0  0  0  0  0  0  0  0
   -0.7753   -1.3238   -0.1380 C   0  0  0  0  0  0  0  0  0  0  0  0
    0.3115   -1.4362    1.9414 O   0  0  0  0  0  0  0  0  0  0  0  0
   -1.0544   -3.3490    1.4588 C   0  0  2  0  0  0  0  0  0  0  0  0
    3.6830   -3.3324   -0.0842 C   0  0  1  0  0  0  0  0  0  0  0  0
    3.7432   -4.5682    0.9015 C   0  0  2  0  0  0  0  0  0  0  0  0
    2.4103   -6.2802    2.2863 C   0  0  1  0  0  0  0  0  0  0  0  0
   -0.1400   -0.0809   -0.6272 C   0  0  1  0  0  0  0  0  0  0  0  0
   -1.9079   -1.5877   -0.6077 O   0  0  0  0  0  0  0  0  0  0  0  0
    3.7283   -3.7157   -1.4557 O   0  0  0  0  0  0  0  0  0  0  0  0
    4.8793   -5.6588    0.6396 C   0  0  2  0  0  0  0  0  0  0  0  0
    3.5243   -7.3242    2.0426 C   0  0  2  0  0  0  0  0  0  0  0  0
    0.4270   -0.2943   -1.9160 O   0  0  0  0  0  0  0  0  0  0  0  0
    4.7422   -6.4380   -0.7210 C   0  0  0  0  0  0  0  0  0  0  0  0
    4.8075   -6.6667    1.7531 C   0  0  0  0  0  0  0  0  0  0  0  0
    6.2050   -4.9916    0.5796 C   0  0  0  0  0  0  0  0  0  0  0  0
    5.8902   -6.9620    2.5076 C   0  0  0  0  0  0  0  0  0  0  0  0
    7.2381   -5.3269    1.3689 C   0  0  0  0  0  0  0  0  0  0  0  0
    7.1081   -6.3337    2.3064 C   0  0  0  0  0  0  0  0  0  0  0  0
    8.1052   -6.6750    2.9849 O   0  0  0  0  0  0  0  0  0  0  0  0
    2.0352   -5.7825    0.2351 H   0  0  0  0  0  0  0  0  0  0  0  0
    4.0003   -4.1110    1.8670 H   0  0  0  0  0  0  0  0  0  0  0  0
    1.6067   -3.6251    2.3192 H   0  0  0  0  0  0  0  0  0  0  0  0
    0.6502   -2.9632   -1.8971 H   0  0  0  0  0  0  0  0  0  0  0  0
   -0.2938   -4.2091   -1.0919 H   0  0  0  0  0  0  0  0  0  0  0  0
    1.3877   -4.4892   -1.4728 H   0  0  0  0  0  0  0  0  0  0  0  0
    2.6754   -1.7904    1.0527 H   0  0  0  0  0  0  0  0  0  0  0  0
    2.4401   -1.6447   -0.6739 H   0  0  0  0  0  0  0  0  0  0  0  0
   -0.4692   -5.4369    1.0994 H   0  0  0  0  0  0  0  0  0  0  0  0
   -0.2652   -4.9083    2.7878 H   0  0  0  0  0  0  0  0  0  0  0  0
   -0.5073   -1.0258    2.2915 H   0  0  0  0  0  0  0  0  0  0  0  0
   -1.8523   -3.6401    0.7721 H   0  0  0  0  0  0  0  0  0  0  0  0
   -1.5293   -2.9970    2.3814 H   0  0  0  0  0  0  0  0  0  0  0  0
    4.5828   -2.7319    0.0737 H   0  0  0  0  0  0  0  0  0  0  0  0
    2.5972   -5.7756    3.2398 H   0  0  0  0  0  0  0  0  0  0  0  0
    1.4574   -6.8086    2.3742 H   0  0  0  0  0  0  0  0  0  0  0  0
   -0.8904    0.7086   -0.7066 H   0  0  0  0  0  0  0  0  0  0  0  0
    0.6378    0.2685    0.0538 H   0  0  0  0  0  0  0  0  0  0  0  0
    3.8528   -2.8803   -1.9537 H   0  0  0  0  0  0  0  0  0  0  0  0
    3.2464   -7.9635    1.2015 H   0  0  0  0  0  0  0  0  0  0  0  0
    3.5689   -7.9739    2.9240 H   0  0  0  0  0  0  0  0  0  0  0  0
    0.7913    0.5746   -2.1889 H   0  0  0  0  0  0  0  0  0  0  0  0
    5.4350   -7.2825   -0.7510 H   0  0  0  0  0  0  0  0  0  0  0  0
    3.7390   -6.8333   -0.8713 H   0  0  0  0  0  0  0  0  0  0  0  0
    4.9725   -5.8115   -1.5830 H   0  0  0  0  0  0  0  0  0  0  0  0
    6.3604   -4.2724   -0.0884 H   0  0  0  0  0  0  0  0  0  0  0  0
    5.8257   -7.6372    3.2345 H   0  0  0  0  0  0  0  0  0  0  0  0
    8.1059   -4.8467    1.2738 H   0  0  0  0  0  0  0  0  0  0  0  0
  2  1  1  0  0  0  0 
  3  2  1  0  0  0  0 
  2  4  1  0  0  0  0 
  2  5  1  0  0  0  0 
  6  3  1  0  0  0  0 
  3  7  1  0  0  0  0 
  3 29  1  0  0  0  0 
  4  8  1  0  0  0  0 
  4  9  1  0  0  0  0 
  4 10  1  0  0  0  0 
 11  5  1  0  0  0  0 
 12  6  1  0  0  0  0 
  6 13  1  0  0  0  0 
  6 27  1  0  0  0  0 
  7 10  1  0  0  0  0 
  8 14  1  0  0  0  0 
  8 15  2  0  0  0  0 
 12 11  1  0  0  0  0 
 11 16  1  0  0  0  0 
 12 17  1  0  0  0  0 
 12 28  1  0  0  0  0 
 13 18  1  0  0  0  0 
 14 19  1  0  0  0  0 
 17 20  1  0  0  0  0 
 17 21  1  0  0  0  0 
 17 22  1  0  0  0  0 
 18 21  1  0  0  0  0 
 21 23  2  0  0  0  0 
 22 24  2  0  0  0  0 
 23 25  1  0  0  0  0 
 24 25  1  0  0  0  0 
 25 26  2  0  0  0  0 
  1 30  1  0  0  0  0 
  1 31  1  0  0  0  0 
  1 32  1  0  0  0  0 
  5 33  1  0  0  0  0 
  5 34  1  0  0  0  0 
  7 35  1  0  0  0  0 
  7 36  1  0  0  0  0 
  9 37  1  0  0  0  0 
 10 38  1  0  0  0  0 
 10 39  1  0  0  0  0 
 11 40  1  0  0  0  0 
 13 41  1  0  0  0  0 
 13 42  1  0  0  0  0 
 14 43  1  0  0  0  0 
 14 44  1  0  0  0  0 
 16 45  1  0  0  0  0 
 18 46  1  0  0  0  0 
 18 47  1  0  0  0  0 
 19 48  1  0  0  0  0 
 20 49  1  0  0  0  0 
 20 50  1  0  0  0  0 
 20 51  1  0  0  0  0 
 22 52  1  0  0  0  0 
 23 53  1  0  0  0  0 
 24 54  1  0  0  0  0 
M  END
> <cdk:Title>
prednisolone

> <Conformer>
1

> <SuperDrugID>
SD002013

$$$$
