tamibarotene
  CDK     0628171801

 51 53  0  0  0  0  0  0  0  0999 V2000
    1.1319    2.2681    0.4719 C   0  0  0  0  0  0  0  0  0  0  0  0
    1.1397    3.6712    0.2318 C   0  0  0  0  0  0  0  0  0  0  0  0
    0.1583    4.2166   -0.6627 C   0  0  0  0  0  0  0  0  0  0  0  0
   -0.6890    3.3049   -1.3483 C   0  0  0  0  0  0  0  0  0  0  0  0
   -0.6406    1.9212   -1.1199 C   0  0  0  0  0  0  0  0  0  0  0  0
    0.2598    1.3794   -0.1903 C   0  0  0  0  0  0  0  0  0  0  0  0
   -0.0039    5.7095   -0.9246 C   0  0  2  0  0  0  0  0  0  0  0  0
    0.8711    6.5769    0.0522 C   0  0  2  0  0  0  0  0  0  0  0  0
    2.2626    5.9599    0.3026 C   0  0  2  0  0  0  0  0  0  0  0  0
    2.1827    4.5242    0.9319 C   0  0  2  0  0  0  0  0  0  0  0  0
    0.2727    0.0153   -0.0435 N   0  0  0  0  0  0  0  0  0  0  0  0
    0.6635   -0.7384    1.0330 C   0  0  0  0  0  0  0  0  0  0  0  0
    0.7877   -2.1625    0.9516 C   0  0  0  0  0  0  0  0  0  0  0  0
    1.3409   -2.9056    2.0263 C   0  0  0  0  0  0  0  0  0  0  0  0
    1.4916   -4.3024    1.9563 C   0  0  0  0  0  0  0  0  0  0  0  0
    1.0936   -5.0235    0.8073 C   0  0  0  0  0  0  0  0  0  0  0  0
    0.5375   -4.2900   -0.2670 C   0  0  0  0  0  0  0  0  0  0  0  0
    0.3926   -2.8915   -0.1981 C   0  0  0  0  0  0  0  0  0  0  0  0
    0.9053   -0.1727    2.1272 O   0  0  0  0  0  0  0  0  0  0  0  0
    1.2568   -6.4352    0.7399 C   0  0  0  0  0  0  0  0  0  0  0  0
    0.9574   -7.0948   -0.2825 O   0  0  0  0  0  0  0  0  0  0  0  0
    1.7583   -7.1461    1.7794 O   0  0  0  0  0  0  0  0  0  0  0  0
    3.6273    3.9140    0.8077 C   0  0  0  0  0  0  0  0  0  0  0  0
    1.8266    4.6207    2.4538 C   0  0  0  0  0  0  0  0  0  0  0  0
   -1.4912    6.1774   -0.7195 C   0  0  0  0  0  0  0  0  0  0  0  0
    0.4022    6.0406   -2.4031 C   0  0  0  0  0  0  0  0  0  0  0  0
    1.7988    1.8715    1.1275 H   0  0  0  0  0  0  0  0  0  0  0  0
   -1.3675    3.6398   -2.0341 H   0  0  0  0  0  0  0  0  0  0  0  0
   -1.2806    1.3100   -1.6349 H   0  0  0  0  0  0  0  0  0  0  0  0
    0.3717    6.6973    1.0170 H   0  0  0  0  0  0  0  0  0  0  0  0
    1.0068    7.5890   -0.3414 H   0  0  0  0  0  0  0  0  0  0  0  0
    2.8333    6.6294    0.9538 H   0  0  0  0  0  0  0  0  0  0  0  0
    2.7928    5.9252   -0.6543 H   0  0  0  0  0  0  0  0  0  0  0  0
   -0.0439   -0.4790   -0.8137 H   0  0  0  0  0  0  0  0  0  0  0  0
    1.6521   -2.4353    2.8807 H   0  0  0  0  0  0  0  0  0  0  0  0
    1.9043   -4.7852    2.7587 H   0  0  0  0  0  0  0  0  0  0  0  0
    0.2333   -4.7668   -1.1198 H   0  0  0  0  0  0  0  0  0  0  0  0
   -0.0085   -2.4188   -1.0100 H   0  0  0  0  0  0  0  0  0  0  0  0
    1.8773   -8.1154    1.7033 H   0  0  0  0  0  0  0  0  0  0  0  0
    4.3751    4.5979    1.2141 H   0  0  0  0  0  0  0  0  0  0  0  0
    3.7331    2.9790    1.3597 H   0  0  0  0  0  0  0  0  0  0  0  0
    3.8762    3.7157   -0.2375 H   0  0  0  0  0  0  0  0  0  0  0  0
    2.5374    5.2636    2.9784 H   0  0  0  0  0  0  0  0  0  0  0  0
    1.8562    3.6375    2.9262 H   0  0  0  0  0  0  0  0  0  0  0  0
    0.8258    5.0266    2.6032 H   0  0  0  0  0  0  0  0  0  0  0  0
   -1.5801    7.2597   -0.8476 H   0  0  0  0  0  0  0  0  0  0  0  0
   -2.1749    5.7174   -1.4354 H   0  0  0  0  0  0  0  0  0  0  0  0
   -1.8413    5.9274    0.2843 H   0  0  0  0  0  0  0  0  0  0  0  0
    0.3550    7.1173   -2.5934 H   0  0  0  0  0  0  0  0  0  0  0  0
   -0.2647    5.5535   -3.1175 H   0  0  0  0  0  0  0  0  0  0  0  0
    1.4195    5.7081   -2.6118 H   0  0  0  0  0  0  0  0  0  0  0  0
  1  2  2  0  0  0  0 
  2  3  1  0  0  0  0 
  3  4  2  0  0  0  0 
  4  5  1  0  0  0  0 
  5  6  2  0  0  0  0 
  1  6  1  0  0  0  0 
  7  8  1  0  0  0  0 
  8  9  1  0  0  0  0 
  9 10  1  0  0  0  0 
  2 10  1  0  0  0  0 
  3  7  1  0  0  0  0 
  6 11  1  0  0  0  0 
 11 12  1  0  0  0  0 
 12 13  1  0  0  0  0 
 14 15  1  0  0  0  0 
 15 16  2  0  0  0  0 
 16 17  1  0  0  0  0 
 17 18  2  0  0  0  0 
 13 14  2  0  0  0  0 
 13 18  1  0  0  0  0 
 12 19  2  0  0  0  0 
 16 20  1  0  0  0  0 
 20 21  2  0  0  0  0 
 20 22  1  0  0  0  0 
 10 23  1  0  0  0  0 
 10 24  1  0  0  0  0 
  7 25  1  0  0  0  0 
  7 26  1  0  0  0  0 
  1 27  1  0  0  0  0 
  4 28  1  0  0  0  0 
  5 29  1  0  0  0  0 
  8 30  1  0  0  0  0 
  8 31  1  0  0  0  0 
  9 32  1  0  0  0  0 
  9 33  1  0  0  0  0 
 11 34  1  0  0  0  0 
 14 35  1  0  0  0  0 
 15 36  1  0  0  0  0 
 17 37  1  0  0  0  0 
 18 38  1  0  0  0  0 
 22 39  1  0  0  0  0 
 23 40  1  0  0  0  0 
 23 41  1  0  0  0  0 
 23 42  1  0  0  0  0 
 24 43  1  0  0  0  0 
 24 44  1  0  0  0  0 
 24 45  1  0  0  0  0 
 25 46  1  0  0  0  0 
 25 47  1  0  0  0  0 
 25 48  1  0  0  0  0 
 26 49  1  0  0  0  0 
 26 50  1  0  0  0  0 
 26 51  1  0  0  0  0 
M  END
> <cdk:Title>
tamibarotene

> <Conformer>
1

> <SuperDrugID>
SD003076

$$$$
