busulfan
  CDK     0628171801

 28 27  0  0  0  0  0  0  0  0999 V2000
   -2.3032   -0.0195    6.9496 O   0  0  0  0  0  0  0  0  0  0  0  0
   -3.6037    0.2968    8.0333 S   0  0  2  0  0  0  0  0  0  0  0  0
   -2.7090    0.0318    5.5738 C   0  0  1  0  0  0  0  0  0  0  0  0
   -2.9651    0.2039    9.7420 C   0  0  0  0  0  0  0  0  0  0  0  0
   -4.7505   -0.8033    7.8311 O   0  0  0  0  0  0  0  0  0  0  0  0
   -4.1848    1.7654    7.7598 O   0  0  0  0  0  0  0  0  0  0  0  0
   -1.4969   -0.2607    4.6561 C   0  0  1  0  0  0  0  0  0  0  0  0
   -1.8631   -0.2219    3.1463 C   0  0  1  0  0  0  0  0  0  0  0  0
   -0.6510   -0.5144    2.2286 C   0  0  1  0  0  0  0  0  0  0  0  0
   -1.0568   -0.4632    0.8528 O   0  0  0  0  0  0  0  0  0  0  0  0
    0.2437   -0.7796   -0.2309 S   0  0  1  0  0  0  0  0  0  0  0  0
   -0.3949   -0.6865   -1.9396 C   0  0  0  0  0  0  0  0  0  0  0  0
    1.3906    0.3208   -0.0287 O   0  0  0  0  0  0  0  0  0  0  0  0
    0.8248   -2.2479    0.0425 O   0  0  0  0  0  0  0  0  0  0  0  0
   -3.4845   -0.7149    5.3844 H   0  0  0  0  0  0  0  0  0  0  0  0
   -3.1014    1.0240    5.3362 H   0  0  0  0  0  0  0  0  0  0  0  0
   -2.5610   -0.7907    9.9270 H   0  0  0  0  0  0  0  0  0  0  0  0
   -3.7746    0.4017   10.4450 H   0  0  0  0  0  0  0  0  0  0  0  0
   -2.1786    0.9450    9.8788 H   0  0  0  0  0  0  0  0  0  0  0  0
   -0.7171    0.4811    4.8551 H   0  0  0  0  0  0  0  0  0  0  0  0
   -1.0984   -1.2497    4.9031 H   0  0  0  0  0  0  0  0  0  0  0  0
   -2.6429   -0.9637    2.9473 H   0  0  0  0  0  0  0  0  0  0  0  0
   -2.2616    0.7671    2.8993 H   0  0  0  0  0  0  0  0  0  0  0  0
    0.1246    0.2323    2.4180 H   0  0  0  0  0  0  0  0  0  0  0  0
   -0.2585   -1.5066    2.4663 H   0  0  0  0  0  0  0  0  0  0  0  0
   -0.7990    0.3081   -2.1246 H   0  0  0  0  0  0  0  0  0  0  0  0
   -1.1814   -1.4276   -2.0764 H   0  0  0  0  0  0  0  0  0  0  0  0
    0.4146   -0.8843   -2.6426 H   0  0  0  0  0  0  0  0  0  0  0  0
  1  2  1  0  0  0  0 
  1  3  1  0  0  0  0 
  2  4  1  0  0  0  0 
  2  5  2  0  0  0  0 
  2  6  2  0  0  0  0 
  3  7  1  0  0  0  0 
  7  8  1  0  0  0  0 
  8  9  1  0  0  0  0 
  9 10  1  0  0  0  0 
 10 11  1  0  0  0  0 
 11 12  1  0  0  0  0 
 11 13  2  0  0  0  0 
 11 14  2  0  0  0  0 
  3 15  1  0  0  0  0 
  3 16  1  0  0  0  0 
  4 17  1  0  0  0  0 
  4 18  1  0  0  0  0 
  4 19  1  0  0  0  0 
  7 20  1  0  0  0  0 
  7 21  1  0  0  0  0 
  8 22  1  0  0  0  0 
  8 23  1  0  0  0  0 
  9 24  1  0  0  0  0 
  9 25  1  0  0  0  0 
 12 26  1  0  0  0  0 
 12 27  1  0  0  0  0 
 12 28  1  0  0  0  0 
M  END
> <cdk:Title>
busulfan

> <Conformer>
1

> <SuperDrugID>
SD000380

$$$$
