quinidine
  CDK     0628171801

 48 51  0  0  0  0  0  0  0  0999 V2000
    0.1644    0.3270   -0.6491 C   0  0  1  0  0  0  0  0  0  0  0  0
   -0.3496   -0.2651    0.5476 O   0  0  0  0  0  0  0  0  0  0  0  0
   -0.8622    1.2765   -1.2099 C   0  0  0  0  0  0  0  0  0  0  0  0
    1.5334    1.0246   -0.3375 C   0  0  2  0  0  0  0  0  0  0  0  0
   -1.3559    1.2680   -2.5556 C   0  0  0  0  0  0  0  0  0  0  0  0
   -1.3675    2.2642   -0.3229 C   0  0  0  0  0  0  0  0  0  0  0  0
    2.1702    1.6986   -1.5383 N   0  0  2  0  0  0  0  0  0  0  0  0
    2.5830    0.0874    0.3709 C   0  0  2  0  0  0  0  0  0  0  0  0
   -2.3219    2.2549   -2.9263 C   0  0  0  0  0  0  0  0  0  0  0  0
   -0.9596    0.3532   -3.5675 C   0  0  0  0  0  0  0  0  0  0  0  0
   -2.3137    3.2041   -0.7525 C   0  0  0  0  0  0  0  0  0  0  0  0
    2.7176    0.6913   -2.5177 C   0  0  1  0  0  0  0  0  0  0  0  0
    3.3159    2.5606   -1.0703 C   0  0  1  0  0  0  0  0  0  0  0  0
    3.9632    0.1918   -0.3595 C   0  0  1  0  0  0  0  0  0  0  0  0
   -2.8534    2.3172   -4.2290 C   0  0  0  0  0  0  0  0  0  0  0  0
   -2.7583    3.1673   -2.0259 N   0  0  0  0  0  0  0  0  0  0  0  0
   -1.4815    0.4200   -4.8773 C   0  0  0  0  0  0  0  0  0  0  0  0
    3.7897   -0.2581   -1.8563 C   0  0  1  0  0  0  0  0  0  0  0  0
    4.3998    1.6956   -0.3396 C   0  0  2  0  0  0  0  0  0  0  0  0
   -2.4309    1.4026   -5.2021 C   0  0  0  0  0  0  0  0  0  0  0  0
   -1.0692   -0.4504   -5.8500 O   0  0  0  0  0  0  0  0  0  0  0  0
    3.4951   -1.6865   -2.0092 C   0  0  0  0  0  0  0  0  0  0  0  0
   -1.7520   -1.7143   -5.7840 C   0  0  0  0  0  0  0  0  0  0  0  0
    3.3423   -2.2861   -3.1973 C   0  0  0  0  0  0  0  0  0  0  0  0
    1.2933    1.8120    0.3858 H   0  0  0  0  0  0  0  0  0  0  0  0
    0.3509   -0.5173   -1.3065 H   0  0  0  0  0  0  0  0  0  0  0  0
   -1.1323   -0.7826    0.2641 H   0  0  0  0  0  0  0  0  0  0  0  0
   -1.0536    2.3118    0.6495 H   0  0  0  0  0  0  0  0  0  0  0  0
    2.2432   -0.9506    0.3832 H   0  0  0  0  0  0  0  0  0  0  0  0
    2.7061    0.3854    1.4158 H   0  0  0  0  0  0  0  0  0  0  0  0
   -0.2899   -0.3884   -3.3855 H   0  0  0  0  0  0  0  0  0  0  0  0
   -2.6684    3.9186   -0.1148 H   0  0  0  0  0  0  0  0  0  0  0  0
    1.8979    0.1248   -2.9519 H   0  0  0  0  0  0  0  0  0  0  0  0
    3.1737    1.2230   -3.3588 H   0  0  0  0  0  0  0  0  0  0  0  0
    3.7622    3.0835   -1.9219 H   0  0  0  0  0  0  0  0  0  0  0  0
    2.9437    3.3393   -0.3987 H   0  0  0  0  0  0  0  0  0  0  0  0
    4.7162   -0.4217    0.1465 H   0  0  0  0  0  0  0  0  0  0  0  0
   -3.5490    3.0255   -4.4771 H   0  0  0  0  0  0  0  0  0  0  0  0
    4.7523   -0.0976   -2.3564 H   0  0  0  0  0  0  0  0  0  0  0  0
    4.5204    2.0317    0.6944 H   0  0  0  0  0  0  0  0  0  0  0  0
    5.3675    1.8112   -0.8350 H   0  0  0  0  0  0  0  0  0  0  0  0
   -2.8186    1.4529   -6.1472 H   0  0  0  0  0  0  0  0  0  0  0  0
    3.4085   -2.2557   -1.1986 H   0  0  0  0  0  0  0  0  0  0  0  0
   -1.4460   -2.3130   -6.6420 H   0  0  0  0  0  0  0  0  0  0  0  0
   -1.4746   -2.2553   -4.8757 H   0  0  0  0  0  0  0  0  0  0  0  0
   -2.8391   -1.5915   -5.8246 H   0  0  0  0  0  0  0  0  0  0  0  0
    3.4232   -1.7769   -4.0449 H   0  0  0  0  0  0  0  0  0  0  0  0
    3.1410   -3.2566   -3.2462 H   0  0  0  0  0  0  0  0  0  0  0  0
  1  2  1  0  0  0  0 
  1  3  1  0  0  0  0 
  4  1  1  0  0  0  0 
  3  5  2  0  0  0  0 
  3  6  1  0  0  0  0 
  7  4  1  0  0  0  0 
  4  8  1  0  0  0  0 
  4 25  1  0  0  0  0 
  5  9  1  0  0  0  0 
  5 10  1  0  0  0  0 
  6 11  2  0  0  0  0 
  7 12  1  0  0  0  0 
  7 13  1  0  0  0  0 
 14  8  1  0  0  0  0 
  9 15  1  0  0  0  0 
  9 16  2  0  0  0  0 
 10 17  2  0  0  0  0 
 11 16  1  0  0  0  0 
 18 12  1  0  0  0  0 
 13 19  1  0  0  0  0 
 14 18  1  0  0  0  0 
 14 19  1  0  0  0  0 
 15 20  2  0  0  0  0 
 17 20  1  0  0  0  0 
 17 21  1  0  0  0  0 
 18 22  1  0  0  0  0 
 21 23  1  0  0  0  0 
 22 24  2  0  0  0  0 
  1 26  1  0  0  0  0 
  2 27  1  0  0  0  0 
  6 28  1  0  0  0  0 
  8 29  1  0  0  0  0 
  8 30  1  0  0  0  0 
 10 31  1  0  0  0  0 
 11 32  1  0  0  0  0 
 12 33  1  0  0  0  0 
 12 34  1  0  0  0  0 
 13 35  1  0  0  0  0 
 13 36  1  0  0  0  0 
 14 37  1  0  0  0  0 
 15 38  1  0  0  0  0 
 18 39  1  0  0  0  0 
 19 40  1  0  0  0  0 
 19 41  1  0  0  0  0 
 20 42  1  0  0  0  0 
 22 43  1  0  0  0  0 
 23 44  1  0  0  0  0 
 23 45  1  0  0  0  0 
 23 46  1  0  0  0  0 
 24 47  1  0  0  0  0 
 24 48  1  0  0  0  0 
M  END
> <cdk:Title>
quinidine

> <Conformer>
1

> <SuperDrugID>
SD002110

$$$$
