estrone sulphate
  CDK     0628171802

 46 49  0  0  0  0  0  0  0  0999 V2000
   -2.4497  -18.7714   -6.4791 C   0  0  0  0  0  0  0  0  0  0  0  0
   -1.5055  -17.6338   -5.9461 C   0  0  1  0  0  0  0  0  0  0  0  0
   -0.8790  -16.6797   -7.0085 C   0  0  2  0  0  0  0  0  0  0  0  0
   -2.2464  -16.7386   -4.9038 C   0  0  2  0  0  0  0  0  0  0  0  0
   -0.2651  -18.3016   -5.4990 C   0  0  0  0  0  0  0  0  0  0  0  0
   -1.9707  -15.9010   -7.8037 C   0  0  1  0  0  0  0  0  0  0  0  0
    0.1711  -17.5577   -7.7278 C   0  0  1  0  0  0  0  0  0  0  0  0
   -3.3199  -15.8236   -5.5746 C   0  0  2  0  0  0  0  0  0  0  0  0
   -0.1041  -18.7819   -4.3532 O   0  0  0  0  0  0  0  0  0  0  0  0
    0.7536  -18.3976   -6.5603 C   0  0  2  0  0  0  0  0  0  0  0  0
   -2.7983  -14.9973   -6.8087 C   0  0  2  0  0  0  0  0  0  0  0  0
   -1.3558  -15.0055   -8.9119 C   0  0  1  0  0  0  0  0  0  0  0  0
   -3.8123  -14.1441   -7.5327 C   0  0  0  0  0  0  0  0  0  0  0  0
   -2.4614  -14.2767   -9.7103 C   0  0  2  0  0  0  0  0  0  0  0  0
   -3.5969  -13.7623   -8.8934 C   0  0  0  0  0  0  0  0  0  0  0  0
   -4.9657  -13.6335   -6.8789 C   0  0  0  0  0  0  0  0  0  0  0  0
   -4.4963  -12.8785   -9.5325 C   0  0  0  0  0  0  0  0  0  0  0  0
   -5.8552  -12.7632   -7.5293 C   0  0  0  0  0  0  0  0  0  0  0  0
   -5.6058  -12.3540   -8.8474 C   0  0  0  0  0  0  0  0  0  0  0  0
   -6.4349  -11.4571   -9.4468 O   0  0  0  0  0  0  0  0  0  0  0  0
   -2.6390  -16.6181   -8.2899 H   0  0  0  0  0  0  0  0  0  0  0  0
   -2.0992  -14.2650   -6.3847 H   0  0  0  0  0  0  0  0  0  0  0  0
   -0.2856  -15.9023   -6.5003 H   0  0  0  0  0  0  0  0  0  0  0  0
   -5.7763   -9.8688   -9.3833 S   0  0  1  0  0  0  0  0  0  0  0  0
   -6.9026   -8.8535   -8.8720 O   0  0  0  0  0  0  0  0  0  0  0  0
   -4.4860   -9.7757   -8.4389 O   0  0  0  0  0  0  0  0  0  0  0  0
   -5.3287   -9.4334  -10.9722 O   0  0  0  0  0  0  0  0  0  0  0  0
   -1.9607  -19.3973   -7.2278 H   0  0  0  0  0  0  0  0  0  0  0  0
   -2.7546  -19.4230   -5.6572 H   0  0  0  0  0  0  0  0  0  0  0  0
   -3.3554  -18.3750   -6.9322 H   0  0  0  0  0  0  0  0  0  0  0  0
   -1.5252  -16.1011   -4.3828 H   0  0  0  0  0  0  0  0  0  0  0  0
   -2.7272  -17.3642   -4.1471 H   0  0  0  0  0  0  0  0  0  0  0  0
   -0.2973  -18.1929   -8.4845 H   0  0  0  0  0  0  0  0  0  0  0  0
    0.9468  -16.9539   -8.2061 H   0  0  0  0  0  0  0  0  0  0  0  0
   -3.6676  -15.1413   -4.7947 H   0  0  0  0  0  0  0  0  0  0  0  0
   -4.1747  -16.4285   -5.8802 H   0  0  0  0  0  0  0  0  0  0  0  0
    0.9095  -19.4400   -6.8518 H   0  0  0  0  0  0  0  0  0  0  0  0
    1.6954  -17.9711   -6.2066 H   0  0  0  0  0  0  0  0  0  0  0  0
   -0.6875  -14.2642   -8.4628 H   0  0  0  0  0  0  0  0  0  0  0  0
   -0.7711  -15.6131   -9.6061 H   0  0  0  0  0  0  0  0  0  0  0  0
   -2.8728  -14.9717  -10.4500 H   0  0  0  0  0  0  0  0  0  0  0  0
   -1.9909  -13.4539  -10.2581 H   0  0  0  0  0  0  0  0  0  0  0  0
   -5.1782  -13.8731   -5.9098 H   0  0  0  0  0  0  0  0  0  0  0  0
   -4.3389  -12.5962  -10.5041 H   0  0  0  0  0  0  0  0  0  0  0  0
   -6.6812  -12.4160   -7.0378 H   0  0  0  0  0  0  0  0  0  0  0  0
   -5.7887  -10.0818  -11.5449 H   0  0  0  0  0  0  0  0  0  0  0  0
  2  1  1  0  0  0  0 
  3  2  1  0  0  0  0 
  2  4  1  0  0  0  0 
  2  5  1  0  0  0  0 
  6  3  1  0  0  0  0 
  3  7  1  0  0  0  0 
  3 23  1  0  0  0  0 
  4  8  1  0  0  0  0 
  5  9  2  0  0  0  0 
  5 10  1  0  0  0  0 
 11  6  1  0  0  0  0 
  6 12  1  0  0  0  0 
  6 21  1  0  0  0  0 
  7 10  1  0  0  0  0 
 11  8  1  0  0  0  0 
 11 13  1  0  0  0  0 
 11 22  1  0  0  0  0 
 12 14  1  0  0  0  0 
 13 15  2  0  0  0  0 
 13 16  1  0  0  0  0 
 14 15  1  0  0  0  0 
 15 17  1  0  0  0  0 
 16 18  2  0  0  0  0 
 17 19  2  0  0  0  0 
 18 19  1  0  0  0  0 
 19 20  1  0  0  0  0 
 20 24  1  0  0  0  0 
 24 25  2  0  0  0  0 
 24 26  2  0  0  0  0 
 24 27  1  0  0  0  0 
  1 28  1  0  0  0  0 
  1 29  1  0  0  0  0 
  1 30  1  0  0  0  0 
  4 31  1  0  0  0  0 
  4 32  1  0  0  0  0 
  7 33  1  0  0  0  0 
  7 34  1  0  0  0  0 
  8 35  1  0  0  0  0 
  8 36  1  0  0  0  0 
 10 37  1  0  0  0  0 
 10 38  1  0  0  0  0 
 12 39  1  0  0  0  0 
 12 40  1  0  0  0  0 
 14 41  1  0  0  0  0 
 14 42  1  0  0  0  0 
 16 43  1  0  0  0  0 
 17 44  1  0  0  0  0 
 18 45  1  0  0  0  0 
 27 46  1  0  0  0  0 
M  END
> <cdk:Title>
estrone sulphate

> <Conformer>
1

> <SuperDrugID>
SD003802

$$$$
