diphenhydramine
  CDK     0628171802

 40 41  0  0  0  0  0  0  0  0999 V2000
   -0.3140   -1.4737    0.1178 C   0  0  2  0  0  0  0  0  0  0  0  0
   -0.3056   -2.5195   -0.8870 O   0  0  0  0  0  0  0  0  0  0  0  0
    1.0676   -1.0272    0.4716 C   0  0  0  0  0  0  0  0  0  0  0  0
   -1.0290   -1.8978    1.3607 C   0  0  0  0  0  0  0  0  0  0  0  0
    0.0679   -2.1049   -2.2211 C   0  0  2  0  0  0  0  0  0  0  0  0
    2.0803   -1.9691    0.7768 C   0  0  0  0  0  0  0  0  0  0  0  0
    1.3953    0.3498    0.5055 C   0  0  0  0  0  0  0  0  0  0  0  0
   -1.0150   -3.2391    1.8171 C   0  0  0  0  0  0  0  0  0  0  0  0
   -1.7375   -0.9398    2.1301 C   0  0  0  0  0  0  0  0  0  0  0  0
    0.1766   -3.3336   -3.1529 C   0  0  1  0  0  0  0  0  0  0  0  0
    3.3809   -1.5472    1.1116 C   0  0  0  0  0  0  0  0  0  0  0  0
    2.6900    0.7730    0.8572 C   0  0  0  0  0  0  0  0  0  0  0  0
   -1.6954   -3.6103    2.9931 C   0  0  0  0  0  0  0  0  0  0  0  0
   -2.4179   -1.3080    3.3054 C   0  0  0  0  0  0  0  0  0  0  0  0
    1.0043   -4.4520   -2.5962 N   0  0  2  0  0  0  0  0  0  0  0  0
    3.6830   -0.1746    1.1578 C   0  0  0  0  0  0  0  0  0  0  0  0
   -2.3999   -2.6456    3.7354 C   0  0  0  0  0  0  0  0  0  0  0  0
    2.4656   -4.1565   -2.5083 C   0  0  0  0  0  0  0  0  0  0  0  0
    0.7516   -5.7473   -3.2933 C   0  0  0  0  0  0  0  0  0  0  0  0
   -0.8851   -0.6372   -0.3033 H   0  0  0  0  0  0  0  0  0  0  0  0
    1.0204   -1.5699   -2.2185 H   0  0  0  0  0  0  0  0  0  0  0  0
   -0.6950   -1.4314   -2.6234 H   0  0  0  0  0  0  0  0  0  0  0  0
    1.8771   -2.9694    0.7527 H   0  0  0  0  0  0  0  0  0  0  0  0
    0.6891    1.0559    0.2794 H   0  0  0  0  0  0  0  0  0  0  0  0
   -0.5088   -3.9580    1.2966 H   0  0  0  0  0  0  0  0  0  0  0  0
   -1.7648    0.0403    1.8372 H   0  0  0  0  0  0  0  0  0  0  0  0
   -0.8470   -3.6819   -3.3191 H   0  0  0  0  0  0  0  0  0  0  0  0
    0.5737   -3.0151   -4.1211 H   0  0  0  0  0  0  0  0  0  0  0  0
    4.1059   -2.2379    1.3252 H   0  0  0  0  0  0  0  0  0  0  0  0
    2.9084    1.7703    0.8919 H   0  0  0  0  0  0  0  0  0  0  0  0
   -1.6810   -4.5832    3.3097 H   0  0  0  0  0  0  0  0  0  0  0  0
   -2.9270   -0.6042    3.8461 H   0  0  0  0  0  0  0  0  0  0  0  0
    4.6246    0.1330    1.4116 H   0  0  0  0  0  0  0  0  0  0  0  0
   -2.8995   -2.9157    4.5864 H   0  0  0  0  0  0  0  0  0  0  0  0
    2.6538   -3.2559   -1.9247 H   0  0  0  0  0  0  0  0  0  0  0  0
    2.9867   -4.9735   -2.0049 H   0  0  0  0  0  0  0  0  0  0  0  0
    2.9021   -4.0301   -3.5024 H   0  0  0  0  0  0  0  0  0  0  0  0
   -0.3105   -5.9965   -3.2703 H   0  0  0  0  0  0  0  0  0  0  0  0
    1.2823   -6.5610   -2.7956 H   0  0  0  0  0  0  0  0  0  0  0  0
    1.0762   -5.7018   -4.3355 H   0  0  0  0  0  0  0  0  0  0  0  0
  1  2  1  0  0  0  0 
  1  3  1  0  0  0  0 
  1  4  1  0  0  0  0 
  2  5  1  0  0  0  0 
  3  6  2  0  0  0  0 
  3  7  1  0  0  0  0 
  4  8  2  0  0  0  0 
  4  9  1  0  0  0  0 
  5 10  1  0  0  0  0 
  6 11  1  0  0  0  0 
  7 12  2  0  0  0  0 
  8 13  1  0  0  0  0 
  9 14  2  0  0  0  0 
 10 15  1  0  0  0  0 
 11 16  2  0  0  0  0 
 12 16  1  0  0  0  0 
 13 17  2  0  0  0  0 
 14 17  1  0  0  0  0 
 15 18  1  0  0  0  0 
 15 19  1  0  0  0  0 
  1 20  1  0  0  0  0 
  5 21  1  0  0  0  0 
  5 22  1  0  0  0  0 
  6 23  1  0  0  0  0 
  7 24  1  0  0  0  0 
  8 25  1  0  0  0  0 
  9 26  1  0  0  0  0 
 10 27  1  0  0  0  0 
 10 28  1  0  0  0  0 
 11 29  1  0  0  0  0 
 12 30  1  0  0  0  0 
 13 31  1  0  0  0  0 
 14 32  1  0  0  0  0 
 16 33  1  0  0  0  0 
 17 34  1  0  0  0  0 
 18 35  1  0  0  0  0 
 18 36  1  0  0  0  0 
 18 37  1  0  0  0  0 
 19 38  1  0  0  0  0 
 19 39  1  0  0  0  0 
 19 40  1  0  0  0  0 
M  END
> <cdk:Title>
diphenhydramine

> <Conformer>
1

> <SuperDrugID>
SD000814

$$$$
