acetyldigoxin
  CDK     0628171802

124131  0  0  0  0  0  0  0  0999 V2000
    3.1008    0.6990   10.5999 O   0  0  0  0  0  0  0  0  0  0  0  0
    2.6447   -0.6362   10.8558 C   0  0  1  0  0  0  0  0  0  0  0  0
    1.7225   -0.9854    9.6159 C   0  0  1  0  0  0  0  0  0  0  0  0
    3.8876   -1.5775   11.0637 C   0  0  1  0  0  0  0  0  0  0  0  0
    1.9475   -0.6374   12.2570 C   0  0  2  0  0  0  0  0  0  0  0  0
    1.3178   -2.4995    9.5126 C   0  0  1  0  0  0  0  0  0  0  0  0
    0.4937   -0.0057    9.5390 C   0  0  1  0  0  0  0  0  0  0  0  0
    5.0559   -1.2981   10.0524 C   0  0  0  0  0  0  0  0  0  0  0  0
    4.3237   -1.2620   12.5551 C   0  0  2  0  0  0  0  0  0  0  0  0
    3.4296   -3.0930   10.9208 C   0  0  1  0  0  0  0  0  0  0  0  0
    2.9884   -1.0556   13.3186 C   0  0  1  0  0  0  0  0  0  0  0  0
    0.3371   -2.8594    8.2828 C   0  0  2  0  0  0  0  0  0  0  0  0
    2.5934   -3.3965    9.6415 C   0  0  1  0  0  0  0  0  0  0  0  0
   -0.8252   -0.6586    9.0695 C   0  0  1  0  0  0  0  0  0  0  0  0
    5.2776   -0.1542   12.8014 C   0  0  0  0  0  0  0  0  0  0  0  0
    4.5496   -3.9831   10.9612 O   0  0  0  0  0  0  0  0  0  0  0  0
    1.1445   -3.2726    6.9990 C   0  0  0  0  0  0  0  0  0  0  0  0
   -0.5531   -1.6034    7.8642 C   0  0  2  0  0  0  0  0  0  0  0  0
   -0.5709   -4.0926    8.7065 C   0  0  2  0  0  0  0  0  0  0  0  0
    6.6758   -0.3623   13.1198 C   0  0  2  0  0  0  0  0  0  0  0  0
    5.0365    1.1625   12.8024 C   0  0  0  0  0  0  0  0  0  0  0  0
   -1.8750   -1.9388    7.0996 C   0  0  2  0  0  0  0  0  0  0  0  0
   -1.8749   -4.3132    7.8852 C   0  0  2  0  0  0  0  0  0  0  0  0
    7.1763    0.9656   13.2637 O   0  0  0  0  0  0  0  0  0  0  0  0
    6.1760    1.8419   13.0657 C   0  0  0  0  0  0  0  0  0  0  0  0
   -2.7179   -3.0102    7.8442 C   0  0  2  0  0  0  0  0  0  0  0  0
    6.2936    3.0867   13.1177 O   0  0  0  0  0  0  0  0  0  0  0  0
   -4.0525   -3.2593    7.3253 O   0  0  0  0  0  0  0  0  0  0  0  0
   -4.9269   -2.1088    7.1719 C   0  0  1  0  0  0  0  0  0  0  0  0
   -6.3818   -2.5049    6.7956 C   0  0  1  0  0  0  0  0  0  0  0  0
   -4.8705   -1.1444    8.2568 O   0  0  0  0  0  0  0  0  0  0  0  0
   -7.3017   -2.7129    8.0240 C   0  0  2  0  0  0  0  0  0  0  0  0
   -5.6934   -1.3648    9.4274 C   0  0  1  0  0  0  0  0  0  0  0  0
   -8.6468   -2.8827    7.5866 O   0  0  0  0  0  0  0  0  0  0  0  0
   -7.1977   -1.5299    9.0331 C   0  0  1  0  0  0  0  0  0  0  0  0
   -5.1587   -2.4744   10.3732 C   0  0  0  0  0  0  0  0  0  0  0  0
   -7.7517   -0.3153    8.4423 O   0  0  0  0  0  0  0  0  0  0  0  0
   -8.1084    0.7755    9.3363 C   0  0  1  0  0  0  0  0  0  0  0  0
   -8.4065    2.0983    8.5688 C   0  0  1  0  0  0  0  0  0  0  0  0
   -9.1692    0.4293   10.2564 O   0  0  0  0  0  0  0  0  0  0  0  0
   -9.8591    2.1837    8.0287 C   0  0  2  0  0  0  0  0  0  0  0  0
  -10.5211    0.4313    9.7445 C   0  0  1  0  0  0  0  0  0  0  0  0
  -10.1247    3.4922    7.5226 O   0  0  0  0  0  0  0  0  0  0  0  0
  -10.8914    1.8267    9.1375 C   0  0  1  0  0  0  0  0  0  0  0  0
  -10.8242   -0.7728    8.8150 C   0  0  0  0  0  0  0  0  0  0  0  0
  -10.8836    2.9323   10.0850 O   0  0  0  0  0  0  0  0  0  0  0  0
  -11.7822    2.8953   11.2169 C   0  0  1  0  0  0  0  0  0  0  0  0
  -11.5650    4.1618   12.0959 C   0  0  1  0  0  0  0  0  0  0  0  0
  -13.1902    2.7353   10.7950 O   0  0  0  0  0  0  0  0  0  0  0  0
  -12.2293    5.4510   11.5434 C   0  0  2  0  0  0  0  0  0  0  0  0
  -13.8814    3.9842   10.2662 C   0  0  1  0  0  0  0  0  0  0  0  0
  -12.0914    6.5124   12.4891 O   0  0  0  0  0  0  0  0  0  0  0  0
  -13.7334    5.2269   11.2380 C   0  0  1  0  0  0  0  0  0  0  0  0
  -13.5112    4.3834    8.7859 C   0  0  0  0  0  0  0  0  0  0  0  0
  -14.3936    4.9966   12.4989 O   0  0  0  0  0  0  0  0  0  0  0  0
  -15.7268    4.8730   12.7714 C   0  0  0  0  0  0  0  0  0  0  0  0
  -16.1373    4.6301   14.1648 C   0  0  0  0  0  0  0  0  0  0  0  0
  -16.5968    4.9798   11.8755 O   0  0  0  0  0  0  0  0  0  0  0  0
    2.3204   -0.7995    8.7162 H   0  0  0  0  0  0  0  0  0  0  0  0
    0.7560   -2.6793   10.4300 H   0  0  0  0  0  0  0  0  0  0  0  0
    0.0143   -0.9866    7.1554 H   0  0  0  0  0  0  0  0  0  0  0  0
   -4.5514   -1.5846    6.2917 H   0  0  0  0  0  0  0  0  0  0  0  0
   -7.2477    1.0037    9.9620 H   0  0  0  0  0  0  0  0  0  0  0  0
  -11.4075    2.0704   11.8750 H   0  0  0  0  0  0  0  0  0  0  0  0
    2.3008    1.2620   10.5970 H   0  0  0  0  0  0  0  0  0  0  0  0
    1.1093   -1.3373   12.2823 H   0  0  0  0  0  0  0  0  0  0  0  0
    1.5504    0.3519   12.5036 H   0  0  0  0  0  0  0  0  0  0  0  0
    0.2736    0.4637   10.4979 H   0  0  0  0  0  0  0  0  0  0  0  0
    0.7438    0.8148    8.8574 H   0  0  0  0  0  0  0  0  0  0  0  0
    5.9221   -1.9170   10.2922 H   0  0  0  0  0  0  0  0  0  0  0  0
    5.3802   -0.2590   10.0908 H   0  0  0  0  0  0  0  0  0  0  0  0
    4.7577   -1.5081    9.0266 H   0  0  0  0  0  0  0  0  0  0  0  0
    4.8009   -2.1604   12.9636 H   0  0  0  0  0  0  0  0  0  0  0  0
    2.8027   -3.3777   11.7701 H   0  0  0  0  0  0  0  0  0  0  0  0
    3.0600   -0.3078   14.1128 H   0  0  0  0  0  0  0  0  0  0  0  0
    2.6816   -1.9910   13.7940 H   0  0  0  0  0  0  0  0  0  0  0  0
    2.2874   -4.4466    9.6670 H   0  0  0  0  0  0  0  0  0  0  0  0
    3.2354   -3.2665    8.7683 H   0  0  0  0  0  0  0  0  0  0  0  0
   -1.2675   -1.2193    9.8982 H   0  0  0  0  0  0  0  0  0  0  0  0
   -1.5210    0.1415    8.7998 H   0  0  0  0  0  0  0  0  0  0  0  0
    4.1736   -4.8870   10.9332 H   0  0  0  0  0  0  0  0  0  0  0  0
    1.8689   -2.4989    6.7345 H   0  0  0  0  0  0  0  0  0  0  0  0
    1.6849   -4.2078    7.1437 H   0  0  0  0  0  0  0  0  0  0  0  0
    0.4842   -3.4216    6.1441 H   0  0  0  0  0  0  0  0  0  0  0  0
   -0.8981   -3.9857    9.7430 H   0  0  0  0  0  0  0  0  0  0  0  0
    0.0102   -5.0175    8.6726 H   0  0  0  0  0  0  0  0  0  0  0  0
    7.2017   -0.8811   12.3185 H   0  0  0  0  0  0  0  0  0  0  0  0
    6.7858   -0.9074   14.0589 H   0  0  0  0  0  0  0  0  0  0  0  0
    4.1604    1.5980   12.6494 H   0  0  0  0  0  0  0  0  0  0  0  0
   -1.6514   -2.2938    6.0903 H   0  0  0  0  0  0  0  0  0  0  0  0
   -2.4412   -1.0154    6.9768 H   0  0  0  0  0  0  0  0  0  0  0  0
   -2.4617   -5.1101    8.3522 H   0  0  0  0  0  0  0  0  0  0  0  0
   -1.6311   -4.6449    6.8713 H   0  0  0  0  0  0  0  0  0  0  0  0
   -2.8519   -2.6872    8.8735 H   0  0  0  0  0  0  0  0  0  0  0  0
   -6.8141   -1.7084    6.1837 H   0  0  0  0  0  0  0  0  0  0  0  0
   -6.3709   -3.4120    6.1878 H   0  0  0  0  0  0  0  0  0  0  0  0
   -7.0207   -3.6437    8.5241 H   0  0  0  0  0  0  0  0  0  0  0  0
   -5.5927   -0.4524   10.0118 H   0  0  0  0  0  0  0  0  0  0  0  0
   -8.6180   -3.6473    6.9744 H   0  0  0  0  0  0  0  0  0  0  0  0
   -7.7831   -1.7977    9.9190 H   0  0  0  0  0  0  0  0  0  0  0  0
   -4.1963   -2.1715   10.7919 H   0  0  0  0  0  0  0  0  0  0  0  0
   -5.0256   -3.4164    9.8430 H   0  0  0  0  0  0  0  0  0  0  0  0
   -5.8507   -2.6387   11.2019 H   0  0  0  0  0  0  0  0  0  0  0  0
   -8.2458    2.9396    9.2499 H   0  0  0  0  0  0  0  0  0  0  0  0
   -7.6990    2.2149    7.7453 H   0  0  0  0  0  0  0  0  0  0  0  0
   -9.9641    1.5004    7.1839 H   0  0  0  0  0  0  0  0  0  0  0  0
  -11.1596    0.2525   10.6080 H   0  0  0  0  0  0  0  0  0  0  0  0
   -9.5011    3.6146    6.7772 H   0  0  0  0  0  0  0  0  0  0  0  0
  -11.8818    1.7696    8.6765 H   0  0  0  0  0  0  0  0  0  0  0  0
  -10.5421   -1.7004    9.3149 H   0  0  0  0  0  0  0  0  0  0  0  0
  -10.2792   -0.7060    7.8751 H   0  0  0  0  0  0  0  0  0  0  0  0
  -11.8912   -0.8161    8.5898 H   0  0  0  0  0  0  0  0  0  0  0  0
  -11.9689    3.9620   13.0919 H   0  0  0  0  0  0  0  0  0  0  0  0
  -10.4923    4.3360   12.2112 H   0  0  0  0  0  0  0  0  0  0  0  0
  -11.7072    5.7644   10.6366 H   0  0  0  0  0  0  0  0  0  0  0  0
  -14.9877    3.8325   10.1793 H   0  0  0  0  0  0  0  0  0  0  0  0
  -11.1304    6.5831   12.6645 H   0  0  0  0  0  0  0  0  0  0  0  0
  -14.1507    6.1323   10.7865 H   0  0  0  0  0  0  0  0  0  0  0  0
  -13.7485    3.5571    8.1159 H   0  0  0  0  0  0  0  0  0  0  0  0
  -12.4504    4.6040    8.6903 H   0  0  0  0  0  0  0  0  0  0  0  0
  -14.0776    5.2574    8.4586 H   0  0  0  0  0  0  0  0  0  0  0  0
  -15.9278    5.5213   14.7625 H   0  0  0  0  0  0  0  0  0  0  0  0
  -15.5755    3.7873   14.5743 H   0  0  0  0  0  0  0  0  0  0  0  0
  -17.2052    4.3989   14.2302 H   0  0  0  0  0  0  0  0  0  0  0  0
  2  1  1  0  0  0  0 
  3  2  1  0  0  0  0 
  2  4  1  0  0  0  0 
  2  5  1  0  0  0  0 
  6  3  1  0  0  0  0 
  3  7  1  0  0  0  0 
  3 59  1  0  0  0  0 
  4  8  1  0  0  0  0 
  4  9  1  0  0  0  0 
  4 10  1  0  0  0  0 
  5 11  1  0  0  0  0 
 12  6  1  0  0  0  0 
  6 13  1  0  0  0  0 
  6 60  1  0  0  0  0 
  7 14  1  0  0  0  0 
  9 11  1  0  0  0  0 
  9 15  1  0  0  0  0 
 10 13  1  0  0  0  0 
 10 16  1  0  0  0  0 
 12 17  1  0  0  0  0 
 18 12  1  0  0  0  0 
 12 19  1  0  0  0  0 
 18 14  1  0  0  0  0 
 15 20  1  0  0  0  0 
 15 21  2  0  0  0  0 
 18 22  1  0  0  0  0 
 18 61  1  0  0  0  0 
 19 23  1  0  0  0  0 
 20 24  1  0  0  0  0 
 21 25  1  0  0  0  0 
 26 22  1  0  0  0  0 
 26 23  1  0  0  0  0 
 24 25  1  0  0  0  0 
 25 27  2  0  0  0  0 
 26 28  1  0  0  0  0 
 29 28  1  0  0  0  0 
 29 30  1  0  0  0  0 
 29 31  1  0  0  0  0 
 29 62  1  0  0  0  0 
 32 30  1  0  0  0  0 
 33 31  1  0  0  0  0 
 32 34  1  0  0  0  0 
 35 32  1  0  0  0  0 
 33 35  1  0  0  0  0 
 33 36  1  0  0  0  0 
 35 37  1  0  0  0  0 
 38 37  1  0  0  0  0 
 38 39  1  0  0  0  0 
 38 40  1  0  0  0  0 
 38 63  1  0  0  0  0 
 41 39  1  0  0  0  0 
 42 40  1  0  0  0  0 
 41 43  1  0  0  0  0 
 44 41  1  0  0  0  0 
 44 42  1  0  0  0  0 
 42 45  1  0  0  0  0 
 44 46  1  0  0  0  0 
 47 46  1  0  0  0  0 
 47 48  1  0  0  0  0 
 47 49  1  0  0  0  0 
 47 64  1  0  0  0  0 
 50 48  1  0  0  0  0 
 51 49  1  0  0  0  0 
 50 52  1  0  0  0  0 
 53 50  1  0  0  0  0 
 53 51  1  0  0  0  0 
 51 54  1  0  0  0  0 
 53 55  1  0  0  0  0 
 55 56  1  0  0  0  0 
 56 57  1  0  0  0  0 
 56 58  2  0  0  0  0 
  1 65  1  0  0  0  0 
  5 66  1  0  0  0  0 
  5 67  1  0  0  0  0 
  7 68  1  0  0  0  0 
  7 69  1  0  0  0  0 
  8 70  1  0  0  0  0 
  8 71  1  0  0  0  0 
  8 72  1  0  0  0  0 
  9 73  1  0  0  0  0 
 10 74  1  0  0  0  0 
 11 75  1  0  0  0  0 
 11 76  1  0  0  0  0 
 13 77  1  0  0  0  0 
 13 78  1  0  0  0  0 
 14 79  1  0  0  0  0 
 14 80  1  0  0  0  0 
 16 81  1  0  0  0  0 
 17 82  1  0  0  0  0 
 17 83  1  0  0  0  0 
 17 84  1  0  0  0  0 
 19 85  1  0  0  0  0 
 19 86  1  0  0  0  0 
 20 87  1  0  0  0  0 
 20 88  1  0  0  0  0 
 21 89  1  0  0  0  0 
 22 90  1  0  0  0  0 
 22 91  1  0  0  0  0 
 23 92  1  0  0  0  0 
 23 93  1  0  0  0  0 
 26 94  1  0  0  0  0 
 30 95  1  0  0  0  0 
 30 96  1  0  0  0  0 
 32 97  1  0  0  0  0 
 33 98  1  0  0  0  0 
 34 99  1  0  0  0  0 
 35100  1  0  0  0  0 
 36101  1  0  0  0  0 
 36102  1  0  0  0  0 
 36103  1  0  0  0  0 
 39104  1  0  0  0  0 
 39105  1  0  0  0  0 
 41106  1  0  0  0  0 
 42107  1  0  0  0  0 
 43108  1  0  0  0  0 
 44109  1  0  0  0  0 
 45110  1  0  0  0  0 
 45111  1  0  0  0  0 
 45112  1  0  0  0  0 
 48113  1  0  0  0  0 
 48114  1  0  0  0  0 
 50115  1  0  0  0  0 
 51116  1  0  0  0  0 
 52117  1  0  0  0  0 
 53118  1  0  0  0  0 
 54119  1  0  0  0  0 
 54120  1  0  0  0  0 
 54121  1  0  0  0  0 
 57122  1  0  0  0  0 
 57123  1  0  0  0  0 
 57124  1  0  0  0  0 
M  END
> <cdk:Title>
acetyldigoxin

> <Conformer>
1

> <SuperDrugID>
SD000045

$$$$
