glibenclamide
  CDK     0628171801

 61 63  0  0  0  0  0  0  0  0999 V2000
   -4.8020    9.5752   -0.5394 C   0  0  0  0  0  0  0  0  0  0  0  0
   -4.0665    8.9994   -1.5383 N   0  0  0  0  0  0  0  0  0  0  0  0
   -5.0420    8.8886    0.4835 O   0  0  0  0  0  0  0  0  0  0  0  0
   -5.2587   10.9269   -0.6236 C   0  0  0  0  0  0  0  0  0  0  0  0
   -3.4974    7.6928   -1.4953 C   0  0  1  0  0  0  0  0  0  0  0  0
   -6.2329   11.4548    0.2731 C   0  0  0  0  0  0  0  0  0  0  0  0
   -4.7208   11.8010   -1.6062 C   0  0  0  0  0  0  0  0  0  0  0  0
   -4.5536    6.5730   -1.7015 C   0  0  2  0  0  0  0  0  0  0  0  0
   -6.8183   10.6906    1.2531 O   0  0  0  0  0  0  0  0  0  0  0  0
   -6.6534   12.7963    0.1521 C   0  0  0  0  0  0  0  0  0  0  0  0
   -5.1226   13.1455   -1.7017 C   0  0  0  0  0  0  0  0  0  0  0  0
   -3.9871    5.2297   -1.4166 C   0  0  0  0  0  0  0  0  0  0  0  0
   -6.2402   10.8923    2.5587 C   0  0  0  0  0  0  0  0  0  0  0  0
   -6.0933   13.6431   -0.8176 C   0  0  0  0  0  0  0  0  0  0  0  0
   -4.4374   14.1553   -2.8763 Cl  0  0  0  0  0  0  0  0  0  0  0  0
   -3.7292    4.3001   -2.4498 C   0  0  0  0  0  0  0  0  0  0  0  0
   -3.6899    4.8612   -0.0836 C   0  0  0  0  0  0  0  0  0  0  0  0
   -3.1657    3.0459   -2.1590 C   0  0  0  0  0  0  0  0  0  0  0  0
   -3.1279    3.6094    0.2088 C   0  0  0  0  0  0  0  0  0  0  0  0
   -2.8455    2.7029   -0.8313 C   0  0  0  0  0  0  0  0  0  0  0  0
   -2.0861    1.1430   -0.4916 S   0  0  1  0  0  0  0  0  0  0  0  0
   -3.2154   -0.1214   -0.7559 N   0  0  0  0  0  0  0  0  0  0  0  0
   -0.8343    0.9099   -1.4685 O   0  0  0  0  0  0  0  0  0  0  0  0
   -1.5779    1.0697    1.0293 O   0  0  0  0  0  0  0  0  0  0  0  0
   -2.9485   -1.4081   -0.4473 C   0  0  0  0  0  0  0  0  0  0  0  0
   -3.9332   -2.3227   -0.6352 N   0  0  0  0  0  0  0  0  0  0  0  0
   -1.8326   -1.7422    0.0208 O   0  0  0  0  0  0  0  0  0  0  0  0
   -3.8708   -3.6885   -0.2062 C   0  0  2  0  0  0  0  0  0  0  0  0
   -5.0465   -4.4910   -0.8338 C   0  0  1  0  0  0  0  0  0  0  0  0
   -3.9086   -3.7814    1.3509 C   0  0  2  0  0  0  0  0  0  0  0  0
   -5.0436   -5.9670   -0.3571 C   0  0  2  0  0  0  0  0  0  0  0  0
   -3.9089   -5.2522    1.8365 C   0  0  2  0  0  0  0  0  0  0  0  0
   -5.0563   -6.0723    1.1910 C   0  0  2  0  0  0  0  0  0  0  0  0
   -3.8992    9.5166   -2.3394 H   0  0  0  0  0  0  0  0  0  0  0  0
   -2.7545    7.6288   -2.2920 H   0  0  0  0  0  0  0  0  0  0  0  0
   -2.9648    7.5726   -0.5473 H   0  0  0  0  0  0  0  0  0  0  0  0
   -4.0085   11.4762   -2.2623 H   0  0  0  0  0  0  0  0  0  0  0  0
   -4.9309    6.6334   -2.7282 H   0  0  0  0  0  0  0  0  0  0  0  0
   -5.4075    6.7305   -1.0374 H   0  0  0  0  0  0  0  0  0  0  0  0
   -7.3710   13.1630    0.7815 H   0  0  0  0  0  0  0  0  0  0  0  0
   -6.7140   10.1994    3.2555 H   0  0  0  0  0  0  0  0  0  0  0  0
   -5.1647   10.6936    2.5612 H   0  0  0  0  0  0  0  0  0  0  0  0
   -6.4215   11.9082    2.9173 H   0  0  0  0  0  0  0  0  0  0  0  0
   -6.3946   14.6203   -0.8713 H   0  0  0  0  0  0  0  0  0  0  0  0
   -3.9456    4.5316   -3.4211 H   0  0  0  0  0  0  0  0  0  0  0  0
   -3.8811    5.5024    0.6884 H   0  0  0  0  0  0  0  0  0  0  0  0
   -2.9881    2.3884   -2.9205 H   0  0  0  0  0  0  0  0  0  0  0  0
   -2.9263    3.3720    1.1819 H   0  0  0  0  0  0  0  0  0  0  0  0
   -4.0857    0.1011   -1.1261 H   0  0  0  0  0  0  0  0  0  0  0  0
   -4.7554   -2.0209   -1.0536 H   0  0  0  0  0  0  0  0  0  0  0  0
   -2.9332   -4.1259   -0.5704 H   0  0  0  0  0  0  0  0  0  0  0  0
   -5.9985   -4.0272   -0.5593 H   0  0  0  0  0  0  0  0  0  0  0  0
   -4.9620   -4.4698   -1.9244 H   0  0  0  0  0  0  0  0  0  0  0  0
   -4.8007   -3.2730    1.7279 H   0  0  0  0  0  0  0  0  0  0  0  0
   -3.0356   -3.2797    1.7749 H   0  0  0  0  0  0  0  0  0  0  0  0
   -4.1525   -6.4691   -0.7452 H   0  0  0  0  0  0  0  0  0  0  0  0
   -5.9206   -6.4793   -0.7587 H   0  0  0  0  0  0  0  0  0  0  0  0
   -4.0157   -5.2688    2.9249 H   0  0  0  0  0  0  0  0  0  0  0  0
   -2.9465   -5.7110    1.5869 H   0  0  0  0  0  0  0  0  0  0  0  0
   -4.9496   -7.1198    1.4851 H   0  0  0  0  0  0  0  0  0  0  0  0
   -6.0159   -5.7106    1.5718 H   0  0  0  0  0  0  0  0  0  0  0  0
  1  2  1  0  0  0  0 
  1  3  2  0  0  0  0 
  1  4  1  0  0  0  0 
  2  5  1  0  0  0  0 
  4  6  2  0  0  0  0 
  4  7  1  0  0  0  0 
  5  8  1  0  0  0  0 
  6  9  1  0  0  0  0 
  6 10  1  0  0  0  0 
  7 11  2  0  0  0  0 
  8 12  1  0  0  0  0 
  9 13  1  0  0  0  0 
 10 14  2  0  0  0  0 
 11 14  1  0  0  0  0 
 11 15  1  0  0  0  0 
 12 16  2  0  0  0  0 
 12 17  1  0  0  0  0 
 16 18  1  0  0  0  0 
 17 19  2  0  0  0  0 
 18 20  2  0  0  0  0 
 19 20  1  0  0  0  0 
 20 21  1  0  0  0  0 
 21 22  1  0  0  0  0 
 21 23  2  0  0  0  0 
 21 24  2  0  0  0  0 
 22 25  1  0  0  0  0 
 25 26  1  0  0  0  0 
 25 27  2  0  0  0  0 
 26 28  1  0  0  0  0 
 28 29  1  0  0  0  0 
 28 30  1  0  0  0  0 
 29 31  1  0  0  0  0 
 30 32  1  0  0  0  0 
 31 33  1  0  0  0  0 
 32 33  1  0  0  0  0 
  2 34  1  0  0  0  0 
  5 35  1  0  0  0  0 
  5 36  1  0  0  0  0 
  7 37  1  0  0  0  0 
  8 38  1  0  0  0  0 
  8 39  1  0  0  0  0 
 10 40  1  0  0  0  0 
 13 41  1  0  0  0  0 
 13 42  1  0  0  0  0 
 13 43  1  0  0  0  0 
 14 44  1  0  0  0  0 
 16 45  1  0  0  0  0 
 17 46  1  0  0  0  0 
 18 47  1  0  0  0  0 
 19 48  1  0  0  0  0 
 22 49  1  0  0  0  0 
 26 50  1  0  0  0  0 
 28 51  1  0  0  0  0 
 29 52  1  0  0  0  0 
 29 53  1  0  0  0  0 
 30 54  1  0  0  0  0 
 30 55  1  0  0  0  0 
 31 56  1  0  0  0  0 
 31 57  1  0  0  0  0 
 32 58  1  0  0  0  0 
 32 59  1  0  0  0  0 
 33 60  1  0  0  0  0 
 33 61  1  0  0  0  0 
M  END
> <cdk:Title>
glibenclamide

> <Conformer>
1

> <SuperDrugID>
SD001170

$$$$
