androstanolone
  CDK     0628171801

 51 54  0  0  0  0  0  0  0  0999 V2000
   -3.5397    0.8652    0.3607 C   0  0  0  0  0  0  0  0  0  0  0  0
   -2.5970    0.2172    1.4455 C   0  0  1  0  0  0  0  0  0  0  0  0
   -3.3939   -0.0572    2.8005 C   0  0  2  0  0  0  0  0  0  0  0  0
   -1.9818   -1.1662    0.9626 C   0  0  1  0  0  0  0  0  0  0  0  0
   -1.3722    1.1867    1.6828 C   0  0  1  0  0  0  0  0  0  0  0  0
   -4.4763   -1.2028    2.6420 C   0  0  2  0  0  0  0  0  0  0  0  0
   -3.9751    1.2168    3.5187 C   0  0  1  0  0  0  0  0  0  0  0  0
   -3.0577   -2.2732    0.7745 C   0  0  2  0  0  0  0  0  0  0  0  0
   -1.0610   -1.0433   -0.2904 C   0  0  2  0  0  0  0  0  0  0  0  0
   -0.3908    1.3058    0.4777 C   0  0  1  0  0  0  0  0  0  0  0  0
   -5.1912   -1.4421    4.0111 C   0  0  1  0  0  0  0  0  0  0  0  0
   -3.8418   -2.5139    2.0873 C   0  0  2  0  0  0  0  0  0  0  0  0
   -4.8219    0.9161    4.7964 C   0  0  1  0  0  0  0  0  0  0  0  0
   -0.0170   -0.0228   -0.0544 C   0  0  0  0  0  0  0  0  0  0  0  0
   -5.9213   -0.1706    4.5512 C   0  0  1  0  0  0  0  0  0  0  0  0
   -6.2489   -2.5611    4.1290 C   0  0  2  0  0  0  0  0  0  0  0  0
    1.1873   -0.3020   -0.2613 O   0  0  0  0  0  0  0  0  0  0  0  0
   -7.0481    0.4224    3.6206 C   0  0  0  0  0  0  0  0  0  0  0  0
   -6.5734   -0.7741    5.8385 C   0  0  2  0  0  0  0  0  0  0  0  0
   -7.0113   -2.2087    5.4305 C   0  0  1  0  0  0  0  0  0  0  0  0
   -7.6689   -0.0271    6.3681 O   0  0  0  0  0  0  0  0  0  0  0  0
   -5.2361   -0.9007    1.9211 H   0  0  0  0  0  0  0  0  0  0  0  0
   -2.6578   -0.4459    3.5135 H   0  0  0  0  0  0  0  0  0  0  0  0
   -4.3911   -1.7254    4.7153 H   0  0  0  0  0  0  0  0  0  0  0  0
   -1.3222   -1.5332    1.7615 H   0  0  0  0  0  0  0  0  0  0  0  0
   -4.4325    0.2716    0.1809 H   0  0  0  0  0  0  0  0  0  0  0  0
   -3.8615    1.8606    0.6642 H   0  0  0  0  0  0  0  0  0  0  0  0
   -3.0424    0.9817   -0.5997 H   0  0  0  0  0  0  0  0  0  0  0  0
   -1.7235    2.1930    1.9190 H   0  0  0  0  0  0  0  0  0  0  0  0
   -0.7935    0.8414    2.5450 H   0  0  0  0  0  0  0  0  0  0  0  0
   -3.1511    1.8673    3.8229 H   0  0  0  0  0  0  0  0  0  0  0  0
   -4.5929    1.7858    2.8280 H   0  0  0  0  0  0  0  0  0  0  0  0
   -2.5797   -3.2127    0.4870 H   0  0  0  0  0  0  0  0  0  0  0  0
   -3.7516   -2.0025   -0.0243 H   0  0  0  0  0  0  0  0  0  0  0  0
   -1.6412   -0.7649   -1.1700 H   0  0  0  0  0  0  0  0  0  0  0  0
   -0.5951   -2.0104   -0.4996 H   0  0  0  0  0  0  0  0  0  0  0  0
   -0.8514    1.8829   -0.3265 H   0  0  0  0  0  0  0  0  0  0  0  0
    0.5046    1.8502    0.7925 H   0  0  0  0  0  0  0  0  0  0  0  0
   -4.6250   -3.2506    1.8878 H   0  0  0  0  0  0  0  0  0  0  0  0
   -3.1665   -2.9421    2.8342 H   0  0  0  0  0  0  0  0  0  0  0  0
   -4.1409    0.5833    5.5863 H   0  0  0  0  0  0  0  0  0  0  0  0
   -5.2881    1.8426    5.1475 H   0  0  0  0  0  0  0  0  0  0  0  0
   -5.7825   -3.5464    4.1931 H   0  0  0  0  0  0  0  0  0  0  0  0
   -6.9195   -2.5486    3.2685 H   0  0  0  0  0  0  0  0  0  0  0  0
   -6.6692    0.7180    2.6439 H   0  0  0  0  0  0  0  0  0  0  0  0
   -7.4858    1.3100    4.0830 H   0  0  0  0  0  0  0  0  0  0  0  0
   -7.8555   -0.2899    3.4516 H   0  0  0  0  0  0  0  0  0  0  0  0
   -5.8265   -0.8469    6.6362 H   0  0  0  0  0  0  0  0  0  0  0  0
   -8.0905   -2.2608    5.2565 H   0  0  0  0  0  0  0  0  0  0  0  0
   -6.7603   -2.9191    6.2222 H   0  0  0  0  0  0  0  0  0  0  0  0
   -7.2931    0.8524    6.5854 H   0  0  0  0  0  0  0  0  0  0  0  0
  2  1  1  0  0  0  0 
  3  2  1  0  0  0  0 
  2  4  1  0  0  0  0 
  2  5  1  0  0  0  0 
  6  3  1  0  0  0  0 
  3  7  1  0  0  0  0 
  3 23  1  0  0  0  0 
  4  8  1  0  0  0  0 
  4  9  1  0  0  0  0 
  4 25  1  0  0  0  0 
  5 10  1  0  0  0  0 
 11  6  1  0  0  0  0 
  6 12  1  0  0  0  0 
  6 22  1  0  0  0  0 
  7 13  1  0  0  0  0 
  8 12  1  0  0  0  0 
  9 14  1  0  0  0  0 
 10 14  1  0  0  0  0 
 15 11  1  0  0  0  0 
 11 16  1  0  0  0  0 
 11 24  1  0  0  0  0 
 15 13  1  0  0  0  0 
 14 17  2  0  0  0  0 
 15 18  1  0  0  0  0 
 15 19  1  0  0  0  0 
 16 20  1  0  0  0  0 
 19 20  1  0  0  0  0 
 19 21  1  0  0  0  0 
  1 26  1  0  0  0  0 
  1 27  1  0  0  0  0 
  1 28  1  0  0  0  0 
  5 29  1  0  0  0  0 
  5 30  1  0  0  0  0 
  7 31  1  0  0  0  0 
  7 32  1  0  0  0  0 
  8 33  1  0  0  0  0 
  8 34  1  0  0  0  0 
  9 35  1  0  0  0  0 
  9 36  1  0  0  0  0 
 10 37  1  0  0  0  0 
 10 38  1  0  0  0  0 
 12 39  1  0  0  0  0 
 12 40  1  0  0  0  0 
 13 41  1  0  0  0  0 
 13 42  1  0  0  0  0 
 16 43  1  0  0  0  0 
 16 44  1  0  0  0  0 
 18 45  1  0  0  0  0 
 18 46  1  0  0  0  0 
 18 47  1  0  0  0  0 
 19 48  1  0  0  0  0 
 20 49  1  0  0  0  0 
 20 50  1  0  0  0  0 
 21 51  1  0  0  0  0 
M  END
> <cdk:Title>
androstanolone

> <Conformer>
1

> <SuperDrugID>
SD003300

$$$$
