acotiamide
  CDK     0628171802

 61 62  0  0  0  0  0  0  0  0999 V2000
    6.7387    0.9860   -0.8344 C   0  0  0  0  0  0  0  0  0  0  0  0
    7.9546    0.6495   -1.4620 C   0  0  0  0  0  0  0  0  0  0  0  0
    7.9604    0.2676   -2.8179 C   0  0  0  0  0  0  0  0  0  0  0  0
    6.7410    0.1733   -3.5115 C   0  0  0  0  0  0  0  0  0  0  0  0
    5.5259    0.5014   -2.8806 C   0  0  0  0  0  0  0  0  0  0  0  0
    5.4973    0.9263   -1.5220 C   0  0  0  0  0  0  0  0  0  0  0  0
    4.4113    0.4124   -3.6518 O   0  0  0  0  0  0  0  0  0  0  0  0
    9.1366   -0.0338   -3.4521 O   0  0  0  0  0  0  0  0  0  0  0  0
    9.7087    1.1026   -4.1279 C   0  0  0  0  0  0  0  0  0  0  0  0
    9.1272    0.7242   -0.7590 O   0  0  0  0  0  0  0  0  0  0  0  0
    9.4748   -0.5155   -0.1167 C   0  0  0  0  0  0  0  0  0  0  0  0
    4.2797    1.2857   -0.8585 C   0  0  0  0  0  0  0  0  0  0  0  0
    3.1786    0.8943   -1.3159 O   0  0  0  0  0  0  0  0  0  0  0  0
    4.2856    2.0429    0.2797 N   0  0  0  0  0  0  0  0  0  0  0  0
    3.2085    2.4561    0.9926 C   0  0  0  0  0  0  0  0  0  0  0  0
    3.3206    3.2361    2.5585 S   0  0  0  0  0  0  0  0  0  0  0  0
    1.5909    3.3812    2.7834 C   0  0  0  0  0  0  0  0  0  0  0  0
    0.9986    2.8465    1.6264 C   0  0  0  0  0  0  0  0  0  0  0  0
    1.8861    2.3673    0.7049 N   0  0  0  0  0  0  0  0  0  0  0  0
   -0.3998    2.7918    1.4218 C   0  0  0  0  0  0  0  0  0  0  0  0
   -1.1706    3.0743    2.3705 O   0  0  0  0  0  0  0  0  0  0  0  0
   -0.9042    2.4284    0.2075 N   0  0  0  0  0  0  0  0  0  0  0  0
   -2.2904    2.2675   -0.1203 C   0  0  2  0  0  0  0  0  0  0  0  0
   -2.7574    3.2766   -1.2047 C   0  0  1  0  0  0  0  0  0  0  0  0
   -4.2642    3.2810   -1.3392 N   0  0  0  0  0  0  0  0  0  0  0  0
   -4.8303    2.5197   -2.5323 C   0  0  1  0  0  0  0  0  0  0  0  0
   -4.9461    4.5612   -0.8966 C   0  0  1  0  0  0  0  0  0  0  0  0
   -4.3428    1.0378   -2.5674 C   0  0  0  0  0  0  0  0  0  0  0  0
   -6.3899    2.4977   -2.6320 C   0  0  0  0  0  0  0  0  0  0  0  0
   -4.6673    4.9086    0.5948 C   0  0  0  0  0  0  0  0  0  0  0  0
   -4.6632    5.7702   -1.8340 C   0  0  0  0  0  0  0  0  0  0  0  0
    6.7793    1.2728    0.1451 H   0  0  0  0  0  0  0  0  0  0  0  0
    6.7437   -0.1279   -4.4879 H   0  0  0  0  0  0  0  0  0  0  0  0
    3.7779   -0.1239   -3.1327 H   0  0  0  0  0  0  0  0  0  0  0  0
   10.6284    0.7864   -4.6230 H   0  0  0  0  0  0  0  0  0  0  0  0
    9.0309    1.4932   -4.8924 H   0  0  0  0  0  0  0  0  0  0  0  0
    9.9606    1.9011   -3.4238 H   0  0  0  0  0  0  0  0  0  0  0  0
   10.4299   -0.3776    0.3902 H   0  0  0  0  0  0  0  0  0  0  0  0
    8.7299   -0.7975    0.6320 H   0  0  0  0  0  0  0  0  0  0  0  0
    9.5886   -1.3248   -0.8430 H   0  0  0  0  0  0  0  0  0  0  0  0
    5.1502    2.3157    0.6233 H   0  0  0  0  0  0  0  0  0  0  0  0
    1.1192    3.7821    3.5973 H   0  0  0  0  0  0  0  0  0  0  0  0
   -0.2655    2.2473   -0.4999 H   0  0  0  0  0  0  0  0  0  0  0  0
   -2.9282    2.3595    0.7603 H   0  0  0  0  0  0  0  0  0  0  0  0
   -2.4056    1.2512   -0.4912 H   0  0  0  0  0  0  0  0  0  0  0  0
   -2.3747    4.2592   -0.9234 H   0  0  0  0  0  0  0  0  0  0  0  0
   -2.2757    3.0456   -2.1597 H   0  0  0  0  0  0  0  0  0  0  0  0
   -4.4682    3.0023   -3.4463 H   0  0  0  0  0  0  0  0  0  0  0  0
   -6.0264    4.4098   -0.9121 H   0  0  0  0  0  0  0  0  0  0  0  0
   -3.2632    0.9814   -2.7034 H   0  0  0  0  0  0  0  0  0  0  0  0
   -4.6136    0.5304   -1.6390 H   0  0  0  0  0  0  0  0  0  0  0  0
   -4.7879    0.4905   -3.4000 H   0  0  0  0  0  0  0  0  0  0  0  0
   -6.8255    2.1633   -1.6880 H   0  0  0  0  0  0  0  0  0  0  0  0
   -6.7773    3.4887   -2.8732 H   0  0  0  0  0  0  0  0  0  0  0  0
   -6.7348    1.8289   -3.4251 H   0  0  0  0  0  0  0  0  0  0  0  0
   -5.3728    5.6642    0.9493 H   0  0  0  0  0  0  0  0  0  0  0  0
   -3.6571    5.2968    0.7370 H   0  0  0  0  0  0  0  0  0  0  0  0
   -4.7900    4.0170    1.2139 H   0  0  0  0  0  0  0  0  0  0  0  0
   -5.2718    6.6283   -1.5408 H   0  0  0  0  0  0  0  0  0  0  0  0
   -4.9091    5.5159   -2.8661 H   0  0  0  0  0  0  0  0  0  0  0  0
   -3.6140    6.0672   -1.7939 H   0  0  0  0  0  0  0  0  0  0  0  0
  1  2  2  0  0  0  0 
  1  6  1  0  0  0  0 
  2  3  1  0  0  0  0 
  3  4  2  0  0  0  0 
  4  5  1  0  0  0  0 
  5  6  2  0  0  0  0 
  5  7  1  0  0  0  0 
  3  8  1  0  0  0  0 
  8  9  1  0  0  0  0 
  2 10  1  0  0  0  0 
 10 11  1  0  0  0  0 
  6 12  1  0  0  0  0 
 12 13  2  0  0  0  0 
 12 14  1  0  0  0  0 
 14 15  1  0  0  0  0 
 16 17  1  0  0  0  0 
 17 18  2  0  0  0  0 
 18 19  1  0  0  0  0 
 15 16  1  0  0  0  0 
 15 19  2  0  0  0  0 
 18 20  1  0  0  0  0 
 20 21  2  0  0  0  0 
 20 22  1  0  0  0  0 
 22 23  1  0  0  0  0 
 23 24  1  0  0  0  0 
 24 25  1  0  0  0  0 
 25 26  1  0  0  0  0 
 25 27  1  0  0  0  0 
 26 28  1  0  0  0  0 
 26 29  1  0  0  0  0 
 27 30  1  0  0  0  0 
 27 31  1  0  0  0  0 
  1 32  1  0  0  0  0 
  4 33  1  0  0  0  0 
  7 34  1  0  0  0  0 
  9 35  1  0  0  0  0 
  9 36  1  0  0  0  0 
  9 37  1  0  0  0  0 
 11 38  1  0  0  0  0 
 11 39  1  0  0  0  0 
 11 40  1  0  0  0  0 
 14 41  1  0  0  0  0 
 17 42  1  0  0  0  0 
 22 43  1  0  0  0  0 
 23 44  1  0  0  0  0 
 23 45  1  0  0  0  0 
 24 46  1  0  0  0  0 
 24 47  1  0  0  0  0 
 26 48  1  0  0  0  0 
 27 49  1  0  0  0  0 
 28 50  1  0  0  0  0 
 28 51  1  0  0  0  0 
 28 52  1  0  0  0  0 
 29 53  1  0  0  0  0 
 29 54  1  0  0  0  0 
 29 55  1  0  0  0  0 
 30 56  1  0  0  0  0 
 30 57  1  0  0  0  0 
 30 58  1  0  0  0  0 
 31 59  1  0  0  0  0 
 31 60  1  0  0  0  0 
 31 61  1  0  0  0  0 
M  END
> <cdk:Title>
acotiamide

> <Conformer>
1

> <SuperDrugID>
SD003843

$$$$
