cyamemazine
  CDK     0628171802

 44 46  0  0  0  0  0  0  0  0999 V2000
    0.0627   -8.4013    1.8922 C   0  0  0  0  0  0  0  0  0  0  0  0
    0.3510   -7.0813    1.1188 C   0  0  1  0  0  0  0  0  0  0  0  0
   -0.9415   -6.5830    0.3870 C   0  0  2  0  0  0  0  0  0  0  0  0
   -0.6552   -5.6738   -0.7722 N   0  0  1  0  0  0  0  0  0  0  0  0
   -0.2811   -6.3955   -2.0256 C   0  0  0  0  0  0  0  0  0  0  0  0
   -1.7221   -4.6616   -1.0162 C   0  0  0  0  0  0  0  0  0  0  0  0
    0.9604   -5.9998    2.0798 C   0  0  2  0  0  0  0  0  0  0  0  0
    1.6258   -4.8770    1.4265 N   0  0  0  0  0  0  0  0  0  0  0  0
    1.2457   -3.5694    1.7104 C   0  0  0  0  0  0  0  0  0  0  0  0
    1.0197   -3.1351    3.0409 C   0  0  0  0  0  0  0  0  0  0  0  0
    0.6000   -1.8208    3.3151 C   0  0  0  0  0  0  0  0  0  0  0  0
    0.4188   -0.9064    2.2633 C   0  0  0  0  0  0  0  0  0  0  0  0
    0.6693   -1.3015    0.9390 C   0  0  0  0  0  0  0  0  0  0  0  0
    1.0990   -2.6155    0.6698 C   0  0  0  0  0  0  0  0  0  0  0  0
    1.5370   -3.0740   -0.9729 S   0  0  0  0  0  0  0  0  0  0  0  0
    2.7083   -4.3596   -0.7008 C   0  0  0  0  0  0  0  0  0  0  0  0
    2.6523   -5.0970    0.5098 C   0  0  0  0  0  0  0  0  0  0  0  0
    3.6810   -6.0413    0.7551 C   0  0  0  0  0  0  0  0  0  0  0  0
    4.7152   -6.2594   -0.1813 C   0  0  0  0  0  0  0  0  0  0  0  0
    4.7187   -5.5443   -1.3964 C   0  0  0  0  0  0  0  0  0  0  0  0
    3.7112   -4.6018   -1.6578 C   0  0  0  0  0  0  0  0  0  0  0  0
    5.6669   -7.1115    0.0780 C   0  0  0  0  0  0  0  0  0  0  0  0
    6.5059   -7.8601    0.3107 N   0  0  0  0  0  0  0  0  0  0  0  0
   -0.7252   -8.2501    2.6317 H   0  0  0  0  0  0  0  0  0  0  0  0
    0.9619   -8.7532    2.4039 H   0  0  0  0  0  0  0  0  0  0  0  0
   -0.2520   -9.1862    1.1991 H   0  0  0  0  0  0  0  0  0  0  0  0
    1.1000   -7.3459    0.3717 H   0  0  0  0  0  0  0  0  0  0  0  0
   -1.5655   -6.0801    1.1333 H   0  0  0  0  0  0  0  0  0  0  0  0
   -1.5298   -7.4377    0.0339 H   0  0  0  0  0  0  0  0  0  0  0  0
    0.0483   -5.6846   -2.7843 H   0  0  0  0  0  0  0  0  0  0  0  0
    0.5443   -7.0864   -1.8553 H   0  0  0  0  0  0  0  0  0  0  0  0
   -1.1301   -6.9605   -2.4196 H   0  0  0  0  0  0  0  0  0  0  0  0
   -1.4378   -3.9949   -1.8314 H   0  0  0  0  0  0  0  0  0  0  0  0
   -2.6726   -5.1380   -1.2673 H   0  0  0  0  0  0  0  0  0  0  0  0
   -1.8585   -4.0457   -0.1260 H   0  0  0  0  0  0  0  0  0  0  0  0
    1.6837   -6.4700    2.7483 H   0  0  0  0  0  0  0  0  0  0  0  0
    0.1479   -5.6634    2.7302 H   0  0  0  0  0  0  0  0  0  0  0  0
    1.1736   -3.7719    3.8263 H   0  0  0  0  0  0  0  0  0  0  0  0
    0.4309   -1.5279    4.2796 H   0  0  0  0  0  0  0  0  0  0  0  0
    0.1158    0.0501    2.4609 H   0  0  0  0  0  0  0  0  0  0  0  0
    0.5497   -0.6247    0.1817 H   0  0  0  0  0  0  0  0  0  0  0  0
    3.6844   -6.5673    1.6340 H   0  0  0  0  0  0  0  0  0  0  0  0
    5.4531   -5.6924   -2.0960 H   0  0  0  0  0  0  0  0  0  0  0  0
    3.7247   -4.0818   -2.5376 H   0  0  0  0  0  0  0  0  0  0  0  0
  2  1  1  0  0  0  0 
  2  3  1  0  0  0  0 
  3  4  1  0  0  0  0 
  4  5  1  0  0  0  0 
  4  6  1  0  0  0  0 
  2  7  1  0  0  0  0 
  7  8  1  0  0  0  0 
  8  9  1  0  0  0  0 
  9 10  2  0  0  0  0 
 10 11  1  0  0  0  0 
 11 12  2  0  0  0  0 
 12 13  1  0  0  0  0 
 13 14  2  0  0  0  0 
  9 14  1  0  0  0  0 
 14 15  1  0  0  0  0 
 15 16  1  0  0  0  0 
 16 17  2  0  0  0  0 
  8 17  1  0  0  0  0 
 17 18  1  0  0  0  0 
 18 19  2  0  0  0  0 
 19 20  1  0  0  0  0 
 20 21  2  0  0  0  0 
 16 21  1  0  0  0  0 
 19 22  1  0  0  0  0 
 22 23  3  0  0  0  0 
  1 24  1  0  0  0  0 
  1 25  1  0  0  0  0 
  1 26  1  0  0  0  0 
  2 27  1  0  0  0  0 
  3 28  1  0  0  0  0 
  3 29  1  0  0  0  0 
  5 30  1  0  0  0  0 
  5 31  1  0  0  0  0 
  5 32  1  0  0  0  0 
  6 33  1  0  0  0  0 
  6 34  1  0  0  0  0 
  6 35  1  0  0  0  0 
  7 36  1  0  0  0  0 
  7 37  1  0  0  0  0 
 10 38  1  0  0  0  0 
 11 39  1  0  0  0  0 
 12 40  1  0  0  0  0 
 13 41  1  0  0  0  0 
 18 42  1  0  0  0  0 
 20 43  1  0  0  0  0 
 21 44  1  0  0  0  0 
M  END
> <cdk:Title>
cyamemazine

> <Conformer>
1

> <SuperDrugID>
SD000656

$$$$
