isovaleryl diethylamide
  CDK     0628171801

 30 29  0  0  0  0  0  0  0  0999 V2000
    1.4902   -1.2697    0.6336 C   0  0  0  0  0  0  0  0  0  0  0  0
    1.4170   -0.0691   -0.3404 C   0  0  1  0  0  0  0  0  0  0  0  0
    1.8502   -0.3749   -1.6949 N   0  0  0  0  0  0  0  0  0  0  0  0
    3.2857   -0.5085   -1.9220 C   0  0  2  0  0  0  0  0  0  0  0  0
    3.9166    0.7945   -2.4682 C   0  0  0  0  0  0  0  0  0  0  0  0
    0.9717   -0.4581   -2.7809 C   0  0  0  0  0  0  0  0  0  0  0  0
    1.4415   -0.6521   -3.9301 O   0  0  0  0  0  0  0  0  0  0  0  0
   -0.5181   -0.3314   -2.7497 C   0  0  2  0  0  0  0  0  0  0  0  0
   -1.2835   -1.5543   -2.1456 C   0  0  1  0  0  0  0  0  0  0  0  0
   -2.8218   -1.3214   -2.1879 C   0  0  0  0  0  0  0  0  0  0  0  0
   -0.9124   -2.8949   -2.8425 C   0  0  0  0  0  0  0  0  0  0  0  0
    0.9604   -2.1330    0.2261 H   0  0  0  0  0  0  0  0  0  0  0  0
    2.5246   -1.5559    0.8279 H   0  0  0  0  0  0  0  0  0  0  0  0
    1.0364   -0.9923    1.5882 H   0  0  0  0  0  0  0  0  0  0  0  0
    0.4006    0.3189   -0.3066 H   0  0  0  0  0  0  0  0  0  0  0  0
    2.0400    0.7327    0.0637 H   0  0  0  0  0  0  0  0  0  0  0  0
    3.4882   -1.3227   -2.6250 H   0  0  0  0  0  0  0  0  0  0  0  0
    3.8202   -0.7691   -1.0038 H   0  0  0  0  0  0  0  0  0  0  0  0
    4.9891    0.6528   -2.6167 H   0  0  0  0  0  0  0  0  0  0  0  0
    3.7700    1.6075   -1.7555 H   0  0  0  0  0  0  0  0  0  0  0  0
    3.4696    1.0761   -3.4240 H   0  0  0  0  0  0  0  0  0  0  0  0
   -0.8909   -0.1880   -3.7697 H   0  0  0  0  0  0  0  0  0  0  0  0
   -0.7833    0.5817   -2.2135 H   0  0  0  0  0  0  0  0  0  0  0  0
   -1.0124   -1.6460   -1.0918 H   0  0  0  0  0  0  0  0  0  0  0  0
   -3.0768   -0.4017   -1.6586 H   0  0  0  0  0  0  0  0  0  0  0  0
   -3.1821   -1.2400   -3.2165 H   0  0  0  0  0  0  0  0  0  0  0  0
   -3.3499   -2.1440   -1.7013 H   0  0  0  0  0  0  0  0  0  0  0  0
   -1.1169   -2.8446   -3.9136 H   0  0  0  0  0  0  0  0  0  0  0  0
    0.1466   -3.1146   -2.6999 H   0  0  0  0  0  0  0  0  0  0  0  0
   -1.4834   -3.7237   -2.4179 H   0  0  0  0  0  0  0  0  0  0  0  0
  1  2  1  0  0  0  0 
  2  3  1  0  0  0  0 
  3  4  1  0  0  0  0 
  4  5  1  0  0  0  0 
  3  6  1  0  0  0  0 
  6  7  2  0  0  0  0 
  6  8  1  0  0  0  0 
  8  9  1  0  0  0  0 
  9 10  1  0  0  0  0 
  9 11  1  0  0  0  0 
  1 12  1  0  0  0  0 
  1 13  1  0  0  0  0 
  1 14  1  0  0  0  0 
  2 15  1  0  0  0  0 
  2 16  1  0  0  0  0 
  4 17  1  0  0  0  0 
  4 18  1  0  0  0  0 
  5 19  1  0  0  0  0 
  5 20  1  0  0  0  0 
  5 21  1  0  0  0  0 
  8 22  1  0  0  0  0 
  8 23  1  0  0  0  0 
  9 24  1  0  0  0  0 
 10 25  1  0  0  0  0 
 10 26  1  0  0  0  0 
 10 27  1  0  0  0  0 
 11 28  1  0  0  0  0 
 11 29  1  0  0  0  0 
 11 30  1  0  0  0  0 
M  END
> <cdk:Title>
isovaleryl diethylamide

> <Conformer>
1

> <SuperDrugID>
SD003213

$$$$
