mazipredone
  CDK     0628171801

 70 74  0  0  0  0  0  0  0  0999 V2000
    4.6612    0.0513   -0.0258 C   0  0  0  0  0  0  0  0  0  0  0  0
    3.9713   -0.9395    0.9964 C   0  0  2  0  0  0  0  0  0  0  0  0
    4.9340   -2.0287    1.5886 C   0  0  2  0  0  0  0  0  0  0  0  0
    2.9298   -1.8397    0.2140 C   0  0  2  0  0  0  0  0  0  0  0  0
    3.4245   -0.1528    2.2427 C   0  0  2  0  0  0  0  0  0  0  0  0
    6.1722   -1.4331    2.3418 C   0  0  1  0  0  0  0  0  0  0  0  0
    5.1782   -2.9866    0.4081 C   0  0  1  0  0  0  0  0  0  0  0  0
    2.0560   -1.1571   -0.8143 C   0  0  0  0  0  0  0  0  0  0  0  0
    2.0248   -2.4605    1.1382 O   0  0  0  0  0  0  0  0  0  0  0  0
    3.8385   -2.9849   -0.3697 C   0  0  2  0  0  0  0  0  0  0  0  0
    4.5403    0.4864    3.1313 C   0  0  1  0  0  0  0  0  0  0  0  0
    5.7099   -0.5005    3.5312 C   0  0  2  0  0  0  0  0  0  0  0  0
    7.1513   -2.5314    2.8697 C   0  0  1  0  0  0  0  0  0  0  0  0
    1.0758   -0.0791   -0.5055 C   0  0  2  0  0  0  0  0  0  0  0  0
    2.1291   -1.4873   -2.0229 O   0  0  0  0  0  0  0  0  0  0  0  0
    4.9993    1.6846    2.5131 O   0  0  0  0  0  0  0  0  0  0  0  0
    6.9481    0.1214    4.3267 C   0  0  2  0  0  0  0  0  0  0  0  0
    8.3508   -1.8999    3.6209 C   0  0  2  0  0  0  0  0  0  0  0  0
   -0.0070   -0.4972    0.4377 N   0  0  1  0  0  0  0  0  0  0  0  0
    7.7798    1.1825    3.5136 C   0  0  0  0  0  0  0  0  0  0  0  0
    7.8772   -1.0039    4.6845 C   0  0  0  0  0  0  0  0  0  0  0  0
    6.4635    0.8478    5.5290 C   0  0  0  0  0  0  0  0  0  0  0  0
   -0.7197    0.6551    1.0758 C   0  0  1  0  0  0  0  0  0  0  0  0
   -0.9751   -1.4798   -0.1438 C   0  0  1  0  0  0  0  0  0  0  0  0
    8.2608   -1.2198    5.9638 C   0  0  0  0  0  0  0  0  0  0  0  0
    6.8716    0.5686    6.7775 C   0  0  0  0  0  0  0  0  0  0  0  0
   -1.7126    0.1600    2.1565 C   0  0  1  0  0  0  0  0  0  0  0  0
   -1.9018   -2.0160    0.9705 C   0  0  2  0  0  0  0  0  0  0  0  0
    7.7873   -0.4396    7.0067 C   0  0  0  0  0  0  0  0  0  0  0  0
   -2.6344   -0.8798    1.6054 N   0  0  1  0  0  0  0  0  0  0  0  0
    8.1754   -0.6581    8.1780 O   0  0  0  0  0  0  0  0  0  0  0  0
   -3.6674   -1.3208    2.5840 C   0  0  0  0  0  0  0  0  0  0  0  0
    6.7465   -0.8467    1.6268 H   0  0  0  0  0  0  0  0  0  0  0  0
    5.2265   -1.1794    4.2445 H   0  0  0  0  0  0  0  0  0  0  0  0
    4.3919   -2.6258    2.3372 H   0  0  0  0  0  0  0  0  0  0  0  0
    3.9752    0.8524   -0.2992 H   0  0  0  0  0  0  0  0  0  0  0  0
    4.9628   -0.4580   -0.9451 H   0  0  0  0  0  0  0  0  0  0  0  0
    5.5484    0.5311    0.3829 H   0  0  0  0  0  0  0  0  0  0  0  0
    2.8433   -0.8238    2.8814 H   0  0  0  0  0  0  0  0  0  0  0  0
    2.7358    0.6288    1.9273 H   0  0  0  0  0  0  0  0  0  0  0  0
    5.9947   -2.6111   -0.2156 H   0  0  0  0  0  0  0  0  0  0  0  0
    5.4373   -3.9914    0.7536 H   0  0  0  0  0  0  0  0  0  0  0  0
    1.4462   -3.0370    0.5965 H   0  0  0  0  0  0  0  0  0  0  0  0
    4.0742   -2.8312   -1.4262 H   0  0  0  0  0  0  0  0  0  0  0  0
    3.3480   -3.9591   -0.2883 H   0  0  0  0  0  0  0  0  0  0  0  0
    4.0446    0.8132    4.0485 H   0  0  0  0  0  0  0  0  0  0  0  0
    6.6285   -3.2214    3.5396 H   0  0  0  0  0  0  0  0  0  0  0  0
    7.5421   -3.1149    2.0328 H   0  0  0  0  0  0  0  0  0  0  0  0
    0.6166    0.3005   -1.4264 H   0  0  0  0  0  0  0  0  0  0  0  0
    1.6329    0.7569   -0.0882 H   0  0  0  0  0  0  0  0  0  0  0  0
    4.2197    2.2812    2.4980 H   0  0  0  0  0  0  0  0  0  0  0  0
    8.9660   -1.3355    2.9156 H   0  0  0  0  0  0  0  0  0  0  0  0
    8.9835   -2.7099    4.0001 H   0  0  0  0  0  0  0  0  0  0  0  0
    8.7137    1.4184    4.0325 H   0  0  0  0  0  0  0  0  0  0  0  0
    8.0403    0.8264    2.5171 H   0  0  0  0  0  0  0  0  0  0  0  0
    7.2462    2.1253    3.3892 H   0  0  0  0  0  0  0  0  0  0  0  0
    5.8213    1.5995    5.4147 H   0  0  0  0  0  0  0  0  0  0  0  0
   -0.0019    1.3227    1.5606 H   0  0  0  0  0  0  0  0  0  0  0  0
   -1.2616    1.2360    0.3220 H   0  0  0  0  0  0  0  0  0  0  0  0
   -1.5827   -1.0082   -0.9239 H   0  0  0  0  0  0  0  0  0  0  0  0
   -0.4533   -2.3282   -0.5921 H   0  0  0  0  0  0  0  0  0  0  0  0
    8.8927   -1.9557    6.1830 H   0  0  0  0  0  0  0  0  0  0  0  0
    6.5128    1.1025    7.5392 H   0  0  0  0  0  0  0  0  0  0  0  0
   -1.1446   -0.2414    3.0024 H   0  0  0  0  0  0  0  0  0  0  0  0
   -2.2909    1.0193    2.5099 H   0  0  0  0  0  0  0  0  0  0  0  0
   -1.3022   -2.5553    1.7121 H   0  0  0  0  0  0  0  0  0  0  0  0
   -2.6076   -2.7208    0.5216 H   0  0  0  0  0  0  0  0  0  0  0  0
   -4.2468   -0.4618    2.9301 H   0  0  0  0  0  0  0  0  0  0  0  0
   -4.3642   -2.0165    2.1110 H   0  0  0  0  0  0  0  0  0  0  0  0
   -3.2119   -1.8113    3.4488 H   0  0  0  0  0  0  0  0  0  0  0  0
  2  1  1  0  0  0  0 
  3  2  1  0  0  0  0 
  2  4  1  0  0  0  0 
  2  5  1  0  0  0  0 
  6  3  1  0  0  0  0 
  3  7  1  0  0  0  0 
  3 35  1  0  0  0  0 
  4  8  1  0  0  0  0 
  4  9  1  0  0  0  0 
  4 10  1  0  0  0  0 
 11  5  1  0  0  0  0 
 12  6  1  0  0  0  0 
  6 13  1  0  0  0  0 
  6 33  1  0  0  0  0 
  7 10  1  0  0  0  0 
  8 14  1  0  0  0  0 
  8 15  2  0  0  0  0 
 12 11  1  0  0  0  0 
 11 16  1  0  0  0  0 
 12 17  1  0  0  0  0 
 12 34  1  0  0  0  0 
 13 18  1  0  0  0  0 
 14 19  1  0  0  0  0 
 17 20  1  0  0  0  0 
 17 21  1  0  0  0  0 
 17 22  1  0  0  0  0 
 18 21  1  0  0  0  0 
 19 23  1  0  0  0  0 
 19 24  1  0  0  0  0 
 21 25  2  0  0  0  0 
 22 26  2  0  0  0  0 
 23 27  1  0  0  0  0 
 24 28  1  0  0  0  0 
 25 29  1  0  0  0  0 
 26 29  1  0  0  0  0 
 27 30  1  0  0  0  0 
 28 30  1  0  0  0  0 
 29 31  2  0  0  0  0 
 30 32  1  0  0  0  0 
  1 36  1  0  0  0  0 
  1 37  1  0  0  0  0 
  1 38  1  0  0  0  0 
  5 39  1  0  0  0  0 
  5 40  1  0  0  0  0 
  7 41  1  0  0  0  0 
  7 42  1  0  0  0  0 
  9 43  1  0  0  0  0 
 10 44  1  0  0  0  0 
 10 45  1  0  0  0  0 
 11 46  1  0  0  0  0 
 13 47  1  0  0  0  0 
 13 48  1  0  0  0  0 
 14 49  1  0  0  0  0 
 14 50  1  0  0  0  0 
 16 51  1  0  0  0  0 
 18 52  1  0  0  0  0 
 18 53  1  0  0  0  0 
 20 54  1  0  0  0  0 
 20 55  1  0  0  0  0 
 20 56  1  0  0  0  0 
 22 57  1  0  0  0  0 
 23 58  1  0  0  0  0 
 23 59  1  0  0  0  0 
 24 60  1  0  0  0  0 
 24 61  1  0  0  0  0 
 25 62  1  0  0  0  0 
 26 63  1  0  0  0  0 
 27 64  1  0  0  0  0 
 27 65  1  0  0  0  0 
 28 66  1  0  0  0  0 
 28 67  1  0  0  0  0 
 32 68  1  0  0  0  0 
 32 69  1  0  0  0  0 
 32 70  1  0  0  0  0 
M  END
> <cdk:Title>
mazipredone

> <Conformer>
1

> <SuperDrugID>
SD002875

$$$$
