saralasin
  CDK     0628171801

130132  0  0  0  0  0  0  0  0999 V2000
   -3.9792   -2.7577   -1.9826 C   0  0  0  0  0  0  0  0  0  0  0  0
   -2.9791   -2.9586   -1.0761 N   0  0  0  0  0  0  0  0  0  0  0  0
   -1.5443   -5.2375    0.2667 N   0  0  0  0  0  0  0  0  0  0  0  0
   -1.5106   -5.3804    3.7753 N   0  0  0  0  0  0  0  0  0  0  0  0
   -1.5272   -7.6900    5.7555 N   0  0  0  0  0  0  0  0  0  0  0  0
   -2.5659  -10.2776    8.1267 N   0  0  0  0  0  0  0  0  0  0  0  0
   -4.9997  -12.1722    8.1043 N   0  0  0  0  0  0  0  0  0  0  0  0
   -6.9290  -13.2940    5.4141 N   0  0  0  0  0  0  0  0  0  0  0  0
   -9.6704  -13.4132    5.1861 O   0  0  0  0  0  0  0  0  0  0  0  0
   -3.7608   -2.7127   -3.2173 O   0  0  0  0  0  0  0  0  0  0  0  0
   -5.3648   -2.6203   -1.4985 C   0  0  1  0  0  0  0  0  0  0  0  0
   -5.4791   -1.4605   -0.5886 N   0  0  2  0  0  0  0  0  0  0  0  0
   -6.7849   -1.3535    0.0881 C   0  0  0  0  0  0  0  0  0  0  0  0
   -1.3180   -4.6530   -0.9493 C   0  0  0  0  0  0  0  0  0  0  0  0
   -0.5938   -2.2279   -0.7450 C   0  0  2  0  0  0  0  0  0  0  0  0
   -0.9373   -0.7397   -1.0297 C   0  0  2  0  0  0  0  0  0  0  0  0
    0.2052    0.2191   -0.6063 C   0  0  2  0  0  0  0  0  0  0  0  0
   -0.1650    1.5540   -0.7710 N   0  0  0  0  0  0  0  0  0  0  0  0
    0.5413    2.6073   -0.5558 C   0  0  0  0  0  0  0  0  0  0  0  0
   -0.0173    3.7785   -0.7693 N   0  0  0  0  0  0  0  0  0  0  0  0
    1.7927    2.5764   -0.1305 N   0  0  0  0  0  0  0  0  0  0  0  0
   -1.6016   -3.2467   -1.3613 C   0  0  2  0  0  0  0  0  0  0  0  0
   -0.8505   -5.4320   -1.8106 O   0  0  0  0  0  0  0  0  0  0  0  0
   -1.0968   -4.9177    2.5686 C   0  0  0  0  0  0  0  0  0  0  0  0
   -4.3053   -4.2141    2.7714 C   0  0  0  0  0  0  0  0  0  0  0  0
   -2.0630   -4.6443    1.4700 C   0  0  2  0  0  0  0  0  0  0  0  0
   -3.8405   -6.5687    1.8316 C   0  0  0  0  0  0  0  0  0  0  0  0
   -3.5752   -5.0434    1.6698 C   0  0  1  0  0  0  0  0  0  0  0  0
    0.1158   -4.6550    2.3794 O   0  0  0  0  0  0  0  0  0  0  0  0
   -1.6332   -6.3278    5.8373 C   0  0  0  0  0  0  0  0  0  0  0  0
   -0.4651   -4.0467    5.5305 C   0  0  1  0  0  0  0  0  0  0  0  0
    0.4079   -3.9510    6.7336 C   0  0  0  0  0  0  0  0  0  0  0  0
    1.7731   -4.3175    6.6633 C   0  0  0  0  0  0  0  0  0  0  0  0
    2.6259   -4.1365    7.7678 C   0  0  0  0  0  0  0  0  0  0  0  0
    2.1288   -3.5883    8.9656 C   0  0  0  0  0  0  0  0  0  0  0  0
    2.9476   -3.3931   10.0301 O   0  0  0  0  0  0  0  0  0  0  0  0
    0.7688   -3.2423    9.0575 C   0  0  0  0  0  0  0  0  0  0  0  0
   -0.0844   -3.4244    7.9528 C   0  0  0  0  0  0  0  0  0  0  0  0
   -0.7554   -5.4845    4.9887 C   0  0  2  0  0  0  0  0  0  0  0  0
   -2.5712   -5.7918    6.4764 O   0  0  0  0  0  0  0  0  0  0  0  0
   -2.5582   -9.0847    7.4525 C   0  0  0  0  0  0  0  0  0  0  0  0
   -4.1080  -10.1176    4.4637 C   0  0  0  0  0  0  0  0  0  0  0  0
   -2.5955   -8.6312    6.0172 C   0  0  2  0  0  0  0  0  0  0  0  0
   -1.5344  -10.5894    4.5318 C   0  0  0  0  0  0  0  0  0  0  0  0
   -2.6820   -9.5546    4.7408 C   0  0  1  0  0  0  0  0  0  0  0  0
   -2.5561   -8.1470    8.2854 O   0  0  0  0  0  0  0  0  0  0  0  0
   -3.8184  -12.2606    7.3826 C   0  0  0  0  0  0  0  0  0  0  0  0
   -1.7689  -12.4536    8.8597 C   0  0  2  0  0  0  0  0  0  0  0  0
   -1.6160  -13.8964    8.5672 C   0  0  0  0  0  0  0  0  0  0  0  0
   -0.4628  -14.5718    8.1771 C   0  0  0  0  0  0  0  0  0  0  0  0
   -0.7580  -15.8690    7.9951 N   0  0  0  0  0  0  0  0  0  0  0  0
   -2.0678  -16.0042    8.2639 C   0  0  0  0  0  0  0  0  0  0  0  0
   -2.5863  -14.8204    8.6174 N   0  0  0  0  0  0  0  0  0  0  0  0
   -2.4988  -11.6507    7.7339 C   0  0  2  0  0  0  0  0  0  0  0  0
   -3.8106  -12.9719    6.3481 O   0  0  0  0  0  0  0  0  0  0  0  0
   -6.7823  -12.4331    6.4640 C   0  0  0  0  0  0  0  0  0  0  0  0
   -6.1927  -12.9073    7.7464 C   0  0  2  0  0  0  0  0  0  0  0  0
   -7.1549  -12.7421    8.9547 C   0  0  2  0  0  0  0  0  0  0  0  0
   -6.2467  -12.2035   10.0677 C   0  0  2  0  0  0  0  0  0  0  0  0
   -5.1970  -11.3977    9.2923 C   0  0  1  0  0  0  0  0  0  0  0  0
   -7.1246  -11.2301    6.3611 O   0  0  0  0  0  0  0  0  0  0  0  0
   -8.9544  -12.9466    4.1344 C   0  0  0  0  0  0  0  0  0  0  0  0
   -6.9158  -13.9396    3.0667 C   0  0  0  0  0  0  0  0  0  0  0  0
   -7.4721  -12.9549    4.1272 C   0  0  2  0  0  0  0  0  0  0  0  0
   -9.5851  -12.4965    3.1516 O   0  0  0  0  0  0  0  0  0  0  0  0
   -3.2353   -2.9330   -0.1425 H   0  0  0  0  0  0  0  0  0  0  0  0
   -1.3198   -6.1811    0.3244 H   0  0  0  0  0  0  0  0  0  0  0  0
   -2.4434   -5.6230    3.8396 H   0  0  0  0  0  0  0  0  0  0  0  0
   -0.7042   -8.0458    5.3799 H   0  0  0  0  0  0  0  0  0  0  0  0
   -2.6132  -10.1650    9.0904 H   0  0  0  0  0  0  0  0  0  0  0  0
   -6.6572  -14.2163    5.5541 H   0  0  0  0  0  0  0  0  0  0  0  0
  -10.6503  -13.3641    5.1715 H   0  0  0  0  0  0  0  0  0  0  0  0
   -6.0556   -2.4950   -2.3364 H   0  0  0  0  0  0  0  0  0  0  0  0
   -5.6345   -3.5408   -0.9765 H   0  0  0  0  0  0  0  0  0  0  0  0
   -5.3762   -0.6166   -1.1560 H   0  0  0  0  0  0  0  0  0  0  0  0
   -6.7582   -0.4840    0.7427 H   0  0  0  0  0  0  0  0  0  0  0  0
   -7.5927   -1.2199   -0.6341 H   0  0  0  0  0  0  0  0  0  0  0  0
   -6.9791   -2.2398    0.6955 H   0  0  0  0  0  0  0  0  0  0  0  0
   -0.5157   -2.3498    0.3337 H   0  0  0  0  0  0  0  0  0  0  0  0
    0.3966   -2.4442   -1.1564 H   0  0  0  0  0  0  0  0  0  0  0  0
   -1.8500   -0.4741   -0.4867 H   0  0  0  0  0  0  0  0  0  0  0  0
   -1.1229   -0.6142   -2.0992 H   0  0  0  0  0  0  0  0  0  0  0  0
    1.0874    0.0130   -1.2219 H   0  0  0  0  0  0  0  0  0  0  0  0
    0.4539    0.0444    0.4449 H   0  0  0  0  0  0  0  0  0  0  0  0
    0.4974    4.5930   -0.6469 H   0  0  0  0  0  0  0  0  0  0  0  0
   -0.9472    3.8333   -1.0465 H   0  0  0  0  0  0  0  0  0  0  0  0
    2.2330    1.7282    0.0446 H   0  0  0  0  0  0  0  0  0  0  0  0
    2.2776    3.4055    0.0124 H   0  0  0  0  0  0  0  0  0  0  0  0
   -1.4397   -3.1834   -2.4421 H   0  0  0  0  0  0  0  0  0  0  0  0
   -5.3874   -4.3000    2.6497 H   0  0  0  0  0  0  0  0  0  0  0  0
   -4.0465   -3.1553    2.6968 H   0  0  0  0  0  0  0  0  0  0  0  0
   -4.0563   -4.5651    3.7729 H   0  0  0  0  0  0  0  0  0  0  0  0
   -2.0580   -3.5601    1.3810 H   0  0  0  0  0  0  0  0  0  0  0  0
   -4.9153   -6.7703    1.8196 H   0  0  0  0  0  0  0  0  0  0  0  0
   -3.4360   -6.9499    2.7672 H   0  0  0  0  0  0  0  0  0  0  0  0
   -3.3885   -7.1212    1.0068 H   0  0  0  0  0  0  0  0  0  0  0  0
   -4.0807   -4.7660    0.7411 H   0  0  0  0  0  0  0  0  0  0  0  0
   -1.4192   -3.5389    5.7041 H   0  0  0  0  0  0  0  0  0  0  0  0
    0.0357   -3.4752    4.7451 H   0  0  0  0  0  0  0  0  0  0  0  0
    2.1611   -4.7056    5.8005 H   0  0  0  0  0  0  0  0  0  0  0  0
    3.6113   -4.3983    7.6973 H   0  0  0  0  0  0  0  0  0  0  0  0
    3.8355   -3.6836    9.7339 H   0  0  0  0  0  0  0  0  0  0  0  0
    0.3991   -2.8516    9.9281 H   0  0  0  0  0  0  0  0  0  0  0  0
   -1.0677   -3.1582    8.0441 H   0  0  0  0  0  0  0  0  0  0  0  0
    0.1828   -6.0116    4.7952 H   0  0  0  0  0  0  0  0  0  0  0  0
   -4.0442  -10.7644    3.5365 H   0  0  0  0  0  0  0  0  0  0  0  0
   -4.7526   -9.2438    4.1317 H   0  0  0  0  0  0  0  0  0  0  0  0
   -4.4626  -10.6501    5.4375 H   0  0  0  0  0  0  0  0  0  0  0  0
   -3.5363   -8.0701    5.9782 H   0  0  0  0  0  0  0  0  0  0  0  0
   -1.8890  -11.6113    4.6689 H   0  0  0  0  0  0  0  0  0  0  0  0
   -0.6996  -10.4019    5.2096 H   0  0  0  0  0  0  0  0  0  0  0  0
   -1.1493  -10.5287    3.5107 H   0  0  0  0  0  0  0  0  0  0  0  0
   -2.5435   -8.8666    3.8966 H   0  0  0  0  0  0  0  0  0  0  0  0
   -0.7724  -12.0213    8.9970 H   0  0  0  0  0  0  0  0  0  0  0  0
   -2.2894  -12.3602    9.8146 H   0  0  0  0  0  0  0  0  0  0  0  0
    0.4587  -14.1519    8.0384 H   0  0  0  0  0  0  0  0  0  0  0  0
   -2.5924  -16.8790    8.2047 H   0  0  0  0  0  0  0  0  0  0  0  0
   -3.5109  -14.6591    8.8625 H   0  0  0  0  0  0  0  0  0  0  0  0
   -1.8247  -11.7167    6.8888 H   0  0  0  0  0  0  0  0  0  0  0  0
   -5.9341  -13.9719    7.6706 H   0  0  0  0  0  0  0  0  0  0  0  0
   -7.6147  -13.6906    9.2477 H   0  0  0  0  0  0  0  0  0  0  0  0
   -7.9495  -12.0155    8.7576 H   0  0  0  0  0  0  0  0  0  0  0  0
   -5.7608  -13.0312   10.5935 H   0  0  0  0  0  0  0  0  0  0  0  0
   -6.7929  -11.5879   10.7860 H   0  0  0  0  0  0  0  0  0  0  0  0
   -4.3069  -11.2783    9.9075 H   0  0  0  0  0  0  0  0  0  0  0  0
   -5.5900  -10.4087    9.0286 H   0  0  0  0  0  0  0  0  0  0  0  0
   -5.8324  -13.8229    2.9950 H   0  0  0  0  0  0  0  0  0  0  0  0
   -7.3379  -13.7390    2.0781 H   0  0  0  0  0  0  0  0  0  0  0  0
   -7.1409  -14.9751    3.3392 H   0  0  0  0  0  0  0  0  0  0  0  0
   -7.1307  -11.9531    3.8474 H   0  0  0  0  0  0  0  0  0  0  0  0
  1  2  1  0  0  0  0 
 14  3  1  0  0  0  0 
 24  4  1  0  0  0  0 
 30  5  1  0  0  0  0 
 41  6  1  0  0  0  0 
 47  7  1  0  0  0  0 
 56  8  1  0  0  0  0 
 62  9  1  0  0  0  0 
  1 10  2  0  0  0  0 
  1 11  1  0  0  0  0 
 11 12  1  0  0  0  0 
 12 13  1  0  0  0  0 
 22  2  1  0  0  0  0 
 22 15  1  0  0  0  0 
 15 16  1  0  0  0  0 
 16 17  1  0  0  0  0 
 17 18  1  0  0  0  0 
 18 19  2  0  0  0  0 
 19 20  1  0  0  0  0 
 19 21  1  0  0  0  0 
 22 14  1  0  0  0  0 
 14 23  2  0  0  0  0 
 27 28  1  0  0  0  0 
 28 25  1  0  0  0  0 
 26 28  1  0  0  0  0 
 26  3  1  0  0  0  0 
 26 24  1  0  0  0  0 
 24 29  2  0  0  0  0 
 39  4  1  0  0  0  0 
 39 31  1  0  0  0  0 
 31 32  1  0  0  0  0 
 32 33  2  0  0  0  0 
 33 34  1  0  0  0  0 
 34 35  2  0  0  0  0 
 35 36  1  0  0  0  0 
 35 37  1  0  0  0  0 
 37 38  2  0  0  0  0 
 32 38  1  0  0  0  0 
 39 30  1  0  0  0  0 
 30 40  2  0  0  0  0 
 44 45  1  0  0  0  0 
 45 42  1  0  0  0  0 
 43 45  1  0  0  0  0 
 43  5  1  0  0  0  0 
 43 41  1  0  0  0  0 
 41 46  2  0  0  0  0 
 54  6  1  0  0  0  0 
 54 48  1  0  0  0  0 
 48 49  1  0  0  0  0 
 49 50  2  0  0  0  0 
 50 51  1  0  0  0  0 
 51 52  2  0  0  0  0 
 52 53  1  0  0  0  0 
 49 53  1  0  0  0  0 
 54 47  1  0  0  0  0 
 47 55  2  0  0  0  0 
 61 56  2  0  0  0  0 
 57 56  1  0  0  0  0 
 57 58  1  0  0  0  0 
 58 59  1  0  0  0  0 
 59 60  1  0  0  0  0 
 60  7  1  0  0  0  0 
 57  7  1  0  0  0  0 
 64 63  1  0  0  0  0 
 64  8  1  0  0  0  0 
 64 62  1  0  0  0  0 
 62 65  2  0  0  0  0 
 66  2  1  0  0  0  0 
 67  3  1  0  0  0  0 
 68  4  1  0  0  0  0 
 69  5  1  0  0  0  0 
 70  6  1  0  0  0  0 
 71  8  1  0  0  0  0 
 72  9  1  0  0  0  0 
 73 11  1  0  0  0  0 
 74 11  1  0  0  0  0 
 75 12  1  0  0  0  0 
 76 13  1  0  0  0  0 
 77 13  1  0  0  0  0 
 78 13  1  0  0  0  0 
 79 15  1  0  0  0  0 
 80 15  1  0  0  0  0 
 81 16  1  0  0  0  0 
 82 16  1  0  0  0  0 
 83 17  1  0  0  0  0 
 84 17  1  0  0  0  0 
 85 20  1  0  0  0  0 
 86 20  1  0  0  0  0 
 87 21  1  0  0  0  0 
 88 21  1  0  0  0  0 
 22 89  1  0  0  0  0 
 90 25  1  0  0  0  0 
 91 25  1  0  0  0  0 
 92 25  1  0  0  0  0 
 26 93  1  0  0  0  0 
 94 27  1  0  0  0  0 
 95 27  1  0  0  0  0 
 96 27  1  0  0  0  0 
 97 28  1  0  0  0  0 
 98 31  1  0  0  0  0 
 99 31  1  0  0  0  0 
100 33  1  0  0  0  0 
101 34  1  0  0  0  0 
102 36  1  0  0  0  0 
103 37  1  0  0  0  0 
104 38  1  0  0  0  0 
 39105  1  0  0  0  0 
106 42  1  0  0  0  0 
107 42  1  0  0  0  0 
108 42  1  0  0  0  0 
 43109  1  0  0  0  0 
110 44  1  0  0  0  0 
111 44  1  0  0  0  0 
112 44  1  0  0  0  0 
113 45  1  0  0  0  0 
114 48  1  0  0  0  0 
115 48  1  0  0  0  0 
116 50  1  0  0  0  0 
117 52  1  0  0  0  0 
118 53  1  0  0  0  0 
 54119  1  0  0  0  0 
 57120  1  0  0  0  0 
121 58  1  0  0  0  0 
122 58  1  0  0  0  0 
123 59  1  0  0  0  0 
124 59  1  0  0  0  0 
125 60  1  0  0  0  0 
126 60  1  0  0  0  0 
127 63  1  0  0  0  0 
128 63  1  0  0  0  0 
129 63  1  0  0  0  0 
 64130  1  0  0  0  0 
M  END
> <cdk:Title>
saralasin

> <Conformer>
1

> <SuperDrugID>
SD003048

$$$$
