cinacalcet
  CDK     0628171802

 48 50  0  0  0  0  0  0  0  0999 V2000
    0.1193   -0.0170   -0.0279 C   0  0  2  0  0  0  0  0  0  0  0  0
   -0.8531   -1.0373    0.4599 N   0  0  2  0  0  0  0  0  0  0  0  0
    1.1014   -0.6429   -1.0556 C   0  0  0  0  0  0  0  0  0  0  0  0
    0.8296    0.7697    1.0505 C   0  0  0  0  0  0  0  0  0  0  0  0
   -1.9491   -0.5939    1.3599 C   0  0  2  0  0  0  0  0  0  0  0  0
    1.6594    0.2087    2.0766 C   0  0  0  0  0  0  0  0  0  0  0  0
    0.6630    2.1803    1.0291 C   0  0  0  0  0  0  0  0  0  0  0  0
   -3.0208    0.2616    0.6344 C   0  0  1  0  0  0  0  0  0  0  0  0
    2.2990    1.0744    3.0245 C   0  0  0  0  0  0  0  0  0  0  0  0
    1.8998   -1.1841    2.2112 C   0  0  0  0  0  0  0  0  0  0  0  0
    1.2857    3.0180    1.9643 C   0  0  0  0  0  0  0  0  0  0  0  0
   -4.2322    0.6409    1.5300 C   0  0  2  0  0  0  0  0  0  0  0  0
    2.1016    2.4693    2.9580 C   0  0  0  0  0  0  0  0  0  0  0  0
    3.1407    0.5485    4.0324 C   0  0  0  0  0  0  0  0  0  0  0  0
    2.7423   -1.6982    3.2121 C   0  0  0  0  0  0  0  0  0  0  0  0
   -5.1688    1.5637    0.8278 C   0  0  0  0  0  0  0  0  0  0  0  0
    3.3587   -0.8337    4.1268 C   0  0  0  0  0  0  0  0  0  0  0  0
   -6.3372    1.0794    0.1959 C   0  0  0  0  0  0  0  0  0  0  0  0
   -4.8944    2.9486    0.7683 C   0  0  0  0  0  0  0  0  0  0  0  0
   -7.2317    1.9436   -0.4818 C   0  0  0  0  0  0  0  0  0  0  0  0
   -5.7716    3.8256    0.1083 C   0  0  0  0  0  0  0  0  0  0  0  0
   -8.4420    1.3704   -1.1366 C   0  0  2  0  0  0  0  0  0  0  0  0
   -6.9332    3.3280   -0.5078 C   0  0  0  0  0  0  0  0  0  0  0  0
   -9.2559    0.7964   -0.1908 F   0  0  0  0  0  0  0  0  0  0  0  0
   -8.0782    0.3999   -2.0385 F   0  0  0  0  0  0  0  0  0  0  0  0
   -9.2020    2.2846   -1.8267 F   0  0  0  0  0  0  0  0  0  0  0  0
   -0.4755    0.6619   -0.6447 H   0  0  0  0  0  0  0  0  0  0  0  0
   -0.3428   -1.7750    0.9446 H   0  0  0  0  0  0  0  0  0  0  0  0
    1.8554    0.0866   -1.3594 H   0  0  0  0  0  0  0  0  0  0  0  0
    1.6119   -1.5186   -0.6628 H   0  0  0  0  0  0  0  0  0  0  0  0
    0.5561   -0.9535   -1.9497 H   0  0  0  0  0  0  0  0  0  0  0  0
   -1.5439   -0.0490    2.2161 H   0  0  0  0  0  0  0  0  0  0  0  0
   -2.4263   -1.4991    1.7423 H   0  0  0  0  0  0  0  0  0  0  0  0
    0.0811    2.6298    0.3181 H   0  0  0  0  0  0  0  0  0  0  0  0
   -2.5517    1.1807    0.2765 H   0  0  0  0  0  0  0  0  0  0  0  0
   -3.3843   -0.2984   -0.2322 H   0  0  0  0  0  0  0  0  0  0  0  0
    1.4734   -1.8608    1.5850 H   0  0  0  0  0  0  0  0  0  0  0  0
    1.1485    4.0308    1.9174 H   0  0  0  0  0  0  0  0  0  0  0  0
   -3.8796    1.1207    2.4480 H   0  0  0  0  0  0  0  0  0  0  0  0
   -4.7553   -0.2716    1.8317 H   0  0  0  0  0  0  0  0  0  0  0  0
    2.5540    3.0999    3.6267 H   0  0  0  0  0  0  0  0  0  0  0  0
    3.6044    1.1657    4.7051 H   0  0  0  0  0  0  0  0  0  0  0  0
    2.9096   -2.7053    3.2730 H   0  0  0  0  0  0  0  0  0  0  0  0
    3.9673   -1.2077    4.8587 H   0  0  0  0  0  0  0  0  0  0  0  0
   -6.5377    0.0764    0.2225 H   0  0  0  0  0  0  0  0  0  0  0  0
   -4.0518    3.3289    1.2084 H   0  0  0  0  0  0  0  0  0  0  0  0
   -5.5635    4.8270    0.0770 H   0  0  0  0  0  0  0  0  0  0  0  0
   -7.5540    3.9918   -0.9751 H   0  0  0  0  0  0  0  0  0  0  0  0
  1  2  1  0  0  0  0 
  1  3  1  0  0  0  0 
  1  4  1  0  0  0  0 
  2  5  1  0  0  0  0 
  4  6  2  0  0  0  0 
  4  7  1  0  0  0  0 
  5  8  1  0  0  0  0 
  6  9  1  0  0  0  0 
  6 10  1  0  0  0  0 
  7 11  2  0  0  0  0 
  8 12  1  0  0  0  0 
  9 13  2  0  0  0  0 
  9 14  1  0  0  0  0 
 10 15  2  0  0  0  0 
 11 13  1  0  0  0  0 
 12 16  1  0  0  0  0 
 14 17  2  0  0  0  0 
 15 17  1  0  0  0  0 
 16 18  2  0  0  0  0 
 16 19  1  0  0  0  0 
 18 20  1  0  0  0  0 
 19 21  2  0  0  0  0 
 20 22  1  0  0  0  0 
 20 23  2  0  0  0  0 
 21 23  1  0  0  0  0 
 22 24  1  0  0  0  0 
 22 25  1  0  0  0  0 
 22 26  1  0  0  0  0 
  1 27  1  0  0  0  0 
  2 28  1  0  0  0  0 
  3 29  1  0  0  0  0 
  3 30  1  0  0  0  0 
  3 31  1  0  0  0  0 
  5 32  1  0  0  0  0 
  5 33  1  0  0  0  0 
  7 34  1  0  0  0  0 
  8 35  1  0  0  0  0 
  8 36  1  0  0  0  0 
 10 37  1  0  0  0  0 
 11 38  1  0  0  0  0 
 12 39  1  0  0  0  0 
 12 40  1  0  0  0  0 
 13 41  1  0  0  0  0 
 14 42  1  0  0  0  0 
 15 43  1  0  0  0  0 
 17 44  1  0  0  0  0 
 18 45  1  0  0  0  0 
 19 46  1  0  0  0  0 
 21 47  1  0  0  0  0 
 23 48  1  0  0  0  0 
M  END
> <cdk:Title>
cinacalcet

> <Conformer>
1

> <SuperDrugID>
SD000567

$$$$
