risperidone
  CDK     0628171801

 57 61  0  0  0  0  0  0  0  0999 V2000
   -0.6027   12.3300   -2.9537 F   0  0  0  0  0  0  0  0  0  0  0  0
   -1.3583   11.2798   -2.7840 C   0  0  0  0  0  0  0  0  0  0  0  0
   -1.9669   11.0553   -1.5312 C   0  0  0  0  0  0  0  0  0  0  0  0
   -1.5611   10.3702   -3.8493 C   0  0  0  0  0  0  0  0  0  0  0  0
   -2.7613    9.9104   -1.3736 C   0  0  0  0  0  0  0  0  0  0  0  0
   -2.3736    9.2268   -3.6759 C   0  0  0  0  0  0  0  0  0  0  0  0
   -2.9689    9.0166   -2.4174 C   0  0  0  0  0  0  0  0  0  0  0  0
   -3.4150    9.4713   -0.2796 O   0  0  0  0  0  0  0  0  0  0  0  0
   -3.7949    8.0261   -1.8912 C   0  0  0  0  0  0  0  0  0  0  0  0
   -4.0123    8.3538   -0.5987 N   0  0  0  0  0  0  0  0  0  0  0  0
   -4.3641    6.8204   -2.5496 C   0  0  2  0  0  0  0  0  0  0  0  0
   -5.8633    6.6429   -2.1564 C   0  0  2  0  0  0  0  0  0  0  0  0
   -3.5246    5.5563   -2.2038 C   0  0  1  0  0  0  0  0  0  0  0  0
   -6.4482    5.2838   -2.6118 C   0  0  1  0  0  0  0  0  0  0  0  0
   -4.2083    4.2593   -2.7186 C   0  0  1  0  0  0  0  0  0  0  0  0
   -5.6115    4.1044   -2.2108 N   0  0  1  0  0  0  0  0  0  0  0  0
   -5.6843    3.6726   -0.7710 C   0  0  1  0  0  0  0  0  0  0  0  0
   -7.0527    3.1266   -0.2743 C   0  0  1  0  0  0  0  0  0  0  0  0
   -7.4841    1.8587   -0.9494 C   0  0  0  0  0  0  0  0  0  0  0  0
   -8.2865    1.8877   -2.1209 C   0  0  0  0  0  0  0  0  0  0  0  0
   -7.1345    0.5708   -0.4597 C   0  0  0  0  0  0  0  0  0  0  0  0
   -8.6357    3.0012   -2.5836 O   0  0  0  0  0  0  0  0  0  0  0  0
   -8.7005    0.7375   -2.7546 N   0  0  0  0  0  0  0  0  0  0  0  0
   -6.3193    0.3219    0.7506 C   0  0  0  0  0  0  0  0  0  0  0  0
   -7.5567   -0.5286   -1.1289 N   0  0  0  0  0  0  0  0  0  0  0  0
   -8.3026   -0.4799   -2.2563 C   0  0  0  0  0  0  0  0  0  0  0  0
   -9.5266    0.8340   -3.9483 C   0  0  1  0  0  0  0  0  0  0  0  0
   -8.6468   -1.7829   -2.8792 C   0  0  1  0  0  0  0  0  0  0  0  0
  -10.1450   -0.4923   -4.4640 C   0  0  1  0  0  0  0  0  0  0  0  0
   -9.1239   -1.6416   -4.3448 C   0  0  1  0  0  0  0  0  0  0  0  0
   -1.8329   11.7018   -0.7508 H   0  0  0  0  0  0  0  0  0  0  0  0
   -1.1133   10.5382   -4.7523 H   0  0  0  0  0  0  0  0  0  0  0  0
   -2.5161    8.5710   -4.4454 H   0  0  0  0  0  0  0  0  0  0  0  0
   -4.3209    6.9553   -3.6351 H   0  0  0  0  0  0  0  0  0  0  0  0
   -6.4522    7.4489   -2.6028 H   0  0  0  0  0  0  0  0  0  0  0  0
   -5.9839    6.7098   -1.0725 H   0  0  0  0  0  0  0  0  0  0  0  0
   -2.5350    5.6393   -2.6611 H   0  0  0  0  0  0  0  0  0  0  0  0
   -3.3827    5.4804   -1.1229 H   0  0  0  0  0  0  0  0  0  0  0  0
   -7.4586    5.2075   -2.2157 H   0  0  0  0  0  0  0  0  0  0  0  0
   -6.5469    5.2883   -3.7005 H   0  0  0  0  0  0  0  0  0  0  0  0
   -4.2258    4.2753   -3.8125 H   0  0  0  0  0  0  0  0  0  0  0  0
   -3.5999    3.3966   -2.4349 H   0  0  0  0  0  0  0  0  0  0  0  0
   -4.9516    2.8782   -0.6009 H   0  0  0  0  0  0  0  0  0  0  0  0
   -5.3948    4.5047   -0.1245 H   0  0  0  0  0  0  0  0  0  0  0  0
   -6.9769    2.9655    0.8009 H   0  0  0  0  0  0  0  0  0  0  0  0
   -7.8176    3.8967   -0.3737 H   0  0  0  0  0  0  0  0  0  0  0  0
   -6.7868    0.7790    1.6238 H   0  0  0  0  0  0  0  0  0  0  0  0
   -5.3200    0.7359    0.6116 H   0  0  0  0  0  0  0  0  0  0  0  0
   -6.2198   -0.7479    0.9537 H   0  0  0  0  0  0  0  0  0  0  0  0
  -10.3602    1.5198   -3.7649 H   0  0  0  0  0  0  0  0  0  0  0  0
   -8.9116    1.2656   -4.7445 H   0  0  0  0  0  0  0  0  0  0  0  0
   -7.7753   -2.4447   -2.8639 H   0  0  0  0  0  0  0  0  0  0  0  0
   -9.4333   -2.2509   -2.2809 H   0  0  0  0  0  0  0  0  0  0  0  0
  -11.0322   -0.7384   -3.8726 H   0  0  0  0  0  0  0  0  0  0  0  0
  -10.4573   -0.3767   -5.5057 H   0  0  0  0  0  0  0  0  0  0  0  0
   -8.2658   -1.4382   -4.9929 H   0  0  0  0  0  0  0  0  0  0  0  0
   -9.5826   -2.5775   -4.6753 H   0  0  0  0  0  0  0  0  0  0  0  0
  1  2  1  0  0  0  0 
  2  3  1  0  0  0  0 
  2  4  2  0  0  0  0 
  3  5  2  0  0  0  0 
  4  6  1  0  0  0  0 
  5  7  1  0  0  0  0 
  5  8  1  0  0  0  0 
  6  7  2  0  0  0  0 
  7  9  1  0  0  0  0 
  8 10  1  0  0  0  0 
  9 10  2  0  0  0  0 
  9 11  1  0  0  0  0 
 11 12  1  0  0  0  0 
 11 13  1  0  0  0  0 
 12 14  1  0  0  0  0 
 13 15  1  0  0  0  0 
 14 16  1  0  0  0  0 
 15 16  1  0  0  0  0 
 16 17  1  0  0  0  0 
 17 18  1  0  0  0  0 
 18 19  1  0  0  0  0 
 19 20  1  0  0  0  0 
 19 21  2  0  0  0  0 
 20 22  2  0  0  0  0 
 20 23  1  0  0  0  0 
 21 24  1  0  0  0  0 
 21 25  1  0  0  0  0 
 23 26  1  0  0  0  0 
 23 27  1  0  0  0  0 
 25 26  2  0  0  0  0 
 26 28  1  0  0  0  0 
 27 29  1  0  0  0  0 
 28 30  1  0  0  0  0 
 29 30  1  0  0  0  0 
  3 31  1  0  0  0  0 
  4 32  1  0  0  0  0 
  6 33  1  0  0  0  0 
 11 34  1  0  0  0  0 
 12 35  1  0  0  0  0 
 12 36  1  0  0  0  0 
 13 37  1  0  0  0  0 
 13 38  1  0  0  0  0 
 14 39  1  0  0  0  0 
 14 40  1  0  0  0  0 
 15 41  1  0  0  0  0 
 15 42  1  0  0  0  0 
 17 43  1  0  0  0  0 
 17 44  1  0  0  0  0 
 18 45  1  0  0  0  0 
 18 46  1  0  0  0  0 
 24 47  1  0  0  0  0 
 24 48  1  0  0  0  0 
 24 49  1  0  0  0  0 
 27 50  1  0  0  0  0 
 27 51  1  0  0  0  0 
 28 52  1  0  0  0  0 
 28 53  1  0  0  0  0 
 29 54  1  0  0  0  0 
 29 55  1  0  0  0  0 
 30 56  1  0  0  0  0 
 30 57  1  0  0  0  0 
M  END
> <cdk:Title>
risperidone

> <Conformer>
1

> <SuperDrugID>
SD002150

$$$$
