mimosine
  CDK     0628171801

 24 24  0  0  0  0  0  0  0  0999 V2000
    0.4938   -1.1899   -0.3455 C   0  0  1  0  0  0  0  0  0  0  0  0
    0.3560   -2.3034    0.7326 C   0  0  1  0  0  0  0  0  0  0  0  0
    1.6420   -0.3354   -0.1110 N   0  0  0  0  0  0  0  0  0  0  0  0
    0.2162   -1.7553    2.0997 C   0  0  0  0  0  0  0  0  0  0  0  0
   -0.7949   -3.1719    0.4416 N   0  0  2  0  0  0  0  0  0  0  0  0
    1.5124    0.7857    0.6698 C   0  0  0  0  0  0  0  0  0  0  0  0
    2.8657   -0.6587   -0.6423 C   0  0  0  0  0  0  0  0  0  0  0  0
    1.1912   -1.9541    3.0176 O   0  0  0  0  0  0  0  0  0  0  0  0
   -0.7830   -1.0759    2.4283 O   0  0  0  0  0  0  0  0  0  0  0  0
    2.6198    1.5997    0.9717 C   0  0  0  0  0  0  0  0  0  0  0  0
    4.0022    0.1296   -0.3837 C   0  0  0  0  0  0  0  0  0  0  0  0
    2.4715    2.6758    1.7806 O   0  0  0  0  0  0  0  0  0  0  0  0
    3.8769    1.2657    0.4356 C   0  0  0  0  0  0  0  0  0  0  0  0
    4.8818    1.9680    0.6866 O   0  0  0  0  0  0  0  0  0  0  0  0
    0.5766   -1.6680   -1.3268 H   0  0  0  0  0  0  0  0  0  0  0  0
   -0.4274   -0.5978   -0.3845 H   0  0  0  0  0  0  0  0  0  0  0  0
    1.2501   -2.9321    0.6888 H   0  0  0  0  0  0  0  0  0  0  0  0
   -0.7818   -3.9268    1.1316 H   0  0  0  0  0  0  0  0  0  0  0  0
   -0.6229   -3.6058   -0.4681 H   0  0  0  0  0  0  0  0  0  0  0  0
    0.6028    1.0429    1.0642 H   0  0  0  0  0  0  0  0  0  0  0  0
    2.9779   -1.4893   -1.2313 H   0  0  0  0  0  0  0  0  0  0  0  0
    1.1092   -1.5646    3.9133 H   0  0  0  0  0  0  0  0  0  0  0  0
    4.9095   -0.1277   -0.7806 H   0  0  0  0  0  0  0  0  0  0  0  0
    2.6289    2.3248    2.6830 H   0  0  0  0  0  0  0  0  0  0  0  0
  2  1  1  0  0  0  0 
  1  3  1  0  0  0  0 
  2  4  1  0  0  0  0 
  2  5  1  0  0  0  0 
  3  6  1  0  0  0  0 
  3  7  1  0  0  0  0 
  4  8  1  0  0  0  0 
  4  9  2  0  0  0  0 
  6 10  2  0  0  0  0 
  7 11  2  0  0  0  0 
 10 12  1  0  0  0  0 
 10 13  1  0  0  0  0 
 11 13  1  0  0  0  0 
 13 14  2  0  0  0  0 
  1 15  1  0  0  0  0 
  1 16  1  0  0  0  0 
  2 17  1  0  0  0  0 
  5 18  1  0  0  0  0 
  5 19  1  0  0  0  0 
  6 20  1  0  0  0  0 
  7 21  1  0  0  0  0 
  8 22  1  0  0  0  0 
 11 23  1  0  0  0  0 
 12 24  1  0  0  0  0 
M  END
> <cdk:Title>
mimosine

> <Conformer>
1

> <SuperDrugID>
SD001610

$$$$
