antrafenine
  CDK     0628171801

 68 72  0  0  0  0  0  0  0  0999 V2000
   -0.8186   -0.2685    0.9774 N   0  0  0  0  0  0  0  0  0  0  0  0
   -1.9742   -1.0084    1.0476 C   0  0  0  0  0  0  0  0  0  0  0  0
   -0.6968    1.0886    0.9416 C   0  0  0  0  0  0  0  0  0  0  0  0
   -1.9069   -2.3676    1.4746 C   0  0  0  0  0  0  0  0  0  0  0  0
   -3.2445   -0.4597    0.7411 C   0  0  0  0  0  0  0  0  0  0  0  0
   -0.2204    1.8145    2.0758 C   0  0  0  0  0  0  0  0  0  0  0  0
   -1.0099    1.7696   -0.2582 C   0  0  0  0  0  0  0  0  0  0  0  0
   -3.1159   -3.1135    1.5748 C   0  0  0  0  0  0  0  0  0  0  0  0
   -0.7029   -3.0234    1.8312 C   0  0  0  0  0  0  0  0  0  0  0  0
   -4.3979   -1.2539    0.8360 C   0  0  0  0  0  0  0  0  0  0  0  0
    0.1863    1.1917    3.3003 C   0  0  0  0  0  0  0  0  0  0  0  0
   -0.1325    3.2279    1.9677 C   0  0  0  0  0  0  0  0  0  0  0  0
   -0.8942    3.1666   -0.3397 C   0  0  0  0  0  0  0  0  0  0  0  0
   -3.1142   -4.4446    2.0354 C   0  0  0  0  0  0  0  0  0  0  0  0
   -4.2991   -2.5387    1.2445 N   0  0  0  0  0  0  0  0  0  0  0  0
   -0.7075   -4.3517    2.2947 C   0  0  0  0  0  0  0  0  0  0  0  0
    0.5854    1.9564    4.3640 O   0  0  0  0  0  0  0  0  0  0  0  0
    0.1916   -0.0542    3.4475 O   0  0  0  0  0  0  0  0  0  0  0  0
   -0.4615    3.8959    0.7766 C   0  0  0  0  0  0  0  0  0  0  0  0
   -1.9134   -5.0775    2.4322 C   0  0  0  0  0  0  0  0  0  0  0  0
    1.1202    1.5042    5.6153 C   0  0  2  0  0  0  0  0  0  0  0  0
   -1.9147   -6.4723    2.9599 C   0  0  2  0  0  0  0  0  0  0  0  0
    1.2979    2.7197    6.5551 C   0  0  1  0  0  0  0  0  0  0  0  0
   -3.0839   -6.7985    3.6075 F   0  0  0  0  0  0  0  0  0  0  0  0
   -0.9151   -6.6907    3.8784 F   0  0  0  0  0  0  0  0  0  0  0  0
   -1.7430   -7.3480    1.9174 F   0  0  0  0  0  0  0  0  0  0  0  0
    2.2520    2.4811    7.6746 N   0  0  0  0  0  0  0  0  0  0  0  0
    3.7315    2.5204    7.3290 C   0  0  1  0  0  0  0  0  0  0  0  0
    1.7274    1.7900    8.9291 C   0  0  1  0  0  0  0  0  0  0  0  0
    4.5217    2.6432    8.7341 C   0  0  1  0  0  0  0  0  0  0  0  0
    2.8523    0.9091    9.5344 C   0  0  2  0  0  0  0  0  0  0  0  0
    4.1656    1.5417    9.6222 N   0  0  0  0  0  0  0  0  0  0  0  0
    5.0969    1.0652   10.5423 C   0  0  0  0  0  0  0  0  0  0  0  0
    5.9032    1.9483   11.3091 C   0  0  0  0  0  0  0  0  0  0  0  0
    5.2849   -0.3244   10.7372 C   0  0  0  0  0  0  0  0  0  0  0  0
    6.8880    1.4828   12.2169 C   0  0  0  0  0  0  0  0  0  0  0  0
    6.2336   -0.8107   11.6504 C   0  0  0  0  0  0  0  0  0  0  0  0
    7.7638    2.4032   12.9995 C   0  0  1  0  0  0  0  0  0  0  0  0
    7.0355    0.0854   12.3724 C   0  0  0  0  0  0  0  0  0  0  0  0
    9.0765    2.2060   12.6509 F   0  0  0  0  0  0  0  0  0  0  0  0
    7.5076    3.7408   12.8068 F   0  0  0  0  0  0  0  0  0  0  0  0
    7.6293    2.1661   14.3450 F   0  0  0  0  0  0  0  0  0  0  0  0
    0.0151   -0.7535    1.0547 H   0  0  0  0  0  0  0  0  0  0  0  0
   -3.3494    0.5119    0.4492 H   0  0  0  0  0  0  0  0  0  0  0  0
   -1.3225    1.2504   -1.0818 H   0  0  0  0  0  0  0  0  0  0  0  0
    0.1981   -2.5454    1.7701 H   0  0  0  0  0  0  0  0  0  0  0  0
   -5.3154   -0.8690    0.6050 H   0  0  0  0  0  0  0  0  0  0  0  0
    0.1779    3.7996    2.7583 H   0  0  0  0  0  0  0  0  0  0  0  0
   -1.1270    3.6521   -1.2088 H   0  0  0  0  0  0  0  0  0  0  0  0
   -4.0013   -4.9525    2.0896 H   0  0  0  0  0  0  0  0  0  0  0  0
    0.1866   -4.7849    2.5385 H   0  0  0  0  0  0  0  0  0  0  0  0
   -0.3828    4.9144    0.7250 H   0  0  0  0  0  0  0  0  0  0  0  0
    2.0805    1.0221    5.4250 H   0  0  0  0  0  0  0  0  0  0  0  0
    0.4443    0.7776    6.0739 H   0  0  0  0  0  0  0  0  0  0  0  0
    1.6477    3.5762    5.9720 H   0  0  0  0  0  0  0  0  0  0  0  0
    0.3200    2.9970    6.9582 H   0  0  0  0  0  0  0  0  0  0  0  0
    4.0278    1.6022    6.8241 H   0  0  0  0  0  0  0  0  0  0  0  0
    3.9761    3.3709    6.6928 H   0  0  0  0  0  0  0  0  0  0  0  0
    1.4411    2.5537    9.6528 H   0  0  0  0  0  0  0  0  0  0  0  0
    0.8507    1.1736    8.7120 H   0  0  0  0  0  0  0  0  0  0  0  0
    5.6433    2.6691    8.6283 H   0  0  0  0  0  0  0  0  0  0  0  0
    4.2886    3.5741    9.3178 H   0  0  0  0  0  0  0  0  0  0  0  0
    2.9439    0.0233    8.8986 H   0  0  0  0  0  0  0  0  0  0  0  0
    2.5169    0.5711   10.5200 H   0  0  0  0  0  0  0  0  0  0  0  0
    5.7717    2.9550   11.1987 H   0  0  0  0  0  0  0  0  0  0  0  0
    4.7386   -1.0002   10.2020 H   0  0  0  0  0  0  0  0  0  0  0  0
    6.3427   -1.8175   11.7879 H   0  0  0  0  0  0  0  0  0  0  0  0
    7.7315   -0.2960   13.0178 H   0  0  0  0  0  0  0  0  0  0  0  0
  1  2  1  0  0  0  0 
  1  3  1  0  0  0  0 
  2  4  2  0  0  0  0 
  2  5  1  0  0  0  0 
  3  6  2  0  0  0  0 
  3  7  1  0  0  0  0 
  4  8  1  0  0  0  0 
  4  9  1  0  0  0  0 
  5 10  2  0  0  0  0 
  6 11  1  0  0  0  0 
  6 12  1  0  0  0  0 
  7 13  2  0  0  0  0 
  8 14  1  0  0  0  0 
  8 15  2  0  0  0  0 
  9 16  2  0  0  0  0 
 10 15  1  0  0  0  0 
 11 17  1  0  0  0  0 
 11 18  2  0  0  0  0 
 12 19  2  0  0  0  0 
 13 19  1  0  0  0  0 
 14 20  2  0  0  0  0 
 16 20  1  0  0  0  0 
 17 21  1  0  0  0  0 
 20 22  1  0  0  0  0 
 21 23  1  0  0  0  0 
 22 24  1  0  0  0  0 
 22 25  1  0  0  0  0 
 22 26  1  0  0  0  0 
 23 27  1  0  0  0  0 
 27 28  1  0  0  0  0 
 27 29  1  0  0  0  0 
 28 30  1  0  0  0  0 
 29 31  1  0  0  0  0 
 30 32  1  0  0  0  0 
 31 32  1  0  0  0  0 
 32 33  1  0  0  0  0 
 33 34  2  0  0  0  0 
 33 35  1  0  0  0  0 
 34 36  1  0  0  0  0 
 35 37  2  0  0  0  0 
 36 38  1  0  0  0  0 
 36 39  2  0  0  0  0 
 37 39  1  0  0  0  0 
 38 40  1  0  0  0  0 
 38 41  1  0  0  0  0 
 38 42  1  0  0  0  0 
  1 43  1  0  0  0  0 
  5 44  1  0  0  0  0 
  7 45  1  0  0  0  0 
  9 46  1  0  0  0  0 
 10 47  1  0  0  0  0 
 12 48  1  0  0  0  0 
 13 49  1  0  0  0  0 
 14 50  1  0  0  0  0 
 16 51  1  0  0  0  0 
 19 52  1  0  0  0  0 
 21 53  1  0  0  0  0 
 21 54  1  0  0  0  0 
 23 55  1  0  0  0  0 
 23 56  1  0  0  0  0 
 28 57  1  0  0  0  0 
 28 58  1  0  0  0  0 
 29 59  1  0  0  0  0 
 29 60  1  0  0  0  0 
 30 61  1  0  0  0  0 
 30 62  1  0  0  0  0 
 31 63  1  0  0  0  0 
 31 64  1  0  0  0  0 
 34 65  1  0  0  0  0 
 35 66  1  0  0  0  0 
 37 67  1  0  0  0  0 
 39 68  1  0  0  0  0 
M  END
> <cdk:Title>
antrafenine

> <Conformer>
1

> <SuperDrugID>
SD003145

$$$$
