cyclacillin
  CDK     0628171802

 46 48  0  0  0  0  0  0  0  0999 V2000
   -3.3631    2.1932   -1.4507 C   0  0  0  0  0  0  0  0  0  0  0  0
   -3.4597    3.1430   -2.4107 O   0  0  0  0  0  0  0  0  0  0  0  0
   -3.9124    1.0876   -1.6609 O   0  0  0  0  0  0  0  0  0  0  0  0
   -2.5827    2.4593   -0.2153 C   0  0  2  0  0  0  0  0  0  0  0  0
   -1.5411    1.4973   -0.1057 N   0  0  0  0  0  0  0  0  0  0  0  0
   -3.3043    2.2974    1.1822 C   0  0  2  0  0  0  0  0  0  0  0  0
   -1.6744    0.1951    0.4184 C   0  0  2  0  0  0  0  0  0  0  0  0
   -0.2123    1.5333   -0.0845 C   0  0  0  0  0  0  0  0  0  0  0  0
   -2.7964    0.6299    1.7823 S   0  0  0  0  0  0  0  0  0  0  0  0
   -0.1189    0.2085    0.5293 C   0  0  1  0  0  0  0  0  0  0  0  0
    0.6322    2.4116   -0.3716 O   0  0  0  0  0  0  0  0  0  0  0  0
    0.4286    0.2160    1.8490 N   0  0  0  0  0  0  0  0  0  0  0  0
    0.5342   -0.8870    2.6454 C   0  0  0  0  0  0  0  0  0  0  0  0
    0.0568   -1.9759    2.2398 O   0  0  0  0  0  0  0  0  0  0  0  0
    1.2664   -0.8796    3.9526 C   0  0  1  0  0  0  0  0  0  0  0  0
    2.4182   -1.7797    3.7538 N   0  0  2  0  0  0  0  0  0  0  0  0
    1.8680    0.5042    4.3774 C   0  0  1  0  0  0  0  0  0  0  0  0
    0.4076   -1.4554    5.1298 C   0  0  2  0  0  0  0  0  0  0  0  0
    0.8064    1.5005    4.9144 C   0  0  2  0  0  0  0  0  0  0  0  0
   -0.6553   -0.4568    5.6607 C   0  0  2  0  0  0  0  0  0  0  0  0
   -0.0055    0.8856    6.0814 C   0  0  2  0  0  0  0  0  0  0  0  0
   -2.0930   -0.5016   -0.3142 H   0  0  0  0  0  0  0  0  0  0  0  0
   -4.8601    2.3635    1.1551 C   0  0  0  0  0  0  0  0  0  0  0  0
   -2.7497    3.3304    2.2131 C   0  0  0  0  0  0  0  0  0  0  0  0
   -3.9525    2.9587   -3.2373 H   0  0  0  0  0  0  0  0  0  0  0  0
   -2.1501    3.4628   -0.3110 H   0  0  0  0  0  0  0  0  0  0  0  0
    0.3607   -0.5089   -0.1407 H   0  0  0  0  0  0  0  0  0  0  0  0
    0.7792    1.0558    2.1805 H   0  0  0  0  0  0  0  0  0  0  0  0
    2.9361   -1.4267    2.9457 H   0  0  0  0  0  0  0  0  0  0  0  0
    2.0496   -2.6971    3.4936 H   0  0  0  0  0  0  0  0  0  0  0  0
    2.6022    0.3464    5.1736 H   0  0  0  0  0  0  0  0  0  0  0  0
    2.4067    0.9604    3.5426 H   0  0  0  0  0  0  0  0  0  0  0  0
    1.0682   -1.7137    5.9638 H   0  0  0  0  0  0  0  0  0  0  0  0
   -0.0901   -2.3813    4.8292 H   0  0  0  0  0  0  0  0  0  0  0  0
    0.1234    1.7830    4.1115 H   0  0  0  0  0  0  0  0  0  0  0  0
    1.3081    2.4079    5.2617 H   0  0  0  0  0  0  0  0  0  0  0  0
   -1.1627   -0.8968    6.5231 H   0  0  0  0  0  0  0  0  0  0  0  0
   -1.4067   -0.2743    4.8891 H   0  0  0  0  0  0  0  0  0  0  0  0
   -0.7833    1.5859    6.3937 H   0  0  0  0  0  0  0  0  0  0  0  0
    0.6545    0.7198    6.9382 H   0  0  0  0  0  0  0  0  0  0  0  0
   -5.2625    2.2760    2.1680 H   0  0  0  0  0  0  0  0  0  0  0  0
   -5.1947    3.3113    0.7260 H   0  0  0  0  0  0  0  0  0  0  0  0
   -5.2744    1.5454    0.5620 H   0  0  0  0  0  0  0  0  0  0  0  0
   -3.1762    3.1621    3.2047 H   0  0  0  0  0  0  0  0  0  0  0  0
   -2.9985    4.3482    1.9047 H   0  0  0  0  0  0  0  0  0  0  0  0
   -1.6623    3.2565    2.2952 H   0  0  0  0  0  0  0  0  0  0  0  0
  1  2  1  0  0  0  0 
  1  3  2  0  0  0  0 
  4  1  1  0  0  0  0 
  4  5  1  0  0  0  0 
  4  6  1  0  0  0  0 
  7  5  1  0  0  0  0 
  5  8  1  0  0  0  0 
  6  9  1  0  0  0  0 
  7  9  1  0  0  0  0 
 10  7  1  0  0  0  0 
  7 22  1  0  0  0  0 
 10  8  1  0  0  0  0 
  8 11  2  0  0  0  0 
 10 12  1  0  0  0  0 
 12 13  1  0  0  0  0 
 13 14  2  0  0  0  0 
 13 15  1  0  0  0  0 
 15 16  1  0  0  0  0 
 15 17  1  0  0  0  0 
 15 18  1  0  0  0  0 
 17 19  1  0  0  0  0 
 18 20  1  0  0  0  0 
 19 21  1  0  0  0  0 
 20 21  1  0  0  0  0 
  6 23  1  0  0  0  0 
  6 24  1  0  0  0  0 
  2 25  1  0  0  0  0 
  4 26  1  0  0  0  0 
 10 27  1  0  0  0  0 
 12 28  1  0  0  0  0 
 16 29  1  0  0  0  0 
 16 30  1  0  0  0  0 
 17 31  1  0  0  0  0 
 17 32  1  0  0  0  0 
 18 33  1  0  0  0  0 
 18 34  1  0  0  0  0 
 19 35  1  0  0  0  0 
 19 36  1  0  0  0  0 
 20 37  1  0  0  0  0 
 20 38  1  0  0  0  0 
 21 39  1  0  0  0  0 
 21 40  1  0  0  0  0 
 23 41  1  0  0  0  0 
 23 42  1  0  0  0  0 
 23 43  1  0  0  0  0 
 24 44  1  0  0  0  0 
 24 45  1  0  0  0  0 
 24 46  1  0  0  0  0 
M  END
> <cdk:Title>
cyclacillin

> <Conformer>
1

> <SuperDrugID>
SD000553

$$$$
