albendazole sulfoxide
  CDK     0628171801

 34 35  0  0  0  0  0  0  0  0999 V2000
    2.2541    0.7249    1.2479 S   0  0  1  0  0  0  0  0  0  0  0  0
    1.5009    0.3598   -0.3858 C   0  0  1  0  0  0  0  0  0  0  0  0
    3.7854    1.0540    0.8985 O   0  0  0  0  0  0  0  0  0  0  0  0
    1.5538    2.2410    1.8389 C   0  0  0  0  0  0  0  0  0  0  0  0
   -0.0291    0.1452   -0.3057 C   0  0  1  0  0  0  0  0  0  0  0  0
    0.9582    2.2629    3.1221 C   0  0  0  0  0  0  0  0  0  0  0  0
    1.5828    3.4219    1.0531 C   0  0  0  0  0  0  0  0  0  0  0  0
   -0.6503   -0.2011   -1.6793 C   0  0  0  0  0  0  0  0  0  0  0  0
    0.4049    3.4714    3.5806 C   0  0  0  0  0  0  0  0  0  0  0  0
    1.0081    4.6213    1.5300 C   0  0  0  0  0  0  0  0  0  0  0  0
    0.4217    4.6230    2.8042 C   0  0  0  0  0  0  0  0  0  0  0  0
   -0.2029    3.7929    4.7255 N   0  0  0  0  0  0  0  0  0  0  0  0
   -0.1803    5.6154    3.4780 N   0  0  0  0  0  0  0  0  0  0  0  0
   -0.5636    5.0897    4.6624 C   0  0  0  0  0  0  0  0  0  0  0  0
   -1.2093    5.7208    5.6790 N   0  0  0  0  0  0  0  0  0  0  0  0
   -1.7132    6.9827    5.6725 C   0  0  0  0  0  0  0  0  0  0  0  0
   -2.2966    7.4201    6.8257 O   0  0  0  0  0  0  0  0  0  0  0  0
   -1.6471    7.7282    4.6666 O   0  0  0  0  0  0  0  0  0  0  0  0
   -2.9585    8.6685    7.0625 C   0  0  0  0  0  0  0  0  0  0  0  0
    1.7277    1.1772   -1.0720 H   0  0  0  0  0  0  0  0  0  0  0  0
    1.9763   -0.5453   -0.7673 H   0  0  0  0  0  0  0  0  0  0  0  0
   -0.2410   -0.6654    0.3969 H   0  0  0  0  0  0  0  0  0  0  0  0
   -0.5031    1.0556    0.0687 H   0  0  0  0  0  0  0  0  0  0  0  0
    0.9261    1.4261    3.7086 H   0  0  0  0  0  0  0  0  0  0  0  0
    2.0180    3.4146    0.1277 H   0  0  0  0  0  0  0  0  0  0  0  0
   -1.7295   -0.3298   -1.5802 H   0  0  0  0  0  0  0  0  0  0  0  0
   -0.2265   -1.1276   -2.0721 H   0  0  0  0  0  0  0  0  0  0  0  0
   -0.4619    0.6035   -2.3931 H   0  0  0  0  0  0  0  0  0  0  0  0
    1.0177    5.4706    0.9640 H   0  0  0  0  0  0  0  0  0  0  0  0
   -0.3606    3.1925    5.4702 H   0  0  0  0  0  0  0  0  0  0  0  0
   -1.3236    5.2128    6.4970 H   0  0  0  0  0  0  0  0  0  0  0  0
   -2.3729    9.2600    7.7665 H   0  0  0  0  0  0  0  0  0  0  0  0
   -3.9359    8.4747    7.5037 H   0  0  0  0  0  0  0  0  0  0  0  0
   -3.0947    9.2395    6.1427 H   0  0  0  0  0  0  0  0  0  0  0  0
  1  2  1  0  0  0  0 
  1  3  2  0  0  0  0 
  1  4  1  0  0  0  0 
  2  5  1  0  0  0  0 
  4  6  1  0  0  0  0 
  4  7  2  0  0  0  0 
  5  8  1  0  0  0  0 
  6  9  2  0  0  0  0 
  7 10  1  0  0  0  0 
  9 11  1  0  0  0  0 
  9 12  1  0  0  0  0 
 10 11  2  0  0  0  0 
 11 13  1  0  0  0  0 
 12 14  1  0  0  0  0 
 13 14  2  0  0  0  0 
 14 15  1  0  0  0  0 
 15 16  1  0  0  0  0 
 16 17  1  0  0  0  0 
 16 18  2  0  0  0  0 
 17 19  1  0  0  0  0 
 20  2  1  0  0  0  0 
 21  2  1  0  0  0  0 
 22  5  1  0  0  0  0 
 23  5  1  0  0  0  0 
 24  6  1  0  0  0  0 
 25  7  1  0  0  0  0 
 26  8  1  0  0  0  0 
 27  8  1  0  0  0  0 
 28  8  1  0  0  0  0 
 29 10  1  0  0  0  0 
 30 12  1  0  0  0  0 
 31 15  1  0  0  0  0 
 32 19  1  0  0  0  0 
 33 19  1  0  0  0  0 
 34 19  1  0  0  0  0 
M  END
> <cdk:Title>
albendazole sulfoxide

> <Conformer>
1

> <SuperDrugID>
SD000078

$$$$
