thebacon
  CDK     0628171801

 48 52  0  0  0  0  0  0  0  0999 V2000
    6.2109   -3.3518    3.5620 O   0  0  0  0  0  0  0  0  0  0  0  0
    7.2817   -3.9117    4.2103 C   0  0  0  0  0  0  0  0  0  0  0  0
    5.1729   -2.5946    3.9689 C   0  0  0  0  0  0  0  0  0  0  0  0
    8.2260   -4.7221    3.4304 C   0  0  0  0  0  0  0  0  0  0  0  0
    7.5116   -3.7533    5.4320 O   0  0  0  0  0  0  0  0  0  0  0  0
    4.9273   -2.2940    5.3879 C   0  0  1  0  0  0  0  0  0  0  0  0
    4.3806   -2.1355    2.9778 C   0  0  0  0  0  0  0  0  0  0  0  0
    3.7387   -1.3190    5.6860 C   0  0  2  0  0  0  0  0  0  0  0  0
    4.6560   -3.5214    6.1165 O   0  0  0  0  0  0  0  0  0  0  0  0
    3.1897   -1.3201    3.1697 C   0  0  2  0  0  0  0  0  0  0  0  0
    2.7225   -2.3147    6.0142 C   0  0  0  0  0  0  0  0  0  0  0  0
    3.2385   -0.4727    4.4753 C   0  0  1  0  0  0  0  0  0  0  0  0
    4.0297   -0.3674    6.8941 C   0  0  1  0  0  0  0  0  0  0  0  0
    3.3070   -3.5385    6.2950 C   0  0  0  0  0  0  0  0  0  0  0  0
    1.3273   -2.1366    5.9348 C   0  0  0  0  0  0  0  0  0  0  0  0
    1.8788    0.1802    4.9170 C   0  0  1  0  0  0  0  0  0  0  0  0
    2.8384    0.5712    7.2284 C   0  0  1  0  0  0  0  0  0  0  0  0
    2.5024   -4.6330    6.6642 C   0  0  0  0  0  0  0  0  0  0  0  0
    0.7862   -0.8768    5.3481 C   0  0  2  0  0  0  0  0  0  0  0  0
    0.5123   -3.2261    6.3224 C   0  0  0  0  0  0  0  0  0  0  0  0
    2.2205    1.1668    6.0016 N   0  0  2  0  0  0  0  0  0  0  0  0
    3.0820   -5.8440    6.9247 O   0  0  0  0  0  0  0  0  0  0  0  0
    1.0975   -4.4598    6.6946 C   0  0  0  0  0  0  0  0  0  0  0  0
    1.1860    2.1985    6.2851 C   0  0  0  0  0  0  0  0  0  0  0  0
    3.2372   -6.1119    8.3288 C   0  0  0  0  0  0  0  0  0  0  0  0
    3.9600    0.3333    4.2873 H   0  0  0  0  0  0  0  0  0  0  0  0
    5.8485   -1.8547    5.7780 H   0  0  0  0  0  0  0  0  0  0  0  0
    1.4966    0.7380    4.0558 H   0  0  0  0  0  0  0  0  0  0  0  0
    7.8844   -4.8229    2.3981 H   0  0  0  0  0  0  0  0  0  0  0  0
    9.2075   -4.2442    3.4318 H   0  0  0  0  0  0  0  0  0  0  0  0
    8.3132   -5.7177    3.8693 H   0  0  0  0  0  0  0  0  0  0  0  0
    4.6065   -2.3807    2.0404 H   0  0  0  0  0  0  0  0  0  0  0  0
    2.3251   -1.9883    3.1668 H   0  0  0  0  0  0  0  0  0  0  0  0
    3.0784   -0.6369    2.3230 H   0  0  0  0  0  0  0  0  0  0  0  0
    4.2947   -0.9467    7.7844 H   0  0  0  0  0  0  0  0  0  0  0  0
    4.8944    0.2542    6.6396 H   0  0  0  0  0  0  0  0  0  0  0  0
    2.0861    0.0110    7.7878 H   0  0  0  0  0  0  0  0  0  0  0  0
    3.2098    1.3670    7.8791 H   0  0  0  0  0  0  0  0  0  0  0  0
    0.0755   -0.4332    6.0479 H   0  0  0  0  0  0  0  0  0  0  0  0
    0.2187   -1.1552    4.4558 H   0  0  0  0  0  0  0  0  0  0  0  0
   -0.5075   -3.1355    6.3084 H   0  0  0  0  0  0  0  0  0  0  0  0
    0.4981   -5.2432    6.9627 H   0  0  0  0  0  0  0  0  0  0  0  0
    1.6371    3.0392    6.8156 H   0  0  0  0  0  0  0  0  0  0  0  0
    0.7600    2.5833    5.3561 H   0  0  0  0  0  0  0  0  0  0  0  0
    0.3795    1.7916    6.8974 H   0  0  0  0  0  0  0  0  0  0  0  0
    3.6892   -7.0982    8.4345 H   0  0  0  0  0  0  0  0  0  0  0  0
    3.8975   -5.3818    8.8044 H   0  0  0  0  0  0  0  0  0  0  0  0
    2.2725   -6.1275    8.8428 H   0  0  0  0  0  0  0  0  0  0  0  0
  1  2  1  0  0  0  0 
  1  3  1  0  0  0  0 
  2  4  1  0  0  0  0 
  2  5  2  0  0  0  0 
  6  3  1  0  0  0  0 
  3  7  2  0  0  0  0 
  8  6  1  0  0  0  0 
  6  9  1  0  0  0  0 
  6 27  1  0  0  0  0 
  7 10  1  0  0  0  0 
  8 11  1  0  0  0  0 
 12  8  1  0  0  0  0 
  8 13  1  0  0  0  0 
  9 14  1  0  0  0  0 
 12 10  1  0  0  0  0 
 11 14  2  0  0  0  0 
 11 15  1  0  0  0  0 
 12 16  1  0  0  0  0 
 12 26  1  0  0  0  0 
 13 17  1  0  0  0  0 
 14 18  1  0  0  0  0 
 15 19  1  0  0  0  0 
 15 20  2  0  0  0  0 
 16 19  1  0  0  0  0 
 16 21  1  0  0  0  0 
 16 28  1  0  0  0  0 
 17 21  1  0  0  0  0 
 18 22  1  0  0  0  0 
 18 23  2  0  0  0  0 
 20 23  1  0  0  0  0 
 21 24  1  0  0  0  0 
 22 25  1  0  0  0  0 
  4 29  1  0  0  0  0 
  4 30  1  0  0  0  0 
  4 31  1  0  0  0  0 
  7 32  1  0  0  0  0 
 10 33  1  0  0  0  0 
 10 34  1  0  0  0  0 
 13 35  1  0  0  0  0 
 13 36  1  0  0  0  0 
 17 37  1  0  0  0  0 
 17 38  1  0  0  0  0 
 19 39  1  0  0  0  0 
 19 40  1  0  0  0  0 
 20 41  1  0  0  0  0 
 23 42  1  0  0  0  0 
 24 43  1  0  0  0  0 
 24 44  1  0  0  0  0 
 24 45  1  0  0  0  0 
 25 46  1  0  0  0  0 
 25 47  1  0  0  0  0 
 25 48  1  0  0  0  0 
M  END
> <cdk:Title>
thebacon

> <Conformer>
1

> <SuperDrugID>
SD002726

$$$$
