enilconazole
  CDK     0628171801

 33 34  0  0  0  0  0  0  0  0999 V2000
   -2.2413    0.7689    0.8505 C   0  0  1  0  0  0  0  0  0  0  0  0
   -0.7078    1.0278    0.7235 C   0  0  1  0  0  0  0  0  0  0  0  0
   -2.7260   -0.2592   -0.0410 O   0  0  0  0  0  0  0  0  0  0  0  0
   -2.5729    0.3194    2.2423 C   0  0  0  0  0  0  0  0  0  0  0  0
   -0.2681    2.0966    1.5783 N   0  0  0  0  0  0  0  0  0  0  0  0
   -2.8837    0.0720   -1.4317 C   0  0  1  0  0  0  0  0  0  0  0  0
   -3.1944    1.1576    3.2096 C   0  0  0  0  0  0  0  0  0  0  0  0
   -2.2194   -0.9977    2.6363 C   0  0  0  0  0  0  0  0  0  0  0  0
   -0.4355    3.4124    1.3598 C   0  0  0  0  0  0  0  0  0  0  0  0
    0.3763    1.9812    2.7579 C   0  0  0  0  0  0  0  0  0  0  0  0
   -3.4470   -1.1054   -2.0596 C   0  0  0  0  0  0  0  0  0  0  0  0
   -3.6645    2.7572    2.8915 Cl  0  0  0  0  0  0  0  0  0  0  0  0
   -3.4269    0.6828    4.5172 C   0  0  0  0  0  0  0  0  0  0  0  0
   -2.4689   -1.4726    3.9327 C   0  0  0  0  0  0  0  0  0  0  0  0
    0.1157    4.0904    2.4370 C   0  0  0  0  0  0  0  0  0  0  0  0
    0.6137    3.1901    3.2959 N   0  0  0  0  0  0  0  0  0  0  0  0
   -4.6819   -1.1774   -2.5725 C   0  0  0  0  0  0  0  0  0  0  0  0
   -3.0646   -0.6262    4.8820 C   0  0  0  0  0  0  0  0  0  0  0  0
   -3.3368   -1.1774    6.4595 Cl  0  0  0  0  0  0  0  0  0  0  0  0
   -2.7624    1.6980    0.6109 H   0  0  0  0  0  0  0  0  0  0  0  0
   -0.1594    0.1093    0.9539 H   0  0  0  0  0  0  0  0  0  0  0  0
   -0.4570    1.2867   -0.3069 H   0  0  0  0  0  0  0  0  0  0  0  0
   -3.5316    0.9470   -1.5545 H   0  0  0  0  0  0  0  0  0  0  0  0
   -1.9154    0.2876   -1.8908 H   0  0  0  0  0  0  0  0  0  0  0  0
   -1.7700   -1.6328    1.9754 H   0  0  0  0  0  0  0  0  0  0  0  0
   -0.8936    3.8435    0.5536 H   0  0  0  0  0  0  0  0  0  0  0  0
    0.6476    1.0993    3.1984 H   0  0  0  0  0  0  0  0  0  0  0  0
   -2.8786   -1.9200   -2.0960 H   0  0  0  0  0  0  0  0  0  0  0  0
   -3.8568    1.2946    5.2156 H   0  0  0  0  0  0  0  0  0  0  0  0
   -2.2073   -2.4313    4.1765 H   0  0  0  0  0  0  0  0  0  0  0  0
    0.1306    5.1044    2.5623 H   0  0  0  0  0  0  0  0  0  0  0  0
   -5.0090   -2.0330   -2.9573 H   0  0  0  0  0  0  0  0  0  0  0  0
   -5.2891   -0.3923   -2.5728 H   0  0  0  0  0  0  0  0  0  0  0  0
  1  2  1  0  0  0  0 
  1  3  1  0  0  0  0 
  1  4  1  0  0  0  0 
  2  5  1  0  0  0  0 
  3  6  1  0  0  0  0 
  4  7  2  0  0  0  0 
  4  8  1  0  0  0  0 
  5  9  1  0  0  0  0 
  5 10  1  0  0  0  0 
  6 11  1  0  0  0  0 
  7 12  1  0  0  0  0 
  7 13  1  0  0  0  0 
  8 14  2  0  0  0  0 
  9 15  2  0  0  0  0 
 10 16  2  0  0  0  0 
 11 17  2  0  0  0  0 
 13 18  2  0  0  0  0 
 14 18  1  0  0  0  0 
 15 16  1  0  0  0  0 
 18 19  1  0  0  0  0 
  1 20  1  0  0  0  0 
  2 21  1  0  0  0  0 
  2 22  1  0  0  0  0 
  6 23  1  0  0  0  0 
  6 24  1  0  0  0  0 
  8 25  1  0  0  0  0 
  9 26  1  0  0  0  0 
 10 27  1  0  0  0  0 
 11 28  1  0  0  0  0 
 13 29  1  0  0  0  0 
 14 30  1  0  0  0  0 
 15 31  1  0  0  0  0 
 17 32  1  0  0  0  0 
 17 33  1  0  0  0  0 
M  END
> <cdk:Title>
enilconazole

> <Conformer>
1

> <SuperDrugID>
SD002751

$$$$
