algeldrate
  CDK     0628171801

  7  6  0  0  0  0  0  0  0  0999 V2000
    0.0506    0.4692   -0.5137 Al  0  0  0  0  0  0  0  0  0  0  0  0
   -0.7459   -0.9170   -1.0935 O   0  0  0  0  0  0  0  0  0  0  0  0
    1.7468    0.5557   -0.5802 O   0  0  0  0  0  0  0  0  0  0  0  0
   -0.7983    1.5919    0.4390 O   0  0  0  0  0  0  0  0  0  0  0  0
   -0.7059   -1.5523   -0.3476 H   0  0  0  0  0  0  0  0  0  0  0  0
    1.9478    1.5078   -0.4607 H   0  0  0  0  0  0  0  0  0  0  0  0
   -0.2437    2.4000    0.4169 H   0  0  0  0  0  0  0  0  0  0  0  0
  1  2  1  0  0  0  0 
  1  3  1  0  0  0  0 
  1  4  1  0  0  0  0 
  2  5  1  0  0  0  0 
  3  6  1  0  0  0  0 
  4  7  1  0  0  0  0 
M  END
> <cdk:Title>
algeldrate

> <Conformer>
1

> <SuperDrugID>
SD003452

$$$$
