telotristat ethyl
  CDK     0628171802

 66 69  0  0  0  0  0  0  0  0999 V2000
   -3.4509   -0.8599   -3.3937 C   0  0  0  0  0  0  0  0  0  0  0  0
   -4.6664   -0.1858   -3.1936 C   0  0  0  0  0  0  0  0  0  0  0  0
   -4.8829    0.5354   -2.0089 C   0  0  0  0  0  0  0  0  0  0  0  0
   -3.8828    0.5622   -1.0183 C   0  0  0  0  0  0  0  0  0  0  0  0
   -2.6566   -0.1189   -1.2090 C   0  0  0  0  0  0  0  0  0  0  0  0
   -2.4208   -0.8365   -2.4196 C   0  0  0  0  0  0  0  0  0  0  0  0
   -6.3437    1.3664   -1.7921 Cl  0  0  0  0  0  0  0  0  0  0  0  0
   -1.7023   -0.0316   -0.2381 N   0  0  0  0  0  0  0  0  0  0  0  0
   -0.9888    1.0721    0.0574 C   0  0  0  0  0  0  0  0  0  0  0  0
   -0.0669    0.7212    1.0278 C   0  0  0  0  0  0  0  0  0  0  0  0
   -0.2919   -0.6227    1.2888 C   0  0  0  0  0  0  0  0  0  0  0  0
   -1.3071   -1.0274    0.5020 N   0  0  0  0  0  0  0  0  0  0  0  0
    0.4596   -1.4576    2.2361 C   0  0  0  0  0  0  0  0  0  0  0  0
   -1.0991   -1.4810   -2.7371 C   0  0  1  0  0  0  0  0  0  0  0  0
   -1.3589   -2.7725   -3.3558 O   0  0  0  0  0  0  0  0  0  0  0  0
   -0.2616   -3.5682   -3.5404 C   0  0  0  0  0  0  0  0  0  0  0  0
    0.4330   -3.5115   -4.7603 C   0  0  0  0  0  0  0  0  0  0  0  0
    1.6393   -4.2359   -4.8926 C   0  0  0  0  0  0  0  0  0  0  0  0
    2.0108   -5.0425   -3.8590 N   0  0  0  0  0  0  0  0  0  0  0  0
    1.2912   -5.1536   -2.7162 C   0  0  0  0  0  0  0  0  0  0  0  0
    0.1714   -4.4022   -2.5582 N   0  0  0  0  0  0  0  0  0  0  0  0
   -0.2211   -0.4903   -3.5761 C   0  0  2  0  0  0  0  0  0  0  0  0
    1.0986   -0.8727   -3.5909 F   0  0  0  0  0  0  0  0  0  0  0  0
   -0.2204    0.7807   -3.0526 F   0  0  0  0  0  0  0  0  0  0  0  0
   -0.6535   -0.3924   -4.8752 F   0  0  0  0  0  0  0  0  0  0  0  0
    1.7039   -5.9922   -1.7539 N   0  0  0  0  0  0  0  0  0  0  0  0
    2.4954   -4.1056   -6.0227 C   0  0  0  0  0  0  0  0  0  0  0  0
    2.0094   -3.7811   -7.3134 C   0  0  0  0  0  0  0  0  0  0  0  0
    2.8894   -3.5929   -8.3936 C   0  0  0  0  0  0  0  0  0  0  0  0
    4.2865   -3.7396   -8.2268 C   0  0  0  0  0  0  0  0  0  0  0  0
    4.7740   -4.0481   -6.9384 C   0  0  0  0  0  0  0  0  0  0  0  0
    3.8944   -4.2507   -5.8636 C   0  0  0  0  0  0  0  0  0  0  0  0
    5.2362   -3.5717   -9.3648 C   0  0  1  0  0  0  0  0  0  0  0  0
    5.9810   -4.9418   -9.6949 C   0  0  1  0  0  0  0  0  0  0  0  0
    5.1171   -6.0993  -10.0446 C   0  0  0  0  0  0  0  0  0  0  0  0
    6.9263   -4.7011  -10.7944 N   0  0  2  0  0  0  0  0  0  0  0  0
    3.7637   -5.9668  -10.1821 O   0  0  0  0  0  0  0  0  0  0  0  0
    5.6511   -7.2228  -10.2026 O   0  0  0  0  0  0  0  0  0  0  0  0
    2.8131   -6.9899  -10.5042 C   0  0  2  0  0  0  0  0  0  0  0  0
    1.3963   -6.3885  -10.5082 C   0  0  0  0  0  0  0  0  0  0  0  0
   -3.3222   -1.3649   -4.2731 H   0  0  0  0  0  0  0  0  0  0  0  0
   -5.3881   -0.2175   -3.9177 H   0  0  0  0  0  0  0  0  0  0  0  0
   -4.0479    1.0857   -0.1533 H   0  0  0  0  0  0  0  0  0  0  0  0
   -1.0848    1.9968   -0.3672 H   0  0  0  0  0  0  0  0  0  0  0  0
    0.6377    1.3253    1.4540 H   0  0  0  0  0  0  0  0  0  0  0  0
    0.3923   -1.0274    3.2361 H   0  0  0  0  0  0  0  0  0  0  0  0
    0.0556   -2.4713    2.2573 H   0  0  0  0  0  0  0  0  0  0  0  0
    1.5082   -1.5023    1.9350 H   0  0  0  0  0  0  0  0  0  0  0  0
   -0.5478   -1.6765   -1.8136 H   0  0  0  0  0  0  0  0  0  0  0  0
    0.0764   -2.9103   -5.5047 H   0  0  0  0  0  0  0  0  0  0  0  0
    1.1971   -6.0741   -0.9314 H   0  0  0  0  0  0  0  0  0  0  0  0
    2.5078   -6.5227   -1.8812 H   0  0  0  0  0  0  0  0  0  0  0  0
    1.0073   -3.6782   -7.4899 H   0  0  0  0  0  0  0  0  0  0  0  0
    2.4962   -3.3490   -9.3049 H   0  0  0  0  0  0  0  0  0  0  0  0
    5.7802   -4.1259   -6.7718 H   0  0  0  0  0  0  0  0  0  0  0  0
    4.2974   -4.4909   -4.9539 H   0  0  0  0  0  0  0  0  0  0  0  0
    4.6324   -3.3398  -10.3001 H   0  0  0  0  0  0  0  0  0  0  0  0
    5.9398   -2.7104   -9.0108 H   0  0  0  0  0  0  0  0  0  0  0  0
    6.5840   -5.2238   -8.8281 H   0  0  0  0  0  0  0  0  0  0  0  0
    7.5344   -3.9268  -10.5117 H   0  0  0  0  0  0  0  0  0  0  0  0
    6.3811   -4.3728  -11.5935 H   0  0  0  0  0  0  0  0  0  0  0  0
    2.8621   -7.7928   -9.7636 H   0  0  0  0  0  0  0  0  0  0  0  0
    3.0392   -7.4044  -11.4893 H   0  0  0  0  0  0  0  0  0  0  0  0
    0.6660   -7.1485  -10.7925 H   0  0  0  0  0  0  0  0  0  0  0  0
    1.1499   -6.0202   -9.5124 H   0  0  0  0  0  0  0  0  0  0  0  0
    1.3400   -5.5635  -11.2183 H   0  0  0  0  0  0  0  0  0  0  0  0
  1  2  2  0  0  0  0 
  1  6  1  0  0  0  0 
  2  3  1  0  0  0  0 
  3  4  2  0  0  0  0 
  4  5  1  0  0  0  0 
  5  6  2  0  0  0  0 
  3  7  1  0  0  0  0 
  5  8  1  0  0  0  0 
  9 10  2  0  0  0  0 
 10 11  1  0  0  0  0 
 11 12  2  0  0  0  0 
  8  9  1  0  0  0  0 
  8 12  1  0  0  0  0 
 11 13  1  0  0  0  0 
  6 14  1  0  0  0  0 
 14 15  1  0  0  0  0 
 15 16  1  0  0  0  0 
 17 18  1  0  0  0  0 
 18 19  2  0  0  0  0 
 19 20  1  0  0  0  0 
 20 21  2  0  0  0  0 
 16 17  2  0  0  0  0 
 16 21  1  0  0  0  0 
 14 22  1  0  0  0  0 
 22 23  1  0  0  0  0 
 22 24  1  0  0  0  0 
 22 25  1  0  0  0  0 
 20 26  1  0  0  0  0 
 18 27  1  0  0  0  0 
 28 29  1  0  0  0  0 
 29 30  2  0  0  0  0 
 30 31  1  0  0  0  0 
 31 32  2  0  0  0  0 
 27 28  2  0  0  0  0 
 27 32  1  0  0  0  0 
 30 33  1  0  0  0  0 
 33 34  1  0  0  0  0 
 34 35  1  0  0  0  0 
 34 36  1  0  0  0  0 
 35 37  1  0  0  0  0 
 35 38  2  0  0  0  0 
 37 39  1  0  0  0  0 
 39 40  1  0  0  0  0 
  1 41  1  0  0  0  0 
  2 42  1  0  0  0  0 
  4 43  1  0  0  0  0 
  9 44  1  0  0  0  0 
 10 45  1  0  0  0  0 
 13 46  1  0  0  0  0 
 13 47  1  0  0  0  0 
 13 48  1  0  0  0  0 
 14 49  1  0  0  0  0 
 17 50  1  0  0  0  0 
 26 51  1  0  0  0  0 
 26 52  1  0  0  0  0 
 28 53  1  0  0  0  0 
 29 54  1  0  0  0  0 
 31 55  1  0  0  0  0 
 32 56  1  0  0  0  0 
 33 57  1  0  0  0  0 
 33 58  1  0  0  0  0 
 34 59  1  0  0  0  0 
 36 60  1  0  0  0  0 
 36 61  1  0  0  0  0 
 39 62  1  0  0  0  0 
 39 63  1  0  0  0  0 
 40 64  1  0  0  0  0 
 40 65  1  0  0  0  0 
 40 66  1  0  0  0  0 
M  END
> <cdk:Title>
telotristat ethyl

> <Conformer>
1

> <SuperDrugID>
SD003942

$$$$
