perospirone
  CDK     0628171801

 60 64  0  0  0  0  0  0  0  0999 V2000
    3.3785    4.5379   -2.5810 C   0  0  1  0  0  0  0  0  0  0  0  0
    4.1832    4.7685   -3.8885 C   0  0  1  0  0  0  0  0  0  0  0  0
    2.8042    3.1607   -2.3973 N   0  0  1  0  0  0  0  0  0  0  0  0
    4.8257    6.1824   -3.9436 C   0  0  2  0  0  0  0  0  0  0  0  0
    2.1623    3.0441   -1.0419 C   0  0  2  0  0  0  0  0  0  0  0  0
    1.8903    2.7161   -3.5067 C   0  0  1  0  0  0  0  0  0  0  0  0
    5.5733    6.4355   -5.2794 C   0  0  2  0  0  0  0  0  0  0  0  0
    1.4976    1.6671   -0.8060 C   0  0  2  0  0  0  0  0  0  0  0  0
    1.2190    1.3488   -3.2170 C   0  0  2  0  0  0  0  0  0  0  0  0
    6.2163    7.7236   -5.3011 N   0  0  0  0  0  0  0  0  0  0  0  0
    0.6092    1.4173   -1.9125 N   0  0  0  0  0  0  0  0  0  0  0  0
    5.7471    8.8318   -5.9215 C   0  0  0  0  0  0  0  0  0  0  0  0
    7.3929    8.0170   -4.7034 C   0  0  0  0  0  0  0  0  0  0  0  0
   -0.7561    1.4285   -1.7685 C   0  0  0  0  0  0  0  0  0  0  0  0
    4.6544    8.9012   -6.5331 O   0  0  0  0  0  0  0  0  0  0  0  0
    6.6934    9.9609   -5.8667 C   0  0  1  0  0  0  0  0  0  0  0  0
    8.0639    7.2001   -4.0276 O   0  0  0  0  0  0  0  0  0  0  0  0
    7.7528    9.4371   -4.8420 C   0  0  2  0  0  0  0  0  0  0  0  0
   -1.5103    0.6837   -0.8298 C   0  0  0  0  0  0  0  0  0  0  0  0
   -1.4919    2.2446   -2.5638 N   0  0  0  0  0  0  0  0  0  0  0  0
    7.2099   10.2883   -7.3064 C   0  0  2  0  0  0  0  0  0  0  0  0
    9.2607    9.7464   -5.1344 C   0  0  1  0  0  0  0  0  0  0  0  0
   -2.8867    0.9509   -0.8879 C   0  0  0  0  0  0  0  0  0  0  0  0
   -1.0499   -0.2674    0.1099 C   0  0  0  0  0  0  0  0  0  0  0  0
   -3.1417    2.1210   -2.1578 S   0  0  0  0  0  0  0  0  0  0  0  0
    8.6328   10.8858   -7.3250 C   0  0  1  0  0  0  0  0  0  0  0  0
    9.6063    9.9042   -6.6347 C   0  0  2  0  0  0  0  0  0  0  0  0
   -3.8197    0.3400   -0.0373 C   0  0  0  0  0  0  0  0  0  0  0  0
   -1.9659   -0.8853    0.9866 C   0  0  0  0  0  0  0  0  0  0  0  0
   -3.3432   -0.5834    0.9135 C   0  0  0  0  0  0  0  0  0  0  0  0
    6.1936   10.8443   -5.4527 H   0  0  0  0  0  0  0  0  0  0  0  0
    7.5294    9.8794   -3.8639 H   0  0  0  0  0  0  0  0  0  0  0  0
    4.0637    4.7320   -1.7503 H   0  0  0  0  0  0  0  0  0  0  0  0
    2.5769    5.2828   -2.5285 H   0  0  0  0  0  0  0  0  0  0  0  0
    4.9659    4.0073   -3.9587 H   0  0  0  0  0  0  0  0  0  0  0  0
    3.5174    4.6662   -4.7493 H   0  0  0  0  0  0  0  0  0  0  0  0
    5.5214    6.2928   -3.1067 H   0  0  0  0  0  0  0  0  0  0  0  0
    4.0413    6.9390   -3.8364 H   0  0  0  0  0  0  0  0  0  0  0  0
    1.3903    3.8139   -0.9225 H   0  0  0  0  0  0  0  0  0  0  0  0
    2.9141    3.1910   -0.2609 H   0  0  0  0  0  0  0  0  0  0  0  0
    1.1073    3.4653   -3.6700 H   0  0  0  0  0  0  0  0  0  0  0  0
    2.4551    2.6037   -4.4341 H   0  0  0  0  0  0  0  0  0  0  0  0
    4.8527    6.3562   -6.0991 H   0  0  0  0  0  0  0  0  0  0  0  0
    6.3227    5.6541   -5.4406 H   0  0  0  0  0  0  0  0  0  0  0  0
    0.9828    1.7065    0.1581 H   0  0  0  0  0  0  0  0  0  0  0  0
    2.2582    0.8813   -0.7473 H   0  0  0  0  0  0  0  0  0  0  0  0
    1.9679    0.5513   -3.2381 H   0  0  0  0  0  0  0  0  0  0  0  0
    0.4959    1.1258   -4.0083 H   0  0  0  0  0  0  0  0  0  0  0  0
    6.5234   10.9935   -7.7843 H   0  0  0  0  0  0  0  0  0  0  0  0
    7.2281    9.3847   -7.9273 H   0  0  0  0  0  0  0  0  0  0  0  0
    9.4734   10.7647   -4.6709 H   0  0  0  0  0  0  0  0  0  0  0  0
    9.8894    8.8758   -4.7589 H   0  0  0  0  0  0  0  0  0  0  0  0
   -0.0602   -0.5216    0.1652 H   0  0  0  0  0  0  0  0  0  0  0  0
    8.9448   11.0436   -8.3611 H   0  0  0  0  0  0  0  0  0  0  0  0
    8.6418   11.8535   -6.8154 H   0  0  0  0  0  0  0  0  0  0  0  0
    9.5695    8.9321   -7.1356 H   0  0  0  0  0  0  0  0  0  0  0  0
   10.6261   10.2873   -6.7227 H   0  0  0  0  0  0  0  0  0  0  0  0
   -4.8150    0.5624   -0.1068 H   0  0  0  0  0  0  0  0  0  0  0  0
   -1.6296   -1.5582    1.6776 H   0  0  0  0  0  0  0  0  0  0  0  0
   -3.9989   -1.0382    1.5511 H   0  0  0  0  0  0  0  0  0  0  0  0
  1  2  1  0  0  0  0 
  1  3  1  0  0  0  0 
  2  4  1  0  0  0  0 
  3  5  1  0  0  0  0 
  3  6  1  0  0  0  0 
  4  7  1  0  0  0  0 
  5  8  1  0  0  0  0 
  6  9  1  0  0  0  0 
  7 10  1  0  0  0  0 
  8 11  1  0  0  0  0 
  9 11  1  0  0  0  0 
 10 12  1  0  0  0  0 
 10 13  1  0  0  0  0 
 11 14  1  0  0  0  0 
 12 15  2  0  0  0  0 
 16 12  1  0  0  0  0 
 13 17  2  0  0  0  0 
 18 13  1  0  0  0  0 
 14 19  1  0  0  0  0 
 14 20  2  0  0  0  0 
 18 16  1  0  0  0  0 
 16 21  1  0  0  0  0 
 16 31  1  0  0  0  0 
 18 22  1  0  0  0  0 
 18 32  1  0  0  0  0 
 19 23  1  0  0  0  0 
 19 24  2  0  0  0  0 
 20 25  1  0  0  0  0 
 21 26  1  0  0  0  0 
 22 27  1  0  0  0  0 
 23 25  1  0  0  0  0 
 23 28  2  0  0  0  0 
 24 29  1  0  0  0  0 
 26 27  1  0  0  0  0 
 28 30  1  0  0  0  0 
 29 30  2  0  0  0  0 
  1 33  1  0  0  0  0 
  1 34  1  0  0  0  0 
  2 35  1  0  0  0  0 
  2 36  1  0  0  0  0 
  4 37  1  0  0  0  0 
  4 38  1  0  0  0  0 
  5 39  1  0  0  0  0 
  5 40  1  0  0  0  0 
  6 41  1  0  0  0  0 
  6 42  1  0  0  0  0 
  7 43  1  0  0  0  0 
  7 44  1  0  0  0  0 
  8 45  1  0  0  0  0 
  8 46  1  0  0  0  0 
  9 47  1  0  0  0  0 
  9 48  1  0  0  0  0 
 21 49  1  0  0  0  0 
 21 50  1  0  0  0  0 
 22 51  1  0  0  0  0 
 22 52  1  0  0  0  0 
 24 53  1  0  0  0  0 
 26 54  1  0  0  0  0 
 26 55  1  0  0  0  0 
 27 56  1  0  0  0  0 
 27 57  1  0  0  0  0 
 28 58  1  0  0  0  0 
 29 59  1  0  0  0  0 
 30 60  1  0  0  0  0 
M  END
> <cdk:Title>
perospirone

> <Conformer>
1

> <SuperDrugID>
SD001893

$$$$
