benzalkonium
  CDK     0628171801

 60 60  0  0  0  0  0  0  0  0999 V2000
   -1.3378   -1.9806   -0.7789 C   0  0  2  0  0  0  0  0  0  0  0  0
   -0.7570   -0.7377   -0.1081 N   0  0  2  0  0  0  0  0  0  0  0  0
   -1.3883   -3.2338    0.0353 C   0  0  0  0  0  0  0  0  0  0  0  0
    0.6780   -0.9163    0.3814 C   0  0  1  0  0  0  0  0  0  0  0  0
   -1.6091   -0.3596    1.0895 C   0  0  0  0  0  0  0  0  0  0  0  0
   -0.8308    0.4103   -1.0942 C   0  0  0  0  0  0  0  0  0  0  0  0
   -2.5470   -3.5671    0.7799 C   0  0  0  0  0  0  0  0  0  0  0  0
   -0.2822   -4.1167    0.0797 C   0  0  0  0  0  0  0  0  0  0  0  0
    1.7950   -1.1391   -0.6871 C   0  0  2  0  0  0  0  0  0  0  0  0
   -2.5828   -4.7279    1.5751 C   0  0  0  0  0  0  0  0  0  0  0  0
   -0.3163   -5.2741    0.8771 C   0  0  0  0  0  0  0  0  0  0  0  0
    3.1356   -1.6510   -0.0898 C   0  0  2  0  0  0  0  0  0  0  0  0
   -1.4660   -5.5807    1.6264 C   0  0  0  0  0  0  0  0  0  0  0  0
    4.1620   -2.0106   -1.1986 C   0  0  2  0  0  0  0  0  0  0  0  0
    5.5615   -2.4005   -0.6527 C   0  0  1  0  0  0  0  0  0  0  0  0
    6.5594   -2.7178   -1.7976 C   0  0  2  0  0  0  0  0  0  0  0  0
    7.9846   -3.0597   -1.2909 C   0  0  1  0  0  0  0  0  0  0  0  0
    8.9779   -3.3561   -2.4483 C   0  0  2  0  0  0  0  0  0  0  0  0
   10.4016   -3.6930   -1.9263 C   0  0  1  0  0  0  0  0  0  0  0  0
   11.3986   -3.9927   -3.0796 C   0  0  1  0  0  0  0  0  0  0  0  0
   12.8196   -4.3318   -2.5547 C   0  0  2  0  0  0  0  0  0  0  0  0
   13.8207   -4.6336   -3.6911 C   0  0  0  0  0  0  0  0  0  0  0  0
   -0.7957   -2.2092   -1.7017 H   0  0  0  0  0  0  0  0  0  0  0  0
   -2.3590   -1.7664   -1.1194 H   0  0  0  0  0  0  0  0  0  0  0  0
    0.9813   -0.0314    0.9527 H   0  0  0  0  0  0  0  0  0  0  0  0
    0.7118   -1.7451    1.0932 H   0  0  0  0  0  0  0  0  0  0  0  0
   -2.6672   -0.2616    0.8261 H   0  0  0  0  0  0  0  0  0  0  0  0
   -1.5403   -1.1050    1.8862 H   0  0  0  0  0  0  0  0  0  0  0  0
   -1.2969    0.5965    1.5245 H   0  0  0  0  0  0  0  0  0  0  0  0
   -0.3304    0.1644   -2.0353 H   0  0  0  0  0  0  0  0  0  0  0  0
   -1.8657    0.6579   -1.3505 H   0  0  0  0  0  0  0  0  0  0  0  0
   -0.3623    1.3157   -0.6970 H   0  0  0  0  0  0  0  0  0  0  0  0
   -3.3739   -2.9645    0.7498 H   0  0  0  0  0  0  0  0  0  0  0  0
    0.5587   -3.9216   -0.4682 H   0  0  0  0  0  0  0  0  0  0  0  0
    1.9926   -0.1911   -1.1951 H   0  0  0  0  0  0  0  0  0  0  0  0
    1.4574   -1.8527   -1.4389 H   0  0  0  0  0  0  0  0  0  0  0  0
   -3.4207   -4.9477    2.1173 H   0  0  0  0  0  0  0  0  0  0  0  0
    0.4964   -5.8920    0.9144 H   0  0  0  0  0  0  0  0  0  0  0  0
    2.9484   -2.5430    0.5159 H   0  0  0  0  0  0  0  0  0  0  0  0
    3.5537   -0.8775    0.5598 H   0  0  0  0  0  0  0  0  0  0  0  0
   -1.4891   -6.4202    2.2092 H   0  0  0  0  0  0  0  0  0  0  0  0
    4.2740   -1.1551   -1.8692 H   0  0  0  0  0  0  0  0  0  0  0  0
    3.7695   -2.8465   -1.7854 H   0  0  0  0  0  0  0  0  0  0  0  0
    5.9518   -1.5740   -0.0537 H   0  0  0  0  0  0  0  0  0  0  0  0
    5.4646   -3.2747   -0.0037 H   0  0  0  0  0  0  0  0  0  0  0  0
    6.6218   -1.8513   -2.4617 H   0  0  0  0  0  0  0  0  0  0  0  0
    6.1762   -3.5625   -2.3765 H   0  0  0  0  0  0  0  0  0  0  0  0
    8.3657   -2.2182   -0.7048 H   0  0  0  0  0  0  0  0  0  0  0  0
    7.9299   -3.9340   -0.6358 H   0  0  0  0  0  0  0  0  0  0  0  0
    9.0331   -2.4819   -3.1056 H   0  0  0  0  0  0  0  0  0  0  0  0
    8.6003   -4.1986   -3.0369 H   0  0  0  0  0  0  0  0  0  0  0  0
   10.7853   -2.7641   -1.3942 H   0  0  0  0  0  0  0  0  0  0  0  0
   10.3100   -4.6477   -1.3153 H   0  0  0  0  0  0  0  0  0  0  0  0
   11.0263   -4.8374   -3.6685 H   0  0  0  0  0  0  0  0  0  0  0  0
   11.4618   -3.1205   -3.7384 H   0  0  0  0  0  0  0  0  0  0  0  0
   12.7661   -5.2051   -1.8975 H   0  0  0  0  0  0  0  0  0  0  0  0
   13.2017   -3.4903   -1.9688 H   0  0  0  0  0  0  0  0  0  0  0  0
   14.8004   -4.8652   -3.2689 H   0  0  0  0  0  0  0  0  0  0  0  0
   13.4839   -5.4900   -4.2782 H   0  0  0  0  0  0  0  0  0  0  0  0
   13.9217   -3.7689   -4.3496 H   0  0  0  0  0  0  0  0  0  0  0  0
  1  2  1  0  0  0  0 
  1  3  1  0  0  0  0 
  2  4  1  0  0  0  0 
  2  5  1  0  0  0  0 
  2  6  1  0  0  0  0 
  3  7  2  0  0  0  0 
  3  8  1  0  0  0  0 
  4  9  1  0  0  0  0 
  7 10  1  0  0  0  0 
  8 11  2  0  0  0  0 
  9 12  1  0  0  0  0 
 10 13  2  0  0  0  0 
 11 13  1  0  0  0  0 
 12 14  1  0  0  0  0 
 14 15  1  0  0  0  0 
 15 16  1  0  0  0  0 
 16 17  1  0  0  0  0 
 17 18  1  0  0  0  0 
 18 19  1  0  0  0  0 
 19 20  1  0  0  0  0 
 20 21  1  0  0  0  0 
 21 22  1  0  0  0  0 
  1 23  1  0  0  0  0 
  1 24  1  0  0  0  0 
  4 25  1  0  0  0  0 
  4 26  1  0  0  0  0 
  5 27  1  0  0  0  0 
  5 28  1  0  0  0  0 
  5 29  1  0  0  0  0 
  6 30  1  0  0  0  0 
  6 31  1  0  0  0  0 
  6 32  1  0  0  0  0 
  7 33  1  0  0  0  0 
  8 34  1  0  0  0  0 
  9 35  1  0  0  0  0 
  9 36  1  0  0  0  0 
 10 37  1  0  0  0  0 
 11 38  1  0  0  0  0 
 12 39  1  0  0  0  0 
 12 40  1  0  0  0  0 
 13 41  1  0  0  0  0 
 14 42  1  0  0  0  0 
 14 43  1  0  0  0  0 
 15 44  1  0  0  0  0 
 15 45  1  0  0  0  0 
 16 46  1  0  0  0  0 
 16 47  1  0  0  0  0 
 17 48  1  0  0  0  0 
 17 49  1  0  0  0  0 
 18 50  1  0  0  0  0 
 18 51  1  0  0  0  0 
 19 52  1  0  0  0  0 
 19 53  1  0  0  0  0 
 20 54  1  0  0  0  0 
 20 55  1  0  0  0  0 
 21 56  1  0  0  0  0 
 21 57  1  0  0  0  0 
 22 58  1  0  0  0  0 
 22 59  1  0  0  0  0 
 22 60  1  0  0  0  0 
M  CHG  1   2   1
M  END
> <cdk:Title>
benzalkonium

> <Conformer>
1

> <SuperDrugID>
SD002622

$$$$
