cinalukast
  CDK     0628171802

 57 59  0  0  0  0  0  0  0  0999 V2000
   -0.8144   -4.2579   -6.6277 C   0  0  0  0  0  0  0  0  0  0  0  0
    0.0802   -3.2070   -6.3021 C   0  0  0  0  0  0  0  0  0  0  0  0
    1.0378   -2.8435   -7.2824 C   0  0  0  0  0  0  0  0  0  0  0  0
    1.0683   -3.4757   -8.5411 C   0  0  0  0  0  0  0  0  0  0  0  0
    0.1209   -4.4652   -8.8603 C   0  0  0  0  0  0  0  0  0  0  0  0
   -0.8538   -4.8391   -7.9151 C   0  0  0  0  0  0  0  0  0  0  0  0
   -1.8091   -5.7551   -8.2525 N   0  0  0  0  0  0  0  0  0  0  0  0
    0.0335   -2.5211   -5.0779 C   0  0  0  0  0  0  0  0  0  0  0  0
   -1.0526   -2.4200   -4.2856 C   0  0  0  0  0  0  0  0  0  0  0  0
   -1.1059   -1.7160   -3.0995 C   0  0  0  0  0  0  0  0  0  0  0  0
   -2.5615   -1.4682   -2.1491 S   0  0  0  0  0  0  0  0  0  0  0  0
   -1.7882   -0.4817   -0.9283 C   0  0  0  0  0  0  0  0  0  0  0  0
   -0.4394   -0.3953   -1.3013 C   0  0  0  0  0  0  0  0  0  0  0  0
   -0.1119   -1.0633   -2.4490 N   0  0  0  0  0  0  0  0  0  0  0  0
    0.5477    0.3811   -0.5040 C   0  0  2  0  0  0  0  0  0  0  0  0
    1.5515    1.2439   -1.3057 C   0  0  2  0  0  0  0  0  0  0  0  0
    2.7174    0.4010   -0.7564 C   0  0  2  0  0  0  0  0  0  0  0  0
    1.7271   -0.4263    0.0833 C   0  0  1  0  0  0  0  0  0  0  0  0
   -3.1563   -5.6680   -8.0114 C   0  0  0  0  0  0  0  0  0  0  0  0
   -3.8733   -4.4542   -7.5104 C   0  0  2  0  0  0  0  0  0  0  0  0
   -3.8075   -6.7106   -8.2452 O   0  0  0  0  0  0  0  0  0  0  0  0
   -5.1939   -4.0061   -8.2560 C   0  0  2  0  0  0  0  0  0  0  0  0
   -5.5586   -2.6369   -7.7442 C   0  0  0  0  0  0  0  0  0  0  0  0
   -6.7418   -2.3510   -7.1489 O   0  0  0  0  0  0  0  0  0  0  0  0
   -4.7743   -1.6679   -7.8694 O   0  0  0  0  0  0  0  0  0  0  0  0
   -6.3835   -5.0193   -8.0166 C   0  0  2  0  0  0  0  0  0  0  0  0
   -4.8960   -3.8937   -9.8031 C   0  0  1  0  0  0  0  0  0  0  0  0
   -6.6689   -5.4522   -6.5539 C   0  0  0  0  0  0  0  0  0  0  0  0
   -6.0273   -3.3263  -10.6987 C   0  0  0  0  0  0  0  0  0  0  0  0
   -1.4714   -4.6091   -5.9266 H   0  0  0  0  0  0  0  0  0  0  0  0
    1.7216   -2.1058   -7.0954 H   0  0  0  0  0  0  0  0  0  0  0  0
    1.7709   -3.2040   -9.2341 H   0  0  0  0  0  0  0  0  0  0  0  0
    0.1367   -4.8978   -9.7882 H   0  0  0  0  0  0  0  0  0  0  0  0
   -1.5029   -6.5468   -8.7239 H   0  0  0  0  0  0  0  0  0  0  0  0
    0.8591   -2.0478   -4.7874 H   0  0  0  0  0  0  0  0  0  0  0  0
   -1.9008   -2.8547   -4.5617 H   0  0  0  0  0  0  0  0  0  0  0  0
   -2.2374   -0.0568   -0.1157 H   0  0  0  0  0  0  0  0  0  0  0  0
    0.0638    0.9758    0.2776 H   0  0  0  0  0  0  0  0  0  0  0  0
    1.5864    2.2831   -0.9656 H   0  0  0  0  0  0  0  0  0  0  0  0
    1.4546    1.1763   -2.3923 H   0  0  0  0  0  0  0  0  0  0  0  0
    3.4249    0.9777   -0.1526 H   0  0  0  0  0  0  0  0  0  0  0  0
    3.2113   -0.1939   -1.5284 H   0  0  0  0  0  0  0  0  0  0  0  0
    1.8547   -0.2694    1.1590 H   0  0  0  0  0  0  0  0  0  0  0  0
    1.7251   -1.4875   -0.1770 H   0  0  0  0  0  0  0  0  0  0  0  0
   -3.1779   -3.6182   -7.5624 H   0  0  0  0  0  0  0  0  0  0  0  0
   -4.0729   -4.6013   -6.4473 H   0  0  0  0  0  0  0  0  0  0  0  0
   -6.9327   -1.4426   -6.8310 H   0  0  0  0  0  0  0  0  0  0  0  0
   -6.2191   -5.9307   -8.5943 H   0  0  0  0  0  0  0  0  0  0  0  0
   -7.3074   -4.5794   -8.4005 H   0  0  0  0  0  0  0  0  0  0  0  0
   -4.0107   -3.2711   -9.9601 H   0  0  0  0  0  0  0  0  0  0  0  0
   -4.6500   -4.8813  -10.1998 H   0  0  0  0  0  0  0  0  0  0  0  0
   -7.6429   -5.9422   -6.4953 H   0  0  0  0  0  0  0  0  0  0  0  0
   -5.9137   -6.1609   -6.2109 H   0  0  0  0  0  0  0  0  0  0  0  0
   -6.6792   -4.5958   -5.8803 H   0  0  0  0  0  0  0  0  0  0  0  0
   -5.6518   -3.1770  -11.7134 H   0  0  0  0  0  0  0  0  0  0  0  0
   -6.8663   -4.0224  -10.7460 H   0  0  0  0  0  0  0  0  0  0  0  0
   -6.3837   -2.3649  -10.3257 H   0  0  0  0  0  0  0  0  0  0  0  0
  1  2  2  0  0  0  0 
  1  6  1  0  0  0  0 
  2  3  1  0  0  0  0 
  3  4  2  0  0  0  0 
  4  5  1  0  0  0  0 
  5  6  2  0  0  0  0 
  6  7  1  0  0  0  0 
  2  8  1  0  0  0  0 
  8  9  2  0  0  0  0 
  9 10  1  0  0  0  0 
 11 12  1  0  0  0  0 
 12 13  2  0  0  0  0 
 13 14  1  0  0  0  0 
 10 11  1  0  0  0  0 
 10 14  2  0  0  0  0 
 13 15  1  0  0  0  0 
 16 17  1  0  0  0  0 
 17 18  1  0  0  0  0 
 15 16  1  0  0  0  0 
 18 15  1  0  0  0  0 
  7 19  1  0  0  0  0 
 19 20  1  0  0  0  0 
 19 21  2  0  0  0  0 
 20 22  1  0  0  0  0 
 22 23  1  0  0  0  0 
 23 24  1  0  0  0  0 
 23 25  2  0  0  0  0 
 22 26  1  0  0  0  0 
 22 27  1  0  0  0  0 
 26 28  1  0  0  0  0 
 27 29  1  0  0  0  0 
  1 30  1  0  0  0  0 
  3 31  1  0  0  0  0 
  4 32  1  0  0  0  0 
  5 33  1  0  0  0  0 
  7 34  1  0  0  0  0 
  8 35  1  0  0  0  0 
  9 36  1  0  0  0  0 
 12 37  1  0  0  0  0 
 15 38  1  0  0  0  0 
 16 39  1  0  0  0  0 
 16 40  1  0  0  0  0 
 17 41  1  0  0  0  0 
 17 42  1  0  0  0  0 
 18 43  1  0  0  0  0 
 18 44  1  0  0  0  0 
 20 45  1  0  0  0  0 
 20 46  1  0  0  0  0 
 24 47  1  0  0  0  0 
 26 48  1  0  0  0  0 
 26 49  1  0  0  0  0 
 27 50  1  0  0  0  0 
 27 51  1  0  0  0  0 
 28 52  1  0  0  0  0 
 28 53  1  0  0  0  0 
 28 54  1  0  0  0  0 
 29 55  1  0  0  0  0 
 29 56  1  0  0  0  0 
 29 57  1  0  0  0  0 
M  END
> <cdk:Title>
cinalukast

> <Conformer>
1

> <SuperDrugID>
SD000568

$$$$
