methallenestril
  CDK     0628171801

 43 44  0  0  0  0  0  0  0  0999 V2000
    1.5884   -0.6201   -2.4317 C   0  0  2  0  0  0  0  0  0  0  0  0
    2.5823   -1.8559   -2.2547 C   0  0  1  0  0  0  0  0  0  0  0  0
    1.3273   -0.1542   -3.9059 C   0  0  2  0  0  0  0  0  0  0  0  0
    1.9284    0.5568   -1.5418 C   0  0  0  0  0  0  0  0  0  0  0  0
    3.9827   -1.5162   -2.6702 C   0  0  0  0  0  0  0  0  0  0  0  0
    2.5622   -2.3085   -0.7490 C   0  0  0  0  0  0  0  0  0  0  0  0
    2.1331   -3.1095   -3.0892 C   0  0  0  0  0  0  0  0  0  0  0  0
    0.2364    0.9333   -4.0645 C   0  0  0  0  0  0  0  0  0  0  0  0
    3.0992    1.3327   -1.7341 C   0  0  0  0  0  0  0  0  0  0  0  0
    1.0789    0.9158   -0.4663 C   0  0  0  0  0  0  0  0  0  0  0  0
    4.9912   -1.3654   -1.7752 O   0  0  0  0  0  0  0  0  0  0  0  0
    4.2786   -1.3219   -3.8718 O   0  0  0  0  0  0  0  0  0  0  0  0
    3.4513    2.3808   -0.8540 C   0  0  0  0  0  0  0  0  0  0  0  0
    1.3894    1.9841    0.3932 C   0  0  0  0  0  0  0  0  0  0  0  0
    2.5719    2.7278    0.2085 C   0  0  0  0  0  0  0  0  0  0  0  0
    4.6626    3.0934   -1.0098 C   0  0  0  0  0  0  0  0  0  0  0  0
    2.8885    3.8168    1.0517 C   0  0  0  0  0  0  0  0  0  0  0  0
    4.9771    4.1616   -0.1521 C   0  0  0  0  0  0  0  0  0  0  0  0
    4.0759    4.5491    0.8576 C   0  0  0  0  0  0  0  0  0  0  0  0
    4.3558    5.6256    1.6530 O   0  0  0  0  0  0  0  0  0  0  0  0
    3.9382    6.8707    1.0597 C   0  0  0  0  0  0  0  0  0  0  0  0
    0.6134   -1.0066   -2.1135 H   0  0  0  0  0  0  0  0  0  0  0  0
    0.9898   -1.0053   -4.4982 H   0  0  0  0  0  0  0  0  0  0  0  0
    2.2465    0.2179   -4.3566 H   0  0  0  0  0  0  0  0  0  0  0  0
    2.9053   -1.5098   -0.0879 H   0  0  0  0  0  0  0  0  0  0  0  0
    3.2132   -3.1713   -0.5854 H   0  0  0  0  0  0  0  0  0  0  0  0
    1.5504   -2.5861   -0.4424 H   0  0  0  0  0  0  0  0  0  0  0  0
    2.7796   -3.9682   -2.8872 H   0  0  0  0  0  0  0  0  0  0  0  0
    1.1095   -3.3949   -2.8427 H   0  0  0  0  0  0  0  0  0  0  0  0
    2.1789   -2.9201   -4.1628 H   0  0  0  0  0  0  0  0  0  0  0  0
    0.0982    1.1655   -5.1236 H   0  0  0  0  0  0  0  0  0  0  0  0
    0.5259    1.8520   -3.5510 H   0  0  0  0  0  0  0  0  0  0  0  0
   -0.7132    0.5796   -3.6581 H   0  0  0  0  0  0  0  0  0  0  0  0
    3.7097    1.1360   -2.5288 H   0  0  0  0  0  0  0  0  0  0  0  0
    0.2162    0.3954   -0.2954 H   0  0  0  0  0  0  0  0  0  0  0  0
    5.8883   -1.1127   -2.0793 H   0  0  0  0  0  0  0  0  0  0  0  0
    0.7451    2.2135    1.1551 H   0  0  0  0  0  0  0  0  0  0  0  0
    5.3292    2.8401   -1.7448 H   0  0  0  0  0  0  0  0  0  0  0  0
    2.2524    4.0907    1.8060 H   0  0  0  0  0  0  0  0  0  0  0  0
    5.8592    4.6663   -0.2680 H   0  0  0  0  0  0  0  0  0  0  0  0
    4.2447    7.6819    1.7216 H   0  0  0  0  0  0  0  0  0  0  0  0
    4.4101    7.0338    0.0851 H   0  0  0  0  0  0  0  0  0  0  0  0
    2.8502    6.9126    0.9487 H   0  0  0  0  0  0  0  0  0  0  0  0
  1  2  1  0  0  0  0 
  1  3  1  0  0  0  0 
  1  4  1  0  0  0  0 
  2  5  1  0  0  0  0 
  2  6  1  0  0  0  0 
  2  7  1  0  0  0  0 
  3  8  1  0  0  0  0 
  4  9  1  0  0  0  0 
  4 10  2  0  0  0  0 
  5 11  1  0  0  0  0 
  5 12  2  0  0  0  0 
  9 13  2  0  0  0  0 
 10 14  1  0  0  0  0 
 13 15  1  0  0  0  0 
 13 16  1  0  0  0  0 
 14 15  2  0  0  0  0 
 15 17  1  0  0  0  0 
 16 18  2  0  0  0  0 
 17 19  2  0  0  0  0 
 18 19  1  0  0  0  0 
 19 20  1  0  0  0  0 
 20 21  1  0  0  0  0 
  1 22  1  0  0  0  0 
  3 23  1  0  0  0  0 
  3 24  1  0  0  0  0 
  6 25  1  0  0  0  0 
  6 26  1  0  0  0  0 
  6 27  1  0  0  0  0 
  7 28  1  0  0  0  0 
  7 29  1  0  0  0  0 
  7 30  1  0  0  0  0 
  8 31  1  0  0  0  0 
  8 32  1  0  0  0  0 
  8 33  1  0  0  0  0 
  9 34  1  0  0  0  0 
 10 35  1  0  0  0  0 
 11 36  1  0  0  0  0 
 14 37  1  0  0  0  0 
 16 38  1  0  0  0  0 
 17 39  1  0  0  0  0 
 18 40  1  0  0  0  0 
 21 41  1  0  0  0  0 
 21 42  1  0  0  0  0 
 21 43  1  0  0  0  0 
M  END
> <cdk:Title>
methallenestril

> <Conformer>
1

> <SuperDrugID>
SD001531

$$$$
