protheobromine
  CDK     0628171801

 31 32  0  0  0  0  0  0  0  0999 V2000
    0.8816    1.8511    1.5315 O   0  0  0  0  0  0  0  0  0  0  0  0
    1.6979    1.0529    1.0137 C   0  0  0  0  0  0  0  0  0  0  0  0
    2.9481    1.5588    0.6152 C   0  0  0  0  0  0  0  0  0  0  0  0
    1.4115   -0.2818    0.8204 N   0  0  0  0  0  0  0  0  0  0  0  0
    3.8635    0.6903    0.0366 C   0  0  0  0  0  0  0  0  0  0  0  0
    3.5071    2.7858    0.6703 N   0  0  0  0  0  0  0  0  0  0  0  0
    0.1272   -0.8254    1.2468 C   0  0  2  0  0  0  0  0  0  0  0  0
    2.3573   -1.1019    0.2264 C   0  0  0  0  0  0  0  0  0  0  0  0
    3.5902   -0.6300   -0.1696 N   0  0  0  0  0  0  0  0  0  0  0  0
    4.9729    1.3941   -0.2473 N   0  0  0  0  0  0  0  0  0  0  0  0
    2.9355    3.9975    1.1735 C   0  0  0  0  0  0  0  0  0  0  0  0
    4.7393    2.6592    0.1388 C   0  0  0  0  0  0  0  0  0  0  0  0
   -0.8990   -0.9939    0.0908 C   0  0  2  0  0  0  0  0  0  0  0  0
    2.0945   -2.3172    0.0408 O   0  0  0  0  0  0  0  0  0  0  0  0
    4.5650   -1.4970   -0.7916 C   0  0  0  0  0  0  0  0  0  0  0  0
   -1.3304    0.3442   -0.5576 C   0  0  0  0  0  0  0  0  0  0  0  0
   -2.0543   -1.6522    0.6092 O   0  0  0  0  0  0  0  0  0  0  0  0
   -0.3352   -0.2142    2.0280 H   0  0  0  0  0  0  0  0  0  0  0  0
    0.2878   -1.7991    1.7199 H   0  0  0  0  0  0  0  0  0  0  0  0
    2.6230    3.8598    2.2099 H   0  0  0  0  0  0  0  0  0  0  0  0
    3.6497    4.8254    1.1424 H   0  0  0  0  0  0  0  0  0  0  0  0
    2.0678    4.2676    0.5684 H   0  0  0  0  0  0  0  0  0  0  0  0
    5.4199    3.4164    0.0384 H   0  0  0  0  0  0  0  0  0  0  0  0
   -0.4763   -1.6382   -0.6838 H   0  0  0  0  0  0  0  0  0  0  0  0
    4.8015   -2.3286   -0.1238 H   0  0  0  0  0  0  0  0  0  0  0  0
    5.5026   -0.9934   -1.0385 H   0  0  0  0  0  0  0  0  0  0  0  0
    4.1555   -1.8975   -1.7208 H   0  0  0  0  0  0  0  0  0  0  0  0
   -2.0737    0.1662   -1.3365 H   0  0  0  0  0  0  0  0  0  0  0  0
   -1.7646    1.0115    0.1890 H   0  0  0  0  0  0  0  0  0  0  0  0
   -0.4739    0.8378   -1.0167 H   0  0  0  0  0  0  0  0  0  0  0  0
   -2.6397   -1.8027   -0.1631 H   0  0  0  0  0  0  0  0  0  0  0  0
  1  2  2  0  0  0  0 
  2  3  1  0  0  0  0 
  2  4  1  0  0  0  0 
  3  5  2  0  0  0  0 
  3  6  1  0  0  0  0 
  4  7  1  0  0  0  0 
  4  8  1  0  0  0  0 
  5  9  1  0  0  0  0 
  5 10  1  0  0  0  0 
  6 11  1  0  0  0  0 
  6 12  1  0  0  0  0 
 13  7  1  0  0  0  0 
  8  9  1  0  0  0  0 
  8 14  2  0  0  0  0 
  9 15  1  0  0  0  0 
 10 12  2  0  0  0  0 
 13 16  1  0  0  0  0 
 13 17  1  0  0  0  0 
  7 18  1  0  0  0  0 
  7 19  1  0  0  0  0 
 11 20  1  0  0  0  0 
 11 21  1  0  0  0  0 
 11 22  1  0  0  0  0 
 12 23  1  0  0  0  0 
 13 24  1  0  0  0  0 
 15 25  1  0  0  0  0 
 15 26  1  0  0  0  0 
 15 27  1  0  0  0  0 
 16 28  1  0  0  0  0 
 16 29  1  0  0  0  0 
 16 30  1  0  0  0  0 
 17 31  1  0  0  0  0 
M  END
> <cdk:Title>
protheobromine

> <Conformer>
1

> <SuperDrugID>
SD003014

$$$$
