leiopyrrole
  CDK     0628171801

 54 56  0  0  0  0  0  0  0  0999 V2000
   -1.8198   -2.5344    0.5603 C   0  0  0  0  0  0  0  0  0  0  0  0
   -2.8363   -1.7520   -0.1738 C   0  0  0  0  0  0  0  0  0  0  0  0
   -3.3176   -0.5111    0.0993 N   0  0  0  0  0  0  0  0  0  0  0  0
   -3.4475   -2.2090   -1.3357 C   0  0  0  0  0  0  0  0  0  0  0  0
   -4.2087   -0.1471   -0.8682 C   0  0  0  0  0  0  0  0  0  0  0  0
   -2.9373    0.2568    1.1681 C   0  0  0  0  0  0  0  0  0  0  0  0
   -4.2986   -1.2099   -1.7688 C   0  0  0  0  0  0  0  0  0  0  0  0
   -4.9401    1.0738   -0.9996 C   0  0  0  0  0  0  0  0  0  0  0  0
   -2.1411    1.4158    0.9881 C   0  0  0  0  0  0  0  0  0  0  0  0
   -3.3652   -0.0949    2.4708 C   0  0  0  0  0  0  0  0  0  0  0  0
   -5.1521    1.6559   -2.2760 C   0  0  0  0  0  0  0  0  0  0  0  0
   -5.4705    1.7488    0.1291 C   0  0  0  0  0  0  0  0  0  0  0  0
   -1.6352    1.7444   -0.2465 O   0  0  0  0  0  0  0  0  0  0  0  0
   -1.8586    2.2457    2.0945 C   0  0  0  0  0  0  0  0  0  0  0  0
   -3.0389    0.7139    3.5741 C   0  0  0  0  0  0  0  0  0  0  0  0
   -5.8099    2.8918   -2.4121 C   0  0  0  0  0  0  0  0  0  0  0  0
   -6.1312    2.9838   -0.0047 C   0  0  0  0  0  0  0  0  0  0  0  0
   -0.2803    1.2758   -0.4282 C   0  0  1  0  0  0  0  0  0  0  0  0
   -2.2930    1.8898    3.3840 C   0  0  0  0  0  0  0  0  0  0  0  0
   -6.2878    3.5627   -1.2751 C   0  0  0  0  0  0  0  0  0  0  0  0
    0.3047    1.7403   -1.7878 C   0  0  1  0  0  0  0  0  0  0  0  0
   -0.3408    1.2141   -3.0419 N   0  0  1  0  0  0  0  0  0  0  0  0
   -0.5908   -0.2667   -3.1085 C   0  0  2  0  0  0  0  0  0  0  0  0
   -1.4487    2.0604   -3.5931 C   0  0  2  0  0  0  0  0  0  0  0  0
    0.6860   -1.1350   -3.0984 C   0  0  0  0  0  0  0  0  0  0  0  0
   -1.5803    1.9547   -5.1310 C   0  0  0  0  0  0  0  0  0  0  0  0
   -2.2616   -3.4701    0.9080 H   0  0  0  0  0  0  0  0  0  0  0  0
   -1.4365   -1.9883    1.4221 H   0  0  0  0  0  0  0  0  0  0  0  0
   -0.9809   -2.7620   -0.1018 H   0  0  0  0  0  0  0  0  0  0  0  0
   -3.2890   -3.1087   -1.8000 H   0  0  0  0  0  0  0  0  0  0  0  0
   -4.8884   -1.2591   -2.6027 H   0  0  0  0  0  0  0  0  0  0  0  0
   -3.9247   -0.9387    2.6233 H   0  0  0  0  0  0  0  0  0  0  0  0
   -4.8150    1.1961   -3.1243 H   0  0  0  0  0  0  0  0  0  0  0  0
   -5.3916    1.3519    1.0663 H   0  0  0  0  0  0  0  0  0  0  0  0
   -1.3219    3.1059    1.9644 H   0  0  0  0  0  0  0  0  0  0  0  0
   -3.3474    0.4499    4.5131 H   0  0  0  0  0  0  0  0  0  0  0  0
   -5.9375    3.3029   -3.3390 H   0  0  0  0  0  0  0  0  0  0  0  0
   -6.4979    3.4577    0.8247 H   0  0  0  0  0  0  0  0  0  0  0  0
    0.3703    1.6690    0.3579 H   0  0  0  0  0  0  0  0  0  0  0  0
   -0.2374    0.1882   -0.3628 H   0  0  0  0  0  0  0  0  0  0  0  0
   -2.0612    2.4827    4.1833 H   0  0  0  0  0  0  0  0  0  0  0  0
   -6.7529    4.4668   -1.3744 H   0  0  0  0  0  0  0  0  0  0  0  0
    0.3129    2.8346   -1.7885 H   0  0  0  0  0  0  0  0  0  0  0  0
    1.3575    1.4520   -1.8196 H   0  0  0  0  0  0  0  0  0  0  0  0
   -1.1161   -0.5288   -4.0277 H   0  0  0  0  0  0  0  0  0  0  0  0
   -1.2439   -0.5709   -2.2930 H   0  0  0  0  0  0  0  0  0  0  0  0
   -1.2761    3.1184   -3.3805 H   0  0  0  0  0  0  0  0  0  0  0  0
   -2.3928    1.7880   -3.1237 H   0  0  0  0  0  0  0  0  0  0  0  0
    0.4117   -2.1923   -3.0906 H   0  0  0  0  0  0  0  0  0  0  0  0
    1.2962   -0.9371   -2.2177 H   0  0  0  0  0  0  0  0  0  0  0  0
    1.2721   -0.9335   -3.9958 H   0  0  0  0  0  0  0  0  0  0  0  0
   -2.1509    2.7992   -5.5156 H   0  0  0  0  0  0  0  0  0  0  0  0
   -2.0982    1.0412   -5.4203 H   0  0  0  0  0  0  0  0  0  0  0  0
   -0.5953    1.9618   -5.5983 H   0  0  0  0  0  0  0  0  0  0  0  0
  1  2  1  0  0  0  0 
  2  3  1  0  0  0  0 
  2  4  2  0  0  0  0 
  3  5  1  0  0  0  0 
  3  6  1  0  0  0  0 
  4  7  1  0  0  0  0 
  5  7  2  0  0  0  0 
  5  8  1  0  0  0  0 
  6  9  2  0  0  0  0 
  6 10  1  0  0  0  0 
  8 11  2  0  0  0  0 
  8 12  1  0  0  0  0 
  9 13  1  0  0  0  0 
  9 14  1  0  0  0  0 
 10 15  2  0  0  0  0 
 11 16  1  0  0  0  0 
 12 17  2  0  0  0  0 
 13 18  1  0  0  0  0 
 14 19  2  0  0  0  0 
 15 19  1  0  0  0  0 
 16 20  2  0  0  0  0 
 17 20  1  0  0  0  0 
 18 21  1  0  0  0  0 
 21 22  1  0  0  0  0 
 22 23  1  0  0  0  0 
 22 24  1  0  0  0  0 
 23 25  1  0  0  0  0 
 24 26  1  0  0  0  0 
  1 27  1  0  0  0  0 
  1 28  1  0  0  0  0 
  1 29  1  0  0  0  0 
  4 30  1  0  0  0  0 
  7 31  1  0  0  0  0 
 10 32  1  0  0  0  0 
 11 33  1  0  0  0  0 
 12 34  1  0  0  0  0 
 14 35  1  0  0  0  0 
 15 36  1  0  0  0  0 
 16 37  1  0  0  0  0 
 17 38  1  0  0  0  0 
 18 39  1  0  0  0  0 
 18 40  1  0  0  0  0 
 19 41  1  0  0  0  0 
 20 42  1  0  0  0  0 
 21 43  1  0  0  0  0 
 21 44  1  0  0  0  0 
 23 45  1  0  0  0  0 
 23 46  1  0  0  0  0 
 24 47  1  0  0  0  0 
 24 48  1  0  0  0  0 
 25 49  1  0  0  0  0 
 25 50  1  0  0  0  0 
 25 51  1  0  0  0  0 
 26 52  1  0  0  0  0 
 26 53  1  0  0  0  0 
 26 54  1  0  0  0  0 
M  END
> <cdk:Title>
leiopyrrole

> <Conformer>
1

> <SuperDrugID>
SD003214

$$$$
