nalbuphine
  CDK     0628171801

 53 58  0  0  0  0  0  0  0  0999 V2000
   -1.8533    1.5372   -1.6696 O   0  0  0  0  0  0  0  0  0  0  0  0
   -1.3445    1.8067   -2.9816 C   0  0  1  0  0  0  0  0  0  0  0  0
   -0.3090    2.9838   -2.9260 C   0  0  1  0  0  0  0  0  0  0  0  0
   -0.5341    0.5474   -3.4854 C   0  0  1  0  0  0  0  0  0  0  0  0
   -2.6057    2.1697   -3.8311 C   0  0  1  0  0  0  0  0  0  0  0  0
    0.3152    3.1670   -4.2345 C   0  0  0  0  0  0  0  0  0  0  0  0
   -0.8704    4.4420   -2.7916 C   0  0  1  0  0  0  0  0  0  0  0  0
    0.8065    2.6484   -1.8698 C   0  0  1  0  0  0  0  0  0  0  0  0
    0.0994    0.7697   -4.9135 C   0  0  1  0  0  0  0  0  0  0  0  0
    0.5593    0.1711   -2.5062 N   0  0  1  0  0  0  0  0  0  0  0  0
   -3.2630    3.4806   -3.3193 C   0  0  2  0  0  0  0  0  0  0  0  0
    0.5832    4.5072   -4.4624 C   0  0  0  0  0  0  0  0  0  0  0  0
    0.5665    2.1602   -5.1860 C   0  0  0  0  0  0  0  0  0  0  0  0
    0.1099    5.2910   -3.4521 O   0  0  0  0  0  0  0  0  0  0  0  0
   -2.3024    4.6995   -3.3942 C   0  0  2  0  0  0  0  0  0  0  0  0
    1.5084    1.2922   -2.1690 C   0  0  1  0  0  0  0  0  0  0  0  0
    0.2319   -0.7448   -1.3573 C   0  0  2  0  0  0  0  0  0  0  0  0
    1.2117    4.9008   -5.6557 C   0  0  0  0  0  0  0  0  0  0  0  0
    1.2138    2.5506   -6.3821 C   0  0  0  0  0  0  0  0  0  0  0  0
   -2.2319    5.1357   -4.7535 O   0  0  0  0  0  0  0  0  0  0  0  0
   -0.3332   -2.1465   -1.7457 C   0  0  2  0  0  0  0  0  0  0  0  0
    1.4702    6.2082   -5.8987 O   0  0  0  0  0  0  0  0  0  0  0  0
    1.5469    3.9086   -6.6059 C   0  0  0  0  0  0  0  0  0  0  0  0
   -1.8727   -2.3163   -1.8168 C   0  0  2  0  0  0  0  0  0  0  0  0
   -0.3004   -3.1974   -0.6055 C   0  0  1  0  0  0  0  0  0  0  0  0
   -1.8286   -3.3581   -0.6837 C   0  0  2  0  0  0  0  0  0  0  0  0
   -0.9108    4.7183   -1.7339 H   0  0  0  0  0  0  0  0  0  0  0  0
   -1.2268   -0.2898   -3.5827 H   0  0  0  0  0  0  0  0  0  0  0  0
   -2.5124    0.8202   -1.7933 H   0  0  0  0  0  0  0  0  0  0  0  0
   -2.3486    2.2874   -4.8861 H   0  0  0  0  0  0  0  0  0  0  0  0
   -3.3363    1.3580   -3.7692 H   0  0  0  0  0  0  0  0  0  0  0  0
    1.5662    3.4368   -1.8404 H   0  0  0  0  0  0  0  0  0  0  0  0
    0.3638    2.6021   -0.8706 H   0  0  0  0  0  0  0  0  0  0  0  0
    0.9379    0.0822   -5.0528 H   0  0  0  0  0  0  0  0  0  0  0  0
   -0.6475    0.5181   -5.6708 H   0  0  0  0  0  0  0  0  0  0  0  0
   -3.5970    3.3491   -2.2869 H   0  0  0  0  0  0  0  0  0  0  0  0
   -4.1574    3.6825   -3.9146 H   0  0  0  0  0  0  0  0  0  0  0  0
   -2.7606    5.5280   -2.8432 H   0  0  0  0  0  0  0  0  0  0  0  0
    2.1826    1.4270   -3.0169 H   0  0  0  0  0  0  0  0  0  0  0  0
    2.1598    1.0460   -1.3272 H   0  0  0  0  0  0  0  0  0  0  0  0
   -0.4300   -0.2518   -0.6440 H   0  0  0  0  0  0  0  0  0  0  0  0
    1.1646   -0.9488   -0.8237 H   0  0  0  0  0  0  0  0  0  0  0  0
    1.4382    1.8528   -7.0971 H   0  0  0  0  0  0  0  0  0  0  0  0
   -3.1424    5.4219   -4.9772 H   0  0  0  0  0  0  0  0  0  0  0  0
    0.1589   -2.5332   -2.6433 H   0  0  0  0  0  0  0  0  0  0  0  0
    0.8927    6.7031   -5.2778 H   0  0  0  0  0  0  0  0  0  0  0  0
    2.0183    4.1764   -7.4724 H   0  0  0  0  0  0  0  0  0  0  0  0
   -2.2156   -2.7425   -2.7641 H   0  0  0  0  0  0  0  0  0  0  0  0
   -2.4424   -1.4264   -1.5416 H   0  0  0  0  0  0  0  0  0  0  0  0
    0.2419   -4.1075   -0.8777 H   0  0  0  0  0  0  0  0  0  0  0  0
    0.0300   -2.8048    0.3604 H   0  0  0  0  0  0  0  0  0  0  0  0
   -2.1441   -4.3564   -0.9997 H   0  0  0  0  0  0  0  0  0  0  0  0
   -2.3402   -3.0315    0.2265 H   0  0  0  0  0  0  0  0  0  0  0  0
  2  1  1  0  0  0  0 
  3  2  1  0  0  0  0 
  2  4  1  0  0  0  0 
  2  5  1  0  0  0  0 
  3  6  1  0  0  0  0 
  7  3  1  0  0  0  0 
  3  8  1  0  0  0  0 
  4  9  1  0  0  0  0 
  4 10  1  0  0  0  0 
  4 28  1  0  0  0  0 
  5 11  1  0  0  0  0 
  6 12  2  0  0  0  0 
  6 13  1  0  0  0  0 
  7 14  1  0  0  0  0 
 15  7  1  0  0  0  0 
  7 27  1  0  0  0  0 
  8 16  1  0  0  0  0 
  9 13  1  0  0  0  0 
 10 16  1  0  0  0  0 
 10 17  1  0  0  0  0 
 15 11  1  0  0  0  0 
 12 14  1  0  0  0  0 
 12 18  1  0  0  0  0 
 13 19  2  0  0  0  0 
 15 20  1  0  0  0  0 
 17 21  1  0  0  0  0 
 18 22  1  0  0  0  0 
 18 23  2  0  0  0  0 
 19 23  1  0  0  0  0 
 21 24  1  0  0  0  0 
 21 25  1  0  0  0  0 
 24 26  1  0  0  0  0 
 25 26  1  0  0  0  0 
  1 29  1  0  0  0  0 
  5 30  1  0  0  0  0 
  5 31  1  0  0  0  0 
  8 32  1  0  0  0  0 
  8 33  1  0  0  0  0 
  9 34  1  0  0  0  0 
  9 35  1  0  0  0  0 
 11 36  1  0  0  0  0 
 11 37  1  0  0  0  0 
 15 38  1  0  0  0  0 
 16 39  1  0  0  0  0 
 16 40  1  0  0  0  0 
 17 41  1  0  0  0  0 
 17 42  1  0  0  0  0 
 19 43  1  0  0  0  0 
 20 44  1  0  0  0  0 
 21 45  1  0  0  0  0 
 22 46  1  0  0  0  0 
 23 47  1  0  0  0  0 
 24 48  1  0  0  0  0 
 24 49  1  0  0  0  0 
 25 50  1  0  0  0  0 
 25 51  1  0  0  0  0 
 26 52  1  0  0  0  0 
 26 53  1  0  0  0  0 
M  END
> <cdk:Title>
nalbuphine

> <Conformer>
1

> <SuperDrugID>
SD001670

$$$$
