furaltadone
  CDK     0628171801

 39 41  0  0  0  0  0  0  0  0999 V2000
   -5.2226    7.2032   -1.5511 C   0  0  1  0  0  0  0  0  0  0  0  0
   -4.2158    7.1873   -0.3672 C   0  0  2  0  0  0  0  0  0  0  0  0
   -6.5437    7.8627   -1.2989 N   0  0  1  0  0  0  0  0  0  0  0  0
   -2.8152    6.6165   -0.7274 C   0  0  1  0  0  0  0  0  0  0  0  0
   -4.6430    6.3402    0.6987 O   0  0  0  0  0  0  0  0  0  0  0  0
   -7.4749    7.1690   -0.3591 C   0  0  1  0  0  0  0  0  0  0  0  0
   -6.5056    9.3437   -1.1022 C   0  0  2  0  0  0  0  0  0  0  0  0
   -2.6191    5.5824    0.2266 N   0  0  0  0  0  0  0  0  0  0  0  0
   -3.6916    5.4452    1.0247 C   0  0  0  0  0  0  0  0  0  0  0  0
   -8.8786    7.8184   -0.4471 C   0  0  1  0  0  0  0  0  0  0  0  0
   -7.9401    9.9193   -1.1549 C   0  0  2  0  0  0  0  0  0  0  0  0
   -1.5467    4.8984    0.3036 N   0  0  0  0  0  0  0  0  0  0  0  0
   -3.8176    4.6072    1.9470 O   0  0  0  0  0  0  0  0  0  0  0  0
   -8.8002    9.2402   -0.2188 O   0  0  0  0  0  0  0  0  0  0  0  0
   -1.3501    3.7627   -0.2630 C   0  0  0  0  0  0  0  0  0  0  0  0
   -0.1538    3.0928   -0.1537 C   0  0  0  0  0  0  0  0  0  0  0  0
    0.0184    1.8173   -0.5746 O   0  0  0  0  0  0  0  0  0  0  0  0
    1.0547    3.5534    0.3692 C   0  0  0  0  0  0  0  0  0  0  0  0
    1.2989    1.4390   -0.3318 C   0  0  0  0  0  0  0  0  0  0  0  0
    1.9685    2.5173    0.2463 C   0  0  0  0  0  0  0  0  0  0  0  0
    1.7846    0.2399   -0.6048 N   0  0  0  0  0  0  0  0  0  0  0  0
    3.0031   -0.0527   -0.4046 O   0  0  0  0  0  0  0  0  0  0  0  0
    1.0924   -0.5958   -1.0353 O   0  0  0  0  0  0  0  0  0  0  0  0
   -4.7448    7.7249   -2.3853 H   0  0  0  0  0  0  0  0  0  0  0  0
   -5.3941    6.1778   -1.8872 H   0  0  0  0  0  0  0  0  0  0  0  0
   -4.0993    8.2001    0.0245 H   0  0  0  0  0  0  0  0  0  0  0  0
   -2.7769    6.2012   -1.7393 H   0  0  0  0  0  0  0  0  0  0  0  0
   -2.0440    7.3866   -0.6278 H   0  0  0  0  0  0  0  0  0  0  0  0
   -7.5581    6.1083   -0.6091 H   0  0  0  0  0  0  0  0  0  0  0  0
   -7.1152    7.2533    0.6689 H   0  0  0  0  0  0  0  0  0  0  0  0
   -5.9155    9.8236   -1.8864 H   0  0  0  0  0  0  0  0  0  0  0  0
   -6.0611    9.5918   -0.1352 H   0  0  0  0  0  0  0  0  0  0  0  0
   -9.3267    7.6201   -1.4253 H   0  0  0  0  0  0  0  0  0  0  0  0
   -9.5296    7.3868    0.3145 H   0  0  0  0  0  0  0  0  0  0  0  0
   -8.3455    9.8322   -2.1667 H   0  0  0  0  0  0  0  0  0  0  0  0
   -7.9130   10.9785   -0.8945 H   0  0  0  0  0  0  0  0  0  0  0  0
   -2.0773    3.3405   -0.7951 H   0  0  0  0  0  0  0  0  0  0  0  0
    1.2443    4.4771    0.7659 H   0  0  0  0  0  0  0  0  0  0  0  0
    2.9482    2.5431    0.5356 H   0  0  0  0  0  0  0  0  0  0  0  0
  2  1  1  0  0  0  0 
  1  3  1  0  0  0  0 
  2  4  1  0  0  0  0 
  2  5  1  0  0  0  0 
  3  6  1  0  0  0  0 
  3  7  1  0  0  0  0 
  4  8  1  0  0  0  0 
  5  9  1  0  0  0  0 
  6 10  1  0  0  0  0 
  7 11  1  0  0  0  0 
  8  9  1  0  0  0  0 
  8 12  1  0  0  0  0 
  9 13  2  0  0  0  0 
 10 14  1  0  0  0  0 
 11 14  1  0  0  0  0 
 12 15  2  0  0  0  0 
 15 16  1  0  0  0  0 
 16 17  1  0  0  0  0 
 16 18  2  0  0  0  0 
 17 19  1  0  0  0  0 
 18 20  1  0  0  0  0 
 19 20  2  0  0  0  0 
 19 21  1  0  0  0  0 
 21 22  1  0  0  0  0 
 21 23  2  0  0  0  0 
  1 24  1  0  0  0  0 
  1 25  1  0  0  0  0 
  2 26  1  0  0  0  0 
  4 27  1  0  0  0  0 
  4 28  1  0  0  0  0 
  6 29  1  0  0  0  0 
  6 30  1  0  0  0  0 
  7 31  1  0  0  0  0 
  7 32  1  0  0  0  0 
 10 33  1  0  0  0  0 
 10 34  1  0  0  0  0 
 11 35  1  0  0  0  0 
 11 36  1  0  0  0  0 
 15 37  1  0  0  0  0 
 18 38  1  0  0  0  0 
 20 39  1  0  0  0  0 
M  CHG  1  21   1
M  CHG  1  22  -1
M  END
> <cdk:Title>
furaltadone

> <Conformer>
1

> <SuperDrugID>
SD001126

$$$$
