febuxostat
  CDK     0628171801

 38 39  0  0  0  0  0  0  0  0999 V2000
   -2.1758   -5.1948    7.8102 C   0  0  0  0  0  0  0  0  0  0  0  0
   -1.7955   -5.9874    8.8380 O   0  0  0  0  0  0  0  0  0  0  0  0
   -3.3017   -4.6537    7.8839 O   0  0  0  0  0  0  0  0  0  0  0  0
   -1.3520   -4.9715    6.6883 C   0  0  0  0  0  0  0  0  0  0  0  0
   -1.8256   -4.0695    5.2589 S   0  0  0  0  0  0  0  0  0  0  0  0
   -0.0264   -5.3840    6.4356 C   0  0  0  0  0  0  0  0  0  0  0  0
   -0.2855   -4.2284    4.4360 C   0  0  0  0  0  0  0  0  0  0  0  0
    0.7717   -6.2293    7.3436 C   0  0  0  0  0  0  0  0  0  0  0  0
    0.5065   -4.9572    5.2537 N   0  0  0  0  0  0  0  0  0  0  0  0
    0.0585   -3.7217    3.1641 C   0  0  0  0  0  0  0  0  0  0  0  0
    1.2744   -3.0267    2.9643 C   0  0  0  0  0  0  0  0  0  0  0  0
   -0.8079   -3.9040    2.0647 C   0  0  0  0  0  0  0  0  0  0  0  0
    1.6235   -2.5217    1.6886 C   0  0  0  0  0  0  0  0  0  0  0  0
   -0.4535   -3.4323    0.7878 C   0  0  0  0  0  0  0  0  0  0  0  0
    2.7204   -1.8300    1.5415 C   0  0  0  0  0  0  0  0  0  0  0  0
    0.7628   -2.7467    0.5858 C   0  0  0  0  0  0  0  0  0  0  0  0
    3.6769   -1.2093    1.4080 N   0  0  0  0  0  0  0  0  0  0  0  0
    1.0517   -2.2709   -0.6729 O   0  0  0  0  0  0  0  0  0  0  0  0
    1.8035   -3.1924   -1.4931 C   0  0  1  0  0  0  0  0  0  0  0  0
    2.1117   -2.5818   -2.8913 C   0  0  1  0  0  0  0  0  0  0  0  0
    0.8255   -2.3469   -3.7282 C   0  0  0  0  0  0  0  0  0  0  0  0
    2.9485   -1.2784   -2.7813 C   0  0  0  0  0  0  0  0  0  0  0  0
   -2.3904   -6.1209    9.6039 H   0  0  0  0  0  0  0  0  0  0  0  0
    0.2489   -7.1713    7.5188 H   0  0  0  0  0  0  0  0  0  0  0  0
    0.9151   -5.7129    8.2922 H   0  0  0  0  0  0  0  0  0  0  0  0
    1.7513   -6.4548    6.9172 H   0  0  0  0  0  0  0  0  0  0  0  0
    1.8976   -2.8727    3.7648 H   0  0  0  0  0  0  0  0  0  0  0  0
   -1.6972   -4.3968    2.1775 H   0  0  0  0  0  0  0  0  0  0  0  0
   -1.0887   -3.5888    0.0013 H   0  0  0  0  0  0  0  0  0  0  0  0
    2.7547   -3.4442   -1.0119 H   0  0  0  0  0  0  0  0  0  0  0  0
    1.2360   -4.1186   -1.6276 H   0  0  0  0  0  0  0  0  0  0  0  0
    2.7188   -3.3126   -3.4345 H   0  0  0  0  0  0  0  0  0  0  0  0
    0.2727   -3.2810   -3.8462 H   0  0  0  0  0  0  0  0  0  0  0  0
    1.0834   -1.9811   -4.7248 H   0  0  0  0  0  0  0  0  0  0  0  0
    0.1765   -1.6126   -3.2451 H   0  0  0  0  0  0  0  0  0  0  0  0
    3.8751   -1.4668   -2.2355 H   0  0  0  0  0  0  0  0  0  0  0  0
    3.2108   -0.9081   -3.7748 H   0  0  0  0  0  0  0  0  0  0  0  0
    2.3856   -0.5007   -2.2592 H   0  0  0  0  0  0  0  0  0  0  0  0
  1  2  1  0  0  0  0 
  1  3  2  0  0  0  0 
  1  4  1  0  0  0  0 
  4  5  1  0  0  0  0 
  4  6  2  0  0  0  0 
  5  7  1  0  0  0  0 
  6  8  1  0  0  0  0 
  6  9  1  0  0  0  0 
  7  9  2  0  0  0  0 
  7 10  1  0  0  0  0 
 10 11  2  0  0  0  0 
 10 12  1  0  0  0  0 
 11 13  1  0  0  0  0 
 12 14  2  0  0  0  0 
 13 15  1  0  0  0  0 
 13 16  2  0  0  0  0 
 14 16  1  0  0  0  0 
 15 17  3  0  0  0  0 
 16 18  1  0  0  0  0 
 18 19  1  0  0  0  0 
 19 20  1  0  0  0  0 
 20 21  1  0  0  0  0 
 20 22  1  0  0  0  0 
  2 23  1  0  0  0  0 
  8 24  1  0  0  0  0 
  8 25  1  0  0  0  0 
  8 26  1  0  0  0  0 
 11 27  1  0  0  0  0 
 12 28  1  0  0  0  0 
 14 29  1  0  0  0  0 
 19 30  1  0  0  0  0 
 19 31  1  0  0  0  0 
 20 32  1  0  0  0  0 
 21 33  1  0  0  0  0 
 21 34  1  0  0  0  0 
 21 35  1  0  0  0  0 
 22 36  1  0  0  0  0 
 22 37  1  0  0  0  0 
 22 38  1  0  0  0  0 
M  END
> <cdk:Title>
febuxostat

> <Conformer>
1

> <SuperDrugID>
SD001014

$$$$
