trimecaine
  CDK     0628171801

 42 42  0  0  0  0  0  0  0  0999 V2000
    0.9345    1.4577    0.5462 N   0  0  0  0  0  0  0  0  0  0  0  0
   -0.3274    1.5879    0.0441 C   0  0  0  0  0  0  0  0  0  0  0  0
    2.0231    0.9702   -0.1165 C   0  0  0  0  0  0  0  0  0  0  0  0
   -1.4005    2.1961    0.8634 C   0  0  1  0  0  0  0  0  0  0  0  0
   -0.6196    1.1711   -1.1021 O   0  0  0  0  0  0  0  0  0  0  0  0
    2.6689    1.7394   -1.1233 C   0  0  0  0  0  0  0  0  0  0  0  0
    2.5449   -0.2958    0.2644 C   0  0  0  0  0  0  0  0  0  0  0  0
   -0.8437    2.9956    2.0048 N   0  0  2  0  0  0  0  0  0  0  0  0
    2.1648    3.0824   -1.5198 C   0  0  0  0  0  0  0  0  0  0  0  0
    3.8304    1.2187   -1.7404 C   0  0  0  0  0  0  0  0  0  0  0  0
    1.8969   -1.1014    1.3342 C   0  0  0  0  0  0  0  0  0  0  0  0
    3.6927   -0.7935   -0.3931 C   0  0  0  0  0  0  0  0  0  0  0  0
   -1.5699    2.8873    3.3083 C   0  0  1  0  0  0  0  0  0  0  0  0
   -0.3504    4.3676    1.6502 C   0  0  1  0  0  0  0  0  0  0  0  0
    4.3553   -0.0430   -1.3869 C   0  0  0  0  0  0  0  0  0  0  0  0
   -1.3205    1.5193    3.9828 C   0  0  0  0  0  0  0  0  0  0  0  0
    0.9827    4.6916    2.3634 C   0  0  0  0  0  0  0  0  0  0  0  0
    5.5728   -0.5868   -2.0389 C   0  0  0  0  0  0  0  0  0  0  0  0
    1.0683    1.7141    1.4721 H   0  0  0  0  0  0  0  0  0  0  0  0
   -2.0288    2.8382    0.2395 H   0  0  0  0  0  0  0  0  0  0  0  0
   -2.0397    1.3808    1.2095 H   0  0  0  0  0  0  0  0  0  0  0  0
    2.0823    3.7244   -0.6425 H   0  0  0  0  0  0  0  0  0  0  0  0
    1.1827    2.9890   -1.9828 H   0  0  0  0  0  0  0  0  0  0  0  0
    2.8206    3.5842   -2.2336 H   0  0  0  0  0  0  0  0  0  0  0  0
    4.3047    1.7650   -2.4629 H   0  0  0  0  0  0  0  0  0  0  0  0
    0.8897   -1.3766    1.0197 H   0  0  0  0  0  0  0  0  0  0  0  0
    2.4438   -2.0192    1.5611 H   0  0  0  0  0  0  0  0  0  0  0  0
    1.8338   -0.5179    2.2543 H   0  0  0  0  0  0  0  0  0  0  0  0
    4.0549   -1.7193   -0.1464 H   0  0  0  0  0  0  0  0  0  0  0  0
   -1.2198    3.6497    4.0095 H   0  0  0  0  0  0  0  0  0  0  0  0
   -2.6422    3.0472    3.1630 H   0  0  0  0  0  0  0  0  0  0  0  0
   -0.1662    4.4556    0.5757 H   0  0  0  0  0  0  0  0  0  0  0  0
   -1.0988    5.1230    1.9082 H   0  0  0  0  0  0  0  0  0  0  0  0
   -1.6959    1.5367    5.0077 H   0  0  0  0  0  0  0  0  0  0  0  0
   -1.8274    0.7171    3.4448 H   0  0  0  0  0  0  0  0  0  0  0  0
   -0.2501    1.3048    4.0054 H   0  0  0  0  0  0  0  0  0  0  0  0
    1.3465    5.6717    2.0466 H   0  0  0  0  0  0  0  0  0  0  0  0
    0.8515    4.7077    3.4458 H   0  0  0  0  0  0  0  0  0  0  0  0
    1.7357    3.9415    2.1135 H   0  0  0  0  0  0  0  0  0  0  0  0
    6.3219   -0.8398   -1.2849 H   0  0  0  0  0  0  0  0  0  0  0  0
    6.0209    0.1279   -2.7339 H   0  0  0  0  0  0  0  0  0  0  0  0
    5.3167   -1.4911   -2.5945 H   0  0  0  0  0  0  0  0  0  0  0  0
  1  2  1  0  0  0  0 
  1  3  1  0  0  0  0 
  2  4  1  0  0  0  0 
  2  5  2  0  0  0  0 
  3  6  2  0  0  0  0 
  3  7  1  0  0  0  0 
  4  8  1  0  0  0  0 
  6  9  1  0  0  0  0 
  6 10  1  0  0  0  0 
  7 11  1  0  0  0  0 
  7 12  2  0  0  0  0 
  8 13  1  0  0  0  0 
  8 14  1  0  0  0  0 
 10 15  2  0  0  0  0 
 12 15  1  0  0  0  0 
 13 16  1  0  0  0  0 
 14 17  1  0  0  0  0 
 15 18  1  0  0  0  0 
  1 19  1  0  0  0  0 
  4 20  1  0  0  0  0 
  4 21  1  0  0  0  0 
  9 22  1  0  0  0  0 
  9 23  1  0  0  0  0 
  9 24  1  0  0  0  0 
 10 25  1  0  0  0  0 
 11 26  1  0  0  0  0 
 11 27  1  0  0  0  0 
 11 28  1  0  0  0  0 
 12 29  1  0  0  0  0 
 13 30  1  0  0  0  0 
 13 31  1  0  0  0  0 
 14 32  1  0  0  0  0 
 14 33  1  0  0  0  0 
 16 34  1  0  0  0  0 
 16 35  1  0  0  0  0 
 16 36  1  0  0  0  0 
 17 37  1  0  0  0  0 
 17 38  1  0  0  0  0 
 17 39  1  0  0  0  0 
 18 40  1  0  0  0  0 
 18 41  1  0  0  0  0 
 18 42  1  0  0  0  0 
M  END
> <cdk:Title>
trimecaine

> <Conformer>
1

> <SuperDrugID>
SD003113

$$$$
