neostigmine
  CDK     0628171801

 35 35  0  0  0  0  0  0  0  0999 V2000
   -0.3321    4.0573   -1.5435 O   0  0  0  0  0  0  0  0  0  0  0  0
   -1.0848    4.7029   -2.4936 C   0  0  0  0  0  0  0  0  0  0  0  0
    0.5514    4.5279   -0.6050 C   0  0  0  0  0  0  0  0  0  0  0  0
   -1.8227    3.9830   -3.4146 N   0  0  0  0  0  0  0  0  0  0  0  0
   -1.1464    5.9557   -2.4777 O   0  0  0  0  0  0  0  0  0  0  0  0
    1.2691    5.7408   -0.7155 C   0  0  0  0  0  0  0  0  0  0  0  0
    0.7532    3.7237    0.5276 C   0  0  0  0  0  0  0  0  0  0  0  0
   -1.7214    2.5431   -3.4363 C   0  0  0  0  0  0  0  0  0  0  0  0
   -2.6983    4.6691   -4.3373 C   0  0  0  0  0  0  0  0  0  0  0  0
    2.1543    6.2200    0.2946 C   0  0  0  0  0  0  0  0  0  0  0  0
    1.6416    4.1315    1.5309 C   0  0  0  0  0  0  0  0  0  0  0  0
    2.7918    7.5425    0.1665 N   0  0  2  0  0  0  0  0  0  0  0  0
    2.3298    5.3510    1.4102 C   0  0  0  0  0  0  0  0  0  0  0  0
    3.6333    7.6139   -1.0916 C   0  0  0  0  0  0  0  0  0  0  0  0
    3.7124    7.9141    1.3172 C   0  0  0  0  0  0  0  0  0  0  0  0
    1.7117    8.6035    0.1114 C   0  0  0  0  0  0  0  0  0  0  0  0
    1.1371    6.2882   -1.5611 H   0  0  0  0  0  0  0  0  0  0  0  0
    0.2473    2.8400    0.6303 H   0  0  0  0  0  0  0  0  0  0  0  0
   -2.2550    2.0814   -4.2704 H   0  0  0  0  0  0  0  0  0  0  0  0
   -2.1303    2.1308   -2.5118 H   0  0  0  0  0  0  0  0  0  0  0  0
   -0.6733    2.2466   -3.5202 H   0  0  0  0  0  0  0  0  0  0  0  0
   -3.2546    3.9945   -4.9904 H   0  0  0  0  0  0  0  0  0  0  0  0
   -3.4297    5.2565   -3.7794 H   0  0  0  0  0  0  0  0  0  0  0  0
   -2.1176    5.3435   -4.9692 H   0  0  0  0  0  0  0  0  0  0  0  0
    1.7858    3.5430    2.3541 H   0  0  0  0  0  0  0  0  0  0  0  0
    2.9632    5.5867    2.1714 H   0  0  0  0  0  0  0  0  0  0  0  0
    4.1279    8.5852   -1.1913 H   0  0  0  0  0  0  0  0  0  0  0  0
    4.4120    6.8458   -1.0869 H   0  0  0  0  0  0  0  0  0  0  0  0
    3.0478    7.4806   -2.0032 H   0  0  0  0  0  0  0  0  0  0  0  0
    4.1510    8.9092    1.1950 H   0  0  0  0  0  0  0  0  0  0  0  0
    4.5455    7.2104    1.4018 H   0  0  0  0  0  0  0  0  0  0  0  0
    3.1823    7.9252    2.2737 H   0  0  0  0  0  0  0  0  0  0  0  0
    2.1324    9.6124    0.0740 H   0  0  0  0  0  0  0  0  0  0  0  0
    1.0743    8.5069   -0.7708 H   0  0  0  0  0  0  0  0  0  0  0  0
    1.0619    8.5496    0.9904 H   0  0  0  0  0  0  0  0  0  0  0  0
  1  2  1  0  0  0  0 
  1  3  1  0  0  0  0 
  2  4  1  0  0  0  0 
  2  5  2  0  0  0  0 
  3  6  2  0  0  0  0 
  3  7  1  0  0  0  0 
  4  8  1  0  0  0  0 
  4  9  1  0  0  0  0 
  6 10  1  0  0  0  0 
  7 11  2  0  0  0  0 
 10 12  1  0  0  0  0 
 10 13  2  0  0  0  0 
 11 13  1  0  0  0  0 
 12 14  1  0  0  0  0 
 12 15  1  0  0  0  0 
 12 16  1  0  0  0  0 
  6 17  1  0  0  0  0 
  7 18  1  0  0  0  0 
  8 19  1  0  0  0  0 
  8 20  1  0  0  0  0 
  8 21  1  0  0  0  0 
  9 22  1  0  0  0  0 
  9 23  1  0  0  0  0 
  9 24  1  0  0  0  0 
 11 25  1  0  0  0  0 
 13 26  1  0  0  0  0 
 14 27  1  0  0  0  0 
 14 28  1  0  0  0  0 
 14 29  1  0  0  0  0 
 15 30  1  0  0  0  0 
 15 31  1  0  0  0  0 
 15 32  1  0  0  0  0 
 16 33  1  0  0  0  0 
 16 34  1  0  0  0  0 
 16 35  1  0  0  0  0 
M  CHG  1  12   1
M  END
> <cdk:Title>
neostigmine

> <Conformer>
1

> <SuperDrugID>
SD001692

$$$$
