bromperidol
  CDK     0628171801

 49 51  0  0  0  0  0  0  0  0999 V2000
    1.4222   -5.0167    3.2767 O   0  0  0  0  0  0  0  0  0  0  0  0
    2.1751   -4.1603    2.4140 C   0  0  2  0  0  0  0  0  0  0  0  0
    3.6026   -4.2090    2.9433 C   0  0  0  0  0  0  0  0  0  0  0  0
    1.4933   -2.7433    2.4360 C   0  0  2  0  0  0  0  0  0  0  0  0
    1.9718   -4.6716    0.9398 C   0  0  1  0  0  0  0  0  0  0  0  0
    4.0384   -3.3408    3.9845 C   0  0  0  0  0  0  0  0  0  0  0  0
    4.5616   -5.1487    2.4681 C   0  0  0  0  0  0  0  0  0  0  0  0
    2.1680   -1.7883    1.4116 C   0  0  1  0  0  0  0  0  0  0  0  0
    2.5932   -3.6962   -0.1068 C   0  0  1  0  0  0  0  0  0  0  0  0
    5.3614   -3.3509    4.4611 C   0  0  0  0  0  0  0  0  0  0  0  0
    5.8855   -5.1693    2.9460 C   0  0  0  0  0  0  0  0  0  0  0  0
    2.0587   -2.2951    0.0050 N   0  0  1  0  0  0  0  0  0  0  0  0
    6.2903   -4.2630    3.9383 C   0  0  0  0  0  0  0  0  0  0  0  0
    0.7467   -2.0862   -0.7008 C   0  0  2  0  0  0  0  0  0  0  0  0
    8.0417   -4.2738    4.5660 Br  0  0  0  0  0  0  0  0  0  0  0  0
    0.1879   -0.6360   -0.7638 C   0  0  1  0  0  0  0  0  0  0  0  0
    1.1629    0.3980   -1.3957 C   0  0  2  0  0  0  0  0  0  0  0  0
    0.5876    1.7713   -1.4867 C   0  0  0  0  0  0  0  0  0  0  0  0
    1.0889    2.6244   -0.7132 O   0  0  0  0  0  0  0  0  0  0  0  0
   -0.4654    2.1687   -2.3794 C   0  0  0  0  0  0  0  0  0  0  0  0
   -0.9662    1.3089   -3.3929 C   0  0  0  0  0  0  0  0  0  0  0  0
   -1.0513    3.4595   -2.2774 C   0  0  0  0  0  0  0  0  0  0  0  0
   -2.0255    1.6999   -4.2315 C   0  0  0  0  0  0  0  0  0  0  0  0
   -2.1111    3.8546   -3.1151 C   0  0  0  0  0  0  0  0  0  0  0  0
   -2.6056    2.9705   -4.0877 C   0  0  0  0  0  0  0  0  0  0  0  0
   -3.5984    3.3275   -4.8541 F   0  0  0  0  0  0  0  0  0  0  0  0
    1.4870   -4.6162    4.1708 H   0  0  0  0  0  0  0  0  0  0  0  0
    1.4986   -2.2943    3.4293 H   0  0  0  0  0  0  0  0  0  0  0  0
    0.4358   -2.8402    2.1740 H   0  0  0  0  0  0  0  0  0  0  0  0
    2.3673   -5.6778    0.8001 H   0  0  0  0  0  0  0  0  0  0  0  0
    0.9017   -4.7544    0.7308 H   0  0  0  0  0  0  0  0  0  0  0  0
    3.4019   -2.6777    4.4250 H   0  0  0  0  0  0  0  0  0  0  0  0
    4.3214   -5.8457    1.7643 H   0  0  0  0  0  0  0  0  0  0  0  0
    1.7516   -0.7872    1.5134 H   0  0  0  0  0  0  0  0  0  0  0  0
    3.2285   -1.6892    1.6554 H   0  0  0  0  0  0  0  0  0  0  0  0
    3.6759   -3.6630    0.0355 H   0  0  0  0  0  0  0  0  0  0  0  0
    2.4307   -4.0946   -1.1120 H   0  0  0  0  0  0  0  0  0  0  0  0
    5.6443   -2.6932    5.1907 H   0  0  0  0  0  0  0  0  0  0  0  0
    6.5532   -5.8466    2.5710 H   0  0  0  0  0  0  0  0  0  0  0  0
   -0.0225   -2.7152   -0.2471 H   0  0  0  0  0  0  0  0  0  0  0  0
    0.8585   -2.4169   -1.7379 H   0  0  0  0  0  0  0  0  0  0  0  0
   -0.7371   -0.6686   -1.3442 H   0  0  0  0  0  0  0  0  0  0  0  0
   -0.0905   -0.3117    0.2405 H   0  0  0  0  0  0  0  0  0  0  0  0
    1.4717    0.0762   -2.3920 H   0  0  0  0  0  0  0  0  0  0  0  0
    2.0693    0.4238   -0.7838 H   0  0  0  0  0  0  0  0  0  0  0  0
   -0.5700    0.3799   -3.5412 H   0  0  0  0  0  0  0  0  0  0  0  0
   -0.7154    4.1326   -1.5837 H   0  0  0  0  0  0  0  0  0  0  0  0
   -2.3715    1.0543   -4.9449 H   0  0  0  0  0  0  0  0  0  0  0  0
   -2.5201    4.7855   -3.0119 H   0  0  0  0  0  0  0  0  0  0  0  0
  1  2  1  0  0  0  0 
  2  3  1  0  0  0  0 
  2  4  1  0  0  0  0 
  2  5  1  0  0  0  0 
  3  6  2  0  0  0  0 
  3  7  1  0  0  0  0 
  4  8  1  0  0  0  0 
  5  9  1  0  0  0  0 
  6 10  1  0  0  0  0 
  7 11  2  0  0  0  0 
  8 12  1  0  0  0  0 
  9 12  1  0  0  0  0 
 10 13  2  0  0  0  0 
 11 13  1  0  0  0  0 
 12 14  1  0  0  0  0 
 13 15  1  0  0  0  0 
 14 16  1  0  0  0  0 
 16 17  1  0  0  0  0 
 17 18  1  0  0  0  0 
 18 19  2  0  0  0  0 
 18 20  1  0  0  0  0 
 20 21  2  0  0  0  0 
 20 22  1  0  0  0  0 
 21 23  1  0  0  0  0 
 22 24  2  0  0  0  0 
 23 25  2  0  0  0  0 
 24 25  1  0  0  0  0 
 25 26  1  0  0  0  0 
 27  1  1  0  0  0  0 
 28  4  1  0  0  0  0 
 29  4  1  0  0  0  0 
 30  5  1  0  0  0  0 
 31  5  1  0  0  0  0 
 32  6  1  0  0  0  0 
 33  7  1  0  0  0  0 
 34  8  1  0  0  0  0 
 35  8  1  0  0  0  0 
 36  9  1  0  0  0  0 
 37  9  1  0  0  0  0 
 38 10  1  0  0  0  0 
 39 11  1  0  0  0  0 
 40 14  1  0  0  0  0 
 41 14  1  0  0  0  0 
 42 16  1  0  0  0  0 
 43 16  1  0  0  0  0 
 44 17  1  0  0  0  0 
 45 17  1  0  0  0  0 
 46 21  1  0  0  0  0 
 47 22  1  0  0  0  0 
 48 23  1  0  0  0  0 
 49 24  1  0  0  0  0 
M  END
> <cdk:Title>
bromperidol

> <Conformer>
1

> <SuperDrugID>
SD000349

$$$$
