mercuric amidochloride
  CDK     0628171802

  5  4  0  0  0  0  0  0  0  0999 V2000
    1.7806    0.7194    0.1116 Hg  0  0  0  0  0  0  0  0  0  0  0  0
    0.1472   -0.7019    0.4435 N   0  0  1  0  0  0  0  0  0  0  0  0
    3.6250    2.3401   -0.2651 Cl  0  0  0  0  0  0  0  0  0  0  0  0
   -0.3504   -0.3915    1.2797 H   0  0  0  0  0  0  0  0  0  0  0  0
   -0.5004   -0.5971   -0.3397 H   0  0  0  0  0  0  0  0  0  0  0  0
  1  2  1  0  0  0  0 
  1  3  1  0  0  0  0 
  2  4  1  0  0  0  0 
  2  5  1  0  0  0  0 
M  END
> <cdk:Title>
mercuric amidochloride

> <Conformer>
1

> <SuperDrugID>
SD003759

$$$$
