asulacrine
  CDK     0628171801

 57 60  0  0  0  0  0  0  0  0999 V2000
   -3.8264    6.1790    8.1974 N   0  0  0  0  0  0  0  0  0  0  0  0
   -4.9661    5.4220    8.1371 C   0  0  0  0  0  0  0  0  0  0  0  0
   -3.5394    7.3165    7.4869 C   0  0  0  0  0  0  0  0  0  0  0  0
   -4.8506    4.0605    7.7361 C   0  0  0  0  0  0  0  0  0  0  0  0
   -6.2400    5.9573    8.4817 C   0  0  0  0  0  0  0  0  0  0  0  0
   -2.3326    7.9936    7.7850 C   0  0  0  0  0  0  0  0  0  0  0  0
   -4.3703    7.8331    6.4631 C   0  0  0  0  0  0  0  0  0  0  0  0
   -6.0316    3.2764    7.5924 C   0  0  0  0  0  0  0  0  0  0  0  0
   -3.6013    3.4469    7.4729 C   0  0  0  0  0  0  0  0  0  0  0  0
   -7.3913    5.1382    8.3112 C   0  0  0  0  0  0  0  0  0  0  0  0
   -6.4210    7.2601    9.0124 C   0  0  0  0  0  0  0  0  0  0  0  0
   -1.4657    7.5158    8.7362 O   0  0  0  0  0  0  0  0  0  0  0  0
   -1.9743    9.1557    7.0685 C   0  0  0  0  0  0  0  0  0  0  0  0
   -4.0199    9.0069    5.7739 C   0  0  0  0  0  0  0  0  0  0  0  0
   -5.9712    1.9112    7.1851 C   0  0  0  0  0  0  0  0  0  0  0  0
   -7.2236    3.8642    7.8751 N   0  0  0  0  0  0  0  0  0  0  0  0
   -3.5220    2.0923    7.1208 C   0  0  0  0  0  0  0  0  0  0  0  0
   -8.6918    5.6249    8.6099 C   0  0  0  0  0  0  0  0  0  0  0  0
   -7.7034    7.7533    9.3044 C   0  0  0  0  0  0  0  0  0  0  0  0
   -1.6916    8.0614   10.0477 C   0  0  0  0  0  0  0  0  0  0  0  0
   -2.8132    9.6782    6.0565 C   0  0  0  0  0  0  0  0  0  0  0  0
   -7.1411    1.1187    6.9846 C   0  0  0  0  0  0  0  0  0  0  0  0
   -4.6933    1.3338    6.9753 C   0  0  0  0  0  0  0  0  0  0  0  0
   -9.8961    4.7735    8.4339 C   0  0  0  0  0  0  0  0  0  0  0  0
   -8.8309    6.9444    9.0963 C   0  0  0  0  0  0  0  0  0  0  0  0
   -2.5381   10.7943    5.3228 N   0  0  0  0  0  0  0  0  0  0  0  0
   -7.1271   -0.2310    7.1969 N   0  0  0  0  0  0  0  0  0  0  0  0
   -8.2055    1.6644    6.6033 O   0  0  0  0  0  0  0  0  0  0  0  0
   -0.9969   11.5194    5.1215 S   0  0  2  0  0  0  0  0  0  0  0  0
   -8.2417   -1.0957    7.0115 C   0  0  0  0  0  0  0  0  0  0  0  0
   -1.0567   12.7198    3.7433 C   0  0  0  0  0  0  0  0  0  0  0  0
    0.0966   10.3955    4.7849 O   0  0  0  0  0  0  0  0  0  0  0  0
   -0.5789   12.2776    6.4703 O   0  0  0  0  0  0  0  0  0  0  0  0
   -3.1179    5.8346    8.7651 H   0  0  0  0  0  0  0  0  0  0  0  0
   -5.2377    7.3588    6.2059 H   0  0  0  0  0  0  0  0  0  0  0  0
   -2.7270    3.9737    7.5448 H   0  0  0  0  0  0  0  0  0  0  0  0
   -5.6230    7.8694    9.2018 H   0  0  0  0  0  0  0  0  0  0  0  0
   -1.0926    9.6176    7.2963 H   0  0  0  0  0  0  0  0  0  0  0  0
   -4.6499    9.3599    5.0492 H   0  0  0  0  0  0  0  0  0  0  0  0
   -2.6076    1.6590    6.9658 H   0  0  0  0  0  0  0  0  0  0  0  0
   -7.8169    8.7026    9.6706 H   0  0  0  0  0  0  0  0  0  0  0  0
   -0.9112    7.6796   10.7062 H   0  0  0  0  0  0  0  0  0  0  0  0
   -1.6303    9.1532   10.0476 H   0  0  0  0  0  0  0  0  0  0  0  0
   -2.6600    7.7502   10.4497 H   0  0  0  0  0  0  0  0  0  0  0  0
   -4.5967    0.3525    6.7009 H   0  0  0  0  0  0  0  0  0  0  0  0
  -10.0010    4.4936    7.3842 H   0  0  0  0  0  0  0  0  0  0  0  0
  -10.8105    5.2851    8.7423 H   0  0  0  0  0  0  0  0  0  0  0  0
   -9.7993    3.8665    9.0357 H   0  0  0  0  0  0  0  0  0  0  0  0
   -9.7545    7.3304    9.3135 H   0  0  0  0  0  0  0  0  0  0  0  0
   -3.2753   11.2007    4.8384 H   0  0  0  0  0  0  0  0  0  0  0  0
   -6.3015   -0.6342    7.5068 H   0  0  0  0  0  0  0  0  0  0  0  0
   -7.9580   -2.1090    7.2929 H   0  0  0  0  0  0  0  0  0  0  0  0
   -9.0712   -0.7747    7.6431 H   0  0  0  0  0  0  0  0  0  0  0  0
   -8.5568   -1.0977    5.9666 H   0  0  0  0  0  0  0  0  0  0  0  0
   -1.7105   13.5495    4.0110 H   0  0  0  0  0  0  0  0  0  0  0  0
   -0.0531   13.0995    3.5458 H   0  0  0  0  0  0  0  0  0  0  0  0
   -1.4384   12.2315    2.8460 H   0  0  0  0  0  0  0  0  0  0  0  0
  1  2  1  0  0  0  0 
  1  3  1  0  0  0  0 
  2  4  1  0  0  0  0 
  2  5  2  0  0  0  0 
  3  6  2  0  0  0  0 
  3  7  1  0  0  0  0 
  4  8  1  0  0  0  0 
  4  9  2  0  0  0  0 
  5 10  1  0  0  0  0 
  5 11  1  0  0  0  0 
  6 12  1  0  0  0  0 
  6 13  1  0  0  0  0 
  7 14  2  0  0  0  0 
  8 15  2  0  0  0  0 
  8 16  1  0  0  0  0 
  9 17  1  0  0  0  0 
 10 16  2  0  0  0  0 
 10 18  1  0  0  0  0 
 11 19  2  0  0  0  0 
 12 20  1  0  0  0  0 
 13 21  2  0  0  0  0 
 14 21  1  0  0  0  0 
 15 22  1  0  0  0  0 
 15 23  1  0  0  0  0 
 17 23  2  0  0  0  0 
 18 24  1  0  0  0  0 
 18 25  2  0  0  0  0 
 19 25  1  0  0  0  0 
 21 26  1  0  0  0  0 
 22 27  1  0  0  0  0 
 22 28  2  0  0  0  0 
 26 29  1  0  0  0  0 
 27 30  1  0  0  0  0 
 29 31  1  0  0  0  0 
 29 32  2  0  0  0  0 
 29 33  2  0  0  0  0 
  1 34  1  0  0  0  0 
  7 35  1  0  0  0  0 
  9 36  1  0  0  0  0 
 11 37  1  0  0  0  0 
 13 38  1  0  0  0  0 
 14 39  1  0  0  0  0 
 17 40  1  0  0  0  0 
 19 41  1  0  0  0  0 
 20 42  1  0  0  0  0 
 20 43  1  0  0  0  0 
 20 44  1  0  0  0  0 
 23 45  1  0  0  0  0 
 24 46  1  0  0  0  0 
 24 47  1  0  0  0  0 
 24 48  1  0  0  0  0 
 25 49  1  0  0  0  0 
 26 50  1  0  0  0  0 
 27 51  1  0  0  0  0 
 30 52  1  0  0  0  0 
 30 53  1  0  0  0  0 
 30 54  1  0  0  0  0 
 31 55  1  0  0  0  0 
 31 56  1  0  0  0  0 
 31 57  1  0  0  0  0 
M  END
> <cdk:Title>
asulacrine

> <Conformer>
1

> <SuperDrugID>
SD000208

$$$$
