epanolol
  CDK     0628171801

 50 51  0  0  0  0  0  0  0  0999 V2000
    8.0216    5.2574   -4.1770 O   0  0  0  0  0  0  0  0  0  0  0  0
    7.2458    4.1258   -4.6263 C   0  0  2  0  0  0  0  0  0  0  0  0
    7.7949    6.4010   -4.8970 C   0  0  0  0  0  0  0  0  0  0  0  0
    7.4403    2.9465   -3.6415 C   0  0  2  0  0  0  0  0  0  0  0  0
    6.7902    7.3283   -4.5221 C   0  0  0  0  0  0  0  0  0  0  0  0
    8.6151    6.6688   -6.0124 C   0  0  0  0  0  0  0  0  0  0  0  0
    7.0129    3.2795   -2.1879 C   0  0  1  0  0  0  0  0  0  0  0  0
    8.8121    2.5545   -3.6507 O   0  0  0  0  0  0  0  0  0  0  0  0
    6.0606    7.1307   -3.4586 C   0  0  0  0  0  0  0  0  0  0  0  0
    6.5866    8.4881   -5.3037 C   0  0  0  0  0  0  0  0  0  0  0  0
    8.4165    7.8328   -6.7754 C   0  0  0  0  0  0  0  0  0  0  0  0
    7.2115    2.0939   -1.3240 N   0  0  2  0  0  0  0  0  0  0  0  0
    7.3954    8.7356   -6.4293 C   0  0  0  0  0  0  0  0  0  0  0  0
    6.8849    2.3119    0.1001 C   0  0  1  0  0  0  0  0  0  0  0  0
    7.1026    1.0043    0.8902 C   0  0  2  0  0  0  0  0  0  0  0  0
    6.8189    1.2069    2.2721 N   0  0  0  0  0  0  0  0  0  0  0  0
    6.7081    0.2227    3.2042 C   0  0  0  0  0  0  0  0  0  0  0  0
    6.4894    0.6061    4.6140 C   0  0  2  0  0  0  0  0  0  0  0  0
    6.7903   -0.9900    2.8942 O   0  0  0  0  0  0  0  0  0  0  0  0
    7.6618    1.3600    5.1350 C   0  0  0  0  0  0  0  0  0  0  0  0
    8.8187    0.6749    5.5805 C   0  0  0  0  0  0  0  0  0  0  0  0
    7.6569    2.7753    5.1671 C   0  0  0  0  0  0  0  0  0  0  0  0
    9.9376    1.3869    6.0509 C   0  0  0  0  0  0  0  0  0  0  0  0
    8.7800    3.4860    5.6310 C   0  0  0  0  0  0  0  0  0  0  0  0
    9.9201    2.7929    6.0717 C   0  0  0  0  0  0  0  0  0  0  0  0
   11.0012    3.4784    6.5118 O   0  0  0  0  0  0  0  0  0  0  0  0
    5.4220    6.9573   -2.5195 N   0  0  0  0  0  0  0  0  0  0  0  0
    7.5801    3.8118   -5.6209 H   0  0  0  0  0  0  0  0  0  0  0  0
    6.1777    4.3608   -4.6858 H   0  0  0  0  0  0  0  0  0  0  0  0
    6.8453    2.0986   -3.9958 H   0  0  0  0  0  0  0  0  0  0  0  0
    9.3581    6.0135   -6.2703 H   0  0  0  0  0  0  0  0  0  0  0  0
    7.6081    4.1163   -1.8097 H   0  0  0  0  0  0  0  0  0  0  0  0
    5.9585    3.5684   -2.1780 H   0  0  0  0  0  0  0  0  0  0  0  0
    8.9988    2.3106   -4.5819 H   0  0  0  0  0  0  0  0  0  0  0  0
    5.8581    9.1671   -5.0619 H   0  0  0  0  0  0  0  0  0  0  0  0
    9.0147    8.0221   -7.5814 H   0  0  0  0  0  0  0  0  0  0  0  0
    8.2073    1.8607   -1.3661 H   0  0  0  0  0  0  0  0  0  0  0  0
    7.2467    9.5761   -6.9942 H   0  0  0  0  0  0  0  0  0  0  0  0
    7.5265    3.0993    0.5072 H   0  0  0  0  0  0  0  0  0  0  0  0
    5.8408    2.6216    0.1959 H   0  0  0  0  0  0  0  0  0  0  0  0
    8.1416    0.6849    0.7895 H   0  0  0  0  0  0  0  0  0  0  0  0
    6.4535    0.2234    0.4867 H   0  0  0  0  0  0  0  0  0  0  0  0
    6.7224    2.1208    2.5842 H   0  0  0  0  0  0  0  0  0  0  0  0
    6.3134   -0.2750    5.2382 H   0  0  0  0  0  0  0  0  0  0  0  0
    5.5781    1.2070    4.6647 H   0  0  0  0  0  0  0  0  0  0  0  0
    8.8497   -0.3479    5.5639 H   0  0  0  0  0  0  0  0  0  0  0  0
    6.8375    3.2964    4.8435 H   0  0  0  0  0  0  0  0  0  0  0  0
   10.7633    0.8806    6.3761 H   0  0  0  0  0  0  0  0  0  0  0  0
    8.7642    4.5075    5.6444 H   0  0  0  0  0  0  0  0  0  0  0  0
   11.5557    3.6254    5.7148 H   0  0  0  0  0  0  0  0  0  0  0  0
  1  2  1  0  0  0  0 
  1  3  1  0  0  0  0 
  4  2  1  0  0  0  0 
  3  5  2  0  0  0  0 
  3  6  1  0  0  0  0 
  4  7  1  0  0  0  0 
  4  8  1  0  0  0  0 
  5  9  1  0  0  0  0 
  5 10  1  0  0  0  0 
  6 11  2  0  0  0  0 
  7 12  1  0  0  0  0 
 10 13  2  0  0  0  0 
 11 13  1  0  0  0  0 
 12 14  1  0  0  0  0 
 14 15  1  0  0  0  0 
 15 16  1  0  0  0  0 
 16 17  1  0  0  0  0 
 17 18  1  0  0  0  0 
 17 19  2  0  0  0  0 
 18 20  1  0  0  0  0 
 20 21  2  0  0  0  0 
 20 22  1  0  0  0  0 
 21 23  1  0  0  0  0 
 22 24  2  0  0  0  0 
 23 25  2  0  0  0  0 
 24 25  1  0  0  0  0 
 25 26  1  0  0  0  0 
  9 27  3  0  0  0  0 
  2 28  1  0  0  0  0 
  2 29  1  0  0  0  0 
  4 30  1  0  0  0  0 
  6 31  1  0  0  0  0 
  7 32  1  0  0  0  0 
  7 33  1  0  0  0  0 
  8 34  1  0  0  0  0 
 10 35  1  0  0  0  0 
 11 36  1  0  0  0  0 
 12 37  1  0  0  0  0 
 13 38  1  0  0  0  0 
 14 39  1  0  0  0  0 
 14 40  1  0  0  0  0 
 15 41  1  0  0  0  0 
 15 42  1  0  0  0  0 
 16 43  1  0  0  0  0 
 18 44  1  0  0  0  0 
 18 45  1  0  0  0  0 
 21 46  1  0  0  0  0 
 22 47  1  0  0  0  0 
 23 48  1  0  0  0  0 
 24 49  1  0  0  0  0 
 26 50  1  0  0  0  0 
M  END
> <cdk:Title>
epanolol

> <Conformer>
1

> <SuperDrugID>
SD003583

$$$$
