sulfamethoxypyridazine
  CDK     0628171801

 31 32  0  0  0  0  0  0  0  0999 V2000
    3.4821    1.2081    4.7687 S   0  0  1  0  0  0  0  0  0  0  0  0
    2.7545    2.0251    3.4407 N   0  0  0  0  0  0  0  0  0  0  0  0
    2.7032   -0.1752    5.0011 O   0  0  0  0  0  0  0  0  0  0  0  0
    5.0014    0.8691    4.3772 O   0  0  0  0  0  0  0  0  0  0  0  0
    3.4679    2.2061    6.2347 C   0  0  0  0  0  0  0  0  0  0  0  0
    1.6003    2.7364    3.5022 C   0  0  0  0  0  0  0  0  0  0  0  0
    2.9553    1.7140    7.4539 C   0  0  0  0  0  0  0  0  0  0  0  0
    3.9619    3.5252    6.1769 C   0  0  0  0  0  0  0  0  0  0  0  0
    1.0568    3.2836    2.3224 C   0  0  0  0  0  0  0  0  0  0  0  0
    0.9243    2.9435    4.6652 N   0  0  0  0  0  0  0  0  0  0  0  0
    2.9086    2.5411    8.5930 C   0  0  0  0  0  0  0  0  0  0  0  0
    3.9134    4.3553    7.3135 C   0  0  0  0  0  0  0  0  0  0  0  0
   -0.1503    4.0023    2.3882 C   0  0  0  0  0  0  0  0  0  0  0  0
   -0.1920    3.6248    4.7320 N   0  0  0  0  0  0  0  0  0  0  0  0
    3.3751    3.8697    8.5217 C   0  0  0  0  0  0  0  0  0  0  0  0
   -0.7786    4.1733    3.6360 C   0  0  0  0  0  0  0  0  0  0  0  0
    3.3018    4.6680    9.6047 N   0  0  0  0  0  0  0  0  0  0  0  0
   -1.9206    4.9174    3.7425 O   0  0  0  0  0  0  0  0  0  0  0  0
   -3.0929    4.1453    4.0559 C   0  0  0  0  0  0  0  0  0  0  0  0
    3.1883    1.9436    2.5770 H   0  0  0  0  0  0  0  0  0  0  0  0
    2.6046    0.7542    7.5236 H   0  0  0  0  0  0  0  0  0  0  0  0
    4.3502    3.8909    5.3046 H   0  0  0  0  0  0  0  0  0  0  0  0
    1.5270    3.1618    1.4217 H   0  0  0  0  0  0  0  0  0  0  0  0
    2.5323    2.1738    9.4721 H   0  0  0  0  0  0  0  0  0  0  0  0
    4.2694    5.3127    7.2515 H   0  0  0  0  0  0  0  0  0  0  0  0
   -0.5627    4.4009    1.5399 H   0  0  0  0  0  0  0  0  0  0  0  0
    3.6157    5.5853    9.5578 H   0  0  0  0  0  0  0  0  0  0  0  0
    2.9284    4.3280   10.4341 H   0  0  0  0  0  0  0  0  0  0  0  0
   -3.9392    4.8310    4.1152 H   0  0  0  0  0  0  0  0  0  0  0  0
   -3.3041    3.4100    3.2756 H   0  0  0  0  0  0  0  0  0  0  0  0
   -2.9987    3.6419    5.0215 H   0  0  0  0  0  0  0  0  0  0  0  0
  1  2  1  0  0  0  0 
  1  3  2  0  0  0  0 
  1  4  2  0  0  0  0 
  1  5  1  0  0  0  0 
  2  6  1  0  0  0  0 
  5  7  2  0  0  0  0 
  5  8  1  0  0  0  0 
  6  9  2  0  0  0  0 
  6 10  1  0  0  0  0 
  7 11  1  0  0  0  0 
  8 12  2  0  0  0  0 
  9 13  1  0  0  0  0 
 10 14  2  0  0  0  0 
 11 15  2  0  0  0  0 
 12 15  1  0  0  0  0 
 13 16  2  0  0  0  0 
 14 16  1  0  0  0  0 
 15 17  1  0  0  0  0 
 16 18  1  0  0  0  0 
 18 19  1  0  0  0  0 
  2 20  1  0  0  0  0 
  7 21  1  0  0  0  0 
  8 22  1  0  0  0  0 
  9 23  1  0  0  0  0 
 11 24  1  0  0  0  0 
 12 25  1  0  0  0  0 
 13 26  1  0  0  0  0 
 17 27  1  0  0  0  0 
 17 28  1  0  0  0  0 
 19 29  1  0  0  0  0 
 19 30  1  0  0  0  0 
 19 31  1  0  0  0  0 
M  END
> <cdk:Title>
sulfamethoxypyridazine

> <Conformer>
1

> <SuperDrugID>
SD002261

$$$$
