empagliflozin
  CDK     0628171802

 58 61  0  0  0  0  0  0  0  0999 V2000
    1.0651   -2.9750   -0.9404 O   0  0  0  0  0  0  0  0  0  0  0  0
    0.1776   -3.1162   -2.0510 C   0  0  1  0  0  0  0  0  0  0  0  0
    0.9534   -3.6220   -3.3067 C   0  0  2  0  0  0  0  0  0  0  0  0
    1.9499   -2.5972   -3.7461 C   0  0  0  0  0  0  0  0  0  0  0  0
    1.6023   -1.5721   -4.6588 C   0  0  0  0  0  0  0  0  0  0  0  0
    2.5228   -0.5636   -5.0435 C   0  0  0  0  0  0  0  0  0  0  0  0
    2.0907    0.4580   -6.0445 C   0  0  1  0  0  0  0  0  0  0  0  0
    2.3550   -0.0041   -7.4355 C   0  0  0  0  0  0  0  0  0  0  0  0
    1.3641   -0.7081   -8.1585 C   0  0  0  0  0  0  0  0  0  0  0  0
    1.6233   -1.1915   -9.4531 C   0  0  0  0  0  0  0  0  0  0  0  0
    2.8940   -1.0233  -10.0381 C   0  0  0  0  0  0  0  0  0  0  0  0
    3.8693   -0.2715   -9.3525 C   0  0  0  0  0  0  0  0  0  0  0  0
    3.5988    0.2386   -8.0681 C   0  0  0  0  0  0  0  0  0  0  0  0
    3.1658   -1.5835  -11.2614 O   0  0  0  0  0  0  0  0  0  0  0  0
    3.7681   -2.8971  -11.1680 C   0  0  1  0  0  0  0  0  0  0  0  0
    2.8717   -4.0031  -10.5826 C   0  0  1  0  0  0  0  0  0  0  0  0
    3.3472   -5.2807  -11.2980 C   0  0  1  0  0  0  0  0  0  0  0  0
    4.2363   -4.8923  -12.3540 O   0  0  0  0  0  0  0  0  0  0  0  0
    4.0650   -3.4853  -12.5574 C   0  0  1  0  0  0  0  0  0  0  0  0
    3.8193   -0.5735   -4.4588 C   0  0  0  0  0  0  0  0  0  0  0  0
    4.1768   -1.5968   -3.5607 C   0  0  0  0  0  0  0  0  0  0  0  0
    3.2589   -2.5999   -3.2144 C   0  0  0  0  0  0  0  0  0  0  0  0
    5.0012    0.6090   -4.7617 Cl  0  0  0  0  0  0  0  0  0  0  0  0
    0.0423   -3.9305   -4.3907 O   0  0  0  0  0  0  0  0  0  0  0  0
   -0.9881   -4.8997   -4.0947 C   0  0  1  0  0  0  0  0  0  0  0  0
   -1.8620   -4.4191   -2.8984 C   0  0  2  0  0  0  0  0  0  0  0  0
   -0.9683   -4.0928   -1.6729 C   0  0  2  0  0  0  0  0  0  0  0  0
   -1.7624   -3.5284   -0.6304 O   0  0  0  0  0  0  0  0  0  0  0  0
   -2.8193   -5.4157   -2.5414 O   0  0  0  0  0  0  0  0  0  0  0  0
   -1.8241   -5.1079   -5.3819 C   0  0  2  0  0  0  0  0  0  0  0  0
   -0.9981   -5.5770   -6.4433 O   0  0  0  0  0  0  0  0  0  0  0  0
    0.5128   -2.6183   -0.2138 H   0  0  0  0  0  0  0  0  0  0  0  0
   -0.2571   -2.1337   -2.2627 H   0  0  0  0  0  0  0  0  0  0  0  0
    1.4835   -4.5472   -3.0482 H   0  0  0  0  0  0  0  0  0  0  0  0
    0.6530   -1.5562   -5.0442 H   0  0  0  0  0  0  0  0  0  0  0  0
    1.0243    0.6747   -5.9229 H   0  0  0  0  0  0  0  0  0  0  0  0
    2.5885    1.4128   -5.8727 H   0  0  0  0  0  0  0  0  0  0  0  0
    0.4449   -0.8827   -7.7456 H   0  0  0  0  0  0  0  0  0  0  0  0
    0.8860   -1.6823   -9.9629 H   0  0  0  0  0  0  0  0  0  0  0  0
    4.7804   -0.1000   -9.7852 H   0  0  0  0  0  0  0  0  0  0  0  0
    4.3223    0.7850   -7.5974 H   0  0  0  0  0  0  0  0  0  0  0  0
    4.7125   -2.8507  -10.6123 H   0  0  0  0  0  0  0  0  0  0  0  0
    2.9847   -4.0756   -9.4985 H   0  0  0  0  0  0  0  0  0  0  0  0
    1.8218   -3.8164  -10.8219 H   0  0  0  0  0  0  0  0  0  0  0  0
    3.8851   -5.9326  -10.6058 H   0  0  0  0  0  0  0  0  0  0  0  0
    2.4992   -5.8329  -11.7121 H   0  0  0  0  0  0  0  0  0  0  0  0
    3.2351   -3.3119  -13.2510 H   0  0  0  0  0  0  0  0  0  0  0  0
    4.9752   -3.0585  -12.9847 H   0  0  0  0  0  0  0  0  0  0  0  0
    5.1124   -1.6162   -3.1458 H   0  0  0  0  0  0  0  0  0  0  0  0
    3.5563   -3.3240   -2.5551 H   0  0  0  0  0  0  0  0  0  0  0  0
   -0.5184   -5.8562   -3.8429 H   0  0  0  0  0  0  0  0  0  0  0  0
   -2.4077   -3.5172   -3.1931 H   0  0  0  0  0  0  0  0  0  0  0  0
   -0.5361   -5.0224   -1.2905 H   0  0  0  0  0  0  0  0  0  0  0  0
   -2.1190   -2.6954   -1.0046 H   0  0  0  0  0  0  0  0  0  0  0  0
   -3.3433   -5.0129   -1.8173 H   0  0  0  0  0  0  0  0  0  0  0  0
   -2.2874   -4.1667   -5.6883 H   0  0  0  0  0  0  0  0  0  0  0  0
   -2.6111   -5.8451   -5.2072 H   0  0  0  0  0  0  0  0  0  0  0  0
   -1.6054   -5.6818   -7.2061 H   0  0  0  0  0  0  0  0  0  0  0  0
  2  1  1  0  0  0  0 
  2  3  1  0  0  0  0 
 27  2  1  0  0  0  0 
  3  4  1  0  0  0  0 
  3 24  1  0  0  0  0 
  4  5  2  0  0  0  0 
  4 22  1  0  0  0  0 
  5  6  1  0  0  0  0 
  6  7  1  0  0  0  0 
  6 20  2  0  0  0  0 
  7  8  1  0  0  0  0 
  8  9  2  0  0  0  0 
  8 13  1  0  0  0  0 
  9 10  1  0  0  0  0 
 10 11  2  0  0  0  0 
 11 14  1  0  0  0  0 
 12 11  1  0  0  0  0 
 13 12  2  0  0  0  0 
 15 14  1  0  0  0  0 
 15 16  1  0  0  0  0 
 15 19  1  0  0  0  0 
 16 17  1  0  0  0  0 
 17 18  1  0  0  0  0 
 19 18  1  0  0  0  0 
 20 23  1  0  0  0  0 
 21 20  1  0  0  0  0 
 22 21  2  0  0  0  0 
 25 24  1  0  0  0  0 
 25 30  1  0  0  0  0 
 26 25  1  0  0  0  0 
 26 29  1  0  0  0  0 
 27 26  1  0  0  0  0 
 27 28  1  0  0  0  0 
 30 31  1  0  0  0  0 
  1 32  1  0  0  0  0 
  2 33  1  0  0  0  0 
  3 34  1  0  0  0  0 
  5 35  1  0  0  0  0 
  7 36  1  0  0  0  0 
  7 37  1  0  0  0  0 
  9 38  1  0  0  0  0 
 10 39  1  0  0  0  0 
 12 40  1  0  0  0  0 
 13 41  1  0  0  0  0 
 15 42  1  0  0  0  0 
 16 43  1  0  0  0  0 
 16 44  1  0  0  0  0 
 17 45  1  0  0  0  0 
 17 46  1  0  0  0  0 
 19 47  1  0  0  0  0 
 19 48  1  0  0  0  0 
 21 49  1  0  0  0  0 
 22 50  1  0  0  0  0 
 25 51  1  0  0  0  0 
 26 52  1  0  0  0  0 
 27 53  1  0  0  0  0 
 28 54  1  0  0  0  0 
 29 55  1  0  0  0  0 
 30 56  1  0  0  0  0 
 30 57  1  0  0  0  0 
 31 58  1  0  0  0  0 
M  END
> <cdk:Title>
empagliflozin

> <Conformer>
1

> <SuperDrugID>
SD003791

$$$$
