metofenazate
  CDK     0628171801

 77 81  0  0  0  0  0  0  0  0999 V2000
   -4.9026    1.4865  -12.9291 C   0  0  0  0  0  0  0  0  0  0  0  0
   -3.5452    1.0130  -12.9435 O   0  0  0  0  0  0  0  0  0  0  0  0
   -3.4634   -0.3296  -12.7131 C   0  0  0  0  0  0  0  0  0  0  0  0
   -3.3162   -0.9101  -11.3602 C   0  0  0  0  0  0  0  0  0  0  0  0
   -3.2037   -2.3385  -11.0890 C   0  0  0  0  0  0  0  0  0  0  0  0
   -3.2450   -3.2092  -12.2142 C   0  0  0  0  0  0  0  0  0  0  0  0
   -3.3815   -2.7664  -13.5495 C   0  0  0  0  0  0  0  0  0  0  0  0
   -3.3736   -3.6538  -14.5943 O   0  0  0  0  0  0  0  0  0  0  0  0
   -4.6552   -4.2514  -14.8440 C   0  0  0  0  0  0  0  0  0  0  0  0
   -3.4735   -1.3364  -13.7848 C   0  0  0  0  0  0  0  0  0  0  0  0
   -3.5829   -1.0182  -15.1519 O   0  0  0  0  0  0  0  0  0  0  0  0
   -2.3322   -0.5767  -15.7061 C   0  0  0  0  0  0  0  0  0  0  0  0
   -3.0453   -2.8494   -9.7667 C   0  0  0  0  0  0  0  0  0  0  0  0
   -3.0902   -4.0871   -9.5605 O   0  0  0  0  0  0  0  0  0  0  0  0
   -2.8238   -2.0142   -8.7016 O   0  0  0  0  0  0  0  0  0  0  0  0
   -2.6277   -2.4231   -7.3385 C   0  0  1  0  0  0  0  0  0  0  0  0
   -2.3384   -1.2046   -6.4255 C   0  0  2  0  0  0  0  0  0  0  0  0
   -2.3025   -1.5648   -4.9676 N   0  0  1  0  0  0  0  0  0  0  0  0
   -1.0488   -2.2611   -4.5483 C   0  0  1  0  0  0  0  0  0  0  0  0
   -1.1551   -2.7511   -3.0862 C   0  0  1  0  0  0  0  0  0  0  0  0
   -1.4812   -1.6415   -2.1390 N   0  0  2  0  0  0  0  0  0  0  0  0
   -1.5628   -2.1362   -0.7224 C   0  0  2  0  0  0  0  0  0  0  0  0
   -1.3584   -1.0506    0.3675 C   0  0  2  0  0  0  0  0  0  0  0  0
   -0.0589   -0.2046    0.2272 C   0  0  2  0  0  0  0  0  0  0  0  0
    1.1898   -0.9440    0.0458 N   0  0  0  0  0  0  0  0  0  0  0  0
    2.0527   -0.5993   -0.9987 C   0  0  0  0  0  0  0  0  0  0  0  0
    2.3187    0.7563   -1.3266 C   0  0  0  0  0  0  0  0  0  0  0  0
    3.1804    1.1016   -2.3833 C   0  0  0  0  0  0  0  0  0  0  0  0
    3.8026    0.0948   -3.1387 C   0  0  0  0  0  0  0  0  0  0  0  0
    3.5756   -1.2558   -2.8270 C   0  0  0  0  0  0  0  0  0  0  0  0
    2.7195   -1.5939   -1.7610 C   0  0  0  0  0  0  0  0  0  0  0  0
    2.5077   -3.2840   -1.3303 S   0  0  0  0  0  0  0  0  0  0  0  0
    2.1013   -3.1928    0.3779 C   0  0  0  0  0  0  0  0  0  0  0  0
    1.5167   -2.0057    0.8940 C   0  0  0  0  0  0  0  0  0  0  0  0
    1.2735   -1.9565    2.2910 C   0  0  0  0  0  0  0  0  0  0  0  0
    1.5644   -3.0541    3.1270 C   0  0  0  0  0  0  0  0  0  0  0  0
    1.2673   -2.9633    4.7917 Cl  0  0  0  0  0  0  0  0  0  0  0  0
    2.1084   -4.2291    2.5790 C   0  0  0  0  0  0  0  0  0  0  0  0
    2.3840   -4.2962    1.2044 C   0  0  0  0  0  0  0  0  0  0  0  0
   -2.6873   -0.8671   -2.5747 C   0  0  2  0  0  0  0  0  0  0  0  0
   -2.6024   -0.4155   -4.0572 C   0  0  1  0  0  0  0  0  0  0  0  0
   -4.8862    2.5643  -13.0988 H   0  0  0  0  0  0  0  0  0  0  0  0
   -5.4971    1.0238  -13.7230 H   0  0  0  0  0  0  0  0  0  0  0  0
   -5.3821    1.3058  -11.9624 H   0  0  0  0  0  0  0  0  0  0  0  0
   -3.2799   -0.3096  -10.4698 H   0  0  0  0  0  0  0  0  0  0  0  0
   -3.1639   -4.2187  -12.0673 H   0  0  0  0  0  0  0  0  0  0  0  0
   -4.9744   -4.8668  -14.0010 H   0  0  0  0  0  0  0  0  0  0  0  0
   -4.5633   -4.8962  -15.7183 H   0  0  0  0  0  0  0  0  0  0  0  0
   -5.4163   -3.4969  -15.0540 H   0  0  0  0  0  0  0  0  0  0  0  0
   -2.4647   -0.4326  -16.7778 H   0  0  0  0  0  0  0  0  0  0  0  0
   -2.0257    0.3742  -15.2636 H   0  0  0  0  0  0  0  0  0  0  0  0
   -1.5424   -1.3187  -15.5621 H   0  0  0  0  0  0  0  0  0  0  0  0
   -3.5229   -2.9416   -6.9820 H   0  0  0  0  0  0  0  0  0  0  0  0
   -1.7861   -3.1168   -7.3112 H   0  0  0  0  0  0  0  0  0  0  0  0
   -3.1343   -0.4789   -6.6144 H   0  0  0  0  0  0  0  0  0  0  0  0
   -1.3965   -0.7380   -6.7291 H   0  0  0  0  0  0  0  0  0  0  0  0
   -0.8663   -3.1375   -5.1735 H   0  0  0  0  0  0  0  0  0  0  0  0
   -0.1885   -1.5909   -4.6462 H   0  0  0  0  0  0  0  0  0  0  0  0
   -1.9133   -3.5397   -3.0279 H   0  0  0  0  0  0  0  0  0  0  0  0
   -0.1891   -3.1863   -2.8181 H   0  0  0  0  0  0  0  0  0  0  0  0
   -0.8030   -2.9025   -0.5465 H   0  0  0  0  0  0  0  0  0  0  0  0
   -2.5279   -2.6233   -0.5521 H   0  0  0  0  0  0  0  0  0  0  0  0
   -1.3619   -1.5448    1.3420 H   0  0  0  0  0  0  0  0  0  0  0  0
   -2.2169   -0.3740    0.3643 H   0  0  0  0  0  0  0  0  0  0  0  0
    0.0348    0.4312    1.1126 H   0  0  0  0  0  0  0  0  0  0  0  0
   -0.2469    0.4704   -0.6130 H   0  0  0  0  0  0  0  0  0  0  0  0
    1.8936    1.5136   -0.7881 H   0  0  0  0  0  0  0  0  0  0  0  0
    3.3568    2.0864   -2.5985 H   0  0  0  0  0  0  0  0  0  0  0  0
    4.4259    0.3444   -3.9098 H   0  0  0  0  0  0  0  0  0  0  0  0
    4.0439   -1.9841   -3.3714 H   0  0  0  0  0  0  0  0  0  0  0  0
    0.8828   -1.1114    2.7122 H   0  0  0  0  0  0  0  0  0  0  0  0
    2.3126   -5.0364    3.1736 H   0  0  0  0  0  0  0  0  0  0  0  0
    2.7969   -5.1474    0.8149 H   0  0  0  0  0  0  0  0  0  0  0  0
   -2.7914    0.0282   -1.9577 H   0  0  0  0  0  0  0  0  0  0  0  0
   -3.5919   -1.4692   -2.4434 H   0  0  0  0  0  0  0  0  0  0  0  0
   -1.8360    0.3592   -4.1579 H   0  0  0  0  0  0  0  0  0  0  0  0
   -3.5675    0.0256   -4.3237 H   0  0  0  0  0  0  0  0  0  0  0  0
  1  2  1  0  0  0  0 
  2  3  1  0  0  0  0 
  3  4  2  0  0  0  0 
  4  5  1  0  0  0  0 
  5  6  2  0  0  0  0 
  6  7  1  0  0  0  0 
  7  8  1  0  0  0  0 
  8  9  1  0  0  0  0 
  7 10  2  0  0  0  0 
  3 10  1  0  0  0  0 
 10 11  1  0  0  0  0 
 11 12  1  0  0  0  0 
  5 13  1  0  0  0  0 
 13 14  2  0  0  0  0 
 13 15  1  0  0  0  0 
 15 16  1  0  0  0  0 
 16 17  1  0  0  0  0 
 17 18  1  0  0  0  0 
 18 19  1  0  0  0  0 
 19 20  1  0  0  0  0 
 20 21  1  0  0  0  0 
 21 22  1  0  0  0  0 
 22 23  1  0  0  0  0 
 23 24  1  0  0  0  0 
 24 25  1  0  0  0  0 
 25 26  1  0  0  0  0 
 26 27  2  0  0  0  0 
 27 28  1  0  0  0  0 
 28 29  2  0  0  0  0 
 29 30  1  0  0  0  0 
 30 31  2  0  0  0  0 
 26 31  1  0  0  0  0 
 31 32  1  0  0  0  0 
 32 33  1  0  0  0  0 
 33 34  2  0  0  0  0 
 25 34  1  0  0  0  0 
 34 35  1  0  0  0  0 
 35 36  2  0  0  0  0 
 36 37  1  0  0  0  0 
 36 38  1  0  0  0  0 
 38 39  2  0  0  0  0 
 33 39  1  0  0  0  0 
 21 40  1  0  0  0  0 
 40 41  1  0  0  0  0 
 18 41  1  0  0  0  0 
  1 42  1  0  0  0  0 
  1 43  1  0  0  0  0 
  1 44  1  0  0  0  0 
  4 45  1  0  0  0  0 
  6 46  1  0  0  0  0 
  9 47  1  0  0  0  0 
  9 48  1  0  0  0  0 
  9 49  1  0  0  0  0 
 12 50  1  0  0  0  0 
 12 51  1  0  0  0  0 
 12 52  1  0  0  0  0 
 16 53  1  0  0  0  0 
 16 54  1  0  0  0  0 
 17 55  1  0  0  0  0 
 17 56  1  0  0  0  0 
 19 57  1  0  0  0  0 
 19 58  1  0  0  0  0 
 20 59  1  0  0  0  0 
 20 60  1  0  0  0  0 
 22 61  1  0  0  0  0 
 22 62  1  0  0  0  0 
 23 63  1  0  0  0  0 
 23 64  1  0  0  0  0 
 24 65  1  0  0  0  0 
 24 66  1  0  0  0  0 
 27 67  1  0  0  0  0 
 28 68  1  0  0  0  0 
 29 69  1  0  0  0  0 
 30 70  1  0  0  0  0 
 35 71  1  0  0  0  0 
 38 72  1  0  0  0  0 
 39 73  1  0  0  0  0 
 40 74  1  0  0  0  0 
 40 75  1  0  0  0  0 
 41 76  1  0  0  0  0 
 41 77  1  0  0  0  0 
M  END
> <cdk:Title>
metofenazate

> <Conformer>
1

> <SuperDrugID>
SD002896

$$$$
