dequalinium
  CDK     0628171801

 74 77  0  0  0  0  0  0  0  0999 V2000
   13.3273  -12.5772   -7.9379 C   0  0  1  0  0  0  0  0  0  0  0  0
   12.0549  -12.1424   -7.1614 C   0  0  2  0  0  0  0  0  0  0  0  0
   14.0815  -13.5778   -7.1761 N   0  0  0  0  0  0  0  0  0  0  0  0
   11.1752  -11.1085   -7.9124 C   0  0  1  0  0  0  0  0  0  0  0  0
   13.7206  -14.9278   -7.2278 C   0  0  0  0  0  0  0  0  0  0  0  0
   15.1367  -13.1622   -6.3674 C   0  0  0  0  0  0  0  0  0  0  0  0
    9.9759  -10.6384   -7.0427 C   0  0  2  0  0  0  0  0  0  0  0  0
   14.4737  -15.8997   -6.4880 C   0  0  0  0  0  0  0  0  0  0  0  0
   12.6142  -15.4288   -7.9817 C   0  0  0  0  0  0  0  0  0  0  0  0
   15.5525  -11.7326   -6.1874 C   0  0  0  0  0  0  0  0  0  0  0  0
   15.8820  -14.1129   -5.6377 C   0  0  0  0  0  0  0  0  0  0  0  0
    9.0808   -9.5756   -7.8636 C   0  0  2  0  0  0  0  0  0  0  0  0
   15.5584  -15.4716   -5.6905 C   0  0  0  0  0  0  0  0  0  0  0  0
   14.1313  -17.2769   -6.5448 C   0  0  0  0  0  0  0  0  0  0  0  0
   12.2843  -16.7930   -8.0264 C   0  0  0  0  0  0  0  0  0  0  0  0
    7.8254   -9.0999   -6.9170 C   0  0  1  0  0  0  0  0  0  0  0  0
   16.2888  -16.2902   -4.9683 N   0  0  0  0  0  0  0  0  0  0  0  0
   13.0446  -17.7199   -7.3075 C   0  0  0  0  0  0  0  0  0  0  0  0
    6.8430   -8.0683   -7.5883 C   0  0  1  0  0  0  0  0  0  0  0  0
    5.6699   -7.5993   -6.6899 C   0  0  1  0  0  0  0  0  0  0  0  0
    4.7531   -6.6223   -7.4678 C   0  0  2  0  0  0  0  0  0  0  0  0
    3.6213   -6.0071   -6.6024 C   0  0  1  0  0  0  0  0  0  0  0  0
    2.8097   -5.0912   -7.4078 N   0  0  0  0  0  0  0  0  0  0  0  0
    1.7962   -5.5853   -8.2342 C   0  0  0  0  0  0  0  0  0  0  0  0
    3.0928   -3.7289   -7.3757 C   0  0  0  0  0  0  0  0  0  0  0  0
    1.0207   -4.6830   -9.0357 C   0  0  0  0  0  0  0  0  0  0  0  0
    1.4725   -6.9731   -8.3545 C   0  0  0  0  0  0  0  0  0  0  0  0
    4.1931   -3.1119   -6.5662 C   0  0  0  0  0  0  0  0  0  0  0  0
    2.3290   -2.8354   -8.1555 C   0  0  0  0  0  0  0  0  0  0  0  0
    1.3005   -3.2993   -8.9816 C   0  0  0  0  0  0  0  0  0  0  0  0
   -0.0093   -5.1715   -9.8826 C   0  0  0  0  0  0  0  0  0  0  0  0
    0.4589   -7.4438   -9.2043 C   0  0  0  0  0  0  0  0  0  0  0  0
    0.6469   -2.4038   -9.6863 N   0  0  0  0  0  0  0  0  0  0  0  0
   -0.2812   -6.5418   -9.9737 C   0  0  0  0  0  0  0  0  0  0  0  0
   13.0704  -12.9477   -8.9319 H   0  0  0  0  0  0  0  0  0  0  0  0
   13.9066  -11.6806   -8.1596 H   0  0  0  0  0  0  0  0  0  0  0  0
   12.3643  -11.7112   -6.2085 H   0  0  0  0  0  0  0  0  0  0  0  0
   11.4448  -13.0191   -6.9376 H   0  0  0  0  0  0  0  0  0  0  0  0
   11.7864  -10.2426   -8.1827 H   0  0  0  0  0  0  0  0  0  0  0  0
   10.8024  -11.5630   -8.8347 H   0  0  0  0  0  0  0  0  0  0  0  0
   10.4194  -10.2421   -6.0863 H   0  0  0  0  0  0  0  0  0  0  0  0
    9.4331  -11.5721   -6.7288 H   0  0  0  0  0  0  0  0  0  0  0  0
   12.0044  -14.8168   -8.5182 H   0  0  0  0  0  0  0  0  0  0  0  0
   16.3484  -11.5955   -5.4490 H   0  0  0  0  0  0  0  0  0  0  0  0
   15.9223  -11.3327   -7.1342 H   0  0  0  0  0  0  0  0  0  0  0  0
   14.7005  -11.1401   -5.8488 H   0  0  0  0  0  0  0  0  0  0  0  0
   16.6720  -13.8170   -5.0531 H   0  0  0  0  0  0  0  0  0  0  0  0
    8.6902  -10.0332   -8.7760 H   0  0  0  0  0  0  0  0  0  0  0  0
    9.6794   -8.7011   -8.1322 H   0  0  0  0  0  0  0  0  0  0  0  0
   14.6622  -17.9850   -6.0319 H   0  0  0  0  0  0  0  0  0  0  0  0
   11.4879  -17.1148   -8.5816 H   0  0  0  0  0  0  0  0  0  0  0  0
    7.1677   -9.9458   -6.5789 H   0  0  0  0  0  0  0  0  0  0  0  0
    8.1427   -8.6156   -5.9545 H   0  0  0  0  0  0  0  0  0  0  0  0
   16.9743  -15.9600   -4.4284 H   0  0  0  0  0  0  0  0  0  0  0  0
   16.1240  -17.2064   -4.9774 H   0  0  0  0  0  0  0  0  0  0  0  0
   12.8068  -18.7165   -7.3338 H   0  0  0  0  0  0  0  0  0  0  0  0
    7.4320   -7.1978   -7.8885 H   0  0  0  0  0  0  0  0  0  0  0  0
    6.4413   -8.5322   -8.4932 H   0  0  0  0  0  0  0  0  0  0  0  0
    5.0860   -8.4641   -6.3634 H   0  0  0  0  0  0  0  0  0  0  0  0
    6.0716   -7.0992   -5.8044 H   0  0  0  0  0  0  0  0  0  0  0  0
    4.3208   -7.1551   -8.3182 H   0  0  0  0  0  0  0  0  0  0  0  0
    5.3657   -5.8087   -7.8672 H   0  0  0  0  0  0  0  0  0  0  0  0
    3.0130   -6.7882   -6.1427 H   0  0  0  0  0  0  0  0  0  0  0  0
    4.0825   -5.5269   -5.7395 H   0  0  0  0  0  0  0  0  0  0  0  0
    1.9708   -7.6927   -7.8348 H   0  0  0  0  0  0  0  0  0  0  0  0
    5.1441   -3.5891   -6.8053 H   0  0  0  0  0  0  0  0  0  0  0  0
    4.3252   -2.0419   -6.7465 H   0  0  0  0  0  0  0  0  0  0  0  0
    3.9809   -3.2363   -5.5029 H   0  0  0  0  0  0  0  0  0  0  0  0
    2.5229   -1.8283   -8.1299 H   0  0  0  0  0  0  0  0  0  0  0  0
   -0.5785   -4.5420  -10.4535 H   0  0  0  0  0  0  0  0  0  0  0  0
    0.2591   -8.4459   -9.2662 H   0  0  0  0  0  0  0  0  0  0  0  0
   -0.0516   -2.6617  -10.2481 H   0  0  0  0  0  0  0  0  0  0  0  0
    0.8806   -1.5001   -9.6341 H   0  0  0  0  0  0  0  0  0  0  0  0
   -1.0160   -6.8792  -10.6010 H   0  0  0  0  0  0  0  0  0  0  0  0
  1  2  1  0  0  0  0 
  1  3  1  0  0  0  0 
  2  4  1  0  0  0  0 
  3  5  1  0  0  0  0 
  3  6  1  0  0  0  0 
  4  7  1  0  0  0  0 
  5  8  1  0  0  0  0 
  5  9  2  0  0  0  0 
  6 10  1  0  0  0  0 
  6 11  2  0  0  0  0 
  7 12  1  0  0  0  0 
  8 13  1  0  0  0  0 
  8 14  2  0  0  0  0 
  9 15  1  0  0  0  0 
 11 13  1  0  0  0  0 
 12 16  1  0  0  0  0 
 13 17  2  0  0  0  0 
 14 18  1  0  0  0  0 
 15 18  2  0  0  0  0 
 16 19  1  0  0  0  0 
 19 20  1  0  0  0  0 
 20 21  1  0  0  0  0 
 21 22  1  0  0  0  0 
 22 23  1  0  0  0  0 
 23 24  1  0  0  0  0 
 23 25  1  0  0  0  0 
 24 26  1  0  0  0  0 
 24 27  2  0  0  0  0 
 25 28  1  0  0  0  0 
 25 29  2  0  0  0  0 
 26 30  1  0  0  0  0 
 26 31  2  0  0  0  0 
 27 32  1  0  0  0  0 
 29 30  1  0  0  0  0 
 30 33  2  0  0  0  0 
 31 34  1  0  0  0  0 
 32 34  2  0  0  0  0 
  1 35  1  0  0  0  0 
  1 36  1  0  0  0  0 
  2 37  1  0  0  0  0 
  2 38  1  0  0  0  0 
  4 39  1  0  0  0  0 
  4 40  1  0  0  0  0 
  7 41  1  0  0  0  0 
  7 42  1  0  0  0  0 
  9 43  1  0  0  0  0 
 10 44  1  0  0  0  0 
 10 45  1  0  0  0  0 
 10 46  1  0  0  0  0 
 11 47  1  0  0  0  0 
 12 48  1  0  0  0  0 
 12 49  1  0  0  0  0 
 14 50  1  0  0  0  0 
 15 51  1  0  0  0  0 
 16 52  1  0  0  0  0 
 16 53  1  0  0  0  0 
 17 54  1  0  0  0  0 
 17 55  1  0  0  0  0 
 18 56  1  0  0  0  0 
 19 57  1  0  0  0  0 
 19 58  1  0  0  0  0 
 20 59  1  0  0  0  0 
 20 60  1  0  0  0  0 
 21 61  1  0  0  0  0 
 21 62  1  0  0  0  0 
 22 63  1  0  0  0  0 
 22 64  1  0  0  0  0 
 27 65  1  0  0  0  0 
 28 66  1  0  0  0  0 
 28 67  1  0  0  0  0 
 28 68  1  0  0  0  0 
 29 69  1  0  0  0  0 
 31 70  1  0  0  0  0 
 32 71  1  0  0  0  0 
 33 72  1  0  0  0  0 
 33 73  1  0  0  0  0 
 34 74  1  0  0  0  0 
M  CHG  1  17   1
M  CHG  1  33   1
M  END
> <cdk:Title>
dequalinium

> <Conformer>
1

> <SuperDrugID>
SD003529

$$$$
