narcobarbital
  CDK     0628171801

 32 32  0  0  0  0  0  0  0  0999 V2000
   -2.9247    0.4484    2.6338 C   0  0  2  0  0  0  0  0  0  0  0  0
   -4.3327    0.6791    2.3002 C   0  0  0  0  0  0  0  0  0  0  0  0
   -1.8464    0.6633    1.4923 C   0  0  1  0  0  0  0  0  0  0  0  0
   -5.3417   -0.6646    1.5592 Br  0  0  0  0  0  0  0  0  0  0  0  0
   -4.9545    1.8408    2.5442 C   0  0  0  0  0  0  0  0  0  0  0  0
   -2.0424   -0.2719    0.2166 C   0  0  2  0  0  0  0  0  0  0  0  0
   -1.8980    2.1147    1.0498 C   0  0  0  0  0  0  0  0  0  0  0  0
   -0.5135    0.3845    2.1331 C   0  0  0  0  0  0  0  0  0  0  0  0
   -2.1193   -1.8135    0.4760 C   0  0  0  0  0  0  0  0  0  0  0  0
   -0.9855   -0.0174   -0.9077 C   0  0  0  0  0  0  0  0  0  0  0  0
   -2.9255    2.4936    0.4331 O   0  0  0  0  0  0  0  0  0  0  0  0
   -0.8707    3.0282    1.2478 N   0  0  0  0  0  0  0  0  0  0  0  0
   -0.2259   -0.7489    2.5844 O   0  0  0  0  0  0  0  0  0  0  0  0
    0.4343    1.3342    2.3030 N   0  0  0  0  0  0  0  0  0  0  0  0
   -1.0027    4.3855    0.7536 C   0  0  0  0  0  0  0  0  0  0  0  0
    0.2708    2.6123    1.8966 C   0  0  0  0  0  0  0  0  0  0  0  0
    1.2293    3.3781    2.1507 O   0  0  0  0  0  0  0  0  0  0  0  0
   -2.8599   -0.5686    3.0260 H   0  0  0  0  0  0  0  0  0  0  0  0
   -2.6576    1.0825    3.4893 H   0  0  0  0  0  0  0  0  0  0  0  0
   -5.9115    1.9617    2.3146 H   0  0  0  0  0  0  0  0  0  0  0  0
   -4.4711    2.6020    2.9560 H   0  0  0  0  0  0  0  0  0  0  0  0
   -3.0109   -0.0111   -0.2233 H   0  0  0  0  0  0  0  0  0  0  0  0
   -2.8032   -2.0641    1.2838 H   0  0  0  0  0  0  0  0  0  0  0  0
   -2.4852   -2.3256   -0.4166 H   0  0  0  0  0  0  0  0  0  0  0  0
   -1.1406   -2.2275    0.7196 H   0  0  0  0  0  0  0  0  0  0  0  0
   -0.9806    1.0278   -1.2213 H   0  0  0  0  0  0  0  0  0  0  0  0
   -1.2140   -0.6188   -1.7898 H   0  0  0  0  0  0  0  0  0  0  0  0
    0.0188   -0.2777   -0.5684 H   0  0  0  0  0  0  0  0  0  0  0  0
    1.2674    1.0886    2.7393 H   0  0  0  0  0  0  0  0  0  0  0  0
   -1.8540    4.8768    1.2295 H   0  0  0  0  0  0  0  0  0  0  0  0
   -1.1684    4.3631   -0.3261 H   0  0  0  0  0  0  0  0  0  0  0  0
   -0.1230    5.0099    0.9256 H   0  0  0  0  0  0  0  0  0  0  0  0
  1  2  1  0  0  0  0 
  1  3  1  0  0  0  0 
  2  4  1  0  0  0  0 
  2  5  2  0  0  0  0 
  3  6  1  0  0  0  0 
  3  7  1  0  0  0  0 
  3  8  1  0  0  0  0 
  6  9  1  0  0  0  0 
  6 10  1  0  0  0  0 
  7 11  2  0  0  0  0 
  7 12  1  0  0  0  0 
  8 13  2  0  0  0  0 
  8 14  1  0  0  0  0 
 12 15  1  0  0  0  0 
 12 16  1  0  0  0  0 
 14 16  1  0  0  0  0 
 16 17  2  0  0  0  0 
 18  1  1  0  0  0  0 
 19  1  1  0  0  0  0 
 20  5  1  0  0  0  0 
 21  5  1  0  0  0  0 
 22  6  1  0  0  0  0 
 23  9  1  0  0  0  0 
 24  9  1  0  0  0  0 
 25  9  1  0  0  0  0 
 26 10  1  0  0  0  0 
 27 10  1  0  0  0  0 
 28 10  1  0  0  0  0 
 29 14  1  0  0  0  0 
 30 15  1  0  0  0  0 
 31 15  1  0  0  0  0 
 32 15  1  0  0  0  0 
M  END
> <cdk:Title>
narcobarbital

> <Conformer>
1

> <SuperDrugID>
SD003233

$$$$
