tetracosactide
  CDK     0628171801

418426  0  0  0  0  0  0  0  0999 V2000
  -10.3724  -13.2463  -13.3607 N   0  0  1  0  0  0  0  0  0  0  0  0
   -8.3471  -14.5340  -15.0539 N   0  0  0  0  0  0  0  0  0  0  0  0
   -9.6760  -15.6160  -17.4215 N   0  0  0  0  0  0  0  0  0  0  0  0
  -11.1964  -16.9467  -20.3007 N   0  0  0  0  0  0  0  0  0  0  0  0
  -12.2594  -18.0377  -23.6518 N   0  0  0  0  0  0  0  0  0  0  0  0
  -10.7936  -19.2766  -26.3725 N   0  0  0  0  0  0  0  0  0  0  0  0
   -8.4889  -20.3907  -28.6096 N   0  0  0  0  0  0  0  0  0  0  0  0
   -7.8415  -23.7477  -28.5831 N   0  0  0  0  0  0  0  0  0  0  0  0
   -5.9790  -26.5198  -28.7797 N   0  0  0  0  0  0  0  0  0  0  0  0
   -4.8476  -29.3549  -28.3606 N   0  0  0  0  0  0  0  0  0  0  0  0
   -2.4069  -32.0259  -28.9846 N   0  0  0  0  0  0  0  0  0  0  0  0
   -0.3578  -29.8344  -29.5732 N   0  0  0  0  0  0  0  0  0  0  0  0
   -0.9264  -27.4021  -27.9374 N   0  0  0  0  0  0  0  0  0  0  0  0
   -0.3416  -25.5007  -24.8684 N   0  0  0  0  0  0  0  0  0  0  0  0
    1.6624  -23.6127  -23.8584 N   0  0  0  0  0  0  0  0  0  0  0  0
    1.3965  -20.3958  -24.5603 N   0  0  0  0  0  0  0  0  0  0  0  0
    0.6300  -16.8361  -24.5040 N   0  0  0  0  0  0  0  0  0  0  0  0
   -1.0655  -13.7310  -24.6278 N   0  0  0  0  0  0  0  0  0  0  0  0
   -3.4013  -15.8614  -24.9004 N   0  0  0  0  0  0  0  0  0  0  0  0
   -5.4633  -18.3181  -23.0949 N   0  0  0  0  0  0  0  0  0  0  0  0
   -5.1741  -20.4564  -20.1446 N   0  0  0  0  0  0  0  0  0  0  0  0
   -7.5292  -22.1592  -18.7374 N   0  0  0  0  0  0  0  0  0  0  0  0
   -9.3007  -22.6671  -15.6311 N   0  0  0  0  0  0  0  0  0  0  0  0
   -7.6677  -21.2512  -13.4723 N   0  0  0  0  0  0  0  0  0  0  0  0
   -5.9662  -18.1747  -13.1431 O   0  0  0  0  0  0  0  0  0  0  0  0
   -8.1701  -13.4081  -14.3091 C   0  0  0  0  0  0  0  0  0  0  0  0
   -8.6017  -14.3618  -12.0184 C   0  0  1  0  0  0  0  0  0  0  0  0
   -9.2974  -14.1410  -10.7956 O   0  0  0  0  0  0  0  0  0  0  0  0
   -8.9351  -13.2506  -13.0487 C   0  0  2  0  0  0  0  0  0  0  0  0
   -7.3718  -12.5082  -14.6641 O   0  0  0  0  0  0  0  0  0  0  0  0
   -8.4752  -15.9707  -16.8711 C   0  0  0  0  0  0  0  0  0  0  0  0
   -6.1742  -15.2918  -15.8846 C   0  0  1  0  0  0  0  0  0  0  0  0
   -5.3635  -15.9363  -16.9593 C   0  0  0  0  0  0  0  0  0  0  0  0
   -5.1465  -15.2947  -18.2021 C   0  0  0  0  0  0  0  0  0  0  0  0
   -4.3331  -15.8889  -19.1861 C   0  0  0  0  0  0  0  0  0  0  0  0
   -3.7145  -17.1291  -18.9382 C   0  0  0  0  0  0  0  0  0  0  0  0
   -2.9031  -17.6794  -19.8752 O   0  0  0  0  0  0  0  0  0  0  0  0
   -3.9444  -17.7912  -17.7191 C   0  0  0  0  0  0  0  0  0  0  0  0
   -4.7584  -17.1972  -16.7400 C   0  0  0  0  0  0  0  0  0  0  0  0
   -7.6457  -14.9039  -16.2497 C   0  0  2  0  0  0  0  0  0  0  0  0
   -8.1123  -17.1704  -16.8247 O   0  0  0  0  0  0  0  0  0  0  0  0
  -11.1472  -16.0480  -19.2760 C   0  0  0  0  0  0  0  0  0  0  0  0
  -11.8746  -16.5337  -16.9379 C   0  0  2  0  0  0  0  0  0  0  0  0
  -12.8904  -17.4356  -17.3701 O   0  0  0  0  0  0  0  0  0  0  0  0
  -10.6893  -16.4968  -17.9357 C   0  0  2  0  0  0  0  0  0  0  0  0
  -11.5123  -14.8588  -19.4389 O   0  0  0  0  0  0  0  0  0  0  0  0
  -11.9099  -17.9988  -22.3343 C   0  0  0  0  0  0  0  0  0  0  0  0
  -10.8506  -15.2383  -23.7416 C   0  0  1  0  0  0  0  0  0  0  0  0
  -10.4723  -15.8816  -22.3794 C   0  0  1  0  0  0  0  0  0  0  0  0
  -11.6013  -16.7002  -21.6624 C   0  0  2  0  0  0  0  0  0  0  0  0
   -8.1160  -14.7019  -24.4718 C   0  0  0  0  0  0  0  0  0  0  0  0
   -9.7255  -13.8911  -24.2402 S   0  0  0  0  0  0  0  0  0  0  0  0
  -11.8473  -19.0783  -21.6949 O   0  0  0  0  0  0  0  0  0  0  0  0
  -11.9691  -18.8259  -25.8428 C   0  0  0  0  0  0  0  0  0  0  0  0
  -13.7650  -19.8712  -24.3623 C   0  0  2  0  0  0  0  0  0  0  0  0
  -13.8472  -21.2685  -25.0369 C   0  0  2  0  0  0  0  0  0  0  0  0
  -15.1887  -21.8665  -24.9069 C   0  0  0  0  0  0  0  0  0  0  0  0
  -16.2528  -21.2794  -25.5017 O   0  0  0  0  0  0  0  0  0  0  0  0
  -15.3684  -22.9225  -24.2585 O   0  0  0  0  0  0  0  0  0  0  0  0
  -12.3533  -19.2202  -24.4631 C   0  0  2  0  0  0  0  0  0  0  0  0
  -12.7084  -18.0363  -26.4791 O   0  0  0  0  0  0  0  0  0  0  0  0
   -9.8005  -20.0781  -28.3806 C   0  0  0  0  0  0  0  0  0  0  0  0
   -9.0555  -17.8682  -27.2653 C   0  0  2  0  0  0  0  0  0  0  0  0
   -8.3478  -17.2945  -28.4301 C   0  0  0  0  0  0  0  0  0  0  0  0
   -8.8662  -16.4630  -29.4193 C   0  0  0  0  0  0  0  0  0  0  0  0
   -7.8843  -16.1439  -30.2788 N   0  0  0  0  0  0  0  0  0  0  0  0
   -6.7764  -16.7629  -29.8370 C   0  0  0  0  0  0  0  0  0  0  0  0
   -7.0520  -17.4604  -28.7255 N   0  0  0  0  0  0  0  0  0  0  0  0
  -10.2017  -18.8667  -27.6148 C   0  0  2  0  0  0  0  0  0  0  0  0
  -10.7188  -20.8081  -28.8252 O   0  0  0  0  0  0  0  0  0  0  0  0
   -7.3654  -22.4713  -28.5458 C   0  0  0  0  0  0  0  0  0  0  0  0
   -6.9582  -20.8592  -30.4526 C   0  0  1  0  0  0  0  0  0  0  0  0
   -6.3512  -21.8788  -31.3592 C   0  0  0  0  0  0  0  0  0  0  0  0
   -7.1600  -22.5877  -32.2813 C   0  0  0  0  0  0  0  0  0  0  0  0
   -6.6029  -23.5682  -33.1239 C   0  0  0  0  0  0  0  0  0  0  0  0
   -5.2235  -23.8386  -33.0716 C   0  0  0  0  0  0  0  0  0  0  0  0
   -4.4043  -23.1386  -32.1674 C   0  0  0  0  0  0  0  0  0  0  0  0
   -4.9633  -22.1632  -31.3190 C   0  0  0  0  0  0  0  0  0  0  0  0
   -7.9769  -21.4501  -29.4314 C   0  0  2  0  0  0  0  0  0  0  0  0
   -6.4426  -22.1356  -27.7643 O   0  0  0  0  0  0  0  0  0  0  0  0
   -7.2381  -26.0165  -28.5986 C   0  0  0  0  0  0  0  0  0  0  0  0
   -8.6028  -24.9972  -26.6736 C   0  0  2  0  0  0  0  0  0  0  0  0
   -8.2410  -25.8233  -25.4083 C   0  0  2  0  0  0  0  0  0  0  0  0
   -9.4051  -25.8078  -24.3787 C   0  0  1  0  0  0  0  0  0  0  0  0
   -9.0196  -26.3774  -23.1649 N   0  0  0  0  0  0  0  0  0  0  0  0
   -9.7079  -26.4867  -22.0834 C   0  0  0  0  0  0  0  0  0  0  0  0
  -10.9484  -26.0576  -21.9558 N   0  0  0  0  0  0  0  0  0  0  0  0
   -9.1408  -27.0498  -21.0437 N   0  0  0  0  0  0  0  0  0  0  0  0
   -7.4629  -24.8344  -27.7262 C   0  0  2  0  0  0  0  0  0  0  0  0
   -8.2121  -26.4884  -29.2339 O   0  0  0  0  0  0  0  0  0  0  0  0
   -4.5276  -28.3724  -29.2479 C   0  0  0  0  0  0  0  0  0  0  0  0
   -5.2039  -26.7040  -31.0695 C   0  0  1  0  0  0  0  0  0  0  0  0
   -5.0125  -27.5850  -32.2430 C   0  0  0  0  0  0  0  0  0  0  0  0
   -3.7979  -27.9799  -32.8089 C   0  0  0  0  0  0  0  0  0  0  0  0
   -4.0317  -28.8042  -33.8450 N   0  0  0  0  0  0  0  0  0  0  0  0
   -5.3571  -28.9508  -33.9934 C   0  0  0  0  0  0  0  0  0  0  0  0
   -6.0019  -28.1974  -33.0123 C   0  0  0  0  0  0  0  0  0  0  0  0
   -7.4075  -28.1546  -32.9400 C   0  0  0  0  0  0  0  0  0  0  0  0
   -8.1521  -28.8944  -33.8833 C   0  0  0  0  0  0  0  0  0  0  0  0
   -7.4956  -29.6627  -34.8729 C   0  0  0  0  0  0  0  0  0  0  0  0
   -6.0862  -29.6982  -34.9343 C   0  0  0  0  0  0  0  0  0  0  0  0
   -5.5992  -27.4840  -29.7766 C   0  0  2  0  0  0  0  0  0  0  0  0
   -3.3399  -28.2402  -29.6283 O   0  0  0  0  0  0  0  0  0  0  0  0
   -3.6105  -31.3975  -28.8352 C   0  0  0  0  0  0  0  0  0  0  0  0
   -3.9466  -30.3452  -27.8461 C   0  0  1  0  0  0  0  0  0  0  0  0
   -4.5176  -31.8030  -29.5973 O   0  0  0  0  0  0  0  0  0  0  0  0
   -0.5245  -30.5384  -28.3891 C   0  0  0  0  0  0  0  0  0  0  0  0
    2.0249  -34.2654  -28.0798 C   0  0  1  0  0  0  0  0  0  0  0  0
    1.1507  -33.0076  -27.8173 C   0  0  1  0  0  0  0  0  0  0  0  0
   -0.2360  -33.0583  -28.5256 C   0  0  1  0  0  0  0  0  0  0  0  0
   -1.2012  -31.8635  -28.2191 C   0  0  2  0  0  0  0  0  0  0  0  0
    4.2580  -35.3234  -27.7863 N   0  0  1  0  0  0  0  0  0  0  0  0
    3.4663  -34.1149  -27.5329 C   0  0  1  0  0  0  0  0  0  0  0  0
   -0.0158  -30.0790  -27.3364 O   0  0  0  0  0  0  0  0  0  0  0  0
    0.1864  -27.4991  -28.7291 C   0  0  0  0  0  0  0  0  0  0  0  0
    0.4264  -28.6230  -29.6771 C   0  0  2  0  0  0  0  0  0  0  0  0
    0.2191  -28.1429  -31.1324 C   0  0  2  0  0  0  0  0  0  0  0  0
   -0.0872  -29.4362  -31.8925 C   0  0  2  0  0  0  0  0  0  0  0  0
   -0.8485  -30.2688  -30.8506 C   0  0  1  0  0  0  0  0  0  0  0  0
    1.0696  -26.6086  -28.6860 O   0  0  0  0  0  0  0  0  0  0  0  0
   -0.5176  -26.5568  -25.7040 C   0  0  0  0  0  0  0  0  0  0  0  0
   -3.0848  -24.6056  -26.5254 C   0  0  0  0  0  0  0  0  0  0  0  0
   -1.1934  -26.3309  -27.0072 C   0  0  2  0  0  0  0  0  0  0  0  0
   -3.4678  -27.0344  -25.8665 C   0  0  0  0  0  0  0  0  0  0  0  0
   -2.7396  -26.0820  -26.8614 C   0  0  1  0  0  0  0  0  0  0  0  0
   -0.1420  -27.7074  -25.3730 O   0  0  0  0  0  0  0  0  0  0  0  0
    0.6316  -24.2176  -23.1213 C   0  0  0  0  0  0  0  0  0  0  0  0
    0.2316  -25.5655  -23.5677 C   0  0  1  0  0  0  0  0  0  0  0  0
    0.0448  -23.7667  -22.0794 O   0  0  0  0  0  0  0  0  0  0  0  0
    2.4745  -21.2054  -24.3858 C   0  0  0  0  0  0  0  0  0  0  0  0
    5.7614  -21.8742  -21.2616 C   0  0  2  0  0  0  0  0  0  0  0  0
    4.4046  -21.4733  -21.8976 C   0  0  2  0  0  0  0  0  0  0  0  0
    3.7896  -22.6347  -22.7268 C   0  0  1  0  0  0  0  0  0  0  0  0
    2.3635  -22.3401  -23.3758 C   0  0  2  0  0  0  0  0  0  0  0  0
    7.6536  -21.1902  -19.8263 N   0  0  2  0  0  0  0  0  0  0  0  0
    6.3342  -20.7877  -20.3236 C   0  0  1  0  0  0  0  0  0  0  0  0
    3.5443  -20.9853  -25.0038 O   0  0  0  0  0  0  0  0  0  0  0  0
    0.5266  -18.1859  -24.3509 C   0  0  0  0  0  0  0  0  0  0  0  0
   -0.9622  -20.6416  -26.7201 C   0  0  2  0  0  0  0  0  0  0  0  0
   -0.2850  -19.3266  -27.1852 C   0  0  2  0  0  0  0  0  0  0  0  0
    1.1621  -19.0925  -26.6782 C   0  0  1  0  0  0  0  0  0  0  0  0
    1.4142  -19.0819  -25.1400 C   0  0  2  0  0  0  0  0  0  0  0  0
   -1.9489  -21.5951  -28.8025 N   0  0  2  0  0  0  0  0  0  0  0  0
   -2.2526  -20.9600  -27.5149 C   0  0  1  0  0  0  0  0  0  0  0  0
   -0.2676  -18.6566  -23.4982 O   0  0  0  0  0  0  0  0  0  0  0  0
   -0.0079  -14.5644  -24.3943 C   0  0  0  0  0  0  0  0  0  0  0  0
    0.7554  -15.7745  -22.2699 C   0  0  2  0  0  0  0  0  0  0  0  0
   -0.1956  -15.6052  -21.0498 C   0  0  2  0  0  0  0  0  0  0  0  0
    0.5186  -15.8229  -19.6895 C   0  0  2  0  0  0  0  0  0  0  0  0
   -0.4039  -15.7589  -18.6466 N   0  0  0  0  0  0  0  0  0  0  0  0
   -0.2284  -16.0028  -17.3972 C   0  0  0  0  0  0  0  0  0  0  0  0
    0.9181  -16.3881  -16.8744 N   0  0  0  0  0  0  0  0  0  0  0  0
   -1.2582  -15.8650  -16.5995 N   0  0  0  0  0  0  0  0  0  0  0  0
    0.0135  -15.8549  -23.6510 C   0  0  2  0  0  0  0  0  0  0  0  0
    1.0658  -14.1673  -24.9050 O   0  0  0  0  0  0  0  0  0  0  0  0
   -3.1898  -14.9023  -23.9198 C   0  0  0  0  0  0  0  0  0  0  0  0
   -3.1788  -12.5198  -24.7325 C   0  0  2  0  0  0  0  0  0  0  0  0
   -4.5651  -12.2175  -24.0948 C   0  0  2  0  0  0  0  0  0  0  0  0
   -5.3164  -11.0403  -24.7597 C   0  0  1  0  0  0  0  0  0  0  0  0
   -6.5551  -10.8854  -24.1425 N   0  0  0  0  0  0  0  0  0  0  0  0
   -7.4852  -10.0350  -24.3870 C   0  0  0  0  0  0  0  0  0  0  0  0
   -8.5710  -10.0976  -23.6534 N   0  0  0  0  0  0  0  0  0  0  0  0
   -7.3991   -9.1096  -25.3217 N   0  0  0  0  0  0  0  0  0  0  0  0
   -2.3675  -13.6575  -24.0259 C   0  0  2  0  0  0  0  0  0  0  0  0
   -3.7771  -15.0273  -22.8178 O   0  0  0  0  0  0  0  0  0  0  0  0
   -4.3047  -17.7480  -23.5186 C   0  0  0  0  0  0  0  0  0  0  0  0
   -4.3454  -16.9516  -24.7723 C   0  0  2  0  0  0  0  0  0  0  0  0
   -4.1084  -17.8444  -26.0045 C   0  0  2  0  0  0  0  0  0  0  0  0
   -3.5696  -16.8543  -27.0387 C   0  0  2  0  0  0  0  0  0  0  0  0
   -2.7598  -15.8664  -26.1805 C   0  0  1  0  0  0  0  0  0  0  0  0
   -3.2498  -17.8250  -22.8455 O   0  0  0  0  0  0  0  0  0  0  0  0
   -5.4347  -20.1383  -21.4436 C   0  0  0  0  0  0  0  0  0  0  0  0
   -7.6440  -18.3785  -19.9709 C   0  0  0  0  0  0  0  0  0  0  0  0
   -5.7667  -18.7257  -21.7539 C   0  0  2  0  0  0  0  0  0  0  0  0
   -8.2510  -19.3143  -22.2755 C   0  0  0  0  0  0  0  0  0  0  0  0
   -7.2762  -18.3959  -21.4816 C   0  0  1  0  0  0  0  0  0  0  0  0
   -5.5127  -21.0145  -22.3370 O   0  0  0  0  0  0  0  0  0  0  0  0
   -6.2954  -21.6210  -18.5086 C   0  0  0  0  0  0  0  0  0  0  0  0
   -2.2529  -24.0315  -18.2071 C   0  0  1  0  0  0  0  0  0  0  0  0
   -3.7203  -23.6169  -18.5050 C   0  0  2  0  0  0  0  0  0  0  0  0
   -3.8238  -22.1564  -19.0252 C   0  0  2  0  0  0  0  0  0  0  0  0
   -5.2349  -21.7567  -19.5460 C   0  0  2  0  0  0  0  0  0  0  0  0
   -0.7142  -25.8149  -17.4378 N   0  0  1  0  0  0  0  0  0  0  0  0
   -2.1180  -25.4928  -17.7178 C   0  0  1  0  0  0  0  0  0  0  0  0
   -6.0821  -20.9145  -17.4937 O   0  0  0  0  0  0  0  0  0  0  0  0
   -8.9229  -22.9023  -16.9235 C   0  0  0  0  0  0  0  0  0  0  0  0
  -11.2447  -21.2531  -18.4215 C   0  0  0  0  0  0  0  0  0  0  0  0
   -8.7466  -21.8947  -18.0109 C   0  0  2  0  0  0  0  0  0  0  0  0
  -10.2333  -23.1729  -19.7657 C   0  0  0  0  0  0  0  0  0  0  0  0
   -9.9388  -21.8308  -19.0343 C   0  0  1  0  0  0  0  0  0  0  0  0
   -8.7067  -24.1091  -17.1814 O   0  0  0  0  0  0  0  0  0  0  0  0
   -8.6056  -20.7053  -14.3420 C   0  0  0  0  0  0  0  0  0  0  0  0
  -10.8887  -21.7210  -14.0141 C   0  0  1  0  0  0  0  0  0  0  0  0
  -11.6109  -20.4816  -13.6058 C   0  0  0  0  0  0  0  0  0  0  0  0
  -12.5290  -19.8746  -14.4956 C   0  0  0  0  0  0  0  0  0  0  0  0
  -13.1884  -18.6826  -14.1460 C   0  0  0  0  0  0  0  0  0  0  0  0
  -12.9308  -18.0698  -12.9065 C   0  0  0  0  0  0  0  0  0  0  0  0
  -13.5497  -16.9008  -12.6052 O   0  0  0  0  0  0  0  0  0  0  0  0
  -12.0361  -18.6751  -12.0018 C   0  0  0  0  0  0  0  0  0  0  0  0
  -11.3831  -19.8742  -12.3468 C   0  0  0  0  0  0  0  0  0  0  0  0
   -9.7210  -21.4403  -15.0154 C   0  0  2  0  0  0  0  0  0  0  0  0
   -8.5827  -19.4683  -14.5575 O   0  0  0  0  0  0  0  0  0  0  0  0
   -5.9326  -19.4942  -13.4471 C   0  0  0  0  0  0  0  0  0  0  0  0
   -6.7583  -20.4569  -12.6800 C   0  0  2  0  0  0  0  0  0  0  0  0
   -5.8720  -21.4632  -11.9052 C   0  0  2  0  0  0  0  0  0  0  0  0
   -6.6835  -22.7612  -11.9267 C   0  0  2  0  0  0  0  0  0  0  0  0
   -7.4972  -22.6543  -13.2258 C   0  0  1  0  0  0  0  0  0  0  0  0
   -5.2017  -19.8811  -14.3876 O   0  0  0  0  0  0  0  0  0  0  0  0
  -10.6072  -14.1729  -13.7224 H   0  0  0  0  0  0  0  0  0  0  0  0
  -10.8709  -13.1394  -12.4754 H   0  0  0  0  0  0  0  0  0  0  0  0
   -8.9973  -15.1704  -14.7175 H   0  0  0  0  0  0  0  0  0  0  0  0
   -9.8828  -14.6678  -17.4337 H   0  0  0  0  0  0  0  0  0  0  0  0
  -10.9058  -17.8478  -20.0884 H   0  0  0  0  0  0  0  0  0  0  0  0
  -12.4209  -17.1873  -24.0895 H   0  0  0  0  0  0  0  0  0  0  0  0
  -10.2820  -19.9037  -25.8362 H   0  0  0  0  0  0  0  0  0  0  0  0
   -7.8240  -19.8281  -28.1843 H   0  0  0  0  0  0  0  0  0  0  0  0
   -8.5389  -23.9337  -29.2308 H   0  0  0  0  0  0  0  0  0  0  0  0
   -5.2672  -26.1373  -28.2431 H   0  0  0  0  0  0  0  0  0  0  0  0
   -5.7746  -29.4102  -28.0790 H   0  0  0  0  0  0  0  0  0  0  0  0
   -2.3681  -32.6862  -29.6950 H   0  0  0  0  0  0  0  0  0  0  0  0
   -1.5805  -28.1155  -27.9927 H   0  0  0  0  0  0  0  0  0  0  0  0
   -0.6540  -24.6355  -25.1748 H   0  0  0  0  0  0  0  0  0  0  0  0
    1.9873  -24.0492  -24.6618 H   0  0  0  0  0  0  0  0  0  0  0  0
    0.5531  -20.6958  -24.1804 H   0  0  0  0  0  0  0  0  0  0  0  0
    1.2083  -16.5140  -25.2142 H   0  0  0  0  0  0  0  0  0  0  0  0
   -0.8763  -13.0092  -25.2491 H   0  0  0  0  0  0  0  0  0  0  0  0
   -6.1856  -18.3610  -23.7407 H   0  0  0  0  0  0  0  0  0  0  0  0
   -5.0094  -19.7134  -19.5403 H   0  0  0  0  0  0  0  0  0  0  0  0
   -7.6022  -22.7479  -19.5028 H   0  0  0  0  0  0  0  0  0  0  0  0
   -9.3112  -23.4475  -15.0544 H   0  0  0  0  0  0  0  0  0  0  0  0
   -5.4143  -17.5374  -13.6439 H   0  0  0  0  0  0  0  0  0  0  0  0
   -7.5307  -14.3643  -11.8045 H   0  0  0  0  0  0  0  0  0  0  0  0
   -8.8832  -15.3450  -12.4027 H   0  0  0  0  0  0  0  0  0  0  0  0
   -9.0268  -14.8823  -10.2137 H   0  0  0  0  0  0  0  0  0  0  0  0
   -8.6966  -12.2831  -12.5932 H   0  0  0  0  0  0  0  0  0  0  0  0
   -6.2061  -15.9363  -15.0006 H   0  0  0  0  0  0  0  0  0  0  0  0
   -5.6381  -14.3862  -15.5849 H   0  0  0  0  0  0  0  0  0  0  0  0
   -5.5740  -14.3868  -18.3972 H   0  0  0  0  0  0  0  0  0  0  0  0
   -4.1893  -15.4151  -20.0801 H   0  0  0  0  0  0  0  0  0  0  0  0
   -2.5100  -18.4746  -19.4567 H   0  0  0  0  0  0  0  0  0  0  0  0
   -3.5134  -18.7001  -17.5386 H   0  0  0  0  0  0  0  0  0  0  0  0
   -4.8948  -17.6881  -15.8569 H   0  0  0  0  0  0  0  0  0  0  0  0
   -7.6203  -14.0538  -16.9385 H   0  0  0  0  0  0  0  0  0  0  0  0
  -11.5212  -16.8631  -15.9586 H   0  0  0  0  0  0  0  0  0  0  0  0
  -12.3165  -15.5409  -16.8280 H   0  0  0  0  0  0  0  0  0  0  0  0
  -12.4620  -18.3175  -17.3761 H   0  0  0  0  0  0  0  0  0  0  0  0
  -10.3051  -17.5185  -18.0129 H   0  0  0  0  0  0  0  0  0  0  0  0
  -10.8377  -15.9887  -24.5309 H   0  0  0  0  0  0  0  0  0  0  0  0
  -11.8554  -14.8155  -23.6862 H   0  0  0  0  0  0  0  0  0  0  0  0
   -9.6026  -16.5229  -22.5279 H   0  0  0  0  0  0  0  0  0  0  0  0
  -10.1590  -15.0687  -21.7199 H   0  0  0  0  0  0  0  0  0  0  0  0
  -12.5260  -16.1160  -21.6515 H   0  0  0  0  0  0  0  0  0  0  0  0
   -7.7342  -15.0589  -23.5161 H   0  0  0  0  0  0  0  0  0  0  0  0
   -7.4183  -13.9792  -24.8891 H   0  0  0  0  0  0  0  0  0  0  0  0
   -8.2130  -15.5391  -25.1615 H   0  0  0  0  0  0  0  0  0  0  0  0
  -14.0157  -19.9916  -23.3042 H   0  0  0  0  0  0  0  0  0  0  0  0
  -14.5099  -19.2009  -24.8012 H   0  0  0  0  0  0  0  0  0  0  0  0
  -13.1011  -21.9310  -24.5856 H   0  0  0  0  0  0  0  0  0  0  0  0
  -13.6173  -21.1828  -26.1012 H   0  0  0  0  0  0  0  0  0  0  0  0
  -17.1451  -21.6788  -25.4291 H   0  0  0  0  0  0  0  0  0  0  0  0
  -11.6205  -19.9509  -24.1012 H   0  0  0  0  0  0  0  0  0  0  0  0
   -9.4767  -17.0318  -26.7026 H   0  0  0  0  0  0  0  0  0  0  0  0
   -8.3274  -18.3642  -26.6168 H   0  0  0  0  0  0  0  0  0  0  0  0
   -9.8334  -16.1392  -29.4843 H   0  0  0  0  0  0  0  0  0  0  0  0
   -5.8579  -16.7095  -30.2797 H   0  0  0  0  0  0  0  0  0  0  0  0
   -6.4191  -17.9953  -28.2204 H   0  0  0  0  0  0  0  0  0  0  0  0
  -10.9280  -18.3277  -28.2316 H   0  0  0  0  0  0  0  0  0  0  0  0
   -6.1801  -20.3221  -29.9000 H   0  0  0  0  0  0  0  0  0  0  0  0
   -7.4691  -20.1162  -31.0721 H   0  0  0  0  0  0  0  0  0  0  0  0
   -8.1639  -22.3947  -32.3457 H   0  0  0  0  0  0  0  0  0  0  0  0
   -7.2014  -24.0874  -33.7714 H   0  0  0  0  0  0  0  0  0  0  0  0
   -4.8198  -24.5522  -33.6834 H   0  0  0  0  0  0  0  0  0  0  0  0
   -3.4026  -23.3436  -32.1225 H   0  0  0  0  0  0  0  0  0  0  0  0
   -4.3495  -21.6634  -30.6703 H   0  0  0  0  0  0  0  0  0  0  0  0
   -8.7940  -21.9059  -30.0000 H   0  0  0  0  0  0  0  0  0  0  0  0
   -8.8818  -23.9957  -26.3278 H   0  0  0  0  0  0  0  0  0  0  0  0
   -9.4886  -25.4279  -27.1496 H   0  0  0  0  0  0  0  0  0  0  0  0
   -7.3476  -25.3932  -24.9436 H   0  0  0  0  0  0  0  0  0  0  0  0
   -8.0139  -26.8549  -25.6915 H   0  0  0  0  0  0  0  0  0  0  0  0
   -9.7161  -24.7732  -24.2000 H   0  0  0  0  0  0  0  0  0  0  0  0
  -10.2574  -26.3567  -24.7887 H   0  0  0  0  0  0  0  0  0  0  0  0
  -11.4180  -26.1673  -21.1137 H   0  0  0  0  0  0  0  0  0  0  0  0
  -11.3951  -25.6301  -22.7021 H   0  0  0  0  0  0  0  0  0  0  0  0
   -9.6236  -27.1295  -20.2051 H   0  0  0  0  0  0  0  0  0  0  0  0
   -8.2339  -27.3847  -21.1112 H   0  0  0  0  0  0  0  0  0  0  0  0
   -6.5383  -24.5966  -27.1936 H   0  0  0  0  0  0  0  0  0  0  0  0
   -4.2943  -26.1231  -30.8888 H   0  0  0  0  0  0  0  0  0  0  0  0
   -5.9928  -25.9910  -31.3171 H   0  0  0  0  0  0  0  0  0  0  0  0
   -2.8717  -27.6969  -32.4854 H   0  0  0  0  0  0  0  0  0  0  0  0
   -3.3524  -29.2223  -34.3975 H   0  0  0  0  0  0  0  0  0  0  0  0
   -7.8818  -27.5981  -32.2256 H   0  0  0  0  0  0  0  0  0  0  0  0
   -9.1740  -28.8751  -33.8507 H   0  0  0  0  0  0  0  0  0  0  0  0
   -8.0472  -30.1942  -35.5499 H   0  0  0  0  0  0  0  0  0  0  0  0
   -5.6058  -30.2515  -35.6464 H   0  0  0  0  0  0  0  0  0  0  0  0
   -6.4505  -28.1276  -30.0200 H   0  0  0  0  0  0  0  0  0  0  0  0
   -3.0483  -29.8644  -27.4635 H   0  0  0  0  0  0  0  0  0  0  0  0
   -4.4463  -30.8299  -27.0069 H   0  0  0  0  0  0  0  0  0  0  0  0
    1.5549  -35.1351  -27.6117 H   0  0  0  0  0  0  0  0  0  0  0  0
    2.0831  -34.4483  -29.1566 H   0  0  0  0  0  0  0  0  0  0  0  0
    1.0006  -32.8967  -26.7398 H   0  0  0  0  0  0  0  0  0  0  0  0
    1.6971  -32.1326  -28.1787 H   0  0  0  0  0  0  0  0  0  0  0  0
   -0.0644  -33.1229  -29.6026 H   0  0  0  0  0  0  0  0  0  0  0  0
   -0.7380  -33.9822  -28.2220 H   0  0  0  0  0  0  0  0  0  0  0  0
   -1.4941  -31.9719  -27.1680 H   0  0  0  0  0  0  0  0  0  0  0  0
    5.2053  -35.1350  -27.4507 H   0  0  0  0  0  0  0  0  0  0  0  0
    3.8764  -36.0618  -27.1913 H   0  0  0  0  0  0  0  0  0  0  0  0
    3.9648  -33.2755  -28.0227 H   0  0  0  0  0  0  0  0  0  0  0  0
    3.4481  -33.9330  -26.4566 H   0  0  0  0  0  0  0  0  0  0  0  0
    1.4727  -28.9324  -29.5644 H   0  0  0  0  0  0  0  0  0  0  0  0
    1.1062  -27.6450  -31.5337 H   0  0  0  0  0  0  0  0  0  0  0  0
   -0.6378  -27.4659  -31.2127 H   0  0  0  0  0  0  0  0  0  0  0  0
    0.8469  -29.9360  -32.1718 H   0  0  0  0  0  0  0  0  0  0  0  0
   -0.6824  -29.2569  -32.7925 H   0  0  0  0  0  0  0  0  0  0  0  0
   -0.6618  -31.3267  -31.0376 H   0  0  0  0  0  0  0  0  0  0  0  0
   -1.9187  -30.0709  -30.9268 H   0  0  0  0  0  0  0  0  0  0  0  0
   -4.1630  -24.4444  -26.5686 H   0  0  0  0  0  0  0  0  0  0  0  0
   -2.6168  -23.9498  -27.2587 H   0  0  0  0  0  0  0  0  0  0  0  0
   -2.7365  -24.3287  -25.5289 H   0  0  0  0  0  0  0  0  0  0  0  0
   -0.7578  -25.4232  -27.4387 H   0  0  0  0  0  0  0  0  0  0  0  0
   -4.5456  -27.0151  -26.0428 H   0  0  0  0  0  0  0  0  0  0  0  0
   -3.2859  -26.7347  -24.8316 H   0  0  0  0  0  0  0  0  0  0  0  0
   -3.1192  -28.0579  -25.9858 H   0  0  0  0  0  0  0  0  0  0  0  0
   -3.1748  -26.2525  -27.8481 H   0  0  0  0  0  0  0  0  0  0  0  0
   -0.5016  -26.0033  -22.8842 H   0  0  0  0  0  0  0  0  0  0  0  0
    1.1205  -26.2034  -23.5694 H   0  0  0  0  0  0  0  0  0  0  0  0
    6.4809  -22.0713  -22.0630 H   0  0  0  0  0  0  0  0  0  0  0  0
    5.6330  -22.7931  -20.6814 H   0  0  0  0  0  0  0  0  0  0  0  0
    4.5627  -20.6048  -22.5405 H   0  0  0  0  0  0  0  0  0  0  0  0
    3.7017  -21.1909  -21.1080 H   0  0  0  0  0  0  0  0  0  0  0  0
    4.4861  -22.9407  -23.5108 H   0  0  0  0  0  0  0  0  0  0  0  0
    3.6668  -23.4919  -22.0593 H   0  0  0  0  0  0  0  0  0  0  0  0
    1.8232  -21.8435  -22.5167 H   0  0  0  0  0  0  0  0  0  0  0  0
    7.5247  -22.0522  -19.2937 H   0  0  0  0  0  0  0  0  0  0  0  0
    7.9615  -20.4734  -19.1661 H   0  0  0  0  0  0  0  0  0  0  0  0
    6.4405  -19.8419  -20.8592 H   0  0  0  0  0  0  0  0  0  0  0  0
    5.6683  -20.6402  -19.4700 H   0  0  0  0  0  0  0  0  0  0  0  0
   -1.2268  -20.5335  -25.6673 H   0  0  0  0  0  0  0  0  0  0  0  0
   -0.2685  -21.4822  -26.8070 H   0  0  0  0  0  0  0  0  0  0  0  0
   -0.9033  -18.4861  -26.8691 H   0  0  0  0  0  0  0  0  0  0  0  0
   -0.2494  -19.3134  -28.2781 H   0  0  0  0  0  0  0  0  0  0  0  0
    1.8089  -19.8506  -27.1295 H   0  0  0  0  0  0  0  0  0  0  0  0
    1.4881  -18.1282  -27.0833 H   0  0  0  0  0  0  0  0  0  0  0  0
    2.4207  -18.6752  -25.0013 H   0  0  0  0  0  0  0  0  0  0  0  0
   -1.5849  -20.8650  -29.4197 H   0  0  0  0  0  0  0  0  0  0  0  0
   -2.8410  -21.9010  -29.1974 H   0  0  0  0  0  0  0  0  0  0  0  0
   -2.8825  -21.6335  -26.9348 H   0  0  0  0  0  0  0  0  0  0  0  0
   -2.8307  -20.0549  -27.7007 H   0  0  0  0  0  0  0  0  0  0  0  0
    1.3212  -16.6976  -22.1087 H   0  0  0  0  0  0  0  0  0  0  0  0
    1.4855  -14.9591  -22.2732 H   0  0  0  0  0  0  0  0  0  0  0  0
   -1.0002  -16.3416  -21.1231 H   0  0  0  0  0  0  0  0  0  0  0  0
   -0.6427  -14.6066  -21.0744 H   0  0  0  0  0  0  0  0  0  0  0  0
    1.2856  -15.0571  -19.5486 H   0  0  0  0  0  0  0  0  0  0  0  0
    0.9988  -16.8066  -19.6873 H   0  0  0  0  0  0  0  0  0  0  0  0
    0.9856  -16.5589  -15.9211 H   0  0  0  0  0  0  0  0  0  0  0  0
    1.6953  -16.5064  -17.4407 H   0  0  0  0  0  0  0  0  0  0  0  0
   -1.1789  -16.0715  -15.6543 H   0  0  0  0  0  0  0  0  0  0  0  0
   -2.1040  -15.5546  -16.9568 H   0  0  0  0  0  0  0  0  0  0  0  0
   -1.0071  -16.1841  -23.4865 H   0  0  0  0  0  0  0  0  0  0  0  0
   -2.5845  -11.5973  -24.7134 H   0  0  0  0  0  0  0  0  0  0  0  0
   -3.3356  -12.7829  -25.7804 H   0  0  0  0  0  0  0  0  0  0  0  0
   -4.4180  -11.9986  -23.0357 H   0  0  0  0  0  0  0  0  0  0  0  0
   -5.2029  -13.1001  -24.1757 H   0  0  0  0  0  0  0  0  0  0  0  0
   -4.7288  -10.1224  -24.6574 H   0  0  0  0  0  0  0  0  0  0  0  0
   -5.4672  -11.2605  -25.8208 H   0  0  0  0  0  0  0  0  0  0  0  0
   -8.6611  -10.7926  -22.9826 H   0  0  0  0  0  0  0  0  0  0  0  0
   -9.2842   -9.4510  -23.7759 H   0  0  0  0  0  0  0  0  0  0  0  0
   -6.6121   -9.0547  -25.8884 H   0  0  0  0  0  0  0  0  0  0  0  0
   -8.1238   -8.4754  -25.4437 H   0  0  0  0  0  0  0  0  0  0  0  0
   -2.1638  -13.2901  -23.0145 H   0  0  0  0  0  0  0  0  0  0  0  0
   -5.3427  -16.5031  -24.8611 H   0  0  0  0  0  0  0  0  0  0  0  0
   -5.0247  -18.3340  -26.3482 H   0  0  0  0  0  0  0  0  0  0  0  0
   -3.3472  -18.5982  -25.7857 H   0  0  0  0  0  0  0  0  0  0  0  0
   -4.3991  -16.3379  -27.5321 H   0  0  0  0  0  0  0  0  0  0  0  0
   -2.9522  -17.3499  -27.7894 H   0  0  0  0  0  0  0  0  0  0  0  0
   -2.7603  -14.8855  -26.6566 H   0  0  0  0  0  0  0  0  0  0  0  0
   -1.7296  -16.2165  -26.0772 H   0  0  0  0  0  0  0  0  0  0  0  0
   -8.6530  -17.9925  -19.8354 H   0  0  0  0  0  0  0  0  0  0  0  0
   -6.9595  -17.7381  -19.4128 H   0  0  0  0  0  0  0  0  0  0  0  0
   -7.6101  -19.3782  -19.5457 H   0  0  0  0  0  0  0  0  0  0  0  0
   -5.1857  -18.0887  -21.0885 H   0  0  0  0  0  0  0  0  0  0  0  0
   -9.2752  -18.9830  -22.1345 H   0  0  0  0  0  0  0  0  0  0  0  0
   -8.1837  -20.3500  -21.9366 H   0  0  0  0  0  0  0  0  0  0  0  0
   -8.0319  -19.2814  -23.3438 H   0  0  0  0  0  0  0  0  0  0  0  0
   -7.4489  -17.3704  -21.8266 H   0  0  0  0  0  0  0  0  0  0  0  0
   -1.6561  -23.9186  -19.1171 H   0  0  0  0  0  0  0  0  0  0  0  0
   -1.8396  -23.3643  -17.4453 H   0  0  0  0  0  0  0  0  0  0  0  0
   -4.3146  -23.7134  -17.5931 H   0  0  0  0  0  0  0  0  0  0  0  0
   -4.1301  -24.2980  -19.2555 H   0  0  0  0  0  0  0  0  0  0  0  0
   -3.1199  -22.0409  -19.8559 H   0  0  0  0  0  0  0  0  0  0  0  0
   -3.5126  -21.4680  -18.2342 H   0  0  0  0  0  0  0  0  0  0  0  0
   -5.5439  -22.5055  -20.2831 H   0  0  0  0  0  0  0  0  0  0  0  0
   -0.6784  -26.8037  -17.1812 H   0  0  0  0  0  0  0  0  0  0  0  0
   -0.2022  -25.7175  -18.3173 H   0  0  0  0  0  0  0  0  0  0  0  0
   -2.6952  -25.6371  -16.8028 H   0  0  0  0  0  0  0  0  0  0  0  0
   -2.4873  -26.1813  -18.4809 H   0  0  0  0  0  0  0  0  0  0  0  0
  -12.0300  -21.2355  -19.1800 H   0  0  0  0  0  0  0  0  0  0  0  0
  -11.0833  -20.2283  -18.0795 H   0  0  0  0  0  0  0  0  0  0  0  0
  -11.5930  -21.8580  -17.5813 H   0  0  0  0  0  0  0  0  0  0  0  0
   -8.6619  -20.8991  -17.5658 H   0  0  0  0  0  0  0  0  0  0  0  0
  -10.9648  -23.0237  -20.5609 H   0  0  0  0  0  0  0  0  0  0  0  0
  -10.6310  -23.9148  -19.0729 H   0  0  0  0  0  0  0  0  0  0  0  0
   -9.3281  -23.5699  -20.2248 H   0  0  0  0  0  0  0  0  0  0  0  0
   -9.6526  -21.1235  -19.8210 H   0  0  0  0  0  0  0  0  0  0  0  0
  -10.5121  -22.2371  -13.1290 H   0  0  0  0  0  0  0  0  0  0  0  0
  -11.6109  -22.4034  -14.4725 H   0  0  0  0  0  0  0  0  0  0  0  0
  -12.7199  -20.2978  -15.4079 H   0  0  0  0  0  0  0  0  0  0  0  0
  -13.8505  -18.2581  -14.7995 H   0  0  0  0  0  0  0  0  0  0  0  0
  -13.0855  -16.5508  -11.8158 H   0  0  0  0  0  0  0  0  0  0  0  0
  -11.8561  -18.2425  -11.0928 H   0  0  0  0  0  0  0  0  0  0  0  0
  -10.7323  -20.2949  -11.6775 H   0  0  0  0  0  0  0  0  0  0  0  0
  -10.1437  -20.8024  -15.7949 H   0  0  0  0  0  0  0  0  0  0  0  0
   -7.3614  -19.9010  -11.9529 H   0  0  0  0  0  0  0  0  0  0  0  0
   -5.6818  -21.1304  -10.8816 H   0  0  0  0  0  0  0  0  0  0  0  0
   -4.9132  -21.6375  -12.4040 H   0  0  0  0  0  0  0  0  0  0  0  0
   -7.3543  -22.8011  -11.0624 H   0  0  0  0  0  0  0  0  0  0  0  0
   -6.0392  -23.6451  -11.9234 H   0  0  0  0  0  0  0  0  0  0  0  0
   -8.4368  -23.1905  -13.0915 H   0  0  0  0  0  0  0  0  0  0  0  0
   -6.9441  -23.1033  -14.0561 H   0  0  0  0  0  0  0  0  0  0  0  0
 26  2  1  0  0  0  0 
 31  3  1  0  0  0  0 
 42  4  1  0  0  0  0 
 47  5  1  0  0  0  0 
 54  6  1  0  0  0  0 
 62  7  1  0  0  0  0 
 71  8  1  0  0  0  0 
 81  9  1  0  0  0  0 
 91 10  1  0  0  0  0 
104 11  1  0  0  0  0 
107 12  1  0  0  0  0 
115 13  1  0  0  0  0 
121 14  1  0  0  0  0 
127 15  1  0  0  0  0 
130 16  1  0  0  0  0 
138 17  1  0  0  0  0 
146 18  1  0  0  0  0 
156 19  1  0  0  0  0 
166 20  1  0  0  0  0 
172 21  1  0  0  0  0 
178 22  1  0  0  0  0 
186 23  1  0  0  0  0 
192 24  1  0  0  0  0 
203 25  1  0  0  0  0 
 29  1  1  0  0  0  0 
 29 27  1  0  0  0  0 
 27 28  1  0  0  0  0 
 29 26  1  0  0  0  0 
 26 30  2  0  0  0  0 
 40  2  1  0  0  0  0 
 40 32  1  0  0  0  0 
 32 33  1  0  0  0  0 
 33 34  2  0  0  0  0 
 34 35  1  0  0  0  0 
 35 36  2  0  0  0  0 
 36 37  1  0  0  0  0 
 36 38  1  0  0  0  0 
 38 39  2  0  0  0  0 
 33 39  1  0  0  0  0 
 40 31  1  0  0  0  0 
 31 41  2  0  0  0  0 
 45  3  1  0  0  0  0 
 45 43  1  0  0  0  0 
 43 44  1  0  0  0  0 
 45 42  1  0  0  0  0 
 42 46  2  0  0  0  0 
 51 52  1  0  0  0  0 
 52 48  1  0  0  0  0 
 48 49  1  0  0  0  0 
 50 49  1  0  0  0  0 
 50  4  1  0  0  0  0 
 50 47  1  0  0  0  0 
 47 53  2  0  0  0  0 
 60  5  1  0  0  0  0 
 60 55  1  0  0  0  0 
 55 56  1  0  0  0  0 
 56 57  1  0  0  0  0 
 57 58  1  0  0  0  0 
 57 59  2  0  0  0  0 
 60 54  1  0  0  0  0 
 54 61  2  0  0  0  0 
 69  6  1  0  0  0  0 
 69 63  1  0  0  0  0 
 63 64  1  0  0  0  0 
 64 65  2  0  0  0  0 
 65 66  1  0  0  0  0 
 66 67  2  0  0  0  0 
 67 68  1  0  0  0  0 
 64 68  1  0  0  0  0 
 69 62  1  0  0  0  0 
 62 70  2  0  0  0  0 
 79  7  1  0  0  0  0 
 79 72  1  0  0  0  0 
 72 73  1  0  0  0  0 
 73 74  2  0  0  0  0 
 74 75  1  0  0  0  0 
 75 76  2  0  0  0  0 
 76 77  1  0  0  0  0 
 77 78  2  0  0  0  0 
 73 78  1  0  0  0  0 
 79 71  1  0  0  0  0 
 71 80  2  0  0  0  0 
 89  8  1  0  0  0  0 
 89 82  1  0  0  0  0 
 82 83  1  0  0  0  0 
 83 84  1  0  0  0  0 
 84 85  1  0  0  0  0 
 85 86  2  0  0  0  0 
 86 87  1  0  0  0  0 
 86 88  1  0  0  0  0 
 89 81  1  0  0  0  0 
 81 90  2  0  0  0  0 
102  9  1  0  0  0  0 
102 92  1  0  0  0  0 
 92 93  1  0  0  0  0 
 93 94  2  0  0  0  0 
 94 95  1  0  0  0  0 
 95 96  1  0  0  0  0 
 96 97  1  0  0  0  0 
 93 97  1  0  0  0  0 
 97 98  2  0  0  0  0 
 98 99  1  0  0  0  0 
 99100  2  0  0  0  0 
100101  1  0  0  0  0 
 96101  2  0  0  0  0 
102 91  1  0  0  0  0 
 91103  2  0  0  0  0 
 10105  1  0  0  0  0 
105104  1  0  0  0  0 
104106  2  0  0  0  0 
112113  1  0  0  0  0 
113108  1  0  0  0  0 
108109  1  0  0  0  0 
109110  1  0  0  0  0 
111110  1  0  0  0  0 
111 11  1  0  0  0  0 
111107  1  0  0  0  0 
107114  2  0  0  0  0 
120115  2  0  0  0  0 
116115  1  0  0  0  0 
116117  1  0  0  0  0 
117118  1  0  0  0  0 
118119  1  0  0  0  0 
119 12  1  0  0  0  0 
116 12  1  0  0  0  0 
124125  1  0  0  0  0 
125122  1  0  0  0  0 
123125  1  0  0  0  0 
123 13  1  0  0  0  0 
123121  1  0  0  0  0 
121126  2  0  0  0  0 
 14128  1  0  0  0  0 
128127  1  0  0  0  0 
127129  2  0  0  0  0 
135136  1  0  0  0  0 
136131  1  0  0  0  0 
131132  1  0  0  0  0 
132133  1  0  0  0  0 
134133  1  0  0  0  0 
134 15  1  0  0  0  0 
134130  1  0  0  0  0 
130137  2  0  0  0  0 
143144  1  0  0  0  0 
144139  1  0  0  0  0 
139140  1  0  0  0  0 
140141  1  0  0  0  0 
142141  1  0  0  0  0 
142 16  1  0  0  0  0 
142138  1  0  0  0  0 
138145  2  0  0  0  0 
154 17  1  0  0  0  0 
154147  1  0  0  0  0 
147148  1  0  0  0  0 
148149  1  0  0  0  0 
149150  1  0  0  0  0 
150151  2  0  0  0  0 
151152  1  0  0  0  0 
151153  1  0  0  0  0 
154146  1  0  0  0  0 
146155  2  0  0  0  0 
164 18  1  0  0  0  0 
164157  1  0  0  0  0 
157158  1  0  0  0  0 
158159  1  0  0  0  0 
159160  1  0  0  0  0 
160161  2  0  0  0  0 
161162  1  0  0  0  0 
161163  1  0  0  0  0 
164156  1  0  0  0  0 
156165  2  0  0  0  0 
171166  2  0  0  0  0 
167166  1  0  0  0  0 
167168  1  0  0  0  0 
168169  1  0  0  0  0 
169170  1  0  0  0  0 
170 19  1  0  0  0  0 
167 19  1  0  0  0  0 
175176  1  0  0  0  0 
176173  1  0  0  0  0 
174176  1  0  0  0  0 
174 20  1  0  0  0  0 
174172  1  0  0  0  0 
172177  2  0  0  0  0 
183184  1  0  0  0  0 
184179  1  0  0  0  0 
179180  1  0  0  0  0 
180181  1  0  0  0  0 
182181  1  0  0  0  0 
182 21  1  0  0  0  0 
182178  1  0  0  0  0 
178185  2  0  0  0  0 
189190  1  0  0  0  0 
190187  1  0  0  0  0 
188190  1  0  0  0  0 
188 22  1  0  0  0  0 
188186  1  0  0  0  0 
186191  2  0  0  0  0 
201 23  1  0  0  0  0 
201193  1  0  0  0  0 
193194  1  0  0  0  0 
194195  2  0  0  0  0 
195196  1  0  0  0  0 
196197  2  0  0  0  0 
197198  1  0  0  0  0 
197199  1  0  0  0  0 
199200  2  0  0  0  0 
194200  1  0  0  0  0 
201192  1  0  0  0  0 
192202  2  0  0  0  0 
208203  2  0  0  0  0 
204203  1  0  0  0  0 
204205  1  0  0  0  0 
205206  1  0  0  0  0 
206207  1  0  0  0  0 
207 24  1  0  0  0  0 
204 24  1  0  0  0  0 
209  1  1  0  0  0  0 
210  1  1  0  0  0  0 
211  2  1  0  0  0  0 
212  3  1  0  0  0  0 
213  4  1  0  0  0  0 
214  5  1  0  0  0  0 
215  6  1  0  0  0  0 
216  7  1  0  0  0  0 
217  8  1  0  0  0  0 
218  9  1  0  0  0  0 
219 10  1  0  0  0  0 
220 11  1  0  0  0  0 
221 13  1  0  0  0  0 
222 14  1  0  0  0  0 
223 15  1  0  0  0  0 
224 16  1  0  0  0  0 
225 17  1  0  0  0  0 
226 18  1  0  0  0  0 
227 20  1  0  0  0  0 
228 21  1  0  0  0  0 
229 22  1  0  0  0  0 
230 23  1  0  0  0  0 
231 25  1  0  0  0  0 
232 27  1  0  0  0  0 
233 27  1  0  0  0  0 
234 28  1  0  0  0  0 
 29235  1  0  0  0  0 
236 32  1  0  0  0  0 
237 32  1  0  0  0  0 
238 34  1  0  0  0  0 
239 35  1  0  0  0  0 
240 37  1  0  0  0  0 
241 38  1  0  0  0  0 
242 39  1  0  0  0  0 
 40243  1  0  0  0  0 
244 43  1  0  0  0  0 
245 43  1  0  0  0  0 
246 44  1  0  0  0  0 
 45247  1  0  0  0  0 
248 48  1  0  0  0  0 
249 48  1  0  0  0  0 
250 49  1  0  0  0  0 
251 49  1  0  0  0  0 
 50252  1  0  0  0  0 
253 51  1  0  0  0  0 
254 51  1  0  0  0  0 
255 51  1  0  0  0  0 
256 55  1  0  0  0  0 
257 55  1  0  0  0  0 
258 56  1  0  0  0  0 
259 56  1  0  0  0  0 
260 58  1  0  0  0  0 
 60261  1  0  0  0  0 
262 63  1  0  0  0  0 
263 63  1  0  0  0  0 
264 65  1  0  0  0  0 
265 67  1  0  0  0  0 
266 68  1  0  0  0  0 
 69267  1  0  0  0  0 
268 72  1  0  0  0  0 
269 72  1  0  0  0  0 
270 74  1  0  0  0  0 
271 75  1  0  0  0  0 
272 76  1  0  0  0  0 
273 77  1  0  0  0  0 
274 78  1  0  0  0  0 
 79275  1  0  0  0  0 
276 82  1  0  0  0  0 
277 82  1  0  0  0  0 
278 83  1  0  0  0  0 
279 83  1  0  0  0  0 
280 84  1  0  0  0  0 
281 84  1  0  0  0  0 
282 87  1  0  0  0  0 
283 87  1  0  0  0  0 
284 88  1  0  0  0  0 
285 88  1  0  0  0  0 
 89286  1  0  0  0  0 
287 92  1  0  0  0  0 
288 92  1  0  0  0  0 
289 94  1  0  0  0  0 
290 95  1  0  0  0  0 
291 98  1  0  0  0  0 
292 99  1  0  0  0  0 
293100  1  0  0  0  0 
294101  1  0  0  0  0 
102295  1  0  0  0  0 
296105  1  0  0  0  0 
297105  1  0  0  0  0 
298108  1  0  0  0  0 
299108  1  0  0  0  0 
300109  1  0  0  0  0 
301109  1  0  0  0  0 
302110  1  0  0  0  0 
303110  1  0  0  0  0 
111304  1  0  0  0  0 
305112  1  0  0  0  0 
306112  1  0  0  0  0 
307113  1  0  0  0  0 
308113  1  0  0  0  0 
116309  1  0  0  0  0 
310117  1  0  0  0  0 
311117  1  0  0  0  0 
312118  1  0  0  0  0 
313118  1  0  0  0  0 
314119  1  0  0  0  0 
315119  1  0  0  0  0 
316122  1  0  0  0  0 
317122  1  0  0  0  0 
318122  1  0  0  0  0 
123319  1  0  0  0  0 
320124  1  0  0  0  0 
321124  1  0  0  0  0 
322124  1  0  0  0  0 
323125  1  0  0  0  0 
324128  1  0  0  0  0 
325128  1  0  0  0  0 
326131  1  0  0  0  0 
327131  1  0  0  0  0 
328132  1  0  0  0  0 
329132  1  0  0  0  0 
330133  1  0  0  0  0 
331133  1  0  0  0  0 
134332  1  0  0  0  0 
333135  1  0  0  0  0 
334135  1  0  0  0  0 
335136  1  0  0  0  0 
336136  1  0  0  0  0 
337139  1  0  0  0  0 
338139  1  0  0  0  0 
339140  1  0  0  0  0 
340140  1  0  0  0  0 
341141  1  0  0  0  0 
342141  1  0  0  0  0 
142343  1  0  0  0  0 
344143  1  0  0  0  0 
345143  1  0  0  0  0 
346144  1  0  0  0  0 
347144  1  0  0  0  0 
348147  1  0  0  0  0 
349147  1  0  0  0  0 
350148  1  0  0  0  0 
351148  1  0  0  0  0 
352149  1  0  0  0  0 
353149  1  0  0  0  0 
354152  1  0  0  0  0 
355152  1  0  0  0  0 
356153  1  0  0  0  0 
357153  1  0  0  0  0 
154358  1  0  0  0  0 
359157  1  0  0  0  0 
360157  1  0  0  0  0 
361158  1  0  0  0  0 
362158  1  0  0  0  0 
363159  1  0  0  0  0 
364159  1  0  0  0  0 
365162  1  0  0  0  0 
366162  1  0  0  0  0 
367163  1  0  0  0  0 
368163  1  0  0  0  0 
164369  1  0  0  0  0 
167370  1  0  0  0  0 
371168  1  0  0  0  0 
372168  1  0  0  0  0 
373169  1  0  0  0  0 
374169  1  0  0  0  0 
375170  1  0  0  0  0 
376170  1  0  0  0  0 
377173  1  0  0  0  0 
378173  1  0  0  0  0 
379173  1  0  0  0  0 
174380  1  0  0  0  0 
381175  1  0  0  0  0 
382175  1  0  0  0  0 
383175  1  0  0  0  0 
384176  1  0  0  0  0 
385179  1  0  0  0  0 
386179  1  0  0  0  0 
387180  1  0  0  0  0 
388180  1  0  0  0  0 
389181  1  0  0  0  0 
390181  1  0  0  0  0 
182391  1  0  0  0  0 
392183  1  0  0  0  0 
393183  1  0  0  0  0 
394184  1  0  0  0  0 
395184  1  0  0  0  0 
396187  1  0  0  0  0 
397187  1  0  0  0  0 
398187  1  0  0  0  0 
188399  1  0  0  0  0 
400189  1  0  0  0  0 
401189  1  0  0  0  0 
402189  1  0  0  0  0 
403190  1  0  0  0  0 
404193  1  0  0  0  0 
405193  1  0  0  0  0 
406195  1  0  0  0  0 
407196  1  0  0  0  0 
408198  1  0  0  0  0 
409199  1  0  0  0  0 
410200  1  0  0  0  0 
201411  1  0  0  0  0 
204412  1  0  0  0  0 
413205  1  0  0  0  0 
414205  1  0  0  0  0 
415206  1  0  0  0  0 
416206  1  0  0  0  0 
417207  1  0  0  0  0 
418207  1  0  0  0  0 
M  END
> <cdk:Title>
tetracosactide

> <Conformer>
1

> <SuperDrugID>
SD003606

$$$$
