plafibride
  CDK     0628171801

 46 47  0  0  0  0  0  0  0  0999 V2000
   -1.0684   -1.3656   -1.0730 O   0  0  0  0  0  0  0  0  0  0  0  0
   -0.6588   -0.9341   -2.4105 C   0  0  1  0  0  0  0  0  0  0  0  0
   -0.2955   -1.0277    0.0128 C   0  0  0  0  0  0  0  0  0  0  0  0
   -1.7225   -1.3828   -3.3651 C   0  0  0  0  0  0  0  0  0  0  0  0
   -0.5683    0.6251   -2.5063 C   0  0  0  0  0  0  0  0  0  0  0  0
    0.6950   -1.6040   -2.8118 C   0  0  0  0  0  0  0  0  0  0  0  0
   -0.5468    0.1705    0.7142 C   0  0  0  0  0  0  0  0  0  0  0  0
    0.7205   -1.8939    0.4705 C   0  0  0  0  0  0  0  0  0  0  0  0
   -1.5799   -1.1342   -4.7049 N   0  0  0  0  0  0  0  0  0  0  0  0
   -2.7396   -1.9787   -2.9315 O   0  0  0  0  0  0  0  0  0  0  0  0
    0.2483    0.5333    1.8168 C   0  0  0  0  0  0  0  0  0  0  0  0
    1.5161   -1.5385    1.5762 C   0  0  0  0  0  0  0  0  0  0  0  0
   -2.4560   -1.4255   -5.7008 C   0  0  0  0  0  0  0  0  0  0  0  0
    1.2799   -0.3234    2.2513 C   0  0  0  0  0  0  0  0  0  0  0  0
   -2.0374   -1.1988   -6.9742 N   0  0  0  0  0  0  0  0  0  0  0  0
   -3.5927   -1.9044   -5.4693 O   0  0  0  0  0  0  0  0  0  0  0  0
    2.2173    0.0961    3.5969 Cl  0  0  0  0  0  0  0  0  0  0  0  0
   -2.7895   -1.5126   -8.1474 C   0  0  1  0  0  0  0  0  0  0  0  0
   -3.2662   -2.9280   -8.1373 N   0  0  1  0  0  0  0  0  0  0  0  0
   -4.4028   -3.2340   -9.0569 C   0  0  1  0  0  0  0  0  0  0  0  0
   -2.1883   -3.9595   -8.2123 C   0  0  2  0  0  0  0  0  0  0  0  0
   -4.9566   -4.6428   -8.7215 C   0  0  1  0  0  0  0  0  0  0  0  0
   -2.7954   -5.3443   -7.8856 C   0  0  2  0  0  0  0  0  0  0  0  0
   -3.9108   -5.6381   -8.7527 O   0  0  0  0  0  0  0  0  0  0  0  0
   -0.3326    0.9571   -3.5215 H   0  0  0  0  0  0  0  0  0  0  0  0
   -1.5188    1.0772   -2.2056 H   0  0  0  0  0  0  0  0  0  0  0  0
    0.2167    1.0085   -1.8518 H   0  0  0  0  0  0  0  0  0  0  0  0
    0.6256   -2.6886   -2.7009 H   0  0  0  0  0  0  0  0  0  0  0  0
    0.9720   -1.3791   -3.8438 H   0  0  0  0  0  0  0  0  0  0  0  0
    1.5049   -1.2449   -2.1761 H   0  0  0  0  0  0  0  0  0  0  0  0
   -1.3047    0.7875    0.4152 H   0  0  0  0  0  0  0  0  0  0  0  0
    0.8878   -2.7825   -0.0063 H   0  0  0  0  0  0  0  0  0  0  0  0
   -0.7497   -0.7114   -4.9807 H   0  0  0  0  0  0  0  0  0  0  0  0
    0.0732    1.4222    2.2945 H   0  0  0  0  0  0  0  0  0  0  0  0
    2.2665   -2.1656    1.8810 H   0  0  0  0  0  0  0  0  0  0  0  0
   -1.1612   -0.7976   -7.0939 H   0  0  0  0  0  0  0  0  0  0  0  0
   -3.6354   -0.8218   -8.1789 H   0  0  0  0  0  0  0  0  0  0  0  0
   -2.1652   -1.3263   -9.0244 H   0  0  0  0  0  0  0  0  0  0  0  0
   -5.2110   -2.5066   -8.9330 H   0  0  0  0  0  0  0  0  0  0  0  0
   -4.0713   -3.2088  -10.1003 H   0  0  0  0  0  0  0  0  0  0  0  0
   -1.3940   -3.7555   -7.4898 H   0  0  0  0  0  0  0  0  0  0  0  0
   -1.7481   -3.9790   -9.2143 H   0  0  0  0  0  0  0  0  0  0  0  0
   -5.4372   -4.6289   -7.7387 H   0  0  0  0  0  0  0  0  0  0  0  0
   -5.7125   -4.9220   -9.4586 H   0  0  0  0  0  0  0  0  0  0  0  0
   -3.1080   -5.3764   -6.8376 H   0  0  0  0  0  0  0  0  0  0  0  0
   -2.0330   -6.1118   -8.0319 H   0  0  0  0  0  0  0  0  0  0  0  0
  1  2  1  0  0  0  0 
  1  3  1  0  0  0  0 
  2  4  1  0  0  0  0 
  2  5  1  0  0  0  0 
  2  6  1  0  0  0  0 
  3  7  2  0  0  0  0 
  3  8  1  0  0  0  0 
  4  9  1  0  0  0  0 
  4 10  2  0  0  0  0 
  7 11  1  0  0  0  0 
  8 12  2  0  0  0  0 
  9 13  1  0  0  0  0 
 11 14  2  0  0  0  0 
 12 14  1  0  0  0  0 
 13 15  1  0  0  0  0 
 13 16  2  0  0  0  0 
 14 17  1  0  0  0  0 
 15 18  1  0  0  0  0 
 18 19  1  0  0  0  0 
 19 20  1  0  0  0  0 
 19 21  1  0  0  0  0 
 20 22  1  0  0  0  0 
 21 23  1  0  0  0  0 
 22 24  1  0  0  0  0 
 23 24  1  0  0  0  0 
  5 25  1  0  0  0  0 
  5 26  1  0  0  0  0 
  5 27  1  0  0  0  0 
  6 28  1  0  0  0  0 
  6 29  1  0  0  0  0 
  6 30  1  0  0  0  0 
  7 31  1  0  0  0  0 
  8 32  1  0  0  0  0 
  9 33  1  0  0  0  0 
 11 34  1  0  0  0  0 
 12 35  1  0  0  0  0 
 15 36  1  0  0  0  0 
 18 37  1  0  0  0  0 
 18 38  1  0  0  0  0 
 20 39  1  0  0  0  0 
 20 40  1  0  0  0  0 
 21 41  1  0  0  0  0 
 21 42  1  0  0  0  0 
 22 43  1  0  0  0  0 
 22 44  1  0  0  0  0 
 23 45  1  0  0  0  0 
 23 46  1  0  0  0  0 
M  END
> <cdk:Title>
plafibride

> <Conformer>
1

> <SuperDrugID>
SD001994

$$$$
