thiabendazole
  CDK     0628171801

 21 23  0  0  0  0  0  0  0  0999 V2000
   -0.5170    1.0661    0.3505 C   0  0  0  0  0  0  0  0  0  0  0  0
   -0.2393   -0.2521    0.2361 N   0  0  0  0  0  0  0  0  0  0  0  0
    0.5964    1.7386    0.7022 N   0  0  0  0  0  0  0  0  0  0  0  0
   -1.7755    1.6486    0.1125 C   0  0  0  0  0  0  0  0  0  0  0  0
    1.0693   -0.3902    0.4986 C   0  0  0  0  0  0  0  0  0  0  0  0
    1.5994    0.8615    0.7920 C   0  0  0  0  0  0  0  0  0  0  0  0
   -2.0137    3.0312    0.1934 C   0  0  0  0  0  0  0  0  0  0  0  0
   -2.8548    0.8875   -0.2281 N   0  0  0  0  0  0  0  0  0  0  0  0
    1.8841   -1.5355    0.4937 C   0  0  0  0  0  0  0  0  0  0  0  0
    2.9582    1.0342    1.0971 C   0  0  0  0  0  0  0  0  0  0  0  0
   -3.7068    3.2478   -0.2031 S   0  0  0  0  0  0  0  0  0  0  0  0
   -4.0185    1.5381   -0.4439 C   0  0  0  0  0  0  0  0  0  0  0  0
    3.2569   -1.3812    0.7852 C   0  0  0  0  0  0  0  0  0  0  0  0
    3.7897   -0.1058    1.0852 C   0  0  0  0  0  0  0  0  0  0  0  0
    0.6603    2.6937    0.8524 H   0  0  0  0  0  0  0  0  0  0  0  0
   -1.3481    3.7710    0.4298 H   0  0  0  0  0  0  0  0  0  0  0  0
    1.4920   -2.4541    0.2773 H   0  0  0  0  0  0  0  0  0  0  0  0
    3.3322    1.9603    1.3155 H   0  0  0  0  0  0  0  0  0  0  0  0
   -4.9128    1.1150   -0.6940 H   0  0  0  0  0  0  0  0  0  0  0  0
    3.8719   -2.1973    0.7763 H   0  0  0  0  0  0  0  0  0  0  0  0
    4.7843   -0.0061    1.2932 H   0  0  0  0  0  0  0  0  0  0  0  0
  1  2  2  0  0  0  0 
  1  3  1  0  0  0  0 
  1  4  1  0  0  0  0 
  2  5  1  0  0  0  0 
  3  6  1  0  0  0  0 
  4  7  2  0  0  0  0 
  4  8  1  0  0  0  0 
  5  6  1  0  0  0  0 
  5  9  2  0  0  0  0 
  6 10  2  0  0  0  0 
  7 11  1  0  0  0  0 
  8 12  2  0  0  0  0 
  9 13  1  0  0  0  0 
 10 14  1  0  0  0  0 
 11 12  1  0  0  0  0 
 13 14  2  0  0  0  0 
  3 15  1  0  0  0  0 
  7 16  1  0  0  0  0 
  9 17  1  0  0  0  0 
 10 18  1  0  0  0  0 
 12 19  1  0  0  0  0 
 13 20  1  0  0  0  0 
 14 21  1  0  0  0  0 
M  END
> <cdk:Title>
thiabendazole

> <Conformer>
1

> <SuperDrugID>
SD002359

$$$$
