timiperone
  CDK     0628171801

 52 55  0  0  0  0  0  0  0  0999 V2000
   -3.7961  -10.0757    6.3214 S   0  0  0  0  0  0  0  0  0  0  0  0
   -3.0660  -10.4568    7.8143 C   0  0  0  0  0  0  0  0  0  0  0  0
   -2.5259   -9.6464    8.7323 N   0  0  0  0  0  0  0  0  0  0  0  0
   -2.9008  -11.7182    8.1409 N   0  0  0  0  0  0  0  0  0  0  0  0
   -1.8828  -10.4594    9.6093 C   0  0  0  0  0  0  0  0  0  0  0  0
   -2.6197   -8.1971    8.8265 C   0  0  2  0  0  0  0  0  0  0  0  0
   -2.1542  -11.7735    9.2411 C   0  0  0  0  0  0  0  0  0  0  0  0
   -1.0691  -10.2092   10.7367 C   0  0  0  0  0  0  0  0  0  0  0  0
   -4.0917   -7.6863    8.9287 C   0  0  2  0  0  0  0  0  0  0  0  0
   -1.8050   -7.4833    7.7067 C   0  0  1  0  0  0  0  0  0  0  0  0
   -1.6854  -12.8760    9.9732 C   0  0  0  0  0  0  0  0  0  0  0  0
   -0.5741  -11.3004   11.4819 C   0  0  0  0  0  0  0  0  0  0  0  0
   -4.1780   -6.1361    8.8760 C   0  0  1  0  0  0  0  0  0  0  0  0
   -1.9933   -5.9438    7.7541 C   0  0  1  0  0  0  0  0  0  0  0  0
   -0.8887  -12.6271   11.1100 C   0  0  0  0  0  0  0  0  0  0  0  0
   -3.4368   -5.5415    7.7145 N   0  0  1  0  0  0  0  0  0  0  0  0
   -4.0717   -5.7052    6.3606 C   0  0  2  0  0  0  0  0  0  0  0  0
   -5.3794   -4.9007    6.1297 C   0  0  1  0  0  0  0  0  0  0  0  0
   -5.1760   -3.3606    6.0982 C   0  0  2  0  0  0  0  0  0  0  0  0
   -6.4641   -2.6280    5.9486 C   0  0  0  0  0  0  0  0  0  0  0  0
   -6.6306   -1.9768    4.8884 O   0  0  0  0  0  0  0  0  0  0  0  0
   -7.5163   -2.6606    6.9141 C   0  0  0  0  0  0  0  0  0  0  0  0
   -8.8662   -2.5014    6.5075 C   0  0  0  0  0  0  0  0  0  0  0  0
   -7.2620   -2.8671    8.2942 C   0  0  0  0  0  0  0  0  0  0  0  0
   -9.9205   -2.5735    7.4365 C   0  0  0  0  0  0  0  0  0  0  0  0
   -8.3143   -2.9344    9.2258 C   0  0  0  0  0  0  0  0  0  0  0  0
   -9.6456   -2.7942    8.7972 C   0  0  0  0  0  0  0  0  0  0  0  0
  -10.6232   -2.8698    9.6593 F   0  0  0  0  0  0  0  0  0  0  0  0
   -3.2550  -12.4821    7.6570 H   0  0  0  0  0  0  0  0  0  0  0  0
   -2.1579   -7.8703    9.7629 H   0  0  0  0  0  0  0  0  0  0  0  0
   -0.8276   -9.2583   11.0156 H   0  0  0  0  0  0  0  0  0  0  0  0
   -4.5298   -8.0362    9.8673 H   0  0  0  0  0  0  0  0  0  0  0  0
   -4.7028   -8.0883    8.1250 H   0  0  0  0  0  0  0  0  0  0  0  0
   -0.7449   -7.7192    7.8303 H   0  0  0  0  0  0  0  0  0  0  0  0
   -2.1040   -7.8366    6.7217 H   0  0  0  0  0  0  0  0  0  0  0  0
   -1.9163  -13.8303    9.6919 H   0  0  0  0  0  0  0  0  0  0  0  0
    0.0168  -11.1286   12.2992 H   0  0  0  0  0  0  0  0  0  0  0  0
   -5.2252   -5.8336    8.8776 H   0  0  0  0  0  0  0  0  0  0  0  0
   -3.7527   -5.7375    9.7999 H   0  0  0  0  0  0  0  0  0  0  0  0
   -1.5396   -5.5583    8.6708 H   0  0  0  0  0  0  0  0  0  0  0  0
   -1.4463   -5.4860    6.9253 H   0  0  0  0  0  0  0  0  0  0  0  0
   -0.5367  -13.4090   11.6664 H   0  0  0  0  0  0  0  0  0  0  0  0
   -4.2842   -6.7594    6.1730 H   0  0  0  0  0  0  0  0  0  0  0  0
   -3.3691   -5.3880    5.5844 H   0  0  0  0  0  0  0  0  0  0  0  0
   -5.7935   -5.2055    5.1643 H   0  0  0  0  0  0  0  0  0  0  0  0
   -6.1136   -5.1750    6.8863 H   0  0  0  0  0  0  0  0  0  0  0  0
   -4.5204   -3.1284    5.2530 H   0  0  0  0  0  0  0  0  0  0  0  0
   -4.6610   -3.0192    6.9974 H   0  0  0  0  0  0  0  0  0  0  0  0
   -9.1026   -2.3458    5.5241 H   0  0  0  0  0  0  0  0  0  0  0  0
   -6.3091   -2.9697    8.6472 H   0  0  0  0  0  0  0  0  0  0  0  0
  -10.8867   -2.4685    7.1163 H   0  0  0  0  0  0  0  0  0  0  0  0
   -8.1046   -3.0860   10.2158 H   0  0  0  0  0  0  0  0  0  0  0  0
  1  2  2  0  0  0  0 
  2  3  1  0  0  0  0 
  2  4  1  0  0  0  0 
  3  5  1  0  0  0  0 
  3  6  1  0  0  0  0 
  4  7  1  0  0  0  0 
  5  7  1  0  0  0  0 
  5  8  2  0  0  0  0 
  6  9  1  0  0  0  0 
  6 10  1  0  0  0  0 
  7 11  2  0  0  0  0 
  8 12  1  0  0  0  0 
  9 13  1  0  0  0  0 
 10 14  1  0  0  0  0 
 11 15  1  0  0  0  0 
 12 15  2  0  0  0  0 
 13 16  1  0  0  0  0 
 14 16  1  0  0  0  0 
 16 17  1  0  0  0  0 
 17 18  1  0  0  0  0 
 18 19  1  0  0  0  0 
 19 20  1  0  0  0  0 
 20 21  2  0  0  0  0 
 20 22  1  0  0  0  0 
 22 23  2  0  0  0  0 
 22 24  1  0  0  0  0 
 23 25  1  0  0  0  0 
 24 26  2  0  0  0  0 
 25 27  2  0  0  0  0 
 26 27  1  0  0  0  0 
 27 28  1  0  0  0  0 
 29  4  1  0  0  0  0 
 30  6  1  0  0  0  0 
 31  8  1  0  0  0  0 
 32  9  1  0  0  0  0 
 33  9  1  0  0  0  0 
 34 10  1  0  0  0  0 
 35 10  1  0  0  0  0 
 36 11  1  0  0  0  0 
 37 12  1  0  0  0  0 
 38 13  1  0  0  0  0 
 39 13  1  0  0  0  0 
 40 14  1  0  0  0  0 
 41 14  1  0  0  0  0 
 42 15  1  0  0  0  0 
 43 17  1  0  0  0  0 
 44 17  1  0  0  0  0 
 45 18  1  0  0  0  0 
 46 18  1  0  0  0  0 
 47 19  1  0  0  0  0 
 48 19  1  0  0  0  0 
 49 23  1  0  0  0  0 
 50 24  1  0  0  0  0 
 51 25  1  0  0  0  0 
 52 26  1  0  0  0  0 
M  END
> <cdk:Title>
timiperone

> <Conformer>
1

> <SuperDrugID>
SD002401

$$$$
