mozavaptan
  CDK     0628171801

 61 64  0  0  0  0  0  0  0  0999 V2000
    6.1149   -1.5789    6.1662 C   0  0  0  0  0  0  0  0  0  0  0  0
    5.8433   -1.5327    7.3912 O   0  0  0  0  0  0  0  0  0  0  0  0
    5.7157   -2.6771    5.4063 N   0  0  0  0  0  0  0  0  0  0  0  0
    6.8682   -0.4661    5.7161 C   0  0  0  0  0  0  0  0  0  0  0  0
    5.8537   -2.7645    4.0338 C   0  0  0  0  0  0  0  0  0  0  0  0
    5.2092   -3.8747    6.0617 C   0  0  2  0  0  0  0  0  0  0  0  0
    8.1968   -0.3033    6.1706 C   0  0  0  0  0  0  0  0  0  0  0  0
    6.3256    0.5156    4.8619 C   0  0  0  0  0  0  0  0  0  0  0  0
    4.7318   -2.9888    3.1747 C   0  0  0  0  0  0  0  0  0  0  0  0
    7.1586   -2.7613    3.4813 C   0  0  0  0  0  0  0  0  0  0  0  0
    3.6672   -3.9368    6.0699 C   0  0  1  0  0  0  0  0  0  0  0  0
    8.9549    0.8224    5.7990 C   0  0  0  0  0  0  0  0  0  0  0  0
    7.0858    1.6461    4.4960 C   0  0  0  0  0  0  0  0  0  0  0  0
    3.3001   -2.9389    3.6570 C   0  0  1  0  0  0  0  0  0  0  0  0
    4.9771   -3.2800    1.8063 C   0  0  0  0  0  0  0  0  0  0  0  0
    7.3702   -3.0276    2.1177 C   0  0  0  0  0  0  0  0  0  0  0  0
    3.0521   -4.1159    4.6581 C   0  0  1  0  0  0  0  0  0  0  0  0
    8.3979    1.8373    4.9871 C   0  0  0  0  0  0  0  0  0  0  0  0
    2.8917   -1.5592    4.1314 N   0  0  1  0  0  0  0  0  0  0  0  0
    6.2799   -3.3132    1.2843 C   0  0  0  0  0  0  0  0  0  0  0  0
    9.0541    2.9920    4.6289 N   0  0  0  0  0  0  0  0  0  0  0  0
    3.0456   -0.4991    3.0811 C   0  0  0  0  0  0  0  0  0  0  0  0
    1.5106   -1.4566    4.7088 C   0  0  0  0  0  0  0  0  0  0  0  0
   10.0188    3.6864    5.3166 C   0  0  0  0  0  0  0  0  0  0  0  0
   10.4144    3.2929    6.4416 O   0  0  0  0  0  0  0  0  0  0  0  0
   10.6022    4.8836    4.7899 C   0  0  0  0  0  0  0  0  0  0  0  0
    9.8615    5.9214    4.1384 C   0  0  0  0  0  0  0  0  0  0  0  0
   12.0036    5.0564    4.9428 C   0  0  0  0  0  0  0  0  0  0  0  0
    8.3828    5.8700    3.9646 C   0  0  0  0  0  0  0  0  0  0  0  0
   10.5491    7.0639    3.6510 C   0  0  0  0  0  0  0  0  0  0  0  0
   12.6649    6.1951    4.4563 C   0  0  0  0  0  0  0  0  0  0  0  0
   11.9380    7.1993    3.8049 C   0  0  0  0  0  0  0  0  0  0  0  0
    5.5479   -3.9441    7.1009 H   0  0  0  0  0  0  0  0  0  0  0  0
    5.6052   -4.7772    5.5806 H   0  0  0  0  0  0  0  0  0  0  0  0
    8.6268   -1.0092    6.7761 H   0  0  0  0  0  0  0  0  0  0  0  0
    5.3706    0.4253    4.5199 H   0  0  0  0  0  0  0  0  0  0  0  0
    7.9733   -2.5982    4.0766 H   0  0  0  0  0  0  0  0  0  0  0  0
    3.3568   -4.7834    6.6917 H   0  0  0  0  0  0  0  0  0  0  0  0
    3.2819   -3.0312    6.5402 H   0  0  0  0  0  0  0  0  0  0  0  0
    9.9218    0.8842    6.1181 H   0  0  0  0  0  0  0  0  0  0  0  0
    6.6647    2.3435    3.8770 H   0  0  0  0  0  0  0  0  0  0  0  0
    2.6341   -3.1652    2.8161 H   0  0  0  0  0  0  0  0  0  0  0  0
    4.2030   -3.4763    1.1669 H   0  0  0  0  0  0  0  0  0  0  0  0
    8.3195   -3.0381    1.7352 H   0  0  0  0  0  0  0  0  0  0  0  0
    3.4299   -5.0501    4.2261 H   0  0  0  0  0  0  0  0  0  0  0  0
    1.9761   -4.2627    4.7768 H   0  0  0  0  0  0  0  0  0  0  0  0
    6.4333   -3.5467    0.3006 H   0  0  0  0  0  0  0  0  0  0  0  0
    8.7771    3.3819    3.7859 H   0  0  0  0  0  0  0  0  0  0  0  0
    4.0528   -0.4828    2.6669 H   0  0  0  0  0  0  0  0  0  0  0  0
    2.8674    0.4902    3.5086 H   0  0  0  0  0  0  0  0  0  0  0  0
    2.3433   -0.6539    2.2580 H   0  0  0  0  0  0  0  0  0  0  0  0
    1.3626   -2.1317    5.5475 H   0  0  0  0  0  0  0  0  0  0  0  0
    1.3343   -0.4521    5.0987 H   0  0  0  0  0  0  0  0  0  0  0  0
    0.7487   -1.6757    3.9569 H   0  0  0  0  0  0  0  0  0  0  0  0
   12.5706    4.3442    5.4108 H   0  0  0  0  0  0  0  0  0  0  0  0
    8.1367    5.2026    3.1368 H   0  0  0  0  0  0  0  0  0  0  0  0
    7.9555    6.8513    3.7429 H   0  0  0  0  0  0  0  0  0  0  0  0
    7.9022    5.5101    4.8768 H   0  0  0  0  0  0  0  0  0  0  0  0
   10.0473    7.8189    3.1757 H   0  0  0  0  0  0  0  0  0  0  0  0
   13.6749    6.2902    4.5775 H   0  0  0  0  0  0  0  0  0  0  0  0
   12.4221    8.0254    3.4448 H   0  0  0  0  0  0  0  0  0  0  0  0
  1  2  2  0  0  0  0 
  1  3  1  0  0  0  0 
  1  4  1  0  0  0  0 
  3  5  1  0  0  0  0 
  3  6  1  0  0  0  0 
  4  7  2  0  0  0  0 
  4  8  1  0  0  0  0 
  5  9  2  0  0  0  0 
  5 10  1  0  0  0  0 
  6 11  1  0  0  0  0 
  7 12  1  0  0  0  0 
  8 13  2  0  0  0  0 
 14  9  1  0  0  0  0 
  9 15  1  0  0  0  0 
 10 16  2  0  0  0  0 
 11 17  1  0  0  0  0 
 12 18  2  0  0  0  0 
 13 18  1  0  0  0  0 
 14 17  1  0  0  0  0 
 14 19  1  0  0  0  0 
 15 20  2  0  0  0  0 
 16 20  1  0  0  0  0 
 18 21  1  0  0  0  0 
 19 22  1  0  0  0  0 
 19 23  1  0  0  0  0 
 21 24  1  0  0  0  0 
 24 25  2  0  0  0  0 
 24 26  1  0  0  0  0 
 26 27  2  0  0  0  0 
 26 28  1  0  0  0  0 
 27 29  1  0  0  0  0 
 27 30  1  0  0  0  0 
 28 31  2  0  0  0  0 
 30 32  2  0  0  0  0 
 31 32  1  0  0  0  0 
  6 33  1  0  0  0  0 
  6 34  1  0  0  0  0 
  7 35  1  0  0  0  0 
  8 36  1  0  0  0  0 
 10 37  1  0  0  0  0 
 11 38  1  0  0  0  0 
 11 39  1  0  0  0  0 
 12 40  1  0  0  0  0 
 13 41  1  0  0  0  0 
 14 42  1  0  0  0  0 
 15 43  1  0  0  0  0 
 16 44  1  0  0  0  0 
 17 45  1  0  0  0  0 
 17 46  1  0  0  0  0 
 20 47  1  0  0  0  0 
 21 48  1  0  0  0  0 
 22 49  1  0  0  0  0 
 22 50  1  0  0  0  0 
 22 51  1  0  0  0  0 
 23 52  1  0  0  0  0 
 23 53  1  0  0  0  0 
 23 54  1  0  0  0  0 
 28 55  1  0  0  0  0 
 29 56  1  0  0  0  0 
 29 57  1  0  0  0  0 
 29 58  1  0  0  0  0 
 30 59  1  0  0  0  0 
 31 60  1  0  0  0  0 
 32 61  1  0  0  0  0 
M  END
> <cdk:Title>
mozavaptan

> <Conformer>
1

> <SuperDrugID>
SD003325

$$$$
