dimevamide
  CDK     0628171801

 46 47  0  0  0  0  0  0  0  0999 V2000
   -0.6265   -2.1373    1.0498 C   0  0  1  0  0  0  0  0  0  0  0  0
   -0.6346   -1.4323   -0.3770 C   0  0  2  0  0  0  0  0  0  0  0  0
   -1.3508   -3.4612    0.9253 C   0  0  0  0  0  0  0  0  0  0  0  0
    0.8445   -2.3404    1.4114 C   0  0  0  0  0  0  0  0  0  0  0  0
   -1.4489   -1.4425    2.1388 C   0  0  0  0  0  0  0  0  0  0  0  0
    0.0960   -0.0486   -0.5251 C   0  0  1  0  0  0  0  0  0  0  0  0
   -1.0360   -4.5608    1.6485 N   0  0  0  0  0  0  0  0  0  0  0  0
   -2.3490   -3.5971    0.1780 O   0  0  0  0  0  0  0  0  0  0  0  0
    1.5186   -1.5546    2.3882 C   0  0  0  0  0  0  0  0  0  0  0  0
    1.6287   -3.3154    0.7325 C   0  0  0  0  0  0  0  0  0  0  0  0
   -2.3231   -0.3437    1.9062 C   0  0  0  0  0  0  0  0  0  0  0  0
   -1.4003   -1.9269    3.4781 C   0  0  0  0  0  0  0  0  0  0  0  0
    1.6012   -0.1561   -0.4729 N   0  0  1  0  0  0  0  0  0  0  0  0
   -0.4090    0.7198   -1.7816 C   0  0  0  0  0  0  0  0  0  0  0  0
    2.8656   -1.7881    2.7278 C   0  0  0  0  0  0  0  0  0  0  0  0
    2.9761   -3.5500    1.0626 C   0  0  0  0  0  0  0  0  0  0  0  0
   -3.0664    0.2526    2.9433 C   0  0  0  0  0  0  0  0  0  0  0  0
   -2.1452   -1.3418    4.5176 C   0  0  0  0  0  0  0  0  0  0  0  0
    2.3021   -0.6666   -1.6902 C   0  0  0  0  0  0  0  0  0  0  0  0
    2.2841    1.0335    0.1171 C   0  0  0  0  0  0  0  0  0  0  0  0
    3.5904   -2.7940    2.0725 C   0  0  0  0  0  0  0  0  0  0  0  0
   -2.9768   -0.2452    4.2507 C   0  0  0  0  0  0  0  0  0  0  0  0
   -1.6759   -1.3009   -0.6870 H   0  0  0  0  0  0  0  0  0  0  0  0
   -0.2171   -2.1144   -1.1220 H   0  0  0  0  0  0  0  0  0  0  0  0
   -0.2260    0.5467    0.3321 H   0  0  0  0  0  0  0  0  0  0  0  0
   -0.2926   -4.5440    2.2737 H   0  0  0  0  0  0  0  0  0  0  0  0
   -1.5611   -5.3727    1.5472 H   0  0  0  0  0  0  0  0  0  0  0  0
    1.0379   -0.7887    2.8647 H   0  0  0  0  0  0  0  0  0  0  0  0
    1.2207   -3.8755   -0.0188 H   0  0  0  0  0  0  0  0  0  0  0  0
   -2.4484    0.0475    0.9759 H   0  0  0  0  0  0  0  0  0  0  0  0
   -0.8066   -2.7234    3.7162 H   0  0  0  0  0  0  0  0  0  0  0  0
    0.1245    1.6649   -1.8922 H   0  0  0  0  0  0  0  0  0  0  0  0
   -1.4753    0.9404   -1.6906 H   0  0  0  0  0  0  0  0  0  0  0  0
   -0.2548    0.1226   -2.6826 H   0  0  0  0  0  0  0  0  0  0  0  0
    3.3206   -1.2260    3.4508 H   0  0  0  0  0  0  0  0  0  0  0  0
    3.5069   -4.2720    0.5688 H   0  0  0  0  0  0  0  0  0  0  0  0
   -3.6771    1.0480    2.7455 H   0  0  0  0  0  0  0  0  0  0  0  0
   -2.0825   -1.7142    5.4670 H   0  0  0  0  0  0  0  0  0  0  0  0
    3.3285   -0.9397   -1.4405 H   0  0  0  0  0  0  0  0  0  0  0  0
    1.8209   -1.5596   -2.0880 H   0  0  0  0  0  0  0  0  0  0  0  0
    2.3294    0.0937   -2.4748 H   0  0  0  0  0  0  0  0  0  0  0  0
    1.8806    1.2483    1.1083 H   0  0  0  0  0  0  0  0  0  0  0  0
    3.3528    0.8474    0.2385 H   0  0  0  0  0  0  0  0  0  0  0  0
    2.1519    1.9163   -0.5126 H   0  0  0  0  0  0  0  0  0  0  0  0
    4.5633   -2.9714    2.3290 H   0  0  0  0  0  0  0  0  0  0  0  0
   -3.5199    0.1853    5.0044 H   0  0  0  0  0  0  0  0  0  0  0  0
  1  2  1  0  0  0  0 
  1  3  1  0  0  0  0 
  1  4  1  0  0  0  0 
  1  5  1  0  0  0  0 
  6  2  1  0  0  0  0 
  3  7  1  0  0  0  0 
  3  8  2  0  0  0  0 
  4  9  2  0  0  0  0 
  4 10  1  0  0  0  0 
  5 11  2  0  0  0  0 
  5 12  1  0  0  0  0 
  6 13  1  0  0  0  0 
  6 14  1  0  0  0  0 
  9 15  1  0  0  0  0 
 10 16  2  0  0  0  0 
 11 17  1  0  0  0  0 
 12 18  2  0  0  0  0 
 13 19  1  0  0  0  0 
 13 20  1  0  0  0  0 
 15 21  2  0  0  0  0 
 16 21  1  0  0  0  0 
 17 22  2  0  0  0  0 
 18 22  1  0  0  0  0 
  2 23  1  0  0  0  0 
  2 24  1  0  0  0  0 
  6 25  1  0  0  0  0 
  7 26  1  0  0  0  0 
  7 27  1  0  0  0  0 
  9 28  1  0  0  0  0 
 10 29  1  0  0  0  0 
 11 30  1  0  0  0  0 
 12 31  1  0  0  0  0 
 14 32  1  0  0  0  0 
 14 33  1  0  0  0  0 
 14 34  1  0  0  0  0 
 15 35  1  0  0  0  0 
 16 36  1  0  0  0  0 
 17 37  1  0  0  0  0 
 18 38  1  0  0  0  0 
 19 39  1  0  0  0  0 
 19 40  1  0  0  0  0 
 19 41  1  0  0  0  0 
 20 42  1  0  0  0  0 
 20 43  1  0  0  0  0 
 20 44  1  0  0  0  0 
 21 45  1  0  0  0  0 
 22 46  1  0  0  0  0 
M  END
> <cdk:Title>
dimevamide

> <Conformer>
1

> <SuperDrugID>
SD000136

$$$$
