iopodic acid
  CDK     0628171801

 32 32  0  0  0  0  0  0  0  0999 V2000
    3.7037    0.5286    6.1951 C   0  0  2  0  0  0  0  0  0  0  0  0
    4.4160    0.8358    7.5411 C   0  0  2  0  0  0  0  0  0  0  0  0
    2.4901   -0.3260    6.3637 C   0  0  0  0  0  0  0  0  0  0  0  0
    5.5111    1.8131    7.3810 C   0  0  0  0  0  0  0  0  0  0  0  0
    1.2244    0.2539    6.6632 C   0  0  0  0  0  0  0  0  0  0  0  0
    2.5721   -1.7366    6.2313 C   0  0  0  0  0  0  0  0  0  0  0  0
    5.4550    3.0216    7.9889 O   0  0  0  0  0  0  0  0  0  0  0  0
    6.5127    1.5412    6.6807 O   0  0  0  0  0  0  0  0  0  0  0  0
    1.0226    2.2945    6.9405 I   0  0  0  0  0  0  0  0  0  0  0  0
    0.0626   -0.5521    6.7814 C   0  0  0  0  0  0  0  0  0  0  0  0
    4.3358   -2.7563    5.9240 I   0  0  0  0  0  0  0  0  0  0  0  0
    1.4170   -2.5269    6.3399 C   0  0  0  0  0  0  0  0  0  0  0  0
   -1.0653    0.0672    7.1097 N   0  0  0  0  0  0  0  0  0  0  0  0
    0.1672   -1.9548    6.6154 C   0  0  0  0  0  0  0  0  0  0  0  0
   -2.2746   -0.0558    6.6923 C   0  0  0  0  0  0  0  0  0  0  0  0
   -1.4027   -3.2691    6.8518 I   0  0  0  0  0  0  0  0  0  0  0  0
   -3.2905    0.6678    7.2102 N   0  0  0  0  0  0  0  0  0  0  0  0
   -3.1192    1.5001    8.3828 C   0  0  0  0  0  0  0  0  0  0  0  0
   -4.5671    0.6306    6.5346 C   0  0  0  0  0  0  0  0  0  0  0  0
    4.4150    0.0584    5.5152 H   0  0  0  0  0  0  0  0  0  0  0  0
    3.4304    1.4611    5.6995 H   0  0  0  0  0  0  0  0  0  0  0  0
    4.8301   -0.0859    7.9589 H   0  0  0  0  0  0  0  0  0  0  0  0
    3.6929    1.2287    8.2608 H   0  0  0  0  0  0  0  0  0  0  0  0
    6.1800    3.6699    7.8639 H   0  0  0  0  0  0  0  0  0  0  0  0
    1.4869   -3.5387    6.2338 H   0  0  0  0  0  0  0  0  0  0  0  0
   -2.4588   -0.6942    5.9526 H   0  0  0  0  0  0  0  0  0  0  0  0
   -4.0557    1.6498    8.9254 H   0  0  0  0  0  0  0  0  0  0  0  0
   -2.4186    1.0549    9.0936 H   0  0  0  0  0  0  0  0  0  0  0  0
   -2.7331    2.4763    8.0846 H   0  0  0  0  0  0  0  0  0  0  0  0
   -5.3377    1.2132    7.0432 H   0  0  0  0  0  0  0  0  0  0  0  0
   -4.9274   -0.3992    6.4650 H   0  0  0  0  0  0  0  0  0  0  0  0
   -4.4632    1.0330    5.5242 H   0  0  0  0  0  0  0  0  0  0  0  0
  1  2  1  0  0  0  0 
  1  3  1  0  0  0  0 
  2  4  1  0  0  0  0 
  3  5  2  0  0  0  0 
  3  6  1  0  0  0  0 
  4  7  1  0  0  0  0 
  4  8  2  0  0  0  0 
  5  9  1  0  0  0  0 
  5 10  1  0  0  0  0 
  6 11  1  0  0  0  0 
  6 12  2  0  0  0  0 
 10 13  1  0  0  0  0 
 10 14  2  0  0  0  0 
 12 14  1  0  0  0  0 
 13 15  2  0  0  0  0 
 14 16  1  0  0  0  0 
 15 17  1  0  0  0  0 
 17 18  1  0  0  0  0 
 17 19  1  0  0  0  0 
  1 20  1  0  0  0  0 
  1 21  1  0  0  0  0 
  2 22  1  0  0  0  0 
  2 23  1  0  0  0  0 
  7 24  1  0  0  0  0 
 12 25  1  0  0  0  0 
 15 26  1  0  0  0  0 
 18 27  1  0  0  0  0 
 18 28  1  0  0  0  0 
 18 29  1  0  0  0  0 
 19 30  1  0  0  0  0 
 19 31  1  0  0  0  0 
 19 32  1  0  0  0  0 
M  END
> <cdk:Title>
iopodic acid

> <Conformer>
1

> <SuperDrugID>
SD001305

$$$$
