niflumic acid
  CDK     0628171801

 29 30  0  0  0  0  0  0  0  0999 V2000
    0.5533    2.5098   -2.6629 N   0  0  0  0  0  0  0  0  0  0  0  0
    1.2100    3.6992   -2.8689 C   0  0  0  0  0  0  0  0  0  0  0  0
    1.0389    1.2284   -2.6052 C   0  0  0  0  0  0  0  0  0  0  0  0
    0.5190    4.8857   -3.2736 C   0  0  0  0  0  0  0  0  0  0  0  0
    2.5613    3.7563   -2.7087 N   0  0  0  0  0  0  0  0  0  0  0  0
    0.1746    0.2184   -3.0889 C   0  0  0  0  0  0  0  0  0  0  0  0
    2.3043    0.8425   -2.1043 C   0  0  0  0  0  0  0  0  0  0  0  0
   -0.8917    4.9564   -3.5049 C   0  0  0  0  0  0  0  0  0  0  0  0
    1.3001    6.0559   -3.4818 C   0  0  0  0  0  0  0  0  0  0  0  0
    3.3135    4.8658   -2.8896 C   0  0  0  0  0  0  0  0  0  0  0  0
    0.5581   -1.1451   -3.1390 C   0  0  0  0  0  0  0  0  0  0  0  0
    2.7090   -0.5039   -2.1496 C   0  0  0  0  0  0  0  0  0  0  0  0
   -1.4835    6.0657   -4.0110 O   0  0  0  0  0  0  0  0  0  0  0  0
   -1.6857    4.0162   -3.2704 O   0  0  0  0  0  0  0  0  0  0  0  0
    2.6912    6.0537   -3.2856 C   0  0  0  0  0  0  0  0  0  0  0  0
   -0.3908   -2.1647   -3.6761 C   0  0  1  0  0  0  0  0  0  0  0  0
    1.8473   -1.4866   -2.6666 C   0  0  0  0  0  0  0  0  0  0  0  0
    0.1618   -3.4124   -3.8516 F   0  0  0  0  0  0  0  0  0  0  0  0
   -1.4526   -2.3044   -2.8152 F   0  0  0  0  0  0  0  0  0  0  0  0
   -0.8755   -1.7841   -4.9055 F   0  0  0  0  0  0  0  0  0  0  0  0
   -0.4103    2.5612   -2.6189 H   0  0  0  0  0  0  0  0  0  0  0  0
   -0.7526    0.4827   -3.4343 H   0  0  0  0  0  0  0  0  0  0  0  0
    2.9412    1.5232   -1.6916 H   0  0  0  0  0  0  0  0  0  0  0  0
    0.8721    6.9357   -3.7821 H   0  0  0  0  0  0  0  0  0  0  0  0
    4.3228    4.8337   -2.7359 H   0  0  0  0  0  0  0  0  0  0  0  0
    3.6334   -0.7720   -1.8038 H   0  0  0  0  0  0  0  0  0  0  0  0
   -2.4513    6.0725   -4.1708 H   0  0  0  0  0  0  0  0  0  0  0  0
    3.2401    6.9050   -3.4246 H   0  0  0  0  0  0  0  0  0  0  0  0
    2.1725   -2.4564   -2.6844 H   0  0  0  0  0  0  0  0  0  0  0  0
  1  2  1  0  0  0  0 
  1  3  1  0  0  0  0 
  2  4  2  0  0  0  0 
  2  5  1  0  0  0  0 
  3  6  2  0  0  0  0 
  3  7  1  0  0  0  0 
  4  8  1  0  0  0  0 
  4  9  1  0  0  0  0 
  5 10  2  0  0  0  0 
  6 11  1  0  0  0  0 
  7 12  2  0  0  0  0 
  8 13  1  0  0  0  0 
  8 14  2  0  0  0  0 
  9 15  2  0  0  0  0 
 10 15  1  0  0  0  0 
 11 16  1  0  0  0  0 
 11 17  2  0  0  0  0 
 12 17  1  0  0  0  0 
 16 18  1  0  0  0  0 
 16 19  1  0  0  0  0 
 16 20  1  0  0  0  0 
  1 21  1  0  0  0  0 
  6 22  1  0  0  0  0 
  7 23  1  0  0  0  0 
  9 24  1  0  0  0  0 
 10 25  1  0  0  0  0 
 12 26  1  0  0  0  0 
 13 27  1  0  0  0  0 
 15 28  1  0  0  0  0 
 17 29  1  0  0  0  0 
M  END
> <cdk:Title>
niflumic acid

> <Conformer>
1

> <SuperDrugID>
SD001720

$$$$
