isobromindione
  CDK     0628171801

 27 29  0  0  0  0  0  0  0  0999 V2000
    1.0123   -7.4164   -0.8735 Br  0  0  0  0  0  0  0  0  0  0  0  0
    0.5759   -5.6251   -1.1309 C   0  0  0  0  0  0  0  0  0  0  0  0
   -0.0307   -5.2131   -2.3402 C   0  0  0  0  0  0  0  0  0  0  0  0
   -0.3727   -3.8603   -2.5429 C   0  0  0  0  0  0  0  0  0  0  0  0
   -0.1060   -2.9337   -1.5168 C   0  0  0  0  0  0  0  0  0  0  0  0
   -0.3391   -1.5611   -1.4551 C   0  0  0  0  0  0  0  0  0  0  0  0
   -0.8784   -0.8841   -2.3613 O   0  0  0  0  0  0  0  0  0  0  0  0
    0.1353   -1.0079   -0.1689 C   0  0  1  0  0  0  0  0  0  0  0  0
    0.6445   -2.2248    0.4990 C   0  0  0  0  0  0  0  0  0  0  0  0
    1.1396   -2.2473    1.6495 O   0  0  0  0  0  0  0  0  0  0  0  0
    0.4936   -3.3382   -0.3260 C   0  0  0  0  0  0  0  0  0  0  0  0
    0.8485   -4.6843   -0.1157 C   0  0  0  0  0  0  0  0  0  0  0  0
    1.1798    0.0494   -0.3348 C   0  0  0  0  0  0  0  0  0  0  0  0
    2.3884   -0.2102   -1.0310 C   0  0  0  0  0  0  0  0  0  0  0  0
    3.3652    0.7919   -1.1820 C   0  0  0  0  0  0  0  0  0  0  0  0
    3.1523    2.0713   -0.6401 C   0  0  0  0  0  0  0  0  0  0  0  0
    1.9606    2.3470    0.0530 C   0  0  0  0  0  0  0  0  0  0  0  0
    0.9821    1.3449    0.2049 C   0  0  0  0  0  0  0  0  0  0  0  0
   -0.2240   -5.9004   -3.0728 H   0  0  0  0  0  0  0  0  0  0  0  0
   -0.8035   -3.5629   -3.4203 H   0  0  0  0  0  0  0  0  0  0  0  0
   -0.7308   -0.6410    0.3920 H   0  0  0  0  0  0  0  0  0  0  0  0
    1.2969   -4.9769    0.7543 H   0  0  0  0  0  0  0  0  0  0  0  0
    2.5646   -1.1345   -1.4337 H   0  0  0  0  0  0  0  0  0  0  0  0
    4.2315    0.5910   -1.6860 H   0  0  0  0  0  0  0  0  0  0  0  0
    3.8623    2.7995   -0.7499 H   0  0  0  0  0  0  0  0  0  0  0  0
    1.8055    3.2779    0.4474 H   0  0  0  0  0  0  0  0  0  0  0  0
    0.1225    1.5696    0.7136 H   0  0  0  0  0  0  0  0  0  0  0  0
  1  2  1  0  0  0  0 
  2  3  2  0  0  0  0 
  3  4  1  0  0  0  0 
  4  5  2  0  0  0  0 
  5  6  1  0  0  0  0 
  6  7  2  0  0  0  0 
  8  6  1  0  0  0  0 
  8  9  1  0  0  0  0 
  9 10  2  0  0  0  0 
  9 11  1  0  0  0  0 
  5 11  1  0  0  0  0 
 11 12  2  0  0  0  0 
  2 12  1  0  0  0  0 
  8 13  1  0  0  0  0 
 13 14  2  0  0  0  0 
 14 15  1  0  0  0  0 
 15 16  2  0  0  0  0 
 16 17  1  0  0  0  0 
 17 18  2  0  0  0  0 
 13 18  1  0  0  0  0 
  3 19  1  0  0  0  0 
  4 20  1  0  0  0  0 
  8 21  1  0  0  0  0 
 12 22  1  0  0  0  0 
 14 23  1  0  0  0  0 
 15 24  1  0  0  0  0 
 16 25  1  0  0  0  0 
 17 26  1  0  0  0  0 
 18 27  1  0  0  0  0 
M  END
> <cdk:Title>
isobromindione

> <Conformer>
1

> <SuperDrugID>
SD001319

$$$$
