lomifylline
  CDK     0628171801

 38 39  0  0  0  0  0  0  0  0999 V2000
    0.2547   -0.3154   -0.5521 C   0  0  1  0  0  0  0  0  0  0  0  0
   -0.6413   -1.0542    0.4765 C   0  0  1  0  0  0  0  0  0  0  0  0
    1.5605   -0.0580   -0.0131 N   0  0  0  0  0  0  0  0  0  0  0  0
   -2.0885   -1.2700   -0.0393 C   0  0  2  0  0  0  0  0  0  0  0  0
    1.9747    0.9734    0.7572 C   0  0  0  0  0  0  0  0  0  0  0  0
    2.6394   -0.8493   -0.1894 C   0  0  0  0  0  0  0  0  0  0  0  0
   -2.9801   -2.0659    0.9566 C   0  0  1  0  0  0  0  0  0  0  0  0
    3.3234    0.7859    1.0299 C   0  0  0  0  0  0  0  0  0  0  0  0
    1.3372    2.1089    1.2880 C   0  0  0  0  0  0  0  0  0  0  0  0
    3.7160   -0.3529    0.4378 N   0  0  0  0  0  0  0  0  0  0  0  0
   -4.3729   -2.3048    0.4954 C   0  0  0  0  0  0  0  0  0  0  0  0
    4.0473    1.6560    1.7901 N   0  0  0  0  0  0  0  0  0  0  0  0
    0.1149    2.2654    1.0616 O   0  0  0  0  0  0  0  0  0  0  0  0
    2.0617    3.0059    2.0438 N   0  0  0  0  0  0  0  0  0  0  0  0
   -5.3251   -3.0566    1.3347 C   0  0  0  0  0  0  0  0  0  0  0  0
   -4.7721   -1.8772   -0.6139 O   0  0  0  0  0  0  0  0  0  0  0  0
    5.4420    1.3762    2.0561 C   0  0  0  0  0  0  0  0  0  0  0  0
    3.3970    2.7563    2.3075 C   0  0  0  0  0  0  0  0  0  0  0  0
    1.4113    4.1890    2.5803 C   0  0  0  0  0  0  0  0  0  0  0  0
    4.0420    3.5389    3.0507 O   0  0  0  0  0  0  0  0  0  0  0  0
    0.3418   -0.9310   -1.4526 H   0  0  0  0  0  0  0  0  0  0  0  0
   -0.2128    0.6190   -0.8691 H   0  0  0  0  0  0  0  0  0  0  0  0
   -0.1897   -2.0256    0.6961 H   0  0  0  0  0  0  0  0  0  0  0  0
   -0.6774   -0.4808    1.4062 H   0  0  0  0  0  0  0  0  0  0  0  0
   -2.0467   -1.8109   -0.9893 H   0  0  0  0  0  0  0  0  0  0  0  0
   -2.5453   -0.2925   -0.2216 H   0  0  0  0  0  0  0  0  0  0  0  0
    2.6532   -1.7204   -0.7225 H   0  0  0  0  0  0  0  0  0  0  0  0
   -2.5116   -3.0367    1.1452 H   0  0  0  0  0  0  0  0  0  0  0  0
   -3.0213   -1.5197    1.9037 H   0  0  0  0  0  0  0  0  0  0  0  0
   -6.2987   -3.1445    0.8503 H   0  0  0  0  0  0  0  0  0  0  0  0
   -5.4625   -2.5464    2.2873 H   0  0  0  0  0  0  0  0  0  0  0  0
   -4.9441   -4.0604    1.5194 H   0  0  0  0  0  0  0  0  0  0  0  0
    5.5183    0.8138    2.9889 H   0  0  0  0  0  0  0  0  0  0  0  0
    5.9091    0.7860    1.2629 H   0  0  0  0  0  0  0  0  0  0  0  0
    6.0320    2.2920    2.1509 H   0  0  0  0  0  0  0  0  0  0  0  0
    0.6006    4.5431    1.9385 H   0  0  0  0  0  0  0  0  0  0  0  0
    2.1056    5.0282    2.6882 H   0  0  0  0  0  0  0  0  0  0  0  0
    0.9983    3.9542    3.5637 H   0  0  0  0  0  0  0  0  0  0  0  0
  1  2  1  0  0  0  0 
  1  3  1  0  0  0  0 
  2  4  1  0  0  0  0 
  3  5  1  0  0  0  0 
  3  6  1  0  0  0  0 
  4  7  1  0  0  0  0 
  5  8  2  0  0  0  0 
  5  9  1  0  0  0  0 
  6 10  2  0  0  0  0 
  7 11  1  0  0  0  0 
  8 10  1  0  0  0  0 
  8 12  1  0  0  0  0 
  9 13  2  0  0  0  0 
  9 14  1  0  0  0  0 
 11 15  1  0  0  0  0 
 11 16  2  0  0  0  0 
 12 17  1  0  0  0  0 
 12 18  1  0  0  0  0 
 14 18  1  0  0  0  0 
 14 19  1  0  0  0  0 
 18 20  2  0  0  0  0 
  1 21  1  0  0  0  0 
  1 22  1  0  0  0  0 
  2 23  1  0  0  0  0 
  2 24  1  0  0  0  0 
  4 25  1  0  0  0  0 
  4 26  1  0  0  0  0 
  6 27  1  0  0  0  0 
  7 28  1  0  0  0  0 
  7 29  1  0  0  0  0 
 15 30  1  0  0  0  0 
 15 31  1  0  0  0  0 
 15 32  1  0  0  0  0 
 17 33  1  0  0  0  0 
 17 34  1  0  0  0  0 
 17 35  1  0  0  0  0 
 19 36  1  0  0  0  0 
 19 37  1  0  0  0  0 
 19 38  1  0  0  0  0 
M  END
> <cdk:Title>
lomifylline

> <Conformer>
1

> <SuperDrugID>
SD003316

$$$$
