cabergoline
  CDK     0628171802

 70 73  0  0  0  0  0  0  0  0999 V2000
    0.4354   -2.4722   -0.7759 C   0  0  1  0  0  0  0  0  0  0  0  0
   -0.9242   -2.0895   -1.1361 C   0  0  0  0  0  0  0  0  0  0  0  0
    1.4324   -2.6184   -1.8986 N   0  0  1  0  0  0  0  0  0  0  0  0
   -1.6924   -2.7602   -2.0013 C   0  0  0  0  0  0  0  0  0  0  0  0
    1.5937   -3.9336   -2.6313 C   0  0  1  0  0  0  0  0  0  0  0  0
    1.5143   -1.4019   -2.7760 C   0  0  1  0  0  0  0  0  0  0  0  0
    3.0358   -3.9497   -3.2955 C   0  0  1  0  0  0  0  0  0  0  0  0
    1.2933   -5.2213   -1.7786 C   0  0  2  0  0  0  0  0  0  0  0  0
    2.7040   -1.4249   -3.7885 C   0  0  1  0  0  0  0  0  0  0  0  0
    3.4613   -5.2905   -3.8328 C   0  0  0  0  0  0  0  0  0  0  0  0
    3.0968   -2.8195   -4.3685 C   0  0  2  0  0  0  0  0  0  0  0  0
    1.7684   -6.4488   -2.4375 C   0  0  0  0  0  0  0  0  0  0  0  0
    2.6240   -0.3582   -4.8514 C   0  0  0  0  0  0  0  0  0  0  0  0
    2.7808   -6.4239   -3.3684 C   0  0  0  0  0  0  0  0  0  0  0  0
    4.5383   -5.5518   -4.7230 C   0  0  0  0  0  0  0  0  0  0  0  0
    1.4296   -7.7946   -2.2833 C   0  0  0  0  0  0  0  0  0  0  0  0
    1.7448   -0.2369   -5.9535 N   0  0  0  0  0  0  0  0  0  0  0  0
    3.4933    0.5261   -4.6614 O   0  0  0  0  0  0  0  0  0  0  0  0
    3.0591   -7.7263   -3.7542 C   0  0  0  0  0  0  0  0  0  0  0  0
    4.8396   -6.8715   -5.1468 C   0  0  0  0  0  0  0  0  0  0  0  0
    2.2179   -8.5381   -3.0901 N   0  0  0  0  0  0  0  0  0  0  0  0
    0.6383   -1.0816   -6.1867 C   0  0  0  0  0  0  0  0  0  0  0  0
    1.9094    0.8212   -6.9696 C   0  0  2  0  0  0  0  0  0  0  0  0
    4.0928   -7.9739   -4.6696 C   0  0  0  0  0  0  0  0  0  0  0  0
   -0.2357   -0.8721   -7.2278 N   0  0  0  0  0  0  0  0  0  0  0  0
    0.3552   -2.0713   -5.4761 O   0  0  0  0  0  0  0  0  0  0  0  0
    3.1403    1.7724   -7.0698 C   0  0  1  0  0  0  0  0  0  0  0  0
   -1.3826   -1.6579   -7.5582 C   0  0  1  0  0  0  0  0  0  0  0  0
    3.0576    2.7079   -8.3101 C   0  0  1  0  0  0  0  0  0  0  0  0
   -2.0543   -1.0890   -8.8233 C   0  0  0  0  0  0  0  0  0  0  0  0
    4.1558    3.7293   -8.3567 N   0  0  1  0  0  0  0  0  0  0  0  0
    5.4727    3.1674   -8.7816 C   0  0  0  0  0  0  0  0  0  0  0  0
    3.7728    4.9397   -9.1452 C   0  0  0  0  0  0  0  0  0  0  0  0
    3.7634   -3.7062   -2.5164 H   0  0  0  0  0  0  0  0  0  0  0  0
    0.8621   -3.9573   -3.4454 H   0  0  0  0  0  0  0  0  0  0  0  0
    0.8338   -1.7047   -0.1051 H   0  0  0  0  0  0  0  0  0  0  0  0
    0.3707   -3.3694   -0.1642 H   0  0  0  0  0  0  0  0  0  0  0  0
   -1.3153   -1.2859   -0.7012 H   0  0  0  0  0  0  0  0  0  0  0  0
   -1.3647   -3.5695   -2.4643 H   0  0  0  0  0  0  0  0  0  0  0  0
   -2.6138   -2.4472   -2.1924 H   0  0  0  0  0  0  0  0  0  0  0  0
    0.5650   -1.2647   -3.2812 H   0  0  0  0  0  0  0  0  0  0  0  0
    1.6336   -0.5162   -2.1423 H   0  0  0  0  0  0  0  0  0  0  0  0
    0.2164   -5.3118   -1.6188 H   0  0  0  0  0  0  0  0  0  0  0  0
    1.7918   -5.1574   -0.8096 H   0  0  0  0  0  0  0  0  0  0  0  0
    3.5606   -1.1932   -3.1372 H   0  0  0  0  0  0  0  0  0  0  0  0
    2.4775   -3.1148   -5.2132 H   0  0  0  0  0  0  0  0  0  0  0  0
    4.1155   -2.7273   -4.7567 H   0  0  0  0  0  0  0  0  0  0  0  0
    5.1186   -4.7871   -5.0702 H   0  0  0  0  0  0  0  0  0  0  0  0
    0.7116   -8.1608   -1.6577 H   0  0  0  0  0  0  0  0  0  0  0  0
    5.6113   -7.0306   -5.7990 H   0  0  0  0  0  0  0  0  0  0  0  0
    2.1934   -9.5049   -3.1683 H   0  0  0  0  0  0  0  0  0  0  0  0
    1.0262    1.4660   -6.9079 H   0  0  0  0  0  0  0  0  0  0  0  0
    1.9011    0.3240   -7.9460 H   0  0  0  0  0  0  0  0  0  0  0  0
    4.3077   -8.9271   -4.9677 H   0  0  0  0  0  0  0  0  0  0  0  0
   -0.0683   -0.1095   -7.8031 H   0  0  0  0  0  0  0  0  0  0  0  0
    3.1922    2.4100   -6.1857 H   0  0  0  0  0  0  0  0  0  0  0  0
    4.0442    1.1636   -7.1259 H   0  0  0  0  0  0  0  0  0  0  0  0
   -1.0839   -2.6907   -7.7492 H   0  0  0  0  0  0  0  0  0  0  0  0
   -2.0996   -1.6444   -6.7330 H   0  0  0  0  0  0  0  0  0  0  0  0
    3.0544    2.1119   -9.2293 H   0  0  0  0  0  0  0  0  0  0  0  0
    2.0902    3.2168   -8.2528 H   0  0  0  0  0  0  0  0  0  0  0  0
   -2.9292   -1.6886   -9.0779 H   0  0  0  0  0  0  0  0  0  0  0  0
   -2.3731   -0.0580   -8.6521 H   0  0  0  0  0  0  0  0  0  0  0  0
   -1.3562   -1.1076   -9.6636 H   0  0  0  0  0  0  0  0  0  0  0  0
    5.4026    2.8332   -9.8656 H   0  0  0  0  0  0  0  0  0  0  0  0
    5.8110    2.4077   -8.0132 H   0  0  0  0  0  0  0  0  0  0  0  0
    6.2277    3.9563   -8.7412 H   0  0  0  0  0  0  0  0  0  0  0  0
    3.4985    4.6753  -10.1712 H   0  0  0  0  0  0  0  0  0  0  0  0
    4.5919    5.6620   -9.1781 H   0  0  0  0  0  0  0  0  0  0  0  0
    2.9233    5.4360   -8.6713 H   0  0  0  0  0  0  0  0  0  0  0  0
  1  2  1  0  0  0  0 
  1  3  1  0  0  0  0 
  2  4  2  0  0  0  0 
  5  3  1  0  0  0  0 
  3  6  1  0  0  0  0 
  7  5  1  0  0  0  0 
  5  8  1  0  0  0  0 
  5 35  1  0  0  0  0 
  9  6  1  0  0  0  0 
  7 10  1  0  0  0  0 
  7 11  1  0  0  0  0 
  7 34  1  0  0  0  0 
  8 12  1  0  0  0  0 
  9 11  1  0  0  0  0 
  9 13  1  0  0  0  0 
 10 14  2  0  0  0  0 
 10 15  1  0  0  0  0 
 12 14  1  0  0  0  0 
 12 16  2  0  0  0  0 
 13 17  1  0  0  0  0 
 13 18  2  0  0  0  0 
 14 19  1  0  0  0  0 
 15 20  2  0  0  0  0 
 16 21  1  0  0  0  0 
 17 22  1  0  0  0  0 
 17 23  1  0  0  0  0 
 19 21  1  0  0  0  0 
 19 24  2  0  0  0  0 
 20 24  1  0  0  0  0 
 22 25  1  0  0  0  0 
 22 26  2  0  0  0  0 
 23 27  1  0  0  0  0 
 25 28  1  0  0  0  0 
 27 29  1  0  0  0  0 
 28 30  1  0  0  0  0 
 29 31  1  0  0  0  0 
 31 32  1  0  0  0  0 
 31 33  1  0  0  0  0 
  1 36  1  0  0  0  0 
  1 37  1  0  0  0  0 
  2 38  1  0  0  0  0 
  4 39  1  0  0  0  0 
  4 40  1  0  0  0  0 
  6 41  1  0  0  0  0 
  6 42  1  0  0  0  0 
  8 43  1  0  0  0  0 
  8 44  1  0  0  0  0 
  9 45  1  0  0  0  0 
 11 46  1  0  0  0  0 
 11 47  1  0  0  0  0 
 15 48  1  0  0  0  0 
 16 49  1  0  0  0  0 
 20 50  1  0  0  0  0 
 21 51  1  0  0  0  0 
 23 52  1  0  0  0  0 
 23 53  1  0  0  0  0 
 24 54  1  0  0  0  0 
 25 55  1  0  0  0  0 
 27 56  1  0  0  0  0 
 27 57  1  0  0  0  0 
 28 58  1  0  0  0  0 
 28 59  1  0  0  0  0 
 29 60  1  0  0  0  0 
 29 61  1  0  0  0  0 
 30 62  1  0  0  0  0 
 30 63  1  0  0  0  0 
 30 64  1  0  0  0  0 
 32 65  1  0  0  0  0 
 32 66  1  0  0  0  0 
 32 67  1  0  0  0  0 
 33 68  1  0  0  0  0 
 33 69  1  0  0  0  0 
 33 70  1  0  0  0  0 
M  END
> <cdk:Title>
cabergoline

> <Conformer>
1

> <SuperDrugID>
SD000400

$$$$
