pheniodol sodium
  CDK     0628171801

 32 33  0  0  0  0  0  0  0  0999 V2000
    0.2197   -2.7887   -0.4674 C   0  0  2  0  0  0  0  0  0  0  0  0
    0.2608   -1.7656    0.7178 C   0  0  2  0  0  0  0  0  0  0  0  0
   -1.1437   -3.2901   -0.7790 C   0  0  0  0  0  0  0  0  0  0  0  0
    1.1597   -3.9340   -0.2373 C   0  0  0  0  0  0  0  0  0  0  0  0
   -0.6635   -0.6025    0.5827 C   0  0  0  0  0  0  0  0  0  0  0  0
   -1.9323   -3.8456    0.1719 O   0  0  0  0  0  0  0  0  0  0  0  0
   -1.6000   -3.2068   -1.9423 O   0  0  0  0  0  0  0  0  0  0  0  0
    0.9998   -4.8124    0.8661 C   0  0  0  0  0  0  0  0  0  0  0  0
    2.2551   -4.1612   -1.1098 C   0  0  0  0  0  0  0  0  0  0  0  0
   -1.7257   -0.4071    1.4963 C   0  0  0  0  0  0  0  0  0  0  0  0
   -0.4907    0.3415   -0.4554 C   0  0  0  0  0  0  0  0  0  0  0  0
    1.9194   -5.8458    1.1154 C   0  0  0  0  0  0  0  0  0  0  0  0
    3.1774   -5.1948   -0.8625 C   0  0  0  0  0  0  0  0  0  0  0  0
   -2.5995    0.6868    1.3683 C   0  0  0  0  0  0  0  0  0  0  0  0
   -1.3653    1.4363   -0.5940 C   0  0  0  0  0  0  0  0  0  0  0  0
    3.0149   -6.0304    0.2565 C   0  0  0  0  0  0  0  0  0  0  0  0
   -4.1190    0.9038    2.7357 I   0  0  0  0  0  0  0  0  0  0  0  0
   -2.4260    1.6127    0.3202 C   0  0  0  0  0  0  0  0  0  0  0  0
   -1.0519    2.7467   -2.1465 I   0  0  0  0  0  0  0  0  0  0  0  0
   -3.2891    2.6567    0.2169 O   0  0  0  0  0  0  0  0  0  0  0  0
    0.5590   -2.2353   -1.3498 H   0  0  0  0  0  0  0  0  0  0  0  0
    1.2791   -1.3729    0.8071 H   0  0  0  0  0  0  0  0  0  0  0  0
    0.0526   -2.2894    1.6540 H   0  0  0  0  0  0  0  0  0  0  0  0
   -2.8245   -4.1724   -0.0672 H   0  0  0  0  0  0  0  0  0  0  0  0
    0.2093   -4.7047    1.5042 H   0  0  0  0  0  0  0  0  0  0  0  0
    2.3941   -3.5750   -1.9354 H   0  0  0  0  0  0  0  0  0  0  0  0
   -1.8729   -1.0627    2.2660 H   0  0  0  0  0  0  0  0  0  0  0  0
    0.2798    0.2341   -1.1187 H   0  0  0  0  0  0  0  0  0  0  0  0
    1.7914   -6.4611    1.9225 H   0  0  0  0  0  0  0  0  0  0  0  0
    3.9685   -5.3383   -1.4970 H   0  0  0  0  0  0  0  0  0  0  0  0
    3.6933   -6.7723    0.4453 H   0  0  0  0  0  0  0  0  0  0  0  0
   -2.9281    3.2516   -0.4711 H   0  0  0  0  0  0  0  0  0  0  0  0
  1  2  1  0  0  0  0 
  1  3  1  0  0  0  0 
  1  4  1  0  0  0  0 
  2  5  1  0  0  0  0 
  3  6  1  0  0  0  0 
  3  7  2  0  0  0  0 
  4  8  2  0  0  0  0 
  4  9  1  0  0  0  0 
  5 10  2  0  0  0  0 
  5 11  1  0  0  0  0 
  8 12  1  0  0  0  0 
  9 13  2  0  0  0  0 
 10 14  1  0  0  0  0 
 11 15  2  0  0  0  0 
 12 16  2  0  0  0  0 
 13 16  1  0  0  0  0 
 14 17  1  0  0  0  0 
 14 18  2  0  0  0  0 
 15 18  1  0  0  0  0 
 15 19  1  0  0  0  0 
 18 20  1  0  0  0  0 
  1 21  1  0  0  0  0 
  2 22  1  0  0  0  0 
  2 23  1  0  0  0  0 
  6 24  1  0  0  0  0 
  8 25  1  0  0  0  0 
  9 26  1  0  0  0  0 
 10 27  1  0  0  0  0 
 11 28  1  0  0  0  0 
 12 29  1  0  0  0  0 
 13 30  1  0  0  0  0 
 16 31  1  0  0  0  0 
 20 32  1  0  0  0  0 
M  END
> <cdk:Title>
pheniodol sodium

> <Conformer>
1

> <SuperDrugID>
SD002853

$$$$
