tirofiban
  CDK     0628171801

 66 67  0  0  0  0  0  0  0  0999 V2000
    9.4043    3.4863    2.6973 C   0  0  1  0  0  0  0  0  0  0  0  0
    9.3475    1.9302    2.5684 C   0  0  2  0  0  0  0  0  0  0  0  0
   10.7940    4.0161    2.6129 C   0  0  0  0  0  0  0  0  0  0  0  0
    7.9650    1.3950    2.5282 N   0  0  1  0  0  0  0  0  0  0  0  0
   10.0337    1.2641    3.7009 C   0  0  0  0  0  0  0  0  0  0  0  0
   11.3895    4.2545    1.3512 C   0  0  0  0  0  0  0  0  0  0  0  0
   11.5545    4.2603    3.7814 C   0  0  0  0  0  0  0  0  0  0  0  0
    6.9960    1.7624    1.0949 S   0  0  1  0  0  0  0  0  0  0  0  0
   11.1607    0.5372    3.5045 O   0  0  0  0  0  0  0  0  0  0  0  0
    9.5907    1.3588    4.8681 O   0  0  0  0  0  0  0  0  0  0  0  0
   12.7235    4.6884    1.2559 C   0  0  0  0  0  0  0  0  0  0  0  0
   12.8927    4.6907    3.6891 C   0  0  0  0  0  0  0  0  0  0  0  0
    7.9189    1.4717   -0.4641 C   0  0  2  0  0  0  0  0  0  0  0  0
    5.7132    0.8007    1.1320 O   0  0  0  0  0  0  0  0  0  0  0  0
    6.4823    3.2783    1.1778 O   0  0  0  0  0  0  0  0  0  0  0  0
   13.4863    4.8795    2.4233 C   0  0  0  0  0  0  0  0  0  0  0  0
    7.1836    2.0239   -1.7100 C   0  0  1  0  0  0  0  0  0  0  0  0
   14.7917    5.2704    2.3193 O   0  0  0  0  0  0  0  0  0  0  0  0
    7.9143    1.6363   -3.0245 C   0  0  1  0  0  0  0  0  0  0  0  0
   15.7227    4.1686    2.2276 C   0  0  1  0  0  0  0  0  0  0  0  0
    7.2376    2.1852   -4.2998 C   0  0  0  0  0  0  0  0  0  0  0  0
   17.1688    4.7126    2.3073 C   0  0  2  0  0  0  0  0  0  0  0  0
   17.4198    5.4806    3.6341 C   0  0  2  0  0  0  0  0  0  0  0  0
   18.8578    6.0430    3.7598 C   0  0  1  0  0  0  0  0  0  0  0  0
   19.1141    6.8415    5.0788 C   0  0  2  0  0  0  0  0  0  0  0  0
   20.5561    7.4368    5.0570 C   0  0  2  0  0  0  0  0  0  0  0  0
   18.8922    5.9848    6.3695 C   0  0  1  0  0  0  0  0  0  0  0  0
   20.9226    8.1281    6.3925 C   0  0  1  0  0  0  0  0  0  0  0  0
   19.3470    6.7220    7.6549 C   0  0  1  0  0  0  0  0  0  0  0  0
   20.7390    7.2100    7.5386 N   0  0  1  0  0  0  0  0  0  0  0  0
    8.8201    3.9543    1.9054 H   0  0  0  0  0  0  0  0  0  0  0  0
    8.9311    3.7904    3.6336 H   0  0  0  0  0  0  0  0  0  0  0  0
    9.8669    1.6239    1.6594 H   0  0  0  0  0  0  0  0  0  0  0  0
    8.0386    0.3772    2.5834 H   0  0  0  0  0  0  0  0  0  0  0  0
   10.8577    4.1054    0.4900 H   0  0  0  0  0  0  0  0  0  0  0  0
   11.1432    4.1113    4.7068 H   0  0  0  0  0  0  0  0  0  0  0  0
   11.6221    0.1191    4.2627 H   0  0  0  0  0  0  0  0  0  0  0  0
   13.1454    4.8506    0.3358 H   0  0  0  0  0  0  0  0  0  0  0  0
   13.4369    4.8540    4.5412 H   0  0  0  0  0  0  0  0  0  0  0  0
    8.0778    0.3972   -0.5720 H   0  0  0  0  0  0  0  0  0  0  0  0
    8.8922    1.9566   -0.4017 H   0  0  0  0  0  0  0  0  0  0  0  0
    6.1645    1.6304   -1.7340 H   0  0  0  0  0  0  0  0  0  0  0  0
    7.1293    3.1137   -1.6340 H   0  0  0  0  0  0  0  0  0  0  0  0
    8.9410    2.0114   -2.9945 H   0  0  0  0  0  0  0  0  0  0  0  0
    7.9534    0.5463   -3.1018 H   0  0  0  0  0  0  0  0  0  0  0  0
   15.5814    3.4536    3.0458 H   0  0  0  0  0  0  0  0  0  0  0  0
   15.5932    3.6374    1.2785 H   0  0  0  0  0  0  0  0  0  0  0  0
    7.7898    1.8498   -5.1811 H   0  0  0  0  0  0  0  0  0  0  0  0
    6.2112    1.8209   -4.3742 H   0  0  0  0  0  0  0  0  0  0  0  0
    7.2311    3.2770   -4.2906 H   0  0  0  0  0  0  0  0  0  0  0  0
   17.3460    5.3727    1.4538 H   0  0  0  0  0  0  0  0  0  0  0  0
   17.8650    3.8690    2.2370 H   0  0  0  0  0  0  0  0  0  0  0  0
   17.2348    4.7854    4.4547 H   0  0  0  0  0  0  0  0  0  0  0  0
   16.7115    6.3110    3.7211 H   0  0  0  0  0  0  0  0  0  0  0  0
   19.5681    5.2134    3.6884 H   0  0  0  0  0  0  0  0  0  0  0  0
   19.0345    6.7064    2.9073 H   0  0  0  0  0  0  0  0  0  0  0  0
   18.4074    7.6797    5.1046 H   0  0  0  0  0  0  0  0  0  0  0  0
   20.6430    8.1679    4.2484 H   0  0  0  0  0  0  0  0  0  0  0  0
   21.2830    6.6407    4.8697 H   0  0  0  0  0  0  0  0  0  0  0  0
   17.8326    5.7466    6.4868 H   0  0  0  0  0  0  0  0  0  0  0  0
   19.4380    5.0402    6.2884 H   0  0  0  0  0  0  0  0  0  0  0  0
   21.9692    8.4344    6.3641 H   0  0  0  0  0  0  0  0  0  0  0  0
   20.3141    9.0262    6.5298 H   0  0  0  0  0  0  0  0  0  0  0  0
   18.6735    7.5596    7.8621 H   0  0  0  0  0  0  0  0  0  0  0  0
   19.2958    6.0354    8.5023 H   0  0  0  0  0  0  0  0  0  0  0  0
   21.3317    6.3917    7.3688 H   0  0  0  0  0  0  0  0  0  0  0  0
  2  1  1  0  0  0  0 
  1  3  1  0  0  0  0 
  2  4  1  0  0  0  0 
  2  5  1  0  0  0  0 
  3  6  2  0  0  0  0 
  3  7  1  0  0  0  0 
  4  8  1  0  0  0  0 
  5  9  1  0  0  0  0 
  5 10  2  0  0  0  0 
  6 11  1  0  0  0  0 
  7 12  2  0  0  0  0 
  8 13  1  0  0  0  0 
  8 14  2  0  0  0  0 
  8 15  2  0  0  0  0 
 11 16  2  0  0  0  0 
 12 16  1  0  0  0  0 
 13 17  1  0  0  0  0 
 16 18  1  0  0  0  0 
 17 19  1  0  0  0  0 
 18 20  1  0  0  0  0 
 19 21  1  0  0  0  0 
 20 22  1  0  0  0  0 
 22 23  1  0  0  0  0 
 23 24  1  0  0  0  0 
 24 25  1  0  0  0  0 
 25 26  1  0  0  0  0 
 25 27  1  0  0  0  0 
 26 28  1  0  0  0  0 
 27 29  1  0  0  0  0 
 28 30  1  0  0  0  0 
 29 30  1  0  0  0  0 
  1 31  1  0  0  0  0 
  1 32  1  0  0  0  0 
  2 33  1  0  0  0  0 
  4 34  1  0  0  0  0 
  6 35  1  0  0  0  0 
  7 36  1  0  0  0  0 
  9 37  1  0  0  0  0 
 11 38  1  0  0  0  0 
 12 39  1  0  0  0  0 
 13 40  1  0  0  0  0 
 13 41  1  0  0  0  0 
 17 42  1  0  0  0  0 
 17 43  1  0  0  0  0 
 19 44  1  0  0  0  0 
 19 45  1  0  0  0  0 
 20 46  1  0  0  0  0 
 20 47  1  0  0  0  0 
 21 48  1  0  0  0  0 
 21 49  1  0  0  0  0 
 21 50  1  0  0  0  0 
 22 51  1  0  0  0  0 
 22 52  1  0  0  0  0 
 23 53  1  0  0  0  0 
 23 54  1  0  0  0  0 
 24 55  1  0  0  0  0 
 24 56  1  0  0  0  0 
 25 57  1  0  0  0  0 
 26 58  1  0  0  0  0 
 26 59  1  0  0  0  0 
 27 60  1  0  0  0  0 
 27 61  1  0  0  0  0 
 28 62  1  0  0  0  0 
 28 63  1  0  0  0  0 
 29 64  1  0  0  0  0 
 29 65  1  0  0  0  0 
 30 66  1  0  0  0  0 
M  END
> <cdk:Title>
tirofiban

> <Conformer>
1

> <SuperDrugID>
SD002412

$$$$
