nelarabine
  CDK     0628171801

 36 38  0  0  0  0  0  0  0  0999 V2000
    4.7108   -1.7925   -2.4609 O   0  0  0  0  0  0  0  0  0  0  0  0
    3.8306   -1.3505   -1.4265 C   0  0  2  0  0  0  0  0  0  0  0  0
    4.3758   -1.5514    0.0092 C   0  0  2  0  0  0  0  0  0  0  0  0
    2.5138   -2.1369   -1.4041 C   0  0  2  0  0  0  0  0  0  0  0  0
    5.4581   -2.4990    0.0924 N   0  0  0  0  0  0  0  0  0  0  0  0
    3.2732   -1.9557    0.8433 O   0  0  0  0  0  0  0  0  0  0  0  0
    1.5578   -1.6146   -2.3248 O   0  0  0  0  0  0  0  0  0  0  0  0
    2.0684   -1.9820    0.0655 C   0  0  2  0  0  0  0  0  0  0  0  0
    5.4029   -3.8036    0.4191 C   0  0  0  0  0  0  0  0  0  0  0  0
    6.7652   -2.2303   -0.1381 C   0  0  0  0  0  0  0  0  0  0  0  0
    1.1357   -3.1090    0.5703 C   0  0  2  0  0  0  0  0  0  0  0  0
    6.7022   -4.2966    0.3946 C   0  0  0  0  0  0  0  0  0  0  0  0
    4.3595   -4.6122    0.7361 N   0  0  0  0  0  0  0  0  0  0  0  0
    7.5428   -3.3149    0.0458 N   0  0  0  0  0  0  0  0  0  0  0  0
   -0.0826   -3.1339   -0.1628 O   0  0  0  0  0  0  0  0  0  0  0  0
    6.9304   -5.6473    0.7088 C   0  0  0  0  0  0  0  0  0  0  0  0
    4.5826   -5.9210    1.0397 C   0  0  0  0  0  0  0  0  0  0  0  0
    8.1841   -6.1850    0.6739 O   0  0  0  0  0  0  0  0  0  0  0  0
    5.8509   -6.4195    1.0204 N   0  0  0  0  0  0  0  0  0  0  0  0
    3.5541   -6.7234    1.3509 N   0  0  0  0  0  0  0  0  0  0  0  0
    8.8048   -6.2463    1.9684 C   0  0  0  0  0  0  0  0  0  0  0  0
    4.2503   -1.5740   -3.2977 H   0  0  0  0  0  0  0  0  0  0  0  0
    3.6251   -0.2870   -1.5866 H   0  0  0  0  0  0  0  0  0  0  0  0
    4.7276   -0.5908    0.4011 H   0  0  0  0  0  0  0  0  0  0  0  0
    2.7065   -3.1866   -1.6460 H   0  0  0  0  0  0  0  0  0  0  0  0
    0.7697   -2.1884   -2.2238 H   0  0  0  0  0  0  0  0  0  0  0  0
    1.5611   -1.0200    0.1976 H   0  0  0  0  0  0  0  0  0  0  0  0
    7.1321   -1.3172   -0.4161 H   0  0  0  0  0  0  0  0  0  0  0  0
    0.9002   -2.9479    1.6239 H   0  0  0  0  0  0  0  0  0  0  0  0
    1.6209   -4.0808    0.4682 H   0  0  0  0  0  0  0  0  0  0  0  0
   -0.6107   -3.8435    0.2581 H   0  0  0  0  0  0  0  0  0  0  0  0
    2.6472   -6.3792    1.3389 H   0  0  0  0  0  0  0  0  0  0  0  0
    3.7159   -7.6503    1.5883 H   0  0  0  0  0  0  0  0  0  0  0  0
    9.7778   -6.7225    1.8480 H   0  0  0  0  0  0  0  0  0  0  0  0
    8.9612   -5.2467    2.3808 H   0  0  0  0  0  0  0  0  0  0  0  0
    8.2178   -6.8434    2.6709 H   0  0  0  0  0  0  0  0  0  0  0  0
  2  1  1  0  0  0  0 
  2  3  1  0  0  0  0 
  4  2  1  0  0  0  0 
  3  5  1  0  0  0  0 
  3  6  1  0  0  0  0 
  4  7  1  0  0  0  0 
  8  4  1  0  0  0  0 
  5  9  1  0  0  0  0 
  5 10  1  0  0  0  0 
  8  6  1  0  0  0  0 
  8 11  1  0  0  0  0 
  9 12  1  0  0  0  0 
  9 13  2  0  0  0  0 
 10 14  2  0  0  0  0 
 11 15  1  0  0  0  0 
 12 14  1  0  0  0  0 
 12 16  2  0  0  0  0 
 13 17  1  0  0  0  0 
 16 18  1  0  0  0  0 
 16 19  1  0  0  0  0 
 17 19  2  0  0  0  0 
 17 20  1  0  0  0  0 
 18 21  1  0  0  0  0 
  1 22  1  0  0  0  0 
  2 23  1  0  0  0  0 
  3 24  1  0  0  0  0 
  4 25  1  0  0  0  0 
  7 26  1  0  0  0  0 
  8 27  1  0  0  0  0 
 10 28  1  0  0  0  0 
 11 29  1  0  0  0  0 
 11 30  1  0  0  0  0 
 15 31  1  0  0  0  0 
 20 32  1  0  0  0  0 
 20 33  1  0  0  0  0 
 21 34  1  0  0  0  0 
 21 35  1  0  0  0  0 
 21 36  1  0  0  0  0 
M  END
> <cdk:Title>
nelarabine

> <Conformer>
1

> <SuperDrugID>
SD001687

$$$$
