diseptal B 
  CDK     0628171801

 37 38  0  0  0  0  0  0  0  0999 V2000
   -0.2945    0.2321   -0.3021 S   0  0  1  0  0  0  0  0  0  0  0  0
   -0.6311   -0.0276    1.3665 N   0  0  0  0  0  0  0  0  0  0  0  0
    1.2733    0.5393   -0.4576 O   0  0  0  0  0  0  0  0  0  0  0  0
   -0.6353   -1.1111   -1.1144 O   0  0  0  0  0  0  0  0  0  0  0  0
   -1.2650    1.5650   -0.9591 C   0  0  0  0  0  0  0  0  0  0  0  0
   -0.1137   -1.0139    2.1616 C   0  0  0  0  0  0  0  0  0  0  0  0
   -0.6892    2.5270   -1.8188 C   0  0  0  0  0  0  0  0  0  0  0  0
   -2.6406    1.6427   -0.6591 C   0  0  0  0  0  0  0  0  0  0  0  0
   -0.5167   -1.0417    3.5165 C   0  0  0  0  0  0  0  0  0  0  0  0
    0.7965   -2.0024    1.7148 C   0  0  0  0  0  0  0  0  0  0  0  0
   -1.4855    3.5390   -2.3890 C   0  0  0  0  0  0  0  0  0  0  0  0
   -3.4365    2.6547   -1.2299 C   0  0  0  0  0  0  0  0  0  0  0  0
   -0.0179   -2.0181    4.4014 C   0  0  0  0  0  0  0  0  0  0  0  0
    1.2932   -2.9805    2.5949 C   0  0  0  0  0  0  0  0  0  0  0  0
   -2.8651    3.5992   -2.1056 C   0  0  0  0  0  0  0  0  0  0  0  0
    0.8975   -2.9890    3.9471 C   0  0  0  0  0  0  0  0  0  0  0  0
   -3.6414    4.5439   -2.6758 N   0  0  0  0  0  0  0  0  0  0  0  0
    1.5772   -4.1897    5.0597 S   0  0  1  0  0  0  0  0  0  0  0  0
    1.7500   -5.7469    4.2471 N   0  0  2  0  0  0  0  0  0  0  0  0
    3.0458   -3.7255    5.5118 O   0  0  0  0  0  0  0  0  0  0  0  0
    0.6714   -4.3677    6.3726 O   0  0  0  0  0  0  0  0  0  0  0  0
    0.4581   -6.4099    4.0076 C   0  0  0  0  0  0  0  0  0  0  0  0
   -1.2444    0.5935    1.7871 H   0  0  0  0  0  0  0  0  0  0  0  0
    0.3073    2.4920   -2.0458 H   0  0  0  0  0  0  0  0  0  0  0  0
   -3.0744    0.9592   -0.0342 H   0  0  0  0  0  0  0  0  0  0  0  0
   -1.1765   -0.3478    3.8733 H   0  0  0  0  0  0  0  0  0  0  0  0
    1.1118   -2.0240    0.7438 H   0  0  0  0  0  0  0  0  0  0  0  0
   -1.0566    4.2255   -3.0154 H   0  0  0  0  0  0  0  0  0  0  0  0
   -4.4347    2.6936   -1.0105 H   0  0  0  0  0  0  0  0  0  0  0  0
   -0.3219   -2.0127    5.3791 H   0  0  0  0  0  0  0  0  0  0  0  0
    1.9474   -3.6813    2.2411 H   0  0  0  0  0  0  0  0  0  0  0  0
   -3.2571    5.1880   -3.2906 H   0  0  0  0  0  0  0  0  0  0  0  0
   -4.5909    4.5724   -2.4808 H   0  0  0  0  0  0  0  0  0  0  0  0
    2.2874   -6.3556    4.8658 H   0  0  0  0  0  0  0  0  0  0  0  0
   -0.0915   -6.5473    4.9414 H   0  0  0  0  0  0  0  0  0  0  0  0
    0.6481   -7.3906    3.5722 H   0  0  0  0  0  0  0  0  0  0  0  0
   -0.1479   -5.8309    3.3096 H   0  0  0  0  0  0  0  0  0  0  0  0
  1  2  1  0  0  0  0 
  1  3  2  0  0  0  0 
  1  4  2  0  0  0  0 
  1  5  1  0  0  0  0 
  2  6  1  0  0  0  0 
  5  7  2  0  0  0  0 
  5  8  1  0  0  0  0 
  6  9  2  0  0  0  0 
  6 10  1  0  0  0  0 
  7 11  1  0  0  0  0 
  8 12  2  0  0  0  0 
  9 13  1  0  0  0  0 
 10 14  2  0  0  0  0 
 11 15  2  0  0  0  0 
 12 15  1  0  0  0  0 
 13 16  2  0  0  0  0 
 14 16  1  0  0  0  0 
 15 17  1  0  0  0  0 
 16 18  1  0  0  0  0 
 18 19  1  0  0  0  0 
 18 20  2  0  0  0  0 
 18 21  2  0  0  0  0 
 19 22  1  0  0  0  0 
  2 23  1  0  0  0  0 
  7 24  1  0  0  0  0 
  8 25  1  0  0  0  0 
  9 26  1  0  0  0  0 
 10 27  1  0  0  0  0 
 11 28  1  0  0  0  0 
 12 29  1  0  0  0  0 
 13 30  1  0  0  0  0 
 14 31  1  0  0  0  0 
 17 32  1  0  0  0  0 
 17 33  1  0  0  0  0 
 19 34  1  0  0  0  0 
 22 35  1  0  0  0  0 
 22 36  1  0  0  0  0 
 22 37  1  0  0  0  0 
M  END
> <cdk:Title>
diseptal B 

> <Conformer>
1

> <SuperDrugID>
SD003225

$$$$
