carbazochrome
  CDK     0628171802

 29 30  0  0  0  0  0  0  0  0999 V2000
   -5.1754   -3.1562   -0.2497 O   0  0  0  0  0  0  0  0  0  0  0  0
   -4.7160   -3.6698    0.9987 C   0  0  2  0  0  0  0  0  0  0  0  0
   -3.2544   -3.6977    1.0513 C   0  0  0  0  0  0  0  0  0  0  0  0
   -5.0726   -5.1674    1.1930 C   0  0  1  0  0  0  0  0  0  0  0  0
   -2.7808   -4.9870    1.2797 C   0  0  0  0  0  0  0  0  0  0  0  0
   -2.3684   -2.6156    0.9087 C   0  0  0  0  0  0  0  0  0  0  0  0
   -3.8248   -5.8446    1.3729 N   0  0  0  0  0  0  0  0  0  0  0  0
   -1.3950   -5.2296    1.3706 C   0  0  0  0  0  0  0  0  0  0  0  0
   -0.9703   -2.8379    0.9938 C   0  0  0  0  0  0  0  0  0  0  0  0
   -3.7206   -7.2521    1.6051 C   0  0  0  0  0  0  0  0  0  0  0  0
   -0.4912   -4.1549    1.2265 C   0  0  0  0  0  0  0  0  0  0  0  0
   -0.0803   -1.8603    0.8546 N   0  0  0  0  0  0  0  0  0  0  0  0
    0.8384   -4.4325    1.3094 O   0  0  0  0  0  0  0  0  0  0  0  0
   -0.2845   -0.6975    0.5151 N   0  0  0  0  0  0  0  0  0  0  0  0
   -0.1759   -0.2489   -0.7222 C   0  0  0  0  0  0  0  0  0  0  0  0
   -0.3855    1.0544   -0.9598 N   0  0  0  0  0  0  0  0  0  0  0  0
    0.1256   -0.9898   -1.6869 O   0  0  0  0  0  0  0  0  0  0  0  0
   -6.1530   -3.2138   -0.2014 H   0  0  0  0  0  0  0  0  0  0  0  0
   -5.1084   -3.0621    1.8167 H   0  0  0  0  0  0  0  0  0  0  0  0
   -5.7104   -5.2988    2.0728 H   0  0  0  0  0  0  0  0  0  0  0  0
   -5.5906   -5.5663    0.3151 H   0  0  0  0  0  0  0  0  0  0  0  0
   -2.7449   -1.6808    0.7419 H   0  0  0  0  0  0  0  0  0  0  0  0
   -1.0433   -6.1763    1.5346 H   0  0  0  0  0  0  0  0  0  0  0  0
   -3.1422   -7.7148    0.8039 H   0  0  0  0  0  0  0  0  0  0  0  0
   -4.7050   -7.7264    1.6344 H   0  0  0  0  0  0  0  0  0  0  0  0
   -3.2236   -7.4364    2.5607 H   0  0  0  0  0  0  0  0  0  0  0  0
    1.3056   -3.5729    1.2652 H   0  0  0  0  0  0  0  0  0  0  0  0
   -0.3077    1.4005   -1.8630 H   0  0  0  0  0  0  0  0  0  0  0  0
   -0.6167    1.6531   -0.2320 H   0  0  0  0  0  0  0  0  0  0  0  0
  2  1  1  0  0  0  0 
  2  3  1  0  0  0  0 
  2  4  1  0  0  0  0 
  3  5  2  0  0  0  0 
  3  6  1  0  0  0  0 
  4  7  1  0  0  0  0 
  5  7  1  0  0  0  0 
  5  8  1  0  0  0  0 
  6  9  2  0  0  0  0 
  7 10  1  0  0  0  0 
  8 11  2  0  0  0  0 
  9 11  1  0  0  0  0 
 12  9  1  0  0  0  0 
 11 13  1  0  0  0  0 
 12 14  2  0  0  0  0 
 14 15  1  0  0  0  0 
 15 16  1  0  0  0  0 
 15 17  2  0  0  0  0 
 18  1  1  0  0  0  0 
 19  2  1  0  0  0  0 
 20  4  1  0  0  0  0 
 21  4  1  0  0  0  0 
 22  6  1  0  0  0  0 
 23  8  1  0  0  0  0 
 24 10  1  0  0  0  0 
 25 10  1  0  0  0  0 
 26 10  1  0  0  0  0 
 27 13  1  0  0  0  0 
 28 16  1  0  0  0  0 
 29 16  1  0  0  0  0 
M  END
> <cdk:Title>
carbazochrome

> <Conformer>
1

> <SuperDrugID>
SD000424

$$$$
