faropenem medoxil
  CDK     0628171802

 46 49  0  0  0  0  0  0  0  0999 V2000
   -4.2145   -1.0971   -0.9103 N   0  0  0  0  0  0  0  0  0  0  0  0
   -5.0127   -1.9409   -0.2576 C   0  0  0  0  0  0  0  0  0  0  0  0
   -6.2186   -1.3959   -0.8879 C   0  0  1  0  0  0  0  0  0  0  0  0
   -5.2253   -0.4979   -1.6991 C   0  0  1  0  0  0  0  0  0  0  0  0
   -4.6845    1.1814   -1.2194 S   0  0  0  0  0  0  0  0  0  0  0  0
   -3.0596    0.7469   -0.7513 C   0  0  0  0  0  0  0  0  0  0  0  0
   -3.0000   -0.5978   -0.6701 C   0  0  0  0  0  0  0  0  0  0  0  0
   -1.9965    1.7303   -0.5487 C   0  0  2  0  0  0  0  0  0  0  0  0
   -2.5522    3.0476   -0.3736 O   0  0  0  0  0  0  0  0  0  0  0  0
   -1.8858    3.9470   -1.2629 C   0  0  2  0  0  0  0  0  0  0  0  0
   -1.4033    3.0937   -2.4404 C   0  0  2  0  0  0  0  0  0  0  0  0
   -0.9990    1.7973   -1.7345 C   0  0  1  0  0  0  0  0  0  0  0  0
   -4.8292   -2.7366    0.6903 O   0  0  0  0  0  0  0  0  0  0  0  0
   -5.0901   -0.7346   -2.7592 H   0  0  0  0  0  0  0  0  0  0  0  0
   -7.0592   -2.4020   -1.7220 C   0  0  2  0  0  0  0  0  0  0  0  0
   -6.8187   -0.8186   -0.1788 H   0  0  0  0  0  0  0  0  0  0  0  0
   -8.0016   -1.6816   -2.5160 O   0  0  0  0  0  0  0  0  0  0  0  0
   -7.8330   -3.4111   -0.8419 C   0  0  0  0  0  0  0  0  0  0  0  0
   -1.9134   -1.3985   -0.3391 C   0  0  0  0  0  0  0  0  0  0  0  0
   -1.9724   -2.6327   -0.5500 O   0  0  0  0  0  0  0  0  0  0  0  0
   -0.7798   -0.8697    0.2037 O   0  0  0  0  0  0  0  0  0  0  0  0
    0.3676   -1.5730    0.6888 C   0  0  2  0  0  0  0  0  0  0  0  0
    1.3668   -0.5686    1.0914 C   0  0  0  0  0  0  0  0  0  0  0  0
    1.9658    0.2773    0.2238 O   0  0  0  0  0  0  0  0  0  0  0  0
    2.8024    1.0463    0.9558 C   0  0  0  0  0  0  0  0  0  0  0  0
    2.7525    0.7197    2.2654 O   0  0  0  0  0  0  0  0  0  0  0  0
    1.8607   -0.2900    2.3689 C   0  0  0  0  0  0  0  0  0  0  0  0
    1.5004   -0.9439    3.6362 C   0  0  0  0  0  0  0  0  0  0  0  0
    3.5324    1.9449    0.4848 O   0  0  0  0  0  0  0  0  0  0  0  0
   -1.4633    1.5071    0.3784 H   0  0  0  0  0  0  0  0  0  0  0  0
   -1.0367    4.4129   -0.7527 H   0  0  0  0  0  0  0  0  0  0  0  0
   -2.5774    4.7265   -1.5887 H   0  0  0  0  0  0  0  0  0  0  0  0
   -0.5672    3.5585   -2.9673 H   0  0  0  0  0  0  0  0  0  0  0  0
   -2.2278    2.9099   -3.1358 H   0  0  0  0  0  0  0  0  0  0  0  0
    0.0276    1.8794   -1.3613 H   0  0  0  0  0  0  0  0  0  0  0  0
   -1.0543    0.9415   -2.4142 H   0  0  0  0  0  0  0  0  0  0  0  0
   -6.4070   -2.9607   -2.3992 H   0  0  0  0  0  0  0  0  0  0  0  0
   -7.4604   -1.1252   -3.1141 H   0  0  0  0  0  0  0  0  0  0  0  0
   -8.4937   -4.0138   -1.4677 H   0  0  0  0  0  0  0  0  0  0  0  0
   -8.4373   -2.8865   -0.0994 H   0  0  0  0  0  0  0  0  0  0  0  0
   -7.1444   -4.0833   -0.3270 H   0  0  0  0  0  0  0  0  0  0  0  0
    0.7992   -2.2072   -0.0883 H   0  0  0  0  0  0  0  0  0  0  0  0
    0.0721   -2.2011    1.5323 H   0  0  0  0  0  0  0  0  0  0  0  0
    0.4313   -0.8294    3.8176 H   0  0  0  0  0  0  0  0  0  0  0  0
    2.0480   -0.4880    4.4616 H   0  0  0  0  0  0  0  0  0  0  0  0
    1.7504   -2.0046    3.5946 H   0  0  0  0  0  0  0  0  0  0  0  0
  1  2  1  0  0  0  0 
  4  1  1  0  0  0  0 
  2  3  1  0  0  0  0 
  3  4  1  0  0  0  0 
  5  6  1  0  0  0  0 
  6  7  2  0  0  0  0 
  4  5  1  0  0  0  0 
  1  7  1  0  0  0  0 
  8  6  1  0  0  0  0 
  9 10  1  0  0  0  0 
 10 11  1  0  0  0  0 
 11 12  1  0  0  0  0 
  8  9  1  0  0  0  0 
  8 12  1  0  0  0  0 
  2 13  2  0  0  0  0 
  4 14  1  0  0  0  0 
  3 15  1  0  0  0  0 
  3 16  1  0  0  0  0 
 15 17  1  0  0  0  0 
 15 18  1  0  0  0  0 
  7 19  1  0  0  0  0 
 19 20  2  0  0  0  0 
 19 21  1  0  0  0  0 
 21 22  1  0  0  0  0 
 22 23  1  0  0  0  0 
 24 25  1  0  0  0  0 
 25 26  1  0  0  0  0 
 26 27  1  0  0  0  0 
 23 24  1  0  0  0  0 
 23 27  2  0  0  0  0 
 27 28  1  0  0  0  0 
 25 29  2  0  0  0  0 
  8 30  1  0  0  0  0 
 10 31  1  0  0  0  0 
 10 32  1  0  0  0  0 
 11 33  1  0  0  0  0 
 11 34  1  0  0  0  0 
 12 35  1  0  0  0  0 
 12 36  1  0  0  0  0 
 15 37  1  0  0  0  0 
 17 38  1  0  0  0  0 
 18 39  1  0  0  0  0 
 18 40  1  0  0  0  0 
 18 41  1  0  0  0  0 
 22 42  1  0  0  0  0 
 22 43  1  0  0  0  0 
 28 44  1  0  0  0  0 
 28 45  1  0  0  0  0 
 28 46  1  0  0  0  0 
M  END
> <cdk:Title>
faropenem medoxil

> <Conformer>
1

> <SuperDrugID>
SD003919

$$$$
