dibutylphthalate
  CDK     0628171801

 42 42  0  0  0  0  0  0  0  0999 V2000
   -1.9545    1.1513    0.4199 C   0  0  0  0  0  0  0  0  0  0  0  0
   -1.2401    1.6662   -0.6241 O   0  0  0  0  0  0  0  0  0  0  0  0
   -1.4184    1.0876    1.5524 O   0  0  0  0  0  0  0  0  0  0  0  0
   -3.2658    0.6422    0.1988 C   0  0  0  0  0  0  0  0  0  0  0  0
    0.0398    2.3079   -0.5660 C   0  0  2  0  0  0  0  0  0  0  0  0
   -4.3190    0.7017    1.1686 C   0  0  0  0  0  0  0  0  0  0  0  0
   -3.5210    0.0204   -1.0498 C   0  0  0  0  0  0  0  0  0  0  0  0
    0.6694    2.3614   -1.9765 C   0  0  2  0  0  0  0  0  0  0  0  0
   -4.2039    1.3625    2.4247 C   0  0  0  0  0  0  0  0  0  0  0  0
   -5.5633    0.0935    0.8644 C   0  0  0  0  0  0  0  0  0  0  0  0
   -4.7680   -0.5598   -1.3342 C   0  0  0  0  0  0  0  0  0  0  0  0
    1.0388    0.9494   -2.5126 C   0  0  1  0  0  0  0  0  0  0  0  0
   -4.8778    0.8808    3.5106 O   0  0  0  0  0  0  0  0  0  0  0  0
   -3.5331    2.4162    2.5421 O   0  0  0  0  0  0  0  0  0  0  0  0
   -5.7861   -0.5318   -0.3734 C   0  0  0  0  0  0  0  0  0  0  0  0
    1.7111    0.9871   -3.9001 C   0  0  0  0  0  0  0  0  0  0  0  0
   -4.7980    1.3545    4.8606 C   0  0  1  0  0  0  0  0  0  0  0  0
   -6.0012    0.8305    5.6771 C   0  0  2  0  0  0  0  0  0  0  0  0
   -7.3496    1.4394    5.1993 C   0  0  2  0  0  0  0  0  0  0  0  0
   -8.5565    0.9633    6.0332 C   0  0  0  0  0  0  0  0  0  0  0  0
    0.7104    1.7732    0.1117 H   0  0  0  0  0  0  0  0  0  0  0  0
   -0.0972    3.3238   -0.1857 H   0  0  0  0  0  0  0  0  0  0  0  0
   -2.7958   -0.0320   -1.7708 H   0  0  0  0  0  0  0  0  0  0  0  0
    1.5733    2.9759   -1.9268 H   0  0  0  0  0  0  0  0  0  0  0  0
   -0.0316    2.8470   -2.6630 H   0  0  0  0  0  0  0  0  0  0  0  0
   -6.3354    0.1074    1.5367 H   0  0  0  0  0  0  0  0  0  0  0  0
   -4.9297   -1.0059   -2.2393 H   0  0  0  0  0  0  0  0  0  0  0  0
    1.7258    0.4674   -1.8112 H   0  0  0  0  0  0  0  0  0  0  0  0
    0.1369    0.3340   -2.5803 H   0  0  0  0  0  0  0  0  0  0  0  0
   -6.6916   -0.9612   -0.5735 H   0  0  0  0  0  0  0  0  0  0  0  0
    1.9978   -0.0240   -4.1928 H   0  0  0  0  0  0  0  0  0  0  0  0
    2.6078    1.6088   -3.8741 H   0  0  0  0  0  0  0  0  0  0  0  0
    1.0209    1.3853   -4.6446 H   0  0  0  0  0  0  0  0  0  0  0  0
   -3.8669    0.9900    5.3028 H   0  0  0  0  0  0  0  0  0  0  0  0
   -4.7883    2.4472    4.8875 H   0  0  0  0  0  0  0  0  0  0  0  0
   -5.8418    1.0881    6.7285 H   0  0  0  0  0  0  0  0  0  0  0  0
   -6.0385   -0.2608    5.5990 H   0  0  0  0  0  0  0  0  0  0  0  0
   -7.5236    1.1723    4.1528 H   0  0  0  0  0  0  0  0  0  0  0  0
   -7.2950    2.5297    5.2660 H   0  0  0  0  0  0  0  0  0  0  0  0
   -9.4593    1.4689    5.6879 H   0  0  0  0  0  0  0  0  0  0  0  0
   -8.4088    1.1982    7.0889 H   0  0  0  0  0  0  0  0  0  0  0  0
   -8.6928   -0.1130    5.9218 H   0  0  0  0  0  0  0  0  0  0  0  0
  1  2  1  0  0  0  0 
  1  3  2  0  0  0  0 
  1  4  1  0  0  0  0 
  2  5  1  0  0  0  0 
  4  6  2  0  0  0  0 
  4  7  1  0  0  0  0 
  5  8  1  0  0  0  0 
  6  9  1  0  0  0  0 
  6 10  1  0  0  0  0 
  7 11  2  0  0  0  0 
  8 12  1  0  0  0  0 
  9 13  1  0  0  0  0 
  9 14  2  0  0  0  0 
 10 15  2  0  0  0  0 
 11 15  1  0  0  0  0 
 12 16  1  0  0  0  0 
 13 17  1  0  0  0  0 
 17 18  1  0  0  0  0 
 18 19  1  0  0  0  0 
 19 20  1  0  0  0  0 
  5 21  1  0  0  0  0 
  5 22  1  0  0  0  0 
  7 23  1  0  0  0  0 
  8 24  1  0  0  0  0 
  8 25  1  0  0  0  0 
 10 26  1  0  0  0  0 
 11 27  1  0  0  0  0 
 12 28  1  0  0  0  0 
 12 29  1  0  0  0  0 
 15 30  1  0  0  0  0 
 16 31  1  0  0  0  0 
 16 32  1  0  0  0  0 
 16 33  1  0  0  0  0 
 17 34  1  0  0  0  0 
 17 35  1  0  0  0  0 
 18 36  1  0  0  0  0 
 18 37  1  0  0  0  0 
 19 38  1  0  0  0  0 
 19 39  1  0  0  0  0 
 20 40  1  0  0  0  0 
 20 41  1  0  0  0  0 
 20 42  1  0  0  0  0 
M  END
> <cdk:Title>
dibutylphthalate

> <Conformer>
1

> <SuperDrugID>
SD003554

$$$$
