phenosulfazole
  CDK     0628171801

 24 25  0  0  0  0  0  0  0  0999 V2000
   -2.6141    2.8722    0.0932 S   0  0  1  0  0  0  0  0  0  0  0  0
   -1.7006    1.4800    0.5098 N   0  0  0  0  0  0  0  0  0  0  0  0
   -3.1109    2.7148   -1.4254 O   0  0  0  0  0  0  0  0  0  0  0  0
   -3.9179    2.8928    1.0315 O   0  0  0  0  0  0  0  0  0  0  0  0
   -1.6956    4.3712    0.3203 C   0  0  0  0  0  0  0  0  0  0  0  0
   -0.3963    1.2800    0.2216 C   0  0  0  0  0  0  0  0  0  0  0  0
   -1.3881    5.1924   -0.7861 C   0  0  0  0  0  0  0  0  0  0  0  0
   -1.2505    4.7463    1.6062 C   0  0  0  0  0  0  0  0  0  0  0  0
    0.2861    0.1712    0.5889 N   0  0  0  0  0  0  0  0  0  0  0  0
    0.7386    2.2996   -0.6545 S   0  0  0  0  0  0  0  0  0  0  0  0
   -0.6369    6.3683   -0.6102 C   0  0  0  0  0  0  0  0  0  0  0  0
   -0.4992    5.9250    1.7795 C   0  0  0  0  0  0  0  0  0  0  0  0
    1.5959    0.1065    0.2254 C   0  0  0  0  0  0  0  0  0  0  0  0
    2.0944    1.2046   -0.4808 C   0  0  0  0  0  0  0  0  0  0  0  0
   -0.1908    6.7391    0.6731 C   0  0  0  0  0  0  0  0  0  0  0  0
    0.5420    7.8663    0.8601 O   0  0  0  0  0  0  0  0  0  0  0  0
   -2.1655    0.7654    0.9732 H   0  0  0  0  0  0  0  0  0  0  0  0
   -1.6979    4.9375   -1.7262 H   0  0  0  0  0  0  0  0  0  0  0  0
   -1.4620    4.1621    2.4193 H   0  0  0  0  0  0  0  0  0  0  0  0
   -0.4083    6.9479   -1.4202 H   0  0  0  0  0  0  0  0  0  0  0  0
   -0.1688    6.1848    2.7112 H   0  0  0  0  0  0  0  0  0  0  0  0
    2.1794   -0.6999    0.4551 H   0  0  0  0  0  0  0  0  0  0  0  0
    3.0456    1.3443   -0.8230 H   0  0  0  0  0  0  0  0  0  0  0  0
    0.7158    8.2214   -0.0383 H   0  0  0  0  0  0  0  0  0  0  0  0
  1  2  1  0  0  0  0 
  1  3  2  0  0  0  0 
  1  4  2  0  0  0  0 
  1  5  1  0  0  0  0 
  2  6  1  0  0  0  0 
  5  7  2  0  0  0  0 
  5  8  1  0  0  0  0 
  6  9  2  0  0  0  0 
  6 10  1  0  0  0  0 
  7 11  1  0  0  0  0 
  8 12  2  0  0  0  0 
  9 13  1  0  0  0  0 
 10 14  1  0  0  0  0 
 11 15  2  0  0  0  0 
 12 15  1  0  0  0  0 
 13 14  2  0  0  0  0 
 15 16  1  0  0  0  0 
  2 17  1  0  0  0  0 
  7 18  1  0  0  0  0 
  8 19  1  0  0  0  0 
 11 20  1  0  0  0  0 
 12 21  1  0  0  0  0 
 13 22  1  0  0  0  0 
 14 23  1  0  0  0  0 
 16 24  1  0  0  0  0 
M  END
> <cdk:Title>
phenosulfazole

> <Conformer>
1

> <SuperDrugID>
SD003252

$$$$
