alectinib
  CDK     0628171802

 70 75  0  0  0  0  0  0  0  0999 V2000
   -5.4920   -0.9220    5.0626 C   0  0  0  0  0  0  0  0  0  0  0  0
   -4.8992   -0.5349    3.8348 C   0  0  0  0  0  0  0  0  0  0  0  0
   -4.0564    0.6128    3.8180 C   0  0  0  0  0  0  0  0  0  0  0  0
   -3.7878    1.2631    5.0433 C   0  0  0  0  0  0  0  0  0  0  0  0
   -4.2976    0.8329    6.2912 C   0  0  0  0  0  0  0  0  0  0  0  0
   -5.2176   -0.2577    6.2852 C   0  0  0  0  0  0  0  0  0  0  0  0
   -5.8302   -0.6875    7.5056 C   0  0  0  0  0  0  0  0  0  0  0  0
   -3.8226    1.5061    7.5768 C   0  0  1  0  0  0  0  0  0  0  0  0
   -4.4896    0.9155    8.7824 C   0  0  0  0  0  0  0  0  0  0  0  0
   -5.4499   -0.0953    8.7260 C   0  0  0  0  0  0  0  0  0  0  0  0
   -4.2935    1.2447   10.0773 N   0  0  0  0  0  0  0  0  0  0  0  0
   -5.1026    0.5063   10.8515 C   0  0  0  0  0  0  0  0  0  0  0  0
   -5.8590   -0.3383   10.0397 C   0  0  0  0  0  0  0  0  0  0  0  0
   -6.8105   -1.2104   10.6045 C   0  0  0  0  0  0  0  0  0  0  0  0
   -6.9774   -1.2190   12.0056 C   0  0  0  0  0  0  0  0  0  0  0  0
   -6.2010   -0.3660   12.8313 C   0  0  0  0  0  0  0  0  0  0  0  0
   -5.2491    0.5067   12.2486 C   0  0  0  0  0  0  0  0  0  0  0  0
   -6.3657   -0.3893   14.1252 C   0  0  0  0  0  0  0  0  0  0  0  0
   -6.6984   -1.5914    7.5199 O   0  0  0  0  0  0  0  0  0  0  0  0
   -2.2844    1.2549    7.7245 C   0  0  0  0  0  0  0  0  0  0  0  0
   -4.1272    3.0471    7.5776 C   0  0  0  0  0  0  0  0  0  0  0  0
   -5.1435   -1.3972    2.6342 C   0  0  2  0  0  0  0  0  0  0  0  0
   -6.6123   -1.4209    2.1425 C   0  0  0  0  0  0  0  0  0  0  0  0
   -3.4737    1.1487    2.6776 N   0  0  0  0  0  0  0  0  0  0  0  0
   -4.2757    1.5864    1.5540 C   0  0  2  0  0  0  0  0  0  0  0  0
   -4.1353    3.1185    1.3734 C   0  0  1  0  0  0  0  0  0  0  0  0
   -2.6396    3.5351    1.2353 C   0  0  2  0  0  0  0  0  0  0  0  0
   -1.8217    2.9684    2.4382 C   0  0  2  0  0  0  0  0  0  0  0  0
   -2.0506    1.4380    2.6032 C   0  0  2  0  0  0  0  0  0  0  0  0
   -2.4627    5.0057    0.9724 N   0  0  2  0  0  0  0  0  0  0  0  0
   -1.1050    5.3959    0.4741 C   0  0  2  0  0  0  0  0  0  0  0  0
   -1.1143    6.8544   -0.0463 C   0  0  2  0  0  0  0  0  0  0  0  0
   -1.6478    7.7590    0.9418 O   0  0  0  0  0  0  0  0  0  0  0  0
   -2.9677    7.4002    1.3960 C   0  0  2  0  0  0  0  0  0  0  0  0
   -2.9809    5.9717    1.9909 C   0  0  1  0  0  0  0  0  0  0  0  0
   -6.5167   -0.4148   15.2635 N   0  0  0  0  0  0  0  0  0  0  0  0
   -6.1219   -1.7296    5.0662 H   0  0  0  0  0  0  0  0  0  0  0  0
   -3.1808    2.0792    5.0234 H   0  0  0  0  0  0  0  0  0  0  0  0
   -3.6696    1.9133   10.4019 H   0  0  0  0  0  0  0  0  0  0  0  0
   -7.3773   -1.8281   10.0234 H   0  0  0  0  0  0  0  0  0  0  0  0
   -7.6721   -1.8531   12.4132 H   0  0  0  0  0  0  0  0  0  0  0  0
   -4.6702    1.1323   12.8162 H   0  0  0  0  0  0  0  0  0  0  0  0
   -1.7282    1.6823    6.8878 H   0  0  0  0  0  0  0  0  0  0  0  0
   -1.8885    1.7069    8.6365 H   0  0  0  0  0  0  0  0  0  0  0  0
   -2.0721    0.1821    7.7534 H   0  0  0  0  0  0  0  0  0  0  0  0
   -3.6286    3.5401    6.6846 H   0  0  0  0  0  0  0  0  0  0  0  0
   -3.8769    3.4833    8.5997 H   0  0  0  0  0  0  0  0  0  0  0  0
   -5.2012    3.1997    7.4411 H   0  0  0  0  0  0  0  0  0  0  0  0
   -4.8468   -2.4221    2.8721 H   0  0  0  0  0  0  0  0  0  0  0  0
   -4.5169   -1.1011    1.7945 H   0  0  0  0  0  0  0  0  0  0  0  0
   -6.6878   -2.0614    1.2600 H   0  0  0  0  0  0  0  0  0  0  0  0
   -6.9448   -0.4174    1.8724 H   0  0  0  0  0  0  0  0  0  0  0  0
   -7.2812   -1.8192    2.9094 H   0  0  0  0  0  0  0  0  0  0  0  0
   -5.3352    1.3658    1.6892 H   0  0  0  0  0  0  0  0  0  0  0  0
   -3.9501    1.0740    0.6433 H   0  0  0  0  0  0  0  0  0  0  0  0
   -4.6926    3.4311    0.4875 H   0  0  0  0  0  0  0  0  0  0  0  0
   -4.5914    3.5933    2.2456 H   0  0  0  0  0  0  0  0  0  0  0  0
   -2.2817    3.0245    0.3349 H   0  0  0  0  0  0  0  0  0  0  0  0
   -2.1167    3.4803    3.3578 H   0  0  0  0  0  0  0  0  0  0  0  0
   -0.7561    3.1471    2.2831 H   0  0  0  0  0  0  0  0  0  0  0  0
   -1.6192    0.9190    1.7430 H   0  0  0  0  0  0  0  0  0  0  0  0
   -1.4988    1.0923    3.4837 H   0  0  0  0  0  0  0  0  0  0  0  0
   -0.7868    4.7419   -0.3423 H   0  0  0  0  0  0  0  0  0  0  0  0
   -0.3700    5.3186    1.2800 H   0  0  0  0  0  0  0  0  0  0  0  0
   -1.6911    6.9247   -0.9737 H   0  0  0  0  0  0  0  0  0  0  0  0
   -0.0890    7.1589   -0.2652 H   0  0  0  0  0  0  0  0  0  0  0  0
   -3.6843    7.4704    0.5709 H   0  0  0  0  0  0  0  0  0  0  0  0
   -3.2691    8.1123    2.1658 H   0  0  0  0  0  0  0  0  0  0  0  0
   -4.0096    5.7506    2.2732 H   0  0  0  0  0  0  0  0  0  0  0  0
   -2.3652    5.9453    2.8933 H   0  0  0  0  0  0  0  0  0  0  0  0
  1  2  2  0  0  0  0 
  1  6  1  0  0  0  0 
  2  3  1  0  0  0  0 
  3  4  2  0  0  0  0 
  4  5  1  0  0  0  0 
  5  6  2  0  0  0  0 
  8  9  1  0  0  0  0 
  9 10  2  0  0  0  0 
  7 10  1  0  0  0  0 
  5  8  1  0  0  0  0 
  7  6  1  0  0  0  0 
 11 12  1  0  0  0  0 
  9 11  1  0  0  0  0 
 10 13  1  0  0  0  0 
 14 15  1  0  0  0  0 
 15 16  2  0  0  0  0 
 16 17  1  0  0  0  0 
 12 17  2  0  0  0  0 
 13 14  2  0  0  0  0 
 12 13  1  0  0  0  0 
 16 18  1  0  0  0  0 
  7 19  2  0  0  0  0 
  8 20  1  0  0  0  0 
  8 21  1  0  0  0  0 
  2 22  1  0  0  0  0 
 22 23  1  0  0  0  0 
  3 24  1  0  0  0  0 
 25 26  1  0  0  0  0 
 26 27  1  0  0  0  0 
 27 28  1  0  0  0  0 
 28 29  1  0  0  0  0 
 24 25  1  0  0  0  0 
 24 29  1  0  0  0  0 
 27 30  1  0  0  0  0 
 31 32  1  0  0  0  0 
 32 33  1  0  0  0  0 
 33 34  1  0  0  0  0 
 34 35  1  0  0  0  0 
 30 31  1  0  0  0  0 
 30 35  1  0  0  0  0 
 18 36  3  0  0  0  0 
  1 37  1  0  0  0  0 
  4 38  1  0  0  0  0 
 11 39  1  0  0  0  0 
 14 40  1  0  0  0  0 
 15 41  1  0  0  0  0 
 17 42  1  0  0  0  0 
 20 43  1  0  0  0  0 
 20 44  1  0  0  0  0 
 20 45  1  0  0  0  0 
 21 46  1  0  0  0  0 
 21 47  1  0  0  0  0 
 21 48  1  0  0  0  0 
 22 49  1  0  0  0  0 
 22 50  1  0  0  0  0 
 23 51  1  0  0  0  0 
 23 52  1  0  0  0  0 
 23 53  1  0  0  0  0 
 25 54  1  0  0  0  0 
 25 55  1  0  0  0  0 
 26 56  1  0  0  0  0 
 26 57  1  0  0  0  0 
 27 58  1  0  0  0  0 
 28 59  1  0  0  0  0 
 28 60  1  0  0  0  0 
 29 61  1  0  0  0  0 
 29 62  1  0  0  0  0 
 31 63  1  0  0  0  0 
 31 64  1  0  0  0  0 
 32 65  1  0  0  0  0 
 32 66  1  0  0  0  0 
 34 67  1  0  0  0  0 
 34 68  1  0  0  0  0 
 35 69  1  0  0  0  0 
 35 70  1  0  0  0  0 
M  END
> <cdk:Title>
alectinib

> <Conformer>
1

> <SuperDrugID>
SD003854

$$$$
