telavancin
  CDK     0628171801

227236  0  0  0  0  0  0  0  0999 V2000
    3.8019    0.6062   -7.7246 O   0  0  0  0  0  0  0  0  0  0  0  0
    5.1401    0.4780   -8.0274 C   0  0  0  0  0  0  0  0  0  0  0  0
    2.7903    0.5454   -8.7627 C   0  0  1  0  0  0  0  0  0  0  0  0
    5.9156   -0.4765   -7.3254 C   0  0  0  0  0  0  0  0  0  0  0  0
    5.7937    1.3846   -8.8880 C   0  0  0  0  0  0  0  0  0  0  0  0
    1.8295    1.7611   -8.5385 C   0  0  2  0  0  0  0  0  0  0  0  0
    3.3209    0.4815  -10.1139 O   0  0  0  0  0  0  0  0  0  0  0  0
    7.3150   -0.5543   -7.5308 C   0  0  0  0  0  0  0  0  0  0  0  0
    5.3111   -1.2425   -6.3555 O   0  0  0  0  0  0  0  0  0  0  0  0
    7.1731    1.2223   -9.1416 C   0  0  0  0  0  0  0  0  0  0  0  0
    5.1209    2.5059   -9.3484 O   0  0  0  0  0  0  0  0  0  0  0  0
    1.2367    1.5893   -7.2185 O   0  0  0  0  0  0  0  0  0  0  0  0
    0.8145    1.8910   -9.7200 C   0  0  1  0  0  0  0  0  0  0  0  0
    2.3424    0.4674  -11.1753 C   0  0  1  0  0  0  0  0  0  0  0  0
    7.9906    0.3601   -8.3761 C   0  0  0  0  0  0  0  0  0  0  0  0
    5.5647   -0.7645   -5.0825 C   0  0  0  0  0  0  0  0  0  0  0  0
    5.7851    3.6333   -8.9083 C   0  0  0  0  0  0  0  0  0  0  0  0
    0.2015    2.4934   -6.7571 C   0  0  1  0  0  0  0  0  0  0  0  0
    0.1535    3.1555   -9.6761 O   0  0  0  0  0  0  0  0  0  0  0  0
    1.5046    1.7738  -11.1055 C   0  0  1  0  0  0  0  0  0  0  0  0
    3.0755    0.3083  -12.5320 C   0  0  2  0  0  0  0  0  0  0  0  0
    9.5022    0.4570   -8.4152 C   0  0  2  0  0  0  0  0  0  0  0  0
    6.2051   -1.5850   -4.1269 C   0  0  0  0  0  0  0  0  0  0  0  0
    5.2030    0.5464   -4.7009 C   0  0  0  0  0  0  0  0  0  0  0  0
    6.5705    4.3788   -9.8149 C   0  0  0  0  0  0  0  0  0  0  0  0
    5.8420    3.9399   -7.5321 C   0  0  0  0  0  0  0  0  0  0  0  0
   -0.1835    2.2264   -5.2664 C   0  0  1  0  0  0  0  0  0  0  0  0
    0.4862    3.8922   -6.9863 O   0  0  0  0  0  0  0  0  0  0  0  0
    0.5139    1.8106  -12.1343 O   0  0  0  0  0  0  0  0  0  0  0  0
    3.8142   -0.9084  -12.5659 O   0  0  0  0  0  0  0  0  0  0  0  0
   10.1645    0.4763   -7.0768 C   0  0  0  0  0  0  0  0  0  0  0  0
    9.9178    1.4481   -9.4016 N   0  0  0  0  0  0  0  0  0  0  0  0
    6.5994   -3.1944   -4.4839 Cl  0  0  0  0  0  0  0  0  0  0  0  0
    6.5550   -1.0646   -2.8627 C   0  0  0  0  0  0  0  0  0  0  0  0
    5.5389    1.0578   -3.4411 C   0  0  0  0  0  0  0  0  0  0  0  0
    6.4289    4.1376  -11.4861 Cl  0  0  0  0  0  0  0  0  0  0  0  0
    7.5353    5.2822   -9.3297 C   0  0  0  0  0  0  0  0  0  0  0  0
    6.7975    4.8503   -7.0563 C   0  0  0  0  0  0  0  0  0  0  0  0
    0.7882    2.8705   -4.2160 C   0  0  1  0  0  0  0  0  0  0  0  0
    1.4934    4.4767   -6.1379 C   0  0  2  0  0  0  0  0  0  0  0  0
   11.3739    0.1523   -7.0369 O   0  0  0  0  0  0  0  0  0  0  0  0
    9.4911    0.8513   -5.9403 N   0  0  0  0  0  0  0  0  0  0  0  0
   10.4241    2.7417   -9.4862 C   0  0  0  0  0  0  0  0  0  0  0  0
    6.2823    0.2846   -2.5250 C   0  0  0  0  0  0  0  0  0  0  0  0
    7.7004    5.4943   -7.9391 C   0  0  0  0  0  0  0  0  0  0  0  0
    0.1810    2.9670   -2.8497 N   0  0  1  0  0  0  0  0  0  0  0  0
    2.1216    2.0701   -4.1115 C   0  0  0  0  0  0  0  0  0  0  0  0
    1.0680    4.3582   -4.6397 C   0  0  1  0  0  0  0  0  0  0  0  0
    1.7121    5.9391   -6.5981 C   0  0  0  0  0  0  0  0  0  0  0  0
   10.0077    1.2205   -4.6415 C   0  0  2  0  0  0  0  0  0  0  0  0
   10.2371    3.1541  -10.6559 O   0  0  0  0  0  0  0  0  0  0  0  0
   11.2164    3.6871   -8.6143 C   0  0  2  0  0  0  0  0  0  0  0  0
    6.7792    0.9396   -1.2765 C   0  0  1  0  0  0  0  0  0  0  0  0
    8.7179    6.4198   -7.3602 C   0  0  1  0  0  0  0  0  0  0  0  0
   -0.3087    1.7634   -2.1394 C   0  0  2  0  0  0  0  0  0  0  0  0
   -0.1020    5.1567   -4.4160 O   0  0  0  0  0  0  0  0  0  0  0  0
   10.8625    0.2071   -3.9198 C   0  0  0  0  0  0  0  0  0  0  0  0
    8.9005    1.8518   -3.8389 C   0  0  0  0  0  0  0  0  0  0  0  0
   11.1349    3.6016   -7.0766 C   0  0  1  0  0  0  0  0  0  0  0  0
   11.3721    5.0069   -9.1908 N   0  0  0  0  0  0  0  0  0  0  0  0
    7.3175   -0.0141   -0.3622 O   0  0  0  0  0  0  0  0  0  0  0  0
    7.8025    2.0993   -1.5644 C   0  0  2  0  0  0  0  0  0  0  0  0
    9.2794    5.9014   -6.1581 O   0  0  0  0  0  0  0  0  0  0  0  0
    9.8209    7.0427   -8.2804 C   0  0  2  0  0  0  0  0  0  0  0  0
   -0.8674    2.1712   -0.7596 C   0  0  1  0  0  0  0  0  0  0  0  0
   10.3405   -0.5729   -2.8621 C   0  0  0  0  0  0  0  0  0  0  0  0
   12.2634    0.1476   -4.1275 C   0  0  0  0  0  0  0  0  0  0  0  0
    8.0379    2.5429   -4.4331 O   0  0  0  0  0  0  0  0  0  0  0  0
    8.8343    1.7226   -2.4733 N   0  0  0  0  0  0  0  0  0  0  0  0
   12.0889    4.4395   -6.3040 C   0  0  0  0  0  0  0  0  0  0  0  0
   10.8586    6.2842   -9.0686 C   0  0  0  0  0  0  0  0  0  0  0  0
    8.3791    2.6501   -0.3031 C   0  0  0  0  0  0  0  0  0  0  0  0
   10.5131    8.0320   -7.4880 N   0  0  0  0  0  0  0  0  0  0  0  0
   -1.4477    0.9884   -0.0802 N   0  0  2  0  0  0  0  0  0  0  0  0
   11.1781   -0.9887   -1.8110 C   0  0  0  0  0  0  0  0  0  0  0  0
   13.0990   -0.5639   -3.2453 C   0  0  0  0  0  0  0  0  0  0  0  0
   13.0713    3.8834   -5.5658 N   0  0  0  0  0  0  0  0  0  0  0  0
   12.0259    5.6866   -6.2947 O   0  0  0  0  0  0  0  0  0  0  0  0
   11.4667    7.0255   -9.8786 O   0  0  0  0  0  0  0  0  0  0  0  0
    7.7053    3.5441    0.2614 O   0  0  0  0  0  0  0  0  0  0  0  0
    9.5280    2.3347    0.3843 N   0  0  0  0  0  0  0  0  0  0  0  0
   10.1778    9.3504   -7.3633 C   0  0  0  0  0  0  0  0  0  0  0  0
   -2.0288    1.2348    1.2601 C   0  0  2  0  0  0  0  0  0  0  0  0
   10.6026   -1.1703   -0.5240 C   0  0  0  0  0  0  0  0  0  0  0  0
   12.5672   -1.1004   -2.0557 C   0  0  0  0  0  0  0  0  0  0  0  0
   10.6281    1.4183    0.1631 C   0  0  1  0  0  0  0  0  0  0  0  0
   10.8863   10.2794   -6.4406 C   0  0  1  0  0  0  0  0  0  0  0  0
    9.2268    9.8268   -8.0296 O   0  0  0  0  0  0  0  0  0  0  0  0
   -3.4051    1.9407    1.1912 C   0  0  1  0  0  0  0  0  0  0  0  0
   10.3151   -0.0600    0.3461 C   0  0  0  0  0  0  0  0  0  0  0  0
   10.2956   -2.4991   -0.1228 C   0  0  0  0  0  0  0  0  0  0  0  0
   13.4201   -1.6509   -1.1535 O   0  0  0  0  0  0  0  0  0  0  0  0
   11.5844    1.9070   -0.8602 C   0  0  0  0  0  0  0  0  0  0  0  0
   11.8671    9.6187   -5.4133 C   0  0  2  0  0  0  0  0  0  0  0  0
   11.4882   11.4020   -7.2101 N   0  0  2  0  0  0  0  0  0  0  0  0
   -4.0484    2.1591    2.5841 C   0  0  2  0  0  0  0  0  0  0  0  0
    9.7091   -0.3653    1.5919 C   0  0  0  0  0  0  0  0  0  0  0  0
   10.5637   -3.5255   -0.9827 O   0  0  0  0  0  0  0  0  0  0  0  0
    9.7048   -2.7631    1.1401 C   0  0  0  0  0  0  0  0  0  0  0  0
   11.2682    2.8763   -1.7434 O   0  0  0  0  0  0  0  0  0  0  0  0
   12.7776    1.5302   -0.8578 O   0  0  0  0  0  0  0  0  0  0  0  0
   12.5991   10.5961   -4.4297 C   0  0  2  0  0  0  0  0  0  0  0  0
   12.5966   11.0863   -8.1377 C   0  0  0  0  0  0  0  0  0  0  0  0
   -5.3812    2.9459    2.4857 C   0  0  2  0  0  0  0  0  0  0  0  0
    9.4104   -1.6752    1.9889 C   0  0  0  0  0  0  0  0  0  0  0  0
    9.3431   -4.1417    1.5846 C   0  0  1  0  0  0  0  0  0  0  0  0
   13.5350    9.8120   -3.4648 C   0  0  0  0  0  0  0  0  0  0  0  0
   11.6340   11.5045   -3.6141 C   0  0  0  0  0  0  0  0  0  0  0  0
   -6.0211    3.2328    3.8695 C   0  0  1  0  0  0  0  0  0  0  0  0
    8.8384   -1.8703    3.2088 O   0  0  0  0  0  0  0  0  0  0  0  0
    7.8782   -4.3461    1.4958 N   0  0  1  0  0  0  0  0  0  0  0  0
   -7.2794    4.1327    3.7437 C   0  0  2  0  0  0  0  0  0  0  0  0
    7.3617   -4.5291    0.1178 C   0  0  1  0  0  0  0  0  0  0  0  0
   -7.9147    4.4928    5.1126 C   0  0  2  0  0  0  0  0  0  0  0  0
    5.6548   -4.5888    0.1078 P   0  0  2  0  0  0  0  0  0  0  0  0
   -9.1172    5.4603    4.9480 C   0  0  1  0  0  0  0  0  0  0  0  0
    5.0659   -3.3289    0.5813 O   0  0  0  0  0  0  0  0  0  0  0  0
    5.1534   -5.7870    1.0210 O   0  0  0  0  0  0  0  0  0  0  0  0
    5.1589   -4.8755   -1.3750 O   0  0  0  0  0  0  0  0  0  0  0  0
   -9.7654    5.8577    6.2980 C   0  0  1  0  0  0  0  0  0  0  0  0
  -10.9261    6.8626    6.1258 C   0  0  0  0  0  0  0  0  0  0  0  0
    2.2349   -0.3807   -8.5860 H   0  0  0  0  0  0  0  0  0  0  0  0
    2.4427    2.6662   -8.5222 H   0  0  0  0  0  0  0  0  0  0  0  0
    7.8537   -1.2507   -7.0088 H   0  0  0  0  0  0  0  0  0  0  0  0
    7.5831    1.8256   -9.8507 H   0  0  0  0  0  0  0  0  0  0  0  0
    0.0570    1.1084   -9.6251 H   0  0  0  0  0  0  0  0  0  0  0  0
    1.6802   -0.3974  -11.0569 H   0  0  0  0  0  0  0  0  0  0  0  0
   -0.6907    2.2622   -7.3433 H   0  0  0  0  0  0  0  0  0  0  0  0
   -0.4826    3.1452  -10.4218 H   0  0  0  0  0  0  0  0  0  0  0  0
    2.1680    2.6338  -11.2444 H   0  0  0  0  0  0  0  0  0  0  0  0
    3.7583    1.1442  -12.6983 H   0  0  0  0  0  0  0  0  0  0  0  0
    2.3530    0.2806  -13.3503 H   0  0  0  0  0  0  0  0  0  0  0  0
    9.8070   -0.4946   -8.8620 H   0  0  0  0  0  0  0  0  0  0  0  0
    4.7200    1.1540   -5.3558 H   0  0  0  0  0  0  0  0  0  0  0  0
    5.2333    3.4511   -6.8715 H   0  0  0  0  0  0  0  0  0  0  0  0
   -1.1838    2.6399   -5.1047 H   0  0  0  0  0  0  0  0  0  0  0  0
   -0.2531    1.1476   -5.1036 H   0  0  0  0  0  0  0  0  0  0  0  0
    1.0179    1.8495  -12.9743 H   0  0  0  0  0  0  0  0  0  0  0  0
    4.1376   -0.9807  -13.4895 H   0  0  0  0  0  0  0  0  0  0  0  0
    9.6740    1.1299  -10.2878 H   0  0  0  0  0  0  0  0  0  0  0  0
    7.0339   -1.6740   -2.1965 H   0  0  0  0  0  0  0  0  0  0  0  0
    5.2661    2.0166   -3.2111 H   0  0  0  0  0  0  0  0  0  0  0  0
    8.1178    5.7778  -10.0066 H   0  0  0  0  0  0  0  0  0  0  0  0
    6.8393    5.0228   -6.0483 H   0  0  0  0  0  0  0  0  0  0  0  0
    2.4470    3.9661   -6.2975 H   0  0  0  0  0  0  0  0  0  0  0  0
    8.5353    0.9695   -6.0500 H   0  0  0  0  0  0  0  0  0  0  0  0
    0.8752    3.4119   -2.2457 H   0  0  0  0  0  0  0  0  0  0  0  0
    1.9425    1.0428   -3.7953 H   0  0  0  0  0  0  0  0  0  0  0  0
    2.6238    2.0262   -5.0726 H   0  0  0  0  0  0  0  0  0  0  0  0
    2.7925    2.5432   -3.3920 H   0  0  0  0  0  0  0  0  0  0  0  0
    1.8654    4.7745   -4.0145 H   0  0  0  0  0  0  0  0  0  0  0  0
    0.7769    6.5009   -6.5748 H   0  0  0  0  0  0  0  0  0  0  0  0
    2.4367    6.4370   -5.9515 H   0  0  0  0  0  0  0  0  0  0  0  0
    2.0938    5.9559   -7.6212 H   0  0  0  0  0  0  0  0  0  0  0  0
   10.6583    2.0785   -4.7995 H   0  0  0  0  0  0  0  0  0  0  0  0
   12.2221    3.2919   -8.7993 H   0  0  0  0  0  0  0  0  0  0  0  0
    5.9079    1.3637   -0.7672 H   0  0  0  0  0  0  0  0  0  0  0  0
    8.1101    7.2632   -7.0142 H   0  0  0  0  0  0  0  0  0  0  0  0
    0.5034    1.0536   -1.9870 H   0  0  0  0  0  0  0  0  0  0  0  0
   -1.0977    1.2853   -2.7216 H   0  0  0  0  0  0  0  0  0  0  0  0
    0.1934    6.0853   -4.5242 H   0  0  0  0  0  0  0  0  0  0  0  0
   10.1078    3.7275   -6.7457 H   0  0  0  0  0  0  0  0  0  0  0  0
   11.4305    2.5974   -6.8402 H   0  0  0  0  0  0  0  0  0  0  0  0
   12.0465    4.9803   -9.8897 H   0  0  0  0  0  0  0  0  0  0  0  0
    7.4414    0.4778    0.4765 H   0  0  0  0  0  0  0  0  0  0  0  0
    7.2451    2.9177   -2.0316 H   0  0  0  0  0  0  0  0  0  0  0  0
    9.7640    6.6510   -5.7547 H   0  0  0  0  0  0  0  0  0  0  0  0
    9.2485    7.5687   -9.0525 H   0  0  0  0  0  0  0  0  0  0  0  0
   -0.0598    2.5881   -0.1498 H   0  0  0  0  0  0  0  0  0  0  0  0
   -1.6306    2.9390   -0.9052 H   0  0  0  0  0  0  0  0  0  0  0  0
    9.3343   -0.7145   -2.7791 H   0  0  0  0  0  0  0  0  0  0  0  0
   12.6945    0.6525   -4.9035 H   0  0  0  0  0  0  0  0  0  0  0  0
    9.5801    1.2805   -2.0588 H   0  0  0  0  0  0  0  0  0  0  0  0
   11.2685    7.7223   -6.9679 H   0  0  0  0  0  0  0  0  0  0  0  0
   -0.6820    0.3242    0.0557 H   0  0  0  0  0  0  0  0  0  0  0  0
   14.1006   -0.6358   -3.4410 H   0  0  0  0  0  0  0  0  0  0  0  0
   13.6757    4.4472   -5.0571 H   0  0  0  0  0  0  0  0  0  0  0  0
   13.1752    2.9182   -5.5427 H   0  0  0  0  0  0  0  0  0  0  0  0
    9.6258    2.8503    1.2032 H   0  0  0  0  0  0  0  0  0  0  0  0
   -1.3358    1.8114    1.8776 H   0  0  0  0  0  0  0  0  0  0  0  0
   -2.1626    0.2610    1.7359 H   0  0  0  0  0  0  0  0  0  0  0  0
   11.2319    1.6316    1.0532 H   0  0  0  0  0  0  0  0  0  0  0  0
   10.0867   10.7234   -5.8409 H   0  0  0  0  0  0  0  0  0  0  0  0
   -3.2868    2.9140    0.7144 H   0  0  0  0  0  0  0  0  0  0  0  0
   -4.0787    1.3418    0.5732 H   0  0  0  0  0  0  0  0  0  0  0  0
   12.8884   -1.8225   -0.3498 H   0  0  0  0  0  0  0  0  0  0  0  0
   12.6271    9.0590   -5.9664 H   0  0  0  0  0  0  0  0  0  0  0  0
   11.3015    8.8917   -4.8221 H   0  0  0  0  0  0  0  0  0  0  0  0
   11.8420   12.0812   -6.5344 H   0  0  0  0  0  0  0  0  0  0  0  0
   -3.3525    2.7172    3.2158 H   0  0  0  0  0  0  0  0  0  0  0  0
   -4.2364    1.1907    3.0540 H   0  0  0  0  0  0  0  0  0  0  0  0
    9.4792    0.3856    2.2485 H   0  0  0  0  0  0  0  0  0  0  0  0
    9.8409   -4.1770   -0.8672 H   0  0  0  0  0  0  0  0  0  0  0  0
   11.9489    3.2079   -2.3613 H   0  0  0  0  0  0  0  0  0  0  0  0
   13.2391   11.2524   -5.0267 H   0  0  0  0  0  0  0  0  0  0  0  0
   12.2886   10.3521   -8.8838 H   0  0  0  0  0  0  0  0  0  0  0  0
   13.4684   10.7207   -7.5946 H   0  0  0  0  0  0  0  0  0  0  0  0
   12.8815   11.9987   -8.6598 H   0  0  0  0  0  0  0  0  0  0  0  0
   -6.0919    2.3793    1.8765 H   0  0  0  0  0  0  0  0  0  0  0  0
   -5.1897    3.8978    1.9825 H   0  0  0  0  0  0  0  0  0  0  0  0
    9.8613   -4.9178    1.0190 H   0  0  0  0  0  0  0  0  0  0  0  0
    9.6479   -4.2841    2.6257 H   0  0  0  0  0  0  0  0  0  0  0  0
   14.2568    9.2177   -4.0289 H   0  0  0  0  0  0  0  0  0  0  0  0
   14.0913   10.5011   -2.8244 H   0  0  0  0  0  0  0  0  0  0  0  0
   12.9558    9.1409   -2.8273 H   0  0  0  0  0  0  0  0  0  0  0  0
   11.1053   12.1961   -4.2725 H   0  0  0  0  0  0  0  0  0  0  0  0
   12.1912   12.1069   -2.8928 H   0  0  0  0  0  0  0  0  0  0  0  0
   10.9028   10.9006   -3.0721 H   0  0  0  0  0  0  0  0  0  0  0  0
   -6.2965    2.2849    4.3411 H   0  0  0  0  0  0  0  0  0  0  0  0
   -5.2866    3.7325    4.5083 H   0  0  0  0  0  0  0  0  0  0  0  0
    8.9194   -1.0164    3.6871 H   0  0  0  0  0  0  0  0  0  0  0  0
    7.6780   -5.2103    2.0038 H   0  0  0  0  0  0  0  0  0  0  0  0
   -8.0253    3.6175    3.1301 H   0  0  0  0  0  0  0  0  0  0  0  0
   -6.9969    5.0595    3.2338 H   0  0  0  0  0  0  0  0  0  0  0  0
    7.6493   -3.6956   -0.5230 H   0  0  0  0  0  0  0  0  0  0  0  0
    7.7498   -5.4554   -0.3118 H   0  0  0  0  0  0  0  0  0  0  0  0
   -7.1586    4.9675    5.7452 H   0  0  0  0  0  0  0  0  0  0  0  0
   -8.2498    3.5754    5.6061 H   0  0  0  0  0  0  0  0  0  0  0  0
   -8.7759    6.3668    4.4412 H   0  0  0  0  0  0  0  0  0  0  0  0
   -9.8722    4.9849    4.3167 H   0  0  0  0  0  0  0  0  0  0  0  0
    5.5921   -6.5802    0.6498 H   0  0  0  0  0  0  0  0  0  0  0  0
    5.6212   -5.7007   -1.6295 H   0  0  0  0  0  0  0  0  0  0  0  0
  -10.1448    4.9618    6.7939 H   0  0  0  0  0  0  0  0  0  0  0  0
   -9.0088    6.3076    6.9448 H   0  0  0  0  0  0  0  0  0  0  0  0
  -11.3498    7.1073    7.1017 H   0  0  0  0  0  0  0  0  0  0  0  0
  -10.5649    7.7835    5.6623 H   0  0  0  0  0  0  0  0  0  0  0  0
  -11.7123    6.4339    5.5009 H   0  0  0  0  0  0  0  0  0  0  0  0
  1  2  1  0  0  0  0 
  2  4  2  0  0  0  0 
  2  5  1  0  0  0  0 
  3  1  1  0  0  0  0 
  6  3  1  0  0  0  0 
  3  7  1  0  0  0  0 
  4  8  1  0  0  0  0 
  4  9  1  0  0  0  0 
  5 10  2  0  0  0  0 
  5 11  1  0  0  0  0 
  6 12  1  0  0  0  0 
  6 13  1  0  0  0  0 
 14  7  1  0  0  0  0 
  8 15  2  0  0  0  0 
  9 16  1  0  0  0  0 
 10 15  1  0  0  0  0 
 11 17  1  0  0  0  0 
 18 12  1  0  0  0  0 
 13 19  1  0  0  0  0 
 13 20  1  0  0  0  0 
 20 14  1  0  0  0  0 
 14 21  1  0  0  0  0 
 22 15  1  0  0  0  0 
 16 23  2  0  0  0  0 
 16 24  1  0  0  0  0 
 17 25  2  0  0  0  0 
 17 26  1  0  0  0  0 
 18 27  1  0  0  0  0 
 18 28  1  0  0  0  0 
 20 29  1  0  0  0  0 
 21 30  1  0  0  0  0 
 22 31  1  0  0  0  0 
 22 32  1  0  0  0  0 
 23 33  1  0  0  0  0 
 23 34  1  0  0  0  0 
 24 35  2  0  0  0  0 
 25 36  1  0  0  0  0 
 25 37  1  0  0  0  0 
 26 38  2  0  0  0  0 
 39 27  1  0  0  0  0 
 40 28  1  0  0  0  0 
 31 41  2  0  0  0  0 
 31 42  1  0  0  0  0 
 32 43  1  0  0  0  0 
 34 44  2  0  0  0  0 
 35 44  1  0  0  0  0 
 37 45  2  0  0  0  0 
 38 45  1  0  0  0  0 
 39 46  1  0  0  0  0 
 39 47  1  0  0  0  0 
 48 39  1  0  0  0  0 
 48 40  1  0  0  0  0 
 40 49  1  0  0  0  0 
 50 42  1  0  0  0  0 
 43 51  2  0  0  0  0 
 52 43  1  0  0  0  0 
 53 44  1  0  0  0  0 
 54 45  1  0  0  0  0 
 46 55  1  0  0  0  0 
 48 56  1  0  0  0  0 
 50 57  1  0  0  0  0 
 50 58  1  0  0  0  0 
 52 59  1  0  0  0  0 
 52 60  1  0  0  0  0 
 53 61  1  0  0  0  0 
 53 62  1  0  0  0  0 
 54 63  1  0  0  0  0 
 54 64  1  0  0  0  0 
 55 65  1  0  0  0  0 
 57 66  2  0  0  0  0 
 57 67  1  0  0  0  0 
 58 68  2  0  0  0  0 
 58 69  1  0  0  0  0 
 59 70  1  0  0  0  0 
 60 71  1  0  0  0  0 
 62 69  1  0  0  0  0 
 62 72  1  0  0  0  0 
 64 71  1  0  0  0  0 
 64 73  1  0  0  0  0 
 65 74  1  0  0  0  0 
 66 75  1  0  0  0  0 
 67 76  2  0  0  0  0 
 70 77  1  0  0  0  0 
 70 78  2  0  0  0  0 
 71 79  2  0  0  0  0 
 72 80  2  0  0  0  0 
 72 81  1  0  0  0  0 
 73 82  1  0  0  0  0 
 74 83  1  0  0  0  0 
 75 84  1  0  0  0  0 
 75 85  2  0  0  0  0 
 76 85  1  0  0  0  0 
 86 81  1  0  0  0  0 
 87 82  1  0  0  0  0 
 82 88  2  0  0  0  0 
 83 89  1  0  0  0  0 
 84 90  2  0  0  0  0 
 84 91  1  0  0  0  0 
 85 92  1  0  0  0  0 
 86 90  1  0  0  0  0 
 86 93  1  0  0  0  0 
 87 94  1  0  0  0  0 
 87 95  1  0  0  0  0 
 89 96  1  0  0  0  0 
 90 97  1  0  0  0  0 
 91 98  1  0  0  0  0 
 91 99  2  0  0  0  0 
 93100  1  0  0  0  0 
 93101  2  0  0  0  0 
 94102  1  0  0  0  0 
 95103  1  0  0  0  0 
 96104  1  0  0  0  0 
 97105  2  0  0  0  0 
 99105  1  0  0  0  0 
 99106  1  0  0  0  0 
102107  1  0  0  0  0 
102108  1  0  0  0  0 
104109  1  0  0  0  0 
105110  1  0  0  0  0 
106111  1  0  0  0  0 
109112  1  0  0  0  0 
111113  1  0  0  0  0 
112114  1  0  0  0  0 
113115  1  0  0  0  0 
114116  1  0  0  0  0 
115117  2  0  0  0  0 
115118  1  0  0  0  0 
115119  1  0  0  0  0 
116120  1  0  0  0  0 
120121  1  0  0  0  0 
  3122  1  0  0  0  0 
  6123  1  0  0  0  0 
124  8  1  0  0  0  0 
125 10  1  0  0  0  0 
 13126  1  0  0  0  0 
 14127  1  0  0  0  0 
 18128  1  0  0  0  0 
129 19  1  0  0  0  0 
 20130  1  0  0  0  0 
131 21  1  0  0  0  0 
132 21  1  0  0  0  0 
 22133  1  0  0  0  0 
134 24  1  0  0  0  0 
135 26  1  0  0  0  0 
136 27  1  0  0  0  0 
137 27  1  0  0  0  0 
138 29  1  0  0  0  0 
139 30  1  0  0  0  0 
140 32  1  0  0  0  0 
141 34  1  0  0  0  0 
142 35  1  0  0  0  0 
143 37  1  0  0  0  0 
144 38  1  0  0  0  0 
 40145  1  0  0  0  0 
146 42  1  0  0  0  0 
147 46  1  0  0  0  0 
148 47  1  0  0  0  0 
149 47  1  0  0  0  0 
150 47  1  0  0  0  0 
 48151  1  0  0  0  0 
152 49  1  0  0  0  0 
153 49  1  0  0  0  0 
154 49  1  0  0  0  0 
 50155  1  0  0  0  0 
 52156  1  0  0  0  0 
 53157  1  0  0  0  0 
 54158  1  0  0  0  0 
159 55  1  0  0  0  0 
160 55  1  0  0  0  0 
161 56  1  0  0  0  0 
162 59  1  0  0  0  0 
163 59  1  0  0  0  0 
164 60  1  0  0  0  0 
165 61  1  0  0  0  0 
 62166  1  0  0  0  0 
167 63  1  0  0  0  0 
 64168  1  0  0  0  0 
169 65  1  0  0  0  0 
170 65  1  0  0  0  0 
171 66  1  0  0  0  0 
172 67  1  0  0  0  0 
173 69  1  0  0  0  0 
174 73  1  0  0  0  0 
175 74  1  0  0  0  0 
176 76  1  0  0  0  0 
177 77  1  0  0  0  0 
178 77  1  0  0  0  0 
179 81  1  0  0  0  0 
180 83  1  0  0  0  0 
181 83  1  0  0  0  0 
 86182  1  0  0  0  0 
 87183  1  0  0  0  0 
184 89  1  0  0  0  0 
185 89  1  0  0  0  0 
186 92  1  0  0  0  0 
187 94  1  0  0  0  0 
188 94  1  0  0  0  0 
189 95  1  0  0  0  0 
190 96  1  0  0  0  0 
191 96  1  0  0  0  0 
192 97  1  0  0  0  0 
193 98  1  0  0  0  0 
194100  1  0  0  0  0 
195102  1  0  0  0  0 
196103  1  0  0  0  0 
197103  1  0  0  0  0 
198103  1  0  0  0  0 
199104  1  0  0  0  0 
200104  1  0  0  0  0 
201106  1  0  0  0  0 
202106  1  0  0  0  0 
203107  1  0  0  0  0 
204107  1  0  0  0  0 
205107  1  0  0  0  0 
206108  1  0  0  0  0 
207108  1  0  0  0  0 
208108  1  0  0  0  0 
209109  1  0  0  0  0 
210109  1  0  0  0  0 
211110  1  0  0  0  0 
212111  1  0  0  0  0 
213112  1  0  0  0  0 
214112  1  0  0  0  0 
215113  1  0  0  0  0 
216113  1  0  0  0  0 
217114  1  0  0  0  0 
218114  1  0  0  0  0 
219116  1  0  0  0  0 
220116  1  0  0  0  0 
221118  1  0  0  0  0 
222119  1  0  0  0  0 
223120  1  0  0  0  0 
224120  1  0  0  0  0 
225121  1  0  0  0  0 
226121  1  0  0  0  0 
227121  1  0  0  0  0 
M  END
> <cdk:Title>
telavancin

> <Conformer>
1

> <SuperDrugID>
SD003361

$$$$
