pyritinol
  CDK     0628171801

 44 45  0  0  0  0  0  0  0  0999 V2000
    3.2383   -0.2268   -2.7076 C   0  0  2  0  0  0  0  0  0  0  0  0
    2.9739   -1.9651   -3.1750 S   0  0  0  0  0  0  0  0  0  0  0  0
    4.6127    0.2326   -3.0762 C   0  0  0  0  0  0  0  0  0  0  0  0
    0.9323   -2.2529   -2.7606 S   0  0  0  0  0  0  0  0  0  0  0  0
    5.8107   -0.2040   -2.4270 C   0  0  0  0  0  0  0  0  0  0  0  0
    4.7435    1.1516   -4.1445 C   0  0  0  0  0  0  0  0  0  0  0  0
    0.9103   -2.8589   -1.0446 C   0  0  2  0  0  0  0  0  0  0  0  0
    5.8047   -1.1938   -1.3100 C   0  0  2  0  0  0  0  0  0  0  0  0
    7.0653    0.2980   -2.8771 C   0  0  0  0  0  0  0  0  0  0  0  0
    5.9576    1.6007   -4.5344 N   0  0  0  0  0  0  0  0  0  0  0  0
    1.7465   -4.0875   -0.8865 C   0  0  0  0  0  0  0  0  0  0  0  0
    6.2515   -2.4546   -1.7980 O   0  0  0  0  0  0  0  0  0  0  0  0
    8.2397   -0.0877   -2.3072 O   0  0  0  0  0  0  0  0  0  0  0  0
    7.1176    1.2160   -3.9504 C   0  0  0  0  0  0  0  0  0  0  0  0
    1.3501   -5.3911   -1.3188 C   0  0  0  0  0  0  0  0  0  0  0  0
    3.0255   -3.9452   -0.3011 C   0  0  0  0  0  0  0  0  0  0  0  0
    8.3905    1.7740   -4.4635 C   0  0  0  0  0  0  0  0  0  0  0  0
   -0.0285   -5.6510   -1.8287 C   0  0  1  0  0  0  0  0  0  0  0  0
    2.2865   -6.4587   -1.2304 C   0  0  0  0  0  0  0  0  0  0  0  0
    3.8777   -4.9888   -0.2288 N   0  0  0  0  0  0  0  0  0  0  0  0
   -0.9641   -5.5217   -0.7634 O   0  0  0  0  0  0  0  0  0  0  0  0
    1.9655   -7.7078   -1.6617 O   0  0  0  0  0  0  0  0  0  0  0  0
    3.5728   -6.2242   -0.6881 C   0  0  0  0  0  0  0  0  0  0  0  0
    4.6404   -7.2405   -0.5859 C   0  0  0  0  0  0  0  0  0  0  0  0
    3.0704   -0.0948   -1.6385 H   0  0  0  0  0  0  0  0  0  0  0  0
    2.4686    0.3559   -3.2182 H   0  0  0  0  0  0  0  0  0  0  0  0
    3.9264    1.4956   -4.6541 H   0  0  0  0  0  0  0  0  0  0  0  0
   -0.1246   -3.0502   -0.7563 H   0  0  0  0  0  0  0  0  0  0  0  0
    1.2608   -2.0400   -0.4118 H   0  0  0  0  0  0  0  0  0  0  0  0
    4.8204   -1.3346   -0.8750 H   0  0  0  0  0  0  0  0  0  0  0  0
    6.4444   -0.8680   -0.4884 H   0  0  0  0  0  0  0  0  0  0  0  0
    6.1176   -3.0746   -1.0507 H   0  0  0  0  0  0  0  0  0  0  0  0
    8.0752   -0.0979   -1.3419 H   0  0  0  0  0  0  0  0  0  0  0  0
    3.3434   -3.0474    0.0678 H   0  0  0  0  0  0  0  0  0  0  0  0
    8.9344    2.2663   -3.6549 H   0  0  0  0  0  0  0  0  0  0  0  0
    8.2191    2.5079   -5.2559 H   0  0  0  0  0  0  0  0  0  0  0  0
    9.0095    0.9732   -4.8714 H   0  0  0  0  0  0  0  0  0  0  0  0
   -0.2829   -4.9497   -2.6227 H   0  0  0  0  0  0  0  0  0  0  0  0
   -0.1488   -6.6540   -2.2395 H   0  0  0  0  0  0  0  0  0  0  0  0
   -1.8355   -5.7317   -1.1608 H   0  0  0  0  0  0  0  0  0  0  0  0
    1.8901   -8.2512   -0.8488 H   0  0  0  0  0  0  0  0  0  0  0  0
    4.9302   -7.3584    0.4587 H   0  0  0  0  0  0  0  0  0  0  0  0
    5.5144   -6.9129   -1.1533 H   0  0  0  0  0  0  0  0  0  0  0  0
    4.3356   -8.2151   -0.9685 H   0  0  0  0  0  0  0  0  0  0  0  0
  1  2  1  0  0  0  0 
  1  3  1  0  0  0  0 
  2  4  1  0  0  0  0 
  3  5  2  0  0  0  0 
  3  6  1  0  0  0  0 
  4  7  1  0  0  0  0 
  5  8  1  0  0  0  0 
  5  9  1  0  0  0  0 
  6 10  2  0  0  0  0 
  7 11  1  0  0  0  0 
  8 12  1  0  0  0  0 
  9 13  1  0  0  0  0 
  9 14  2  0  0  0  0 
 10 14  1  0  0  0  0 
 11 15  2  0  0  0  0 
 11 16  1  0  0  0  0 
 14 17  1  0  0  0  0 
 15 18  1  0  0  0  0 
 15 19  1  0  0  0  0 
 16 20  2  0  0  0  0 
 18 21  1  0  0  0  0 
 19 22  1  0  0  0  0 
 19 23  2  0  0  0  0 
 20 23  1  0  0  0  0 
 23 24  1  0  0  0  0 
  1 25  1  0  0  0  0 
  1 26  1  0  0  0  0 
  6 27  1  0  0  0  0 
  7 28  1  0  0  0  0 
  7 29  1  0  0  0  0 
  8 30  1  0  0  0  0 
  8 31  1  0  0  0  0 
 12 32  1  0  0  0  0 
 13 33  1  0  0  0  0 
 16 34  1  0  0  0  0 
 17 35  1  0  0  0  0 
 17 36  1  0  0  0  0 
 17 37  1  0  0  0  0 
 18 38  1  0  0  0  0 
 18 39  1  0  0  0  0 
 21 40  1  0  0  0  0 
 22 41  1  0  0  0  0 
 24 42  1  0  0  0  0 
 24 43  1  0  0  0  0 
 24 44  1  0  0  0  0 
M  END
> <cdk:Title>
pyritinol

> <Conformer>
1

> <SuperDrugID>
SD002097

$$$$
