retigabine
  CDK     0628171801

 40 41  0  0  0  0  0  0  0  0999 V2000
    2.3990   -0.2556   -2.9840 C   0  0  0  0  0  0  0  0  0  0  0  0
    1.8772   -0.5127   -1.7026 C   0  0  0  0  0  0  0  0  0  0  0  0
    0.9688    0.3889   -1.0973 C   0  0  0  0  0  0  0  0  0  0  0  0
    0.5723    1.5387   -1.8201 C   0  0  0  0  0  0  0  0  0  0  0  0
    1.0955    1.7983   -3.1008 C   0  0  0  0  0  0  0  0  0  0  0  0
    2.0145    0.9047   -3.6813 C   0  0  0  0  0  0  0  0  0  0  0  0
    0.4647    0.1619    0.2800 C   0  0  2  0  0  0  0  0  0  0  0  0
   -0.9289   -0.1562    0.2845 N   0  0  0  0  0  0  0  0  0  0  0  0
   -1.7003   -0.3648    1.3957 C   0  0  0  0  0  0  0  0  0  0  0  0
   -3.9472   -0.7293    2.3014 C   0  0  0  0  0  0  0  0  0  0  0  0
   -3.4626   -0.6920    3.6321 C   0  0  0  0  0  0  0  0  0  0  0  0
   -2.0659   -0.5311    3.8221 C   0  0  0  0  0  0  0  0  0  0  0  0
   -1.2023   -0.3660    2.7192 C   0  0  0  0  0  0  0  0  0  0  0  0
   -3.0785   -0.5830    1.2036 C   0  0  0  0  0  0  0  0  0  0  0  0
   -1.5052   -0.5356    5.0521 N   0  0  0  0  0  0  0  0  0  0  0  0
   -4.2560   -0.7672    4.7536 N   0  0  0  0  0  0  0  0  0  0  0  0
   -5.5380   -1.1946    4.9050 C   0  0  0  0  0  0  0  0  0  0  0  0
   -6.2386   -1.6574    3.9749 O   0  0  0  0  0  0  0  0  0  0  0  0
   -6.0505   -1.0930    6.1650 O   0  0  0  0  0  0  0  0  0  0  0  0
   -7.3635   -1.4517    6.6217 C   0  0  2  0  0  0  0  0  0  0  0  0
   -8.1278   -0.1787    7.0190 C   0  0  0  0  0  0  0  0  0  0  0  0
    2.5101    1.1518   -4.8627 F   0  0  0  0  0  0  0  0  0  0  0  0
    3.0624   -0.9120   -3.4032 H   0  0  0  0  0  0  0  0  0  0  0  0
    2.1700   -1.3611   -1.2116 H   0  0  0  0  0  0  0  0  0  0  0  0
   -0.0916    2.2017   -1.4112 H   0  0  0  0  0  0  0  0  0  0  0  0
    0.8101    2.6420   -3.6036 H   0  0  0  0  0  0  0  0  0  0  0  0
    0.6301    1.0720    0.8632 H   0  0  0  0  0  0  0  0  0  0  0  0
    1.0152   -0.6488    0.7650 H   0  0  0  0  0  0  0  0  0  0  0  0
   -1.3732   -0.2097   -0.5779 H   0  0  0  0  0  0  0  0  0  0  0  0
   -4.9396   -0.8502    2.1037 H   0  0  0  0  0  0  0  0  0  0  0  0
   -0.2005   -0.2444    2.8865 H   0  0  0  0  0  0  0  0  0  0  0  0
   -3.4656   -0.6270    0.2570 H   0  0  0  0  0  0  0  0  0  0  0  0
   -2.0505   -0.6866    5.8398 H   0  0  0  0  0  0  0  0  0  0  0  0
   -0.5491   -0.3934    5.1476 H   0  0  0  0  0  0  0  0  0  0  0  0
   -3.8373   -0.4759    5.5787 H   0  0  0  0  0  0  0  0  0  0  0  0
   -7.2620   -2.1067    7.4903 H   0  0  0  0  0  0  0  0  0  0  0  0
   -7.9362   -1.9807    5.8553 H   0  0  0  0  0  0  0  0  0  0  0  0
   -8.2041    0.4912    6.1611 H   0  0  0  0  0  0  0  0  0  0  0  0
   -9.1341   -0.4339    7.3539 H   0  0  0  0  0  0  0  0  0  0  0  0
   -7.6032    0.3322    7.8266 H   0  0  0  0  0  0  0  0  0  0  0  0
  1  2  2  0  0  0  0 
  1  6  1  0  0  0  0 
  2  3  1  0  0  0  0 
  3  4  2  0  0  0  0 
  4  5  1  0  0  0  0 
  5  6  2  0  0  0  0 
  3  7  1  0  0  0  0 
  7  8  1  0  0  0  0 
  8  9  1  0  0  0  0 
 13  9  2  0  0  0  0 
  9 14  1  0  0  0  0 
 10 11  1  0  0  0  0 
 10 14  2  0  0  0  0 
 11 12  2  0  0  0  0 
 12 13  1  0  0  0  0 
 12 15  1  0  0  0  0 
 11 16  1  0  0  0  0 
 16 17  1  0  0  0  0 
 17 18  2  0  0  0  0 
 17 19  1  0  0  0  0 
 19 20  1  0  0  0  0 
 20 21  1  0  0  0  0 
  6 22  1  0  0  0  0 
 23  1  1  0  0  0  0 
 24  2  1  0  0  0  0 
 25  4  1  0  0  0  0 
 26  5  1  0  0  0  0 
 27  7  1  0  0  0  0 
 28  7  1  0  0  0  0 
 29  8  1  0  0  0  0 
 30 10  1  0  0  0  0 
 31 13  1  0  0  0  0 
 32 14  1  0  0  0  0 
 33 15  1  0  0  0  0 
 34 15  1  0  0  0  0 
 35 16  1  0  0  0  0 
 36 20  1  0  0  0  0 
 37 20  1  0  0  0  0 
 38 21  1  0  0  0  0 
 39 21  1  0  0  0  0 
 40 21  1  0  0  0  0 
M  END
> <cdk:Title>
retigabine

> <Conformer>
1

> <SuperDrugID>
SD003411

$$$$
