mepenzolate
  CDK     0628171801

 51 53  0  0  0  0  0  0  0  0999 V2000
   -0.6015   -1.3032   -0.6257 C   0  0  1  0  0  0  0  0  0  0  0  0
   -1.0951   -0.8471    0.7112 C   0  0  0  0  0  0  0  0  0  0  0  0
    0.0402   -2.5761   -0.4463 O   0  0  0  0  0  0  0  0  0  0  0  0
   -1.6706   -1.5839   -1.6543 C   0  0  0  0  0  0  0  0  0  0  0  0
    0.4289   -0.2780   -1.0337 C   0  0  0  0  0  0  0  0  0  0  0  0
   -1.3947    0.4812    0.8722 O   0  0  0  0  0  0  0  0  0  0  0  0
   -1.1981   -1.6443    1.6742 O   0  0  0  0  0  0  0  0  0  0  0  0
   -3.0546   -1.3646   -1.4199 C   0  0  0  0  0  0  0  0  0  0  0  0
   -1.3011   -2.1245   -2.9162 C   0  0  0  0  0  0  0  0  0  0  0  0
    0.1131    0.8030   -1.8990 C   0  0  0  0  0  0  0  0  0  0  0  0
    1.7236   -0.2893   -0.4486 C   0  0  0  0  0  0  0  0  0  0  0  0
   -1.4990    1.2311    2.0915 C   0  0  1  0  0  0  0  0  0  0  0  0
   -4.0222   -1.6960   -2.3871 C   0  0  0  0  0  0  0  0  0  0  0  0
   -2.2682   -2.4697   -3.8801 C   0  0  0  0  0  0  0  0  0  0  0  0
    1.0441    1.8250   -2.1613 C   0  0  0  0  0  0  0  0  0  0  0  0
    2.6550    0.7332   -0.7069 C   0  0  0  0  0  0  0  0  0  0  0  0
   -0.3175    2.2458    2.0897 C   0  0  1  0  0  0  0  0  0  0  0  0
   -2.8538    1.9756    2.1589 C   0  0  1  0  0  0  0  0  0  0  0  0
   -3.6320   -2.2571   -3.6143 C   0  0  0  0  0  0  0  0  0  0  0  0
    2.3120    1.7931   -1.5611 C   0  0  0  0  0  0  0  0  0  0  0  0
   -0.3004    3.2322    3.2415 N   0  0  1  0  0  0  0  0  0  0  0  0
   -2.8812    2.9581    3.3576 C   0  0  1  0  0  0  0  0  0  0  0  0
    0.0667    2.5571    4.5474 C   0  0  0  0  0  0  0  0  0  0  0  0
    0.7681    4.2721    2.9629 C   0  0  0  0  0  0  0  0  0  0  0  0
   -1.6544    3.9177    3.3329 C   0  0  2  0  0  0  0  0  0  0  0  0
   -0.6699   -3.1821   -0.1432 H   0  0  0  0  0  0  0  0  0  0  0  0
   -3.3844   -0.9648   -0.5388 H   0  0  0  0  0  0  0  0  0  0  0  0
   -0.3158   -2.2836   -3.1416 H   0  0  0  0  0  0  0  0  0  0  0  0
   -0.8087    0.8709   -2.3335 H   0  0  0  0  0  0  0  0  0  0  0  0
    1.9971   -1.0358    0.1928 H   0  0  0  0  0  0  0  0  0  0  0  0
   -1.4101    0.5693    2.9559 H   0  0  0  0  0  0  0  0  0  0  0  0
   -5.0142   -1.5320   -2.1930 H   0  0  0  0  0  0  0  0  0  0  0  0
   -1.9829   -2.8802   -4.7731 H   0  0  0  0  0  0  0  0  0  0  0  0
    0.7996    2.5979   -2.7843 H   0  0  0  0  0  0  0  0  0  0  0  0
    3.5789    0.7083   -0.2686 H   0  0  0  0  0  0  0  0  0  0  0  0
    0.6129    1.6730    2.0570 H   0  0  0  0  0  0  0  0  0  0  0  0
   -0.3751    2.7931    1.1400 H   0  0  0  0  0  0  0  0  0  0  0  0
   -3.0137    2.5365    1.2319 H   0  0  0  0  0  0  0  0  0  0  0  0
   -3.6658    1.2512    2.2612 H   0  0  0  0  0  0  0  0  0  0  0  0
   -4.3403   -2.5084   -4.3096 H   0  0  0  0  0  0  0  0  0  0  0  0
    2.9829    2.5415   -1.7461 H   0  0  0  0  0  0  0  0  0  0  0  0
   -3.7990    3.5495    3.3150 H   0  0  0  0  0  0  0  0  0  0  0  0
   -2.8993    2.3970    4.2949 H   0  0  0  0  0  0  0  0  0  0  0  0
   -0.6308    1.7632    4.8150 H   0  0  0  0  0  0  0  0  0  0  0  0
    0.0680    3.2741    5.3754 H   0  0  0  0  0  0  0  0  0  0  0  0
    1.0645    2.1090    4.5005 H   0  0  0  0  0  0  0  0  0  0  0  0
    1.7545    3.8137    2.8494 H   0  0  0  0  0  0  0  0  0  0  0  0
    0.5690    4.8258    2.0419 H   0  0  0  0  0  0  0  0  0  0  0  0
    0.8390    5.0042    3.7714 H   0  0  0  0  0  0  0  0  0  0  0  0
   -1.7949    4.5763    2.4684 H   0  0  0  0  0  0  0  0  0  0  0  0
   -1.7028    4.5598    4.2184 H   0  0  0  0  0  0  0  0  0  0  0  0
  1  2  1  0  0  0  0 
  1  3  1  0  0  0  0 
  1  4  1  0  0  0  0 
  1  5  1  0  0  0  0 
  2  6  1  0  0  0  0 
  2  7  2  0  0  0  0 
  4  8  2  0  0  0  0 
  4  9  1  0  0  0  0 
  5 10  2  0  0  0  0 
  5 11  1  0  0  0  0 
  6 12  1  0  0  0  0 
  8 13  1  0  0  0  0 
  9 14  2  0  0  0  0 
 10 15  1  0  0  0  0 
 11 16  2  0  0  0  0 
 12 17  1  0  0  0  0 
 12 18  1  0  0  0  0 
 13 19  2  0  0  0  0 
 14 19  1  0  0  0  0 
 15 20  2  0  0  0  0 
 16 20  1  0  0  0  0 
 17 21  1  0  0  0  0 
 18 22  1  0  0  0  0 
 21 23  1  0  0  0  0 
 21 24  1  0  0  0  0 
 21 25  1  0  0  0  0 
 22 25  1  0  0  0  0 
  3 26  1  0  0  0  0 
  8 27  1  0  0  0  0 
  9 28  1  0  0  0  0 
 10 29  1  0  0  0  0 
 11 30  1  0  0  0  0 
 12 31  1  0  0  0  0 
 13 32  1  0  0  0  0 
 14 33  1  0  0  0  0 
 15 34  1  0  0  0  0 
 16 35  1  0  0  0  0 
 17 36  1  0  0  0  0 
 17 37  1  0  0  0  0 
 18 38  1  0  0  0  0 
 18 39  1  0  0  0  0 
 19 40  1  0  0  0  0 
 20 41  1  0  0  0  0 
 22 42  1  0  0  0  0 
 22 43  1  0  0  0  0 
 23 44  1  0  0  0  0 
 23 45  1  0  0  0  0 
 23 46  1  0  0  0  0 
 24 47  1  0  0  0  0 
 24 48  1  0  0  0  0 
 24 49  1  0  0  0  0 
 25 50  1  0  0  0  0 
 25 51  1  0  0  0  0 
M  CHG  1  21   1
M  END
> <cdk:Title>
mepenzolate

> <Conformer>
1

> <SuperDrugID>
SD001493

$$$$
