artenimol
  CDK     0628171801

 44 47  0  0  0  0  0  0  0  0999 V2000
    6.1456    0.1823    2.8451 C   0  0  0  0  0  0  0  0  0  0  0  0
    5.5873    0.7176    1.4959 C   0  0  2  0  0  0  0  0  0  0  0  0
    4.0187    0.7982    1.4296 C   0  0  1  0  0  0  0  0  0  0  0  0
    6.1884   -0.0189    0.2579 C   0  0  1  0  0  0  0  0  0  0  0  0
    3.5484    1.3666    0.0384 C   0  0  1  0  0  0  0  0  0  0  0  0
    3.2879   -0.5487    1.7686 C   0  0  1  0  0  0  0  0  0  0  0  0
    6.0514   -1.4393    0.3005 O   0  0  0  0  0  0  0  0  0  0  0  0
    5.6443    0.4874   -0.9766 O   0  0  0  0  0  0  0  0  0  0  0  0
    4.2037    0.4805   -1.0851 C   0  0  2  0  0  0  0  0  0  0  0  0
    1.9710    1.5066    0.0392 C   0  0  1  0  0  0  0  0  0  0  0  0
    4.0948    2.6910   -0.1924 O   0  0  0  0  0  0  0  0  0  0  0  0
    1.7493   -0.5174    1.5609 C   0  0  2  0  0  0  0  0  0  0  0  0
    3.9560    0.9541   -2.4160 O   0  0  0  0  0  0  0  0  0  0  0  0
    1.4016    2.4799   -1.0518 C   0  0  1  0  0  0  0  0  0  0  0  0
    1.2886    0.0997    0.1985 C   0  0  1  0  0  0  0  0  0  0  0  0
    4.1372    3.1459   -1.4657 O   0  0  0  0  0  0  0  0  0  0  0  0
    3.5444    2.3304   -2.5167 C   0  0  2  0  0  0  0  0  0  0  0  0
    1.9827    2.3496   -2.4774 C   0  0  2  0  0  0  0  0  0  0  0  0
   -0.2664    0.0937    0.1267 C   0  0  0  0  0  0  0  0  0  0  0  0
    4.0886    2.8534   -3.8694 C   0  0  0  0  0  0  0  0  0  0  0  0
    3.8569   -0.5526   -1.0559 H   0  0  0  0  0  0  0  0  0  0  0  0
    1.7161    2.0435    0.9621 H   0  0  0  0  0  0  0  0  0  0  0  0
    3.7144    1.5152    2.1988 H   0  0  0  0  0  0  0  0  0  0  0  0
    5.8985   -0.8704    2.9868 H   0  0  0  0  0  0  0  0  0  0  0  0
    7.2330    0.2843    2.8740 H   0  0  0  0  0  0  0  0  0  0  0  0
    5.7315    0.7545    3.6782 H   0  0  0  0  0  0  0  0  0  0  0  0
    5.9526    1.7487    1.4308 H   0  0  0  0  0  0  0  0  0  0  0  0
    7.2623    0.1858    0.2212 H   0  0  0  0  0  0  0  0  0  0  0  0
    3.6897   -1.3632    1.1673 H   0  0  0  0  0  0  0  0  0  0  0  0
    3.4743   -0.8070    2.8146 H   0  0  0  0  0  0  0  0  0  0  0  0
    6.5768   -1.7245    1.0774 H   0  0  0  0  0  0  0  0  0  0  0  0
    1.3099    0.0588    2.3812 H   0  0  0  0  0  0  0  0  0  0  0  0
    1.3731   -1.5426    1.6439 H   0  0  0  0  0  0  0  0  0  0  0  0
    0.3170    2.4145   -1.1065 H   0  0  0  0  0  0  0  0  0  0  0  0
    1.6014    3.5061   -0.7269 H   0  0  0  0  0  0  0  0  0  0  0  0
    1.6189   -0.5538   -0.6124 H   0  0  0  0  0  0  0  0  0  0  0  0
    1.6082    3.1970   -3.0591 H   0  0  0  0  0  0  0  0  0  0  0  0
    1.5825    1.4441   -2.9422 H   0  0  0  0  0  0  0  0  0  0  0  0
   -0.6084    0.3156   -0.8843 H   0  0  0  0  0  0  0  0  0  0  0  0
   -0.6918    0.8280    0.8115 H   0  0  0  0  0  0  0  0  0  0  0  0
   -0.6620   -0.8901    0.3868 H   0  0  0  0  0  0  0  0  0  0  0  0
    5.1762    2.7655   -3.8930 H   0  0  0  0  0  0  0  0  0  0  0  0
    3.6759    2.2756   -4.6991 H   0  0  0  0  0  0  0  0  0  0  0  0
    3.8254    3.9045   -4.0059 H   0  0  0  0  0  0  0  0  0  0  0  0
  2  1  1  0  0  0  0 
  3  2  1  0  0  0  0 
  2  4  1  0  0  0  0 
  5  3  1  0  0  0  0 
  3  6  1  0  0  0  0 
  3 23  1  0  0  0  0 
  4  7  1  0  0  0  0 
  4  8  1  0  0  0  0 
  5  9  1  0  0  0  0 
 10  5  1  0  0  0  0 
  5 11  1  0  0  0  0 
  6 12  1  0  0  0  0 
  9  8  1  0  0  0  0 
  9 13  1  0  0  0  0 
  9 21  1  0  0  0  0 
 10 14  1  0  0  0  0 
 15 10  1  0  0  0  0 
 10 22  1  0  0  0  0 
 11 16  1  0  0  0  0 
 15 12  1  0  0  0  0 
 17 13  1  0  0  0  0 
 14 18  1  0  0  0  0 
 15 19  1  0  0  0  0 
 17 16  1  0  0  0  0 
 17 18  1  0  0  0  0 
 17 20  1  0  0  0  0 
  1 24  1  0  0  0  0 
  1 25  1  0  0  0  0 
  1 26  1  0  0  0  0 
  2 27  1  0  0  0  0 
  4 28  1  0  0  0  0 
  6 29  1  0  0  0  0 
  6 30  1  0  0  0  0 
  7 31  1  0  0  0  0 
 12 32  1  0  0  0  0 
 12 33  1  0  0  0  0 
 14 34  1  0  0  0  0 
 14 35  1  0  0  0  0 
 15 36  1  0  0  0  0 
 18 37  1  0  0  0  0 
 18 38  1  0  0  0  0 
 19 39  1  0  0  0  0 
 19 40  1  0  0  0  0 
 19 41  1  0  0  0  0 
 20 42  1  0  0  0  0 
 20 43  1  0  0  0  0 
 20 44  1  0  0  0  0 
M  END
> <cdk:Title>
artenimol

> <Conformer>
1

> <SuperDrugID>
SD003424

$$$$
