lanatoside C
  CDK     0628171801

145153  0  0  0  0  0  0  0  0999 V2000
  -17.0547    3.6231    3.9540 O   0  0  0  0  0  0  0  0  0  0  0  0
  -17.1857    4.7489    3.0752 C   0  0  2  0  0  0  0  0  0  0  0  0
  -18.7100    5.0174    2.7898 C   0  0  1  0  0  0  0  0  0  0  0  0
  -16.3111    4.3642    1.8130 C   0  0  1  0  0  0  0  0  0  0  0  0
  -16.7280    6.0216    3.8666 C   0  0  2  0  0  0  0  0  0  0  0  0
  -19.5475    3.7038    2.5788 C   0  0  0  0  0  0  0  0  0  0  0  0
  -19.1792    5.8052    4.0816 C   0  0  2  0  0  0  0  0  0  0  0  0
  -18.8553    5.9419    1.5060 C   0  0  2  0  0  0  0  0  0  0  0  0
  -16.5008    5.3330    0.5915 C   0  0  2  0  0  0  0  0  0  0  0  0
  -14.8059    4.1440    2.2141 C   0  0  1  0  0  0  0  0  0  0  0  0
  -17.9811    6.7285    4.4313 C   0  0  1  0  0  0  0  0  0  0  0  0
  -19.6233    5.0244    5.2584 C   0  0  0  0  0  0  0  0  0  0  0  0
  -20.2223    6.0896    1.1127 O   0  0  0  0  0  0  0  0  0  0  0  0
  -18.0270    5.4744    0.2779 C   0  0  2  0  0  0  0  0  0  0  0  0
  -15.5557    5.0432   -0.6815 C   0  0  2  0  0  0  0  0  0  0  0  0
  -13.7790    4.6887    1.1997 C   0  0  1  0  0  0  0  0  0  0  0  0
  -21.0150    4.8435    5.6239 C   0  0  2  0  0  0  0  0  0  0  0  0
  -18.8631    4.3959    6.1621 C   0  0  0  0  0  0  0  0  0  0  0  0
  -16.2710    4.1108   -1.7278 C   0  0  0  0  0  0  0  0  0  0  0  0
  -14.2071    4.3082   -0.2487 C   0  0  2  0  0  0  0  0  0  0  0  0
  -15.2412    6.4316   -1.3872 C   0  0  2  0  0  0  0  0  0  0  0  0
  -20.9396    4.0235    6.7916 O   0  0  0  0  0  0  0  0  0  0  0  0
  -19.6459    3.7778    7.0763 C   0  0  0  0  0  0  0  0  0  0  0  0
  -13.0130    4.4608   -1.2490 C   0  0  2  0  0  0  0  0  0  0  0  0
  -14.0204    6.4739   -2.3487 C   0  0  2  0  0  0  0  0  0  0  0  0
  -19.2404    3.0874    8.0380 O   0  0  0  0  0  0  0  0  0  0  0  0
  -12.7515    5.9454   -1.6323 C   0  0  2  0  0  0  0  0  0  0  0  0
  -11.5710    6.2119   -2.4339 O   0  0  0  0  0  0  0  0  0  0  0  0
  -10.3061    5.7058   -1.9335 C   0  0  1  0  0  0  0  0  0  0  0  0
   -9.1008    6.2382   -2.7612 C   0  0  1  0  0  0  0  0  0  0  0  0
  -10.1186    5.8297   -0.4967 O   0  0  0  0  0  0  0  0  0  0  0  0
   -8.4880    7.5397   -2.1855 C   0  0  2  0  0  0  0  0  0  0  0  0
   -9.5843    7.0627    0.0375 C   0  0  1  0  0  0  0  0  0  0  0  0
   -7.2890    7.8497   -2.8906 O   0  0  0  0  0  0  0  0  0  0  0  0
   -8.2275    7.4114   -0.6549 C   0  0  1  0  0  0  0  0  0  0  0  0
  -10.6110    8.2291    0.0766 C   0  0  0  0  0  0  0  0  0  0  0  0
   -7.2011    6.3997   -0.4240 O   0  0  0  0  0  0  0  0  0  0  0  0
   -6.5805    6.3474    0.8890 C   0  0  1  0  0  0  0  0  0  0  0  0
   -5.6215    5.1327    1.0389 C   0  0  1  0  0  0  0  0  0  0  0  0
   -5.9382    7.5903    1.2516 O   0  0  0  0  0  0  0  0  0  0  0  0
   -4.2222    5.3955    0.4297 C   0  0  2  0  0  0  0  0  0  0  0  0
   -4.6649    7.8915    0.6395 C   0  0  1  0  0  0  0  0  0  0  0  0
   -3.3490    4.3152    0.7549 O   0  0  0  0  0  0  0  0  0  0  0  0
   -3.6320    6.7498    0.9211 C   0  0  1  0  0  0  0  0  0  0  0  0
   -4.7695    8.3136   -0.8495 C   0  0  0  0  0  0  0  0  0  0  0  0
   -3.3277    6.6420    2.3405 O   0  0  0  0  0  0  0  0  0  0  0  0
   -2.3812    7.5973    2.8809 C   0  0  1  0  0  0  0  0  0  0  0  0
   -2.4585    7.6528    4.4388 C   0  0  1  0  0  0  0  0  0  0  0  0
   -1.0520    7.3933    2.3428 O   0  0  0  0  0  0  0  0  0  0  0  0
   -1.4884    6.6733    5.1573 C   0  0  2  0  0  0  0  0  0  0  0  0
   -0.2018    6.4221    2.9883 C   0  0  1  0  0  0  0  0  0  0  0  0
   -1.3617    7.0392    6.5449 O   0  0  0  0  0  0  0  0  0  0  0  0
   -0.0779    6.7575    4.5096 C   0  0  1  0  0  0  0  0  0  0  0  0
   -0.5908    4.9532    2.6625 C   0  0  0  0  0  0  0  0  0  0  0  0
   -1.6044    6.2894    7.6602 C   0  0  0  0  0  0  0  0  0  0  0  0
    0.3884    8.0978    4.8219 O   0  0  0  0  0  0  0  0  0  0  0  0
   -1.3112    6.8709    8.9769 C   0  0  0  0  0  0  0  0  0  0  0  0
   -2.0633    5.1263    7.5899 O   0  0  0  0  0  0  0  0  0  0  0  0
    1.6039    8.6105    4.2526 C   0  0  1  0  0  0  0  0  0  0  0  0
    1.3149    9.0169    2.8964 O   0  0  0  0  0  0  0  0  0  0  0  0
    2.0539    9.8314    5.1052 C   0  0  2  0  0  0  0  0  0  0  0  0
    2.3834    9.6464    2.1582 C   0  0  2  0  0  0  0  0  0  0  0  0
    0.9495   10.6987    5.3754 O   0  0  0  0  0  0  0  0  0  0  0  0
    3.1995   10.6219    4.4122 C   0  0  2  0  0  0  0  0  0  0  0  0
    3.4939    8.6457    1.7346 C   0  0  2  0  0  0  0  0  0  0  0  0
    2.8931   10.9115    2.9140 C   0  0  2  0  0  0  0  0  0  0  0  0
    4.4229    9.8995    4.5437 O   0  0  0  0  0  0  0  0  0  0  0  0
    2.9275    7.5436    1.0328 O   0  0  0  0  0  0  0  0  0  0  0  0
    1.9032   11.9400    2.8370 O   0  0  0  0  0  0  0  0  0  0  0  0
  -16.6759    3.3932    1.4567 H   0  0  0  0  0  0  0  0  0  0  0  0
  -16.2069    6.3060    0.9877 H   0  0  0  0  0  0  0  0  0  0  0  0
  -14.3882    3.2259   -0.2155 H   0  0  0  0  0  0  0  0  0  0  0  0
  -10.3282    4.6310   -2.1320 H   0  0  0  0  0  0  0  0  0  0  0  0
   -7.3574    6.1809    1.6347 H   0  0  0  0  0  0  0  0  0  0  0  0
   -2.6563    8.5990    2.5512 H   0  0  0  0  0  0  0  0  0  0  0  0
    2.3789    7.8389    4.2836 H   0  0  0  0  0  0  0  0  0  0  0  0
  -16.1099    3.5938    4.2121 H   0  0  0  0  0  0  0  0  0  0  0  0
  -16.1923    6.7232    3.2256 H   0  0  0  0  0  0  0  0  0  0  0  0
  -16.0563    5.7547    4.6871 H   0  0  0  0  0  0  0  0  0  0  0  0
  -20.6085    3.9390    2.4723 H   0  0  0  0  0  0  0  0  0  0  0  0
  -19.4523    3.0235    3.4246 H   0  0  0  0  0  0  0  0  0  0  0  0
  -19.2271    3.1608    1.6911 H   0  0  0  0  0  0  0  0  0  0  0  0
  -20.0270    6.4445    3.8077 H   0  0  0  0  0  0  0  0  0  0  0  0
  -18.5121    6.9540    1.7298 H   0  0  0  0  0  0  0  0  0  0  0  0
  -14.5612    4.5996    3.1757 H   0  0  0  0  0  0  0  0  0  0  0  0
  -14.6336    3.0688    2.3376 H   0  0  0  0  0  0  0  0  0  0  0  0
  -17.8816    6.9170    5.5052 H   0  0  0  0  0  0  0  0  0  0  0  0
  -18.1125    7.7063    3.9563 H   0  0  0  0  0  0  0  0  0  0  0  0
  -20.2136    6.7192    0.3610 H   0  0  0  0  0  0  0  0  0  0  0  0
  -18.1569    6.2071   -0.5248 H   0  0  0  0  0  0  0  0  0  0  0  0
  -18.4332    4.5237   -0.0742 H   0  0  0  0  0  0  0  0  0  0  0  0
  -13.7053    5.7752    1.3034 H   0  0  0  0  0  0  0  0  0  0  0  0
  -12.8014    4.2629    1.4489 H   0  0  0  0  0  0  0  0  0  0  0  0
  -21.5779    4.3393    4.8367 H   0  0  0  0  0  0  0  0  0  0  0  0
  -21.4824    5.8012    5.8650 H   0  0  0  0  0  0  0  0  0  0  0  0
  -17.8721    4.3800    6.1854 H   0  0  0  0  0  0  0  0  0  0  0  0
  -16.6072    3.1870   -1.2517 H   0  0  0  0  0  0  0  0  0  0  0  0
  -17.1434    4.5964   -2.1680 H   0  0  0  0  0  0  0  0  0  0  0  0
  -15.6096    3.8422   -2.5532 H   0  0  0  0  0  0  0  0  0  0  0  0
  -15.0304    7.1944   -0.6329 H   0  0  0  0  0  0  0  0  0  0  0  0
  -16.1206    6.7826   -1.9357 H   0  0  0  0  0  0  0  0  0  0  0  0
  -13.2045    3.8852   -2.1589 H   0  0  0  0  0  0  0  0  0  0  0  0
  -12.1238    4.0196   -0.7951 H   0  0  0  0  0  0  0  0  0  0  0  0
  -13.8543    7.5095   -2.6602 H   0  0  0  0  0  0  0  0  0  0  0  0
  -14.2254    5.8929   -3.2534 H   0  0  0  0  0  0  0  0  0  0  0  0
  -12.6377    6.5229   -0.7163 H   0  0  0  0  0  0  0  0  0  0  0  0
   -8.3179    5.4736   -2.7706 H   0  0  0  0  0  0  0  0  0  0  0  0
   -9.4068    6.4071   -3.7975 H   0  0  0  0  0  0  0  0  0  0  0  0
   -9.1709    8.3732   -2.3721 H   0  0  0  0  0  0  0  0  0  0  0  0
   -9.3876    6.8556    1.0879 H   0  0  0  0  0  0  0  0  0  0  0  0
   -7.5714    7.9612   -3.8231 H   0  0  0  0  0  0  0  0  0  0  0  0
   -7.8724    8.3810   -0.2928 H   0  0  0  0  0  0  0  0  0  0  0  0
  -11.4302    7.9780    0.7542 H   0  0  0  0  0  0  0  0  0  0  0  0
  -11.0284    8.4293   -0.9101 H   0  0  0  0  0  0  0  0  0  0  0  0
  -10.1421    9.1437    0.4466 H   0  0  0  0  0  0  0  0  0  0  0  0
   -5.4974    4.9102    2.1031 H   0  0  0  0  0  0  0  0  0  0  0  0
   -6.0672    4.2530    0.5690 H   0  0  0  0  0  0  0  0  0  0  0  0
   -4.3063    5.4054   -0.6600 H   0  0  0  0  0  0  0  0  0  0  0  0
   -4.3339    8.7964    1.1438 H   0  0  0  0  0  0  0  0  0  0  0  0
   -3.7813    3.5201    0.3740 H   0  0  0  0  0  0  0  0  0  0  0  0
   -2.7096    6.9314    0.3586 H   0  0  0  0  0  0  0  0  0  0  0  0
   -5.5111    9.1069   -0.9545 H   0  0  0  0  0  0  0  0  0  0  0  0
   -5.0592    7.4790   -1.4855 H   0  0  0  0  0  0  0  0  0  0  0  0
   -3.8112    8.6989   -1.2047 H   0  0  0  0  0  0  0  0  0  0  0  0
   -2.2101    8.6704    4.7567 H   0  0  0  0  0  0  0  0  0  0  0  0
   -3.4823    7.4585    4.7673 H   0  0  0  0  0  0  0  0  0  0  0  0
   -1.8809    5.6555    5.0753 H   0  0  0  0  0  0  0  0  0  0  0  0
    0.7874    6.5453    2.5453 H   0  0  0  0  0  0  0  0  0  0  0  0
    0.5882    6.0365    4.9930 H   0  0  0  0  0  0  0  0  0  0  0  0
   -0.5249    4.7824    1.5862 H   0  0  0  0  0  0  0  0  0  0  0  0
   -1.6066    4.7273    2.9814 H   0  0  0  0  0  0  0  0  0  0  0  0
    0.0909    4.2633    3.1634 H   0  0  0  0  0  0  0  0  0  0  0  0
   -0.8871    7.8712    8.8680 H   0  0  0  0  0  0  0  0  0  0  0  0
   -2.2259    6.9348    9.5665 H   0  0  0  0  0  0  0  0  0  0  0  0
   -0.5890    6.2439    9.5010 H   0  0  0  0  0  0  0  0  0  0  0  0
    2.4072    9.4739    6.0758 H   0  0  0  0  0  0  0  0  0  0  0  0
    1.9277    9.9884    1.2241 H   0  0  0  0  0  0  0  0  0  0  0  0
    0.6110   10.9804    4.5008 H   0  0  0  0  0  0  0  0  0  0  0  0
    3.3442   11.5714    4.9348 H   0  0  0  0  0  0  0  0  0  0  0  0
    4.0310    8.2571    2.5980 H   0  0  0  0  0  0  0  0  0  0  0  0
    4.2120    9.1407    1.0781 H   0  0  0  0  0  0  0  0  0  0  0  0
    3.7894   11.3029    2.4250 H   0  0  0  0  0  0  0  0  0  0  0  0
    5.1032   10.4693    4.1307 H   0  0  0  0  0  0  0  0  0  0  0  0
    3.6797    6.9336    0.8692 H   0  0  0  0  0  0  0  0  0  0  0  0
    1.8067   12.1401    1.8833 H   0  0  0  0  0  0  0  0  0  0  0  0
  2  1  1  0  0  0  0 
  2  3  1  0  0  0  0 
  4  2  1  0  0  0  0 
  2  5  1  0  0  0  0 
  3  6  1  0  0  0  0 
  3  7  1  0  0  0  0 
  3  8  1  0  0  0  0 
  9  4  1  0  0  0  0 
  4 10  1  0  0  0  0 
  4 70  1  0  0  0  0 
  5 11  1  0  0  0  0 
  7 11  1  0  0  0  0 
  7 12  1  0  0  0  0 
  8 13  1  0  0  0  0 
  8 14  1  0  0  0  0 
  9 14  1  0  0  0  0 
 15  9  1  0  0  0  0 
  9 71  1  0  0  0  0 
 10 16  1  0  0  0  0 
 12 17  1  0  0  0  0 
 12 18  2  0  0  0  0 
 15 19  1  0  0  0  0 
 20 15  1  0  0  0  0 
 15 21  1  0  0  0  0 
 20 16  1  0  0  0  0 
 17 22  1  0  0  0  0 
 18 23  1  0  0  0  0 
 20 24  1  0  0  0  0 
 20 72  1  0  0  0  0 
 21 25  1  0  0  0  0 
 22 23  1  0  0  0  0 
 23 26  2  0  0  0  0 
 27 24  1  0  0  0  0 
 27 25  1  0  0  0  0 
 27 28  1  0  0  0  0 
 29 28  1  0  0  0  0 
 29 30  1  0  0  0  0 
 29 31  1  0  0  0  0 
 29 73  1  0  0  0  0 
 32 30  1  0  0  0  0 
 33 31  1  0  0  0  0 
 32 34  1  0  0  0  0 
 35 32  1  0  0  0  0 
 33 35  1  0  0  0  0 
 33 36  1  0  0  0  0 
 35 37  1  0  0  0  0 
 38 37  1  0  0  0  0 
 38 39  1  0  0  0  0 
 38 40  1  0  0  0  0 
 38 74  1  0  0  0  0 
 41 39  1  0  0  0  0 
 42 40  1  0  0  0  0 
 41 43  1  0  0  0  0 
 44 41  1  0  0  0  0 
 44 42  1  0  0  0  0 
 42 45  1  0  0  0  0 
 44 46  1  0  0  0  0 
 47 46  1  0  0  0  0 
 47 48  1  0  0  0  0 
 47 49  1  0  0  0  0 
 47 75  1  0  0  0  0 
 50 48  1  0  0  0  0 
 51 49  1  0  0  0  0 
 50 52  1  0  0  0  0 
 53 50  1  0  0  0  0 
 53 51  1  0  0  0  0 
 51 54  1  0  0  0  0 
 52 55  1  0  0  0  0 
 53 56  1  0  0  0  0 
 55 57  1  0  0  0  0 
 55 58  2  0  0  0  0 
 59 56  1  0  0  0  0 
 59 60  1  0  0  0  0 
 61 59  1  0  0  0  0 
 59 76  1  0  0  0  0 
 62 60  1  0  0  0  0 
 61 63  1  0  0  0  0 
 61 64  1  0  0  0  0 
 62 65  1  0  0  0  0 
 66 62  1  0  0  0  0 
 64 66  1  0  0  0  0 
 64 67  1  0  0  0  0 
 65 68  1  0  0  0  0 
 66 69  1  0  0  0  0 
  1 77  1  0  0  0  0 
  5 78  1  0  0  0  0 
  5 79  1  0  0  0  0 
  6 80  1  0  0  0  0 
  6 81  1  0  0  0  0 
  6 82  1  0  0  0  0 
  7 83  1  0  0  0  0 
  8 84  1  0  0  0  0 
 10 85  1  0  0  0  0 
 10 86  1  0  0  0  0 
 11 87  1  0  0  0  0 
 11 88  1  0  0  0  0 
 13 89  1  0  0  0  0 
 14 90  1  0  0  0  0 
 14 91  1  0  0  0  0 
 16 92  1  0  0  0  0 
 16 93  1  0  0  0  0 
 17 94  1  0  0  0  0 
 17 95  1  0  0  0  0 
 18 96  1  0  0  0  0 
 19 97  1  0  0  0  0 
 19 98  1  0  0  0  0 
 19 99  1  0  0  0  0 
 21100  1  0  0  0  0 
 21101  1  0  0  0  0 
 24102  1  0  0  0  0 
 24103  1  0  0  0  0 
 25104  1  0  0  0  0 
 25105  1  0  0  0  0 
 27106  1  0  0  0  0 
 30107  1  0  0  0  0 
 30108  1  0  0  0  0 
 32109  1  0  0  0  0 
 33110  1  0  0  0  0 
 34111  1  0  0  0  0 
 35112  1  0  0  0  0 
 36113  1  0  0  0  0 
 36114  1  0  0  0  0 
 36115  1  0  0  0  0 
 39116  1  0  0  0  0 
 39117  1  0  0  0  0 
 41118  1  0  0  0  0 
 42119  1  0  0  0  0 
 43120  1  0  0  0  0 
 44121  1  0  0  0  0 
 45122  1  0  0  0  0 
 45123  1  0  0  0  0 
 45124  1  0  0  0  0 
 48125  1  0  0  0  0 
 48126  1  0  0  0  0 
 50127  1  0  0  0  0 
 51128  1  0  0  0  0 
 53129  1  0  0  0  0 
 54130  1  0  0  0  0 
 54131  1  0  0  0  0 
 54132  1  0  0  0  0 
 57133  1  0  0  0  0 
 57134  1  0  0  0  0 
 57135  1  0  0  0  0 
 61136  1  0  0  0  0 
 62137  1  0  0  0  0 
 63138  1  0  0  0  0 
 64139  1  0  0  0  0 
 65140  1  0  0  0  0 
 65141  1  0  0  0  0 
 66142  1  0  0  0  0 
 67143  1  0  0  0  0 
 68144  1  0  0  0  0 
 69145  1  0  0  0  0 
M  END
> <cdk:Title>
lanatoside C

> <Conformer>
1

> <SuperDrugID>
SD001363

$$$$
