mirabegron
  CDK     0628171801

 52 54  0  0  0  0  0  0  0  0999 V2000
    2.3572   -3.4429   -0.0271 N   0  0  0  0  0  0  0  0  0  0  0  0
    3.4885   -4.1888   -0.1978 C   0  0  0  0  0  0  0  0  0  0  0  0
    2.0704   -2.5316    0.9557 C   0  0  0  0  0  0  0  0  0  0  0  0
    3.6569   -4.9823   -1.4341 C   0  0  2  0  0  0  0  0  0  0  0  0
    4.4063   -4.2305    0.6571 O   0  0  0  0  0  0  0  0  0  0  0  0
    0.7117   -2.2343    1.2041 C   0  0  0  0  0  0  0  0  0  0  0  0
    3.0511   -1.8251    1.6942 C   0  0  0  0  0  0  0  0  0  0  0  0
    3.8112   -6.4259   -1.1608 C   0  0  0  0  0  0  0  0  0  0  0  0
    0.3430   -1.2611    2.1561 C   0  0  0  0  0  0  0  0  0  0  0  0
    2.6874   -0.8583    2.6462 C   0  0  0  0  0  0  0  0  0  0  0  0
    2.7954   -7.2242   -0.6105 C   0  0  0  0  0  0  0  0  0  0  0  0
    4.9844   -7.0698   -1.4294 N   0  0  0  0  0  0  0  0  0  0  0  0
    1.3301   -0.5495    2.8777 C   0  0  0  0  0  0  0  0  0  0  0  0
    3.4782   -8.8335   -0.4772 S   0  0  0  0  0  0  0  0  0  0  0  0
    5.0445   -8.3845   -1.1259 C   0  0  0  0  0  0  0  0  0  0  0  0
    0.9693    0.5613    3.8049 C   0  0  1  0  0  0  0  0  0  0  0  0
    6.1037   -9.1916   -1.2850 N   0  0  0  0  0  0  0  0  0  0  0  0
    1.1334    1.9368    3.1096 C   0  0  1  0  0  0  0  0  0  0  0  0
    0.2320    1.9874    1.9379 N   0  0  2  0  0  0  0  0  0  0  0  0
    0.5847    2.9382    0.8652 C   0  0  1  0  0  0  0  0  0  0  0  0
   -0.4005    2.7399   -0.3154 C   0  0  2  0  0  0  0  0  0  0  0  0
   -0.2896    1.4126   -0.8399 O   0  0  0  0  0  0  0  0  0  0  0  0
   -0.1946    3.7253   -1.4162 C   0  0  0  0  0  0  0  0  0  0  0  0
    0.8897    3.5910   -2.3166 C   0  0  0  0  0  0  0  0  0  0  0  0
   -1.0863    4.8107   -1.5982 C   0  0  0  0  0  0  0  0  0  0  0  0
    1.0582    4.4903   -3.3864 C   0  0  0  0  0  0  0  0  0  0  0  0
   -0.9163    5.7157   -2.6630 C   0  0  0  0  0  0  0  0  0  0  0  0
    0.1515    5.5505   -3.5622 C   0  0  0  0  0  0  0  0  0  0  0  0
    1.6682   -3.5710   -0.6982 H   0  0  0  0  0  0  0  0  0  0  0  0
    4.5467   -4.6077   -1.9456 H   0  0  0  0  0  0  0  0  0  0  0  0
    2.8110   -4.8389   -2.1116 H   0  0  0  0  0  0  0  0  0  0  0  0
   -0.0249   -2.7194    0.6834 H   0  0  0  0  0  0  0  0  0  0  0  0
    4.0447   -1.9772    1.5317 H   0  0  0  0  0  0  0  0  0  0  0  0
   -0.6501   -1.0573    2.3006 H   0  0  0  0  0  0  0  0  0  0  0  0
    3.4234   -0.3630    3.1566 H   0  0  0  0  0  0  0  0  0  0  0  0
    1.8541   -6.9380   -0.3376 H   0  0  0  0  0  0  0  0  0  0  0  0
   -0.0633    0.4602    4.1482 H   0  0  0  0  0  0  0  0  0  0  0  0
    1.6039    0.5239    4.6960 H   0  0  0  0  0  0  0  0  0  0  0  0
    6.0693  -10.1078   -0.9716 H   0  0  0  0  0  0  0  0  0  0  0  0
    6.9090   -8.8602   -1.7087 H   0  0  0  0  0  0  0  0  0  0  0  0
    0.8658    2.7391    3.8000 H   0  0  0  0  0  0  0  0  0  0  0  0
    2.1801    2.0697    2.8175 H   0  0  0  0  0  0  0  0  0  0  0  0
   -0.7032    2.2284    2.2756 H   0  0  0  0  0  0  0  0  0  0  0  0
    0.5093    3.9592    1.2482 H   0  0  0  0  0  0  0  0  0  0  0  0
    1.6075    2.7547    0.5251 H   0  0  0  0  0  0  0  0  0  0  0  0
   -1.4171    2.8361    0.0798 H   0  0  0  0  0  0  0  0  0  0  0  0
   -0.4396    0.8144   -0.0775 H   0  0  0  0  0  0  0  0  0  0  0  0
    1.5589    2.8269   -2.2061 H   0  0  0  0  0  0  0  0  0  0  0  0
   -1.8691    4.9523   -0.9572 H   0  0  0  0  0  0  0  0  0  0  0  0
    1.8382    4.3730   -4.0371 H   0  0  0  0  0  0  0  0  0  0  0  0
   -1.5689    6.4942   -2.7846 H   0  0  0  0  0  0  0  0  0  0  0  0
    0.2695    6.2020   -4.3427 H   0  0  0  0  0  0  0  0  0  0  0  0
  1  2  1  0  0  0  0 
  1  3  1  0  0  0  0 
  2  4  1  0  0  0  0 
  2  5  2  0  0  0  0 
  3  6  2  0  0  0  0 
  3  7  1  0  0  0  0 
  4  8  1  0  0  0  0 
  6  9  1  0  0  0  0 
  7 10  2  0  0  0  0 
  8 11  2  0  0  0  0 
  8 12  1  0  0  0  0 
  9 13  2  0  0  0  0 
 10 13  1  0  0  0  0 
 11 14  1  0  0  0  0 
 12 15  2  0  0  0  0 
 13 16  1  0  0  0  0 
 14 15  1  0  0  0  0 
 15 17  1  0  0  0  0 
 16 18  1  0  0  0  0 
 18 19  1  0  0  0  0 
 19 20  1  0  0  0  0 
 21 20  1  0  0  0  0 
 21 22  1  0  0  0  0 
 21 23  1  0  0  0  0 
 23 24  2  0  0  0  0 
 23 25  1  0  0  0  0 
 24 26  1  0  0  0  0 
 25 27  2  0  0  0  0 
 26 28  2  0  0  0  0 
 27 28  1  0  0  0  0 
  1 29  1  0  0  0  0 
  4 30  1  0  0  0  0 
  4 31  1  0  0  0  0 
  6 32  1  0  0  0  0 
  7 33  1  0  0  0  0 
  9 34  1  0  0  0  0 
 10 35  1  0  0  0  0 
 11 36  1  0  0  0  0 
 16 37  1  0  0  0  0 
 16 38  1  0  0  0  0 
 17 39  1  0  0  0  0 
 17 40  1  0  0  0  0 
 18 41  1  0  0  0  0 
 18 42  1  0  0  0  0 
 19 43  1  0  0  0  0 
 20 44  1  0  0  0  0 
 20 45  1  0  0  0  0 
 21 46  1  0  0  0  0 
 22 47  1  0  0  0  0 
 24 48  1  0  0  0  0 
 25 49  1  0  0  0  0 
 26 50  1  0  0  0  0 
 27 51  1  0  0  0  0 
 28 52  1  0  0  0  0 
M  END
> <cdk:Title>
mirabegron

> <Conformer>
1

> <SuperDrugID>
SD003535

$$$$
