thiocolchicoside
  CDK     0628171802

 72 75  0  0  0  0  0  0  0  0999 V2000
    9.6895    4.0736  -11.2906 O   0  0  0  0  0  0  0  0  0  0  0  0
   10.9513    4.5455  -10.7881 C   0  0  0  0  0  0  0  0  0  0  0  0
    9.7791    2.8539  -11.9215 C   0  0  0  0  0  0  0  0  0  0  0  0
    9.5778    1.6161  -11.2220 C   0  0  0  0  0  0  0  0  0  0  0  0
   10.0613    2.9126  -13.3062 C   0  0  0  0  0  0  0  0  0  0  0  0
    9.0743    1.7473   -9.8203 C   0  0  0  0  0  0  0  0  0  0  0  0
    9.9288    0.4242  -11.9838 C   0  0  0  0  0  0  0  0  0  0  0  0
   10.1125    4.1216  -13.9524 O   0  0  0  0  0  0  0  0  0  0  0  0
   10.3110    1.7353  -14.0270 C   0  0  0  0  0  0  0  0  0  0  0  0
    9.6119    0.9969   -8.7461 C   0  0  0  0  0  0  0  0  0  0  0  0
    7.9512    2.6518   -9.6570 C   0  0  0  0  0  0  0  0  0  0  0  0
   10.2779    0.5118  -13.3525 C   0  0  0  0  0  0  0  0  0  0  0  0
    9.9710   -0.9513  -11.4337 C   0  0  1  0  0  0  0  0  0  0  0  0
    8.8384    4.5133  -14.4955 C   0  0  0  0  0  0  0  0  0  0  0  0
   10.5362    1.7610  -15.3793 O   0  0  0  0  0  0  0  0  0  0  0  0
    9.8997   -0.4779   -8.8832 C   0  0  2  0  0  0  0  0  0  0  0  0
    9.8825    1.5395   -7.4694 C   0  0  0  0  0  0  0  0  0  0  0  0
    7.5851    3.3485   -8.4951 C   0  0  0  0  0  0  0  0  0  0  0  0
    9.2508   -1.2007  -10.1028 C   0  0  1  0  0  0  0  0  0  0  0  0
   11.9243    1.7493  -15.7718 C   0  0  2  0  0  0  0  0  0  0  0  0
    9.4887   -1.2234   -7.7118 N   0  0  0  0  0  0  0  0  0  0  0  0
    9.3328    2.6581   -6.8264 C   0  0  0  0  0  0  0  0  0  0  0  0
    8.2583    3.4518   -7.2678 C   0  0  0  0  0  0  0  0  0  0  0  0
   12.5289    3.0142  -15.4243 O   0  0  0  0  0  0  0  0  0  0  0  0
   11.9793    1.5388  -17.3098 C   0  0  2  0  0  0  0  0  0  0  0  0
    8.2247   -1.3087   -7.1941 C   0  0  0  0  0  0  0  0  0  0  0  0
    9.8122    2.8938   -5.6898 O   0  0  0  0  0  0  0  0  0  0  0  0
    7.6321    4.7189   -6.2069 S   0  0  0  0  0  0  0  0  0  0  0  0
   13.9191    3.1471  -15.8002 C   0  0  2  0  0  0  0  0  0  0  0  0
   11.4534    0.2563  -17.6504 O   0  0  0  0  0  0  0  0  0  0  0  0
   13.4344    1.6718  -17.8360 C   0  0  2  0  0  0  0  0  0  0  0  0
    7.9914   -2.1149   -5.9817 C   0  0  0  0  0  0  0  0  0  0  0  0
    7.2571   -0.7097   -7.7217 O   0  0  0  0  0  0  0  0  0  0  0  0
    8.9821    5.9349   -6.0759 C   0  0  0  0  0  0  0  0  0  0  0  0
   14.4109    4.5251  -15.2953 C   0  0  1  0  0  0  0  0  0  0  0  0
   14.0894    2.9906  -17.3424 C   0  0  2  0  0  0  0  0  0  0  0  0
   13.4431    1.6267  -19.2628 O   0  0  0  0  0  0  0  0  0  0  0  0
   14.2174    4.6392  -13.8896 O   0  0  0  0  0  0  0  0  0  0  0  0
   15.4694    2.9985  -17.7102 O   0  0  0  0  0  0  0  0  0  0  0  0
   10.7713    5.4943  -10.2857 H   0  0  0  0  0  0  0  0  0  0  0  0
   11.3815    3.8491  -10.0648 H   0  0  0  0  0  0  0  0  0  0  0  0
   11.6656    4.7189  -11.5963 H   0  0  0  0  0  0  0  0  0  0  0  0
    7.2987    2.9478  -10.4687 H   0  0  0  0  0  0  0  0  0  0  0  0
   10.4961   -0.3309  -13.8902 H   0  0  0  0  0  0  0  0  0  0  0  0
    9.5122   -1.6397  -12.1524 H   0  0  0  0  0  0  0  0  0  0  0  0
   11.0212   -1.2379  -11.3287 H   0  0  0  0  0  0  0  0  0  0  0  0
    8.9592    5.4832  -14.9760 H   0  0  0  0  0  0  0  0  0  0  0  0
    8.4872    3.8034  -15.2487 H   0  0  0  0  0  0  0  0  0  0  0  0
    8.0836    4.6134  -13.7115 H   0  0  0  0  0  0  0  0  0  0  0  0
   10.9869   -0.5937   -8.9386 H   0  0  0  0  0  0  0  0  0  0  0  0
   10.5552    1.0093   -6.9013 H   0  0  0  0  0  0  0  0  0  0  0  0
    6.7367    3.9188   -8.5932 H   0  0  0  0  0  0  0  0  0  0  0  0
    8.1973   -0.9227  -10.2092 H   0  0  0  0  0  0  0  0  0  0  0  0
    9.2854   -2.2839   -9.9372 H   0  0  0  0  0  0  0  0  0  0  0  0
   12.4565    0.9244  -15.2799 H   0  0  0  0  0  0  0  0  0  0  0  0
   10.1808   -1.7269   -7.2556 H   0  0  0  0  0  0  0  0  0  0  0  0
   11.3570    2.2964  -17.7949 H   0  0  0  0  0  0  0  0  0  0  0  0
   14.5092    2.3743  -15.2937 H   0  0  0  0  0  0  0  0  0  0  0  0
   10.5201    0.2727  -17.3480 H   0  0  0  0  0  0  0  0  0  0  0  0
   14.0236    0.8215  -17.4792 H   0  0  0  0  0  0  0  0  0  0  0  0
    6.9270   -2.1843   -5.7448 H   0  0  0  0  0  0  0  0  0  0  0  0
    8.3784   -3.1249   -6.1239 H   0  0  0  0  0  0  0  0  0  0  0  0
    8.4997   -1.6572   -5.1324 H   0  0  0  0  0  0  0  0  0  0  0  0
    8.6132    6.8200   -5.5564 H   0  0  0  0  0  0  0  0  0  0  0  0
    9.3323    6.2185   -7.0694 H   0  0  0  0  0  0  0  0  0  0  0  0
    9.8085    5.5118   -5.5060 H   0  0  0  0  0  0  0  0  0  0  0  0
   15.4749    4.6495  -15.5081 H   0  0  0  0  0  0  0  0  0  0  0  0
   13.8572    5.3288  -15.7849 H   0  0  0  0  0  0  0  0  0  0  0  0
   13.6027    3.8296  -17.8469 H   0  0  0  0  0  0  0  0  0  0  0  0
   12.9082    2.3989  -19.5452 H   0  0  0  0  0  0  0  0  0  0  0  0
   14.4919    5.5565  -13.6748 H   0  0  0  0  0  0  0  0  0  0  0  0
   15.7840    3.9062  -17.5145 H   0  0  0  0  0  0  0  0  0  0  0  0
  1  2  1  0  0  0  0 
  1  3  1  0  0  0  0 
  3  4  2  0  0  0  0 
  3  5  1  0  0  0  0 
  4  6  1  0  0  0  0 
  4  7  1  0  0  0  0 
  5  8  1  0  0  0  0 
  5  9  2  0  0  0  0 
  6 10  1  0  0  0  0 
  6 11  2  0  0  0  0 
  7 12  2  0  0  0  0 
  7 13  1  0  0  0  0 
  8 14  1  0  0  0  0 
  9 12  1  0  0  0  0 
  9 15  1  0  0  0  0 
 16 10  1  0  0  0  0 
 10 17  2  0  0  0  0 
 11 18  1  0  0  0  0 
 13 19  1  0  0  0  0 
 16 19  1  0  0  0  0 
 16 21  1  0  0  0  0 
 17 22  1  0  0  0  0 
 18 23  2  0  0  0  0 
 20 15  1  0  0  0  0 
 20 24  1  0  0  0  0 
 25 20  1  0  0  0  0 
 21 26  1  0  0  0  0 
 22 23  1  0  0  0  0 
 22 27  2  0  0  0  0 
 23 28  1  0  0  0  0 
 29 24  1  0  0  0  0 
 25 30  1  0  0  0  0 
 31 25  1  0  0  0  0 
 26 32  1  0  0  0  0 
 26 33  2  0  0  0  0 
 28 34  1  0  0  0  0 
 29 35  1  0  0  0  0 
 36 29  1  0  0  0  0 
 31 36  1  0  0  0  0 
 31 37  1  0  0  0  0 
 35 38  1  0  0  0  0 
 36 39  1  0  0  0  0 
  2 40  1  0  0  0  0 
  2 41  1  0  0  0  0 
  2 42  1  0  0  0  0 
 11 43  1  0  0  0  0 
 12 44  1  0  0  0  0 
 13 45  1  0  0  0  0 
 13 46  1  0  0  0  0 
 14 47  1  0  0  0  0 
 14 48  1  0  0  0  0 
 14 49  1  0  0  0  0 
 16 50  1  0  0  0  0 
 17 51  1  0  0  0  0 
 18 52  1  0  0  0  0 
 19 53  1  0  0  0  0 
 19 54  1  0  0  0  0 
 20 55  1  0  0  0  0 
 21 56  1  0  0  0  0 
 25 57  1  0  0  0  0 
 29 58  1  0  0  0  0 
 30 59  1  0  0  0  0 
 31 60  1  0  0  0  0 
 32 61  1  0  0  0  0 
 32 62  1  0  0  0  0 
 32 63  1  0  0  0  0 
 34 64  1  0  0  0  0 
 34 65  1  0  0  0  0 
 34 66  1  0  0  0  0 
 35 67  1  0  0  0  0 
 35 68  1  0  0  0  0 
 36 69  1  0  0  0  0 
 37 70  1  0  0  0  0 
 38 71  1  0  0  0  0 
 39 72  1  0  0  0  0 
M  END
> <cdk:Title>
thiocolchicoside

> <Conformer>
1

> <SuperDrugID>
SD003735

$$$$
