piritramide
  CDK     0628171801

 66 69  0  0  0  0  0  0  0  0999 V2000
   -1.2899   -0.2150    0.2532 C   0  0  1  0  0  0  0  0  0  0  0  0
   -1.4712   -0.0141   -1.3065 C   0  0  1  0  0  0  0  0  0  0  0  0
    0.0707   -0.3944    0.4735 C   0  0  0  0  0  0  0  0  0  0  0  0
   -1.8823    0.9915    0.9730 C   0  0  0  0  0  0  0  0  0  0  0  0
   -1.9184   -1.4896    0.8083 C   0  0  0  0  0  0  0  0  0  0  0  0
   -0.8726    1.2702   -1.9600 C   0  0  2  0  0  0  0  0  0  0  0  0
   -3.2950    1.1484    1.0265 C   0  0  0  0  0  0  0  0  0  0  0  0
   -1.0997    1.9973    1.6103 C   0  0  0  0  0  0  0  0  0  0  0  0
   -1.9539   -1.7119    2.2163 C   0  0  0  0  0  0  0  0  0  0  0  0
   -2.5100   -2.4985   -0.0056 C   0  0  0  0  0  0  0  0  0  0  0  0
   -1.3854    1.5240   -3.3531 N   0  0  2  0  0  0  0  0  0  0  0  0
   -3.8946    2.2251    1.7045 C   0  0  0  0  0  0  0  0  0  0  0  0
   -1.6953    3.0764    2.2890 C   0  0  0  0  0  0  0  0  0  0  0  0
   -2.5713   -2.8453    2.7758 C   0  0  0  0  0  0  0  0  0  0  0  0
   -3.1240   -3.6362    0.5498 C   0  0  0  0  0  0  0  0  0  0  0  0
   -0.9407    0.5216   -4.3752 C   0  0  2  0  0  0  0  0  0  0  0  0
   -1.1611    2.9308   -3.8131 C   0  0  1  0  0  0  0  0  0  0  0  0
   -3.0941    3.1855    2.3432 C   0  0  0  0  0  0  0  0  0  0  0  0
   -3.1635   -3.8063    1.9426 C   0  0  0  0  0  0  0  0  0  0  0  0
   -1.5520    0.7881   -5.7850 C   0  0  2  0  0  0  0  0  0  0  0  0
   -1.9040    3.1883   -5.1502 C   0  0  1  0  0  0  0  0  0  0  0  0
   -1.4170    2.2607   -6.3255 C   0  0  1  0  0  0  0  0  0  0  0  0
   -0.0134    2.6815   -6.6740 C   0  0  0  0  0  0  0  0  0  0  0  0
   -2.1921    2.4388   -7.6307 N   0  0  2  0  0  0  0  0  0  0  0  0
    1.0653    1.8765   -6.6186 N   0  0  0  0  0  0  0  0  0  0  0  0
    0.2075    3.8450   -7.0853 O   0  0  0  0  0  0  0  0  0  0  0  0
   -3.6600    2.7702   -7.6001 C   0  0  2  0  0  0  0  0  0  0  0  0
   -1.8645    1.4675   -8.7396 C   0  0  1  0  0  0  0  0  0  0  0  0
   -4.1533    3.3071   -8.9682 C   0  0  2  0  0  0  0  0  0  0  0  0
   -2.3150    1.9888  -10.1253 C   0  0  1  0  0  0  0  0  0  0  0  0
   -3.8241    2.3262  -10.1171 C   0  0  1  0  0  0  0  0  0  0  0  0
    1.1947   -0.5494    0.6558 N   0  0  0  0  0  0  0  0  0  0  0  0
   -1.0219   -0.8657   -1.8260 H   0  0  0  0  0  0  0  0  0  0  0  0
   -2.5393   -0.0212   -1.5390 H   0  0  0  0  0  0  0  0  0  0  0  0
    0.2195    1.2016   -1.9627 H   0  0  0  0  0  0  0  0  0  0  0  0
   -1.1427    2.1207   -1.3308 H   0  0  0  0  0  0  0  0  0  0  0  0
   -3.9105    0.4656    0.5750 H   0  0  0  0  0  0  0  0  0  0  0  0
   -0.0796    1.9660    1.5861 H   0  0  0  0  0  0  0  0  0  0  0  0
   -1.5307   -1.0328    2.8546 H   0  0  0  0  0  0  0  0  0  0  0  0
   -2.5097   -2.4334   -1.0229 H   0  0  0  0  0  0  0  0  0  0  0  0
   -4.9133    2.3060    1.7336 H   0  0  0  0  0  0  0  0  0  0  0  0
   -1.1115    3.7833    2.7433 H   0  0  0  0  0  0  0  0  0  0  0  0
   -2.5892   -2.9681    3.7907 H   0  0  0  0  0  0  0  0  0  0  0  0
   -3.5440   -4.3416   -0.0602 H   0  0  0  0  0  0  0  0  0  0  0  0
   -1.3681   -0.4864   -4.0734 H   0  0  0  0  0  0  0  0  0  0  0  0
    0.1904    0.5965   -4.4595 H   0  0  0  0  0  0  0  0  0  0  0  0
   -1.5601    3.6325   -3.0752 H   0  0  0  0  0  0  0  0  0  0  0  0
   -0.0920    3.1363   -3.9251 H   0  0  0  0  0  0  0  0  0  0  0  0
   -3.5309    3.9655    2.8393 H   0  0  0  0  0  0  0  0  0  0  0  0
   -3.6184   -4.6283    2.3494 H   0  0  0  0  0  0  0  0  0  0  0  0
   -2.6166    0.5390   -5.7448 H   0  0  0  0  0  0  0  0  0  0  0  0
   -1.0899    0.0868   -6.4817 H   0  0  0  0  0  0  0  0  0  0  0  0
   -2.9597    3.0009   -4.9410 H   0  0  0  0  0  0  0  0  0  0  0  0
   -1.8069    4.2428   -5.4228 H   0  0  0  0  0  0  0  0  0  0  0  0
    1.9395    2.2238   -6.8598 H   0  0  0  0  0  0  0  0  0  0  0  0
    0.9759    0.9516   -6.3446 H   0  0  0  0  0  0  0  0  0  0  0  0
   -3.8761    3.5694   -6.8929 H   0  0  0  0  0  0  0  0  0  0  0  0
   -4.2411    1.8904   -7.3081 H   0  0  0  0  0  0  0  0  0  0  0  0
   -0.7890    1.2848   -8.8009 H   0  0  0  0  0  0  0  0  0  0  0  0
   -2.3490    0.5047   -8.5480 H   0  0  0  0  0  0  0  0  0  0  0  0
   -3.6678    4.2678   -9.1669 H   0  0  0  0  0  0  0  0  0  0  0  0
   -5.2327    3.4765   -8.9319 H   0  0  0  0  0  0  0  0  0  0  0  0
   -1.7382    2.8828  -10.3774 H   0  0  0  0  0  0  0  0  0  0  0  0
   -2.1171    1.2302  -10.8868 H   0  0  0  0  0  0  0  0  0  0  0  0
   -4.4075    1.4072   -9.9943 H   0  0  0  0  0  0  0  0  0  0  0  0
   -4.1028    2.7770  -11.0731 H   0  0  0  0  0  0  0  0  0  0  0  0
  1  2  1  0  0  0  0 
  1  3  1  0  0  0  0 
  1  4  1  0  0  0  0 
  1  5  1  0  0  0  0 
  2  6  1  0  0  0  0 
  4  7  2  0  0  0  0 
  4  8  1  0  0  0  0 
  5  9  2  0  0  0  0 
  5 10  1  0  0  0  0 
  6 11  1  0  0  0  0 
  7 12  1  0  0  0  0 
  8 13  2  0  0  0  0 
  9 14  1  0  0  0  0 
 10 15  2  0  0  0  0 
 11 16  1  0  0  0  0 
 11 17  1  0  0  0  0 
 12 18  2  0  0  0  0 
 13 18  1  0  0  0  0 
 14 19  2  0  0  0  0 
 15 19  1  0  0  0  0 
 16 20  1  0  0  0  0 
 17 21  1  0  0  0  0 
 20 22  1  0  0  0  0 
 21 22  1  0  0  0  0 
 22 23  1  0  0  0  0 
 22 24  1  0  0  0  0 
 23 25  1  0  0  0  0 
 23 26  2  0  0  0  0 
 24 27  1  0  0  0  0 
 24 28  1  0  0  0  0 
 27 29  1  0  0  0  0 
 28 30  1  0  0  0  0 
 29 31  1  0  0  0  0 
 30 31  1  0  0  0  0 
  3 32  3  0  0  0  0 
  2 33  1  0  0  0  0 
  2 34  1  0  0  0  0 
  6 35  1  0  0  0  0 
  6 36  1  0  0  0  0 
  7 37  1  0  0  0  0 
  8 38  1  0  0  0  0 
  9 39  1  0  0  0  0 
 10 40  1  0  0  0  0 
 12 41  1  0  0  0  0 
 13 42  1  0  0  0  0 
 14 43  1  0  0  0  0 
 15 44  1  0  0  0  0 
 16 45  1  0  0  0  0 
 16 46  1  0  0  0  0 
 17 47  1  0  0  0  0 
 17 48  1  0  0  0  0 
 18 49  1  0  0  0  0 
 19 50  1  0  0  0  0 
 20 51  1  0  0  0  0 
 20 52  1  0  0  0  0 
 21 53  1  0  0  0  0 
 21 54  1  0  0  0  0 
 25 55  1  0  0  0  0 
 25 56  1  0  0  0  0 
 27 57  1  0  0  0  0 
 27 58  1  0  0  0  0 
 28 59  1  0  0  0  0 
 28 60  1  0  0  0  0 
 29 61  1  0  0  0  0 
 29 62  1  0  0  0  0 
 30 63  1  0  0  0  0 
 30 64  1  0  0  0  0 
 31 65  1  0  0  0  0 
 31 66  1  0  0  0  0 
M  END
> <cdk:Title>
piritramide

> <Conformer>
1

> <SuperDrugID>
SD002999

$$$$
