metaxalone
  CDK     0628171801

 31 32  0  0  0  0  0  0  0  0999 V2000
   -0.7349    2.9138   -6.1327 C   0  0  0  0  0  0  0  0  0  0  0  0
   -1.4975    4.0835   -6.3587 C   0  0  0  0  0  0  0  0  0  0  0  0
   -2.5837    4.4218   -5.5164 C   0  0  0  0  0  0  0  0  0  0  0  0
   -2.8869    3.5799   -4.4218 C   0  0  0  0  0  0  0  0  0  0  0  0
   -2.1302    2.4160   -4.1780 C   0  0  0  0  0  0  0  0  0  0  0  0
   -1.0686    2.0851   -5.0404 C   0  0  0  0  0  0  0  0  0  0  0  0
   -2.4241    1.5788   -3.1338 O   0  0  0  0  0  0  0  0  0  0  0  0
    0.3862    2.5276   -7.0201 C   0  0  0  0  0  0  0  0  0  0  0  0
   -3.4119    5.6254   -5.7667 C   0  0  0  0  0  0  0  0  0  0  0  0
   -1.6457    1.8605   -1.9513 C   0  0  1  0  0  0  0  0  0  0  0  0
   -1.8150    0.7054   -0.9370 C   0  0  1  0  0  0  0  0  0  0  0  0
   -1.2096   -0.6575   -1.3835 C   0  0  1  0  0  0  0  0  0  0  0  0
   -0.3104   -0.9652   -0.3384 N   0  0  0  0  0  0  0  0  0  0  0  0
   -0.2689   -0.0127    0.5899 C   0  0  0  0  0  0  0  0  0  0  0  0
   -1.1109    0.9886    0.2728 O   0  0  0  0  0  0  0  0  0  0  0  0
    0.4478   -0.0522    1.6140 O   0  0  0  0  0  0  0  0  0  0  0  0
   -1.2678    4.6867   -7.1528 H   0  0  0  0  0  0  0  0  0  0  0  0
   -3.6681    3.8085   -3.8009 H   0  0  0  0  0  0  0  0  0  0  0  0
   -0.5363    1.2291   -4.8624 H   0  0  0  0  0  0  0  0  0  0  0  0
    0.1318    1.6084   -7.5520 H   0  0  0  0  0  0  0  0  0  0  0  0
    1.2870    2.3506   -6.4287 H   0  0  0  0  0  0  0  0  0  0  0  0
    0.6095    3.3008   -7.7577 H   0  0  0  0  0  0  0  0  0  0  0  0
   -3.3375    6.3069   -4.9170 H   0  0  0  0  0  0  0  0  0  0  0  0
   -3.0972    6.1631   -6.6641 H   0  0  0  0  0  0  0  0  0  0  0  0
   -4.4583    5.3368   -5.8963 H   0  0  0  0  0  0  0  0  0  0  0  0
   -0.5798    1.9778   -2.1781 H   0  0  0  0  0  0  0  0  0  0  0  0
   -2.0037    2.7872   -1.4931 H   0  0  0  0  0  0  0  0  0  0  0  0
   -2.8762    0.5918   -0.6925 H   0  0  0  0  0  0  0  0  0  0  0  0
   -1.9776   -1.4296   -1.4496 H   0  0  0  0  0  0  0  0  0  0  0  0
   -0.6660   -0.6015   -2.3315 H   0  0  0  0  0  0  0  0  0  0  0  0
    0.2136   -1.7806   -0.2943 H   0  0  0  0  0  0  0  0  0  0  0  0
  1  2  2  0  0  0  0 
  2  3  1  0  0  0  0 
  3  4  2  0  0  0  0 
  4  5  1  0  0  0  0 
  5  6  2  0  0  0  0 
  1  6  1  0  0  0  0 
  5  7  1  0  0  0  0 
  1  8  1  0  0  0  0 
  3  9  1  0  0  0  0 
  7 10  1  0  0  0  0 
 11 10  1  0  0  0  0 
 12 13  1  0  0  0  0 
 13 14  1  0  0  0  0 
 14 15  1  0  0  0  0 
 11 12  1  0  0  0  0 
 11 15  1  0  0  0  0 
 14 16  2  0  0  0  0 
 17  2  1  0  0  0  0 
 18  4  1  0  0  0  0 
 19  6  1  0  0  0  0 
 20  8  1  0  0  0  0 
 21  8  1  0  0  0  0 
 22  8  1  0  0  0  0 
 23  9  1  0  0  0  0 
 24  9  1  0  0  0  0 
 25  9  1  0  0  0  0 
 26 10  1  0  0  0  0 
 27 10  1  0  0  0  0 
 28 11  1  0  0  0  0 
 29 12  1  0  0  0  0 
 30 12  1  0  0  0  0 
 31 13  1  0  0  0  0 
M  END
> <cdk:Title>
metaxalone

> <Conformer>
1

> <SuperDrugID>
SD001523

$$$$
