desoxymycin
  CDK     0628171801

 80 82  0  0  0  0  0  0  0  0999 V2000
    8.2266   -1.8579   -0.9072 O   0  0  0  0  0  0  0  0  0  0  0  0
    7.8168   -0.6285   -0.2599 C   0  0  1  0  0  0  0  0  0  0  0  0
    9.3869   -2.5382   -0.3752 C   0  0  1  0  0  0  0  0  0  0  0  0
    6.7372    0.0382   -1.1414 C   0  0  2  0  0  0  0  0  0  0  0  0
    7.0810   -0.8656    1.0893 C   0  0  1  0  0  0  0  0  0  0  0  0
    9.5711   -3.8970   -1.1178 C   0  0  1  0  0  0  0  0  0  0  0  0
   10.5913   -1.7397   -0.4343 O   0  0  0  0  0  0  0  0  0  0  0  0
    6.8068    1.4851   -1.0366 O   0  0  0  0  0  0  0  0  0  0  0  0
    5.5056   -0.5150   -0.6707 O   0  0  0  0  0  0  0  0  0  0  0  0
    7.6565   -0.0154    2.2540 C   0  0  2  0  0  0  0  0  0  0  0  0
    5.5928   -0.5601    0.7577 C   0  0  1  0  0  0  0  0  0  0  0  0
    8.3136   -4.6846   -1.2286 N   0  0  1  0  0  0  0  0  0  0  0  0
   10.1154   -3.6505   -2.5541 C   0  0  2  0  0  0  0  0  0  0  0  0
   11.0928   -1.4362   -1.7562 C   0  0  2  0  0  0  0  0  0  0  0  0
    5.9148    2.3332   -1.8135 C   0  0  2  0  0  0  0  0  0  0  0  0
    6.9715   -0.2933    3.4702 O   0  0  0  0  0  0  0  0  0  0  0  0
    4.5890   -1.6056    1.2987 C   0  0  0  0  0  0  0  0  0  0  0  0
    7.7624   -5.2467    0.0202 C   0  0  0  0  0  0  0  0  0  0  0  0
   10.4176   -4.8935   -3.1885 O   0  0  0  0  0  0  0  0  0  0  0  0
   11.3812   -2.7525   -2.5382 C   0  0  2  0  0  0  0  0  0  0  0  0
   12.3599   -0.5651   -1.5766 C   0  0  1  0  0  0  0  0  0  0  0  0
    4.4775    2.4446   -1.1970 C   0  0  1  0  0  0  0  0  0  0  0  0
    5.9033    1.9988   -3.3390 C   0  0  2  0  0  0  0  0  0  0  0  0
   11.7808   -2.4854   -3.8835 O   0  0  0  0  0  0  0  0  0  0  0  0
   12.0427    0.6323   -0.8750 O   0  0  0  0  0  0  0  0  0  0  0  0
    4.3715    2.9043    0.1302 N   0  0  0  0  0  0  0  0  0  0  0  0
    3.5186    3.3310   -2.0634 C   0  0  2  0  0  0  0  0  0  0  0  0
    7.2288    2.1083   -3.8567 O   0  0  0  0  0  0  0  0  0  0  0  0
    4.9727    2.9399   -4.1458 C   0  0  2  0  0  0  0  0  0  0  0  0
    5.1474    3.3916    1.0365 C   0  0  0  0  0  0  0  0  0  0  0  0
    2.1760    3.2331   -1.5754 O   0  0  0  0  0  0  0  0  0  0  0  0
    3.5236    2.9185   -3.5665 C   0  0  2  0  0  0  0  0  0  0  0  0
    4.9799    2.5256   -5.5111 O   0  0  0  0  0  0  0  0  0  0  0  0
    6.4441    3.6131    0.9417 N   0  0  0  0  0  0  0  0  0  0  0  0
    4.5738    3.7195    2.1711 N   0  0  0  0  0  0  0  0  0  0  0  0
    2.6004    3.6269   -4.3538 N   0  0  0  0  0  0  0  0  0  0  0  0
    2.5177    4.8626   -4.6950 C   0  0  0  0  0  0  0  0  0  0  0  0
    1.5255    5.2193   -5.4782 N   0  0  0  0  0  0  0  0  0  0  0  0
    3.3686    5.7980   -4.3276 N   0  0  0  0  0  0  0  0  0  0  0  0
    8.6738    0.0486   -0.1665 H   0  0  0  0  0  0  0  0  0  0  0  0
    9.2296   -2.7622    0.6818 H   0  0  0  0  0  0  0  0  0  0  0  0
    6.8936   -0.2699   -2.1774 H   0  0  0  0  0  0  0  0  0  0  0  0
    7.1768   -1.9150    1.3794 H   0  0  0  0  0  0  0  0  0  0  0  0
   10.3155   -4.4921   -0.5785 H   0  0  0  0  0  0  0  0  0  0  0  0
    7.5623    1.0485    2.0283 H   0  0  0  0  0  0  0  0  0  0  0  0
    8.7139   -0.2494    2.3965 H   0  0  0  0  0  0  0  0  0  0  0  0
    5.3012    0.4196    1.1494 H   0  0  0  0  0  0  0  0  0  0  0  0
    7.5986   -4.0778   -1.6354 H   0  0  0  0  0  0  0  0  0  0  0  0
    9.3432   -3.1594   -3.1550 H   0  0  0  0  0  0  0  0  0  0  0  0
   10.3542   -0.8435   -2.3072 H   0  0  0  0  0  0  0  0  0  0  0  0
    6.3509    3.3339   -1.7425 H   0  0  0  0  0  0  0  0  0  0  0  0
    7.4244    0.2570    4.1430 H   0  0  0  0  0  0  0  0  0  0  0  0
    4.8023   -2.5926    0.8839 H   0  0  0  0  0  0  0  0  0  0  0  0
    4.6455   -1.6613    2.3878 H   0  0  0  0  0  0  0  0  0  0  0  0
    3.5747   -1.3213    1.0151 H   0  0  0  0  0  0  0  0  0  0  0  0
    6.8865   -5.8470   -0.2280 H   0  0  0  0  0  0  0  0  0  0  0  0
    7.4512   -4.4554    0.7025 H   0  0  0  0  0  0  0  0  0  0  0  0
    8.4947   -5.8888    0.5126 H   0  0  0  0  0  0  0  0  0  0  0  0
   11.1138   -5.3013   -2.6316 H   0  0  0  0  0  0  0  0  0  0  0  0
   12.1943   -3.2956   -2.0464 H   0  0  0  0  0  0  0  0  0  0  0  0
   13.1152   -1.1128   -1.0092 H   0  0  0  0  0  0  0  0  0  0  0  0
   12.7779   -0.2911   -2.5467 H   0  0  0  0  0  0  0  0  0  0  0  0
    4.0481    1.4416   -1.1977 H   0  0  0  0  0  0  0  0  0  0  0  0
    5.5579    0.9751   -3.5008 H   0  0  0  0  0  0  0  0  0  0  0  0
   12.6433   -2.0258   -3.8103 H   0  0  0  0  0  0  0  0  0  0  0  0
   12.8909    1.1192   -0.8108 H   0  0  0  0  0  0  0  0  0  0  0  0
    3.8258    4.3768   -1.9789 H   0  0  0  0  0  0  0  0  0  0  0  0
    7.7707    1.4815   -3.3334 H   0  0  0  0  0  0  0  0  0  0  0  0
    5.3803    3.9540   -4.1100 H   0  0  0  0  0  0  0  0  0  0  0  0
    2.2051    3.5697   -0.6551 H   0  0  0  0  0  0  0  0  0  0  0  0
    3.1643    1.8846   -3.6088 H   0  0  0  0  0  0  0  0  0  0  0  0
    4.4425    3.1947   -5.9839 H   0  0  0  0  0  0  0  0  0  0  0  0
    6.9326    3.4069    0.1325 H   0  0  0  0  0  0  0  0  0  0  0  0
    6.9243    3.9884    1.6982 H   0  0  0  0  0  0  0  0  0  0  0  0
    5.0970    4.1081    2.8880 H   0  0  0  0  0  0  0  0  0  0  0  0
    3.6221    3.5861    2.2936 H   0  0  0  0  0  0  0  0  0  0  0  0
    0.8752    4.5612   -5.7727 H   0  0  0  0  0  0  0  0  0  0  0  0
    1.4472    6.1427   -5.7697 H   0  0  0  0  0  0  0  0  0  0  0  0
    4.1140    5.5825   -3.7479 H   0  0  0  0  0  0  0  0  0  0  0  0
    3.2512    6.7097   -4.6383 H   0  0  0  0  0  0  0  0  0  0  0  0
  3  1  1  0  0  0  0 
  2  1  1  0  0  0  0 
  2  4  1  0  0  0  0 
  2  5  1  0  0  0  0 
  6  3  1  0  0  0  0 
  3  7  1  0  0  0  0 
  4  8  1  0  0  0  0 
  4  9  1  0  0  0  0 
  5 10  1  0  0  0  0 
  5 11  1  0  0  0  0 
  6 12  1  0  0  0  0 
  6 13  1  0  0  0  0 
 14  7  1  0  0  0  0 
 15  8  1  0  0  0  0 
 11  9  1  0  0  0  0 
 10 16  1  0  0  0  0 
 11 17  1  0  0  0  0 
 12 18  1  0  0  0  0 
 13 19  1  0  0  0  0 
 13 20  1  0  0  0  0 
 20 14  1  0  0  0  0 
 14 21  1  0  0  0  0 
 15 22  1  0  0  0  0 
 15 23  1  0  0  0  0 
 20 24  1  0  0  0  0 
 21 25  1  0  0  0  0 
 22 26  1  0  0  0  0 
 22 27  1  0  0  0  0 
 23 28  1  0  0  0  0 
 23 29  1  0  0  0  0 
 26 30  2  0  0  0  0 
 27 31  1  0  0  0  0 
 27 32  1  0  0  0  0 
 29 32  1  0  0  0  0 
 29 33  1  0  0  0  0 
 30 34  1  0  0  0  0 
 30 35  1  0  0  0  0 
 32 36  1  0  0  0  0 
 36 37  2  0  0  0  0 
 37 38  1  0  0  0  0 
 37 39  1  0  0  0  0 
  2 40  1  0  0  0  0 
  3 41  1  0  0  0  0 
  4 42  1  0  0  0  0 
  5 43  1  0  0  0  0 
  6 44  1  0  0  0  0 
 45 10  1  0  0  0  0 
 46 10  1  0  0  0  0 
 11 47  1  0  0  0  0 
 48 12  1  0  0  0  0 
 13 49  1  0  0  0  0 
 14 50  1  0  0  0  0 
 15 51  1  0  0  0  0 
 52 16  1  0  0  0  0 
 53 17  1  0  0  0  0 
 54 17  1  0  0  0  0 
 55 17  1  0  0  0  0 
 56 18  1  0  0  0  0 
 57 18  1  0  0  0  0 
 58 18  1  0  0  0  0 
 59 19  1  0  0  0  0 
 20 60  1  0  0  0  0 
 61 21  1  0  0  0  0 
 62 21  1  0  0  0  0 
 22 63  1  0  0  0  0 
 23 64  1  0  0  0  0 
 65 24  1  0  0  0  0 
 66 25  1  0  0  0  0 
 27 67  1  0  0  0  0 
 68 28  1  0  0  0  0 
 29 69  1  0  0  0  0 
 70 31  1  0  0  0  0 
 32 71  1  0  0  0  0 
 72 33  1  0  0  0  0 
 73 34  1  0  0  0  0 
 74 34  1  0  0  0  0 
 75 35  1  0  0  0  0 
 76 35  1  0  0  0  0 
 77 38  1  0  0  0  0 
 78 38  1  0  0  0  0 
 79 39  1  0  0  0  0 
 80 39  1  0  0  0  0 
M  END
> <cdk:Title>
desoxymycin

> <Conformer>
1

> <SuperDrugID>
SD002716

$$$$
