dronedarone
  CDK     0628171801

 83 85  0  0  0  0  0  0  0  0999 V2000
   -0.0949   -4.6995   -9.7645 C   0  0  0  0  0  0  0  0  0  0  0  0
   -0.8891   -5.6501   -9.5822 O   0  0  0  0  0  0  0  0  0  0  0  0
    0.6964   -4.1749   -8.5900 C   0  0  0  0  0  0  0  0  0  0  0  0
    0.0285   -4.1880  -11.0764 C   0  0  0  0  0  0  0  0  0  0  0  0
    0.4187   -4.3062   -7.1887 C   0  0  0  0  0  0  0  0  0  0  0  0
    1.9393   -3.4421   -8.5580 C   0  0  0  0  0  0  0  0  0  0  0  0
    0.3806   -5.0447  -12.1444 C   0  0  0  0  0  0  0  0  0  0  0  0
   -0.1551   -2.8116  -11.3422 C   0  0  0  0  0  0  0  0  0  0  0  0
    1.4140   -3.6682   -6.4575 C   0  0  0  0  0  0  0  0  0  0  0  0
   -0.6390   -4.9472   -6.5085 C   0  0  0  0  0  0  0  0  0  0  0  0
    2.8145   -3.0304   -9.6826 C   0  0  1  0  0  0  0  0  0  0  0  0
    2.3289   -3.1576   -7.2922 O   0  0  0  0  0  0  0  0  0  0  0  0
    0.5894   -4.5312  -13.4397 C   0  0  0  0  0  0  0  0  0  0  0  0
    0.0416   -2.3001  -12.6397 C   0  0  0  0  0  0  0  0  0  0  0  0
    1.3973   -3.6176   -5.0575 C   0  0  0  0  0  0  0  0  0  0  0  0
   -0.6655   -4.9515   -5.0873 C   0  0  0  0  0  0  0  0  0  0  0  0
    2.9186   -1.4862   -9.8536 C   0  0  1  0  0  0  0  0  0  0  0  0
    0.4201   -3.1544  -13.6961 C   0  0  0  0  0  0  0  0  0  0  0  0
    0.3531   -4.2710   -4.3785 C   0  0  0  0  0  0  0  0  0  0  0  0
   -1.6088   -5.5745   -4.3292 N   0  0  0  0  0  0  0  0  0  0  0  0
    3.8265   -0.7903   -8.8028 C   0  0  1  0  0  0  0  0  0  0  0  0
    0.6706   -2.6374  -14.9443 O   0  0  0  0  0  0  0  0  0  0  0  0
   -2.8072   -6.6720   -4.8760 S   0  0  2  0  0  0  0  0  0  0  0  0
    3.9985    0.7241   -9.0537 C   0  0  0  0  0  0  0  0  0  0  0  0
   -0.4249   -2.7570  -15.8790 C   0  0  1  0  0  0  0  0  0  0  0  0
   -3.4970   -7.5566   -3.4280 C   0  0  0  0  0  0  0  0  0  0  0  0
   -2.1618   -7.7407   -5.8831 O   0  0  0  0  0  0  0  0  0  0  0  0
   -3.9769   -5.8605   -5.6139 O   0  0  0  0  0  0  0  0  0  0  0  0
   -0.0470   -2.1516  -17.2578 C   0  0  2  0  0  0  0  0  0  0  0  0
    0.2504   -0.6268  -17.2440 C   0  0  1  0  0  0  0  0  0  0  0  0
    0.5889   -0.1092  -18.6213 N   0  0  1  0  0  0  0  0  0  0  0  0
    0.0493    1.2634  -18.9317 C   0  0  2  0  0  0  0  0  0  0  0  0
    2.0624   -0.2573  -18.9290 C   0  0  2  0  0  0  0  0  0  0  0  0
   -1.4971    1.4397  -18.9524 C   0  0  2  0  0  0  0  0  0  0  0  0
    2.4739   -0.1474  -20.4283 C   0  0  1  0  0  0  0  0  0  0  0  0
   -2.2487    0.4548  -19.8851 C   0  0  2  0  0  0  0  0  0  0  0  0
    3.9459   -0.5812  -20.6741 C   0  0  2  0  0  0  0  0  0  0  0  0
   -3.7709    0.7282  -19.9175 C   0  0  0  0  0  0  0  0  0  0  0  0
    4.4017   -0.3867  -22.1371 C   0  0  0  0  0  0  0  0  0  0  0  0
    0.5170   -6.0463  -11.9813 H   0  0  0  0  0  0  0  0  0  0  0  0
   -0.4215   -2.1681  -10.5947 H   0  0  0  0  0  0  0  0  0  0  0  0
   -1.3752   -5.4045   -7.0436 H   0  0  0  0  0  0  0  0  0  0  0  0
    3.8070   -3.4517   -9.5049 H   0  0  0  0  0  0  0  0  0  0  0  0
    2.4772   -3.4640  -10.6210 H   0  0  0  0  0  0  0  0  0  0  0  0
    0.8813   -5.1609  -14.1917 H   0  0  0  0  0  0  0  0  0  0  0  0
   -0.0805   -1.2980  -12.8138 H   0  0  0  0  0  0  0  0  0  0  0  0
    2.1266   -3.1235   -4.5435 H   0  0  0  0  0  0  0  0  0  0  0  0
    3.3253   -1.2830  -10.8484 H   0  0  0  0  0  0  0  0  0  0  0  0
    1.9179   -1.0453   -9.8142 H   0  0  0  0  0  0  0  0  0  0  0  0
    0.3440   -4.2502   -3.3553 H   0  0  0  0  0  0  0  0  0  0  0  0
   -1.5908   -5.4020   -3.3740 H   0  0  0  0  0  0  0  0  0  0  0  0
    3.4013   -0.9217   -7.8073 H   0  0  0  0  0  0  0  0  0  0  0  0
    4.8140   -1.2595   -8.8141 H   0  0  0  0  0  0  0  0  0  0  0  0
    4.6644    1.1485   -8.3007 H   0  0  0  0  0  0  0  0  0  0  0  0
    4.4327    0.8986  -10.0393 H   0  0  0  0  0  0  0  0  0  0  0  0
    3.0353    1.2358   -8.9932 H   0  0  0  0  0  0  0  0  0  0  0  0
   -0.6650   -3.8140  -16.0353 H   0  0  0  0  0  0  0  0  0  0  0  0
   -1.3185   -2.2540  -15.4989 H   0  0  0  0  0  0  0  0  0  0  0  0
   -2.6993   -8.1016   -2.9210 H   0  0  0  0  0  0  0  0  0  0  0  0
   -4.2629   -8.2600   -3.7557 H   0  0  0  0  0  0  0  0  0  0  0  0
   -3.9383   -6.8387   -2.7344 H   0  0  0  0  0  0  0  0  0  0  0  0
   -0.8755   -2.3303  -17.9494 H   0  0  0  0  0  0  0  0  0  0  0  0
    0.8180   -2.6907  -17.6472 H   0  0  0  0  0  0  0  0  0  0  0  0
   -0.6285   -0.1350  -16.8295 H   0  0  0  0  0  0  0  0  0  0  0  0
    1.0631   -0.4182  -16.5430 H   0  0  0  0  0  0  0  0  0  0  0  0
    0.3803    1.5710  -19.9237 H   0  0  0  0  0  0  0  0  0  0  0  0
    0.4656    1.9801  -18.2204 H   0  0  0  0  0  0  0  0  0  0  0  0
    2.4016   -1.2394  -18.5894 H   0  0  0  0  0  0  0  0  0  0  0  0
    2.6276    0.4864  -18.3583 H   0  0  0  0  0  0  0  0  0  0  0  0
   -1.7091    2.4599  -19.2898 H   0  0  0  0  0  0  0  0  0  0  0  0
   -1.9012    1.3573  -17.9431 H   0  0  0  0  0  0  0  0  0  0  0  0
    1.8069   -0.7688  -21.0326 H   0  0  0  0  0  0  0  0  0  0  0  0
    2.3707    0.8881  -20.7589 H   0  0  0  0  0  0  0  0  0  0  0  0
   -2.0844   -0.5689  -19.5448 H   0  0  0  0  0  0  0  0  0  0  0  0
   -1.8545    0.5395  -20.9012 H   0  0  0  0  0  0  0  0  0  0  0  0
    4.0595   -1.6373  -20.4112 H   0  0  0  0  0  0  0  0  0  0  0  0
    4.6064    0.0022  -20.0254 H   0  0  0  0  0  0  0  0  0  0  0  0
   -3.9699    1.7356  -20.2909 H   0  0  0  0  0  0  0  0  0  0  0  0
   -4.1948    0.6334  -18.9154 H   0  0  0  0  0  0  0  0  0  0  0  0
   -4.2665    0.0107  -20.5746 H   0  0  0  0  0  0  0  0  0  0  0  0
    5.4209   -0.7573  -22.2540 H   0  0  0  0  0  0  0  0  0  0  0  0
    3.7491   -0.9391  -22.8158 H   0  0  0  0  0  0  0  0  0  0  0  0
    4.3832    0.6719  -22.4070 H   0  0  0  0  0  0  0  0  0  0  0  0
  1  2  2  0  0  0  0 
  1  3  1  0  0  0  0 
  1  4  1  0  0  0  0 
  3  5  1  0  0  0  0 
  3  6  2  0  0  0  0 
  4  7  2  0  0  0  0 
  4  8  1  0  0  0  0 
  5  9  1  0  0  0  0 
  5 10  2  0  0  0  0 
  6 11  1  0  0  0  0 
  6 12  1  0  0  0  0 
  7 13  1  0  0  0  0 
  8 14  2  0  0  0  0 
  9 12  1  0  0  0  0 
  9 15  2  0  0  0  0 
 10 16  1  0  0  0  0 
 11 17  1  0  0  0  0 
 13 18  2  0  0  0  0 
 14 18  1  0  0  0  0 
 15 19  1  0  0  0  0 
 16 19  2  0  0  0  0 
 16 20  1  0  0  0  0 
 17 21  1  0  0  0  0 
 18 22  1  0  0  0  0 
 20 23  1  0  0  0  0 
 21 24  1  0  0  0  0 
 22 25  1  0  0  0  0 
 23 26  1  0  0  0  0 
 23 27  2  0  0  0  0 
 23 28  2  0  0  0  0 
 25 29  1  0  0  0  0 
 29 30  1  0  0  0  0 
 30 31  1  0  0  0  0 
 31 32  1  0  0  0  0 
 31 33  1  0  0  0  0 
 32 34  1  0  0  0  0 
 33 35  1  0  0  0  0 
 34 36  1  0  0  0  0 
 35 37  1  0  0  0  0 
 36 38  1  0  0  0  0 
 37 39  1  0  0  0  0 
 40  7  1  0  0  0  0 
 41  8  1  0  0  0  0 
 42 10  1  0  0  0  0 
 43 11  1  0  0  0  0 
 44 11  1  0  0  0  0 
 45 13  1  0  0  0  0 
 46 14  1  0  0  0  0 
 47 15  1  0  0  0  0 
 48 17  1  0  0  0  0 
 49 17  1  0  0  0  0 
 50 19  1  0  0  0  0 
 51 20  1  0  0  0  0 
 52 21  1  0  0  0  0 
 53 21  1  0  0  0  0 
 54 24  1  0  0  0  0 
 55 24  1  0  0  0  0 
 56 24  1  0  0  0  0 
 57 25  1  0  0  0  0 
 58 25  1  0  0  0  0 
 59 26  1  0  0  0  0 
 60 26  1  0  0  0  0 
 61 26  1  0  0  0  0 
 62 29  1  0  0  0  0 
 63 29  1  0  0  0  0 
 64 30  1  0  0  0  0 
 65 30  1  0  0  0  0 
 66 32  1  0  0  0  0 
 67 32  1  0  0  0  0 
 68 33  1  0  0  0  0 
 69 33  1  0  0  0  0 
 70 34  1  0  0  0  0 
 71 34  1  0  0  0  0 
 72 35  1  0  0  0  0 
 73 35  1  0  0  0  0 
 74 36  1  0  0  0  0 
 75 36  1  0  0  0  0 
 76 37  1  0  0  0  0 
 77 37  1  0  0  0  0 
 78 38  1  0  0  0  0 
 79 38  1  0  0  0  0 
 80 38  1  0  0  0  0 
 81 39  1  0  0  0  0 
 82 39  1  0  0  0  0 
 83 39  1  0  0  0  0 
M  END
> <cdk:Title>
dronedarone

> <Conformer>
1

> <SuperDrugID>
SD003357

$$$$
