cefroxadine
  CDK     0628171802

 44 46  0  0  0  0  0  0  0  0999 V2000
   -0.5943    0.6603    2.4563 C   0  0  0  0  0  0  0  0  0  0  0  0
   -1.8231    0.5506    1.8918 O   0  0  0  0  0  0  0  0  0  0  0  0
   -0.5432    0.4914    3.6973 O   0  0  0  0  0  0  0  0  0  0  0  0
    0.5544    0.9417    1.7087 C   0  0  0  0  0  0  0  0  0  0  0  0
    1.7577    0.5453    2.1839 N   0  0  0  0  0  0  0  0  0  0  0  0
    0.4978    1.5888    0.5115 C   0  0  0  0  0  0  0  0  0  0  0  0
    3.0643    1.0316    1.9058 C   0  0  1  0  0  0  0  0  0  0  0  0
    2.2033   -0.4646    2.9517 C   0  0  0  0  0  0  0  0  0  0  0  0
   -0.6885    1.9864    0.0033 O   0  0  0  0  0  0  0  0  0  0  0  0
    1.6573    1.8656   -0.3473 C   0  0  2  0  0  0  0  0  0  0  0  0
    3.6206   -0.1433    2.7696 C   0  0  1  0  0  0  0  0  0  0  0  0
    3.2049    0.9964    0.0897 S   0  0  0  0  0  0  0  0  0  0  0  0
    1.6354   -1.3948    3.5684 O   0  0  0  0  0  0  0  0  0  0  0  0
   -1.0098    3.3777    0.1966 C   0  0  0  0  0  0  0  0  0  0  0  0
    4.3787   -1.1277    2.0587 N   0  0  0  0  0  0  0  0  0  0  0  0
    4.9755   -2.2282    2.6016 C   0  0  0  0  0  0  0  0  0  0  0  0
    5.7321   -3.1641    1.7236 C   0  0  2  0  0  0  0  0  0  0  0  0
    4.8688   -2.4577    3.8306 O   0  0  0  0  0  0  0  0  0  0  0  0
    5.1620   -4.5186    1.7971 N   0  0  2  0  0  0  0  0  0  0  0  0
    7.1850   -3.2078    1.9848 C   0  0  0  0  0  0  0  0  0  0  0  0
    7.6904   -3.7425    3.2642 C   0  0  2  0  0  0  0  0  0  0  0  0
    8.0648   -2.7987    1.0404 C   0  0  0  0  0  0  0  0  0  0  0  0
    9.1346   -3.7965    3.4298 C   0  0  0  0  0  0  0  0  0  0  0  0
    9.5134   -2.8607    1.2027 C   0  0  1  0  0  0  0  0  0  0  0  0
    9.9792   -3.3826    2.4751 C   0  0  0  0  0  0  0  0  0  0  0  0
    3.2357    2.0251    2.3351 H   0  0  0  0  0  0  0  0  0  0  0  0
   -2.6097    0.3499    2.4408 H   0  0  0  0  0  0  0  0  0  0  0  0
    1.8697    2.9349   -0.3214 H   0  0  0  0  0  0  0  0  0  0  0  0
    1.4186    1.5882   -1.3745 H   0  0  0  0  0  0  0  0  0  0  0  0
    4.0993    0.2025    3.6912 H   0  0  0  0  0  0  0  0  0  0  0  0
   -2.0304    3.5323   -0.1558 H   0  0  0  0  0  0  0  0  0  0  0  0
   -0.3497    4.0216   -0.3894 H   0  0  0  0  0  0  0  0  0  0  0  0
   -0.9643    3.6686    1.2504 H   0  0  0  0  0  0  0  0  0  0  0  0
    4.4719   -1.0029    1.1024 H   0  0  0  0  0  0  0  0  0  0  0  0
    5.5512   -2.8608    0.6876 H   0  0  0  0  0  0  0  0  0  0  0  0
    4.2131   -4.4736    1.4199 H   0  0  0  0  0  0  0  0  0  0  0  0
    5.0863   -4.7747    2.7838 H   0  0  0  0  0  0  0  0  0  0  0  0
    7.3143   -4.7591    3.4002 H   0  0  0  0  0  0  0  0  0  0  0  0
    7.3136   -3.1279    4.0813 H   0  0  0  0  0  0  0  0  0  0  0  0
    7.7334   -2.4426    0.1720 H   0  0  0  0  0  0  0  0  0  0  0  0
    9.5064   -4.1503    4.2830 H   0  0  0  0  0  0  0  0  0  0  0  0
    9.9229   -3.4949    0.4105 H   0  0  0  0  0  0  0  0  0  0  0  0
    9.9198   -1.8543    1.0763 H   0  0  0  0  0  0  0  0  0  0  0  0
   10.9595   -3.4361    2.6388 H   0  0  0  0  0  0  0  0  0  0  0  0
  1  2  1  0  0  0  0 
  1  3  2  0  0  0  0 
  1  4  1  0  0  0  0 
  4  5  1  0  0  0  0 
  4  6  2  0  0  0  0 
  7  5  1  0  0  0  0 
  5  8  1  0  0  0  0 
  6  9  1  0  0  0  0 
  6 10  1  0  0  0  0 
 11  7  1  0  0  0  0 
  7 12  1  0  0  0  0 
  7 26  1  0  0  0  0 
 11  8  1  0  0  0  0 
  8 13  2  0  0  0  0 
  9 14  1  0  0  0  0 
 10 12  1  0  0  0  0 
 11 15  1  0  0  0  0 
 15 16  1  0  0  0  0 
 17 16  1  0  0  0  0 
 16 18  2  0  0  0  0 
 17 19  1  0  0  0  0 
 17 20  1  0  0  0  0 
 20 21  1  0  0  0  0 
 20 22  2  0  0  0  0 
 21 23  1  0  0  0  0 
 22 24  1  0  0  0  0 
 23 25  2  0  0  0  0 
 24 25  1  0  0  0  0 
  2 27  1  0  0  0  0 
 10 28  1  0  0  0  0 
 10 29  1  0  0  0  0 
 11 30  1  0  0  0  0 
 14 31  1  0  0  0  0 
 14 32  1  0  0  0  0 
 14 33  1  0  0  0  0 
 15 34  1  0  0  0  0 
 17 35  1  0  0  0  0 
 19 36  1  0  0  0  0 
 19 37  1  0  0  0  0 
 21 38  1  0  0  0  0 
 21 39  1  0  0  0  0 
 22 40  1  0  0  0  0 
 23 41  1  0  0  0  0 
 24 42  1  0  0  0  0 
 24 43  1  0  0  0  0 
 25 44  1  0  0  0  0 
M  END
> <cdk:Title>
cefroxadine

> <Conformer>
1

> <SuperDrugID>
SD000484

$$$$
