oxybuprocaine
  CDK     0628171801

 50 50  0  0  0  0  0  0  0  0999 V2000
   -2.4600    0.3422    0.1392 C   0  0  0  0  0  0  0  0  0  0  0  0
   -1.1869    0.5291   -0.3263 O   0  0  0  0  0  0  0  0  0  0  0  0
   -2.6708   -0.5432    1.0017 O   0  0  0  0  0  0  0  0  0  0  0  0
   -3.5268    1.1255   -0.3884 C   0  0  0  0  0  0  0  0  0  0  0  0
   -0.0024   -0.1996    0.0223 C   0  0  2  0  0  0  0  0  0  0  0  0
   -4.8824    0.7765   -0.1657 C   0  0  0  0  0  0  0  0  0  0  0  0
   -3.2621    2.2697   -1.1797 C   0  0  0  0  0  0  0  0  0  0  0  0
    1.1576    0.2741   -0.8887 C   0  0  2  0  0  0  0  0  0  0  0  0
   -5.9393    1.5191   -0.7378 C   0  0  0  0  0  0  0  0  0  0  0  0
   -4.3085    3.0283   -1.7376 C   0  0  0  0  0  0  0  0  0  0  0  0
    2.3849   -0.5892   -0.7590 N   0  0  1  0  0  0  0  0  0  0  0  0
   -7.2338    1.1284   -0.5091 O   0  0  0  0  0  0  0  0  0  0  0  0
   -5.6488    2.6610   -1.5162 C   0  0  0  0  0  0  0  0  0  0  0  0
    2.3082   -1.7967   -1.6567 C   0  0  1  0  0  0  0  0  0  0  0  0
    3.6808    0.1665   -0.8705 C   0  0  1  0  0  0  0  0  0  0  0  0
   -7.6930    0.0888   -1.4009 C   0  0  2  0  0  0  0  0  0  0  0  0
   -6.6320    3.4040   -2.0620 N   0  0  0  0  0  0  0  0  0  0  0  0
    3.3258   -2.9208   -1.3526 C   0  0  0  0  0  0  0  0  0  0  0  0
    3.9806    1.0889    0.3359 C   0  0  0  0  0  0  0  0  0  0  0  0
   -9.1159   -0.3586   -0.9834 C   0  0  1  0  0  0  0  0  0  0  0  0
   -9.1533   -0.9994    0.4301 C   0  0  1  0  0  0  0  0  0  0  0  0
  -10.5455   -1.5465    0.8178 C   0  0  0  0  0  0  0  0  0  0  0  0
   -0.1938   -1.2655   -0.1149 H   0  0  0  0  0  0  0  0  0  0  0  0
    0.2544   -0.0225    1.0701 H   0  0  0  0  0  0  0  0  0  0  0  0
   -5.1175   -0.0406    0.4051 H   0  0  0  0  0  0  0  0  0  0  0  0
   -2.2992    2.5668   -1.3636 H   0  0  0  0  0  0  0  0  0  0  0  0
    1.3625    1.3092   -0.6142 H   0  0  0  0  0  0  0  0  0  0  0  0
    0.8162    0.3015   -1.9290 H   0  0  0  0  0  0  0  0  0  0  0  0
   -4.0822    3.8457   -2.3109 H   0  0  0  0  0  0  0  0  0  0  0  0
    1.3222   -2.2571   -1.5603 H   0  0  0  0  0  0  0  0  0  0  0  0
    2.4220   -1.4966   -2.7029 H   0  0  0  0  0  0  0  0  0  0  0  0
    4.5194   -0.5294   -0.9123 H   0  0  0  0  0  0  0  0  0  0  0  0
    3.7037    0.7557   -1.7918 H   0  0  0  0  0  0  0  0  0  0  0  0
   -7.0261   -0.7814   -1.3789 H   0  0  0  0  0  0  0  0  0  0  0  0
   -7.7312    0.4677   -2.4270 H   0  0  0  0  0  0  0  0  0  0  0  0
   -6.4124    4.1903   -2.5853 H   0  0  0  0  0  0  0  0  0  0  0  0
   -7.5596    3.1563   -1.9351 H   0  0  0  0  0  0  0  0  0  0  0  0
    4.3136   -2.6609   -1.7356 H   0  0  0  0  0  0  0  0  0  0  0  0
    3.3883   -3.0983   -0.2772 H   0  0  0  0  0  0  0  0  0  0  0  0
    3.0132   -3.8442   -1.8450 H   0  0  0  0  0  0  0  0  0  0  0  0
    5.0257    1.4062    0.3062 H   0  0  0  0  0  0  0  0  0  0  0  0
    3.8032    0.5595    1.2750 H   0  0  0  0  0  0  0  0  0  0  0  0
    3.3623    1.9861    0.3093 H   0  0  0  0  0  0  0  0  0  0  0  0
   -9.7760    0.5126   -1.0050 H   0  0  0  0  0  0  0  0  0  0  0  0
   -9.4873   -1.0815   -1.7155 H   0  0  0  0  0  0  0  0  0  0  0  0
   -8.4392   -1.8260    0.4725 H   0  0  0  0  0  0  0  0  0  0  0  0
   -8.8512   -0.2533    1.1693 H   0  0  0  0  0  0  0  0  0  0  0  0
  -11.2909   -0.7487    0.8224 H   0  0  0  0  0  0  0  0  0  0  0  0
  -10.8583   -2.3203    0.1148 H   0  0  0  0  0  0  0  0  0  0  0  0
  -10.4994   -1.9846    1.8163 H   0  0  0  0  0  0  0  0  0  0  0  0
  1  2  1  0  0  0  0 
  1  3  2  0  0  0  0 
  1  4  1  0  0  0  0 
  2  5  1  0  0  0  0 
  4  6  2  0  0  0  0 
  4  7  1  0  0  0  0 
  5  8  1  0  0  0  0 
  6  9  1  0  0  0  0 
  7 10  2  0  0  0  0 
  8 11  1  0  0  0  0 
  9 12  1  0  0  0  0 
  9 13  2  0  0  0  0 
 10 13  1  0  0  0  0 
 11 14  1  0  0  0  0 
 11 15  1  0  0  0  0 
 12 16  1  0  0  0  0 
 13 17  1  0  0  0  0 
 14 18  1  0  0  0  0 
 15 19  1  0  0  0  0 
 16 20  1  0  0  0  0 
 20 21  1  0  0  0  0 
 21 22  1  0  0  0  0 
  5 23  1  0  0  0  0 
  5 24  1  0  0  0  0 
  6 25  1  0  0  0  0 
  7 26  1  0  0  0  0 
  8 27  1  0  0  0  0 
  8 28  1  0  0  0  0 
 10 29  1  0  0  0  0 
 14 30  1  0  0  0  0 
 14 31  1  0  0  0  0 
 15 32  1  0  0  0  0 
 15 33  1  0  0  0  0 
 16 34  1  0  0  0  0 
 16 35  1  0  0  0  0 
 17 36  1  0  0  0  0 
 17 37  1  0  0  0  0 
 18 38  1  0  0  0  0 
 18 39  1  0  0  0  0 
 18 40  1  0  0  0  0 
 19 41  1  0  0  0  0 
 19 42  1  0  0  0  0 
 19 43  1  0  0  0  0 
 20 44  1  0  0  0  0 
 20 45  1  0  0  0  0 
 21 46  1  0  0  0  0 
 21 47  1  0  0  0  0 
 22 48  1  0  0  0  0 
 22 49  1  0  0  0  0 
 22 50  1  0  0  0  0 
M  END
> <cdk:Title>
oxybuprocaine

> <Conformer>
1

> <SuperDrugID>
SD002621

$$$$
