metofoline
  CDK     0628171801

 48 50  0  0  0  0  0  0  0  0999 V2000
    1.8806   -1.2369    0.2480 C   0  0  1  0  0  0  0  0  0  0  0  0
    0.6452   -1.2163   -0.7059 C   0  0  2  0  0  0  0  0  0  0  0  0
    3.0168   -0.2125   -0.0893 C   0  0  1  0  0  0  0  0  0  0  0  0
   -0.3576   -0.1632   -0.3754 C   0  0  0  0  0  0  0  0  0  0  0  0
    4.0970   -0.1821    0.9615 C   0  0  0  0  0  0  0  0  0  0  0  0
    3.5247   -0.4985   -1.4809 N   0  0  1  0  0  0  0  0  0  0  0  0
   -1.4531   -0.4535    0.4743 C   0  0  0  0  0  0  0  0  0  0  0  0
   -0.2439    1.1454   -0.8997 C   0  0  0  0  0  0  0  0  0  0  0  0
    5.4388   -0.5565    0.6700 C   0  0  0  0  0  0  0  0  0  0  0  0
    3.7841    0.2369    2.2787 C   0  0  0  0  0  0  0  0  0  0  0  0
    3.7085    0.6834   -2.3739 C   0  0  0  0  0  0  0  0  0  0  0  0
    4.6381   -1.4911   -1.5370 C   0  0  1  0  0  0  0  0  0  0  0  0
   -2.3810    0.5444    0.8267 C   0  0  0  0  0  0  0  0  0  0  0  0
   -1.1668    2.1479   -0.5447 C   0  0  0  0  0  0  0  0  0  0  0  0
    6.4282   -0.4542    1.6757 C   0  0  0  0  0  0  0  0  0  0  0  0
    5.8416   -1.0404   -0.6756 C   0  0  2  0  0  0  0  0  0  0  0  0
    4.7600    0.2633    3.2944 C   0  0  0  0  0  0  0  0  0  0  0  0
   -2.2268    1.8537    0.3339 C   0  0  0  0  0  0  0  0  0  0  0  0
    6.1001   -0.0444    2.9811 C   0  0  0  0  0  0  0  0  0  0  0  0
    4.4036    0.6134    4.5704 O   0  0  0  0  0  0  0  0  0  0  0  0
   -3.3087    3.0715    0.7984 Cl  0  0  0  0  0  0  0  0  0  0  0  0
    7.0731   -0.0055    3.9451 O   0  0  0  0  0  0  0  0  0  0  0  0
    4.0526   -0.5195    5.3891 C   0  0  0  0  0  0  0  0  0  0  0  0
    7.6744    1.2919    4.1027 C   0  0  0  0  0  0  0  0  0  0  0  0
    1.5213   -1.0844    1.2697 H   0  0  0  0  0  0  0  0  0  0  0  0
    2.3101   -2.2409    0.2203 H   0  0  0  0  0  0  0  0  0  0  0  0
    0.1571   -2.1931   -0.6447 H   0  0  0  0  0  0  0  0  0  0  0  0
    0.9633   -1.1147   -1.7454 H   0  0  0  0  0  0  0  0  0  0  0  0
    2.5567    0.7798   -0.0725 H   0  0  0  0  0  0  0  0  0  0  0  0
   -1.5824   -1.3965    0.8496 H   0  0  0  0  0  0  0  0  0  0  0  0
    0.5130    1.3801   -1.5419 H   0  0  0  0  0  0  0  0  0  0  0  0
    2.8309    0.5249    2.5135 H   0  0  0  0  0  0  0  0  0  0  0  0
    4.5198    1.3227   -2.0215 H   0  0  0  0  0  0  0  0  0  0  0  0
    2.7947    1.2752   -2.4216 H   0  0  0  0  0  0  0  0  0  0  0  0
    3.9286    0.3600   -3.3942 H   0  0  0  0  0  0  0  0  0  0  0  0
    4.2748   -2.4522   -1.1644 H   0  0  0  0  0  0  0  0  0  0  0  0
    4.9656   -1.6638   -2.5662 H   0  0  0  0  0  0  0  0  0  0  0  0
   -3.1634    0.3150    1.4451 H   0  0  0  0  0  0  0  0  0  0  0  0
   -1.0632    3.0924   -0.9252 H   0  0  0  0  0  0  0  0  0  0  0  0
    7.4005   -0.6901    1.4655 H   0  0  0  0  0  0  0  0  0  0  0  0
    6.5204   -1.8912   -0.5760 H   0  0  0  0  0  0  0  0  0  0  0  0
    6.3817   -0.2397   -1.1860 H   0  0  0  0  0  0  0  0  0  0  0  0
    3.7516   -0.1513    6.3702 H   0  0  0  0  0  0  0  0  0  0  0  0
    3.2133   -1.0777    4.9660 H   0  0  0  0  0  0  0  0  0  0  0  0
    4.9025   -1.1926    5.5281 H   0  0  0  0  0  0  0  0  0  0  0  0
    8.4344    1.2170    4.8801 H   0  0  0  0  0  0  0  0  0  0  0  0
    8.1625    1.6245    3.1833 H   0  0  0  0  0  0  0  0  0  0  0  0
    6.9425    2.0396    4.4179 H   0  0  0  0  0  0  0  0  0  0  0  0
  1  2  1  0  0  0  0 
  3  1  1  0  0  0  0 
  2  4  1  0  0  0  0 
  3  5  1  0  0  0  0 
  3  6  1  0  0  0  0 
  4  7  2  0  0  0  0 
  4  8  1  0  0  0  0 
  5  9  2  0  0  0  0 
  5 10  1  0  0  0  0 
  6 11  1  0  0  0  0 
  6 12  1  0  0  0  0 
  7 13  1  0  0  0  0 
  8 14  2  0  0  0  0 
  9 15  1  0  0  0  0 
  9 16  1  0  0  0  0 
 10 17  2  0  0  0  0 
 12 16  1  0  0  0  0 
 13 18  2  0  0  0  0 
 14 18  1  0  0  0  0 
 15 19  2  0  0  0  0 
 17 19  1  0  0  0  0 
 17 20  1  0  0  0  0 
 18 21  1  0  0  0  0 
 19 22  1  0  0  0  0 
 20 23  1  0  0  0  0 
 22 24  1  0  0  0  0 
  1 25  1  0  0  0  0 
  1 26  1  0  0  0  0 
  2 27  1  0  0  0  0 
  2 28  1  0  0  0  0 
  3 29  1  0  0  0  0 
  7 30  1  0  0  0  0 
  8 31  1  0  0  0  0 
 10 32  1  0  0  0  0 
 11 33  1  0  0  0  0 
 11 34  1  0  0  0  0 
 11 35  1  0  0  0  0 
 12 36  1  0  0  0  0 
 12 37  1  0  0  0  0 
 13 38  1  0  0  0  0 
 14 39  1  0  0  0  0 
 15 40  1  0  0  0  0 
 16 41  1  0  0  0  0 
 16 42  1  0  0  0  0 
 23 43  1  0  0  0  0 
 23 44  1  0  0  0  0 
 23 45  1  0  0  0  0 
 24 46  1  0  0  0  0 
 24 47  1  0  0  0  0 
 24 48  1  0  0  0  0 
M  END
> <cdk:Title>
metofoline

> <Conformer>
1

> <SuperDrugID>
SD001549

$$$$
