nilutamide
  CDK     0628171801

 32 33  0  0  0  0  0  0  0  0999 V2000
   -1.0555   -2.7427   -2.1450 C   0  0  0  0  0  0  0  0  0  0  0  0
   -0.3074   -2.3384   -1.0161 C   0  0  0  0  0  0  0  0  0  0  0  0
   -0.7860   -2.6945    0.2611 C   0  0  0  0  0  0  0  0  0  0  0  0
   -1.9551   -3.4583    0.4001 C   0  0  0  0  0  0  0  0  0  0  0  0
   -2.6960   -3.8763   -0.7307 C   0  0  0  0  0  0  0  0  0  0  0  0
   -2.2400   -3.5173   -2.0375 C   0  0  0  0  0  0  0  0  0  0  0  0
    0.8776   -1.6526   -1.1636 N   0  0  0  0  0  0  0  0  0  0  0  0
    1.1025   -0.5742   -1.9488 C   0  0  0  0  0  0  0  0  0  0  0  0
    2.3834   -0.1908   -1.8575 N   0  0  0  0  0  0  0  0  0  0  0  0
    3.1341   -1.0135   -0.9764 C   0  0  2  0  0  0  0  0  0  0  0  0
    2.0596   -1.9455   -0.5620 C   0  0  0  0  0  0  0  0  0  0  0  0
    0.2663    0.0254   -2.6623 O   0  0  0  0  0  0  0  0  0  0  0  0
    2.2411   -2.8921    0.2408 O   0  0  0  0  0  0  0  0  0  0  0  0
   -2.9620   -3.9569   -3.2751 C   0  0  1  0  0  0  0  0  0  0  0  0
   -3.7902   -4.6084   -0.5082 N   0  0  0  0  0  0  0  0  0  0  0  0
   -4.1677   -3.3078   -3.3735 F   0  0  0  0  0  0  0  0  0  0  0  0
   -2.2976   -3.7102   -4.4542 F   0  0  0  0  0  0  0  0  0  0  0  0
   -3.1756   -5.3138   -3.2541 F   0  0  0  0  0  0  0  0  0  0  0  0
   -3.7376   -5.6807    0.1714 O   0  0  0  0  0  0  0  0  0  0  0  0
   -4.8399   -4.2852   -0.9011 O   0  0  0  0  0  0  0  0  0  0  0  0
    3.6721   -0.1871    0.2243 C   0  0  0  0  0  0  0  0  0  0  0  0
    4.2812   -1.7279   -1.7463 C   0  0  0  0  0  0  0  0  0  0  0  0
   -0.7069   -2.4796   -3.0680 H   0  0  0  0  0  0  0  0  0  0  0  0
   -0.2824   -2.4021    1.1022 H   0  0  0  0  0  0  0  0  0  0  0  0
   -2.2645   -3.7088    1.3443 H   0  0  0  0  0  0  0  0  0  0  0  0
    2.7562    0.5673   -2.3364 H   0  0  0  0  0  0  0  0  0  0  0  0
    2.8673    0.3748    0.7061 H   0  0  0  0  0  0  0  0  0  0  0  0
    4.1241   -0.8494    0.9678 H   0  0  0  0  0  0  0  0  0  0  0  0
    4.4323    0.5207   -0.1162 H   0  0  0  0  0  0  0  0  0  0  0  0
    4.8197   -2.4083   -1.0810 H   0  0  0  0  0  0  0  0  0  0  0  0
    4.9911   -0.9924   -2.1299 H   0  0  0  0  0  0  0  0  0  0  0  0
    3.8944   -2.3040   -2.5901 H   0  0  0  0  0  0  0  0  0  0  0  0
  1  2  2  0  0  0  0 
  2  3  1  0  0  0  0 
  3  4  2  0  0  0  0 
  4  5  1  0  0  0  0 
  5  6  2  0  0  0  0 
  1  6  1  0  0  0  0 
  2  7  1  0  0  0  0 
  8  9  1  0  0  0  0 
  9 10  1  0  0  0  0 
 10 11  1  0  0  0  0 
  7  8  1  0  0  0  0 
  7 11  1  0  0  0  0 
  8 12  2  0  0  0  0 
 11 13  2  0  0  0  0 
  6 14  1  0  0  0  0 
  5 15  1  0  0  0  0 
 14 16  1  0  0  0  0 
 14 17  1  0  0  0  0 
 14 18  1  0  0  0  0 
 15 19  1  0  0  0  0 
 15 20  2  0  0  0  0 
 10 21  1  0  0  0  0 
 10 22  1  0  0  0  0 
 23  1  1  0  0  0  0 
 24  3  1  0  0  0  0 
 25  4  1  0  0  0  0 
 26  9  1  0  0  0  0 
 27 21  1  0  0  0  0 
 28 21  1  0  0  0  0 
 29 21  1  0  0  0  0 
 30 22  1  0  0  0  0 
 31 22  1  0  0  0  0 
 32 22  1  0  0  0  0 
M  CHG  1  15   1
M  CHG  1  19  -1
M  END
> <cdk:Title>
nilutamide

> <Conformer>
1

> <SuperDrugID>
SD001728

$$$$
