hydroxyestrone diacetate
  CDK     0628171801

 53 56  0  0  0  0  0  0  0  0999 V2000
  -11.6035    2.0098   -8.7315 C   0  0  0  0  0  0  0  0  0  0  0  0
  -12.2236    2.8690   -9.8960 C   0  0  2  0  0  0  0  0  0  0  0  0
  -13.5114    3.6950   -9.5777 C   0  0  2  0  0  0  0  0  0  0  0  0
  -12.7896    1.9060  -10.8591 C   0  0  0  0  0  0  0  0  0  0  0  0
  -11.1717    3.8790  -10.4495 C   0  0  2  0  0  0  0  0  0  0  0  0
  -13.2562    4.6688   -8.3881 C   0  0  1  0  0  0  0  0  0  0  0  0
  -14.6325    2.6300   -9.5319 C   0  0  1  0  0  0  0  0  0  0  0  0
  -12.1020    1.2853  -11.7022 O   0  0  0  0  0  0  0  0  0  0  0  0
  -14.2276    1.6514  -10.6687 C   0  0  1  0  0  0  0  0  0  0  0  0
  -10.8597    5.0033   -9.4118 C   0  0  2  0  0  0  0  0  0  0  0  0
  -12.1173    5.6996   -8.7641 C   0  0  2  0  0  0  0  0  0  0  0  0
  -14.4997    5.4737   -7.9209 C   0  0  2  0  0  0  0  0  0  0  0  0
  -14.9088    1.9258  -11.9067 O   0  0  0  0  0  0  0  0  0  0  0  0
  -11.8122    6.6023   -7.5909 C   0  0  0  0  0  0  0  0  0  0  0  0
  -14.1563    6.2455   -6.6173 C   0  0  2  0  0  0  0  0  0  0  0  0
  -15.6006    1.0379  -12.6851 C   0  0  0  0  0  0  0  0  0  0  0  0
  -12.7673    6.7885   -6.5455 C   0  0  0  0  0  0  0  0  0  0  0  0
  -10.5860    7.3091   -7.4925 C   0  0  0  0  0  0  0  0  0  0  0  0
  -16.1694    1.4719  -13.9685 C   0  0  0  0  0  0  0  0  0  0  0  0
  -15.7404   -0.1612  -12.3477 O   0  0  0  0  0  0  0  0  0  0  0  0
  -12.3993    7.4925   -5.3757 C   0  0  0  0  0  0  0  0  0  0  0  0
  -10.2520    8.0448   -6.3425 C   0  0  0  0  0  0  0  0  0  0  0  0
  -11.1257    8.0826   -5.2432 C   0  0  0  0  0  0  0  0  0  0  0  0
  -10.6689    8.6913   -4.1013 O   0  0  0  0  0  0  0  0  0  0  0  0
  -11.0166    8.4774   -2.7927 C   0  0  0  0  0  0  0  0  0  0  0  0
  -10.4330    9.3206   -1.7424 C   0  0  0  0  0  0  0  0  0  0  0  0
  -11.7807    7.5481   -2.4422 O   0  0  0  0  0  0  0  0  0  0  0  0
  -12.3304    1.3222   -8.2958 H   0  0  0  0  0  0  0  0  0  0  0  0
  -10.7651    1.4167   -9.1048 H   0  0  0  0  0  0  0  0  0  0  0  0
  -11.2182    2.6257   -7.9211 H   0  0  0  0  0  0  0  0  0  0  0  0
  -13.7670    4.3363  -10.4353 H   0  0  0  0  0  0  0  0  0  0  0  0
  -11.5446    4.3403  -11.3704 H   0  0  0  0  0  0  0  0  0  0  0  0
  -10.2455    3.3559  -10.7070 H   0  0  0  0  0  0  0  0  0  0  0  0
  -12.9425    4.0702   -7.5283 H   0  0  0  0  0  0  0  0  0  0  0  0
  -14.6393    2.1212   -8.5636 H   0  0  0  0  0  0  0  0  0  0  0  0
  -15.6214    3.0617   -9.7078 H   0  0  0  0  0  0  0  0  0  0  0  0
  -14.3753    0.6182  -10.3425 H   0  0  0  0  0  0  0  0  0  0  0  0
  -10.2672    5.7548   -9.9414 H   0  0  0  0  0  0  0  0  0  0  0  0
  -10.2228    4.5934   -8.6237 H   0  0  0  0  0  0  0  0  0  0  0  0
  -12.5116    6.3580   -9.5460 H   0  0  0  0  0  0  0  0  0  0  0  0
  -15.3422    4.8067   -7.7254 H   0  0  0  0  0  0  0  0  0  0  0  0
  -14.8064    6.1803   -8.6991 H   0  0  0  0  0  0  0  0  0  0  0  0
  -14.2952    5.5673   -5.7702 H   0  0  0  0  0  0  0  0  0  0  0  0
  -14.8683    7.0689   -6.5037 H   0  0  0  0  0  0  0  0  0  0  0  0
   -9.9054    7.2891   -8.2518 H   0  0  0  0  0  0  0  0  0  0  0  0
  -17.2507    1.3262  -13.9608 H   0  0  0  0  0  0  0  0  0  0  0  0
  -15.9556    2.5268  -14.1495 H   0  0  0  0  0  0  0  0  0  0  0  0
  -15.7365    0.8827  -14.7807 H   0  0  0  0  0  0  0  0  0  0  0  0
  -13.0699    7.5763   -4.6103 H   0  0  0  0  0  0  0  0  0  0  0  0
   -9.3513    8.5297   -6.2965 H   0  0  0  0  0  0  0  0  0  0  0  0
  -11.2308    9.7812   -1.1564 H   0  0  0  0  0  0  0  0  0  0  0  0
   -9.8075   10.1027   -2.1738 H   0  0  0  0  0  0  0  0  0  0  0  0
   -9.8176    8.7076   -1.0833 H   0  0  0  0  0  0  0  0  0  0  0  0
  2  1  1  0  0  0  0 
  3  2  1  0  0  0  0 
  2  4  1  0  0  0  0 
  2  5  1  0  0  0  0 
  3  6  1  0  0  0  0 
  3  7  1  0  0  0  0 
  4  8  2  0  0  0  0 
  9  4  1  0  0  0  0 
  5 10  1  0  0  0  0 
  6 11  1  0  0  0  0 
  6 12  1  0  0  0  0 
  9  7  1  0  0  0  0 
  9 13  1  0  0  0  0 
 11 10  1  0  0  0  0 
 11 14  1  0  0  0  0 
 12 15  1  0  0  0  0 
 13 16  1  0  0  0  0 
 14 17  2  0  0  0  0 
 14 18  1  0  0  0  0 
 15 17  1  0  0  0  0 
 16 19  1  0  0  0  0 
 16 20  2  0  0  0  0 
 17 21  1  0  0  0  0 
 18 22  2  0  0  0  0 
 21 23  2  0  0  0  0 
 22 23  1  0  0  0  0 
 23 24  1  0  0  0  0 
 24 25  1  0  0  0  0 
 25 26  1  0  0  0  0 
 25 27  2  0  0  0  0 
 28  1  1  0  0  0  0 
 29  1  1  0  0  0  0 
 30  1  1  0  0  0  0 
  3 31  1  0  0  0  0 
 32  5  1  0  0  0  0 
 33  5  1  0  0  0  0 
  6 34  1  0  0  0  0 
 35  7  1  0  0  0  0 
 36  7  1  0  0  0  0 
  9 37  1  0  0  0  0 
 38 10  1  0  0  0  0 
 39 10  1  0  0  0  0 
 11 40  1  0  0  0  0 
 41 12  1  0  0  0  0 
 42 12  1  0  0  0  0 
 43 15  1  0  0  0  0 
 44 15  1  0  0  0  0 
 45 18  1  0  0  0  0 
 46 19  1  0  0  0  0 
 47 19  1  0  0  0  0 
 48 19  1  0  0  0  0 
 49 21  1  0  0  0  0 
 50 22  1  0  0  0  0 
 51 26  1  0  0  0  0 
 52 26  1  0  0  0  0 
 53 26  1  0  0  0  0 
M  END
> <cdk:Title>
hydroxyestrone diacetate

> <Conformer>
1

> <SuperDrugID>
SD002702

$$$$
