lucimycin
  CDK     0628171801

103106  0  0  0  0  0  0  0  0999 V2000
   -7.7911    1.8656   -0.3688 C   0  0  1  0  0  0  0  0  0  0  0  0
   -7.9227    1.9490    1.1710 C   0  0  1  0  0  0  0  0  0  0  0  0
   -7.6440    3.3886    1.7075 C   0  0  1  0  0  0  0  0  0  0  0  0
   -6.3992    3.9116    1.1842 O   0  0  0  0  0  0  0  0  0  0  0  0
   -6.1807    3.8526   -0.2474 C   0  0  2  0  0  0  0  0  0  0  0  0
   -6.4038    2.4082   -0.8108 C   0  0  2  0  0  0  0  0  0  0  0  0
   -7.9459    0.5063   -0.7812 O   0  0  0  0  0  0  0  0  0  0  0  0
   -6.2368    2.3446   -2.2836 C   0  0  0  0  0  0  0  0  0  0  0  0
   -6.9610    3.0192   -3.0503 O   0  0  0  0  0  0  0  0  0  0  0  0
   -5.2681    1.5703   -2.8247 O   0  0  0  0  0  0  0  0  0  0  0  0
   -4.7658    4.4401   -0.5735 C   0  0  1  0  0  0  0  0  0  0  0  0
   -8.8665    4.3454    1.5061 C   0  0  1  0  0  0  0  0  0  0  0  0
   -3.5019    3.6182   -0.1183 C   0  0  1  0  0  0  0  0  0  0  0  0
   -2.2468    4.2725   -0.4276 O   0  0  0  0  0  0  0  0  0  0  0  0
   -3.5768    3.4153    1.3256 C   0  0  0  0  0  0  0  0  0  0  0  0
   -1.9068    4.3942   -1.8326 C   0  0  1  0  0  0  0  0  0  0  0  0
   -0.3063    5.2824   -3.5819 C   0  0  2  0  0  0  0  0  0  0  0  0
   -0.5375    5.0998   -1.9977 C   0  0  2  0  0  0  0  0  0  0  0  0
   -1.8546    3.1021   -2.4863 O   0  0  0  0  0  0  0  0  0  0  0  0
   -1.7207    3.1538   -3.9273 C   0  0  1  0  0  0  0  0  0  0  0  0
   -0.4022    3.8729   -4.3624 C   0  0  1  0  0  0  0  0  0  0  0  0
   -1.8171    1.7007   -4.4585 C   0  0  0  0  0  0  0  0  0  0  0  0
   -0.4313    3.9808   -5.8137 O   0  0  0  0  0  0  0  0  0  0  0  0
    1.0024    5.9007   -3.8086 N   0  0  2  0  0  0  0  0  0  0  0  0
    0.4638    4.3004   -1.3109 O   0  0  0  0  0  0  0  0  0  0  0  0
   -3.6099    2.2031    1.9094 C   0  0  0  0  0  0  0  0  0  0  0  0
   -4.1827    2.0168    3.1322 C   0  0  0  0  0  0  0  0  0  0  0  0
   -4.7168    0.8295    3.4742 C   0  0  0  0  0  0  0  0  0  0  0  0
   -5.7249    0.7228    4.3829 C   0  0  0  0  0  0  0  0  0  0  0  0
   -6.6617   -0.2345    4.2402 C   0  0  0  0  0  0  0  0  0  0  0  0
   -7.8947   -0.1679    4.8116 C   0  0  0  0  0  0  0  0  0  0  0  0
   -8.9346   -0.8673    4.3184 C   0  0  0  0  0  0  0  0  0  0  0  0
  -10.3243   -0.6571    4.6902 C   0  0  1  0  0  0  0  0  0  0  0  0
  -11.0969    0.1569    3.6045 C   0  0  1  0  0  0  0  0  0  0  0  0
  -11.1102   -0.4625    2.1666 C   0  0  2  0  0  0  0  0  0  0  0  0
  -12.4381    0.3867    4.0833 O   0  0  0  0  0  0  0  0  0  0  0  0
  -13.4001    1.1999    3.5436 C   0  0  0  0  0  0  0  0  0  0  0  0
  -13.1955    2.4823    3.0620 C   0  0  0  0  0  0  0  0  0  0  0  0
  -14.5637    0.7383    3.5273 O   0  0  0  0  0  0  0  0  0  0  0  0
  -12.2724    3.3342    3.5345 C   0  0  0  0  0  0  0  0  0  0  0  0
  -12.0722    4.6431    2.9412 C   0  0  2  0  0  0  0  0  0  0  0  0
  -10.9656    5.5109    3.5180 C   0  0  2  0  0  0  0  0  0  0  0  0
  -12.3541    5.8214    3.7153 O   0  0  0  0  0  0  0  0  0  0  0  0
   -8.7691    5.7552    2.1786 C   0  0  2  0  0  0  0  0  0  0  0  0
  -10.1405    6.3966    2.5491 C   0  0  2  0  0  0  0  0  0  0  0  0
   -8.0630    6.6429    1.3117 O   0  0  0  0  0  0  0  0  0  0  0  0
   -7.4299    3.2289    3.1126 O   0  0  0  0  0  0  0  0  0  0  0  0
  -11.8280   -1.8342    2.0205 C   0  0  1  0  0  0  0  0  0  0  0  0
  -11.7673   -2.3703    0.5630 C   0  0  1  0  0  0  0  0  0  0  0  0
  -12.4840   -3.7266    0.3781 C   0  0  0  0  0  0  0  0  0  0  0  0
   -8.5913    2.4489   -0.8342 H   0  0  0  0  0  0  0  0  0  0  0  0
   -8.9208    1.6187    1.4684 H   0  0  0  0  0  0  0  0  0  0  0  0
   -7.2032    1.2527    1.6137 H   0  0  0  0  0  0  0  0  0  0  0  0
   -6.9111    4.5233   -0.7112 H   0  0  0  0  0  0  0  0  0  0  0  0
   -5.6599    1.7460   -0.3596 H   0  0  0  0  0  0  0  0  0  0  0  0
   -8.8471    0.2501   -0.4921 H   0  0  0  0  0  0  0  0  0  0  0  0
   -5.1362    1.5527   -3.7950 H   0  0  0  0  0  0  0  0  0  0  0  0
   -4.7314    4.5723   -1.6541 H   0  0  0  0  0  0  0  0  0  0  0  0
   -4.7069    5.4440   -0.1430 H   0  0  0  0  0  0  0  0  0  0  0  0
   -9.0759    4.4778    0.4429 H   0  0  0  0  0  0  0  0  0  0  0  0
   -9.7222    3.8155    1.9162 H   0  0  0  0  0  0  0  0  0  0  0  0
   -3.5155    2.6510   -0.6322 H   0  0  0  0  0  0  0  0  0  0  0  0
   -3.7408    4.2249    1.8827 H   0  0  0  0  0  0  0  0  0  0  0  0
   -2.6554    5.0326   -2.3084 H   0  0  0  0  0  0  0  0  0  0  0  0
   -1.0592    5.9632   -3.9813 H   0  0  0  0  0  0  0  0  0  0  0  0
   -0.5920    6.0526   -1.4042 H   0  0  0  0  0  0  0  0  0  0  0  0
   -2.5762    3.6978   -4.3414 H   0  0  0  0  0  0  0  0  0  0  0  0
    0.4390    3.1574   -4.1525 H   0  0  0  0  0  0  0  0  0  0  0  0
   -1.7626    1.6835   -5.5488 H   0  0  0  0  0  0  0  0  0  0  0  0
   -2.7673    1.2556   -4.1592 H   0  0  0  0  0  0  0  0  0  0  0  0
   -1.0079    1.0892   -4.0561 H   0  0  0  0  0  0  0  0  0  0  0  0
    0.4175    4.4090   -6.0536 H   0  0  0  0  0  0  0  0  0  0  0  0
    0.9757    6.8168   -3.3552 H   0  0  0  0  0  0  0  0  0  0  0  0
    1.0837    6.0738   -4.8126 H   0  0  0  0  0  0  0  0  0  0  0  0
    0.1802    4.2716   -0.3734 H   0  0  0  0  0  0  0  0  0  0  0  0
   -3.3451    1.4102    1.3700 H   0  0  0  0  0  0  0  0  0  0  0  0
   -4.3502    2.8095    3.7127 H   0  0  0  0  0  0  0  0  0  0  0  0
   -4.4718    0.0244    2.9394 H   0  0  0  0  0  0  0  0  0  0  0  0
   -5.8459    1.4358    5.0688 H   0  0  0  0  0  0  0  0  0  0  0  0
   -6.4866   -0.9750    3.5927 H   0  0  0  0  0  0  0  0  0  0  0  0
   -8.0578    0.4787    5.5486 H   0  0  0  0  0  0  0  0  0  0  0  0
   -8.7686   -1.5378    3.6012 H   0  0  0  0  0  0  0  0  0  0  0  0
  -10.8036   -1.6240    4.8463 H   0  0  0  0  0  0  0  0  0  0  0  0
  -10.3885   -0.1153    5.6384 H   0  0  0  0  0  0  0  0  0  0  0  0
  -10.5920    1.1231    3.5296 H   0  0  0  0  0  0  0  0  0  0  0  0
  -10.0827   -0.5629    1.8107 H   0  0  0  0  0  0  0  0  0  0  0  0
  -11.5988    0.2523    1.4995 H   0  0  0  0  0  0  0  0  0  0  0  0
  -13.7919    2.7887    2.3266 H   0  0  0  0  0  0  0  0  0  0  0  0
  -11.6987    3.0667    4.3009 H   0  0  0  0  0  0  0  0  0  0  0  0
  -12.2410    4.7587    1.8687 H   0  0  0  0  0  0  0  0  0  0  0  0
  -10.4784    5.1571    4.4288 H   0  0  0  0  0  0  0  0  0  0  0  0
   -8.1949    5.6958    3.1042 H   0  0  0  0  0  0  0  0  0  0  0  0
   -9.9574    7.3452    3.0597 H   0  0  0  0  0  0  0  0  0  0  0  0
  -10.7072    6.6184    1.6425 H   0  0  0  0  0  0  0  0  0  0  0  0
   -7.1877    6.2231    1.1746 H   0  0  0  0  0  0  0  0  0  0  0  0
   -7.1015    4.0946    3.4331 H   0  0  0  0  0  0  0  0  0  0  0  0
  -11.3554   -2.5652    2.6808 H   0  0  0  0  0  0  0  0  0  0  0  0
  -12.8734   -1.7250    2.3215 H   0  0  0  0  0  0  0  0  0  0  0  0
  -12.2234   -1.6411   -0.1125 H   0  0  0  0  0  0  0  0  0  0  0  0
  -10.7206   -2.4910    0.2701 H   0  0  0  0  0  0  0  0  0  0  0  0
  -12.3685   -4.0641   -0.6542 H   0  0  0  0  0  0  0  0  0  0  0  0
  -12.0517   -4.4789    1.0407 H   0  0  0  0  0  0  0  0  0  0  0  0
  -13.5498   -3.6290    0.5949 H   0  0  0  0  0  0  0  0  0  0  0  0
  1  2  1  0  0  0  0 
  2  3  1  0  0  0  0 
  3  4  1  0  0  0  0 
  4  5  1  0  0  0  0 
  5  6  1  0  0  0  0 
  1  6  1  0  0  0  0 
  1  7  1  0  0  0  0 
  6  8  1  0  0  0  0 
  8  9  2  0  0  0  0 
  8 10  1  0  0  0  0 
  5 11  1  0  0  0  0 
  3 12  1  0  0  0  0 
 11 13  1  0  0  0  0 
 13 14  1  0  0  0  0 
 13 15  1  0  0  0  0 
 16 14  1  0  0  0  0 
 18 16  1  0  0  0  0 
 16 19  1  0  0  0  0 
 17 18  1  0  0  0  0 
 19 20  1  0  0  0  0 
 20 21  1  0  0  0  0 
 17 21  1  0  0  0  0 
 20 22  1  0  0  0  0 
 21 23  1  0  0  0  0 
 17 24  1  0  0  0  0 
 18 25  1  0  0  0  0 
 15 26  2  0  0  0  0 
 26 27  1  0  0  0  0 
 27 28  2  0  0  0  0 
 28 29  1  0  0  0  0 
 29 30  2  0  0  0  0 
 30 31  1  0  0  0  0 
 31 32  2  0  0  0  0 
 32 33  1  0  0  0  0 
 33 34  1  0  0  0  0 
 34 35  1  0  0  0  0 
 34 36  1  0  0  0  0 
 36 37  1  0  0  0  0 
 37 38  1  0  0  0  0 
 37 39  2  0  0  0  0 
 38 40  2  0  0  0  0 
 40 41  1  0  0  0  0 
 41 42  1  0  0  0  0 
 42 43  1  0  0  0  0 
 43 41  1  0  0  0  0 
 12 44  1  0  0  0  0 
 44 45  1  0  0  0  0 
 44 46  1  0  0  0  0 
 42 45  1  0  0  0  0 
  3 47  1  0  0  0  0 
 35 48  1  0  0  0  0 
 48 49  1  0  0  0  0 
 49 50  1  0  0  0  0 
  1 51  1  0  0  0  0 
  2 52  1  0  0  0  0 
  2 53  1  0  0  0  0 
  5 54  1  0  0  0  0 
  6 55  1  0  0  0  0 
  7 56  1  0  0  0  0 
 10 57  1  0  0  0  0 
 11 58  1  0  0  0  0 
 11 59  1  0  0  0  0 
 12 60  1  0  0  0  0 
 12 61  1  0  0  0  0 
 13 62  1  0  0  0  0 
 15 63  1  0  0  0  0 
 16 64  1  0  0  0  0 
 17 65  1  0  0  0  0 
 18 66  1  0  0  0  0 
 20 67  1  0  0  0  0 
 21 68  1  0  0  0  0 
 22 69  1  0  0  0  0 
 22 70  1  0  0  0  0 
 22 71  1  0  0  0  0 
 23 72  1  0  0  0  0 
 24 73  1  0  0  0  0 
 24 74  1  0  0  0  0 
 25 75  1  0  0  0  0 
 26 76  1  0  0  0  0 
 27 77  1  0  0  0  0 
 28 78  1  0  0  0  0 
 29 79  1  0  0  0  0 
 30 80  1  0  0  0  0 
 31 81  1  0  0  0  0 
 32 82  1  0  0  0  0 
 33 83  1  0  0  0  0 
 33 84  1  0  0  0  0 
 34 85  1  0  0  0  0 
 35 86  1  0  0  0  0 
 35 87  1  0  0  0  0 
 38 88  1  0  0  0  0 
 40 89  1  0  0  0  0 
 41 90  1  0  0  0  0 
 42 91  1  0  0  0  0 
 44 92  1  0  0  0  0 
 45 93  1  0  0  0  0 
 45 94  1  0  0  0  0 
 46 95  1  0  0  0  0 
 47 96  1  0  0  0  0 
 48 97  1  0  0  0  0 
 48 98  1  0  0  0  0 
 49 99  1  0  0  0  0 
 49100  1  0  0  0  0 
 50101  1  0  0  0  0 
 50102  1  0  0  0  0 
 50103  1  0  0  0  0 
M  END
> <cdk:Title>
lucimycin

> <Conformer>
1

> <SuperDrugID>
SD002873

$$$$
