clonidine
  CDK     0628171802

 23 24  0  0  0  0  0  0  0  0999 V2000
   -3.3375    1.3205   -0.1070 Cl  0  0  0  0  0  0  0  0  0  0  0  0
   -3.6870   -0.3334    0.0555 C   0  0  0  0  0  0  0  0  0  0  0  0
   -4.9845   -0.6924    0.4772 C   0  0  0  0  0  0  0  0  0  0  0  0
   -5.3251   -2.0442    0.6436 C   0  0  0  0  0  0  0  0  0  0  0  0
   -4.3719   -3.0431    0.3908 C   0  0  0  0  0  0  0  0  0  0  0  0
   -3.0736   -2.7000   -0.0405 C   0  0  0  0  0  0  0  0  0  0  0  0
   -1.9653   -3.9679   -0.2612 Cl  0  0  0  0  0  0  0  0  0  0  0  0
   -2.7226   -1.3353   -0.2258 C   0  0  0  0  0  0  0  0  0  0  0  0
   -1.5046   -0.9513   -0.6048 N   0  0  0  0  0  0  0  0  0  0  0  0
   -0.8418   -1.2423   -1.6653 C   0  0  0  0  0  0  0  0  0  0  0  0
   -1.2340   -1.9663   -2.6872 N   0  0  0  0  0  0  0  0  0  0  0  0
   -0.2551   -2.0538   -3.7024 C   0  0  1  0  0  0  0  0  0  0  0  0
    0.8891   -1.1872   -3.1361 C   0  0  1  0  0  0  0  0  0  0  0  0
    0.3722   -0.8008   -1.8781 N   0  0  0  0  0  0  0  0  0  0  0  0
   -5.6884    0.0264    0.6689 H   0  0  0  0  0  0  0  0  0  0  0  0
   -6.2621   -2.3043    0.9570 H   0  0  0  0  0  0  0  0  0  0  0  0
   -4.6294   -4.0218    0.5364 H   0  0  0  0  0  0  0  0  0  0  0  0
   -2.1034   -2.3912   -2.7449 H   0  0  0  0  0  0  0  0  0  0  0  0
    0.0556   -3.0919   -3.8368 H   0  0  0  0  0  0  0  0  0  0  0  0
   -0.6399   -1.6521   -4.6424 H   0  0  0  0  0  0  0  0  0  0  0  0
    1.8087   -1.7634   -3.0091 H   0  0  0  0  0  0  0  0  0  0  0  0
    1.0717   -0.3052   -3.7558 H   0  0  0  0  0  0  0  0  0  0  0  0
    0.8679   -0.2650   -1.2370 H   0  0  0  0  0  0  0  0  0  0  0  0
  1  2  1  0  0  0  0 
  2  3  2  0  0  0  0 
  3  4  1  0  0  0  0 
  4  5  2  0  0  0  0 
  5  6  1  0  0  0  0 
  6  7  1  0  0  0  0 
  6  8  2  0  0  0  0 
  2  8  1  0  0  0  0 
  8  9  1  0  0  0  0 
  9 10  2  0  0  0  0 
 10 11  1  0  0  0  0 
 11 12  1  0  0  0  0 
 12 13  1  0  0  0  0 
 13 14  1  0  0  0  0 
 10 14  1  0  0  0  0 
 15  3  1  0  0  0  0 
 16  4  1  0  0  0  0 
 17  5  1  0  0  0  0 
 18 11  1  0  0  0  0 
 19 12  1  0  0  0  0 
 20 12  1  0  0  0  0 
 21 13  1  0  0  0  0 
 22 13  1  0  0  0  0 
 23 14  1  0  0  0  0 
M  END
> <cdk:Title>
clonidine

> <Conformer>
1

> <SuperDrugID>
SD000621

$$$$
