diethylamino hydroxybenzoyl hexyl benzoate
  CDK     0628171802

 60 61  0  0  0  0  0  0  0  0999 V2000
    2.0278    1.6238   -8.2766 C   0  0  0  0  0  0  0  0  0  0  0  0
    2.4655    2.1727   -7.2373 O   0  0  0  0  0  0  0  0  0  0  0  0
    0.7616    0.9735   -8.1795 C   0  0  0  0  0  0  0  0  0  0  0  0
    2.7842    1.7114   -9.4841 C   0  0  0  0  0  0  0  0  0  0  0  0
    0.4405    0.0397   -7.1456 C   0  0  0  0  0  0  0  0  0  0  0  0
   -0.2357    1.3216   -9.1262 C   0  0  0  0  0  0  0  0  0  0  0  0
    3.5703    2.8517   -9.8008 C   0  0  0  0  0  0  0  0  0  0  0  0
    2.7715    0.6352  -10.4051 C   0  0  0  0  0  0  0  0  0  0  0  0
    1.3806   -0.4135   -6.1838 C   0  0  0  0  0  0  0  0  0  0  0  0
   -0.8799   -0.4693   -7.0675 C   0  0  0  0  0  0  0  0  0  0  0  0
   -1.5282    0.7776   -9.0493 C   0  0  0  0  0  0  0  0  0  0  0  0
    3.6668    3.9061   -8.9479 O   0  0  0  0  0  0  0  0  0  0  0  0
    4.2627    2.9253  -11.0262 C   0  0  0  0  0  0  0  0  0  0  0  0
    3.4765    0.7047  -11.6193 C   0  0  0  0  0  0  0  0  0  0  0  0
    0.9685   -0.5969   -4.8958 O   0  0  0  0  0  0  0  0  0  0  0  0
    2.5741   -0.6352   -6.5001 O   0  0  0  0  0  0  0  0  0  0  0  0
   -1.8539   -0.1076   -8.0117 C   0  0  0  0  0  0  0  0  0  0  0  0
    4.2119    1.8606  -11.9481 C   0  0  0  0  0  0  0  0  0  0  0  0
    1.7763   -0.9801   -3.7784 C   0  0  1  0  0  0  0  0  0  0  0  0
    4.8809    1.9518  -13.1417 N   0  0  0  0  0  0  0  0  0  0  0  0
    0.9144   -0.9104   -2.4975 C   0  0  1  0  0  0  0  0  0  0  0  0
    6.3081    1.7112  -13.1737 C   0  0  2  0  0  0  0  0  0  0  0  0
    4.1522    2.3308  -14.3339 C   0  0  1  0  0  0  0  0  0  0  0  0
    1.7347   -1.1241   -1.1972 C   0  0  2  0  0  0  0  0  0  0  0  0
    6.6567    0.3740  -13.8702 C   0  0  0  0  0  0  0  0  0  0  0  0
    3.7002    3.8088  -14.3148 C   0  0  0  0  0  0  0  0  0  0  0  0
    0.8805   -0.9249    0.0837 C   0  0  1  0  0  0  0  0  0  0  0  0
    1.7072   -1.0326    1.3932 C   0  0  1  0  0  0  0  0  0  0  0  0
    0.8609   -0.7374    2.6524 C   0  0  0  0  0  0  0  0  0  0  0  0
   -0.0380    1.9915   -9.8761 H   0  0  0  0  0  0  0  0  0  0  0  0
    2.2501   -0.2193  -10.1986 H   0  0  0  0  0  0  0  0  0  0  0  0
   -1.1493   -1.1203   -6.3249 H   0  0  0  0  0  0  0  0  0  0  0  0
   -2.2348    1.0339   -9.7423 H   0  0  0  0  0  0  0  0  0  0  0  0
    4.3795    4.4812   -9.3006 H   0  0  0  0  0  0  0  0  0  0  0  0
    4.8026    3.7647  -11.2534 H   0  0  0  0  0  0  0  0  0  0  0  0
    3.4529   -0.0931  -12.2604 H   0  0  0  0  0  0  0  0  0  0  0  0
   -2.8008   -0.4886   -7.9416 H   0  0  0  0  0  0  0  0  0  0  0  0
    2.1650   -1.9915   -3.9254 H   0  0  0  0  0  0  0  0  0  0  0  0
    2.6142   -0.2839   -3.6950 H   0  0  0  0  0  0  0  0  0  0  0  0
    0.4388    0.0739   -2.4602 H   0  0  0  0  0  0  0  0  0  0  0  0
    0.1252   -1.6642   -2.5623 H   0  0  0  0  0  0  0  0  0  0  0  0
    6.7307    1.6721  -12.1623 H   0  0  0  0  0  0  0  0  0  0  0  0
    6.8090    2.5377  -13.6884 H   0  0  0  0  0  0  0  0  0  0  0  0
    4.7624    2.1851  -15.2303 H   0  0  0  0  0  0  0  0  0  0  0  0
    3.2715    1.6919  -14.4469 H   0  0  0  0  0  0  0  0  0  0  0  0
    2.5627   -0.4104   -1.1827 H   0  0  0  0  0  0  0  0  0  0  0  0
    2.1544   -2.1335   -1.1988 H   0  0  0  0  0  0  0  0  0  0  0  0
    6.0506   -0.4332  -13.4521 H   0  0  0  0  0  0  0  0  0  0  0  0
    6.4726    0.4359  -14.9445 H   0  0  0  0  0  0  0  0  0  0  0  0
    7.7119    0.1340  -13.7153 H   0  0  0  0  0  0  0  0  0  0  0  0
    3.2575    4.0742  -15.2758 H   0  0  0  0  0  0  0  0  0  0  0  0
    4.5548    4.4621  -14.1307 H   0  0  0  0  0  0  0  0  0  0  0  0
    2.9511    3.9703  -13.5381 H   0  0  0  0  0  0  0  0  0  0  0  0
    0.4153    0.0638    0.0454 H   0  0  0  0  0  0  0  0  0  0  0  0
    0.0853   -1.6749    0.1014 H   0  0  0  0  0  0  0  0  0  0  0  0
    2.1246   -2.0389    1.4787 H   0  0  0  0  0  0  0  0  0  0  0  0
    2.5382   -0.3227    1.3630 H   0  0  0  0  0  0  0  0  0  0  0  0
    1.4784   -0.8315    3.5475 H   0  0  0  0  0  0  0  0  0  0  0  0
    0.4609    0.2778    2.6141 H   0  0  0  0  0  0  0  0  0  0  0  0
    0.0307   -1.4417    2.7275 H   0  0  0  0  0  0  0  0  0  0  0  0
  1  2  2  0  0  0  0 
  1  3  1  0  0  0  0 
  1  4  1  0  0  0  0 
  3  5  2  0  0  0  0 
  3  6  1  0  0  0  0 
  4  7  2  0  0  0  0 
  4  8  1  0  0  0  0 
  5  9  1  0  0  0  0 
  5 10  1  0  0  0  0 
  6 11  2  0  0  0  0 
  7 12  1  0  0  0  0 
  7 13  1  0  0  0  0 
  8 14  2  0  0  0  0 
  9 15  1  0  0  0  0 
  9 16  2  0  0  0  0 
 10 17  2  0  0  0  0 
 11 17  1  0  0  0  0 
 13 18  2  0  0  0  0 
 14 18  1  0  0  0  0 
 15 19  1  0  0  0  0 
 18 20  1  0  0  0  0 
 19 21  1  0  0  0  0 
 20 22  1  0  0  0  0 
 20 23  1  0  0  0  0 
 21 24  1  0  0  0  0 
 22 25  1  0  0  0  0 
 23 26  1  0  0  0  0 
 24 27  1  0  0  0  0 
 27 28  1  0  0  0  0 
 28 29  1  0  0  0  0 
  6 30  1  0  0  0  0 
  8 31  1  0  0  0  0 
 10 32  1  0  0  0  0 
 11 33  1  0  0  0  0 
 12 34  1  0  0  0  0 
 13 35  1  0  0  0  0 
 14 36  1  0  0  0  0 
 17 37  1  0  0  0  0 
 19 38  1  0  0  0  0 
 19 39  1  0  0  0  0 
 21 40  1  0  0  0  0 
 21 41  1  0  0  0  0 
 22 42  1  0  0  0  0 
 22 43  1  0  0  0  0 
 23 44  1  0  0  0  0 
 23 45  1  0  0  0  0 
 24 46  1  0  0  0  0 
 24 47  1  0  0  0  0 
 25 48  1  0  0  0  0 
 25 49  1  0  0  0  0 
 25 50  1  0  0  0  0 
 26 51  1  0  0  0  0 
 26 52  1  0  0  0  0 
 26 53  1  0  0  0  0 
 27 54  1  0  0  0  0 
 27 55  1  0  0  0  0 
 28 56  1  0  0  0  0 
 28 57  1  0  0  0  0 
 29 58  1  0  0  0  0 
 29 59  1  0  0  0  0 
 29 60  1  0  0  0  0 
M  END
> <cdk:Title>
diethylamino hydroxybenzoyl hexyl benzoate

> <Conformer>
1

> <SuperDrugID>
SD003648

$$$$
