amobarbital
  CDK     0628171801

 34 34  0  0  0  0  0  0  0  0999 V2000
    2.1800    0.3072   -0.8299 C   0  0  2  0  0  0  0  0  0  0  0  0
    1.8502   -0.4094    0.5124 C   0  0  1  0  0  0  0  0  0  0  0  0
    3.6942    0.5038   -1.2332 C   0  0  2  0  0  0  0  0  0  0  0  0
    0.3247   -0.6661    0.7467 C   0  0  1  0  0  0  0  0  0  0  0  0
    4.4686    1.3801   -0.1794 C   0  0  2  0  0  0  0  0  0  0  0  0
    3.6564    1.2182   -2.5614 C   0  0  0  0  0  0  0  0  0  0  0  0
    4.3779   -0.8299   -1.3983 C   0  0  0  0  0  0  0  0  0  0  0  0
    0.1137   -1.5489    2.0103 C   0  0  0  0  0  0  0  0  0  0  0  0
   -0.5119    0.6444    0.8438 C   0  0  0  0  0  0  0  0  0  0  0  0
    5.9354    1.7406   -0.5337 C   0  0  0  0  0  0  0  0  0  0  0  0
    3.2071    2.3847   -2.6538 O   0  0  0  0  0  0  0  0  0  0  0  0
    4.0581    0.6365   -3.7207 N   0  0  0  0  0  0  0  0  0  0  0  0
    4.6477   -1.5536   -0.4129 O   0  0  0  0  0  0  0  0  0  0  0  0
    4.7611   -1.3159   -2.6075 N   0  0  0  0  0  0  0  0  0  0  0  0
    4.5878   -0.6089   -3.7479 C   0  0  0  0  0  0  0  0  0  0  0  0
    4.9407   -1.1044   -4.8399 O   0  0  0  0  0  0  0  0  0  0  0  0
    1.7113    1.2933   -0.7840 H   0  0  0  0  0  0  0  0  0  0  0  0
    1.6745   -0.2468   -1.6279 H   0  0  0  0  0  0  0  0  0  0  0  0
    2.3492   -1.3779    0.5124 H   0  0  0  0  0  0  0  0  0  0  0  0
    2.2485    0.1743    1.3463 H   0  0  0  0  0  0  0  0  0  0  0  0
   -0.0565   -1.2386   -0.1066 H   0  0  0  0  0  0  0  0  0  0  0  0
    4.4887    0.8599    0.7820 H   0  0  0  0  0  0  0  0  0  0  0  0
    3.9254    2.3163   -0.0198 H   0  0  0  0  0  0  0  0  0  0  0  0
    0.6427   -2.4992    1.9066 H   0  0  0  0  0  0  0  0  0  0  0  0
   -0.9457   -1.7719    2.1511 H   0  0  0  0  0  0  0  0  0  0  0  0
    0.4843   -1.0419    2.9039 H   0  0  0  0  0  0  0  0  0  0  0  0
   -0.5395    1.1592   -0.1191 H   0  0  0  0  0  0  0  0  0  0  0  0
   -1.5429    0.4261    1.1325 H   0  0  0  0  0  0  0  0  0  0  0  0
   -0.0839    1.3204    1.5860 H   0  0  0  0  0  0  0  0  0  0  0  0
    6.3669    2.3407    0.2706 H   0  0  0  0  0  0  0  0  0  0  0  0
    6.5387    0.8379   -0.6470 H   0  0  0  0  0  0  0  0  0  0  0  0
    5.9818    2.3206   -1.4576 H   0  0  0  0  0  0  0  0  0  0  0  0
    3.9642    1.1289   -4.5510 H   0  0  0  0  0  0  0  0  0  0  0  0
    5.1794   -2.1895   -2.6551 H   0  0  0  0  0  0  0  0  0  0  0  0
  1  2  1  0  0  0  0 
  1  3  1  0  0  0  0 
  2  4  1  0  0  0  0 
  3  5  1  0  0  0  0 
  3  6  1  0  0  0  0 
  3  7  1  0  0  0  0 
  4  8  1  0  0  0  0 
  4  9  1  0  0  0  0 
  5 10  1  0  0  0  0 
  6 11  2  0  0  0  0 
  6 12  1  0  0  0  0 
  7 13  2  0  0  0  0 
  7 14  1  0  0  0  0 
 12 15  1  0  0  0  0 
 14 15  1  0  0  0  0 
 15 16  2  0  0  0  0 
 17  1  1  0  0  0  0 
 18  1  1  0  0  0  0 
 19  2  1  0  0  0  0 
 20  2  1  0  0  0  0 
 21  4  1  0  0  0  0 
 22  5  1  0  0  0  0 
 23  5  1  0  0  0  0 
 24  8  1  0  0  0  0 
 25  8  1  0  0  0  0 
 26  8  1  0  0  0  0 
 27  9  1  0  0  0  0 
 28  9  1  0  0  0  0 
 29  9  1  0  0  0  0 
 30 10  1  0  0  0  0 
 31 10  1  0  0  0  0 
 32 10  1  0  0  0  0 
 33 12  1  0  0  0  0 
 34 14  1  0  0  0  0 
M  END
> <cdk:Title>
amobarbital

> <Conformer>
1

> <SuperDrugID>
SD000149

$$$$
