metolazone
  CDK     0628171801

 40 42  0  0  0  0  0  0  0  0999 V2000
    1.9039   -1.5649    1.0633 O   0  0  0  0  0  0  0  0  0  0  0  0
    1.2653   -2.5326    0.5774 C   0  0  0  0  0  0  0  0  0  0  0  0
    1.9137   -3.7985    0.4787 C   0  0  0  0  0  0  0  0  0  0  0  0
   -0.0480   -2.3648    0.1536 N   0  0  0  0  0  0  0  0  0  0  0  0
    1.1489   -4.9103    0.0602 C   0  0  0  0  0  0  0  0  0  0  0  0
    3.2842   -3.9932    0.7768 C   0  0  0  0  0  0  0  0  0  0  0  0
   -0.8115   -3.4852   -0.3855 C   0  0  2  0  0  0  0  0  0  0  0  0
   -0.6599   -1.1304    0.2753 C   0  0  0  0  0  0  0  0  0  0  0  0
    1.7394   -6.1869   -0.0350 C   0  0  0  0  0  0  0  0  0  0  0  0
   -0.1618   -4.7577   -0.2647 N   0  0  0  0  0  0  0  0  0  0  0  0
    3.8922   -5.2613    0.6520 C   0  0  0  0  0  0  0  0  0  0  0  0
   -1.1626   -3.2846   -1.8835 C   0  0  0  0  0  0  0  0  0  0  0  0
   -0.3352   -0.0200   -0.5597 C   0  0  0  0  0  0  0  0  0  0  0  0
   -1.6232   -0.9660    1.2990 C   0  0  0  0  0  0  0  0  0  0  0  0
    3.1076   -6.3685    0.2467 C   0  0  0  0  0  0  0  0  0  0  0  0
    5.6334   -5.4102    0.9657 S   0  0  1  0  0  0  0  0  0  0  0  0
    0.6343   -0.0855   -1.6853 C   0  0  0  0  0  0  0  0  0  0  0  0
   -0.9628    1.2264   -0.3147 C   0  0  0  0  0  0  0  0  0  0  0  0
   -2.2459    0.2746    1.5152 C   0  0  0  0  0  0  0  0  0  0  0  0
    3.7553   -7.9262    0.0533 Cl  0  0  0  0  0  0  0  0  0  0  0  0
    6.4394   -5.8046   -0.5485 N   0  0  2  0  0  0  0  0  0  0  0  0
    6.2627   -4.0517    1.5406 O   0  0  0  0  0  0  0  0  0  0  0  0
    5.9251   -6.5938    2.0074 O   0  0  0  0  0  0  0  0  0  0  0  0
   -1.9093    1.3747    0.7128 C   0  0  0  0  0  0  0  0  0  0  0  0
    3.8507   -3.1961    1.0730 H   0  0  0  0  0  0  0  0  0  0  0  0
   -1.7464   -3.5814    0.1753 H   0  0  0  0  0  0  0  0  0  0  0  0
    1.1693   -6.9885   -0.3216 H   0  0  0  0  0  0  0  0  0  0  0  0
   -0.6843   -5.5549   -0.4442 H   0  0  0  0  0  0  0  0  0  0  0  0
   -0.2483   -3.2327   -2.4817 H   0  0  0  0  0  0  0  0  0  0  0  0
   -1.7301   -2.3624   -2.0296 H   0  0  0  0  0  0  0  0  0  0  0  0
   -1.7724   -4.1161   -2.2470 H   0  0  0  0  0  0  0  0  0  0  0  0
   -1.8717   -1.7512    1.9044 H   0  0  0  0  0  0  0  0  0  0  0  0
    1.0576   -1.0794   -1.8287 H   0  0  0  0  0  0  0  0  0  0  0  0
    0.1386    0.1990   -2.6164 H   0  0  0  0  0  0  0  0  0  0  0  0
    1.4531    0.6121   -1.4994 H   0  0  0  0  0  0  0  0  0  0  0  0
   -0.7302    2.0446   -0.8848 H   0  0  0  0  0  0  0  0  0  0  0  0
   -2.9380    0.3785    2.2624 H   0  0  0  0  0  0  0  0  0  0  0  0
    7.4429   -5.8376   -0.3601 H   0  0  0  0  0  0  0  0  0  0  0  0
    6.2836   -5.0127   -1.1750 H   0  0  0  0  0  0  0  0  0  0  0  0
   -2.3531    2.2802    0.8777 H   0  0  0  0  0  0  0  0  0  0  0  0
  1  2  2  0  0  0  0 
  2  3  1  0  0  0  0 
  2  4  1  0  0  0  0 
  3  5  2  0  0  0  0 
  3  6  1  0  0  0  0 
  7  4  1  0  0  0  0 
  4  8  1  0  0  0  0 
  5  9  1  0  0  0  0 
  5 10  1  0  0  0  0 
  6 11  2  0  0  0  0 
  7 10  1  0  0  0  0 
  7 12  1  0  0  0  0 
  8 13  2  0  0  0  0 
  8 14  1  0  0  0  0 
  9 15  2  0  0  0  0 
 11 15  1  0  0  0  0 
 11 16  1  0  0  0  0 
 13 17  1  0  0  0  0 
 13 18  1  0  0  0  0 
 14 19  2  0  0  0  0 
 15 20  1  0  0  0  0 
 16 21  1  0  0  0  0 
 16 22  2  0  0  0  0 
 16 23  2  0  0  0  0 
 18 24  2  0  0  0  0 
 19 24  1  0  0  0  0 
  6 25  1  0  0  0  0 
  7 26  1  0  0  0  0 
  9 27  1  0  0  0  0 
 10 28  1  0  0  0  0 
 12 29  1  0  0  0  0 
 12 30  1  0  0  0  0 
 12 31  1  0  0  0  0 
 14 32  1  0  0  0  0 
 17 33  1  0  0  0  0 
 17 34  1  0  0  0  0 
 17 35  1  0  0  0  0 
 18 36  1  0  0  0  0 
 19 37  1  0  0  0  0 
 21 38  1  0  0  0  0 
 21 39  1  0  0  0  0 
 24 40  1  0  0  0  0 
M  END
> <cdk:Title>
metolazone

> <Conformer>
1

> <SuperDrugID>
SD001583

$$$$
