pimefylline
  CDK     0628171801

 41 43  0  0  0  0  0  0  0  0999 V2000
    0.0429   -0.6653   -0.0782 C   0  0  1  0  0  0  0  0  0  0  0  0
   -0.3286   -0.0182   -1.4329 C   0  0  1  0  0  0  0  0  0  0  0  0
    1.3828   -0.3120    0.3051 N   0  0  0  0  0  0  0  0  0  0  0  0
    0.5622   -0.5330   -2.5003 N   0  0  2  0  0  0  0  0  0  0  0  0
    1.8260    0.7961    0.9375 C   0  0  0  0  0  0  0  0  0  0  0  0
    2.4774   -1.0586    0.0518 C   0  0  0  0  0  0  0  0  0  0  0  0
    0.2994    0.0069   -3.8495 C   0  0  2  0  0  0  0  0  0  0  0  0
    3.2072    0.6989    1.0584 C   0  0  0  0  0  0  0  0  0  0  0  0
    1.1865    1.9362    1.4556 C   0  0  0  0  0  0  0  0  0  0  0  0
    3.5928   -0.4610    0.5007 N   0  0  0  0  0  0  0  0  0  0  0  0
    1.2326   -0.6228   -4.8187 C   0  0  0  0  0  0  0  0  0  0  0  0
    3.9622    1.6610    1.6625 N   0  0  0  0  0  0  0  0  0  0  0  0
   -0.0598    2.0237    1.3436 O   0  0  0  0  0  0  0  0  0  0  0  0
    1.9375    2.9122    2.0740 N   0  0  0  0  0  0  0  0  0  0  0  0
    0.8943   -1.8240   -5.4875 C   0  0  0  0  0  0  0  0  0  0  0  0
    2.4930   -0.0475   -5.1057 C   0  0  0  0  0  0  0  0  0  0  0  0
    5.3957    1.4866    1.7541 C   0  0  0  0  0  0  0  0  0  0  0  0
    3.3090    2.7559    2.1895 C   0  0  0  0  0  0  0  0  0  0  0  0
    1.2751    4.0810    2.6239 C   0  0  0  0  0  0  0  0  0  0  0  0
    1.7721   -2.3912   -6.4307 C   0  0  0  0  0  0  0  0  0  0  0  0
    3.3205   -0.6193   -6.0198 N   0  0  0  0  0  0  0  0  0  0  0  0
    3.9843    3.6234    2.7983 O   0  0  0  0  0  0  0  0  0  0  0  0
    2.9983   -1.7556   -6.6895 C   0  0  0  0  0  0  0  0  0  0  0  0
   -0.6662   -0.3570    0.6944 H   0  0  0  0  0  0  0  0  0  0  0  0
   -0.0536   -1.7526   -0.1680 H   0  0  0  0  0  0  0  0  0  0  0  0
   -1.3687   -0.2573   -1.6681 H   0  0  0  0  0  0  0  0  0  0  0  0
   -0.2297    1.0676   -1.3526 H   0  0  0  0  0  0  0  0  0  0  0  0
    0.4203   -1.5444   -2.5498 H   0  0  0  0  0  0  0  0  0  0  0  0
    2.4722   -1.9629   -0.4251 H   0  0  0  0  0  0  0  0  0  0  0  0
    0.4322    1.0931   -3.8469 H   0  0  0  0  0  0  0  0  0  0  0  0
   -0.7347   -0.1990   -4.1412 H   0  0  0  0  0  0  0  0  0  0  0  0
    0.0050   -2.2911   -5.2935 H   0  0  0  0  0  0  0  0  0  0  0  0
    2.7985    0.8066   -4.6343 H   0  0  0  0  0  0  0  0  0  0  0  0
    5.6372    0.9681    2.6842 H   0  0  0  0  0  0  0  0  0  0  0  0
    5.7940    0.9032    0.9195 H   0  0  0  0  0  0  0  0  0  0  0  0
    5.9252    2.4413    1.7396 H   0  0  0  0  0  0  0  0  0  0  0  0
    0.3785    4.3516    2.0619 H   0  0  0  0  0  0  0  0  0  0  0  0
    1.9121    4.9673    2.6074 H   0  0  0  0  0  0  0  0  0  0  0  0
    0.9859    3.8793    3.6572 H   0  0  0  0  0  0  0  0  0  0  0  0
    1.5209   -3.2519   -6.9220 H   0  0  0  0  0  0  0  0  0  0  0  0
    3.6486   -2.1430   -7.3771 H   0  0  0  0  0  0  0  0  0  0  0  0
  1  2  1  0  0  0  0 
  1  3  1  0  0  0  0 
  2  4  1  0  0  0  0 
  3  5  1  0  0  0  0 
  3  6  1  0  0  0  0 
  4  7  1  0  0  0  0 
  5  8  2  0  0  0  0 
  5  9  1  0  0  0  0 
  6 10  2  0  0  0  0 
  7 11  1  0  0  0  0 
  8 10  1  0  0  0  0 
  8 12  1  0  0  0  0 
  9 13  2  0  0  0  0 
  9 14  1  0  0  0  0 
 11 15  2  0  0  0  0 
 11 16  1  0  0  0  0 
 12 17  1  0  0  0  0 
 12 18  1  0  0  0  0 
 14 18  1  0  0  0  0 
 14 19  1  0  0  0  0 
 15 20  1  0  0  0  0 
 16 21  2  0  0  0  0 
 18 22  2  0  0  0  0 
 20 23  2  0  0  0  0 
 21 23  1  0  0  0  0 
  1 24  1  0  0  0  0 
  1 25  1  0  0  0  0 
  2 26  1  0  0  0  0 
  2 27  1  0  0  0  0 
  4 28  1  0  0  0  0 
  6 29  1  0  0  0  0 
  7 30  1  0  0  0  0 
  7 31  1  0  0  0  0 
 15 32  1  0  0  0  0 
 16 33  1  0  0  0  0 
 17 34  1  0  0  0  0 
 17 35  1  0  0  0  0 
 17 36  1  0  0  0  0 
 19 37  1  0  0  0  0 
 19 38  1  0  0  0  0 
 19 39  1  0  0  0  0 
 20 40  1  0  0  0  0 
 23 41  1  0  0  0  0 
M  END
> <cdk:Title>
pimefylline

> <Conformer>
1

> <SuperDrugID>
SD002993

$$$$
