prednisolone farnesylate
  CDK     0628171801

 92 95  0  0  0  0  0  0  0  0999 V2000
    5.6107   -3.5391    3.1981 C   0  0  0  0  0  0  0  0  0  0  0  0
    5.1984   -2.4095    2.1784 C   0  0  2  0  0  0  0  0  0  0  0  0
    6.2559   -1.2659    2.0326 C   0  0  2  0  0  0  0  0  0  0  0  0
    3.9768   -1.5888    2.7610 C   0  0  2  0  0  0  0  0  0  0  0  0
    5.0301   -3.0138    0.7369 C   0  0  2  0  0  0  0  0  0  0  0  0
    7.6638   -1.7501    1.5527 C   0  0  1  0  0  0  0  0  0  0  0  0
    6.1484   -0.4631    3.3447 C   0  0  1  0  0  0  0  0  0  0  0  0
    2.8269   -2.3627    3.3516 C   0  0  0  0  0  0  0  0  0  0  0  0
    3.4009   -0.7673    1.7359 O   0  0  0  0  0  0  0  0  0  0  0  0
    4.6707   -0.6130    3.7762 C   0  0  2  0  0  0  0  0  0  0  0  0
    6.3671   -3.5056    0.0836 C   0  0  1  0  0  0  0  0  0  0  0  0
    7.5511   -2.4599    0.1449 C   0  0  2  0  0  0  0  0  0  0  0  0
    8.6812   -0.5696    1.4706 C   0  0  1  0  0  0  0  0  0  0  0  0
    1.9802   -3.3069    2.5830 C   0  0  2  0  0  0  0  0  0  0  0  0
    2.5047   -2.2001    4.5538 O   0  0  0  0  0  0  0  0  0  0  0  0
    6.7139   -4.7820    0.6137 O   0  0  0  0  0  0  0  0  0  0  0  0
    8.9761   -2.9253   -0.4071 C   0  0  2  0  0  0  0  0  0  0  0  0
   10.0529   -1.0141    0.9128 C   0  0  2  0  0  0  0  0  0  0  0  0
    1.4210   -2.6669    1.4276 O   0  0  0  0  0  0  0  0  0  0  0  0
    9.6592   -4.0772    0.4181 C   0  0  0  0  0  0  0  0  0  0  0  0
    9.9005   -1.7396   -0.3545 C   0  0  0  0  0  0  0  0  0  0  0  0
    8.8452   -3.4704   -1.7805 C   0  0  0  0  0  0  0  0  0  0  0  0
    0.5041   -3.2338    0.5925 C   0  0  0  0  0  0  0  0  0  0  0  0
   10.5856   -1.3311   -1.4473 C   0  0  0  0  0  0  0  0  0  0  0  0
    9.5574   -3.0156   -2.8237 C   0  0  0  0  0  0  0  0  0  0  0  0
   -0.7101   -3.7371    1.0260 C   0  0  0  0  0  0  0  0  0  0  0  0
    0.7704   -3.2432   -0.6300 O   0  0  0  0  0  0  0  0  0  0  0  0
   10.4505   -1.9700   -2.6686 C   0  0  0  0  0  0  0  0  0  0  0  0
   -1.6007   -3.1078    1.8302 C   0  0  0  0  0  0  0  0  0  0  0  0
   11.1392   -1.5922   -3.6458 O   0  0  0  0  0  0  0  0  0  0  0  0
   -2.8253   -3.8967    2.2089 C   0  0  2  0  0  0  0  0  0  0  0  0
   -1.3394   -1.6849    2.2474 C   0  0  0  0  0  0  0  0  0  0  0  0
   -2.5130   -5.1502    3.2442 C   0  0  2  0  0  0  0  0  0  0  0  0
   -3.6883   -5.9294    3.7324 C   0  0  0  0  0  0  0  0  0  0  0  0
   -3.6943   -6.9503    4.6217 C   0  0  0  0  0  0  0  0  0  0  0  0
   -4.9827   -7.5626    4.9847 C   0  0  1  0  0  0  0  0  0  0  0  0
   -2.4704   -7.4463    5.2503 C   0  0  0  0  0  0  0  0  0  0  0  0
   -5.5212   -8.5420    3.8986 C   0  0  2  0  0  0  0  0  0  0  0  0
   -6.8615   -9.0503    4.1817 C   0  0  0  0  0  0  0  0  0  0  0  0
   -7.5642   -9.8974    3.3943 C   0  0  0  0  0  0  0  0  0  0  0  0
   -8.9084  -10.3218    3.7858 C   0  0  0  0  0  0  0  0  0  0  0  0
   -7.0251  -10.4181    2.1366 C   0  0  0  0  0  0  0  0  0  0  0  0
    6.5503   -4.0162    2.9378 H   0  0  0  0  0  0  0  0  0  0  0  0
    5.7285   -3.1567    4.2117 H   0  0  0  0  0  0  0  0  0  0  0  0
    4.8482   -4.3163    3.2245 H   0  0  0  0  0  0  0  0  0  0  0  0
    5.9175   -0.5722    1.2487 H   0  0  0  0  0  0  0  0  0  0  0  0
    4.5953   -2.2640    0.0689 H   0  0  0  0  0  0  0  0  0  0  0  0
    4.3242   -3.8448    0.7630 H   0  0  0  0  0  0  0  0  0  0  0  0
    8.0545   -2.4490    2.2915 H   0  0  0  0  0  0  0  0  0  0  0  0
    6.8221   -0.8736    4.1027 H   0  0  0  0  0  0  0  0  0  0  0  0
    6.4041    0.5864    3.1786 H   0  0  0  0  0  0  0  0  0  0  0  0
    2.7850   -0.1616    2.2001 H   0  0  0  0  0  0  0  0  0  0  0  0
    4.6598   -1.0110    4.7947 H   0  0  0  0  0  0  0  0  0  0  0  0
    4.1698    0.3584    3.8015 H   0  0  0  0  0  0  0  0  0  0  0  0
    6.1353   -3.6913   -0.9671 H   0  0  0  0  0  0  0  0  0  0  0  0
    7.2228   -1.6730   -0.5484 H   0  0  0  0  0  0  0  0  0  0  0  0
    8.2793    0.2228    0.8296 H   0  0  0  0  0  0  0  0  0  0  0  0
    8.8381   -0.1447    2.4652 H   0  0  0  0  0  0  0  0  0  0  0  0
    1.1713   -3.6818    3.2180 H   0  0  0  0  0  0  0  0  0  0  0  0
    2.5676   -4.1729    2.2782 H   0  0  0  0  0  0  0  0  0  0  0  0
    5.9339   -5.3509    0.4443 H   0  0  0  0  0  0  0  0  0  0  0  0
   10.5478   -1.6583    1.6396 H   0  0  0  0  0  0  0  0  0  0  0  0
   10.6784   -0.1216    0.8164 H   0  0  0  0  0  0  0  0  0  0  0  0
    9.1467   -5.0314    0.3029 H   0  0  0  0  0  0  0  0  0  0  0  0
    9.6968   -3.8576    1.4838 H   0  0  0  0  0  0  0  0  0  0  0  0
   10.6892   -4.2323    0.0825 H   0  0  0  0  0  0  0  0  0  0  0  0
    8.2271   -4.2318   -1.9436 H   0  0  0  0  0  0  0  0  0  0  0  0
   11.2047   -0.5516   -1.3937 H   0  0  0  0  0  0  0  0  0  0  0  0
    9.4446   -3.4375   -3.7168 H   0  0  0  0  0  0  0  0  0  0  0  0
   -0.9287   -4.6452    0.6840 H   0  0  0  0  0  0  0  0  0  0  0  0
   -3.3200   -4.2820    1.3118 H   0  0  0  0  0  0  0  0  0  0  0  0
   -3.5398   -3.2387    2.7089 H   0  0  0  0  0  0  0  0  0  0  0  0
   -2.1780   -1.2868    2.8193 H   0  0  0  0  0  0  0  0  0  0  0  0
   -0.4516   -1.6142    2.8744 H   0  0  0  0  0  0  0  0  0  0  0  0
   -1.2118   -1.0521    1.3659 H   0  0  0  0  0  0  0  0  0  0  0  0
   -1.9849   -4.8231    4.1773 H   0  0  0  0  0  0  0  0  0  0  0  0
   -1.8310   -5.9209    2.8038 H   0  0  0  0  0  0  0  0  0  0  0  0
   -4.5606   -5.6466    3.3446 H   0  0  0  0  0  0  0  0  0  0  0  0
   -4.9004   -8.1066    5.9314 H   0  0  0  0  0  0  0  0  0  0  0  0
   -5.7214   -6.7725    5.1600 H   0  0  0  0  0  0  0  0  0  0  0  0
   -2.1448   -6.7478    6.0233 H   0  0  0  0  0  0  0  0  0  0  0  0
   -1.6666   -7.5707    4.5233 H   0  0  0  0  0  0  0  0  0  0  0  0
   -2.6213   -8.4202    5.7214 H   0  0  0  0  0  0  0  0  0  0  0  0
   -4.8296   -9.3858    3.8140 H   0  0  0  0  0  0  0  0  0  0  0  0
   -5.5491   -8.0218    2.9371 H   0  0  0  0  0  0  0  0  0  0  0  0
   -7.2893   -8.7332    5.0230 H   0  0  0  0  0  0  0  0  0  0  0  0
   -8.9768  -11.4112    3.7644 H   0  0  0  0  0  0  0  0  0  0  0  0
   -9.1921   -9.9964    4.7901 H   0  0  0  0  0  0  0  0  0  0  0  0
   -9.6331   -9.9093    3.0818 H   0  0  0  0  0  0  0  0  0  0  0  0
   -7.7327  -11.0720    1.6211 H   0  0  0  0  0  0  0  0  0  0  0  0
   -6.7794   -9.5993    1.4573 H   0  0  0  0  0  0  0  0  0  0  0  0
   -6.1239  -11.0018    2.3298 H   0  0  0  0  0  0  0  0  0  0  0  0
  2  1  1  0  0  0  0 
  3  2  1  0  0  0  0 
  2  4  1  0  0  0  0 
  2  5  1  0  0  0  0 
  6  3  1  0  0  0  0 
  3  7  1  0  0  0  0 
  4  8  1  0  0  0  0 
  4  9  1  0  0  0  0 
  4 10  1  0  0  0  0 
 11  5  1  0  0  0  0 
 12  6  1  0  0  0  0 
  6 13  1  0  0  0  0 
  7 10  1  0  0  0  0 
  8 14  1  0  0  0  0 
  8 15  2  0  0  0  0 
 12 11  1  0  0  0  0 
 11 16  1  0  0  0  0 
 12 17  1  0  0  0  0 
 13 18  1  0  0  0  0 
 14 19  1  0  0  0  0 
 17 20  1  0  0  0  0 
 17 21  1  0  0  0  0 
 17 22  1  0  0  0  0 
 18 21  1  0  0  0  0 
 19 23  1  0  0  0  0 
 21 24  2  0  0  0  0 
 22 25  2  0  0  0  0 
 23 26  1  0  0  0  0 
 23 27  2  0  0  0  0 
 24 28  1  0  0  0  0 
 25 28  1  0  0  0  0 
 26 29  2  0  0  0  0 
 28 30  2  0  0  0  0 
 29 31  1  0  0  0  0 
 29 32  1  0  0  0  0 
 31 33  1  0  0  0  0 
 33 34  1  0  0  0  0 
 34 35  2  0  0  0  0 
 35 36  1  0  0  0  0 
 35 37  1  0  0  0  0 
 36 38  1  0  0  0  0 
 38 39  1  0  0  0  0 
 39 40  2  0  0  0  0 
 40 41  1  0  0  0  0 
 40 42  1  0  0  0  0 
 43  1  1  0  0  0  0 
 44  1  1  0  0  0  0 
 45  1  1  0  0  0  0 
  3 46  1  0  0  0  0 
 47  5  1  0  0  0  0 
 48  5  1  0  0  0  0 
  6 49  1  0  0  0  0 
 50  7  1  0  0  0  0 
 51  7  1  0  0  0  0 
 52  9  1  0  0  0  0 
 53 10  1  0  0  0  0 
 54 10  1  0  0  0  0 
 11 55  1  0  0  0  0 
 12 56  1  0  0  0  0 
 57 13  1  0  0  0  0 
 58 13  1  0  0  0  0 
 59 14  1  0  0  0  0 
 60 14  1  0  0  0  0 
 61 16  1  0  0  0  0 
 62 18  1  0  0  0  0 
 63 18  1  0  0  0  0 
 64 20  1  0  0  0  0 
 65 20  1  0  0  0  0 
 66 20  1  0  0  0  0 
 67 22  1  0  0  0  0 
 68 24  1  0  0  0  0 
 69 25  1  0  0  0  0 
 70 26  1  0  0  0  0 
 71 31  1  0  0  0  0 
 72 31  1  0  0  0  0 
 73 32  1  0  0  0  0 
 74 32  1  0  0  0  0 
 75 32  1  0  0  0  0 
 76 33  1  0  0  0  0 
 77 33  1  0  0  0  0 
 78 34  1  0  0  0  0 
 79 36  1  0  0  0  0 
 80 36  1  0  0  0  0 
 81 37  1  0  0  0  0 
 82 37  1  0  0  0  0 
 83 37  1  0  0  0  0 
 84 38  1  0  0  0  0 
 85 38  1  0  0  0  0 
 86 39  1  0  0  0  0 
 87 41  1  0  0  0  0 
 88 41  1  0  0  0  0 
 89 41  1  0  0  0  0 
 90 42  1  0  0  0  0 
 91 42  1  0  0  0  0 
 92 42  1  0  0  0  0 
M  END
> <cdk:Title>
prednisolone farnesylate

> <Conformer>
1

> <SuperDrugID>
SD002016

$$$$
