alacepril
  CDK     0628171801

 54 55  0  0  0  0  0  0  0  0999 V2000
   -1.6609   -4.1463    0.7757 C   0  0  0  0  0  0  0  0  0  0  0  0
   -0.9398   -3.8248   -0.5089 C   0  0  1  0  0  0  0  0  0  0  0  0
   -1.3150   -3.4969    1.7954 O   0  0  0  0  0  0  0  0  0  0  0  0
   -2.6616   -5.1012    0.9526 N   0  0  0  0  0  0  0  0  0  0  0  0
   -0.0118   -2.5672   -0.4222 C   0  0  2  0  0  0  0  0  0  0  0  0
   -0.0974   -5.0333   -1.0216 C   0  0  0  0  0  0  0  0  0  0  0  0
   -3.1712   -6.0229   -0.0357 C   0  0  2  0  0  0  0  0  0  0  0  0
   -3.2802   -5.3157    2.2320 C   0  0  2  0  0  0  0  0  0  0  0  0
   -0.8972   -1.0179   -0.0243 S   0  0  0  0  0  0  0  0  0  0  0  0
   -3.8106   -5.4390   -1.2392 C   0  0  0  0  0  0  0  0  0  0  0  0
   -4.1913   -6.9249    0.7057 C   0  0  2  0  0  0  0  0  0  0  0  0
   -3.8230   -6.7486    2.1806 C   0  0  1  0  0  0  0  0  0  0  0  0
    0.3603    0.1931    0.1751 C   0  0  0  0  0  0  0  0  0  0  0  0
   -3.9635   -6.2377   -2.3283 N   0  0  0  0  0  0  0  0  0  0  0  0
   -4.2547   -4.2673   -1.2161 O   0  0  0  0  0  0  0  0  0  0  0  0
   -0.0042    1.5447    0.6229 C   0  0  0  0  0  0  0  0  0  0  0  0
    1.5570   -0.0900   -0.0600 O   0  0  0  0  0  0  0  0  0  0  0  0
   -4.6622   -5.8990   -3.5316 C   0  0  1  0  0  0  0  0  0  0  0  0
   -4.3330   -6.9242   -4.6569 C   0  0  2  0  0  0  0  0  0  0  0  0
   -6.1204   -5.8851   -3.2587 C   0  0  0  0  0  0  0  0  0  0  0  0
   -2.8902   -6.9541   -5.0298 C   0  0  0  0  0  0  0  0  0  0  0  0
   -6.7327   -6.9772   -2.7391 O   0  0  0  0  0  0  0  0  0  0  0  0
   -6.8109   -4.8666   -3.4936 O   0  0  0  0  0  0  0  0  0  0  0  0
   -2.0094   -7.8939   -4.4402 C   0  0  0  0  0  0  0  0  0  0  0  0
   -2.3720   -6.0518   -5.9893 C   0  0  0  0  0  0  0  0  0  0  0  0
   -0.6497   -7.9310   -4.8020 C   0  0  0  0  0  0  0  0  0  0  0  0
   -1.0131   -6.0917   -6.3546 C   0  0  0  0  0  0  0  0  0  0  0  0
   -0.1509   -7.0325   -5.7615 C   0  0  0  0  0  0  0  0  0  0  0  0
   -1.6888   -3.5885   -1.2688 H   0  0  0  0  0  0  0  0  0  0  0  0
    0.4809   -2.3988   -1.3821 H   0  0  0  0  0  0  0  0  0  0  0  0
    0.7618   -2.7321    0.3314 H   0  0  0  0  0  0  0  0  0  0  0  0
    0.6539   -4.7203   -1.7474 H   0  0  0  0  0  0  0  0  0  0  0  0
    0.4151   -5.5257   -0.1934 H   0  0  0  0  0  0  0  0  0  0  0  0
   -0.7257   -5.7580   -1.5364 H   0  0  0  0  0  0  0  0  0  0  0  0
   -2.3467   -6.6723   -0.3361 H   0  0  0  0  0  0  0  0  0  0  0  0
   -4.0901   -4.5960    2.3764 H   0  0  0  0  0  0  0  0  0  0  0  0
   -2.5774   -5.2358    3.0656 H   0  0  0  0  0  0  0  0  0  0  0  0
   -4.1084   -7.9733    0.4000 H   0  0  0  0  0  0  0  0  0  0  0  0
   -5.2270   -6.5987    0.5529 H   0  0  0  0  0  0  0  0  0  0  0  0
   -3.0353   -7.4583    2.4559 H   0  0  0  0  0  0  0  0  0  0  0  0
   -4.6851   -6.8865    2.8401 H   0  0  0  0  0  0  0  0  0  0  0  0
   -3.5936   -7.1313   -2.2701 H   0  0  0  0  0  0  0  0  0  0  0  0
    0.8826    2.1712    0.7435 H   0  0  0  0  0  0  0  0  0  0  0  0
   -0.6614    2.0075   -0.1141 H   0  0  0  0  0  0  0  0  0  0  0  0
   -0.5227    1.4880    1.5811 H   0  0  0  0  0  0  0  0  0  0  0  0
   -4.3449   -4.9051   -3.8670 H   0  0  0  0  0  0  0  0  0  0  0  0
   -4.9204   -6.6811   -5.5480 H   0  0  0  0  0  0  0  0  0  0  0  0
   -4.6474   -7.9252   -4.3420 H   0  0  0  0  0  0  0  0  0  0  0  0
   -7.6907   -6.9649   -2.5360 H   0  0  0  0  0  0  0  0  0  0  0  0
   -2.3529   -8.5602   -3.7426 H   0  0  0  0  0  0  0  0  0  0  0  0
   -2.9842   -5.3609   -6.4348 H   0  0  0  0  0  0  0  0  0  0  0  0
   -0.0238   -8.6144   -4.3683 H   0  0  0  0  0  0  0  0  0  0  0  0
   -0.6512   -5.4388   -7.0533 H   0  0  0  0  0  0  0  0  0  0  0  0
    0.8361   -7.0628   -6.0278 H   0  0  0  0  0  0  0  0  0  0  0  0
  2  1  1  0  0  0  0 
  1  3  2  0  0  0  0 
  1  4  1  0  0  0  0 
  2  5  1  0  0  0  0 
  2  6  1  0  0  0  0 
  7  4  1  0  0  0  0 
  4  8  1  0  0  0  0 
  5  9  1  0  0  0  0 
  7 10  1  0  0  0  0 
  7 11  1  0  0  0  0 
  8 12  1  0  0  0  0 
  9 13  1  0  0  0  0 
 10 14  1  0  0  0  0 
 10 15  2  0  0  0  0 
 11 12  1  0  0  0  0 
 13 16  1  0  0  0  0 
 13 17  2  0  0  0  0 
 18 14  1  0  0  0  0 
 18 19  1  0  0  0  0 
 18 20  1  0  0  0  0 
 19 21  1  0  0  0  0 
 20 22  1  0  0  0  0 
 20 23  2  0  0  0  0 
 21 24  2  0  0  0  0 
 21 25  1  0  0  0  0 
 24 26  1  0  0  0  0 
 25 27  2  0  0  0  0 
 26 28  2  0  0  0  0 
 27 28  1  0  0  0  0 
  2 29  1  0  0  0  0 
  5 30  1  0  0  0  0 
  5 31  1  0  0  0  0 
  6 32  1  0  0  0  0 
  6 33  1  0  0  0  0 
  6 34  1  0  0  0  0 
  7 35  1  0  0  0  0 
  8 36  1  0  0  0  0 
  8 37  1  0  0  0  0 
 11 38  1  0  0  0  0 
 11 39  1  0  0  0  0 
 12 40  1  0  0  0  0 
 12 41  1  0  0  0  0 
 14 42  1  0  0  0  0 
 16 43  1  0  0  0  0 
 16 44  1  0  0  0  0 
 16 45  1  0  0  0  0 
 18 46  1  0  0  0  0 
 19 47  1  0  0  0  0 
 19 48  1  0  0  0  0 
 22 49  1  0  0  0  0 
 24 50  1  0  0  0  0 
 25 51  1  0  0  0  0 
 26 52  1  0  0  0  0 
 27 53  1  0  0  0  0 
 28 54  1  0  0  0  0 
M  END
> <cdk:Title>
alacepril

> <Conformer>
1

> <SuperDrugID>
SD000075

$$$$
