aceglutamide
  CDK     0628171802

 25 24  0  0  0  0  0  0  0  0999 V2000
   -1.6361   -1.1434   -4.1934 C   0  0  0  0  0  0  0  0  0  0  0  0
   -1.1881   -1.6395   -2.8839 C   0  0  0  0  0  0  0  0  0  0  0  0
   -0.7887   -2.8235   -2.7938 O   0  0  0  0  0  0  0  0  0  0  0  0
   -1.2237   -0.7710   -1.8337 N   0  0  0  0  0  0  0  0  0  0  0  0
   -0.8259   -0.9488   -0.4639 C   0  0  1  0  0  0  0  0  0  0  0  0
   -0.4005   -2.3782    0.0030 C   0  0  2  0  0  0  0  0  0  0  0  0
   -0.2051   -2.5087    1.5395 C   0  0  2  0  0  0  0  0  0  0  0  0
    0.2016   -3.8715    1.9489 C   0  0  0  0  0  0  0  0  0  0  0  0
   -0.5737   -4.9405    1.6902 N   0  0  0  0  0  0  0  0  0  0  0  0
    1.2768   -4.0624    2.5600 O   0  0  0  0  0  0  0  0  0  0  0  0
    0.2272    0.0582   -0.2022 C   0  0  0  0  0  0  0  0  0  0  0  0
    0.0194    1.0582    0.6858 O   0  0  0  0  0  0  0  0  0  0  0  0
    1.3267    0.0196   -0.8020 O   0  0  0  0  0  0  0  0  0  0  0  0
   -0.9559   -0.3575   -4.5242 H   0  0  0  0  0  0  0  0  0  0  0  0
   -1.6418   -1.9434   -4.9361 H   0  0  0  0  0  0  0  0  0  0  0  0
   -2.6455   -0.7344   -4.1109 H   0  0  0  0  0  0  0  0  0  0  0  0
   -1.5658    0.1129   -2.0446 H   0  0  0  0  0  0  0  0  0  0  0  0
   -1.7104   -0.6760    0.1184 H   0  0  0  0  0  0  0  0  0  0  0  0
    0.5240   -2.6732   -0.5049 H   0  0  0  0  0  0  0  0  0  0  0  0
   -1.1882   -3.0785   -0.2907 H   0  0  0  0  0  0  0  0  0  0  0  0
   -1.1435   -2.2621    2.0455 H   0  0  0  0  0  0  0  0  0  0  0  0
    0.5561   -1.7939    1.8661 H   0  0  0  0  0  0  0  0  0  0  0  0
   -0.2901   -5.8279    1.9614 H   0  0  0  0  0  0  0  0  0  0  0  0
   -1.4167   -4.8275    1.2267 H   0  0  0  0  0  0  0  0  0  0  0  0
    0.7186    1.7292    0.8344 H   0  0  0  0  0  0  0  0  0  0  0  0
  1  2  1  0  0  0  0 
  2  3  2  0  0  0  0 
  2  4  1  0  0  0  0 
  5  4  1  0  0  0  0 
  5  6  1  0  0  0  0 
  6  7  1  0  0  0  0 
  7  8  1  0  0  0  0 
  8  9  1  0  0  0  0 
  8 10  2  0  0  0  0 
  5 11  1  0  0  0  0 
 11 12  1  0  0  0  0 
 11 13  2  0  0  0  0 
  1 14  1  0  0  0  0 
  1 15  1  0  0  0  0 
  1 16  1  0  0  0  0 
  4 17  1  0  0  0  0 
  5 18  1  0  0  0  0 
  6 19  1  0  0  0  0 
  6 20  1  0  0  0  0 
  7 21  1  0  0  0  0 
  7 22  1  0  0  0  0 
  9 23  1  0  0  0  0 
  9 24  1  0  0  0  0 
 12 25  1  0  0  0  0 
M  END
> <cdk:Title>
aceglutamide

> <Conformer>
1

> <SuperDrugID>
SD000023

$$$$
