elcometrine
  CDK     0628171801

 57 60  0  0  0  0  0  0  0  0999 V2000
   14.6697   -2.2478    8.7137 O   0  0  0  0  0  0  0  0  0  0  0  0
   13.9287   -1.9183    7.6146 C   0  0  0  0  0  0  0  0  0  0  0  0
   14.4316   -1.9975   10.1193 C   0  0  1  0  0  0  0  0  0  0  0  0
   14.4285   -2.2767    6.2824 C   0  0  0  0  0  0  0  0  0  0  0  0
   12.8337   -1.3194    7.7143 O   0  0  0  0  0  0  0  0  0  0  0  0
   13.1325   -2.6824   10.4553 C   0  0  0  0  0  0  0  0  0  0  0  0
   15.6454   -2.5859   10.9484 C   0  0  2  0  0  0  0  0  0  0  0  0
   14.6239   -0.5444   10.3379 C   0  0  0  0  0  0  0  0  0  0  0  0
   12.0097   -2.1066   11.2231 C   0  0  0  0  0  0  0  0  0  0  0  0
   12.9943   -3.8723   10.0781 O   0  0  0  0  0  0  0  0  0  0  0  0
   15.2811   -2.6555   12.4879 C   0  0  0  0  0  0  0  0  0  0  0  0
   16.7426   -1.5294   10.6005 C   0  0  1  0  0  0  0  0  0  0  0  0
   16.2020   -3.9799   10.4877 C   0  0  2  0  0  0  0  0  0  0  0  0
   13.7114    0.4215   10.1479 C   0  0  0  0  0  0  0  0  0  0  0  0
   15.9835   -0.1950   10.7382 C   0  0  2  0  0  0  0  0  0  0  0  0
   18.1024   -1.7709   11.3323 C   0  0  1  0  0  0  0  0  0  0  0  0
   17.5984   -4.3132   11.0959 C   0  0  2  0  0  0  0  0  0  0  0  0
   18.6702   -3.1767   10.9140 C   0  0  2  0  0  0  0  0  0  0  0  0
   19.1663   -0.6906   11.0018 C   0  0  1  0  0  0  0  0  0  0  0  0
   20.0424   -3.4812   11.6304 C   0  0  2  0  0  0  0  0  0  0  0  0
   20.4771   -0.9478   11.7831 C   0  0  2  0  0  0  0  0  0  0  0  0
   20.9773   -2.3267   11.7226 C   0  0  0  0  0  0  0  0  0  0  0  0
   20.7591   -4.7126   10.9777 C   0  0  1  0  0  0  0  0  0  0  0  0
   22.3062   -2.5261   11.8915 C   0  0  0  0  0  0  0  0  0  0  0  0
   22.1268   -5.0123   11.6421 C   0  0  1  0  0  0  0  0  0  0  0  0
   22.8949   -3.7789   11.9114 C   0  0  0  0  0  0  0  0  0  0  0  0
   24.1118   -3.8873   12.1979 O   0  0  0  0  0  0  0  0  0  0  0  0
   15.2988   -2.9321    6.3519 H   0  0  0  0  0  0  0  0  0  0  0  0
   13.6457   -2.7929    5.7254 H   0  0  0  0  0  0  0  0  0  0  0  0
   14.7126   -1.3704    5.7473 H   0  0  0  0  0  0  0  0  0  0  0  0
   11.3938   -1.4906   10.5682 H   0  0  0  0  0  0  0  0  0  0  0  0
   12.3774   -1.5014   12.0511 H   0  0  0  0  0  0  0  0  0  0  0  0
   11.3752   -2.8970   11.6330 H   0  0  0  0  0  0  0  0  0  0  0  0
   14.8498   -1.7190   12.8455 H   0  0  0  0  0  0  0  0  0  0  0  0
   14.5492   -3.4435   12.6720 H   0  0  0  0  0  0  0  0  0  0  0  0
   16.1400   -2.8734   13.1185 H   0  0  0  0  0  0  0  0  0  0  0  0
   16.9916   -1.6052    9.5310 H   0  0  0  0  0  0  0  0  0  0  0  0
   16.3044   -4.0036    9.3994 H   0  0  0  0  0  0  0  0  0  0  0  0
   15.5004   -4.7729   10.7579 H   0  0  0  0  0  0  0  0  0  0  0  0
   13.9373    1.3762   10.3049 H   0  0  0  0  0  0  0  0  0  0  0  0
   12.7974    0.2168    9.8365 H   0  0  0  0  0  0  0  0  0  0  0  0
   16.0090    0.1745   11.7663 H   0  0  0  0  0  0  0  0  0  0  0  0
   16.4110    0.5601   10.0695 H   0  0  0  0  0  0  0  0  0  0  0  0
   17.9452   -1.7426   12.4134 H   0  0  0  0  0  0  0  0  0  0  0  0
   17.9400   -5.2279   10.6065 H   0  0  0  0  0  0  0  0  0  0  0  0
   17.4823   -4.5456   12.1560 H   0  0  0  0  0  0  0  0  0  0  0  0
   18.8774   -3.1355    9.8379 H   0  0  0  0  0  0  0  0  0  0  0  0
   19.3780   -0.6822    9.9277 H   0  0  0  0  0  0  0  0  0  0  0  0
   18.7902    0.2974   11.2768 H   0  0  0  0  0  0  0  0  0  0  0  0
   19.8123   -3.7505   12.6664 H   0  0  0  0  0  0  0  0  0  0  0  0
   20.3128   -0.7009   12.8362 H   0  0  0  0  0  0  0  0  0  0  0  0
   21.2187   -0.2389   11.3970 H   0  0  0  0  0  0  0  0  0  0  0  0
   20.1480   -5.6140   11.0559 H   0  0  0  0  0  0  0  0  0  0  0  0
   20.9245   -4.5101    9.9143 H   0  0  0  0  0  0  0  0  0  0  0  0
   22.9079   -1.7427   12.0234 H   0  0  0  0  0  0  0  0  0  0  0  0
   21.9734   -5.5378   12.5883 H   0  0  0  0  0  0  0  0  0  0  0  0
   22.7005   -5.6631   10.9777 H   0  0  0  0  0  0  0  0  0  0  0  0
  1  2  1  0  0  0  0 
  2  4  1  0  0  0  0 
  2  5  2  0  0  0  0 
  3  1  1  0  0  0  0 
  3  6  1  0  0  0  0 
  7  3  1  0  0  0  0 
  3  8  1  0  0  0  0 
  6  9  1  0  0  0  0 
  6 10  2  0  0  0  0 
  7 11  1  0  0  0  0 
  7 12  1  0  0  0  0 
  7 13  1  0  0  0  0 
  8 14  2  0  0  0  0 
  8 15  1  0  0  0  0 
 12 15  1  0  0  0  0 
 12 16  1  0  0  0  0 
 13 17  1  0  0  0  0 
 16 18  1  0  0  0  0 
 16 19  1  0  0  0  0 
 18 17  1  0  0  0  0 
 18 20  1  0  0  0  0 
 19 21  1  0  0  0  0 
 20 22  1  0  0  0  0 
 20 23  1  0  0  0  0 
 21 22  1  0  0  0  0 
 22 24  2  0  0  0  0 
 23 25  1  0  0  0  0 
 24 26  1  0  0  0  0 
 25 26  1  0  0  0  0 
 26 27  2  0  0  0  0 
 28  4  1  0  0  0  0 
 29  4  1  0  0  0  0 
 30  4  1  0  0  0  0 
 31  9  1  0  0  0  0 
 32  9  1  0  0  0  0 
 33  9  1  0  0  0  0 
 34 11  1  0  0  0  0 
 35 11  1  0  0  0  0 
 36 11  1  0  0  0  0 
 12 37  1  0  0  0  0 
 38 13  1  0  0  0  0 
 39 13  1  0  0  0  0 
 40 14  1  0  0  0  0 
 41 14  1  0  0  0  0 
 42 15  1  0  0  0  0 
 43 15  1  0  0  0  0 
 16 44  1  0  0  0  0 
 45 17  1  0  0  0  0 
 46 17  1  0  0  0  0 
 18 47  1  0  0  0  0 
 48 19  1  0  0  0  0 
 49 19  1  0  0  0  0 
 20 50  1  0  0  0  0 
 51 21  1  0  0  0  0 
 52 21  1  0  0  0  0 
 53 23  1  0  0  0  0 
 54 23  1  0  0  0  0 
 55 24  1  0  0  0  0 
 56 25  1  0  0  0  0 
 57 25  1  0  0  0  0 
M  END
> <cdk:Title>
elcometrine

> <Conformer>
1

> <SuperDrugID>
SD002749

$$$$
