croconazole
  CDK     0628171802

 37 39  0  0  0  0  0  0  0  0999 V2000
    1.4397    1.0655    3.1229 C   0  0  0  0  0  0  0  0  0  0  0  0
    2.7516    0.8328    2.9093 C   0  0  0  0  0  0  0  0  0  0  0  0
    0.6213   -0.0374    3.4050 C   0  0  0  0  0  0  0  0  0  0  0  0
    0.9020    2.3217    3.1126 N   0  0  0  0  0  0  0  0  0  0  0  0
    0.3964   -1.0813    2.4656 C   0  0  0  0  0  0  0  0  0  0  0  0
    0.0045   -0.1049    4.6779 C   0  0  0  0  0  0  0  0  0  0  0  0
    1.5459    3.5098    3.1573 C   0  0  0  0  0  0  0  0  0  0  0  0
   -0.4154    2.6523    3.0742 C   0  0  0  0  0  0  0  0  0  0  0  0
    1.0678   -1.0578    1.2628 O   0  0  0  0  0  0  0  0  0  0  0  0
   -0.4480   -2.1594    2.8177 C   0  0  0  0  0  0  0  0  0  0  0  0
   -0.8401   -1.1766    5.0091 C   0  0  0  0  0  0  0  0  0  0  0  0
    0.6077    4.5290    3.1739 C   0  0  0  0  0  0  0  0  0  0  0  0
   -0.6087    3.9802    3.1148 N   0  0  0  0  0  0  0  0  0  0  0  0
    0.3060   -1.1011    0.0380 C   0  0  1  0  0  0  0  0  0  0  0  0
   -1.0729   -2.1986    4.0760 C   0  0  0  0  0  0  0  0  0  0  0  0
   -0.5957    0.0571   -0.1991 C   0  0  0  0  0  0  0  0  0  0  0  0
   -0.0879    1.3751   -0.1443 C   0  0  0  0  0  0  0  0  0  0  0  0
   -1.9526   -0.1321   -0.5513 C   0  0  0  0  0  0  0  0  0  0  0  0
   -0.9096    2.4794   -0.4484 C   0  0  0  0  0  0  0  0  0  0  0  0
   -2.7740    0.9673   -0.8595 C   0  0  0  0  0  0  0  0  0  0  0  0
   -0.2774    4.0486   -0.4087 Cl  0  0  0  0  0  0  0  0  0  0  0  0
   -2.2563    2.2727   -0.8029 C   0  0  0  0  0  0  0  0  0  0  0  0
    3.1322   -0.0852    2.9473 H   0  0  0  0  0  0  0  0  0  0  0  0
    3.3833    1.5686    2.7142 H   0  0  0  0  0  0  0  0  0  0  0  0
    0.1686    0.6284    5.3761 H   0  0  0  0  0  0  0  0  0  0  0  0
    2.5545    3.6623    3.1856 H   0  0  0  0  0  0  0  0  0  0  0  0
   -1.1954    1.9920    3.0212 H   0  0  0  0  0  0  0  0  0  0  0  0
   -0.6034   -2.9292    2.1647 H   0  0  0  0  0  0  0  0  0  0  0  0
   -1.2830   -1.2120    5.9295 H   0  0  0  0  0  0  0  0  0  0  0  0
    0.8079    5.5287    3.2249 H   0  0  0  0  0  0  0  0  0  0  0  0
    1.0365   -1.0946   -0.7716 H   0  0  0  0  0  0  0  0  0  0  0  0
   -0.2233   -2.0531   -0.0403 H   0  0  0  0  0  0  0  0  0  0  0  0
   -1.6926   -2.9748    4.3153 H   0  0  0  0  0  0  0  0  0  0  0  0
    0.8905    1.5294    0.1071 H   0  0  0  0  0  0  0  0  0  0  0  0
   -2.3494   -1.0730   -0.6091 H   0  0  0  0  0  0  0  0  0  0  0  0
   -3.7477    0.8153   -1.1338 H   0  0  0  0  0  0  0  0  0  0  0  0
   -2.8653    3.0620   -1.0300 H   0  0  0  0  0  0  0  0  0  0  0  0
  1  2  2  0  0  0  0 
  1  3  1  0  0  0  0 
  1  4  1  0  0  0  0 
  3  5  2  0  0  0  0 
  3  6  1  0  0  0  0 
  4  7  1  0  0  0  0 
  4  8  1  0  0  0  0 
  5  9  1  0  0  0  0 
  5 10  1  0  0  0  0 
  6 11  2  0  0  0  0 
  7 12  2  0  0  0  0 
  8 13  2  0  0  0  0 
  9 14  1  0  0  0  0 
 10 15  2  0  0  0  0 
 11 15  1  0  0  0  0 
 12 13  1  0  0  0  0 
 14 16  1  0  0  0  0 
 16 17  2  0  0  0  0 
 16 18  1  0  0  0  0 
 17 19  1  0  0  0  0 
 18 20  2  0  0  0  0 
 19 21  1  0  0  0  0 
 19 22  2  0  0  0  0 
 20 22  1  0  0  0  0 
  2 23  1  0  0  0  0 
  2 24  1  0  0  0  0 
  6 25  1  0  0  0  0 
  7 26  1  0  0  0  0 
  8 27  1  0  0  0  0 
 10 28  1  0  0  0  0 
 11 29  1  0  0  0  0 
 12 30  1  0  0  0  0 
 14 31  1  0  0  0  0 
 14 32  1  0  0  0  0 
 15 33  1  0  0  0  0 
 17 34  1  0  0  0  0 
 18 35  1  0  0  0  0 
 20 36  1  0  0  0  0 
 22 37  1  0  0  0  0 
M  END
> <cdk:Title>
croconazole

> <Conformer>
1

> <SuperDrugID>
SD000651

$$$$
