bromebric acid
  CDK     0628171801

 25 25  0  0  0  0  0  0  0  0999 V2000
    3.1562    1.5687    5.0686 C   0  0  0  0  0  0  0  0  0  0  0  0
    1.8455    2.0021    5.1485 C   0  0  0  0  0  0  0  0  0  0  0  0
    3.4130    0.5108    4.4484 O   0  0  0  0  0  0  0  0  0  0  0  0
    4.1900    2.2571    5.7423 C   0  0  0  0  0  0  0  0  0  0  0  0
    1.0670    2.3930    4.1238 C   0  0  0  0  0  0  0  0  0  0  0  0
    1.1283    2.0591    6.8378 Br  0  0  0  0  0  0  0  0  0  0  0  0
    4.3746    3.6462    5.5489 C   0  0  0  0  0  0  0  0  0  0  0  0
    5.0344    1.5736    6.6487 C   0  0  0  0  0  0  0  0  0  0  0  0
    1.4180    2.4946    2.7870 C   0  0  0  0  0  0  0  0  0  0  0  0
    5.3288    4.3474    6.3064 C   0  0  0  0  0  0  0  0  0  0  0  0
    5.9811    2.2792    7.4138 C   0  0  0  0  0  0  0  0  0  0  0  0
    2.6230    2.1333    2.2894 O   0  0  0  0  0  0  0  0  0  0  0  0
    0.5933    2.9550    1.9656 O   0  0  0  0  0  0  0  0  0  0  0  0
    6.0982    3.6758    7.2776 C   0  0  0  0  0  0  0  0  0  0  0  0
    6.9580    4.3698    8.0850 O   0  0  0  0  0  0  0  0  0  0  0  0
    6.2781    5.0017    9.1889 C   0  0  0  0  0  0  0  0  0  0  0  0
    0.1368    2.6604    4.3551 H   0  0  0  0  0  0  0  0  0  0  0  0
    3.8137    4.1584    4.8625 H   0  0  0  0  0  0  0  0  0  0  0  0
    4.9435    0.5628    6.7850 H   0  0  0  0  0  0  0  0  0  0  0  0
    5.4531    5.3523    6.1633 H   0  0  0  0  0  0  0  0  0  0  0  0
    6.5704    1.7785    8.0830 H   0  0  0  0  0  0  0  0  0  0  0  0
    2.8044    2.2177    1.3293 H   0  0  0  0  0  0  0  0  0  0  0  0
    7.0241    5.4973    9.8118 H   0  0  0  0  0  0  0  0  0  0  0  0
    5.5701    5.7600    8.8410 H   0  0  0  0  0  0  0  0  0  0  0  0
    5.7464    4.2719    9.8074 H   0  0  0  0  0  0  0  0  0  0  0  0
  1  2  1  0  0  0  0 
  1  3  2  0  0  0  0 
  1  4  1  0  0  0  0 
  2  5  2  0  0  0  0 
  2  6  1  0  0  0  0 
  4  7  2  0  0  0  0 
  4  8  1  0  0  0  0 
  5  9  1  0  0  0  0 
  7 10  1  0  0  0  0 
  8 11  2  0  0  0  0 
  9 12  1  0  0  0  0 
  9 13  2  0  0  0  0 
 10 14  2  0  0  0  0 
 11 14  1  0  0  0  0 
 14 15  1  0  0  0  0 
 15 16  1  0  0  0  0 
  5 17  1  0  0  0  0 
  7 18  1  0  0  0  0 
  8 19  1  0  0  0  0 
 10 20  1  0  0  0  0 
 11 21  1  0  0  0  0 
 12 22  1  0  0  0  0 
 16 23  1  0  0  0  0 
 16 24  1  0  0  0  0 
 16 25  1  0  0  0  0 
M  END
> <cdk:Title>
bromebric acid

> <Conformer>
1

> <SuperDrugID>
SD000342

$$$$
