crisaborole
  CDK     0628171802

 29 31  0  0  0  0  0  0  0  0999 V2000
   -1.3700    1.4860   -2.2228 C   0  0  0  0  0  0  0  0  0  0  0  0
   -2.4464    2.2883   -1.7858 C   0  0  0  0  0  0  0  0  0  0  0  0
   -2.6215    2.5143   -0.4033 C   0  0  0  0  0  0  0  0  0  0  0  0
   -1.7477    1.9227    0.5280 C   0  0  0  0  0  0  0  0  0  0  0  0
   -0.6977    1.0857    0.0966 C   0  0  0  0  0  0  0  0  0  0  0  0
   -0.4992    0.8971   -1.2871 C   0  0  0  0  0  0  0  0  0  0  0  0
    0.1346    0.4857    1.0088 O   0  0  0  0  0  0  0  0  0  0  0  0
   -0.3344   -0.7500    1.3846 C   0  0  0  0  0  0  0  0  0  0  0  0
   -0.3987   -3.1873    1.0639 C   0  0  0  0  0  0  0  0  0  0  0  0
    0.0718   -1.9125    0.6842 C   0  0  0  0  0  0  0  0  0  0  0  0
   -1.2079   -0.8746    2.4920 C   0  0  0  0  0  0  0  0  0  0  0  0
   -1.6933   -2.1447    2.8564 C   0  0  0  0  0  0  0  0  0  0  0  0
   -1.2813   -3.2659    2.1517 C   0  0  0  0  0  0  0  0  0  0  0  0
   -2.6299   -2.4758    3.9462 C   0  0  1  0  0  0  0  0  0  0  0  0
   -2.8823   -3.9024    3.9571 O   0  0  0  0  0  0  0  0  0  0  0  0
   -1.9840   -4.4591    2.8426 B   0  0  0  0  0  0  0  0  0  0  0  0
   -3.2669    2.8190   -2.6507 C   0  0  0  0  0  0  0  0  0  0  0  0
   -3.9938    3.2792   -3.4113 N   0  0  0  0  0  0  0  0  0  0  0  0
   -1.8498   -5.9336    2.4604 O   0  0  0  0  0  0  0  0  0  0  0  0
   -1.2074    1.3207   -3.2213 H   0  0  0  0  0  0  0  0  0  0  0  0
   -3.3827    3.1081   -0.0586 H   0  0  0  0  0  0  0  0  0  0  0  0
   -1.8821    2.0992    1.5251 H   0  0  0  0  0  0  0  0  0  0  0  0
    0.2792    0.3238   -1.6167 H   0  0  0  0  0  0  0  0  0  0  0  0
   -0.1053   -4.0286    0.5627 H   0  0  0  0  0  0  0  0  0  0  0  0
    0.7134   -1.8318   -0.1070 H   0  0  0  0  0  0  0  0  0  0  0  0
   -1.4912   -0.0506    3.0247 H   0  0  0  0  0  0  0  0  0  0  0  0
   -2.2002   -2.1755    4.9057 H   0  0  0  0  0  0  0  0  0  0  0  0
   -3.5736   -1.9464    3.7931 H   0  0  0  0  0  0  0  0  0  0  0  0
   -1.6934   -6.3905    3.3149 H   0  0  0  0  0  0  0  0  0  0  0  0
  1  2  2  0  0  0  0 
  1  6  1  0  0  0  0 
  2  3  1  0  0  0  0 
  3  4  2  0  0  0  0 
  4  5  1  0  0  0  0 
  5  6  2  0  0  0  0 
  5  7  1  0  0  0  0 
  7  8  1  0  0  0  0 
  9 10  1  0  0  0  0 
 11 12  2  0  0  0  0 
 12 13  1  0  0  0  0 
  9 13  2  0  0  0  0 
 10  8  2  0  0  0  0 
  8 11  1  0  0  0  0 
 14 15  1  0  0  0  0 
 15 16  1  0  0  0  0 
 12 14  1  0  0  0  0 
 13 16  1  0  0  0  0 
  2 17  1  0  0  0  0 
 17 18  3  0  0  0  0 
 16 19  1  0  0  0  0 
  1 20  1  0  0  0  0 
  3 21  1  0  0  0  0 
  4 22  1  0  0  0  0 
  6 23  1  0  0  0  0 
  9 24  1  0  0  0  0 
 10 25  1  0  0  0  0 
 11 26  1  0  0  0  0 
 14 27  1  0  0  0  0 
 14 28  1  0  0  0  0 
 19 29  1  0  0  0  0 
M  END
> <cdk:Title>
crisaborole

> <Conformer>
1

> <SuperDrugID>
SD003935

$$$$
