eltrombopag
  CDK     0628171801

 55 58  0  0  0  0  0  0  0  0999 V2000
    5.8632    2.3685    3.1667 N   0  0  0  0  0  0  0  0  0  0  0  0
    5.5914    2.6794    4.3968 N   0  0  0  0  0  0  0  0  0  0  0  0
    4.2851    2.4286    4.6268 C   0  0  0  0  0  0  0  0  0  0  0  0
    3.7229    1.9385    3.4541 C   0  0  0  0  0  0  0  0  0  0  0  0
    4.7650    1.9361    2.5242 C   0  0  0  0  0  0  0  0  0  0  0  0
    2.4613    1.5621    3.3339 N   0  0  0  0  0  0  0  0  0  0  0  0
    1.9357    1.1387    2.3093 N   0  0  0  0  0  0  0  0  0  0  0  0
    0.6826    0.7286    2.1534 C   0  0  0  0  0  0  0  0  0  0  0  0
    0.2704    0.2969    0.8688 C   0  0  0  0  0  0  0  0  0  0  0  0
   -1.0528   -0.1726    0.6522 C   0  0  0  0  0  0  0  0  0  0  0  0
   -1.9527   -0.2188    1.7428 C   0  0  0  0  0  0  0  0  0  0  0  0
   -1.5499    0.2139    3.0160 C   0  0  0  0  0  0  0  0  0  0  0  0
   -0.2439    0.6846    3.2217 C   0  0  0  0  0  0  0  0  0  0  0  0
    1.1672    0.3208   -0.1571 O   0  0  0  0  0  0  0  0  0  0  0  0
   -1.4878   -0.5899   -0.6344 C   0  0  0  0  0  0  0  0  0  0  0  0
   -1.9724   -1.9021   -0.8356 C   0  0  0  0  0  0  0  0  0  0  0  0
   -2.3856   -2.3171   -2.1126 C   0  0  0  0  0  0  0  0  0  0  0  0
   -2.3186   -1.4290   -3.2024 C   0  0  0  0  0  0  0  0  0  0  0  0
   -1.8502   -0.1020   -3.0358 C   0  0  0  0  0  0  0  0  0  0  0  0
   -1.4425    0.2985   -1.7370 C   0  0  0  0  0  0  0  0  0  0  0  0
    3.6737    2.5875    5.7100 O   0  0  0  0  0  0  0  0  0  0  0  0
    4.7065    1.5524    1.1048 C   0  0  0  0  0  0  0  0  0  0  0  0
    6.4997    3.1618    5.2930 C   0  0  0  0  0  0  0  0  0  0  0  0
    7.6920    2.4565    5.5409 C   0  0  0  0  0  0  0  0  0  0  0  0
    8.6118    2.9300    6.4887 C   0  0  0  0  0  0  0  0  0  0  0  0
    8.3716    4.1275    7.2049 C   0  0  0  0  0  0  0  0  0  0  0  0
    7.1834    4.8692    6.9386 C   0  0  0  0  0  0  0  0  0  0  0  0
    6.2589    4.3625    5.9934 C   0  0  0  0  0  0  0  0  0  0  0  0
    9.3676    4.5732    8.2144 C   0  0  0  0  0  0  0  0  0  0  0  0
    6.8876    6.1608    7.6193 C   0  0  0  0  0  0  0  0  0  0  0  0
   -1.7953    0.7974   -4.1392 C   0  0  0  0  0  0  0  0  0  0  0  0
   -1.3755    1.9723   -4.0207 O   0  0  0  0  0  0  0  0  0  0  0  0
   -2.1967    0.4313   -5.3821 O   0  0  0  0  0  0  0  0  0  0  0  0
    6.7420    2.4471    2.7621 H   0  0  0  0  0  0  0  0  0  0  0  0
   -2.9110   -0.5606    1.6188 H   0  0  0  0  0  0  0  0  0  0  0  0
   -2.2082    0.1869    3.7949 H   0  0  0  0  0  0  0  0  0  0  0  0
    0.0250    0.9895    4.1608 H   0  0  0  0  0  0  0  0  0  0  0  0
    1.4392   -0.6142   -0.2758 H   0  0  0  0  0  0  0  0  0  0  0  0
   -2.0211   -2.5693   -0.0586 H   0  0  0  0  0  0  0  0  0  0  0  0
   -2.7344   -3.2699   -2.2502 H   0  0  0  0  0  0  0  0  0  0  0  0
   -2.6166   -1.7710   -4.1205 H   0  0  0  0  0  0  0  0  0  0  0  0
   -1.1117    1.2560   -1.5847 H   0  0  0  0  0  0  0  0  0  0  0  0
    5.6731    1.7116    0.6248 H   0  0  0  0  0  0  0  0  0  0  0  0
    4.4354    0.4996    1.0142 H   0  0  0  0  0  0  0  0  0  0  0  0
    3.9593    2.1657    0.5980 H   0  0  0  0  0  0  0  0  0  0  0  0
    7.8902    1.5850    5.0451 H   0  0  0  0  0  0  0  0  0  0  0  0
    9.4622    2.3851    6.6508 H   0  0  0  0  0  0  0  0  0  0  0  0
    5.3943    4.8762    5.7993 H   0  0  0  0  0  0  0  0  0  0  0  0
    8.8881    4.6772    9.1896 H   0  0  0  0  0  0  0  0  0  0  0  0
   10.1923    3.8666    8.3294 H   0  0  0  0  0  0  0  0  0  0  0  0
    9.7921    5.5337    7.9178 H   0  0  0  0  0  0  0  0  0  0  0  0
    6.7779    6.0035    8.6928 H   0  0  0  0  0  0  0  0  0  0  0  0
    5.9668    6.6219    7.2576 H   0  0  0  0  0  0  0  0  0  0  0  0
    7.6969    6.8711    7.4435 H   0  0  0  0  0  0  0  0  0  0  0  0
   -2.1513    1.0732   -6.1219 H   0  0  0  0  0  0  0  0  0  0  0  0
  1  2  1  0  0  0  0 
  2  3  1  0  0  0  0 
  3  4  1  0  0  0  0 
  4  5  2  0  0  0  0 
  5  1  1  0  0  0  0 
  6  4  1  0  0  0  0 
  6  7  2  0  0  0  0 
  8  9  2  0  0  0  0 
  9 10  1  0  0  0  0 
 10 11  2  0  0  0  0 
 11 12  1  0  0  0  0 
 12 13  2  0  0  0  0 
 13  8  1  0  0  0  0 
  9 14  1  0  0  0  0 
 10 15  1  0  0  0  0 
 15 16  2  0  0  0  0 
 16 17  1  0  0  0  0 
 17 18  2  0  0  0  0 
 18 19  1  0  0  0  0 
 19 20  2  0  0  0  0 
 20 15  1  0  0  0  0 
  3 21  2  0  0  0  0 
  5 22  1  0  0  0  0 
  2 23  1  0  0  0  0 
 23 24  2  0  0  0  0 
 24 25  1  0  0  0  0 
 25 26  2  0  0  0  0 
 26 27  1  0  0  0  0 
 27 28  2  0  0  0  0 
 28 23  1  0  0  0  0 
 26 29  1  0  0  0  0 
  7  8  1  0  0  0  0 
 27 30  1  0  0  0  0 
 19 31  1  0  0  0  0 
 31 32  2  0  0  0  0 
 31 33  1  0  0  0  0 
 34  1  1  0  0  0  0 
 35 11  1  0  0  0  0 
 36 12  1  0  0  0  0 
 37 13  1  0  0  0  0 
 38 14  1  0  0  0  0 
 39 16  1  0  0  0  0 
 40 17  1  0  0  0  0 
 41 18  1  0  0  0  0 
 42 20  1  0  0  0  0 
 43 22  1  0  0  0  0 
 44 22  1  0  0  0  0 
 45 22  1  0  0  0  0 
 46 24  1  0  0  0  0 
 47 25  1  0  0  0  0 
 48 28  1  0  0  0  0 
 49 29  1  0  0  0  0 
 50 29  1  0  0  0  0 
 51 29  1  0  0  0  0 
 52 30  1  0  0  0  0 
 53 30  1  0  0  0  0 
 54 30  1  0  0  0  0 
 55 33  1  0  0  0  0 
M  END
> <cdk:Title>
eltrombopag

> <Conformer>
1

> <SuperDrugID>
SD003543

$$$$
