demoxytocin
  CDK     0628171801

133135  0  0  0  0  0  0  0  0999 V2000
   -2.8816   -0.0679   -0.5731 C   0  0  0  0  0  0  0  0  0  0  0  0
   -2.5567   -0.0326    0.7422 N   0  0  0  0  0  0  0  0  0  0  0  0
   -3.7357    1.2054    3.4459 N   0  0  0  0  0  0  0  0  0  0  0  0
   -1.2676    3.0477    3.0003 N   0  0  0  0  0  0  0  0  0  0  0  0
    1.1509    1.9182    1.3015 N   0  0  0  0  0  0  0  0  0  0  0  0
    2.7797    1.0973   -1.1207 N   0  0  0  0  0  0  0  0  0  0  0  0
    4.0464    3.7242   -0.5689 N   0  0  0  0  0  0  0  0  0  0  0  0
    4.5134    6.8277   -0.0569 N   0  0  0  0  0  0  0  0  0  0  0  0
    2.5092    9.2443   -1.4312 N   0  0  0  0  0  0  0  0  0  0  0  0
   -0.3995    9.2318   -2.0219 N   0  0  0  0  0  0  0  0  0  0  0  0
   -3.7854   -0.8178   -1.0118 O   0  0  0  0  0  0  0  0  0  0  0  0
   -2.2002    0.8820   -1.4799 C   0  0  1  0  0  0  0  0  0  0  0  0
    2.1552    2.3049   -1.5680 C   0  0  1  0  0  0  0  0  0  0  0  0
    2.7135    3.5016   -0.8691 C   0  0  0  0  0  0  0  0  0  0  0  0
    1.8628    4.3081   -0.4313 O   0  0  0  0  0  0  0  0  0  0  0  0
   -1.1513    0.2309   -2.4094 C   0  0  2  0  0  0  0  0  0  0  0  0
   -0.6261    1.4471   -3.6617 S   0  0  0  0  0  0  0  0  0  0  0  0
    1.4097    1.0321   -3.9682 S   0  0  0  0  0  0  0  0  0  0  0  0
    2.2332    2.4207   -3.1149 C   0  0  1  0  0  0  0  0  0  0  0  0
   -2.8624    0.2739    2.9750 C   0  0  0  0  0  0  0  0  0  0  0  0
   -3.0749   -2.1045    2.0598 C   0  0  1  0  0  0  0  0  0  0  0  0
   -4.1266   -2.7479    2.9009 C   0  0  0  0  0  0  0  0  0  0  0  0
   -5.4360   -2.9352    2.3939 C   0  0  0  0  0  0  0  0  0  0  0  0
   -6.4262   -3.5712    3.1675 C   0  0  0  0  0  0  0  0  0  0  0  0
   -6.1207   -4.0387    4.4599 C   0  0  0  0  0  0  0  0  0  0  0  0
   -7.0780   -4.6763    5.1802 O   0  0  0  0  0  0  0  0  0  0  0  0
   -4.8260   -3.8461    4.9830 C   0  0  0  0  0  0  0  0  0  0  0  0
   -3.8391   -3.2051    4.2086 C   0  0  0  0  0  0  0  0  0  0  0  0
   -3.2978   -0.5788    1.8419 C   0  0  2  0  0  0  0  0  0  0  0  0
   -1.6620    0.2291    3.3321 O   0  0  0  0  0  0  0  0  0  0  0  0
   -2.5986    3.3060    3.1435 C   0  0  0  0  0  0  0  0  0  0  0  0
   -3.1321    2.5019    5.5829 C   0  0  2  0  0  0  0  0  0  0  0  0
   -1.8206    1.7789    6.0044 C   0  0  0  0  0  0  0  0  0  0  0  0
   -3.4585    2.4792    4.0439 C   0  0  2  0  0  0  0  0  0  0  0  0
   -4.5525    4.6367    6.1537 C   0  0  0  0  0  0  0  0  0  0  0  0
   -3.1676    3.9456    6.1966 C   0  0  2  0  0  0  0  0  0  0  0  0
   -3.1342    4.2266    2.4794 O   0  0  0  0  0  0  0  0  0  0  0  0
    0.9098    2.9332    2.1906 C   0  0  0  0  0  0  0  0  0  0  0  0
   -0.1947    5.2449    2.4781 C   0  0  1  0  0  0  0  0  0  0  0  0
   -0.3745    6.1953    1.2638 C   0  0  1  0  0  0  0  0  0  0  0  0
   -0.4959    7.6096    1.6617 C   0  0  0  0  0  0  0  0  0  0  0  0
   -1.6622    8.0798    2.1350 N   0  0  0  0  0  0  0  0  0  0  0  0
    0.4721    8.3960    1.5546 O   0  0  0  0  0  0  0  0  0  0  0  0
   -0.3516    3.7197    2.1220 C   0  0  2  0  0  0  0  0  0  0  0  0
    1.6968    3.1309    3.1473 O   0  0  0  0  0  0  0  0  0  0  0  0
    2.8466    0.5351    0.1220 C   0  0  0  0  0  0  0  0  0  0  0  0
    1.5507   -0.2643    2.1782 C   0  0  1  0  0  0  0  0  0  0  0  0
    2.4706   -1.3475    2.5918 C   0  0  0  0  0  0  0  0  0  0  0  0
    3.4742   -1.1197    3.4580 N   0  0  0  0  0  0  0  0  0  0  0  0
    2.3262   -2.5088    2.1467 O   0  0  0  0  0  0  0  0  0  0  0  0
    2.2008    0.9378    1.4138 C   0  0  2  0  0  0  0  0  0  0  0  0
    3.6369   -0.4368    0.1386 O   0  0  0  0  0  0  0  0  0  0  0  0
    4.0335    5.8476    0.7649 C   0  0  0  0  0  0  0  0  0  0  0  0
    4.4675    4.4300    0.6194 C   0  0  2  0  0  0  0  0  0  0  0  0
    6.0070    4.2605    0.6647 C   0  0  2  0  0  0  0  0  0  0  0  0
    6.2827    3.0625   -0.2550 C   0  0  2  0  0  0  0  0  0  0  0  0
    5.1577    3.1869   -1.2934 C   0  0  1  0  0  0  0  0  0  0  0  0
    3.2316    6.1233    1.6896 O   0  0  0  0  0  0  0  0  0  0  0  0
    3.7501    8.6968   -1.3049 C   0  0  0  0  0  0  0  0  0  0  0  0
    6.6088   11.2442    1.1225 C   0  0  0  0  0  0  0  0  0  0  0  0
    5.4490    9.0133    0.5631 C   0  0  2  0  0  0  0  0  0  0  0  0
    4.2082    8.2313    0.0270 C   0  0  2  0  0  0  0  0  0  0  0  0
    4.1704   10.9313    1.7836 C   0  0  0  0  0  0  0  0  0  0  0  0
    5.2649   10.5595    0.7424 C   0  0  1  0  0  0  0  0  0  0  0  0
    4.5117    8.5794   -2.2951 O   0  0  0  0  0  0  0  0  0  0  0  0
    0.5293   10.1154   -2.4330 C   0  0  0  0  0  0  0  0  0  0  0  0
    1.9292    9.7040   -2.6500 C   0  0  2  0  0  0  0  0  0  0  0  0
    0.1697   11.2969   -2.6379 O   0  0  0  0  0  0  0  0  0  0  0  0
   -1.7694    0.4884    0.9641 H   0  0  0  0  0  0  0  0  0  0  0  0
   -4.6688    1.0407    3.2401 H   0  0  0  0  0  0  0  0  0  0  0  0
   -0.9088    2.3215    3.5303 H   0  0  0  0  0  0  0  0  0  0  0  0
    0.5137    1.7960    0.5797 H   0  0  0  0  0  0  0  0  0  0  0  0
    3.2695    0.6166   -1.8068 H   0  0  0  0  0  0  0  0  0  0  0  0
    5.1341    6.5546   -0.7510 H   0  0  0  0  0  0  0  0  0  0  0  0
    1.9796    9.3339   -0.6243 H   0  0  0  0  0  0  0  0  0  0  0  0
   -0.1541    8.3094   -1.8506 H   0  0  0  0  0  0  0  0  0  0  0  0
   -1.3188    9.5162   -1.8967 H   0  0  0  0  0  0  0  0  0  0  0  0
   -2.9678    1.3944   -2.0687 H   0  0  0  0  0  0  0  0  0  0  0  0
   -1.6855    1.6450   -0.8866 H   0  0  0  0  0  0  0  0  0  0  0  0
    1.0927    2.2194   -1.3306 H   0  0  0  0  0  0  0  0  0  0  0  0
   -1.5767   -0.6376   -2.9166 H   0  0  0  0  0  0  0  0  0  0  0  0
   -0.2937   -0.0949   -1.8159 H   0  0  0  0  0  0  0  0  0  0  0  0
    1.7693    3.3522   -3.4473 H   0  0  0  0  0  0  0  0  0  0  0  0
    3.2715    2.4350   -3.4435 H   0  0  0  0  0  0  0  0  0  0  0  0
   -2.0829   -2.2670    2.4876 H   0  0  0  0  0  0  0  0  0  0  0  0
   -3.0610   -2.6082    1.0908 H   0  0  0  0  0  0  0  0  0  0  0  0
   -5.6754   -2.6151    1.4522 H   0  0  0  0  0  0  0  0  0  0  0  0
   -7.3661   -3.7026    2.7856 H   0  0  0  0  0  0  0  0  0  0  0  0
   -6.6044   -5.1701    5.8844 H   0  0  0  0  0  0  0  0  0  0  0  0
   -4.5990   -4.1767    5.9247 H   0  0  0  0  0  0  0  0  0  0  0  0
   -2.9061   -3.0758    4.6065 H   0  0  0  0  0  0  0  0  0  0  0  0
   -4.3595   -0.3959    1.6426 H   0  0  0  0  0  0  0  0  0  0  0  0
   -3.9325    1.9394    6.0770 H   0  0  0  0  0  0  0  0  0  0  0  0
   -1.8650    0.7222    5.7546 H   0  0  0  0  0  0  0  0  0  0  0  0
   -0.9459    2.2255    5.5344 H   0  0  0  0  0  0  0  0  0  0  0  0
   -1.6835    1.8298    7.0858 H   0  0  0  0  0  0  0  0  0  0  0  0
   -4.4556    2.9250    3.9877 H   0  0  0  0  0  0  0  0  0  0  0  0
   -4.5619    5.5090    6.8083 H   0  0  0  0  0  0  0  0  0  0  0  0
   -5.3335    3.9522    6.4862 H   0  0  0  0  0  0  0  0  0  0  0  0
   -4.7825    4.9733    5.1439 H   0  0  0  0  0  0  0  0  0  0  0  0
   -2.4405    4.5874    5.6929 H   0  0  0  0  0  0  0  0  0  0  0  0
   -2.8760    3.8982    7.2495 H   0  0  0  0  0  0  0  0  0  0  0  0
    0.7812    5.4502    2.9231 H   0  0  0  0  0  0  0  0  0  0  0  0
   -0.9271    5.5188    3.2416 H   0  0  0  0  0  0  0  0  0  0  0  0
    0.4799    6.0925    0.5986 H   0  0  0  0  0  0  0  0  0  0  0  0
   -1.2649    5.9186    0.6950 H   0  0  0  0  0  0  0  0  0  0  0  0
   -2.4237    7.4878    2.2206 H   0  0  0  0  0  0  0  0  0  0  0  0
   -1.7495    9.0101    2.3861 H   0  0  0  0  0  0  0  0  0  0  0  0
   -0.7562    3.6129    1.1109 H   0  0  0  0  0  0  0  0  0  0  0  0
    0.7516   -0.6833    1.5588 H   0  0  0  0  0  0  0  0  0  0  0  0
    1.0865    0.1035    3.0973 H   0  0  0  0  0  0  0  0  0  0  0  0
    3.6086   -0.2337    3.8278 H   0  0  0  0  0  0  0  0  0  0  0  0
    4.0690   -1.8421    3.7123 H   0  0  0  0  0  0  0  0  0  0  0  0
    3.0143    1.3292    2.0314 H   0  0  0  0  0  0  0  0  0  0  0  0
    4.0656    3.8593    1.4670 H   0  0  0  0  0  0  0  0  0  0  0  0
    6.3636    4.0686    1.6801 H   0  0  0  0  0  0  0  0  0  0  0  0
    6.5285    5.1380    0.2723 H   0  0  0  0  0  0  0  0  0  0  0  0
    6.1055    2.1091    0.3372 H   0  0  0  0  0  0  0  0  0  0  0  0
    7.2857    3.1950   -0.7671 H   0  0  0  0  0  0  0  0  0  0  0  0
    4.9820    2.2147   -1.7500 H   0  0  0  0  0  0  0  0  0  0  0  0
    5.4365    3.8925   -2.0811 H   0  0  0  0  0  0  0  0  0  0  0  0
    6.9758   10.8735    2.0818 H   0  0  0  0  0  0  0  0  0  0  0  0
    6.4779   12.3262    1.1961 H   0  0  0  0  0  0  0  0  0  0  0  0
    7.3659   11.0514    0.3603 H   0  0  0  0  0  0  0  0  0  0  0  0
    6.2880    8.8348   -0.1166 H   0  0  0  0  0  0  0  0  0  0  0  0
    5.7298    8.5862    1.5316 H   0  0  0  0  0  0  0  0  0  0  0  0
    3.3982    8.3831    0.7425 H   0  0  0  0  0  0  0  0  0  0  0  0
    4.3888   10.4766    2.7521 H   0  0  0  0  0  0  0  0  0  0  0  0
    4.1172   12.0142    1.9125 H   0  0  0  0  0  0  0  0  0  0  0  0
    3.1875   10.5969    1.4517 H   0  0  0  0  0  0  0  0  0  0  0  0
    4.9608   10.9804   -0.2203 H   0  0  0  0  0  0  0  0  0  0  0  0
    1.9457    8.9068   -3.3960 H   0  0  0  0  0  0  0  0  0  0  0  0
    2.5134   10.5449   -3.0321 H   0  0  0  0  0  0  0  0  0  0  0  0
  1  2  1  0  0  0  0 
 20  3  1  0  0  0  0 
 31  4  1  0  0  0  0 
 38  5  1  0  0  0  0 
 46  6  1  0  0  0  0 
 14  7  1  0  0  0  0 
 53  8  1  0  0  0  0 
 59  9  1  0  0  0  0 
 66 10  1  0  0  0  0 
  1 11  2  0  0  0  0 
  1 12  1  0  0  0  0 
  6 13  1  0  0  0  0 
 13 14  1  0  0  0  0 
 14 15  2  0  0  0  0 
 12 16  1  0  0  0  0 
 16 17  1  0  0  0  0 
 17 18  1  0  0  0  0 
 18 19  1  0  0  0  0 
 13 19  1  0  0  0  0 
 29  2  1  0  0  0  0 
 29 21  1  0  0  0  0 
 21 22  1  0  0  0  0 
 22 23  2  0  0  0  0 
 23 24  1  0  0  0  0 
 24 25  2  0  0  0  0 
 25 26  1  0  0  0  0 
 25 27  1  0  0  0  0 
 27 28  2  0  0  0  0 
 22 28  1  0  0  0  0 
 29 20  1  0  0  0  0 
 20 30  2  0  0  0  0 
 35 36  1  0  0  0  0 
 36 32  1  0  0  0  0 
 32 33  1  0  0  0  0 
 32 34  1  0  0  0  0 
 34  3  1  0  0  0  0 
 34 31  1  0  0  0  0 
 31 37  2  0  0  0  0 
 44  4  1  0  0  0  0 
 44 39  1  0  0  0  0 
 39 40  1  0  0  0  0 
 40 41  1  0  0  0  0 
 41 42  1  0  0  0  0 
 41 43  2  0  0  0  0 
 44 38  1  0  0  0  0 
 38 45  2  0  0  0  0 
 51  5  1  0  0  0  0 
 51 47  1  0  0  0  0 
 47 48  1  0  0  0  0 
 48 49  1  0  0  0  0 
 48 50  2  0  0  0  0 
 51 46  1  0  0  0  0 
 46 52  2  0  0  0  0 
 58 53  2  0  0  0  0 
 54 53  1  0  0  0  0 
 54 55  1  0  0  0  0 
 55 56  1  0  0  0  0 
 56 57  1  0  0  0  0 
 57  7  1  0  0  0  0 
 54  7  1  0  0  0  0 
 63 64  1  0  0  0  0 
 64 60  1  0  0  0  0 
 64 61  1  0  0  0  0 
 61 62  1  0  0  0  0 
 62  8  1  0  0  0  0 
 62 59  1  0  0  0  0 
 59 65  2  0  0  0  0 
  9 67  1  0  0  0  0 
 67 66  1  0  0  0  0 
 66 68  2  0  0  0  0 
  2 69  1  0  0  0  0 
  3 70  1  0  0  0  0 
  4 71  1  0  0  0  0 
  5 72  1  0  0  0  0 
  6 73  1  0  0  0  0 
  8 74  1  0  0  0  0 
  9 75  1  0  0  0  0 
 10 76  1  0  0  0  0 
 10 77  1  0  0  0  0 
 12 78  1  0  0  0  0 
 12 79  1  0  0  0  0 
 13 80  1  0  0  0  0 
 16 81  1  0  0  0  0 
 16 82  1  0  0  0  0 
 19 83  1  0  0  0  0 
 19 84  1  0  0  0  0 
 21 85  1  0  0  0  0 
 21 86  1  0  0  0  0 
 23 87  1  0  0  0  0 
 24 88  1  0  0  0  0 
 26 89  1  0  0  0  0 
 27 90  1  0  0  0  0 
 28 91  1  0  0  0  0 
 29 92  1  0  0  0  0 
 32 93  1  0  0  0  0 
 33 94  1  0  0  0  0 
 33 95  1  0  0  0  0 
 33 96  1  0  0  0  0 
 34 97  1  0  0  0  0 
 35 98  1  0  0  0  0 
 35 99  1  0  0  0  0 
 35100  1  0  0  0  0 
 36101  1  0  0  0  0 
 36102  1  0  0  0  0 
 39103  1  0  0  0  0 
 39104  1  0  0  0  0 
 40105  1  0  0  0  0 
 40106  1  0  0  0  0 
 42107  1  0  0  0  0 
 42108  1  0  0  0  0 
 44109  1  0  0  0  0 
 47110  1  0  0  0  0 
 47111  1  0  0  0  0 
 49112  1  0  0  0  0 
 49113  1  0  0  0  0 
 51114  1  0  0  0  0 
 54115  1  0  0  0  0 
 55116  1  0  0  0  0 
 55117  1  0  0  0  0 
 56118  1  0  0  0  0 
 56119  1  0  0  0  0 
 57120  1  0  0  0  0 
 57121  1  0  0  0  0 
 60122  1  0  0  0  0 
 60123  1  0  0  0  0 
 60124  1  0  0  0  0 
 61125  1  0  0  0  0 
 61126  1  0  0  0  0 
 62127  1  0  0  0  0 
 63128  1  0  0  0  0 
 63129  1  0  0  0  0 
 63130  1  0  0  0  0 
 64131  1  0  0  0  0 
 67132  1  0  0  0  0 
 67133  1  0  0  0  0 
M  END
> <cdk:Title>
demoxytocin

> <Conformer>
1

> <SuperDrugID>
SD002710

$$$$
