acitretin
  CDK     0628171802

 50 50  0  0  0  0  0  0  0  0999 V2000
    8.4295   -0.3499   -4.8361 C   0  0  0  0  0  0  0  0  0  0  0  0
    8.8492    0.5288   -3.9069 C   0  0  0  0  0  0  0  0  0  0  0  0
    7.2672   -0.1809   -5.5963 C   0  0  0  0  0  0  0  0  0  0  0  0
   10.0039    0.3820   -3.2014 C   0  0  0  0  0  0  0  0  0  0  0  0
    7.3549   -0.1038   -7.0266 C   0  0  0  0  0  0  0  0  0  0  0  0
    5.9958   -0.0936   -4.9521 C   0  0  0  0  0  0  0  0  0  0  0  0
   10.1475   -0.6559   -2.3441 C   0  0  0  0  0  0  0  0  0  0  0  0
   11.0537    1.3857   -3.4041 C   0  0  0  0  0  0  0  0  0  0  0  0
    8.7067   -0.1519   -7.6809 C   0  0  0  0  0  0  0  0  0  0  0  0
    6.1575    0.0230   -7.8023 C   0  0  0  0  0  0  0  0  0  0  0  0
    5.7774   -0.2311   -3.4802 C   0  0  0  0  0  0  0  0  0  0  0  0
    4.8480    0.1256   -5.7384 C   0  0  0  0  0  0  0  0  0  0  0  0
   11.2838   -0.8955   -1.6562 C   0  0  0  0  0  0  0  0  0  0  0  0
    6.1775   -0.0162   -9.2951 C   0  0  0  0  0  0  0  0  0  0  0  0
    4.9134    0.1755   -7.1378 C   0  0  0  0  0  0  0  0  0  0  0  0
   11.3518   -0.8978   -0.3151 C   0  0  0  0  0  0  0  0  0  0  0  0
    3.7253    0.3219   -7.8100 O   0  0  0  0  0  0  0  0  0  0  0  0
   12.5407   -1.0554    0.3279 C   0  0  0  0  0  0  0  0  0  0  0  0
    3.3821    1.6905   -8.0920 C   0  0  0  0  0  0  0  0  0  0  0  0
   12.9047   -2.2908    0.7469 C   0  0  0  0  0  0  0  0  0  0  0  0
   13.3636    0.1442    0.4831 C   0  0  0  0  0  0  0  0  0  0  0  0
   14.0783   -2.6623    1.3895 C   0  0  0  0  0  0  0  0  0  0  0  0
   14.3238   -3.9707    1.6329 O   0  0  0  0  0  0  0  0  0  0  0  0
   14.9595   -1.8611    1.7734 O   0  0  0  0  0  0  0  0  0  0  0  0
    8.9862   -1.1530   -5.0209 H   0  0  0  0  0  0  0  0  0  0  0  0
    8.3168    1.3505   -3.7377 H   0  0  0  0  0  0  0  0  0  0  0  0
    9.3941   -1.2945   -2.2009 H   0  0  0  0  0  0  0  0  0  0  0  0
   11.3179    1.8511   -2.4506 H   0  0  0  0  0  0  0  0  0  0  0  0
   10.7561    2.1843   -4.0902 H   0  0  0  0  0  0  0  0  0  0  0  0
   11.9409    0.9040   -3.8196 H   0  0  0  0  0  0  0  0  0  0  0  0
    8.7019    0.0858   -8.7426 H   0  0  0  0  0  0  0  0  0  0  0  0
    9.3796    0.5721   -7.2138 H   0  0  0  0  0  0  0  0  0  0  0  0
    9.1289   -1.1523   -7.5677 H   0  0  0  0  0  0  0  0  0  0  0  0
    6.5722   -0.7996   -2.9976 H   0  0  0  0  0  0  0  0  0  0  0  0
    4.8451   -0.7621   -3.2701 H   0  0  0  0  0  0  0  0  0  0  0  0
    5.7215    0.7624   -3.0285 H   0  0  0  0  0  0  0  0  0  0  0  0
    3.9332    0.2339   -5.2892 H   0  0  0  0  0  0  0  0  0  0  0  0
   12.1092   -1.0489   -2.1901 H   0  0  0  0  0  0  0  0  0  0  0  0
    6.6960    0.8618   -9.6816 H   0  0  0  0  0  0  0  0  0  0  0  0
    5.1851   -0.0324   -9.7452 H   0  0  0  0  0  0  0  0  0  0  0  0
    6.6905   -0.9171   -9.6369 H   0  0  0  0  0  0  0  0  0  0  0  0
   10.5344   -0.7526    0.2337 H   0  0  0  0  0  0  0  0  0  0  0  0
    2.4339    1.6916   -8.6301 H   0  0  0  0  0  0  0  0  0  0  0  0
    3.2547    2.2729   -7.1761 H   0  0  0  0  0  0  0  0  0  0  0  0
    4.1317    2.1693   -8.7263 H   0  0  0  0  0  0  0  0  0  0  0  0
   12.2763   -3.0446    0.5707 H   0  0  0  0  0  0  0  0  0  0  0  0
   13.5339    0.3540    1.5396 H   0  0  0  0  0  0  0  0  0  0  0  0
   12.9095    1.0371    0.0430 H   0  0  0  0  0  0  0  0  0  0  0  0
   14.3214   -0.0049   -0.0155 H   0  0  0  0  0  0  0  0  0  0  0  0
   15.1542   -4.2353    2.0824 H   0  0  0  0  0  0  0  0  0  0  0  0
  1  2  2  0  0  0  0 
  1  3  1  0  0  0  0 
  2  4  1  0  0  0  0 
  3  5  2  0  0  0  0 
  3  6  1  0  0  0  0 
  4  7  2  0  0  0  0 
  4  8  1  0  0  0  0 
  5  9  1  0  0  0  0 
  5 10  1  0  0  0  0 
  6 11  1  0  0  0  0 
  6 12  2  0  0  0  0 
  7 13  1  0  0  0  0 
 10 14  1  0  0  0  0 
 10 15  2  0  0  0  0 
 12 15  1  0  0  0  0 
 13 16  2  0  0  0  0 
 15 17  1  0  0  0  0 
 16 18  1  0  0  0  0 
 17 19  1  0  0  0  0 
 18 20  2  0  0  0  0 
 18 21  1  0  0  0  0 
 20 22  1  0  0  0  0 
 22 23  1  0  0  0  0 
 22 24  2  0  0  0  0 
  1 25  1  0  0  0  0 
  2 26  1  0  0  0  0 
  7 27  1  0  0  0  0 
  8 28  1  0  0  0  0 
  8 29  1  0  0  0  0 
  8 30  1  0  0  0  0 
  9 31  1  0  0  0  0 
  9 32  1  0  0  0  0 
  9 33  1  0  0  0  0 
 11 34  1  0  0  0  0 
 11 35  1  0  0  0  0 
 11 36  1  0  0  0  0 
 12 37  1  0  0  0  0 
 13 38  1  0  0  0  0 
 14 39  1  0  0  0  0 
 14 40  1  0  0  0  0 
 14 41  1  0  0  0  0 
 16 42  1  0  0  0  0 
 19 43  1  0  0  0  0 
 19 44  1  0  0  0  0 
 19 45  1  0  0  0  0 
 20 46  1  0  0  0  0 
 21 47  1  0  0  0  0 
 21 48  1  0  0  0  0 
 21 49  1  0  0  0  0 
 23 50  1  0  0  0  0 
M  END
> <cdk:Title>
acitretin

> <Conformer>
1

> <SuperDrugID>
SD000054

$$$$
