ciprofloxacin
  CDK     0628171802

 42 45  0  0  0  0  0  0  0  0999 V2000
    5.3856   -4.6262   -4.0747 O   0  0  0  0  0  0  0  0  0  0  0  0
    5.6171   -3.4780   -3.6223 C   0  0  0  0  0  0  0  0  0  0  0  0
    4.5395   -2.6955   -3.1378 C   0  0  0  0  0  0  0  0  0  0  0  0
    6.9437   -2.9818   -3.6019 C   0  0  0  0  0  0  0  0  0  0  0  0
    4.8085   -1.3970   -2.6120 C   0  0  0  0  0  0  0  0  0  0  0  0
    3.2074   -3.1772   -3.1715 C   0  0  0  0  0  0  0  0  0  0  0  0
    8.0674   -3.7339   -4.0614 C   0  0  0  0  0  0  0  0  0  0  0  0
    7.1305   -1.6722   -3.1065 C   0  0  0  0  0  0  0  0  0  0  0  0
    6.0942   -0.8924   -2.6660 N   0  0  0  0  0  0  0  0  0  0  0  0
    3.7178   -0.6749   -2.0532 C   0  0  0  0  0  0  0  0  0  0  0  0
    2.1423   -2.4114   -2.6706 C   0  0  0  0  0  0  0  0  0  0  0  0
    9.2896   -3.1714   -4.2232 O   0  0  0  0  0  0  0  0  0  0  0  0
    7.9983   -4.9524   -4.3399 O   0  0  0  0  0  0  0  0  0  0  0  0
    6.4196    0.4578   -2.2494 C   0  0  1  0  0  0  0  0  0  0  0  0
    2.3869   -1.1501   -2.0893 C   0  0  0  0  0  0  0  0  0  0  0  0
    0.9301   -2.8889   -2.7718 F   0  0  0  0  0  0  0  0  0  0  0  0
    7.2388    1.3953   -3.1647 C   0  0  2  0  0  0  0  0  0  0  0  0
    5.7325    1.6047   -3.0221 C   0  0  1  0  0  0  0  0  0  0  0  0
    1.3644   -0.3741   -1.5813 N   0  0  0  0  0  0  0  0  0  0  0  0
    0.4918   -0.8437   -0.5240 C   0  0  1  0  0  0  0  0  0  0  0  0
    1.1367    0.9612   -2.0923 C   0  0  1  0  0  0  0  0  0  0  0  0
   -0.9966   -0.6370   -0.9065 C   0  0  1  0  0  0  0  0  0  0  0  0
   -0.3526    1.1623   -2.4694 C   0  0  2  0  0  0  0  0  0  0  0  0
   -1.2345    0.7553   -1.3530 N   0  0  1  0  0  0  0  0  0  0  0  0
    2.9982   -4.0953   -3.5723 H   0  0  0  0  0  0  0  0  0  0  0  0
    8.0840   -1.2952   -3.0765 H   0  0  0  0  0  0  0  0  0  0  0  0
    3.8797    0.2257   -1.5997 H   0  0  0  0  0  0  0  0  0  0  0  0
   10.0462   -3.7062   -4.5442 H   0  0  0  0  0  0  0  0  0  0  0  0
    6.5359    0.6475   -1.1807 H   0  0  0  0  0  0  0  0  0  0  0  0
    7.5542    1.0069   -4.1357 H   0  0  0  0  0  0  0  0  0  0  0  0
    7.8560    2.1461   -2.6655 H   0  0  0  0  0  0  0  0  0  0  0  0
    5.1266    1.3082   -3.8813 H   0  0  0  0  0  0  0  0  0  0  0  0
    5.4136    2.4554   -2.4163 H   0  0  0  0  0  0  0  0  0  0  0  0
    0.6512   -1.8978   -0.2815 H   0  0  0  0  0  0  0  0  0  0  0  0
    0.7034   -0.2692    0.3820 H   0  0  0  0  0  0  0  0  0  0  0  0
    1.4154    1.6833   -1.3214 H   0  0  0  0  0  0  0  0  0  0  0  0
    1.7452    1.1771   -2.9767 H   0  0  0  0  0  0  0  0  0  0  0  0
   -1.2835   -1.3350   -1.6973 H   0  0  0  0  0  0  0  0  0  0  0  0
   -1.6289   -0.8338   -0.0384 H   0  0  0  0  0  0  0  0  0  0  0  0
   -0.5924    0.5824   -3.3651 H   0  0  0  0  0  0  0  0  0  0  0  0
   -0.5340    2.2158   -2.6887 H   0  0  0  0  0  0  0  0  0  0  0  0
   -2.1987    0.8154   -1.6860 H   0  0  0  0  0  0  0  0  0  0  0  0
  1  2  2  0  0  0  0 
  2  3  1  0  0  0  0 
  2  4  1  0  0  0  0 
  3  5  1  0  0  0  0 
  3  6  2  0  0  0  0 
  4  7  1  0  0  0  0 
  4  8  2  0  0  0  0 
  5  9  1  0  0  0  0 
  5 10  2  0  0  0  0 
  6 11  1  0  0  0  0 
  7 12  1  0  0  0  0 
  7 13  2  0  0  0  0 
  8  9  1  0  0  0  0 
  9 14  1  0  0  0  0 
 10 15  1  0  0  0  0 
 11 15  2  0  0  0  0 
 11 16  1  0  0  0  0 
 14 17  1  0  0  0  0 
 14 18  1  0  0  0  0 
 15 19  1  0  0  0  0 
 17 18  1  0  0  0  0 
 19 20  1  0  0  0  0 
 19 21  1  0  0  0  0 
 20 22  1  0  0  0  0 
 21 23  1  0  0  0  0 
 22 24  1  0  0  0  0 
 23 24  1  0  0  0  0 
  6 25  1  0  0  0  0 
  8 26  1  0  0  0  0 
 10 27  1  0  0  0  0 
 12 28  1  0  0  0  0 
 14 29  1  0  0  0  0 
 17 30  1  0  0  0  0 
 17 31  1  0  0  0  0 
 18 32  1  0  0  0  0 
 18 33  1  0  0  0  0 
 20 34  1  0  0  0  0 
 20 35  1  0  0  0  0 
 21 36  1  0  0  0  0 
 21 37  1  0  0  0  0 
 22 38  1  0  0  0  0 
 22 39  1  0  0  0  0 
 23 40  1  0  0  0  0 
 23 41  1  0  0  0  0 
 24 42  1  0  0  0  0 
M  END
> <cdk:Title>
ciprofloxacin

> <Conformer>
1

> <SuperDrugID>
SD000579

$$$$
