chloramphenicol
  CDK     0628171802

 32 32  0  0  0  0  0  0  0  0999 V2000
    7.6351    1.4231    0.2760 C   0  0  2  0  0  0  0  0  0  0  0  0
    6.8712    0.2599    0.9923 C   0  0  2  0  0  0  0  0  0  0  0  0
    6.7585    2.5337    0.0737 O   0  0  0  0  0  0  0  0  0  0  0  0
    8.3118    1.0291   -0.9990 C   0  0  0  0  0  0  0  0  0  0  0  0
    7.7696   -0.7556    1.4635 N   0  0  0  0  0  0  0  0  0  0  0  0
    5.7763   -0.4222    0.1261 C   0  0  1  0  0  0  0  0  0  0  0  0
    9.6248    0.5072   -0.9832 C   0  0  0  0  0  0  0  0  0  0  0  0
    7.6720    1.1671   -2.2531 C   0  0  0  0  0  0  0  0  0  0  0  0
    8.5732   -0.6672    2.5635 C   0  0  0  0  0  0  0  0  0  0  0  0
    4.7860    0.5115   -0.2944 O   0  0  0  0  0  0  0  0  0  0  0  0
   10.2780    0.1454   -2.1760 C   0  0  0  0  0  0  0  0  0  0  0  0
    8.3259    0.8067   -3.4441 C   0  0  0  0  0  0  0  0  0  0  0  0
    9.4585   -1.7933    2.9231 C   0  0  1  0  0  0  0  0  0  0  0  0
    8.5773    0.3582    3.2861 O   0  0  0  0  0  0  0  0  0  0  0  0
    9.6468    0.2897   -3.4381 C   0  0  0  0  0  0  0  0  0  0  0  0
    8.5336   -3.2715    3.1692 Cl  0  0  0  0  0  0  0  0  0  0  0  0
   10.6628   -2.0682    1.6688 Cl  0  0  0  0  0  0  0  0  0  0  0  0
   10.2766   -0.0483   -4.5796 N   0  0  0  0  0  0  0  0  0  0  0  0
    9.7803    0.0441   -5.6337 O   0  0  0  0  0  0  0  0  0  0  0  0
   11.4683   -0.4901   -4.6023 O   0  0  0  0  0  0  0  0  0  0  0  0
    8.3937    1.8100    0.9630 H   0  0  0  0  0  0  0  0  0  0  0  0
    6.3542    0.6815    1.8617 H   0  0  0  0  0  0  0  0  0  0  0  0
    6.4023    2.7485    0.9620 H   0  0  0  0  0  0  0  0  0  0  0  0
    7.8126   -1.5806    0.9526 H   0  0  0  0  0  0  0  0  0  0  0  0
    6.2196   -0.8930   -0.7541 H   0  0  0  0  0  0  0  0  0  0  0  0
    5.2760   -1.1977    0.7115 H   0  0  0  0  0  0  0  0  0  0  0  0
   10.1212    0.3905   -0.0970 H   0  0  0  0  0  0  0  0  0  0  0  0
    6.7191    1.5342   -2.3107 H   0  0  0  0  0  0  0  0  0  0  0  0
    4.1231   -0.0221   -0.7812 H   0  0  0  0  0  0  0  0  0  0  0  0
   11.2283   -0.2267   -2.1108 H   0  0  0  0  0  0  0  0  0  0  0  0
    7.8205    0.9288   -4.3255 H   0  0  0  0  0  0  0  0  0  0  0  0
    9.9926   -1.5800    3.8522 H   0  0  0  0  0  0  0  0  0  0  0  0
  2  1  1  0  0  0  0 
  1  3  1  0  0  0  0 
  1  4  1  0  0  0  0 
  2  5  1  0  0  0  0 
  2  6  1  0  0  0  0 
  4  7  2  0  0  0  0 
  4  8  1  0  0  0  0 
  5  9  1  0  0  0  0 
  6 10  1  0  0  0  0 
  7 11  1  0  0  0  0 
  8 12  2  0  0  0  0 
  9 13  1  0  0  0  0 
  9 14  2  0  0  0  0 
 11 15  2  0  0  0  0 
 12 15  1  0  0  0  0 
 13 16  1  0  0  0  0 
 13 17  1  0  0  0  0 
 15 18  1  0  0  0  0 
 18 19  2  0  0  0  0 
 18 20  1  0  0  0  0 
  1 21  1  0  0  0  0 
  2 22  1  0  0  0  0 
  3 23  1  0  0  0  0 
  5 24  1  0  0  0  0 
  6 25  1  0  0  0  0 
  6 26  1  0  0  0  0 
  7 27  1  0  0  0  0 
  8 28  1  0  0  0  0 
 10 29  1  0  0  0  0 
 11 30  1  0  0  0  0 
 12 31  1  0  0  0  0 
 13 32  1  0  0  0  0 
M  CHG  1  18   1
M  CHG  1  20  -1
M  END
> <cdk:Title>
chloramphenicol

> <Conformer>
1

> <SuperDrugID>
SD000515

$$$$
