clotiazepam
  CDK     0628171802

 36 38  0  0  0  0  0  0  0  0999 V2000
   -6.4245   -0.0893   -2.1983 C   0  0  0  0  0  0  0  0  0  0  0  0
   -5.8176   -0.0509   -0.8828 N   0  0  0  0  0  0  0  0  0  0  0  0
   -4.9043    0.9538   -0.5976 C   0  0  0  0  0  0  0  0  0  0  0  0
   -6.1830   -1.0030    0.0634 C   0  0  0  0  0  0  0  0  0  0  0  0
   -3.7924    0.9203    0.2781 C   0  0  0  0  0  0  0  0  0  0  0  0
   -4.9034    2.5540   -1.3296 S   0  0  0  0  0  0  0  0  0  0  0  0
   -6.9925   -1.9205   -0.2202 O   0  0  0  0  0  0  0  0  0  0  0  0
   -5.6796   -0.9995    1.4579 C   0  0  2  0  0  0  0  0  0  0  0  0
   -3.4309   -0.2125    1.0213 C   0  0  0  0  0  0  0  0  0  0  0  0
   -3.0354    2.1182    0.3090 C   0  0  0  0  0  0  0  0  0  0  0  0
   -3.4654    3.1479   -0.5317 C   0  0  0  0  0  0  0  0  0  0  0  0
   -4.2924   -1.0410    1.5058 N   0  0  0  0  0  0  0  0  0  0  0  0
   -2.0979   -0.5191    1.2843 C   0  0  0  0  0  0  0  0  0  0  0  0
   -2.8534    4.4780   -0.7154 C   0  0  2  0  0  0  0  0  0  0  0  0
   -1.1535   -0.7671    0.2479 C   0  0  0  0  0  0  0  0  0  0  0  0
   -1.6679   -0.5800    2.6343 C   0  0  0  0  0  0  0  0  0  0  0  0
   -2.1360    4.6127   -2.0787 C   0  0  0  0  0  0  0  0  0  0  0  0
   -1.5636   -0.7262   -1.4010 Cl  0  0  0  0  0  0  0  0  0  0  0  0
    0.1832   -1.0732    0.5752 C   0  0  0  0  0  0  0  0  0  0  0  0
   -0.3338   -0.8853    2.9470 C   0  0  0  0  0  0  0  0  0  0  0  0
    0.5909   -1.1339    1.9184 C   0  0  0  0  0  0  0  0  0  0  0  0
   -5.8194    0.4106   -2.9579 H   0  0  0  0  0  0  0  0  0  0  0  0
   -6.5634   -1.1133   -2.5528 H   0  0  0  0  0  0  0  0  0  0  0  0
   -7.3990    0.3999   -2.1577 H   0  0  0  0  0  0  0  0  0  0  0  0
   -6.0528   -1.8630    2.0182 H   0  0  0  0  0  0  0  0  0  0  0  0
   -6.0328   -0.1022    1.9695 H   0  0  0  0  0  0  0  0  0  0  0  0
   -2.2101    2.2334    0.9026 H   0  0  0  0  0  0  0  0  0  0  0  0
   -2.1299    4.6654    0.0815 H   0  0  0  0  0  0  0  0  0  0  0  0
   -3.6333    5.2381   -0.6379 H   0  0  0  0  0  0  0  0  0  0  0  0
   -2.3186   -0.3913    3.4057 H   0  0  0  0  0  0  0  0  0  0  0  0
   -1.6864    5.6043   -2.1609 H   0  0  0  0  0  0  0  0  0  0  0  0
   -2.8394    4.4847   -2.9042 H   0  0  0  0  0  0  0  0  0  0  0  0
   -1.3428    3.8671   -2.1730 H   0  0  0  0  0  0  0  0  0  0  0  0
    0.8680   -1.2577   -0.1612 H   0  0  0  0  0  0  0  0  0  0  0  0
   -0.0390   -0.9275    3.9239 H   0  0  0  0  0  0  0  0  0  0  0  0
    1.5606   -1.3586    2.1468 H   0  0  0  0  0  0  0  0  0  0  0  0
  1  2  1  0  0  0  0 
  2  3  1  0  0  0  0 
  2  4  1  0  0  0  0 
  3  5  2  0  0  0  0 
  3  6  1  0  0  0  0 
  4  7  2  0  0  0  0 
  4  8  1  0  0  0  0 
  5  9  1  0  0  0  0 
  5 10  1  0  0  0  0 
  6 11  1  0  0  0  0 
  8 12  1  0  0  0  0 
  9 12  2  0  0  0  0 
  9 13  1  0  0  0  0 
 10 11  2  0  0  0  0 
 11 14  1  0  0  0  0 
 13 15  2  0  0  0  0 
 13 16  1  0  0  0  0 
 14 17  1  0  0  0  0 
 15 18  1  0  0  0  0 
 15 19  1  0  0  0  0 
 16 20  2  0  0  0  0 
 19 21  2  0  0  0  0 
 20 21  1  0  0  0  0 
  1 22  1  0  0  0  0 
  1 23  1  0  0  0  0 
  1 24  1  0  0  0  0 
  8 25  1  0  0  0  0 
  8 26  1  0  0  0  0 
 10 27  1  0  0  0  0 
 14 28  1  0  0  0  0 
 14 29  1  0  0  0  0 
 16 30  1  0  0  0  0 
 17 31  1  0  0  0  0 
 17 32  1  0  0  0  0 
 17 33  1  0  0  0  0 
 19 34  1  0  0  0  0 
 20 35  1  0  0  0  0 
 21 36  1  0  0  0  0 
M  END
> <cdk:Title>
clotiazepam

> <Conformer>
1

> <SuperDrugID>
SD000635

$$$$
