acetyldihydrocodeine
  CDK     0628171802

 50 54  0  0  0  0  0  0  0  0999 V2000
    3.1734   -4.0961    2.9601 O   0  0  0  0  0  0  0  0  0  0  0  0
    2.7128   -4.9331    1.9823 C   0  0  0  0  0  0  0  0  0  0  0  0
    4.1669   -3.0508    2.8654 C   0  0  2  0  0  0  0  0  0  0  0  0
    1.6366   -5.8792    2.3066 C   0  0  0  0  0  0  0  0  0  0  0  0
    3.1985   -4.9122    0.8279 O   0  0  0  0  0  0  0  0  0  0  0  0
    4.6253   -2.5720    4.2953 C   0  0  1  0  0  0  0  0  0  0  0  0
    3.6217   -1.8721    2.0100 C   0  0  1  0  0  0  0  0  0  0  0  0
    3.6870   -1.5259    4.9896 C   0  0  2  0  0  0  0  0  0  0  0  0
    4.6862   -3.7010    5.2112 O   0  0  0  0  0  0  0  0  0  0  0  0
    2.4365   -1.1672    2.7194 C   0  0  2  0  0  0  0  0  0  0  0  0
    2.7984   -2.4978    5.6137 C   0  0  0  0  0  0  0  0  0  0  0  0
    2.8951   -0.5410    4.0663 C   0  0  1  0  0  0  0  0  0  0  0  0
    4.3882   -0.6769    6.1134 C   0  0  1  0  0  0  0  0  0  0  0  0
    3.4522   -3.7076    5.7929 C   0  0  0  0  0  0  0  0  0  0  0  0
    1.4482   -2.2981    5.9471 C   0  0  0  0  0  0  0  0  0  0  0  0
    1.7483    0.0716    4.9471 C   0  0  1  0  0  0  0  0  0  0  0  0
    3.3935    0.2388    6.8898 C   0  0  1  0  0  0  0  0  0  0  0  0
    2.8028   -4.7629    6.4597 C   0  0  0  0  0  0  0  0  0  0  0  0
    0.7873   -1.0222    5.5553 C   0  0  2  0  0  0  0  0  0  0  0  0
    0.7801   -3.3671    6.5888 C   0  0  0  0  0  0  0  0  0  0  0  0
    2.4200    0.9332    5.9857 N   0  0  2  0  0  0  0  0  0  0  0  0
    3.4505   -5.9439    6.6924 O   0  0  0  0  0  0  0  0  0  0  0  0
    1.4564   -4.5817    6.8548 C   0  0  0  0  0  0  0  0  0  0  0  0
    1.5476    1.9259    6.6752 C   0  0  0  0  0  0  0  0  0  0  0  0
    4.1798   -5.9355    7.9330 C   0  0  0  0  0  0  0  0  0  0  0  0
    3.5694    0.2763    3.7796 H   0  0  0  0  0  0  0  0  0  0  0  0
    5.6299   -2.1472    4.1976 H   0  0  0  0  0  0  0  0  0  0  0  0
    1.1547    0.7248    4.2989 H   0  0  0  0  0  0  0  0  0  0  0  0
    5.0437   -3.4762    2.3663 H   0  0  0  0  0  0  0  0  0  0  0  0
    0.7432   -5.3244    2.5958 H   0  0  0  0  0  0  0  0  0  0  0  0
    1.3948   -6.5109    1.4488 H   0  0  0  0  0  0  0  0  0  0  0  0
    1.9489   -6.5167    3.1347 H   0  0  0  0  0  0  0  0  0  0  0  0
    4.4258   -1.1522    1.8279 H   0  0  0  0  0  0  0  0  0  0  0  0
    3.2888   -2.2373    1.0359 H   0  0  0  0  0  0  0  0  0  0  0  0
    1.6280   -1.8830    2.8805 H   0  0  0  0  0  0  0  0  0  0  0  0
    2.0551   -0.3757    2.0687 H   0  0  0  0  0  0  0  0  0  0  0  0
    4.9043   -1.3221    6.8310 H   0  0  0  0  0  0  0  0  0  0  0  0
    5.1503   -0.0413    5.6543 H   0  0  0  0  0  0  0  0  0  0  0  0
    2.8528   -0.3562    7.6317 H   0  0  0  0  0  0  0  0  0  0  0  0
    3.9771    0.9855    7.4364 H   0  0  0  0  0  0  0  0  0  0  0  0
    0.2643   -0.6146    6.4211 H   0  0  0  0  0  0  0  0  0  0  0  0
    0.0267   -1.2673    4.8098 H   0  0  0  0  0  0  0  0  0  0  0  0
   -0.2008   -3.2673    6.8597 H   0  0  0  0  0  0  0  0  0  0  0  0
    0.9625   -5.3409    7.3281 H   0  0  0  0  0  0  0  0  0  0  0  0
    0.9290    2.4628    5.9531 H   0  0  0  0  0  0  0  0  0  0  0  0
    0.8963    1.4479    7.4092 H   0  0  0  0  0  0  0  0  0  0  0  0
    2.1613    2.6658    7.1907 H   0  0  0  0  0  0  0  0  0  0  0  0
    4.6540   -6.9089    8.0547 H   0  0  0  0  0  0  0  0  0  0  0  0
    4.9647   -5.1750    7.9278 H   0  0  0  0  0  0  0  0  0  0  0  0
    3.5177   -5.7716    8.7874 H   0  0  0  0  0  0  0  0  0  0  0  0
  1  2  1  0  0  0  0 
  2  4  1  0  0  0  0 
  2  5  2  0  0  0  0 
  3  1  1  0  0  0  0 
  6  3  1  0  0  0  0 
  3  7  1  0  0  0  0 
  8  6  1  0  0  0  0 
  6  9  1  0  0  0  0 
  6 27  1  0  0  0  0 
  7 10  1  0  0  0  0 
  8 11  1  0  0  0  0 
 12  8  1  0  0  0  0 
  8 13  1  0  0  0  0 
  9 14  1  0  0  0  0 
 12 10  1  0  0  0  0 
 11 14  2  0  0  0  0 
 11 15  1  0  0  0  0 
 12 16  1  0  0  0  0 
 12 26  1  0  0  0  0 
 13 17  1  0  0  0  0 
 14 18  1  0  0  0  0 
 15 19  1  0  0  0  0 
 15 20  2  0  0  0  0 
 16 19  1  0  0  0  0 
 16 21  1  0  0  0  0 
 16 28  1  0  0  0  0 
 17 21  1  0  0  0  0 
 18 22  1  0  0  0  0 
 18 23  2  0  0  0  0 
 20 23  1  0  0  0  0 
 21 24  1  0  0  0  0 
 22 25  1  0  0  0  0 
  3 29  1  0  0  0  0 
  4 30  1  0  0  0  0 
  4 31  1  0  0  0  0 
  4 32  1  0  0  0  0 
  7 33  1  0  0  0  0 
  7 34  1  0  0  0  0 
 10 35  1  0  0  0  0 
 10 36  1  0  0  0  0 
 13 37  1  0  0  0  0 
 13 38  1  0  0  0  0 
 17 39  1  0  0  0  0 
 17 40  1  0  0  0  0 
 19 41  1  0  0  0  0 
 19 42  1  0  0  0  0 
 20 43  1  0  0  0  0 
 23 44  1  0  0  0  0 
 24 45  1  0  0  0  0 
 24 46  1  0  0  0  0 
 24 47  1  0  0  0  0 
 25 48  1  0  0  0  0 
 25 49  1  0  0  0  0 
 25 50  1  0  0  0  0 
M  END
> <cdk:Title>
acetyldihydrocodeine

> <Conformer>
1

> <SuperDrugID>
SD000046

$$$$
