docosanol
  CDK     0628171802

 69 68  0  0  0  0  0  0  0  0999 V2000
    0.0152    9.0648    7.2553 C   0  0  1  0  0  0  0  0  0  0  0  0
   -1.0387    9.9604    6.5507 C   0  0  1  0  0  0  0  0  0  0  0  0
   -0.3740    8.7515    8.7242 C   0  0  1  0  0  0  0  0  0  0  0  0
   -0.6379   10.2667    5.0820 C   0  0  1  0  0  0  0  0  0  0  0  0
    0.6719    7.8567    9.4396 C   0  0  2  0  0  0  0  0  0  0  0  0
   -1.6805   11.1617    4.3605 C   0  0  1  0  0  0  0  0  0  0  0  0
    0.2804    7.5442   10.9099 C   0  0  1  0  0  0  0  0  0  0  0  0
   -1.2863   11.4726    2.8901 C   0  0  1  0  0  0  0  0  0  0  0  0
    1.3231    6.6487   11.6324 C   0  0  1  0  0  0  0  0  0  0  0  0
   -2.3247   12.3685    2.1597 C   0  0  2  0  0  0  0  0  0  0  0  0
    0.9335    6.3342   13.1050 C   0  0  1  0  0  0  0  0  0  0  0  0
   -1.9326   12.6814    0.6872 C   0  0  2  0  0  0  0  0  0  0  0  0
    1.9763    5.4382   13.8286 C   0  0  1  0  0  0  0  0  0  0  0  0
   -2.9773   13.5785   -0.0363 C   0  0  2  0  0  0  0  0  0  0  0  0
    1.5894    5.1221   15.3011 C   0  0  2  0  0  0  0  0  0  0  0  0
   -2.5996   13.9003   -1.5095 C   0  0  1  0  0  0  0  0  0  0  0  0
    2.6381    4.2258   16.0160 C   0  0  2  0  0  0  0  0  0  0  0  0
   -3.6533   14.7975   -2.2187 C   0  0  1  0  0  0  0  0  0  0  0  0
    2.2607    3.9045   17.4875 C   0  0  1  0  0  0  0  0  0  0  0  0
   -3.2748   15.1186   -3.6912 C   0  0  2  0  0  0  0  0  0  0  0  0
    3.3082    3.0120   18.1940 C   0  0  2  0  0  0  0  0  0  0  0  0
   -4.3179   16.0102   -4.4025 C   0  0  0  0  0  0  0  0  0  0  0  0
    2.9050    2.7552   19.5339 O   0  0  0  0  0  0  0  0  0  0  0  0
    0.1143    8.1234    6.7045 H   0  0  0  0  0  0  0  0  0  0  0  0
    0.9851    9.5731    7.2445 H   0  0  0  0  0  0  0  0  0  0  0  0
   -2.0074    9.3653    6.5135 H   0  0  0  0  0  0  0  0  0  0  0  0
   -1.0533   10.9535    7.1051 H   0  0  0  0  0  0  0  0  0  0  0  0
   -0.4759    9.6916    9.2737 H   0  0  0  0  0  0  0  0  0  0  0  0
   -1.3440    8.2464    8.7354 H   0  0  0  0  0  0  0  0  0  0  0  0
    0.3331   10.7727    5.0747 H   0  0  0  0  0  0  0  0  0  0  0  0
   -0.5376    9.3234    4.5349 H   0  0  0  0  0  0  0  0  0  0  0  0
    1.6409    8.3632    9.4271 H   0  0  0  0  0  0  0  0  0  0  0  0
    0.7724    6.9175    8.8886 H   0  0  0  0  0  0  0  0  0  0  0  0
   -2.6507   10.6571    4.3718 H   0  0  0  0  0  0  0  0  0  0  0  0
   -1.7828   12.1018    4.9099 H   0  0  0  0  0  0  0  0  0  0  0  0
    0.1784    8.4858   11.4569 H   0  0  0  0  0  0  0  0  0  0  0  0
   -0.6902    7.0400   10.9184 H   0  0  0  0  0  0  0  0  0  0  0  0
   -0.3157   11.9756    2.8838 H   0  0  0  0  0  0  0  0  0  0  0  0
   -1.1840   10.5303    2.3455 H   0  0  0  0  0  0  0  0  0  0  0  0
    1.4244    5.7087   11.0825 H   0  0  0  0  0  0  0  0  0  0  0  0
    2.2928    7.1542   11.6209 H   0  0  0  0  0  0  0  0  0  0  0  0
   -2.4271   13.3099    2.7069 H   0  0  0  0  0  0  0  0  0  0  0  0
   -3.2953   11.8646    2.1686 H   0  0  0  0  0  0  0  0  0  0  0  0
    0.8317    7.2750   13.6527 H   0  0  0  0  0  0  0  0  0  0  0  0
   -0.0366    5.8298   13.1144 H   0  0  0  0  0  0  0  0  0  0  0  0
   -1.8306   11.7408    0.1386 H   0  0  0  0  0  0  0  0  0  0  0  0
   -0.9624   13.1861    0.6769 H   0  0  0  0  0  0  0  0  0  0  0  0
    2.0778    4.4983   13.2794 H   0  0  0  0  0  0  0  0  0  0  0  0
    2.9459    5.9433   13.8176 H   0  0  0  0  0  0  0  0  0  0  0  0
   -3.0782   14.5173    0.5152 H   0  0  0  0  0  0  0  0  0  0  0  0
   -3.9464   13.0722   -0.0231 H   0  0  0  0  0  0  0  0  0  0  0  0
    0.6205    4.6161   15.3139 H   0  0  0  0  0  0  0  0  0  0  0  0
    1.4885    6.0609   15.8521 H   0  0  0  0  0  0  0  0  0  0  0  0
   -1.6317   14.4089   -1.5261 H   0  0  0  0  0  0  0  0  0  0  0  0
   -2.5001   12.9635   -2.0645 H   0  0  0  0  0  0  0  0  0  0  0  0
    3.6071    4.7319   16.0028 H   0  0  0  0  0  0  0  0  0  0  0  0
    2.7392    3.2872   15.4647 H   0  0  0  0  0  0  0  0  0  0  0  0
   -4.6216   14.2902   -2.2037 H   0  0  0  0  0  0  0  0  0  0  0  0
   -3.7536   15.7351   -1.6655 H   0  0  0  0  0  0  0  0  0  0  0  0
    2.1632    4.8381   18.0486 H   0  0  0  0  0  0  0  0  0  0  0  0
    1.2947    3.3924   17.5101 H   0  0  0  0  0  0  0  0  0  0  0  0
   -3.1764   14.1856   -4.2513 H   0  0  0  0  0  0  0  0  0  0  0  0
   -2.3091   15.6293   -3.7136 H   0  0  0  0  0  0  0  0  0  0  0  0
    4.2803    3.5092   18.2183 H   0  0  0  0  0  0  0  0  0  0  0  0
    3.4068    2.0553   17.6767 H   0  0  0  0  0  0  0  0  0  0  0  0
   -4.0010   16.2018   -5.4280 H   0  0  0  0  0  0  0  0  0  0  0  0
   -5.2904   15.5154   -4.4261 H   0  0  0  0  0  0  0  0  0  0  0  0
   -4.4188   16.9662   -3.8857 H   0  0  0  0  0  0  0  0  0  0  0  0
    3.6168    2.1904   19.9019 H   0  0  0  0  0  0  0  0  0  0  0  0
  1  2  1  0  0  0  0 
  1  3  1  0  0  0  0 
  2  4  1  0  0  0  0 
  3  5  1  0  0  0  0 
  4  6  1  0  0  0  0 
  5  7  1  0  0  0  0 
  6  8  1  0  0  0  0 
  7  9  1  0  0  0  0 
  8 10  1  0  0  0  0 
  9 11  1  0  0  0  0 
 10 12  1  0  0  0  0 
 11 13  1  0  0  0  0 
 12 14  1  0  0  0  0 
 13 15  1  0  0  0  0 
 14 16  1  0  0  0  0 
 15 17  1  0  0  0  0 
 16 18  1  0  0  0  0 
 17 19  1  0  0  0  0 
 18 20  1  0  0  0  0 
 19 21  1  0  0  0  0 
 20 22  1  0  0  0  0 
 21 23  1  0  0  0  0 
  1 24  1  0  0  0  0 
  1 25  1  0  0  0  0 
  2 26  1  0  0  0  0 
  2 27  1  0  0  0  0 
  3 28  1  0  0  0  0 
  3 29  1  0  0  0  0 
  4 30  1  0  0  0  0 
  4 31  1  0  0  0  0 
  5 32  1  0  0  0  0 
  5 33  1  0  0  0  0 
  6 34  1  0  0  0  0 
  6 35  1  0  0  0  0 
  7 36  1  0  0  0  0 
  7 37  1  0  0  0  0 
  8 38  1  0  0  0  0 
  8 39  1  0  0  0  0 
  9 40  1  0  0  0  0 
  9 41  1  0  0  0  0 
 10 42  1  0  0  0  0 
 10 43  1  0  0  0  0 
 11 44  1  0  0  0  0 
 11 45  1  0  0  0  0 
 12 46  1  0  0  0  0 
 12 47  1  0  0  0  0 
 13 48  1  0  0  0  0 
 13 49  1  0  0  0  0 
 14 50  1  0  0  0  0 
 14 51  1  0  0  0  0 
 15 52  1  0  0  0  0 
 15 53  1  0  0  0  0 
 16 54  1  0  0  0  0 
 16 55  1  0  0  0  0 
 17 56  1  0  0  0  0 
 17 57  1  0  0  0  0 
 18 58  1  0  0  0  0 
 18 59  1  0  0  0  0 
 19 60  1  0  0  0  0 
 19 61  1  0  0  0  0 
 20 62  1  0  0  0  0 
 20 63  1  0  0  0  0 
 21 64  1  0  0  0  0 
 21 65  1  0  0  0  0 
 22 66  1  0  0  0  0 
 22 67  1  0  0  0  0 
 22 68  1  0  0  0  0 
 23 69  1  0  0  0  0 
M  END
> <cdk:Title>
docosanol

> <Conformer>
1

> <SuperDrugID>
SD000835

$$$$
