xibornol
  CDK     0628171801

 45 47  0  0  0  0  0  0  0  0999 V2000
    2.8585   -1.4139    3.5470 C   0  0  0  0  0  0  0  0  0  0  0  0
    2.1252   -0.8236    2.3017 C   0  0  2  0  0  0  0  0  0  0  0  0
    3.0344   -0.3517    1.0771 C   0  0  1  0  0  0  0  0  0  0  0  0
    1.1105    0.3543    2.5618 C   0  0  2  0  0  0  0  0  0  0  0  0
    1.1700   -1.9477    1.7188 C   0  0  2  0  0  0  0  0  0  0  0  0
    1.9929    0.4685    0.2453 C   0  0  2  0  0  0  0  0  0  0  0  0
    4.3590    0.3783    1.1593 C   0  0  0  0  0  0  0  0  0  0  0  0
    1.6939    1.7491    3.0043 C   0  0  0  0  0  0  0  0  0  0  0  0
   -0.0355    0.0777    3.6168 C   0  0  0  0  0  0  0  0  0  0  0  0
    0.6736    0.3001    1.0618 C   0  0  1  0  0  0  0  0  0  0  0  0
    0.1712   -1.1541    0.8411 C   0  0  2  0  0  0  0  0  0  0  0  0
    5.1530    0.4742   -0.0159 C   0  0  0  0  0  0  0  0  0  0  0  0
    4.8636    1.0188    2.3159 C   0  0  0  0  0  0  0  0  0  0  0  0
    4.7780   -0.0972   -1.1901 O   0  0  0  0  0  0  0  0  0  0  0  0
    6.3714    1.1750   -0.0249 C   0  0  0  0  0  0  0  0  0  0  0  0
    6.0713    1.7563    2.3236 C   0  0  0  0  0  0  0  0  0  0  0  0
    6.8427    1.8301    1.1324 C   0  0  0  0  0  0  0  0  0  0  0  0
    6.5015    2.4405    3.5747 C   0  0  0  0  0  0  0  0  0  0  0  0
    8.1214    2.5873    1.0731 C   0  0  0  0  0  0  0  0  0  0  0  0
    3.6233   -2.1264    3.2290 H   0  0  0  0  0  0  0  0  0  0  0  0
    3.3194   -0.6450    4.1571 H   0  0  0  0  0  0  0  0  0  0  0  0
    2.1563   -1.9371    4.2005 H   0  0  0  0  0  0  0  0  0  0  0  0
    3.2900   -1.2602    0.5222 H   0  0  0  0  0  0  0  0  0  0  0  0
    0.6332   -2.4974    2.4960 H   0  0  0  0  0  0  0  0  0  0  0  0
    1.7038   -2.7007    1.1325 H   0  0  0  0  0  0  0  0  0  0  0  0
    1.8955    0.0832   -0.7744 H   0  0  0  0  0  0  0  0  0  0  0  0
    2.2495    1.5274    0.1587 H   0  0  0  0  0  0  0  0  0  0  0  0
    0.8980    2.4943    3.0682 H   0  0  0  0  0  0  0  0  0  0  0  0
    2.1599    1.6706    3.9899 H   0  0  0  0  0  0  0  0  0  0  0  0
    2.4305    2.1573    2.3207 H   0  0  0  0  0  0  0  0  0  0  0  0
   -0.8271    0.8230    3.5122 H   0  0  0  0  0  0  0  0  0  0  0  0
    0.3577    0.1349    4.6361 H   0  0  0  0  0  0  0  0  0  0  0  0
   -0.5117   -0.8947    3.5252 H   0  0  0  0  0  0  0  0  0  0  0  0
   -0.0803    1.0450    0.7907 H   0  0  0  0  0  0  0  0  0  0  0  0
   -0.8600   -1.2747    1.1834 H   0  0  0  0  0  0  0  0  0  0  0  0
    0.2178   -1.4605   -0.2086 H   0  0  0  0  0  0  0  0  0  0  0  0
    4.3390    0.9796    3.1780 H   0  0  0  0  0  0  0  0  0  0  0  0
    4.8285   -1.0630   -1.0307 H   0  0  0  0  0  0  0  0  0  0  0  0
    6.9113    1.2065   -0.8945 H   0  0  0  0  0  0  0  0  0  0  0  0
    6.6425    3.5063    3.3892 H   0  0  0  0  0  0  0  0  0  0  0  0
    7.4413    2.0111    3.9227 H   0  0  0  0  0  0  0  0  0  0  0  0
    5.7739    2.3448    4.3821 H   0  0  0  0  0  0  0  0  0  0  0  0
    8.6081    2.5122    0.0992 H   0  0  0  0  0  0  0  0  0  0  0  0
    7.9335    3.6440    1.2713 H   0  0  0  0  0  0  0  0  0  0  0  0
    8.8137    2.2012    1.8221 H   0  0  0  0  0  0  0  0  0  0  0  0
  2  1  1  0  0  0  0 
  3  2  1  0  0  0  0 
  2  4  1  0  0  0  0 
  2  5  1  0  0  0  0 
  3  6  1  0  0  0  0 
  3  7  1  0  0  0  0 
  4  8  1  0  0  0  0 
  4  9  1  0  0  0  0 
  5 11  1  0  0  0  0 
 10  6  1  0  0  0  0 
  7 12  2  0  0  0  0 
  7 13  1  0  0  0  0 
 10  4  1  0  0  0  0 
 10 11  1  0  0  0  0 
 12 14  1  0  0  0  0 
 12 15  1  0  0  0  0 
 13 16  2  0  0  0  0 
 15 17  2  0  0  0  0 
 16 17  1  0  0  0  0 
 16 18  1  0  0  0  0 
 17 19  1  0  0  0  0 
  1 20  1  0  0  0  0 
  1 21  1  0  0  0  0 
  1 22  1  0  0  0  0 
  3 23  1  0  0  0  0 
  5 24  1  0  0  0  0 
  5 25  1  0  0  0  0 
  6 26  1  0  0  0  0 
  6 27  1  0  0  0  0 
  8 28  1  0  0  0  0 
  8 29  1  0  0  0  0 
  8 30  1  0  0  0  0 
  9 31  1  0  0  0  0 
  9 32  1  0  0  0  0 
  9 33  1  0  0  0  0 
 10 34  1  0  0  0  0 
 11 35  1  0  0  0  0 
 11 36  1  0  0  0  0 
 13 37  1  0  0  0  0 
 14 38  1  0  0  0  0 
 15 39  1  0  0  0  0 
 18 40  1  0  0  0  0 
 18 41  1  0  0  0  0 
 18 42  1  0  0  0  0 
 19 43  1  0  0  0  0 
 19 44  1  0  0  0  0 
 19 45  1  0  0  0  0 
M  END
> <cdk:Title>
xibornol

> <Conformer>
1

> <SuperDrugID>
SD002568

$$$$
