nalorphine
  CDK     0628171801

 44 48  0  0  0  0  0  0  0  0999 V2000
   -1.0495   -5.7257   -5.0028 O   0  0  0  0  0  0  0  0  0  0  0  0
    0.1375   -4.9306   -4.9272 C   0  0  2  0  0  0  0  0  0  0  0  0
    1.0034   -5.2997   -3.6595 C   0  0  1  0  0  0  0  0  0  0  0  0
   -0.2640   -3.5373   -5.0797 C   0  0  0  0  0  0  0  0  0  0  0  0
    1.1537   -4.1383   -2.6261 C   0  0  2  0  0  0  0  0  0  0  0  0
    0.4286   -6.4083   -2.9084 O   0  0  0  0  0  0  0  0  0  0  0  0
    0.1324   -2.5248   -4.2923 C   0  0  0  0  0  0  0  0  0  0  0  0
   -0.0409   -4.4607   -1.8494 C   0  0  0  0  0  0  0  0  0  0  0  0
    1.0739   -2.6836   -3.1943 C   0  0  1  0  0  0  0  0  0  0  0  0
    2.4257   -4.2441   -1.7165 C   0  0  1  0  0  0  0  0  0  0  0  0
   -0.3689   -5.7997   -1.9886 C   0  0  0  0  0  0  0  0  0  0  0  0
   -0.8290   -3.5548   -1.1200 C   0  0  0  0  0  0  0  0  0  0  0  0
    0.8251   -1.7436   -1.9581 C   0  0  1  0  0  0  0  0  0  0  0  0
    2.4370   -3.1652   -0.5936 C   0  0  1  0  0  0  0  0  0  0  0  0
   -1.4442   -6.3428   -1.2646 C   0  0  0  0  0  0  0  0  0  0  0  0
   -0.5168   -2.1010   -1.2071 C   0  0  2  0  0  0  0  0  0  0  0  0
   -1.9298   -4.0881   -0.4083 C   0  0  0  0  0  0  0  0  0  0  0  0
    2.0607   -1.7956   -1.0883 N   0  0  2  0  0  0  0  0  0  0  0  0
   -1.7213   -7.6663   -1.3648 O   0  0  0  0  0  0  0  0  0  0  0  0
   -2.2169   -5.4735   -0.4597 C   0  0  0  0  0  0  0  0  0  0  0  0
    2.1879   -0.6854   -0.0859 C   0  0  1  0  0  0  0  0  0  0  0  0
    3.5343   -0.5570    0.4508 C   0  0  0  0  0  0  0  0  0  0  0  0
    3.8420   -0.7572    1.7385 C   0  0  0  0  0  0  0  0  0  0  0  0
    2.0459   -2.4170   -3.6250 H   0  0  0  0  0  0  0  0  0  0  0  0
    1.9950   -5.6079   -4.0072 H   0  0  0  0  0  0  0  0  0  0  0  0
    0.7361   -0.7185   -2.3350 H   0  0  0  0  0  0  0  0  0  0  0  0
   -1.5866   -5.4773   -4.2205 H   0  0  0  0  0  0  0  0  0  0  0  0
    0.7164   -5.1827   -5.8183 H   0  0  0  0  0  0  0  0  0  0  0  0
   -0.8763   -3.3173   -5.8317 H   0  0  0  0  0  0  0  0  0  0  0  0
   -0.2023   -1.6096   -4.4963 H   0  0  0  0  0  0  0  0  0  0  0  0
    2.5027   -5.2369   -1.2579 H   0  0  0  0  0  0  0  0  0  0  0  0
    3.3139   -4.1062   -2.3423 H   0  0  0  0  0  0  0  0  0  0  0  0
    1.7648   -3.4659    0.2138 H   0  0  0  0  0  0  0  0  0  0  0  0
    3.4474   -3.1516   -0.1797 H   0  0  0  0  0  0  0  0  0  0  0  0
   -0.5151   -1.6769   -0.2038 H   0  0  0  0  0  0  0  0  0  0  0  0
   -1.3431   -1.6309   -1.7467 H   0  0  0  0  0  0  0  0  0  0  0  0
   -2.5306   -3.4715    0.1422 H   0  0  0  0  0  0  0  0  0  0  0  0
   -2.4679   -7.8276   -0.7521 H   0  0  0  0  0  0  0  0  0  0  0  0
   -3.0008   -5.8450    0.0790 H   0  0  0  0  0  0  0  0  0  0  0  0
    1.9592    0.2691   -0.5678 H   0  0  0  0  0  0  0  0  0  0  0  0
    1.4552   -0.8230    0.7141 H   0  0  0  0  0  0  0  0  0  0  0  0
    4.2665   -0.3187   -0.1794 H   0  0  0  0  0  0  0  0  0  0  0  0
    3.1456   -0.9974    2.4058 H   0  0  0  0  0  0  0  0  0  0  0  0
    4.7818   -0.6737    2.0435 H   0  0  0  0  0  0  0  0  0  0  0  0
  2  1  1  0  0  0  0 
  3  2  1  0  0  0  0 
  2  4  1  0  0  0  0 
  5  3  1  0  0  0  0 
  3  6  1  0  0  0  0 
  3 25  1  0  0  0  0 
  4  7  2  0  0  0  0 
  5  8  1  0  0  0  0 
  9  5  1  0  0  0  0 
  5 10  1  0  0  0  0 
  6 11  1  0  0  0  0 
  9  7  1  0  0  0  0 
  8 11  2  0  0  0  0 
  8 12  1  0  0  0  0 
 13  9  1  0  0  0  0 
  9 24  1  0  0  0  0 
 10 14  1  0  0  0  0 
 11 15  1  0  0  0  0 
 12 16  1  0  0  0  0 
 12 17  2  0  0  0  0 
 13 16  1  0  0  0  0 
 13 18  1  0  0  0  0 
 13 26  1  0  0  0  0 
 14 18  1  0  0  0  0 
 15 19  1  0  0  0  0 
 15 20  2  0  0  0  0 
 17 20  1  0  0  0  0 
 18 21  1  0  0  0  0 
 21 22  1  0  0  0  0 
 22 23  2  0  0  0  0 
  1 27  1  0  0  0  0 
  2 28  1  0  0  0  0 
  4 29  1  0  0  0  0 
  7 30  1  0  0  0  0 
 10 31  1  0  0  0  0 
 10 32  1  0  0  0  0 
 14 33  1  0  0  0  0 
 14 34  1  0  0  0  0 
 16 35  1  0  0  0  0 
 16 36  1  0  0  0  0 
 17 37  1  0  0  0  0 
 19 38  1  0  0  0  0 
 20 39  1  0  0  0  0 
 21 40  1  0  0  0  0 
 21 41  1  0  0  0  0 
 22 42  1  0  0  0  0 
 23 43  1  0  0  0  0 
 23 44  1  0  0  0  0 
M  END
> <cdk:Title>
nalorphine

> <Conformer>
1

> <SuperDrugID>
SD001673

$$$$
