sulfinpyrazone
  CDK     0628171801

 49 52  0  0  0  0  0  0  0  0999 V2000
    1.2003    0.6355   -2.3072 O   0  0  0  0  0  0  0  0  0  0  0  0
    0.0059    0.2672   -2.8382 C   0  0  0  0  0  0  0  0  0  0  0  0
   -0.9406    1.0832   -3.3504 N   0  0  0  0  0  0  0  0  0  0  0  0
   -0.4485   -1.0401   -2.9462 C   0  0  0  0  0  0  0  0  0  0  0  0
   -1.9142    0.3610   -3.8557 N   0  0  0  0  0  0  0  0  0  0  0  0
   -0.8522    2.4482   -3.3201 C   0  0  0  0  0  0  0  0  0  0  0  0
    0.2118   -2.2667   -2.4527 C   0  0  2  0  0  0  0  0  0  0  0  0
   -1.6665   -0.9444   -3.6071 C   0  0  0  0  0  0  0  0  0  0  0  0
   -3.0101    0.8159   -4.5444 C   0  0  0  0  0  0  0  0  0  0  0  0
   -0.8301    3.1392   -2.0863 C   0  0  0  0  0  0  0  0  0  0  0  0
   -0.7909    3.1829   -4.5242 C   0  0  0  0  0  0  0  0  0  0  0  0
   -0.3014   -2.6984   -1.0565 C   0  0  2  0  0  0  0  0  0  0  0  0
   -2.3951   -1.9165   -3.9161 O   0  0  0  0  0  0  0  0  0  0  0  0
   -3.9464    1.6738   -3.9233 C   0  0  0  0  0  0  0  0  0  0  0  0
   -3.2128    0.4397   -5.8920 C   0  0  0  0  0  0  0  0  0  0  0  0
   -0.7561    4.5445   -2.0598 C   0  0  0  0  0  0  0  0  0  0  0  0
   -0.7137    4.5873   -4.4962 C   0  0  0  0  0  0  0  0  0  0  0  0
    0.0682   -1.5024    0.2906 S   0  0  1  0  0  0  0  0  0  0  0  0
   -5.0537    2.1603   -4.6431 C   0  0  0  0  0  0  0  0  0  0  0  0
   -4.3190    0.9278   -6.6116 C   0  0  0  0  0  0  0  0  0  0  0  0
   -0.6966    5.2680   -3.2649 C   0  0  0  0  0  0  0  0  0  0  0  0
   -0.3825   -2.2707    1.6265 O   0  0  0  0  0  0  0  0  0  0  0  0
    1.8239   -1.3182    0.4232 C   0  0  0  0  0  0  0  0  0  0  0  0
   -5.2338    1.7971   -5.9904 C   0  0  0  0  0  0  0  0  0  0  0  0
    2.6820   -2.4371    0.4793 C   0  0  0  0  0  0  0  0  0  0  0  0
    2.3767   -0.0214    0.5030 C   0  0  0  0  0  0  0  0  0  0  0  0
    4.0718   -2.2610    0.6124 C   0  0  0  0  0  0  0  0  0  0  0  0
    3.7669    0.1559    0.6320 C   0  0  0  0  0  0  0  0  0  0  0  0
    4.6142   -0.9655    0.6905 C   0  0  0  0  0  0  0  0  0  0  0  0
    1.2424    1.6097   -2.3996 H   0  0  0  0  0  0  0  0  0  0  0  0
    1.2932   -2.1208   -2.4193 H   0  0  0  0  0  0  0  0  0  0  0  0
    0.0175   -3.0760   -3.1613 H   0  0  0  0  0  0  0  0  0  0  0  0
   -0.8778    2.6230   -1.2037 H   0  0  0  0  0  0  0  0  0  0  0  0
   -0.8006    2.6979   -5.4245 H   0  0  0  0  0  0  0  0  0  0  0  0
    0.1374   -3.6638   -0.7997 H   0  0  0  0  0  0  0  0  0  0  0  0
   -1.3856   -2.8296   -1.0926 H   0  0  0  0  0  0  0  0  0  0  0  0
   -3.8283    1.9431   -2.9439 H   0  0  0  0  0  0  0  0  0  0  0  0
   -2.5504   -0.1853   -6.3579 H   0  0  0  0  0  0  0  0  0  0  0  0
   -0.7495    5.0396   -1.1652 H   0  0  0  0  0  0  0  0  0  0  0  0
   -0.6713    5.1128   -5.3718 H   0  0  0  0  0  0  0  0  0  0  0  0
   -5.7296    2.7771   -4.1871 H   0  0  0  0  0  0  0  0  0  0  0  0
   -4.4570    0.6519   -7.5864 H   0  0  0  0  0  0  0  0  0  0  0  0
   -0.6426    6.2885   -3.2460 H   0  0  0  0  0  0  0  0  0  0  0  0
   -6.0302    2.1624   -6.5177 H   0  0  0  0  0  0  0  0  0  0  0  0
    2.3017   -3.3840    0.4301 H   0  0  0  0  0  0  0  0  0  0  0  0
    1.7726    0.8043    0.4714 H   0  0  0  0  0  0  0  0  0  0  0  0
    4.6879   -3.0753    0.6539 H   0  0  0  0  0  0  0  0  0  0  0  0
    4.1618    1.0976    0.6830 H   0  0  0  0  0  0  0  0  0  0  0  0
    5.6245   -0.8389    0.7908 H   0  0  0  0  0  0  0  0  0  0  0  0
  1  2  1  0  0  0  0 
  2  3  1  0  0  0  0 
  2  4  2  0  0  0  0 
  3  5  1  0  0  0  0 
  3  6  1  0  0  0  0 
  4  7  1  0  0  0  0 
  4  8  1  0  0  0  0 
  5  8  1  0  0  0  0 
  5  9  1  0  0  0  0 
  6 10  2  0  0  0  0 
  6 11  1  0  0  0  0 
  7 12  1  0  0  0  0 
  8 13  2  0  0  0  0 
  9 14  2  0  0  0  0 
  9 15  1  0  0  0  0 
 10 16  1  0  0  0  0 
 11 17  2  0  0  0  0 
 12 18  1  0  0  0  0 
 14 19  1  0  0  0  0 
 15 20  2  0  0  0  0 
 16 21  2  0  0  0  0 
 17 21  1  0  0  0  0 
 18 22  2  0  0  0  0 
 18 23  1  0  0  0  0 
 19 24  2  0  0  0  0 
 20 24  1  0  0  0  0 
 23 25  2  0  0  0  0 
 23 26  1  0  0  0  0 
 25 27  1  0  0  0  0 
 26 28  2  0  0  0  0 
 27 29  2  0  0  0  0 
 28 29  1  0  0  0  0 
 30  1  1  0  0  0  0 
 31  7  1  0  0  0  0 
 32  7  1  0  0  0  0 
 33 10  1  0  0  0  0 
 34 11  1  0  0  0  0 
 35 12  1  0  0  0  0 
 36 12  1  0  0  0  0 
 37 14  1  0  0  0  0 
 38 15  1  0  0  0  0 
 39 16  1  0  0  0  0 
 40 17  1  0  0  0  0 
 41 19  1  0  0  0  0 
 42 20  1  0  0  0  0 
 43 21  1  0  0  0  0 
 44 24  1  0  0  0  0 
 45 25  1  0  0  0  0 
 46 26  1  0  0  0  0 
 47 27  1  0  0  0  0 
 48 28  1  0  0  0  0 
 49 29  1  0  0  0  0 
M  END
> <cdk:Title>
sulfinpyrazone

> <Conformer>
1

> <SuperDrugID>
SD002274

$$$$
