propanol
  CDK     0628171801

 12 11  0  0  0  0  0  0  0  0999 V2000
    0.8131   -0.6437   -0.7447 C   0  0  0  0  0  0  0  0  0  0  0  0
    0.8666    0.3329    0.4506 C   0  0  1  0  0  0  0  0  0  0  0  0
    1.7823    1.5461    0.1739 C   0  0  1  0  0  0  0  0  0  0  0  0
    1.8057    2.4200    1.2942 O   0  0  0  0  0  0  0  0  0  0  0  0
    0.4267   -0.1356   -1.6327 H   0  0  0  0  0  0  0  0  0  0  0  0
    0.1573   -1.4864   -0.5117 H   0  0  0  0  0  0  0  0  0  0  0  0
    1.8126   -1.0294   -0.9645 H   0  0  0  0  0  0  0  0  0  0  0  0
   -0.1455    0.6877    0.6663 H   0  0  0  0  0  0  0  0  0  0  0  0
    1.2339   -0.2018    1.3314 H   0  0  0  0  0  0  0  0  0  0  0  0
    2.8047    1.2115   -0.0209 H   0  0  0  0  0  0  0  0  0  0  0  0
    1.4164    2.1068   -0.6903 H   0  0  0  0  0  0  0  0  0  0  0  0
    2.4052    3.1481    1.0245 H   0  0  0  0  0  0  0  0  0  0  0  0
  1  2  1  0  0  0  0 
  2  3  1  0  0  0  0 
  3  4  1  0  0  0  0 
  1  5  1  0  0  0  0 
  1  6  1  0  0  0  0 
  1  7  1  0  0  0  0 
  2  8  1  0  0  0  0 
  2  9  1  0  0  0  0 
  3 10  1  0  0  0  0 
  3 11  1  0  0  0  0 
  4 12  1  0  0  0  0 
M  END
> <cdk:Title>
propanol

> <Conformer>
1

> <SuperDrugID>
SD003504

$$$$
