chlorphenamine
  CDK     0628171802

 38 39  0  0  0  0  0  0  0  0999 V2000
    0.7380    2.7926    0.8267 C   0  0  1  0  0  0  0  0  0  0  0  0
   -0.2960    1.9109    0.0473 C   0  0  2  0  0  0  0  0  0  0  0  0
    2.1515    2.2893    0.8306 C   0  0  0  0  0  0  0  0  0  0  0  0
    0.7050    4.2257    0.4102 C   0  0  0  0  0  0  0  0  0  0  0  0
   -1.7885    2.2783    0.3037 C   0  0  2  0  0  0  0  0  0  0  0  0
    2.9486    2.4492    1.9938 C   0  0  0  0  0  0  0  0  0  0  0  0
    2.7428    1.6616   -0.2941 C   0  0  0  0  0  0  0  0  0  0  0  0
    0.2509    5.2395    1.2875 C   0  0  0  0  0  0  0  0  0  0  0  0
    1.1141    4.5889   -0.8397 N   0  0  0  0  0  0  0  0  0  0  0  0
   -2.1584    2.4191    1.7521 N   0  0  2  0  0  0  0  0  0  0  0  0
    4.2677    1.9662    2.0483 C   0  0  0  0  0  0  0  0  0  0  0  0
    4.0632    1.1777   -0.2439 C   0  0  0  0  0  0  0  0  0  0  0  0
    0.2185    6.5767    0.8532 C   0  0  0  0  0  0  0  0  0  0  0  0
    1.1065    5.8731   -1.2859 C   0  0  0  0  0  0  0  0  0  0  0  0
   -2.1379    1.1462    2.5355 C   0  0  0  0  0  0  0  0  0  0  0  0
   -3.4340    3.1634    1.9564 C   0  0  0  0  0  0  0  0  0  0  0  0
    4.8279    1.3228    0.9293 C   0  0  0  0  0  0  0  0  0  0  0  0
    0.6499    6.9025   -0.4437 C   0  0  0  0  0  0  0  0  0  0  0  0
    6.4131    0.7336    0.9926 Cl  0  0  0  0  0  0  0  0  0  0  0  0
    0.4059    2.7276    1.8667 H   0  0  0  0  0  0  0  0  0  0  0  0
   -0.1521    0.8646    0.3271 H   0  0  0  0  0  0  0  0  0  0  0  0
   -0.1131    1.9801   -1.0287 H   0  0  0  0  0  0  0  0  0  0  0  0
   -2.4314    1.5321   -0.1756 H   0  0  0  0  0  0  0  0  0  0  0  0
   -1.9648    3.2276   -0.2100 H   0  0  0  0  0  0  0  0  0  0  0  0
    2.5705    2.9223    2.8191 H   0  0  0  0  0  0  0  0  0  0  0  0
    2.2181    1.5468   -1.1627 H   0  0  0  0  0  0  0  0  0  0  0  0
   -0.0593    5.0146    2.2357 H   0  0  0  0  0  0  0  0  0  0  0  0
    4.8123    2.0868    2.9058 H   0  0  0  0  0  0  0  0  0  0  0  0
    4.4625    0.7192   -1.0662 H   0  0  0  0  0  0  0  0  0  0  0  0
   -0.1179    7.3106    1.4821 H   0  0  0  0  0  0  0  0  0  0  0  0
    1.4327    6.0879   -2.2306 H   0  0  0  0  0  0  0  0  0  0  0  0
   -2.9215    0.4611    2.2025 H   0  0  0  0  0  0  0  0  0  0  0  0
   -1.1764    0.6413    2.4496 H   0  0  0  0  0  0  0  0  0  0  0  0
   -2.2859    1.3553    3.5976 H   0  0  0  0  0  0  0  0  0  0  0  0
   -3.5996    3.3507    3.0189 H   0  0  0  0  0  0  0  0  0  0  0  0
   -3.3947    4.1348    1.4617 H   0  0  0  0  0  0  0  0  0  0  0  0
   -4.2846    2.6028    1.5614 H   0  0  0  0  0  0  0  0  0  0  0  0
    0.6324    7.8730   -0.7670 H   0  0  0  0  0  0  0  0  0  0  0  0
  1  2  1  0  0  0  0 
  1  3  1  0  0  0  0 
  1  4  1  0  0  0  0 
  2  5  1  0  0  0  0 
  3  6  2  0  0  0  0 
  3  7  1  0  0  0  0 
  4  8  2  0  0  0  0 
  4  9  1  0  0  0  0 
  5 10  1  0  0  0  0 
  6 11  1  0  0  0  0 
  7 12  2  0  0  0  0 
  8 13  1  0  0  0  0 
  9 14  2  0  0  0  0 
 10 15  1  0  0  0  0 
 10 16  1  0  0  0  0 
 11 17  2  0  0  0  0 
 12 17  1  0  0  0  0 
 13 18  2  0  0  0  0 
 14 18  1  0  0  0  0 
 17 19  1  0  0  0  0 
  1 20  1  0  0  0  0 
  2 21  1  0  0  0  0 
  2 22  1  0  0  0  0 
  5 23  1  0  0  0  0 
  5 24  1  0  0  0  0 
  6 25  1  0  0  0  0 
  7 26  1  0  0  0  0 
  8 27  1  0  0  0  0 
 11 28  1  0  0  0  0 
 12 29  1  0  0  0  0 
 13 30  1  0  0  0  0 
 14 31  1  0  0  0  0 
 15 32  1  0  0  0  0 
 15 33  1  0  0  0  0 
 15 34  1  0  0  0  0 
 16 35  1  0  0  0  0 
 16 36  1  0  0  0  0 
 16 37  1  0  0  0  0 
 18 38  1  0  0  0  0 
M  END
> <cdk:Title>
chlorphenamine

> <Conformer>
1

> <SuperDrugID>
SD000537

$$$$
