plicamycin
  CDK     0628171801

152159  0  0  0  0  0  0  0  0999 V2000
   -0.7349    2.3256    5.0236 O   0  0  0  0  0  0  0  0  0  0  0  0
   -0.0816    2.5118    3.9703 C   0  0  0  0  0  0  0  0  0  0  0  0
    1.3294    2.2315    3.8945 C   0  0  0  0  0  0  0  0  0  0  0  0
   -0.8731    2.9592    2.7859 C   0  0  1  0  0  0  0  0  0  0  0  0
    1.9681    2.3277    2.6251 C   0  0  0  0  0  0  0  0  0  0  0  0
    2.1043    1.8011    5.0138 C   0  0  0  0  0  0  0  0  0  0  0  0
   -0.8893    4.4065    2.6895 O   0  0  0  0  0  0  0  0  0  0  0  0
   -0.2622    2.3794    1.4639 C   0  0  1  0  0  0  0  0  0  0  0  0
    1.2320    2.8302    1.4265 C   0  0  2  0  0  0  0  0  0  0  0  0
    3.3096    1.9261    2.4792 C   0  0  0  0  0  0  0  0  0  0  0  0
    1.5238    1.7529    6.2693 O   0  0  0  0  0  0  0  0  0  0  0  0
    3.4692    1.4093    4.8725 C   0  0  0  0  0  0  0  0  0  0  0  0
   -1.7687    5.1361    3.5751 C   0  0  1  0  0  0  0  0  0  0  0  0
   -0.4052    0.8241    1.2617 C   0  0  1  0  0  0  0  0  0  0  0  0
    4.0563    1.4617    3.5785 C   0  0  0  0  0  0  0  0  0  0  0  0
    4.2841    0.9611    5.9541 C   0  0  0  0  0  0  0  0  0  0  0  0
   -1.4606    6.6503    3.4674 C   0  0  1  0  0  0  0  0  0  0  0  0
   -3.1742    4.8760    3.3502 O   0  0  0  0  0  0  0  0  0  0  0  0
   -1.8150    0.3508    1.2200 C   0  0  0  0  0  0  0  0  0  0  0  0
    0.2255    0.4965   -0.0034 O   0  0  0  0  0  0  0  0  0  0  0  0
    5.3948    1.0624    3.3843 C   0  0  0  0  0  0  0  0  0  0  0  0
    3.7889    0.8693    7.2190 O   0  0  0  0  0  0  0  0  0  0  0  0
    5.6465    0.6013    5.7654 C   0  0  0  0  0  0  0  0  0  0  0  0
   -1.9738    7.2648    2.1321 C   0  0  1  0  0  0  0  0  0  0  0  0
   -3.7670    5.3811    2.1298 C   0  0  1  0  0  0  0  0  0  0  0  0
   -2.5381   -0.1173    2.4306 C   0  0  2  0  0  0  0  0  0  0  0  0
   -2.4175    0.3398    0.1200 O   0  0  0  0  0  0  0  0  0  0  0  0
    1.0339   -0.6912   -0.0276 C   0  0  0  0  0  0  0  0  0  0  0  0
    6.2010    0.6691    4.4650 C   0  0  0  0  0  0  0  0  0  0  0  0
    6.4819    0.1807    6.9254 C   0  0  0  0  0  0  0  0  0  0  0  0
   -1.2187    6.8691    0.9538 O   0  0  0  0  0  0  0  0  0  0  0  0
   -3.4716    6.8993    1.9167 C   0  0  1  0  0  0  0  0  0  0  0  0
   -3.4520    4.4957    0.8959 C   0  0  0  0  0  0  0  0  0  0  0  0
   -2.7701   -1.6573    2.4487 C   0  0  1  0  0  0  0  0  0  0  0  0
   -3.7776    0.5904    2.5063 O   0  0  0  0  0  0  0  0  0  0  0  0
    7.5257    0.3757    4.2357 O   0  0  0  0  0  0  0  0  0  0  0  0
    0.0984    7.4421    0.7790 C   0  0  1  0  0  0  0  0  0  0  0  0
   -4.2660    7.6625    2.8277 O   0  0  0  0  0  0  0  0  0  0  0  0
   -3.3950   -2.1408    3.7806 C   0  0  0  0  0  0  0  0  0  0  0  0
   -3.6274   -2.0698    1.3857 O   0  0  0  0  0  0  0  0  0  0  0  0
    8.3770    1.5427    4.1272 C   0  0  1  0  0  0  0  0  0  0  0  0
    0.6633    7.0417   -0.6138 C   0  0  2  0  0  0  0  0  0  0  0  0
    0.0389    8.8857    0.8752 O   0  0  0  0  0  0  0  0  0  0  0  0
    9.8219    1.1934    4.5685 C   0  0  1  0  0  0  0  0  0  0  0  0
    8.3363    2.1344    2.8043 O   0  0  0  0  0  0  0  0  0  0  0  0
    2.0451    7.7143   -0.8682 C   0  0  1  0  0  0  0  0  0  0  0  0
    1.3147    9.5486    0.7653 C   0  0  1  0  0  0  0  0  0  0  0  0
   10.5882    0.3685    3.4969 C   0  0  1  0  0  0  0  0  0  0  0  0
    9.0316    1.4548    1.7280 C   0  0  1  0  0  0  0  0  0  0  0  0
    2.4908    7.3752   -2.2070 O   0  0  0  0  0  0  0  0  0  0  0  0
    1.9562    9.2518   -0.6200 C   0  0  2  0  0  0  0  0  0  0  0  0
    1.1078   11.0606    1.0131 C   0  0  0  0  0  0  0  0  0  0  0  0
   10.0776   -0.9745    3.3264 O   0  0  0  0  0  0  0  0  0  0  0  0
   10.4977    1.0920    2.1248 C   0  0  1  0  0  0  0  0  0  0  0  0
    8.2203    0.2841    1.1034 C   0  0  0  0  0  0  0  0  0  0  0  0
    3.8163    7.7866   -2.6309 C   0  0  1  0  0  0  0  0  0  0  0  0
    1.2239    9.8705   -1.6804 O   0  0  0  0  0  0  0  0  0  0  0  0
   10.4169   -1.9634    4.3218 C   0  0  1  0  0  0  0  0  0  0  0  0
   11.2807    2.2861    2.1799 O   0  0  0  0  0  0  0  0  0  0  0  0
    5.0084    7.1586   -1.8523 C   0  0  1  0  0  0  0  0  0  0  0  0
    3.9728    7.5685   -4.0489 O   0  0  0  0  0  0  0  0  0  0  0  0
    9.6933   -3.2723    3.9150 C   0  0  2  0  0  0  0  0  0  0  0  0
   11.8477   -2.1782    4.3720 O   0  0  0  0  0  0  0  0  0  0  0  0
    5.2072    5.6453   -2.1658 C   0  0  2  0  0  0  0  0  0  0  0  0
    4.1568    6.2128   -4.5155 C   0  0  1  0  0  0  0  0  0  0  0  0
   10.0982   -4.4461    4.8421 C   0  0  1  0  0  0  0  0  0  0  0  0
   12.2748   -3.1956    5.3109 C   0  0  1  0  0  0  0  0  0  0  0  0
    4.1801    4.7209   -1.4455 C   0  0  0  0  0  0  0  0  0  0  0  0
    6.4754    5.2640   -1.6167 O   0  0  0  0  0  0  0  0  0  0  0  0
    5.2628    5.4410   -3.7181 C   0  0  1  0  0  0  0  0  0  0  0  0
    2.8106    5.4693   -4.7145 C   0  0  0  0  0  0  0  0  0  0  0  0
    9.5310   -5.6567    4.3440 O   0  0  0  0  0  0  0  0  0  0  0  0
   11.6426   -4.5731    4.9427 C   0  0  1  0  0  0  0  0  0  0  0  0
   13.8215   -3.2325    5.2980 C   0  0  0  0  0  0  0  0  0  0  0  0
    6.5358    5.9073   -4.1830 O   0  0  0  0  0  0  0  0  0  0  0  0
   11.9697   -5.5704    5.9107 O   0  0  0  0  0  0  0  0  0  0  0  0
   -1.9050    2.6084    2.8705 H   0  0  0  0  0  0  0  0  0  0  0  0
   -0.7707    2.8555    0.6178 H   0  0  0  0  0  0  0  0  0  0  0  0
    1.7013    2.4981    0.4953 H   0  0  0  0  0  0  0  0  0  0  0  0
    1.2903    3.9235    1.4201 H   0  0  0  0  0  0  0  0  0  0  0  0
    3.7498    1.9764    1.5540 H   0  0  0  0  0  0  0  0  0  0  0  0
    0.8400    2.4692    6.4028 H   0  0  0  0  0  0  0  0  0  0  0  0
   -1.5547    4.8459    4.6075 H   0  0  0  0  0  0  0  0  0  0  0  0
    0.0976    0.3126    2.0909 H   0  0  0  0  0  0  0  0  0  0  0  0
   -1.9522    7.1658    4.3006 H   0  0  0  0  0  0  0  0  0  0  0  0
   -0.3880    6.8155    3.5815 H   0  0  0  0  0  0  0  0  0  0  0  0
    5.8027    1.0731    2.4491 H   0  0  0  0  0  0  0  0  0  0  0  0
    3.0465    0.2299    7.1683 H   0  0  0  0  0  0  0  0  0  0  0  0
   -1.9357    8.3544    2.2315 H   0  0  0  0  0  0  0  0  0  0  0  0
   -4.8459    5.2783    2.2836 H   0  0  0  0  0  0  0  0  0  0  0  0
   -1.9612    0.1469    3.3225 H   0  0  0  0  0  0  0  0  0  0  0  0
    1.4326   -0.8023   -1.0357 H   0  0  0  0  0  0  0  0  0  0  0  0
    0.4386   -1.5733    0.2116 H   0  0  0  0  0  0  0  0  0  0  0  0
    1.8688   -0.6167    0.6725 H   0  0  0  0  0  0  0  0  0  0  0  0
    7.4891   -0.1292    6.6424 H   0  0  0  0  0  0  0  0  0  0  0  0
    6.5764    1.0146    7.6213 H   0  0  0  0  0  0  0  0  0  0  0  0
    6.0177   -0.6616    7.4392 H   0  0  0  0  0  0  0  0  0  0  0  0
   -3.7740    7.1991    0.9091 H   0  0  0  0  0  0  0  0  0  0  0  0
   -4.0932    4.7768    0.0591 H   0  0  0  0  0  0  0  0  0  0  0  0
   -2.4169    4.6068    0.5814 H   0  0  0  0  0  0  0  0  0  0  0  0
   -3.6384    3.4470    1.1325 H   0  0  0  0  0  0  0  0  0  0  0  0
   -1.8107   -2.1677    2.3208 H   0  0  0  0  0  0  0  0  0  0  0  0
   -4.1918    0.3187    3.3492 H   0  0  0  0  0  0  0  0  0  0  0  0
    0.7590    7.0322    1.5496 H   0  0  0  0  0  0  0  0  0  0  0  0
   -5.1959    7.4975    2.5641 H   0  0  0  0  0  0  0  0  0  0  0  0
   -4.3847   -1.7064    3.9260 H   0  0  0  0  0  0  0  0  0  0  0  0
   -2.7601   -1.8560    4.6213 H   0  0  0  0  0  0  0  0  0  0  0  0
   -3.4993   -3.2264    3.7788 H   0  0  0  0  0  0  0  0  0  0  0  0
   -3.1458   -1.8491    0.5632 H   0  0  0  0  0  0  0  0  0  0  0  0
    8.0395    2.3194    4.8254 H   0  0  0  0  0  0  0  0  0  0  0  0
   -0.0417    7.3459   -1.3920 H   0  0  0  0  0  0  0  0  0  0  0  0
    0.7689    5.9549   -0.6659 H   0  0  0  0  0  0  0  0  0  0  0  0
   10.3674    2.1263    4.7421 H   0  0  0  0  0  0  0  0  0  0  0  0
    9.7963    0.6607    5.5204 H   0  0  0  0  0  0  0  0  0  0  0  0
    2.7336    7.2813   -0.1385 H   0  0  0  0  0  0  0  0  0  0  0  0
    1.9851    9.1835    1.5520 H   0  0  0  0  0  0  0  0  0  0  0  0
   11.6473    0.3271    3.7761 H   0  0  0  0  0  0  0  0  0  0  0  0
    9.1002    2.1954    0.9246 H   0  0  0  0  0  0  0  0  0  0  0  0
    2.9612    9.6791   -0.6173 H   0  0  0  0  0  0  0  0  0  0  0  0
    0.7040   11.2205    2.0135 H   0  0  0  0  0  0  0  0  0  0  0  0
    0.4076   11.4779    0.2880 H   0  0  0  0  0  0  0  0  0  0  0  0
    2.0560   11.5952    0.9346 H   0  0  0  0  0  0  0  0  0  0  0  0
   10.9485    0.4628    1.3542 H   0  0  0  0  0  0  0  0  0  0  0  0
    8.8019   -0.2039    0.3200 H   0  0  0  0  0  0  0  0  0  0  0  0
    7.3079    0.6668    0.6403 H   0  0  0  0  0  0  0  0  0  0  0  0
    7.9431   -0.4643    1.8451 H   0  0  0  0  0  0  0  0  0  0  0  0
    3.8920    8.8707   -2.5350 H   0  0  0  0  0  0  0  0  0  0  0  0
    0.3269    9.4783   -1.6397 H   0  0  0  0  0  0  0  0  0  0  0  0
   10.0483   -1.6449    5.3013 H   0  0  0  0  0  0  0  0  0  0  0  0
   11.2467    2.6538    1.2707 H   0  0  0  0  0  0  0  0  0  0  0  0
    5.9133    7.6976   -2.1505 H   0  0  0  0  0  0  0  0  0  0  0  0
    4.9041    7.3187   -0.7786 H   0  0  0  0  0  0  0  0  0  0  0  0
    9.9527   -3.5228    2.8821 H   0  0  0  0  0  0  0  0  0  0  0  0
    8.6118   -3.1207    3.9656 H   0  0  0  0  0  0  0  0  0  0  0  0
    4.5348    6.3327   -5.5358 H   0  0  0  0  0  0  0  0  0  0  0  0
    9.6818   -4.2705    5.8387 H   0  0  0  0  0  0  0  0  0  0  0  0
   11.9625   -2.9129    6.3227 H   0  0  0  0  0  0  0  0  0  0  0  0
    4.2442    4.8507   -0.3627 H   0  0  0  0  0  0  0  0  0  0  0  0
    3.1575    4.9307   -1.7408 H   0  0  0  0  0  0  0  0  0  0  0  0
    4.3903    3.6738   -1.6728 H   0  0  0  0  0  0  0  0  0  0  0  0
    6.4141    5.4603   -0.6572 H   0  0  0  0  0  0  0  0  0  0  0  0
    5.2206    4.3750   -3.9564 H   0  0  0  0  0  0  0  0  0  0  0  0
    2.9819    4.4969   -5.1806 H   0  0  0  0  0  0  0  0  0  0  0  0
    2.2813    5.3168   -3.7795 H   0  0  0  0  0  0  0  0  0  0  0  0
    2.1658    6.0544   -5.3741 H   0  0  0  0  0  0  0  0  0  0  0  0
    9.7781   -6.3434    4.9982 H   0  0  0  0  0  0  0  0  0  0  0  0
   12.0319   -4.9010    3.9741 H   0  0  0  0  0  0  0  0  0  0  0  0
   14.1990   -3.9518    6.0267 H   0  0  0  0  0  0  0  0  0  0  0  0
   14.1886   -3.5079    4.3079 H   0  0  0  0  0  0  0  0  0  0  0  0
   14.2177   -2.2490    5.5547 H   0  0  0  0  0  0  0  0  0  0  0  0
    6.5475    5.7254   -5.1464 H   0  0  0  0  0  0  0  0  0  0  0  0
   12.9416   -5.6807    5.8484 H   0  0  0  0  0  0  0  0  0  0  0  0
  1  2  2  0  0  0  0 
  2  3  1  0  0  0  0 
  4  2  1  0  0  0  0 
  3  5  2  0  0  0  0 
  3  6  1  0  0  0  0 
  4  7  1  0  0  0  0 
  8  4  1  0  0  0  0 
  5  9  1  0  0  0  0 
  5 10  1  0  0  0  0 
  6 11  1  0  0  0  0 
  6 12  2  0  0  0  0 
 13  7  1  0  0  0  0 
  8  9  1  0  0  0  0 
  8 14  1  0  0  0  0 
 10 15  2  0  0  0  0 
 12 15  1  0  0  0  0 
 12 16  1  0  0  0  0 
 13 17  1  0  0  0  0 
 13 18  1  0  0  0  0 
 14 19  1  0  0  0  0 
 14 20  1  0  0  0  0 
 15 21  1  0  0  0  0 
 16 22  1  0  0  0  0 
 16 23  2  0  0  0  0 
 24 17  1  0  0  0  0 
 25 18  1  0  0  0  0 
 26 19  1  0  0  0  0 
 19 27  2  0  0  0  0 
 20 28  1  0  0  0  0 
 21 29  2  0  0  0  0 
 23 29  1  0  0  0  0 
 23 30  1  0  0  0  0 
 24 31  1  0  0  0  0 
 32 24  1  0  0  0  0 
 32 25  1  0  0  0  0 
 25 33  1  0  0  0  0 
 26 34  1  0  0  0  0 
 26 35  1  0  0  0  0 
 29 36  1  0  0  0  0 
 37 31  1  0  0  0  0 
 32 38  1  0  0  0  0 
 34 39  1  0  0  0  0 
 34 40  1  0  0  0  0 
 37 42  1  0  0  0  0 
 37 43  1  0  0  0  0 
 41 36  1  0  0  0  0 
 41 44  1  0  0  0  0 
 41 45  1  0  0  0  0 
 46 42  1  0  0  0  0 
 47 43  1  0  0  0  0 
 48 44  1  0  0  0  0 
 49 45  1  0  0  0  0 
 46 50  1  0  0  0  0 
 51 46  1  0  0  0  0 
 51 47  1  0  0  0  0 
 47 52  1  0  0  0  0 
 48 53  1  0  0  0  0 
 54 48  1  0  0  0  0 
 54 49  1  0  0  0  0 
 49 55  1  0  0  0  0 
 56 50  1  0  0  0  0 
 51 57  1  0  0  0  0 
 58 53  1  0  0  0  0 
 54 59  1  0  0  0  0 
 56 60  1  0  0  0  0 
 56 61  1  0  0  0  0 
 58 62  1  0  0  0  0 
 58 63  1  0  0  0  0 
 64 60  1  0  0  0  0 
 65 61  1  0  0  0  0 
 66 62  1  0  0  0  0 
 67 63  1  0  0  0  0 
 64 68  1  0  0  0  0 
 64 69  1  0  0  0  0 
 70 64  1  0  0  0  0 
 70 65  1  0  0  0  0 
 65 71  1  0  0  0  0 
 66 72  1  0  0  0  0 
 73 66  1  0  0  0  0 
 73 67  1  0  0  0  0 
 67 74  1  0  0  0  0 
 70 75  1  0  0  0  0 
 73 76  1  0  0  0  0 
  4 77  1  0  0  0  0 
  8 78  1  0  0  0  0 
 79  9  1  0  0  0  0 
 80  9  1  0  0  0  0 
 81 10  1  0  0  0  0 
 82 11  1  0  0  0  0 
 13 83  1  0  0  0  0 
 14 84  1  0  0  0  0 
 85 17  1  0  0  0  0 
 86 17  1  0  0  0  0 
 87 21  1  0  0  0  0 
 88 22  1  0  0  0  0 
 24 89  1  0  0  0  0 
 25 90  1  0  0  0  0 
 26 91  1  0  0  0  0 
 92 28  1  0  0  0  0 
 93 28  1  0  0  0  0 
 94 28  1  0  0  0  0 
 95 30  1  0  0  0  0 
 96 30  1  0  0  0  0 
 97 30  1  0  0  0  0 
 32 98  1  0  0  0  0 
 99 33  1  0  0  0  0 
100 33  1  0  0  0  0 
101 33  1  0  0  0  0 
 34102  1  0  0  0  0 
103 35  1  0  0  0  0 
 37104  1  0  0  0  0 
105 38  1  0  0  0  0 
106 39  1  0  0  0  0 
107 39  1  0  0  0  0 
108 39  1  0  0  0  0 
109 40  1  0  0  0  0 
 41110  1  0  0  0  0 
111 42  1  0  0  0  0 
112 42  1  0  0  0  0 
113 44  1  0  0  0  0 
114 44  1  0  0  0  0 
 46115  1  0  0  0  0 
 47116  1  0  0  0  0 
 48117  1  0  0  0  0 
 49118  1  0  0  0  0 
 51119  1  0  0  0  0 
120 52  1  0  0  0  0 
121 52  1  0  0  0  0 
122 52  1  0  0  0  0 
 54123  1  0  0  0  0 
124 55  1  0  0  0  0 
125 55  1  0  0  0  0 
126 55  1  0  0  0  0 
 56127  1  0  0  0  0 
128 57  1  0  0  0  0 
 58129  1  0  0  0  0 
130 59  1  0  0  0  0 
131 60  1  0  0  0  0 
132 60  1  0  0  0  0 
133 62  1  0  0  0  0 
134 62  1  0  0  0  0 
 65135  1  0  0  0  0 
 66136  1  0  0  0  0 
 67137  1  0  0  0  0 
138 68  1  0  0  0  0 
139 68  1  0  0  0  0 
140 68  1  0  0  0  0 
141 69  1  0  0  0  0 
 70142  1  0  0  0  0 
143 71  1  0  0  0  0 
144 71  1  0  0  0  0 
145 71  1  0  0  0  0 
146 72  1  0  0  0  0 
 73147  1  0  0  0  0 
148 74  1  0  0  0  0 
149 74  1  0  0  0  0 
150 74  1  0  0  0  0 
151 75  1  0  0  0  0 
152 76  1  0  0  0  0 
M  END
> <cdk:Title>
plicamycin

> <Conformer>
1

> <SuperDrugID>
SD001996

$$$$
