mephenesin
  CDK     0628171801

 27 27  0  0  0  0  0  0  0  0999 V2000
    0.4398   -0.6420   -0.0564 O   0  0  0  0  0  0  0  0  0  0  0  0
    0.6987    0.7031   -0.0727 C   0  0  0  0  0  0  0  0  0  0  0  0
    0.3083    1.5412    1.0051 C   0  0  0  0  0  0  0  0  0  0  0  0
    1.3917    1.2436   -1.1758 C   0  0  0  0  0  0  0  0  0  0  0  0
   -0.3807    0.9959    2.2011 C   0  0  0  0  0  0  0  0  0  0  0  0
    0.5718    2.9284    0.9195 C   0  0  0  0  0  0  0  0  0  0  0  0
    1.6489    2.6247   -1.2419 C   0  0  0  0  0  0  0  0  0  0  0  0
    1.2289    3.4680   -0.2005 C   0  0  0  0  0  0  0  0  0  0  0  0
   -0.8390   -0.9880   -0.6315 C   0  0  2  0  0  0  0  0  0  0  0  0
   -1.0919   -2.5075   -0.4841 C   0  0  2  0  0  0  0  0  0  0  0  0
   -1.1258   -2.9671    0.9952 C   0  0  2  0  0  0  0  0  0  0  0  0
   -0.0810   -3.2223   -1.1889 O   0  0  0  0  0  0  0  0  0  0  0  0
   -1.4033   -4.3606    1.0890 O   0  0  0  0  0  0  0  0  0  0  0  0
    1.7067    0.6311   -1.9338 H   0  0  0  0  0  0  0  0  0  0  0  0
   -1.4579    0.9976    2.0295 H   0  0  0  0  0  0  0  0  0  0  0  0
   -0.1673    1.5975    3.0867 H   0  0  0  0  0  0  0  0  0  0  0  0
   -0.0581   -0.0250    2.4147 H   0  0  0  0  0  0  0  0  0  0  0  0
    0.2839    3.5577    1.6718 H   0  0  0  0  0  0  0  0  0  0  0  0
    2.1393    3.0128   -2.0494 H   0  0  0  0  0  0  0  0  0  0  0  0
    1.3992    4.4737   -0.2522 H   0  0  0  0  0  0  0  0  0  0  0  0
   -0.8601   -0.7311   -1.6957 H   0  0  0  0  0  0  0  0  0  0  0  0
   -1.6562   -0.4529   -0.1397 H   0  0  0  0  0  0  0  0  0  0  0  0
   -2.0532   -2.7472   -0.9464 H   0  0  0  0  0  0  0  0  0  0  0  0
   -1.9028   -2.4256    1.5410 H   0  0  0  0  0  0  0  0  0  0  0  0
   -0.1631   -2.7778    1.4750 H   0  0  0  0  0  0  0  0  0  0  0  0
   -0.1283   -2.8843   -2.1078 H   0  0  0  0  0  0  0  0  0  0  0  0
   -1.3817   -4.5553    2.0504 H   0  0  0  0  0  0  0  0  0  0  0  0
  1  2  1  0  0  0  0 
  2  3  2  0  0  0  0 
  2  4  1  0  0  0  0 
  3  5  1  0  0  0  0 
  3  6  1  0  0  0  0 
  4  7  2  0  0  0  0 
  6  8  2  0  0  0  0 
  7  8  1  0  0  0  0 
  1  9  1  0  0  0  0 
 10  9  1  0  0  0  0 
 10 11  1  0  0  0  0 
 10 12  1  0  0  0  0 
 11 13  1  0  0  0  0 
  4 14  1  0  0  0  0 
  5 15  1  0  0  0  0 
  5 16  1  0  0  0  0 
  5 17  1  0  0  0  0 
  6 18  1  0  0  0  0 
  7 19  1  0  0  0  0 
  8 20  1  0  0  0  0 
  9 21  1  0  0  0  0 
  9 22  1  0  0  0  0 
 10 23  1  0  0  0  0 
 11 24  1  0  0  0  0 
 11 25  1  0  0  0  0 
 12 26  1  0  0  0  0 
 13 27  1  0  0  0  0 
M  END
> <cdk:Title>
mephenesin

> <Conformer>
1

> <SuperDrugID>
SD001495

$$$$
