aminobutyric acid
  CDK     0628171801

 16 15  0  0  0  0  0  0  0  0999 V2000
   -4.2256   -0.9726    2.2378 N   0  0  2  0  0  0  0  0  0  0  0  0
   -3.1925   -1.4091    1.2926 C   0  0  2  0  0  0  0  0  0  0  0  0
   -1.9992   -0.4242    1.2924 C   0  0  1  0  0  0  0  0  0  0  0  0
   -0.8827   -0.8251    0.2926 C   0  0  2  0  0  0  0  0  0  0  0  0
    0.2388    0.1324    0.3068 C   0  0  0  0  0  0  0  0  0  0  0  0
    0.0279    1.4305   -0.0130 O   0  0  0  0  0  0  0  0  0  0  0  0
    1.3955   -0.2310    0.6165 O   0  0  0  0  0  0  0  0  0  0  0  0
   -3.8019   -0.9901    3.1676 H   0  0  0  0  0  0  0  0  0  0  0  0
   -4.9521   -1.6906    2.2329 H   0  0  0  0  0  0  0  0  0  0  0  0
   -3.6369   -1.4624    0.2957 H   0  0  0  0  0  0  0  0  0  0  0  0
   -2.8563   -2.4076    1.5823 H   0  0  0  0  0  0  0  0  0  0  0  0
   -2.3713    0.5728    1.0340 H   0  0  0  0  0  0  0  0  0  0  0  0
   -1.5786   -0.3835    2.3015 H   0  0  0  0  0  0  0  0  0  0  0  0
   -1.2903   -0.8551   -0.7207 H   0  0  0  0  0  0  0  0  0  0  0  0
   -0.5170   -1.8264    0.5425 H   0  0  0  0  0  0  0  0  0  0  0  0
    0.7642    2.0749    0.0166 H   0  0  0  0  0  0  0  0  0  0  0  0
  1  2  1  0  0  0  0 
  2  3  1  0  0  0  0 
  3  4  1  0  0  0  0 
  4  5  1  0  0  0  0 
  5  6  1  0  0  0  0 
  5  7  2  0  0  0  0 
  1  8  1  0  0  0  0 
  1  9  1  0  0  0  0 
  2 10  1  0  0  0  0 
  2 11  1  0  0  0  0 
  3 12  1  0  0  0  0 
  3 13  1  0  0  0  0 
  4 14  1  0  0  0  0 
  4 15  1  0  0  0  0 
  6 16  1  0  0  0  0 
M  END
> <cdk:Title>
aminobutyric acid

> <Conformer>
1

> <SuperDrugID>
SD001131

$$$$
