buflomedil
  CDK     0628171801

 47 48  0  0  0  0  0  0  0  0999 V2000
   -1.0021   -0.3611    2.0884 C   0  0  0  0  0  0  0  0  0  0  0  0
   -1.2501    0.4894    0.8900 C   0  0  2  0  0  0  0  0  0  0  0  0
   -1.8292   -0.2859    3.0298 O   0  0  0  0  0  0  0  0  0  0  0  0
    0.1310   -1.2361    2.2201 C   0  0  0  0  0  0  0  0  0  0  0  0
   -2.2820    1.6452    1.0335 C   0  0  2  0  0  0  0  0  0  0  0  0
    0.7385   -1.8811    1.0979 C   0  0  0  0  0  0  0  0  0  0  0  0
    0.7045   -1.4612    3.5090 C   0  0  0  0  0  0  0  0  0  0  0  0
   -1.8228    2.8049    1.9646 C   0  0  2  0  0  0  0  0  0  0  0  0
    0.2743   -1.7524   -0.1879 O   0  0  0  0  0  0  0  0  0  0  0  0
    1.8940   -2.6720    1.2670 C   0  0  0  0  0  0  0  0  0  0  0  0
    0.2176   -0.8518    4.6421 O   0  0  0  0  0  0  0  0  0  0  0  0
    1.8569   -2.2627    3.6503 C   0  0  0  0  0  0  0  0  0  0  0  0
   -2.9364    3.7611    2.2751 N   0  0  2  0  0  0  0  0  0  0  0  0
   -0.4497   -2.8974   -0.6816 C   0  0  0  0  0  0  0  0  0  0  0  0
    2.4451   -2.8836    2.5389 C   0  0  0  0  0  0  0  0  0  0  0  0
   -0.4851   -1.7325    5.5414 C   0  0  0  0  0  0  0  0  0  0  0  0
   -2.5052    5.0802    2.8110 C   0  0  1  0  0  0  0  0  0  0  0  0
   -3.9382    3.2645    3.2658 C   0  0  1  0  0  0  0  0  0  0  0  0
    3.5581   -3.6664    2.6915 O   0  0  0  0  0  0  0  0  0  0  0  0
   -2.5002    4.9256    4.3390 C   0  0  1  0  0  0  0  0  0  0  0  0
   -3.7114    4.0168    4.5975 C   0  0  1  0  0  0  0  0  0  0  0  0
    3.2311   -5.0542    2.8863 C   0  0  0  0  0  0  0  0  0  0  0  0
   -1.6216   -0.1621    0.0999 H   0  0  0  0  0  0  0  0  0  0  0  0
   -0.3007    0.9203    0.5608 H   0  0  0  0  0  0  0  0  0  0  0  0
   -3.2314    1.2298    1.3714 H   0  0  0  0  0  0  0  0  0  0  0  0
   -2.4600    2.0634    0.0399 H   0  0  0  0  0  0  0  0  0  0  0  0
   -1.0186    3.3332    1.4426 H   0  0  0  0  0  0  0  0  0  0  0  0
   -1.4018    2.4116    2.8931 H   0  0  0  0  0  0  0  0  0  0  0  0
    2.3372   -3.1098    0.4563 H   0  0  0  0  0  0  0  0  0  0  0  0
    2.2829   -2.3949    4.5708 H   0  0  0  0  0  0  0  0  0  0  0  0
   -0.7622   -2.6852   -1.7048 H   0  0  0  0  0  0  0  0  0  0  0  0
    0.1726   -3.7966   -0.7028 H   0  0  0  0  0  0  0  0  0  0  0  0
   -1.3432   -3.0863   -0.0828 H   0  0  0  0  0  0  0  0  0  0  0  0
   -0.8451   -1.1364    6.3806 H   0  0  0  0  0  0  0  0  0  0  0  0
   -1.3484   -2.1963    5.0582 H   0  0  0  0  0  0  0  0  0  0  0  0
    0.1701   -2.5116    5.9395 H   0  0  0  0  0  0  0  0  0  0  0  0
   -1.5323    5.4117    2.4398 H   0  0  0  0  0  0  0  0  0  0  0  0
   -3.2435    5.8353    2.5229 H   0  0  0  0  0  0  0  0  0  0  0  0
   -4.9372    3.4828    2.8807 H   0  0  0  0  0  0  0  0  0  0  0  0
   -3.8853    2.1855    3.4358 H   0  0  0  0  0  0  0  0  0  0  0  0
   -1.5782    4.4368    4.6675 H   0  0  0  0  0  0  0  0  0  0  0  0
   -2.5945    5.8893    4.8464 H   0  0  0  0  0  0  0  0  0  0  0  0
   -4.5876    4.6235    4.8457 H   0  0  0  0  0  0  0  0  0  0  0  0
   -3.5157    3.3287    5.4253 H   0  0  0  0  0  0  0  0  0  0  0  0
    4.1605   -5.6029    3.0340 H   0  0  0  0  0  0  0  0  0  0  0  0
    2.6070   -5.1996    3.7726 H   0  0  0  0  0  0  0  0  0  0  0  0
    2.7258   -5.4699    2.0103 H   0  0  0  0  0  0  0  0  0  0  0  0
  1  2  1  0  0  0  0 
  1  3  2  0  0  0  0 
  1  4  1  0  0  0  0 
  2  5  1  0  0  0  0 
  4  6  2  0  0  0  0 
  4  7  1  0  0  0  0 
  5  8  1  0  0  0  0 
  6  9  1  0  0  0  0 
  6 10  1  0  0  0  0 
  7 11  1  0  0  0  0 
  7 12  2  0  0  0  0 
  8 13  1  0  0  0  0 
  9 14  1  0  0  0  0 
 10 15  2  0  0  0  0 
 11 16  1  0  0  0  0 
 12 15  1  0  0  0  0 
 13 17  1  0  0  0  0 
 13 18  1  0  0  0  0 
 15 19  1  0  0  0  0 
 17 20  1  0  0  0  0 
 18 21  1  0  0  0  0 
 19 22  1  0  0  0  0 
 20 21  1  0  0  0  0 
 23  2  1  0  0  0  0 
 24  2  1  0  0  0  0 
 25  5  1  0  0  0  0 
 26  5  1  0  0  0  0 
 27  8  1  0  0  0  0 
 28  8  1  0  0  0  0 
 29 10  1  0  0  0  0 
 30 12  1  0  0  0  0 
 31 14  1  0  0  0  0 
 32 14  1  0  0  0  0 
 33 14  1  0  0  0  0 
 34 16  1  0  0  0  0 
 35 16  1  0  0  0  0 
 36 16  1  0  0  0  0 
 37 17  1  0  0  0  0 
 38 17  1  0  0  0  0 
 39 18  1  0  0  0  0 
 40 18  1  0  0  0  0 
 41 20  1  0  0  0  0 
 42 20  1  0  0  0  0 
 43 21  1  0  0  0  0 
 44 21  1  0  0  0  0 
 45 22  1  0  0  0  0 
 46 22  1  0  0  0  0 
 47 22  1  0  0  0  0 
M  END
> <cdk:Title>
buflomedil

> <Conformer>
1

> <SuperDrugID>
SD000364

$$$$
