trofosfamide
  CDK     0628171801

 35 35  0  0  0  0  0  0  0  0999 V2000
   -0.5471   -1.3877    0.0262 N   0  0  2  0  0  0  0  0  0  0  0  0
   -0.2484   -2.2300   -1.1866 C   0  0  2  0  0  0  0  0  0  0  0  0
   -0.2224    0.0773   -0.0725 C   0  0  2  0  0  0  0  0  0  0  0  0
   -0.0885   -2.1343    1.4387 P   0  0  2  0  0  0  0  0  0  0  0  0
   -0.9410   -1.7964   -2.5007 C   0  0  1  0  0  0  0  0  0  0  0  0
    1.2602    0.4391   -0.3479 C   0  0  2  0  0  0  0  0  0  0  0  0
    1.3565   -2.3964    1.4083 O   0  0  0  0  0  0  0  0  0  0  0  0
   -0.9628   -3.5370    1.6034 N   0  0  1  0  0  0  0  0  0  0  0  0
   -0.4123   -1.2257    2.7191 O   0  0  0  0  0  0  0  0  0  0  0  0
   -2.6933   -1.7668   -2.3320 Cl  0  0  0  0  0  0  0  0  0  0  0  0
    1.4996    2.1832   -0.3600 Cl  0  0  0  0  0  0  0  0  0  0  0  0
   -0.3425   -4.6400    2.4132 C   0  0  2  0  0  0  0  0  0  0  0  0
   -2.4074   -3.2510    1.8984 C   0  0  1  0  0  0  0  0  0  0  0  0
   -1.8152   -1.0299    2.9934 C   0  0  2  0  0  0  0  0  0  0  0  0
   -0.7106   -6.0252    1.8290 C   0  0  1  0  0  0  0  0  0  0  0  0
   -2.6149   -2.3478    3.1434 C   0  0  2  0  0  0  0  0  0  0  0  0
    0.1104   -7.3264    2.6854 Cl  0  0  0  0  0  0  0  0  0  0  0  0
   -0.5697   -3.2629   -1.0207 H   0  0  0  0  0  0  0  0  0  0  0  0
    0.8304   -2.2632   -1.3606 H   0  0  0  0  0  0  0  0  0  0  0  0
   -0.5371    0.5961    0.8360 H   0  0  0  0  0  0  0  0  0  0  0  0
   -0.8329    0.5103   -0.8673 H   0  0  0  0  0  0  0  0  0  0  0  0
   -0.5953   -0.8144   -2.8210 H   0  0  0  0  0  0  0  0  0  0  0  0
   -0.6870   -2.5075   -3.2894 H   0  0  0  0  0  0  0  0  0  0  0  0
    1.5691    0.0562   -1.3204 H   0  0  0  0  0  0  0  0  0  0  0  0
    1.9081    0.0156    0.4197 H   0  0  0  0  0  0  0  0  0  0  0  0
   -0.6585   -4.5822    3.4570 H   0  0  0  0  0  0  0  0  0  0  0  0
    0.7487   -4.5822    2.4105 H   0  0  0  0  0  0  0  0  0  0  0  0
   -2.8668   -2.7671    1.0298 H   0  0  0  0  0  0  0  0  0  0  0  0
   -2.9657   -4.1763    2.0518 H   0  0  0  0  0  0  0  0  0  0  0  0
   -2.2731   -0.4090    2.2191 H   0  0  0  0  0  0  0  0  0  0  0  0
   -1.8835   -0.4760    3.9332 H   0  0  0  0  0  0  0  0  0  0  0  0
   -1.7835   -6.2044    1.9046 H   0  0  0  0  0  0  0  0  0  0  0  0
   -0.4210   -6.0687    0.7764 H   0  0  0  0  0  0  0  0  0  0  0  0
   -2.2799   -2.8732    4.0401 H   0  0  0  0  0  0  0  0  0  0  0  0
   -3.6776   -2.1184    3.2630 H   0  0  0  0  0  0  0  0  0  0  0  0
  1  2  1  0  0  0  0 
  1  3  1  0  0  0  0 
  1  4  1  0  0  0  0 
  2  5  1  0  0  0  0 
  3  6  1  0  0  0  0 
  4  7  2  0  0  0  0 
  4  8  1  0  0  0  0 
  4  9  1  0  0  0  0 
  5 10  1  0  0  0  0 
  6 11  1  0  0  0  0 
  8 12  1  0  0  0  0 
  8 13  1  0  0  0  0 
  9 14  1  0  0  0  0 
 12 15  1  0  0  0  0 
 13 16  1  0  0  0  0 
 14 16  1  0  0  0  0 
 15 17  1  0  0  0  0 
  2 18  1  0  0  0  0 
  2 19  1  0  0  0  0 
  3 20  1  0  0  0  0 
  3 21  1  0  0  0  0 
  5 22  1  0  0  0  0 
  5 23  1  0  0  0  0 
  6 24  1  0  0  0  0 
  6 25  1  0  0  0  0 
 12 26  1  0  0  0  0 
 12 27  1  0  0  0  0 
 13 28  1  0  0  0  0 
 13 29  1  0  0  0  0 
 14 30  1  0  0  0  0 
 14 31  1  0  0  0  0 
 15 32  1  0  0  0  0 
 15 33  1  0  0  0  0 
 16 34  1  0  0  0  0 
 16 35  1  0  0  0  0 
M  END
> <cdk:Title>
trofosfamide

> <Conformer>
1

> <SuperDrugID>
SD002495

$$$$
