carbamazepine
  CDK     0628171802

 30 32  0  0  0  0  0  0  0  0999 V2000
   -0.6382    0.5043    0.5515 C   0  0  0  0  0  0  0  0  0  0  0  0
   -0.5255    1.8481    0.4826 N   0  0  0  0  0  0  0  0  0  0  0  0
   -1.6830    0.0941    1.1108 O   0  0  0  0  0  0  0  0  0  0  0  0
    0.3367   -0.3614    0.0837 N   0  0  0  0  0  0  0  0  0  0  0  0
    0.2231   -1.7196    0.2611 C   0  0  0  0  0  0  0  0  0  0  0  0
    1.4872    0.1082   -0.5043 C   0  0  0  0  0  0  0  0  0  0  0  0
    1.1379   -2.4272    1.0916 C   0  0  0  0  0  0  0  0  0  0  0  0
   -0.8387   -2.4184   -0.3622 C   0  0  0  0  0  0  0  0  0  0  0  0
    2.7488   -0.0401    0.1375 C   0  0  0  0  0  0  0  0  0  0  0  0
    1.4102    0.7822   -1.7465 C   0  0  0  0  0  0  0  0  0  0  0  0
    0.9464   -3.8192    1.2842 C   0  0  0  0  0  0  0  0  0  0  0  0
    2.1983   -1.8046    1.7527 C   0  0  0  0  0  0  0  0  0  0  0  0
   -1.0035   -3.8004   -0.1673 C   0  0  0  0  0  0  0  0  0  0  0  0
    3.8890    0.5641   -0.4490 C   0  0  0  0  0  0  0  0  0  0  0  0
    2.9116   -0.7424    1.3318 C   0  0  0  0  0  0  0  0  0  0  0  0
    2.5575    1.3503   -2.3268 C   0  0  0  0  0  0  0  0  0  0  0  0
   -0.1093   -4.5016    0.6559 C   0  0  0  0  0  0  0  0  0  0  0  0
    3.7953    1.2512   -1.6711 C   0  0  0  0  0  0  0  0  0  0  0  0
   -1.2279    2.4100    0.8444 H   0  0  0  0  0  0  0  0  0  0  0  0
    0.2563    2.2591    0.0806 H   0  0  0  0  0  0  0  0  0  0  0  0
   -1.5014   -1.9198   -0.9608 H   0  0  0  0  0  0  0  0  0  0  0  0
    0.5128    0.8710   -2.2311 H   0  0  0  0  0  0  0  0  0  0  0  0
    1.5830   -4.3563    1.8806 H   0  0  0  0  0  0  0  0  0  0  0  0
    2.4775   -2.2004    2.6231 H   0  0  0  0  0  0  0  0  0  0  0  0
   -1.7713   -4.2972   -0.6246 H   0  0  0  0  0  0  0  0  0  0  0  0
    4.8056    0.5000    0.0044 H   0  0  0  0  0  0  0  0  0  0  0  0
    3.6543   -0.4504    1.9288 H   0  0  0  0  0  0  0  0  0  0  0  0
    2.4901    1.8413   -3.2214 H   0  0  0  0  0  0  0  0  0  0  0  0
   -0.2236   -5.5091    0.7945 H   0  0  0  0  0  0  0  0  0  0  0  0
    4.6306    1.6734   -2.0842 H   0  0  0  0  0  0  0  0  0  0  0  0
  1  2  1  0  0  0  0 
  1  3  2  0  0  0  0 
  1  4  1  0  0  0  0 
  4  5  1  0  0  0  0 
  4  6  1  0  0  0  0 
  5  7  2  0  0  0  0 
  5  8  1  0  0  0  0 
  6  9  2  0  0  0  0 
  6 10  1  0  0  0  0 
  7 11  1  0  0  0  0 
  7 12  1  0  0  0  0 
  8 13  2  0  0  0  0 
  9 14  1  0  0  0  0 
  9 15  1  0  0  0  0 
 10 16  2  0  0  0  0 
 11 17  2  0  0  0  0 
 12 15  2  0  0  0  0 
 13 17  1  0  0  0  0 
 14 18  2  0  0  0  0 
 16 18  1  0  0  0  0 
  2 19  1  0  0  0  0 
  2 20  1  0  0  0  0 
  8 21  1  0  0  0  0 
 10 22  1  0  0  0  0 
 11 23  1  0  0  0  0 
 12 24  1  0  0  0  0 
 13 25  1  0  0  0  0 
 14 26  1  0  0  0  0 
 15 27  1  0  0  0  0 
 16 28  1  0  0  0  0 
 17 29  1  0  0  0  0 
 18 30  1  0  0  0  0 
M  END
> <cdk:Title>
carbamazepine

> <Conformer>
1

> <SuperDrugID>
SD000423

$$$$
