cinchocaine
  CDK     0628171802

 54 55  0  0  0  0  0  0  0  0999 V2000
   -1.6510    0.9297   -0.2062 C   0  0  0  0  0  0  0  0  0  0  0  0
   -0.5920    1.4691    0.4669 N   0  0  0  0  0  0  0  0  0  0  0  0
   -1.5083   -0.1696   -0.7935 O   0  0  0  0  0  0  0  0  0  0  0  0
   -2.9326    1.5557   -0.1702 C   0  0  0  0  0  0  0  0  0  0  0  0
    0.7097    0.8994    0.5776 C   0  0  2  0  0  0  0  0  0  0  0  0
   -3.9028    1.4616   -1.2171 C   0  0  0  0  0  0  0  0  0  0  0  0
   -3.2934    2.2397    1.0195 C   0  0  0  0  0  0  0  0  0  0  0  0
    1.5670    1.1846   -0.6779 C   0  0  2  0  0  0  0  0  0  0  0  0
   -5.2244    1.9371   -0.9576 C   0  0  0  0  0  0  0  0  0  0  0  0
   -3.6463    0.9237   -2.5071 C   0  0  0  0  0  0  0  0  0  0  0  0
   -4.5967    2.7317    1.1947 C   0  0  0  0  0  0  0  0  0  0  0  0
    1.6034    2.6322   -1.1043 N   0  0  1  0  0  0  0  0  0  0  0  0
   -5.5132    2.5518    0.2156 N   0  0  0  0  0  0  0  0  0  0  0  0
   -6.2577    1.7661   -1.9017 C   0  0  0  0  0  0  0  0  0  0  0  0
   -4.6744    0.7745   -3.4557 C   0  0  0  0  0  0  0  0  0  0  0  0
   -4.9600    3.3603    2.3520 O   0  0  0  0  0  0  0  0  0  0  0  0
    2.4708    3.4672   -0.1964 C   0  0  1  0  0  0  0  0  0  0  0  0
    1.8837    2.8135   -2.5724 C   0  0  1  0  0  0  0  0  0  0  0  0
   -5.9844    1.1711   -3.1443 C   0  0  0  0  0  0  0  0  0  0  0  0
   -5.4641    2.4373    3.3416 C   0  0  2  0  0  0  0  0  0  0  0  0
    2.4251    5.0002   -0.4149 C   0  0  0  0  0  0  0  0  0  0  0  0
    0.7660    2.3006   -3.5155 C   0  0  0  0  0  0  0  0  0  0  0  0
   -5.9119    3.1892    4.6172 C   0  0  1  0  0  0  0  0  0  0  0  0
   -4.7738    4.0076    5.2822 C   0  0  1  0  0  0  0  0  0  0  0  0
   -5.2183    4.7174    6.5803 C   0  0  0  0  0  0  0  0  0  0  0  0
   -0.7340    2.3166    0.9153 H   0  0  0  0  0  0  0  0  0  0  0  0
    0.6348   -0.1808    0.7349 H   0  0  0  0  0  0  0  0  0  0  0  0
    1.1941    1.3134    1.4607 H   0  0  0  0  0  0  0  0  0  0  0  0
   -2.6327    2.3535    1.7933 H   0  0  0  0  0  0  0  0  0  0  0  0
    1.1382    0.5555   -1.4536 H   0  0  0  0  0  0  0  0  0  0  0  0
    2.5807    0.8077   -0.5124 H   0  0  0  0  0  0  0  0  0  0  0  0
   -2.7092    0.6340   -2.7861 H   0  0  0  0  0  0  0  0  0  0  0  0
   -7.2116    2.0715   -1.6899 H   0  0  0  0  0  0  0  0  0  0  0  0
   -4.4687    0.3734   -4.3740 H   0  0  0  0  0  0  0  0  0  0  0  0
    2.1539    3.3146    0.8367 H   0  0  0  0  0  0  0  0  0  0  0  0
    3.5107    3.1388   -0.2706 H   0  0  0  0  0  0  0  0  0  0  0  0
    1.9752    3.8739   -2.8061 H   0  0  0  0  0  0  0  0  0  0  0  0
    2.8322    2.3403   -2.8382 H   0  0  0  0  0  0  0  0  0  0  0  0
   -6.7353    1.0345   -3.8244 H   0  0  0  0  0  0  0  0  0  0  0  0
   -4.6968    1.7045    3.6138 H   0  0  0  0  0  0  0  0  0  0  0  0
   -6.3314    1.8977    2.9474 H   0  0  0  0  0  0  0  0  0  0  0  0
    2.9765    5.2816   -1.3137 H   0  0  0  0  0  0  0  0  0  0  0  0
    1.3924    5.3412   -0.5032 H   0  0  0  0  0  0  0  0  0  0  0  0
    2.8884    5.5112    0.4326 H   0  0  0  0  0  0  0  0  0  0  0  0
    0.9573    2.6419   -4.5355 H   0  0  0  0  0  0  0  0  0  0  0  0
   -0.2005    2.6904   -3.1933 H   0  0  0  0  0  0  0  0  0  0  0  0
    0.7190    1.2117   -3.5352 H   0  0  0  0  0  0  0  0  0  0  0  0
   -6.7350    3.8579    4.3560 H   0  0  0  0  0  0  0  0  0  0  0  0
   -6.2880    2.4547    5.3339 H   0  0  0  0  0  0  0  0  0  0  0  0
   -3.9394    3.3425    5.5208 H   0  0  0  0  0  0  0  0  0  0  0  0
   -4.4155    4.7659    4.5813 H   0  0  0  0  0  0  0  0  0  0  0  0
   -6.0371    5.4099    6.3759 H   0  0  0  0  0  0  0  0  0  0  0  0
   -5.5460    3.9867    7.3223 H   0  0  0  0  0  0  0  0  0  0  0  0
   -4.3806    5.2818    6.9952 H   0  0  0  0  0  0  0  0  0  0  0  0
  1  2  1  0  0  0  0 
  1  3  2  0  0  0  0 
  1  4  1  0  0  0  0 
  2  5  1  0  0  0  0 
  4  6  2  0  0  0  0 
  4  7  1  0  0  0  0 
  5  8  1  0  0  0  0 
  6  9  1  0  0  0  0 
  6 10  1  0  0  0  0 
  7 11  2  0  0  0  0 
  8 12  1  0  0  0  0 
  9 13  2  0  0  0  0 
  9 14  1  0  0  0  0 
 10 15  2  0  0  0  0 
 11 13  1  0  0  0  0 
 11 16  1  0  0  0  0 
 12 17  1  0  0  0  0 
 12 18  1  0  0  0  0 
 14 19  2  0  0  0  0 
 15 19  1  0  0  0  0 
 16 20  1  0  0  0  0 
 17 21  1  0  0  0  0 
 18 22  1  0  0  0  0 
 20 23  1  0  0  0  0 
 23 24  1  0  0  0  0 
 24 25  1  0  0  0  0 
  2 26  1  0  0  0  0 
  5 27  1  0  0  0  0 
  5 28  1  0  0  0  0 
  7 29  1  0  0  0  0 
  8 30  1  0  0  0  0 
  8 31  1  0  0  0  0 
 10 32  1  0  0  0  0 
 14 33  1  0  0  0  0 
 15 34  1  0  0  0  0 
 17 35  1  0  0  0  0 
 17 36  1  0  0  0  0 
 18 37  1  0  0  0  0 
 18 38  1  0  0  0  0 
 19 39  1  0  0  0  0 
 20 40  1  0  0  0  0 
 20 41  1  0  0  0  0 
 21 42  1  0  0  0  0 
 21 43  1  0  0  0  0 
 21 44  1  0  0  0  0 
 22 45  1  0  0  0  0 
 22 46  1  0  0  0  0 
 22 47  1  0  0  0  0 
 23 48  1  0  0  0  0 
 23 49  1  0  0  0  0 
 24 50  1  0  0  0  0 
 24 51  1  0  0  0  0 
 25 52  1  0  0  0  0 
 25 53  1  0  0  0  0 
 25 54  1  0  0  0  0 
M  END
> <cdk:Title>
cinchocaine

> <Conformer>
1

> <SuperDrugID>
SD000762

$$$$
