dibromotyrosine
  CDK     0628171801

 24 24  0  0  0  0  0  0  0  0999 V2000
   -0.4983   -1.5740   -0.5974 C   0  0  0  0  0  0  0  0  0  0  0  0
   -1.3137   -2.7120   -0.7504 C   0  0  0  0  0  0  0  0  0  0  0  0
   -2.6905   -2.5615   -1.0160 C   0  0  0  0  0  0  0  0  0  0  0  0
   -3.2457   -1.2699   -1.1041 C   0  0  0  0  0  0  0  0  0  0  0  0
   -2.4258   -0.1375   -0.9511 C   0  0  0  0  0  0  0  0  0  0  0  0
   -1.0396   -0.2702   -0.7044 C   0  0  0  0  0  0  0  0  0  0  0  0
   -3.4891   -3.6431   -1.1954 O   0  0  0  0  0  0  0  0  0  0  0  0
   -5.0644   -1.0316   -1.4263 Br  0  0  0  0  0  0  0  0  0  0  0  0
   -0.5446   -4.4020   -0.5938 Br  0  0  0  0  0  0  0  0  0  0  0  0
   -0.1835    0.9454   -0.5736 C   0  0  2  0  0  0  0  0  0  0  0  0
   -0.4411    1.7402    0.7433 C   0  0  1  0  0  0  0  0  0  0  0  0
    0.0065    1.0505    1.9734 C   0  0  0  0  0  0  0  0  0  0  0  0
    0.2400    3.0424    0.6876 N   0  0  2  0  0  0  0  0  0  0  0  0
    0.8884    0.0219    1.9377 O   0  0  0  0  0  0  0  0  0  0  0  0
   -0.4157    1.4261    3.0909 O   0  0  0  0  0  0  0  0  0  0  0  0
    0.4967   -1.7034   -0.3990 H   0  0  0  0  0  0  0  0  0  0  0  0
   -2.8494    0.7904   -1.0271 H   0  0  0  0  0  0  0  0  0  0  0  0
   -2.9251   -4.3186   -1.6251 H   0  0  0  0  0  0  0  0  0  0  0  0
   -0.3759    1.5936   -1.4345 H   0  0  0  0  0  0  0  0  0  0  0  0
    0.8771    0.6803   -0.6248 H   0  0  0  0  0  0  0  0  0  0  0  0
   -1.5135    1.9432    0.8303 H   0  0  0  0  0  0  0  0  0  0  0  0
   -0.0953    3.5213   -0.1515 H   0  0  0  0  0  0  0  0  0  0  0  0
    1.2385    2.8639    0.5518 H   0  0  0  0  0  0  0  0  0  0  0  0
    1.1743   -0.4132    2.7663 H   0  0  0  0  0  0  0  0  0  0  0  0
  1  2  2  0  0  0  0 
  1  6  1  0  0  0  0 
  2  3  1  0  0  0  0 
  3  4  2  0  0  0  0 
  4  5  1  0  0  0  0 
  5  6  2  0  0  0  0 
  3  7  1  0  0  0  0 
  4  8  1  0  0  0  0 
  2  9  1  0  0  0  0 
  6 10  1  0  0  0  0 
 10 11  1  0  0  0  0 
 11 12  1  0  0  0  0 
 11 13  1  0  0  0  0 
 12 14  1  0  0  0  0 
 12 15  2  0  0  0  0 
  1 16  1  0  0  0  0 
  5 17  1  0  0  0  0 
  7 18  1  0  0  0  0 
 10 19  1  0  0  0  0 
 10 20  1  0  0  0  0 
 11 21  1  0  0  0  0 
 13 22  1  0  0  0  0 
 13 23  1  0  0  0  0 
 14 24  1  0  0  0  0 
M  END
> <cdk:Title>
dibromotyrosine

> <Conformer>
1

> <SuperDrugID>
SD003553

$$$$
