trimetozine
  CDK     0628171801

 39 40  0  0  0  0  0  0  0  0999 V2000
   -1.7345    1.5004    0.2817 C   0  0  0  0  0  0  0  0  0  0  0  0
   -2.0284    1.3679    1.4965 O   0  0  0  0  0  0  0  0  0  0  0  0
   -2.7489    2.1350   -0.4924 C   0  0  0  0  0  0  0  0  0  0  0  0
   -0.5008    1.0454   -0.1922 N   0  0  0  0  0  0  0  0  0  0  0  0
   -2.4846    3.2906   -1.2623 C   0  0  0  0  0  0  0  0  0  0  0  0
   -4.0726    1.6383   -0.4636 C   0  0  0  0  0  0  0  0  0  0  0  0
   -0.1111    1.2009   -1.5829 C   0  0  1  0  0  0  0  0  0  0  0  0
    0.4802    0.5047    0.7374 C   0  0  2  0  0  0  0  0  0  0  0  0
   -3.5036    3.9242   -2.0069 C   0  0  0  0  0  0  0  0  0  0  0  0
   -5.1132    2.2764   -1.1746 C   0  0  0  0  0  0  0  0  0  0  0  0
    0.8727    0.1230   -2.0957 C   0  0  1  0  0  0  0  0  0  0  0  0
    1.4945   -0.4889    0.1117 C   0  0  2  0  0  0  0  0  0  0  0  0
   -3.2298    5.0695   -2.7132 O   0  0  0  0  0  0  0  0  0  0  0  0
   -4.8241    3.4224   -1.9533 C   0  0  0  0  0  0  0  0  0  0  0  0
   -6.4226    1.8703   -1.0577 O   0  0  0  0  0  0  0  0  0  0  0  0
    1.9602   -0.0366   -1.1699 O   0  0  0  0  0  0  0  0  0  0  0  0
   -2.5292    4.8450   -3.9499 C   0  0  0  0  0  0  0  0  0  0  0  0
   -5.8362    4.1151   -2.5717 O   0  0  0  0  0  0  0  0  0  0  0  0
   -6.7217    0.5227   -1.4673 C   0  0  0  0  0  0  0  0  0  0  0  0
   -6.2651    3.5706   -3.8315 C   0  0  0  0  0  0  0  0  0  0  0  0
   -1.5452    3.6956   -1.2748 H   0  0  0  0  0  0  0  0  0  0  0  0
   -4.2917    0.8088    0.0946 H   0  0  0  0  0  0  0  0  0  0  0  0
   -0.9770    1.1761   -2.2484 H   0  0  0  0  0  0  0  0  0  0  0  0
    0.3720    2.1752   -1.6868 H   0  0  0  0  0  0  0  0  0  0  0  0
    0.0012   -0.0284    1.5627 H   0  0  0  0  0  0  0  0  0  0  0  0
    1.0312    1.3485    1.1592 H   0  0  0  0  0  0  0  0  0  0  0  0
    0.3532   -0.8278   -2.2446 H   0  0  0  0  0  0  0  0  0  0  0  0
    1.2789    0.4304   -3.0609 H   0  0  0  0  0  0  0  0  0  0  0  0
    1.0436   -1.4803    0.0115 H   0  0  0  0  0  0  0  0  0  0  0  0
    2.3573   -0.5899    0.7724 H   0  0  0  0  0  0  0  0  0  0  0  0
   -2.3423    5.8092   -4.4231 H   0  0  0  0  0  0  0  0  0  0  0  0
   -1.5681    4.3521   -3.7927 H   0  0  0  0  0  0  0  0  0  0  0  0
   -3.1275    4.2448   -4.6329 H   0  0  0  0  0  0  0  0  0  0  0  0
   -7.8060    0.4316   -1.5223 H   0  0  0  0  0  0  0  0  0  0  0  0
   -6.3038    0.2892   -2.4493 H   0  0  0  0  0  0  0  0  0  0  0  0
   -6.3637   -0.2019   -0.7346 H   0  0  0  0  0  0  0  0  0  0  0  0
   -7.0937    4.1798   -4.1925 H   0  0  0  0  0  0  0  0  0  0  0  0
   -5.4688    3.6032   -4.5736 H   0  0  0  0  0  0  0  0  0  0  0  0
   -6.6179    2.5441   -3.7346 H   0  0  0  0  0  0  0  0  0  0  0  0
  1  2  2  0  0  0  0 
  1  3  1  0  0  0  0 
  1  4  1  0  0  0  0 
  3  5  2  0  0  0  0 
  3  6  1  0  0  0  0 
  4  7  1  0  0  0  0 
  4  8  1  0  0  0  0 
  5  9  1  0  0  0  0 
  6 10  2  0  0  0  0 
  7 11  1  0  0  0  0 
  8 12  1  0  0  0  0 
  9 13  1  0  0  0  0 
  9 14  2  0  0  0  0 
 10 14  1  0  0  0  0 
 10 15  1  0  0  0  0 
 11 16  1  0  0  0  0 
 12 16  1  0  0  0  0 
 13 17  1  0  0  0  0 
 14 18  1  0  0  0  0 
 15 19  1  0  0  0  0 
 18 20  1  0  0  0  0 
  5 21  1  0  0  0  0 
  6 22  1  0  0  0  0 
  7 23  1  0  0  0  0 
  7 24  1  0  0  0  0 
  8 25  1  0  0  0  0 
  8 26  1  0  0  0  0 
 11 27  1  0  0  0  0 
 11 28  1  0  0  0  0 
 12 29  1  0  0  0  0 
 12 30  1  0  0  0  0 
 17 31  1  0  0  0  0 
 17 32  1  0  0  0  0 
 17 33  1  0  0  0  0 
 19 34  1  0  0  0  0 
 19 35  1  0  0  0  0 
 19 36  1  0  0  0  0 
 20 37  1  0  0  0  0 
 20 38  1  0  0  0  0 
 20 39  1  0  0  0  0 
M  END
> <cdk:Title>
trimetozine

> <Conformer>
1

> <SuperDrugID>
SD002485

$$$$
