drostanolone propionate
  CDK     0628171802

 62 65  0  0  0  0  0  0  0  0999 V2000
   -3.3306    1.2891   -1.1100 C   0  0  0  0  0  0  0  0  0  0  0  0
   -2.8478    0.5443    0.1963 C   0  0  1  0  0  0  0  0  0  0  0  0
   -4.0523    0.3335    1.2145 C   0  0  2  0  0  0  0  0  0  0  0  0
   -2.2379   -0.8872   -0.1081 C   0  0  1  0  0  0  0  0  0  0  0  0
   -1.6953    1.3985    0.8590 C   0  0  1  0  0  0  0  0  0  0  0  0
   -5.1522   -0.6455    0.6304 C   0  0  2  0  0  0  0  0  0  0  0  0
   -4.6278    1.6560    1.8501 C   0  0  1  0  0  0  0  0  0  0  0  0
   -3.2908   -1.8995   -0.6557 C   0  0  2  0  0  0  0  0  0  0  0  0
   -0.9556   -0.8284   -0.9919 C   0  0  2  0  0  0  0  0  0  0  0  0
   -0.3713    1.4684    0.0296 C   0  0  2  0  0  0  0  0  0  0  0  0
   -6.3521   -0.7605    1.6208 C   0  0  1  0  0  0  0  0  0  0  0  0
   -4.5189   -2.0285    0.2866 C   0  0  2  0  0  0  0  0  0  0  0  0
   -5.9183    1.4733    2.7016 C   0  0  1  0  0  0  0  0  0  0  0  0
    0.0418    0.1021   -0.4055 C   0  0  0  0  0  0  0  0  0  0  0  0
    0.7285    2.2478    0.8069 C   0  0  0  0  0  0  0  0  0  0  0  0
   -6.9941    0.6248    1.9518 C   0  0  1  0  0  0  0  0  0  0  0  0
   -7.5623   -1.6537    1.2576 C   0  0  2  0  0  0  0  0  0  0  0  0
    1.2200   -0.3006   -0.2538 O   0  0  0  0  0  0  0  0  0  0  0  0
   -7.5345    1.4261    0.7036 C   0  0  0  0  0  0  0  0  0  0  0  0
   -8.1739    0.1561    2.8557 C   0  0  2  0  0  0  0  0  0  0  0  0
   -8.7190   -1.1122    2.1418 C   0  0  1  0  0  0  0  0  0  0  0  0
   -9.1741    1.1726    3.0498 O   0  0  0  0  0  0  0  0  0  0  0  0
   -9.5975    1.7173    4.2337 C   0  0  0  0  0  0  0  0  0  0  0  0
  -10.5756    2.8219    4.2110 C   0  0  1  0  0  0  0  0  0  0  0  0
   -9.1607    1.3017    5.3325 O   0  0  0  0  0  0  0  0  0  0  0  0
  -11.9124    2.4030    3.5630 C   0  0  0  0  0  0  0  0  0  0  0  0
   -5.5575   -0.2630   -0.3043 H   0  0  0  0  0  0  0  0  0  0  0  0
   -3.6325   -0.1931    2.0794 H   0  0  0  0  0  0  0  0  0  0  0  0
   -5.9385   -1.1919    2.5427 H   0  0  0  0  0  0  0  0  0  0  0  0
   -1.9030   -1.3170    0.8447 H   0  0  0  0  0  0  0  0  0  0  0  0
   -4.1301    0.7577   -1.6172 H   0  0  0  0  0  0  0  0  0  0  0  0
   -3.6910    2.2931   -0.8846 H   0  0  0  0  0  0  0  0  0  0  0  0
   -2.5364    1.4032   -1.8449 H   0  0  0  0  0  0  0  0  0  0  0  0
   -2.0414    2.4234    1.0248 H   0  0  0  0  0  0  0  0  0  0  0  0
   -1.4621    0.9797    1.8439 H   0  0  0  0  0  0  0  0  0  0  0  0
   -3.8768    2.0917    2.5150 H   0  0  0  0  0  0  0  0  0  0  0  0
   -4.8257    2.3995    1.0800 H   0  0  0  0  0  0  0  0  0  0  0  0
   -2.8331   -2.8888   -0.7482 H   0  0  0  0  0  0  0  0  0  0  0  0
   -3.6238   -1.6035   -1.6530 H   0  0  0  0  0  0  0  0  0  0  0  0
   -1.2013   -0.4994   -2.0026 H   0  0  0  0  0  0  0  0  0  0  0  0
   -0.5236   -1.8307   -1.0756 H   0  0  0  0  0  0  0  0  0  0  0  0
   -0.5644    2.0503   -0.8751 H   0  0  0  0  0  0  0  0  0  0  0  0
   -5.2627   -2.6620   -0.2034 H   0  0  0  0  0  0  0  0  0  0  0  0
   -4.2107   -2.5328    1.2072 H   0  0  0  0  0  0  0  0  0  0  0  0
   -5.6451    0.9878    3.6434 H   0  0  0  0  0  0  0  0  0  0  0  0
   -6.3293    2.4544    2.9596 H   0  0  0  0  0  0  0  0  0  0  0  0
    0.3798    3.2515    1.0595 H   0  0  0  0  0  0  0  0  0  0  0  0
    0.9911    1.7277    1.7301 H   0  0  0  0  0  0  0  0  0  0  0  0
    1.6249    2.3473    0.1921 H   0  0  0  0  0  0  0  0  0  0  0  0
   -7.3516   -2.7048    1.4784 H   0  0  0  0  0  0  0  0  0  0  0  0
   -7.8077   -1.5661    0.1937 H   0  0  0  0  0  0  0  0  0  0  0  0
   -6.7422    1.6566   -0.0062 H   0  0  0  0  0  0  0  0  0  0  0  0
   -7.9720    2.3771    1.0150 H   0  0  0  0  0  0  0  0  0  0  0  0
   -8.3003    0.8696    0.1626 H   0  0  0  0  0  0  0  0  0  0  0  0
   -7.7797   -0.1573    3.8300 H   0  0  0  0  0  0  0  0  0  0  0  0
   -9.5760   -0.8648    1.5118 H   0  0  0  0  0  0  0  0  0  0  0  0
   -9.0346   -1.8622    2.8714 H   0  0  0  0  0  0  0  0  0  0  0  0
  -10.7795    3.1711    5.2299 H   0  0  0  0  0  0  0  0  0  0  0  0
  -10.1403    3.6575    3.6553 H   0  0  0  0  0  0  0  0  0  0  0  0
  -12.5705    3.2696    3.4964 H   0  0  0  0  0  0  0  0  0  0  0  0
  -11.7569    2.0077    2.5565 H   0  0  0  0  0  0  0  0  0  0  0  0
  -12.4001    1.6398    4.1730 H   0  0  0  0  0  0  0  0  0  0  0  0
  2  1  1  0  0  0  0 
  3  2  1  0  0  0  0 
  2  4  1  0  0  0  0 
  2  5  1  0  0  0  0 
  6  3  1  0  0  0  0 
  3  7  1  0  0  0  0 
  3 28  1  0  0  0  0 
  4  8  1  0  0  0  0 
  4  9  1  0  0  0  0 
  4 30  1  0  0  0  0 
 10  5  1  0  0  0  0 
 11  6  1  0  0  0  0 
  6 12  1  0  0  0  0 
  6 27  1  0  0  0  0 
  7 13  1  0  0  0  0 
  8 12  1  0  0  0  0 
  9 14  1  0  0  0  0 
 10 14  1  0  0  0  0 
 10 15  1  0  0  0  0 
 11 16  1  0  0  0  0 
 11 17  1  0  0  0  0 
 11 29  1  0  0  0  0 
 16 13  1  0  0  0  0 
 14 18  2  0  0  0  0 
 16 19  1  0  0  0  0 
 16 20  1  0  0  0  0 
 17 21  1  0  0  0  0 
 20 21  1  0  0  0  0 
 20 22  1  0  0  0  0 
 22 23  1  0  0  0  0 
 23 24  1  0  0  0  0 
 23 25  2  0  0  0  0 
 24 26  1  0  0  0  0 
  1 31  1  0  0  0  0 
  1 32  1  0  0  0  0 
  1 33  1  0  0  0  0 
  5 34  1  0  0  0  0 
  5 35  1  0  0  0  0 
  7 36  1  0  0  0  0 
  7 37  1  0  0  0  0 
  8 38  1  0  0  0  0 
  8 39  1  0  0  0  0 
  9 40  1  0  0  0  0 
  9 41  1  0  0  0  0 
 10 42  1  0  0  0  0 
 12 43  1  0  0  0  0 
 12 44  1  0  0  0  0 
 13 45  1  0  0  0  0 
 13 46  1  0  0  0  0 
 15 47  1  0  0  0  0 
 15 48  1  0  0  0  0 
 15 49  1  0  0  0  0 
 17 50  1  0  0  0  0 
 17 51  1  0  0  0  0 
 19 52  1  0  0  0  0 
 19 53  1  0  0  0  0 
 19 54  1  0  0  0  0 
 20 55  1  0  0  0  0 
 21 56  1  0  0  0  0 
 21 57  1  0  0  0  0 
 24 58  1  0  0  0  0 
 24 59  1  0  0  0  0 
 26 60  1  0  0  0  0 
 26 61  1  0  0  0  0 
 26 62  1  0  0  0  0 
M  END
> <cdk:Title>
drostanolone propionate

> <Conformer>
1

> <SuperDrugID>
SD000855

$$$$
