mephenoxalone
  CDK     0628171801

 29 30  0  0  0  0  0  0  0  0999 V2000
   -0.0194    2.5558   -1.3712 O   0  0  0  0  0  0  0  0  0  0  0  0
   -1.3488    2.4786   -0.8103 C   0  0  1  0  0  0  0  0  0  0  0  0
    0.3070    3.8245   -1.7776 C   0  0  0  0  0  0  0  0  0  0  0  0
   -1.6632    1.0534   -0.2971 C   0  0  2  0  0  0  0  0  0  0  0  0
    0.0855    4.2242   -3.1163 C   0  0  0  0  0  0  0  0  0  0  0  0
    0.8630    4.7387   -0.8567 C   0  0  0  0  0  0  0  0  0  0  0  0
   -0.6568    0.4885    0.7441 C   0  0  1  0  0  0  0  0  0  0  0  0
   -1.6137    0.1112   -1.3677 O   0  0  0  0  0  0  0  0  0  0  0  0
   -0.4266    3.3401   -4.0279 O   0  0  0  0  0  0  0  0  0  0  0  0
    0.3482    5.5569   -3.4982 C   0  0  0  0  0  0  0  0  0  0  0  0
    1.1464    6.0600   -1.2507 C   0  0  0  0  0  0  0  0  0  0  0  0
   -0.1901   -0.6865    0.1157 N   0  0  0  0  0  0  0  0  0  0  0  0
   -0.7480   -0.8776   -1.0807 C   0  0  0  0  0  0  0  0  0  0  0  0
    0.5834    2.6741   -4.8061 C   0  0  0  0  0  0  0  0  0  0  0  0
    0.8738    6.4730   -2.5681 C   0  0  0  0  0  0  0  0  0  0  0  0
   -0.5005   -1.8415   -1.8378 O   0  0  0  0  0  0  0  0  0  0  0  0
   -1.4587    3.1710    0.0312 H   0  0  0  0  0  0  0  0  0  0  0  0
   -2.0959    2.7358   -1.5696 H   0  0  0  0  0  0  0  0  0  0  0  0
   -2.6720    1.0417    0.1265 H   0  0  0  0  0  0  0  0  0  0  0  0
    1.0530    4.4465    0.1043 H   0  0  0  0  0  0  0  0  0  0  0  0
    0.1823    1.1592    0.9381 H   0  0  0  0  0  0  0  0  0  0  0  0
   -1.1469    0.2387    1.6880 H   0  0  0  0  0  0  0  0  0  0  0  0
    0.1568    5.8626   -4.4554 H   0  0  0  0  0  0  0  0  0  0  0  0
    1.5437    6.7214   -0.5784 H   0  0  0  0  0  0  0  0  0  0  0  0
    0.4614   -1.2867    0.5087 H   0  0  0  0  0  0  0  0  0  0  0  0
    0.0802    2.0466   -5.5403 H   0  0  0  0  0  0  0  0  0  0  0  0
    1.2133    3.3848   -5.3469 H   0  0  0  0  0  0  0  0  0  0  0  0
    1.2107    2.0317   -4.1836 H   0  0  0  0  0  0  0  0  0  0  0  0
    1.0560    7.4406   -2.8490 H   0  0  0  0  0  0  0  0  0  0  0  0
  1  2  1  0  0  0  0 
  1  3  1  0  0  0  0 
  4  2  1  0  0  0  0 
  3  5  2  0  0  0  0 
  3  6  1  0  0  0  0 
  4  7  1  0  0  0  0 
  4  8  1  0  0  0  0 
  5  9  1  0  0  0  0 
  5 10  1  0  0  0  0 
  6 11  2  0  0  0  0 
  7 12  1  0  0  0  0 
  8 13  1  0  0  0  0 
  9 14  1  0  0  0  0 
 10 15  2  0  0  0  0 
 11 15  1  0  0  0  0 
 12 13  1  0  0  0  0 
 13 16  2  0  0  0  0 
 17  2  1  0  0  0  0 
 18  2  1  0  0  0  0 
 19  4  1  0  0  0  0 
 20  6  1  0  0  0  0 
 21  7  1  0  0  0  0 
 22  7  1  0  0  0  0 
 23 10  1  0  0  0  0 
 24 11  1  0  0  0  0 
 25 12  1  0  0  0  0 
 26 14  1  0  0  0  0 
 27 14  1  0  0  0  0 
 28 14  1  0  0  0  0 
 29 15  1  0  0  0  0 
M  END
> <cdk:Title>
mephenoxalone

> <Conformer>
1

> <SuperDrugID>
SD001497

$$$$
