ritiometan
  CDK     0628171802

 26 25  0  0  0  0  0  0  0  0999 V2000
   -1.7448   -2.1825   -0.9435 C   0  0  2  0  0  0  0  0  0  0  0  0
    0.0294   -2.3323   -1.3228 S   0  0  0  0  0  0  0  0  0  0  0  0
   -1.9653   -2.3030    0.8581 S   0  0  0  0  0  0  0  0  0  0  0  0
   -2.6633   -3.5670   -1.6846 S   0  0  0  0  0  0  0  0  0  0  0  0
    0.2778   -1.3451   -2.8304 C   0  0  1  0  0  0  0  0  0  0  0  0
   -1.1737   -0.7984    1.5151 C   0  0  2  0  0  0  0  0  0  0  0  0
   -3.1693   -2.9820   -3.3315 C   0  0  2  0  0  0  0  0  0  0  0  0
    1.7149   -1.1758   -3.0909 C   0  0  0  0  0  0  0  0  0  0  0  0
   -1.3285   -0.7452    2.9758 C   0  0  0  0  0  0  0  0  0  0  0  0
   -4.1130   -3.9412   -3.9224 C   0  0  0  0  0  0  0  0  0  0  0  0
    2.2715    0.0569   -3.1251 O   0  0  0  0  0  0  0  0  0  0  0  0
    2.4486   -2.1697   -3.2943 O   0  0  0  0  0  0  0  0  0  0  0  0
   -2.5608   -0.6426    3.5253 O   0  0  0  0  0  0  0  0  0  0  0  0
   -0.3327   -0.7750    3.7343 O   0  0  0  0  0  0  0  0  0  0  0  0
   -5.4077   -3.5978   -4.1130 O   0  0  0  0  0  0  0  0  0  0  0  0
   -3.7339   -5.0867   -4.2538 O   0  0  0  0  0  0  0  0  0  0  0  0
   -2.1479   -1.2269   -1.2831 H   0  0  0  0  0  0  0  0  0  0  0  0
   -0.1830   -1.8442   -3.6812 H   0  0  0  0  0  0  0  0  0  0  0  0
   -0.1944   -0.3706   -2.6970 H   0  0  0  0  0  0  0  0  0  0  0  0
   -1.6416    0.0834    1.0745 H   0  0  0  0  0  0  0  0  0  0  0  0
   -0.1154   -0.8019    1.2484 H   0  0  0  0  0  0  0  0  0  0  0  0
   -2.3029   -2.8796   -3.9849 H   0  0  0  0  0  0  0  0  0  0  0  0
   -3.6453   -2.0052   -3.2272 H   0  0  0  0  0  0  0  0  0  0  0  0
    3.2333    0.1608   -3.2831 H   0  0  0  0  0  0  0  0  0  0  0  0
   -2.6646   -0.5825    4.4963 H   0  0  0  0  0  0  0  0  0  0  0  0
   -6.0450   -4.2427   -4.4833 H   0  0  0  0  0  0  0  0  0  0  0  0
  1  2  1  0  0  0  0 
  1  3  1  0  0  0  0 
  1  4  1  0  0  0  0 
  2  5  1  0  0  0  0 
  3  6  1  0  0  0  0 
  4  7  1  0  0  0  0 
  5  8  1  0  0  0  0 
  6  9  1  0  0  0  0 
  7 10  1  0  0  0  0 
  8 11  1  0  0  0  0 
  8 12  2  0  0  0  0 
  9 13  1  0  0  0  0 
  9 14  2  0  0  0  0 
 10 15  1  0  0  0  0 
 10 16  2  0  0  0  0 
  1 17  1  0  0  0  0 
  5 18  1  0  0  0  0 
  5 19  1  0  0  0  0 
  6 20  1  0  0  0  0 
  6 21  1  0  0  0  0 
  7 22  1  0  0  0  0 
  7 23  1  0  0  0  0 
 11 24  1  0  0  0  0 
 13 25  1  0  0  0  0 
 15 26  1  0  0  0  0 
M  END
> <cdk:Title>
ritiometan

> <Conformer>
1

> <SuperDrugID>
SD003721

$$$$
