sulfadoxine
  CDK     0628171801

 35 36  0  0  0  0  0  0  0  0999 V2000
    0.9034    0.6317   -0.9894 N   0  0  0  0  0  0  0  0  0  0  0  0
   -0.1718   -0.5007   -0.2766 S   0  0  1  0  0  0  0  0  0  0  0  0
    1.7469    1.4109   -0.2748 C   0  0  0  0  0  0  0  0  0  0  0  0
   -0.9294    0.2045    0.9504 O   0  0  0  0  0  0  0  0  0  0  0  0
   -1.2560   -0.9272   -1.3795 O   0  0  0  0  0  0  0  0  0  0  0  0
    0.7170   -1.9280    0.2764 C   0  0  0  0  0  0  0  0  0  0  0  0
    2.2564    2.6012   -0.8424 C   0  0  0  0  0  0  0  0  0  0  0  0
    2.1068    1.0693    0.9928 N   0  0  0  0  0  0  0  0  0  0  0  0
    1.7321   -2.4731   -0.5354 C   0  0  0  0  0  0  0  0  0  0  0  0
    0.4271   -2.5204    1.5237 C   0  0  0  0  0  0  0  0  0  0  0  0
    1.9606    2.9763   -2.1305 O   0  0  0  0  0  0  0  0  0  0  0  0
    3.1132    3.3914   -0.0426 C   0  0  0  0  0  0  0  0  0  0  0  0
    2.9371    1.8381    1.7387 C   0  0  0  0  0  0  0  0  0  0  0  0
    2.4700   -3.5867   -0.0951 C   0  0  0  0  0  0  0  0  0  0  0  0
    1.1638   -3.6348    1.9667 C   0  0  0  0  0  0  0  0  0  0  0  0
    0.7409    3.7320   -2.2581 C   0  0  0  0  0  0  0  0  0  0  0  0
    3.6026    4.5816   -0.5017 O   0  0  0  0  0  0  0  0  0  0  0  0
    3.4252    2.9914    1.2192 N   0  0  0  0  0  0  0  0  0  0  0  0
    2.1871   -4.1687    1.1572 C   0  0  0  0  0  0  0  0  0  0  0  0
    4.9168    4.4753   -1.0714 C   0  0  0  0  0  0  0  0  0  0  0  0
    2.8961   -5.2307    1.5795 N   0  0  0  0  0  0  0  0  0  0  0  0
    0.8716    0.7530   -1.9515 H   0  0  0  0  0  0  0  0  0  0  0  0
    1.9374   -2.0655   -1.4508 H   0  0  0  0  0  0  0  0  0  0  0  0
   -0.3212   -2.1485    2.1142 H   0  0  0  0  0  0  0  0  0  0  0  0
    3.1866    1.5528    2.6881 H   0  0  0  0  0  0  0  0  0  0  0  0
    3.2106   -3.9702   -0.6909 H   0  0  0  0  0  0  0  0  0  0  0  0
    0.9492   -4.0533    2.8776 H   0  0  0  0  0  0  0  0  0  0  0  0
    0.6181    3.9965   -3.3082 H   0  0  0  0  0  0  0  0  0  0  0  0
   -0.1291    3.1443   -1.9559 H   0  0  0  0  0  0  0  0  0  0  0  0
    0.7735    4.6579   -1.6782 H   0  0  0  0  0  0  0  0  0  0  0  0
    5.2257    5.4734   -1.3835 H   0  0  0  0  0  0  0  0  0  0  0  0
    5.6445    4.1069   -0.3442 H   0  0  0  0  0  0  0  0  0  0  0  0
    4.9170    3.8284   -1.9515 H   0  0  0  0  0  0  0  0  0  0  0  0
    3.5985   -5.5970    1.0227 H   0  0  0  0  0  0  0  0  0  0  0  0
    2.7056   -5.6323    2.4401 H   0  0  0  0  0  0  0  0  0  0  0  0
  1  2  1  0  0  0  0 
  1  3  1  0  0  0  0 
  2  4  2  0  0  0  0 
  2  5  2  0  0  0  0 
  2  6  1  0  0  0  0 
  3  7  2  0  0  0  0 
  3  8  1  0  0  0  0 
  6  9  2  0  0  0  0 
  6 10  1  0  0  0  0 
  7 11  1  0  0  0  0 
  7 12  1  0  0  0  0 
  8 13  2  0  0  0  0 
  9 14  1  0  0  0  0 
 10 15  2  0  0  0  0 
 11 16  1  0  0  0  0 
 12 17  1  0  0  0  0 
 12 18  2  0  0  0  0 
 13 18  1  0  0  0  0 
 14 19  2  0  0  0  0 
 15 19  1  0  0  0  0 
 17 20  1  0  0  0  0 
 19 21  1  0  0  0  0 
  1 22  1  0  0  0  0 
  9 23  1  0  0  0  0 
 10 24  1  0  0  0  0 
 13 25  1  0  0  0  0 
 14 26  1  0  0  0  0 
 15 27  1  0  0  0  0 
 16 28  1  0  0  0  0 
 16 29  1  0  0  0  0 
 16 30  1  0  0  0  0 
 20 31  1  0  0  0  0 
 20 32  1  0  0  0  0 
 20 33  1  0  0  0  0 
 21 34  1  0  0  0  0 
 21 35  1  0  0  0  0 
M  END
> <cdk:Title>
sulfadoxine

> <Conformer>
1

> <SuperDrugID>
SD002250

$$$$
