diethylpropion
  CDK     0628171802

 34 34  0  0  0  0  0  0  0  0999 V2000
    1.6961   -0.8199   -3.4745 C   0  0  0  0  0  0  0  0  0  0  0  0
    1.5352    0.3336   -2.5266 C   0  0  2  0  0  0  0  0  0  0  0  0
    2.2990   -0.5558   -4.5433 O   0  0  0  0  0  0  0  0  0  0  0  0
    1.2082   -2.1560   -3.2606 C   0  0  0  0  0  0  0  0  0  0  0  0
    2.1451    0.0903   -1.1620 N   0  0  0  0  0  0  0  0  0  0  0  0
    0.0262    0.7289   -2.5314 C   0  0  0  0  0  0  0  0  0  0  0  0
    0.7037   -2.5946   -2.0080 C   0  0  0  0  0  0  0  0  0  0  0  0
    1.2163   -3.1028   -4.3204 C   0  0  0  0  0  0  0  0  0  0  0  0
    3.5130   -0.5350   -1.0982 C   0  0  2  0  0  0  0  0  0  0  0  0
    1.8711    1.0907   -0.0718 C   0  0  1  0  0  0  0  0  0  0  0  0
    0.2215   -3.9009   -1.8234 C   0  0  0  0  0  0  0  0  0  0  0  0
    0.7324   -4.4124   -4.1397 C   0  0  0  0  0  0  0  0  0  0  0  0
    4.6630    0.3501   -1.6324 C   0  0  0  0  0  0  0  0  0  0  0  0
    0.7587    0.5683    0.8635 C   0  0  0  0  0  0  0  0  0  0  0  0
    0.2299   -4.8109   -2.8916 C   0  0  0  0  0  0  0  0  0  0  0  0
    2.0600    1.2037   -2.9394 H   0  0  0  0  0  0  0  0  0  0  0  0
   -0.3347    0.8518   -3.5543 H   0  0  0  0  0  0  0  0  0  0  0  0
   -0.5877   -0.0299   -2.0474 H   0  0  0  0  0  0  0  0  0  0  0  0
   -0.1355    1.6778   -2.0225 H   0  0  0  0  0  0  0  0  0  0  0  0
    0.6742   -1.9743   -1.2014 H   0  0  0  0  0  0  0  0  0  0  0  0
    1.5706   -2.8511   -5.2475 H   0  0  0  0  0  0  0  0  0  0  0  0
    3.5236   -1.4740   -1.6537 H   0  0  0  0  0  0  0  0  0  0  0  0
    3.7405   -0.8050   -0.0624 H   0  0  0  0  0  0  0  0  0  0  0  0
    2.7527    1.2708    0.5507 H   0  0  0  0  0  0  0  0  0  0  0  0
    1.5847    2.0628   -0.4788 H   0  0  0  0  0  0  0  0  0  0  0  0
   -0.1346   -4.1902   -0.9098 H   0  0  0  0  0  0  0  0  0  0  0  0
    0.7444   -5.0729   -4.9190 H   0  0  0  0  0  0  0  0  0  0  0  0
    4.5381    0.5402   -2.6985 H   0  0  0  0  0  0  0  0  0  0  0  0
    4.6958    1.3031   -1.1035 H   0  0  0  0  0  0  0  0  0  0  0  0
    5.6167   -0.1596   -1.4844 H   0  0  0  0  0  0  0  0  0  0  0  0
    0.6407    1.2378    1.7170 H   0  0  0  0  0  0  0  0  0  0  0  0
    1.0168   -0.4245    1.2350 H   0  0  0  0  0  0  0  0  0  0  0  0
   -0.1942    0.5080    0.3396 H   0  0  0  0  0  0  0  0  0  0  0  0
   -0.1249   -5.7596   -2.7601 H   0  0  0  0  0  0  0  0  0  0  0  0
  2  1  1  0  0  0  0 
  1  3  2  0  0  0  0 
  1  4  1  0  0  0  0 
  2  5  1  0  0  0  0 
  2  6  1  0  0  0  0 
  4  7  2  0  0  0  0 
  4  8  1  0  0  0  0 
  5  9  1  0  0  0  0 
  5 10  1  0  0  0  0 
  7 11  1  0  0  0  0 
  8 12  2  0  0  0  0 
  9 13  1  0  0  0  0 
 10 14  1  0  0  0  0 
 11 15  2  0  0  0  0 
 12 15  1  0  0  0  0 
 16  2  1  0  0  0  0 
 17  6  1  0  0  0  0 
 18  6  1  0  0  0  0 
 19  6  1  0  0  0  0 
 20  7  1  0  0  0  0 
 21  8  1  0  0  0  0 
 22  9  1  0  0  0  0 
 23  9  1  0  0  0  0 
 24 10  1  0  0  0  0 
 25 10  1  0  0  0  0 
 26 11  1  0  0  0  0 
 27 12  1  0  0  0  0 
 28 13  1  0  0  0  0 
 29 13  1  0  0  0  0 
 30 13  1  0  0  0  0 
 31 14  1  0  0  0  0 
 32 14  1  0  0  0  0 
 33 14  1  0  0  0  0 
 34 15  1  0  0  0  0 
M  END
> <cdk:Title>
diethylpropion

> <Conformer>
1

> <SuperDrugID>
SD000777

$$$$
