fosfomycin
  CDK     0628171801

 15 15  0  0  0  0  0  0  0  0999 V2000
   -3.0795    0.9494   -1.6365 C   0  0  0  0  0  0  0  0  0  0  0  0
   -1.9523    1.1250   -2.6760 C   0  0  2  0  0  0  0  0  0  0  0  0
   -1.2602   -0.0793   -3.0488 O   0  0  0  0  0  0  0  0  0  0  0  0
   -0.4822    0.9118   -2.3622 C   0  0  2  0  0  0  0  0  0  0  0  0
    0.1256    0.3870   -0.8477 P   0  0  1  0  0  0  0  0  0  0  0  0
    1.5843   -0.2084   -1.0650 O   0  0  0  0  0  0  0  0  0  0  0  0
    0.2837    1.6409    0.1146 O   0  0  0  0  0  0  0  0  0  0  0  0
   -0.7128   -0.6317   -0.2031 O   0  0  0  0  0  0  0  0  0  0  0  0
   -3.0139   -0.0087   -1.1213 H   0  0  0  0  0  0  0  0  0  0  0  0
   -3.0313    1.7586   -0.9062 H   0  0  0  0  0  0  0  0  0  0  0  0
   -4.0430    0.9956   -2.1472 H   0  0  0  0  0  0  0  0  0  0  0  0
   -2.1489    1.7836   -3.5256 H   0  0  0  0  0  0  0  0  0  0  0  0
    0.2120    1.4354   -3.0187 H   0  0  0  0  0  0  0  0  0  0  0  0
    1.8997   -0.4251   -0.1635 H   0  0  0  0  0  0  0  0  0  0  0  0
    0.9122    2.2339   -0.3489 H   0  0  0  0  0  0  0  0  0  0  0  0
  2  1  1  0  0  0  0 
  2  3  1  0  0  0  0 
  4  3  1  0  0  0  0 
  2  4  1  0  0  0  0 
  4  5  1  0  0  0  0 
  5  6  1  0  0  0  0 
  5  7  1  0  0  0  0 
  5  8  2  0  0  0  0 
  9  1  1  0  0  0  0 
 10  1  1  0  0  0  0 
 11  1  1  0  0  0  0 
  2 12  1  0  0  0  0 
  4 13  1  0  0  0  0 
 14  6  1  0  0  0  0 
 15  7  1  0  0  0  0 
M  END
> <cdk:Title>
fosfomycin

> <Conformer>
1

> <SuperDrugID>
SD001116

$$$$
