iodoform
  CDK     0628171801

  5  4  0  0  0  0  0  0  0  0999 V2000
    0.0000    0.0000    0.0000 C   0  0  2  0  0  0  0  0  0  0  0  0
   -0.7067   -0.9994   -1.7310 I   0  0  0  0  0  0  0  0  0  0  0  0
   -0.7067    1.9988    0.0000 I   0  0  0  0  0  0  0  0  0  0  0  0
    2.1200    0.0000    0.0000 I   0  0  0  0  0  0  0  0  0  0  0  0
   -0.3633   -0.5138    0.8900 H   0  0  0  0  0  0  0  0  0  0  0  0
  1  2  1  0  0  0  0 
  1  3  1  0  0  0  0 
  1  4  1  0  0  0  0 
  1  5  1  0  0  0  0 
M  END
> <cdk:Title>
iodoform

> <Conformer>
1

> <SuperDrugID>
SD003635

$$$$
