diathymosulfone
  CDK     0628171801

 75 78  0  0  0  0  0  0  0  0999 V2000
    0.0013    4.3396   -2.0688 C   0  0  0  0  0  0  0  0  0  0  0  0
    0.5098    3.4417   -0.9135 C   0  0  2  0  0  0  0  0  0  0  0  0
    2.0633    3.4367   -0.8330 C   0  0  0  0  0  0  0  0  0  0  0  0
   -0.1127    2.0743   -1.0011 C   0  0  0  0  0  0  0  0  0  0  0  0
   -1.2218    1.7167   -0.1921 C   0  0  0  0  0  0  0  0  0  0  0  0
   -1.7924    2.5802    0.6870 O   0  0  0  0  0  0  0  0  0  0  0  0
   -1.7956    0.4370   -0.2785 C   0  0  0  0  0  0  0  0  0  0  0  0
   -1.2998   -0.5266   -1.1839 C   0  0  0  0  0  0  0  0  0  0  0  0
   -1.9422   -1.8650   -1.2501 C   0  0  0  0  0  0  0  0  0  0  0  0
   -0.1934   -0.1954   -2.0099 C   0  0  0  0  0  0  0  0  0  0  0  0
    0.3697    1.1031   -1.9154 C   0  0  0  0  0  0  0  0  0  0  0  0
    0.2838   -1.1244   -2.8416 N   0  0  0  0  0  0  0  0  0  0  0  0
    1.2471   -1.0328   -3.5971 N   0  0  0  0  0  0  0  0  0  0  0  0
    1.7221   -1.9688   -4.4108 C   0  0  0  0  0  0  0  0  0  0  0  0
    1.1456   -3.2531   -4.5773 C   0  0  0  0  0  0  0  0  0  0  0  0
    1.7365   -4.1979   -5.4409 C   0  0  0  0  0  0  0  0  0  0  0  0
    2.9099   -3.8750   -6.1547 C   0  0  0  0  0  0  0  0  0  0  0  0
    3.4790   -2.5954   -5.9996 C   0  0  0  0  0  0  0  0  0  0  0  0
    2.8875   -1.6520   -5.1404 C   0  0  0  0  0  0  0  0  0  0  0  0
    3.6875   -5.0494   -7.2392 S   0  0  1  0  0  0  0  0  0  0  0  0
    2.6504   -6.2136   -7.6282 O   0  0  0  0  0  0  0  0  0  0  0  0
    4.1142   -4.3053   -8.5971 O   0  0  0  0  0  0  0  0  0  0  0  0
    5.1018   -5.7891   -6.4633 C   0  0  0  0  0  0  0  0  0  0  0  0
    4.8992   -6.5093   -5.2312 C   0  0  0  0  0  0  0  0  0  0  0  0
    6.0182   -7.0953   -4.6134 C   0  0  0  0  0  0  0  0  0  0  0  0
    7.3143   -6.9933   -5.1569 C   0  0  0  0  0  0  0  0  0  0  0  0
    7.4945   -6.2973   -6.3761 C   0  0  0  0  0  0  0  0  0  0  0  0
    6.4175   -5.6860   -7.0522 C   0  0  0  0  0  0  0  0  0  0  0  0
    8.2970   -7.5681   -4.4695 N   0  0  0  0  0  0  0  0  0  0  0  0
    9.4939   -7.5770   -4.7390 N   0  0  0  0  0  0  0  0  0  0  0  0
   10.4825   -8.1494   -4.0509 C   0  0  0  0  0  0  0  0  0  0  0  0
   10.2719   -8.8356   -2.8269 C   0  0  0  0  0  0  0  0  0  0  0  0
   11.3313   -9.4613   -2.1200 C   0  0  0  0  0  0  0  0  0  0  0  0
   11.0769  -10.1903   -0.8266 C   0  0  1  0  0  0  0  0  0  0  0  0
   10.5730   -9.2399    0.2961 C   0  0  0  0  0  0  0  0  0  0  0  0
   10.1265  -11.4035   -1.0257 C   0  0  0  0  0  0  0  0  0  0  0  0
   12.6324   -9.3748   -2.6783 C   0  0  0  0  0  0  0  0  0  0  0  0
   13.7146   -9.9636   -2.1118 O   0  0  0  0  0  0  0  0  0  0  0  0
   12.8613   -8.6722   -3.8715 C   0  0  0  0  0  0  0  0  0  0  0  0
   11.8007   -8.0597   -4.5708 C   0  0  0  0  0  0  0  0  0  0  0  0
   12.0916   -7.3406   -5.8381 C   0  0  0  0  0  0  0  0  0  0  0  0
   -1.0889    4.3862   -2.0403 H   0  0  0  0  0  0  0  0  0  0  0  0
    0.3137    3.9501   -3.0395 H   0  0  0  0  0  0  0  0  0  0  0  0
    0.3873    5.3555   -1.9595 H   0  0  0  0  0  0  0  0  0  0  0  0
    0.1767    3.9289    0.0074 H   0  0  0  0  0  0  0  0  0  0  0  0
    2.4292    4.4388   -0.6006 H   0  0  0  0  0  0  0  0  0  0  0  0
    2.5078    3.1288   -1.7802 H   0  0  0  0  0  0  0  0  0  0  0  0
    2.4047    2.7591   -0.0482 H   0  0  0  0  0  0  0  0  0  0  0  0
   -2.1789    3.2886    0.1294 H   0  0  0  0  0  0  0  0  0  0  0  0
   -2.5883    0.2105    0.3293 H   0  0  0  0  0  0  0  0  0  0  0  0
   -1.2176   -2.6310   -0.9707 H   0  0  0  0  0  0  0  0  0  0  0  0
   -2.8003   -1.9515   -0.5808 H   0  0  0  0  0  0  0  0  0  0  0  0
   -2.2909   -2.0562   -2.2661 H   0  0  0  0  0  0  0  0  0  0  0  0
    1.1522    1.3436   -2.5269 H   0  0  0  0  0  0  0  0  0  0  0  0
    0.2929   -3.5113   -4.0729 H   0  0  0  0  0  0  0  0  0  0  0  0
    1.3062   -5.1210   -5.5429 H   0  0  0  0  0  0  0  0  0  0  0  0
    4.3290   -2.3409   -6.5077 H   0  0  0  0  0  0  0  0  0  0  0  0
    3.3199   -0.7288   -5.0501 H   0  0  0  0  0  0  0  0  0  0  0  0
    3.9724   -6.6591   -4.7096 H   0  0  0  0  0  0  0  0  0  0  0  0
    5.8767   -7.6107   -3.7402 H   0  0  0  0  0  0  0  0  0  0  0  0
    8.4289   -6.2310   -6.7902 H   0  0  0  0  0  0  0  0  0  0  0  0
    6.6809   -5.1868   -7.9674 H   0  0  0  0  0  0  0  0  0  0  0  0
    9.3253   -8.8794   -2.4414 H   0  0  0  0  0  0  0  0  0  0  0  0
   12.0138  -10.6125   -0.4486 H   0  0  0  0  0  0  0  0  0  0  0  0
   10.5129   -9.7704    1.2503 H   0  0  0  0  0  0  0  0  0  0  0  0
    9.5829   -8.8433    0.0631 H   0  0  0  0  0  0  0  0  0  0  0  0
   11.2658   -8.4045    0.4201 H   0  0  0  0  0  0  0  0  0  0  0  0
   10.0538  -11.9900   -0.1065 H   0  0  0  0  0  0  0  0  0  0  0  0
    9.1220  -11.0778   -1.3031 H   0  0  0  0  0  0  0  0  0  0  0  0
   10.5128  -12.0552   -1.8123 H   0  0  0  0  0  0  0  0  0  0  0  0
   13.5102  -10.9223   -2.1244 H   0  0  0  0  0  0  0  0  0  0  0  0
   13.8173   -8.6175   -4.2345 H   0  0  0  0  0  0  0  0  0  0  0  0
   11.5806   -7.8382   -6.6633 H   0  0  0  0  0  0  0  0  0  0  0  0
   13.1588   -7.3120   -6.0694 H   0  0  0  0  0  0  0  0  0  0  0  0
   11.7378   -6.3113   -5.7654 H   0  0  0  0  0  0  0  0  0  0  0  0
  1  2  1  0  0  0  0 
  2  3  1  0  0  0  0 
  2  4  1  0  0  0  0 
  4  5  2  0  0  0  0 
  5  6  1  0  0  0  0 
  5  7  1  0  0  0  0 
  7  8  2  0  0  0  0 
  8  9  1  0  0  0  0 
  8 10  1  0  0  0  0 
 10 11  2  0  0  0  0 
  4 11  1  0  0  0  0 
 12 10  1  0  0  0  0 
 12 13  2  0  0  0  0 
 13 14  1  0  0  0  0 
 14 15  2  0  0  0  0 
 15 16  1  0  0  0  0 
 16 17  2  0  0  0  0 
 17 18  1  0  0  0  0 
 18 19  2  0  0  0  0 
 14 19  1  0  0  0  0 
 17 20  1  0  0  0  0 
 20 21  2  0  0  0  0 
 20 22  2  0  0  0  0 
 20 23  1  0  0  0  0 
 23 24  2  0  0  0  0 
 24 25  1  0  0  0  0 
 25 26  2  0  0  0  0 
 26 27  1  0  0  0  0 
 27 28  2  0  0  0  0 
 23 28  1  0  0  0  0 
 29 26  1  0  0  0  0 
 29 30  2  0  0  0  0 
 30 31  1  0  0  0  0 
 31 32  2  0  0  0  0 
 32 33  1  0  0  0  0 
 33 34  1  0  0  0  0 
 34 35  1  0  0  0  0 
 34 36  1  0  0  0  0 
 33 37  2  0  0  0  0 
 37 38  1  0  0  0  0 
 37 39  1  0  0  0  0 
 39 40  2  0  0  0  0 
 31 40  1  0  0  0  0 
 40 41  1  0  0  0  0 
 42  1  1  0  0  0  0 
 43  1  1  0  0  0  0 
 44  1  1  0  0  0  0 
 45  2  1  0  0  0  0 
 46  3  1  0  0  0  0 
 47  3  1  0  0  0  0 
 48  3  1  0  0  0  0 
 49  6  1  0  0  0  0 
 50  7  1  0  0  0  0 
 51  9  1  0  0  0  0 
 52  9  1  0  0  0  0 
 53  9  1  0  0  0  0 
 54 11  1  0  0  0  0 
 55 15  1  0  0  0  0 
 56 16  1  0  0  0  0 
 57 18  1  0  0  0  0 
 58 19  1  0  0  0  0 
 59 24  1  0  0  0  0 
 60 25  1  0  0  0  0 
 61 27  1  0  0  0  0 
 62 28  1  0  0  0  0 
 63 32  1  0  0  0  0 
 64 34  1  0  0  0  0 
 65 35  1  0  0  0  0 
 66 35  1  0  0  0  0 
 67 35  1  0  0  0  0 
 68 36  1  0  0  0  0 
 69 36  1  0  0  0  0 
 70 36  1  0  0  0  0 
 71 38  1  0  0  0  0 
 72 39  1  0  0  0  0 
 73 41  1  0  0  0  0 
 74 41  1  0  0  0  0 
 75 41  1  0  0  0  0 
M  END
> <cdk:Title>
diathymosulfone

> <Conformer>
1

> <SuperDrugID>
SD003184

$$$$
