moxastine
  CDK     0628171801

 43 44  0  0  0  0  0  0  0  0999 V2000
   -0.2392   -1.1981   -0.2289 C   0  0  2  0  0  0  0  0  0  0  0  0
   -1.6951   -1.2454   -0.3687 O   0  0  0  0  0  0  0  0  0  0  0  0
    0.3922   -1.9413   -1.4582 C   0  0  0  0  0  0  0  0  0  0  0  0
    0.1245   -1.7408    1.1357 C   0  0  0  0  0  0  0  0  0  0  0  0
    0.2378    0.2405   -0.2956 C   0  0  0  0  0  0  0  0  0  0  0  0
   -2.3944   -2.5134   -0.4026 C   0  0  2  0  0  0  0  0  0  0  0  0
   -0.5236   -1.2036    2.2784 C   0  0  0  0  0  0  0  0  0  0  0  0
    1.0957   -2.7552    1.3498 C   0  0  0  0  0  0  0  0  0  0  0  0
    1.6165    0.5453   -0.1211 C   0  0  0  0  0  0  0  0  0  0  0  0
   -0.6402    1.3326   -0.5319 C   0  0  0  0  0  0  0  0  0  0  0  0
   -3.9244   -2.2717   -0.4312 C   0  0  1  0  0  0  0  0  0  0  0  0
   -0.2234   -1.6618    3.5738 C   0  0  0  0  0  0  0  0  0  0  0  0
    1.4119   -3.2011    2.6454 C   0  0  0  0  0  0  0  0  0  0  0  0
    2.0968    1.8637   -0.1991 C   0  0  0  0  0  0  0  0  0  0  0  0
   -0.1620    2.6543   -0.6082 C   0  0  0  0  0  0  0  0  0  0  0  0
   -4.4737   -1.4797    0.7193 N   0  0  2  0  0  0  0  0  0  0  0  0
    0.7454   -2.6620    3.7575 C   0  0  0  0  0  0  0  0  0  0  0  0
    1.2077    2.9197   -0.4486 C   0  0  0  0  0  0  0  0  0  0  0  0
   -4.3849   -2.1630    2.0459 C   0  0  0  0  0  0  0  0  0  0  0  0
   -5.8644   -1.0017    0.4487 C   0  0  0  0  0  0  0  0  0  0  0  0
    1.4769   -1.8387   -1.4952 H   0  0  0  0  0  0  0  0  0  0  0  0
    0.1769   -3.0087   -1.4258 H   0  0  0  0  0  0  0  0  0  0  0  0
   -0.0144   -1.5430   -2.3890 H   0  0  0  0  0  0  0  0  0  0  0  0
   -2.1350   -3.1410    0.4509 H   0  0  0  0  0  0  0  0  0  0  0  0
   -2.1306   -3.0600   -1.3104 H   0  0  0  0  0  0  0  0  0  0  0  0
   -1.2277   -0.4689    2.1706 H   0  0  0  0  0  0  0  0  0  0  0  0
    1.5973   -3.1815    0.5696 H   0  0  0  0  0  0  0  0  0  0  0  0
    2.2902   -0.2009    0.0668 H   0  0  0  0  0  0  0  0  0  0  0  0
   -1.6434    1.1834   -0.6534 H   0  0  0  0  0  0  0  0  0  0  0  0
   -4.1297   -1.7376   -1.3648 H   0  0  0  0  0  0  0  0  0  0  0  0
   -4.4352   -3.2377   -0.4939 H   0  0  0  0  0  0  0  0  0  0  0  0
   -0.7066   -1.2671    4.3838 H   0  0  0  0  0  0  0  0  0  0  0  0
    2.1282   -3.9191    2.7744 H   0  0  0  0  0  0  0  0  0  0  0  0
    3.0932    2.0537   -0.0748 H   0  0  0  0  0  0  0  0  0  0  0  0
   -0.8109    3.4244   -0.7810 H   0  0  0  0  0  0  0  0  0  0  0  0
    0.9651   -2.9964    4.6976 H   0  0  0  0  0  0  0  0  0  0  0  0
    1.5568    3.8779   -0.5142 H   0  0  0  0  0  0  0  0  0  0  0  0
   -3.3488   -2.3773    2.3038 H   0  0  0  0  0  0  0  0  0  0  0  0
   -4.7767   -1.5192    2.8359 H   0  0  0  0  0  0  0  0  0  0  0  0
   -4.9508   -3.0978    2.0525 H   0  0  0  0  0  0  0  0  0  0  0  0
   -5.8972   -0.4207   -0.4755 H   0  0  0  0  0  0  0  0  0  0  0  0
   -6.2132   -0.3469    1.2507 H   0  0  0  0  0  0  0  0  0  0  0  0
   -6.5589   -1.8422    0.3556 H   0  0  0  0  0  0  0  0  0  0  0  0
  1  2  1  0  0  0  0 
  1  3  1  0  0  0  0 
  1  4  1  0  0  0  0 
  1  5  1  0  0  0  0 
  2  6  1  0  0  0  0 
  4  7  2  0  0  0  0 
  4  8  1  0  0  0  0 
  5  9  2  0  0  0  0 
  5 10  1  0  0  0  0 
  6 11  1  0  0  0  0 
  7 12  1  0  0  0  0 
  8 13  2  0  0  0  0 
  9 14  1  0  0  0  0 
 10 15  2  0  0  0  0 
 11 16  1  0  0  0  0 
 12 17  2  0  0  0  0 
 13 17  1  0  0  0  0 
 14 18  2  0  0  0  0 
 15 18  1  0  0  0  0 
 16 19  1  0  0  0  0 
 16 20  1  0  0  0  0 
  3 21  1  0  0  0  0 
  3 22  1  0  0  0  0 
  3 23  1  0  0  0  0 
  6 24  1  0  0  0  0 
  6 25  1  0  0  0  0 
  7 26  1  0  0  0  0 
  8 27  1  0  0  0  0 
  9 28  1  0  0  0  0 
 10 29  1  0  0  0  0 
 11 30  1  0  0  0  0 
 11 31  1  0  0  0  0 
 12 32  1  0  0  0  0 
 13 33  1  0  0  0  0 
 14 34  1  0  0  0  0 
 15 35  1  0  0  0  0 
 17 36  1  0  0  0  0 
 18 37  1  0  0  0  0 
 19 38  1  0  0  0  0 
 19 39  1  0  0  0  0 
 19 40  1  0  0  0  0 
 20 41  1  0  0  0  0 
 20 42  1  0  0  0  0 
 20 43  1  0  0  0  0 
M  END
> <cdk:Title>
moxastine

> <Conformer>
1

> <SuperDrugID>
SD001648

$$$$
