perlapine
  CDK     0628171801

 43 46  0  0  0  0  0  0  0  0999 V2000
   -7.8098    3.3573    0.9605 C   0  0  0  0  0  0  0  0  0  0  0  0
   -6.4751    2.9420    0.4465 N   0  0  1  0  0  0  0  0  0  0  0  0
   -5.3341    3.3468    1.3234 C   0  0  1  0  0  0  0  0  0  0  0  0
   -6.3962    1.5024    0.0553 C   0  0  1  0  0  0  0  0  0  0  0  0
   -3.9852    3.0673    0.6134 C   0  0  1  0  0  0  0  0  0  0  0  0
   -5.0547    1.2329   -0.6681 C   0  0  2  0  0  0  0  0  0  0  0  0
   -3.9305    1.7073    0.1167 N   0  0  0  0  0  0  0  0  0  0  0  0
   -2.8480    0.9241    0.3215 C   0  0  0  0  0  0  0  0  0  0  0  0
   -2.9838   -0.3661    0.8643 C   0  0  0  0  0  0  0  0  0  0  0  0
   -1.7127    1.4387   -0.0205 N   0  0  0  0  0  0  0  0  0  0  0  0
   -2.2600   -1.4858    0.3588 C   0  0  0  0  0  0  0  0  0  0  0  0
   -3.8739   -0.5641    1.9500 C   0  0  0  0  0  0  0  0  0  0  0  0
   -0.4770    0.9445   -0.0397 C   0  0  0  0  0  0  0  0  0  0  0  0
   -1.2911   -1.3325   -0.7621 C   0  0  2  0  0  0  0  0  0  0  0  0
   -2.4717   -2.7667    0.9213 C   0  0  0  0  0  0  0  0  0  0  0  0
   -4.0735   -1.8422    2.4980 C   0  0  0  0  0  0  0  0  0  0  0  0
   -0.1904   -0.4066   -0.3825 C   0  0  0  0  0  0  0  0  0  0  0  0
    0.5792    1.8278    0.2745 C   0  0  0  0  0  0  0  0  0  0  0  0
   -3.3738   -2.9428    1.9824 C   0  0  0  0  0  0  0  0  0  0  0  0
    1.1564   -0.8455   -0.3805 C   0  0  0  0  0  0  0  0  0  0  0  0
    1.9096    1.3703    0.2937 C   0  0  0  0  0  0  0  0  0  0  0  0
    2.1977    0.0343   -0.0335 C   0  0  0  0  0  0  0  0  0  0  0  0
   -8.0525    2.8420    1.8934 H   0  0  0  0  0  0  0  0  0  0  0  0
   -8.5812    3.1339    0.2185 H   0  0  0  0  0  0  0  0  0  0  0  0
   -7.8278    4.4361    1.1373 H   0  0  0  0  0  0  0  0  0  0  0  0
   -5.3946    4.4159    1.5434 H   0  0  0  0  0  0  0  0  0  0  0  0
   -5.3597    2.8016    2.2729 H   0  0  0  0  0  0  0  0  0  0  0  0
   -6.4765    0.8563    0.9356 H   0  0  0  0  0  0  0  0  0  0  0  0
   -7.2126    1.2465   -0.6269 H   0  0  0  0  0  0  0  0  0  0  0  0
   -3.8762    3.7534   -0.2323 H   0  0  0  0  0  0  0  0  0  0  0  0
   -3.1748    3.2814    1.3185 H   0  0  0  0  0  0  0  0  0  0  0  0
   -5.0660    1.7647   -1.6236 H   0  0  0  0  0  0  0  0  0  0  0  0
   -4.9926    0.1655   -0.8991 H   0  0  0  0  0  0  0  0  0  0  0  0
   -4.3848    0.2219    2.3629 H   0  0  0  0  0  0  0  0  0  0  0  0
   -1.8173   -0.9292   -1.6306 H   0  0  0  0  0  0  0  0  0  0  0  0
   -0.8863   -2.2986   -1.0762 H   0  0  0  0  0  0  0  0  0  0  0  0
   -1.9731   -3.5839    0.5593 H   0  0  0  0  0  0  0  0  0  0  0  0
   -4.7269   -1.9717    3.2737 H   0  0  0  0  0  0  0  0  0  0  0  0
    0.3854    2.8084    0.5009 H   0  0  0  0  0  0  0  0  0  0  0  0
   -3.5174   -3.8719    2.3806 H   0  0  0  0  0  0  0  0  0  0  0  0
    1.3893   -1.8105   -0.6339 H   0  0  0  0  0  0  0  0  0  0  0  0
    2.6681    2.0102    0.5424 H   0  0  0  0  0  0  0  0  0  0  0  0
    3.1652   -0.2964   -0.0230 H   0  0  0  0  0  0  0  0  0  0  0  0
  1  2  1  0  0  0  0 
  2  3  1  0  0  0  0 
  2  4  1  0  0  0  0 
  3  5  1  0  0  0  0 
  4  6  1  0  0  0  0 
  5  7  1  0  0  0  0 
  6  7  1  0  0  0  0 
  7  8  1  0  0  0  0 
  8  9  1  0  0  0  0 
  8 10  2  0  0  0  0 
  9 11  2  0  0  0  0 
  9 12  1  0  0  0  0 
 10 13  1  0  0  0  0 
 11 14  1  0  0  0  0 
 11 15  1  0  0  0  0 
 12 16  2  0  0  0  0 
 13 17  2  0  0  0  0 
 13 18  1  0  0  0  0 
 14 17  1  0  0  0  0 
 15 19  2  0  0  0  0 
 16 19  1  0  0  0  0 
 17 20  1  0  0  0  0 
 18 21  2  0  0  0  0 
 20 22  2  0  0  0  0 
 21 22  1  0  0  0  0 
  1 23  1  0  0  0  0 
  1 24  1  0  0  0  0 
  1 25  1  0  0  0  0 
  3 26  1  0  0  0  0 
  3 27  1  0  0  0  0 
  4 28  1  0  0  0  0 
  4 29  1  0  0  0  0 
  5 30  1  0  0  0  0 
  5 31  1  0  0  0  0 
  6 32  1  0  0  0  0 
  6 33  1  0  0  0  0 
 12 34  1  0  0  0  0 
 14 35  1  0  0  0  0 
 14 36  1  0  0  0  0 
 15 37  1  0  0  0  0 
 16 38  1  0  0  0  0 
 18 39  1  0  0  0  0 
 19 40  1  0  0  0  0 
 20 41  1  0  0  0  0 
 21 42  1  0  0  0  0 
 22 43  1  0  0  0  0 
M  END
> <cdk:Title>
perlapine

> <Conformer>
1

> <SuperDrugID>
SD001892

$$$$
