ilaprazole
  CDK     0628171801

 44 47  0  0  0  0  0  0  0  0999 V2000
    2.7301   -1.0256    4.0023 S   0  0  1  0  0  0  0  0  0  0  0  0
    4.0956   -0.3799    2.9596 C   0  0  1  0  0  0  0  0  0  0  0  0
    3.2026   -2.5015    4.4191 O   0  0  0  0  0  0  0  0  0  0  0  0
    2.7619   -0.0772    5.4894 C   0  0  0  0  0  0  0  0  0  0  0  0
    3.7988    1.0194    2.5616 C   0  0  0  0  0  0  0  0  0  0  0  0
    1.7600    0.7157    5.9195 N   0  0  0  0  0  0  0  0  0  0  0  0
    3.7988   -0.0478    6.3442 N   0  0  0  0  0  0  0  0  0  0  0  0
    2.9562    1.4027    1.4756 C   0  0  0  0  0  0  0  0  0  0  0  0
    4.3689    1.9822    3.3334 N   0  0  0  0  0  0  0  0  0  0  0  0
    2.1869    1.2449    7.0781 C   0  0  0  0  0  0  0  0  0  0  0  0
    3.4650    0.7683    7.3460 C   0  0  0  0  0  0  0  0  0  0  0  0
    2.3630    0.3811    0.5692 C   0  0  0  0  0  0  0  0  0  0  0  0
    2.7098    2.7914    1.2826 C   0  0  0  0  0  0  0  0  0  0  0  0
    4.1790    3.3064    3.1459 C   0  0  0  0  0  0  0  0  0  0  0  0
    1.5456    2.1246    7.9642 C   0  0  0  0  0  0  0  0  0  0  0  0
    4.1641    1.1487    8.5004 C   0  0  0  0  0  0  0  0  0  0  0  0
    1.9013    3.2492    0.2703 O   0  0  0  0  0  0  0  0  0  0  0  0
    3.3377    3.7417    2.1146 C   0  0  0  0  0  0  0  0  0  0  0  0
    2.2210    2.5245    9.1483 C   0  0  0  0  0  0  0  0  0  0  0  0
    3.5297    2.0308    9.3990 C   0  0  0  0  0  0  0  0  0  0  0  0
    0.5669    3.5922    0.6932 C   0  0  0  0  0  0  0  0  0  0  0  0
    1.6174    3.3663   10.0420 N   0  0  0  0  0  0  0  0  0  0  0  0
    1.0580    4.5651    9.7644 C   0  0  0  0  0  0  0  0  0  0  0  0
    1.4805    3.1388   11.3675 C   0  0  0  0  0  0  0  0  0  0  0  0
    0.5643    5.1219   10.9386 C   0  0  0  0  0  0  0  0  0  0  0  0
    0.8280    4.2160   11.9530 C   0  0  0  0  0  0  0  0  0  0  0  0
    5.0226   -0.4345    3.5389 H   0  0  0  0  0  0  0  0  0  0  0  0
    4.2283   -1.0201    2.0875 H   0  0  0  0  0  0  0  0  0  0  0  0
    4.6340   -0.5330    6.2510 H   0  0  0  0  0  0  0  0  0  0  0  0
    1.7446   -0.3086    1.1454 H   0  0  0  0  0  0  0  0  0  0  0  0
    1.7361    0.8115   -0.2133 H   0  0  0  0  0  0  0  0  0  0  0  0
    3.1593   -0.1778    0.0725 H   0  0  0  0  0  0  0  0  0  0  0  0
    4.6456    3.9782    3.7577 H   0  0  0  0  0  0  0  0  0  0  0  0
    0.5997    2.4525    7.7595 H   0  0  0  0  0  0  0  0  0  0  0  0
    5.1037    0.7944    8.6850 H   0  0  0  0  0  0  0  0  0  0  0  0
    3.1852    4.7425    1.9747 H   0  0  0  0  0  0  0  0  0  0  0  0
    4.0337    2.3184   10.2407 H   0  0  0  0  0  0  0  0  0  0  0  0
    0.0073    3.9258   -0.1822 H   0  0  0  0  0  0  0  0  0  0  0  0
    0.0469    2.7320    1.1215 H   0  0  0  0  0  0  0  0  0  0  0  0
    0.5744    4.4086    1.4192 H   0  0  0  0  0  0  0  0  0  0  0  0
    1.0104    5.0105    8.8441 H   0  0  0  0  0  0  0  0  0  0  0  0
    1.7950    2.3060   11.8706 H   0  0  0  0  0  0  0  0  0  0  0  0
    0.0972    6.0251   11.0349 H   0  0  0  0  0  0  0  0  0  0  0  0
    0.5883    4.3177   12.9405 H   0  0  0  0  0  0  0  0  0  0  0  0
  1  2  1  0  0  0  0 
  1  3  2  0  0  0  0 
  1  4  1  0  0  0  0 
  2  5  1  0  0  0  0 
  4  6  2  0  0  0  0 
  4  7  1  0  0  0  0 
  5  8  2  0  0  0  0 
  5  9  1  0  0  0  0 
  6 10  1  0  0  0  0 
  7 11  1  0  0  0  0 
  8 12  1  0  0  0  0 
  8 13  1  0  0  0  0 
  9 14  2  0  0  0  0 
 10 11  1  0  0  0  0 
 10 15  2  0  0  0  0 
 11 16  2  0  0  0  0 
 13 17  1  0  0  0  0 
 13 18  2  0  0  0  0 
 14 18  1  0  0  0  0 
 15 19  1  0  0  0  0 
 16 20  1  0  0  0  0 
 17 21  1  0  0  0  0 
 19 20  2  0  0  0  0 
 19 22  1  0  0  0  0 
 22 23  1  0  0  0  0 
 22 24  1  0  0  0  0 
 23 25  2  0  0  0  0 
 24 26  2  0  0  0  0 
 25 26  1  0  0  0  0 
 27  2  1  0  0  0  0 
 28  2  1  0  0  0  0 
 29  7  1  0  0  0  0 
 30 12  1  0  0  0  0 
 31 12  1  0  0  0  0 
 32 12  1  0  0  0  0 
 33 14  1  0  0  0  0 
 34 15  1  0  0  0  0 
 35 16  1  0  0  0  0 
 36 18  1  0  0  0  0 
 37 20  1  0  0  0  0 
 38 21  1  0  0  0  0 
 39 21  1  0  0  0  0 
 40 21  1  0  0  0  0 
 41 23  1  0  0  0  0 
 42 24  1  0  0  0  0 
 43 25  1  0  0  0  0 
 44 26  1  0  0  0  0 
M  END
> <cdk:Title>
ilaprazole

> <Conformer>
1

> <SuperDrugID>
SD003309

$$$$
