butaverine
  CDK     0628171801

 48 49  0  0  0  0  0  0  0  0999 V2000
   -4.6669    0.9020   -0.2222 C   0  0  2  0  0  0  0  0  0  0  0  0
   -3.5809    1.2848    0.8416 C   0  0  2  0  0  0  0  0  0  0  0  0
   -4.2179    1.3935   -1.5756 C   0  0  0  0  0  0  0  0  0  0  0  0
   -6.0818    1.3578    0.1015 N   0  0  2  0  0  0  0  0  0  0  0  0
   -2.2556    0.6919    0.5685 C   0  0  0  0  0  0  0  0  0  0  0  0
   -4.1264    2.7790   -1.8661 C   0  0  0  0  0  0  0  0  0  0  0  0
   -3.8992    0.4733   -2.6052 C   0  0  0  0  0  0  0  0  0  0  0  0
   -6.5734    0.9652    1.4722 C   0  0  2  0  0  0  0  0  0  0  0  0
   -7.0777    0.9351   -0.9515 C   0  0  1  0  0  0  0  0  0  0  0  0
   -1.1919    1.5034    0.3030 O   0  0  0  0  0  0  0  0  0  0  0  0
   -2.1274   -0.5560    0.5925 O   0  0  0  0  0  0  0  0  0  0  0  0
   -3.7319    3.2266   -3.1414 C   0  0  0  0  0  0  0  0  0  0  0  0
   -3.5146    0.9173   -3.8824 C   0  0  0  0  0  0  0  0  0  0  0  0
   -8.0022    1.4749    1.7899 C   0  0  2  0  0  0  0  0  0  0  0  0
   -8.5146    1.4529   -0.6861 C   0  0  1  0  0  0  0  0  0  0  0  0
    0.1235    1.0503   -0.0366 C   0  0  2  0  0  0  0  0  0  0  0  0
   -3.4279    2.2954   -4.1498 C   0  0  0  0  0  0  0  0  0  0  0  0
   -9.0131    1.0262    0.7133 C   0  0  1  0  0  0  0  0  0  0  0  0
    1.0650    2.2491   -0.2829 C   0  0  2  0  0  0  0  0  0  0  0  0
    0.6247    3.1520   -1.4657 C   0  0  1  0  0  0  0  0  0  0  0  0
    1.6444    4.2778   -1.7485 C   0  0  0  0  0  0  0  0  0  0  0  0
   -4.6973   -0.1957   -0.2333 H   0  0  0  0  0  0  0  0  0  0  0  0
   -3.8576    0.9144    1.8257 H   0  0  0  0  0  0  0  0  0  0  0  0
   -3.5000    2.3722    0.9105 H   0  0  0  0  0  0  0  0  0  0  0  0
   -4.3540    3.4759   -1.1538 H   0  0  0  0  0  0  0  0  0  0  0  0
   -3.9538   -0.5339   -2.4376 H   0  0  0  0  0  0  0  0  0  0  0  0
   -5.9401    1.4005    2.2434 H   0  0  0  0  0  0  0  0  0  0  0  0
   -6.5457   -0.1235    1.5846 H   0  0  0  0  0  0  0  0  0  0  0  0
   -6.7943    1.3295   -1.9299 H   0  0  0  0  0  0  0  0  0  0  0  0
   -7.0982   -0.1578   -1.0303 H   0  0  0  0  0  0  0  0  0  0  0  0
   -3.6724    4.2292   -3.3380 H   0  0  0  0  0  0  0  0  0  0  0  0
   -3.3030    0.2379   -4.6172 H   0  0  0  0  0  0  0  0  0  0  0  0
   -7.9906    2.5671    1.8360 H   0  0  0  0  0  0  0  0  0  0  0  0
   -8.3177    1.0995    2.7668 H   0  0  0  0  0  0  0  0  0  0  0  0
   -8.5245    2.5441   -0.7563 H   0  0  0  0  0  0  0  0  0  0  0  0
   -9.1906    1.0589   -1.4495 H   0  0  0  0  0  0  0  0  0  0  0  0
    0.0691    0.4290   -0.9339 H   0  0  0  0  0  0  0  0  0  0  0  0
    0.5229    0.4453    0.7821 H   0  0  0  0  0  0  0  0  0  0  0  0
   -3.1484    2.6179   -5.0794 H   0  0  0  0  0  0  0  0  0  0  0  0
   -9.1332   -0.0604    0.7499 H   0  0  0  0  0  0  0  0  0  0  0  0
   -9.9892    1.4793    0.9120 H   0  0  0  0  0  0  0  0  0  0  0  0
    2.0670    1.8599   -0.4803 H   0  0  0  0  0  0  0  0  0  0  0  0
    1.1090    2.8493    0.6295 H   0  0  0  0  0  0  0  0  0  0  0  0
    0.5126    2.5454   -2.3684 H   0  0  0  0  0  0  0  0  0  0  0  0
   -0.3451    3.6035   -1.2389 H   0  0  0  0  0  0  0  0  0  0  0  0
    1.3049    4.8809   -2.5916 H   0  0  0  0  0  0  0  0  0  0  0  0
    2.6197    3.8540   -1.9949 H   0  0  0  0  0  0  0  0  0  0  0  0
    1.7506    4.9253   -0.8761 H   0  0  0  0  0  0  0  0  0  0  0  0
  1  2  1  0  0  0  0 
  1  3  1  0  0  0  0 
  1  4  1  0  0  0  0 
  2  5  1  0  0  0  0 
  3  6  2  0  0  0  0 
  3  7  1  0  0  0  0 
  4  8  1  0  0  0  0 
  4  9  1  0  0  0  0 
  5 10  1  0  0  0  0 
  5 11  2  0  0  0  0 
  6 12  1  0  0  0  0 
  7 13  2  0  0  0  0 
  8 14  1  0  0  0  0 
  9 15  1  0  0  0  0 
 10 16  1  0  0  0  0 
 12 17  2  0  0  0  0 
 13 17  1  0  0  0  0 
 14 18  1  0  0  0  0 
 15 18  1  0  0  0  0 
 16 19  1  0  0  0  0 
 19 20  1  0  0  0  0 
 20 21  1  0  0  0  0 
  1 22  1  0  0  0  0 
  2 23  1  0  0  0  0 
  2 24  1  0  0  0  0 
  6 25  1  0  0  0  0 
  7 26  1  0  0  0  0 
  8 27  1  0  0  0  0 
  8 28  1  0  0  0  0 
  9 29  1  0  0  0  0 
  9 30  1  0  0  0  0 
 12 31  1  0  0  0  0 
 13 32  1  0  0  0  0 
 14 33  1  0  0  0  0 
 14 34  1  0  0  0  0 
 15 35  1  0  0  0  0 
 15 36  1  0  0  0  0 
 16 37  1  0  0  0  0 
 16 38  1  0  0  0  0 
 17 39  1  0  0  0  0 
 18 40  1  0  0  0  0 
 18 41  1  0  0  0  0 
 19 42  1  0  0  0  0 
 19 43  1  0  0  0  0 
 20 44  1  0  0  0  0 
 20 45  1  0  0  0  0 
 21 46  1  0  0  0  0 
 21 47  1  0  0  0  0 
 21 48  1  0  0  0  0 
M  END
> <cdk:Title>
butaverine

> <Conformer>
1

> <SuperDrugID>
SD003157

$$$$
