thiothixene
  CDK     0628171801

 59 62  0  0  0  0  0  0  0  0999 V2000
   -1.3154    0.9421    4.6661 C   0  0  0  0  0  0  0  0  0  0  0  0
   -1.9304   -0.2621    5.2859 N   0  0  1  0  0  0  0  0  0  0  0  0
   -1.0861   -0.8541    6.3574 C   0  0  0  0  0  0  0  0  0  0  0  0
   -3.5988    0.0421    5.8165 S   0  0  1  0  0  0  0  0  0  0  0  0
   -4.4826    0.4014    4.5261 O   0  0  0  0  0  0  0  0  0  0  0  0
   -4.2017   -1.2930    6.4710 O   0  0  0  0  0  0  0  0  0  0  0  0
   -3.6233    1.3903    6.9628 C   0  0  0  0  0  0  0  0  0  0  0  0
   -3.5382    1.1557    8.3485 C   0  0  0  0  0  0  0  0  0  0  0  0
   -3.4302    2.2291    9.2667 C   0  0  0  0  0  0  0  0  0  0  0  0
   -3.5331    3.5514    8.7553 C   0  0  0  0  0  0  0  0  0  0  0  0
   -3.5978    4.9074    9.8805 S   0  0  0  0  0  0  0  0  0  0  0  0
   -4.2687    4.1411   11.3211 C   0  0  0  0  0  0  0  0  0  0  0  0
   -5.0481    4.9011   12.2125 C   0  0  0  0  0  0  0  0  0  0  0  0
   -5.6505    4.2800   13.3192 C   0  0  0  0  0  0  0  0  0  0  0  0
   -5.4739    2.9028   13.5321 C   0  0  0  0  0  0  0  0  0  0  0  0
   -4.6896    2.1459   12.6446 C   0  0  0  0  0  0  0  0  0  0  0  0
   -4.0549    2.7529   11.5320 C   0  0  0  0  0  0  0  0  0  0  0  0
   -3.2384    2.0174   10.6499 C   0  0  0  0  0  0  0  0  0  0  0  0
   -2.2633    1.2192   11.1563 C   0  0  0  0  0  0  0  0  0  0  0  0
   -1.2986    0.4367   10.3882 C   0  0  2  0  0  0  0  0  0  0  0  0
   -0.0152    0.0310   11.1614 C   0  0  1  0  0  0  0  0  0  0  0  0
    0.9652   -0.7594   10.3377 N   0  0  1  0  0  0  0  0  0  0  0  0
    2.3084   -0.8109   11.0010 C   0  0  2  0  0  0  0  0  0  0  0  0
    3.3410   -1.6562   10.2167 C   0  0  2  0  0  0  0  0  0  0  0  0
    2.7830   -3.0159    9.9625 N   0  0  2  0  0  0  0  0  0  0  0  0
    3.7807   -3.9810    9.4286 C   0  0  0  0  0  0  0  0  0  0  0  0
    1.5333   -2.9382    9.1538 C   0  0  1  0  0  0  0  0  0  0  0  0
    0.4700   -2.1161    9.9229 C   0  0  2  0  0  0  0  0  0  0  0  0
   -3.6324    3.7918    7.3729 C   0  0  0  0  0  0  0  0  0  0  0  0
   -3.6757    2.7107    6.4805 C   0  0  0  0  0  0  0  0  0  0  0  0
   -0.3607    0.6804    4.2066 H   0  0  0  0  0  0  0  0  0  0  0  0
   -1.9603    1.3420    3.8810 H   0  0  0  0  0  0  0  0  0  0  0  0
   -1.1414    1.7264    5.4059 H   0  0  0  0  0  0  0  0  0  0  0  0
   -1.5274   -1.7900    6.7057 H   0  0  0  0  0  0  0  0  0  0  0  0
   -0.0874   -1.0855    5.9790 H   0  0  0  0  0  0  0  0  0  0  0  0
   -0.9849   -0.1717    7.2034 H   0  0  0  0  0  0  0  0  0  0  0  0
   -3.5528    0.1905    8.6837 H   0  0  0  0  0  0  0  0  0  0  0  0
   -5.1865    5.9020   12.0516 H   0  0  0  0  0  0  0  0  0  0  0  0
   -6.2237    4.8288   13.9622 H   0  0  0  0  0  0  0  0  0  0  0  0
   -5.9200    2.4497   14.3299 H   0  0  0  0  0  0  0  0  0  0  0  0
   -4.5936    1.1433   12.8191 H   0  0  0  0  0  0  0  0  0  0  0  0
   -2.1798    1.1459   12.1473 H   0  0  0  0  0  0  0  0  0  0  0  0
   -0.9722    0.9963    9.5083 H   0  0  0  0  0  0  0  0  0  0  0  0
   -1.8143   -0.4667   10.0655 H   0  0  0  0  0  0  0  0  0  0  0  0
    0.4579    0.9626   11.4943 H   0  0  0  0  0  0  0  0  0  0  0  0
   -0.2875   -0.5368   12.0575 H   0  0  0  0  0  0  0  0  0  0  0  0
    2.2145   -1.2259   12.0092 H   0  0  0  0  0  0  0  0  0  0  0  0
    2.7050    0.2045   11.0869 H   0  0  0  0  0  0  0  0  0  0  0  0
    4.2532   -1.7246   10.8170 H   0  0  0  0  0  0  0  0  0  0  0  0
    3.5892   -1.1553    9.2749 H   0  0  0  0  0  0  0  0  0  0  0  0
    4.6267   -4.0624   10.1126 H   0  0  0  0  0  0  0  0  0  0  0  0
    3.3365   -4.9744    9.3431 H   0  0  0  0  0  0  0  0  0  0  0  0
    4.1471   -3.6724    8.4478 H   0  0  0  0  0  0  0  0  0  0  0  0
    1.7291   -2.4737    8.1806 H   0  0  0  0  0  0  0  0  0  0  0  0
    1.1309   -3.9397    8.9737 H   0  0  0  0  0  0  0  0  0  0  0  0
   -0.3856   -2.0145    9.2552 H   0  0  0  0  0  0  0  0  0  0  0  0
    0.1464   -2.6880   10.7978 H   0  0  0  0  0  0  0  0  0  0  0  0
   -3.6758    4.7456    7.0097 H   0  0  0  0  0  0  0  0  0  0  0  0
   -3.7449    2.8914    5.4775 H   0  0  0  0  0  0  0  0  0  0  0  0
  1  2  1  0  0  0  0 
  2  3  1  0  0  0  0 
  2  4  1  0  0  0  0 
  4  5  2  0  0  0  0 
  4  6  2  0  0  0  0 
  4  7  1  0  0  0  0 
  7  8  2  0  0  0  0 
  8  9  1  0  0  0  0 
  9 10  2  0  0  0  0 
 10 11  1  0  0  0  0 
 11 12  1  0  0  0  0 
 12 13  2  0  0  0  0 
 13 14  1  0  0  0  0 
 14 15  2  0  0  0  0 
 15 16  1  0  0  0  0 
 16 17  2  0  0  0  0 
 12 17  1  0  0  0  0 
 17 18  1  0  0  0  0 
  9 18  1  0  0  0  0 
 18 19  2  0  0  0  0 
 19 20  1  0  0  0  0 
 20 21  1  0  0  0  0 
 21 22  1  0  0  0  0 
 22 23  1  0  0  0  0 
 23 24  1  0  0  0  0 
 24 25  1  0  0  0  0 
 25 26  1  0  0  0  0 
 25 27  1  0  0  0  0 
 27 28  1  0  0  0  0 
 22 28  1  0  0  0  0 
 10 29  1  0  0  0  0 
 29 30  2  0  0  0  0 
  7 30  1  0  0  0  0 
  1 31  1  0  0  0  0 
  1 32  1  0  0  0  0 
  1 33  1  0  0  0  0 
  3 34  1  0  0  0  0 
  3 35  1  0  0  0  0 
  3 36  1  0  0  0  0 
  8 37  1  0  0  0  0 
 13 38  1  0  0  0  0 
 14 39  1  0  0  0  0 
 15 40  1  0  0  0  0 
 16 41  1  0  0  0  0 
 19 42  1  0  0  0  0 
 20 43  1  0  0  0  0 
 20 44  1  0  0  0  0 
 21 45  1  0  0  0  0 
 21 46  1  0  0  0  0 
 23 47  1  0  0  0  0 
 23 48  1  0  0  0  0 
 24 49  1  0  0  0  0 
 24 50  1  0  0  0  0 
 26 51  1  0  0  0  0 
 26 52  1  0  0  0  0 
 26 53  1  0  0  0  0 
 27 54  1  0  0  0  0 
 27 55  1  0  0  0  0 
 28 56  1  0  0  0  0 
 28 57  1  0  0  0  0 
 29 58  1  0  0  0  0 
 30 59  1  0  0  0  0 
M  END
> <cdk:Title>
thiothixene

> <Conformer>
1

> <SuperDrugID>
SD002373

$$$$
