levobupivacaine
  CDK     0628171802

 49 50  0  0  0  0  0  0  0  0999 V2000
   -0.0089    1.9314    0.6540 C   0  0  0  0  0  0  0  0  0  0  0  0
   -0.0571    1.4152   -0.6103 N   0  0  0  0  0  0  0  0  0  0  0  0
   -0.8858    2.7325    1.0593 O   0  0  0  0  0  0  0  0  0  0  0  0
    1.0361    1.5043    1.6259 C   0  0  1  0  0  0  0  0  0  0  0  0
   -1.0859    1.5888   -1.4854 C   0  0  0  0  0  0  0  0  0  0  0  0
    0.4874    0.6598    2.7541 N   0  0  1  0  0  0  0  0  0  0  0  0
    2.2794    0.8103    0.9872 C   0  0  1  0  0  0  0  0  0  0  0  0
   -1.9190    0.4670   -1.7659 C   0  0  0  0  0  0  0  0  0  0  0  0
   -1.3540    2.8522   -2.0891 C   0  0  0  0  0  0  0  0  0  0  0  0
   -0.2733   -0.5797    2.3552 C   0  0  1  0  0  0  0  0  0  0  0  0
    1.5214    0.4462    3.8242 C   0  0  1  0  0  0  0  0  0  0  0  0
    3.3763    0.5479    2.0511 C   0  0  2  0  0  0  0  0  0  0  0  0
   -1.6228   -0.9152   -1.2910 C   0  0  0  0  0  0  0  0  0  0  0  0
   -3.0969    0.6660   -2.5203 C   0  0  0  0  0  0  0  0  0  0  0  0
   -0.4536    4.0326   -1.9795 C   0  0  0  0  0  0  0  0  0  0  0  0
   -2.5318    3.0047   -2.8547 C   0  0  0  0  0  0  0  0  0  0  0  0
   -1.2368   -1.1539    3.4307 C   0  0  1  0  0  0  0  0  0  0  0  0
    2.8228   -0.2109    3.2856 C   0  0  2  0  0  0  0  0  0  0  0  0
   -3.4044    1.9256   -3.0570 C   0  0  0  0  0  0  0  0  0  0  0  0
   -2.2815   -0.1274    3.9469 C   0  0  1  0  0  0  0  0  0  0  0  0
   -3.2736   -0.7342    4.9653 C   0  0  0  0  0  0  0  0  0  0  0  0
    0.6424    0.7985   -0.8682 H   0  0  0  0  0  0  0  0  0  0  0  0
    1.3983    2.4443    2.0581 H   0  0  0  0  0  0  0  0  0  0  0  0
    1.9892   -0.1409    0.5358 H   0  0  0  0  0  0  0  0  0  0  0  0
    2.6968    1.4404    0.1981 H   0  0  0  0  0  0  0  0  0  0  0  0
   -0.8998   -0.3682    1.4910 H   0  0  0  0  0  0  0  0  0  0  0  0
    0.4170   -1.3682    2.0486 H   0  0  0  0  0  0  0  0  0  0  0  0
    1.7741    1.4180    4.2577 H   0  0  0  0  0  0  0  0  0  0  0  0
    1.1287   -0.1599    4.6428 H   0  0  0  0  0  0  0  0  0  0  0  0
    3.7927    1.5052    2.3770 H   0  0  0  0  0  0  0  0  0  0  0  0
    4.1883   -0.0300    1.5996 H   0  0  0  0  0  0  0  0  0  0  0  0
   -2.3315   -1.2000   -0.5113 H   0  0  0  0  0  0  0  0  0  0  0  0
   -0.6142   -1.0150   -0.8888 H   0  0  0  0  0  0  0  0  0  0  0  0
   -1.7070   -1.6286   -2.1142 H   0  0  0  0  0  0  0  0  0  0  0  0
   -3.7437   -0.1101   -2.6861 H   0  0  0  0  0  0  0  0  0  0  0  0
    0.4892    3.7993   -1.4879 H   0  0  0  0  0  0  0  0  0  0  0  0
   -0.2066    4.4119   -2.9763 H   0  0  0  0  0  0  0  0  0  0  0  0
   -0.9508    4.8235   -1.4125 H   0  0  0  0  0  0  0  0  0  0  0  0
   -2.7639    3.9088   -3.2760 H   0  0  0  0  0  0  0  0  0  0  0  0
   -1.7668   -2.0014    2.9873 H   0  0  0  0  0  0  0  0  0  0  0  0
   -0.6606   -1.5409    4.2704 H   0  0  0  0  0  0  0  0  0  0  0  0
    2.6252   -1.2507    3.0109 H   0  0  0  0  0  0  0  0  0  0  0  0
    3.5806   -0.2175    4.0748 H   0  0  0  0  0  0  0  0  0  0  0  0
   -4.2603    2.0583   -3.6016 H   0  0  0  0  0  0  0  0  0  0  0  0
   -1.7628    0.7081    4.4254 H   0  0  0  0  0  0  0  0  0  0  0  0
   -2.8486    0.2690    3.0997 H   0  0  0  0  0  0  0  0  0  0  0  0
   -3.9780    0.0330    5.2933 H   0  0  0  0  0  0  0  0  0  0  0  0
   -2.7384   -1.1120    5.8385 H   0  0  0  0  0  0  0  0  0  0  0  0
   -3.8364   -1.5520    4.5105 H   0  0  0  0  0  0  0  0  0  0  0  0
  1  2  1  0  0  0  0 
  1  3  2  0  0  0  0 
  2  5  1  0  0  0  0 
  4  1  1  0  0  0  0 
  4  6  1  0  0  0  0 
  4  7  1  0  0  0  0 
  5  8  2  0  0  0  0 
  5  9  1  0  0  0  0 
  6 10  1  0  0  0  0 
  6 11  1  0  0  0  0 
  7 12  1  0  0  0  0 
  8 13  1  0  0  0  0 
  8 14  1  0  0  0  0 
  9 15  1  0  0  0  0 
  9 16  2  0  0  0  0 
 10 17  1  0  0  0  0 
 11 18  1  0  0  0  0 
 12 18  1  0  0  0  0 
 14 19  2  0  0  0  0 
 16 19  1  0  0  0  0 
 17 20  1  0  0  0  0 
 20 21  1  0  0  0  0 
  2 22  1  0  0  0  0 
  4 23  1  0  0  0  0 
  7 24  1  0  0  0  0 
  7 25  1  0  0  0  0 
 10 26  1  0  0  0  0 
 10 27  1  0  0  0  0 
 11 28  1  0  0  0  0 
 11 29  1  0  0  0  0 
 12 30  1  0  0  0  0 
 12 31  1  0  0  0  0 
 13 32  1  0  0  0  0 
 13 33  1  0  0  0  0 
 13 34  1  0  0  0  0 
 14 35  1  0  0  0  0 
 15 36  1  0  0  0  0 
 15 37  1  0  0  0  0 
 15 38  1  0  0  0  0 
 16 39  1  0  0  0  0 
 17 40  1  0  0  0  0 
 17 41  1  0  0  0  0 
 18 42  1  0  0  0  0 
 18 43  1  0  0  0  0 
 19 44  1  0  0  0  0 
 20 45  1  0  0  0  0 
 20 46  1  0  0  0  0 
 21 47  1  0  0  0  0 
 21 48  1  0  0  0  0 
 21 49  1  0  0  0  0 
M  END
> <cdk:Title>
levobupivacaine

> <Conformer>
1

> <SuperDrugID>
SD000001

$$$$