aminopterin
  CDK     0628171801

 52 54  0  0  0  0  0  0  0  0999 V2000
   -3.7852   -5.0157   -0.1160 N   0  0  0  0  0  0  0  0  0  0  0  0
   -2.5308   -5.5033   -0.1173 C   0  0  0  0  0  0  0  0  0  0  0  0
   -1.4106   -4.6541   -0.0397 C   0  0  0  0  0  0  0  0  0  0  0  0
   -2.3398   -6.8453   -0.2015 N   0  0  0  0  0  0  0  0  0  0  0  0
   -0.1247   -5.2443   -0.0202 C   0  0  0  0  0  0  0  0  0  0  0  0
   -1.5031   -3.3024   -0.0065 N   0  0  0  0  0  0  0  0  0  0  0  0
   -1.0966   -7.3932   -0.2040 C   0  0  0  0  0  0  0  0  0  0  0  0
    0.9622   -4.4353    0.0730 N   0  0  0  0  0  0  0  0  0  0  0  0
   -0.0021   -6.5930   -0.1041 N   0  0  0  0  0  0  0  0  0  0  0  0
   -0.4194   -2.4841    0.0492 C   0  0  0  0  0  0  0  0  0  0  0  0
   -0.9519   -8.7219   -0.3080 N   0  0  0  0  0  0  0  0  0  0  0  0
    0.8599   -3.0796    0.1153 C   0  0  0  0  0  0  0  0  0  0  0  0
   -0.6321   -1.0275   -0.0326 C   0  0  2  0  0  0  0  0  0  0  0  0
   -0.1715   -0.3086    1.1129 N   0  0  0  0  0  0  0  0  0  0  0  0
   -0.4130    1.0172    1.3609 C   0  0  0  0  0  0  0  0  0  0  0  0
   -1.1814    1.8441    0.5082 C   0  0  0  0  0  0  0  0  0  0  0  0
    0.1189    1.5877    2.5355 C   0  0  0  0  0  0  0  0  0  0  0  0
   -1.4272    3.1876    0.8344 C   0  0  0  0  0  0  0  0  0  0  0  0
   -0.1139    2.9411    2.8517 C   0  0  0  0  0  0  0  0  0  0  0  0
   -0.8895    3.7762    2.0058 C   0  0  0  0  0  0  0  0  0  0  0  0
   -1.1122    5.1541    2.3174 C   0  0  0  0  0  0  0  0  0  0  0  0
   -1.7104    5.9986    1.4212 N   0  0  0  0  0  0  0  0  0  0  0  0
   -0.7392    5.6161    3.4246 O   0  0  0  0  0  0  0  0  0  0  0  0
   -1.9345    7.4055    1.5731 C   0  0  1  0  0  0  0  0  0  0  0  0
   -2.3375    8.0375    0.2049 C   0  0  2  0  0  0  0  0  0  0  0  0
   -2.9731    7.6464    2.6019 C   0  0  0  0  0  0  0  0  0  0  0  0
   -1.2506    7.8749   -0.8988 C   0  0  1  0  0  0  0  0  0  0  0  0
   -4.2445    7.2121    2.4284 O   0  0  0  0  0  0  0  0  0  0  0  0
   -2.6951    8.2421    3.6678 O   0  0  0  0  0  0  0  0  0  0  0  0
   -1.6762    8.4041   -2.2107 C   0  0  0  0  0  0  0  0  0  0  0  0
   -1.8084    7.5702   -3.2710 O   0  0  0  0  0  0  0  0  0  0  0  0
   -1.9137    9.6230   -2.3732 O   0  0  0  0  0  0  0  0  0  0  0  0
   -4.5422   -5.6203   -0.1698 H   0  0  0  0  0  0  0  0  0  0  0  0
   -3.9366   -4.0584   -0.0579 H   0  0  0  0  0  0  0  0  0  0  0  0
   -1.7346   -9.2907   -0.3754 H   0  0  0  0  0  0  0  0  0  0  0  0
   -0.0663   -9.1161   -0.3202 H   0  0  0  0  0  0  0  0  0  0  0  0
    1.7050   -2.5101    0.1764 H   0  0  0  0  0  0  0  0  0  0  0  0
   -1.7036   -0.8478   -0.1547 H   0  0  0  0  0  0  0  0  0  0  0  0
   -0.1231   -0.6489   -0.9210 H   0  0  0  0  0  0  0  0  0  0  0  0
    0.3666   -0.7917    1.7593 H   0  0  0  0  0  0  0  0  0  0  0  0
   -1.5764    1.4822   -0.3605 H   0  0  0  0  0  0  0  0  0  0  0  0
    0.6822    1.0170    3.1710 H   0  0  0  0  0  0  0  0  0  0  0  0
   -2.0143    3.7221    0.1920 H   0  0  0  0  0  0  0  0  0  0  0  0
    0.2949    3.3112    3.7131 H   0  0  0  0  0  0  0  0  0  0  0  0
   -2.0000    5.6128    0.5821 H   0  0  0  0  0  0  0  0  0  0  0  0
   -0.9983    7.8721    1.8890 H   0  0  0  0  0  0  0  0  0  0  0  0
   -2.5270    9.1067    0.3488 H   0  0  0  0  0  0  0  0  0  0  0  0
   -3.2697    7.5793   -0.1435 H   0  0  0  0  0  0  0  0  0  0  0  0
   -0.3342    8.3865   -0.5938 H   0  0  0  0  0  0  0  0  0  0  0  0
   -1.0118    6.8148   -1.0155 H   0  0  0  0  0  0  0  0  0  0  0  0
   -4.9176    7.3622    3.1270 H   0  0  0  0  0  0  0  0  0  0  0  0
   -2.0864    7.9184   -4.1458 H   0  0  0  0  0  0  0  0  0  0  0  0
  1  2  1  0  0  0  0 
  2  3  2  0  0  0  0 
  2  4  1  0  0  0  0 
  3  5  1  0  0  0  0 
  3  6  1  0  0  0  0 
  4  7  2  0  0  0  0 
  5  8  1  0  0  0  0 
  5  9  2  0  0  0  0 
  6 10  2  0  0  0  0 
  7  9  1  0  0  0  0 
  7 11  1  0  0  0  0 
  8 12  2  0  0  0  0 
 10 12  1  0  0  0  0 
 10 13  1  0  0  0  0 
 13 14  1  0  0  0  0 
 14 15  1  0  0  0  0 
 15 16  2  0  0  0  0 
 15 17  1  0  0  0  0 
 16 18  1  0  0  0  0 
 17 19  2  0  0  0  0 
 18 20  2  0  0  0  0 
 19 20  1  0  0  0  0 
 20 21  1  0  0  0  0 
 21 22  1  0  0  0  0 
 21 23  2  0  0  0  0 
 24 22  1  0  0  0  0 
 24 25  1  0  0  0  0 
 24 26  1  0  0  0  0 
 25 27  1  0  0  0  0 
 26 28  1  0  0  0  0 
 26 29  2  0  0  0  0 
 27 30  1  0  0  0  0 
 30 31  1  0  0  0  0 
 30 32  2  0  0  0  0 
  1 33  1  0  0  0  0 
  1 34  1  0  0  0  0 
 11 35  1  0  0  0  0 
 11 36  1  0  0  0  0 
 12 37  1  0  0  0  0 
 13 38  1  0  0  0  0 
 13 39  1  0  0  0  0 
 14 40  1  0  0  0  0 
 16 41  1  0  0  0  0 
 17 42  1  0  0  0  0 
 18 43  1  0  0  0  0 
 19 44  1  0  0  0  0 
 22 45  1  0  0  0  0 
 24 46  1  0  0  0  0 
 25 47  1  0  0  0  0 
 25 48  1  0  0  0  0 
 27 49  1  0  0  0  0 
 27 50  1  0  0  0  0 
 28 51  1  0  0  0  0 
 31 52  1  0  0  0  0 
M  END
> <cdk:Title>
aminopterin

> <Conformer>
1

> <SuperDrugID>
SD000005

$$$$
