hetacillin
  CDK     0628171801

 50 53  0  0  0  0  0  0  0  0999 V2000
    0.8687    0.4622   -2.0451 O   0  0  0  0  0  0  0  0  0  0  0  0
   -0.1593    0.1970   -1.3830 C   0  0  0  0  0  0  0  0  0  0  0  0
   -1.0537    0.9995   -0.5316 C   0  0  2  0  0  0  0  0  0  0  0  0
   -0.9014   -0.8984   -1.2549 N   0  0  0  0  0  0  0  0  0  0  0  0
   -1.8534   -0.3376   -0.3836 C   0  0  2  0  0  0  0  0  0  0  0  0
   -1.8113    2.1086   -1.0812 N   0  0  0  0  0  0  0  0  0  0  0  0
   -1.0149   -2.1410   -1.9443 C   0  0  1  0  0  0  0  0  0  0  0  0
   -3.2861   -0.7851   -1.4104 S   0  0  0  0  0  0  0  0  0  0  0  0
   -1.8340    2.5029   -2.3788 C   0  0  0  0  0  0  0  0  0  0  0  0
   -2.6264    2.9999   -0.2840 C   0  0  2  0  0  0  0  0  0  0  0  0
   -0.3312   -3.2188   -1.1894 C   0  0  0  0  0  0  0  0  0  0  0  0
   -2.5726   -2.2914   -2.1910 C   0  0  2  0  0  0  0  0  0  0  0  0
   -1.2057    1.9822   -3.3294 O   0  0  0  0  0  0  0  0  0  0  0  0
   -2.6740    3.6818   -2.5694 C   0  0  2  0  0  0  0  0  0  0  0  0
   -1.7609    3.9508    0.5971 C   0  0  0  0  0  0  0  0  0  0  0  0
   -3.7168    2.2761    0.5590 C   0  0  0  0  0  0  0  0  0  0  0  0
   -3.3494    3.8293   -1.2763 N   0  0  2  0  0  0  0  0  0  0  0  0
    0.2201   -2.9977    0.0296 O   0  0  0  0  0  0  0  0  0  0  0  0
   -0.2229   -4.3634   -1.6850 O   0  0  0  0  0  0  0  0  0  0  0  0
   -3.2461   -3.5266   -1.5153 C   0  0  0  0  0  0  0  0  0  0  0  0
   -2.9496   -2.2573   -3.7034 C   0  0  0  0  0  0  0  0  0  0  0  0
   -3.6775    3.5599   -3.6622 C   0  0  0  0  0  0  0  0  0  0  0  0
   -4.5916    2.4775   -3.6949 C   0  0  0  0  0  0  0  0  0  0  0  0
   -3.7431    4.5282   -4.6929 C   0  0  0  0  0  0  0  0  0  0  0  0
   -5.5322    2.3610   -4.7342 C   0  0  0  0  0  0  0  0  0  0  0  0
   -4.6875    4.4159   -5.7302 C   0  0  0  0  0  0  0  0  0  0  0  0
   -5.5850    3.3335   -5.7488 C   0  0  0  0  0  0  0  0  0  0  0  0
   -0.5276    1.2724    0.3883 H   0  0  0  0  0  0  0  0  0  0  0  0
   -1.8332   -0.8064    0.6048 H   0  0  0  0  0  0  0  0  0  0  0  0
   -0.4818   -2.0425   -2.8936 H   0  0  0  0  0  0  0  0  0  0  0  0
   -2.0184    4.5437   -2.7161 H   0  0  0  0  0  0  0  0  0  0  0  0
   -2.3708    4.7602    1.0062 H   0  0  0  0  0  0  0  0  0  0  0  0
   -1.3108    3.4103    1.4304 H   0  0  0  0  0  0  0  0  0  0  0  0
   -0.9628    4.3972    0.0004 H   0  0  0  0  0  0  0  0  0  0  0  0
   -3.2665    1.6044    1.2929 H   0  0  0  0  0  0  0  0  0  0  0  0
   -4.3787    1.6961   -0.0866 H   0  0  0  0  0  0  0  0  0  0  0  0
   -4.3289    3.0034    1.0947 H   0  0  0  0  0  0  0  0  0  0  0  0
   -3.2954    4.8116   -0.9978 H   0  0  0  0  0  0  0  0  0  0  0  0
    0.6837   -3.7177    0.5065 H   0  0  0  0  0  0  0  0  0  0  0  0
   -3.0234   -3.5526   -0.4462 H   0  0  0  0  0  0  0  0  0  0  0  0
   -2.8866   -4.4547   -1.9668 H   0  0  0  0  0  0  0  0  0  0  0  0
   -4.3326   -3.4944   -1.6330 H   0  0  0  0  0  0  0  0  0  0  0  0
   -2.4908   -1.4007   -4.2022 H   0  0  0  0  0  0  0  0  0  0  0  0
   -2.6104   -3.1662   -4.2053 H   0  0  0  0  0  0  0  0  0  0  0  0
   -4.0327   -2.1817   -3.8327 H   0  0  0  0  0  0  0  0  0  0  0  0
   -4.5745    1.7640   -2.9620 H   0  0  0  0  0  0  0  0  0  0  0  0
   -3.1033    5.3271   -4.6974 H   0  0  0  0  0  0  0  0  0  0  0  0
   -6.1771    1.5686   -4.7511 H   0  0  0  0  0  0  0  0  0  0  0  0
   -4.7217    5.1212   -6.4709 H   0  0  0  0  0  0  0  0  0  0  0  0
   -6.2754    3.2523   -6.4974 H   0  0  0  0  0  0  0  0  0  0  0  0
  1  2  2  0  0  0  0 
  3  2  1  0  0  0  0 
  2  4  1  0  0  0  0 
  3  5  1  0  0  0  0 
  3  6  1  0  0  0  0 
  5  4  1  0  0  0  0 
  7  4  1  0  0  0  0 
  5  8  1  0  0  0  0 
  6  9  1  0  0  0  0 
  6 10  1  0  0  0  0 
  7 11  1  0  0  0  0 
  7 12  1  0  0  0  0 
  8 12  1  0  0  0  0 
  9 13  2  0  0  0  0 
 14  9  1  0  0  0  0 
 10 15  1  0  0  0  0 
 10 16  1  0  0  0  0 
 10 17  1  0  0  0  0 
 11 18  1  0  0  0  0 
 11 19  2  0  0  0  0 
 12 20  1  0  0  0  0 
 12 21  1  0  0  0  0 
 14 17  1  0  0  0  0 
 14 22  1  0  0  0  0 
 22 23  2  0  0  0  0 
 22 24  1  0  0  0  0 
 23 25  1  0  0  0  0 
 24 26  2  0  0  0  0 
 25 27  2  0  0  0  0 
 26 27  1  0  0  0  0 
  3 28  1  0  0  0  0 
  5 29  1  0  0  0  0 
  7 30  1  0  0  0  0 
 14 31  1  0  0  0  0 
 32 15  1  0  0  0  0 
 33 15  1  0  0  0  0 
 34 15  1  0  0  0  0 
 35 16  1  0  0  0  0 
 36 16  1  0  0  0  0 
 37 16  1  0  0  0  0 
 38 17  1  0  0  0  0 
 39 18  1  0  0  0  0 
 40 20  1  0  0  0  0 
 41 20  1  0  0  0  0 
 42 20  1  0  0  0  0 
 43 21  1  0  0  0  0 
 44 21  1  0  0  0  0 
 45 21  1  0  0  0  0 
 46 23  1  0  0  0  0 
 47 24  1  0  0  0  0 
 48 25  1  0  0  0  0 
 49 26  1  0  0  0  0 
 50 27  1  0  0  0  0 
M  END
> <cdk:Title>
hetacillin

> <Conformer>
1

> <SuperDrugID>
SD001209

$$$$
