timonacic
  CDK     0628171801

 15 15  0  0  0  0  0  0  0  0999 V2000
   -0.5961    1.9275    2.8152 O   0  0  0  0  0  0  0  0  0  0  0  0
    0.3400    1.2207    2.1408 C   0  0  0  0  0  0  0  0  0  0  0  0
    1.4037    0.9363    2.7356 O   0  0  0  0  0  0  0  0  0  0  0  0
    0.1216    0.8115    0.7378 C   0  0  2  0  0  0  0  0  0  0  0  0
    0.1491   -0.7247    0.5390 C   0  0  2  0  0  0  0  0  0  0  0  0
    0.6036   -0.8932   -1.2148 S   0  0  0  0  0  0  0  0  0  0  0  0
    1.1119    0.8357   -1.4787 C   0  0  2  0  0  0  0  0  0  0  0  0
    1.1804    1.3998   -0.1198 N   0  0  1  0  0  0  0  0  0  0  0  0
   -0.4235    2.2052    3.7404 H   0  0  0  0  0  0  0  0  0  0  0  0
   -0.8494    1.1942    0.4047 H   0  0  0  0  0  0  0  0  0  0  0  0
   -0.8203   -1.1868    0.7381 H   0  0  0  0  0  0  0  0  0  0  0  0
    0.9231   -1.2020    1.1435 H   0  0  0  0  0  0  0  0  0  0  0  0
    0.3600    1.3552   -2.0741 H   0  0  0  0  0  0  0  0  0  0  0  0
    2.0849    0.8897   -1.9685 H   0  0  0  0  0  0  0  0  0  0  0  0
    1.0203    2.4066   -0.1852 H   0  0  0  0  0  0  0  0  0  0  0  0
  1  2  1  0  0  0  0 
  2  3  2  0  0  0  0 
  4  2  1  0  0  0  0 
  4  5  1  0  0  0  0 
  5  6  1  0  0  0  0 
  6  7  1  0  0  0  0 
  7  8  1  0  0  0  0 
  4  8  1  0  0  0  0 
  1  9  1  0  0  0  0 
  4 10  1  0  0  0  0 
  5 11  1  0  0  0  0 
  5 12  1  0  0  0  0 
  7 13  1  0  0  0  0 
  7 14  1  0  0  0  0 
  8 15  1  0  0  0  0 
M  END
> <cdk:Title>
timonacic

> <Conformer>
1

> <SuperDrugID>
SD002402

$$$$
