epimestrol
  CDK     0628171801

 48 51  0  0  0  0  0  0  0  0999 V2000
   -3.1694    7.2463   -0.3359 C   0  0  0  0  0  0  0  0  0  0  0  0
   -1.6306    7.5898   -0.3642 C   0  0  1  0  0  0  0  0  0  0  0  0
   -0.7928    7.0330    0.8298 C   0  0  2  0  0  0  0  0  0  0  0  0
   -0.9942    7.0163   -1.6754 C   0  0  2  0  0  0  0  0  0  0  0  0
   -1.4677    9.1252   -0.1184 C   0  0  2  0  0  0  0  0  0  0  0  0
   -0.8635    5.4752    0.9301 C   0  0  1  0  0  0  0  0  0  0  0  0
   -1.2217    7.8938    2.0395 C   0  0  1  0  0  0  0  0  0  0  0  0
   -0.9389    5.4548   -1.6745 C   0  0  2  0  0  0  0  0  0  0  0  0
   -0.2228    9.6297   -0.6119 O   0  0  0  0  0  0  0  0  0  0  0  0
   -1.5607    9.2811    1.4296 C   0  0  1  0  0  0  0  0  0  0  0  0
   -0.2928    4.8222   -0.3857 C   0  0  2  0  0  0  0  0  0  0  0  0
   -0.0815    4.9195    2.1515 C   0  0  1  0  0  0  0  0  0  0  0  0
   -0.7007   10.3034    1.9293 O   0  0  0  0  0  0  0  0  0  0  0  0
   -0.2884    3.3119   -0.3018 C   0  0  0  0  0  0  0  0  0  0  0  0
   -0.2438    3.3822    2.2637 C   0  0  2  0  0  0  0  0  0  0  0  0
   -0.2387    2.6488    0.9647 C   0  0  0  0  0  0  0  0  0  0  0  0
   -0.2621    2.5058   -1.4700 C   0  0  0  0  0  0  0  0  0  0  0  0
   -0.1868    1.2354    1.0211 C   0  0  0  0  0  0  0  0  0  0  0  0
   -0.1892    1.1043   -1.3991 C   0  0  0  0  0  0  0  0  0  0  0  0
   -0.1502    0.4608   -0.1523 C   0  0  0  0  0  0  0  0  0  0  0  0
   -0.0098   -0.8997   -0.0899 O   0  0  0  0  0  0  0  0  0  0  0  0
   -1.2521   -1.6109    0.0302 C   0  0  0  0  0  0  0  0  0  0  0  0
   -1.9086    5.1783    1.0626 H   0  0  0  0  0  0  0  0  0  0  0  0
    0.7669    5.0914   -0.4465 H   0  0  0  0  0  0  0  0  0  0  0  0
    0.2693    7.2743    0.6680 H   0  0  0  0  0  0  0  0  0  0  0  0
   -3.6509    7.5980    0.5770 H   0  0  0  0  0  0  0  0  0  0  0  0
   -3.6688    7.7249   -1.1811 H   0  0  0  0  0  0  0  0  0  0  0  0
   -3.3627    6.1784   -0.4077 H   0  0  0  0  0  0  0  0  0  0  0  0
    0.0295    7.3867   -1.7932 H   0  0  0  0  0  0  0  0  0  0  0  0
   -1.5564    7.3631   -2.5477 H   0  0  0  0  0  0  0  0  0  0  0  0
   -2.2572    9.7002   -0.6121 H   0  0  0  0  0  0  0  0  0  0  0  0
   -2.0993    7.4572    2.5245 H   0  0  0  0  0  0  0  0  0  0  0  0
   -0.4156    7.9628    2.7763 H   0  0  0  0  0  0  0  0  0  0  0  0
   -0.3539    5.1752   -2.5530 H   0  0  0  0  0  0  0  0  0  0  0  0
   -1.9433    5.0519   -1.8152 H   0  0  0  0  0  0  0  0  0  0  0  0
   -0.2427   10.5899   -0.4123 H   0  0  0  0  0  0  0  0  0  0  0  0
   -2.5826    9.5549    1.7075 H   0  0  0  0  0  0  0  0  0  0  0  0
    0.9798    5.1690    2.0520 H   0  0  0  0  0  0  0  0  0  0  0  0
   -0.4452    5.3759    3.0762 H   0  0  0  0  0  0  0  0  0  0  0  0
   -1.0095   11.1224    1.4878 H   0  0  0  0  0  0  0  0  0  0  0  0
   -1.1881    3.1609    2.7701 H   0  0  0  0  0  0  0  0  0  0  0  0
    0.5675    3.0081    2.8967 H   0  0  0  0  0  0  0  0  0  0  0  0
   -0.2766    2.9213   -2.4008 H   0  0  0  0  0  0  0  0  0  0  0  0
   -0.1568    0.7530    1.9233 H   0  0  0  0  0  0  0  0  0  0  0  0
   -0.1540    0.5521   -2.2597 H   0  0  0  0  0  0  0  0  0  0  0  0
   -1.0253   -2.6778    0.0203 H   0  0  0  0  0  0  0  0  0  0  0  0
   -1.7563   -1.3780    0.9706 H   0  0  0  0  0  0  0  0  0  0  0  0
   -1.9224   -1.3967   -0.8056 H   0  0  0  0  0  0  0  0  0  0  0  0
  2  1  1  0  0  0  0 
  3  2  1  0  0  0  0 
  2  4  1  0  0  0  0 
  2  5  1  0  0  0  0 
  6  3  1  0  0  0  0 
  3  7  1  0  0  0  0 
  3 25  1  0  0  0  0 
  4  8  1  0  0  0  0 
  5  9  1  0  0  0  0 
  5 10  1  0  0  0  0 
 11  6  1  0  0  0  0 
  6 12  1  0  0  0  0 
  6 23  1  0  0  0  0 
 10  7  1  0  0  0  0 
 11  8  1  0  0  0  0 
 10 13  1  0  0  0  0 
 11 14  1  0  0  0  0 
 11 24  1  0  0  0  0 
 12 15  1  0  0  0  0 
 14 16  2  0  0  0  0 
 14 17  1  0  0  0  0 
 15 16  1  0  0  0  0 
 16 18  1  0  0  0  0 
 17 19  2  0  0  0  0 
 18 20  2  0  0  0  0 
 19 20  1  0  0  0  0 
 20 21  1  0  0  0  0 
 21 22  1  0  0  0  0 
  1 26  1  0  0  0  0 
  1 27  1  0  0  0  0 
  1 28  1  0  0  0  0 
  4 29  1  0  0  0  0 
  4 30  1  0  0  0  0 
  5 31  1  0  0  0  0 
  7 32  1  0  0  0  0 
  7 33  1  0  0  0  0 
  8 34  1  0  0  0  0 
  8 35  1  0  0  0  0 
  9 36  1  0  0  0  0 
 10 37  1  0  0  0  0 
 12 38  1  0  0  0  0 
 12 39  1  0  0  0  0 
 13 40  1  0  0  0  0 
 15 41  1  0  0  0  0 
 15 42  1  0  0  0  0 
 17 43  1  0  0  0  0 
 18 44  1  0  0  0  0 
 19 45  1  0  0  0  0 
 22 46  1  0  0  0  0 
 22 47  1  0  0  0  0 
 22 48  1  0  0  0  0 
M  END
> <cdk:Title>
epimestrol

> <Conformer>
1

> <SuperDrugID>
SD000913

$$$$
