glycolic acid
  CDK     0628171802

  9  8  0  0  0  0  0  0  0  0999 V2000
    0.2869    0.2492    0.0789 C   0  0  0  0  0  0  0  0  0  0  0  0
   -0.9260   -0.4176   -0.4110 C   0  0  2  0  0  0  0  0  0  0  0  0
    0.2148    1.4660    0.6651 O   0  0  0  0  0  0  0  0  0  0  0  0
    1.4047   -0.3016   -0.0385 O   0  0  0  0  0  0  0  0  0  0  0  0
   -1.0890   -1.6563    0.2694 O   0  0  0  0  0  0  0  0  0  0  0  0
   -0.8408   -0.5942   -1.4838 H   0  0  0  0  0  0  0  0  0  0  0  0
   -1.8045    0.2041   -0.2334 H   0  0  0  0  0  0  0  0  0  0  0  0
    1.0252    1.9069    0.9967 H   0  0  0  0  0  0  0  0  0  0  0  0
   -1.9058   -2.0465   -0.1051 H   0  0  0  0  0  0  0  0  0  0  0  0
  1  2  1  0  0  0  0 
  1  3  1  0  0  0  0 
  1  4  2  0  0  0  0 
  2  5  1  0  0  0  0 
  2  6  1  0  0  0  0 
  2  7  1  0  0  0  0 
  3  8  1  0  0  0  0 
  5  9  1  0  0  0  0 
M  END
> <cdk:Title>
glycolic acid

> <Conformer>
1

> <SuperDrugID>
SD003680

$$$$
