ambrisentan
  CDK     0628171801

 50 52  0  0  0  0  0  0  0  0999 V2000
   -1.4380    3.8749    0.1871 C   0  0  2  0  0  0  0  0  0  0  0  0
   -0.1508    3.0302    0.6099 C   0  0  2  0  0  0  0  0  0  0  0  0
   -2.5896    2.9734    0.2663 O   0  0  0  0  0  0  0  0  0  0  0  0
   -1.3431    4.3383   -1.2645 C   0  0  0  0  0  0  0  0  0  0  0  0
   -1.6972    5.1715    0.9249 C   0  0  0  0  0  0  0  0  0  0  0  0
   -0.1605    1.7033    0.0176 O   0  0  0  0  0  0  0  0  0  0  0  0
    0.0890    2.8054    2.0593 C   0  0  0  0  0  0  0  0  0  0  0  0
   -3.0354    2.3708    1.4964 C   0  0  0  0  0  0  0  0  0  0  0  0
   -0.1945    5.0204   -1.7617 C   0  0  0  0  0  0  0  0  0  0  0  0
   -2.4037    4.1393   -2.1957 C   0  0  0  0  0  0  0  0  0  0  0  0
   -0.6519    5.9618    1.4724 C   0  0  0  0  0  0  0  0  0  0  0  0
   -3.0155    5.6977    1.0025 C   0  0  0  0  0  0  0  0  0  0  0  0
    0.1619    1.6576   -1.3088 C   0  0  0  0  0  0  0  0  0  0  0  0
   -0.6634    3.3470    3.0413 O   0  0  0  0  0  0  0  0  0  0  0  0
    1.0653    2.1069    2.4176 O   0  0  0  0  0  0  0  0  0  0  0  0
   -0.0728    5.3912   -3.1129 C   0  0  0  0  0  0  0  0  0  0  0  0
   -2.2973    4.5278   -3.5429 C   0  0  0  0  0  0  0  0  0  0  0  0
   -0.9110    7.2039    2.0796 C   0  0  0  0  0  0  0  0  0  0  0  0
   -3.2793    6.9393    1.6087 C   0  0  0  0  0  0  0  0  0  0  0  0
   -0.7769    1.2718   -2.2093 N   0  0  0  0  0  0  0  0  0  0  0  0
    1.3960    2.0207   -1.7479 N   0  0  0  0  0  0  0  0  0  0  0  0
   -1.1231    5.1385   -4.0080 C   0  0  0  0  0  0  0  0  0  0  0  0
   -2.2254    7.6938    2.1491 C   0  0  0  0  0  0  0  0  0  0  0  0
   -0.5292    1.2588   -3.5456 C   0  0  0  0  0  0  0  0  0  0  0  0
    1.7168    2.0380   -3.0677 C   0  0  0  0  0  0  0  0  0  0  0  0
   -1.5966    0.8639   -4.4814 C   0  0  0  0  0  0  0  0  0  0  0  0
    0.7459    1.6432   -4.0108 C   0  0  0  0  0  0  0  0  0  0  0  0
    3.0541    2.4934   -3.4889 C   0  0  0  0  0  0  0  0  0  0  0  0
    0.7567    3.5588    0.3099 H   0  0  0  0  0  0  0  0  0  0  0  0
   -3.1811    3.1063    2.2908 H   0  0  0  0  0  0  0  0  0  0  0  0
   -3.9938    1.8957    1.2958 H   0  0  0  0  0  0  0  0  0  0  0  0
   -2.3489    1.5918    1.8286 H   0  0  0  0  0  0  0  0  0  0  0  0
    0.5833    5.2550   -1.1448 H   0  0  0  0  0  0  0  0  0  0  0  0
   -3.2824    3.7055   -1.9086 H   0  0  0  0  0  0  0  0  0  0  0  0
    0.3199    5.6511    1.4212 H   0  0  0  0  0  0  0  0  0  0  0  0
   -3.8049    5.1874    0.5994 H   0  0  0  0  0  0  0  0  0  0  0  0
   -0.4324    3.1811    3.9779 H   0  0  0  0  0  0  0  0  0  0  0  0
    0.7799    5.8485   -3.4442 H   0  0  0  0  0  0  0  0  0  0  0  0
   -3.0763    4.3668   -4.1858 H   0  0  0  0  0  0  0  0  0  0  0  0
   -0.1399    7.7566    2.4601 H   0  0  0  0  0  0  0  0  0  0  0  0
   -4.2370    7.2978    1.6459 H   0  0  0  0  0  0  0  0  0  0  0  0
   -1.0369    5.4082   -4.9908 H   0  0  0  0  0  0  0  0  0  0  0  0
   -2.4137    8.6017    2.5795 H   0  0  0  0  0  0  0  0  0  0  0  0
   -2.5269    0.6509   -3.9515 H   0  0  0  0  0  0  0  0  0  0  0  0
   -1.7818    1.6722   -5.1906 H   0  0  0  0  0  0  0  0  0  0  0  0
   -1.2952   -0.0299   -5.0293 H   0  0  0  0  0  0  0  0  0  0  0  0
    0.9611    1.6422   -5.0115 H   0  0  0  0  0  0  0  0  0  0  0  0
    3.5455    1.7176   -4.0776 H   0  0  0  0  0  0  0  0  0  0  0  0
    3.6820    2.7250   -2.6264 H   0  0  0  0  0  0  0  0  0  0  0  0
    2.9573    3.3948   -4.0965 H   0  0  0  0  0  0  0  0  0  0  0  0
  2  1  1  0  0  0  0 
  1  3  1  0  0  0  0 
  1  4  1  0  0  0  0 
  1  5  1  0  0  0  0 
  2  6  1  0  0  0  0 
  2  7  1  0  0  0  0 
  3  8  1  0  0  0  0 
  4  9  2  0  0  0  0 
  4 10  1  0  0  0  0 
  5 11  2  0  0  0  0 
  5 12  1  0  0  0  0 
  6 13  1  0  0  0  0 
  7 14  1  0  0  0  0 
  7 15  2  0  0  0  0 
  9 16  1  0  0  0  0 
 10 17  2  0  0  0  0 
 11 18  1  0  0  0  0 
 12 19  2  0  0  0  0 
 13 20  2  0  0  0  0 
 13 21  1  0  0  0  0 
 16 22  2  0  0  0  0 
 17 22  1  0  0  0  0 
 18 23  2  0  0  0  0 
 19 23  1  0  0  0  0 
 20 24  1  0  0  0  0 
 21 25  2  0  0  0  0 
 24 26  1  0  0  0  0 
 24 27  2  0  0  0  0 
 25 27  1  0  0  0  0 
 25 28  1  0  0  0  0 
  2 29  1  0  0  0  0 
  8 30  1  0  0  0  0 
  8 31  1  0  0  0  0 
  8 32  1  0  0  0  0 
  9 33  1  0  0  0  0 
 10 34  1  0  0  0  0 
 11 35  1  0  0  0  0 
 12 36  1  0  0  0  0 
 14 37  1  0  0  0  0 
 16 38  1  0  0  0  0 
 17 39  1  0  0  0  0 
 18 40  1  0  0  0  0 
 19 41  1  0  0  0  0 
 22 42  1  0  0  0  0 
 23 43  1  0  0  0  0 
 26 44  1  0  0  0  0 
 26 45  1  0  0  0  0 
 26 46  1  0  0  0  0 
 27 47  1  0  0  0  0 
 28 48  1  0  0  0  0 
 28 49  1  0  0  0  0 
 28 50  1  0  0  0  0 
M  END
> <cdk:Title>
ambrisentan

> <Conformer>
1

> <SuperDrugID>
SD003507

$$$$
