trametinib
  CDK     0628171802

 60 64  0  0  0  0  0  0  0  0999 V2000
   -3.6249    6.0409   -4.0022 N   0  0  0  0  0  0  0  0  0  0  0  0
   -3.3343    7.3384   -3.6547 C   0  0  0  0  0  0  0  0  0  0  0  0
   -4.8233    5.4990   -4.3846 C   0  0  0  0  0  0  0  0  0  0  0  0
   -3.5894    8.4387   -4.5300 C   0  0  0  0  0  0  0  0  0  0  0  0
   -2.7865    7.5446   -2.4074 N   0  0  0  0  0  0  0  0  0  0  0  0
   -4.8123    4.1599   -4.8390 C   0  0  0  0  0  0  0  0  0  0  0  0
   -6.0550    6.2002   -4.3695 C   0  0  0  0  0  0  0  0  0  0  0  0
   -3.4003    9.7733   -4.0610 C   0  0  0  0  0  0  0  0  0  0  0  0
   -4.0213    8.2808   -5.8738 C   0  0  0  0  0  0  0  0  0  0  0  0
   -2.5983    6.4131   -1.5048 C   0  0  0  0  0  0  0  0  0  0  0  0
   -2.4117    8.8084   -2.0292 C   0  0  0  0  0  0  0  0  0  0  0  0
   -3.7082    3.4578   -4.8524 F   0  0  0  0  0  0  0  0  0  0  0  0
   -5.9934    3.5517   -5.3029 C   0  0  0  0  0  0  0  0  0  0  0  0
   -7.2340    5.5914   -4.8389 C   0  0  0  0  0  0  0  0  0  0  0  0
   -3.9509   10.8134   -4.8026 N   0  0  0  0  0  0  0  0  0  0  0  0
   -2.6251    9.9346   -2.8646 C   0  0  0  0  0  0  0  0  0  0  0  0
   -3.9114    7.1702   -6.4498 O   0  0  0  0  0  0  0  0  0  0  0  0
   -4.5285    9.3274   -6.5904 N   0  0  0  0  0  0  0  0  0  0  0  0
   -1.8631    8.9876   -0.9130 O   0  0  0  0  0  0  0  0  0  0  0  0
   -7.2046    4.2638   -5.3009 C   0  0  0  0  0  0  0  0  0  0  0  0
   -4.4607   10.5873   -6.0636 C   0  0  0  0  0  0  0  0  0  0  0  0
   -4.1292   12.0856   -4.2820 C   0  0  0  0  0  0  0  0  0  0  0  0
   -1.9440   11.2209   -2.5048 C   0  0  0  0  0  0  0  0  0  0  0  0
   -5.1309    9.0881   -7.8917 C   0  0  1  0  0  0  0  0  0  0  0  0
   -8.9199    3.3483   -5.9574 I   0  0  0  0  0  0  0  0  0  0  0  0
   -4.8808   11.5482   -6.7619 O   0  0  0  0  0  0  0  0  0  0  0  0
   -5.0722   12.3054   -3.2475 C   0  0  0  0  0  0  0  0  0  0  0  0
   -3.4117   13.1939   -4.7915 C   0  0  0  0  0  0  0  0  0  0  0  0
   -6.3817    8.1778   -7.9127 C   0  0  2  0  0  0  0  0  0  0  0  0
   -6.5219    9.6621   -8.2376 C   0  0  1  0  0  0  0  0  0  0  0  0
   -5.2814   13.5971   -2.7018 C   0  0  0  0  0  0  0  0  0  0  0  0
   -3.6242   14.4836   -4.2741 C   0  0  0  0  0  0  0  0  0  0  0  0
   -6.1640   13.8975   -1.7006 N   0  0  0  0  0  0  0  0  0  0  0  0
   -4.5569   14.6809   -3.2416 C   0  0  0  0  0  0  0  0  0  0  0  0
   -6.5851   13.1133   -0.6663 C   0  0  0  0  0  0  0  0  0  0  0  0
   -7.5832   13.6397    0.2857 C   0  0  0  0  0  0  0  0  0  0  0  0
   -6.1328   11.9611   -0.4631 O   0  0  0  0  0  0  0  0  0  0  0  0
   -2.8894    5.4163   -3.9121 H   0  0  0  0  0  0  0  0  0  0  0  0
   -6.1036    7.1620   -4.0282 H   0  0  0  0  0  0  0  0  0  0  0  0
   -2.1678    6.6623   -0.5343 H   0  0  0  0  0  0  0  0  0  0  0  0
   -1.9315    5.6800   -1.9624 H   0  0  0  0  0  0  0  0  0  0  0  0
   -3.5601    5.9360   -1.3057 H   0  0  0  0  0  0  0  0  0  0  0  0
   -5.9707    2.5879   -5.6428 H   0  0  0  0  0  0  0  0  0  0  0  0
   -8.1121    6.1157   -4.8468 H   0  0  0  0  0  0  0  0  0  0  0  0
   -1.5136   11.6742   -3.3990 H   0  0  0  0  0  0  0  0  0  0  0  0
   -1.1062   11.0888   -1.8165 H   0  0  0  0  0  0  0  0  0  0  0  0
   -2.6391   11.9108   -2.0294 H   0  0  0  0  0  0  0  0  0  0  0  0
   -4.4637    8.9042   -8.7368 H   0  0  0  0  0  0  0  0  0  0  0  0
   -5.6097   11.5091   -2.9031 H   0  0  0  0  0  0  0  0  0  0  0  0
   -2.7346   13.0650   -5.5488 H   0  0  0  0  0  0  0  0  0  0  0  0
   -6.8274    7.8978   -6.9563 H   0  0  0  0  0  0  0  0  0  0  0  0
   -6.5310    7.5272   -8.7762 H   0  0  0  0  0  0  0  0  0  0  0  0
   -7.0403   10.2414   -7.4715 H   0  0  0  0  0  0  0  0  0  0  0  0
   -6.6775    9.9116   -9.2883 H   0  0  0  0  0  0  0  0  0  0  0  0
   -3.0984   15.2789   -4.6470 H   0  0  0  0  0  0  0  0  0  0  0  0
   -6.5116   14.8041   -1.7119 H   0  0  0  0  0  0  0  0  0  0  0  0
   -4.6994   15.6285   -2.8794 H   0  0  0  0  0  0  0  0  0  0  0  0
   -7.1599   13.5218    1.3316 H   0  0  0  0  0  0  0  0  0  0  0  0
   -7.9089   14.6792   -0.0356 H   0  0  0  0  0  0  0  0  0  0  0  0
   -8.4736   13.0097    0.2333 H   0  0  0  0  0  0  0  0  0  0  0  0
  1  2  1  0  0  0  0 
  1  3  1  0  0  0  0 
  2  4  2  0  0  0  0 
  2  5  1  0  0  0  0 
  3  6  2  0  0  0  0 
  3  7  1  0  0  0  0 
  4  8  1  0  0  0  0 
  4  9  1  0  0  0  0 
  5 10  1  0  0  0  0 
  5 11  1  0  0  0  0 
  6 12  1  0  0  0  0 
  6 13  1  0  0  0  0 
  7 14  2  0  0  0  0 
  8 15  1  0  0  0  0 
  8 16  2  0  0  0  0 
  9 17  2  0  0  0  0 
  9 18  1  0  0  0  0 
 11 16  1  0  0  0  0 
 11 19  2  0  0  0  0 
 13 20  2  0  0  0  0 
 14 20  1  0  0  0  0 
 15 21  1  0  0  0  0 
 15 22  1  0  0  0  0 
 16 23  1  0  0  0  0 
 18 21  1  0  0  0  0 
 18 24  1  0  0  0  0 
 20 25  1  0  0  0  0 
 21 26  2  0  0  0  0 
 22 27  2  0  0  0  0 
 22 28  1  0  0  0  0 
 24 29  1  0  0  0  0 
 24 30  1  0  0  0  0 
 27 31  1  0  0  0  0 
 28 32  2  0  0  0  0 
 29 30  1  0  0  0  0 
 31 33  1  0  0  0  0 
 31 34  2  0  0  0  0 
 32 34  1  0  0  0  0 
 33 35  1  0  0  0  0 
 35 36  1  0  0  0  0 
 35 37  2  0  0  0  0 
  1 38  1  0  0  0  0 
  7 39  1  0  0  0  0 
 10 40  1  0  0  0  0 
 10 41  1  0  0  0  0 
 10 42  1  0  0  0  0 
 13 43  1  0  0  0  0 
 14 44  1  0  0  0  0 
 23 45  1  0  0  0  0 
 23 46  1  0  0  0  0 
 23 47  1  0  0  0  0 
 24 48  1  0  0  0  0 
 27 49  1  0  0  0  0 
 28 50  1  0  0  0  0 
 29 51  1  0  0  0  0 
 29 52  1  0  0  0  0 
 30 53  1  0  0  0  0 
 30 54  1  0  0  0  0 
 32 55  1  0  0  0  0 
 33 56  1  0  0  0  0 
 34 57  1  0  0  0  0 
 36 58  1  0  0  0  0 
 36 59  1  0  0  0  0 
 36 60  1  0  0  0  0 
M  END
> <cdk:Title>
trametinib

> <Conformer>
1

> <SuperDrugID>
SD003765

$$$$
