cadralazine
  CDK     0628171802

 41 41  0  0  0  0  0  0  0  0999 V2000
   -5.8979    4.1266    4.4224 N   0  0  0  0  0  0  0  0  0  0  0  0
   -5.3172    3.5576    5.6318 C   0  0  1  0  0  0  0  0  0  0  0  0
   -7.2647    4.6329    4.3740 C   0  0  1  0  0  0  0  0  0  0  0  0
   -5.1542    4.0656    3.2515 C   0  0  0  0  0  0  0  0  0  0  0  0
   -5.5833    2.0305    5.7551 C   0  0  2  0  0  0  0  0  0  0  0  0
   -7.8977    5.1837    5.6768 C   0  0  0  0  0  0  0  0  0  0  0  0
   -5.6884    3.6824    1.9976 C   0  0  0  0  0  0  0  0  0  0  0  0
   -3.8192    4.3440    3.2796 N   0  0  0  0  0  0  0  0  0  0  0  0
   -4.9382    1.4133    7.0194 C   0  0  0  0  0  0  0  0  0  0  0  0
   -5.0795    1.3225    4.6232 O   0  0  0  0  0  0  0  0  0  0  0  0
   -4.8457    3.5803    0.8752 C   0  0  0  0  0  0  0  0  0  0  0  0
   -3.0282    4.2539    2.2428 N   0  0  0  0  0  0  0  0  0  0  0  0
   -3.4759    3.8635    1.0227 C   0  0  0  0  0  0  0  0  0  0  0  0
   -2.5795    3.7277   -0.0521 N   0  0  1  0  0  0  0  0  0  0  0  0
   -1.6183    2.7982    0.1867 N   0  0  0  0  0  0  0  0  0  0  0  0
   -1.8358    1.4626    0.2020 C   0  0  0  0  0  0  0  0  0  0  0  0
   -0.7770    0.6596    0.5014 O   0  0  0  0  0  0  0  0  0  0  0  0
   -2.9694    0.9875   -0.0459 O   0  0  0  0  0  0  0  0  0  0  0  0
   -0.7793   -0.7687    0.6162 C   0  0  1  0  0  0  0  0  0  0  0  0
   -1.6129   -1.2645    1.8165 C   0  0  0  0  0  0  0  0  0  0  0  0
   -4.2377    3.7222    5.6689 H   0  0  0  0  0  0  0  0  0  0  0  0
   -5.6982    4.0531    6.5243 H   0  0  0  0  0  0  0  0  0  0  0  0
   -7.3065    5.4584    3.6555 H   0  0  0  0  0  0  0  0  0  0  0  0
   -7.9187    3.8396    4.0003 H   0  0  0  0  0  0  0  0  0  0  0  0
   -6.6615    1.8595    5.7985 H   0  0  0  0  0  0  0  0  0  0  0  0
   -7.2466    5.9344    6.1290 H   0  0  0  0  0  0  0  0  0  0  0  0
   -8.8576    5.6526    5.4559 H   0  0  0  0  0  0  0  0  0  0  0  0
   -8.0776    4.3765    6.3897 H   0  0  0  0  0  0  0  0  0  0  0  0
   -6.6787    3.4556    1.8930 H   0  0  0  0  0  0  0  0  0  0  0  0
   -5.1280    0.3389    7.0401 H   0  0  0  0  0  0  0  0  0  0  0  0
   -5.3608    1.8588    7.9215 H   0  0  0  0  0  0  0  0  0  0  0  0
   -3.8574    1.5728    7.0246 H   0  0  0  0  0  0  0  0  0  0  0  0
   -5.6279    1.6157    3.8666 H   0  0  0  0  0  0  0  0  0  0  0  0
   -5.2231    3.2948   -0.0325 H   0  0  0  0  0  0  0  0  0  0  0  0
   -3.0801    3.4688   -0.9060 H   0  0  0  0  0  0  0  0  0  0  0  0
   -0.7162    3.1108    0.3568 H   0  0  0  0  0  0  0  0  0  0  0  0
   -1.1527   -1.2134   -0.3092 H   0  0  0  0  0  0  0  0  0  0  0  0
    0.2560   -1.0853    0.7532 H   0  0  0  0  0  0  0  0  0  0  0  0
   -1.5169   -2.3459    1.9119 H   0  0  0  0  0  0  0  0  0  0  0  0
   -1.2596   -0.7939    2.7359 H   0  0  0  0  0  0  0  0  0  0  0  0
   -2.6678   -1.0260    1.6790 H   0  0  0  0  0  0  0  0  0  0  0  0
  1  2  1  0  0  0  0 
  1  3  1  0  0  0  0 
  1  4  1  0  0  0  0 
  5  2  1  0  0  0  0 
  3  6  1  0  0  0  0 
  4  7  2  0  0  0  0 
  4  8  1  0  0  0  0 
  5  9  1  0  0  0  0 
  5 10  1  0  0  0  0 
  7 11  1  0  0  0  0 
  8 12  2  0  0  0  0 
 11 13  2  0  0  0  0 
 12 13  1  0  0  0  0 
 13 14  1  0  0  0  0 
 14 15  1  0  0  0  0 
 15 16  1  0  0  0  0 
 16 17  1  0  0  0  0 
 16 18  2  0  0  0  0 
 17 19  1  0  0  0  0 
 19 20  1  0  0  0  0 
 21  2  1  0  0  0  0 
 22  2  1  0  0  0  0 
 23  3  1  0  0  0  0 
 24  3  1  0  0  0  0 
 25  5  1  0  0  0  0 
 26  6  1  0  0  0  0 
 27  6  1  0  0  0  0 
 28  6  1  0  0  0  0 
 29  7  1  0  0  0  0 
 30  9  1  0  0  0  0 
 31  9  1  0  0  0  0 
 32  9  1  0  0  0  0 
 33 10  1  0  0  0  0 
 34 11  1  0  0  0  0 
 35 14  1  0  0  0  0 
 36 15  1  0  0  0  0 
 37 19  1  0  0  0  0 
 38 19  1  0  0  0  0 
 39 20  1  0  0  0  0 
 40 20  1  0  0  0  0 
 41 20  1  0  0  0  0 
M  END
> <cdk:Title>
cadralazine

> <Conformer>
1

> <SuperDrugID>
SD000401

$$$$
