silodosin
  CDK     0628171801

 67 69  0  0  0  0  0  0  0  0999 V2000
   -3.9098    0.4630    2.9158 C   0  0  0  0  0  0  0  0  0  0  0  0
   -4.6867   -0.4904    1.9696 C   0  0  2  0  0  0  0  0  0  0  0  0
   -5.3017   -1.7147    2.7211 C   0  0  1  0  0  0  0  0  0  0  0  0
   -6.3577   -1.3602    3.7126 C   0  0  0  0  0  0  0  0  0  0  0  0
   -7.6705   -1.0718    3.2797 C   0  0  0  0  0  0  0  0  0  0  0  0
   -8.6685   -0.8114    4.2331 C   0  0  0  0  0  0  0  0  0  0  0  0
  -10.0618   -0.4708    3.9587 C   0  0  1  0  0  0  0  0  0  0  0  0
  -10.6189   -0.2584    5.3846 C   0  0  1  0  0  0  0  0  0  0  0  0
   -9.6022   -0.7638    6.2679 N   0  0  0  0  0  0  0  0  0  0  0  0
   -9.8849   -1.2347    7.6120 C   0  0  1  0  0  0  0  0  0  0  0  0
  -11.0264   -2.2876    7.7192 C   0  0  1  0  0  0  0  0  0  0  0  0
  -11.1289   -2.9467    9.1186 C   0  0  2  0  0  0  0  0  0  0  0  0
  -12.2283   -3.8538    9.1576 O   0  0  0  0  0  0  0  0  0  0  0  0
   -8.4027   -0.8467    5.6061 C   0  0  0  0  0  0  0  0  0  0  0  0
   -7.0561   -0.9543    6.0640 C   0  0  0  0  0  0  0  0  0  0  0  0
   -6.0677   -1.2871    5.0986 C   0  0  0  0  0  0  0  0  0  0  0  0
   -6.6593   -0.6603    7.4001 C   0  0  0  0  0  0  0  0  0  0  0  0
   -5.5527   -1.1648    7.9852 N   0  0  0  0  0  0  0  0  0  0  0  0
   -7.3074    0.1535    8.0967 O   0  0  0  0  0  0  0  0  0  0  0  0
   -3.7223   -0.9103    0.9214 N   0  0  2  0  0  0  0  0  0  0  0  0
   -4.2838   -1.4668   -0.3308 C   0  0  1  0  0  0  0  0  0  0  0  0
   -3.1589   -1.7599   -1.3441 C   0  0  1  0  0  0  0  0  0  0  0  0
   -2.5315   -0.5359   -1.7839 O   0  0  0  0  0  0  0  0  0  0  0  0
   -1.5305   -0.7633   -2.6927 C   0  0  0  0  0  0  0  0  0  0  0  0
   -1.8312   -0.8309   -4.0699 C   0  0  0  0  0  0  0  0  0  0  0  0
   -0.8214   -1.1338   -5.0023 C   0  0  0  0  0  0  0  0  0  0  0  0
    0.4980   -1.3486   -4.5654 C   0  0  0  0  0  0  0  0  0  0  0  0
    0.8112   -1.2439   -3.1974 C   0  0  0  0  0  0  0  0  0  0  0  0
   -0.1959   -0.9366   -2.2585 C   0  0  0  0  0  0  0  0  0  0  0  0
    0.1160   -0.8569   -0.9290 O   0  0  0  0  0  0  0  0  0  0  0  0
    0.4029    0.4858   -0.4855 C   0  0  1  0  0  0  0  0  0  0  0  0
    0.6911    0.4669    1.0305 C   0  0  1  0  0  0  0  0  0  0  0  0
    0.9926    1.7308    1.4759 F   0  0  0  0  0  0  0  0  0  0  0  0
   -0.4049    0.0145    1.7246 F   0  0  0  0  0  0  0  0  0  0  0  0
    1.7561   -0.3545    1.3100 F   0  0  0  0  0  0  0  0  0  0  0  0
   -4.5787    0.9125    3.6513 H   0  0  0  0  0  0  0  0  0  0  0  0
   -3.4497    1.2738    2.3465 H   0  0  0  0  0  0  0  0  0  0  0  0
   -3.1200   -0.0736    3.4461 H   0  0  0  0  0  0  0  0  0  0  0  0
   -5.4843    0.0939    1.5034 H   0  0  0  0  0  0  0  0  0  0  0  0
   -5.7490   -2.4058    2.0033 H   0  0  0  0  0  0  0  0  0  0  0  0
   -4.4936   -2.2709    3.2047 H   0  0  0  0  0  0  0  0  0  0  0  0
   -7.9056   -1.0653    2.2832 H   0  0  0  0  0  0  0  0  0  0  0  0
  -10.1261    0.4384    3.3530 H   0  0  0  0  0  0  0  0  0  0  0  0
  -10.5680   -1.2953    3.4489 H   0  0  0  0  0  0  0  0  0  0  0  0
  -10.7988    0.8031    5.5835 H   0  0  0  0  0  0  0  0  0  0  0  0
  -11.5657   -0.7930    5.4791 H   0  0  0  0  0  0  0  0  0  0  0  0
   -9.0024   -1.7120    8.0390 H   0  0  0  0  0  0  0  0  0  0  0  0
  -10.1386   -0.3717    8.2322 H   0  0  0  0  0  0  0  0  0  0  0  0
  -11.9878   -1.8142    7.5068 H   0  0  0  0  0  0  0  0  0  0  0  0
  -10.8577   -3.0732    6.9775 H   0  0  0  0  0  0  0  0  0  0  0  0
  -11.2766   -2.1824    9.8850 H   0  0  0  0  0  0  0  0  0  0  0  0
  -10.2165   -3.5043    9.3465 H   0  0  0  0  0  0  0  0  0  0  0  0
  -12.2049   -4.2443   10.0554 H   0  0  0  0  0  0  0  0  0  0  0  0
   -5.1051   -1.4522    5.4011 H   0  0  0  0  0  0  0  0  0  0  0  0
   -5.3366   -0.9207    8.8991 H   0  0  0  0  0  0  0  0  0  0  0  0
   -4.9698   -1.7746    7.5059 H   0  0  0  0  0  0  0  0  0  0  0  0
   -3.0946   -1.6068    1.3282 H   0  0  0  0  0  0  0  0  0  0  0  0
   -4.8098   -2.4034   -0.1299 H   0  0  0  0  0  0  0  0  0  0  0  0
   -4.9913   -0.7619   -0.7746 H   0  0  0  0  0  0  0  0  0  0  0  0
   -2.4280   -2.4225   -0.8689 H   0  0  0  0  0  0  0  0  0  0  0  0
   -3.6018   -2.2854   -2.1970 H   0  0  0  0  0  0  0  0  0  0  0  0
   -2.7896   -0.6726   -4.3929 H   0  0  0  0  0  0  0  0  0  0  0  0
   -1.0481   -1.2032   -5.9956 H   0  0  0  0  0  0  0  0  0  0  0  0
    1.2284   -1.5783   -5.2409 H   0  0  0  0  0  0  0  0  0  0  0  0
    1.7728   -1.3980   -2.8847 H   0  0  0  0  0  0  0  0  0  0  0  0
    1.2780    0.8846   -1.0094 H   0  0  0  0  0  0  0  0  0  0  0  0
   -0.4475    1.1507   -0.6720 H   0  0  0  0  0  0  0  0  0  0  0  0
  2  1  1  0  0  0  0 
  2  3  1  0  0  0  0 
  3  4  1  0  0  0  0 
  4  5  2  0  0  0  0 
  5  6  1  0  0  0  0 
  6  7  1  0  0  0  0 
  7  8  1  0  0  0  0 
  8  9  1  0  0  0  0 
  9 10  1  0  0  0  0 
 10 11  1  0  0  0  0 
 11 12  1  0  0  0  0 
 12 13  1  0  0  0  0 
  9 14  1  0  0  0  0 
  6 14  2  0  0  0  0 
 14 15  1  0  0  0  0 
 15 16  2  0  0  0  0 
  4 16  1  0  0  0  0 
 15 17  1  0  0  0  0 
 17 18  1  0  0  0  0 
 17 19  2  0  0  0  0 
  2 20  1  0  0  0  0 
 20 21  1  0  0  0  0 
 21 22  1  0  0  0  0 
 22 23  1  0  0  0  0 
 23 24  1  0  0  0  0 
 24 25  2  0  0  0  0 
 25 26  1  0  0  0  0 
 26 27  2  0  0  0  0 
 27 28  1  0  0  0  0 
 28 29  2  0  0  0  0 
 24 29  1  0  0  0  0 
 29 30  1  0  0  0  0 
 30 31  1  0  0  0  0 
 31 32  1  0  0  0  0 
 32 33  1  0  0  0  0 
 32 34  1  0  0  0  0 
 32 35  1  0  0  0  0 
  1 36  1  0  0  0  0 
  1 37  1  0  0  0  0 
  1 38  1  0  0  0  0 
  2 39  1  0  0  0  0 
  3 40  1  0  0  0  0 
  3 41  1  0  0  0  0 
  5 42  1  0  0  0  0 
  7 43  1  0  0  0  0 
  7 44  1  0  0  0  0 
  8 45  1  0  0  0  0 
  8 46  1  0  0  0  0 
 10 47  1  0  0  0  0 
 10 48  1  0  0  0  0 
 11 49  1  0  0  0  0 
 11 50  1  0  0  0  0 
 12 51  1  0  0  0  0 
 12 52  1  0  0  0  0 
 13 53  1  0  0  0  0 
 16 54  1  0  0  0  0 
 18 55  1  0  0  0  0 
 18 56  1  0  0  0  0 
 20 57  1  0  0  0  0 
 21 58  1  0  0  0  0 
 21 59  1  0  0  0  0 
 22 60  1  0  0  0  0 
 22 61  1  0  0  0  0 
 25 62  1  0  0  0  0 
 26 63  1  0  0  0  0 
 27 64  1  0  0  0  0 
 28 65  1  0  0  0  0 
 31 66  1  0  0  0  0 
 31 67  1  0  0  0  0 
M  END
> <cdk:Title>
silodosin

> <Conformer>
1

> <SuperDrugID>
SD003386

$$$$
