dimefline
  CDK     0628171802

 45 47  0  0  0  0  0  0  0  0999 V2000
   -1.5263   -3.8670   -0.5610 C   0  0  2  0  0  0  0  0  0  0  0  0
   -1.6935   -5.1903    0.1237 N   0  0  1  0  0  0  0  0  0  0  0  0
   -2.1435   -3.8320   -1.9159 C   0  0  0  0  0  0  0  0  0  0  0  0
   -0.9981   -6.3285   -0.5453 C   0  0  0  0  0  0  0  0  0  0  0  0
   -1.3682   -5.1137    1.5740 C   0  0  0  0  0  0  0  0  0  0  0  0
   -3.5237   -4.1236   -2.0527 C   0  0  0  0  0  0  0  0  0  0  0  0
   -1.3960   -3.4892   -3.0730 C   0  0  0  0  0  0  0  0  0  0  0  0
   -4.1589   -4.1187   -3.3182 C   0  0  0  0  0  0  0  0  0  0  0  0
   -4.2760   -4.3931   -0.9485 O   0  0  0  0  0  0  0  0  0  0  0  0
   -0.0789   -3.1079   -2.9831 O   0  0  0  0  0  0  0  0  0  0  0  0
   -2.0304   -3.4553   -4.3317 C   0  0  0  0  0  0  0  0  0  0  0  0
   -5.5371   -4.4490   -3.3806 C   0  0  0  0  0  0  0  0  0  0  0  0
   -3.3925   -3.7762   -4.4553 C   0  0  0  0  0  0  0  0  0  0  0  0
   -5.6090   -4.6695   -0.9638 C   0  0  0  0  0  0  0  0  0  0  0  0
    0.8724   -4.1183   -3.3641 C   0  0  0  0  0  0  0  0  0  0  0  0
   -6.1089   -4.4710   -4.4974 O   0  0  0  0  0  0  0  0  0  0  0  0
   -6.2841   -4.7479   -2.2100 C   0  0  0  0  0  0  0  0  0  0  0  0
   -6.2136   -4.8112    0.3060 C   0  0  0  0  0  0  0  0  0  0  0  0
   -7.7261   -5.1237   -2.2935 C   0  0  0  0  0  0  0  0  0  0  0  0
   -7.2536   -3.9355    0.6942 C   0  0  0  0  0  0  0  0  0  0  0  0
   -5.7660   -5.7920    1.2224 C   0  0  0  0  0  0  0  0  0  0  0  0
   -7.8520   -4.0506    1.9612 C   0  0  0  0  0  0  0  0  0  0  0  0
   -6.3732   -5.9131    2.4880 C   0  0  0  0  0  0  0  0  0  0  0  0
   -7.4190   -5.0459    2.8548 C   0  0  0  0  0  0  0  0  0  0  0  0
   -0.4656   -3.6049   -0.5842 H   0  0  0  0  0  0  0  0  0  0  0  0
   -2.0291   -3.0857    0.0172 H   0  0  0  0  0  0  0  0  0  0  0  0
   -1.1843   -7.2595   -0.0028 H   0  0  0  0  0  0  0  0  0  0  0  0
   -1.3780   -6.4660   -1.5594 H   0  0  0  0  0  0  0  0  0  0  0  0
    0.0805   -6.1541   -0.5890 H   0  0  0  0  0  0  0  0  0  0  0  0
   -0.3158   -4.8594    1.7218 H   0  0  0  0  0  0  0  0  0  0  0  0
   -1.9863   -4.3597    2.0660 H   0  0  0  0  0  0  0  0  0  0  0  0
   -1.5725   -6.0687    2.0606 H   0  0  0  0  0  0  0  0  0  0  0  0
   -1.5029   -3.1844   -5.1641 H   0  0  0  0  0  0  0  0  0  0  0  0
   -3.8220   -3.7439   -5.3834 H   0  0  0  0  0  0  0  0  0  0  0  0
    1.8717   -3.7163   -3.1883 H   0  0  0  0  0  0  0  0  0  0  0  0
    0.7646   -5.0290   -2.7705 H   0  0  0  0  0  0  0  0  0  0  0  0
    0.7818   -4.3627   -4.4252 H   0  0  0  0  0  0  0  0  0  0  0  0
   -8.3466   -4.2325   -2.1904 H   0  0  0  0  0  0  0  0  0  0  0  0
   -7.9961   -5.8343   -1.5115 H   0  0  0  0  0  0  0  0  0  0  0  0
   -7.9657   -5.6014   -3.2437 H   0  0  0  0  0  0  0  0  0  0  0  0
   -7.5761   -3.1999    0.0602 H   0  0  0  0  0  0  0  0  0  0  0  0
   -5.0022   -6.4282    0.9765 H   0  0  0  0  0  0  0  0  0  0  0  0
   -8.5985   -3.4069    2.2313 H   0  0  0  0  0  0  0  0  0  0  0  0
   -6.0542   -6.6303    3.1448 H   0  0  0  0  0  0  0  0  0  0  0  0
   -7.8619   -5.1341    3.7718 H   0  0  0  0  0  0  0  0  0  0  0  0
  1  2  1  0  0  0  0 
  1  3  1  0  0  0  0 
  2  4  1  0  0  0  0 
  2  5  1  0  0  0  0 
  3  6  2  0  0  0  0 
  3  7  1  0  0  0  0 
  6  8  1  0  0  0  0 
  6  9  1  0  0  0  0 
  7 10  1  0  0  0  0 
  7 11  2  0  0  0  0 
  8 12  1  0  0  0  0 
  8 13  2  0  0  0  0 
  9 14  1  0  0  0  0 
 10 15  1  0  0  0  0 
 11 13  1  0  0  0  0 
 12 16  2  0  0  0  0 
 12 17  1  0  0  0  0 
 14 17  2  0  0  0  0 
 14 18  1  0  0  0  0 
 17 19  1  0  0  0  0 
 18 20  2  0  0  0  0 
 18 21  1  0  0  0  0 
 20 22  1  0  0  0  0 
 21 23  2  0  0  0  0 
 22 24  2  0  0  0  0 
 23 24  1  0  0  0  0 
  1 25  1  0  0  0  0 
  1 26  1  0  0  0  0 
  4 27  1  0  0  0  0 
  4 28  1  0  0  0  0 
  4 29  1  0  0  0  0 
  5 30  1  0  0  0  0 
  5 31  1  0  0  0  0 
  5 32  1  0  0  0  0 
 11 33  1  0  0  0  0 
 13 34  1  0  0  0  0 
 15 35  1  0  0  0  0 
 15 36  1  0  0  0  0 
 15 37  1  0  0  0  0 
 19 38  1  0  0  0  0 
 19 39  1  0  0  0  0 
 19 40  1  0  0  0  0 
 20 41  1  0  0  0  0 
 21 42  1  0  0  0  0 
 22 43  1  0  0  0  0 
 23 44  1  0  0  0  0 
 24 45  1  0  0  0  0 
M  END
> <cdk:Title>
dimefline

> <Conformer>
1

> <SuperDrugID>
SD000800

$$$$
