morniflumate
  CDK     0628171802

 48 50  0  0  0  0  0  0  0  0999 V2000
    1.6818   -0.6776    0.3016 N   0  0  0  0  0  0  0  0  0  0  0  0
    2.5668   -1.5720    0.8299 C   0  0  0  0  0  0  0  0  0  0  0  0
    1.5311    0.6697    0.4665 C   0  0  0  0  0  0  0  0  0  0  0  0
    2.4940   -2.9463    0.4546 C   0  0  0  0  0  0  0  0  0  0  0  0
    3.4667   -1.1929    1.7776 N   0  0  0  0  0  0  0  0  0  0  0  0
    0.2626    1.1709    0.1002 C   0  0  0  0  0  0  0  0  0  0  0  0
    2.5051    1.5782    0.9400 C   0  0  0  0  0  0  0  0  0  0  0  0
    1.5995   -3.4468   -0.5358 C   0  0  0  0  0  0  0  0  0  0  0  0
    3.3505   -3.8563    1.1221 C   0  0  0  0  0  0  0  0  0  0  0  0
    4.3065   -2.0471    2.4086 C   0  0  0  0  0  0  0  0  0  0  0  0
   -0.0669    2.5419    0.2182 C   0  0  0  0  0  0  0  0  0  0  0  0
    2.1975    2.9441    1.0701 C   0  0  0  0  0  0  0  0  0  0  0  0
    1.1191   -4.7217   -0.4350 O   0  0  0  0  0  0  0  0  0  0  0  0
    1.2612   -2.7491   -1.5217 O   0  0  0  0  0  0  0  0  0  0  0  0
    4.2606   -3.4136    2.0960 C   0  0  0  0  0  0  0  0  0  0  0  0
   -1.4313    3.0001   -0.1706 C   0  0  1  0  0  0  0  0  0  0  0  0
    0.9247    3.4217    0.7125 C   0  0  0  0  0  0  0  0  0  0  0  0
    0.1590   -5.3539   -1.2902 C   0  0  2  0  0  0  0  0  0  0  0  0
   -1.6477    4.3475   -0.0004 F   0  0  0  0  0  0  0  0  0  0  0  0
   -1.6657    2.7175   -1.4951 F   0  0  0  0  0  0  0  0  0  0  0  0
   -2.3796    2.3504    0.5836 F   0  0  0  0  0  0  0  0  0  0  0  0
    0.0168   -6.8372   -0.8810 C   0  0  1  0  0  0  0  0  0  0  0  0
   -0.8659   -7.6285   -1.8018 N   0  0  1  0  0  0  0  0  0  0  0  0
   -0.6144   -9.1038   -1.7261 C   0  0  1  0  0  0  0  0  0  0  0  0
   -2.3233   -7.3047   -1.6781 C   0  0  2  0  0  0  0  0  0  0  0  0
   -1.5100   -9.8758   -2.7283 C   0  0  1  0  0  0  0  0  0  0  0  0
   -3.1636   -8.1304   -2.6802 C   0  0  2  0  0  0  0  0  0  0  0  0
   -2.8987   -9.5384   -2.5466 O   0  0  0  0  0  0  0  0  0  0  0  0
    0.9985   -1.0795   -0.2505 H   0  0  0  0  0  0  0  0  0  0  0  0
   -0.4459    0.5205   -0.2554 H   0  0  0  0  0  0  0  0  0  0  0  0
    3.4449    1.2689    1.1848 H   0  0  0  0  0  0  0  0  0  0  0  0
    3.3257   -4.8563    0.9032 H   0  0  0  0  0  0  0  0  0  0  0  0
    4.9561   -1.6919    3.1117 H   0  0  0  0  0  0  0  0  0  0  0  0
    2.9013    3.5957    1.4260 H   0  0  0  0  0  0  0  0  0  0  0  0
    4.8768   -4.0785    2.5678 H   0  0  0  0  0  0  0  0  0  0  0  0
    0.7334    4.4201    0.8160 H   0  0  0  0  0  0  0  0  0  0  0  0
    0.4893   -5.2970   -2.3312 H   0  0  0  0  0  0  0  0  0  0  0  0
   -0.7924   -4.8310   -1.1844 H   0  0  0  0  0  0  0  0  0  0  0  0
    1.0296   -7.2531   -0.8929 H   0  0  0  0  0  0  0  0  0  0  0  0
   -0.3455   -6.8969    0.1498 H   0  0  0  0  0  0  0  0  0  0  0  0
    0.4305   -9.3191   -1.9692 H   0  0  0  0  0  0  0  0  0  0  0  0
   -0.8120   -9.4688   -0.7125 H   0  0  0  0  0  0  0  0  0  0  0  0
   -2.5033   -6.2526   -1.8985 H   0  0  0  0  0  0  0  0  0  0  0  0
   -2.6734   -7.5069   -0.6613 H   0  0  0  0  0  0  0  0  0  0  0  0
   -1.1989   -9.6645   -3.7561 H   0  0  0  0  0  0  0  0  0  0  0  0
   -1.3999  -10.9488   -2.5572 H   0  0  0  0  0  0  0  0  0  0  0  0
   -2.9597   -7.8016   -3.7027 H   0  0  0  0  0  0  0  0  0  0  0  0
   -4.2235   -7.9685   -2.4807 H   0  0  0  0  0  0  0  0  0  0  0  0
  1  2  1  0  0  0  0 
  1  3  1  0  0  0  0 
  2  4  2  0  0  0  0 
  2  5  1  0  0  0  0 
  3  6  2  0  0  0  0 
  3  7  1  0  0  0  0 
  4  8  1  0  0  0  0 
  4  9  1  0  0  0  0 
  5 10  2  0  0  0  0 
  6 11  1  0  0  0  0 
  7 12  2  0  0  0  0 
  8 13  1  0  0  0  0 
  8 14  2  0  0  0  0 
  9 15  2  0  0  0  0 
 10 15  1  0  0  0  0 
 11 16  1  0  0  0  0 
 11 17  2  0  0  0  0 
 12 17  1  0  0  0  0 
 13 18  1  0  0  0  0 
 16 19  1  0  0  0  0 
 16 20  1  0  0  0  0 
 16 21  1  0  0  0  0 
 18 22  1  0  0  0  0 
 22 23  1  0  0  0  0 
 23 24  1  0  0  0  0 
 23 25  1  0  0  0  0 
 24 26  1  0  0  0  0 
 25 27  1  0  0  0  0 
 26 28  1  0  0  0  0 
 27 28  1  0  0  0  0 
  1 29  1  0  0  0  0 
  6 30  1  0  0  0  0 
  7 31  1  0  0  0  0 
  9 32  1  0  0  0  0 
 10 33  1  0  0  0  0 
 12 34  1  0  0  0  0 
 15 35  1  0  0  0  0 
 17 36  1  0  0  0  0 
 18 37  1  0  0  0  0 
 18 38  1  0  0  0  0 
 22 39  1  0  0  0  0 
 22 40  1  0  0  0  0 
 24 41  1  0  0  0  0 
 24 42  1  0  0  0  0 
 25 43  1  0  0  0  0 
 25 44  1  0  0  0  0 
 26 45  1  0  0  0  0 
 26 46  1  0  0  0  0 
 27 47  1  0  0  0  0 
 27 48  1  0  0  0  0 
M  END
> <cdk:Title>
morniflumate

> <Conformer>
1

> <SuperDrugID>
SD003703

$$$$
