paromomycin
  CDK     0628171801

 87 90  0  0  0  0  0  0  0  0999 V2000
   -0.9937   -7.9586   -3.5708 O   0  0  0  0  0  0  0  0  0  0  0  0
   -1.1213   -9.3886   -3.3327 C   0  0  1  0  0  0  0  0  0  0  0  0
    0.2100   -7.2658   -3.1596 C   0  0  1  0  0  0  0  0  0  0  0  0
   -1.4233   -9.7445   -1.8364 C   0  0  2  0  0  0  0  0  0  0  0  0
   -2.2810   -9.8767   -4.2653 C   0  0  1  0  0  0  0  0  0  0  0  0
    1.4363   -7.9241   -3.5622 O   0  0  0  0  0  0  0  0  0  0  0  0
    0.1781   -5.7935   -3.6629 C   0  0  2  0  0  0  0  0  0  0  0  0
   -0.3139   -9.3383   -0.9984 O   0  0  0  0  0  0  0  0  0  0  0  0
   -1.6461  -11.2789   -1.6483 C   0  0  1  0  0  0  0  0  0  0  0  0
   -1.9531   -9.4933   -5.6809 N   0  0  2  0  0  0  0  0  0  0  0  0
   -2.5257  -11.4598   -4.0386 C   0  0  1  0  0  0  0  0  0  0  0  0
    1.7109   -7.9318   -4.9821 C   0  0  2  0  0  0  0  0  0  0  0  0
   -1.1189   -5.1572   -3.3846 N   0  0  1  0  0  0  0  0  0  0  0  0
    0.4753   -5.7202   -5.1840 C   0  0  2  0  0  0  0  0  0  0  0  0
   -0.6659   -8.7576    0.2748 C   0  0  1  0  0  0  0  0  0  0  0  0
   -1.9031  -11.5886   -0.2799 O   0  0  0  0  0  0  0  0  0  0  0  0
   -2.8255  -11.7876   -2.5211 C   0  0  1  0  0  0  0  0  0  0  0  0
    3.0134   -8.7418   -5.2034 C   0  0  1  0  0  0  0  0  0  0  0  0
    1.7854   -6.4751   -5.5300 C   0  0  2  0  0  0  0  0  0  0  0  0
    0.5638   -4.3604   -5.6076 O   0  0  0  0  0  0  0  0  0  0  0  0
    0.5828   -8.4431    1.1127 C   0  0  2  0  0  0  0  0  0  0  0  0
   -1.3422   -7.4972    0.1416 O   0  0  0  0  0  0  0  0  0  0  0  0
   -2.9475  -13.2485   -2.3859 N   0  0  1  0  0  0  0  0  0  0  0  0
    4.1214   -8.1571   -4.5233 O   0  0  0  0  0  0  0  0  0  0  0  0
    1.9801   -6.4636   -6.9425 O   0  0  0  0  0  0  0  0  0  0  0  0
    1.1692   -9.6116    1.6815 O   0  0  0  0  0  0  0  0  0  0  0  0
   -0.0066   -7.4808    2.1561 C   0  0  1  0  0  0  0  0  0  0  0  0
   -1.0015   -6.6741    1.2735 C   0  0  1  0  0  0  0  0  0  0  0  0
   -0.6499   -8.2878    3.1764 O   0  0  0  0  0  0  0  0  0  0  0  0
   -0.4250   -5.3376    0.7380 C   0  0  1  0  0  0  0  0  0  0  0  0
   -1.1731   -7.6311    4.3525 C   0  0  1  0  0  0  0  0  0  0  0  0
   -1.4149   -4.6535   -0.0221 O   0  0  0  0  0  0  0  0  0  0  0  0
   -2.6058   -7.4363    4.2438 O   0  0  0  0  0  0  0  0  0  0  0  0
   -0.7786   -8.4324    5.6303 C   0  0  2  0  0  0  0  0  0  0  0  0
   -3.4702   -8.5945    4.3888 C   0  0  1  0  0  0  0  0  0  0  0  0
    0.6553   -8.7658    5.6176 N   0  0  1  0  0  0  0  0  0  0  0  0
   -1.6306   -9.7222    5.7822 C   0  0  2  0  0  0  0  0  0  0  0  0
   -3.5437   -9.4938    3.1188 C   0  0  1  0  0  0  0  0  0  0  0  0
   -3.1403   -9.3746    5.6994 C   0  0  2  0  0  0  0  0  0  0  0  0
   -1.3464  -10.3761    7.0208 O   0  0  0  0  0  0  0  0  0  0  0  0
   -3.9547   -8.7357    1.9321 N   0  0  2  0  0  0  0  0  0  0  0  0
   -3.9291  -10.5582    5.8267 O   0  0  0  0  0  0  0  0  0  0  0  0
   -0.2056   -9.9035   -3.6435 H   0  0  0  0  0  0  0  0  0  0  0  0
   -1.3084   -9.4420    0.8353 H   0  0  0  0  0  0  0  0  0  0  0  0
   -0.7364   -6.6331    4.4601 H   0  0  0  0  0  0  0  0  0  0  0  0
    0.2276   -7.2075   -2.0724 H   0  0  0  0  0  0  0  0  0  0  0  0
   -2.3449   -9.2177   -1.5629 H   0  0  0  0  0  0  0  0  0  0  0  0
   -3.1664   -9.2256   -4.0182 H   0  0  0  0  0  0  0  0  0  0  0  0
    0.9469   -5.2280   -3.1248 H   0  0  0  0  0  0  0  0  0  0  0  0
   -0.7283  -11.8065   -1.9297 H   0  0  0  0  0  0  0  0  0  0  0  0
   -1.8601   -8.4761   -5.7168 H   0  0  0  0  0  0  0  0  0  0  0  0
   -2.7730   -9.7324   -6.2437 H   0  0  0  0  0  0  0  0  0  0  0  0
   -3.3816  -11.7661   -4.6444 H   0  0  0  0  0  0  0  0  0  0  0  0
   -1.6476  -12.0144   -4.3822 H   0  0  0  0  0  0  0  0  0  0  0  0
    0.9100   -8.4629   -5.5068 H   0  0  0  0  0  0  0  0  0  0  0  0
   -1.2732   -5.1995   -2.3757 H   0  0  0  0  0  0  0  0  0  0  0  0
   -1.0231   -4.1684   -3.6274 H   0  0  0  0  0  0  0  0  0  0  0  0
   -0.3547   -6.1783   -5.7294 H   0  0  0  0  0  0  0  0  0  0  0  0
   -1.8869  -12.5661   -0.2289 H   0  0  0  0  0  0  0  0  0  0  0  0
   -3.7723  -11.3621   -2.0826 H   0  0  0  0  0  0  0  0  0  0  0  0
    2.8759   -9.7576   -4.8255 H   0  0  0  0  0  0  0  0  0  0  0  0
    3.2461   -8.8070   -6.2673 H   0  0  0  0  0  0  0  0  0  0  0  0
    2.6272   -5.9522   -5.0670 H   0  0  0  0  0  0  0  0  0  0  0  0
    1.2830   -3.9722   -5.0668 H   0  0  0  0  0  0  0  0  0  0  0  0
    1.3337   -7.9340    0.5004 H   0  0  0  0  0  0  0  0  0  0  0  0
   -3.7644  -13.5371   -2.9286 H   0  0  0  0  0  0  0  0  0  0  0  0
   -2.1246  -13.6635   -2.8306 H   0  0  0  0  0  0  0  0  0  0  0  0
    4.8789   -8.7497   -4.7191 H   0  0  0  0  0  0  0  0  0  0  0  0
    2.8693   -6.8531   -7.0779 H   0  0  0  0  0  0  0  0  0  0  0  0
    1.4583  -10.1448    0.9089 H   0  0  0  0  0  0  0  0  0  0  0  0
    0.7873   -6.8630    2.5913 H   0  0  0  0  0  0  0  0  0  0  0  0
   -1.9103   -6.4485    1.8381 H   0  0  0  0  0  0  0  0  0  0  0  0
   -0.1236   -4.6983    1.5682 H   0  0  0  0  0  0  0  0  0  0  0  0
    0.4452   -5.5141    0.1017 H   0  0  0  0  0  0  0  0  0  0  0  0
   -0.9812   -3.8282   -0.3231 H   0  0  0  0  0  0  0  0  0  0  0  0
   -0.9519   -7.7974    6.5041 H   0  0  0  0  0  0  0  0  0  0  0  0
   -4.4764   -8.1845    4.5208 H   0  0  0  0  0  0  0  0  0  0  0  0
    1.1724   -7.8872    5.5444 H   0  0  0  0  0  0  0  0  0  0  0  0
    0.8825   -9.1664    6.5306 H   0  0  0  0  0  0  0  0  0  0  0  0
   -1.3751  -10.4258    4.9852 H   0  0  0  0  0  0  0  0  0  0  0  0
   -2.5872   -9.9779    2.9231 H   0  0  0  0  0  0  0  0  0  0  0  0
   -4.2912  -10.2751    3.2647 H   0  0  0  0  0  0  0  0  0  0  0  0
   -3.3921   -8.7355    6.5524 H   0  0  0  0  0  0  0  0  0  0  0  0
   -1.6081   -9.7398    7.7194 H   0  0  0  0  0  0  0  0  0  0  0  0
   -4.0679   -9.4129    1.1748 H   0  0  0  0  0  0  0  0  0  0  0  0
   -3.1714   -8.1371    1.6708 H   0  0  0  0  0  0  0  0  0  0  0  0
   -4.8598  -10.2484    5.7850 H   0  0  0  0  0  0  0  0  0  0  0  0
  2  1  1  0  0  0  0 
  4  2  1  0  0  0  0 
  2  5  1  0  0  0  0 
  2 43  1  0  0  0  0 
  3  1  1  0  0  0  0 
  3  6  1  0  0  0  0 
  7  3  1  0  0  0  0 
  4  8  1  0  0  0  0 
  9  4  1  0  0  0  0 
  5 10  1  0  0  0  0 
  5 11  1  0  0  0  0 
 12  6  1  0  0  0  0 
  7 13  1  0  0  0  0 
 14  7  1  0  0  0  0 
 15  8  1  0  0  0  0 
  9 16  1  0  0  0  0 
 17  9  1  0  0  0  0 
 17 11  1  0  0  0  0 
 12 18  1  0  0  0  0 
 19 12  1  0  0  0  0 
 19 14  1  0  0  0  0 
 14 20  1  0  0  0  0 
 21 15  1  0  0  0  0 
 15 22  1  0  0  0  0 
 15 44  1  0  0  0  0 
 17 23  1  0  0  0  0 
 18 24  1  0  0  0  0 
 19 25  1  0  0  0  0 
 21 26  1  0  0  0  0 
 27 21  1  0  0  0  0 
 28 22  1  0  0  0  0 
 28 27  1  0  0  0  0 
 27 29  1  0  0  0  0 
 28 30  1  0  0  0  0 
 31 29  1  0  0  0  0 
 30 32  1  0  0  0  0 
 31 33  1  0  0  0  0 
 31 34  1  0  0  0  0 
 31 45  1  0  0  0  0 
 35 33  1  0  0  0  0 
 34 36  1  0  0  0  0 
 34 37  1  0  0  0  0 
 35 38  1  0  0  0  0 
 39 35  1  0  0  0  0 
 37 39  1  0  0  0  0 
 37 40  1  0  0  0  0 
 38 41  1  0  0  0  0 
 39 42  1  0  0  0  0 
  3 46  1  0  0  0  0 
  4 47  1  0  0  0  0 
  5 48  1  0  0  0  0 
  7 49  1  0  0  0  0 
  9 50  1  0  0  0  0 
 10 51  1  0  0  0  0 
 10 52  1  0  0  0  0 
 11 53  1  0  0  0  0 
 11 54  1  0  0  0  0 
 12 55  1  0  0  0  0 
 13 56  1  0  0  0  0 
 13 57  1  0  0  0  0 
 14 58  1  0  0  0  0 
 16 59  1  0  0  0  0 
 17 60  1  0  0  0  0 
 18 61  1  0  0  0  0 
 18 62  1  0  0  0  0 
 19 63  1  0  0  0  0 
 20 64  1  0  0  0  0 
 21 65  1  0  0  0  0 
 23 66  1  0  0  0  0 
 23 67  1  0  0  0  0 
 24 68  1  0  0  0  0 
 25 69  1  0  0  0  0 
 26 70  1  0  0  0  0 
 27 71  1  0  0  0  0 
 28 72  1  0  0  0  0 
 30 73  1  0  0  0  0 
 30 74  1  0  0  0  0 
 32 75  1  0  0  0  0 
 34 76  1  0  0  0  0 
 35 77  1  0  0  0  0 
 36 78  1  0  0  0  0 
 36 79  1  0  0  0  0 
 37 80  1  0  0  0  0 
 38 81  1  0  0  0  0 
 38 82  1  0  0  0  0 
 39 83  1  0  0  0  0 
 40 84  1  0  0  0  0 
 41 85  1  0  0  0  0 
 41 86  1  0  0  0  0 
 42 87  1  0  0  0  0 
M  END
> <cdk:Title>
paromomycin

> <Conformer>
1

> <SuperDrugID>
SD001853

$$$$
