tiemonium
  CDK     0628171801

 46 48  0  0  0  0  0  0  0  0999 V2000
   -1.8733    4.8847   -0.1268 C   0  0  2  0  0  0  0  0  0  0  0  0
   -1.4799    3.3954    0.1979 C   0  0  2  0  0  0  0  0  0  0  0  0
   -0.9138    5.6836    0.5863 O   0  0  0  0  0  0  0  0  0  0  0  0
   -3.2284    5.1800    0.4340 C   0  0  0  0  0  0  0  0  0  0  0  0
   -1.8513    5.2482   -1.5919 C   0  0  0  0  0  0  0  0  0  0  0  0
   -0.1071    2.9065   -0.3791 C   0  0  2  0  0  0  0  0  0  0  0  0
   -3.5637    6.0375    1.4977 C   0  0  0  0  0  0  0  0  0  0  0  0
   -4.7495    4.4727   -0.0968 S   0  0  0  0  0  0  0  0  0  0  0  0
   -2.3085    4.3464   -2.5897 C   0  0  0  0  0  0  0  0  0  0  0  0
   -1.3678    6.5096   -2.0303 C   0  0  0  0  0  0  0  0  0  0  0  0
    0.3358    1.4613   -0.1357 N   0  0  2  0  0  0  0  0  0  0  0  0
   -4.9262    6.0967    1.8418 C   0  0  0  0  0  0  0  0  0  0  0  0
   -5.7647    5.2946    1.0697 C   0  0  0  0  0  0  0  0  0  0  0  0
   -2.1929    4.6495   -3.9584 C   0  0  0  0  0  0  0  0  0  0  0  0
   -1.2527    6.8166   -3.3979 C   0  0  0  0  0  0  0  0  0  0  0  0
   -0.6162    0.5158   -0.8406 C   0  0  0  0  0  0  0  0  0  0  0  0
    0.3789    1.0827    1.3340 C   0  0  1  0  0  0  0  0  0  0  0  0
    1.7322    1.2461   -0.7135 C   0  0  2  0  0  0  0  0  0  0  0  0
   -1.6489    5.8782   -4.3643 C   0  0  0  0  0  0  0  0  0  0  0  0
    1.5227    1.7833    2.1167 C   0  0  1  0  0  0  0  0  0  0  0  0
    2.8752    1.8894    0.1257 C   0  0  2  0  0  0  0  0  0  0  0  0
    2.7954    1.4922    1.5080 O   0  0  0  0  0  0  0  0  0  0  0  0
   -2.2698    2.7298   -0.1511 H   0  0  0  0  0  0  0  0  0  0  0  0
   -1.4434    3.3013    1.2843 H   0  0  0  0  0  0  0  0  0  0  0  0
   -0.0559    5.5383    0.1347 H   0  0  0  0  0  0  0  0  0  0  0  0
    0.6447    3.5922    0.0082 H   0  0  0  0  0  0  0  0  0  0  0  0
   -0.1234    3.0769   -1.4585 H   0  0  0  0  0  0  0  0  0  0  0  0
   -2.8674    6.5896    2.0016 H   0  0  0  0  0  0  0  0  0  0  0  0
   -2.7199    3.4479   -2.3334 H   0  0  0  0  0  0  0  0  0  0  0  0
   -1.0913    7.2260   -1.3565 H   0  0  0  0  0  0  0  0  0  0  0  0
   -5.2767    6.6792    2.6042 H   0  0  0  0  0  0  0  0  0  0  0  0
   -6.7770    5.1978    1.1686 H   0  0  0  0  0  0  0  0  0  0  0  0
   -2.5012    3.9726   -4.6586 H   0  0  0  0  0  0  0  0  0  0  0  0
   -0.8808    7.7224   -3.6879 H   0  0  0  0  0  0  0  0  0  0  0  0
   -0.2870   -0.5259   -0.7657 H   0  0  0  0  0  0  0  0  0  0  0  0
   -1.6169    0.5510   -0.4052 H   0  0  0  0  0  0  0  0  0  0  0  0
   -0.7006    0.7528   -1.9057 H   0  0  0  0  0  0  0  0  0  0  0  0
   -0.5743    1.2802    1.8303 H   0  0  0  0  0  0  0  0  0  0  0  0
    0.5556    0.0041    1.4392 H   0  0  0  0  0  0  0  0  0  0  0  0
    1.7972    1.6240   -1.7389 H   0  0  0  0  0  0  0  0  0  0  0  0
    1.9672    0.1770   -0.7641 H   0  0  0  0  0  0  0  0  0  0  0  0
   -1.5472    6.0914   -5.3592 H   0  0  0  0  0  0  0  0  0  0  0  0
    1.3664    2.8631    2.1729 H   0  0  0  0  0  0  0  0  0  0  0  0
    1.5430    1.4031    3.1396 H   0  0  0  0  0  0  0  0  0  0  0  0
    2.8583    2.9783    0.0491 H   0  0  0  0  0  0  0  0  0  0  0  0
    3.8408    1.5576   -0.2605 H   0  0  0  0  0  0  0  0  0  0  0  0
  1  2  1  0  0  0  0 
  1  3  1  0  0  0  0 
  1  4  1  0  0  0  0 
  1  5  1  0  0  0  0 
  2  6  1  0  0  0  0 
  4  7  2  0  0  0  0 
  4  8  1  0  0  0  0 
  5  9  2  0  0  0  0 
  5 10  1  0  0  0  0 
  6 11  1  0  0  0  0 
  7 12  1  0  0  0  0 
  8 13  1  0  0  0  0 
  9 14  1  0  0  0  0 
 10 15  2  0  0  0  0 
 11 16  1  0  0  0  0 
 11 17  1  0  0  0  0 
 11 18  1  0  0  0  0 
 12 13  2  0  0  0  0 
 14 19  2  0  0  0  0 
 15 19  1  0  0  0  0 
 17 20  1  0  0  0  0 
 18 21  1  0  0  0  0 
 20 22  1  0  0  0  0 
 21 22  1  0  0  0  0 
  2 23  1  0  0  0  0 
  2 24  1  0  0  0  0 
  3 25  1  0  0  0  0 
  6 26  1  0  0  0  0 
  6 27  1  0  0  0  0 
  7 28  1  0  0  0  0 
  9 29  1  0  0  0  0 
 10 30  1  0  0  0  0 
 12 31  1  0  0  0  0 
 13 32  1  0  0  0  0 
 14 33  1  0  0  0  0 
 15 34  1  0  0  0  0 
 16 35  1  0  0  0  0 
 16 36  1  0  0  0  0 
 16 37  1  0  0  0  0 
 17 38  1  0  0  0  0 
 17 39  1  0  0  0  0 
 18 40  1  0  0  0  0 
 18 41  1  0  0  0  0 
 19 42  1  0  0  0  0 
 20 43  1  0  0  0  0 
 20 44  1  0  0  0  0 
 21 45  1  0  0  0  0 
 21 46  1  0  0  0  0 
M  CHG  1  11   1
M  END
> <cdk:Title>
tiemonium

> <Conformer>
1

> <SuperDrugID>
SD002393

$$$$
