butobendine
  CDK     0628171801

 92 93  0  0  0  0  0  0  0  0999 V2000
   13.1500   -7.4027   -8.6390 O   0  0  0  0  0  0  0  0  0  0  0  0
   12.8021   -8.3280   -9.6825 C   0  0  0  0  0  0  0  0  0  0  0  0
   12.1059   -6.6172   -8.2248 C   0  0  0  0  0  0  0  0  0  0  0  0
   11.8696   -5.3614   -8.8308 C   0  0  0  0  0  0  0  0  0  0  0  0
   11.2996   -7.0353   -7.1429 C   0  0  0  0  0  0  0  0  0  0  0  0
   12.6348   -4.9371   -9.8868 O   0  0  0  0  0  0  0  0  0  0  0  0
   10.8219   -4.5428   -8.3657 C   0  0  0  0  0  0  0  0  0  0  0  0
   11.5166   -8.2507   -6.5435 O   0  0  0  0  0  0  0  0  0  0  0  0
   10.2474   -6.2106   -6.6957 C   0  0  0  0  0  0  0  0  0  0  0  0
   13.8064   -4.2120   -9.4717 C   0  0  0  0  0  0  0  0  0  0  0  0
   10.0016   -4.9450   -7.2842 C   0  0  0  0  0  0  0  0  0  0  0  0
   12.3967   -8.1768   -5.4059 C   0  0  0  0  0  0  0  0  0  0  0  0
    8.9713   -4.0939   -6.8022 C   0  0  0  0  0  0  0  0  0  0  0  0
    8.5085   -3.0583   -7.5740 O   0  0  0  0  0  0  0  0  0  0  0  0
    8.4766   -4.2816   -5.6642 O   0  0  0  0  0  0  0  0  0  0  0  0
    7.5197   -2.0871   -7.1996 C   0  0  2  0  0  0  0  0  0  0  0  0
    6.9561   -1.3419   -8.4492 C   0  0  1  0  0  0  0  0  0  0  0  0
    6.4433   -2.2493   -9.5496 N   0  0  2  0  0  0  0  0  0  0  0  0
    5.8656   -0.3064   -8.0244 C   0  0  1  0  0  0  0  0  0  0  0  0
    5.6435   -3.4452   -9.1167 C   0  0  2  0  0  0  0  0  0  0  0  0
    7.4235   -2.5208  -10.6458 C   0  0  0  0  0  0  0  0  0  0  0  0
    5.2994    0.5451   -9.1860 C   0  0  0  0  0  0  0  0  0  0  0  0
    4.7392   -4.0847  -10.1997 C   0  0  2  0  0  0  0  0  0  0  0  0
    3.7261   -5.0894   -9.6391 N   0  0  0  0  0  0  0  0  0  0  0  0
    4.1300   -6.3646   -8.8158 C   0  0  2  0  0  0  0  0  0  0  0  0
    2.4278   -5.0688  -10.4385 C   0  0  0  0  0  0  0  0  0  0  0  0
    4.4807   -6.0209   -7.2766 C   0  0  1  0  0  0  0  0  0  0  0  0
    5.3569   -7.2084   -9.4566 C   0  0  2  0  0  0  0  0  0  0  0  0
    3.5396   -5.0194   -6.8590 O   0  0  0  0  0  0  0  0  0  0  0  0
    4.9602   -7.8281  -10.8171 C   0  0  0  0  0  0  0  0  0  0  0  0
    3.5585   -4.2837   -5.7097 C   0  0  0  0  0  0  0  0  0  0  0  0
    3.2304   -3.0813   -5.8315 O   0  0  0  0  0  0  0  0  0  0  0  0
    3.8658   -4.8009   -4.4294 C   0  0  0  0  0  0  0  0  0  0  0  0
    3.4304   -6.0872   -4.0384 C   0  0  0  0  0  0  0  0  0  0  0  0
    4.5974   -4.0238   -3.5036 C   0  0  0  0  0  0  0  0  0  0  0  0
    3.7269   -6.5974   -2.7565 C   0  0  0  0  0  0  0  0  0  0  0  0
    4.9002   -4.5219   -2.2206 C   0  0  0  0  0  0  0  0  0  0  0  0
    3.3211   -7.8580   -2.4008 O   0  0  0  0  0  0  0  0  0  0  0  0
    4.4775   -5.8181   -1.8489 C   0  0  0  0  0  0  0  0  0  0  0  0
    5.6262   -3.7484   -1.3547 O   0  0  0  0  0  0  0  0  0  0  0  0
    1.9589   -7.9210   -1.9407 C   0  0  0  0  0  0  0  0  0  0  0  0
    4.7579   -6.3015   -0.5964 O   0  0  0  0  0  0  0  0  0  0  0  0
    4.7967   -2.9597   -0.4844 C   0  0  0  0  0  0  0  0  0  0  0  0
    6.0213   -6.9834   -0.5145 C   0  0  0  0  0  0  0  0  0  0  0  0
   13.6871   -8.9186   -9.9182 H   0  0  0  0  0  0  0  0  0  0  0  0
   12.0148   -9.0157   -9.3649 H   0  0  0  0  0  0  0  0  0  0  0  0
   12.4890   -7.8084  -10.5915 H   0  0  0  0  0  0  0  0  0  0  0  0
   10.6759   -3.6365   -8.8177 H   0  0  0  0  0  0  0  0  0  0  0  0
    9.6603   -6.5501   -5.9281 H   0  0  0  0  0  0  0  0  0  0  0  0
   14.3636   -3.9146  -10.3615 H   0  0  0  0  0  0  0  0  0  0  0  0
   13.5406   -3.3045   -8.9214 H   0  0  0  0  0  0  0  0  0  0  0  0
   14.4599   -4.8369   -8.8566 H   0  0  0  0  0  0  0  0  0  0  0  0
   12.5041   -9.1808   -4.9936 H   0  0  0  0  0  0  0  0  0  0  0  0
   13.3898   -7.8203   -5.6913 H   0  0  0  0  0  0  0  0  0  0  0  0
   11.9887   -7.5308   -4.6235 H   0  0  0  0  0  0  0  0  0  0  0  0
    7.9807   -1.3766   -6.5061 H   0  0  0  0  0  0  0  0  0  0  0  0
    6.6998   -2.5835   -6.6742 H   0  0  0  0  0  0  0  0  0  0  0  0
    7.7909   -0.7400   -8.8258 H   0  0  0  0  0  0  0  0  0  0  0  0
    5.0357   -0.8146   -7.5282 H   0  0  0  0  0  0  0  0  0  0  0  0
    6.3015    0.3851   -7.2964 H   0  0  0  0  0  0  0  0  0  0  0  0
    4.9729   -3.1424   -8.3129 H   0  0  0  0  0  0  0  0  0  0  0  0
    6.3264   -4.2021   -8.7337 H   0  0  0  0  0  0  0  0  0  0  0  0
    7.9283   -1.6053  -10.9580 H   0  0  0  0  0  0  0  0  0  0  0  0
    6.9113   -2.9042  -11.5288 H   0  0  0  0  0  0  0  0  0  0  0  0
    8.1757   -3.2466  -10.3318 H   0  0  0  0  0  0  0  0  0  0  0  0
    4.6446    1.3222   -8.7891 H   0  0  0  0  0  0  0  0  0  0  0  0
    4.7205   -0.0747   -9.8709 H   0  0  0  0  0  0  0  0  0  0  0  0
    6.1076    1.0269   -9.7382 H   0  0  0  0  0  0  0  0  0  0  0  0
    5.3533   -4.5958  -10.9411 H   0  0  0  0  0  0  0  0  0  0  0  0
    4.2329   -3.2583  -10.7085 H   0  0  0  0  0  0  0  0  0  0  0  0
    3.2669   -7.0359   -8.7623 H   0  0  0  0  0  0  0  0  0  0  0  0
    1.6763   -5.6956   -9.9571 H   0  0  0  0  0  0  0  0  0  0  0  0
    2.0210   -4.0590  -10.4973 H   0  0  0  0  0  0  0  0  0  0  0  0
    2.6004   -5.4455  -11.4474 H   0  0  0  0  0  0  0  0  0  0  0  0
    4.4026   -6.8822   -6.5619 H   0  0  0  0  0  0  0  0  0  0  0  0
    5.5032   -5.6055   -7.0840 H   0  0  0  0  0  0  0  0  0  0  0  0
    5.7042   -8.0792   -8.8361 H   0  0  0  0  0  0  0  0  0  0  0  0
    6.2941   -6.6228   -9.6490 H   0  0  0  0  0  0  0  0  0  0  0  0
    4.1178   -8.5107  -10.6937 H   0  0  0  0  0  0  0  0  0  0  0  0
    5.8017   -8.3904  -11.2302 H   0  0  0  0  0  0  0  0  0  0  0  0
    4.6872   -7.0497  -11.5289 H   0  0  0  0  0  0  0  0  0  0  0  0
    2.8789   -6.6628   -4.6787 H   0  0  0  0  0  0  0  0  0  0  0  0
    4.9224   -3.0856   -3.7560 H   0  0  0  0  0  0  0  0  0  0  0  0
    1.7516   -8.9474   -1.6361 H   0  0  0  0  0  0  0  0  0  0  0  0
    1.7935   -7.2703   -1.0777 H   0  0  0  0  0  0  0  0  0  0  0  0
    1.2595   -7.6567   -2.7375 H   0  0  0  0  0  0  0  0  0  0  0  0
    5.4489   -2.3791    0.1671 H   0  0  0  0  0  0  0  0  0  0  0  0
    4.1719   -2.2633   -1.0505 H   0  0  0  0  0  0  0  0  0  0  0  0
    4.1636   -3.5916    0.1434 H   0  0  0  0  0  0  0  0  0  0  0  0
    6.1497   -7.3274    0.5119 H   0  0  0  0  0  0  0  0  0  0  0  0
    6.0465   -7.8555   -1.1730 H   0  0  0  0  0  0  0  0  0  0  0  0
    6.8530   -6.3167   -0.7566 H   0  0  0  0  0  0  0  0  0  0  0  0
  1  2  1  0  0  0  0 
  1  3  1  0  0  0  0 
  3  4  2  0  0  0  0 
  3  5  1  0  0  0  0 
  4  6  1  0  0  0  0 
  4  7  1  0  0  0  0 
  5  8  1  0  0  0  0 
  5  9  2  0  0  0  0 
  6 10  1  0  0  0  0 
  7 11  2  0  0  0  0 
  8 12  1  0  0  0  0 
  9 11  1  0  0  0  0 
 11 13  1  0  0  0  0 
 13 14  1  0  0  0  0 
 13 15  2  0  0  0  0 
 14 16  1  0  0  0  0 
 17 16  1  0  0  0  0 
 17 18  1  0  0  0  0 
 17 19  1  0  0  0  0 
 18 20  1  0  0  0  0 
 18 21  1  0  0  0  0 
 19 22  1  0  0  0  0 
 20 23  1  0  0  0  0 
 23 24  1  0  0  0  0 
 25 24  1  0  0  0  0 
 24 26  1  0  0  0  0 
 25 27  1  0  0  0  0 
 25 28  1  0  0  0  0 
 27 29  1  0  0  0  0 
 28 30  1  0  0  0  0 
 29 31  1  0  0  0  0 
 31 32  2  0  0  0  0 
 31 33  1  0  0  0  0 
 33 34  2  0  0  0  0 
 33 35  1  0  0  0  0 
 34 36  1  0  0  0  0 
 35 37  2  0  0  0  0 
 36 38  1  0  0  0  0 
 36 39  2  0  0  0  0 
 37 39  1  0  0  0  0 
 37 40  1  0  0  0  0 
 38 41  1  0  0  0  0 
 39 42  1  0  0  0  0 
 40 43  1  0  0  0  0 
 42 44  1  0  0  0  0 
  2 45  1  0  0  0  0 
  2 46  1  0  0  0  0 
  2 47  1  0  0  0  0 
  7 48  1  0  0  0  0 
  9 49  1  0  0  0  0 
 10 50  1  0  0  0  0 
 10 51  1  0  0  0  0 
 10 52  1  0  0  0  0 
 12 53  1  0  0  0  0 
 12 54  1  0  0  0  0 
 12 55  1  0  0  0  0 
 16 56  1  0  0  0  0 
 16 57  1  0  0  0  0 
 17 58  1  0  0  0  0 
 19 59  1  0  0  0  0 
 19 60  1  0  0  0  0 
 20 61  1  0  0  0  0 
 20 62  1  0  0  0  0 
 21 63  1  0  0  0  0 
 21 64  1  0  0  0  0 
 21 65  1  0  0  0  0 
 22 66  1  0  0  0  0 
 22 67  1  0  0  0  0 
 22 68  1  0  0  0  0 
 23 69  1  0  0  0  0 
 23 70  1  0  0  0  0 
 25 71  1  0  0  0  0 
 26 72  1  0  0  0  0 
 26 73  1  0  0  0  0 
 26 74  1  0  0  0  0 
 27 75  1  0  0  0  0 
 27 76  1  0  0  0  0 
 28 77  1  0  0  0  0 
 28 78  1  0  0  0  0 
 30 79  1  0  0  0  0 
 30 80  1  0  0  0  0 
 30 81  1  0  0  0  0 
 34 82  1  0  0  0  0 
 35 83  1  0  0  0  0 
 41 84  1  0  0  0  0 
 41 85  1  0  0  0  0 
 41 86  1  0  0  0  0 
 43 87  1  0  0  0  0 
 43 88  1  0  0  0  0 
 43 89  1  0  0  0  0 
 44 90  1  0  0  0  0 
 44 91  1  0  0  0  0 
 44 92  1  0  0  0  0 
M  END
> <cdk:Title>
butobendine

> <Conformer>
1

> <SuperDrugID>
SD003160

$$$$
