ethanol
  CDK     0628171801

  9  8  0  0  0  0  0  0  0  0999 V2000
   -0.0048   -0.2886   -0.2972 C   0  0  0  0  0  0  0  0  0  0  0  0
    1.3763    0.1266    0.2374 C   0  0  2  0  0  0  0  0  0  0  0  0
    1.4720    1.5462    0.2565 O   0  0  0  0  0  0  0  0  0  0  0  0
   -0.7897    0.1147    0.3442 H   0  0  0  0  0  0  0  0  0  0  0  0
   -0.0897   -1.3760   -0.3165 H   0  0  0  0  0  0  0  0  0  0  0  0
   -0.1431    0.0934   -1.3097 H   0  0  0  0  0  0  0  0  0  0  0  0
    2.1624   -0.2792   -0.4017 H   0  0  0  0  0  0  0  0  0  0  0  0
    1.5171   -0.2580    1.2490 H   0  0  0  0  0  0  0  0  0  0  0  0
    2.3683    1.7350    0.6045 H   0  0  0  0  0  0  0  0  0  0  0  0
  1  2  1  0  0  0  0 
  2  3  1  0  0  0  0 
  1  4  1  0  0  0  0 
  1  5  1  0  0  0  0 
  1  6  1  0  0  0  0 
  2  7  1  0  0  0  0 
  2  8  1  0  0  0  0 
  3  9  1  0  0  0  0 
M  END
> <cdk:Title>
ethanol

> <Conformer>
1

> <SuperDrugID>
SD000960

$$$$
