xylometazoline
  CDK     0628171801

 42 43  0  0  0  0  0  0  0  0999 V2000
    4.6041   -0.6065   -2.2760 C   0  0  1  0  0  0  0  0  0  0  0  0
    4.3172    0.7389   -1.6576 C   0  0  0  0  0  0  0  0  0  0  0  0
    5.6483   -1.3300   -1.5847 C   0  0  0  0  0  0  0  0  0  0  0  0
    4.6902    1.9538   -2.3114 C   0  0  0  0  0  0  0  0  0  0  0  0
    3.6618    0.8207   -0.3885 C   0  0  0  0  0  0  0  0  0  0  0  0
    6.8398   -0.8943   -1.4307 N   0  0  0  0  0  0  0  0  0  0  0  0
    5.5110   -2.5139   -1.0356 N   0  0  0  0  0  0  0  0  0  0  0  0
    5.3628    1.9744   -3.6423 C   0  0  0  0  0  0  0  0  0  0  0  0
    4.4201    3.1965   -1.6882 C   0  0  0  0  0  0  0  0  0  0  0  0
    3.2131   -0.3840    0.3722 C   0  0  0  0  0  0  0  0  0  0  0  0
    3.4234    2.0872    0.1893 C   0  0  0  0  0  0  0  0  0  0  0  0
    7.6430   -1.7745   -0.7283 C   0  0  2  0  0  0  0  0  0  0  0  0
    6.7031   -2.9611   -0.4357 C   0  0  1  0  0  0  0  0  0  0  0  0
    3.7924    3.3076   -0.4248 C   0  0  0  0  0  0  0  0  0  0  0  0
    3.5268    4.6321    0.2835 C   0  0  1  0  0  0  0  0  0  0  0  0
    1.9971    4.7896    0.5891 C   0  0  0  0  0  0  0  0  0  0  0  0
    4.3345    4.6682    1.6252 C   0  0  0  0  0  0  0  0  0  0  0  0
    3.9475    5.9069   -0.5291 C   0  0  0  0  0  0  0  0  0  0  0  0
    3.6872   -1.1976   -2.3069 H   0  0  0  0  0  0  0  0  0  0  0  0
    4.9248   -0.5413   -3.3148 H   0  0  0  0  0  0  0  0  0  0  0  0
    4.6873   -3.0248   -1.0432 H   0  0  0  0  0  0  0  0  0  0  0  0
    6.2877    1.3978   -3.6030 H   0  0  0  0  0  0  0  0  0  0  0  0
    5.6222    2.9793   -3.9780 H   0  0  0  0  0  0  0  0  0  0  0  0
    4.7012    1.5414   -4.3933 H   0  0  0  0  0  0  0  0  0  0  0  0
    4.6937    4.0445   -2.1831 H   0  0  0  0  0  0  0  0  0  0  0  0
    2.6649   -0.1310    1.2825 H   0  0  0  0  0  0  0  0  0  0  0  0
    2.5519   -0.9976   -0.2420 H   0  0  0  0  0  0  0  0  0  0  0  0
    4.0779   -0.9722    0.6763 H   0  0  0  0  0  0  0  0  0  0  0  0
    2.9622    2.1219    1.0989 H   0  0  0  0  0  0  0  0  0  0  0  0
    7.9948   -1.3020    0.1918 H   0  0  0  0  0  0  0  0  0  0  0  0
    8.4971   -2.0844   -1.3368 H   0  0  0  0  0  0  0  0  0  0  0  0
    6.5662   -3.1194    0.6371 H   0  0  0  0  0  0  0  0  0  0  0  0
    7.0452   -3.8811   -0.9163 H   0  0  0  0  0  0  0  0  0  0  0  0
    1.7831    5.7528    1.0580 H   0  0  0  0  0  0  0  0  0  0  0  0
    1.6376    4.0205    1.2722 H   0  0  0  0  0  0  0  0  0  0  0  0
    1.4133    4.7246   -0.3313 H   0  0  0  0  0  0  0  0  0  0  0  0
    4.1919    5.6177    2.1464 H   0  0  0  0  0  0  0  0  0  0  0  0
    5.4021    4.5437    1.4300 H   0  0  0  0  0  0  0  0  0  0  0  0
    4.0211    3.8759    2.3060 H   0  0  0  0  0  0  0  0  0  0  0  0
    3.7287    6.8216    0.0272 H   0  0  0  0  0  0  0  0  0  0  0  0
    5.0190    5.8999   -0.7381 H   0  0  0  0  0  0  0  0  0  0  0  0
    3.4065    5.9599   -1.4763 H   0  0  0  0  0  0  0  0  0  0  0  0
  1  2  1  0  0  0  0 
  1  3  1  0  0  0  0 
  2  4  2  0  0  0  0 
  2  5  1  0  0  0  0 
  3  6  2  0  0  0  0 
  3  7  1  0  0  0  0 
  4  8  1  0  0  0  0 
  4  9  1  0  0  0  0 
  5 10  1  0  0  0  0 
  5 11  2  0  0  0  0 
  6 12  1  0  0  0  0 
  7 13  1  0  0  0  0 
  9 14  2  0  0  0  0 
 11 14  1  0  0  0  0 
 12 13  1  0  0  0  0 
 14 15  1  0  0  0  0 
 15 16  1  0  0  0  0 
 15 17  1  0  0  0  0 
 15 18  1  0  0  0  0 
 19  1  1  0  0  0  0 
 20  1  1  0  0  0  0 
 21  7  1  0  0  0  0 
 22  8  1  0  0  0  0 
 23  8  1  0  0  0  0 
 24  8  1  0  0  0  0 
 25  9  1  0  0  0  0 
 26 10  1  0  0  0  0 
 27 10  1  0  0  0  0 
 28 10  1  0  0  0  0 
 29 11  1  0  0  0  0 
 30 12  1  0  0  0  0 
 31 12  1  0  0  0  0 
 32 13  1  0  0  0  0 
 33 13  1  0  0  0  0 
 34 16  1  0  0  0  0 
 35 16  1  0  0  0  0 
 36 16  1  0  0  0  0 
 37 17  1  0  0  0  0 
 38 17  1  0  0  0  0 
 39 17  1  0  0  0  0 
 40 18  1  0  0  0  0 
 41 18  1  0  0  0  0 
 42 18  1  0  0  0  0 
M  END
> <cdk:Title>
xylometazoline

> <Conformer>
1

> <SuperDrugID>
SD003131

$$$$
