meglutol
  CDK     0628171801

 21 20  0  0  0  0  0  0  0  0999 V2000
   -2.7474    0.4215   -3.0049 C   0  0  0  0  0  0  0  0  0  0  0  0
   -1.5011   -0.4010   -2.5574 C   0  0  1  0  0  0  0  0  0  0  0  0
   -1.2661   -0.0469   -1.1902 O   0  0  0  0  0  0  0  0  0  0  0  0
   -1.7535   -1.9445   -2.6723 C   0  0  2  0  0  0  0  0  0  0  0  0
   -2.8412   -2.4732   -1.8237 C   0  0  0  0  0  0  0  0  0  0  0  0
   -2.6185   -2.7203   -0.5107 O   0  0  0  0  0  0  0  0  0  0  0  0
   -3.9661   -2.7398   -2.3065 O   0  0  0  0  0  0  0  0  0  0  0  0
   -0.2604    0.0295   -3.4162 C   0  0  1  0  0  0  0  0  0  0  0  0
    1.0227   -0.5768   -3.0044 C   0  0  0  0  0  0  0  0  0  0  0  0
    1.6792   -1.4396   -3.8155 O   0  0  0  0  0  0  0  0  0  0  0  0
    1.5352   -0.2940   -1.8990 O   0  0  0  0  0  0  0  0  0  0  0  0
   -3.6067    0.2001   -2.3693 H   0  0  0  0  0  0  0  0  0  0  0  0
   -3.0131    0.1974   -4.0397 H   0  0  0  0  0  0  0  0  0  0  0  0
   -2.5463    1.4924   -2.9295 H   0  0  0  0  0  0  0  0  0  0  0  0
   -0.4921   -0.5799   -0.9139 H   0  0  0  0  0  0  0  0  0  0  0  0
   -0.8489   -2.4858   -2.3877 H   0  0  0  0  0  0  0  0  0  0  0  0
   -1.9559   -2.2039   -3.7160 H   0  0  0  0  0  0  0  0  0  0  0  0
   -3.3183   -3.1208    0.0481 H   0  0  0  0  0  0  0  0  0  0  0  0
   -0.4461   -0.2309   -4.4618 H   0  0  0  0  0  0  0  0  0  0  0  0
   -0.1345    1.1161   -3.3723 H   0  0  0  0  0  0  0  0  0  0  0  0
    2.5339   -1.8272   -3.5339 H   0  0  0  0  0  0  0  0  0  0  0  0
  1  2  1  0  0  0  0 
  2  3  1  0  0  0  0 
  2  4  1  0  0  0  0 
  4  5  1  0  0  0  0 
  5  6  1  0  0  0  0 
  5  7  2  0  0  0  0 
  2  8  1  0  0  0  0 
  8  9  1  0  0  0  0 
  9 10  1  0  0  0  0 
  9 11  2  0  0  0  0 
  1 12  1  0  0  0  0 
  1 13  1  0  0  0  0 
  1 14  1  0  0  0  0 
  3 15  1  0  0  0  0 
  4 16  1  0  0  0  0 
  4 17  1  0  0  0  0 
  6 18  1  0  0  0  0 
  8 19  1  0  0  0  0 
  8 20  1  0  0  0  0 
 10 21  1  0  0  0  0 
M  END
> <cdk:Title>
meglutol

> <Conformer>
1

> <SuperDrugID>
SD001477

$$$$
