bamethan
  CDK     0628171801

 34 34  0  0  0  0  0  0  0  0999 V2000
    1.5099    1.1253    0.3069 C   0  0  1  0  0  0  0  0  0  0  0  0
    0.0869    1.1917    0.9185 C   0  0  2  0  0  0  0  0  0  0  0  0
    2.4757    0.9226    1.3374 O   0  0  0  0  0  0  0  0  0  0  0  0
    1.6151    0.0666   -0.7390 C   0  0  0  0  0  0  0  0  0  0  0  0
   -0.9225    1.4964   -0.1234 N   0  0  1  0  0  0  0  0  0  0  0  0
    1.9170   -1.2768   -0.4085 C   0  0  0  0  0  0  0  0  0  0  0  0
    1.3676    0.3858   -2.0954 C   0  0  0  0  0  0  0  0  0  0  0  0
   -2.3162    1.5481    0.3649 C   0  0  2  0  0  0  0  0  0  0  0  0
    1.9690   -2.2692   -1.4048 C   0  0  0  0  0  0  0  0  0  0  0  0
    1.4082   -0.6064   -3.0896 C   0  0  0  0  0  0  0  0  0  0  0  0
   -3.2836    1.8621   -0.8033 C   0  0  1  0  0  0  0  0  0  0  0  0
    1.7132   -1.9368   -2.7476 C   0  0  0  0  0  0  0  0  0  0  0  0
   -4.7648    1.9333   -0.3391 C   0  0  1  0  0  0  0  0  0  0  0  0
    1.7505   -2.8925   -3.7058 O   0  0  0  0  0  0  0  0  0  0  0  0
   -5.7582    2.2569   -1.4791 C   0  0  0  0  0  0  0  0  0  0  0  0
    1.7381    2.1021   -0.1271 H   0  0  0  0  0  0  0  0  0  0  0  0
    0.0680    1.9814    1.6746 H   0  0  0  0  0  0  0  0  0  0  0  0
   -0.1494    0.2408    1.4052 H   0  0  0  0  0  0  0  0  0  0  0  0
    2.3138    1.6459    1.9780 H   0  0  0  0  0  0  0  0  0  0  0  0
   -0.6981    2.4211   -0.4987 H   0  0  0  0  0  0  0  0  0  0  0  0
    2.1004   -1.5466    0.5601 H   0  0  0  0  0  0  0  0  0  0  0  0
    1.1447    1.3461   -2.3692 H   0  0  0  0  0  0  0  0  0  0  0  0
   -2.4048    2.3225    1.1309 H   0  0  0  0  0  0  0  0  0  0  0  0
   -2.5829    0.5827    0.8038 H   0  0  0  0  0  0  0  0  0  0  0  0
    2.1866   -3.2329   -1.1472 H   0  0  0  0  0  0  0  0  0  0  0  0
    1.2103   -0.3573   -4.0592 H   0  0  0  0  0  0  0  0  0  0  0  0
   -2.9982    2.8178   -1.2516 H   0  0  0  0  0  0  0  0  0  0  0  0
   -3.1800    1.0841   -1.5649 H   0  0  0  0  0  0  0  0  0  0  0  0
   -5.0504    0.9755    0.1047 H   0  0  0  0  0  0  0  0  0  0  0  0
   -4.8633    2.7036    0.4310 H   0  0  0  0  0  0  0  0  0  0  0  0
    2.6821   -2.8945   -4.0078 H   0  0  0  0  0  0  0  0  0  0  0  0
   -5.5279    3.2261   -1.9270 H   0  0  0  0  0  0  0  0  0  0  0  0
   -5.7188    1.4889   -2.2547 H   0  0  0  0  0  0  0  0  0  0  0  0
   -6.7734    2.2932   -1.0789 H   0  0  0  0  0  0  0  0  0  0  0  0
  1  2  1  0  0  0  0 
  1  3  1  0  0  0  0 
  1  4  1  0  0  0  0 
  2  5  1  0  0  0  0 
  4  6  2  0  0  0  0 
  4  7  1  0  0  0  0 
  5  8  1  0  0  0  0 
  6  9  1  0  0  0  0 
  7 10  2  0  0  0  0 
  8 11  1  0  0  0  0 
  9 12  2  0  0  0  0 
 10 12  1  0  0  0  0 
 11 13  1  0  0  0  0 
 12 14  1  0  0  0  0 
 13 15  1  0  0  0  0 
  1 16  1  0  0  0  0 
  2 17  1  0  0  0  0 
  2 18  1  0  0  0  0 
  3 19  1  0  0  0  0 
  5 20  1  0  0  0  0 
  6 21  1  0  0  0  0 
  7 22  1  0  0  0  0 
  8 23  1  0  0  0  0 
  8 24  1  0  0  0  0 
  9 25  1  0  0  0  0 
 10 26  1  0  0  0  0 
 11 27  1  0  0  0  0 
 11 28  1  0  0  0  0 
 13 29  1  0  0  0  0 
 13 30  1  0  0  0  0 
 14 31  1  0  0  0  0 
 15 32  1  0  0  0  0 
 15 33  1  0  0  0  0 
 15 34  1  0  0  0  0 
M  END
> <cdk:Title>
bamethan

> <Conformer>
1

> <SuperDrugID>
SD000239

$$$$
