dexlansoprazole
  CDK     0628171801

 39 41  0  0  0  0  0  0  0  0999 V2000
   -4.2699    1.6365   -5.1974 C   0  0  0  0  0  0  0  0  0  0  0  0
   -4.7442    2.7566   -4.3402 C   0  0  0  0  0  0  0  0  0  0  0  0
   -5.2624    3.9471   -4.9231 C   0  0  0  0  0  0  0  0  0  0  0  0
   -5.4052    4.0912   -6.2804 O   0  0  0  0  0  0  0  0  0  0  0  0
   -6.6939    3.6647   -6.7769 C   0  0  1  0  0  0  0  0  0  0  0  0
   -6.7089    3.7489   -8.3198 C   0  0  1  0  0  0  0  0  0  0  0  0
   -7.9127    3.3056   -8.8111 F   0  0  0  0  0  0  0  0  0  0  0  0
   -6.5275    5.0453   -8.7377 F   0  0  0  0  0  0  0  0  0  0  0  0
   -5.7136    2.9678   -8.8584 F   0  0  0  0  0  0  0  0  0  0  0  0
   -5.6251    5.0362   -4.1066 C   0  0  0  0  0  0  0  0  0  0  0  0
   -5.5037    4.9242   -2.7156 C   0  0  0  0  0  0  0  0  0  0  0  0
   -5.0602    3.7625   -2.1806 N   0  0  0  0  0  0  0  0  0  0  0  0
   -4.6943    2.6762   -2.9159 C   0  0  0  0  0  0  0  0  0  0  0  0
   -4.2684    1.4868   -2.1321 C   0  0  2  0  0  0  0  0  0  0  0  0
   -5.6439    0.8460   -1.0978 S   0  0  1  0  0  0  0  0  0  0  0  0
   -6.7342    0.3335   -2.1583 O   0  0  0  0  0  0  0  0  0  0  0  0
   -5.0336   -0.6070   -0.3058 C   0  0  0  0  0  0  0  0  0  0  0  0
   -4.6179   -1.7014   -0.9731 N   0  0  0  0  0  0  0  0  0  0  0  0
   -4.2372   -2.5808   -0.0346 C   0  0  0  0  0  0  0  0  0  0  0  0
   -4.4205   -2.0090    1.2214 C   0  0  0  0  0  0  0  0  0  0  0  0
   -4.9193   -0.7838    1.0245 N   0  0  0  0  0  0  0  0  0  0  0  0
   -4.0985   -2.7091    2.3972 C   0  0  0  0  0  0  0  0  0  0  0  0
   -3.5718   -4.0144    2.2745 C   0  0  0  0  0  0  0  0  0  0  0  0
   -3.3917   -4.5998    0.9992 C   0  0  0  0  0  0  0  0  0  0  0  0
   -3.7300   -3.8842   -0.1704 C   0  0  0  0  0  0  0  0  0  0  0  0
   -4.8966    0.7577   -5.0404 H   0  0  0  0  0  0  0  0  0  0  0  0
   -3.2374    1.3920   -4.9416 H   0  0  0  0  0  0  0  0  0  0  0  0
   -4.2891    1.8723   -6.2611 H   0  0  0  0  0  0  0  0  0  0  0  0
   -6.9051    2.6300   -6.4871 H   0  0  0  0  0  0  0  0  0  0  0  0
   -7.4872    4.3040   -6.3764 H   0  0  0  0  0  0  0  0  0  0  0  0
   -5.9793    5.9027   -4.5165 H   0  0  0  0  0  0  0  0  0  0  0  0
   -5.7535    5.7084   -2.1074 H   0  0  0  0  0  0  0  0  0  0  0  0
   -3.4381    1.7629   -1.4809 H   0  0  0  0  0  0  0  0  0  0  0  0
   -3.9300    0.6661   -2.7617 H   0  0  0  0  0  0  0  0  0  0  0  0
   -5.1553   -0.1436    1.7166 H   0  0  0  0  0  0  0  0  0  0  0  0
   -4.2429   -2.2862    3.3159 H   0  0  0  0  0  0  0  0  0  0  0  0
   -3.3201   -4.5407    3.1133 H   0  0  0  0  0  0  0  0  0  0  0  0
   -3.0122   -5.5454    0.9224 H   0  0  0  0  0  0  0  0  0  0  0  0
   -3.6107   -4.3018   -1.0948 H   0  0  0  0  0  0  0  0  0  0  0  0
  1  2  1  0  0  0  0 
  2  3  2  0  0  0  0 
  3  4  1  0  0  0  0 
  4  5  1  0  0  0  0 
  5  6  1  0  0  0  0 
  6  7  1  0  0  0  0 
  6  8  1  0  0  0  0 
  6  9  1  0  0  0  0 
  3 10  1  0  0  0  0 
 10 11  2  0  0  0  0 
 11 12  1  0  0  0  0 
 12 13  2  0  0  0  0 
  2 13  1  0  0  0  0 
 13 14  1  0  0  0  0 
 15 14  1  0  0  0  0 
 15 16  2  0  0  0  0 
 15 17  1  0  0  0  0 
 17 18  2  0  0  0  0 
 18 19  1  0  0  0  0 
 19 20  1  0  0  0  0 
 20 21  1  0  0  0  0 
 17 21  1  0  0  0  0 
 20 22  2  0  0  0  0 
 22 23  1  0  0  0  0 
 23 24  2  0  0  0  0 
 24 25  1  0  0  0  0 
 19 25  2  0  0  0  0 
 26  1  1  0  0  0  0 
 27  1  1  0  0  0  0 
 28  1  1  0  0  0  0 
 29  5  1  0  0  0  0 
 30  5  1  0  0  0  0 
 31 10  1  0  0  0  0 
 32 11  1  0  0  0  0 
 33 14  1  0  0  0  0 
 34 14  1  0  0  0  0 
 35 21  1  0  0  0  0 
 36 22  1  0  0  0  0 
 37 23  1  0  0  0  0 
 38 24  1  0  0  0  0 
 39 25  1  0  0  0  0 
M  END
> <cdk:Title>
dexlansoprazole

> <Conformer>
1

> <SuperDrugID>
SD003394

$$$$
