valnoctamide
  CDK     0628171801

 27 26  0  0  0  0  0  0  0  0999 V2000
    4.1779   -0.3216    2.5561 C   0  0  0  0  0  0  0  0  0  0  0  0
    4.2404    0.0871    1.0635 C   0  0  1  0  0  0  0  0  0  0  0  0
    3.0540    0.9815    0.5624 C   0  0  2  0  0  0  0  0  0  0  0  0
    1.6866    0.2334    0.6486 C   0  0  0  0  0  0  0  0  0  0  0  0
    3.2651    1.6110   -0.8718 C   0  0  1  0  0  0  0  0  0  0  0  0
    4.4901    2.5762   -1.0350 C   0  0  2  0  0  0  0  0  0  0  0  0
    4.5084    3.7941   -0.0804 C   0  0  0  0  0  0  0  0  0  0  0  0
    3.2812    0.5897   -1.9611 C   0  0  0  0  0  0  0  0  0  0  0  0
    4.3082   -0.2632   -2.1361 N   0  0  0  0  0  0  0  0  0  0  0  0
    2.3287    0.5064   -2.7707 O   0  0  0  0  0  0  0  0  0  0  0  0
    4.0689    0.5613    3.1867 H   0  0  0  0  0  0  0  0  0  0  0  0
    5.0949   -0.8432    2.8411 H   0  0  0  0  0  0  0  0  0  0  0  0
    3.3431   -0.9982    2.7364 H   0  0  0  0  0  0  0  0  0  0  0  0
    5.1831    0.6203    0.9223 H   0  0  0  0  0  0  0  0  0  0  0  0
    4.2867   -0.8299    0.4719 H   0  0  0  0  0  0  0  0  0  0  0  0
    2.9718    1.8144    1.2657 H   0  0  0  0  0  0  0  0  0  0  0  0
    0.8752    0.8722    0.2906 H   0  0  0  0  0  0  0  0  0  0  0  0
    1.4473   -0.0421    1.6776 H   0  0  0  0  0  0  0  0  0  0  0  0
    1.7048   -0.6753    0.0436 H   0  0  0  0  0  0  0  0  0  0  0  0
    2.3887    2.2451   -1.0517 H   0  0  0  0  0  0  0  0  0  0  0  0
    4.4814    2.9775   -2.0550 H   0  0  0  0  0  0  0  0  0  0  0  0
    5.4303    2.0305   -0.9164 H   0  0  0  0  0  0  0  0  0  0  0  0
    5.3536    4.4416   -0.3258 H   0  0  0  0  0  0  0  0  0  0  0  0
    4.6194    3.4742    0.9565 H   0  0  0  0  0  0  0  0  0  0  0  0
    3.5882    4.3732   -0.1841 H   0  0  0  0  0  0  0  0  0  0  0  0
    4.2891   -0.9075   -2.8620 H   0  0  0  0  0  0  0  0  0  0  0  0
    5.0695   -0.2379   -1.5358 H   0  0  0  0  0  0  0  0  0  0  0  0
  1  2  1  0  0  0  0 
  2  3  1  0  0  0  0 
  3  4  1  0  0  0  0 
  3  5  1  0  0  0  0 
  5  6  1  0  0  0  0 
  6  7  1  0  0  0  0 
  5  8  1  0  0  0  0 
  8  9  1  0  0  0  0 
  8 10  2  0  0  0  0 
  1 11  1  0  0  0  0 
  1 12  1  0  0  0  0 
  1 13  1  0  0  0  0 
  2 14  1  0  0  0  0 
  2 15  1  0  0  0  0 
  3 16  1  0  0  0  0 
  4 17  1  0  0  0  0 
  4 18  1  0  0  0  0 
  4 19  1  0  0  0  0 
  5 20  1  0  0  0  0 
  6 21  1  0  0  0  0 
  6 22  1  0  0  0  0 
  7 23  1  0  0  0  0 
  7 24  1  0  0  0  0 
  7 25  1  0  0  0  0 
  9 26  1  0  0  0  0 
  9 27  1  0  0  0  0 
M  END
> <cdk:Title>
valnoctamide

> <Conformer>
1

> <SuperDrugID>
SD002527

$$$$
