famotidine
  CDK     0628171801

 35 35  0  0  0  0  0  0  0  0999 V2000
    1.3005    2.4447   -9.8722 N   0  0  0  0  0  0  0  0  0  0  0  0
    0.2411    2.3428   -9.1677 C   0  0  0  0  0  0  0  0  0  0  0  0
   -0.5579    1.3254   -9.4233 N   0  0  0  0  0  0  0  0  0  0  0  0
    0.0101    3.2770   -8.2492 N   0  0  0  0  0  0  0  0  0  0  0  0
   -0.9860    3.2859   -7.3287 C   0  0  0  0  0  0  0  0  0  0  0  0
   -1.8294    2.2896   -6.9653 N   0  0  0  0  0  0  0  0  0  0  0  0
   -2.7626    2.5652   -6.0089 C   0  0  0  0  0  0  0  0  0  0  0  0
   -3.7213    1.5368   -5.5523 C   0  0  2  0  0  0  0  0  0  0  0  0
   -2.8329    0.1620   -4.7526 S   0  0  0  0  0  0  0  0  0  0  0  0
   -4.1401   -1.0591   -4.3918 C   0  0  1  0  0  0  0  0  0  0  0  0
   -3.5793   -2.2411   -3.5589 C   0  0  2  0  0  0  0  0  0  0  0  0
   -4.5673   -3.2731   -3.2766 C   0  0  0  0  0  0  0  0  0  0  0  0
   -5.0141   -4.0221   -4.2740 N   0  0  0  0  0  0  0  0  0  0  0  0
   -4.9664   -3.4421   -2.0658 N   0  0  0  0  0  0  0  0  0  0  0  0
   -6.0660   -4.5638   -1.4628 S   0  0  1  0  0  0  0  0  0  0  0  0
   -7.6648   -4.2402   -2.1126 N   0  0  1  0  0  0  0  0  0  0  0  0
   -5.6339   -6.0516   -1.8747 O   0  0  0  0  0  0  0  0  0  0  0  0
   -6.1312   -4.4517    0.1355 O   0  0  0  0  0  0  0  0  0  0  0  0
   -2.7392    3.8808   -5.5226 C   0  0  0  0  0  0  0  0  0  0  0  0
   -1.4240    4.6801   -6.3594 S   0  0  0  0  0  0  0  0  0  0  0  0
    1.8944    3.1527   -9.7350 H   0  0  0  0  0  0  0  0  0  0  0  0
   -1.3883    1.2213   -8.9356 H   0  0  0  0  0  0  0  0  0  0  0  0
   -0.3181    0.6801  -10.1078 H   0  0  0  0  0  0  0  0  0  0  0  0
    0.6117    4.0393   -8.2447 H   0  0  0  0  0  0  0  0  0  0  0  0
   -4.2773    1.1564   -6.4109 H   0  0  0  0  0  0  0  0  0  0  0  0
   -4.4382    1.9498   -4.8370 H   0  0  0  0  0  0  0  0  0  0  0  0
   -4.9372   -0.5597   -3.8360 H   0  0  0  0  0  0  0  0  0  0  0  0
   -4.5435   -1.4234   -5.3394 H   0  0  0  0  0  0  0  0  0  0  0  0
   -3.1729   -1.8384   -2.6252 H   0  0  0  0  0  0  0  0  0  0  0  0
   -2.7473   -2.7019   -4.0978 H   0  0  0  0  0  0  0  0  0  0  0  0
   -5.6708   -4.7174   -4.1124 H   0  0  0  0  0  0  0  0  0  0  0  0
   -4.6811   -3.8831   -5.1742 H   0  0  0  0  0  0  0  0  0  0  0  0
   -7.6161   -4.4305   -3.1158 H   0  0  0  0  0  0  0  0  0  0  0  0
   -8.2928   -4.9387   -1.7087 H   0  0  0  0  0  0  0  0  0  0  0  0
   -3.3548    4.2995   -4.8234 H   0  0  0  0  0  0  0  0  0  0  0  0
  1  2  2  0  0  0  0 
  2  3  1  0  0  0  0 
  2  4  1  0  0  0  0 
  4  5  1  0  0  0  0 
  5  6  2  0  0  0  0 
  6  7  1  0  0  0  0 
  7  8  1  0  0  0  0 
  8  9  1  0  0  0  0 
  9 10  1  0  0  0  0 
 10 11  1  0  0  0  0 
 11 12  1  0  0  0  0 
 12 13  1  0  0  0  0 
 12 14  2  0  0  0  0 
 14 15  1  0  0  0  0 
 15 16  1  0  0  0  0 
 15 17  2  0  0  0  0 
 15 18  2  0  0  0  0 
  7 19  2  0  0  0  0 
 19 20  1  0  0  0  0 
  5 20  1  0  0  0  0 
 21  1  1  0  0  0  0 
 22  3  1  0  0  0  0 
 23  3  1  0  0  0  0 
 24  4  1  0  0  0  0 
 25  8  1  0  0  0  0 
 26  8  1  0  0  0  0 
 27 10  1  0  0  0  0 
 28 10  1  0  0  0  0 
 29 11  1  0  0  0  0 
 30 11  1  0  0  0  0 
 31 13  1  0  0  0  0 
 32 13  1  0  0  0  0 
 33 16  1  0  0  0  0 
 34 16  1  0  0  0  0 
 35 19  1  0  0  0  0 
M  END
> <cdk:Title>
famotidine

> <Conformer>
1

> <SuperDrugID>
SD001008

$$$$
