morazone
  CDK     0628171801

 55 58  0  0  0  0  0  0  0  0999 V2000
   -1.9451  -10.6146   -3.7570 C   0  0  0  0  0  0  0  0  0  0  0  0
   -2.4492  -11.2879   -2.6303 C   0  0  0  0  0  0  0  0  0  0  0  0
   -3.1684  -10.5744   -1.6561 C   0  0  0  0  0  0  0  0  0  0  0  0
   -3.3697   -9.1891   -1.8000 C   0  0  0  0  0  0  0  0  0  0  0  0
   -2.8586   -8.4966   -2.9230 C   0  0  0  0  0  0  0  0  0  0  0  0
   -2.1565   -9.2307   -3.9084 C   0  0  0  0  0  0  0  0  0  0  0  0
   -3.0236   -7.1343   -3.0249 N   0  0  0  0  0  0  0  0  0  0  0  0
   -4.1436   -6.4547   -2.9208 N   0  0  0  0  0  0  0  0  0  0  0  0
   -3.8604   -5.1331   -2.7665 C   0  0  0  0  0  0  0  0  0  0  0  0
   -2.4792   -4.9786   -2.8981 C   0  0  0  0  0  0  0  0  0  0  0  0
   -1.9904   -6.2657   -3.0821 C   0  0  0  0  0  0  0  0  0  0  0  0
   -5.4816   -6.9815   -3.0381 C   0  0  0  0  0  0  0  0  0  0  0  0
   -4.8306   -4.0260   -2.5886 C   0  0  0  0  0  0  0  0  0  0  0  0
   -1.6807   -3.7236   -2.8731 C   0  0  1  0  0  0  0  0  0  0  0  0
   -1.5564   -3.0683   -1.5205 N   0  0  2  0  0  0  0  0  0  0  0  0
   -0.9950   -1.6575   -1.5431 C   0  0  2  0  0  0  0  0  0  0  0  0
   -0.8120   -1.1023   -0.0801 C   0  0  1  0  0  0  0  0  0  0  0  0
   -0.1561   -2.0424    0.7974 O   0  0  0  0  0  0  0  0  0  0  0  0
   -0.8001   -3.3207    0.8580 C   0  0  2  0  0  0  0  0  0  0  0  0
   -0.8241   -3.9492   -0.5497 C   0  0  1  0  0  0  0  0  0  0  0  0
   -0.0068    0.1560   -0.0049 C   0  0  0  0  0  0  0  0  0  0  0  0
    1.3839    0.1533   -0.2824 C   0  0  0  0  0  0  0  0  0  0  0  0
    2.1487    1.3292   -0.1560 C   0  0  0  0  0  0  0  0  0  0  0  0
    1.5314    2.5350    0.2224 C   0  0  0  0  0  0  0  0  0  0  0  0
    0.1478    2.5645    0.4696 C   0  0  0  0  0  0  0  0  0  0  0  0
   -0.6113    1.3836    0.3655 C   0  0  0  0  0  0  0  0  0  0  0  0
   -0.7766   -6.5542   -3.2044 O   0  0  0  0  0  0  0  0  0  0  0  0
   -1.9098   -0.6720   -2.3391 C   0  0  0  0  0  0  0  0  0  0  0  0
   -1.4237  -11.1339   -4.4660 H   0  0  0  0  0  0  0  0  0  0  0  0
   -2.2939  -12.2921   -2.5174 H   0  0  0  0  0  0  0  0  0  0  0  0
   -3.5437  -11.0608   -0.8386 H   0  0  0  0  0  0  0  0  0  0  0  0
   -3.8851   -8.6836   -1.0747 H   0  0  0  0  0  0  0  0  0  0  0  0
   -1.7945   -8.7607   -4.7412 H   0  0  0  0  0  0  0  0  0  0  0  0
   -6.0240   -6.8146   -2.1064 H   0  0  0  0  0  0  0  0  0  0  0  0
   -6.0141   -6.4854   -3.8528 H   0  0  0  0  0  0  0  0  0  0  0  0
   -5.4934   -8.0522   -3.2429 H   0  0  0  0  0  0  0  0  0  0  0  0
   -5.7018   -4.3596   -2.0268 H   0  0  0  0  0  0  0  0  0  0  0  0
   -4.3848   -3.1924   -2.0456 H   0  0  0  0  0  0  0  0  0  0  0  0
   -5.1583   -3.6717   -3.5659 H   0  0  0  0  0  0  0  0  0  0  0  0
   -0.6804   -3.9081   -3.2753 H   0  0  0  0  0  0  0  0  0  0  0  0
   -2.1815   -3.0681   -3.5819 H   0  0  0  0  0  0  0  0  0  0  0  0
   -0.0138   -1.6853   -2.0332 H   0  0  0  0  0  0  0  0  0  0  0  0
   -1.8127   -0.9194    0.3322 H   0  0  0  0  0  0  0  0  0  0  0  0
   -1.8145   -3.2250    1.2553 H   0  0  0  0  0  0  0  0  0  0  0  0
   -0.2283   -3.9530    1.5393 H   0  0  0  0  0  0  0  0  0  0  0  0
   -1.3072   -4.9237   -0.4645 H   0  0  0  0  0  0  0  0  0  0  0  0
    0.2059   -4.1095   -0.8812 H   0  0  0  0  0  0  0  0  0  0  0  0
    1.8550   -0.7096   -0.5671 H   0  0  0  0  0  0  0  0  0  0  0  0
    3.1553    1.3067   -0.3377 H   0  0  0  0  0  0  0  0  0  0  0  0
    2.0859    3.3894    0.3179 H   0  0  0  0  0  0  0  0  0  0  0  0
   -0.3066    3.4445    0.7282 H   0  0  0  0  0  0  0  0  0  0  0  0
   -1.6148    1.4318    0.5601 H   0  0  0  0  0  0  0  0  0  0  0  0
   -1.5728    0.3589   -2.2247 H   0  0  0  0  0  0  0  0  0  0  0  0
   -2.9392   -0.7426   -1.9798 H   0  0  0  0  0  0  0  0  0  0  0  0
   -1.8921   -0.8810   -3.4075 H   0  0  0  0  0  0  0  0  0  0  0  0
  1  2  2  0  0  0  0 
  2  3  1  0  0  0  0 
  3  4  2  0  0  0  0 
  4  5  1  0  0  0  0 
  5  6  2  0  0  0  0 
  1  6  1  0  0  0  0 
  5  7  1  0  0  0  0 
  8  9  1  0  0  0  0 
  9 10  2  0  0  0  0 
 10 11  1  0  0  0  0 
  7  8  1  0  0  0  0 
  7 11  1  0  0  0  0 
  8 12  1  0  0  0  0 
  9 13  1  0  0  0  0 
 10 14  1  0  0  0  0 
 14 15  1  0  0  0  0 
 16 17  1  0  0  0  0 
 17 18  1  0  0  0  0 
 18 19  1  0  0  0  0 
 19 20  1  0  0  0  0 
 15 16  1  0  0  0  0 
 15 20  1  0  0  0  0 
 17 21  1  0  0  0  0 
 22 23  1  0  0  0  0 
 23 24  2  0  0  0  0 
 24 25  1  0  0  0  0 
 25 26  2  0  0  0  0 
 21 22  2  0  0  0  0 
 21 26  1  0  0  0  0 
 11 27  2  0  0  0  0 
 16 28  1  0  0  0  0 
  1 29  1  0  0  0  0 
  2 30  1  0  0  0  0 
  3 31  1  0  0  0  0 
  4 32  1  0  0  0  0 
  6 33  1  0  0  0  0 
 12 34  1  0  0  0  0 
 12 35  1  0  0  0  0 
 12 36  1  0  0  0  0 
 13 37  1  0  0  0  0 
 13 38  1  0  0  0  0 
 13 39  1  0  0  0  0 
 14 40  1  0  0  0  0 
 14 41  1  0  0  0  0 
 16 42  1  0  0  0  0 
 17 43  1  0  0  0  0 
 19 44  1  0  0  0  0 
 19 45  1  0  0  0  0 
 20 46  1  0  0  0  0 
 20 47  1  0  0  0  0 
 22 48  1  0  0  0  0 
 23 49  1  0  0  0  0 
 24 50  1  0  0  0  0 
 25 51  1  0  0  0  0 
 26 52  1  0  0  0  0 
 28 53  1  0  0  0  0 
 28 54  1  0  0  0  0 
 28 55  1  0  0  0  0 
M  END
> <cdk:Title>
morazone

> <Conformer>
1

> <SuperDrugID>
SD001638

$$$$
