lutein
  CDK     0628171801

 98 99  0  0  0  0  0  0  0  0999 V2000
    0.3090   -0.0774   -2.0953 C   0  0  0  0  0  0  0  0  0  0  0  0
    1.6024   -0.0037   -2.4698 C   0  0  0  0  0  0  0  0  0  0  0  0
    2.1222   -0.3523   -3.6976 C   0  0  0  0  0  0  0  0  0  0  0  0
    1.4355   -0.0109   -4.8470 C   0  0  0  0  0  0  0  0  0  0  0  0
    1.9095   -0.3478   -6.0673 C   0  0  0  0  0  0  0  0  0  0  0  0
    1.2705   -1.2113   -6.8769 C   0  0  0  0  0  0  0  0  0  0  0  0
    1.7450   -1.6055   -8.0955 C   0  0  0  0  0  0  0  0  0  0  0  0
    2.9104   -2.2933   -8.1674 C   0  0  0  0  0  0  0  0  0  0  0  0
    3.4872   -2.7798   -9.3018 C   0  0  0  0  0  0  0  0  0  0  0  0
    4.8190   -2.7683   -9.4967 C   0  0  0  0  0  0  0  0  0  0  0  0
    5.4224   -3.3406  -10.5760 C   0  0  0  0  0  0  0  0  0  0  0  0
    6.5479   -4.0922  -10.5175 C   0  0  0  0  0  0  0  0  0  0  0  0
    7.0510   -4.6470  -11.6597 C   0  0  0  0  0  0  0  0  0  0  0  0
    8.2978   -4.3999  -12.0995 C   0  0  0  0  0  0  0  0  0  0  0  0
    8.8500   -5.0538  -13.1482 C   0  0  0  0  0  0  0  0  0  0  0  0
    9.9529   -5.8315  -13.0432 C   0  0  0  0  0  0  0  0  0  0  0  0
   10.4540   -6.4449  -14.1488 C   0  0  0  0  0  0  0  0  0  0  0  0
   11.2540   -5.7996  -15.0151 C   0  0  0  0  0  0  0  0  0  0  0  0
   11.8636   -6.3869  -16.0939 C   0  0  0  0  0  0  0  0  0  0  0  0
   11.1436   -6.3534  -17.4131 C   0  0  2  0  0  0  0  0  0  0  0  0
   10.8413   -4.8657  -17.8237 C   0  0  0  0  0  0  0  0  0  0  0  0
    9.7783   -7.1228  -17.3135 C   0  0  0  0  0  0  0  0  0  0  0  0
   11.9534   -7.0387  -18.5850 C   0  0  1  0  0  0  0  0  0  0  0  0
   13.4712   -6.8257  -18.4379 C   0  0  1  0  0  0  0  0  0  0  0  0
   13.9035   -7.4056  -17.0704 C   0  0  2  0  0  0  0  0  0  0  0  0
   13.1133   -6.9172  -15.9298 C   0  0  0  0  0  0  0  0  0  0  0  0
   13.7660   -7.0236  -14.6112 C   0  0  0  0  0  0  0  0  0  0  0  0
   14.1839   -7.4545  -19.5030 O   0  0  0  0  0  0  0  0  0  0  0  0
   10.6554   -6.0560  -11.7765 C   0  0  0  0  0  0  0  0  0  0  0  0
    7.2387   -4.3678   -9.2498 C   0  0  0  0  0  0  0  0  0  0  0  0
    0.9513   -1.2669   -9.2773 C   0  0  0  0  0  0  0  0  0  0  0  0
    3.4540   -1.0933   -3.6088 C   0  0  0  0  0  0  0  0  0  0  0  0
   -0.1779    0.2233   -0.7329 C   0  0  2  0  0  0  0  0  0  0  0  0
   -1.1413   -0.9189   -0.1832 C   0  0  1  0  0  0  0  0  0  0  0  0
   -2.3644   -1.2062   -1.1292 C   0  0  0  0  0  0  0  0  0  0  0  0
   -0.3670   -2.2681    0.0182 C   0  0  0  0  0  0  0  0  0  0  0  0
   -1.6611   -0.4470    1.2197 C   0  0  2  0  0  0  0  0  0  0  0  0
   -2.3805    0.9244    1.1394 C   0  0  2  0  0  0  0  0  0  0  0  0
   -1.7086    1.8895    0.2826 C   0  0  0  0  0  0  0  0  0  0  0  0
   -0.6991    1.6085   -0.5752 C   0  0  0  0  0  0  0  0  0  0  0  0
   -0.0490    2.7171   -1.2884 C   0  0  0  0  0  0  0  0  0  0  0  0
   -2.5264    1.4583    2.4558 O   0  0  0  0  0  0  0  0  0  0  0  0
   -0.3593   -0.3546   -2.7742 H   0  0  0  0  0  0  0  0  0  0  0  0
    2.2495    0.3108   -1.7811 H   0  0  0  0  0  0  0  0  0  0  0  0
    0.5731    0.4844   -4.8123 H   0  0  0  0  0  0  0  0  0  0  0  0
    2.7769    0.0486   -6.3556 H   0  0  0  0  0  0  0  0  0  0  0  0
    0.4014   -1.6001   -6.5866 H   0  0  0  0  0  0  0  0  0  0  0  0
    3.4030   -2.4805   -7.3187 H   0  0  0  0  0  0  0  0  0  0  0  0
    2.8970   -3.1803   -9.9963 H   0  0  0  0  0  0  0  0  0  0  0  0
    5.3994   -2.3397   -8.8090 H   0  0  0  0  0  0  0  0  0  0  0  0
    4.9854   -3.1920  -11.4606 H   0  0  0  0  0  0  0  0  0  0  0  0
    6.4703   -5.2884  -12.1561 H   0  0  0  0  0  0  0  0  0  0  0  0
    8.8715   -3.7442  -11.6163 H   0  0  0  0  0  0  0  0  0  0  0  0
    8.4000   -4.9449  -14.0317 H   0  0  0  0  0  0  0  0  0  0  0  0
   10.2415   -7.4088  -14.2839 H   0  0  0  0  0  0  0  0  0  0  0  0
   11.4616   -4.8369  -14.8588 H   0  0  0  0  0  0  0  0  0  0  0  0
   11.7582   -4.2729  -17.8456 H   0  0  0  0  0  0  0  0  0  0  0  0
   10.1499   -4.3902  -17.1237 H   0  0  0  0  0  0  0  0  0  0  0  0
   10.3800   -4.8124  -18.8127 H   0  0  0  0  0  0  0  0  0  0  0  0
    9.3027   -7.1944  -18.2938 H   0  0  0  0  0  0  0  0  0  0  0  0
    9.9333   -8.1377  -16.9386 H   0  0  0  0  0  0  0  0  0  0  0  0
    9.0761   -6.6211  -16.6461 H   0  0  0  0  0  0  0  0  0  0  0  0
   11.7805   -8.1196  -18.5985 H   0  0  0  0  0  0  0  0  0  0  0  0
   11.6360   -6.6673  -19.5630 H   0  0  0  0  0  0  0  0  0  0  0  0
   13.6981   -5.7572  -18.4761 H   0  0  0  0  0  0  0  0  0  0  0  0
   14.9602   -7.1467  -16.9440 H   0  0  0  0  0  0  0  0  0  0  0  0
   13.8349   -8.4980  -17.0968 H   0  0  0  0  0  0  0  0  0  0  0  0
   13.1039   -7.5164  -13.8957 H   0  0  0  0  0  0  0  0  0  0  0  0
   14.6885   -7.6110  -14.6350 H   0  0  0  0  0  0  0  0  0  0  0  0
   14.0103   -6.0256  -14.2407 H   0  0  0  0  0  0  0  0  0  0  0  0
   13.9875   -8.4117  -19.4213 H   0  0  0  0  0  0  0  0  0  0  0  0
   11.0478   -5.1113  -11.3971 H   0  0  0  0  0  0  0  0  0  0  0  0
   11.4984   -6.7448  -11.8754 H   0  0  0  0  0  0  0  0  0  0  0  0
    9.9736   -6.4763  -11.0349 H   0  0  0  0  0  0  0  0  0  0  0  0
    7.6174   -3.4330   -8.8315 H   0  0  0  0  0  0  0  0  0  0  0  0
    8.0886   -5.0469   -9.3618 H   0  0  0  0  0  0  0  0  0  0  0  0
    6.5498   -4.8269   -8.5365 H   0  0  0  0  0  0  0  0  0  0  0  0
    1.5564   -0.6718   -9.9640 H   0  0  0  0  0  0  0  0  0  0  0  0
    0.0577   -0.6836   -9.0356 H   0  0  0  0  0  0  0  0  0  0  0  0
    0.6221   -2.1745   -9.7879 H   0  0  0  0  0  0  0  0  0  0  0  0
    3.3620   -2.0643   -4.0994 H   0  0  0  0  0  0  0  0  0  0  0  0
    3.8076   -1.2683   -2.5886 H   0  0  0  0  0  0  0  0  0  0  0  0
    4.2128   -0.5100   -4.1337 H   0  0  0  0  0  0  0  0  0  0  0  0
    0.6925    0.2188   -0.0648 H   0  0  0  0  0  0  0  0  0  0  0  0
   -2.0590   -1.7568   -2.0212 H   0  0  0  0  0  0  0  0  0  0  0  0
   -3.1180   -1.8113   -0.6204 H   0  0  0  0  0  0  0  0  0  0  0  0
   -2.8377   -0.2795   -1.4585 H   0  0  0  0  0  0  0  0  0  0  0  0
    0.0207   -2.6462   -0.9305 H   0  0  0  0  0  0  0  0  0  0  0  0
   -1.0245   -3.0331    0.4396 H   0  0  0  0  0  0  0  0  0  0  0  0
    0.4776   -2.1382    0.6985 H   0  0  0  0  0  0  0  0  0  0  0  0
   -0.8139   -0.3550    1.9089 H   0  0  0  0  0  0  0  0  0  0  0  0
   -2.3477   -1.1826    1.6497 H   0  0  0  0  0  0  0  0  0  0  0  0
   -3.3914    0.7777    0.7521 H   0  0  0  0  0  0  0  0  0  0  0  0
   -2.0356    2.8257    0.3577 H   0  0  0  0  0  0  0  0  0  0  0  0
   -0.2239    2.6275   -2.3618 H   0  0  0  0  0  0  0  0  0  0  0  0
    1.0266    2.6882   -1.1025 H   0  0  0  0  0  0  0  0  0  0  0  0
   -0.3988    3.7061   -0.9798 H   0  0  0  0  0  0  0  0  0  0  0  0
   -1.6142    1.5822    2.7929 H   0  0  0  0  0  0  0  0  0  0  0  0
  1  2  2  0  0  0  0 
  2  3  1  0  0  0  0 
  3  4  2  0  0  0  0 
  3 32  1  0  0  0  0 
  4  5  1  0  0  0  0 
  5  6  2  0  0  0  0 
  6  7  1  0  0  0  0 
  7  8  2  0  0  0  0 
  7 31  1  0  0  0  0 
  8  9  1  0  0  0  0 
  9 10  2  0  0  0  0 
 10 11  1  0  0  0  0 
 11 12  2  0  0  0  0 
 12 13  1  0  0  0  0 
 12 30  1  0  0  0  0 
 13 14  2  0  0  0  0 
 14 15  1  0  0  0  0 
 15 16  2  0  0  0  0 
 16 17  1  0  0  0  0 
 16 29  1  0  0  0  0 
 17 18  2  0  0  0  0 
 18 19  1  0  0  0  0 
 19 20  1  0  0  0  0 
 19 26  2  0  0  0  0 
 20 21  1  0  0  0  0 
 20 22  1  0  0  0  0 
 20 23  1  0  0  0  0 
 24 23  1  0  0  0  0 
 24 28  1  0  0  0  0 
 24 25  1  0  0  0  0 
 26 25  1  0  0  0  0 
 26 27  1  0  0  0  0 
 33  1  1  0  0  0  0 
 33 34  1  0  0  0  0 
 33 40  1  0  0  0  0 
 34 35  1  0  0  0  0 
 34 36  1  0  0  0  0 
 34 37  1  0  0  0  0 
 38 37  1  0  0  0  0 
 38 42  1  0  0  0  0 
 38 39  1  0  0  0  0 
 40 39  2  0  0  0  0 
 40 41  1  0  0  0  0 
  1 43  1  0  0  0  0 
  2 44  1  0  0  0  0 
  4 45  1  0  0  0  0 
  5 46  1  0  0  0  0 
  6 47  1  0  0  0  0 
  8 48  1  0  0  0  0 
  9 49  1  0  0  0  0 
 10 50  1  0  0  0  0 
 11 51  1  0  0  0  0 
 13 52  1  0  0  0  0 
 14 53  1  0  0  0  0 
 15 54  1  0  0  0  0 
 17 55  1  0  0  0  0 
 18 56  1  0  0  0  0 
 21 57  1  0  0  0  0 
 21 58  1  0  0  0  0 
 21 59  1  0  0  0  0 
 22 60  1  0  0  0  0 
 22 61  1  0  0  0  0 
 22 62  1  0  0  0  0 
 23 63  1  0  0  0  0 
 23 64  1  0  0  0  0 
 24 65  1  0  0  0  0 
 25 66  1  0  0  0  0 
 25 67  1  0  0  0  0 
 27 68  1  0  0  0  0 
 27 69  1  0  0  0  0 
 27 70  1  0  0  0  0 
 28 71  1  0  0  0  0 
 29 72  1  0  0  0  0 
 29 73  1  0  0  0  0 
 29 74  1  0  0  0  0 
 30 75  1  0  0  0  0 
 30 76  1  0  0  0  0 
 30 77  1  0  0  0  0 
 31 78  1  0  0  0  0 
 31 79  1  0  0  0  0 
 31 80  1  0  0  0  0 
 32 81  1  0  0  0  0 
 32 82  1  0  0  0  0 
 32 83  1  0  0  0  0 
 33 84  1  0  0  0  0 
 35 85  1  0  0  0  0 
 35 86  1  0  0  0  0 
 35 87  1  0  0  0  0 
 36 88  1  0  0  0  0 
 36 89  1  0  0  0  0 
 36 90  1  0  0  0  0 
 37 91  1  0  0  0  0 
 37 92  1  0  0  0  0 
 38 93  1  0  0  0  0 
 39 94  1  0  0  0  0 
 41 95  1  0  0  0  0 
 41 96  1  0  0  0  0 
 41 97  1  0  0  0  0 
 42 98  1  0  0  0  0 
M  END
> <cdk:Title>
lutein

> <Conformer>
1

> <SuperDrugID>
SD003381

$$$$
