progabide
  CDK     0628171801

 39 40  0  0  0  0  0  0  0  0999 V2000
    1.9127    1.5313    2.2316 C   0  0  0  0  0  0  0  0  0  0  0  0
    2.7094    1.3841    1.2276 N   0  0  0  0  0  0  0  0  0  0  0  0
    0.6370    0.9731    2.1088 C   0  0  0  0  0  0  0  0  0  0  0  0
    2.2788    2.1928    3.4045 C   0  0  0  0  0  0  0  0  0  0  0  0
    4.0243    1.7965    0.9995 C   0  0  1  0  0  0  0  0  0  0  0  0
   -0.1720    1.1948    0.9611 C   0  0  0  0  0  0  0  0  0  0  0  0
    0.1301    0.1358    3.1357 C   0  0  0  0  0  0  0  0  0  0  0  0
    1.6366    3.3947    3.7850 C   0  0  0  0  0  0  0  0  0  0  0  0
    3.2724    1.6526    4.2549 C   0  0  0  0  0  0  0  0  0  0  0  0
    4.4315    1.4153   -0.4475 C   0  0  2  0  0  0  0  0  0  0  0  0
    0.2537    1.9850   -0.0599 O   0  0  0  0  0  0  0  0  0  0  0  0
   -1.4441    0.5981    0.8573 C   0  0  0  0  0  0  0  0  0  0  0  0
   -1.1331   -0.4727    3.0197 C   0  0  0  0  0  0  0  0  0  0  0  0
    1.9638    4.0277    4.9989 C   0  0  0  0  0  0  0  0  0  0  0  0
    3.6087    2.2932    5.4622 C   0  0  0  0  0  0  0  0  0  0  0  0
    5.9255    1.6784   -0.7786 C   0  0  1  0  0  0  0  0  0  0  0  0
   -1.9219   -0.2368    1.8804 C   0  0  0  0  0  0  0  0  0  0  0  0
   -1.5639   -1.2661    3.9631 F   0  0  0  0  0  0  0  0  0  0  0  0
    2.9438    3.4745    5.8436 C   0  0  0  0  0  0  0  0  0  0  0  0
    6.2240    1.4072   -2.2035 C   0  0  0  0  0  0  0  0  0  0  0  0
    3.3134    4.2354    7.3106 Cl  0  0  0  0  0  0  0  0  0  0  0  0
    6.0854    0.1749   -2.7297 N   0  0  0  0  0  0  0  0  0  0  0  0
    6.6181    2.3241   -2.9589 O   0  0  0  0  0  0  0  0  0  0  0  0
    4.0940    2.8800    1.1242 H   0  0  0  0  0  0  0  0  0  0  0  0
    4.6967    1.3090    1.7090 H   0  0  0  0  0  0  0  0  0  0  0  0
    0.6875   -0.0517    3.9742 H   0  0  0  0  0  0  0  0  0  0  0  0
    0.9274    3.8204    3.1825 H   0  0  0  0  0  0  0  0  0  0  0  0
    3.7513    0.7833    4.0072 H   0  0  0  0  0  0  0  0  0  0  0  0
    3.8052    1.9824   -1.1446 H   0  0  0  0  0  0  0  0  0  0  0  0
    4.2287    0.3495   -0.5942 H   0  0  0  0  0  0  0  0  0  0  0  0
   -0.1921    1.6435   -0.8647 H   0  0  0  0  0  0  0  0  0  0  0  0
   -2.0245    0.7665    0.0317 H   0  0  0  0  0  0  0  0  0  0  0  0
    1.4844    4.8914    5.2635 H   0  0  0  0  0  0  0  0  0  0  0  0
    4.3361    1.8907    6.0582 H   0  0  0  0  0  0  0  0  0  0  0  0
    6.1721    2.7186   -0.5396 H   0  0  0  0  0  0  0  0  0  0  0  0
    6.5582    1.0312   -0.1631 H   0  0  0  0  0  0  0  0  0  0  0  0
   -2.8400   -0.6757    1.7873 H   0  0  0  0  0  0  0  0  0  0  0  0
    5.7827   -0.5616   -2.1741 H   0  0  0  0  0  0  0  0  0  0  0  0
    6.2835    0.0251   -3.6685 H   0  0  0  0  0  0  0  0  0  0  0  0
  1  2  2  0  0  0  0 
  1  3  1  0  0  0  0 
  1  4  1  0  0  0  0 
  2  5  1  0  0  0  0 
  3  6  2  0  0  0  0 
  3  7  1  0  0  0  0 
  4  8  2  0  0  0  0 
  4  9  1  0  0  0  0 
  5 10  1  0  0  0  0 
  6 11  1  0  0  0  0 
  6 12  1  0  0  0  0 
  7 13  2  0  0  0  0 
  8 14  1  0  0  0  0 
  9 15  2  0  0  0  0 
 10 16  1  0  0  0  0 
 12 17  2  0  0  0  0 
 13 17  1  0  0  0  0 
 13 18  1  0  0  0  0 
 14 19  2  0  0  0  0 
 15 19  1  0  0  0  0 
 16 20  1  0  0  0  0 
 19 21  1  0  0  0  0 
 20 22  1  0  0  0  0 
 20 23  2  0  0  0  0 
  5 24  1  0  0  0  0 
  5 25  1  0  0  0  0 
  7 26  1  0  0  0  0 
  8 27  1  0  0  0  0 
  9 28  1  0  0  0  0 
 10 29  1  0  0  0  0 
 10 30  1  0  0  0  0 
 11 31  1  0  0  0  0 
 12 32  1  0  0  0  0 
 14 33  1  0  0  0  0 
 15 34  1  0  0  0  0 
 16 35  1  0  0  0  0 
 16 36  1  0  0  0  0 
 17 37  1  0  0  0  0 
 22 38  1  0  0  0  0 
 22 39  1  0  0  0  0 
M  END
> <cdk:Title>
progabide

> <Conformer>
1

> <SuperDrugID>
SD002044

$$$$
