pefloxacin
  CDK     0628171801

 44 46  0  0  0  0  0  0  0  0999 V2000
    3.8834   -0.2809    4.4523 C   0  0  1  0  0  0  0  0  0  0  0  0
    3.3372    1.1281    4.7817 C   0  0  0  0  0  0  0  0  0  0  0  0
    4.4485   -0.3542    3.1062 N   0  0  0  0  0  0  0  0  0  0  0  0
    3.6690   -0.4150    1.9620 C   0  0  0  0  0  0  0  0  0  0  0  0
    5.8194   -0.3477    3.0054 C   0  0  0  0  0  0  0  0  0  0  0  0
    4.2995   -0.4113    0.6808 C   0  0  0  0  0  0  0  0  0  0  0  0
    2.2476   -0.4954    1.9890 C   0  0  0  0  0  0  0  0  0  0  0  0
    6.5098   -0.3745    1.7739 C   0  0  0  0  0  0  0  0  0  0  0  0
    5.7151   -0.3910    0.6030 C   0  0  0  0  0  0  0  0  0  0  0  0
    3.5074   -0.4273   -0.4922 C   0  0  0  0  0  0  0  0  0  0  0  0
    1.4536   -0.5330    0.8217 C   0  0  0  0  0  0  0  0  0  0  0  0
    7.9403   -0.3810    1.7577 C   0  0  0  0  0  0  0  0  0  0  0  0
    6.2668   -0.3864   -0.5255 O   0  0  0  0  0  0  0  0  0  0  0  0
    2.1077   -0.4846   -0.4269 C   0  0  0  0  0  0  0  0  0  0  0  0
    0.0767   -0.6224    0.9047 N   0  0  0  0  0  0  0  0  0  0  0  0
    8.6764   -0.2970    2.8938 O   0  0  0  0  0  0  0  0  0  0  0  0
    8.6030   -0.4709    0.6990 O   0  0  0  0  0  0  0  0  0  0  0  0
    1.4392   -0.4869   -1.5504 F   0  0  0  0  0  0  0  0  0  0  0  0
   -0.7082    0.3326    1.6640 C   0  0  2  0  0  0  0  0  0  0  0  0
   -0.6403   -1.6787    0.2206 C   0  0  1  0  0  0  0  0  0  0  0  0
   -1.7358   -0.3741    2.5881 C   0  0  2  0  0  0  0  0  0  0  0  0
   -1.6059   -2.4032    1.1863 C   0  0  2  0  0  0  0  0  0  0  0  0
   -2.5103   -1.4042    1.8287 N   0  0  1  0  0  0  0  0  0  0  0  0
   -3.6041   -2.0323    2.6191 C   0  0  0  0  0  0  0  0  0  0  0  0
    4.6201   -0.5195    5.2278 H   0  0  0  0  0  0  0  0  0  0  0  0
    3.1005   -1.0285    4.5896 H   0  0  0  0  0  0  0  0  0  0  0  0
    3.0069    1.1649    5.8212 H   0  0  0  0  0  0  0  0  0  0  0  0
    4.1201    1.8753    4.6382 H   0  0  0  0  0  0  0  0  0  0  0  0
    2.4887    1.3837    4.1459 H   0  0  0  0  0  0  0  0  0  0  0  0
    6.3789   -0.3174    3.8637 H   0  0  0  0  0  0  0  0  0  0  0  0
    1.7485   -0.5442    2.8748 H   0  0  0  0  0  0  0  0  0  0  0  0
    3.9473   -0.3977   -1.4149 H   0  0  0  0  0  0  0  0  0  0  0  0
    9.6565   -0.3083    2.8520 H   0  0  0  0  0  0  0  0  0  0  0  0
   -1.2496    0.9656    0.9531 H   0  0  0  0  0  0  0  0  0  0  0  0
   -0.0901    0.9974    2.2772 H   0  0  0  0  0  0  0  0  0  0  0  0
   -1.2189   -1.2353   -0.5953 H   0  0  0  0  0  0  0  0  0  0  0  0
    0.0307   -2.4264   -0.2132 H   0  0  0  0  0  0  0  0  0  0  0  0
   -2.4155    0.3827    2.9896 H   0  0  0  0  0  0  0  0  0  0  0  0
   -1.2100   -0.8370    3.4281 H   0  0  0  0  0  0  0  0  0  0  0  0
   -1.0307   -2.9457    1.9436 H   0  0  0  0  0  0  0  0  0  0  0  0
   -2.1840   -3.1314    0.6133 H   0  0  0  0  0  0  0  0  0  0  0  0
   -4.2576   -1.2661    3.0367 H   0  0  0  0  0  0  0  0  0  0  0  0
   -3.2087   -2.6386    3.4359 H   0  0  0  0  0  0  0  0  0  0  0  0
   -4.2160   -2.6673    1.9752 H   0  0  0  0  0  0  0  0  0  0  0  0
  1  2  1  0  0  0  0 
  1  3  1  0  0  0  0 
  3  4  1  0  0  0  0 
  3  5  1  0  0  0  0 
  4  6  1  0  0  0  0 
  4  7  2  0  0  0  0 
  5  8  2  0  0  0  0 
  6  9  1  0  0  0  0 
  6 10  2  0  0  0  0 
  7 11  1  0  0  0  0 
  8  9  1  0  0  0  0 
  8 12  1  0  0  0  0 
  9 13  2  0  0  0  0 
 10 14  1  0  0  0  0 
 11 14  2  0  0  0  0 
 11 15  1  0  0  0  0 
 12 16  1  0  0  0  0 
 12 17  2  0  0  0  0 
 14 18  1  0  0  0  0 
 15 19  1  0  0  0  0 
 15 20  1  0  0  0  0 
 19 21  1  0  0  0  0 
 20 22  1  0  0  0  0 
 21 23  1  0  0  0  0 
 22 23  1  0  0  0  0 
 23 24  1  0  0  0  0 
  1 25  1  0  0  0  0 
  1 26  1  0  0  0  0 
  2 27  1  0  0  0  0 
  2 28  1  0  0  0  0 
  2 29  1  0  0  0  0 
  5 30  1  0  0  0  0 
  7 31  1  0  0  0  0 
 10 32  1  0  0  0  0 
 16 33  1  0  0  0  0 
 19 34  1  0  0  0  0 
 19 35  1  0  0  0  0 
 20 36  1  0  0  0  0 
 20 37  1  0  0  0  0 
 21 38  1  0  0  0  0 
 21 39  1  0  0  0  0 
 22 40  1  0  0  0  0 
 22 41  1  0  0  0  0 
 24 42  1  0  0  0  0 
 24 43  1  0  0  0  0 
 24 44  1  0  0  0  0 
M  END
> <cdk:Title>
pefloxacin

> <Conformer>
1

> <SuperDrugID>
SD001857

$$$$
