rifamycin
  CDK     0628171802

 97100  0  0  0  0  0  0  0  0999 V2000
  -36.6992   11.5206    6.5841 C   0  0  0  0  0  0  0  0  0  0  0  0
  -37.7255   10.7405    5.9731 C   0  0  0  0  0  0  0  0  0  0  0  0
  -38.8475   11.3443    5.3541 C   0  0  0  0  0  0  0  0  0  0  0  0
  -38.9198   12.7493    5.3369 C   0  0  0  0  0  0  0  0  0  0  0  0
  -37.9731   13.5302    5.9933 C   0  0  0  0  0  0  0  0  0  0  0  0
  -36.8150   12.9529    6.5773 C   0  0  0  0  0  0  0  0  0  0  0  0
  -35.7533   13.7304    7.1045 C   0  0  0  0  0  0  0  0  0  0  0  0
  -34.6376   13.1094    7.6762 C   0  0  0  0  0  0  0  0  0  0  0  0
  -34.5190   11.7103    7.7155 C   0  0  0  0  0  0  0  0  0  0  0  0
  -35.5555   10.9137    7.1836 C   0  0  0  0  0  0  0  0  0  0  0  0
  -39.8740   13.4703    4.6778 O   0  0  0  0  0  0  0  0  0  0  0  0
  -39.5254   14.8549    4.8743 C   0  0  1  0  0  0  0  0  0  0  0  0
  -38.4400   14.8362    5.8672 C   0  0  0  0  0  0  0  0  0  0  0  0
  -38.0534   15.8685    6.4597 O   0  0  0  0  0  0  0  0  0  0  0  0
  -33.3595   11.1537    8.1717 N   0  0  0  0  0  0  0  0  0  0  0  0
  -35.4224    9.5574    7.2597 O   0  0  0  0  0  0  0  0  0  0  0  0
  -37.6566    9.3837    5.9275 O   0  0  0  0  0  0  0  0  0  0  0  0
  -32.6223   11.5349    9.3161 C   0  0  0  0  0  0  0  0  0  0  0  0
  -31.1912   11.1812    9.5038 C   0  0  0  0  0  0  0  0  0  0  0  0
  -33.3182   12.2029   10.1662 O   0  0  0  0  0  0  0  0  0  0  0  0
  -30.1197   11.9401    9.0564 C   0  0  0  0  0  0  0  0  0  0  0  0
  -30.8741    9.8434   10.2623 C   0  0  0  0  0  0  0  0  0  0  0  0
  -30.2184   13.1321    8.3833 C   0  0  0  0  0  0  0  0  0  0  0  0
  -31.0262   14.1697    8.6844 C   0  0  0  0  0  0  0  0  0  0  0  0
  -30.9801   15.4990    8.0404 C   0  0  2  0  0  0  0  0  0  0  0  0
  -31.7203   16.5495    8.9322 C   0  0  0  0  0  0  0  0  0  0  0  0
  -31.4750   15.5544    6.5417 C   0  0  1  0  0  0  0  0  0  0  0  0
  -31.3554   16.9561    5.8154 C   0  0  2  0  0  0  0  0  0  0  0  0
  -30.7711   14.5619    5.7955 O   0  0  0  0  0  0  0  0  0  0  0  0
  -31.8060   16.9935    4.3012 C   0  0  2  0  0  0  0  0  0  0  0  0
  -29.9280   17.5776    5.9461 C   0  0  0  0  0  0  0  0  0  0  0  0
  -33.3402   16.7999    3.9526 C   0  0  2  0  0  0  0  0  0  0  0  0
  -30.9926   16.0855    3.5503 O   0  0  0  0  0  0  0  0  0  0  0  0
  -33.5407   16.7185    2.3832 C   0  0  2  0  0  0  0  0  0  0  0  0
  -34.2058   17.9274    4.5933 C   0  0  0  0  0  0  0  0  0  0  0  0
  -33.0864   17.9753    1.8328 O   0  0  0  0  0  0  0  0  0  0  0  0
  -34.9155   16.3159    1.7061 C   0  0  1  0  0  0  0  0  0  0  0  0
  -35.7028   15.0665    2.2820 C   0  0  2  0  0  0  0  0  0  0  0  0
  -35.8377   17.5233    1.3315 C   0  0  0  0  0  0  0  0  0  0  0  0
  -36.8393   15.4346    3.1254 C   0  0  0  0  0  0  0  0  0  0  0  0
  -34.8865   14.1710    3.0712 O   0  0  0  0  0  0  0  0  0  0  0  0
  -34.1071   13.1945    2.3547 C   0  0  0  0  0  0  0  0  0  0  0  0
  -38.1025   15.0120    2.9449 C   0  0  0  0  0  0  0  0  0  0  0  0
  -39.1232   15.5278    3.6556 O   0  0  0  0  0  0  0  0  0  0  0  0
  -32.0272   18.2232    1.0081 C   0  0  0  0  0  0  0  0  0  0  0  0
  -31.7208   19.6196    0.6698 C   0  0  0  0  0  0  0  0  0  0  0  0
  -31.3230   17.2950    0.5481 O   0  0  0  0  0  0  0  0  0  0  0  0
  -40.7918   15.5800    5.3931 C   0  0  0  0  0  0  0  0  0  0  0  0
  -35.7077   15.0842    7.0484 O   0  0  0  0  0  0  0  0  0  0  0  0
  -39.9123   10.5192    4.7282 C   0  0  0  0  0  0  0  0  0  0  0  0
  -33.8851   13.6929    8.0451 H   0  0  0  0  0  0  0  0  0  0  0  0
  -32.9711   10.4566    7.6213 H   0  0  0  0  0  0  0  0  0  0  0  0
  -34.8147    9.3763    8.0065 H   0  0  0  0  0  0  0  0  0  0  0  0
  -36.8191    9.1922    5.4543 H   0  0  0  0  0  0  0  0  0  0  0  0
  -29.0835   11.7005    9.1703 H   0  0  0  0  0  0  0  0  0  0  0  0
  -30.3296    9.0574    9.6616 H   0  0  0  0  0  0  0  0  0  0  0  0
  -31.7664    9.2745   10.6551 H   0  0  0  0  0  0  0  0  0  0  0  0
  -30.2272    9.9436   11.1828 H   0  0  0  0  0  0  0  0  0  0  0  0
  -29.5686   13.2619    7.6394 H   0  0  0  0  0  0  0  0  0  0  0  0
  -31.6584   14.0489    9.4371 H   0  0  0  0  0  0  0  0  0  0  0  0
  -29.9239   15.7762    8.0615 H   0  0  0  0  0  0  0  0  0  0  0  0
  -31.5222   17.5688    8.6039 H   0  0  0  0  0  0  0  0  0  0  0  0
  -32.8004   16.3868    8.9112 H   0  0  0  0  0  0  0  0  0  0  0  0
  -31.3812   16.4862    9.9684 H   0  0  0  0  0  0  0  0  0  0  0  0
  -32.5277   15.2624    6.5344 H   0  0  0  0  0  0  0  0  0  0  0  0
  -32.0156   17.6462    6.3403 H   0  0  0  0  0  0  0  0  0  0  0  0
  -31.2554   14.4787    4.9498 H   0  0  0  0  0  0  0  0  0  0  0  0
  -31.5455   17.9824    3.9097 H   0  0  0  0  0  0  0  0  0  0  0  0
  -29.6811   17.7829    6.9870 H   0  0  0  0  0  0  0  0  0  0  0  0
  -29.1757   16.9032    5.5334 H   0  0  0  0  0  0  0  0  0  0  0  0
  -29.8681   18.5336    5.4207 H   0  0  0  0  0  0  0  0  0  0  0  0
  -33.6516   15.8552    4.3996 H   0  0  0  0  0  0  0  0  0  0  0  0
  -30.0761   16.4217    3.6315 H   0  0  0  0  0  0  0  0  0  0  0  0
  -32.8610   15.9309    2.0511 H   0  0  0  0  0  0  0  0  0  0  0  0
  -34.1887   17.8612    5.6812 H   0  0  0  0  0  0  0  0  0  0  0  0
  -33.8433   18.9140    4.2984 H   0  0  0  0  0  0  0  0  0  0  0  0
  -35.2457   17.8490    4.2960 H   0  0  0  0  0  0  0  0  0  0  0  0
  -34.5954   15.9728    0.7130 H   0  0  0  0  0  0  0  0  0  0  0  0
  -36.1032   14.5120    1.4210 H   0  0  0  0  0  0  0  0  0  0  0  0
  -36.7000   17.1703    0.7602 H   0  0  0  0  0  0  0  0  0  0  0  0
  -36.2004   18.0446    2.2160 H   0  0  0  0  0  0  0  0  0  0  0  0
  -35.3088   18.2459    0.7055 H   0  0  0  0  0  0  0  0  0  0  0  0
  -36.6743   16.0704    3.8655 H   0  0  0  0  0  0  0  0  0  0  0  0
  -33.4668   12.6742    3.0688 H   0  0  0  0  0  0  0  0  0  0  0  0
  -33.4694   13.6501    1.5944 H   0  0  0  0  0  0  0  0  0  0  0  0
  -34.7632   12.4595    1.8839 H   0  0  0  0  0  0  0  0  0  0  0  0
  -38.3140   14.3409    2.2438 H   0  0  0  0  0  0  0  0  0  0  0  0
  -31.5125   20.1755    1.5849 H   0  0  0  0  0  0  0  0  0  0  0  0
  -32.5757   20.0719    0.1657 H   0  0  0  0  0  0  0  0  0  0  0  0
  -30.8498   19.6870    0.0150 H   0  0  0  0  0  0  0  0  0  0  0  0
  -41.5928   15.4956    4.6555 H   0  0  0  0  0  0  0  0  0  0  0  0
  -40.5890   16.6415    5.5564 H   0  0  0  0  0  0  0  0  0  0  0  0
  -41.1356   15.1374    6.3297 H   0  0  0  0  0  0  0  0  0  0  0  0
  -34.7917   15.3446    7.2837 H   0  0  0  0  0  0  0  0  0  0  0  0
  -39.4927    9.9549    3.8946 H   0  0  0  0  0  0  0  0  0  0  0  0
  -40.7429   11.1173    4.3494 H   0  0  0  0  0  0  0  0  0  0  0  0
  -40.3167    9.8199    5.4627 H   0  0  0  0  0  0  0  0  0  0  0  0
  1  2  2  0  0  0  0 
  2  3  1  0  0  0  0 
  3  4  2  0  0  0  0 
  5  6  2  0  0  0  0 
  7  8  2  0  0  0  0 
  8  9  1  0  0  0  0 
  9 10  2  0  0  0  0 
  1  6  1  0  0  0  0 
  1 10  1  0  0  0  0 
  6  7  1  0  0  0  0 
  4 11  1  0  0  0  0 
  4  5  1  0  0  0  0 
  5 13  1  0  0  0  0 
 11 12  1  0  0  0  0 
 12 13  1  0  0  0  0 
 13 14  2  0  0  0  0 
  9 15  1  0  0  0  0 
 10 16  1  0  0  0  0 
  2 17  1  0  0  0  0 
 15 18  1  0  0  0  0 
 18 19  1  0  0  0  0 
 18 20  2  0  0  0  0 
 19 21  2  0  0  0  0 
 19 22  1  0  0  0  0 
 21 23  1  0  0  0  0 
 23 24  2  0  0  0  0 
 24 25  1  0  0  0  0 
 25 26  1  0  0  0  0 
 25 27  1  0  0  0  0 
 27 28  1  0  0  0  0 
 27 29  1  0  0  0  0 
 28 30  1  0  0  0  0 
 28 31  1  0  0  0  0 
 30 32  1  0  0  0  0 
 30 33  1  0  0  0  0 
 32 34  1  0  0  0  0 
 32 35  1  0  0  0  0 
 34 36  1  0  0  0  0 
 34 37  1  0  0  0  0 
 37 38  1  0  0  0  0 
 37 39  1  0  0  0  0 
 38 40  1  0  0  0  0 
 38 41  1  0  0  0  0 
 41 42  1  0  0  0  0 
 40 43  2  0  0  0  0 
 12 44  1  0  0  0  0 
 43 44  1  0  0  0  0 
 36 45  1  0  0  0  0 
 45 46  1  0  0  0  0 
 45 47  2  0  0  0  0 
 12 48  1  0  0  0  0 
  7 49  1  0  0  0  0 
  3 50  1  0  0  0  0 
  8 51  1  0  0  0  0 
 15 52  1  0  0  0  0 
 16 53  1  0  0  0  0 
 17 54  1  0  0  0  0 
 21 55  1  0  0  0  0 
 22 56  1  0  0  0  0 
 22 57  1  0  0  0  0 
 22 58  1  0  0  0  0 
 23 59  1  0  0  0  0 
 24 60  1  0  0  0  0 
 25 61  1  0  0  0  0 
 26 62  1  0  0  0  0 
 26 63  1  0  0  0  0 
 26 64  1  0  0  0  0 
 27 65  1  0  0  0  0 
 28 66  1  0  0  0  0 
 29 67  1  0  0  0  0 
 30 68  1  0  0  0  0 
 31 69  1  0  0  0  0 
 31 70  1  0  0  0  0 
 31 71  1  0  0  0  0 
 32 72  1  0  0  0  0 
 33 73  1  0  0  0  0 
 34 74  1  0  0  0  0 
 35 75  1  0  0  0  0 
 35 76  1  0  0  0  0 
 35 77  1  0  0  0  0 
 37 78  1  0  0  0  0 
 38 79  1  0  0  0  0 
 39 80  1  0  0  0  0 
 39 81  1  0  0  0  0 
 39 82  1  0  0  0  0 
 40 83  1  0  0  0  0 
 42 84  1  0  0  0  0 
 42 85  1  0  0  0  0 
 42 86  1  0  0  0  0 
 43 87  1  0  0  0  0 
 46 88  1  0  0  0  0 
 46 89  1  0  0  0  0 
 46 90  1  0  0  0  0 
 48 91  1  0  0  0  0 
 48 92  1  0  0  0  0 
 48 93  1  0  0  0  0 
 49 94  1  0  0  0  0 
 50 95  1  0  0  0  0 
 50 96  1  0  0  0  0 
 50 97  1  0  0  0  0 
M  END
> <cdk:Title>
rifamycin

> <Conformer>
1

> <SuperDrugID>
SD003779

$$$$
