hexamethonium
  CDK     0628171801

 44 43  0  0  0  0  0  0  0  0999 V2000
   -5.2504    0.1806    4.5190 C   0  0  2  0  0  0  0  0  0  0  0  0
   -6.5613   -0.4776    4.9338 N   0  0  2  0  0  0  0  0  0  0  0  0
   -4.4730   -0.4427    3.3208 C   0  0  2  0  0  0  0  0  0  0  0  0
   -7.1358    0.2901    6.1076 C   0  0  0  0  0  0  0  0  0  0  0  0
   -6.3454   -1.9104    5.3670 C   0  0  0  0  0  0  0  0  0  0  0  0
   -7.5726   -0.4477    3.8098 C   0  0  0  0  0  0  0  0  0  0  0  0
   -3.1536    0.3017    2.9803 C   0  0  1  0  0  0  0  0  0  0  0  0
   -2.4029   -0.3453    1.7810 C   0  0  2  0  0  0  0  0  0  0  0  0
   -1.0835    0.3991    1.4405 C   0  0  2  0  0  0  0  0  0  0  0  0
   -0.3062   -0.2242    0.2423 C   0  0  1  0  0  0  0  0  0  0  0  0
    1.0048    0.4340   -0.1725 N   0  0  2  0  0  0  0  0  0  0  0  0
    0.7889    1.8668   -0.6057 C   0  0  0  0  0  0  0  0  0  0  0  0
    1.5793   -0.3337   -1.3463 C   0  0  0  0  0  0  0  0  0  0  0  0
    2.0161    0.4041    0.9515 C   0  0  0  0  0  0  0  0  0  0  0  0
   -4.5648    0.1905    5.3744 H   0  0  0  0  0  0  0  0  0  0  0  0
   -5.4378    1.2310    4.2667 H   0  0  0  0  0  0  0  0  0  0  0  0
   -5.1097   -0.4298    2.4356 H   0  0  0  0  0  0  0  0  0  0  0  0
   -4.2288   -1.4797    3.5535 H   0  0  0  0  0  0  0  0  0  0  0  0
   -7.3327    1.3348    5.8488 H   0  0  0  0  0  0  0  0  0  0  0  0
   -6.4543    0.2878    6.9636 H   0  0  0  0  0  0  0  0  0  0  0  0
   -8.0828   -0.1376    6.4522 H   0  0  0  0  0  0  0  0  0  0  0  0
   -5.5432   -1.9925    6.1065 H   0  0  0  0  0  0  0  0  0  0  0  0
   -7.2487   -2.3383    5.8113 H   0  0  0  0  0  0  0  0  0  0  0  0
   -6.0820   -2.5541    4.5250 H   0  0  0  0  0  0  0  0  0  0  0  0
   -8.5605   -0.7749    4.1467 H   0  0  0  0  0  0  0  0  0  0  0  0
   -7.6827    0.5574    3.3917 H   0  0  0  0  0  0  0  0  0  0  0  0
   -7.2905   -1.1139    2.9915 H   0  0  0  0  0  0  0  0  0  0  0  0
   -3.3839    1.3436    2.7428 H   0  0  0  0  0  0  0  0  0  0  0  0
   -2.5039    0.2948    3.8594 H   0  0  0  0  0  0  0  0  0  0  0  0
   -3.0526   -0.3384    0.9019 H   0  0  0  0  0  0  0  0  0  0  0  0
   -2.1726   -1.3872    2.0185 H   0  0  0  0  0  0  0  0  0  0  0  0
   -0.4468    0.3862    2.3257 H   0  0  0  0  0  0  0  0  0  0  0  0
   -1.3278    1.4361    1.2078 H   0  0  0  0  0  0  0  0  0  0  0  0
   -0.1188   -1.2746    0.4946 H   0  0  0  0  0  0  0  0  0  0  0  0
   -0.9917   -0.2341   -0.6131 H   0  0  0  0  0  0  0  0  0  0  0  0
    0.5255    2.5105    0.2363 H   0  0  0  0  0  0  0  0  0  0  0  0
    1.6922    2.2947   -1.0500 H   0  0  0  0  0  0  0  0  0  0  0  0
   -0.0133    1.9489   -1.3452 H   0  0  0  0  0  0  0  0  0  0  0  0
    1.7762   -1.3784   -1.0875 H   0  0  0  0  0  0  0  0  0  0  0  0
    2.5263    0.0940   -1.6909 H   0  0  0  0  0  0  0  0  0  0  0  0
    0.8977   -0.3314   -2.2023 H   0  0  0  0  0  0  0  0  0  0  0  0
    2.1262   -0.6010    1.3696 H   0  0  0  0  0  0  0  0  0  0  0  0
    3.0039    0.7313    0.6146 H   0  0  0  0  0  0  0  0  0  0  0  0
    1.7339    1.0703    1.7698 H   0  0  0  0  0  0  0  0  0  0  0  0
  1  2  1  0  0  0  0 
  1  3  1  0  0  0  0 
  2  4  1  0  0  0  0 
  2  5  1  0  0  0  0 
  2  6  1  0  0  0  0 
  3  7  1  0  0  0  0 
  7  8  1  0  0  0  0 
  8  9  1  0  0  0  0 
  9 10  1  0  0  0  0 
 10 11  1  0  0  0  0 
 11 12  1  0  0  0  0 
 11 13  1  0  0  0  0 
 11 14  1  0  0  0  0 
  1 15  1  0  0  0  0 
  1 16  1  0  0  0  0 
  3 17  1  0  0  0  0 
  3 18  1  0  0  0  0 
  4 19  1  0  0  0  0 
  4 20  1  0  0  0  0 
  4 21  1  0  0  0  0 
  5 22  1  0  0  0  0 
  5 23  1  0  0  0  0 
  5 24  1  0  0  0  0 
  6 25  1  0  0  0  0 
  6 26  1  0  0  0  0 
  6 27  1  0  0  0  0 
  7 28  1  0  0  0  0 
  7 29  1  0  0  0  0 
  8 30  1  0  0  0  0 
  8 31  1  0  0  0  0 
  9 32  1  0  0  0  0 
  9 33  1  0  0  0  0 
 10 34  1  0  0  0  0 
 10 35  1  0  0  0  0 
 12 36  1  0  0  0  0 
 12 37  1  0  0  0  0 
 12 38  1  0  0  0  0 
 13 39  1  0  0  0  0 
 13 40  1  0  0  0  0 
 13 41  1  0  0  0  0 
 14 42  1  0  0  0  0 
 14 43  1  0  0  0  0 
 14 44  1  0  0  0  0 
M  CHG  1   2   1
M  CHG  1  11   1
M  END
> <cdk:Title>
hexamethonium

> <Conformer>
1

> <SuperDrugID>
SD001212

$$$$
