edrophonium
  CDK     0628171802

 28 28  0  0  0  0  0  0  0  0999 V2000
    4.9581    5.8330   -0.2119 C   0  0  0  0  0  0  0  0  0  0  0  0
    3.7771    5.3030    0.6496 C   0  0  1  0  0  0  0  0  0  0  0  0
    3.0992    4.0177    0.1837 N   0  0  2  0  0  0  0  0  0  0  0  0
    2.3450    4.3256   -1.1002 C   0  0  0  0  0  0  0  0  0  0  0  0
    2.0229    3.6213    1.1799 C   0  0  0  0  0  0  0  0  0  0  0  0
    4.0929    2.9338    0.0847 C   0  0  0  0  0  0  0  0  0  0  0  0
    4.4249    2.2663   -1.1329 C   0  0  0  0  0  0  0  0  0  0  0  0
    5.4176    1.2710   -1.1970 C   0  0  0  0  0  0  0  0  0  0  0  0
    6.1140    0.8933   -0.0418 C   0  0  0  0  0  0  0  0  0  0  0  0
    5.8183    1.5140    1.1806 C   0  0  0  0  0  0  0  0  0  0  0  0
    6.4922    1.1525    2.2991 O   0  0  0  0  0  0  0  0  0  0  0  0
    4.8273    2.5136    1.2349 C   0  0  0  0  0  0  0  0  0  0  0  0
    5.7269    5.0695   -0.3366 H   0  0  0  0  0  0  0  0  0  0  0  0
    5.4125    6.6957    0.2791 H   0  0  0  0  0  0  0  0  0  0  0  0
    4.6139    6.1515   -1.1957 H   0  0  0  0  0  0  0  0  0  0  0  0
    4.1626    5.1833    1.6661 H   0  0  0  0  0  0  0  0  0  0  0  0
    3.0474    6.1165    0.7175 H   0  0  0  0  0  0  0  0  0  0  0  0
    1.7685    3.4609   -1.4438 H   0  0  0  0  0  0  0  0  0  0  0  0
    1.6362    5.1524   -0.9715 H   0  0  0  0  0  0  0  0  0  0  0  0
    3.0155    4.6141   -1.9105 H   0  0  0  0  0  0  0  0  0  0  0  0
    2.4133    3.4725    2.1873 H   0  0  0  0  0  0  0  0  0  0  0  0
    1.2442    4.3853    1.2712 H   0  0  0  0  0  0  0  0  0  0  0  0
    1.5323    2.6889    0.8816 H   0  0  0  0  0  0  0  0  0  0  0  0
    3.9592    2.4946   -2.0106 H   0  0  0  0  0  0  0  0  0  0  0  0
    5.6354    0.8224   -2.0916 H   0  0  0  0  0  0  0  0  0  0  0  0
    6.8342    0.1677   -0.0899 H   0  0  0  0  0  0  0  0  0  0  0  0
    5.9285    0.4691    2.7186 H   0  0  0  0  0  0  0  0  0  0  0  0
    4.6552    2.9455    2.1440 H   0  0  0  0  0  0  0  0  0  0  0  0
  1  2  1  0  0  0  0 
  2  3  1  0  0  0  0 
  3  4  1  0  0  0  0 
  3  5  1  0  0  0  0 
  3  6  1  0  0  0  0 
  6  7  2  0  0  0  0 
  7  8  1  0  0  0  0 
  8  9  2  0  0  0  0 
  9 10  1  0  0  0  0 
 10 11  1  0  0  0  0 
 10 12  2  0  0  0  0 
  6 12  1  0  0  0  0 
  1 13  1  0  0  0  0 
  1 14  1  0  0  0  0 
  1 15  1  0  0  0  0 
  2 16  1  0  0  0  0 
  2 17  1  0  0  0  0 
  4 18  1  0  0  0  0 
  4 19  1  0  0  0  0 
  4 20  1  0  0  0  0 
  5 21  1  0  0  0  0 
  5 22  1  0  0  0  0 
  5 23  1  0  0  0  0 
  7 24  1  0  0  0  0 
  8 25  1  0  0  0  0 
  9 26  1  0  0  0  0 
 11 27  1  0  0  0  0 
 12 28  1  0  0  0  0 
M  CHG  1   3   1
M  END
> <cdk:Title>
edrophonium

> <Conformer>
1

> <SuperDrugID>
SD000876

$$$$
