nitrogen
  CDK     0628171801

  2  1  0  0  0  0  0  0  0  0999 V2000
    1.1020    0.0000    0.0000 N   0  0  0  0  0  0  0  0  0  0  0  0
    0.0000    0.0000    0.0000 N   0  0  0  0  0  0  0  0  0  0  0  0
  1  2  3  0  0  0  0 
M  END
> <cdk:Title>
nitrogen

> <Conformer>
1

> <SuperDrugID>
SD003453

$$$$
