oxandrolone
  CDK     0628171801

 52 55  0  0  0  0  0  0  0  0999 V2000
   -2.0977    1.2820   -2.2652 C   0  0  0  0  0  0  0  0  0  0  0  0
   -2.4816    0.2480   -1.1400 C   0  0  1  0  0  0  0  0  0  0  0  0
   -4.0421   -0.0618   -1.1076 C   0  0  2  0  0  0  0  0  0  0  0  0
   -1.7092   -1.1210   -1.3168 C   0  0  1  0  0  0  0  0  0  0  0  0
   -1.9977    0.8394    0.2375 C   0  0  1  0  0  0  0  0  0  0  0  0
   -4.5286   -0.8594   -2.3816 C   0  0  2  0  0  0  0  0  0  0  0  0
   -4.9583    1.1686   -0.7681 C   0  0  1  0  0  0  0  0  0  0  0  0
   -2.1837   -1.9310   -2.5622 C   0  0  2  0  0  0  0  0  0  0  0  0
   -0.1560   -0.9619   -1.2937 C   0  0  2  0  0  0  0  0  0  0  0  0
   -0.5813    0.7502    0.4565 O   0  0  0  0  0  0  0  0  0  0  0  0
   -6.0666   -1.1413   -2.2793 C   0  0  1  0  0  0  0  0  0  0  0  0
   -3.7126   -2.1810   -2.5343 C   0  0  2  0  0  0  0  0  0  0  0  0
   -6.4782    0.8306   -0.7655 C   0  0  1  0  0  0  0  0  0  0  0  0
    0.2956   -0.0095   -0.2584 C   0  0  0  0  0  0  0  0  0  0  0  0
   -6.9430    0.1412   -2.0962 C   0  0  1  0  0  0  0  0  0  0  0  0
   -6.7691   -1.9025   -3.4231 C   0  0  2  0  0  0  0  0  0  0  0  0
    1.5186    0.1262   -0.0270 O   0  0  0  0  0  0  0  0  0  0  0  0
   -6.8105    1.1839   -3.2781 C   0  0  0  0  0  0  0  0  0  0  0  0
   -8.3946   -0.4874   -2.1195 C   0  0  1  0  0  0  0  0  0  0  0  0
   -8.2778   -1.6267   -3.1891 C   0  0  1  0  0  0  0  0  0  0  0  0
   -8.9250   -1.0428   -0.7572 C   0  0  0  0  0  0  0  0  0  0  0  0
   -9.3911    0.4552   -2.5361 O   0  0  0  0  0  0  0  0  0  0  0  0
   -4.3452   -0.2709   -3.2811 H   0  0  0  0  0  0  0  0  0  0  0  0
   -4.1989   -0.7431   -0.2624 H   0  0  0  0  0  0  0  0  0  0  0  0
   -6.1774   -1.7804   -1.3926 H   0  0  0  0  0  0  0  0  0  0  0  0
   -1.9492   -1.7463   -0.4461 H   0  0  0  0  0  0  0  0  0  0  0  0
   -2.6159    2.2316   -2.1294 H   0  0  0  0  0  0  0  0  0  0  0  0
   -2.3399    0.9133   -3.2620 H   0  0  0  0  0  0  0  0  0  0  0  0
   -1.0304    1.5112   -2.2519 H   0  0  0  0  0  0  0  0  0  0  0  0
   -2.2761    1.8910    0.3232 H   0  0  0  0  0  0  0  0  0  0  0  0
   -2.4724    0.3188    1.0714 H   0  0  0  0  0  0  0  0  0  0  0  0
   -4.7082    1.5455    0.2260 H   0  0  0  0  0  0  0  0  0  0  0  0
   -4.7788    1.9862   -1.4623 H   0  0  0  0  0  0  0  0  0  0  0  0
   -1.6748   -2.8993   -2.5824 H   0  0  0  0  0  0  0  0  0  0  0  0
   -1.9186   -1.4060   -3.4836 H   0  0  0  0  0  0  0  0  0  0  0  0
    0.2085   -0.6113   -2.2613 H   0  0  0  0  0  0  0  0  0  0  0  0
    0.3015   -1.9345   -1.0985 H   0  0  0  0  0  0  0  0  0  0  0  0
   -3.9936   -2.6893   -3.4596 H   0  0  0  0  0  0  0  0  0  0  0  0
   -3.9427   -2.8575   -1.7062 H   0  0  0  0  0  0  0  0  0  0  0  0
   -6.6576    0.1782    0.0926 H   0  0  0  0  0  0  0  0  0  0  0  0
   -7.0530    1.7455   -0.5955 H   0  0  0  0  0  0  0  0  0  0  0  0
   -6.5502   -2.9731   -3.3895 H   0  0  0  0  0  0  0  0  0  0  0  0
   -6.4511   -1.5167   -4.3964 H   0  0  0  0  0  0  0  0  0  0  0  0
   -5.7822    1.4823   -3.4682 H   0  0  0  0  0  0  0  0  0  0  0  0
   -7.2075    0.7933   -4.2143 H   0  0  0  0  0  0  0  0  0  0  0  0
   -7.3713    2.0910   -3.0441 H   0  0  0  0  0  0  0  0  0  0  0  0
   -8.7421   -1.3235   -4.1324 H   0  0  0  0  0  0  0  0  0  0  0  0
   -8.7742   -2.5449   -2.8643 H   0  0  0  0  0  0  0  0  0  0  0  0
   -9.0453   -0.2363   -0.0317 H   0  0  0  0  0  0  0  0  0  0  0  0
   -9.9039   -1.5059   -0.8931 H   0  0  0  0  0  0  0  0  0  0  0  0
   -8.2559   -1.7939   -0.3348 H   0  0  0  0  0  0  0  0  0  0  0  0
   -9.3574    1.1747   -1.8709 H   0  0  0  0  0  0  0  0  0  0  0  0
  2  1  1  0  0  0  0 
  3  2  1  0  0  0  0 
  2  4  1  0  0  0  0 
  2  5  1  0  0  0  0 
  6  3  1  0  0  0  0 
  3  7  1  0  0  0  0 
  3 24  1  0  0  0  0 
  4  8  1  0  0  0  0 
  4  9  1  0  0  0  0 
  4 26  1  0  0  0  0 
  5 10  1  0  0  0  0 
 11  6  1  0  0  0  0 
  6 12  1  0  0  0  0 
  6 23  1  0  0  0  0 
  7 13  1  0  0  0  0 
  8 12  1  0  0  0  0 
  9 14  1  0  0  0  0 
 10 14  1  0  0  0  0 
 15 11  1  0  0  0  0 
 11 16  1  0  0  0  0 
 11 25  1  0  0  0  0 
 15 13  1  0  0  0  0 
 14 17  2  0  0  0  0 
 15 18  1  0  0  0  0 
 15 19  1  0  0  0  0 
 16 20  1  0  0  0  0 
 19 20  1  0  0  0  0 
 19 21  1  0  0  0  0 
 19 22  1  0  0  0  0 
  1 27  1  0  0  0  0 
  1 28  1  0  0  0  0 
  1 29  1  0  0  0  0 
  5 30  1  0  0  0  0 
  5 31  1  0  0  0  0 
  7 32  1  0  0  0  0 
  7 33  1  0  0  0  0 
  8 34  1  0  0  0  0 
  8 35  1  0  0  0  0 
  9 36  1  0  0  0  0 
  9 37  1  0  0  0  0 
 12 38  1  0  0  0  0 
 12 39  1  0  0  0  0 
 13 40  1  0  0  0  0 
 13 41  1  0  0  0  0 
 16 42  1  0  0  0  0 
 16 43  1  0  0  0  0 
 18 44  1  0  0  0  0 
 18 45  1  0  0  0  0 
 18 46  1  0  0  0  0 
 20 47  1  0  0  0  0 
 20 48  1  0  0  0  0 
 21 49  1  0  0  0  0 
 21 50  1  0  0  0  0 
 21 51  1  0  0  0  0 
 22 52  1  0  0  0  0 
M  END
> <cdk:Title>
oxandrolone

> <Conformer>
1

> <SuperDrugID>
SD001800

$$$$
