cresatin
  CDK     0628171801

 21 21  0  0  0  0  0  0  0  0999 V2000
   -3.8749    3.2558   -2.3859 C   0  0  0  0  0  0  0  0  0  0  0  0
   -2.5959    2.8875   -1.7647 C   0  0  0  0  0  0  0  0  0  0  0  0
   -1.5954    3.6188   -1.9414 O   0  0  0  0  0  0  0  0  0  0  0  0
   -2.5589    1.7494   -1.0083 O   0  0  0  0  0  0  0  0  0  0  0  0
   -1.5550    1.1025   -0.3302 C   0  0  0  0  0  0  0  0  0  0  0  0
   -1.9587   -0.0058    0.4431 C   0  0  0  0  0  0  0  0  0  0  0  0
   -1.0307   -0.7476    1.2098 C   0  0  0  0  0  0  0  0  0  0  0  0
   -1.5062   -1.8920    2.0192 C   0  0  0  0  0  0  0  0  0  0  0  0
    0.3306   -0.3702    1.1827 C   0  0  0  0  0  0  0  0  0  0  0  0
    0.7491    0.7214    0.4024 C   0  0  0  0  0  0  0  0  0  0  0  0
   -0.1864    1.4571   -0.3439 C   0  0  0  0  0  0  0  0  0  0  0  0
   -4.1722    2.4704   -3.0818 H   0  0  0  0  0  0  0  0  0  0  0  0
   -4.6386    3.3577   -1.6136 H   0  0  0  0  0  0  0  0  0  0  0  0
   -3.7949    4.2017   -2.9266 H   0  0  0  0  0  0  0  0  0  0  0  0
   -2.9471   -0.2756    0.4494 H   0  0  0  0  0  0  0  0  0  0  0  0
   -2.0387   -2.5953    1.3766 H   0  0  0  0  0  0  0  0  0  0  0  0
   -0.6876   -2.4245    2.5079 H   0  0  0  0  0  0  0  0  0  0  0  0
   -2.1880   -1.5298    2.7915 H   0  0  0  0  0  0  0  0  0  0  0  0
    1.0255   -0.8844    1.7281 H   0  0  0  0  0  0  0  0  0  0  0  0
    1.7356    0.9854    0.3769 H   0  0  0  0  0  0  0  0  0  0  0  0
    0.1495    2.2475   -0.8922 H   0  0  0  0  0  0  0  0  0  0  0  0
  1  2  1  0  0  0  0 
  2  3  2  0  0  0  0 
  2  4  1  0  0  0  0 
  4  5  1  0  0  0  0 
  5  6  2  0  0  0  0 
  6  7  1  0  0  0  0 
  7  8  1  0  0  0  0 
  7  9  2  0  0  0  0 
  9 10  1  0  0  0  0 
 10 11  2  0  0  0  0 
  5 11  1  0  0  0  0 
  1 12  1  0  0  0  0 
  1 13  1  0  0  0  0 
  1 14  1  0  0  0  0 
  6 15  1  0  0  0  0 
  8 16  1  0  0  0  0 
  8 17  1  0  0  0  0 
  8 18  1  0  0  0  0 
  9 19  1  0  0  0  0 
 10 20  1  0  0  0  0 
 11 21  1  0  0  0  0 
M  END
> <cdk:Title>
cresatin

> <Conformer>
1

> <SuperDrugID>
SD002703

$$$$
