emtricitabine
  CDK     0628171801

 26 27  0  0  0  0  0  0  0  0999 V2000
    0.8482   -7.6459   -3.2339 C   0  0  0  0  0  0  0  0  0  0  0  0
   -0.2607   -7.1369   -2.6489 N   0  0  0  0  0  0  0  0  0  0  0  0
   -0.2488   -5.9628   -1.9701 C   0  0  0  0  0  0  0  0  0  0  0  0
    0.9116   -5.2347   -1.8414 N   0  0  0  0  0  0  0  0  0  0  0  0
    2.0521   -5.7249   -2.4317 C   0  0  0  0  0  0  0  0  0  0  0  0
    2.0579   -6.9393   -3.1423 C   0  0  0  0  0  0  0  0  0  0  0  0
    1.0017   -3.9954   -1.0831 C   0  0  2  0  0  0  0  0  0  0  0  0
    1.6393   -4.2564    0.3069 C   0  0  2  0  0  0  0  0  0  0  0  0
    1.0223   -2.8666    1.3019 S   0  0  0  0  0  0  0  0  0  0  0  0
   -0.1094   -2.2100    0.0350 C   0  0  1  0  0  0  0  0  0  0  0  0
   -0.2583   -3.3092   -0.8801 O   0  0  0  0  0  0  0  0  0  0  0  0
    3.1581   -7.3831   -3.6905 F   0  0  0  0  0  0  0  0  0  0  0  0
    0.7554   -8.8211   -3.8825 N   0  0  0  0  0  0  0  0  0  0  0  0
   -1.3457   -5.6241   -1.4718 O   0  0  0  0  0  0  0  0  0  0  0  0
    1.6321   -3.2913   -1.6439 H   0  0  0  0  0  0  0  0  0  0  0  0
   -1.4693   -1.7829    0.6157 C   0  0  2  0  0  0  0  0  0  0  0  0
   -2.3125   -1.3105   -0.4292 O   0  0  0  0  0  0  0  0  0  0  0  0
    0.3700   -1.3637   -0.4631 H   0  0  0  0  0  0  0  0  0  0  0  0
    2.9356   -5.2095   -2.3582 H   0  0  0  0  0  0  0  0  0  0  0  0
    2.7300   -4.2512    0.2628 H   0  0  0  0  0  0  0  0  0  0  0  0
    1.2780   -5.1907    0.7426 H   0  0  0  0  0  0  0  0  0  0  0  0
   -0.0904   -9.2936   -3.9144 H   0  0  0  0  0  0  0  0  0  0  0  0
    1.5329   -9.1991   -4.3228 H   0  0  0  0  0  0  0  0  0  0  0  0
   -1.3280   -0.9840    1.3463 H   0  0  0  0  0  0  0  0  0  0  0  0
   -1.9550   -2.6309    1.1021 H   0  0  0  0  0  0  0  0  0  0  0  0
   -3.1520   -1.0616    0.0129 H   0  0  0  0  0  0  0  0  0  0  0  0
  1  2  2  0  0  0  0 
  2  3  1  0  0  0  0 
  3  4  1  0  0  0  0 
  4  5  1  0  0  0  0 
  5  6  2  0  0  0  0 
  1  6  1  0  0  0  0 
  7  4  1  0  0  0  0 
  8  9  1  0  0  0  0 
  9 10  1  0  0  0  0 
 10 11  1  0  0  0  0 
  7  8  1  0  0  0  0 
  7 11  1  0  0  0  0 
  6 12  1  0  0  0  0 
  1 13  1  0  0  0  0 
  3 14  2  0  0  0  0 
  7 15  1  0  0  0  0 
 10 16  1  0  0  0  0 
 16 17  1  0  0  0  0 
 10 18  1  0  0  0  0 
  5 19  1  0  0  0  0 
  8 20  1  0  0  0  0 
  8 21  1  0  0  0  0 
 13 22  1  0  0  0  0 
 13 23  1  0  0  0  0 
 16 24  1  0  0  0  0 
 16 25  1  0  0  0  0 
 17 26  1  0  0  0  0 
M  END
> <cdk:Title>
emtricitabine

> <Conformer>
1

> <SuperDrugID>
SD000891

$$$$
