sulfarside
  CDK     0628171801

 24 24  0  0  0  0  0  0  0  0999 V2000
   -1.4012   -6.5347    1.2971 S   0  0  1  0  0  0  0  0  0  0  0  0
   -1.1193   -6.7432    3.0200 N   0  0  1  0  0  0  0  0  0  0  0  0
   -0.5263   -7.6191    0.5020 O   0  0  0  0  0  0  0  0  0  0  0  0
   -2.9548   -6.8116    1.0096 O   0  0  0  0  0  0  0  0  0  0  0  0
   -0.9808   -4.8919    0.7874 C   0  0  0  0  0  0  0  0  0  0  0  0
   -1.0170   -3.8255    1.7089 C   0  0  0  0  0  0  0  0  0  0  0  0
   -0.6237   -4.6350   -0.5510 C   0  0  0  0  0  0  0  0  0  0  0  0
   -0.6977   -2.5127    1.3057 C   0  0  0  0  0  0  0  0  0  0  0  0
   -0.3042   -3.3276   -0.9607 C   0  0  0  0  0  0  0  0  0  0  0  0
   -0.7449   -1.5302    2.2285 N   0  0  0  0  0  0  0  0  0  0  0  0
   -0.3453   -2.2599   -0.0402 C   0  0  0  0  0  0  0  0  0  0  0  0
    0.0772   -0.4950   -0.6579 As  0  0  1  0  0  0  0  0  0  0  0  0
   -0.2081   -0.3732   -2.4962 O   0  0  0  0  0  0  0  0  0  0  0  0
   -1.0074    0.7767    0.1696 O   0  0  0  0  0  0  0  0  0  0  0  0
    1.7639   -0.1226   -0.3080 O   0  0  0  0  0  0  0  0  0  0  0  0
   -1.2967   -7.7263    3.2372 H   0  0  0  0  0  0  0  0  0  0  0  0
   -0.1241   -6.5769    3.1817 H   0  0  0  0  0  0  0  0  0  0  0  0
   -1.2788   -4.0038    2.6818 H   0  0  0  0  0  0  0  0  0  0  0  0
   -0.5969   -5.3947   -1.2347 H   0  0  0  0  0  0  0  0  0  0  0  0
   -0.0365   -3.1605   -1.9340 H   0  0  0  0  0  0  0  0  0  0  0  0
   -0.4941   -0.6224    1.9962 H   0  0  0  0  0  0  0  0  0  0  0  0
   -1.0344   -1.7336    3.1326 H   0  0  0  0  0  0  0  0  0  0  0  0
   -0.0315    0.5667   -2.7100 H   0  0  0  0  0  0  0  0  0  0  0  0
   -0.6995    1.6347   -0.1922 H   0  0  0  0  0  0  0  0  0  0  0  0
  1  2  1  0  0  0  0 
  1  3  2  0  0  0  0 
  1  4  2  0  0  0  0 
  1  5  1  0  0  0  0 
  5  6  2  0  0  0  0 
  5  7  1  0  0  0  0 
  6  8  1  0  0  0  0 
  7  9  2  0  0  0  0 
  8 10  1  0  0  0  0 
  8 11  2  0  0  0  0 
  9 11  1  0  0  0  0 
 11 12  1  0  0  0  0 
 12 13  1  0  0  0  0 
 12 14  1  0  0  0  0 
 12 15  2  0  0  0  0 
  2 16  1  0  0  0  0 
  2 17  1  0  0  0  0 
  6 18  1  0  0  0  0 
  7 19  1  0  0  0  0 
  9 20  1  0  0  0  0 
 10 21  1  0  0  0  0 
 10 22  1  0  0  0  0 
 13 23  1  0  0  0  0 
 14 24  1  0  0  0  0 
M  END
> <cdk:Title>
sulfarside

> <Conformer>
1

> <SuperDrugID>
SD003065

$$$$
