clemastine
  CDK     0628171802

 50 52  0  0  0  0  0  0  0  0999 V2000
   -0.9026   -1.6138   -0.1141 C   0  0  1  0  0  0  0  0  0  0  0  0
   -0.2844   -0.2981   -0.2624 O   0  0  0  0  0  0  0  0  0  0  0  0
   -2.4429   -1.3973    0.1077 C   0  0  0  0  0  0  0  0  0  0  0  0
   -0.5090   -2.4860   -1.2884 C   0  0  0  0  0  0  0  0  0  0  0  0
   -0.3405   -2.2883    1.1248 C   0  0  0  0  0  0  0  0  0  0  0  0
   -0.6413    0.5930   -1.3439 C   0  0  2  0  0  0  0  0  0  0  0  0
    0.8603   -2.5721   -1.6557 C   0  0  0  0  0  0  0  0  0  0  0  0
   -1.4308   -3.2691   -2.0305 C   0  0  0  0  0  0  0  0  0  0  0  0
   -0.7983   -3.5798    1.5110 C   0  0  0  0  0  0  0  0  0  0  0  0
    0.6710   -1.6998    1.9343 C   0  0  0  0  0  0  0  0  0  0  0  0
    0.3018    1.8218   -1.3476 C   0  0  1  0  0  0  0  0  0  0  0  0
    1.2953   -3.4150   -2.6941 C   0  0  0  0  0  0  0  0  0  0  0  0
   -1.0049   -4.1062   -3.0773 C   0  0  0  0  0  0  0  0  0  0  0  0
   -0.2861   -4.2447    2.6404 C   0  0  0  0  0  0  0  0  0  0  0  0
    1.1923   -2.3651    3.0617 C   0  0  0  0  0  0  0  0  0  0  0  0
    0.3489    2.6002    0.0046 C   0  0  2  0  0  0  0  0  0  0  0  0
    0.3597   -4.1869   -3.4074 C   0  0  0  0  0  0  0  0  0  0  0  0
    0.7118   -3.6361    3.4189 C   0  0  0  0  0  0  0  0  0  0  0  0
   -0.9860    3.1969    0.3159 N   0  0  1  0  0  0  0  0  0  0  0  0
    1.3272    3.7979   -0.0366 C   0  0  1  0  0  0  0  0  0  0  0  0
    0.8700   -5.2206   -4.6465 Cl  0  0  0  0  0  0  0  0  0  0  0  0
   -1.6402    2.7044    1.5601 C   0  0  0  0  0  0  0  0  0  0  0  0
   -0.8862    4.6783    0.2181 C   0  0  2  0  0  0  0  0  0  0  0  0
    0.4493    4.9718   -0.4838 C   0  0  1  0  0  0  0  0  0  0  0  0
   -2.9631   -2.3247    0.3532 H   0  0  0  0  0  0  0  0  0  0  0  0
   -2.6129   -0.6953    0.9263 H   0  0  0  0  0  0  0  0  0  0  0  0
   -2.9112   -0.9945   -0.7913 H   0  0  0  0  0  0  0  0  0  0  0  0
   -1.6691    0.9420   -1.2329 H   0  0  0  0  0  0  0  0  0  0  0  0
   -0.5513    0.0869   -2.3073 H   0  0  0  0  0  0  0  0  0  0  0  0
    1.5622   -2.0170   -1.1579 H   0  0  0  0  0  0  0  0  0  0  0  0
   -2.4271   -3.2630   -1.8135 H   0  0  0  0  0  0  0  0  0  0  0  0
   -1.5159   -4.0597    0.9637 H   0  0  0  0  0  0  0  0  0  0  0  0
    1.0537   -0.7757    1.7132 H   0  0  0  0  0  0  0  0  0  0  0  0
    1.3112    1.4739   -1.5892 H   0  0  0  0  0  0  0  0  0  0  0  0
   -0.0139    2.4963   -2.1485 H   0  0  0  0  0  0  0  0  0  0  0  0
    2.2920   -3.4658   -2.9212 H   0  0  0  0  0  0  0  0  0  0  0  0
   -1.6970   -4.6605   -3.5877 H   0  0  0  0  0  0  0  0  0  0  0  0
   -0.6369   -5.1738    2.8924 H   0  0  0  0  0  0  0  0  0  0  0  0
    1.9274   -1.9266    3.6226 H   0  0  0  0  0  0  0  0  0  0  0  0
    0.6894    1.9077    0.7853 H   0  0  0  0  0  0  0  0  0  0  0  0
    1.0889   -4.1191    4.2388 H   0  0  0  0  0  0  0  0  0  0  0  0
    1.7182    3.9927    0.9674 H   0  0  0  0  0  0  0  0  0  0  0  0
    2.1698    3.6406   -0.7142 H   0  0  0  0  0  0  0  0  0  0  0  0
   -2.6081    3.1899    1.7035 H   0  0  0  0  0  0  0  0  0  0  0  0
   -1.8131    1.6301    1.4906 H   0  0  0  0  0  0  0  0  0  0  0  0
   -1.0164    2.9010    2.4360 H   0  0  0  0  0  0  0  0  0  0  0  0
   -0.8854    5.1580    1.2032 H   0  0  0  0  0  0  0  0  0  0  0  0
   -1.7252    5.0735   -0.3604 H   0  0  0  0  0  0  0  0  0  0  0  0
    0.8725    5.9323   -0.1805 H   0  0  0  0  0  0  0  0  0  0  0  0
    0.3211    4.9620   -1.5702 H   0  0  0  0  0  0  0  0  0  0  0  0
  1  2  1  0  0  0  0 
  1  3  1  0  0  0  0 
  1  4  1  0  0  0  0 
  1  5  1  0  0  0  0 
  2  6  1  0  0  0  0 
  4  7  2  0  0  0  0 
  4  8  1  0  0  0  0 
  5  9  2  0  0  0  0 
  5 10  1  0  0  0  0 
  6 11  1  0  0  0  0 
  7 12  1  0  0  0  0 
  8 13  2  0  0  0  0 
  9 14  1  0  0  0  0 
 10 15  2  0  0  0  0 
 12 17  2  0  0  0  0 
 13 17  1  0  0  0  0 
 14 18  2  0  0  0  0 
 15 18  1  0  0  0  0 
 16 11  1  0  0  0  0 
 16 19  1  0  0  0  0 
 16 20  1  0  0  0  0 
 17 21  1  0  0  0  0 
 19 22  1  0  0  0  0 
 19 23  1  0  0  0  0 
 20 24  1  0  0  0  0 
 23 24  1  0  0  0  0 
  3 25  1  0  0  0  0 
  3 26  1  0  0  0  0 
  3 27  1  0  0  0  0 
  6 28  1  0  0  0  0 
  6 29  1  0  0  0  0 
  7 30  1  0  0  0  0 
  8 31  1  0  0  0  0 
  9 32  1  0  0  0  0 
 10 33  1  0  0  0  0 
 11 34  1  0  0  0  0 
 11 35  1  0  0  0  0 
 12 36  1  0  0  0  0 
 13 37  1  0  0  0  0 
 14 38  1  0  0  0  0 
 15 39  1  0  0  0  0 
 16 40  1  0  0  0  0 
 18 41  1  0  0  0  0 
 20 42  1  0  0  0  0 
 20 43  1  0  0  0  0 
 22 44  1  0  0  0  0 
 22 45  1  0  0  0  0 
 22 46  1  0  0  0  0 
 23 47  1  0  0  0  0 
 23 48  1  0  0  0  0 
 24 49  1  0  0  0  0 
 24 50  1  0  0  0  0 
M  END
> <cdk:Title>
clemastine

> <Conformer>
1

> <SuperDrugID>
SD000590

$$$$
