solasulfone
  CDK     0628171801

 83 86  0  0  0  0  0  0  0  0999 V2000
   -4.5220    2.8336    2.4070 C   0  0  2  0  0  0  0  0  0  0  0  0
   -4.9516    4.3150    2.1631 C   0  0  1  0  0  0  0  0  0  0  0  0
   -5.9066    1.8077    3.0444 S   0  0  1  0  0  0  0  0  0  0  0  0
   -3.3366    2.6913    3.3144 C   0  0  0  0  0  0  0  0  0  0  0  0
   -3.9638    5.1520    1.2949 C   0  0  2  0  0  0  0  0  0  0  0  0
   -7.1154    1.7959    1.9926 O   0  0  0  0  0  0  0  0  0  0  0  0
   -5.4069    0.3042    3.2866 O   0  0  0  0  0  0  0  0  0  0  0  0
   -6.4933    2.4316    4.5235 O   0  0  0  0  0  0  0  0  0  0  0  0
   -3.3653    3.2023    4.6445 C   0  0  0  0  0  0  0  0  0  0  0  0
   -2.1692    2.0437    2.8440 C   0  0  0  0  0  0  0  0  0  0  0  0
   -2.6627    5.2538    1.8918 N   0  0  0  0  0  0  0  0  0  0  0  0
   -4.6121    6.8540    1.0848 S   0  0  1  0  0  0  0  0  0  0  0  0
   -2.2854    3.1194    5.5536 C   0  0  0  0  0  0  0  0  0  0  0  0
   -1.0469    1.9400    3.7482 C   0  0  0  0  0  0  0  0  0  0  0  0
   -1.4717    5.5476    1.2804 C   0  0  0  0  0  0  0  0  0  0  0  0
   -3.7098    7.6890    0.0579 O   0  0  0  0  0  0  0  0  0  0  0  0
   -6.1271    6.8284    0.5640 O   0  0  0  0  0  0  0  0  0  0  0  0
   -4.5804    7.6479    2.5989 O   0  0  0  0  0  0  0  0  0  0  0  0
   -1.0689    2.4755    5.1261 C   0  0  0  0  0  0  0  0  0  0  0  0
   -1.2853    5.6456   -0.1204 C   0  0  0  0  0  0  0  0  0  0  0  0
   -0.3591    5.7813    2.1199 C   0  0  0  0  0  0  0  0  0  0  0  0
   -0.0372    6.0043   -0.6604 C   0  0  0  0  0  0  0  0  0  0  0  0
    0.8874    6.1522    1.5823 C   0  0  0  0  0  0  0  0  0  0  0  0
    1.0532    6.2817    0.1879 C   0  0  0  0  0  0  0  0  0  0  0  0
    2.6074    6.8292   -0.4801 S   0  0  2  0  0  0  0  0  0  0  0  0
    2.6993    6.4801   -2.0452 O   0  0  0  0  0  0  0  0  0  0  0  0
    3.8092    6.0549    0.2516 O   0  0  0  0  0  0  0  0  0  0  0  0
    2.7790    8.5821   -0.2525 C   0  0  0  0  0  0  0  0  0  0  0  0
    3.5035    9.0905    0.8444 C   0  0  0  0  0  0  0  0  0  0  0  0
    2.1755    9.4814   -1.1554 C   0  0  0  0  0  0  0  0  0  0  0  0
    3.6266   10.4785    1.0340 C   0  0  0  0  0  0  0  0  0  0  0  0
    2.2834   10.8700   -0.9528 C   0  0  0  0  0  0  0  0  0  0  0  0
    3.0222   11.3841    0.1336 C   0  0  0  0  0  0  0  0  0  0  0  0
    3.1276   12.7389    0.2555 N   0  0  0  0  0  0  0  0  0  0  0  0
    4.3404   13.4530    0.5351 C   0  0  2  0  0  0  0  0  0  0  0  0
    4.0708   14.9325    0.9331 C   0  0  1  0  0  0  0  0  0  0  0  0
    5.3724   13.4226   -0.9823 S   0  0  2  0  0  0  0  0  0  0  0  0
    3.2686   15.1734    2.2489 C   0  0  2  0  0  0  0  0  0  0  0  0
    5.7476   11.9226   -1.4003 O   0  0  0  0  0  0  0  0  0  0  0  0
    6.7196   14.2618   -0.7620 O   0  0  0  0  0  0  0  0  0  0  0  0
    4.4871   14.1365   -2.2597 O   0  0  0  0  0  0  0  0  0  0  0  0
    3.2098   16.9685    2.6369 S   0  0  1  0  0  0  0  0  0  0  0  0
    3.7704   14.4434    3.4534 C   0  0  0  0  0  0  0  0  0  0  0  0
    4.6865   17.5691    2.8030 O   0  0  0  0  0  0  0  0  0  0  0  0
    2.4410   17.7700    1.4825 O   0  0  0  0  0  0  0  0  0  0  0  0
    2.3769   17.2128    4.1111 O   0  0  0  0  0  0  0  0  0  0  0  0
    2.8969   13.6206    4.2065 C   0  0  0  0  0  0  0  0  0  0  0  0
    5.1107   14.5722    3.8968 C   0  0  0  0  0  0  0  0  0  0  0  0
    3.3389   12.9709    5.3728 C   0  0  0  0  0  0  0  0  0  0  0  0
    5.5582   13.9146    5.0568 C   0  0  0  0  0  0  0  0  0  0  0  0
    4.6694   13.1198    5.7992 C   0  0  0  0  0  0  0  0  0  0  0  0
   -4.2991    2.4082    1.4217 H   0  0  0  0  0  0  0  0  0  0  0  0
   -5.9130    4.3026    1.6390 H   0  0  0  0  0  0  0  0  0  0  0  0
   -5.1195    4.8198    3.1147 H   0  0  0  0  0  0  0  0  0  0  0  0
   -3.9113    4.6773    0.3121 H   0  0  0  0  0  0  0  0  0  0  0  0
   -7.1588    3.1062    4.2633 H   0  0  0  0  0  0  0  0  0  0  0  0
   -4.2109    3.6692    4.9790 H   0  0  0  0  0  0  0  0  0  0  0  0
   -2.1055    1.6616    1.8983 H   0  0  0  0  0  0  0  0  0  0  0  0
   -2.6287    5.1573    2.8571 H   0  0  0  0  0  0  0  0  0  0  0  0
   -2.4769    3.5606    6.5161 H   0  0  0  0  0  0  0  0  0  0  0  0
   -0.2135    1.4339    3.3027 H   0  0  0  0  0  0  0  0  0  0  0  0
   -3.6388    7.6182    2.8725 H   0  0  0  0  0  0  0  0  0  0  0  0
   -0.2629    2.3911    5.7485 H   0  0  0  0  0  0  0  0  0  0  0  0
   -2.0552    5.4675   -0.7664 H   0  0  0  0  0  0  0  0  0  0  0  0
   -0.4472    5.6965    3.1367 H   0  0  0  0  0  0  0  0  0  0  0  0
    0.0624    6.0708   -1.6759 H   0  0  0  0  0  0  0  0  0  0  0  0
    1.6709    6.3352    2.2143 H   0  0  0  0  0  0  0  0  0  0  0  0
    3.9438    8.4578    1.5144 H   0  0  0  0  0  0  0  0  0  0  0  0
    1.6554    9.1349   -1.9649 H   0  0  0  0  0  0  0  0  0  0  0  0
    4.1494   10.8188    1.8422 H   0  0  0  0  0  0  0  0  0  0  0  0
    1.8310   11.5071   -1.6132 H   0  0  0  0  0  0  0  0  0  0  0  0
    2.3510   13.2671    0.0091 H   0  0  0  0  0  0  0  0  0  0  0  0
    4.9139   12.9784    1.3315 H   0  0  0  0  0  0  0  0  0  0  0  0
    5.0327   15.4430    1.0222 H   0  0  0  0  0  0  0  0  0  0  0  0
    3.5271   15.4112    0.1126 H   0  0  0  0  0  0  0  0  0  0  0  0
    2.2333   14.8845    2.0462 H   0  0  0  0  0  0  0  0  0  0  0  0
    3.5837   13.7633   -2.1736 H   0  0  0  0  0  0  0  0  0  0  0  0
    1.4706   16.8793    3.9468 H   0  0  0  0  0  0  0  0  0  0  0  0
    1.9238   13.4943    3.9195 H   0  0  0  0  0  0  0  0  0  0  0  0
    5.7776   15.1497    3.3819 H   0  0  0  0  0  0  0  0  0  0  0  0
    2.6884   12.3938    5.9105 H   0  0  0  0  0  0  0  0  0  0  0  0
    6.5289   14.0186    5.3626 H   0  0  0  0  0  0  0  0  0  0  0  0
    4.9891   12.6513    6.6486 H   0  0  0  0  0  0  0  0  0  0  0  0
  1  2  1  0  0  0  0 
  1  3  1  0  0  0  0 
  1  4  1  0  0  0  0 
  2  5  1  0  0  0  0 
  3  6  2  0  0  0  0 
  3  7  2  0  0  0  0 
  3  8  1  0  0  0  0 
  4  9  2  0  0  0  0 
  4 10  1  0  0  0  0 
  5 11  1  0  0  0  0 
  5 12  1  0  0  0  0 
  9 13  1  0  0  0  0 
 10 14  2  0  0  0  0 
 11 15  1  0  0  0  0 
 12 16  2  0  0  0  0 
 12 17  2  0  0  0  0 
 12 18  1  0  0  0  0 
 13 19  2  0  0  0  0 
 14 19  1  0  0  0  0 
 15 20  2  0  0  0  0 
 15 21  1  0  0  0  0 
 20 22  1  0  0  0  0 
 21 23  2  0  0  0  0 
 22 24  2  0  0  0  0 
 23 24  1  0  0  0  0 
 24 25  1  0  0  0  0 
 25 26  2  0  0  0  0 
 25 27  2  0  0  0  0 
 25 28  1  0  0  0  0 
 28 29  2  0  0  0  0 
 28 30  1  0  0  0  0 
 29 31  1  0  0  0  0 
 30 32  2  0  0  0  0 
 31 33  2  0  0  0  0 
 32 33  1  0  0  0  0 
 33 34  1  0  0  0  0 
 34 35  1  0  0  0  0 
 35 36  1  0  0  0  0 
 35 37  1  0  0  0  0 
 36 38  1  0  0  0  0 
 37 39  2  0  0  0  0 
 37 40  2  0  0  0  0 
 37 41  1  0  0  0  0 
 38 42  1  0  0  0  0 
 38 43  1  0  0  0  0 
 42 44  2  0  0  0  0 
 42 45  2  0  0  0  0 
 42 46  1  0  0  0  0 
 43 47  2  0  0  0  0 
 43 48  1  0  0  0  0 
 47 49  1  0  0  0  0 
 48 50  2  0  0  0  0 
 49 51  2  0  0  0  0 
 50 51  1  0  0  0  0 
  1 52  1  0  0  0  0 
  2 53  1  0  0  0  0 
  2 54  1  0  0  0  0 
  5 55  1  0  0  0  0 
  8 56  1  0  0  0  0 
  9 57  1  0  0  0  0 
 10 58  1  0  0  0  0 
 11 59  1  0  0  0  0 
 13 60  1  0  0  0  0 
 14 61  1  0  0  0  0 
 18 62  1  0  0  0  0 
 19 63  1  0  0  0  0 
 20 64  1  0  0  0  0 
 21 65  1  0  0  0  0 
 22 66  1  0  0  0  0 
 23 67  1  0  0  0  0 
 29 68  1  0  0  0  0 
 30 69  1  0  0  0  0 
 31 70  1  0  0  0  0 
 32 71  1  0  0  0  0 
 34 72  1  0  0  0  0 
 35 73  1  0  0  0  0 
 36 74  1  0  0  0  0 
 36 75  1  0  0  0  0 
 38 76  1  0  0  0  0 
 41 77  1  0  0  0  0 
 46 78  1  0  0  0  0 
 47 79  1  0  0  0  0 
 48 80  1  0  0  0  0 
 49 81  1  0  0  0  0 
 50 82  1  0  0  0  0 
 51 83  1  0  0  0  0 
M  END
> <cdk:Title>
solasulfone

> <Conformer>
1

> <SuperDrugID>
SD003055

$$$$
