metahexamide
  CDK     0628171801

 42 43  0  0  0  0  0  0  0  0999 V2000
    0.6862   -0.6512    0.3734 S   0  0  1  0  0  0  0  0  0  0  0  0
   -0.5066   -1.7466    0.9479 N   0  0  0  0  0  0  0  0  0  0  0  0
    0.4458   -0.3992   -1.1935 O   0  0  0  0  0  0  0  0  0  0  0  0
    0.4732    0.7496    1.1314 O   0  0  0  0  0  0  0  0  0  0  0  0
    2.3444   -1.2120    0.6519 C   0  0  0  0  0  0  0  0  0  0  0  0
   -1.8328   -1.5585    0.7457 C   0  0  0  0  0  0  0  0  0  0  0  0
    3.3805   -0.7402   -0.1811 C   0  0  0  0  0  0  0  0  0  0  0  0
    2.6548   -2.0890    1.7100 C   0  0  0  0  0  0  0  0  0  0  0  0
   -2.7024   -2.4437    1.3036 N   0  0  0  0  0  0  0  0  0  0  0  0
   -2.2523   -0.5810    0.0805 O   0  0  0  0  0  0  0  0  0  0  0  0
    4.7192   -1.1142    0.0536 C   0  0  0  0  0  0  0  0  0  0  0  0
    3.9872   -2.4769    1.9389 C   0  0  0  0  0  0  0  0  0  0  0  0
   -4.1326   -2.3192    1.2764 C   0  0  2  0  0  0  0  0  0  0  0  0
    5.6689   -0.6106   -0.7664 N   0  0  0  0  0  0  0  0  0  0  0  0
    5.0393   -1.9890    1.1266 C   0  0  0  0  0  0  0  0  0  0  0  0
   -4.5876   -1.1676    2.2250 C   0  0  1  0  0  0  0  0  0  0  0  0
   -4.8009   -3.6660    1.6809 C   0  0  2  0  0  0  0  0  0  0  0  0
    6.4428   -2.3893    1.4044 C   0  0  0  0  0  0  0  0  0  0  0  0
   -6.1317   -1.0563    2.3221 C   0  0  2  0  0  0  0  0  0  0  0  0
   -6.3469   -3.5467    1.7639 C   0  0  2  0  0  0  0  0  0  0  0  0
   -6.7827   -2.4061    2.7190 C   0  0  2  0  0  0  0  0  0  0  0  0
   -0.2199   -2.5149    1.4661 H   0  0  0  0  0  0  0  0  0  0  0  0
    3.1614   -0.1111   -0.9603 H   0  0  0  0  0  0  0  0  0  0  0  0
    1.9164   -2.4444    2.3224 H   0  0  0  0  0  0  0  0  0  0  0  0
   -2.3273   -3.1935    1.7920 H   0  0  0  0  0  0  0  0  0  0  0  0
    4.1859   -3.1162    2.7130 H   0  0  0  0  0  0  0  0  0  0  0  0
   -4.4504   -2.0856    0.2542 H   0  0  0  0  0  0  0  0  0  0  0  0
    6.6062   -0.8206   -0.6246 H   0  0  0  0  0  0  0  0  0  0  0  0
    5.4128   -0.0285   -1.5003 H   0  0  0  0  0  0  0  0  0  0  0  0
   -4.1761   -1.3330    3.2261 H   0  0  0  0  0  0  0  0  0  0  0  0
   -4.1975   -0.2121    1.8610 H   0  0  0  0  0  0  0  0  0  0  0  0
   -4.4180   -3.9925    2.6532 H   0  0  0  0  0  0  0  0  0  0  0  0
   -4.5455   -4.4346    0.9470 H   0  0  0  0  0  0  0  0  0  0  0  0
    6.8676   -2.8778    0.5254 H   0  0  0  0  0  0  0  0  0  0  0  0
    6.5189   -3.0825    2.2453 H   0  0  0  0  0  0  0  0  0  0  0  0
    7.0377   -1.5056    1.6439 H   0  0  0  0  0  0  0  0  0  0  0  0
   -6.5299   -0.7326    1.3561 H   0  0  0  0  0  0  0  0  0  0  0  0
   -6.3903   -0.2955    3.0648 H   0  0  0  0  0  0  0  0  0  0  0  0
   -6.7667   -4.4910    2.1182 H   0  0  0  0  0  0  0  0  0  0  0  0
   -6.7528   -3.3560    0.7654 H   0  0  0  0  0  0  0  0  0  0  0  0
   -7.8702   -2.3032    2.6916 H   0  0  0  0  0  0  0  0  0  0  0  0
   -6.4968   -2.6592    3.7437 H   0  0  0  0  0  0  0  0  0  0  0  0
  1  2  1  0  0  0  0 
  1  3  2  0  0  0  0 
  1  4  2  0  0  0  0 
  1  5  1  0  0  0  0 
  2  6  1  0  0  0  0 
  5  7  2  0  0  0  0 
  5  8  1  0  0  0  0 
  6  9  1  0  0  0  0 
  6 10  2  0  0  0  0 
  7 11  1  0  0  0  0 
  8 12  2  0  0  0  0 
  9 13  1  0  0  0  0 
 11 14  1  0  0  0  0 
 11 15  2  0  0  0  0 
 12 15  1  0  0  0  0 
 13 16  1  0  0  0  0 
 13 17  1  0  0  0  0 
 15 18  1  0  0  0  0 
 16 19  1  0  0  0  0 
 17 20  1  0  0  0  0 
 19 21  1  0  0  0  0 
 20 21  1  0  0  0  0 
  2 22  1  0  0  0  0 
  7 23  1  0  0  0  0 
  8 24  1  0  0  0  0 
  9 25  1  0  0  0  0 
 12 26  1  0  0  0  0 
 13 27  1  0  0  0  0 
 14 28  1  0  0  0  0 
 14 29  1  0  0  0  0 
 16 30  1  0  0  0  0 
 16 31  1  0  0  0  0 
 17 32  1  0  0  0  0 
 17 33  1  0  0  0  0 
 18 34  1  0  0  0  0 
 18 35  1  0  0  0  0 
 18 36  1  0  0  0  0 
 19 37  1  0  0  0  0 
 19 38  1  0  0  0  0 
 20 39  1  0  0  0  0 
 20 40  1  0  0  0  0 
 21 41  1  0  0  0  0 
 21 42  1  0  0  0  0 
M  END
> <cdk:Title>
metahexamide

> <Conformer>
1

> <SuperDrugID>
SD001518

$$$$
