buramate
  CDK     0628171801

 27 27  0  0  0  0  0  0  0  0999 V2000
   -3.4315   -2.7516    1.9609 C   0  0  2  0  0  0  0  0  0  0  0  0
   -2.1137   -2.2091    1.8655 N   0  0  0  0  0  0  0  0  0  0  0  0
   -3.5758   -3.7767    3.0333 C   0  0  0  0  0  0  0  0  0  0  0  0
   -1.0168   -2.8737    1.4205 C   0  0  0  0  0  0  0  0  0  0  0  0
   -3.3687   -3.4273    4.3898 C   0  0  0  0  0  0  0  0  0  0  0  0
   -3.9321   -5.1129    2.7248 C   0  0  0  0  0  0  0  0  0  0  0  0
    0.1494   -2.1704    1.3494 O   0  0  0  0  0  0  0  0  0  0  0  0
   -1.0704   -4.0760    1.0649 O   0  0  0  0  0  0  0  0  0  0  0  0
   -3.5151   -4.3869    5.4104 C   0  0  0  0  0  0  0  0  0  0  0  0
   -4.0742   -6.0718    3.7449 C   0  0  0  0  0  0  0  0  0  0  0  0
    1.4291   -2.6770    0.9485 C   0  0  1  0  0  0  0  0  0  0  0  0
   -3.8639   -5.7116    5.0876 C   0  0  0  0  0  0  0  0  0  0  0  0
    2.4431   -1.5190    0.8567 C   0  0  1  0  0  0  0  0  0  0  0  0
    2.0792   -0.6320   -0.1960 O   0  0  0  0  0  0  0  0  0  0  0  0
   -3.7156   -3.1483    0.9820 H   0  0  0  0  0  0  0  0  0  0  0  0
   -4.1139   -1.9272    2.1757 H   0  0  0  0  0  0  0  0  0  0  0  0
   -1.9902   -1.2844    2.1369 H   0  0  0  0  0  0  0  0  0  0  0  0
   -3.1147   -2.4680    4.6452 H   0  0  0  0  0  0  0  0  0  0  0  0
   -4.0915   -5.3989    1.7553 H   0  0  0  0  0  0  0  0  0  0  0  0
   -3.3685   -4.1217    6.3864 H   0  0  0  0  0  0  0  0  0  0  0  0
   -4.3321   -7.0336    3.5099 H   0  0  0  0  0  0  0  0  0  0  0  0
    1.7735   -3.4108    1.6818 H   0  0  0  0  0  0  0  0  0  0  0  0
    1.3504   -3.1634   -0.0278 H   0  0  0  0  0  0  0  0  0  0  0  0
   -3.9635   -6.4100    5.8279 H   0  0  0  0  0  0  0  0  0  0  0  0
    2.4680   -0.9650    1.7980 H   0  0  0  0  0  0  0  0  0  0  0  0
    3.4397   -1.9156    0.6538 H   0  0  0  0  0  0  0  0  0  0  0  0
    2.7751    0.0570   -0.1967 H   0  0  0  0  0  0  0  0  0  0  0  0
  1  2  1  0  0  0  0 
  1  3  1  0  0  0  0 
  2  4  1  0  0  0  0 
  3  5  2  0  0  0  0 
  3  6  1  0  0  0  0 
  4  7  1  0  0  0  0 
  4  8  2  0  0  0  0 
  5  9  1  0  0  0  0 
  6 10  2  0  0  0  0 
  7 11  1  0  0  0  0 
  9 12  2  0  0  0  0 
 10 12  1  0  0  0  0 
 11 13  1  0  0  0  0 
 13 14  1  0  0  0  0 
 15  1  1  0  0  0  0 
 16  1  1  0  0  0  0 
 17  2  1  0  0  0  0 
 18  5  1  0  0  0  0 
 19  6  1  0  0  0  0 
 20  9  1  0  0  0  0 
 21 10  1  0  0  0  0 
 22 11  1  0  0  0  0 
 23 11  1  0  0  0  0 
 24 12  1  0  0  0  0 
 25 13  1  0  0  0  0 
 26 13  1  0  0  0  0 
 27 14  1  0  0  0  0 
M  END
> <cdk:Title>
buramate

> <Conformer>
1

> <SuperDrugID>
SD002648

$$$$
