rosuvastatin
  CDK     0628171801

 61 62  0  0  0  0  0  0  0  0999 V2000
    5.3940    1.4005   -0.0981 C   0  0  0  0  0  0  0  0  0  0  0  0
    6.3269    2.3558   -0.2725 C   0  0  0  0  0  0  0  0  0  0  0  0
    3.9738    1.4337   -0.0338 C   0  0  0  0  0  0  0  0  0  0  0  0
    7.7573    2.0554   -0.3247 C   0  0  2  0  0  0  0  0  0  0  0  0
    3.2924    0.1676   -0.0785 C   0  0  0  0  0  0  0  0  0  0  0  0
    3.1061    2.5752    0.1139 C   0  0  0  0  0  0  0  0  0  0  0  0
    8.3215    1.5917    1.0538 C   0  0  1  0  0  0  0  0  0  0  0  0
    8.4658    3.2078   -0.7863 O   0  0  0  0  0  0  0  0  0  0  0  0
    1.9522    0.0935    0.1057 N   0  0  0  0  0  0  0  0  0  0  0  0
    3.8852   -1.1029   -0.3246 C   0  0  0  0  0  0  0  0  0  0  0  0
    3.4312    4.0408    0.1098 C   0  0  1  0  0  0  0  0  0  0  0  0
    1.7716    2.3670    0.2873 N   0  0  0  0  0  0  0  0  0  0  0  0
    9.8129    1.1348    1.0587 C   0  0  2  0  0  0  0  0  0  0  0  0
    1.1549    1.1646    0.3072 C   0  0  0  0  0  0  0  0  0  0  0  0
    3.7930   -2.1376    0.6360 C   0  0  0  0  0  0  0  0  0  0  0  0
    4.5854   -1.3534   -1.5291 C   0  0  0  0  0  0  0  0  0  0  0  0
    4.2309    4.4837    1.3702 C   0  0  0  0  0  0  0  0  0  0  0  0
    3.9235    4.5465   -1.2832 C   0  0  0  0  0  0  0  0  0  0  0  0
   10.0739   -0.2119    0.3172 C   0  0  1  0  0  0  0  0  0  0  0  0
   10.2315    0.9989    2.4198 O   0  0  0  0  0  0  0  0  0  0  0  0
   -0.2046    1.0453    0.5005 N   0  0  0  0  0  0  0  0  0  0  0  0
    4.4108   -3.3814    0.4097 C   0  0  0  0  0  0  0  0  0  0  0  0
    5.2116   -2.5940   -1.7499 C   0  0  0  0  0  0  0  0  0  0  0  0
   11.4849   -0.6516    0.3729 C   0  0  0  0  0  0  0  0  0  0  0  0
   -0.9096   -0.5115    0.7409 S   0  0  2  0  0  0  0  0  0  0  0  0
   -1.0604    2.2011    0.5570 C   0  0  0  0  0  0  0  0  0  0  0  0
    5.1278   -3.6095   -0.7797 C   0  0  0  0  0  0  0  0  0  0  0  0
   11.7604   -1.8677    0.9986 O   0  0  0  0  0  0  0  0  0  0  0  0
   12.3467    0.1158   -0.1647 O   0  0  0  0  0  0  0  0  0  0  0  0
   -1.0302   -1.3848   -0.8613 C   0  0  0  0  0  0  0  0  0  0  0  0
   -2.3714   -0.3883    1.3929 O   0  0  0  0  0  0  0  0  0  0  0  0
    0.0101   -1.3734    1.7343 O   0  0  0  0  0  0  0  0  0  0  0  0
    5.7150   -4.7562   -0.9800 F   0  0  0  0  0  0  0  0  0  0  0  0
    5.8045    0.5038    0.0083 H   0  0  0  0  0  0  0  0  0  0  0  0
    6.0686    3.2957   -0.3679 H   0  0  0  0  0  0  0  0  0  0  0  0
    7.9049    1.2682   -1.0661 H   0  0  0  0  0  0  0  0  0  0  0  0
    8.2128    2.4253    1.7550 H   0  0  0  0  0  0  0  0  0  0  0  0
    7.7217    0.7635    1.4442 H   0  0  0  0  0  0  0  0  0  0  0  0
    9.3954    2.9182   -0.9034 H   0  0  0  0  0  0  0  0  0  0  0  0
    2.4994    4.6108    0.2384 H   0  0  0  0  0  0  0  0  0  0  0  0
   10.4273    1.9184    0.6059 H   0  0  0  0  0  0  0  0  0  0  0  0
    3.2843   -1.9897    1.5127 H   0  0  0  0  0  0  0  0  0  0  0  0
    4.6525   -0.6297   -2.2512 H   0  0  0  0  0  0  0  0  0  0  0  0
    4.6268    5.4924    1.2420 H   0  0  0  0  0  0  0  0  0  0  0  0
    5.0521    3.8144    1.6112 H   0  0  0  0  0  0  0  0  0  0  0  0
    3.5678    4.4965    2.2394 H   0  0  0  0  0  0  0  0  0  0  0  0
    4.5759    5.4148   -1.1787 H   0  0  0  0  0  0  0  0  0  0  0  0
    4.4523    3.7780   -1.8467 H   0  0  0  0  0  0  0  0  0  0  0  0
    3.0710    4.8450   -1.8995 H   0  0  0  0  0  0  0  0  0  0  0  0
    9.4309   -0.9873    0.7414 H   0  0  0  0  0  0  0  0  0  0  0  0
    9.8095   -0.1067   -0.7356 H   0  0  0  0  0  0  0  0  0  0  0  0
   10.1251    1.8923    2.8107 H   0  0  0  0  0  0  0  0  0  0  0  0
    4.3419   -4.1174    1.1166 H   0  0  0  0  0  0  0  0  0  0  0  0
    5.7304   -2.7522   -2.6172 H   0  0  0  0  0  0  0  0  0  0  0  0
   -2.1036    1.9573    0.3443 H   0  0  0  0  0  0  0  0  0  0  0  0
   -1.0048    2.6377    1.5564 H   0  0  0  0  0  0  0  0  0  0  0  0
   -0.7604    2.9552   -0.1747 H   0  0  0  0  0  0  0  0  0  0  0  0
   12.6799   -2.2028    1.0289 H   0  0  0  0  0  0  0  0  0  0  0  0
   -0.0315   -1.5238   -1.2756 H   0  0  0  0  0  0  0  0  0  0  0  0
   -1.4955   -2.3600   -0.7066 H   0  0  0  0  0  0  0  0  0  0  0  0
   -1.6333   -0.8026   -1.5576 H   0  0  0  0  0  0  0  0  0  0  0  0
  1  2  2  0  0  0  0 
  1  3  1  0  0  0  0 
  4  2  1  0  0  0  0 
  3  5  2  0  0  0  0 
  3  6  1  0  0  0  0 
  4  7  1  0  0  0  0 
  4  8  1  0  0  0  0 
  5  9  1  0  0  0  0 
  5 10  1  0  0  0  0 
  6 11  1  0  0  0  0 
  6 12  2  0  0  0  0 
 13  7  1  0  0  0  0 
  9 14  2  0  0  0  0 
 10 15  2  0  0  0  0 
 10 16  1  0  0  0  0 
 11 17  1  0  0  0  0 
 11 18  1  0  0  0  0 
 12 14  1  0  0  0  0 
 13 19  1  0  0  0  0 
 13 20  1  0  0  0  0 
 14 21  1  0  0  0  0 
 15 22  1  0  0  0  0 
 16 23  2  0  0  0  0 
 19 24  1  0  0  0  0 
 21 25  1  0  0  0  0 
 21 26  1  0  0  0  0 
 22 27  2  0  0  0  0 
 23 27  1  0  0  0  0 
 24 28  1  0  0  0  0 
 24 29  2  0  0  0  0 
 25 30  1  0  0  0  0 
 25 31  2  0  0  0  0 
 25 32  2  0  0  0  0 
 27 33  1  0  0  0  0 
  1 34  1  0  0  0  0 
  2 35  1  0  0  0  0 
  4 36  1  0  0  0  0 
  7 37  1  0  0  0  0 
  7 38  1  0  0  0  0 
  8 39  1  0  0  0  0 
 11 40  1  0  0  0  0 
 13 41  1  0  0  0  0 
 15 42  1  0  0  0  0 
 16 43  1  0  0  0  0 
 17 44  1  0  0  0  0 
 17 45  1  0  0  0  0 
 17 46  1  0  0  0  0 
 18 47  1  0  0  0  0 
 18 48  1  0  0  0  0 
 18 49  1  0  0  0  0 
 19 50  1  0  0  0  0 
 19 51  1  0  0  0  0 
 20 52  1  0  0  0  0 
 22 53  1  0  0  0  0 
 23 54  1  0  0  0  0 
 26 55  1  0  0  0  0 
 26 56  1  0  0  0  0 
 26 57  1  0  0  0  0 
 28 58  1  0  0  0  0 
 30 59  1  0  0  0  0 
 30 60  1  0  0  0  0 
 30 61  1  0  0  0  0 
M  END
> <cdk:Title>
rosuvastatin

> <Conformer>
1

> <SuperDrugID>
SD002166

$$$$
