calcipotriene
  CDK     0628171802

 70 73  0  0  0  0  0  0  0  0999 V2000
    8.8035   -5.3058    3.9614 C   0  0  0  0  0  0  0  0  0  0  0  0
   10.1314   -5.0542    3.1430 C   0  0  2  0  0  0  0  0  0  0  0  0
    9.8545   -4.4326    1.7256 C   0  0  2  0  0  0  0  0  0  0  0  0
   10.8417   -6.4113    2.7556 C   0  0  1  0  0  0  0  0  0  0  0  0
   11.0467   -4.0251    3.9065 C   0  0  1  0  0  0  0  0  0  0  0  0
    9.1381   -3.1377    1.8455 C   0  0  0  0  0  0  0  0  0  0  0  0
    9.3153   -5.6323    0.9094 C   0  0  1  0  0  0  0  0  0  0  0  0
   10.8970   -7.5754    3.8218 C   0  0  1  0  0  0  0  0  0  0  0  0
   10.1551   -6.8284    1.4100 C   0  0  1  0  0  0  0  0  0  0  0  0
   10.4360   -2.5928    3.9429 C   0  0  1  0  0  0  0  0  0  0  0  0
    7.8748   -2.9729    1.3811 C   0  0  0  0  0  0  0  0  0  0  0  0
    9.9356   -2.1129    2.5520 C   0  0  2  0  0  0  0  0  0  0  0  0
   11.4762   -8.7959    3.2508 C   0  0  0  0  0  0  0  0  0  0  0  0
   11.6870   -7.2234    5.1184 C   0  0  0  0  0  0  0  0  0  0  0  0
    7.0145   -1.9242    1.5871 C   0  0  0  0  0  0  0  0  0  0  0  0
   10.7685   -9.9163    3.0257 C   0  0  0  0  0  0  0  0  0  0  0  0
    5.6871   -1.9123    1.3032 C   0  0  0  0  0  0  0  0  0  0  0  0
   11.3499  -11.1477    2.5183 C   0  0  1  0  0  0  0  0  0  0  0  0
    5.0028   -2.9556    0.7175 C   0  0  0  0  0  0  0  0  0  0  0  0
    4.8530   -0.7243    1.5551 C   0  0  2  0  0  0  0  0  0  0  0  0
   10.3313  -12.1382    2.3991 O   0  0  0  0  0  0  0  0  0  0  0  0
   12.0171  -11.0095    1.0935 C   0  0  1  0  0  0  0  0  0  0  0  0
    4.8400   -4.1310    1.3541 C   0  0  0  0  0  0  0  0  0  0  0  0
    4.4248   -2.6619   -0.6035 C   0  0  1  0  0  0  0  0  0  0  0  0
    4.1561   -0.2402    0.2477 C   0  0  2  0  0  0  0  0  0  0  0  0
   13.5462  -10.7517    1.0424 C   0  0  2  0  0  0  0  0  0  0  0  0
   12.9788  -12.1374    0.5206 C   0  0  1  0  0  0  0  0  0  0  0  0
    3.7020   -3.7452   -1.1923 O   0  0  0  0  0  0  0  0  0  0  0  0
    3.4817   -1.4248   -0.5058 C   0  0  1  0  0  0  0  0  0  0  0  0
    5.1056    0.3982   -0.6050 O   0  0  0  0  0  0  0  0  0  0  0  0
   10.8125   -4.1966    1.2386 H   0  0  0  0  0  0  0  0  0  0  0  0
   11.8816   -6.1715    2.5058 H   0  0  0  0  0  0  0  0  0  0  0  0
    9.0247   -5.6522    4.9709 H   0  0  0  0  0  0  0  0  0  0  0  0
    8.1729   -6.0583    3.4865 H   0  0  0  0  0  0  0  0  0  0  0  0
    8.2024   -4.4024    4.0587 H   0  0  0  0  0  0  0  0  0  0  0  0
   11.2252   -4.3421    4.9324 H   0  0  0  0  0  0  0  0  0  0  0  0
   12.0213   -3.9627    3.4138 H   0  0  0  0  0  0  0  0  0  0  0  0
    8.2607   -5.8237    1.1188 H   0  0  0  0  0  0  0  0  0  0  0  0
    9.4325   -5.4765   -0.1663 H   0  0  0  0  0  0  0  0  0  0  0  0
    9.8733   -7.7892    4.1416 H   0  0  0  0  0  0  0  0  0  0  0  0
   10.9135   -7.0882    0.6639 H   0  0  0  0  0  0  0  0  0  0  0  0
    9.4958   -7.6905    1.5373 H   0  0  0  0  0  0  0  0  0  0  0  0
    9.6036   -2.5670    4.6495 H   0  0  0  0  0  0  0  0  0  0  0  0
   11.1916   -1.8931    4.3119 H   0  0  0  0  0  0  0  0  0  0  0  0
    7.5124   -3.7145    0.8391 H   0  0  0  0  0  0  0  0  0  0  0  0
    9.4249   -1.1629    2.6925 H   0  0  0  0  0  0  0  0  0  0  0  0
   10.8126   -1.8860    1.9388 H   0  0  0  0  0  0  0  0  0  0  0  0
   12.4459   -8.7911    3.0319 H   0  0  0  0  0  0  0  0  0  0  0  0
   11.8065   -8.1035    5.7569 H   0  0  0  0  0  0  0  0  0  0  0  0
   11.1555   -6.4846    5.7147 H   0  0  0  0  0  0  0  0  0  0  0  0
   12.6771   -6.8294    4.8785 H   0  0  0  0  0  0  0  0  0  0  0  0
    7.3821   -1.0983    1.9873 H   0  0  0  0  0  0  0  0  0  0  0  0
    9.7953   -9.9131    3.2350 H   0  0  0  0  0  0  0  0  0  0  0  0
   12.0737  -11.5190    3.2484 H   0  0  0  0  0  0  0  0  0  0  0  0
    5.4185    0.1116    1.9782 H   0  0  0  0  0  0  0  0  0  0  0  0
    4.0855   -0.9848    2.2913 H   0  0  0  0  0  0  0  0  0  0  0  0
   10.7888  -12.9404    2.0695 H   0  0  0  0  0  0  0  0  0  0  0  0
   11.4498  -10.3443    0.3898 H   0  0  0  0  0  0  0  0  0  0  0  0
    5.2216   -4.2840    2.2590 H   0  0  0  0  0  0  0  0  0  0  0  0
    4.3366   -4.8782    0.9397 H   0  0  0  0  0  0  0  0  0  0  0  0
    5.2448   -2.4285   -1.2906 H   0  0  0  0  0  0  0  0  0  0  0  0
    3.3944    0.5029    0.4972 H   0  0  0  0  0  0  0  0  0  0  0  0
   14.0212  -10.6565    2.0497 H   0  0  0  0  0  0  0  0  0  0  0  0
   13.8116   -9.9267    0.3365 H   0  0  0  0  0  0  0  0  0  0  0  0
   13.1596  -12.9941    1.1717 H   0  0  0  0  0  0  0  0  0  0  0  0
   12.9808  -12.2704   -0.5617 H   0  0  0  0  0  0  0  0  0  0  0  0
    3.4146   -3.4137   -2.0685 H   0  0  0  0  0  0  0  0  0  0  0  0
    3.1901   -1.1023   -1.5094 H   0  0  0  0  0  0  0  0  0  0  0  0
    2.5704   -1.7134    0.0279 H   0  0  0  0  0  0  0  0  0  0  0  0
    5.4213    1.1736   -0.0939 H   0  0  0  0  0  0  0  0  0  0  0  0
  2  1  1  0  0  0  0 
  2  3  1  0  0  0  0 
  4  2  1  0  0  0  0 
  2  5  1  0  0  0  0 
  3  6  1  0  0  0  0 
  3  7  1  0  0  0  0 
  3 31  1  0  0  0  0 
  8  4  1  0  0  0  0 
  4  9  1  0  0  0  0 
  4 32  1  0  0  0  0 
  5 10  1  0  0  0  0 
  6 11  2  0  0  0  0 
  6 12  1  0  0  0  0 
  7  9  1  0  0  0  0 
  8 13  1  0  0  0  0 
  8 14  1  0  0  0  0 
 10 12  1  0  0  0  0 
 11 15  1  0  0  0  0 
 13 16  2  0  0  0  0 
 15 17  2  0  0  0  0 
 18 16  1  0  0  0  0 
 17 19  1  0  0  0  0 
 17 20  1  0  0  0  0 
 18 21  1  0  0  0  0 
 18 22  1  0  0  0  0 
 19 23  2  0  0  0  0 
 24 19  1  0  0  0  0 
 25 20  1  0  0  0  0 
 22 26  1  0  0  0  0 
 22 27  1  0  0  0  0 
 24 28  1  0  0  0  0 
 24 29  1  0  0  0  0 
 25 29  1  0  0  0  0 
 25 30  1  0  0  0  0 
 26 27  1  0  0  0  0 
  1 33  1  0  0  0  0 
  1 34  1  0  0  0  0 
  1 35  1  0  0  0  0 
  5 36  1  0  0  0  0 
  5 37  1  0  0  0  0 
  7 38  1  0  0  0  0 
  7 39  1  0  0  0  0 
  8 40  1  0  0  0  0 
  9 41  1  0  0  0  0 
  9 42  1  0  0  0  0 
 10 43  1  0  0  0  0 
 10 44  1  0  0  0  0 
 11 45  1  0  0  0  0 
 12 46  1  0  0  0  0 
 12 47  1  0  0  0  0 
 13 48  1  0  0  0  0 
 14 49  1  0  0  0  0 
 14 50  1  0  0  0  0 
 14 51  1  0  0  0  0 
 15 52  1  0  0  0  0 
 16 53  1  0  0  0  0 
 18 54  1  0  0  0  0 
 20 55  1  0  0  0  0 
 20 56  1  0  0  0  0 
 21 57  1  0  0  0  0 
 22 58  1  0  0  0  0 
 23 59  1  0  0  0  0 
 23 60  1  0  0  0  0 
 24 61  1  0  0  0  0 
 25 62  1  0  0  0  0 
 26 63  1  0  0  0  0 
 26 64  1  0  0  0  0 
 27 65  1  0  0  0  0 
 27 66  1  0  0  0  0 
 28 67  1  0  0  0  0 
 29 68  1  0  0  0  0 
 29 69  1  0  0  0  0 
 30 70  1  0  0  0  0 
M  END
> <cdk:Title>
calcipotriene

> <Conformer>
1

> <SuperDrugID>
SD000405

$$$$
