manidipine
  CDK     0628171801

 83 87  0  0  0  0  0  0  0  0999 V2000
   -1.7930    1.2661    0.3270 C   0  0  0  0  0  0  0  0  0  0  0  0
   -0.4597    0.9794    0.4228 O   0  0  0  0  0  0  0  0  0  0  0  0
   -2.5732    0.2837    0.3780 O   0  0  0  0  0  0  0  0  0  0  0  0
   -2.3008    2.5788    0.1831 C   0  0  0  0  0  0  0  0  0  0  0  0
    0.1331   -0.3243    0.4999 C   0  0  2  0  0  0  0  0  0  0  0  0
   -3.7506    2.7466   -0.1269 C   0  0  1  0  0  0  0  0  0  0  0  0
   -1.5496    3.7046    0.3210 C   0  0  0  0  0  0  0  0  0  0  0  0
    1.6670   -0.2171    0.6519 C   0  0  1  0  0  0  0  0  0  0  0  0
   -4.3230    4.1166    0.0344 C   0  0  0  0  0  0  0  0  0  0  0  0
   -4.0435    2.2342   -1.5193 C   0  0  0  0  0  0  0  0  0  0  0  0
   -0.1155    3.7497    0.5969 C   0  0  0  0  0  0  0  0  0  0  0  0
   -2.1332    4.9068    0.2209 N   0  0  0  0  0  0  0  0  0  0  0  0
    2.3342    0.6924   -0.3364 N   0  0  1  0  0  0  0  0  0  0  0  0
   -5.7313    4.2605   -0.0062 C   0  0  0  0  0  0  0  0  0  0  0  0
   -3.4499    5.1504    0.1814 C   0  0  0  0  0  0  0  0  0  0  0  0
   -3.6801    2.9876   -2.6646 C   0  0  0  0  0  0  0  0  0  0  0  0
   -4.6990    0.9973   -1.7257 C   0  0  0  0  0  0  0  0  0  0  0  0
    3.7577    0.9765    0.0223 C   0  0  1  0  0  0  0  0  0  0  0  0
    2.2048    0.2688   -1.7633 C   0  0  1  0  0  0  0  0  0  0  0  0
   -6.3525    5.4755   -0.0933 O   0  0  0  0  0  0  0  0  0  0  0  0
   -6.4780    3.2504    0.0252 O   0  0  0  0  0  0  0  0  0  0  0  0
   -3.8001    6.5620    0.3076 C   0  0  0  0  0  0  0  0  0  0  0  0
   -3.9918    2.5684   -3.9848 C   0  0  0  0  0  0  0  0  0  0  0  0
   -4.9470    0.5179   -3.0227 C   0  0  0  0  0  0  0  0  0  0  0  0
    4.3860    2.0138   -0.9422 C   0  0  1  0  0  0  0  0  0  0  0  0
    2.8518    1.2991   -2.7222 C   0  0  2  0  0  0  0  0  0  0  0  0
   -7.7525    5.7435   -0.2144 C   0  0  0  0  0  0  0  0  0  0  0  0
   -3.7343    3.3575   -5.0472 N   0  0  0  0  0  0  0  0  0  0  0  0
   -4.6047    1.2983   -4.1396 C   0  0  0  0  0  0  0  0  0  0  0  0
    4.2896    1.5664   -2.3746 N   0  0  1  0  0  0  0  0  0  0  0  0
   -3.8909    3.0103   -6.1534 O   0  0  0  0  0  0  0  0  0  0  0  0
   -3.3316    4.5600   -4.9248 O   0  0  0  0  0  0  0  0  0  0  0  0
    5.0231    2.4703   -3.3484 C   0  0  1  0  0  0  0  0  0  0  0  0
    6.4996    2.5890   -3.0853 C   0  0  0  0  0  0  0  0  0  0  0  0
    4.8468    2.0822   -4.7917 C   0  0  0  0  0  0  0  0  0  0  0  0
    7.1673    3.8295   -3.2486 C   0  0  0  0  0  0  0  0  0  0  0  0
    7.2717    1.4713   -2.6770 C   0  0  0  0  0  0  0  0  0  0  0  0
    5.2192    0.7949   -5.2555 C   0  0  0  0  0  0  0  0  0  0  0  0
    4.2702    2.9809   -5.7255 C   0  0  0  0  0  0  0  0  0  0  0  0
    8.5506    3.9479   -3.0124 C   0  0  0  0  0  0  0  0  0  0  0  0
    8.6535    1.5877   -2.4383 C   0  0  0  0  0  0  0  0  0  0  0  0
    5.0326    0.4226   -6.5991 C   0  0  0  0  0  0  0  0  0  0  0  0
    4.0792    2.6089   -7.0698 C   0  0  0  0  0  0  0  0  0  0  0  0
    9.2942    2.8266   -2.6082 C   0  0  0  0  0  0  0  0  0  0  0  0
    4.4609    1.3296   -7.5067 C   0  0  0  0  0  0  0  0  0  0  0  0
   -0.1198   -0.8904   -0.3977 H   0  0  0  0  0  0  0  0  0  0  0  0
   -0.2758   -0.8599    1.3596 H   0  0  0  0  0  0  0  0  0  0  0  0
   -4.2708    2.1333    0.6235 H   0  0  0  0  0  0  0  0  0  0  0  0
    1.8477    0.1601    1.6637 H   0  0  0  0  0  0  0  0  0  0  0  0
    2.0950   -1.2222    0.5960 H   0  0  0  0  0  0  0  0  0  0  0  0
    0.4330    3.2829   -0.2240 H   0  0  0  0  0  0  0  0  0  0  0  0
    0.1058    3.2314    1.5327 H   0  0  0  0  0  0  0  0  0  0  0  0
    0.2600    4.7706    0.7014 H   0  0  0  0  0  0  0  0  0  0  0  0
   -1.5442    5.6782    0.1981 H   0  0  0  0  0  0  0  0  0  0  0  0
   -3.1924    3.8779   -2.5290 H   0  0  0  0  0  0  0  0  0  0  0  0
   -4.9977    0.4290   -0.9313 H   0  0  0  0  0  0  0  0  0  0  0  0
    3.8072    1.3869    1.0347 H   0  0  0  0  0  0  0  0  0  0  0  0
    4.3512    0.0559    0.0042 H   0  0  0  0  0  0  0  0  0  0  0  0
    2.6686   -0.7111   -1.9159 H   0  0  0  0  0  0  0  0  0  0  0  0
    1.1517    0.1920   -2.0390 H   0  0  0  0  0  0  0  0  0  0  0  0
   -4.2883    6.9044   -0.6077 H   0  0  0  0  0  0  0  0  0  0  0  0
   -2.9241    7.1986    0.4678 H   0  0  0  0  0  0  0  0  0  0  0  0
   -4.4640    6.7142    1.1613 H   0  0  0  0  0  0  0  0  0  0  0  0
   -5.3874   -0.3950   -3.1600 H   0  0  0  0  0  0  0  0  0  0  0  0
    3.8793    2.9762   -0.8096 H   0  0  0  0  0  0  0  0  0  0  0  0
    5.4284    2.1450   -0.6451 H   0  0  0  0  0  0  0  0  0  0  0  0
    2.2760    2.2294   -2.6923 H   0  0  0  0  0  0  0  0  0  0  0  0
    2.7648    0.8879   -3.7299 H   0  0  0  0  0  0  0  0  0  0  0  0
   -8.1301    5.3299   -1.1531 H   0  0  0  0  0  0  0  0  0  0  0  0
   -7.8995    6.8246   -0.2185 H   0  0  0  0  0  0  0  0  0  0  0  0
   -8.2981    5.3112    0.6236 H   0  0  0  0  0  0  0  0  0  0  0  0
   -4.8251    0.9346   -5.0717 H   0  0  0  0  0  0  0  0  0  0  0  0
    4.5850    3.4660   -3.2029 H   0  0  0  0  0  0  0  0  0  0  0  0
    6.6502    4.6604   -3.5454 H   0  0  0  0  0  0  0  0  0  0  0  0
    6.8331    0.5582   -2.5453 H   0  0  0  0  0  0  0  0  0  0  0  0
    5.6216    0.1090   -4.6156 H   0  0  0  0  0  0  0  0  0  0  0  0
    3.9775    3.9163   -5.4335 H   0  0  0  0  0  0  0  0  0  0  0  0
    9.0162    4.8507   -3.1312 H   0  0  0  0  0  0  0  0  0  0  0  0
    9.1925    0.7709   -2.1424 H   0  0  0  0  0  0  0  0  0  0  0  0
    5.3108   -0.5089   -6.9148 H   0  0  0  0  0  0  0  0  0  0  0  0
    3.6618    3.2685   -7.7302 H   0  0  0  0  0  0  0  0  0  0  0  0
   10.2995    2.9117   -2.4381 H   0  0  0  0  0  0  0  0  0  0  0  0
    4.3208    1.0580   -8.4826 H   0  0  0  0  0  0  0  0  0  0  0  0
  1  2  1  0  0  0  0 
  1  3  2  0  0  0  0 
  1  4  1  0  0  0  0 
  2  5  1  0  0  0  0 
  6  4  1  0  0  0  0 
  4  7  2  0  0  0  0 
  5  8  1  0  0  0  0 
  6  9  1  0  0  0  0 
  6 10  1  0  0  0  0 
  7 11  1  0  0  0  0 
  7 12  1  0  0  0  0 
  8 13  1  0  0  0  0 
  9 14  1  0  0  0  0 
  9 15  2  0  0  0  0 
 10 16  2  0  0  0  0 
 10 17  1  0  0  0  0 
 12 15  1  0  0  0  0 
 13 18  1  0  0  0  0 
 13 19  1  0  0  0  0 
 14 20  1  0  0  0  0 
 14 21  2  0  0  0  0 
 15 22  1  0  0  0  0 
 16 23  1  0  0  0  0 
 17 24  2  0  0  0  0 
 18 25  1  0  0  0  0 
 19 26  1  0  0  0  0 
 20 27  1  0  0  0  0 
 23 28  1  0  0  0  0 
 23 29  2  0  0  0  0 
 24 29  1  0  0  0  0 
 25 30  1  0  0  0  0 
 26 30  1  0  0  0  0 
 28 31  2  0  0  0  0 
 28 32  1  0  0  0  0 
 30 33  1  0  0  0  0 
 33 34  1  0  0  0  0 
 33 35  1  0  0  0  0 
 34 36  2  0  0  0  0 
 34 37  1  0  0  0  0 
 35 38  2  0  0  0  0 
 35 39  1  0  0  0  0 
 36 40  1  0  0  0  0 
 37 41  2  0  0  0  0 
 38 42  1  0  0  0  0 
 39 43  2  0  0  0  0 
 40 44  2  0  0  0  0 
 41 44  1  0  0  0  0 
 42 45  2  0  0  0  0 
 43 45  1  0  0  0  0 
 46  5  1  0  0  0  0 
 47  5  1  0  0  0  0 
 48  6  1  0  0  0  0 
 49  8  1  0  0  0  0 
 50  8  1  0  0  0  0 
 51 11  1  0  0  0  0 
 52 11  1  0  0  0  0 
 53 11  1  0  0  0  0 
 54 12  1  0  0  0  0 
 55 16  1  0  0  0  0 
 56 17  1  0  0  0  0 
 57 18  1  0  0  0  0 
 58 18  1  0  0  0  0 
 59 19  1  0  0  0  0 
 60 19  1  0  0  0  0 
 61 22  1  0  0  0  0 
 62 22  1  0  0  0  0 
 63 22  1  0  0  0  0 
 64 24  1  0  0  0  0 
 65 25  1  0  0  0  0 
 66 25  1  0  0  0  0 
 67 26  1  0  0  0  0 
 68 26  1  0  0  0  0 
 69 27  1  0  0  0  0 
 70 27  1  0  0  0  0 
 71 27  1  0  0  0  0 
 72 29  1  0  0  0  0 
 73 33  1  0  0  0  0 
 74 36  1  0  0  0  0 
 75 37  1  0  0  0  0 
 76 38  1  0  0  0  0 
 77 39  1  0  0  0  0 
 78 40  1  0  0  0  0 
 79 41  1  0  0  0  0 
 80 42  1  0  0  0  0 
 81 43  1  0  0  0  0 
 82 44  1  0  0  0  0 
 83 45  1  0  0  0  0 
M  CHG  1  28   1
M  CHG  1  32  -1
M  END
> <cdk:Title>
manidipine

> <Conformer>
1

> <SuperDrugID>
SD001443

$$$$
