oxydibutanol
  CDK     0628171802

 29 28  0  0  0  0  0  0  0  0999 V2000
   -4.5274   -0.1726   -4.1691 C   0  0  0  0  0  0  0  0  0  0  0  0
   -4.1991    0.2244   -2.7102 C   0  0  1  0  0  0  0  0  0  0  0  0
   -3.7352   -0.9435   -2.0355 O   0  0  0  0  0  0  0  0  0  0  0  0
   -3.1478    1.3707   -2.6115 C   0  0  1  0  0  0  0  0  0  0  0  0
   -2.8605    1.8196   -1.1572 C   0  0  2  0  0  0  0  0  0  0  0  0
   -1.9039    2.9006   -1.1530 O   0  0  0  0  0  0  0  0  0  0  0  0
   -1.5579    3.3696    0.1672 C   0  0  2  0  0  0  0  0  0  0  0  0
   -0.4375    4.4344    0.0977 C   0  0  1  0  0  0  0  0  0  0  0  0
    0.8720    3.9287   -0.5747 C   0  0  1  0  0  0  0  0  0  0  0  0
    1.9516    5.0330   -0.6490 C   0  0  0  0  0  0  0  0  0  0  0  0
    1.4191    2.8207    0.1389 O   0  0  0  0  0  0  0  0  0  0  0  0
   -5.2818   -0.9629   -4.1783 H   0  0  0  0  0  0  0  0  0  0  0  0
   -3.6345   -0.5430   -4.6762 H   0  0  0  0  0  0  0  0  0  0  0  0
   -4.9205    0.6830   -4.7218 H   0  0  0  0  0  0  0  0  0  0  0  0
   -5.1282    0.5448   -2.2296 H   0  0  0  0  0  0  0  0  0  0  0  0
   -3.6555   -0.6800   -1.0965 H   0  0  0  0  0  0  0  0  0  0  0  0
   -2.2101    1.0426   -3.0692 H   0  0  0  0  0  0  0  0  0  0  0  0
   -3.5109    2.2375   -3.1711 H   0  0  0  0  0  0  0  0  0  0  0  0
   -2.4606    0.9692   -0.5973 H   0  0  0  0  0  0  0  0  0  0  0  0
   -3.7959    2.1437   -0.6911 H   0  0  0  0  0  0  0  0  0  0  0  0
   -1.2075    2.5448    0.7952 H   0  0  0  0  0  0  0  0  0  0  0  0
   -2.4357    3.8207    0.6414 H   0  0  0  0  0  0  0  0  0  0  0  0
   -0.8163    5.2993   -0.4546 H   0  0  0  0  0  0  0  0  0  0  0  0
   -0.2152    4.7620    1.1181 H   0  0  0  0  0  0  0  0  0  0  0  0
    0.6566    3.5994   -1.5955 H   0  0  0  0  0  0  0  0  0  0  0  0
    1.5829    5.8849   -1.2236 H   0  0  0  0  0  0  0  0  0  0  0  0
    2.2246    5.3710    0.3527 H   0  0  0  0  0  0  0  0  0  0  0  0
    2.8462    4.6461   -1.1408 H   0  0  0  0  0  0  0  0  0  0  0  0
    0.7659    2.0992    0.0318 H   0  0  0  0  0  0  0  0  0  0  0  0
  1  2  1  0  0  0  0 
  2  3  1  0  0  0  0 
  2  4  1  0  0  0  0 
  4  5  1  0  0  0  0 
  5  6  1  0  0  0  0 
  6  7  1  0  0  0  0 
  7  8  1  0  0  0  0 
  8  9  1  0  0  0  0 
  9 10  1  0  0  0  0 
  9 11  1  0  0  0  0 
  1 12  1  0  0  0  0 
  1 13  1  0  0  0  0 
  1 14  1  0  0  0  0 
  2 15  1  0  0  0  0 
  3 16  1  0  0  0  0 
  4 17  1  0  0  0  0 
  4 18  1  0  0  0  0 
  5 19  1  0  0  0  0 
  5 20  1  0  0  0  0 
  7 21  1  0  0  0  0 
  7 22  1  0  0  0  0 
  8 23  1  0  0  0  0 
  8 24  1  0  0  0  0 
  9 25  1  0  0  0  0 
 10 26  1  0  0  0  0 
 10 27  1  0  0  0  0 
 10 28  1  0  0  0  0 
 11 29  1  0  0  0  0 
M  END
> <cdk:Title>
oxydibutanol

> <Conformer>
1

> <SuperDrugID>
SD000793

$$$$
