camostat
  CDK     0628171802

 51 52  0  0  0  0  0  0  0  0999 V2000
   -0.5738    4.9377    0.9730 C   0  0  0  0  0  0  0  0  0  0  0  0
   -1.6668    5.5231    0.3983 O   0  0  0  0  0  0  0  0  0  0  0  0
    0.2804    5.6210    1.5877 O   0  0  0  0  0  0  0  0  0  0  0  0
   -0.3816    3.5493    0.8065 C   0  0  0  0  0  0  0  0  0  0  0  0
   -2.1628    6.7872    0.5426 C   0  0  0  0  0  0  0  0  0  0  0  0
   -1.4939    2.6765    0.8071 C   0  0  0  0  0  0  0  0  0  0  0  0
    0.9119    2.9951    0.6760 C   0  0  0  0  0  0  0  0  0  0  0  0
   -2.0733    7.5165    1.7474 C   0  0  0  0  0  0  0  0  0  0  0  0
   -2.8476    7.3499   -0.5499 C   0  0  0  0  0  0  0  0  0  0  0  0
   -1.3132    1.2848    0.7299 C   0  0  0  0  0  0  0  0  0  0  0  0
    1.0916    1.6026    0.5867 C   0  0  0  0  0  0  0  0  0  0  0  0
   -2.6690    8.7849    1.8586 C   0  0  0  0  0  0  0  0  0  0  0  0
   -3.4308    8.6256   -0.4445 C   0  0  0  0  0  0  0  0  0  0  0  0
   -0.0214    0.7288    0.6332 C   0  0  0  0  0  0  0  0  0  0  0  0
   -3.3567    9.3593    0.7651 C   0  0  0  0  0  0  0  0  0  0  0  0
    0.0479   -0.5992    0.6612 N   0  0  0  0  0  0  0  0  0  0  0  0
   -4.0242   10.6803    0.9146 C   0  0  2  0  0  0  0  0  0  0  0  0
    0.8937   -1.4647    0.2314 C   0  0  0  0  0  0  0  0  0  0  0  0
   -3.1126   11.7877    1.2709 C   0  0  0  0  0  0  0  0  0  0  0  0
    1.9611   -1.1936   -0.4902 N   0  0  0  0  0  0  0  0  0  0  0  0
    0.6547   -2.7226    0.5187 N   0  0  0  0  0  0  0  0  0  0  0  0
   -3.3823   12.5185    2.3950 O   0  0  0  0  0  0  0  0  0  0  0  0
   -2.1357   12.0586    0.5339 O   0  0  0  0  0  0  0  0  0  0  0  0
   -2.7126   13.6899    2.8833 C   0  0  1  0  0  0  0  0  0  0  0  0
   -2.1752   13.5024    4.2527 C   0  0  0  0  0  0  0  0  0  0  0  0
   -2.9396   13.1999    5.3757 N   0  0  0  0  0  0  0  0  0  0  0  0
   -0.9360   13.6730    4.3672 O   0  0  0  0  0  0  0  0  0  0  0  0
   -2.3003   13.1933    6.6753 C   0  0  0  0  0  0  0  0  0  0  0  0
   -4.3515   12.8955    5.2753 C   0  0  0  0  0  0  0  0  0  0  0  0
   -2.4475    3.0394    0.8912 H   0  0  0  0  0  0  0  0  0  0  0  0
    1.7355    3.6025    0.6522 H   0  0  0  0  0  0  0  0  0  0  0  0
   -1.5986    7.1189    2.5596 H   0  0  0  0  0  0  0  0  0  0  0  0
   -2.9253    6.8307   -1.4284 H   0  0  0  0  0  0  0  0  0  0  0  0
   -2.1380    0.6779    0.7548 H   0  0  0  0  0  0  0  0  0  0  0  0
    2.0446    1.2429    0.5195 H   0  0  0  0  0  0  0  0  0  0  0  0
   -2.6092    9.2806    2.7518 H   0  0  0  0  0  0  0  0  0  0  0  0
   -3.9241    9.0045   -1.2564 H   0  0  0  0  0  0  0  0  0  0  0  0
   -4.7888   10.5841    1.6892 H   0  0  0  0  0  0  0  0  0  0  0  0
   -4.5425   10.9582   -0.0058 H   0  0  0  0  0  0  0  0  0  0  0  0
    2.5871   -1.9011   -0.7138 H   0  0  0  0  0  0  0  0  0  0  0  0
    2.1157   -0.2953   -0.8182 H   0  0  0  0  0  0  0  0  0  0  0  0
    1.2702   -3.4140    0.2266 H   0  0  0  0  0  0  0  0  0  0  0  0
   -0.1364   -2.9627    1.0277 H   0  0  0  0  0  0  0  0  0  0  0  0
   -1.9182   14.0037    2.1985 H   0  0  0  0  0  0  0  0  0  0  0  0
   -3.4388   14.5005    2.9125 H   0  0  0  0  0  0  0  0  0  0  0  0
   -1.4376   12.5237    6.6718 H   0  0  0  0  0  0  0  0  0  0  0  0
   -1.9583   14.2044    6.9157 H   0  0  0  0  0  0  0  0  0  0  0  0
   -2.9544   12.8605    7.4837 H   0  0  0  0  0  0  0  0  0  0  0  0
   -4.8751   13.6625    4.7012 H   0  0  0  0  0  0  0  0  0  0  0  0
   -4.4835   11.9293    4.7833 H   0  0  0  0  0  0  0  0  0  0  0  0
   -4.8496   12.8350    6.2463 H   0  0  0  0  0  0  0  0  0  0  0  0
  1  2  1  0  0  0  0 
  1  3  2  0  0  0  0 
  1  4  1  0  0  0  0 
  2  5  1  0  0  0  0 
  4  6  2  0  0  0  0 
  4  7  1  0  0  0  0 
  5  8  2  0  0  0  0 
  5  9  1  0  0  0  0 
  6 10  1  0  0  0  0 
  7 11  2  0  0  0  0 
  8 12  1  0  0  0  0 
  9 13  2  0  0  0  0 
 10 14  2  0  0  0  0 
 11 14  1  0  0  0  0 
 12 15  2  0  0  0  0 
 13 15  1  0  0  0  0 
 14 16  1  0  0  0  0 
 15 17  1  0  0  0  0 
 16 18  2  0  0  0  0 
 17 19  1  0  0  0  0 
 18 20  1  0  0  0  0 
 18 21  1  0  0  0  0 
 19 22  1  0  0  0  0 
 19 23  2  0  0  0  0 
 22 24  1  0  0  0  0 
 24 25  1  0  0  0  0 
 25 26  1  0  0  0  0 
 25 27  2  0  0  0  0 
 26 28  1  0  0  0  0 
 26 29  1  0  0  0  0 
 30  6  1  0  0  0  0 
 31  7  1  0  0  0  0 
 32  8  1  0  0  0  0 
 33  9  1  0  0  0  0 
 34 10  1  0  0  0  0 
 35 11  1  0  0  0  0 
 36 12  1  0  0  0  0 
 37 13  1  0  0  0  0 
 38 17  1  0  0  0  0 
 39 17  1  0  0  0  0 
 40 20  1  0  0  0  0 
 41 20  1  0  0  0  0 
 42 21  1  0  0  0  0 
 43 21  1  0  0  0  0 
 44 24  1  0  0  0  0 
 45 24  1  0  0  0  0 
 46 28  1  0  0  0  0 
 47 28  1  0  0  0  0 
 48 28  1  0  0  0  0 
 49 29  1  0  0  0  0 
 50 29  1  0  0  0  0 
 51 29  1  0  0  0  0 
M  END
> <cdk:Title>
camostat

> <Conformer>
1

> <SuperDrugID>
SD000410

$$$$
