cloxazolam
  CDK     0628171802

 37 40  0  0  0  0  0  0  0  0999 V2000
   -0.3044   -1.6065    0.3990 Cl  0  0  0  0  0  0  0  0  0  0  0  0
    0.2542   -0.0063    0.2656 C   0  0  0  0  0  0  0  0  0  0  0  0
   -0.6027    1.1302    0.1321 C   0  0  0  0  0  0  0  0  0  0  0  0
    1.6581    0.1443    0.2706 C   0  0  0  0  0  0  0  0  0  0  0  0
   -2.1168    1.0100    0.0675 C   0  0  1  0  0  0  0  0  0  0  0  0
    0.0320    2.3977   -0.0237 C   0  0  0  0  0  0  0  0  0  0  0  0
    2.2437    1.4113    0.1271 C   0  0  0  0  0  0  0  0  0  0  0  0
   -2.8418    2.3218    0.2795 C   0  0  0  0  0  0  0  0  0  0  0  0
   -2.4655    0.2475   -1.1526 N   0  0  0  0  0  0  0  0  0  0  0  0
   -2.6021    0.0975    1.0802 O   0  0  0  0  0  0  0  0  0  0  0  0
    1.4277    2.5405   -0.0193 C   0  0  0  0  0  0  0  0  0  0  0  0
   -3.5185    3.0841   -0.7235 C   0  0  0  0  0  0  0  0  0  0  0  0
   -2.7987    2.8421    1.6028 C   0  0  0  0  0  0  0  0  0  0  0  0
   -3.7200   -0.4929   -0.9268 C   0  0  2  0  0  0  0  0  0  0  0  0
   -2.1869    0.8252   -2.4829 C   0  0  1  0  0  0  0  0  0  0  0  0
   -3.8162   -0.4967    0.6052 C   0  0  1  0  0  0  0  0  0  0  0  0
   -3.6597    2.8253   -2.0605 N   0  0  0  0  0  0  0  0  0  0  0  0
   -4.1496    4.2974   -0.3535 C   0  0  0  0  0  0  0  0  0  0  0  0
   -3.4133    4.0570    1.9459 C   0  0  0  0  0  0  0  0  0  0  0  0
   -3.1408    1.8713   -2.8690 C   0  0  0  0  0  0  0  0  0  0  0  0
   -4.1056    4.7791    0.9638 C   0  0  0  0  0  0  0  0  0  0  0  0
   -3.3150    4.6503    3.5303 Cl  0  0  0  0  0  0  0  0  0  0  0  0
   -3.5188    1.9105   -4.0618 O   0  0  0  0  0  0  0  0  0  0  0  0
    2.2712   -0.6689    0.3718 H   0  0  0  0  0  0  0  0  0  0  0  0
   -0.5097    3.2527   -0.1607 H   0  0  0  0  0  0  0  0  0  0  0  0
    3.2604    1.5137    0.1248 H   0  0  0  0  0  0  0  0  0  0  0  0
    1.8438    3.4687   -0.1286 H   0  0  0  0  0  0  0  0  0  0  0  0
   -2.3014    2.3318    2.3387 H   0  0  0  0  0  0  0  0  0  0  0  0
   -3.6353   -1.5065   -1.3255 H   0  0  0  0  0  0  0  0  0  0  0  0
   -4.5877    0.0024   -1.3718 H   0  0  0  0  0  0  0  0  0  0  0  0
   -1.1808    1.2492   -2.5094 H   0  0  0  0  0  0  0  0  0  0  0  0
   -2.2058    0.0119   -3.2154 H   0  0  0  0  0  0  0  0  0  0  0  0
   -3.9082   -1.5073    1.0044 H   0  0  0  0  0  0  0  0  0  0  0  0
   -4.6664    0.0984    0.9453 H   0  0  0  0  0  0  0  0  0  0  0  0
   -4.2414    3.4484   -2.5276 H   0  0  0  0  0  0  0  0  0  0  0  0
   -4.6561    4.8573   -1.0475 H   0  0  0  0  0  0  0  0  0  0  0  0
   -4.5719    5.6595    1.1993 H   0  0  0  0  0  0  0  0  0  0  0  0
  1  2  1  0  0  0  0 
  2  3  2  0  0  0  0 
  2  4  1  0  0  0  0 
  5  3  1  0  0  0  0 
  3  6  1  0  0  0  0 
  4  7  2  0  0  0  0 
  5  8  1  0  0  0  0 
  5  9  1  0  0  0  0 
  5 10  1  0  0  0  0 
  6 11  2  0  0  0  0 
  7 11  1  0  0  0  0 
  8 12  2  0  0  0  0 
  8 13  1  0  0  0  0 
  9 14  1  0  0  0  0 
  9 15  1  0  0  0  0 
 10 16  1  0  0  0  0 
 12 17  1  0  0  0  0 
 12 18  1  0  0  0  0 
 13 19  2  0  0  0  0 
 14 16  1  0  0  0  0 
 15 20  1  0  0  0  0 
 17 20  1  0  0  0  0 
 18 21  2  0  0  0  0 
 19 21  1  0  0  0  0 
 19 22  1  0  0  0  0 
 20 23  2  0  0  0  0 
  4 24  1  0  0  0  0 
  6 25  1  0  0  0  0 
  7 26  1  0  0  0  0 
 11 27  1  0  0  0  0 
 13 28  1  0  0  0  0 
 14 29  1  0  0  0  0 
 14 30  1  0  0  0  0 
 15 31  1  0  0  0  0 
 15 32  1  0  0  0  0 
 16 33  1  0  0  0  0 
 16 34  1  0  0  0  0 
 17 35  1  0  0  0  0 
 18 36  1  0  0  0  0 
 21 37  1  0  0  0  0 
M  END
> <cdk:Title>
cloxazolam

> <Conformer>
1

> <SuperDrugID>
SD000638

$$$$
