trioxsalen
  CDK     0628171801

 29 31  0  0  0  0  0  0  0  0999 V2000
   -0.7435   -3.3834   -2.1167 C   0  0  0  0  0  0  0  0  0  0  0  0
   -1.3223   -2.0268   -2.2713 C   0  0  0  0  0  0  0  0  0  0  0  0
   -2.1855   -1.6859   -3.3451 C   0  0  0  0  0  0  0  0  0  0  0  0
   -1.0373   -1.0193   -1.3315 C   0  0  0  0  0  0  0  0  0  0  0  0
   -2.7428   -0.3736   -3.4869 C   0  0  0  0  0  0  0  0  0  0  0  0
   -2.4849   -2.6417   -4.2725 O   0  0  0  0  0  0  0  0  0  0  0  0
   -1.5775    0.2576   -1.4406 C   0  0  0  0  0  0  0  0  0  0  0  0
   -0.2526   -1.0845   -0.2307 O   0  0  0  0  0  0  0  0  0  0  0  0
   -2.4313    0.6031   -2.4994 C   0  0  0  0  0  0  0  0  0  0  0  0
   -3.5755   -0.1128   -4.6172 C   0  0  0  0  0  0  0  0  0  0  0  0
   -3.2851   -2.4242   -5.3474 C   0  0  0  0  0  0  0  0  0  0  0  0
   -1.1046    0.9926   -0.3614 C   0  0  0  0  0  0  0  0  0  0  0  0
   -0.2785    0.1330    0.3674 C   0  0  0  0  0  0  0  0  0  0  0  0
   -4.1802    1.2292   -4.8629 C   0  0  0  0  0  0  0  0  0  0  0  0
   -3.8391   -1.1523   -5.5418 C   0  0  0  0  0  0  0  0  0  0  0  0
   -3.5082   -3.3650   -6.1412 O   0  0  0  0  0  0  0  0  0  0  0  0
    0.4686    0.4523    1.5888 C   0  0  0  0  0  0  0  0  0  0  0  0
   -0.5401   -3.8356   -3.0887 H   0  0  0  0  0  0  0  0  0  0  0  0
    0.1996   -3.3565   -1.5674 H   0  0  0  0  0  0  0  0  0  0  0  0
   -1.4451   -4.0177   -1.5726 H   0  0  0  0  0  0  0  0  0  0  0  0
   -2.8074    1.5529   -2.5336 H   0  0  0  0  0  0  0  0  0  0  0  0
   -1.3200    1.9710   -0.1461 H   0  0  0  0  0  0  0  0  0  0  0  0
   -4.8578    1.4837   -4.0474 H   0  0  0  0  0  0  0  0  0  0  0  0
   -4.7529    1.2697   -5.7929 H   0  0  0  0  0  0  0  0  0  0  0  0
   -3.3995    1.9915   -4.9219 H   0  0  0  0  0  0  0  0  0  0  0  0
   -4.4339   -0.9922   -6.3591 H   0  0  0  0  0  0  0  0  0  0  0  0
    1.1754    1.2568    1.3860 H   0  0  0  0  0  0  0  0  0  0  0  0
    1.0215   -0.4266    1.9230 H   0  0  0  0  0  0  0  0  0  0  0  0
   -0.2201    0.7576    2.3764 H   0  0  0  0  0  0  0  0  0  0  0  0
  1  2  1  0  0  0  0 
  2  3  2  0  0  0  0 
  2  4  1  0  0  0  0 
  3  5  1  0  0  0  0 
  3  6  1  0  0  0  0 
  4  7  2  0  0  0  0 
  4  8  1  0  0  0  0 
  5  9  2  0  0  0  0 
  5 10  1  0  0  0  0 
  6 11  1  0  0  0  0 
  7  9  1  0  0  0  0 
  7 12  1  0  0  0  0 
  8 13  1  0  0  0  0 
 10 14  1  0  0  0  0 
 10 15  2  0  0  0  0 
 11 15  1  0  0  0  0 
 11 16  2  0  0  0  0 
 12 13  2  0  0  0  0 
 13 17  1  0  0  0  0 
  1 18  1  0  0  0  0 
  1 19  1  0  0  0  0 
  1 20  1  0  0  0  0 
  9 21  1  0  0  0  0 
 12 22  1  0  0  0  0 
 14 23  1  0  0  0  0 
 14 24  1  0  0  0  0 
 14 25  1  0  0  0  0 
 15 26  1  0  0  0  0 
 17 27  1  0  0  0  0 
 17 28  1  0  0  0  0 
 17 29  1  0  0  0  0 
M  END
> <cdk:Title>
trioxsalen

> <Conformer>
1

> <SuperDrugID>
SD002488

$$$$
