pazopanib
  CDK     0628171801

 54 57  0  0  0  0  0  0  0  0999 V2000
   -8.3900   -3.2384    1.6887 C   0  0  0  0  0  0  0  0  0  0  0  0
   -7.7600   -4.5162    1.6854 C   0  0  0  0  0  0  0  0  0  0  0  0
   -8.2326   -5.4981    2.6021 C   0  0  0  0  0  0  0  0  0  0  0  0
   -9.2818   -5.2174    3.5055 C   0  0  0  0  0  0  0  0  0  0  0  0
   -9.8637   -3.9389    3.4827 C   0  0  0  0  0  0  0  0  0  0  0  0
   -9.4273   -2.9712    2.5949 C   0  0  0  0  0  0  0  0  0  0  0  0
  -10.8812   -3.3445    4.2236 C   0  0  0  0  0  0  0  0  0  0  0  0
  -10.9896   -2.0709    3.7635 N   0  0  0  0  0  0  0  0  0  0  0  0
  -10.1397   -1.8525    2.7973 N   0  0  0  0  0  0  0  0  0  0  0  0
   -6.6888   -4.7558    0.8300 N   0  0  0  0  0  0  0  0  0  0  0  0
   -5.6993   -3.8008    0.7435 C   0  0  0  0  0  0  0  0  0  0  0  0
   -5.2414   -3.2490    1.9002 N   0  0  0  0  0  0  0  0  0  0  0  0
   -4.3578   -2.2219    1.9400 C   0  0  0  0  0  0  0  0  0  0  0  0
   -3.8823   -1.7395    0.7635 N   0  0  0  0  0  0  0  0  0  0  0  0
   -4.2689   -2.2488   -0.4334 C   0  0  0  0  0  0  0  0  0  0  0  0
   -5.2007   -3.2998   -0.4794 C   0  0  0  0  0  0  0  0  0  0  0  0
   -3.9127   -1.6563    3.0911 N   0  0  0  0  0  0  0  0  0  0  0  0
   -4.1774   -2.0200    4.3844 C   0  0  0  0  0  0  0  0  0  0  0  0
   -5.3733   -2.6114    4.8466 C   0  0  0  0  0  0  0  0  0  0  0  0
   -5.5106   -2.9896    6.1927 C   0  0  0  0  0  0  0  0  0  0  0  0
   -4.4667   -2.7822    7.1261 C   0  0  0  0  0  0  0  0  0  0  0  0
   -3.2722   -2.1451    6.6811 C   0  0  0  0  0  0  0  0  0  0  0  0
   -3.1574   -1.7689    5.3227 C   0  0  0  0  0  0  0  0  0  0  0  0
   -1.8727   -1.8144    7.7304 S   0  0  2  0  0  0  0  0  0  0  0  0
   -4.7083   -3.2504    8.5180 C   0  0  0  0  0  0  0  0  0  0  0  0
   -2.3363   -0.9084    9.1633 N   0  0  2  0  0  0  0  0  0  0  0  0
   -0.7557   -0.9468    6.9720 O   0  0  0  0  0  0  0  0  0  0  0  0
   -1.1987   -3.1910    8.2043 O   0  0  0  0  0  0  0  0  0  0  0  0
  -11.8871   -1.0709    4.2519 C   0  0  0  0  0  0  0  0  0  0  0  0
  -11.6619   -4.0014    5.2919 C   0  0  0  0  0  0  0  0  0  0  0  0
   -6.6249   -5.9673    0.0418 C   0  0  0  0  0  0  0  0  0  0  0  0
   -8.0886   -2.5015    1.0473 H   0  0  0  0  0  0  0  0  0  0  0  0
   -7.8023   -6.4235    2.6420 H   0  0  0  0  0  0  0  0  0  0  0  0
   -9.6012   -5.9244    4.1724 H   0  0  0  0  0  0  0  0  0  0  0  0
   -3.8876   -1.8578   -1.2957 H   0  0  0  0  0  0  0  0  0  0  0  0
   -5.5231   -3.6638   -1.3795 H   0  0  0  0  0  0  0  0  0  0  0  0
   -3.2764   -0.9334    2.9796 H   0  0  0  0  0  0  0  0  0  0  0  0
   -6.1606   -2.7682    4.2174 H   0  0  0  0  0  0  0  0  0  0  0  0
   -6.3873   -3.4290    6.4867 H   0  0  0  0  0  0  0  0  0  0  0  0
   -2.3027   -1.3154    4.9949 H   0  0  0  0  0  0  0  0  0  0  0  0
   -5.4751   -2.6262    8.9799 H   0  0  0  0  0  0  0  0  0  0  0  0
   -3.8223   -3.2202    9.1445 H   0  0  0  0  0  0  0  0  0  0  0  0
   -5.0548   -4.2859    8.5171 H   0  0  0  0  0  0  0  0  0  0  0  0
   -1.4722   -0.6985    9.6692 H   0  0  0  0  0  0  0  0  0  0  0  0
   -2.8747   -1.5358    9.7621 H   0  0  0  0  0  0  0  0  0  0  0  0
  -12.9205   -1.3914    4.1026 H   0  0  0  0  0  0  0  0  0  0  0  0
  -11.7425   -0.1171    3.7406 H   0  0  0  0  0  0  0  0  0  0  0  0
  -11.7152   -0.9108    5.3186 H   0  0  0  0  0  0  0  0  0  0  0  0
  -10.9954   -4.2836    6.1053 H   0  0  0  0  0  0  0  0  0  0  0  0
  -12.4329   -3.3442    5.6929 H   0  0  0  0  0  0  0  0  0  0  0  0
  -12.1471   -4.8948    4.8965 H   0  0  0  0  0  0  0  0  0  0  0  0
   -5.7610   -6.0047   -0.6258 H   0  0  0  0  0  0  0  0  0  0  0  0
   -7.5178   -6.0540   -0.5791 H   0  0  0  0  0  0  0  0  0  0  0  0
   -6.5586   -6.8454    0.6847 H   0  0  0  0  0  0  0  0  0  0  0  0
  1  2  2  0  0  0  0 
  2  3  1  0  0  0  0 
  3  4  2  0  0  0  0 
  4  5  1  0  0  0  0 
  5  6  1  0  0  0  0 
  1  6  1  0  0  0  0 
  7  8  1  0  0  0  0 
  8  9  1  0  0  0  0 
  5  7  2  0  0  0  0 
  6  9  2  0  0  0  0 
  2 10  1  0  0  0  0 
 10 11  1  0  0  0  0 
 12 13  1  0  0  0  0 
 13 14  2  0  0  0  0 
 14 15  1  0  0  0  0 
 15 16  2  0  0  0  0 
 11 12  2  0  0  0  0 
 11 16  1  0  0  0  0 
 13 17  1  0  0  0  0 
 17 18  1  0  0  0  0 
 19 20  1  0  0  0  0 
 20 21  2  0  0  0  0 
 21 22  1  0  0  0  0 
 22 23  2  0  0  0  0 
 18 19  2  0  0  0  0 
 18 23  1  0  0  0  0 
 22 24  1  0  0  0  0 
 21 25  1  0  0  0  0 
 24 26  1  0  0  0  0 
 24 27  2  0  0  0  0 
 24 28  2  0  0  0  0 
  8 29  1  0  0  0  0 
  7 30  1  0  0  0  0 
 10 31  1  0  0  0  0 
  1 32  1  0  0  0  0 
  3 33  1  0  0  0  0 
  4 34  1  0  0  0  0 
 15 35  1  0  0  0  0 
 16 36  1  0  0  0  0 
 17 37  1  0  0  0  0 
 19 38  1  0  0  0  0 
 20 39  1  0  0  0  0 
 23 40  1  0  0  0  0 
 25 41  1  0  0  0  0 
 25 42  1  0  0  0  0 
 25 43  1  0  0  0  0 
 26 44  1  0  0  0  0 
 26 45  1  0  0  0  0 
 29 46  1  0  0  0  0 
 29 47  1  0  0  0  0 
 29 48  1  0  0  0  0 
 30 49  1  0  0  0  0 
 30 50  1  0  0  0  0 
 30 51  1  0  0  0  0 
 31 52  1  0  0  0  0 
 31 53  1  0  0  0  0 
 31 54  1  0  0  0  0 
M  END
> <cdk:Title>
pazopanib

> <Conformer>
1

> <SuperDrugID>
SD003363

$$$$
