phenprocoumon
  CDK     0628171801

 37 39  0  0  0  0  0  0  0  0999 V2000
    0.9395    0.6592   -0.1085 C   0  0  2  0  0  0  0  0  0  0  0  0
    2.3373    0.0432   -0.4397 C   0  0  2  0  0  0  0  0  0  0  0  0
    0.9911    1.6443    1.0348 C   0  0  0  0  0  0  0  0  0  0  0  0
   -0.1746   -0.3333    0.0798 C   0  0  0  0  0  0  0  0  0  0  0  0
    3.4131    1.0925   -0.8098 C   0  0  0  0  0  0  0  0  0  0  0  0
    0.7724    3.0366    0.8323 C   0  0  0  0  0  0  0  0  0  0  0  0
    1.2825    1.2357    2.3622 C   0  0  0  0  0  0  0  0  0  0  0  0
    0.0093   -1.6213    0.6515 C   0  0  0  0  0  0  0  0  0  0  0  0
   -1.4891    0.0319   -0.3091 C   0  0  0  0  0  0  0  0  0  0  0  0
    0.4828    3.5003   -0.4130 O   0  0  0  0  0  0  0  0  0  0  0  0
    0.8643    3.9705    1.8951 C   0  0  0  0  0  0  0  0  0  0  0  0
    1.4957    0.0481    2.6888 O   0  0  0  0  0  0  0  0  0  0  0  0
    1.3537    2.1436    3.3735 O   0  0  0  0  0  0  0  0  0  0  0  0
   -1.0800   -2.4893    0.8536 C   0  0  0  0  0  0  0  0  0  0  0  0
   -2.5760   -0.8404   -0.1192 C   0  0  0  0  0  0  0  0  0  0  0  0
    1.1632    3.4775    3.1903 C   0  0  0  0  0  0  0  0  0  0  0  0
    0.6793    5.3648    1.7298 C   0  0  0  0  0  0  0  0  0  0  0  0
   -2.3749   -2.0987    0.4718 C   0  0  0  0  0  0  0  0  0  0  0  0
    1.2713    4.3502    4.2894 C   0  0  0  0  0  0  0  0  0  0  0  0
    0.7963    6.2387    2.8281 C   0  0  0  0  0  0  0  0  0  0  0  0
    1.0935    5.7335    4.1077 C   0  0  0  0  0  0  0  0  0  0  0  0
    0.6928    1.1880   -1.0328 H   0  0  0  0  0  0  0  0  0  0  0  0
    2.2323   -0.6419   -1.2875 H   0  0  0  0  0  0  0  0  0  0  0  0
    2.7128   -0.5337    0.4066 H   0  0  0  0  0  0  0  0  0  0  0  0
    3.0971    1.6886   -1.6668 H   0  0  0  0  0  0  0  0  0  0  0  0
    4.3472    0.5893   -1.0621 H   0  0  0  0  0  0  0  0  0  0  0  0
    3.5989    1.7585    0.0349 H   0  0  0  0  0  0  0  0  0  0  0  0
    0.9349   -1.9440    0.9382 H   0  0  0  0  0  0  0  0  0  0  0  0
   -1.6668    0.9444   -0.7370 H   0  0  0  0  0  0  0  0  0  0  0  0
   -0.4962    3.5330   -0.4497 H   0  0  0  0  0  0  0  0  0  0  0  0
   -0.9297   -3.4038    1.2826 H   0  0  0  0  0  0  0  0  0  0  0  0
   -3.5145   -0.5574   -0.4062 H   0  0  0  0  0  0  0  0  0  0  0  0
    0.4591    5.7582    0.8132 H   0  0  0  0  0  0  0  0  0  0  0  0
   -3.1688   -2.7247    0.6270 H   0  0  0  0  0  0  0  0  0  0  0  0
    1.4819    3.9795    5.2181 H   0  0  0  0  0  0  0  0  0  0  0  0
    0.6675    7.2447    2.6983 H   0  0  0  0  0  0  0  0  0  0  0  0
    1.1802    6.3670    4.9063 H   0  0  0  0  0  0  0  0  0  0  0  0
  1  2  1  0  0  0  0 
  1  3  1  0  0  0  0 
  1  4  1  0  0  0  0 
  2  5  1  0  0  0  0 
  3  6  2  0  0  0  0 
  3  7  1  0  0  0  0 
  4  8  2  0  0  0  0 
  4  9  1  0  0  0  0 
  6 10  1  0  0  0  0 
  6 11  1  0  0  0  0 
  7 12  2  0  0  0  0 
  7 13  1  0  0  0  0 
  8 14  1  0  0  0  0 
  9 15  2  0  0  0  0 
 11 16  1  0  0  0  0 
 11 17  2  0  0  0  0 
 13 16  1  0  0  0  0 
 14 18  2  0  0  0  0 
 15 18  1  0  0  0  0 
 16 19  2  0  0  0  0 
 17 20  1  0  0  0  0 
 19 21  1  0  0  0  0 
 20 21  2  0  0  0  0 
  1 22  1  0  0  0  0 
  2 23  1  0  0  0  0 
  2 24  1  0  0  0  0 
  5 25  1  0  0  0  0 
  5 26  1  0  0  0  0 
  5 27  1  0  0  0  0 
  8 28  1  0  0  0  0 
  9 29  1  0  0  0  0 
 10 30  1  0  0  0  0 
 14 31  1  0  0  0  0 
 15 32  1  0  0  0  0 
 17 33  1  0  0  0  0 
 18 34  1  0  0  0  0 
 19 35  1  0  0  0  0 
 20 36  1  0  0  0  0 
 21 37  1  0  0  0  0 
M  END
> <cdk:Title>
phenprocoumon

> <Conformer>
1

> <SuperDrugID>
SD001918

$$$$
