floctafenine
  CDK     0628171801

 46 48  0  0  0  0  0  0  0  0999 V2000
    1.4999   -1.3281   -4.8373 C   0  0  1  0  0  0  0  0  0  0  0  0
    2.2447   -2.2907   -5.4776 F   0  0  0  0  0  0  0  0  0  0  0  0
    2.0254   -0.1196   -5.2295 F   0  0  0  0  0  0  0  0  0  0  0  0
    0.2204   -1.4320   -5.3246 F   0  0  0  0  0  0  0  0  0  0  0  0
    1.4882   -1.4362   -3.3445 C   0  0  0  0  0  0  0  0  0  0  0  0
    0.8494   -0.4515   -2.5395 C   0  0  0  0  0  0  0  0  0  0  0  0
    2.1211   -2.5197   -2.6875 C   0  0  0  0  0  0  0  0  0  0  0  0
    0.8451   -0.5393   -1.1137 C   0  0  0  0  0  0  0  0  0  0  0  0
    0.2419    0.6131   -3.1293 N   0  0  0  0  0  0  0  0  0  0  0  0
    2.1440   -2.6071   -1.2883 C   0  0  0  0  0  0  0  0  0  0  0  0
    0.1815    0.4767   -0.3647 C   0  0  0  0  0  0  0  0  0  0  0  0
    1.5226   -1.6215   -0.5070 C   0  0  0  0  0  0  0  0  0  0  0  0
   -0.3630    1.6102   -2.4464 C   0  0  0  0  0  0  0  0  0  0  0  0
    0.0457    0.5135    0.9966 N   0  0  0  0  0  0  0  0  0  0  0  0
   -0.3972    1.5667   -1.0460 C   0  0  0  0  0  0  0  0  0  0  0  0
   -0.5186   -0.4188    1.8352 C   0  0  0  0  0  0  0  0  0  0  0  0
   -0.4858   -0.2273    3.2524 C   0  0  0  0  0  0  0  0  0  0  0  0
   -1.2024   -1.5479    1.3138 C   0  0  0  0  0  0  0  0  0  0  0  0
    0.0772    0.9212    3.8834 C   0  0  0  0  0  0  0  0  0  0  0  0
   -1.0719   -1.2132    4.0885 C   0  0  0  0  0  0  0  0  0  0  0  0
   -1.7758   -2.5074    2.1606 C   0  0  0  0  0  0  0  0  0  0  0  0
   -0.4556    1.3556    5.0654 O   0  0  0  0  0  0  0  0  0  0  0  0
    1.0483    1.5400    3.3892 O   0  0  0  0  0  0  0  0  0  0  0  0
   -1.6984   -2.3475    3.5507 C   0  0  0  0  0  0  0  0  0  0  0  0
   -0.1075    2.5175    5.8300 C   0  0  2  0  0  0  0  0  0  0  0  0
   -0.9726    2.5556    7.1147 C   0  0  1  0  0  0  0  0  0  0  0  0
   -0.6069    1.4234    8.1067 C   0  0  1  0  0  0  0  0  0  0  0  0
   -0.8169    3.8201    7.7585 O   0  0  0  0  0  0  0  0  0  0  0  0
   -1.6080    1.2921    9.1086 O   0  0  0  0  0  0  0  0  0  0  0  0
    2.5794   -3.2634   -3.2183 H   0  0  0  0  0  0  0  0  0  0  0  0
    2.6144   -3.3927   -0.8367 H   0  0  0  0  0  0  0  0  0  0  0  0
    1.5752   -1.7062    0.5095 H   0  0  0  0  0  0  0  0  0  0  0  0
   -0.7924    2.3845   -2.9566 H   0  0  0  0  0  0  0  0  0  0  0  0
    0.3111    1.3481    1.4087 H   0  0  0  0  0  0  0  0  0  0  0  0
   -0.8566    2.3250   -0.5329 H   0  0  0  0  0  0  0  0  0  0  0  0
   -1.3021   -1.6807    0.3057 H   0  0  0  0  0  0  0  0  0  0  0  0
   -1.0513   -1.1217    5.1083 H   0  0  0  0  0  0  0  0  0  0  0  0
   -2.2536   -3.3178    1.7607 H   0  0  0  0  0  0  0  0  0  0  0  0
   -2.1044   -3.0486    4.1739 H   0  0  0  0  0  0  0  0  0  0  0  0
   -0.3071    3.4091    5.2296 H   0  0  0  0  0  0  0  0  0  0  0  0
    0.9540    2.4978    6.0918 H   0  0  0  0  0  0  0  0  0  0  0  0
   -2.0228    2.4539    6.8264 H   0  0  0  0  0  0  0  0  0  0  0  0
   -0.5260    0.4676    7.5861 H   0  0  0  0  0  0  0  0  0  0  0  0
    0.3491    1.6390    8.5888 H   0  0  0  0  0  0  0  0  0  0  0  0
   -1.4365    3.8046    8.5175 H   0  0  0  0  0  0  0  0  0  0  0  0
   -1.3334    0.5118    9.6341 H   0  0  0  0  0  0  0  0  0  0  0  0
  1  2  1  0  0  0  0 
  1  3  1  0  0  0  0 
  1  4  1  0  0  0  0 
  1  5  1  0  0  0  0 
  5  6  2  0  0  0  0 
  5  7  1  0  0  0  0 
  6  8  1  0  0  0  0 
  6  9  1  0  0  0  0 
  7 10  2  0  0  0  0 
  8 11  1  0  0  0  0 
  8 12  2  0  0  0  0 
  9 13  2  0  0  0  0 
 10 12  1  0  0  0  0 
 11 14  1  0  0  0  0 
 11 15  2  0  0  0  0 
 13 15  1  0  0  0  0 
 14 16  1  0  0  0  0 
 16 17  2  0  0  0  0 
 16 18  1  0  0  0  0 
 17 19  1  0  0  0  0 
 17 20  1  0  0  0  0 
 18 21  2  0  0  0  0 
 19 22  1  0  0  0  0 
 19 23  2  0  0  0  0 
 20 24  2  0  0  0  0 
 21 24  1  0  0  0  0 
 22 25  1  0  0  0  0 
 26 25  1  0  0  0  0 
 26 27  1  0  0  0  0 
 26 28  1  0  0  0  0 
 27 29  1  0  0  0  0 
  7 30  1  0  0  0  0 
 10 31  1  0  0  0  0 
 12 32  1  0  0  0  0 
 13 33  1  0  0  0  0 
 14 34  1  0  0  0  0 
 15 35  1  0  0  0  0 
 18 36  1  0  0  0  0 
 20 37  1  0  0  0  0 
 21 38  1  0  0  0  0 
 24 39  1  0  0  0  0 
 25 40  1  0  0  0  0 
 25 41  1  0  0  0  0 
 26 42  1  0  0  0  0 
 27 43  1  0  0  0  0 
 27 44  1  0  0  0  0 
 28 45  1  0  0  0  0 
 29 46  1  0  0  0  0 
M  END
> <cdk:Title>
floctafenine

> <Conformer>
1

> <SuperDrugID>
SD001054

$$$$
