vorozole
  CDK     0628171801

 36 39  0  0  0  0  0  0  0  0999 V2000
   -1.8193    4.8594    0.0429 C   0  0  2  0  0  0  0  0  0  0  0  0
   -1.0920    3.5440   -0.0050 C   0  0  0  0  0  0  0  0  0  0  0  0
   -2.3738    5.1889    1.4023 C   0  0  0  0  0  0  0  0  0  0  0  0
   -2.8808    5.0377   -0.9188 N   0  0  0  0  0  0  0  0  0  0  0  0
   -1.4628    2.4750   -0.8692 C   0  0  0  0  0  0  0  0  0  0  0  0
    0.0184    3.3505    0.8677 C   0  0  0  0  0  0  0  0  0  0  0  0
   -2.9440    4.1977    2.2424 C   0  0  0  0  0  0  0  0  0  0  0  0
   -2.3717    6.5276    1.8654 C   0  0  0  0  0  0  0  0  0  0  0  0
   -2.8722    5.8520   -1.9950 C   0  0  0  0  0  0  0  0  0  0  0  0
   -4.0393    4.4541   -0.8677 N   0  0  0  0  0  0  0  0  0  0  0  0
   -0.7630    1.2562   -0.8009 C   0  0  0  0  0  0  0  0  0  0  0  0
    0.7083    2.1236    0.9285 C   0  0  0  0  0  0  0  0  0  0  0  0
   -3.4707    4.5279    3.5052 C   0  0  0  0  0  0  0  0  0  0  0  0
   -2.9063    6.8630    3.1237 C   0  0  0  0  0  0  0  0  0  0  0  0
   -4.0522    5.7800   -2.6237 N   0  0  0  0  0  0  0  0  0  0  0  0
   -4.7613    4.9026   -1.9038 C   0  0  0  0  0  0  0  0  0  0  0  0
    0.2878    1.0890    0.0846 C   0  0  0  0  0  0  0  0  0  0  0  0
   -0.8775    0.0829   -1.4488 N   0  0  0  0  0  0  0  0  0  0  0  0
   -3.4550    5.8634    3.9485 C   0  0  0  0  0  0  0  0  0  0  0  0
    0.7470   -0.1590   -0.0541 N   0  0  0  0  0  0  0  0  0  0  0  0
   -1.7995   -0.2595   -2.4806 C   0  0  0  0  0  0  0  0  0  0  0  0
    0.0251   -0.7268   -0.9735 N   0  0  0  0  0  0  0  0  0  0  0  0
   -4.0926    6.2657    5.4648 Cl  0  0  0  0  0  0  0  0  0  0  0  0
   -1.0410    5.5947   -0.1916 H   0  0  0  0  0  0  0  0  0  0  0  0
   -2.2289    2.5636   -1.5352 H   0  0  0  0  0  0  0  0  0  0  0  0
    0.3281    4.1078    1.4815 H   0  0  0  0  0  0  0  0  0  0  0  0
   -2.9777    3.2209    1.9419 H   0  0  0  0  0  0  0  0  0  0  0  0
   -1.9815    7.2729    1.2834 H   0  0  0  0  0  0  0  0  0  0  0  0
   -2.0929    6.4430   -2.2958 H   0  0  0  0  0  0  0  0  0  0  0  0
    1.4917    1.9892    1.5708 H   0  0  0  0  0  0  0  0  0  0  0  0
   -3.8633    3.7920    4.0973 H   0  0  0  0  0  0  0  0  0  0  0  0
   -2.8934    7.8371    3.4348 H   0  0  0  0  0  0  0  0  0  0  0  0
   -5.7181    4.6146   -2.1101 H   0  0  0  0  0  0  0  0  0  0  0  0
   -2.8241   -0.0929   -2.1426 H   0  0  0  0  0  0  0  0  0  0  0  0
   -1.6914   -1.3116   -2.7549 H   0  0  0  0  0  0  0  0  0  0  0  0
   -1.6084    0.3486   -3.3670 H   0  0  0  0  0  0  0  0  0  0  0  0
  1  2  1  0  0  0  0 
  1  3  1  0  0  0  0 
  1  4  1  0  0  0  0 
  2  5  1  0  0  0  0 
  2  6  2  0  0  0  0 
  3  7  2  0  0  0  0 
  3  8  1  0  0  0  0 
  4  9  1  0  0  0  0 
  4 10  1  0  0  0  0 
  5 11  2  0  0  0  0 
  6 12  1  0  0  0  0 
  7 13  1  0  0  0  0 
  8 14  2  0  0  0  0 
  9 15  2  0  0  0  0 
 10 16  2  0  0  0  0 
 11 17  1  0  0  0  0 
 11 18  1  0  0  0  0 
 12 17  2  0  0  0  0 
 13 19  2  0  0  0  0 
 14 19  1  0  0  0  0 
 15 16  1  0  0  0  0 
 17 20  1  0  0  0  0 
 18 21  1  0  0  0  0 
 18 22  1  0  0  0  0 
 19 23  1  0  0  0  0 
 20 22  2  0  0  0  0 
  1 24  1  0  0  0  0 
  5 25  1  0  0  0  0 
  6 26  1  0  0  0  0 
  7 27  1  0  0  0  0 
  8 28  1  0  0  0  0 
  9 29  1  0  0  0  0 
 12 30  1  0  0  0  0 
 13 31  1  0  0  0  0 
 14 32  1  0  0  0  0 
 16 33  1  0  0  0  0 
 21 34  1  0  0  0  0 
 21 35  1  0  0  0  0 
 21 36  1  0  0  0  0 
M  END
> <cdk:Title>
vorozole

> <Conformer>
1

> <SuperDrugID>
SD003127

$$$$
