iomeprol
  CDK     0628171801

 53 53  0  0  0  0  0  0  0  0999 V2000
   -4.8965   -0.3932    4.1408 N   0  0  0  0  0  0  0  0  0  0  0  0
   -4.4335    0.8271    4.6295 C   0  0  0  0  0  0  0  0  0  0  0  0
   -6.2412   -0.8622    4.3781 C   0  0  0  0  0  0  0  0  0  0  0  0
   -4.0783   -1.1864    3.3669 C   0  0  0  0  0  0  0  0  0  0  0  0
   -5.2289    1.8199    5.3963 C   0  0  1  0  0  0  0  0  0  0  0  0
   -3.2509    1.1835    4.4022 O   0  0  0  0  0  0  0  0  0  0  0  0
   -3.4371   -2.3279    3.9081 C   0  0  0  0  0  0  0  0  0  0  0  0
   -3.8888   -0.8547    2.0054 C   0  0  0  0  0  0  0  0  0  0  0  0
   -4.6238    2.0741    6.6593 O   0  0  0  0  0  0  0  0  0  0  0  0
   -3.7274   -2.7818    5.9016 I   0  0  0  0  0  0  0  0  0  0  0  0
   -2.6203   -3.1504    3.0885 C   0  0  0  0  0  0  0  0  0  0  0  0
   -4.8982    0.7546    1.1947 I   0  0  0  0  0  0  0  0  0  0  0  0
   -3.0259   -1.6309    1.1992 C   0  0  0  0  0  0  0  0  0  0  0  0
   -2.0243   -4.3242    3.6054 C   0  0  0  0  0  0  0  0  0  0  0  0
   -2.3976   -2.7801    1.7367 C   0  0  0  0  0  0  0  0  0  0  0  0
   -2.7560   -1.2312   -0.1231 C   0  0  0  0  0  0  0  0  0  0  0  0
   -2.3255   -5.5293    3.0456 N   0  0  0  0  0  0  0  0  0  0  0  0
   -1.2133   -4.2305    4.5573 O   0  0  0  0  0  0  0  0  0  0  0  0
   -1.0905   -3.8608    0.5514 I   0  0  0  0  0  0  0  0  0  0  0  0
   -2.0182   -0.1067   -0.3080 N   0  0  0  0  0  0  0  0  0  0  0  0
   -3.1651   -1.9300   -1.0802 O   0  0  0  0  0  0  0  0  0  0  0  0
   -1.8031   -6.8069    3.4241 C   0  0  2  0  0  0  0  0  0  0  0  0
   -1.6003    0.4093   -1.5705 C   0  0  1  0  0  0  0  0  0  0  0  0
   -0.7965   -7.3152    2.3565 C   0  0  2  0  0  0  0  0  0  0  0  0
   -0.6923    1.6497   -1.3654 C   0  0  2  0  0  0  0  0  0  0  0  0
   -0.4299   -8.8122    2.5068 C   0  0  1  0  0  0  0  0  0  0  0  0
    0.4017   -6.5422    2.4268 O   0  0  0  0  0  0  0  0  0  0  0  0
   -0.1794    2.2610   -2.6904 C   0  0  2  0  0  0  0  0  0  0  0  0
    0.4416    1.2908   -0.5757 O   0  0  0  0  0  0  0  0  0  0  0  0
   -1.5667   -9.6420    2.2918 O   0  0  0  0  0  0  0  0  0  0  0  0
   -1.2494    2.7229   -3.5083 O   0  0  0  0  0  0  0  0  0  0  0  0
   -6.4530   -1.8265    3.9029 H   0  0  0  0  0  0  0  0  0  0  0  0
   -6.9615   -0.1434    3.9810 H   0  0  0  0  0  0  0  0  0  0  0  0
   -6.3997   -0.9826    5.4514 H   0  0  0  0  0  0  0  0  0  0  0  0
   -5.2738    2.7540    4.8306 H   0  0  0  0  0  0  0  0  0  0  0  0
   -6.2482    1.4940    5.5867 H   0  0  0  0  0  0  0  0  0  0  0  0
   -5.1943    2.7535    7.0816 H   0  0  0  0  0  0  0  0  0  0  0  0
   -2.9559   -5.5211    2.3090 H   0  0  0  0  0  0  0  0  0  0  0  0
   -1.7491    0.3822    0.4861 H   0  0  0  0  0  0  0  0  0  0  0  0
   -2.6544   -7.4876    3.4924 H   0  0  0  0  0  0  0  0  0  0  0  0
   -1.3172   -6.7778    4.4030 H   0  0  0  0  0  0  0  0  0  0  0  0
   -1.0506   -0.3610   -2.1177 H   0  0  0  0  0  0  0  0  0  0  0  0
   -2.4846    0.6834   -2.1482 H   0  0  0  0  0  0  0  0  0  0  0  0
   -1.2248   -7.1741    1.3599 H   0  0  0  0  0  0  0  0  0  0  0  0
   -1.2508    2.4211   -0.8283 H   0  0  0  0  0  0  0  0  0  0  0  0
    0.3239   -9.0763    1.7611 H   0  0  0  0  0  0  0  0  0  0  0  0
   -0.0242   -9.0184    3.4984 H   0  0  0  0  0  0  0  0  0  0  0  0
    0.1174   -5.6116    2.3026 H   0  0  0  0  0  0  0  0  0  0  0  0
    0.4012    1.5231   -3.2497 H   0  0  0  0  0  0  0  0  0  0  0  0
    0.4644    3.1157   -2.4697 H   0  0  0  0  0  0  0  0  0  0  0  0
    0.0704    0.9755    0.2743 H   0  0  0  0  0  0  0  0  0  0  0  0
   -1.2288  -10.5603    2.3736 H   0  0  0  0  0  0  0  0  0  0  0  0
   -0.8122    3.1255   -4.2891 H   0  0  0  0  0  0  0  0  0  0  0  0
  1  2  1  0  0  0  0 
  1  3  1  0  0  0  0 
  1  4  1  0  0  0  0 
  2  5  1  0  0  0  0 
  2  6  2  0  0  0  0 
  4  7  2  0  0  0  0 
  4  8  1  0  0  0  0 
  5  9  1  0  0  0  0 
  7 10  1  0  0  0  0 
  7 11  1  0  0  0  0 
  8 12  1  0  0  0  0 
  8 13  2  0  0  0  0 
 11 14  1  0  0  0  0 
 11 15  2  0  0  0  0 
 13 15  1  0  0  0  0 
 13 16  1  0  0  0  0 
 14 17  1  0  0  0  0 
 14 18  2  0  0  0  0 
 15 19  1  0  0  0  0 
 16 20  1  0  0  0  0 
 16 21  2  0  0  0  0 
 17 22  1  0  0  0  0 
 20 23  1  0  0  0  0 
 22 24  1  0  0  0  0 
 23 25  1  0  0  0  0 
 24 26  1  0  0  0  0 
 24 27  1  0  0  0  0 
 25 28  1  0  0  0  0 
 25 29  1  0  0  0  0 
 26 30  1  0  0  0  0 
 28 31  1  0  0  0  0 
  3 32  1  0  0  0  0 
  3 33  1  0  0  0  0 
  3 34  1  0  0  0  0 
  5 35  1  0  0  0  0 
  5 36  1  0  0  0  0 
  9 37  1  0  0  0  0 
 17 38  1  0  0  0  0 
 20 39  1  0  0  0  0 
 22 40  1  0  0  0  0 
 22 41  1  0  0  0  0 
 23 42  1  0  0  0  0 
 23 43  1  0  0  0  0 
 24 44  1  0  0  0  0 
 25 45  1  0  0  0  0 
 26 46  1  0  0  0  0 
 26 47  1  0  0  0  0 
 27 48  1  0  0  0  0 
 28 49  1  0  0  0  0 
 28 50  1  0  0  0  0 
 29 51  1  0  0  0  0 
 30 52  1  0  0  0  0 
 31 53  1  0  0  0  0 
M  END
> <cdk:Title>
iomeprol

> <Conformer>
1

> <SuperDrugID>
SD001295

$$$$
