depreotide
  CDK     0628171801

191195  0  0  0  0  0  0  0  0999 V2000
   -0.9662   -2.4600    8.2619 C   0  0  0  0  0  0  0  0  0  0  0  0
   -0.7405   -3.2978    9.3693 N   0  0  0  0  0  0  0  0  0  0  0  0
    0.9030   -1.7269   11.5937 N   0  0  0  0  0  0  0  0  0  0  0  0
    3.9093   -0.7766   11.1969 N   0  0  0  0  0  0  0  0  0  0  0  0
    5.3020   -1.2978    8.4937 N   0  0  0  0  0  0  0  0  0  0  0  0
    3.3051   -2.5848    6.6097 N   0  0  0  0  0  0  0  0  0  0  0  0
   -1.4348   -1.3102    8.4542 O   0  0  0  0  0  0  0  0  0  0  0  0
   -0.7380   -2.7746    6.8124 C   0  0  2  0  0  0  0  0  0  0  0  0
   -1.7725   -3.8066    6.2584 C   0  0  1  0  0  0  0  0  0  0  0  0
    0.6448   -3.1049    6.6364 N   0  0  0  0  0  0  0  0  0  0  0  0
   -0.8850   -1.8609    6.2231 H   0  0  0  0  0  0  0  0  0  0  0  0
   -3.2411   -3.3029    6.3448 C   0  0  1  0  0  0  0  0  0  0  0  0
   -4.3761   -4.2492    5.2764 S   0  0  0  0  0  0  0  0  0  0  0  0
   -5.8882   -3.2285    5.2240 C   0  0  2  0  0  0  0  0  0  0  0  0
   -5.7434   -2.0733    4.3144 C   0  0  0  0  0  0  0  0  0  0  0  0
   -5.5628   -2.2959    2.9846 N   0  0  0  0  0  0  0  0  0  0  0  0
   -5.8107   -0.9122    4.7818 O   0  0  0  0  0  0  0  0  0  0  0  0
   -5.3993   -1.3117    1.9583 C   0  0  2  0  0  0  0  0  0  0  0  0
   -4.1627    0.3550   -0.3446 N   0  0  0  0  0  0  0  0  0  0  0  0
   -1.8224    1.1965   -2.0833 N   0  0  0  0  0  0  0  0  0  0  0  0
   -0.2097    3.1350   -4.3063 N   0  0  0  0  0  0  0  0  0  0  0  0
    1.7396    4.8462   -6.5299 N   0  0  0  0  0  0  0  0  0  0  0  0
   -0.4044   -1.6521   11.1814 C   0  0  0  0  0  0  0  0  0  0  0  0
   -1.1619   -2.8546   10.7102 C   0  0  2  0  0  0  0  0  0  0  0  0
   -0.1190   -4.5982    9.2292 C   0  0  0  0  0  0  0  0  0  0  0  0
   -1.0387   -0.5739   11.2869 O   0  0  0  0  0  0  0  0  0  0  0  0
   -1.2090   -3.8808   11.9073 C   0  0  2  0  0  0  0  0  0  0  0  0
   -4.3437   -6.0291   11.4309 C   0  0  0  0  0  0  0  0  0  0  0  0
   -3.5038   -4.9125   11.6062 C   0  0  0  0  0  0  0  0  0  0  0  0
   -3.7982   -7.3239   11.4138 C   0  0  0  0  0  0  0  0  0  0  0  0
   -2.4172   -7.5045   11.5962 C   0  0  0  0  0  0  0  0  0  0  0  0
   -1.5820   -6.3881   11.7869 C   0  0  0  0  0  0  0  0  0  0  0  0
   -2.1050   -5.0692   11.7603 C   0  0  0  0  0  0  0  0  0  0  0  0
    2.8809   -0.2013   11.8845 C   0  0  0  0  0  0  0  0  0  0  0  0
    1.6056   -1.2526   13.8698 C   0  0  1  0  0  0  0  0  0  0  0  0
    2.3266   -0.3801   14.8445 C   0  0  0  0  0  0  0  0  0  0  0  0
    3.7235   -0.5127   15.0354 C   0  0  0  0  0  0  0  0  0  0  0  0
    4.4156    0.3298   15.9256 C   0  0  0  0  0  0  0  0  0  0  0  0
    3.7197    1.3134   16.6531 C   0  0  0  0  0  0  0  0  0  0  0  0
    4.3732    2.1380   17.5109 O   0  0  0  0  0  0  0  0  0  0  0  0
    2.3286    1.4444   16.4882 C   0  0  0  0  0  0  0  0  0  0  0  0
    1.6386    0.6066   15.5912 C   0  0  0  0  0  0  0  0  0  0  0  0
    1.5747   -0.7312   12.3953 C   0  0  2  0  0  0  0  0  0  0  0  0
    3.1335    0.9983   12.1500 O   0  0  0  0  0  0  0  0  0  0  0  0
    5.2594   -1.9010    9.7164 C   0  0  0  0  0  0  0  0  0  0  0  0
    4.2999   -3.1794   11.7307 C   0  0  1  0  0  0  0  0  0  0  0  0
    3.8255   -4.5481   11.3851 C   0  0  0  0  0  0  0  0  0  0  0  0
    2.7593   -5.2039   12.0130 C   0  0  0  0  0  0  0  0  0  0  0  0
    2.5994   -6.4308   11.4934 N   0  0  0  0  0  0  0  0  0  0  0  0
    3.5202   -6.6161   10.5410 C   0  0  0  0  0  0  0  0  0  0  0  0
    4.3177   -5.4711   10.4517 C   0  0  0  0  0  0  0  0  0  0  0  0
    5.3988   -5.4446    9.5470 C   0  0  0  0  0  0  0  0  0  0  0  0
    5.6373   -6.5691    8.7271 C   0  0  0  0  0  0  0  0  0  0  0  0
    4.8089   -7.7088    8.8109 C   0  0  0  0  0  0  0  0  0  0  0  0
    3.7401   -7.7438    9.7297 C   0  0  0  0  0  0  0  0  0  0  0  0
    4.0815   -2.0800   10.6282 C   0  0  1  0  0  0  0  0  0  0  0  0
    6.4032   -2.2408   10.0960 O   0  0  0  0  0  0  0  0  0  0  0  0
    4.0772   -1.4762    6.5180 C   0  0  0  0  0  0  0  0  0  0  0  0
    4.3884    2.1956    5.2455 C   0  0  1  0  0  0  0  0  0  0  0  0
    3.7207    1.6345    6.5348 C   0  0  1  0  0  0  0  0  0  0  0  0
    4.6930    0.8196    7.4537 C   0  0  2  0  0  0  0  0  0  0  0  0
    4.2675   -0.6590    7.7418 C   0  0  2  0  0  0  0  0  0  0  0  0
    4.0163    3.3153    3.0539 N   0  0  2  0  0  0  0  0  0  0  0  0
    3.3838    2.9210    4.3184 C   0  0  1  0  0  0  0  0  0  0  0  0
    4.6023   -1.1509    5.4264 O   0  0  0  0  0  0  0  0  0  0  0  0
    1.3550   -3.2415    5.4800 C   0  0  0  0  0  0  0  0  0  0  0  0
    4.9104   -4.9322    5.4981 C   0  0  0  0  0  0  0  0  0  0  0  0
    2.8377   -3.4079    5.5301 C   0  0  2  0  0  0  0  0  0  0  0  0
    2.6680   -5.9174    4.8197 C   0  0  0  0  0  0  0  0  0  0  0  0
    3.3689   -4.8696    5.7306 C   0  0  1  0  0  0  0  0  0  0  0  0
    0.7897   -3.1502    4.3649 O   0  0  0  0  0  0  0  0  0  0  0  0
   -4.3405   -0.9978   -0.3180 C   0  0  0  0  0  0  0  0  0  0  0  0
   -2.9610   -1.5612    1.5813 N   0  0  2  0  0  0  0  0  0  0  0  0
   -4.2834   -1.7398    0.9658 C   0  0  1  0  0  0  0  0  0  0  0  0
   -4.5598   -1.6423   -1.3722 O   0  0  0  0  0  0  0  0  0  0  0  0
   -2.8992    1.8890   -1.6115 C   0  0  0  0  0  0  0  0  0  0  0  0
   -6.9806    3.8651   -2.5593 C   0  0  1  0  0  0  0  0  0  0  0  0
   -5.7309    2.9545   -2.6884 C   0  0  1  0  0  0  0  0  0  0  0  0
   -5.4606    2.1211   -1.4035 C   0  0  2  0  0  0  0  0  0  0  0  0
   -4.2087    1.1942   -1.5086 C   0  0  2  0  0  0  0  0  0  0  0  0
   -8.3815    5.6058   -3.6387 N   0  0  2  0  0  0  0  0  0  0  0  0
   -7.2215    4.7281   -3.8207 C   0  0  1  0  0  0  0  0  0  0  0  0
   -2.7917    3.0928   -1.2767 O   0  0  0  0  0  0  0  0  0  0  0  0
   -0.3473    1.8838   -3.7807 C   0  0  0  0  0  0  0  0  0  0  0  0
    0.5458    0.7576   -1.6929 C   0  0  2  0  0  0  0  0  0  0  0  0
    2.2348    1.3854   -1.8440 S   0  0  0  0  0  0  0  0  0  0  0  0
   -0.5054    1.7169   -2.3139 C   0  0  2  0  0  0  0  0  0  0  0  0
   -0.3707    0.8711   -4.5222 O   0  0  0  0  0  0  0  0  0  0  0  0
    0.5915    4.7492   -5.8333 C   0  0  0  0  0  0  0  0  0  0  0  0
   -3.0190    3.6930   -8.4432 C   0  0  1  0  0  0  0  0  0  0  0  0
   -1.5787    3.7229   -7.8622 C   0  0  1  0  0  0  0  0  0  0  0  0
   -1.5541    3.5023   -6.3230 C   0  0  2  0  0  0  0  0  0  0  0  0
   -0.1246    3.4572   -5.7016 C   0  0  2  0  0  0  0  0  0  0  0  0
   -4.4479    3.9000  -10.4578 N   0  0  2  0  0  0  0  0  0  0  0  0
   -3.0635    3.9306   -9.9724 C   0  0  1  0  0  0  0  0  0  0  0  0
    0.1419    5.7892   -5.2991 O   0  0  0  0  0  0  0  0  0  0  0  0
    1.3721   -2.5578   11.4261 H   0  0  0  0  0  0  0  0  0  0  0  0
    4.6699   -0.1849   11.0773 H   0  0  0  0  0  0  0  0  0  0  0  0
    6.1773   -1.2855    8.0731 H   0  0  0  0  0  0  0  0  0  0  0  0
    2.9981   -2.8240    7.4980 H   0  0  0  0  0  0  0  0  0  0  0  0
   -1.5400   -3.9962    5.2108 H   0  0  0  0  0  0  0  0  0  0  0  0
   -1.6914   -4.7598    6.7803 H   0  0  0  0  0  0  0  0  0  0  0  0
    1.1569   -3.2005    7.4497 H   0  0  0  0  0  0  0  0  0  0  0  0
   -3.5987   -3.3775    7.3737 H   0  0  0  0  0  0  0  0  0  0  0  0
   -3.2872   -2.2577    6.0403 H   0  0  0  0  0  0  0  0  0  0  0  0
   -6.1294   -2.9015    6.2382 H   0  0  0  0  0  0  0  0  0  0  0  0
   -6.7104   -3.8519    4.8723 H   0  0  0  0  0  0  0  0  0  0  0  0
   -5.5450   -3.2215    2.6997 H   0  0  0  0  0  0  0  0  0  0  0  0
   -5.1663   -0.3267    2.3708 H   0  0  0  0  0  0  0  0  0  0  0  0
   -6.3530   -1.2392    1.4310 H   0  0  0  0  0  0  0  0  0  0  0  0
   -3.9935    0.7947    0.5043 H   0  0  0  0  0  0  0  0  0  0  0  0
   -1.9670    0.2634   -2.3077 H   0  0  0  0  0  0  0  0  0  0  0  0
   -0.2051    3.8788   -3.6824 H   0  0  0  0  0  0  0  0  0  0  0  0
    2.1127    4.0637   -6.9649 H   0  0  0  0  0  0  0  0  0  0  0  0
    2.1995    5.6981   -6.5949 H   0  0  0  0  0  0  0  0  0  0  0  0
   -2.2081   -2.5471   10.5947 H   0  0  0  0  0  0  0  0  0  0  0  0
   -0.8391   -5.3697    9.4721 H   0  0  0  0  0  0  0  0  0  0  0  0
    0.7465   -4.6696    9.8866 H   0  0  0  0  0  0  0  0  0  0  0  0
    0.2255   -4.8612    8.2378 H   0  0  0  0  0  0  0  0  0  0  0  0
   -1.5503   -3.3607   12.8060 H   0  0  0  0  0  0  0  0  0  0  0  0
   -0.1913   -4.2072   12.1224 H   0  0  0  0  0  0  0  0  0  0  0  0
   -5.3513   -5.8993   11.3158 H   0  0  0  0  0  0  0  0  0  0  0  0
   -3.9255   -3.9832   11.6185 H   0  0  0  0  0  0  0  0  0  0  0  0
   -4.4046   -8.1359   11.2731 H   0  0  0  0  0  0  0  0  0  0  0  0
   -2.0219   -8.4475   11.5869 H   0  0  0  0  0  0  0  0  0  0  0  0
   -0.5816   -6.5514   11.9201 H   0  0  0  0  0  0  0  0  0  0  0  0
    2.0207   -2.2588   13.9117 H   0  0  0  0  0  0  0  0  0  0  0  0
    0.5684   -1.3664   14.2031 H   0  0  0  0  0  0  0  0  0  0  0  0
    4.2508   -1.2196   14.5197 H   0  0  0  0  0  0  0  0  0  0  0  0
    5.4275    0.2279   16.0399 H   0  0  0  0  0  0  0  0  0  0  0  0
    5.2933    1.8022   17.5586 H   0  0  0  0  0  0  0  0  0  0  0  0
    1.8169    2.1529   17.0194 H   0  0  0  0  0  0  0  0  0  0  0  0
    0.6284    0.7274   15.4836 H   0  0  0  0  0  0  0  0  0  0  0  0
    0.9346    0.1546   12.4452 H   0  0  0  0  0  0  0  0  0  0  0  0
    3.7806   -2.8662   12.6324 H   0  0  0  0  0  0  0  0  0  0  0  0
    5.3439   -3.2456   12.0393 H   0  0  0  0  0  0  0  0  0  0  0  0
    2.1808   -4.8191   12.7618 H   0  0  0  0  0  0  0  0  0  0  0  0
    1.9305   -7.0770   11.7684 H   0  0  0  0  0  0  0  0  0  0  0  0
    6.0160   -4.6404    9.4784 H   0  0  0  0  0  0  0  0  0  0  0  0
    6.4171   -6.5608    8.0665 H   0  0  0  0  0  0  0  0  0  0  0  0
    4.9907   -8.5138    8.2064 H   0  0  0  0  0  0  0  0  0  0  0  0
    3.1468   -8.5727    9.8074 H   0  0  0  0  0  0  0  0  0  0  0  0
    3.2040   -2.3325   10.0295 H   0  0  0  0  0  0  0  0  0  0  0  0
    5.1822    2.8938    5.5259 H   0  0  0  0  0  0  0  0  0  0  0  0
    4.8440    1.3768    4.6838 H   0  0  0  0  0  0  0  0  0  0  0  0
    3.3193    2.4792    7.1019 H   0  0  0  0  0  0  0  0  0  0  0  0
    2.8677    1.0153    6.2448 H   0  0  0  0  0  0  0  0  0  0  0  0
    4.7689    1.3400    8.4142 H   0  0  0  0  0  0  0  0  0  0  0  0
    5.6999    0.8167    7.0218 H   0  0  0  0  0  0  0  0  0  0  0  0
    3.3265   -0.6326    8.3007 H   0  0  0  0  0  0  0  0  0  0  0  0
    4.7471    3.9960    3.2724 H   0  0  0  0  0  0  0  0  0  0  0  0
    3.3065    3.8060    2.5045 H   0  0  0  0  0  0  0  0  0  0  0  0
    2.5509    2.2561    4.0813 H   0  0  0  0  0  0  0  0  0  0  0  0
    2.9923    3.8124    4.8138 H   0  0  0  0  0  0  0  0  0  0  0  0
    5.1680   -4.5864    4.4937 H   0  0  0  0  0  0  0  0  0  0  0  0
    5.2827   -5.9519    5.6090 H   0  0  0  0  0  0  0  0  0  0  0  0
    5.4410   -4.3084    6.2191 H   0  0  0  0  0  0  0  0  0  0  0  0
    3.2337   -3.0471    4.5754 H   0  0  0  0  0  0  0  0  0  0  0  0
    2.7492   -5.6303    3.7704 H   0  0  0  0  0  0  0  0  0  0  0  0
    3.1213   -6.9029    4.9446 H   0  0  0  0  0  0  0  0  0  0  0  0
    1.6126   -6.0076    5.0807 H   0  0  0  0  0  0  0  0  0  0  0  0
    3.1773   -5.1669    6.7655 H   0  0  0  0  0  0  0  0  0  0  0  0
   -2.2827   -2.0002    0.9548 H   0  0  0  0  0  0  0  0  0  0  0  0
   -2.9618   -2.1083    2.4456 H   0  0  0  0  0  0  0  0  0  0  0  0
   -4.3981   -2.8096    0.7590 H   0  0  0  0  0  0  0  0  0  0  0  0
   -7.8627    3.2424   -2.3844 H   0  0  0  0  0  0  0  0  0  0  0  0
   -6.8531    4.5279   -1.6992 H   0  0  0  0  0  0  0  0  0  0  0  0
   -5.8745    2.2721   -3.5314 H   0  0  0  0  0  0  0  0  0  0  0  0
   -4.8616    3.5802   -2.9032 H   0  0  0  0  0  0  0  0  0  0  0  0
   -6.3401    1.4952   -1.2186 H   0  0  0  0  0  0  0  0  0  0  0  0
   -5.3511    2.7930   -0.5467 H   0  0  0  0  0  0  0  0  0  0  0  0
   -4.3366    0.6007   -2.4206 H   0  0  0  0  0  0  0  0  0  0  0  0
   -9.1984    5.0010   -3.5304 H   0  0  0  0  0  0  0  0  0  0  0  0
   -8.5071    6.1183   -4.5142 H   0  0  0  0  0  0  0  0  0  0  0  0
   -6.3494    5.3529   -4.0238 H   0  0  0  0  0  0  0  0  0  0  0  0
   -7.4059    4.0870   -4.6851 H   0  0  0  0  0  0  0  0  0  0  0  0
    0.3399    0.6290   -0.6288 H   0  0  0  0  0  0  0  0  0  0  0  0
    0.5000   -0.2257   -2.1657 H   0  0  0  0  0  0  0  0  0  0  0  0
    2.7795    0.3192   -1.1941 H   0  0  0  0  0  0  0  0  0  0  0  0
   -0.3861    2.6883   -1.8220 H   0  0  0  0  0  0  0  0  0  0  0  0
   -3.4716    2.7209   -8.2261 H   0  0  0  0  0  0  0  0  0  0  0  0
   -3.6193    4.4637   -7.9514 H   0  0  0  0  0  0  0  0  0  0  0  0
   -0.9844    2.9409   -8.3429 H   0  0  0  0  0  0  0  0  0  0  0  0
   -1.1237    4.6887   -8.0965 H   0  0  0  0  0  0  0  0  0  0  0  0
   -2.0514    2.5517   -6.1111 H   0  0  0  0  0  0  0  0  0  0  0  0
   -2.1375    4.2903   -5.8368 H   0  0  0  0  0  0  0  0  0  0  0  0
    0.4541    2.6837   -6.2186 H   0  0  0  0  0  0  0  0  0  0  0  0
   -4.8264    2.9793  -10.2250 H   0  0  0  0  0  0  0  0  0  0  0  0
   -4.4082    3.9548  -11.4780 H   0  0  0  0  0  0  0  0  0  0  0  0
   -2.6353    4.9056  -10.2156 H   0  0  0  0  0  0  0  0  0  0  0  0
   -2.4939    3.1563  -10.4919 H   0  0  0  0  0  0  0  0  0  0  0  0
  1  2  1  0  0  0  0 
 23  3  1  0  0  0  0 
 34  4  1  0  0  0  0 
 45  5  1  0  0  0  0 
 58  6  1  0  0  0  0 
  1  7  2  0  0  0  0 
  1  8  1  0  0  0  0 
  8  9  1  0  0  0  0 
  8 10  1  0  0  0  0 
  8 11  1  0  0  0  0 
 10 66  1  0  0  0  0 
  9 12  1  0  0  0  0 
 12 13  1  0  0  0  0 
 13 14  1  0  0  0  0 
 14 15  1  0  0  0  0 
 15 16  1  0  0  0  0 
 15 17  2  0  0  0  0 
 16 18  1  0  0  0  0 
 72 19  1  0  0  0  0 
 76 20  1  0  0  0  0 
 84 21  1  0  0  0  0 
 89 22  1  0  0  0  0 
 24  2  1  0  0  0  0 
 24 27  1  0  0  0  0 
 27 33  1  0  0  0  0 
 33 29  1  0  0  0  0 
 29 28  2  0  0  0  0 
 28 30  1  0  0  0  0 
 30 31  2  0  0  0  0 
 31 32  1  0  0  0  0 
 33 32  2  0  0  0  0 
 24 23  1  0  0  0  0 
 23 26  2  0  0  0  0 
  2 25  1  0  0  0  0 
 43  3  1  0  0  0  0 
 43 35  1  0  0  0  0 
 35 36  1  0  0  0  0 
 36 37  2  0  0  0  0 
 37 38  1  0  0  0  0 
 38 39  2  0  0  0  0 
 39 40  1  0  0  0  0 
 39 41  1  0  0  0  0 
 41 42  2  0  0  0  0 
 36 42  1  0  0  0  0 
 43 34  1  0  0  0  0 
 34 44  2  0  0  0  0 
 56  4  1  0  0  0  0 
 56 46  1  0  0  0  0 
 46 47  1  0  0  0  0 
 47 48  2  0  0  0  0 
 48 49  1  0  0  0  0 
 49 50  1  0  0  0  0 
 50 51  1  0  0  0  0 
 47 51  1  0  0  0  0 
 51 52  2  0  0  0  0 
 52 53  1  0  0  0  0 
 53 54  2  0  0  0  0 
 54 55  1  0  0  0  0 
 50 55  2  0  0  0  0 
 56 45  1  0  0  0  0 
 45 57  2  0  0  0  0 
 63 64  1  0  0  0  0 
 64 59  1  0  0  0  0 
 59 60  1  0  0  0  0 
 60 61  1  0  0  0  0 
 61 62  1  0  0  0  0 
 62  5  1  0  0  0  0 
 62 58  1  0  0  0  0 
 58 65  2  0  0  0  0 
 69 70  1  0  0  0  0 
 70 67  1  0  0  0  0 
 70 68  1  0  0  0  0 
 68  6  1  0  0  0  0 
 68 66  1  0  0  0  0 
 66 71  2  0  0  0  0 
 18 74  1  0  0  0  0 
 74 73  1  0  0  0  0 
 74 72  1  0  0  0  0 
 72 75  2  0  0  0  0 
 81 82  1  0  0  0  0 
 82 77  1  0  0  0  0 
 77 78  1  0  0  0  0 
 78 79  1  0  0  0  0 
 79 80  1  0  0  0  0 
 80 19  1  0  0  0  0 
 80 76  1  0  0  0  0 
 76 83  2  0  0  0  0 
 87 20  1  0  0  0  0 
 87 85  1  0  0  0  0 
 85 86  1  0  0  0  0 
 87 84  1  0  0  0  0 
 84 88  2  0  0  0  0 
 94 95  1  0  0  0  0 
 95 90  1  0  0  0  0 
 90 91  1  0  0  0  0 
 91 92  1  0  0  0  0 
 92 93  1  0  0  0  0 
 93 21  1  0  0  0  0 
 93 89  1  0  0  0  0 
 89 96  2  0  0  0  0 
  3 97  1  0  0  0  0 
  4 98  1  0  0  0  0 
  5 99  1  0  0  0  0 
  6100  1  0  0  0  0 
  9101  1  0  0  0  0 
  9102  1  0  0  0  0 
 10103  1  0  0  0  0 
 12104  1  0  0  0  0 
 12105  1  0  0  0  0 
 14106  1  0  0  0  0 
 14107  1  0  0  0  0 
 16108  1  0  0  0  0 
 18109  1  0  0  0  0 
 18110  1  0  0  0  0 
 19111  1  0  0  0  0 
 20112  1  0  0  0  0 
 21113  1  0  0  0  0 
 22114  1  0  0  0  0 
 22115  1  0  0  0  0 
 24116  1  0  0  0  0 
 25117  1  0  0  0  0 
 25118  1  0  0  0  0 
 25119  1  0  0  0  0 
 27120  1  0  0  0  0 
 27121  1  0  0  0  0 
 28122  1  0  0  0  0 
 29123  1  0  0  0  0 
 30124  1  0  0  0  0 
 31125  1  0  0  0  0 
 32126  1  0  0  0  0 
 35127  1  0  0  0  0 
 35128  1  0  0  0  0 
 37129  1  0  0  0  0 
 38130  1  0  0  0  0 
 40131  1  0  0  0  0 
 41132  1  0  0  0  0 
 42133  1  0  0  0  0 
 43134  1  0  0  0  0 
 46135  1  0  0  0  0 
 46136  1  0  0  0  0 
 48137  1  0  0  0  0 
 49138  1  0  0  0  0 
 52139  1  0  0  0  0 
 53140  1  0  0  0  0 
 54141  1  0  0  0  0 
 55142  1  0  0  0  0 
 56143  1  0  0  0  0 
 59144  1  0  0  0  0 
 59145  1  0  0  0  0 
 60146  1  0  0  0  0 
 60147  1  0  0  0  0 
 61148  1  0  0  0  0 
 61149  1  0  0  0  0 
 62150  1  0  0  0  0 
 63151  1  0  0  0  0 
 63152  1  0  0  0  0 
 64153  1  0  0  0  0 
 64154  1  0  0  0  0 
 67155  1  0  0  0  0 
 67156  1  0  0  0  0 
 67157  1  0  0  0  0 
 68158  1  0  0  0  0 
 69159  1  0  0  0  0 
 69160  1  0  0  0  0 
 69161  1  0  0  0  0 
 70162  1  0  0  0  0 
 73163  1  0  0  0  0 
 73164  1  0  0  0  0 
 74165  1  0  0  0  0 
 77166  1  0  0  0  0 
 77167  1  0  0  0  0 
 78168  1  0  0  0  0 
 78169  1  0  0  0  0 
 79170  1  0  0  0  0 
 79171  1  0  0  0  0 
 80172  1  0  0  0  0 
 81173  1  0  0  0  0 
 81174  1  0  0  0  0 
 82175  1  0  0  0  0 
 82176  1  0  0  0  0 
 85177  1  0  0  0  0 
 85178  1  0  0  0  0 
 86179  1  0  0  0  0 
 87180  1  0  0  0  0 
 90181  1  0  0  0  0 
 90182  1  0  0  0  0 
 91183  1  0  0  0  0 
 91184  1  0  0  0  0 
 92185  1  0  0  0  0 
 92186  1  0  0  0  0 
 93187  1  0  0  0  0 
 94188  1  0  0  0  0 
 94189  1  0  0  0  0 
 95190  1  0  0  0  0 
 95191  1  0  0  0  0 
M  END
> <cdk:Title>
depreotide

> <Conformer>
1

> <SuperDrugID>
SD002596

$$$$
