otilonium bromide
  CDK     0628171801

 78 79  0  0  0  0  0  0  0  0999 V2000
   -6.7935    8.2059   -3.5750 O   0  0  0  0  0  0  0  0  0  0  0  0
   -6.1901    9.2788   -2.8176 C   0  0  1  0  0  0  0  0  0  0  0  0
   -7.7947    7.5687   -2.8816 C   0  0  0  0  0  0  0  0  0  0  0  0
   -4.9335    9.8080   -3.5496 C   0  0  2  0  0  0  0  0  0  0  0  0
   -7.5185    6.5004   -1.9790 C   0  0  0  0  0  0  0  0  0  0  0  0
   -9.1195    8.0089   -3.0821 C   0  0  0  0  0  0  0  0  0  0  0  0
   -4.2862   11.0170   -2.8185 C   0  0  1  0  0  0  0  0  0  0  0  0
   -6.2075    5.9571   -1.8547 C   0  0  0  0  0  0  0  0  0  0  0  0
   -8.5925    5.9771   -1.2161 C   0  0  0  0  0  0  0  0  0  0  0  0
  -10.1725    7.4535   -2.3367 C   0  0  0  0  0  0  0  0  0  0  0  0
   -3.0668   11.6088   -3.5762 C   0  0  2  0  0  0  0  0  0  0  0  0
   -5.7813    5.3248   -0.7165 N   0  0  0  0  0  0  0  0  0  0  0  0
   -5.4419    6.0256   -2.8472 O   0  0  0  0  0  0  0  0  0  0  0  0
   -9.9046    6.4527   -1.3882 C   0  0  0  0  0  0  0  0  0  0  0  0
   -2.4796   12.8660   -2.8788 C   0  0  1  0  0  0  0  0  0  0  0  0
   -4.5400    4.7880   -0.5160 C   0  0  0  0  0  0  0  0  0  0  0  0
   -1.2866   13.5050   -3.7090 C   0  0  1  0  0  0  0  0  0  0  0  0
   -3.3512    5.4369   -0.9155 C   0  0  0  0  0  0  0  0  0  0  0  0
   -4.4430    3.5272    0.1033 C   0  0  0  0  0  0  0  0  0  0  0  0
   -0.7242   14.7532   -2.9056 C   0  0  2  0  0  0  0  0  0  0  0  0
   -2.1051    4.7991   -0.7869 C   0  0  0  0  0  0  0  0  0  0  0  0
   -3.1963    2.8832    0.2238 C   0  0  0  0  0  0  0  0  0  0  0  0
    0.4798   15.4048   -3.6196 C   0  0  0  0  0  0  0  0  0  0  0  0
   -2.0070    3.4908   -0.2575 C   0  0  0  0  0  0  0  0  0  0  0  0
   -0.7555    2.8107   -0.2387 C   0  0  0  0  0  0  0  0  0  0  0  0
    0.3778    3.3925   -0.7586 O   0  0  0  0  0  0  0  0  0  0  0  0
   -0.6734    1.6487    0.2307 O   0  0  0  0  0  0  0  0  0  0  0  0
    1.6716    2.7759   -0.8437 C   0  0  2  0  0  0  0  0  0  0  0  0
    2.7470    3.7159   -1.4700 C   0  0  1  0  0  0  0  0  0  0  0  0
    4.1762    3.1817   -1.5744 N   0  0  2  0  0  0  0  0  0  0  0  0
    5.0822    4.2005   -2.2642 C   0  0  2  0  0  0  0  0  0  0  0  0
    4.2495    1.8669   -2.3538 C   0  0  1  0  0  0  0  0  0  0  0  0
    4.7212    2.9161   -0.1837 C   0  0  0  0  0  0  0  0  0  0  0  0
    5.2799    5.5946   -1.6098 C   0  0  0  0  0  0  0  0  0  0  0  0
    3.6749    1.8356   -3.7991 C   0  0  0  0  0  0  0  0  0  0  0  0
   -6.9125   10.0930   -2.7034 H   0  0  0  0  0  0  0  0  0  0  0  0
   -5.8844    8.9385   -1.8224 H   0  0  0  0  0  0  0  0  0  0  0  0
   -5.2178   10.1040   -4.5623 H   0  0  0  0  0  0  0  0  0  0  0  0
   -4.2023    8.9976   -3.6250 H   0  0  0  0  0  0  0  0  0  0  0  0
   -9.3192    8.7420   -3.7659 H   0  0  0  0  0  0  0  0  0  0  0  0
   -5.0409   11.7985   -2.7002 H   0  0  0  0  0  0  0  0  0  0  0  0
   -3.9670   10.7019   -1.8201 H   0  0  0  0  0  0  0  0  0  0  0  0
   -8.4392    5.2293   -0.5352 H   0  0  0  0  0  0  0  0  0  0  0  0
  -11.1317    7.7789   -2.4803 H   0  0  0  0  0  0  0  0  0  0  0  0
   -3.3784   11.8806   -4.5881 H   0  0  0  0  0  0  0  0  0  0  0  0
   -2.2859   10.8457   -3.6533 H   0  0  0  0  0  0  0  0  0  0  0  0
   -6.4292    5.2082   -0.0048 H   0  0  0  0  0  0  0  0  0  0  0  0
  -10.6669    6.0608   -0.8297 H   0  0  0  0  0  0  0  0  0  0  0  0
   -3.2706   13.6149   -2.7724 H   0  0  0  0  0  0  0  0  0  0  0  0
   -2.1290   12.5911   -1.8788 H   0  0  0  0  0  0  0  0  0  0  0  0
   -0.4573   12.7348   -3.6332 H   0  0  0  0  0  0  0  0  0  0  0  0
   -1.5910   13.7737   -4.8330 H   0  0  0  0  0  0  0  0  0  0  0  0
   -3.3877    6.3783   -1.3113 H   0  0  0  0  0  0  0  0  0  0  0  0
   -5.2872    3.0590    0.4428 H   0  0  0  0  0  0  0  0  0  0  0  0
   -0.4128   14.4454   -1.9026 H   0  0  0  0  0  0  0  0  0  0  0  0
   -1.5131   15.5044   -2.8046 H   0  0  0  0  0  0  0  0  0  0  0  0
   -1.2703    5.3022   -1.0974 H   0  0  0  0  0  0  0  0  0  0  0  0
   -3.1759    1.9541    0.6526 H   0  0  0  0  0  0  0  0  0  0  0  0
    0.8262   16.2667   -3.0473 H   0  0  0  0  0  0  0  0  0  0  0  0
    1.3014   14.6916   -3.7086 H   0  0  0  0  0  0  0  0  0  0  0  0
    0.1940   15.7432   -4.6171 H   0  0  0  0  0  0  0  0  0  0  0  0
    1.5680    1.8763   -1.4495 H   0  0  0  0  0  0  0  0  0  0  0  0
    1.9630    2.4845    0.1644 H   0  0  0  0  0  0  0  0  0  0  0  0
    2.3881    4.0127   -2.4593 H   0  0  0  0  0  0  0  0  0  0  0  0
    2.7359    4.6333   -0.8758 H   0  0  0  0  0  0  0  0  0  0  0  0
    4.7200    4.4000   -3.2752 H   0  0  0  0  0  0  0  0  0  0  0  0
    6.0867    3.7768   -2.3808 H   0  0  0  0  0  0  0  0  0  0  0  0
    5.2901    1.5304   -2.4249 H   0  0  0  0  0  0  0  0  0  0  0  0
    3.7397    1.0720   -1.8005 H   0  0  0  0  0  0  0  0  0  0  0  0
    5.7981    2.7216   -0.1996 H   0  0  0  0  0  0  0  0  0  0  0  0
    4.2473    2.0507    0.2865 H   0  0  0  0  0  0  0  0  0  0  0  0
    4.5563    3.7636    0.4853 H   0  0  0  0  0  0  0  0  0  0  0  0
    6.0436    6.1495   -2.1601 H   0  0  0  0  0  0  0  0  0  0  0  0
    4.3579    6.1752   -1.6387 H   0  0  0  0  0  0  0  0  0  0  0  0
    5.6113    5.5010   -0.5773 H   0  0  0  0  0  0  0  0  0  0  0  0
    3.6926    0.8094   -4.1722 H   0  0  0  0  0  0  0  0  0  0  0  0
    4.2690    2.4529   -4.4722 H   0  0  0  0  0  0  0  0  0  0  0  0
    2.6416    2.1791   -3.8322 H   0  0  0  0  0  0  0  0  0  0  0  0
  1  2  1  0  0  0  0 
  1  3  1  0  0  0  0 
  2  4  1  0  0  0  0 
  3  5  2  0  0  0  0 
  3  6  1  0  0  0  0 
  4  7  1  0  0  0  0 
  5  8  1  0  0  0  0 
  5  9  1  0  0  0  0 
  6 10  2  0  0  0  0 
  7 11  1  0  0  0  0 
  8 12  1  0  0  0  0 
  8 13  2  0  0  0  0 
  9 14  2  0  0  0  0 
 10 14  1  0  0  0  0 
 11 15  1  0  0  0  0 
 12 16  1  0  0  0  0 
 15 17  1  0  0  0  0 
 16 18  2  0  0  0  0 
 16 19  1  0  0  0  0 
 17 20  1  0  0  0  0 
 18 21  1  0  0  0  0 
 19 22  2  0  0  0  0 
 20 23  1  0  0  0  0 
 21 24  2  0  0  0  0 
 22 24  1  0  0  0  0 
 24 25  1  0  0  0  0 
 25 26  1  0  0  0  0 
 25 27  2  0  0  0  0 
 26 28  1  0  0  0  0 
 28 29  1  0  0  0  0 
 29 30  1  0  0  0  0 
 30 31  1  0  0  0  0 
 30 32  1  0  0  0  0 
 30 33  1  0  0  0  0 
 31 34  1  0  0  0  0 
 32 35  1  0  0  0  0 
  2 36  1  0  0  0  0 
  2 37  1  0  0  0  0 
  4 38  1  0  0  0  0 
  4 39  1  0  0  0  0 
  6 40  1  0  0  0  0 
  7 41  1  0  0  0  0 
  7 42  1  0  0  0  0 
  9 43  1  0  0  0  0 
 10 44  1  0  0  0  0 
 11 45  1  0  0  0  0 
 11 46  1  0  0  0  0 
 12 47  1  0  0  0  0 
 14 48  1  0  0  0  0 
 15 49  1  0  0  0  0 
 15 50  1  0  0  0  0 
 17 51  1  0  0  0  0 
 17 52  1  0  0  0  0 
 18 53  1  0  0  0  0 
 19 54  1  0  0  0  0 
 20 55  1  0  0  0  0 
 20 56  1  0  0  0  0 
 21 57  1  0  0  0  0 
 22 58  1  0  0  0  0 
 23 59  1  0  0  0  0 
 23 60  1  0  0  0  0 
 23 61  1  0  0  0  0 
 28 62  1  0  0  0  0 
 28 63  1  0  0  0  0 
 29 64  1  0  0  0  0 
 29 65  1  0  0  0  0 
 31 66  1  0  0  0  0 
 31 67  1  0  0  0  0 
 32 68  1  0  0  0  0 
 32 69  1  0  0  0  0 
 33 70  1  0  0  0  0 
 33 71  1  0  0  0  0 
 33 72  1  0  0  0  0 
 34 73  1  0  0  0  0 
 34 74  1  0  0  0  0 
 34 75  1  0  0  0  0 
 35 76  1  0  0  0  0 
 35 77  1  0  0  0  0 
 35 78  1  0  0  0  0 
M  CHG  1  30   1
M  END
> <cdk:Title>
otilonium bromide

> <Conformer>
1

> <SuperDrugID>
SD001792

$$$$
