aceprometazine
  CDK     0628171802

 45 47  0  0  0  0  0  0  0  0999 V2000
   -3.7178    1.5292    1.6915 C   0  0  0  0  0  0  0  0  0  0  0  0
   -4.6744    0.3037    1.7179 C   0  0  1  0  0  0  0  0  0  0  0  0
   -3.9016   -1.0584    1.6602 C   0  0  2  0  0  0  0  0  0  0  0  0
   -2.8525   -1.1816    0.6505 N   0  0  0  0  0  0  0  0  0  0  0  0
   -3.1180   -0.9275   -0.6959 C   0  0  0  0  0  0  0  0  0  0  0  0
   -4.3086   -1.3740   -1.3240 C   0  0  0  0  0  0  0  0  0  0  0  0
   -4.5736   -1.0909   -2.6778 C   0  0  0  0  0  0  0  0  0  0  0  0
   -3.6575   -0.3420   -3.4337 C   0  0  0  0  0  0  0  0  0  0  0  0
   -2.4579    0.0916   -2.8462 C   0  0  0  0  0  0  0  0  0  0  0  0
   -2.1902   -0.2067   -1.4949 C   0  0  0  0  0  0  0  0  0  0  0  0
   -0.6578    0.2970   -0.7897 S   0  0  0  0  0  0  0  0  0  0  0  0
   -0.4277   -0.8854    0.4922 C   0  0  0  0  0  0  0  0  0  0  0  0
   -1.5596   -1.5304    1.0480 C   0  0  0  0  0  0  0  0  0  0  0  0
   -1.3273   -2.5443    2.0143 C   0  0  0  0  0  0  0  0  0  0  0  0
   -0.0291   -2.8667    2.4858 C   0  0  0  0  0  0  0  0  0  0  0  0
    1.0665   -2.1824    1.9074 C   0  0  0  0  0  0  0  0  0  0  0  0
    0.8735   -1.2041    0.9189 C   0  0  0  0  0  0  0  0  0  0  0  0
    0.1897   -3.8403    3.5117 C   0  0  0  0  0  0  0  0  0  0  0  0
   -0.8159   -4.1947    4.5442 C   0  0  0  0  0  0  0  0  0  0  0  0
    1.3029   -4.4133    3.5936 O   0  0  0  0  0  0  0  0  0  0  0  0
   -5.6567    0.3926    2.8615 N   0  0  2  0  0  0  0  0  0  0  0  0
   -5.1061    0.4838    4.2478 C   0  0  0  0  0  0  0  0  0  0  0  0
   -6.8135   -0.5500    2.7785 C   0  0  0  0  0  0  0  0  0  0  0  0
   -4.2756    2.4422    1.9080 H   0  0  0  0  0  0  0  0  0  0  0  0
   -2.9181    1.4205    2.4270 H   0  0  0  0  0  0  0  0  0  0  0  0
   -3.2646    1.6428    0.7063 H   0  0  0  0  0  0  0  0  0  0  0  0
   -5.2627    0.3898    0.7998 H   0  0  0  0  0  0  0  0  0  0  0  0
   -4.6090   -1.8768    1.5137 H   0  0  0  0  0  0  0  0  0  0  0  0
   -3.4907   -1.1947    2.6606 H   0  0  0  0  0  0  0  0  0  0  0  0
   -4.9964   -1.9198   -0.8036 H   0  0  0  0  0  0  0  0  0  0  0  0
   -5.4341   -1.4325   -3.1138 H   0  0  0  0  0  0  0  0  0  0  0  0
   -3.8598   -0.1187   -4.4108 H   0  0  0  0  0  0  0  0  0  0  0  0
   -1.7831    0.6151   -3.4094 H   0  0  0  0  0  0  0  0  0  0  0  0
   -2.1288   -3.0675    2.3704 H   0  0  0  0  0  0  0  0  0  0  0  0
    2.0249   -2.3880    2.2046 H   0  0  0  0  0  0  0  0  0  0  0  0
    1.6855   -0.7330    0.5150 H   0  0  0  0  0  0  0  0  0  0  0  0
   -0.4001   -4.8950    5.2752 H   0  0  0  0  0  0  0  0  0  0  0  0
   -1.1290   -3.2935    5.0791 H   0  0  0  0  0  0  0  0  0  0  0  0
   -1.6875   -4.6667    4.0861 H   0  0  0  0  0  0  0  0  0  0  0  0
   -4.3531    1.2677    4.3275 H   0  0  0  0  0  0  0  0  0  0  0  0
   -5.8995    0.7361    4.9531 H   0  0  0  0  0  0  0  0  0  0  0  0
   -4.6628   -0.4631    4.5588 H   0  0  0  0  0  0  0  0  0  0  0  0
   -7.2667   -0.5243    1.7862 H   0  0  0  0  0  0  0  0  0  0  0  0
   -7.5870   -0.2673    3.4949 H   0  0  0  0  0  0  0  0  0  0  0  0
   -6.5028   -1.5743    2.9962 H   0  0  0  0  0  0  0  0  0  0  0  0
  2  1  1  0  0  0  0 
  2  3  1  0  0  0  0 
  3  4  1  0  0  0  0 
  4  5  1  0  0  0  0 
  5  6  2  0  0  0  0 
  6  7  1  0  0  0  0 
  7  8  2  0  0  0  0 
  8  9  1  0  0  0  0 
  9 10  2  0  0  0  0 
  5 10  1  0  0  0  0 
 10 11  1  0  0  0  0 
 11 12  1  0  0  0  0 
 12 13  2  0  0  0  0 
  4 13  1  0  0  0  0 
 13 14  1  0  0  0  0 
 14 15  2  0  0  0  0 
 15 16  1  0  0  0  0 
 16 17  2  0  0  0  0 
 12 17  1  0  0  0  0 
 15 18  1  0  0  0  0 
 18 19  1  0  0  0  0 
 18 20  2  0  0  0  0 
  2 21  1  0  0  0  0 
 21 22  1  0  0  0  0 
 21 23  1  0  0  0  0 
 24  1  1  0  0  0  0 
 25  1  1  0  0  0  0 
 26  1  1  0  0  0  0 
 27  2  1  0  0  0  0 
 28  3  1  0  0  0  0 
 29  3  1  0  0  0  0 
 30  6  1  0  0  0  0 
 31  7  1  0  0  0  0 
 32  8  1  0  0  0  0 
 33  9  1  0  0  0  0 
 34 14  1  0  0  0  0 
 35 16  1  0  0  0  0 
 36 17  1  0  0  0  0 
 37 19  1  0  0  0  0 
 38 19  1  0  0  0  0 
 39 19  1  0  0  0  0 
 40 22  1  0  0  0  0 
 41 22  1  0  0  0  0 
 42 22  1  0  0  0  0 
 43 23  1  0  0  0  0 
 44 23  1  0  0  0  0 
 45 23  1  0  0  0  0 
M  END
> <cdk:Title>
aceprometazine

> <Conformer>
1

> <SuperDrugID>
SD000027

$$$$
