succisulfone
  CDK     0628171801

 40 41  0  0  0  0  0  0  0  0999 V2000
    1.8093    4.2113    0.6611 S   0  0  1  0  0  0  0  0  0  0  0  0
    1.3402    5.6372    0.0832 O   0  0  0  0  0  0  0  0  0  0  0  0
    3.4160    4.2089    0.6591 O   0  0  0  0  0  0  0  0  0  0  0  0
    1.1837    4.0700    2.3194 C   0  0  0  0  0  0  0  0  0  0  0  0
    1.1914    2.9311   -0.4062 C   0  0  0  0  0  0  0  0  0  0  0  0
    2.0363    3.8122    3.4149 C   0  0  0  0  0  0  0  0  0  0  0  0
   -0.1843    4.3046    2.5561 C   0  0  0  0  0  0  0  0  0  0  0  0
   -0.0987    3.0400   -0.9668 C   0  0  0  0  0  0  0  0  0  0  0  0
    1.9898    1.8119   -0.7287 C   0  0  0  0  0  0  0  0  0  0  0  0
    1.5314    3.8496    4.7312 C   0  0  0  0  0  0  0  0  0  0  0  0
   -0.6824    4.3488    3.8686 C   0  0  0  0  0  0  0  0  0  0  0  0
   -0.5831    2.0500   -1.8426 C   0  0  0  0  0  0  0  0  0  0  0  0
    1.5083    0.8239   -1.6092 C   0  0  0  0  0  0  0  0  0  0  0  0
    0.1696    4.1321    4.9767 C   0  0  0  0  0  0  0  0  0  0  0  0
    0.2229    0.9418   -2.1747 C   0  0  0  0  0  0  0  0  0  0  0  0
   -0.2315    4.2565    6.2780 N   0  0  0  0  0  0  0  0  0  0  0  0
   -0.2289    0.0032   -3.0314 N   0  0  0  0  0  0  0  0  0  0  0  0
   -1.4821    4.0992    6.8034 C   0  0  0  0  0  0  0  0  0  0  0  0
   -1.7335    4.5476    8.1912 C   0  0  2  0  0  0  0  0  0  0  0  0
   -2.4297    3.5982    6.1508 O   0  0  0  0  0  0  0  0  0  0  0  0
   -1.5867    6.0899    8.3201 C   0  0  2  0  0  0  0  0  0  0  0  0
   -2.0549    6.6068    9.6199 C   0  0  0  0  0  0  0  0  0  0  0  0
   -3.0813    7.4893    9.6818 O   0  0  0  0  0  0  0  0  0  0  0  0
   -1.5053    6.2484   10.6851 O   0  0  0  0  0  0  0  0  0  0  0  0
    3.0315    3.6216    3.2685 H   0  0  0  0  0  0  0  0  0  0  0  0
   -0.8241    4.4761    1.7797 H   0  0  0  0  0  0  0  0  0  0  0  0
   -0.6924    3.8430   -0.7465 H   0  0  0  0  0  0  0  0  0  0  0  0
    2.9267    1.7101   -0.3319 H   0  0  0  0  0  0  0  0  0  0  0  0
    2.1724    3.6849    5.5135 H   0  0  0  0  0  0  0  0  0  0  0  0
   -1.6655    4.5800    4.0011 H   0  0  0  0  0  0  0  0  0  0  0  0
   -1.5227    2.1445   -2.2357 H   0  0  0  0  0  0  0  0  0  0  0  0
    2.1012    0.0208   -1.8353 H   0  0  0  0  0  0  0  0  0  0  0  0
    0.4633    4.5074    6.9076 H   0  0  0  0  0  0  0  0  0  0  0  0
    0.3318   -0.7543   -3.2629 H   0  0  0  0  0  0  0  0  0  0  0  0
   -1.1134    0.0832   -3.4227 H   0  0  0  0  0  0  0  0  0  0  0  0
   -1.0272    4.0518    8.8633 H   0  0  0  0  0  0  0  0  0  0  0  0
   -2.7450    4.2548    8.4920 H   0  0  0  0  0  0  0  0  0  0  0  0
   -2.1551    6.5777    7.5230 H   0  0  0  0  0  0  0  0  0  0  0  0
   -0.5367    6.3714    8.2000 H   0  0  0  0  0  0  0  0  0  0  0  0
   -3.3848    7.8418   10.5454 H   0  0  0  0  0  0  0  0  0  0  0  0
  1  2  2  0  0  0  0 
  1  3  2  0  0  0  0 
  1  4  1  0  0  0  0 
  1  5  1  0  0  0  0 
  4  6  2  0  0  0  0 
  4  7  1  0  0  0  0 
  5  8  2  0  0  0  0 
  5  9  1  0  0  0  0 
  6 10  1  0  0  0  0 
  7 11  2  0  0  0  0 
  8 12  1  0  0  0  0 
  9 13  2  0  0  0  0 
 10 14  2  0  0  0  0 
 11 14  1  0  0  0  0 
 12 15  2  0  0  0  0 
 13 15  1  0  0  0  0 
 14 16  1  0  0  0  0 
 15 17  1  0  0  0  0 
 16 18  1  0  0  0  0 
 18 19  1  0  0  0  0 
 18 20  2  0  0  0  0 
 19 21  1  0  0  0  0 
 21 22  1  0  0  0  0 
 22 23  1  0  0  0  0 
 22 24  2  0  0  0  0 
  6 25  1  0  0  0  0 
  7 26  1  0  0  0  0 
  8 27  1  0  0  0  0 
  9 28  1  0  0  0  0 
 10 29  1  0  0  0  0 
 11 30  1  0  0  0  0 
 12 31  1  0  0  0  0 
 13 32  1  0  0  0  0 
 16 33  1  0  0  0  0 
 17 34  1  0  0  0  0 
 17 35  1  0  0  0  0 
 19 36  1  0  0  0  0 
 19 37  1  0  0  0  0 
 21 38  1  0  0  0  0 
 21 39  1  0  0  0  0 
 23 40  1  0  0  0  0 
M  END
> <cdk:Title>
succisulfone

> <Conformer>
1

> <SuperDrugID>
SD003057

$$$$
