phenamacide
  CDK     0628171801

 35 35  0  0  0  0  0  0  0  0999 V2000
    2.6502    1.3878    0.1622 C   0  0  2  0  0  0  0  0  0  0  0  0
    1.3957    0.6240    0.3346 C   0  0  0  0  0  0  0  0  0  0  0  0
    2.5359    2.2656   -1.0112 N   0  0  2  0  0  0  0  0  0  0  0  0
    3.8282    0.4679    0.1305 C   0  0  0  0  0  0  0  0  0  0  0  0
    0.8178    0.0163   -0.7429 O   0  0  0  0  0  0  0  0  0  0  0  0
    0.8744    0.5419    1.4728 O   0  0  0  0  0  0  0  0  0  0  0  0
    4.2177   -0.1707    1.3343 C   0  0  0  0  0  0  0  0  0  0  0  0
    4.5874    0.2030   -1.0393 C   0  0  0  0  0  0  0  0  0  0  0  0
   -0.3283   -0.8445   -0.7081 C   0  0  2  0  0  0  0  0  0  0  0  0
    5.3272   -1.0323    1.3786 C   0  0  0  0  0  0  0  0  0  0  0  0
    5.7115   -0.6442   -0.9924 C   0  0  0  0  0  0  0  0  0  0  0  0
   -0.7826   -1.2576   -2.1310 C   0  0  1  0  0  0  0  0  0  0  0  0
    6.0792   -1.2629    0.2153 C   0  0  0  0  0  0  0  0  0  0  0  0
    0.3544   -1.6167   -3.1418 C   0  0  2  0  0  0  0  0  0  0  0  0
   -0.2388   -1.9386   -4.5432 C   0  0  0  0  0  0  0  0  0  0  0  0
    1.2804   -2.7706   -2.6624 C   0  0  0  0  0  0  0  0  0  0  0  0
    2.7765    2.0652    1.0129 H   0  0  0  0  0  0  0  0  0  0  0  0
    3.3825    2.8398   -1.0378 H   0  0  0  0  0  0  0  0  0  0  0  0
    1.7528    2.8992   -0.8384 H   0  0  0  0  0  0  0  0  0  0  0  0
    3.6914   -0.0077    2.1956 H   0  0  0  0  0  0  0  0  0  0  0  0
    4.3355    0.6184   -1.9396 H   0  0  0  0  0  0  0  0  0  0  0  0
   -1.1586   -0.3364   -0.2090 H   0  0  0  0  0  0  0  0  0  0  0  0
   -0.0785   -1.7364   -0.1291 H   0  0  0  0  0  0  0  0  0  0  0  0
    5.5870   -1.4867    2.2568 H   0  0  0  0  0  0  0  0  0  0  0  0
    6.2614   -0.8111   -1.8387 H   0  0  0  0  0  0  0  0  0  0  0  0
   -1.4738   -2.1009   -2.0402 H   0  0  0  0  0  0  0  0  0  0  0  0
   -1.3477   -0.4180   -2.5456 H   0  0  0  0  0  0  0  0  0  0  0  0
    6.8916   -1.8811    0.2486 H   0  0  0  0  0  0  0  0  0  0  0  0
    0.9820   -0.7284   -3.2630 H   0  0  0  0  0  0  0  0  0  0  0  0
   -0.8303   -1.0940   -4.9062 H   0  0  0  0  0  0  0  0  0  0  0  0
   -0.8813   -2.8225   -4.5004 H   0  0  0  0  0  0  0  0  0  0  0  0
    0.5618   -2.1218   -5.2649 H   0  0  0  0  0  0  0  0  0  0  0  0
    1.7503   -2.5222   -1.7101 H   0  0  0  0  0  0  0  0  0  0  0  0
    0.7210   -3.7004   -2.5433 H   0  0  0  0  0  0  0  0  0  0  0  0
    2.0805   -2.9359   -3.3877 H   0  0  0  0  0  0  0  0  0  0  0  0
  1  2  1  0  0  0  0 
  1  3  1  0  0  0  0 
  1  4  1  0  0  0  0 
  2  5  1  0  0  0  0 
  2  6  2  0  0  0  0 
  4  7  2  0  0  0  0 
  4  8  1  0  0  0  0 
  5  9  1  0  0  0  0 
  7 10  1  0  0  0  0 
  8 11  2  0  0  0  0 
  9 12  1  0  0  0  0 
 10 13  2  0  0  0  0 
 11 13  1  0  0  0  0 
 12 14  1  0  0  0  0 
 14 15  1  0  0  0  0 
 14 16  1  0  0  0  0 
  1 17  1  0  0  0  0 
  3 18  1  0  0  0  0 
  3 19  1  0  0  0  0 
  7 20  1  0  0  0  0 
  8 21  1  0  0  0  0 
  9 22  1  0  0  0  0 
  9 23  1  0  0  0  0 
 10 24  1  0  0  0  0 
 11 25  1  0  0  0  0 
 12 26  1  0  0  0  0 
 12 27  1  0  0  0  0 
 13 28  1  0  0  0  0 
 14 29  1  0  0  0  0 
 15 30  1  0  0  0  0 
 15 31  1  0  0  0  0 
 15 32  1  0  0  0  0 
 16 33  1  0  0  0  0 
 16 34  1  0  0  0  0 
 16 35  1  0  0  0  0 
M  END
> <cdk:Title>
phenamacide

> <Conformer>
1

> <SuperDrugID>
SD001898

$$$$
