venetoclax
  CDK     0628171802

111118  0  0  0  0  0  0  0  0999 V2000
    7.7935   -8.9182    1.7184 C   0  0  0  0  0  0  0  0  0  0  0  0
    7.4344   -7.8758    0.8495 C   0  0  0  0  0  0  0  0  0  0  0  0
    7.5737   -6.5232    1.2324 C   0  0  0  0  0  0  0  0  0  0  0  0
    8.1667   -6.2607    2.4932 C   0  0  0  0  0  0  0  0  0  0  0  0
    8.5433   -7.3008    3.3789 C   0  0  0  0  0  0  0  0  0  0  0  0
    8.3486   -8.6567    2.9942 C   0  0  0  0  0  0  0  0  0  0  0  0
    7.0954   -5.5132    0.4092 N   0  0  0  0  0  0  0  0  0  0  0  0
    7.7942   -4.2698    0.1634 C   0  0  1  0  0  0  0  0  0  0  0  0
    6.9419   -3.0704    0.6641 C   0  0  1  0  0  0  0  0  0  0  0  0
    5.4892   -3.1335    0.2743 N   0  0  1  0  0  0  0  0  0  0  0  0
    4.9052   -4.5033    0.4350 C   0  0  2  0  0  0  0  0  0  0  0  0
    5.7832   -5.6020   -0.1946 C   0  0  1  0  0  0  0  0  0  0  0  0
    8.6840   -9.7449    3.8468 C   0  0  0  0  0  0  0  0  0  0  0  0
    9.6821   -9.6648    4.6027 O   0  0  0  0  0  0  0  0  0  0  0  0
    7.9092  -10.8620    3.8684 N   0  0  0  0  0  0  0  0  0  0  0  0
    8.1104  -12.1595    4.9741 S   0  0  2  0  0  0  0  0  0  0  0  0
    7.5004  -11.6805    6.5712 C   0  0  0  0  0  0  0  0  0  0  0  0
    6.2734  -10.9973    6.6875 C   0  0  0  0  0  0  0  0  0  0  0  0
    8.2319  -11.9752    7.7339 C   0  0  0  0  0  0  0  0  0  0  0  0
    7.7491  -11.5805    8.9936 C   0  0  0  0  0  0  0  0  0  0  0  0
    6.5189  -10.8893    9.1255 C   0  0  0  0  0  0  0  0  0  0  0  0
    5.7681  -10.5876    7.9495 C   0  0  0  0  0  0  0  0  0  0  0  0
    4.6091   -9.9126    7.9923 N   0  0  0  0  0  0  0  0  0  0  0  0
    3.7051  -10.1872    7.3038 O   0  0  0  0  0  0  0  0  0  0  0  0
    4.4349   -8.9163    8.7623 O   0  0  0  0  0  0  0  0  0  0  0  0
    6.0181  -10.5299   10.3551 N   0  0  0  0  0  0  0  0  0  0  0  0
    6.7159  -10.4747   11.6060 C   0  0  2  0  0  0  0  0  0  0  0  0
    5.7989   -9.9521   12.7567 C   0  0  2  0  0  0  0  0  0  0  0  0
    6.6098   -9.6053   14.0434 C   0  0  1  0  0  0  0  0  0  0  0  0
    5.6702   -9.1722   15.1996 C   0  0  2  0  0  0  0  0  0  0  0  0
    4.6605  -10.1690   15.4589 O   0  0  0  0  0  0  0  0  0  0  0  0
    3.8261  -10.4590   14.3192 C   0  0  1  0  0  0  0  0  0  0  0  0
    4.6656  -10.9614   13.1163 C   0  0  2  0  0  0  0  0  0  0  0  0
    9.6618  -12.5671    5.0276 O   0  0  0  0  0  0  0  0  0  0  0  0
    7.2663  -13.4127    4.4324 O   0  0  0  0  0  0  0  0  0  0  0  0
    4.6793   -2.0769    0.9747 C   0  0  2  0  0  0  0  0  0  0  0  0
    3.2871   -1.9398    0.4841 C   0  0  0  0  0  0  0  0  0  0  0  0
    1.7058   -0.7771   -1.1619 C   0  0  2  0  0  0  0  0  0  0  0  0
    0.6656   -1.9064   -0.8870 C   0  0  2  0  0  0  0  0  0  0  0  0
    0.8257   -2.3402    0.6122 C   0  0  2  0  0  0  0  0  0  0  0  0
    2.2014   -2.4602    1.1287 C   0  0  0  0  0  0  0  0  0  0  0  0
    3.1480   -1.1989   -0.7798 C   0  0  1  0  0  0  0  0  0  0  0  0
    2.3003   -3.1233    2.3602 C   0  0  0  0  0  0  0  0  0  0  0  0
    2.4871   -2.3907    3.5559 C   0  0  0  0  0  0  0  0  0  0  0  0
    2.6436   -3.0549    4.7870 C   0  0  0  0  0  0  0  0  0  0  0  0
    2.6042   -4.4613    4.8455 C   0  0  0  0  0  0  0  0  0  0  0  0
    2.3877   -5.2025    3.6676 C   0  0  0  0  0  0  0  0  0  0  0  0
    2.2172   -4.5351    2.4400 C   0  0  0  0  0  0  0  0  0  0  0  0
    2.8155   -5.2510    6.3296 Cl  0  0  0  0  0  0  0  0  0  0  0  0
    0.8818   -3.1280   -1.8440 C   0  0  0  0  0  0  0  0  0  0  0  0
   -0.7752   -1.3483   -1.1287 C   0  0  0  0  0  0  0  0  0  0  0  0
    9.1292   -6.9853    4.5839 O   0  0  0  0  0  0  0  0  0  0  0  0
    8.2202   -6.5861    5.5847 C   0  0  0  0  0  0  0  0  0  0  0  0
    7.7381   -5.1975    5.7410 C   0  0  0  0  0  0  0  0  0  0  0  0
    6.8935   -4.9972    6.8447 C   0  0  0  0  0  0  0  0  0  0  0  0
    6.5556   -6.0427    7.7134 C   0  0  0  0  0  0  0  0  0  0  0  0
    7.0122   -7.3132    7.5442 N   0  0  0  0  0  0  0  0  0  0  0  0
    7.8374   -7.6456    6.5140 C   0  0  0  0  0  0  0  0  0  0  0  0
    6.2670   -3.8522    7.3192 C   0  0  0  0  0  0  0  0  0  0  0  0
    5.5696   -4.2361    8.4622 C   0  0  0  0  0  0  0  0  0  0  0  0
    5.7575   -5.5526    8.6753 N   0  0  0  0  0  0  0  0  0  0  0  0
    7.6485   -9.8779    1.3940 H   0  0  0  0  0  0  0  0  0  0  0  0
    7.0545   -8.1152   -0.0715 H   0  0  0  0  0  0  0  0  0  0  0  0
    8.3105   -5.2954    2.7904 H   0  0  0  0  0  0  0  0  0  0  0  0
    8.7815   -4.2291    0.6342 H   0  0  0  0  0  0  0  0  0  0  0  0
    7.9620   -4.1679   -0.9126 H   0  0  0  0  0  0  0  0  0  0  0  0
    7.0387   -3.0194    1.7531 H   0  0  0  0  0  0  0  0  0  0  0  0
    7.3728   -2.1565    0.2459 H   0  0  0  0  0  0  0  0  0  0  0  0
    3.9225   -4.5546   -0.0417 H   0  0  0  0  0  0  0  0  0  0  0  0
    4.7943   -4.7356    1.4982 H   0  0  0  0  0  0  0  0  0  0  0  0
    5.8496   -5.4560   -1.2752 H   0  0  0  0  0  0  0  0  0  0  0  0
    5.2796   -6.5571   -0.0255 H   0  0  0  0  0  0  0  0  0  0  0  0
    7.1603  -10.9134    3.2534 H   0  0  0  0  0  0  0  0  0  0  0  0
    5.7472  -10.7824    5.8350 H   0  0  0  0  0  0  0  0  0  0  0  0
    9.1189  -12.4825    7.6725 H   0  0  0  0  0  0  0  0  0  0  0  0
    8.3090  -11.8161    9.8149 H   0  0  0  0  0  0  0  0  0  0  0  0
    5.0885  -10.2552   10.3800 H   0  0  0  0  0  0  0  0  0  0  0  0
    7.5655   -9.7960   11.4908 H   0  0  0  0  0  0  0  0  0  0  0  0
    7.0982  -11.4645   11.8678 H   0  0  0  0  0  0  0  0  0  0  0  0
    5.3301   -9.0245   12.4097 H   0  0  0  0  0  0  0  0  0  0  0  0
    7.1809  -10.4794   14.3679 H   0  0  0  0  0  0  0  0  0  0  0  0
    7.3136   -8.7949   13.8347 H   0  0  0  0  0  0  0  0  0  0  0  0
    5.2005   -8.2097   14.9718 H   0  0  0  0  0  0  0  0  0  0  0  0
    6.2601   -9.0504   16.1105 H   0  0  0  0  0  0  0  0  0  0  0  0
    3.1189  -11.2389   14.6114 H   0  0  0  0  0  0  0  0  0  0  0  0
    3.2538   -9.5701   14.0361 H   0  0  0  0  0  0  0  0  0  0  0  0
    5.1051  -11.9280   13.3775 H   0  0  0  0  0  0  0  0  0  0  0  0
    4.0049  -11.1085   12.2587 H   0  0  0  0  0  0  0  0  0  0  0  0
    5.1810   -1.1104    0.8625 H   0  0  0  0  0  0  0  0  0  0  0  0
    4.7157   -2.2729    2.0466 H   0  0  0  0  0  0  0  0  0  0  0  0
    1.4457    0.1059   -0.5672 H   0  0  0  0  0  0  0  0  0  0  0  0
    1.6868   -0.4782   -2.2147 H   0  0  0  0  0  0  0  0  0  0  0  0
    0.2921   -3.2892    0.7400 H   0  0  0  0  0  0  0  0  0  0  0  0
    0.3230   -1.6141    1.2592 H   0  0  0  0  0  0  0  0  0  0  0  0
    3.7342   -0.2755   -0.7385 H   0  0  0  0  0  0  0  0  0  0  0  0
    3.5693   -1.8106   -1.5808 H   0  0  0  0  0  0  0  0  0  0  0  0
    2.5195   -1.3675    3.5361 H   0  0  0  0  0  0  0  0  0  0  0  0
    2.7928   -2.5046    5.6361 H   0  0  0  0  0  0  0  0  0  0  0  0
    2.3558   -6.2254    3.6995 H   0  0  0  0  0  0  0  0  0  0  0  0
    2.0438   -5.0938    1.6007 H   0  0  0  0  0  0  0  0  0  0  0  0
    1.8741   -3.5630   -1.7246 H   0  0  0  0  0  0  0  0  0  0  0  0
    0.1525   -3.9158   -1.6422 H   0  0  0  0  0  0  0  0  0  0  0  0
    0.7692   -2.8248   -2.8865 H   0  0  0  0  0  0  0  0  0  0  0  0
   -0.9053   -1.0527   -2.1722 H   0  0  0  0  0  0  0  0  0  0  0  0
   -0.9632   -0.4701   -0.5067 H   0  0  0  0  0  0  0  0  0  0  0  0
   -1.5298   -2.1002   -0.8870 H   0  0  0  0  0  0  0  0  0  0  0  0
    8.0176   -4.4437    5.1112 H   0  0  0  0  0  0  0  0  0  0  0  0
    8.1726   -8.6036    6.4285 H   0  0  0  0  0  0  0  0  0  0  0  0
    6.3091   -2.9144    6.9135 H   0  0  0  0  0  0  0  0  0  0  0  0
    5.0032   -3.6170    9.0447 H   0  0  0  0  0  0  0  0  0  0  0  0
    5.3762   -6.0652    9.4069 H   0  0  0  0  0  0  0  0  0  0  0  0
  1  2  2  0  0  0  0 
  1  6  1  0  0  0  0 
  2  3  1  0  0  0  0 
  3  4  2  0  0  0  0 
  4  5  1  0  0  0  0 
  5  6  2  0  0  0  0 
  3  7  1  0  0  0  0 
  8  9  1  0  0  0  0 
  9 10  1  0  0  0  0 
 10 11  1  0  0  0  0 
 11 12  1  0  0  0  0 
  7  8  1  0  0  0  0 
  7 12  1  0  0  0  0 
  6 13  1  0  0  0  0 
 13 14  2  0  0  0  0 
 13 15  1  0  0  0  0 
 15 16  1  0  0  0  0 
 16 17  1  0  0  0  0 
 19 20  2  0  0  0  0 
 20 21  1  0  0  0  0 
 21 22  2  0  0  0  0 
 18 22  1  0  0  0  0 
 18 17  2  0  0  0  0 
 17 19  1  0  0  0  0 
 22 23  1  0  0  0  0 
 23 24  2  0  0  0  0 
 23 25  1  0  0  0  0 
 21 26  1  0  0  0  0 
 26 27  1  0  0  0  0 
 27 28  1  0  0  0  0 
 29 30  1  0  0  0  0 
 30 31  1  0  0  0  0 
 31 32  1  0  0  0  0 
 32 33  1  0  0  0  0 
 33 28  1  0  0  0  0 
 29 28  1  0  0  0  0 
 16 34  2  0  0  0  0 
 16 35  2  0  0  0  0 
 10 36  1  0  0  0  0 
 36 37  1  0  0  0  0 
 38 39  1  0  0  0  0 
 39 40  1  0  0  0  0 
 40 41  1  0  0  0  0 
 38 42  1  0  0  0  0 
 41 37  2  0  0  0  0 
 37 42  1  0  0  0  0 
 41 43  1  0  0  0  0 
 44 45  1  0  0  0  0 
 45 46  2  0  0  0  0 
 46 47  1  0  0  0  0 
 47 48  2  0  0  0  0 
 43 44  2  0  0  0  0 
 43 48  1  0  0  0  0 
 46 49  1  0  0  0  0 
 39 50  1  0  0  0  0 
 39 51  1  0  0  0  0 
  5 52  1  0  0  0  0 
 52 53  1  0  0  0  0 
 54 55  2  0  0  0  0 
 55 56  1  0  0  0  0 
 56 57  2  0  0  0  0 
 57 58  1  0  0  0  0 
 53 54  1  0  0  0  0 
 53 58  2  0  0  0  0 
 59 60  2  0  0  0  0 
 60 61  1  0  0  0  0 
 55 59  1  0  0  0  0 
 56 61  1  0  0  0  0 
 62  1  1  0  0  0  0 
 63  2  1  0  0  0  0 
 64  4  1  0  0  0  0 
 65  8  1  0  0  0  0 
 66  8  1  0  0  0  0 
 67  9  1  0  0  0  0 
 68  9  1  0  0  0  0 
 69 11  1  0  0  0  0 
 70 11  1  0  0  0  0 
 71 12  1  0  0  0  0 
 72 12  1  0  0  0  0 
 73 15  1  0  0  0  0 
 74 18  1  0  0  0  0 
 75 19  1  0  0  0  0 
 76 20  1  0  0  0  0 
 77 26  1  0  0  0  0 
 78 27  1  0  0  0  0 
 79 27  1  0  0  0  0 
 80 28  1  0  0  0  0 
 81 29  1  0  0  0  0 
 82 29  1  0  0  0  0 
 83 30  1  0  0  0  0 
 84 30  1  0  0  0  0 
 85 32  1  0  0  0  0 
 86 32  1  0  0  0  0 
 87 33  1  0  0  0  0 
 88 33  1  0  0  0  0 
 89 36  1  0  0  0  0 
 90 36  1  0  0  0  0 
 91 38  1  0  0  0  0 
 92 38  1  0  0  0  0 
 93 40  1  0  0  0  0 
 94 40  1  0  0  0  0 
 95 42  1  0  0  0  0 
 96 42  1  0  0  0  0 
 97 44  1  0  0  0  0 
 98 45  1  0  0  0  0 
 99 47  1  0  0  0  0 
100 48  1  0  0  0  0 
101 50  1  0  0  0  0 
102 50  1  0  0  0  0 
103 50  1  0  0  0  0 
104 51  1  0  0  0  0 
105 51  1  0  0  0  0 
106 51  1  0  0  0  0 
107 54  1  0  0  0  0 
108 58  1  0  0  0  0 
109 59  1  0  0  0  0 
110 60  1  0  0  0  0 
111 61  1  0  0  0  0 
M  CHG  1  23   1
M  CHG  1  25  -1
M  END
> <cdk:Title>
venetoclax

> <Conformer>
1

> <SuperDrugID>
SD003915

$$$$
