pranlukast
  CDK     0628171801

 59 63  0  0  0  0  0  0  0  0999 V2000
    5.7103    2.1429   -2.3667 C   0  0  0  0  0  0  0  0  0  0  0  0
    5.9267    0.9404   -1.6684 C   0  0  0  0  0  0  0  0  0  0  0  0
    6.9824    0.8595   -0.7409 C   0  0  0  0  0  0  0  0  0  0  0  0
    7.7480    2.0002   -0.4411 C   0  0  0  0  0  0  0  0  0  0  0  0
    7.4647    3.2499   -1.0500 C   0  0  0  0  0  0  0  0  0  0  0  0
    6.4701    3.2842   -2.0606 C   0  0  0  0  0  0  0  0  0  0  0  0
    7.8571    6.6806    1.4285 C   0  0  0  0  0  0  0  0  0  0  0  0
    8.8205    5.6453    1.4010 C   0  0  0  0  0  0  0  0  0  0  0  0
    8.6333    4.5266    0.6428 N   0  0  0  0  0  0  0  0  0  0  0  0
    8.0707    4.4594   -0.6021 C   0  0  0  0  0  0  0  0  0  0  0  0
    3.9646   -0.0612   -0.9437 C   0  0  1  0  0  0  0  0  0  0  0  0
    5.0823   -0.1207   -1.8597 O   0  0  0  0  0  0  0  0  0  0  0  0
    8.0076    7.7837    2.2828 C   0  0  0  0  0  0  0  0  0  0  0  0
    9.1136    7.8560    3.1447 C   0  0  0  0  0  0  0  0  0  0  0  0
   10.0893    6.8328    3.1492 C   0  0  0  0  0  0  0  0  0  0  0  0
    9.9446    5.7387    2.2531 C   0  0  0  0  0  0  0  0  0  0  0  0
   11.2146    6.8516    4.0076 C   0  0  0  0  0  0  0  0  0  0  0  0
   12.1867    5.8351    3.9469 C   0  0  0  0  0  0  0  0  0  0  0  0
   12.0415    4.7972    3.0046 C   0  0  0  0  0  0  0  0  0  0  0  0
   10.9223    4.7838    2.2191 O   0  0  0  0  0  0  0  0  0  0  0  0
   11.3813    7.7777    4.8362 O   0  0  0  0  0  0  0  0  0  0  0  0
   13.0067    3.7923    2.8038 C   0  0  0  0  0  0  0  0  0  0  0  0
    8.0115    5.4954   -1.3105 O   0  0  0  0  0  0  0  0  0  0  0  0
   12.9886    2.8904    1.8139 N   0  0  0  0  0  0  0  0  0  0  0  0
   14.0505    2.1621    1.9449 N   0  0  0  0  0  0  0  0  0  0  0  0
   14.7393    2.5557    2.9701 N   0  0  0  0  0  0  0  0  0  0  0  0
   14.1185    3.5499    3.5084 N   0  0  0  0  0  0  0  0  0  0  0  0
    2.9632   -1.2032   -1.2284 C   0  0  2  0  0  0  0  0  0  0  0  0
    1.7378   -1.1362   -0.2718 C   0  0  2  0  0  0  0  0  0  0  0  0
    0.7305   -2.3052   -0.4370 C   0  0  2  0  0  0  0  0  0  0  0  0
    0.0882   -2.3386   -1.7804 C   0  0  0  0  0  0  0  0  0  0  0  0
   -0.9677   -1.4498   -2.0953 C   0  0  0  0  0  0  0  0  0  0  0  0
   -1.5423   -1.4442   -3.3804 C   0  0  0  0  0  0  0  0  0  0  0  0
   -1.0711   -2.3282   -4.3672 C   0  0  0  0  0  0  0  0  0  0  0  0
   -0.0353   -3.2289   -4.0639 C   0  0  0  0  0  0  0  0  0  0  0  0
    0.5370   -3.2373   -2.7783 C   0  0  0  0  0  0  0  0  0  0  0  0
    4.9764    2.1972   -3.0767 H   0  0  0  0  0  0  0  0  0  0  0  0
    7.1772   -0.0234   -0.2634 H   0  0  0  0  0  0  0  0  0  0  0  0
    8.4974    1.9058    0.2469 H   0  0  0  0  0  0  0  0  0  0  0  0
    6.2559    4.1501   -2.5606 H   0  0  0  0  0  0  0  0  0  0  0  0
    7.0197    6.6279    0.8454 H   0  0  0  0  0  0  0  0  0  0  0  0
    8.8655    3.6888    1.0671 H   0  0  0  0  0  0  0  0  0  0  0  0
    4.3185   -0.1586    0.0891 H   0  0  0  0  0  0  0  0  0  0  0  0
    3.4294    0.8914   -1.0426 H   0  0  0  0  0  0  0  0  0  0  0  0
    7.3084    8.5294    2.2851 H   0  0  0  0  0  0  0  0  0  0  0  0
    9.1994    8.6616    3.7683 H   0  0  0  0  0  0  0  0  0  0  0  0
   12.9976    5.8663    4.5717 H   0  0  0  0  0  0  0  0  0  0  0  0
   14.4153    4.0390    4.2925 H   0  0  0  0  0  0  0  0  0  0  0  0
    3.4736   -2.1624   -1.1059 H   0  0  0  0  0  0  0  0  0  0  0  0
    2.6271   -1.1221   -2.2659 H   0  0  0  0  0  0  0  0  0  0  0  0
    1.2158   -0.1864   -0.4202 H   0  0  0  0  0  0  0  0  0  0  0  0
    2.1017   -1.1514    0.7600 H   0  0  0  0  0  0  0  0  0  0  0  0
   -0.0445   -2.2076    0.3301 H   0  0  0  0  0  0  0  0  0  0  0  0
    1.2503   -3.2452   -0.2331 H   0  0  0  0  0  0  0  0  0  0  0  0
   -1.3237   -0.7986   -1.3907 H   0  0  0  0  0  0  0  0  0  0  0  0
   -2.3015   -0.7951   -3.5984 H   0  0  0  0  0  0  0  0  0  0  0  0
   -1.4806   -2.3160   -5.3036 H   0  0  0  0  0  0  0  0  0  0  0  0
    0.3046   -3.8755   -4.7792 H   0  0  0  0  0  0  0  0  0  0  0  0
    1.2942   -3.8960   -2.5800 H   0  0  0  0  0  0  0  0  0  0  0  0
  1  2  2  0  0  0  0 
  2  3  1  0  0  0  0 
  3  4  2  0  0  0  0 
  4  5  1  0  0  0  0 
  5  6  2  0  0  0  0 
  6  1  1  0  0  0  0 
  7  8  1  0  0  0  0 
  8  9  1  0  0  0  0 
  9 10  1  0  0  0  0 
 10  5  1  0  0  0  0 
 11 12  1  0  0  0  0 
 12  2  1  0  0  0  0 
  7 13  2  0  0  0  0 
 13 14  1  0  0  0  0 
 14 15  2  0  0  0  0 
 15 16  1  0  0  0  0 
 16  8  2  0  0  0  0 
 15 17  1  0  0  0  0 
 17 18  1  0  0  0  0 
 18 19  2  0  0  0  0 
 19 20  1  0  0  0  0 
 20 16  1  0  0  0  0 
 17 21  2  0  0  0  0 
 19 22  1  0  0  0  0 
 10 23  2  0  0  0  0 
 22 24  2  0  0  0  0 
 24 25  1  0  0  0  0 
 25 26  2  0  0  0  0 
 26 27  1  0  0  0  0 
 27 22  1  0  0  0  0 
 11 28  1  0  0  0  0 
 28 29  1  0  0  0  0 
 29 30  1  0  0  0  0 
 30 31  1  0  0  0  0 
 31 32  2  0  0  0  0 
 32 33  1  0  0  0  0 
 33 34  2  0  0  0  0 
 34 35  1  0  0  0  0 
 35 36  2  0  0  0  0 
 36 31  1  0  0  0  0 
 37  1  1  0  0  0  0 
 38  3  1  0  0  0  0 
 39  4  1  0  0  0  0 
 40  6  1  0  0  0  0 
 41  7  1  0  0  0  0 
 42  9  1  0  0  0  0 
 43 11  1  0  0  0  0 
 44 11  1  0  0  0  0 
 45 13  1  0  0  0  0 
 46 14  1  0  0  0  0 
 47 18  1  0  0  0  0 
 48 27  1  0  0  0  0 
 49 28  1  0  0  0  0 
 50 28  1  0  0  0  0 
 51 29  1  0  0  0  0 
 52 29  1  0  0  0  0 
 53 30  1  0  0  0  0 
 54 30  1  0  0  0  0 
 55 32  1  0  0  0  0 
 56 33  1  0  0  0  0 
 57 34  1  0  0  0  0 
 58 35  1  0  0  0  0 
 59 36  1  0  0  0  0 
M  END
> <cdk:Title>
pranlukast

> <Conformer>
1

> <SuperDrugID>
SD002006

$$$$
