milnacipran
  CDK     0628171801

 40 41  0  0  0  0  0  0  0  0999 V2000
    1.3364    0.7925   -2.0248 C   0  0  0  0  0  0  0  0  0  0  0  0
    2.0007    1.8214   -2.7165 C   0  0  0  0  0  0  0  0  0  0  0  0
    1.3470    3.0425   -2.9584 C   0  0  0  0  0  0  0  0  0  0  0  0
    0.0310    3.2347   -2.5021 C   0  0  0  0  0  0  0  0  0  0  0  0
   -0.6305    2.2091   -1.8000 C   0  0  0  0  0  0  0  0  0  0  0  0
    0.0156    0.9757   -1.5496 C   0  0  0  0  0  0  0  0  0  0  0  0
   -0.6693   -0.1288   -0.8221 C   0  0  1  0  0  0  0  0  0  0  0  0
   -1.0596   -1.3067   -1.6534 C   0  0  0  0  0  0  0  0  0  0  0  0
    0.0222   -0.4602    0.5298 C   0  0  2  0  0  0  0  0  0  0  0  0
   -1.3813    0.1548    0.5354 C   0  0  2  0  0  0  0  0  0  0  0  0
   -2.4767   -0.7610    1.1374 C   0  0  2  0  0  0  0  0  0  0  0  0
   -3.8081   -0.1912    0.9095 N   0  0  1  0  0  0  0  0  0  0  0  0
   -2.2680   -1.4520   -2.3448 N   0  0  0  0  0  0  0  0  0  0  0  0
   -0.1563   -2.1724   -1.7239 O   0  0  0  0  0  0  0  0  0  0  0  0
   -2.6784   -2.6737   -3.0454 C   0  0  2  0  0  0  0  0  0  0  0  0
   -3.2403   -0.3636   -2.4000 C   0  0  2  0  0  0  0  0  0  0  0  0
   -3.2729    0.3554   -3.7698 C   0  0  0  0  0  0  0  0  0  0  0  0
   -1.7344   -3.8935   -3.1823 C   0  0  0  0  0  0  0  0  0  0  0  0
    1.8245   -0.0945   -1.8705 H   0  0  0  0  0  0  0  0  0  0  0  0
    2.9595    1.6789   -3.0438 H   0  0  0  0  0  0  0  0  0  0  0  0
    1.8289    3.7884   -3.4644 H   0  0  0  0  0  0  0  0  0  0  0  0
   -0.4438    4.1222   -2.6808 H   0  0  0  0  0  0  0  0  0  0  0  0
   -1.5872    2.3710   -1.4772 H   0  0  0  0  0  0  0  0  0  0  0  0
    0.8007    0.2177    0.8889 H   0  0  0  0  0  0  0  0  0  0  0  0
    0.0822   -1.5117    0.8269 H   0  0  0  0  0  0  0  0  0  0  0  0
   -1.3714    1.1903    0.8861 H   0  0  0  0  0  0  0  0  0  0  0  0
   -2.3173   -0.8469    2.2143 H   0  0  0  0  0  0  0  0  0  0  0  0
   -2.4466   -1.7636    0.7093 H   0  0  0  0  0  0  0  0  0  0  0  0
   -4.4858   -0.8091    1.3594 H   0  0  0  0  0  0  0  0  0  0  0  0
   -3.8499    0.7000    1.4067 H   0  0  0  0  0  0  0  0  0  0  0  0
   -2.9555   -2.4234   -4.0726 H   0  0  0  0  0  0  0  0  0  0  0  0
   -3.5808   -3.0443   -2.5503 H   0  0  0  0  0  0  0  0  0  0  0  0
   -3.0576    0.4046   -1.6515 H   0  0  0  0  0  0  0  0  0  0  0  0
   -4.2458   -0.7410   -2.1834 H   0  0  0  0  0  0  0  0  0  0  0  0
   -3.7863   -0.2564   -4.5122 H   0  0  0  0  0  0  0  0  0  0  0  0
   -3.8167    1.2971   -3.6777 H   0  0  0  0  0  0  0  0  0  0  0  0
   -2.2605    0.5669   -4.1211 H   0  0  0  0  0  0  0  0  0  0  0  0
   -1.4544   -4.2820   -2.2008 H   0  0  0  0  0  0  0  0  0  0  0  0
   -2.2436   -4.6915   -3.7276 H   0  0  0  0  0  0  0  0  0  0  0  0
   -0.8367   -3.6192   -3.7420 H   0  0  0  0  0  0  0  0  0  0  0  0
  1  2  2  0  0  0  0 
  2  3  1  0  0  0  0 
  3  4  2  0  0  0  0 
  4  5  1  0  0  0  0 
  5  6  2  0  0  0  0 
  1  6  1  0  0  0  0 
  7  6  1  0  0  0  0 
  7  8  1  0  0  0  0 
 10  9  1  0  0  0  0 
  7  9  1  0  0  0  0 
 10  7  1  0  0  0  0 
 10 11  1  0  0  0  0 
 11 12  1  0  0  0  0 
  8 13  1  0  0  0  0 
  8 14  2  0  0  0  0 
 13 15  1  0  0  0  0 
 13 16  1  0  0  0  0 
 16 17  1  0  0  0  0 
 15 18  1  0  0  0  0 
  1 19  1  0  0  0  0 
  2 20  1  0  0  0  0 
  3 21  1  0  0  0  0 
  4 22  1  0  0  0  0 
  5 23  1  0  0  0  0 
  9 24  1  0  0  0  0 
  9 25  1  0  0  0  0 
 10 26  1  0  0  0  0 
 11 27  1  0  0  0  0 
 11 28  1  0  0  0  0 
 12 29  1  0  0  0  0 
 12 30  1  0  0  0  0 
 15 31  1  0  0  0  0 
 15 32  1  0  0  0  0 
 16 33  1  0  0  0  0 
 16 34  1  0  0  0  0 
 17 35  1  0  0  0  0 
 17 36  1  0  0  0  0 
 17 37  1  0  0  0  0 
 18 38  1  0  0  0  0 
 18 39  1  0  0  0  0 
 18 40  1  0  0  0  0 
M  END
> <cdk:Title>
milnacipran

> <Conformer>
1

> <SuperDrugID>
SD001607

$$$$
