promegestone
  CDK     0628171801

 54 57  0  0  0  0  0  0  0  0999 V2000
    5.0777    0.0993    1.3259 C   0  0  0  0  0  0  0  0  0  0  0  0
    5.4982    1.6193    1.5419 C   0  0  2  0  0  0  0  0  0  0  0  0
    7.0450    1.8655    1.4330 C   0  0  2  0  0  0  0  0  0  0  0  0
    5.1982    2.0455    3.0478 C   0  0  2  0  0  0  0  0  0  0  0  0
    4.8428    2.4798    0.4019 C   0  0  2  0  0  0  0  0  0  0  0  0
    7.6379    1.5099    0.0200 C   0  0  1  0  0  0  0  0  0  0  0  0
    7.5851    1.2161    2.7232 C   0  0  1  0  0  0  0  0  0  0  0  0
    3.8476    1.5792    3.5405 C   0  0  0  0  0  0  0  0  0  0  0  0
    5.1639    3.5959    3.3224 C   0  0  0  0  0  0  0  0  0  0  0  0
    6.4533    1.4196    3.7714 C   0  0  1  0  0  0  0  0  0  0  0  0
    5.4624    2.1859   -1.0003 C   0  0  2  0  0  0  0  0  0  0  0  0
    6.9365    2.3579   -0.9961 C   0  0  0  0  0  0  0  0  0  0  0  0
    9.1953    1.5736   -0.0642 C   0  0  1  0  0  0  0  0  0  0  0  0
    3.5630    0.9610    4.8595 C   0  0  2  0  0  0  0  0  0  0  0  0
    2.8434    1.7870    2.8142 O   0  0  0  0  0  0  0  0  0  0  0  0
    7.6055    3.2324   -1.8113 C   0  0  0  0  0  0  0  0  0  0  0  0
    9.6682    2.9810   -0.4710 C   0  0  1  0  0  0  0  0  0  0  0  0
    3.4116   -0.5739    4.7569 C   0  0  0  0  0  0  0  0  0  0  0  0
    8.9911    3.3905   -1.7068 C   0  0  0  0  0  0  0  0  0  0  0  0
    6.8945    3.9922   -2.8711 C   0  0  2  0  0  0  0  0  0  0  0  0
    9.7285    3.9104   -2.7162 C   0  0  0  0  0  0  0  0  0  0  0  0
    7.7561    4.9239   -3.7722 C   0  0  1  0  0  0  0  0  0  0  0  0
    9.1535    4.4607   -3.8442 C   0  0  0  0  0  0  0  0  0  0  0  0
    9.8296    4.6548   -4.8808 O   0  0  0  0  0  0  0  0  0  0  0  0
    3.9914   -0.0031    1.3039 H   0  0  0  0  0  0  0  0  0  0  0  0
    5.4431   -0.5495    2.1221 H   0  0  0  0  0  0  0  0  0  0  0  0
    5.4385   -0.3262    0.3946 H   0  0  0  0  0  0  0  0  0  0  0  0
    7.2567    2.9345    1.5457 H   0  0  0  0  0  0  0  0  0  0  0  0
    4.9907    3.5451    0.5963 H   0  0  0  0  0  0  0  0  0  0  0  0
    3.7639    2.3061    0.3704 H   0  0  0  0  0  0  0  0  0  0  0  0
    7.4087    0.4649   -0.1920 H   0  0  0  0  0  0  0  0  0  0  0  0
    7.7793    0.1520    2.5598 H   0  0  0  0  0  0  0  0  0  0  0  0
    8.5138    1.6931    3.0493 H   0  0  0  0  0  0  0  0  0  0  0  0
    6.0910    4.0912    3.0419 H   0  0  0  0  0  0  0  0  0  0  0  0
    4.3500    4.0805    2.7775 H   0  0  0  0  0  0  0  0  0  0  0  0
    5.0105    3.7988    4.3860 H   0  0  0  0  0  0  0  0  0  0  0  0
    6.8086    2.0466    4.5948 H   0  0  0  0  0  0  0  0  0  0  0  0
    6.2191    0.4437    4.1997 H   0  0  0  0  0  0  0  0  0  0  0  0
    4.9342    2.8220   -1.7085 H   0  0  0  0  0  0  0  0  0  0  0  0
    5.2302    1.1666   -1.3097 H   0  0  0  0  0  0  0  0  0  0  0  0
    9.6620    1.2835    0.8802 H   0  0  0  0  0  0  0  0  0  0  0  0
    9.5461    0.8625   -0.8210 H   0  0  0  0  0  0  0  0  0  0  0  0
    2.6275    1.3752    5.2540 H   0  0  0  0  0  0  0  0  0  0  0  0
    4.3401    1.2029    5.5864 H   0  0  0  0  0  0  0  0  0  0  0  0
    9.4148    3.6886    0.3224 H   0  0  0  0  0  0  0  0  0  0  0  0
   10.7584    2.9676   -0.5609 H   0  0  0  0  0  0  0  0  0  0  0  0
    3.0855   -0.9732    5.7181 H   0  0  0  0  0  0  0  0  0  0  0  0
    4.3626   -1.0413    4.4948 H   0  0  0  0  0  0  0  0  0  0  0  0
    2.6677   -0.8390    4.0032 H   0  0  0  0  0  0  0  0  0  0  0  0
    6.1195    4.6193   -2.4191 H   0  0  0  0  0  0  0  0  0  0  0  0
    6.4097    3.2677   -3.5340 H   0  0  0  0  0  0  0  0  0  0  0  0
   10.7198    3.9309   -2.6544 H   0  0  0  0  0  0  0  0  0  0  0  0
    7.3218    4.9877   -4.7757 H   0  0  0  0  0  0  0  0  0  0  0  0
    7.7631    5.9341   -3.3505 H   0  0  0  0  0  0  0  0  0  0  0  0
  2  1  1  0  0  0  0 
  2  3  1  0  0  0  0 
  2  4  1  0  0  0  0 
  2  5  1  0  0  0  0 
  3  6  1  0  0  0  0 
  3  7  1  0  0  0  0 
  4  8  1  0  0  0  0 
  4  9  1  0  0  0  0 
  4 10  1  0  0  0  0 
  5 11  1  0  0  0  0 
  6 12  1  0  0  0  0 
  6 13  1  0  0  0  0 
  7 10  1  0  0  0  0 
  8 14  1  0  0  0  0 
  8 15  2  0  0  0  0 
 11 12  1  0  0  0  0 
 12 16  2  0  0  0  0 
 13 17  1  0  0  0  0 
 14 18  1  0  0  0  0 
 16 19  1  0  0  0  0 
 16 20  1  0  0  0  0 
 17 19  1  0  0  0  0 
 19 21  2  0  0  0  0 
 20 22  1  0  0  0  0 
 21 23  1  0  0  0  0 
 22 23  1  0  0  0  0 
 23 24  2  0  0  0  0 
 25  1  1  0  0  0  0 
 26  1  1  0  0  0  0 
 27  1  1  0  0  0  0 
  3 28  1  0  0  0  0 
 29  5  1  0  0  0  0 
 30  5  1  0  0  0  0 
  6 31  1  0  0  0  0 
 32  7  1  0  0  0  0 
 33  7  1  0  0  0  0 
 34  9  1  0  0  0  0 
 35  9  1  0  0  0  0 
 36  9  1  0  0  0  0 
 37 10  1  0  0  0  0 
 38 10  1  0  0  0  0 
 39 11  1  0  0  0  0 
 40 11  1  0  0  0  0 
 41 13  1  0  0  0  0 
 42 13  1  0  0  0  0 
 43 14  1  0  0  0  0 
 44 14  1  0  0  0  0 
 45 17  1  0  0  0  0 
 46 17  1  0  0  0  0 
 47 18  1  0  0  0  0 
 48 18  1  0  0  0  0 
 49 18  1  0  0  0  0 
 50 20  1  0  0  0  0 
 51 20  1  0  0  0  0 
 52 21  1  0  0  0  0 
 53 22  1  0  0  0  0 
 54 22  1  0  0  0  0 
M  END
> <cdk:Title>
promegestone

> <Conformer>
1

> <SuperDrugID>
SD002051

$$$$
