chloropyramine
  CDK     0628171802

 40 41  0  0  0  0  0  0  0  0999 V2000
    0.5416   -2.4750   -0.0482 N   0  0  0  0  0  0  0  0  0  0  0  0
    0.8774   -1.1401    0.4231 C   0  0  1  0  0  0  0  0  0  0  0  0
    1.0398   -3.6197    0.6923 C   0  0  1  0  0  0  0  0  0  0  0  0
   -0.1635   -2.6359   -1.2269 C   0  0  0  0  0  0  0  0  0  0  0  0
   -0.2110   -0.1307    0.2838 C   0  0  0  0  0  0  0  0  0  0  0  0
    2.5851   -3.7531    0.6199 C   0  0  1  0  0  0  0  0  0  0  0  0
   -1.2145   -3.5724   -1.3877 C   0  0  0  0  0  0  0  0  0  0  0  0
    0.1405   -1.8302   -2.2844 N   0  0  0  0  0  0  0  0  0  0  0  0
   -0.0214    1.0421   -0.4842 C   0  0  0  0  0  0  0  0  0  0  0  0
   -1.4598   -0.3316    0.9181 C   0  0  0  0  0  0  0  0  0  0  0  0
    3.0120   -4.8465    1.5499 N   0  0  1  0  0  0  0  0  0  0  0  0
   -1.8961   -3.6494   -2.6153 C   0  0  0  0  0  0  0  0  0  0  0  0
   -0.4988   -1.8748   -3.4785 C   0  0  0  0  0  0  0  0  0  0  0  0
   -1.0485    1.9972   -0.5985 C   0  0  0  0  0  0  0  0  0  0  0  0
   -2.4890    0.6217    0.8032 C   0  0  0  0  0  0  0  0  0  0  0  0
    3.3746   -6.1314    0.8933 C   0  0  0  0  0  0  0  0  0  0  0  0
    3.9288   -4.4520    2.6557 C   0  0  0  0  0  0  0  0  0  0  0  0
   -1.5403   -2.7967   -3.6745 C   0  0  0  0  0  0  0  0  0  0  0  0
   -2.2826    1.7937    0.0490 C   0  0  0  0  0  0  0  0  0  0  0  0
   -3.5077    2.9581   -0.0648 Cl  0  0  0  0  0  0  0  0  0  0  0  0
    1.1450   -1.1541    1.4826 H   0  0  0  0  0  0  0  0  0  0  0  0
    1.7723   -0.8191   -0.1145 H   0  0  0  0  0  0  0  0  0  0  0  0
    0.7305   -3.5290    1.7373 H   0  0  0  0  0  0  0  0  0  0  0  0
    0.6220   -4.5629    0.3318 H   0  0  0  0  0  0  0  0  0  0  0  0
    2.8765   -3.9586   -0.4164 H   0  0  0  0  0  0  0  0  0  0  0  0
    3.0472   -2.7996    0.8919 H   0  0  0  0  0  0  0  0  0  0  0  0
   -1.5011   -4.1909   -0.6246 H   0  0  0  0  0  0  0  0  0  0  0  0
    0.8679    1.2123   -0.9634 H   0  0  0  0  0  0  0  0  0  0  0  0
   -1.6291   -1.1773    1.4678 H   0  0  0  0  0  0  0  0  0  0  0  0
   -2.6513   -4.3260   -2.7353 H   0  0  0  0  0  0  0  0  0  0  0  0
   -0.2180   -1.2403   -4.2271 H   0  0  0  0  0  0  0  0  0  0  0  0
   -0.8885    2.8423   -1.1506 H   0  0  0  0  0  0  0  0  0  0  0  0
   -3.3820    0.4568    1.2729 H   0  0  0  0  0  0  0  0  0  0  0  0
    3.4188   -6.9330    1.6314 H   0  0  0  0  0  0  0  0  0  0  0  0
    2.6200   -6.4043    0.1537 H   0  0  0  0  0  0  0  0  0  0  0  0
    4.3431   -6.0557    0.3939 H   0  0  0  0  0  0  0  0  0  0  0  0
    3.6145   -3.5098    3.1099 H   0  0  0  0  0  0  0  0  0  0  0  0
    3.9079   -5.2138    3.4356 H   0  0  0  0  0  0  0  0  0  0  0  0
    4.9547   -4.3427    2.2973 H   0  0  0  0  0  0  0  0  0  0  0  0
   -2.0274   -2.8463   -4.5716 H   0  0  0  0  0  0  0  0  0  0  0  0
  1  2  1  0  0  0  0 
  1  3  1  0  0  0  0 
  1  4  1  0  0  0  0 
  2  5  1  0  0  0  0 
  3  6  1  0  0  0  0 
  4  7  2  0  0  0  0 
  4  8  1  0  0  0  0 
  5  9  2  0  0  0  0 
  5 10  1  0  0  0  0 
  6 11  1  0  0  0  0 
  7 12  1  0  0  0  0 
  8 13  2  0  0  0  0 
  9 14  1  0  0  0  0 
 10 15  2  0  0  0  0 
 11 16  1  0  0  0  0 
 11 17  1  0  0  0  0 
 12 18  2  0  0  0  0 
 13 18  1  0  0  0  0 
 14 19  2  0  0  0  0 
 15 19  1  0  0  0  0 
 19 20  1  0  0  0  0 
  2 21  1  0  0  0  0 
  2 22  1  0  0  0  0 
  3 23  1  0  0  0  0 
  3 24  1  0  0  0  0 
  6 25  1  0  0  0  0 
  6 26  1  0  0  0  0 
  7 27  1  0  0  0  0 
  9 28  1  0  0  0  0 
 10 29  1  0  0  0  0 
 12 30  1  0  0  0  0 
 13 31  1  0  0  0  0 
 14 32  1  0  0  0  0 
 15 33  1  0  0  0  0 
 16 34  1  0  0  0  0 
 16 35  1  0  0  0  0 
 16 36  1  0  0  0  0 
 17 37  1  0  0  0  0 
 17 38  1  0  0  0  0 
 17 39  1  0  0  0  0 
 18 40  1  0  0  0  0 
M  END
> <cdk:Title>
chloropyramine

> <Conformer>
1

> <SuperDrugID>
SD000528

$$$$
