betacarotene
  CDK     0628171801

 96 97  0  0  0  0  0  0  0  0999 V2000
   -1.6013  -15.9953    7.5914 C   0  0  0  0  0  0  0  0  0  0  0  0
   -0.9581  -16.2388    8.7480 C   0  0  0  0  0  0  0  0  0  0  0  0
   -2.9363  -15.6730    7.5113 C   0  0  0  0  0  0  0  0  0  0  0  0
    0.3944  -16.4383    8.8330 C   0  0  0  0  0  0  0  0  0  0  0  0
   -3.9233  -16.7828    7.3335 C   0  0  1  0  0  0  0  0  0  0  0  0
   -3.3123  -14.3605    7.5937 C   0  0  0  0  0  0  0  0  0  0  0  0
    0.9697  -17.5520    8.3084 C   0  0  0  0  0  0  0  0  0  0  0  0
    1.1640  -15.3974    9.5273 C   0  0  0  0  0  0  0  0  0  0  0  0
   -3.3859  -17.9511    6.4269 C   0  0  0  0  0  0  0  0  0  0  0  0
   -4.2561  -17.3849    8.7445 C   0  0  0  0  0  0  0  0  0  0  0  0
   -5.2344  -16.2615    6.6365 C   0  0  1  0  0  0  0  0  0  0  0  0
   -2.3298  -13.2806    7.7939 C   0  0  0  0  0  0  0  0  0  0  0  0
   -4.7129  -13.9168    7.4656 C   0  0  1  0  0  0  0  0  0  0  0  0
    2.3065  -17.8458    8.3672 C   0  0  0  0  0  0  0  0  0  0  0  0
   -5.8009  -15.0126    7.3414 C   0  0  1  0  0  0  0  0  0  0  0  0
    2.8186  -19.0922    8.4222 C   0  0  0  0  0  0  0  0  0  0  0  0
    4.1570  -19.3287    8.6173 C   0  0  0  0  0  0  0  0  0  0  0  0
    4.8917  -19.9461    7.6583 C   0  0  0  0  0  0  0  0  0  0  0  0
    4.7392  -18.8909    9.8908 C   0  0  0  0  0  0  0  0  0  0  0  0
    6.2445  -20.1684    7.7052 C   0  0  0  0  0  0  0  0  0  0  0  0
    6.8699  -21.1499    7.0249 C   0  0  0  0  0  0  0  0  0  0  0  0
    8.2308  -21.3069    7.0147 C   0  0  0  0  0  0  0  0  0  0  0  0
    8.9651  -21.7494    5.9637 C   0  0  0  0  0  0  0  0  0  0  0  0
   10.3354  -21.7585    6.0512 C   0  0  0  0  0  0  0  0  0  0  0  0
    8.3401  -22.1690    4.7036 C   0  0  0  0  0  0  0  0  0  0  0  0
   11.0926  -22.8442    5.8034 C   0  0  0  0  0  0  0  0  0  0  0  0
   12.4540  -22.8301    5.8015 C   0  0  0  0  0  0  0  0  0  0  0  0
   13.2164  -23.2930    4.7830 C   0  0  0  0  0  0  0  0  0  0  0  0
   14.5764  -23.2694    4.8692 C   0  0  0  0  0  0  0  0  0  0  0  0
   12.6335  -23.8374    3.5531 C   0  0  0  0  0  0  0  0  0  0  0  0
   15.2729  -24.2477    5.4756 C   0  0  0  0  0  0  0  0  0  0  0  0
   16.6444  -24.3295    5.4960 C   0  0  0  0  0  0  0  0  0  0  0  0
   17.3550  -23.7756    6.6967 C   0  0  2  0  0  0  0  0  0  0  0  0
   17.2854  -24.9623    4.4673 C   0  0  0  0  0  0  0  0  0  0  0  0
   16.8810  -24.5279    7.9935 C   0  0  0  0  0  0  0  0  0  0  0  0
   17.0334  -22.2502    6.8740 C   0  0  0  0  0  0  0  0  0  0  0  0
   18.9266  -23.8855    6.5957 C   0  0  1  0  0  0  0  0  0  0  0  0
   16.5710  -25.4480    3.2747 C   0  0  0  0  0  0  0  0  0  0  0  0
   18.7352  -25.2110    4.4862 C   0  0  1  0  0  0  0  0  0  0  0  0
   19.3645  -25.1838    5.8961 C   0  0  1  0  0  0  0  0  0  0  0  0
   -1.0899  -16.0115    6.7373 H   0  0  0  0  0  0  0  0  0  0  0  0
   -1.4728  -16.2253    9.6017 H   0  0  0  0  0  0  0  0  0  0  0  0
    0.3824  -18.2217    7.8585 H   0  0  0  0  0  0  0  0  0  0  0  0
    1.7425  -15.8658   10.3266 H   0  0  0  0  0  0  0  0  0  0  0  0
    0.4838  -14.6526   10.0555 H   0  0  0  0  0  0  0  0  0  0  0  0
    1.9091  -14.9726    8.7833 H   0  0  0  0  0  0  0  0  0  0  0  0
   -4.1681  -18.6880    6.2253 H   0  0  0  0  0  0  0  0  0  0  0  0
   -3.0256  -17.5681    5.4684 H   0  0  0  0  0  0  0  0  0  0  0  0
   -2.5594  -18.4803    6.9074 H   0  0  0  0  0  0  0  0  0  0  0  0
   -3.3917  -17.9045    9.1646 H   0  0  0  0  0  0  0  0  0  0  0  0
   -5.0756  -18.1055    8.6781 H   0  0  0  0  0  0  0  0  0  0  0  0
   -4.5460  -16.6058    9.4539 H   0  0  0  0  0  0  0  0  0  0  0  0
   -5.0252  -15.9904    5.5942 H   0  0  0  0  0  0  0  0  0  0  0  0
   -6.0093  -17.0367    6.6236 H   0  0  0  0  0  0  0  0  0  0  0  0
   -1.5837  -13.2972    6.9952 H   0  0  0  0  0  0  0  0  0  0  0  0
   -2.7778  -12.2831    7.7976 H   0  0  0  0  0  0  0  0  0  0  0  0
   -1.8274  -13.4146    8.7541 H   0  0  0  0  0  0  0  0  0  0  0  0
   -4.9780  -13.2929    8.3259 H   0  0  0  0  0  0  0  0  0  0  0  0
   -4.7773  -13.2858    6.5739 H   0  0  0  0  0  0  0  0  0  0  0  0
    2.9482  -17.0854    8.3985 H   0  0  0  0  0  0  0  0  0  0  0  0
   -6.6536  -14.6267    6.7732 H   0  0  0  0  0  0  0  0  0  0  0  0
   -6.1718  -15.2853    8.3334 H   0  0  0  0  0  0  0  0  0  0  0  0
    2.2130  -19.8785    8.3514 H   0  0  0  0  0  0  0  0  0  0  0  0
    4.4199  -20.2506    6.8316 H   0  0  0  0  0  0  0  0  0  0  0  0
    5.2143  -19.7388   10.3895 H   0  0  0  0  0  0  0  0  0  0  0  0
    3.9949  -18.4820   10.5828 H   0  0  0  0  0  0  0  0  0  0  0  0
    5.4869  -18.1137    9.7119 H   0  0  0  0  0  0  0  0  0  0  0  0
    6.8019  -19.5514    8.2532 H   0  0  0  0  0  0  0  0  0  0  0  0
    6.3149  -21.7799    6.4895 H   0  0  0  0  0  0  0  0  0  0  0  0
    8.7123  -21.0450    7.8496 H   0  0  0  0  0  0  0  0  0  0  0  0
   10.7839  -20.8994    6.2888 H   0  0  0  0  0  0  0  0  0  0  0  0
    7.7272  -23.0552    4.8809 H   0  0  0  0  0  0  0  0  0  0  0  0
    9.0661  -22.4204    3.9258 H   0  0  0  0  0  0  0  0  0  0  0  0
    7.7081  -21.3701    4.3073 H   0  0  0  0  0  0  0  0  0  0  0  0
   10.6435  -23.7062    5.5850 H   0  0  0  0  0  0  0  0  0  0  0  0
   12.8984  -22.4528    6.6105 H   0  0  0  0  0  0  0  0  0  0  0  0
   15.0576  -22.5222    4.4197 H   0  0  0  0  0  0  0  0  0  0  0  0
   12.0695  -24.7436    3.7819 H   0  0  0  0  0  0  0  0  0  0  0  0
   13.3815  -24.0982    2.8004 H   0  0  0  0  0  0  0  0  0  0  0  0
   11.9588  -23.1058    3.1041 H   0  0  0  0  0  0  0  0  0  0  0  0
   14.7776  -24.9889    5.9186 H   0  0  0  0  0  0  0  0  0  0  0  0
   17.0356  -25.6046    7.9034 H   0  0  0  0  0  0  0  0  0  0  0  0
   17.4273  -24.1816    8.8741 H   0  0  0  0  0  0  0  0  0  0  0  0
   15.8202  -24.3572    8.1892 H   0  0  0  0  0  0  0  0  0  0  0  0
   15.9744  -22.0807    7.0750 H   0  0  0  0  0  0  0  0  0  0  0  0
   17.2978  -21.6928    5.9715 H   0  0  0  0  0  0  0  0  0  0  0  0
   17.5977  -21.8290    7.7105 H   0  0  0  0  0  0  0  0  0  0  0  0
   19.3426  -23.0520    6.0184 H   0  0  0  0  0  0  0  0  0  0  0  0
   19.3957  -23.8405    7.5840 H   0  0  0  0  0  0  0  0  0  0  0  0
   16.0144  -24.6334    2.8053 H   0  0  0  0  0  0  0  0  0  0  0  0
   17.2369  -25.8539    2.5090 H   0  0  0  0  0  0  0  0  0  0  0  0
   15.8741  -26.2377    3.5633 H   0  0  0  0  0  0  0  0  0  0  0  0
   18.9613  -26.1964    4.0667 H   0  0  0  0  0  0  0  0  0  0  0  0
   19.2260  -24.4639    3.8548 H   0  0  0  0  0  0  0  0  0  0  0  0
   20.4537  -25.2212    5.8181 H   0  0  0  0  0  0  0  0  0  0  0  0
   19.0352  -26.0539    6.4728 H   0  0  0  0  0  0  0  0  0  0  0  0
  1  2  2  0  0  0  0 
  1  3  1  0  0  0  0 
  2  4  1  0  0  0  0 
  3  5  1  0  0  0  0 
  3  6  2  0  0  0  0 
  4  7  2  0  0  0  0 
  4  8  1  0  0  0  0 
  5  9  1  0  0  0  0 
  5 10  1  0  0  0  0 
  5 11  1  0  0  0  0 
  6 12  1  0  0  0  0 
  6 13  1  0  0  0  0 
  7 14  1  0  0  0  0 
 11 15  1  0  0  0  0 
 13 15  1  0  0  0  0 
 14 16  2  0  0  0  0 
 16 17  1  0  0  0  0 
 17 18  2  0  0  0  0 
 17 19  1  0  0  0  0 
 18 20  1  0  0  0  0 
 20 21  2  0  0  0  0 
 21 22  1  0  0  0  0 
 22 23  2  0  0  0  0 
 23 24  1  0  0  0  0 
 23 25  1  0  0  0  0 
 24 26  2  0  0  0  0 
 26 27  1  0  0  0  0 
 27 28  2  0  0  0  0 
 28 29  1  0  0  0  0 
 28 30  1  0  0  0  0 
 29 31  2  0  0  0  0 
 31 32  1  0  0  0  0 
 32 33  1  0  0  0  0 
 32 34  2  0  0  0  0 
 33 35  1  0  0  0  0 
 33 36  1  0  0  0  0 
 33 37  1  0  0  0  0 
 34 38  1  0  0  0  0 
 34 39  1  0  0  0  0 
 37 40  1  0  0  0  0 
 39 40  1  0  0  0  0 
  1 41  1  0  0  0  0 
  2 42  1  0  0  0  0 
  7 43  1  0  0  0  0 
  8 44  1  0  0  0  0 
  8 45  1  0  0  0  0 
  8 46  1  0  0  0  0 
  9 47  1  0  0  0  0 
  9 48  1  0  0  0  0 
  9 49  1  0  0  0  0 
 10 50  1  0  0  0  0 
 10 51  1  0  0  0  0 
 10 52  1  0  0  0  0 
 11 53  1  0  0  0  0 
 11 54  1  0  0  0  0 
 12 55  1  0  0  0  0 
 12 56  1  0  0  0  0 
 12 57  1  0  0  0  0 
 13 58  1  0  0  0  0 
 13 59  1  0  0  0  0 
 14 60  1  0  0  0  0 
 15 61  1  0  0  0  0 
 15 62  1  0  0  0  0 
 16 63  1  0  0  0  0 
 18 64  1  0  0  0  0 
 19 65  1  0  0  0  0 
 19 66  1  0  0  0  0 
 19 67  1  0  0  0  0 
 20 68  1  0  0  0  0 
 21 69  1  0  0  0  0 
 22 70  1  0  0  0  0 
 24 71  1  0  0  0  0 
 25 72  1  0  0  0  0 
 25 73  1  0  0  0  0 
 25 74  1  0  0  0  0 
 26 75  1  0  0  0  0 
 27 76  1  0  0  0  0 
 29 77  1  0  0  0  0 
 30 78  1  0  0  0  0 
 30 79  1  0  0  0  0 
 30 80  1  0  0  0  0 
 31 81  1  0  0  0  0 
 35 82  1  0  0  0  0 
 35 83  1  0  0  0  0 
 35 84  1  0  0  0  0 
 36 85  1  0  0  0  0 
 36 86  1  0  0  0  0 
 36 87  1  0  0  0  0 
 37 88  1  0  0  0  0 
 37 89  1  0  0  0  0 
 38 90  1  0  0  0  0 
 38 91  1  0  0  0  0 
 38 92  1  0  0  0  0 
 39 93  1  0  0  0  0 
 39 94  1  0  0  0  0 
 40 95  1  0  0  0  0 
 40 96  1  0  0  0  0 
M  END
> <cdk:Title>
betacarotene

> <Conformer>
1

> <SuperDrugID>
SD000290

$$$$
