testosterone enantate
  CDK     0628171802

 69 72  0  0  0  0  0  0  0  0999 V2000
   -3.6499    0.4675    0.4854 C   0  0  0  0  0  0  0  0  0  0  0  0
   -2.6382    0.3423   -0.7102 C   0  0  1  0  0  0  0  0  0  0  0  0
   -3.3646    0.4551   -2.1306 C   0  0  2  0  0  0  0  0  0  0  0  0
   -1.6292    1.4363   -0.5272 C   0  0  0  0  0  0  0  0  0  0  0  0
   -1.9187   -1.0636   -0.6205 C   0  0  1  0  0  0  0  0  0  0  0  0
   -3.8200    1.9253   -2.4640 C   0  0  2  0  0  0  0  0  0  0  0  0
   -4.5085   -0.5951   -2.4032 C   0  0  1  0  0  0  0  0  0  0  0  0
   -1.9293    2.8017   -0.9935 C   0  0  2  0  0  0  0  0  0  0  0  0
   -0.4795    1.2392    0.1618 C   0  0  0  0  0  0  0  0  0  0  0  0
   -0.9340   -1.1930    0.5702 C   0  0  1  0  0  0  0  0  0  0  0  0
   -4.5177    1.9762   -3.8604 C   0  0  1  0  0  0  0  0  0  0  0  0
   -2.5823    2.8593   -2.3915 C   0  0  2  0  0  0  0  0  0  0  0  0
   -5.2849   -0.3996   -3.7494 C   0  0  1  0  0  0  0  0  0  0  0  0
   -0.1370    0.0363    0.7559 C   0  0  0  0  0  0  0  0  0  0  0  0
   -5.7899    1.0734   -3.9487 C   0  0  1  0  0  0  0  0  0  0  0  0
   -4.9708    3.3423   -4.4059 C   0  0  1  0  0  0  0  0  0  0  0  0
    0.8563   -0.0147    1.5191 O   0  0  0  0  0  0  0  0  0  0  0  0
   -6.9177    1.3922   -2.8959 C   0  0  0  0  0  0  0  0  0  0  0  0
   -6.3071    1.4572   -5.3810 C   0  0  2  0  0  0  0  0  0  0  0  0
   -5.9349    2.9634   -5.5492 C   0  0  2  0  0  0  0  0  0  0  0  0
   -7.7212    1.2586   -5.5771 O   0  0  0  0  0  0  0  0  0  0  0  0
   -8.4524    1.5557   -6.6965 C   0  0  0  0  0  0  0  0  0  0  0  0
   -9.9218    1.4063   -6.6655 C   0  0  1  0  0  0  0  0  0  0  0  0
   -7.9020    1.9845   -7.7376 O   0  0  0  0  0  0  0  0  0  0  0  0
  -10.5890    2.4459   -5.7134 C   0  0  1  0  0  0  0  0  0  0  0  0
  -10.6314    2.0293   -4.1868 C   0  0  1  0  0  0  0  0  0  0  0  0
  -10.6514    3.2475   -3.0818 C   0  0  1  0  0  0  0  0  0  0  0  0
  -10.5794    2.6725   -1.6451 C   0  0  2  0  0  0  0  0  0  0  0  0
  -10.6434    3.7524   -0.5471 C   0  0  0  0  0  0  0  0  0  0  0  0
   -4.3170   -0.3945    0.5308 H   0  0  0  0  0  0  0  0  0  0  0  0
   -4.2632    1.3653    0.3995 H   0  0  0  0  0  0  0  0  0  0  0  0
   -3.1289    0.5206    1.4456 H   0  0  0  0  0  0  0  0  0  0  0  0
   -2.6005    0.2167   -2.8816 H   0  0  0  0  0  0  0  0  0  0  0  0
   -2.6483   -1.8735   -0.5451 H   0  0  0  0  0  0  0  0  0  0  0  0
   -1.3424   -1.2391   -1.5353 H   0  0  0  0  0  0  0  0  0  0  0  0
   -4.5295    2.2799   -1.7149 H   0  0  0  0  0  0  0  0  0  0  0  0
   -4.0755   -1.5987   -2.4251 H   0  0  0  0  0  0  0  0  0  0  0  0
   -5.2320   -0.5842   -1.5884 H   0  0  0  0  0  0  0  0  0  0  0  0
   -1.0388    3.4383   -1.0385 H   0  0  0  0  0  0  0  0  0  0  0  0
   -2.6098    3.2665   -0.2743 H   0  0  0  0  0  0  0  0  0  0  0  0
    0.1575    1.9957    0.2888 H   0  0  0  0  0  0  0  0  0  0  0  0
   -1.4846   -1.3995    1.4920 H   0  0  0  0  0  0  0  0  0  0  0  0
   -0.2630   -2.0374    0.3856 H   0  0  0  0  0  0  0  0  0  0  0  0
   -3.7720    1.6106   -4.5833 H   0  0  0  0  0  0  0  0  0  0  0  0
   -2.8842    3.8914   -2.5893 H   0  0  0  0  0  0  0  0  0  0  0  0
   -1.8468    2.5755   -3.1506 H   0  0  0  0  0  0  0  0  0  0  0  0
   -4.6210   -0.6819   -4.5718 H   0  0  0  0  0  0  0  0  0  0  0  0
   -6.1290   -1.0938   -3.7809 H   0  0  0  0  0  0  0  0  0  0  0  0
   -5.4812    3.9269   -3.6335 H   0  0  0  0  0  0  0  0  0  0  0  0
   -4.1222    3.9211   -4.7814 H   0  0  0  0  0  0  0  0  0  0  0  0
   -6.5667    1.3443   -1.8660 H   0  0  0  0  0  0  0  0  0  0  0  0
   -7.3418    2.3850   -3.0542 H   0  0  0  0  0  0  0  0  0  0  0  0
   -7.7244    0.6628   -2.9899 H   0  0  0  0  0  0  0  0  0  0  0  0
   -5.7744    0.8663   -6.1340 H   0  0  0  0  0  0  0  0  0  0  0  0
   -5.4493    3.1213   -6.5158 H   0  0  0  0  0  0  0  0  0  0  0  0
   -6.8161    3.6093   -5.5037 H   0  0  0  0  0  0  0  0  0  0  0  0
  -10.3230    1.5485   -7.6745 H   0  0  0  0  0  0  0  0  0  0  0  0
  -10.1695    0.3864   -6.3586 H   0  0  0  0  0  0  0  0  0  0  0  0
  -10.0716    3.4048   -5.8037 H   0  0  0  0  0  0  0  0  0  0  0  0
  -11.6162    2.6212   -6.0443 H   0  0  0  0  0  0  0  0  0  0  0  0
  -11.5159    1.3426   -4.1151 H   0  0  0  0  0  0  0  0  0  0  0  0
   -9.7761    1.3235   -4.0445 H   0  0  0  0  0  0  0  0  0  0  0  0
   -9.7927    3.9016   -3.2589 H   0  0  0  0  0  0  0  0  0  0  0  0
  -11.5677    3.8282   -3.2108 H   0  0  0  0  0  0  0  0  0  0  0  0
   -9.6460    2.1181   -1.5253 H   0  0  0  0  0  0  0  0  0  0  0  0
  -11.4073    1.9738   -1.4963 H   0  0  0  0  0  0  0  0  0  0  0  0
  -10.5822    3.2811    0.4349 H   0  0  0  0  0  0  0  0  0  0  0  0
   -9.8098    4.4481   -0.6491 H   0  0  0  0  0  0  0  0  0  0  0  0
  -11.5807    4.3067   -0.6091 H   0  0  0  0  0  0  0  0  0  0  0  0
  2  1  1  0  0  0  0 
  3  2  1  0  0  0  0 
  2  4  1  0  0  0  0 
  2  5  1  0  0  0  0 
  3  6  1  0  0  0  0 
  3  7  1  0  0  0  0 
  4  8  1  0  0  0  0 
  4  9  2  0  0  0  0 
  5 10  1  0  0  0  0 
  6 11  1  0  0  0  0 
  6 12  1  0  0  0  0 
  7 13  1  0  0  0  0 
  8 12  1  0  0  0  0 
  9 14  1  0  0  0  0 
 10 14  1  0  0  0  0 
 11 15  1  0  0  0  0 
 11 16  1  0  0  0  0 
 15 13  1  0  0  0  0 
 14 17  2  0  0  0  0 
 15 18  1  0  0  0  0 
 15 19  1  0  0  0  0 
 16 20  1  0  0  0  0 
 19 20  1  0  0  0  0 
 19 21  1  0  0  0  0 
 21 22  1  0  0  0  0 
 22 23  1  0  0  0  0 
 22 24  2  0  0  0  0 
 23 25  1  0  0  0  0 
 25 26  1  0  0  0  0 
 26 27  1  0  0  0  0 
 27 28  1  0  0  0  0 
 28 29  1  0  0  0  0 
 30  1  1  0  0  0  0 
 31  1  1  0  0  0  0 
 32  1  1  0  0  0  0 
  3 33  1  0  0  0  0 
 34  5  1  0  0  0  0 
 35  5  1  0  0  0  0 
  6 36  1  0  0  0  0 
 37  7  1  0  0  0  0 
 38  7  1  0  0  0  0 
 39  8  1  0  0  0  0 
 40  8  1  0  0  0  0 
 41  9  1  0  0  0  0 
 42 10  1  0  0  0  0 
 43 10  1  0  0  0  0 
 11 44  1  0  0  0  0 
 45 12  1  0  0  0  0 
 46 12  1  0  0  0  0 
 47 13  1  0  0  0  0 
 48 13  1  0  0  0  0 
 49 16  1  0  0  0  0 
 50 16  1  0  0  0  0 
 51 18  1  0  0  0  0 
 52 18  1  0  0  0  0 
 53 18  1  0  0  0  0 
 19 54  1  0  0  0  0 
 55 20  1  0  0  0  0 
 56 20  1  0  0  0  0 
 57 23  1  0  0  0  0 
 58 23  1  0  0  0  0 
 59 25  1  0  0  0  0 
 60 25  1  0  0  0  0 
 61 26  1  0  0  0  0 
 62 26  1  0  0  0  0 
 63 27  1  0  0  0  0 
 64 27  1  0  0  0  0 
 65 28  1  0  0  0  0 
 66 28  1  0  0  0  0 
 67 29  1  0  0  0  0 
 68 29  1  0  0  0  0 
 69 29  1  0  0  0  0 
M  END
> <cdk:Title>
testosterone enantate

> <Conformer>
1

> <SuperDrugID>
SD003654

$$$$
