mifamurtide
  CDK     0628171801

194194  0  0  0  0  0  0  0  0999 V2000
    4.9086    6.1108   12.9489 C   0  0  1  0  0  0  0  0  0  0  0  0
    4.9934    5.2865   11.7171 C   0  0  0  0  0  0  0  0  0  0  0  0
    5.1011    5.2481   14.2211 C   0  0  0  0  0  0  0  0  0  0  0  0
    6.1426    4.5947   11.4673 N   0  0  0  0  0  0  0  0  0  0  0  0
    4.0073    5.2692   10.9448 O   0  0  0  0  0  0  0  0  0  0  0  0
    6.4674    3.6651   10.4172 C   0  0  2  0  0  0  0  0  0  0  0  0
    5.4321    3.3307    9.4031 C   0  0  0  0  0  0  0  0  0  0  0  0
    6.9456    2.3428   11.0781 C   0  0  0  0  0  0  0  0  0  0  0  0
    5.7099    3.4670    8.0731 N   0  0  0  0  0  0  0  0  0  0  0  0
    4.3523    2.8194    9.7872 O   0  0  0  0  0  0  0  0  0  0  0  0
    4.9030    2.9759    6.9927 C   0  0  2  0  0  0  0  0  0  0  0  0
    5.5648    1.7183    6.3454 C   0  0  2  0  0  0  0  0  0  0  0  0
    4.7114    4.0728    6.0153 C   0  0  0  0  0  0  0  0  0  0  0  0
    6.1169    0.6729    7.3681 C   0  0  2  0  0  0  0  0  0  0  0  0
    3.4924    4.5800    5.7516 N   0  0  0  0  0  0  0  0  0  0  0  0
    5.6958    4.5758    5.4260 O   0  0  0  0  0  0  0  0  0  0  0  0
    6.0746   -0.7141    6.8513 C   0  0  0  0  0  0  0  0  0  0  0  0
    5.3670   -1.7724    7.3477 N   0  0  0  0  0  0  0  0  0  0  0  0
    6.7442   -0.9599    5.8224 O   0  0  0  0  0  0  0  0  0  0  0  0
    4.5155   -1.8901    8.5049 C   0  0  2  0  0  0  0  0  0  0  0  0
    3.5515   -0.7739    8.7719 C   0  0  0  0  0  0  0  0  0  0  0  0
    5.3994   -2.2625    9.7286 C   0  0  0  0  0  0  0  0  0  0  0  0
    2.6739   -0.2387    7.8811 N   0  0  0  0  0  0  0  0  0  0  0  0
    3.4998   -0.2458    9.9077 O   0  0  0  0  0  0  0  0  0  0  0  0
    2.4368   -0.6646    6.5440 C   0  0  1  0  0  0  0  0  0  0  0  0
    1.6877    0.4315    5.7594 C   0  0  2  0  0  0  0  0  0  0  0  0
    1.6464   -0.0264    4.4027 O   0  0  0  0  0  0  0  0  0  0  0  0
    0.9667    0.9406    3.3361 P   0  0  1  0  0  0  0  0  0  0  0  0
    0.7046    0.0474    2.0387 O   0  0  0  0  0  0  0  0  0  0  0  0
   -0.2867    1.5244    3.8228 O   0  0  0  0  0  0  0  0  0  0  0  0
    1.9973    2.0789    2.9502 O   0  0  0  0  0  0  0  0  0  0  0  0
   -0.1489   -1.0977    2.2719 C   0  0  1  0  0  0  0  0  0  0  0  0
   -0.3090   -1.8824    0.9460 C   0  0  2  0  0  0  0  0  0  0  0  0
   -0.6917   -0.9213   -0.0487 O   0  0  0  0  0  0  0  0  0  0  0  0
   -1.3992   -2.9880    1.0234 C   0  0  1  0  0  0  0  0  0  0  0  0
    0.0285   -0.4250   -1.0939 C   0  0  0  0  0  0  0  0  0  0  0  0
   -1.0630   -4.1162    0.2056 O   0  0  0  0  0  0  0  0  0  0  0  0
   -0.5964    0.6434   -1.8960 C   0  0  1  0  0  0  0  0  0  0  0  0
    1.1755   -0.8492   -1.3695 O   0  0  0  0  0  0  0  0  0  0  0  0
   -1.9138   -5.1512   -0.0572 C   0  0  0  0  0  0  0  0  0  0  0  0
   -0.8855    1.9264   -1.0638 C   0  0  1  0  0  0  0  0  0  0  0  0
   -1.4465   -6.5286    0.1993 C   0  0  1  0  0  0  0  0  0  0  0  0
   -3.0831   -4.9342   -0.4524 O   0  0  0  0  0  0  0  0  0  0  0  0
   -1.6164    3.0081   -1.9035 C   0  0  2  0  0  0  0  0  0  0  0  0
   -1.2450   -6.7148    1.7286 C   0  0  1  0  0  0  0  0  0  0  0  0
   -1.8329    4.3479   -1.1464 C   0  0  1  0  0  0  0  0  0  0  0  0
   -0.6032   -8.0637    2.1425 C   0  0  2  0  0  0  0  0  0  0  0  0
   -2.4862    5.4324   -2.0458 C   0  0  1  0  0  0  0  0  0  0  0  0
   -0.4098   -8.1370    3.6833 C   0  0  2  0  0  0  0  0  0  0  0  0
   -2.6889    6.7945   -1.3254 C   0  0  2  0  0  0  0  0  0  0  0  0
    0.3243   -9.4132    4.1677 C   0  0  2  0  0  0  0  0  0  0  0  0
   -3.3047    7.8622   -2.2704 C   0  0  2  0  0  0  0  0  0  0  0  0
    0.5062   -9.4262    5.7113 C   0  0  1  0  0  0  0  0  0  0  0  0
   -3.5324    9.2460   -1.6041 C   0  0  1  0  0  0  0  0  0  0  0  0
    1.2311  -10.7014    6.2135 C   0  0  1  0  0  0  0  0  0  0  0  0
   -4.1536   10.2664   -2.5978 C   0  0  2  0  0  0  0  0  0  0  0  0
    1.3808  -10.7559    7.7589 C   0  0  1  0  0  0  0  0  0  0  0  0
   -4.4033   11.6624   -1.9695 C   0  0  2  0  0  0  0  0  0  0  0  0
    2.0737  -12.0641    8.2272 C   0  0  2  0  0  0  0  0  0  0  0  0
   -5.0281   12.6603   -2.9827 C   0  0  2  0  0  0  0  0  0  0  0  0
    2.2223  -12.1699    9.7688 C   0  0  1  0  0  0  0  0  0  0  0  0
   -5.2822   14.0576   -2.3596 C   0  0  1  0  0  0  0  0  0  0  0  0
    2.9087  -13.4961   10.1963 C   0  0  2  0  0  0  0  0  0  0  0  0
   -5.9072   15.0610   -3.3654 C   0  0  1  0  0  0  0  0  0  0  0  0
    3.0733  -13.6359   11.7334 C   0  0  2  0  0  0  0  0  0  0  0  0
   -6.1537   16.4523   -2.7238 C   0  0  2  0  0  0  0  0  0  0  0  0
    3.7643  -14.9683   12.1357 C   0  0  1  0  0  0  0  0  0  0  0  0
   -6.7755   17.4715   -3.7038 C   0  0  0  0  0  0  0  0  0  0  0  0
    3.9359  -15.1162   13.6713 C   0  0  1  0  0  0  0  0  0  0  0  0
    4.6242  -16.4389   14.0779 C   0  0  0  0  0  0  0  0  0  0  0  0
    4.7712   10.0352   13.5547 C   0  0  1  0  0  0  0  0  0  0  0  0
    6.0749   10.6556   13.6580 O   0  0  0  0  0  0  0  0  0  0  0  0
    7.2186    9.7848   13.5046 C   0  0  1  0  0  0  0  0  0  0  0  0
    7.2047    9.0048   12.1555 C   0  0  1  0  0  0  0  0  0  0  0  0
    5.8518    8.2380   12.0197 C   0  0  2  0  0  0  0  0  0  0  0  0
    4.6484    9.2133   12.2335 C   0  0  2  0  0  0  0  0  0  0  0  0
    4.5815   10.1233   11.1323 O   0  0  0  0  0  0  0  0  0  0  0  0
    4.3624    9.2708   14.8458 C   0  0  1  0  0  0  0  0  0  0  0  0
    4.3012   10.1589   15.9572 O   0  0  0  0  0  0  0  0  0  0  0  0
    8.3841   10.5965   13.5975 O   0  0  0  0  0  0  0  0  0  0  0  0
    7.4131    9.9014   11.0478 N   0  0  0  0  0  0  0  0  0  0  0  0
    8.1419    9.6694    9.9168 C   0  0  0  0  0  0  0  0  0  0  0  0
    8.1672   10.5983    9.0764 O   0  0  0  0  0  0  0  0  0  0  0  0
    8.8804    8.4214    9.6164 C   0  0  0  0  0  0  0  0  0  0  0  0
    5.9111    7.1507   12.9797 O   0  0  0  0  0  0  0  0  0  0  0  0
    3.9127    6.5521   13.0337 H   0  0  0  0  0  0  0  0  0  0  0  0
    4.3518    4.4558   14.2695 H   0  0  0  0  0  0  0  0  0  0  0  0
    6.0939    4.7950   14.2412 H   0  0  0  0  0  0  0  0  0  0  0  0
    4.9935    5.8718   15.1092 H   0  0  0  0  0  0  0  0  0  0  0  0
    6.8540    4.7413   12.1124 H   0  0  0  0  0  0  0  0  0  0  0  0
    7.3298    4.0998    9.9025 H   0  0  0  0  0  0  0  0  0  0  0  0
    7.2471    1.6164   10.3197 H   0  0  0  0  0  0  0  0  0  0  0  0
    7.8058    2.5230   11.7249 H   0  0  0  0  0  0  0  0  0  0  0  0
    6.1460    1.9035   11.6801 H   0  0  0  0  0  0  0  0  0  0  0  0
    6.5520    3.8829    7.8309 H   0  0  0  0  0  0  0  0  0  0  0  0
    3.9170    2.6611    7.3528 H   0  0  0  0  0  0  0  0  0  0  0  0
    6.3954    2.0177    5.6983 H   0  0  0  0  0  0  0  0  0  0  0  0
    4.8162    1.2478    5.7002 H   0  0  0  0  0  0  0  0  0  0  0  0
    5.5774    0.7362    8.3068 H   0  0  0  0  0  0  0  0  0  0  0  0
    7.1579    0.9214    7.5950 H   0  0  0  0  0  0  0  0  0  0  0  0
    2.7089    4.2259    6.2001 H   0  0  0  0  0  0  0  0  0  0  0  0
    3.3963    5.3103    5.1199 H   0  0  0  0  0  0  0  0  0  0  0  0
    5.4718   -2.5950    6.8414 H   0  0  0  0  0  0  0  0  0  0  0  0
    3.8925   -2.7672    8.3052 H   0  0  0  0  0  0  0  0  0  0  0  0
    6.0537   -1.4272    9.9876 H   0  0  0  0  0  0  0  0  0  0  0  0
    6.0171   -3.1360    9.5043 H   0  0  0  0  0  0  0  0  0  0  0  0
    4.7782   -2.5046   10.5959 H   0  0  0  0  0  0  0  0  0  0  0  0
    2.1295    0.4992    8.2006 H   0  0  0  0  0  0  0  0  0  0  0  0
    3.3685   -0.8807    6.0229 H   0  0  0  0  0  0  0  0  0  0  0  0
    1.8344   -1.5767    6.5628 H   0  0  0  0  0  0  0  0  0  0  0  0
    2.2135    1.3889    5.8411 H   0  0  0  0  0  0  0  0  0  0  0  0
    0.6815    0.5349    6.1766 H   0  0  0  0  0  0  0  0  0  0  0  0
    2.7779    1.6001    2.6015 H   0  0  0  0  0  0  0  0  0  0  0  0
    0.2875   -1.7725    3.0180 H   0  0  0  0  0  0  0  0  0  0  0  0
   -1.1373   -0.7782    2.6209 H   0  0  0  0  0  0  0  0  0  0  0  0
    0.6575   -2.3392    0.7085 H   0  0  0  0  0  0  0  0  0  0  0  0
   -1.4835   -3.3627    2.0478 H   0  0  0  0  0  0  0  0  0  0  0  0
   -2.3704   -2.5760    0.7373 H   0  0  0  0  0  0  0  0  0  0  0  0
    0.0483    0.9034   -2.7403 H   0  0  0  0  0  0  0  0  0  0  0  0
   -1.5328    0.2491   -2.2961 H   0  0  0  0  0  0  0  0  0  0  0  0
   -1.5085    1.6741   -0.2003 H   0  0  0  0  0  0  0  0  0  0  0  0
    0.0598    2.3343   -0.6931 H   0  0  0  0  0  0  0  0  0  0  0  0
   -2.1831   -7.2538   -0.1590 H   0  0  0  0  0  0  0  0  0  0  0  0
   -0.5090   -6.6982   -0.3349 H   0  0  0  0  0  0  0  0  0  0  0  0
   -2.5897    2.6123   -2.2066 H   0  0  0  0  0  0  0  0  0  0  0  0
   -1.0325    3.2037   -2.8073 H   0  0  0  0  0  0  0  0  0  0  0  0
   -0.6005   -5.9138    2.1042 H   0  0  0  0  0  0  0  0  0  0  0  0
   -2.2189   -6.6235    2.2207 H   0  0  0  0  0  0  0  0  0  0  0  0
   -2.4698    4.1717   -0.2753 H   0  0  0  0  0  0  0  0  0  0  0  0
   -0.8663    4.7181   -0.7946 H   0  0  0  0  0  0  0  0  0  0  0  0
    0.3684   -8.1584    1.6504 H   0  0  0  0  0  0  0  0  0  0  0  0
   -1.2413   -8.8879    1.8121 H   0  0  0  0  0  0  0  0  0  0  0  0
   -1.8480    5.5897   -2.9201 H   0  0  0  0  0  0  0  0  0  0  0  0
   -3.4563    5.0681   -2.3970 H   0  0  0  0  0  0  0  0  0  0  0  0
   -1.3919   -8.0901    4.1628 H   0  0  0  0  0  0  0  0  0  0  0  0
    0.1672   -7.2664    4.0086 H   0  0  0  0  0  0  0  0  0  0  0  0
   -1.7229    7.1533   -0.9598 H   0  0  0  0  0  0  0  0  0  0  0  0
   -3.3483    6.6510   -0.4650 H   0  0  0  0  0  0  0  0  0  0  0  0
    1.3070   -9.4635    3.6903 H   0  0  0  0  0  0  0  0  0  0  0  0
   -0.2497  -10.2924    3.8631 H   0  0  0  0  0  0  0  0  0  0  0  0
   -4.2651    7.4907   -2.6379 H   0  0  0  0  0  0  0  0  0  0  0  0
   -2.6404    7.9947   -3.1290 H   0  0  0  0  0  0  0  0  0  0  0  0
    1.0846   -8.5480    6.0123 H   0  0  0  0  0  0  0  0  0  0  0  0
   -0.4767   -9.3652    6.1869 H   0  0  0  0  0  0  0  0  0  0  0  0
   -4.2012    9.1273   -0.7471 H   0  0  0  0  0  0  0  0  0  0  0  0
   -2.5767    9.6347   -1.2417 H   0  0  0  0  0  0  0  0  0  0  0  0
    0.6674  -11.5782    5.8828 H   0  0  0  0  0  0  0  0  0  0  0  0
    2.2253  -10.7434    5.7598 H   0  0  0  0  0  0  0  0  0  0  0  0
   -5.1058    9.8713   -2.9639 H   0  0  0  0  0  0  0  0  0  0  0  0
   -3.4825   10.3825   -3.4539 H   0  0  0  0  0  0  0  0  0  0  0  0
    1.9690   -9.8969    8.0947 H   0  0  0  0  0  0  0  0  0  0  0  0
    0.3900  -10.6922    8.2179 H   0  0  0  0  0  0  0  0  0  0  0  0
   -3.4531   12.0669   -1.6090 H   0  0  0  0  0  0  0  0  0  0  0  0
   -5.0760   11.5538   -1.1138 H   0  0  0  0  0  0  0  0  0  0  0  0
    3.0668  -12.1191    7.7718 H   0  0  0  0  0  0  0  0  0  0  0  0
    1.4893  -12.9176    7.8716 H   0  0  0  0  0  0  0  0  0  0  0  0
   -5.9773   12.2544   -3.3449 H   0  0  0  0  0  0  0  0  0  0  0  0
   -4.3550   12.7691   -3.8384 H   0  0  0  0  0  0  0  0  0  0  0  0
    2.8154  -11.3252   10.1303 H   0  0  0  0  0  0  0  0  0  0  0  0
    1.2316  -12.1146   10.2286 H   0  0  0  0  0  0  0  0  0  0  0  0
   -5.9546   13.9464   -1.5040 H   0  0  0  0  0  0  0  0  0  0  0  0
   -4.3324   14.4617   -1.9977 H   0  0  0  0  0  0  0  0  0  0  0  0
    3.8966  -13.5490    9.7300 H   0  0  0  0  0  0  0  0  0  0  0  0
    2.3135  -14.3369    9.8285 H   0  0  0  0  0  0  0  0  0  0  0  0
   -5.2360   15.1748   -4.2215 H   0  0  0  0  0  0  0  0  0  0  0  0
   -6.8581   14.6596   -3.7274 H   0  0  0  0  0  0  0  0  0  0  0  0
    2.0868  -13.5894   12.2037 H   0  0  0  0  0  0  0  0  0  0  0  0
    3.6694  -12.7980   12.1060 H   0  0  0  0  0  0  0  0  0  0  0  0
   -5.2043   16.8560   -2.3614 H   0  0  0  0  0  0  0  0  0  0  0  0
   -6.8253   16.3413   -1.8681 H   0  0  0  0  0  0  0  0  0  0  0  0
    3.1670  -15.8058   11.7630 H   0  0  0  0  0  0  0  0  0  0  0  0
    4.7495  -15.0154   11.6623 H   0  0  0  0  0  0  0  0  0  0  0  0
   -6.9239   18.4265   -3.1953 H   0  0  0  0  0  0  0  0  0  0  0  0
   -6.1147   17.6314   -4.5582 H   0  0  0  0  0  0  0  0  0  0  0  0
   -7.7431   17.1145   -4.0625 H   0  0  0  0  0  0  0  0  0  0  0  0
    4.5348  -14.2833   14.0497 H   0  0  0  0  0  0  0  0  0  0  0  0
    2.9538  -15.0750   14.1502 H   0  0  0  0  0  0  0  0  0  0  0  0
    4.7177  -16.4868   15.1646 H   0  0  0  0  0  0  0  0  0  0  0  0
    4.0354  -17.2947   13.7419 H   0  0  0  0  0  0  0  0  0  0  0  0
    5.6227  -16.4998   13.6404 H   0  0  0  0  0  0  0  0  0  0  0  0
    4.0595   10.8617   13.4751 H   0  0  0  0  0  0  0  0  0  0  0  0
    7.2644    9.0784   14.3400 H   0  0  0  0  0  0  0  0  0  0  0  0
    8.0217    8.2768   12.1986 H   0  0  0  0  0  0  0  0  0  0  0  0
    5.7950    7.8177   11.0100 H   0  0  0  0  0  0  0  0  0  0  0  0
    3.7056    8.6647   12.2179 H   0  0  0  0  0  0  0  0  0  0  0  0
    3.7695   10.6514   11.2849 H   0  0  0  0  0  0  0  0  0  0  0  0
    3.3744    8.8187   14.7214 H   0  0  0  0  0  0  0  0  0  0  0  0
    5.0777    8.4848   15.0831 H   0  0  0  0  0  0  0  0  0  0  0  0
    4.0643    9.5851   16.7155 H   0  0  0  0  0  0  0  0  0  0  0  0
    8.3296   11.0015   14.4876 H   0  0  0  0  0  0  0  0  0  0  0  0
    6.9780   10.7674   11.1031 H   0  0  0  0  0  0  0  0  0  0  0  0
    9.4175    8.5037    8.6681 H   0  0  0  0  0  0  0  0  0  0  0  0
    9.6080    8.2238   10.4041 H   0  0  0  0  0  0  0  0  0  0  0  0
    8.1889    7.5797    9.5488 H   0  0  0  0  0  0  0  0  0  0  0  0
  1 85  1  0  0  0  0 
  1  2  1  0  0  0  0 
  1  3  1  0  0  0  0 
  2  4  1  0  0  0  0 
  2  5  2  0  0  0  0 
  6  4  1  0  0  0  0 
  6  7  1  0  0  0  0 
  6  8  1  0  0  0  0 
  7  9  1  0  0  0  0 
  7 10  2  0  0  0  0 
 11  9  1  0  0  0  0 
 11 12  1  0  0  0  0 
 11 13  1  0  0  0  0 
 12 14  1  0  0  0  0 
 13 15  1  0  0  0  0 
 13 16  2  0  0  0  0 
 14 17  1  0  0  0  0 
 17 18  1  0  0  0  0 
 17 19  2  0  0  0  0 
 20 18  1  0  0  0  0 
 20 21  1  0  0  0  0 
 20 22  1  0  0  0  0 
 21 23  1  0  0  0  0 
 21 24  2  0  0  0  0 
 23 25  1  0  0  0  0 
 25 26  1  0  0  0  0 
 26 27  1  0  0  0  0 
 27 28  1  0  0  0  0 
 28 29  1  0  0  0  0 
 28 30  2  0  0  0  0 
 28 31  1  0  0  0  0 
 29 32  1  0  0  0  0 
 33 32  1  0  0  0  0 
 33 34  1  0  0  0  0 
 33 35  1  0  0  0  0 
 34 36  1  0  0  0  0 
 35 37  1  0  0  0  0 
 36 38  1  0  0  0  0 
 36 39  2  0  0  0  0 
 37 40  1  0  0  0  0 
 38 41  1  0  0  0  0 
 40 42  1  0  0  0  0 
 40 43  2  0  0  0  0 
 41 44  1  0  0  0  0 
 42 45  1  0  0  0  0 
 44 46  1  0  0  0  0 
 45 47  1  0  0  0  0 
 46 48  1  0  0  0  0 
 47 49  1  0  0  0  0 
 48 50  1  0  0  0  0 
 49 51  1  0  0  0  0 
 50 52  1  0  0  0  0 
 51 53  1  0  0  0  0 
 52 54  1  0  0  0  0 
 53 55  1  0  0  0  0 
 54 56  1  0  0  0  0 
 55 57  1  0  0  0  0 
 56 58  1  0  0  0  0 
 57 59  1  0  0  0  0 
 58 60  1  0  0  0  0 
 59 61  1  0  0  0  0 
 60 62  1  0  0  0  0 
 61 63  1  0  0  0  0 
 62 64  1  0  0  0  0 
 63 65  1  0  0  0  0 
 64 66  1  0  0  0  0 
 65 67  1  0  0  0  0 
 66 68  1  0  0  0  0 
 67 69  1  0  0  0  0 
 69 70  1  0  0  0  0 
 71 72  1  0  0  0  0 
 72 73  1  0  0  0  0 
 73 74  1  0  0  0  0 
 74 75  1  0  0  0  0 
 75 76  1  0  0  0  0 
 71 76  1  0  0  0  0 
 76 77  1  0  0  0  0 
 71 78  1  0  0  0  0 
 78 79  1  0  0  0  0 
 73 80  1  0  0  0  0 
 74 81  1  0  0  0  0 
 81 82  1  0  0  0  0 
 82 83  2  0  0  0  0 
 82 84  1  0  0  0  0 
 75 85  1  0  0  0  0 
  1 86  1  0  0  0  0 
  3 87  1  0  0  0  0 
  3 88  1  0  0  0  0 
  3 89  1  0  0  0  0 
  4 90  1  0  0  0  0 
  6 91  1  0  0  0  0 
  8 92  1  0  0  0  0 
  8 93  1  0  0  0  0 
  8 94  1  0  0  0  0 
  9 95  1  0  0  0  0 
 11 96  1  0  0  0  0 
 12 97  1  0  0  0  0 
 12 98  1  0  0  0  0 
 14 99  1  0  0  0  0 
 14100  1  0  0  0  0 
 15101  1  0  0  0  0 
 15102  1  0  0  0  0 
 18103  1  0  0  0  0 
 20104  1  0  0  0  0 
 22105  1  0  0  0  0 
 22106  1  0  0  0  0 
 22107  1  0  0  0  0 
 23108  1  0  0  0  0 
 25109  1  0  0  0  0 
 25110  1  0  0  0  0 
 26111  1  0  0  0  0 
 26112  1  0  0  0  0 
 31113  1  0  0  0  0 
 32114  1  0  0  0  0 
 32115  1  0  0  0  0 
 33116  1  0  0  0  0 
 35117  1  0  0  0  0 
 35118  1  0  0  0  0 
 38119  1  0  0  0  0 
 38120  1  0  0  0  0 
 41121  1  0  0  0  0 
 41122  1  0  0  0  0 
 42123  1  0  0  0  0 
 42124  1  0  0  0  0 
 44125  1  0  0  0  0 
 44126  1  0  0  0  0 
 45127  1  0  0  0  0 
 45128  1  0  0  0  0 
 46129  1  0  0  0  0 
 46130  1  0  0  0  0 
 47131  1  0  0  0  0 
 47132  1  0  0  0  0 
 48133  1  0  0  0  0 
 48134  1  0  0  0  0 
 49135  1  0  0  0  0 
 49136  1  0  0  0  0 
 50137  1  0  0  0  0 
 50138  1  0  0  0  0 
 51139  1  0  0  0  0 
 51140  1  0  0  0  0 
 52141  1  0  0  0  0 
 52142  1  0  0  0  0 
 53143  1  0  0  0  0 
 53144  1  0  0  0  0 
 54145  1  0  0  0  0 
 54146  1  0  0  0  0 
 55147  1  0  0  0  0 
 55148  1  0  0  0  0 
 56149  1  0  0  0  0 
 56150  1  0  0  0  0 
 57151  1  0  0  0  0 
 57152  1  0  0  0  0 
 58153  1  0  0  0  0 
 58154  1  0  0  0  0 
 59155  1  0  0  0  0 
 59156  1  0  0  0  0 
 60157  1  0  0  0  0 
 60158  1  0  0  0  0 
 61159  1  0  0  0  0 
 61160  1  0  0  0  0 
 62161  1  0  0  0  0 
 62162  1  0  0  0  0 
 63163  1  0  0  0  0 
 63164  1  0  0  0  0 
 64165  1  0  0  0  0 
 64166  1  0  0  0  0 
 65167  1  0  0  0  0 
 65168  1  0  0  0  0 
 66169  1  0  0  0  0 
 66170  1  0  0  0  0 
 67171  1  0  0  0  0 
 67172  1  0  0  0  0 
 68173  1  0  0  0  0 
 68174  1  0  0  0  0 
 68175  1  0  0  0  0 
 69176  1  0  0  0  0 
 69177  1  0  0  0  0 
 70178  1  0  0  0  0 
 70179  1  0  0  0  0 
 70180  1  0  0  0  0 
 71181  1  0  0  0  0 
 73182  1  0  0  0  0 
 74183  1  0  0  0  0 
 75184  1  0  0  0  0 
 76185  1  0  0  0  0 
 77186  1  0  0  0  0 
 78187  1  0  0  0  0 
 78188  1  0  0  0  0 
 79189  1  0  0  0  0 
 80190  1  0  0  0  0 
 81191  1  0  0  0  0 
 84192  1  0  0  0  0 
 84193  1  0  0  0  0 
 84194  1  0  0  0  0 
M  END
> <cdk:Title>
mifamurtide

> <Conformer>
1

> <SuperDrugID>
SD002600

$$$$
