nitisinone
  CDK     0628171801

 33 34  0  0  0  0  0  0  0  0999 V2000
    0.2773   -2.5727    1.1495 C   0  0  0  0  0  0  0  0  0  0  0  0
    0.7818   -2.7136    2.2908 O   0  0  0  0  0  0  0  0  0  0  0  0
   -1.1297   -2.3118    1.1060 C   0  0  0  0  0  0  0  0  0  0  0  0
    1.1197   -2.6265    0.0169 C   0  0  0  0  0  0  0  0  0  0  0  0
   -2.0287   -2.9727    0.2131 C   0  0  0  0  0  0  0  0  0  0  0  0
   -1.6441   -1.3200    1.9767 C   0  0  0  0  0  0  0  0  0  0  0  0
    2.2040   -3.4481   -0.0260 C   0  0  0  0  0  0  0  0  0  0  0  0
    0.8559   -1.7969   -1.0943 C   0  0  0  0  0  0  0  0  0  0  0  0
   -1.6534   -3.9730   -0.5975 N   0  0  0  0  0  0  0  0  0  0  0  0
   -3.3906   -2.5742    0.2016 C   0  0  0  0  0  0  0  0  0  0  0  0
   -3.0014   -0.9617    1.9601 C   0  0  0  0  0  0  0  0  0  0  0  0
    2.4942   -4.2673    0.9843 O   0  0  0  0  0  0  0  0  0  0  0  0
    3.1315   -3.5225   -1.1594 C   0  0  1  0  0  0  0  0  0  0  0  0
    0.1304   -0.7775   -1.0023 O   0  0  0  0  0  0  0  0  0  0  0  0
    1.4959   -2.0482   -2.4094 C   0  0  2  0  0  0  0  0  0  0  0  0
   -2.1024   -4.0814   -1.7813 O   0  0  0  0  0  0  0  0  0  0  0  0
   -0.9238   -4.8172   -0.2507 O   0  0  0  0  0  0  0  0  0  0  0  0
   -3.9001   -1.5740    1.0629 C   0  0  0  0  0  0  0  0  0  0  0  0
    2.9920   -2.3494   -2.1684 C   0  0  1  0  0  0  0  0  0  0  0  0
   -5.3418   -1.1943    0.9982 C   0  0  2  0  0  0  0  0  0  0  0  0
   -6.1420   -2.2976    1.1779 F   0  0  0  0  0  0  0  0  0  0  0  0
   -5.6145   -0.6524   -0.2339 F   0  0  0  0  0  0  0  0  0  0  0  0
   -5.7334   -0.2679    1.9378 F   0  0  0  0  0  0  0  0  0  0  0  0
   -1.0233   -0.8300    2.6263 H   0  0  0  0  0  0  0  0  0  0  0  0
   -4.0407   -3.0369   -0.4398 H   0  0  0  0  0  0  0  0  0  0  0  0
   -3.3256   -0.2375    2.6050 H   0  0  0  0  0  0  0  0  0  0  0  0
    2.5040   -5.1668    0.5946 H   0  0  0  0  0  0  0  0  0  0  0  0
    4.1633   -3.5426   -0.7963 H   0  0  0  0  0  0  0  0  0  0  0  0
    2.9487   -4.4660   -1.6815 H   0  0  0  0  0  0  0  0  0  0  0  0
    1.3931   -1.1874   -3.0769 H   0  0  0  0  0  0  0  0  0  0  0  0
    1.0165   -2.9105   -2.8821 H   0  0  0  0  0  0  0  0  0  0  0  0
    3.4799   -1.4547   -1.7650 H   0  0  0  0  0  0  0  0  0  0  0  0
    3.4840   -2.6059   -3.1105 H   0  0  0  0  0  0  0  0  0  0  0  0
  1  2  2  0  0  0  0 
  1  3  1  0  0  0  0 
  1  4  1  0  0  0  0 
  3  5  2  0  0  0  0 
  3  6  1  0  0  0  0 
  4  7  2  0  0  0  0 
  4  8  1  0  0  0  0 
  5  9  1  0  0  0  0 
  5 10  1  0  0  0  0 
  6 11  2  0  0  0  0 
  7 12  1  0  0  0  0 
  7 13  1  0  0  0  0 
  8 14  2  0  0  0  0 
  8 15  1  0  0  0  0 
  9 16  1  0  0  0  0 
  9 17  2  0  0  0  0 
 10 18  2  0  0  0  0 
 11 18  1  0  0  0  0 
 13 19  1  0  0  0  0 
 15 19  1  0  0  0  0 
 18 20  1  0  0  0  0 
 20 21  1  0  0  0  0 
 20 22  1  0  0  0  0 
 20 23  1  0  0  0  0 
 24  6  1  0  0  0  0 
 25 10  1  0  0  0  0 
 26 11  1  0  0  0  0 
 27 12  1  0  0  0  0 
 28 13  1  0  0  0  0 
 29 13  1  0  0  0  0 
 30 15  1  0  0  0  0 
 31 15  1  0  0  0  0 
 32 19  1  0  0  0  0 
 33 19  1  0  0  0  0 
M  CHG  1   9   1
M  CHG  1  16  -1
M  END
> <cdk:Title>
nitisinone

> <Conformer>
1

> <SuperDrugID>
SD001738

$$$$
