nifedipine
  CDK     0628171801

 43 44  0  0  0  0  0  0  0  0999 V2000
   -2.4935    3.1665    6.6585 C   0  0  0  0  0  0  0  0  0  0  0  0
   -3.2292    4.3045    6.8481 O   0  0  0  0  0  0  0  0  0  0  0  0
   -3.0698    2.0662    6.8456 O   0  0  0  0  0  0  0  0  0  0  0  0
   -1.1408    3.2077    6.2537 C   0  0  0  0  0  0  0  0  0  0  0  0
   -4.5989    4.4096    7.2442 C   0  0  0  0  0  0  0  0  0  0  0  0
   -0.5511    1.9937    5.6205 C   0  0  2  0  0  0  0  0  0  0  0  0
   -0.3402    4.2958    6.4106 C   0  0  0  0  0  0  0  0  0  0  0  0
    0.9213    1.9855    5.3906 C   0  0  0  0  0  0  0  0  0  0  0  0
   -1.2857    1.6519    4.3430 C   0  0  0  0  0  0  0  0  0  0  0  0
   -0.7374    5.5755    6.9961 C   0  0  0  0  0  0  0  0  0  0  0  0
    0.9393    4.2383    6.0197 N   0  0  0  0  0  0  0  0  0  0  0  0
    1.5453    0.7689    5.0186 C   0  0  0  0  0  0  0  0  0  0  0  0
    1.5933    3.1521    5.5828 C   0  0  0  0  0  0  0  0  0  0  0  0
   -1.3700    2.5325    3.2199 C   0  0  0  0  0  0  0  0  0  0  0  0
   -1.9384    0.3934    4.2506 C   0  0  0  0  0  0  0  0  0  0  0  0
    2.8167    0.7039    4.5151 O   0  0  0  0  0  0  0  0  0  0  0  0
    0.9394   -0.3236    5.1448 O   0  0  0  0  0  0  0  0  0  0  0  0
    3.0255    3.3567    5.3778 C   0  0  0  0  0  0  0  0  0  0  0  0
   -0.8012    3.7287    3.1896 N   0  0  0  0  0  0  0  0  0  0  0  0
   -2.0936    2.1404    2.0691 C   0  0  0  0  0  0  0  0  0  0  0  0
   -2.6411    0.0110    3.0971 C   0  0  0  0  0  0  0  0  0  0  0  0
    3.5665   -0.4720    4.1931 C   0  0  0  0  0  0  0  0  0  0  0  0
   -1.4066    4.6860    3.4727 O   0  0  0  0  0  0  0  0  0  0  0  0
    0.3940    3.8698    2.7891 O   0  0  0  0  0  0  0  0  0  0  0  0
   -2.7264    0.8889    2.0083 C   0  0  0  0  0  0  0  0  0  0  0  0
   -4.7547    3.9341    8.2141 H   0  0  0  0  0  0  0  0  0  0  0  0
   -4.8541    5.4659    7.3250 H   0  0  0  0  0  0  0  0  0  0  0  0
   -5.2451    3.9433    6.4990 H   0  0  0  0  0  0  0  0  0  0  0  0
   -0.7043    1.2046    6.3656 H   0  0  0  0  0  0  0  0  0  0  0  0
   -1.4627    6.0735    6.3510 H   0  0  0  0  0  0  0  0  0  0  0  0
    0.1073    6.2579    7.1199 H   0  0  0  0  0  0  0  0  0  0  0  0
   -1.1769    5.4258    7.9840 H   0  0  0  0  0  0  0  0  0  0  0  0
    1.4518    5.0599    6.0905 H   0  0  0  0  0  0  0  0  0  0  0  0
   -1.9090   -0.2708    5.0287 H   0  0  0  0  0  0  0  0  0  0  0  0
    3.5945    2.6937    6.0310 H   0  0  0  0  0  0  0  0  0  0  0  0
    3.3438    4.3795    5.5974 H   0  0  0  0  0  0  0  0  0  0  0  0
    3.2897    3.1596    4.3380 H   0  0  0  0  0  0  0  0  0  0  0  0
   -2.1637    2.7661    1.2621 H   0  0  0  0  0  0  0  0  0  0  0  0
   -3.0918   -0.9062    3.0508 H   0  0  0  0  0  0  0  0  0  0  0  0
    3.7295   -1.0653    5.0944 H   0  0  0  0  0  0  0  0  0  0  0  0
    4.5347   -0.1756    3.7883 H   0  0  0  0  0  0  0  0  0  0  0  0
    3.0366   -1.0716    3.4509 H   0  0  0  0  0  0  0  0  0  0  0  0
   -3.2484    0.6177    1.1730 H   0  0  0  0  0  0  0  0  0  0  0  0
  1  2  1  0  0  0  0 
  1  3  2  0  0  0  0 
  1  4  1  0  0  0  0 
  2  5  1  0  0  0  0 
  4  6  1  0  0  0  0 
  4  7  2  0  0  0  0 
  6  8  1  0  0  0  0 
  6  9  1  0  0  0  0 
  7 10  1  0  0  0  0 
  7 11  1  0  0  0  0 
  8 12  1  0  0  0  0 
  8 13  2  0  0  0  0 
  9 14  2  0  0  0  0 
  9 15  1  0  0  0  0 
 11 13  1  0  0  0  0 
 12 16  1  0  0  0  0 
 12 17  2  0  0  0  0 
 13 18  1  0  0  0  0 
 14 19  1  0  0  0  0 
 14 20  1  0  0  0  0 
 15 21  2  0  0  0  0 
 16 22  1  0  0  0  0 
 19 23  2  0  0  0  0 
 19 24  1  0  0  0  0 
 20 25  2  0  0  0  0 
 21 25  1  0  0  0  0 
 26  5  1  0  0  0  0 
 27  5  1  0  0  0  0 
 28  5  1  0  0  0  0 
 29  6  1  0  0  0  0 
 30 10  1  0  0  0  0 
 31 10  1  0  0  0  0 
 32 10  1  0  0  0  0 
 33 11  1  0  0  0  0 
 34 15  1  0  0  0  0 
 35 18  1  0  0  0  0 
 36 18  1  0  0  0  0 
 37 18  1  0  0  0  0 
 38 20  1  0  0  0  0 
 39 21  1  0  0  0  0 
 40 22  1  0  0  0  0 
 41 22  1  0  0  0  0 
 42 22  1  0  0  0  0 
 43 25  1  0  0  0  0 
M  CHG  1  19   1
M  CHG  1  24  -1
M  END
> <cdk:Title>
nifedipine

> <Conformer>
1

> <SuperDrugID>
SD001717

$$$$
