haloperidol
  CDK     0628171801

 49 51  0  0  0  0  0  0  0  0999 V2000
    1.4728   -4.4634    2.7926 O   0  0  0  0  0  0  0  0  0  0  0  0
    2.3991   -3.7719    1.9508 C   0  0  2  0  0  0  0  0  0  0  0  0
    3.7502   -3.9483    2.6326 C   0  0  0  0  0  0  0  0  0  0  0  0
    1.8906   -2.2909    1.7992 C   0  0  2  0  0  0  0  0  0  0  0  0
    2.2520   -4.3956    0.5157 C   0  0  1  0  0  0  0  0  0  0  0  0
    4.1278   -3.1401    3.7404 C   0  0  0  0  0  0  0  0  0  0  0  0
    4.6698   -4.9708    2.2665 C   0  0  0  0  0  0  0  0  0  0  0  0
    2.7092   -1.5139    0.7298 C   0  0  1  0  0  0  0  0  0  0  0  0
    3.0640   -3.5975   -0.5492 C   0  0  1  0  0  0  0  0  0  0  0  0
    5.3434   -3.3214    4.4265 C   0  0  0  0  0  0  0  0  0  0  0  0
    5.8816   -5.1731    2.9526 C   0  0  0  0  0  0  0  0  0  0  0  0
    2.6464   -2.1574   -0.6269 N   0  0  1  0  0  0  0  0  0  0  0  0
    6.2206   -4.3485    4.0387 C   0  0  0  0  0  0  0  0  0  0  0  0
    1.4018   -1.9382   -1.4461 C   0  0  2  0  0  0  0  0  0  0  0  0
    7.6699   -4.5942    4.8786 Cl  0  0  0  0  0  0  0  0  0  0  0  0
    1.0643   -0.4695   -1.8225 C   0  0  1  0  0  0  0  0  0  0  0  0
    2.1663    0.2276   -2.6642 C   0  0  2  0  0  0  0  0  0  0  0  0
    1.8633    1.6669   -2.8909 C   0  0  0  0  0  0  0  0  0  0  0  0
    2.3710    2.4581   -2.0575 O   0  0  0  0  0  0  0  0  0  0  0  0
    1.0536    2.1824   -3.9574 C   0  0  0  0  0  0  0  0  0  0  0  0
    0.3133    1.3442   -4.8335 C   0  0  0  0  0  0  0  0  0  0  0  0
    0.9650    3.5834   -4.1742 C   0  0  0  0  0  0  0  0  0  0  0  0
   -0.4639    1.8769   -5.8797 C   0  0  0  0  0  0  0  0  0  0  0  0
    0.1818    4.1228   -5.2105 C   0  0  0  0  0  0  0  0  0  0  0  0
   -0.5319    3.2681   -6.0677 C   0  0  0  0  0  0  0  0  0  0  0  0
   -1.2543    3.7656   -7.0349 F   0  0  0  0  0  0  0  0  0  0  0  0
    1.5711   -4.0620    3.6829 H   0  0  0  0  0  0  0  0  0  0  0  0
    1.9062   -1.7482    2.7427 H   0  0  0  0  0  0  0  0  0  0  0  0
    0.8405   -2.2939    1.4924 H   0  0  0  0  0  0  0  0  0  0  0  0
    2.5347   -5.4472    0.4955 H   0  0  0  0  0  0  0  0  0  0  0  0
    1.1985   -4.3848    0.2231 H   0  0  0  0  0  0  0  0  0  0  0  0
    3.5172   -2.4017    4.0851 H   0  0  0  0  0  0  0  0  0  0  0  0
    4.4756   -5.6074    1.4975 H   0  0  0  0  0  0  0  0  0  0  0  0
    2.3758   -0.4765    0.6975 H   0  0  0  0  0  0  0  0  0  0  0  0
    3.7547   -1.4807    1.0485 H   0  0  0  0  0  0  0  0  0  0  0  0
    4.1285   -3.6373   -0.3037 H   0  0  0  0  0  0  0  0  0  0  0  0
    2.9597   -4.0860   -1.5217 H   0  0  0  0  0  0  0  0  0  0  0  0
    5.5776   -2.7066    5.2134 H   0  0  0  0  0  0  0  0  0  0  0  0
    6.5096   -5.9282    2.6596 H   0  0  0  0  0  0  0  0  0  0  0  0
    0.5355   -2.3658   -0.9382 H   0  0  0  0  0  0  0  0  0  0  0  0
    1.5090   -2.4750   -2.3928 H   0  0  0  0  0  0  0  0  0  0  0  0
    0.1339   -0.4742   -2.3953 H   0  0  0  0  0  0  0  0  0  0  0  0
    0.8692    0.1044   -0.9144 H   0  0  0  0  0  0  0  0  0  0  0  0
    2.3042   -0.2921   -3.6159 H   0  0  0  0  0  0  0  0  0  0  0  0
    3.1179    0.1418   -2.1340 H   0  0  0  0  0  0  0  0  0  0  0  0
    0.3211    0.3301   -4.7244 H   0  0  0  0  0  0  0  0  0  0  0  0
    1.4744    4.2384   -3.5770 H   0  0  0  0  0  0  0  0  0  0  0  0
   -0.9804    1.2494   -6.5031 H   0  0  0  0  0  0  0  0  0  0  0  0
    0.1354    5.1381   -5.3381 H   0  0  0  0  0  0  0  0  0  0  0  0
  1  2  1  0  0  0  0 
  2  3  1  0  0  0  0 
  2  4  1  0  0  0  0 
  2  5  1  0  0  0  0 
  3  6  2  0  0  0  0 
  3  7  1  0  0  0  0 
  4  8  1  0  0  0  0 
  5  9  1  0  0  0  0 
  6 10  1  0  0  0  0 
  7 11  2  0  0  0  0 
  8 12  1  0  0  0  0 
  9 12  1  0  0  0  0 
 10 13  2  0  0  0  0 
 11 13  1  0  0  0  0 
 12 14  1  0  0  0  0 
 13 15  1  0  0  0  0 
 14 16  1  0  0  0  0 
 16 17  1  0  0  0  0 
 17 18  1  0  0  0  0 
 18 19  2  0  0  0  0 
 18 20  1  0  0  0  0 
 20 21  2  0  0  0  0 
 20 22  1  0  0  0  0 
 21 23  1  0  0  0  0 
 22 24  2  0  0  0  0 
 23 25  2  0  0  0  0 
 24 25  1  0  0  0  0 
 25 26  1  0  0  0  0 
 27  1  1  0  0  0  0 
 28  4  1  0  0  0  0 
 29  4  1  0  0  0  0 
 30  5  1  0  0  0  0 
 31  5  1  0  0  0  0 
 32  6  1  0  0  0  0 
 33  7  1  0  0  0  0 
 34  8  1  0  0  0  0 
 35  8  1  0  0  0  0 
 36  9  1  0  0  0  0 
 37  9  1  0  0  0  0 
 38 10  1  0  0  0  0 
 39 11  1  0  0  0  0 
 40 14  1  0  0  0  0 
 41 14  1  0  0  0  0 
 42 16  1  0  0  0  0 
 43 16  1  0  0  0  0 
 44 17  1  0  0  0  0 
 45 17  1  0  0  0  0 
 46 21  1  0  0  0  0 
 47 22  1  0  0  0  0 
 48 23  1  0  0  0  0 
 49 24  1  0  0  0  0 
M  END
> <cdk:Title>
haloperidol

> <Conformer>
1

> <SuperDrugID>
SD001200

$$$$
