tribuzone
  CDK     0628171801

 51 53  0  0  0  0  0  0  0  0999 V2000
    1.2054   -0.5150    2.6052 O   0  0  0  0  0  0  0  0  0  0  0  0
    0.2430   -0.2590    1.6851 C   0  0  0  0  0  0  0  0  0  0  0  0
   -0.7310    0.6754    1.7610 N   0  0  0  0  0  0  0  0  0  0  0  0
    0.1269   -0.9082    0.4649 C   0  0  0  0  0  0  0  0  0  0  0  0
   -1.4521    0.6414    0.6600 N   0  0  0  0  0  0  0  0  0  0  0  0
   -0.8825    1.5380    2.8172 C   0  0  0  0  0  0  0  0  0  0  0  0
    0.9122   -2.0696   -0.0094 C   0  0  2  0  0  0  0  0  0  0  0  0
   -0.9230   -0.2715   -0.1841 C   0  0  0  0  0  0  0  0  0  0  0  0
   -2.6326    1.3077    0.4210 C   0  0  0  0  0  0  0  0  0  0  0  0
   -0.9115    2.9344    2.6006 C   0  0  0  0  0  0  0  0  0  0  0  0
   -1.0557    1.0467    4.1324 C   0  0  0  0  0  0  0  0  0  0  0  0
    0.3890   -3.4172    0.5728 C   0  0  1  0  0  0  0  0  0  0  0  0
   -1.3446   -0.5703   -1.3258 O   0  0  0  0  0  0  0  0  0  0  0  0
   -3.6889    1.2232    1.3561 C   0  0  0  0  0  0  0  0  0  0  0  0
   -2.8195    2.0871   -0.7459 C   0  0  0  0  0  0  0  0  0  0  0  0
   -1.1253    3.8208    3.6720 C   0  0  0  0  0  0  0  0  0  0  0  0
   -1.2712    1.9319    5.2043 C   0  0  0  0  0  0  0  0  0  0  0  0
   -1.0234   -3.7355    0.2026 C   0  0  0  0  0  0  0  0  0  0  0  0
   -4.8873    1.9306    1.1545 C   0  0  0  0  0  0  0  0  0  0  0  0
   -4.0203    2.7932   -0.9503 C   0  0  0  0  0  0  0  0  0  0  0  0
   -1.3144    3.3185    4.9723 C   0  0  0  0  0  0  0  0  0  0  0  0
   -2.1415   -3.9738    1.1906 C   0  0  2  0  0  0  0  0  0  0  0  0
   -1.2491   -3.8212   -1.0295 O   0  0  0  0  0  0  0  0  0  0  0  0
   -5.0503    2.7229    0.0050 C   0  0  0  0  0  0  0  0  0  0  0  0
   -2.2999   -2.7516    2.1558 C   0  0  0  0  0  0  0  0  0  0  0  0
   -1.8357   -5.2628    2.0225 C   0  0  0  0  0  0  0  0  0  0  0  0
   -3.5149   -4.1846    0.4590 C   0  0  0  0  0  0  0  0  0  0  0  0
    0.7710   -1.0895    3.2686 H   0  0  0  0  0  0  0  0  0  0  0  0
    1.9602   -1.9335    0.2745 H   0  0  0  0  0  0  0  0  0  0  0  0
    0.8856   -2.1118   -1.1024 H   0  0  0  0  0  0  0  0  0  0  0  0
   -0.7770    3.3116    1.6600 H   0  0  0  0  0  0  0  0  0  0  0  0
   -1.0406    0.0402    4.3125 H   0  0  0  0  0  0  0  0  0  0  0  0
    1.0282   -4.2192    0.1936 H   0  0  0  0  0  0  0  0  0  0  0  0
    0.5191   -3.4147    1.6571 H   0  0  0  0  0  0  0  0  0  0  0  0
   -3.5923    0.6377    2.1887 H   0  0  0  0  0  0  0  0  0  0  0  0
   -2.0798    2.1486   -1.4495 H   0  0  0  0  0  0  0  0  0  0  0  0
   -1.1457    4.8292    3.5069 H   0  0  0  0  0  0  0  0  0  0  0  0
   -1.4018    1.5685    6.1513 H   0  0  0  0  0  0  0  0  0  0  0  0
   -5.6401    1.8669    1.8420 H   0  0  0  0  0  0  0  0  0  0  0  0
   -4.1468    3.3592   -1.7926 H   0  0  0  0  0  0  0  0  0  0  0  0
   -1.4871    3.9621    5.7496 H   0  0  0  0  0  0  0  0  0  0  0  0
   -5.9176    3.2466   -0.1366 H   0  0  0  0  0  0  0  0  0  0  0  0
   -2.5893   -1.8548    1.6096 H   0  0  0  0  0  0  0  0  0  0  0  0
   -1.3782   -2.5367    2.6971 H   0  0  0  0  0  0  0  0  0  0  0  0
   -3.0700   -2.9463    2.9030 H   0  0  0  0  0  0  0  0  0  0  0  0
   -0.9331   -5.1440    2.6237 H   0  0  0  0  0  0  0  0  0  0  0  0
   -2.6573   -5.4908    2.7060 H   0  0  0  0  0  0  0  0  0  0  0  0
   -1.6954   -6.1255    1.3674 H   0  0  0  0  0  0  0  0  0  0  0  0
   -4.3276   -4.3232    1.1756 H   0  0  0  0  0  0  0  0  0  0  0  0
   -3.7592   -3.3209   -0.1662 H   0  0  0  0  0  0  0  0  0  0  0  0
   -3.4814   -5.0672   -0.1861 H   0  0  0  0  0  0  0  0  0  0  0  0
  1  2  1  0  0  0  0 
  2  3  1  0  0  0  0 
  2  4  2  0  0  0  0 
  3  5  1  0  0  0  0 
  3  6  1  0  0  0  0 
  4  7  1  0  0  0  0 
  4  8  1  0  0  0  0 
  5  8  1  0  0  0  0 
  5  9  1  0  0  0  0 
  6 10  2  0  0  0  0 
  6 11  1  0  0  0  0 
  7 12  1  0  0  0  0 
  8 13  2  0  0  0  0 
  9 14  2  0  0  0  0 
  9 15  1  0  0  0  0 
 10 16  1  0  0  0  0 
 11 17  2  0  0  0  0 
 12 18  1  0  0  0  0 
 14 19  1  0  0  0  0 
 15 20  2  0  0  0  0 
 16 21  2  0  0  0  0 
 17 21  1  0  0  0  0 
 18 22  1  0  0  0  0 
 18 23  2  0  0  0  0 
 19 24  2  0  0  0  0 
 20 24  1  0  0  0  0 
 22 25  1  0  0  0  0 
 22 26  1  0  0  0  0 
 22 27  1  0  0  0  0 
 28  1  1  0  0  0  0 
 29  7  1  0  0  0  0 
 30  7  1  0  0  0  0 
 31 10  1  0  0  0  0 
 32 11  1  0  0  0  0 
 33 12  1  0  0  0  0 
 34 12  1  0  0  0  0 
 35 14  1  0  0  0  0 
 36 15  1  0  0  0  0 
 37 16  1  0  0  0  0 
 38 17  1  0  0  0  0 
 39 19  1  0  0  0  0 
 40 20  1  0  0  0  0 
 41 21  1  0  0  0  0 
 42 24  1  0  0  0  0 
 43 25  1  0  0  0  0 
 44 25  1  0  0  0  0 
 45 25  1  0  0  0  0 
 46 26  1  0  0  0  0 
 47 26  1  0  0  0  0 
 48 26  1  0  0  0  0 
 49 27  1  0  0  0  0 
 50 27  1  0  0  0  0 
 51 27  1  0  0  0  0 
M  END
> <cdk:Title>
tribuzone

> <Conformer>
1

> <SuperDrugID>
SD002462

$$$$
