diphenadione
  CDK     0628171801

 42 45  0  0  0  0  0  0  0  0999 V2000
   -3.0372    0.4596   -0.3357 C   0  0  2  0  0  0  0  0  0  0  0  0
   -2.9587    1.6369    0.5941 C   0  0  0  0  0  0  0  0  0  0  0  0
   -4.1910   -0.4973   -0.1704 C   0  0  0  0  0  0  0  0  0  0  0  0
   -1.7055   -0.2318   -0.4502 C   0  0  0  0  0  0  0  0  0  0  0  0
   -2.0828    2.4956    0.3213 O   0  0  0  0  0  0  0  0  0  0  0  0
   -3.7953    1.9377    1.7943 C   0  0  1  0  0  0  0  0  0  0  0  0
   -4.1690   -1.5883    0.7386 C   0  0  0  0  0  0  0  0  0  0  0  0
   -5.3625   -0.3337   -0.9586 C   0  0  0  0  0  0  0  0  0  0  0  0
   -0.9725   -0.6335    0.6966 C   0  0  0  0  0  0  0  0  0  0  0  0
   -1.1174   -0.4612   -1.7200 C   0  0  0  0  0  0  0  0  0  0  0  0
   -5.2558    1.8559    1.5910 C   0  0  0  0  0  0  0  0  0  0  0  0
   -3.6026    1.0000    2.9172 C   0  0  0  0  0  0  0  0  0  0  0  0
   -5.2584   -2.4729    0.8509 C   0  0  0  0  0  0  0  0  0  0  0  0
   -6.4561   -1.2115   -0.8462 C   0  0  0  0  0  0  0  0  0  0  0  0
    0.2916   -1.2388    0.5858 C   0  0  0  0  0  0  0  0  0  0  0  0
    0.1469   -1.0684   -1.8346 C   0  0  0  0  0  0  0  0  0  0  0  0
   -5.8988    2.5450    0.7662 O   0  0  0  0  0  0  0  0  0  0  0  0
   -5.8196    0.9319    2.4716 C   0  0  0  0  0  0  0  0  0  0  0  0
   -2.5251    0.8307    3.5321 O   0  0  0  0  0  0  0  0  0  0  0  0
   -4.8066    0.3973    3.2652 C   0  0  0  0  0  0  0  0  0  0  0  0
   -6.4055   -2.2795    0.0636 C   0  0  0  0  0  0  0  0  0  0  0  0
    0.8494   -1.4626   -0.6833 C   0  0  0  0  0  0  0  0  0  0  0  0
   -7.1536    0.5096    2.6233 C   0  0  0  0  0  0  0  0  0  0  0  0
   -5.0804   -0.5960    4.2240 C   0  0  0  0  0  0  0  0  0  0  0  0
   -7.4435   -0.4821    3.5850 C   0  0  0  0  0  0  0  0  0  0  0  0
   -6.4111   -1.0388    4.3733 C   0  0  0  0  0  0  0  0  0  0  0  0
   -3.2003    0.9513   -1.3031 H   0  0  0  0  0  0  0  0  0  0  0  0
   -3.5726    2.9448    2.1639 H   0  0  0  0  0  0  0  0  0  0  0  0
   -3.3629   -1.7542    1.3387 H   0  0  0  0  0  0  0  0  0  0  0  0
   -5.4352    0.4370   -1.6261 H   0  0  0  0  0  0  0  0  0  0  0  0
   -1.3481   -0.4782    1.6311 H   0  0  0  0  0  0  0  0  0  0  0  0
   -1.6009   -0.1762   -2.5766 H   0  0  0  0  0  0  0  0  0  0  0  0
   -5.2143   -3.2608    1.5027 H   0  0  0  0  0  0  0  0  0  0  0  0
   -7.2883   -1.0731   -1.4264 H   0  0  0  0  0  0  0  0  0  0  0  0
    0.8072   -1.5080    1.4275 H   0  0  0  0  0  0  0  0  0  0  0  0
    0.5593   -1.2166   -2.7569 H   0  0  0  0  0  0  0  0  0  0  0  0
   -7.2011   -2.9159    0.1495 H   0  0  0  0  0  0  0  0  0  0  0  0
    1.7668   -1.9052   -0.7705 H   0  0  0  0  0  0  0  0  0  0  0  0
   -7.8976    0.9081    2.0489 H   0  0  0  0  0  0  0  0  0  0  0  0
   -4.3328   -0.9958    4.7957 H   0  0  0  0  0  0  0  0  0  0  0  0
   -8.4074   -0.8005    3.7118 H   0  0  0  0  0  0  0  0  0  0  0  0
   -6.6294   -1.7651    5.0588 H   0  0  0  0  0  0  0  0  0  0  0  0
  1  2  1  0  0  0  0 
  1  3  1  0  0  0  0 
  1  4  1  0  0  0  0 
  2  5  2  0  0  0  0 
  2  6  1  0  0  0  0 
  3  7  2  0  0  0  0 
  3  8  1  0  0  0  0 
  4  9  2  0  0  0  0 
  4 10  1  0  0  0  0 
  6 11  1  0  0  0  0 
  6 12  1  0  0  0  0 
  7 13  1  0  0  0  0 
  8 14  2  0  0  0  0 
  9 15  1  0  0  0  0 
 10 16  2  0  0  0  0 
 11 17  2  0  0  0  0 
 11 18  1  0  0  0  0 
 12 19  2  0  0  0  0 
 12 20  1  0  0  0  0 
 13 21  2  0  0  0  0 
 14 21  1  0  0  0  0 
 15 22  2  0  0  0  0 
 16 22  1  0  0  0  0 
 18 20  2  0  0  0  0 
 18 23  1  0  0  0  0 
 20 24  1  0  0  0  0 
 23 25  2  0  0  0  0 
 24 26  2  0  0  0  0 
 25 26  1  0  0  0  0 
  1 27  1  0  0  0  0 
  6 28  1  0  0  0  0 
  7 29  1  0  0  0  0 
  8 30  1  0  0  0  0 
  9 31  1  0  0  0  0 
 10 32  1  0  0  0  0 
 13 33  1  0  0  0  0 
 14 34  1  0  0  0  0 
 15 35  1  0  0  0  0 
 16 36  1  0  0  0  0 
 21 37  1  0  0  0  0 
 22 38  1  0  0  0  0 
 23 39  1  0  0  0  0 
 24 40  1  0  0  0  0 
 25 41  1  0  0  0  0 
 26 42  1  0  0  0  0 
M  END
> <cdk:Title>
diphenadione

> <Conformer>
1

> <SuperDrugID>
SD003570

$$$$
