nicofuranose
  CDK     0628171801

 68 72  0  0  0  0  0  0  0  0999 V2000
   -7.8888    0.3662   -3.1278 O   0  0  0  0  0  0  0  0  0  0  0  0
   -8.6595    1.4029   -3.5863 C   0  0  0  0  0  0  0  0  0  0  0  0
   -6.4542    0.3531   -2.9919 C   0  0  1  0  0  0  0  0  0  0  0  0
   -8.1094    2.4467   -4.0125 O   0  0  0  0  0  0  0  0  0  0  0  0
  -10.0731    1.3062   -3.5780 C   0  0  0  0  0  0  0  0  0  0  0  0
   -5.9565    1.3997   -1.9780 C   0  0  2  0  0  0  0  0  0  0  0  0
   -5.9010   -0.9858   -2.4203 C   0  0  2  0  0  0  0  0  0  0  0  0
  -10.7313    0.0531   -3.6080 C   0  0  0  0  0  0  0  0  0  0  0  0
  -10.8858    2.4669   -3.5365 C   0  0  0  0  0  0  0  0  0  0  0  0
   -5.6084    2.6330   -2.6311 O   0  0  0  0  0  0  0  0  0  0  0  0
   -4.6854    0.7337   -1.4185 C   0  0  2  0  0  0  0  0  0  0  0  0
   -5.2565   -1.8940   -3.5016 C   0  0  1  0  0  0  0  0  0  0  0  0
   -6.9236   -1.7176   -1.7462 O   0  0  0  0  0  0  0  0  0  0  0  0
   -4.9312   -0.6733   -1.4079 O   0  0  0  0  0  0  0  0  0  0  0  0
  -12.1376   -0.0174   -3.6232 C   0  0  0  0  0  0  0  0  0  0  0  0
  -12.2391    2.3685   -3.5430 N   0  0  0  0  0  0  0  0  0  0  0  0
   -5.6184    3.8997   -2.1193 C   0  0  0  0  0  0  0  0  0  0  0  0
   -4.2609    1.2149   -0.0055 C   0  0  2  0  0  0  0  0  0  0  0  0
   -4.6584   -3.0573   -2.9120 O   0  0  0  0  0  0  0  0  0  0  0  0
  -12.8811    1.1746   -3.5880 C   0  0  0  0  0  0  0  0  0  0  0  0
   -6.0486    4.0911   -0.9574 O   0  0  0  0  0  0  0  0  0  0  0  0
   -5.1366    4.9805   -2.9040 C   0  0  0  0  0  0  0  0  0  0  0  0
   -2.8362    1.0607    0.1095 O   0  0  0  0  0  0  0  0  0  0  0  0
   -3.9692   -4.0400   -3.5709 C   0  0  0  0  0  0  0  0  0  0  0  0
   -4.8715    4.8305   -4.2881 C   0  0  0  0  0  0  0  0  0  0  0  0
   -4.8873    6.2527   -2.3318 C   0  0  0  0  0  0  0  0  0  0  0  0
   -1.8853    2.0488    0.1272 C   0  0  0  0  0  0  0  0  0  0  0  0
   -3.8490   -3.9620   -4.8180 O   0  0  0  0  0  0  0  0  0  0  0  0
   -3.3842   -5.1179   -2.8518 C   0  0  0  0  0  0  0  0  0  0  0  0
   -4.3780    5.9078   -5.0474 C   0  0  0  0  0  0  0  0  0  0  0  0
   -4.4162    7.2755   -3.0894 N   0  0  0  0  0  0  0  0  0  0  0  0
   -2.2524    3.2484    0.1199 O   0  0  0  0  0  0  0  0  0  0  0  0
   -0.5014    1.7195    0.1273 C   0  0  0  0  0  0  0  0  0  0  0  0
   -3.5467   -5.2401   -1.4486 C   0  0  0  0  0  0  0  0  0  0  0  0
   -2.6060   -6.1116   -3.4976 C   0  0  0  0  0  0  0  0  0  0  0  0
   -4.1570    7.1413   -4.4133 C   0  0  0  0  0  0  0  0  0  0  0  0
   -0.0658    0.3714    0.1481 C   0  0  0  0  0  0  0  0  0  0  0  0
    0.5048    2.7181    0.0842 C   0  0  0  0  0  0  0  0  0  0  0  0
   -2.9476   -6.2972   -0.7417 C   0  0  0  0  0  0  0  0  0  0  0  0
   -2.0389   -7.1213   -2.7904 N   0  0  0  0  0  0  0  0  0  0  0  0
    1.3045    0.0538    0.1405 C   0  0  0  0  0  0  0  0  0  0  0  0
    1.8206    2.3823    0.0804 N   0  0  0  0  0  0  0  0  0  0  0  0
   -2.1822   -7.2400   -1.4472 C   0  0  0  0  0  0  0  0  0  0  0  0
    2.2459    1.0959    0.1135 C   0  0  0  0  0  0  0  0  0  0  0  0
   -6.0100    0.5609   -3.9722 H   0  0  0  0  0  0  0  0  0  0  0  0
   -6.7073    1.5459   -1.1935 H   0  0  0  0  0  0  0  0  0  0  0  0
  -10.1974   -0.8208   -3.6300 H   0  0  0  0  0  0  0  0  0  0  0  0
  -10.4717    3.4005   -3.4936 H   0  0  0  0  0  0  0  0  0  0  0  0
   -3.8632    0.9155   -2.1210 H   0  0  0  0  0  0  0  0  0  0  0  0
   -6.0202   -2.2006   -4.2215 H   0  0  0  0  0  0  0  0  0  0  0  0
   -4.4759   -1.3366   -4.0279 H   0  0  0  0  0  0  0  0  0  0  0  0
   -6.4607   -2.4966   -1.3697 H   0  0  0  0  0  0  0  0  0  0  0  0
  -12.6122   -0.9225   -3.6611 H   0  0  0  0  0  0  0  0  0  0  0  0
   -4.7531    0.6211    0.7692 H   0  0  0  0  0  0  0  0  0  0  0  0
   -4.5529    2.2545    0.1472 H   0  0  0  0  0  0  0  0  0  0  0  0
  -13.9021    1.1492   -3.5931 H   0  0  0  0  0  0  0  0  0  0  0  0
   -5.0358    3.9383   -4.7627 H   0  0  0  0  0  0  0  0  0  0  0  0
   -5.0492    6.4246   -1.3374 H   0  0  0  0  0  0  0  0  0  0  0  0
   -4.1819    5.7966   -6.0452 H   0  0  0  0  0  0  0  0  0  0  0  0
   -4.1021   -4.5600   -0.9239 H   0  0  0  0  0  0  0  0  0  0  0  0
   -2.4506   -6.0902   -4.5074 H   0  0  0  0  0  0  0  0  0  0  0  0
   -3.8018    7.9386   -4.9425 H   0  0  0  0  0  0  0  0  0  0  0  0
   -0.7401   -0.3977    0.1678 H   0  0  0  0  0  0  0  0  0  0  0  0
    0.2636    3.7107    0.0526 H   0  0  0  0  0  0  0  0  0  0  0  0
   -3.0657   -6.3770    0.2713 H   0  0  0  0  0  0  0  0  0  0  0  0
    1.6129   -0.9205    0.1554 H   0  0  0  0  0  0  0  0  0  0  0  0
   -1.7316   -8.0130   -0.9560 H   0  0  0  0  0  0  0  0  0  0  0  0
    3.2467    0.8913    0.1222 H   0  0  0  0  0  0  0  0  0  0  0  0
  1  2  1  0  0  0  0 
  2  4  2  0  0  0  0 
  2  5  1  0  0  0  0 
  3  1  1  0  0  0  0 
  6  3  1  0  0  0  0 
  3  7  1  0  0  0  0 
  5  8  2  0  0  0  0 
  5  9  1  0  0  0  0 
  6 10  1  0  0  0  0 
 11  6  1  0  0  0  0 
  7 12  1  0  0  0  0 
  7 13  1  0  0  0  0 
  7 14  1  0  0  0  0 
  8 15  1  0  0  0  0 
  9 16  2  0  0  0  0 
 10 17  1  0  0  0  0 
 11 14  1  0  0  0  0 
 11 18  1  0  0  0  0 
 12 19  1  0  0  0  0 
 15 20  2  0  0  0  0 
 16 20  1  0  0  0  0 
 17 21  2  0  0  0  0 
 17 22  1  0  0  0  0 
 18 23  1  0  0  0  0 
 19 24  1  0  0  0  0 
 22 25  2  0  0  0  0 
 22 26  1  0  0  0  0 
 23 27  1  0  0  0  0 
 24 28  2  0  0  0  0 
 24 29  1  0  0  0  0 
 25 30  1  0  0  0  0 
 26 31  2  0  0  0  0 
 27 32  2  0  0  0  0 
 27 33  1  0  0  0  0 
 29 34  2  0  0  0  0 
 29 35  1  0  0  0  0 
 30 36  2  0  0  0  0 
 31 36  1  0  0  0  0 
 33 37  2  0  0  0  0 
 33 38  1  0  0  0  0 
 34 39  1  0  0  0  0 
 35 40  2  0  0  0  0 
 37 41  1  0  0  0  0 
 38 42  2  0  0  0  0 
 39 43  2  0  0  0  0 
 40 43  1  0  0  0  0 
 41 44  2  0  0  0  0 
 42 44  1  0  0  0  0 
  3 45  1  0  0  0  0 
  6 46  1  0  0  0  0 
  8 47  1  0  0  0  0 
  9 48  1  0  0  0  0 
 11 49  1  0  0  0  0 
 12 50  1  0  0  0  0 
 12 51  1  0  0  0  0 
 13 52  1  0  0  0  0 
 15 53  1  0  0  0  0 
 18 54  1  0  0  0  0 
 18 55  1  0  0  0  0 
 20 56  1  0  0  0  0 
 25 57  1  0  0  0  0 
 26 58  1  0  0  0  0 
 30 59  1  0  0  0  0 
 34 60  1  0  0  0  0 
 35 61  1  0  0  0  0 
 36 62  1  0  0  0  0 
 37 63  1  0  0  0  0 
 38 64  1  0  0  0  0 
 39 65  1  0  0  0  0 
 41 66  1  0  0  0  0 
 43 67  1  0  0  0  0 
 44 68  1  0  0  0  0 
M  END
> <cdk:Title>
nicofuranose

> <Conformer>
1

> <SuperDrugID>
SD001711

$$$$
