alprenolol
  CDK     0628171801

 41 41  0  0  0  0  0  0  0  0999 V2000
    6.7238    0.2894    1.3034 O   0  0  0  0  0  0  0  0  0  0  0  0
    6.8115   -0.6387    0.1988 C   0  0  1  0  0  0  0  0  0  0  0  0
    6.8809    1.6029    0.9379 C   0  0  0  0  0  0  0  0  0  0  0  0
    6.7080   -2.0946    0.7239 C   0  0  2  0  0  0  0  0  0  0  0  0
    5.7707    2.4374    0.6275 C   0  0  0  0  0  0  0  0  0  0  0  0
    8.1892    2.1318    0.9144 C   0  0  0  0  0  0  0  0  0  0  0  0
    7.8519   -2.4578    1.7049 C   0  0  2  0  0  0  0  0  0  0  0  0
    6.7343   -2.9943   -0.3853 O   0  0  0  0  0  0  0  0  0  0  0  0
    4.3641    1.9399    0.6699 C   0  0  1  0  0  0  0  0  0  0  0  0
    6.0176    3.7850    0.2612 C   0  0  0  0  0  0  0  0  0  0  0  0
    8.4127    3.4754    0.5655 C   0  0  0  0  0  0  0  0  0  0  0  0
    7.7945   -3.8896    2.0899 N   0  0  1  0  0  0  0  0  0  0  0  0
    3.5741    2.5809    1.7102 C   0  0  0  0  0  0  0  0  0  0  0  0
    7.3268    4.3011    0.2351 C   0  0  0  0  0  0  0  0  0  0  0  0
    8.7678   -4.3376    3.1213 C   0  0  1  0  0  0  0  0  0  0  0  0
    3.6250    2.2262    3.0004 C   0  0  0  0  0  0  0  0  0  0  0  0
    8.3711   -5.7598    3.5876 C   0  0  0  0  0  0  0  0  0  0  0  0
   10.2280   -4.3107    2.5983 C   0  0  0  0  0  0  0  0  0  0  0  0
    5.9931   -0.4638   -0.5082 H   0  0  0  0  0  0  0  0  0  0  0  0
    7.7608   -0.5224   -0.3355 H   0  0  0  0  0  0  0  0  0  0  0  0
    5.7504   -2.2169    1.2375 H   0  0  0  0  0  0  0  0  0  0  0  0
    8.9848    1.5367    1.1524 H   0  0  0  0  0  0  0  0  0  0  0  0
    7.7693   -1.8358    2.6002 H   0  0  0  0  0  0  0  0  0  0  0  0
    8.8058   -2.2493    1.2180 H   0  0  0  0  0  0  0  0  0  0  0  0
    5.9419   -2.7708   -0.9172 H   0  0  0  0  0  0  0  0  0  0  0  0
    3.9027    2.1337   -0.3030 H   0  0  0  0  0  0  0  0  0  0  0  0
    4.3190    0.8578    0.8152 H   0  0  0  0  0  0  0  0  0  0  0  0
    5.2404    4.4052    0.0143 H   0  0  0  0  0  0  0  0  0  0  0  0
    9.3635    3.8517    0.5572 H   0  0  0  0  0  0  0  0  0  0  0  0
    6.8588   -4.0548    2.4685 H   0  0  0  0  0  0  0  0  0  0  0  0
    2.9742    3.3329    1.4511 H   0  0  0  0  0  0  0  0  0  0  0  0
    7.4866    5.2794   -0.0197 H   0  0  0  0  0  0  0  0  0  0  0  0
    8.6974   -3.6812    3.9930 H   0  0  0  0  0  0  0  0  0  0  0  0
    4.2097    1.4845    3.3107 H   0  0  0  0  0  0  0  0  0  0  0  0
    3.0704    2.7054    3.6702 H   0  0  0  0  0  0  0  0  0  0  0  0
    9.0517   -6.1086    4.3670 H   0  0  0  0  0  0  0  0  0  0  0  0
    8.4044   -6.4629    2.7536 H   0  0  0  0  0  0  0  0  0  0  0  0
    7.3600   -5.7534    3.9997 H   0  0  0  0  0  0  0  0  0  0  0  0
   10.8976   -4.8095    3.2997 H   0  0  0  0  0  0  0  0  0  0  0  0
   10.5706   -3.2825    2.4903 H   0  0  0  0  0  0  0  0  0  0  0  0
   10.2952   -4.8094    1.6303 H   0  0  0  0  0  0  0  0  0  0  0  0
  1  2  1  0  0  0  0 
  1  3  1  0  0  0  0 
  4  2  1  0  0  0  0 
  3  5  2  0  0  0  0 
  3  6  1  0  0  0  0 
  4  7  1  0  0  0  0 
  4  8  1  0  0  0  0 
  5  9  1  0  0  0  0 
  5 10  1  0  0  0  0 
  6 11  2  0  0  0  0 
  7 12  1  0  0  0  0 
  9 13  1  0  0  0  0 
 10 14  2  0  0  0  0 
 11 14  1  0  0  0  0 
 12 15  1  0  0  0  0 
 13 16  2  0  0  0  0 
 15 17  1  0  0  0  0 
 15 18  1  0  0  0  0 
  2 19  1  0  0  0  0 
  2 20  1  0  0  0  0 
  4 21  1  0  0  0  0 
  6 22  1  0  0  0  0 
  7 23  1  0  0  0  0 
  7 24  1  0  0  0  0 
  8 25  1  0  0  0  0 
  9 26  1  0  0  0  0 
  9 27  1  0  0  0  0 
 10 28  1  0  0  0  0 
 11 29  1  0  0  0  0 
 12 30  1  0  0  0  0 
 13 31  1  0  0  0  0 
 14 32  1  0  0  0  0 
 15 33  1  0  0  0  0 
 16 34  1  0  0  0  0 
 16 35  1  0  0  0  0 
 17 36  1  0  0  0  0 
 17 37  1  0  0  0  0 
 17 38  1  0  0  0  0 
 18 39  1  0  0  0  0 
 18 40  1  0  0  0  0 
 18 41  1  0  0  0  0 
M  END
> <cdk:Title>
alprenolol

> <Conformer>
1

> <SuperDrugID>
SD000106

$$$$
