penmesterol
  CDK     0628171801

 65 69  0  0  0  0  0  0  0  0999 V2000
   10.7688    2.5096   -2.4788 C   0  0  0  0  0  0  0  0  0  0  0  0
   10.7205    1.6730   -1.1344 C   0  0  2  0  0  0  0  0  0  0  0  0
    9.6178    2.1233   -0.1227 C   0  0  2  0  0  0  0  0  0  0  0  0
   12.0219    1.9874   -0.2969 C   0  0  1  0  0  0  0  0  0  0  0  0
   10.4144    0.1715   -1.4823 C   0  0  2  0  0  0  0  0  0  0  0  0
    8.1829    2.0931   -0.7296 C   0  0  1  0  0  0  0  0  0  0  0  0
   10.1259    3.4588    0.4664 C   0  0  2  0  0  0  0  0  0  0  0  0
   12.4552    0.9012    0.7362 C   0  0  0  0  0  0  0  0  0  0  0  0
   13.1785    2.1719   -1.1247 O   0  0  0  0  0  0  0  0  0  0  0  0
   11.6719    3.3369    0.4127 C   0  0  2  0  0  0  0  0  0  0  0  0
    8.9801   -0.0274   -2.0695 C   0  0  2  0  0  0  0  0  0  0  0  0
    7.8268    0.6477   -1.2335 C   0  0  2  0  0  0  0  0  0  0  0  0
    7.1047    2.5876    0.2787 C   0  0  2  0  0  0  0  0  0  0  0  0
    6.3773    0.6542   -1.8965 C   0  0  2  0  0  0  0  0  0  0  0  0
    5.7453    2.1820   -0.0230 C   0  0  0  0  0  0  0  0  0  0  0  0
    6.3611    1.4130   -3.2769 C   0  0  0  0  0  0  0  0  0  0  0  0
    5.3805    1.3049   -0.9892 C   0  0  0  0  0  0  0  0  0  0  0  0
    5.9143   -0.8328   -2.1376 C   0  0  1  0  0  0  0  0  0  0  0  0
    4.0384    1.0006   -1.1104 C   0  0  0  0  0  0  0  0  0  0  0  0
    4.4215   -0.9477   -2.5593 C   0  0  1  0  0  0  0  0  0  0  0  0
    3.5568   -0.0360   -1.8225 C   0  0  0  0  0  0  0  0  0  0  0  0
    2.2308   -0.2628   -1.8029 O   0  0  0  0  0  0  0  0  0  0  0  0
    1.4631    0.3139   -2.8845 C   0  0  1  0  0  0  0  0  0  0  0  0
   -0.0247   -0.0575   -2.7047 C   0  0  2  0  0  0  0  0  0  0  0  0
    1.4209    1.8584   -2.9242 C   0  0  2  0  0  0  0  0  0  0  0  0
   -0.8453    1.0460   -3.4104 C   0  0  2  0  0  0  0  0  0  0  0  0
    0.1399    2.1966   -3.7076 C   0  0  2  0  0  0  0  0  0  0  0  0
    8.1717    2.7941   -1.5629 H   0  0  0  0  0  0  0  0  0  0  0  0
    7.7600    0.0342   -0.3262 H   0  0  0  0  0  0  0  0  0  0  0  0
    9.5898    1.4128    0.7151 H   0  0  0  0  0  0  0  0  0  0  0  0
   11.5947    2.1634   -3.1023 H   0  0  0  0  0  0  0  0  0  0  0  0
   10.9120    3.5759   -2.2974 H   0  0  0  0  0  0  0  0  0  0  0  0
    9.8630    2.4193   -3.0756 H   0  0  0  0  0  0  0  0  0  0  0  0
   10.4815   -0.4557   -0.5891 H   0  0  0  0  0  0  0  0  0  0  0  0
   11.1558   -0.2023   -2.1944 H   0  0  0  0  0  0  0  0  0  0  0  0
    9.7980    3.5199    1.5521 H   0  0  0  0  0  0  0  0  0  0  0  0
    9.8039    4.3028   -0.2228 H   0  0  0  0  0  0  0  0  0  0  0  0
   11.6593    0.6674    1.4411 H   0  0  0  0  0  0  0  0  0  0  0  0
   12.7437   -0.0192    0.2265 H   0  0  0  0  0  0  0  0  0  0  0  0
   13.3171    1.2491    1.3088 H   0  0  0  0  0  0  0  0  0  0  0  0
   13.3165    1.3073   -1.5702 H   0  0  0  0  0  0  0  0  0  0  0  0
   12.0738    4.1790   -0.1593 H   0  0  0  0  0  0  0  0  0  0  0  0
   12.1022    3.4032    1.4170 H   0  0  0  0  0  0  0  0  0  0  0  0
    8.7990   -1.1043   -2.1310 H   0  0  0  0  0  0  0  0  0  0  0  0
    8.9758    0.3413   -3.0938 H   0  0  0  0  0  0  0  0  0  0  0  0
    7.1334    3.6809    0.3179 H   0  0  0  0  0  0  0  0  0  0  0  0
    7.3322    2.2137    1.2810 H   0  0  0  0  0  0  0  0  0  0  0  0
    5.0490    2.5895    0.5645 H   0  0  0  0  0  0  0  0  0  0  0  0
    5.3518    1.4818   -3.6856 H   0  0  0  0  0  0  0  0  0  0  0  0
    6.7327    2.4344   -3.1973 H   0  0  0  0  0  0  0  0  0  0  0  0
    6.9661    0.8881   -4.0173 H   0  0  0  0  0  0  0  0  0  0  0  0
    6.5324   -1.3154   -2.8991 H   0  0  0  0  0  0  0  0  0  0  0  0
    6.0385   -1.4028   -1.2109 H   0  0  0  0  0  0  0  0  0  0  0  0
    3.3673    1.5619   -0.6333 H   0  0  0  0  0  0  0  0  0  0  0  0
    4.3195   -0.7396   -3.6260 H   0  0  0  0  0  0  0  0  0  0  0  0
    4.0967   -1.9766   -2.3947 H   0  0  0  0  0  0  0  0  0  0  0  0
    1.8091   -0.0724   -3.8508 H   0  0  0  0  0  0  0  0  0  0  0  0
   -0.2770   -0.0686   -1.6390 H   0  0  0  0  0  0  0  0  0  0  0  0
   -0.2367   -1.0465   -3.1200 H   0  0  0  0  0  0  0  0  0  0  0  0
    2.3077    2.2718   -3.4115 H   0  0  0  0  0  0  0  0  0  0  0  0
    1.3473    2.2632   -1.9103 H   0  0  0  0  0  0  0  0  0  0  0  0
   -1.6540    1.3918   -2.7595 H   0  0  0  0  0  0  0  0  0  0  0  0
   -1.2862    0.6705   -4.3382 H   0  0  0  0  0  0  0  0  0  0  0  0
    0.3613    2.2349   -4.7786 H   0  0  0  0  0  0  0  0  0  0  0  0
   -0.2685    3.1631   -3.3990 H   0  0  0  0  0  0  0  0  0  0  0  0
  2  1  1  0  0  0  0 
  3  2  1  0  0  0  0 
  2  4  1  0  0  0  0 
  2  5  1  0  0  0  0 
  6  3  1  0  0  0  0 
  3  7  1  0  0  0  0 
  3 30  1  0  0  0  0 
  4  8  1  0  0  0  0 
  4  9  1  0  0  0  0 
  4 10  1  0  0  0  0 
  5 11  1  0  0  0  0 
 12  6  1  0  0  0  0 
  6 13  1  0  0  0  0 
  6 28  1  0  0  0  0 
  7 10  1  0  0  0  0 
 12 11  1  0  0  0  0 
 14 12  1  0  0  0  0 
 12 29  1  0  0  0  0 
 13 15  1  0  0  0  0 
 14 16  1  0  0  0  0 
 14 17  1  0  0  0  0 
 14 18  1  0  0  0  0 
 15 17  2  0  0  0  0 
 17 19  1  0  0  0  0 
 18 20  1  0  0  0  0 
 19 21  2  0  0  0  0 
 20 21  1  0  0  0  0 
 21 22  1  0  0  0  0 
 22 23  1  0  0  0  0 
 23 24  1  0  0  0  0 
 23 25  1  0  0  0  0 
 24 26  1  0  0  0  0 
 25 27  1  0  0  0  0 
 26 27  1  0  0  0  0 
  1 31  1  0  0  0  0 
  1 32  1  0  0  0  0 
  1 33  1  0  0  0  0 
  5 34  1  0  0  0  0 
  5 35  1  0  0  0  0 
  7 36  1  0  0  0  0 
  7 37  1  0  0  0  0 
  8 38  1  0  0  0  0 
  8 39  1  0  0  0  0 
  8 40  1  0  0  0  0 
  9 41  1  0  0  0  0 
 10 42  1  0  0  0  0 
 10 43  1  0  0  0  0 
 11 44  1  0  0  0  0 
 11 45  1  0  0  0  0 
 13 46  1  0  0  0  0 
 13 47  1  0  0  0  0 
 15 48  1  0  0  0  0 
 16 49  1  0  0  0  0 
 16 50  1  0  0  0  0 
 16 51  1  0  0  0  0 
 18 52  1  0  0  0  0 
 18 53  1  0  0  0  0 
 19 54  1  0  0  0  0 
 20 55  1  0  0  0  0 
 20 56  1  0  0  0  0 
 23 57  1  0  0  0  0 
 24 58  1  0  0  0  0 
 24 59  1  0  0  0  0 
 25 60  1  0  0  0  0 
 25 61  1  0  0  0  0 
 26 62  1  0  0  0  0 
 26 63  1  0  0  0  0 
 27 64  1  0  0  0  0 
 27 65  1  0  0  0  0 
M  END
> <cdk:Title>
penmesterol

> <Conformer>
1

> <SuperDrugID>
SD003226

$$$$
