fenquizone
  CDK     0628171801

 34 36  0  0  0  0  0  0  0  0999 V2000
   -4.6206   -1.9640   -0.6491 O   0  0  0  0  0  0  0  0  0  0  0  0
   -3.5450   -1.7979   -0.0298 C   0  0  0  0  0  0  0  0  0  0  0  0
   -3.4049   -2.1112    1.3478 C   0  0  0  0  0  0  0  0  0  0  0  0
   -2.4979   -1.3067   -0.7380 N   0  0  0  0  0  0  0  0  0  0  0  0
   -2.1339   -1.9320    1.9444 C   0  0  0  0  0  0  0  0  0  0  0  0
   -4.4771   -2.5887    2.1351 C   0  0  0  0  0  0  0  0  0  0  0  0
   -1.1991   -1.0745   -0.1760 C   0  0  2  0  0  0  0  0  0  0  0  0
   -1.0888   -1.4485    1.2077 N   0  0  0  0  0  0  0  0  0  0  0  0
   -1.9489   -2.2494    3.3048 C   0  0  0  0  0  0  0  0  0  0  0  0
   -4.3051   -2.8925    3.5040 C   0  0  0  0  0  0  0  0  0  0  0  0
   -0.8160    0.3508   -0.3880 C   0  0  0  0  0  0  0  0  0  0  0  0
   -3.0237   -2.7216    4.0874 C   0  0  0  0  0  0  0  0  0  0  0  0
   -5.7088   -3.4549    4.4411 S   0  0  1  0  0  0  0  0  0  0  0  0
   -1.3188    1.3782    0.4497 C   0  0  0  0  0  0  0  0  0  0  0  0
    0.0541    0.7133   -1.4463 C   0  0  0  0  0  0  0  0  0  0  0  0
   -2.7106   -3.0606    5.7208 Cl  0  0  0  0  0  0  0  0  0  0  0  0
   -7.0632   -3.8892    3.4087 N   0  0  2  0  0  0  0  0  0  0  0  0
   -5.3463   -4.7537    5.3099 O   0  0  0  0  0  0  0  0  0  0  0  0
   -6.2045   -2.2949    5.4321 O   0  0  0  0  0  0  0  0  0  0  0  0
   -0.9484    2.7216    0.2463 C   0  0  0  0  0  0  0  0  0  0  0  0
    0.4130    2.0582   -1.6574 C   0  0  0  0  0  0  0  0  0  0  0  0
   -0.0858    3.0634   -0.8105 C   0  0  0  0  0  0  0  0  0  0  0  0
   -2.6374   -1.1184   -1.6788 H   0  0  0  0  0  0  0  0  0  0  0  0
   -5.3944   -2.7076    1.7016 H   0  0  0  0  0  0  0  0  0  0  0  0
   -0.5113   -1.7280   -0.7157 H   0  0  0  0  0  0  0  0  0  0  0  0
   -0.2286   -1.3375    1.6405 H   0  0  0  0  0  0  0  0  0  0  0  0
   -1.0238   -2.1312    3.7274 H   0  0  0  0  0  0  0  0  0  0  0  0
   -1.9542    1.1546    1.2201 H   0  0  0  0  0  0  0  0  0  0  0  0
    0.4311    0.0004   -2.0770 H   0  0  0  0  0  0  0  0  0  0  0  0
   -6.7231   -4.5902    2.7470 H   0  0  0  0  0  0  0  0  0  0  0  0
   -7.3018   -3.0618    2.8586 H   0  0  0  0  0  0  0  0  0  0  0  0
   -1.3076    3.4504    0.8670 H   0  0  0  0  0  0  0  0  0  0  0  0
    1.0369    2.3066   -2.4280 H   0  0  0  0  0  0  0  0  0  0  0  0
    0.1765    4.0416   -0.9648 H   0  0  0  0  0  0  0  0  0  0  0  0
  1  2  2  0  0  0  0 
  2  3  1  0  0  0  0 
  2  4  1  0  0  0  0 
  3  5  2  0  0  0  0 
  3  6  1  0  0  0  0 
  7  4  1  0  0  0  0 
  5  8  1  0  0  0  0 
  5  9  1  0  0  0  0 
  6 10  2  0  0  0  0 
  7  8  1  0  0  0  0 
  7 11  1  0  0  0  0 
  9 12  2  0  0  0  0 
 10 12  1  0  0  0  0 
 10 13  1  0  0  0  0 
 11 14  2  0  0  0  0 
 11 15  1  0  0  0  0 
 12 16  1  0  0  0  0 
 13 17  1  0  0  0  0 
 13 18  2  0  0  0  0 
 13 19  2  0  0  0  0 
 14 20  1  0  0  0  0 
 15 21  2  0  0  0  0 
 20 22  2  0  0  0  0 
 21 22  1  0  0  0  0 
  4 23  1  0  0  0  0 
  6 24  1  0  0  0  0 
  7 25  1  0  0  0  0 
  8 26  1  0  0  0  0 
  9 27  1  0  0  0  0 
 14 28  1  0  0  0  0 
 15 29  1  0  0  0  0 
 17 30  1  0  0  0  0 
 17 31  1  0  0  0  0 
 20 32  1  0  0  0  0 
 21 33  1  0  0  0  0 
 22 34  1  0  0  0  0 
M  END
> <cdk:Title>
fenquizone

> <Conformer>
1

> <SuperDrugID>
SD001039

$$$$
