iopydol
  CDK     0628171801

 23 23  0  0  0  0  0  0  0  0999 V2000
   -0.0259    0.0376   -0.0196 C   0  0  1  0  0  0  0  0  0  0  0  0
   -0.3625    0.1319   -1.5377 C   0  0  2  0  0  0  0  0  0  0  0  0
    1.3942    0.0364    0.2759 N   0  0  0  0  0  0  0  0  0  0  0  0
    0.2015    1.3918   -2.2420 C   0  0  2  0  0  0  0  0  0  0  0  0
   -1.7814    0.1427   -1.7010 O   0  0  0  0  0  0  0  0  0  0  0  0
    2.1743   -1.0239   -0.1151 C   0  0  0  0  0  0  0  0  0  0  0  0
    1.9686    1.0913    0.9398 C   0  0  0  0  0  0  0  0  0  0  0  0
    1.6249    1.3813   -2.2994 O   0  0  0  0  0  0  0  0  0  0  0  0
    3.5662   -1.0242    0.0923 C   0  0  0  0  0  0  0  0  0  0  0  0
    3.3547    1.1408    1.1766 C   0  0  0  0  0  0  0  0  0  0  0  0
    4.6934   -2.6226   -0.5424 I   0  0  0  0  0  0  0  0  0  0  0  0
    4.1615    0.0804    0.7277 C   0  0  0  0  0  0  0  0  0  0  0  0
    4.1643    2.7576    2.1555 I   0  0  0  0  0  0  0  0  0  0  0  0
    5.4023    0.1199    0.8934 O   0  0  0  0  0  0  0  0  0  0  0  0
   -0.5403    0.8626    0.4827 H   0  0  0  0  0  0  0  0  0  0  0  0
   -0.4716   -0.8776    0.3831 H   0  0  0  0  0  0  0  0  0  0  0  0
    0.0152   -0.7564   -2.0487 H   0  0  0  0  0  0  0  0  0  0  0  0
   -0.1301    2.2941   -1.7237 H   0  0  0  0  0  0  0  0  0  0  0  0
   -0.1677    1.4278   -3.2693 H   0  0  0  0  0  0  0  0  0  0  0  0
   -2.1011   -0.6898   -1.2932 H   0  0  0  0  0  0  0  0  0  0  0  0
    1.7567   -1.8378   -0.5735 H   0  0  0  0  0  0  0  0  0  0  0  0
    1.4008    1.8754    1.2720 H   0  0  0  0  0  0  0  0  0  0  0  0
    1.8583    2.1856   -2.8084 H   0  0  0  0  0  0  0  0  0  0  0  0
  2  1  1  0  0  0  0 
  1  3  1  0  0  0  0 
  2  4  1  0  0  0  0 
  2  5  1  0  0  0  0 
  3  6  1  0  0  0  0 
  3  7  1  0  0  0  0 
  4  8  1  0  0  0  0 
  6  9  2  0  0  0  0 
  7 10  2  0  0  0  0 
  9 11  1  0  0  0  0 
  9 12  1  0  0  0  0 
 10 12  1  0  0  0  0 
 10 13  1  0  0  0  0 
 12 14  2  0  0  0  0 
  1 15  1  0  0  0  0 
  1 16  1  0  0  0  0 
  2 17  1  0  0  0  0 
  4 18  1  0  0  0  0 
  4 19  1  0  0  0  0 
  5 20  1  0  0  0  0 
  6 21  1  0  0  0  0 
  7 22  1  0  0  0  0 
  8 23  1  0  0  0  0 
M  END
> <cdk:Title>
iopydol

> <Conformer>
1

> <SuperDrugID>
SD003637

$$$$
