phenyl salicylate
  CDK     0628171801

 26 27  0  0  0  0  0  0  0  0999 V2000
   -1.6127   -3.8877   -0.3833 O   0  0  0  0  0  0  0  0  0  0  0  0
   -1.9694   -3.8226   -1.6932 C   0  0  0  0  0  0  0  0  0  0  0  0
   -2.5781   -4.9732   -2.2326 C   0  0  0  0  0  0  0  0  0  0  0  0
   -2.9310   -5.0170   -3.5925 C   0  0  0  0  0  0  0  0  0  0  0  0
   -2.6912   -3.9051   -4.4136 C   0  0  0  0  0  0  0  0  0  0  0  0
   -2.1085   -2.7451   -3.8726 C   0  0  0  0  0  0  0  0  0  0  0  0
   -1.7323   -2.6776   -2.5043 C   0  0  0  0  0  0  0  0  0  0  0  0
   -1.1350   -1.4953   -1.9792 C   0  0  0  0  0  0  0  0  0  0  0  0
   -0.6570   -0.6320   -2.7542 O   0  0  0  0  0  0  0  0  0  0  0  0
   -1.1599   -1.2544   -0.6307 O   0  0  0  0  0  0  0  0  0  0  0  0
   -0.5701   -0.2770    0.1254 C   0  0  0  0  0  0  0  0  0  0  0  0
   -1.2085    0.0743    1.3321 C   0  0  0  0  0  0  0  0  0  0  0  0
   -0.6727    1.0786    2.1608 C   0  0  0  0  0  0  0  0  0  0  0  0
    0.5304    1.7167    1.8059 C   0  0  0  0  0  0  0  0  0  0  0  0
    1.1925    1.3534    0.6189 C   0  0  0  0  0  0  0  0  0  0  0  0
    0.6414    0.3665   -0.2202 C   0  0  0  0  0  0  0  0  0  0  0  0
   -0.7179   -3.4884   -0.3397 H   0  0  0  0  0  0  0  0  0  0  0  0
   -2.7552   -5.7889   -1.6390 H   0  0  0  0  0  0  0  0  0  0  0  0
   -3.3606   -5.8581   -3.9843 H   0  0  0  0  0  0  0  0  0  0  0  0
   -2.9432   -3.9370   -5.4043 H   0  0  0  0  0  0  0  0  0  0  0  0
   -1.9666   -1.9474   -4.4973 H   0  0  0  0  0  0  0  0  0  0  0  0
   -2.0733   -0.3962    1.6081 H   0  0  0  0  0  0  0  0  0  0  0  0
   -1.1566    1.3447    3.0216 H   0  0  0  0  0  0  0  0  0  0  0  0
    0.9259    2.4391    2.4124 H   0  0  0  0  0  0  0  0  0  0  0  0
    2.0758    1.8010    0.3646 H   0  0  0  0  0  0  0  0  0  0  0  0
    1.1405    0.1086   -1.0740 H   0  0  0  0  0  0  0  0  0  0  0  0
  1  2  1  0  0  0  0 
  2  3  2  0  0  0  0 
  3  4  1  0  0  0  0 
  4  5  2  0  0  0  0 
  5  6  1  0  0  0  0 
  6  7  2  0  0  0  0 
  2  7  1  0  0  0  0 
  7  8  1  0  0  0  0 
  8  9  2  0  0  0  0 
  8 10  1  0  0  0  0 
 10 11  1  0  0  0  0 
 11 12  2  0  0  0  0 
 12 13  1  0  0  0  0 
 13 14  2  0  0  0  0 
 14 15  1  0  0  0  0 
 15 16  2  0  0  0  0 
 11 16  1  0  0  0  0 
  1 17  1  0  0  0  0 
  3 18  1  0  0  0  0 
  4 19  1  0  0  0  0 
  5 20  1  0  0  0  0 
  6 21  1  0  0  0  0 
 12 22  1  0  0  0  0 
 13 23  1  0  0  0  0 
 14 24  1  0  0  0  0 
 15 25  1  0  0  0  0 
 16 26  1  0  0  0  0 
M  END
> <cdk:Title>
phenyl salicylate

> <Conformer>
1

> <SuperDrugID>
SD002984

$$$$
