glycol salicylate
  CDK     0628171801

 23 23  0  0  0  0  0  0  0  0999 V2000
   -0.4241    0.4323   -0.5842 C   0  0  0  0  0  0  0  0  0  0  0  0
   -0.2565   -0.9130   -0.4096 O   0  0  0  0  0  0  0  0  0  0  0  0
   -1.5721    0.8475   -0.8764 O   0  0  0  0  0  0  0  0  0  0  0  0
    0.6657    1.3427   -0.4232 C   0  0  0  0  0  0  0  0  0  0  0  0
   -1.2456   -1.9407   -0.5508 C   0  0  1  0  0  0  0  0  0  0  0  0
    1.9997    0.9023   -0.1934 C   0  0  0  0  0  0  0  0  0  0  0  0
    0.4395    2.7424   -0.4824 C   0  0  0  0  0  0  0  0  0  0  0  0
   -0.5924   -3.3198   -0.3378 C   0  0  1  0  0  0  0  0  0  0  0  0
    2.3522   -0.4085   -0.1615 O   0  0  0  0  0  0  0  0  0  0  0  0
    3.0438    1.8289    0.0032 C   0  0  0  0  0  0  0  0  0  0  0  0
    1.4856    3.6668   -0.3027 C   0  0  0  0  0  0  0  0  0  0  0  0
    0.4709   -3.5050   -1.2658 O   0  0  0  0  0  0  0  0  0  0  0  0
    2.7881    3.2081   -0.0531 C   0  0  0  0  0  0  0  0  0  0  0  0
   -2.0376   -1.7953    0.1873 H   0  0  0  0  0  0  0  0  0  0  0  0
   -1.6813   -1.8973   -1.5520 H   0  0  0  0  0  0  0  0  0  0  0  0
   -0.4970    3.1142   -0.6565 H   0  0  0  0  0  0  0  0  0  0  0  0
   -0.1951   -3.3924    0.6761 H   0  0  0  0  0  0  0  0  0  0  0  0
   -1.3301   -4.1128   -0.4822 H   0  0  0  0  0  0  0  0  0  0  0  0
    1.8944   -0.8139   -0.9274 H   0  0  0  0  0  0  0  0  0  0  0  0
    3.9991    1.5032    0.1800 H   0  0  0  0  0  0  0  0  0  0  0  0
    1.2984    4.6711   -0.3506 H   0  0  0  0  0  0  0  0  0  0  0  0
    0.8829   -4.3586   -1.0148 H   0  0  0  0  0  0  0  0  0  0  0  0
    3.5503    3.8758    0.0820 H   0  0  0  0  0  0  0  0  0  0  0  0
  1  2  1  0  0  0  0 
  1  3  2  0  0  0  0 
  1  4  1  0  0  0  0 
  2  5  1  0  0  0  0 
  4  6  2  0  0  0  0 
  4  7  1  0  0  0  0 
  5  8  1  0  0  0  0 
  6  9  1  0  0  0  0 
  6 10  1  0  0  0  0 
  7 11  2  0  0  0  0 
  8 12  1  0  0  0  0 
 10 13  2  0  0  0  0 
 11 13  1  0  0  0  0 
  5 14  1  0  0  0  0 
  5 15  1  0  0  0  0 
  7 16  1  0  0  0  0 
  8 17  1  0  0  0  0 
  8 18  1  0  0  0  0 
  9 19  1  0  0  0  0 
 10 20  1  0  0  0  0 
 11 21  1  0  0  0  0 
 12 22  1  0  0  0  0 
 13 23  1  0  0  0  0 
M  END
> <cdk:Title>
glycol salicylate

> <Conformer>
1

> <SuperDrugID>
SD002824

$$$$
