isoprenaline
  CDK     0628171801

 32 32  0  0  0  0  0  0  0  0999 V2000
    3.0043    1.7138   -1.8251 C   0  0  0  0  0  0  0  0  0  0  0  0
    3.1594    1.7099   -0.2839 C   0  0  1  0  0  0  0  0  0  0  0  0
    4.4003    2.5351    0.1480 C   0  0  0  0  0  0  0  0  0  0  0  0
    1.8945    2.2498    0.2768 N   0  0  2  0  0  0  0  0  0  0  0  0
    1.6971    2.1556    1.7421 C   0  0  1  0  0  0  0  0  0  0  0  0
    0.3168    2.7419    2.1450 C   0  0  1  0  0  0  0  0  0  0  0  0
    0.1367    2.6248    3.5587 O   0  0  0  0  0  0  0  0  0  0  0  0
    0.1559    4.1607    1.6998 C   0  0  0  0  0  0  0  0  0  0  0  0
   -0.4869    4.4566    0.4720 C   0  0  0  0  0  0  0  0  0  0  0  0
   -0.6096    5.7841    0.0219 C   0  0  0  0  0  0  0  0  0  0  0  0
   -0.0885    6.8399    0.7895 C   0  0  0  0  0  0  0  0  0  0  0  0
   -0.1863    8.1111    0.3336 O   0  0  0  0  0  0  0  0  0  0  0  0
    0.5380    6.5676    2.0194 C   0  0  0  0  0  0  0  0  0  0  0  0
    1.0208    7.5849    2.7743 O   0  0  0  0  0  0  0  0  0  0  0  0
    0.6641    5.2378    2.4684 C   0  0  0  0  0  0  0  0  0  0  0  0
    2.1443    1.1089   -2.1176 H   0  0  0  0  0  0  0  0  0  0  0  0
    3.8929    1.2962   -2.3016 H   0  0  0  0  0  0  0  0  0  0  0  0
    2.8550    2.7321   -2.1908 H   0  0  0  0  0  0  0  0  0  0  0  0
    3.2911    0.6742    0.0422 H   0  0  0  0  0  0  0  0  0  0  0  0
    4.2381    3.5969   -0.0491 H   0  0  0  0  0  0  0  0  0  0  0  0
    5.2898    2.2097   -0.3982 H   0  0  0  0  0  0  0  0  0  0  0  0
    4.5968    2.4047    1.2138 H   0  0  0  0  0  0  0  0  0  0  0  0
    1.1311    1.7203   -0.1506 H   0  0  0  0  0  0  0  0  0  0  0  0
    1.7416    1.1057    2.0453 H   0  0  0  0  0  0  0  0  0  0  0  0
    2.4802    2.7000    2.2728 H   0  0  0  0  0  0  0  0  0  0  0  0
   -0.4609    2.1225    1.6899 H   0  0  0  0  0  0  0  0  0  0  0  0
    0.2377    1.6690    3.7557 H   0  0  0  0  0  0  0  0  0  0  0  0
   -0.8596    3.7048   -0.1138 H   0  0  0  0  0  0  0  0  0  0  0  0
   -1.0740    5.9782   -0.8683 H   0  0  0  0  0  0  0  0  0  0  0  0
   -1.0308    8.4482    0.6987 H   0  0  0  0  0  0  0  0  0  0  0  0
    0.3114    7.7759    3.4250 H   0  0  0  0  0  0  0  0  0  0  0  0
    1.1314    5.0589    3.3604 H   0  0  0  0  0  0  0  0  0  0  0  0
  1  2  1  0  0  0  0 
  2  3  1  0  0  0  0 
  2  4  1  0  0  0  0 
  4  5  1  0  0  0  0 
  6  5  1  0  0  0  0 
  6  7  1  0  0  0  0 
  6  8  1  0  0  0  0 
  8  9  2  0  0  0  0 
  9 10  1  0  0  0  0 
 10 11  2  0  0  0  0 
 11 12  1  0  0  0  0 
 11 13  1  0  0  0  0 
 13 14  1  0  0  0  0 
 13 15  2  0  0  0  0 
  8 15  1  0  0  0  0 
  1 16  1  0  0  0  0 
  1 17  1  0  0  0  0 
  1 18  1  0  0  0  0 
  2 19  1  0  0  0  0 
  3 20  1  0  0  0  0 
  3 21  1  0  0  0  0 
  3 22  1  0  0  0  0 
  4 23  1  0  0  0  0 
  5 24  1  0  0  0  0 
  5 25  1  0  0  0  0 
  6 26  1  0  0  0  0 
  7 27  1  0  0  0  0 
  9 28  1  0  0  0  0 
 10 29  1  0  0  0  0 
 12 30  1  0  0  0  0 
 14 31  1  0  0  0  0 
 15 32  1  0  0  0  0 
M  END
> <cdk:Title>
isoprenaline

> <Conformer>
1

> <SuperDrugID>
SD001329

$$$$
