piperidolate
  CDK     0628171801

 49 51  0  0  0  0  0  0  0  0999 V2000
    1.7987   -1.2055    0.3801 C   0  0  2  0  0  0  0  0  0  0  0  0
    1.8939   -1.8574   -0.9536 C   0  0  0  0  0  0  0  0  0  0  0  0
    1.9432   -2.2242    1.4748 C   0  0  0  0  0  0  0  0  0  0  0  0
    0.6296   -0.2877    0.6250 C   0  0  0  0  0  0  0  0  0  0  0  0
    3.0820   -1.7877   -1.6311 O   0  0  0  0  0  0  0  0  0  0  0  0
    0.9264   -2.4858   -1.4431 O   0  0  0  0  0  0  0  0  0  0  0  0
    1.0391   -3.3075    1.6322 C   0  0  0  0  0  0  0  0  0  0  0  0
    3.0169   -2.1279    2.3982 C   0  0  0  0  0  0  0  0  0  0  0  0
    0.8543    1.0248    1.1197 C   0  0  0  0  0  0  0  0  0  0  0  0
   -0.7181   -0.6905    0.4363 C   0  0  0  0  0  0  0  0  0  0  0  0
    3.4586   -2.4777   -2.8341 C   0  0  1  0  0  0  0  0  0  0  0  0
    1.1872   -4.2385    2.6767 C   0  0  0  0  0  0  0  0  0  0  0  0
    3.1705   -3.0590    3.4417 C   0  0  0  0  0  0  0  0  0  0  0  0
   -0.2135    1.8875    1.4274 C   0  0  0  0  0  0  0  0  0  0  0  0
   -1.7884    0.1719    0.7409 C   0  0  0  0  0  0  0  0  0  0  0  0
    3.5573   -1.4924   -4.0319 C   0  0  1  0  0  0  0  0  0  0  0  0
    4.8116   -3.1924   -2.5840 C   0  0  1  0  0  0  0  0  0  0  0  0
    2.2512   -4.1117    3.5853 C   0  0  0  0  0  0  0  0  0  0  0  0
   -1.5373    1.4606    1.2400 C   0  0  0  0  0  0  0  0  0  0  0  0
    4.0965   -2.1530   -5.2599 N   0  0  0  0  0  0  0  0  0  0  0  0
    5.3419   -3.8752   -3.8709 C   0  0  2  0  0  0  0  0  0  0  0  0
    3.1245   -2.6752   -6.2755 C   0  0  1  0  0  0  0  0  0  0  0  0
    5.3904   -2.8774   -5.0564 C   0  0  2  0  0  0  0  0  0  0  0  0
    2.1633   -3.7960   -5.8168 C   0  0  0  0  0  0  0  0  0  0  0  0
    2.6917   -0.5728    0.4108 H   0  0  0  0  0  0  0  0  0  0  0  0
    0.2635   -3.4387    0.9843 H   0  0  0  0  0  0  0  0  0  0  0  0
    3.7027   -1.3728    2.3186 H   0  0  0  0  0  0  0  0  0  0  0  0
    1.8058    1.3647    1.2788 H   0  0  0  0  0  0  0  0  0  0  0  0
   -0.9410   -1.6194    0.0794 H   0  0  0  0  0  0  0  0  0  0  0  0
    2.7206   -3.2464   -3.0654 H   0  0  0  0  0  0  0  0  0  0  0  0
    0.5204   -5.0066    2.7784 H   0  0  0  0  0  0  0  0  0  0  0  0
    3.9493   -2.9691    4.0986 H   0  0  0  0  0  0  0  0  0  0  0  0
   -0.0266    2.8231    1.7944 H   0  0  0  0  0  0  0  0  0  0  0  0
   -2.7517   -0.1401    0.6037 H   0  0  0  0  0  0  0  0  0  0  0  0
    2.5738   -1.0547   -4.2249 H   0  0  0  0  0  0  0  0  0  0  0  0
    4.2249   -0.6696   -3.7627 H   0  0  0  0  0  0  0  0  0  0  0  0
    5.5521   -2.4670   -2.2311 H   0  0  0  0  0  0  0  0  0  0  0  0
    4.6822   -3.9467   -1.8026 H   0  0  0  0  0  0  0  0  0  0  0  0
    2.3559   -4.7831    4.3503 H   0  0  0  0  0  0  0  0  0  0  0  0
   -2.3145    2.0864    1.4687 H   0  0  0  0  0  0  0  0  0  0  0  0
    4.7022   -4.7214   -4.1314 H   0  0  0  0  0  0  0  0  0  0  0  0
    6.3474   -4.2614   -3.6814 H   0  0  0  0  0  0  0  0  0  0  0  0
    2.5144   -1.8362   -6.6207 H   0  0  0  0  0  0  0  0  0  0  0  0
    3.6694   -3.0341   -7.1521 H   0  0  0  0  0  0  0  0  0  0  0  0
    6.1644   -2.1344   -4.8488 H   0  0  0  0  0  0  0  0  0  0  0  0
    5.7016   -3.4007   -5.9629 H   0  0  0  0  0  0  0  0  0  0  0  0
    1.5504   -4.1180   -6.6600 H   0  0  0  0  0  0  0  0  0  0  0  0
    2.7213   -4.6575   -5.4545 H   0  0  0  0  0  0  0  0  0  0  0  0
    1.4933   -3.4387   -5.0332 H   0  0  0  0  0  0  0  0  0  0  0  0
  1  2  1  0  0  0  0 
  1  3  1  0  0  0  0 
  1  4  1  0  0  0  0 
  2  5  1  0  0  0  0 
  2  6  2  0  0  0  0 
  3  7  2  0  0  0  0 
  3  8  1  0  0  0  0 
  4  9  2  0  0  0  0 
  4 10  1  0  0  0  0 
  5 11  1  0  0  0  0 
  7 12  1  0  0  0  0 
  8 13  2  0  0  0  0 
  9 14  1  0  0  0  0 
 10 15  2  0  0  0  0 
 11 16  1  0  0  0  0 
 11 17  1  0  0  0  0 
 12 18  2  0  0  0  0 
 13 18  1  0  0  0  0 
 14 19  2  0  0  0  0 
 15 19  1  0  0  0  0 
 16 20  1  0  0  0  0 
 17 21  1  0  0  0  0 
 20 22  1  0  0  0  0 
 20 23  1  0  0  0  0 
 21 23  1  0  0  0  0 
 22 24  1  0  0  0  0 
  1 25  1  0  0  0  0 
  7 26  1  0  0  0  0 
  8 27  1  0  0  0  0 
  9 28  1  0  0  0  0 
 10 29  1  0  0  0  0 
 11 30  1  0  0  0  0 
 12 31  1  0  0  0  0 
 13 32  1  0  0  0  0 
 14 33  1  0  0  0  0 
 15 34  1  0  0  0  0 
 16 35  1  0  0  0  0 
 16 36  1  0  0  0  0 
 17 37  1  0  0  0  0 
 17 38  1  0  0  0  0 
 18 39  1  0  0  0  0 
 19 40  1  0  0  0  0 
 21 41  1  0  0  0  0 
 21 42  1  0  0  0  0 
 22 43  1  0  0  0  0 
 22 44  1  0  0  0  0 
 23 45  1  0  0  0  0 
 23 46  1  0  0  0  0 
 24 47  1  0  0  0  0 
 24 48  1  0  0  0  0 
 24 49  1  0  0  0  0 
M  END
> <cdk:Title>
piperidolate

> <Conformer>
1

> <SuperDrugID>
SD001965

$$$$
