quinagolide
  CDK     0628171801

 60 62  0  0  0  0  0  0  0  0999 V2000
   -1.3052    3.1904   -6.0765 C   0  0  1  0  0  0  0  0  0  0  0  0
    0.1626    3.5615   -6.4322 C   0  0  2  0  0  0  0  0  0  0  0  0
   -1.4712    2.2930   -4.8734 N   0  0  1  0  0  0  0  0  0  0  0  0
    0.9643    4.1351   -5.2400 C   0  0  0  0  0  0  0  0  0  0  0  0
   -2.8607    2.3087   -4.2594 C   0  0  1  0  0  0  0  0  0  0  0  0
   -0.9502    0.9052   -5.1501 C   0  0  1  0  0  0  0  0  0  0  0  0
   -2.9245    1.3753   -3.0066 C   0  0  1  0  0  0  0  0  0  0  0  0
   -3.3463    3.7453   -3.8537 C   0  0  2  0  0  0  0  0  0  0  0  0
   -0.9960   -0.0457   -3.9243 C   0  0  2  0  0  0  0  0  0  0  0  0
   -4.3535    1.3406   -2.3900 C   0  0  1  0  0  0  0  0  0  0  0  0
   -2.4434   -0.0564   -3.3673 C   0  0  2  0  0  0  0  0  0  0  0  0
   -4.4311    3.8286   -2.8334 C   0  0  0  0  0  0  0  0  0  0  0  0
    0.0328    0.3834   -2.9408 N   0  0  1  0  0  0  0  0  0  0  0  0
   -4.9350    2.6880   -2.1479 C   0  0  0  0  0  0  0  0  0  0  0  0
   -4.9708    5.1032   -2.5427 C   0  0  0  0  0  0  0  0  0  0  0  0
    0.4294   -0.7943   -1.6870 S   0  0  2  0  0  0  0  0  0  0  0  0
   -6.0093    2.8458   -1.2321 C   0  0  0  0  0  0  0  0  0  0  0  0
   -6.0020    5.2512   -1.6018 C   0  0  0  0  0  0  0  0  0  0  0  0
    1.8033   -0.1967   -0.7304 N   0  0  2  0  0  0  0  0  0  0  0  0
    0.7636   -2.2183   -2.3390 O   0  0  0  0  0  0  0  0  0  0  0  0
   -0.8158   -0.9811   -0.6949 O   0  0  0  0  0  0  0  0  0  0  0  0
   -6.5866    1.7986   -0.5879 O   0  0  0  0  0  0  0  0  0  0  0  0
   -6.5244    4.1243   -0.9533 C   0  0  0  0  0  0  0  0  0  0  0  0
    1.4411    1.0684   -0.0093 C   0  0  1  0  0  0  0  0  0  0  0  0
    3.0839   -0.1234   -1.5064 C   0  0  2  0  0  0  0  0  0  0  0  0
    2.2558    1.2783    1.2869 C   0  0  0  0  0  0  0  0  0  0  0  0
    3.7211   -1.5054   -1.7849 C   0  0  0  0  0  0  0  0  0  0  0  0
   -1.8051    4.1479   -5.9201 H   0  0  0  0  0  0  0  0  0  0  0  0
   -1.7757    2.7303   -6.9530 H   0  0  0  0  0  0  0  0  0  0  0  0
    0.1446    4.3130   -7.2292 H   0  0  0  0  0  0  0  0  0  0  0  0
    0.6903    2.6911   -6.8301 H   0  0  0  0  0  0  0  0  0  0  0  0
    1.9589    4.4330   -5.5790 H   0  0  0  0  0  0  0  0  0  0  0  0
    1.0769    3.3837   -4.4556 H   0  0  0  0  0  0  0  0  0  0  0  0
    0.4609    5.0096   -4.8214 H   0  0  0  0  0  0  0  0  0  0  0  0
   -3.5650    1.9212   -5.0067 H   0  0  0  0  0  0  0  0  0  0  0  0
   -1.5251    0.4524   -5.9665 H   0  0  0  0  0  0  0  0  0  0  0  0
    0.0928    0.9441   -5.4738 H   0  0  0  0  0  0  0  0  0  0  0  0
   -2.2427    1.7740   -2.2451 H   0  0  0  0  0  0  0  0  0  0  0  0
   -3.7958    4.2032   -4.7935 H   0  0  0  0  0  0  0  0  0  0  0  0
   -2.4562    4.2768   -3.3902 H   0  0  0  0  0  0  0  0  0  0  0  0
   -0.7450   -1.0516   -4.2793 H   0  0  0  0  0  0  0  0  0  0  0  0
   -5.0319    0.7868   -3.0441 H   0  0  0  0  0  0  0  0  0  0  0  0
   -4.2805    0.7985   -1.4427 H   0  0  0  0  0  0  0  0  0  0  0  0
   -3.1102   -0.4858   -4.1197 H   0  0  0  0  0  0  0  0  0  0  0  0
   -2.5061   -0.7050   -2.4973 H   0  0  0  0  0  0  0  0  0  0  0  0
    0.8950    0.5189   -3.4702 H   0  0  0  0  0  0  0  0  0  0  0  0
   -4.6159    5.9358   -3.0179 H   0  0  0  0  0  0  0  0  0  0  0  0
   -6.3748    6.1802   -1.3917 H   0  0  0  0  0  0  0  0  0  0  0  0
   -5.8438    1.2623   -0.2436 H   0  0  0  0  0  0  0  0  0  0  0  0
   -7.2809    4.2420   -0.2760 H   0  0  0  0  0  0  0  0  0  0  0  0
    1.5630    1.9370   -0.6628 H   0  0  0  0  0  0  0  0  0  0  0  0
    0.3946    1.0493    0.3065 H   0  0  0  0  0  0  0  0  0  0  0  0
    3.8235    0.4440   -0.9391 H   0  0  0  0  0  0  0  0  0  0  0  0
    2.9340    0.4042   -2.4518 H   0  0  0  0  0  0  0  0  0  0  0  0
    2.2242    0.3772    1.9021 H   0  0  0  0  0  0  0  0  0  0  0  0
    3.2949    1.5201    1.0639 H   0  0  0  0  0  0  0  0  0  0  0  0
    1.8310    2.1036    1.8624 H   0  0  0  0  0  0  0  0  0  0  0  0
    4.7924   -1.3933   -1.9665 H   0  0  0  0  0  0  0  0  0  0  0  0
    3.2767   -1.9603   -2.6709 H   0  0  0  0  0  0  0  0  0  0  0  0
    3.5831   -2.1720   -0.9309 H   0  0  0  0  0  0  0  0  0  0  0  0
  1  2  1  0  0  0  0 
  1  3  1  0  0  0  0 
  2  4  1  0  0  0  0 
  5  3  1  0  0  0  0 
  3  6  1  0  0  0  0 
  5  7  1  0  0  0  0 
  5  8  1  0  0  0  0 
  9  6  1  0  0  0  0 
  7 10  1  0  0  0  0 
  7 11  1  0  0  0  0 
  8 12  1  0  0  0  0 
  9 11  1  0  0  0  0 
  9 13  1  0  0  0  0 
 10 14  1  0  0  0  0 
 12 14  2  0  0  0  0 
 12 15  1  0  0  0  0 
 13 16  1  0  0  0  0 
 14 17  1  0  0  0  0 
 15 18  2  0  0  0  0 
 16 19  1  0  0  0  0 
 16 20  2  0  0  0  0 
 16 21  2  0  0  0  0 
 17 22  1  0  0  0  0 
 17 23  2  0  0  0  0 
 18 23  1  0  0  0  0 
 19 24  1  0  0  0  0 
 19 25  1  0  0  0  0 
 24 26  1  0  0  0  0 
 25 27  1  0  0  0  0 
 28  1  1  0  0  0  0 
 29  1  1  0  0  0  0 
 30  2  1  0  0  0  0 
 31  2  1  0  0  0  0 
 32  4  1  0  0  0  0 
 33  4  1  0  0  0  0 
 34  4  1  0  0  0  0 
  5 35  1  0  0  0  0 
 36  6  1  0  0  0  0 
 37  6  1  0  0  0  0 
  7 38  1  0  0  0  0 
 39  8  1  0  0  0  0 
 40  8  1  0  0  0  0 
  9 41  1  0  0  0  0 
 42 10  1  0  0  0  0 
 43 10  1  0  0  0  0 
 44 11  1  0  0  0  0 
 45 11  1  0  0  0  0 
 46 13  1  0  0  0  0 
 47 15  1  0  0  0  0 
 48 18  1  0  0  0  0 
 49 22  1  0  0  0  0 
 50 23  1  0  0  0  0 
 51 24  1  0  0  0  0 
 52 24  1  0  0  0  0 
 53 25  1  0  0  0  0 
 54 25  1  0  0  0  0 
 55 26  1  0  0  0  0 
 56 26  1  0  0  0  0 
 57 26  1  0  0  0  0 
 58 27  1  0  0  0  0 
 59 27  1  0  0  0  0 
 60 27  1  0  0  0  0 
M  END
> <cdk:Title>
quinagolide

> <Conformer>
1

> <SuperDrugID>
SD002103

$$$$
