acetrizoic acid
  CDK     0628171802

 22 22  0  0  0  0  0  0  0  0999 V2000
    0.2905    0.3300    1.3501 N   0  0  0  0  0  0  0  0  0  0  0  0
    0.3374    0.1507    0.0004 C   0  0  0  0  0  0  0  0  0  0  0  0
    0.8545   -0.5124    2.2563 C   0  0  0  0  0  0  0  0  0  0  0  0
   -0.3887    1.0925   -0.8644 C   0  0  0  0  0  0  0  0  0  0  0  0
    0.9494   -0.8152   -0.5176 O   0  0  0  0  0  0  0  0  0  0  0  0
    0.0129   -1.3404    3.0362 C   0  0  0  0  0  0  0  0  0  0  0  0
    2.2561   -0.6041    2.3936 C   0  0  0  0  0  0  0  0  0  0  0  0
   -2.0288   -1.1824    2.7602 I   0  0  0  0  0  0  0  0  0  0  0  0
    0.5725   -2.3016    3.9212 C   0  0  0  0  0  0  0  0  0  0  0  0
    3.5391    0.6269    1.3612 I   0  0  0  0  0  0  0  0  0  0  0  0
    2.8107   -1.5577    3.2596 C   0  0  0  0  0  0  0  0  0  0  0  0
   -0.2639   -3.1636    4.6662 C   0  0  0  0  0  0  0  0  0  0  0  0
    1.9848   -2.4021    4.0211 C   0  0  0  0  0  0  0  0  0  0  0  0
   -1.2942   -2.6868    5.4044 O   0  0  0  0  0  0  0  0  0  0  0  0
   -0.0903   -4.4028    4.6491 O   0  0  0  0  0  0  0  0  0  0  0  0
    2.9398   -3.7233    5.2789 I   0  0  0  0  0  0  0  0  0  0  0  0
   -0.2435    1.0674    1.6889 H   0  0  0  0  0  0  0  0  0  0  0  0
   -0.3171    0.7929   -1.9114 H   0  0  0  0  0  0  0  0  0  0  0  0
   -1.4419    1.1069   -0.5786 H   0  0  0  0  0  0  0  0  0  0  0  0
    0.0249    2.0964   -0.7573 H   0  0  0  0  0  0  0  0  0  0  0  0
    3.8257   -1.6351    3.3376 H   0  0  0  0  0  0  0  0  0  0  0  0
   -1.8875   -3.2980    5.8910 H   0  0  0  0  0  0  0  0  0  0  0  0
  1  2  1  0  0  0  0 
  1  3  1  0  0  0  0 
  2  4  1  0  0  0  0 
  2  5  2  0  0  0  0 
  3  6  2  0  0  0  0 
  3  7  1  0  0  0  0 
  6  8  1  0  0  0  0 
  6  9  1  0  0  0  0 
  7 10  1  0  0  0  0 
  7 11  2  0  0  0  0 
  9 12  1  0  0  0  0 
  9 13  2  0  0  0  0 
 11 13  1  0  0  0  0 
 12 14  1  0  0  0  0 
 12 15  2  0  0  0  0 
 13 16  1  0  0  0  0 
  1 17  1  0  0  0  0 
  4 18  1  0  0  0  0 
  4 19  1  0  0  0  0 
  4 20  1  0  0  0  0 
 11 21  1  0  0  0  0 
 14 22  1  0  0  0  0 
M  END
> <cdk:Title>
acetrizoic acid

> <Conformer>
1

> <SuperDrugID>
SD000040

$$$$
