alfentanil
  CDK     0628171801

 62 64  0  0  0  0  0  0  0  0999 V2000
   -1.2948   -5.2255    7.1748 N   0  0  0  0  0  0  0  0  0  0  0  0
   -1.0317   -5.7892    8.4402 C   0  0  0  0  0  0  0  0  0  0  0  0
   -2.5940   -4.5804    6.8090 C   0  0  1  0  0  0  0  0  0  0  0  0
   -0.2800   -5.3241    6.2445 C   0  0  0  0  0  0  0  0  0  0  0  0
    0.1861   -6.5590    8.8482 C   0  0  2  0  0  0  0  0  0  0  0  0
   -1.8518   -5.6833    9.3830 O   0  0  0  0  0  0  0  0  0  0  0  0
   -3.7399   -5.6499    6.9942 C   0  0  1  0  0  0  0  0  0  0  0  0
   -2.9217   -3.3421    7.7347 C   0  0  2  0  0  0  0  0  0  0  0  0
   -2.7151   -4.0548    5.3084 C   0  0  1  0  0  0  0  0  0  0  0  0
   -0.2743   -6.3460    5.2647 C   0  0  0  0  0  0  0  0  0  0  0  0
    0.8104   -4.4236    6.2901 C   0  0  0  0  0  0  0  0  0  0  0  0
   -0.1372   -7.9815    9.3672 C   0  0  0  0  0  0  0  0  0  0  0  0
   -3.4572   -6.8415    6.2330 O   0  0  0  0  0  0  0  0  0  0  0  0
   -2.1533   -2.0492    7.3579 C   0  0  1  0  0  0  0  0  0  0  0  0
   -2.0193   -2.6920    5.0082 C   0  0  1  0  0  0  0  0  0  0  0  0
    0.7675   -6.4300    4.3216 C   0  0  0  0  0  0  0  0  0  0  0  0
    1.8483   -4.5000    5.3435 C   0  0  0  0  0  0  0  0  0  0  0  0
   -4.2837   -7.9706    6.5565 C   0  0  0  0  0  0  0  0  0  0  0  0
   -2.4402   -1.6103    5.9548 N   0  0  1  0  0  0  0  0  0  0  0  0
    1.8223   -5.4996    4.3556 C   0  0  0  0  0  0  0  0  0  0  0  0
   -3.8186   -1.0653    5.6711 C   0  0  1  0  0  0  0  0  0  0  0  0
   -4.2231    0.2101    6.4632 C   0  0  1  0  0  0  0  0  0  0  0  0
   -5.5762    0.6128    6.2079 N   0  0  0  0  0  0  0  0  0  0  0  0
   -6.7040   -0.0164    6.5828 C   0  0  0  0  0  0  0  0  0  0  0  0
   -5.9273    1.6992    5.5982 N   0  0  0  0  0  0  0  0  0  0  0  0
   -6.7798   -1.1040    7.2021 O   0  0  0  0  0  0  0  0  0  0  0  0
   -7.7305    0.7487    6.1766 N   0  0  0  0  0  0  0  0  0  0  0  0
   -7.2207    1.7844    5.5887 N   0  0  0  0  0  0  0  0  0  0  0  0
   -9.1341    0.4934    6.3155 C   0  0  2  0  0  0  0  0  0  0  0  0
   -9.6050    0.4551    7.7865 C   0  0  0  0  0  0  0  0  0  0  0  0
    0.6996   -6.0078    9.6390 H   0  0  0  0  0  0  0  0  0  0  0  0
    0.8974   -6.6720    8.0334 H   0  0  0  0  0  0  0  0  0  0  0  0
   -3.8632   -5.8943    8.0503 H   0  0  0  0  0  0  0  0  0  0  0  0
   -4.7048   -5.2492    6.6657 H   0  0  0  0  0  0  0  0  0  0  0  0
   -2.7172   -3.5485    8.7814 H   0  0  0  0  0  0  0  0  0  0  0  0
   -3.9890   -3.1159    7.6851 H   0  0  0  0  0  0  0  0  0  0  0  0
   -2.3507   -4.7983    4.5986 H   0  0  0  0  0  0  0  0  0  0  0  0
   -3.7661   -3.9126    5.0481 H   0  0  0  0  0  0  0  0  0  0  0  0
   -1.0295   -7.0323    5.2306 H   0  0  0  0  0  0  0  0  0  0  0  0
    0.8484   -3.7051    7.0160 H   0  0  0  0  0  0  0  0  0  0  0  0
    0.7882   -8.5339    9.5396 H   0  0  0  0  0  0  0  0  0  0  0  0
   -0.6857   -7.9316   10.3096 H   0  0  0  0  0  0  0  0  0  0  0  0
   -0.7353   -8.5313    8.6389 H   0  0  0  0  0  0  0  0  0  0  0  0
   -2.3943   -1.2628    8.0718 H   0  0  0  0  0  0  0  0  0  0  0  0
   -1.0805   -2.2266    7.4692 H   0  0  0  0  0  0  0  0  0  0  0  0
   -0.9364   -2.8012    5.0645 H   0  0  0  0  0  0  0  0  0  0  0  0
   -2.2303   -2.4006    3.9746 H   0  0  0  0  0  0  0  0  0  0  0  0
    0.7576   -7.1677    3.6087 H   0  0  0  0  0  0  0  0  0  0  0  0
    2.6192   -3.8299    5.3736 H   0  0  0  0  0  0  0  0  0  0  0  0
   -5.3474   -7.7299    6.4896 H   0  0  0  0  0  0  0  0  0  0  0  0
   -4.0697   -8.7643    5.8428 H   0  0  0  0  0  0  0  0  0  0  0  0
   -4.0470   -8.3381    7.5573 H   0  0  0  0  0  0  0  0  0  0  0  0
    2.5705   -5.5529    3.6627 H   0  0  0  0  0  0  0  0  0  0  0  0
   -3.8769   -0.8004    4.6110 H   0  0  0  0  0  0  0  0  0  0  0  0
   -4.5721   -1.8344    5.8422 H   0  0  0  0  0  0  0  0  0  0  0  0
   -4.1362    0.0453    7.5375 H   0  0  0  0  0  0  0  0  0  0  0  0
   -3.5343    1.0172    6.1967 H   0  0  0  0  0  0  0  0  0  0  0  0
   -9.3713   -0.4574    5.8330 H   0  0  0  0  0  0  0  0  0  0  0  0
   -9.7014    1.2740    5.8009 H   0  0  0  0  0  0  0  0  0  0  0  0
  -10.6829    0.2850    7.8242 H   0  0  0  0  0  0  0  0  0  0  0  0
   -9.1107   -0.3517    8.3301 H   0  0  0  0  0  0  0  0  0  0  0  0
   -9.3819    1.4038    8.2783 H   0  0  0  0  0  0  0  0  0  0  0  0
  1  2  1  0  0  0  0 
  1  3  1  0  0  0  0 
  1  4  1  0  0  0  0 
  2  5  1  0  0  0  0 
  2  6  2  0  0  0  0 
  3  7  1  0  0  0  0 
  3  8  1  0  0  0  0 
  3  9  1  0  0  0  0 
  4 10  2  0  0  0  0 
  4 11  1  0  0  0  0 
  5 12  1  0  0  0  0 
  7 13  1  0  0  0  0 
  8 14  1  0  0  0  0 
  9 15  1  0  0  0  0 
 10 16  1  0  0  0  0 
 11 17  2  0  0  0  0 
 13 18  1  0  0  0  0 
 14 19  1  0  0  0  0 
 15 19  1  0  0  0  0 
 16 20  2  0  0  0  0 
 17 20  1  0  0  0  0 
 19 21  1  0  0  0  0 
 21 22  1  0  0  0  0 
 22 23  1  0  0  0  0 
 23 24  1  0  0  0  0 
 23 25  1  0  0  0  0 
 24 26  2  0  0  0  0 
 24 27  1  0  0  0  0 
 25 28  2  0  0  0  0 
 27 28  1  0  0  0  0 
 27 29  1  0  0  0  0 
 29 30  1  0  0  0  0 
  5 31  1  0  0  0  0 
  5 32  1  0  0  0  0 
  7 33  1  0  0  0  0 
  7 34  1  0  0  0  0 
  8 35  1  0  0  0  0 
  8 36  1  0  0  0  0 
  9 37  1  0  0  0  0 
  9 38  1  0  0  0  0 
 10 39  1  0  0  0  0 
 11 40  1  0  0  0  0 
 12 41  1  0  0  0  0 
 12 42  1  0  0  0  0 
 12 43  1  0  0  0  0 
 14 44  1  0  0  0  0 
 14 45  1  0  0  0  0 
 15 46  1  0  0  0  0 
 15 47  1  0  0  0  0 
 16 48  1  0  0  0  0 
 17 49  1  0  0  0  0 
 18 50  1  0  0  0  0 
 18 51  1  0  0  0  0 
 18 52  1  0  0  0  0 
 20 53  1  0  0  0  0 
 21 54  1  0  0  0  0 
 21 55  1  0  0  0  0 
 22 56  1  0  0  0  0 
 22 57  1  0  0  0  0 
 29 58  1  0  0  0  0 
 29 59  1  0  0  0  0 
 30 60  1  0  0  0  0 
 30 61  1  0  0  0  0 
 30 62  1  0  0  0  0 
M  END
> <cdk:Title>
alfentanil

> <Conformer>
1

> <SuperDrugID>
SD000086

$$$$
