alogliptin
  CDK     0628171801

 46 48  0  0  0  0  0  0  0  0999 V2000
    0.7429    1.2490    3.2209 C   0  0  2  0  0  0  0  0  0  0  0  0
   -0.5542    1.8084    2.8471 N   0  0  0  0  0  0  0  0  0  0  0  0
    1.1127   -0.0344    2.5421 C   0  0  0  0  0  0  0  0  0  0  0  0
   -0.7859    2.2377    1.5567 C   0  0  0  0  0  0  0  0  0  0  0  0
   -1.5676    1.9353    3.7790 C   0  0  0  0  0  0  0  0  0  0  0  0
    0.2941   -1.2024    2.5788 C   0  0  0  0  0  0  0  0  0  0  0  0
    2.3569   -0.1067    1.8656 C   0  0  0  0  0  0  0  0  0  0  0  0
   -2.0258    2.8086    1.2122 C   0  0  0  0  0  0  0  0  0  0  0  0
    0.1331    2.1565    0.5364 N   0  0  0  0  0  0  0  0  0  0  0  0
   -1.3753    1.5644    4.9651 O   0  0  0  0  0  0  0  0  0  0  0  0
   -2.8046    2.4517    3.4585 N   0  0  0  0  0  0  0  0  0  0  0  0
   -0.8603   -1.2389    3.1908 C   0  0  0  0  0  0  0  0  0  0  0  0
    0.7280   -2.3900    1.9432 C   0  0  0  0  0  0  0  0  0  0  0  0
    2.7754   -1.2874    1.2299 C   0  0  0  0  0  0  0  0  0  0  0  0
   -3.0261    2.9090    2.1860 C   0  0  0  0  0  0  0  0  0  0  0  0
    0.0139    1.1349   -0.4793 C   0  0  2  0  0  0  0  0  0  0  0  0
    1.1672    3.1502    0.3806 C   0  0  1  0  0  0  0  0  0  0  0  0
   -3.8541    2.4911    4.4599 C   0  0  0  0  0  0  0  0  0  0  0  0
   -1.8766   -1.2888    3.7241 N   0  0  0  0  0  0  0  0  0  0  0  0
    1.9603   -2.4284    1.2700 C   0  0  0  0  0  0  0  0  0  0  0  0
   -4.1093    3.4275    1.8218 O   0  0  0  0  0  0  0  0  0  0  0  0
   -0.2112    1.7915   -1.8673 C   0  0  2  0  0  0  0  0  0  0  0  0
    1.0053    3.8808   -0.9782 C   0  0  1  0  0  0  0  0  0  0  0  0
   -0.1985    0.7681   -2.9207 N   0  0  1  0  0  0  0  0  0  0  0  0
    0.8548    2.8840   -2.1603 C   0  0  1  0  0  0  0  0  0  0  0  0
    0.8234    1.0351    4.2889 H   0  0  0  0  0  0  0  0  0  0  0  0
    1.4892    2.0270    3.0460 H   0  0  0  0  0  0  0  0  0  0  0  0
    2.9780    0.7062    1.8301 H   0  0  0  0  0  0  0  0  0  0  0  0
   -2.1995    3.1455    0.2588 H   0  0  0  0  0  0  0  0  0  0  0  0
    0.1616   -3.2459    1.9621 H   0  0  0  0  0  0  0  0  0  0  0  0
    3.6764   -1.3162    0.7440 H   0  0  0  0  0  0  0  0  0  0  0  0
   -0.8149    0.4473   -0.2726 H   0  0  0  0  0  0  0  0  0  0  0  0
    0.9300    0.5380   -0.5043 H   0  0  0  0  0  0  0  0  0  0  0  0
    1.1452    3.8981    1.1801 H   0  0  0  0  0  0  0  0  0  0  0  0
    2.1449    2.6629    0.4158 H   0  0  0  0  0  0  0  0  0  0  0  0
   -4.1057    1.4731    4.7622 H   0  0  0  0  0  0  0  0  0  0  0  0
   -3.5150    3.0409    5.3405 H   0  0  0  0  0  0  0  0  0  0  0  0
   -4.7756    2.9664    4.1206 H   0  0  0  0  0  0  0  0  0  0  0  0
    2.2689   -3.2894    0.8120 H   0  0  0  0  0  0  0  0  0  0  0  0
   -1.2008    2.2552   -1.8819 H   0  0  0  0  0  0  0  0  0  0  0  0
    0.1223    4.5247   -0.9351 H   0  0  0  0  0  0  0  0  0  0  0  0
    1.8759    4.5177   -1.1522 H   0  0  0  0  0  0  0  0  0  0  0  0
    0.7281    0.3355   -2.9120 H   0  0  0  0  0  0  0  0  0  0  0  0
   -0.8671    0.0466   -2.6420 H   0  0  0  0  0  0  0  0  0  0  0  0
    1.8228    2.4114   -2.3504 H   0  0  0  0  0  0  0  0  0  0  0  0
    0.5696    3.4348   -3.0619 H   0  0  0  0  0  0  0  0  0  0  0  0
  1  2  1  0  0  0  0 
  1  3  1  0  0  0  0 
  2  4  1  0  0  0  0 
  2  5  1  0  0  0  0 
  3  6  2  0  0  0  0 
  3  7  1  0  0  0  0 
  4  8  2  0  0  0  0 
  4  9  1  0  0  0  0 
  5 10  2  0  0  0  0 
  5 11  1  0  0  0  0 
  6 12  1  0  0  0  0 
  6 13  1  0  0  0  0 
  7 14  2  0  0  0  0 
  8 15  1  0  0  0  0 
  9 16  1  0  0  0  0 
  9 17  1  0  0  0  0 
 11 15  1  0  0  0  0 
 11 18  1  0  0  0  0 
 12 19  3  0  0  0  0 
 13 20  2  0  0  0  0 
 14 20  1  0  0  0  0 
 15 21  2  0  0  0  0 
 22 16  1  0  0  0  0 
 17 23  1  0  0  0  0 
 22 24  1  0  0  0  0 
 22 25  1  0  0  0  0 
 23 25  1  0  0  0  0 
  1 26  1  0  0  0  0 
  1 27  1  0  0  0  0 
  7 28  1  0  0  0  0 
  8 29  1  0  0  0  0 
 13 30  1  0  0  0  0 
 14 31  1  0  0  0  0 
 16 32  1  0  0  0  0 
 16 33  1  0  0  0  0 
 17 34  1  0  0  0  0 
 17 35  1  0  0  0  0 
 18 36  1  0  0  0  0 
 18 37  1  0  0  0  0 
 18 38  1  0  0  0  0 
 20 39  1  0  0  0  0 
 22 40  1  0  0  0  0 
 23 41  1  0  0  0  0 
 23 42  1  0  0  0  0 
 24 43  1  0  0  0  0 
 24 44  1  0  0  0  0 
 25 45  1  0  0  0  0 
 25 46  1  0  0  0  0 
M  END
> <cdk:Title>
alogliptin

> <Conformer>
1

> <SuperDrugID>
SD003510

$$$$
