furazolidone
  CDK     0628171801

 23 24  0  0  0  0  0  0  0  0999 V2000
    1.2151    1.3249    0.8058 C   0  0  0  0  0  0  0  0  0  0  0  0
    0.6270    0.2845    0.3419 N   0  0  0  0  0  0  0  0  0  0  0  0
    2.0442    1.2171    1.8964 C   0  0  0  0  0  0  0  0  0  0  0  0
   -0.1640    0.2658   -0.6548 N   0  0  0  0  0  0  0  0  0  0  0  0
    2.3461    0.0615    2.5426 O   0  0  0  0  0  0  0  0  0  0  0  0
    2.7042    2.2635    2.5335 C   0  0  0  0  0  0  0  0  0  0  0  0
   -1.4961    0.4438   -0.5814 C   0  0  0  0  0  0  0  0  0  0  0  0
    0.2538    0.0129   -1.9873 C   0  0  1  0  0  0  0  0  0  0  0  0
    3.1757    0.3377    3.5818 C   0  0  0  0  0  0  0  0  0  0  0  0
    3.4140    1.7126    3.5884 C   0  0  0  0  0  0  0  0  0  0  0  0
   -2.1478    0.6791    0.4603 O   0  0  0  0  0  0  0  0  0  0  0  0
   -2.0610    0.3271   -1.7983 O   0  0  0  0  0  0  0  0  0  0  0  0
   -1.0735    0.0244   -2.7797 C   0  0  1  0  0  0  0  0  0  0  0  0
    3.6535   -0.5594    4.4324 N   0  0  0  0  0  0  0  0  0  0  0  0
    4.3929   -0.2313    5.4110 O   0  0  0  0  0  0  0  0  0  0  0  0
    3.3948   -1.6909    4.3125 O   0  0  0  0  0  0  0  0  0  0  0  0
    1.0688    2.2148    0.3847 H   0  0  0  0  0  0  0  0  0  0  0  0
    2.6741    3.2536    2.2783 H   0  0  0  0  0  0  0  0  0  0  0  0
    0.9318    0.7974   -2.3357 H   0  0  0  0  0  0  0  0  0  0  0  0
    0.7463   -0.9602   -2.0590 H   0  0  0  0  0  0  0  0  0  0  0  0
    4.0013    2.2231    4.2506 H   0  0  0  0  0  0  0  0  0  0  0  0
   -1.0666    0.7887   -3.5595 H   0  0  0  0  0  0  0  0  0  0  0  0
   -1.2826   -0.9529   -3.2213 H   0  0  0  0  0  0  0  0  0  0  0  0
  1  2  2  0  0  0  0 
  1  3  1  0  0  0  0 
  2  4  1  0  0  0  0 
  3  5  1  0  0  0  0 
  3  6  2  0  0  0  0 
  4  7  1  0  0  0  0 
  4  8  1  0  0  0  0 
  5  9  1  0  0  0  0 
  6 10  1  0  0  0  0 
  7 11  2  0  0  0  0 
  7 12  1  0  0  0  0 
  8 13  1  0  0  0  0 
  9 10  2  0  0  0  0 
  9 14  1  0  0  0  0 
 12 13  1  0  0  0  0 
 14 15  1  0  0  0  0 
 14 16  2  0  0  0  0 
  1 17  1  0  0  0  0 
  6 18  1  0  0  0  0 
  8 19  1  0  0  0  0 
  8 20  1  0  0  0  0 
 10 21  1  0  0  0  0 
 13 22  1  0  0  0  0 
 13 23  1  0  0  0  0 
M  CHG  1  14   1
M  CHG  1  15  -1
M  END
> <cdk:Title>
furazolidone

> <Conformer>
1

> <SuperDrugID>
SD001127

$$$$
