acrivastine
  CDK     0628171802

 50 52  0  0  0  0  0  0  0  0999 V2000
   -3.9480    8.3038   -3.5375 C   0  0  0  0  0  0  0  0  0  0  0  0
   -2.8738    9.1238   -3.6627 C   0  0  0  0  0  0  0  0  0  0  0  0
   -3.9098    7.0132   -2.9419 C   0  0  0  0  0  0  0  0  0  0  0  0
   -5.1818    8.7392   -4.0245 C   0  0  0  0  0  0  0  0  0  0  0  0
   -2.8538   10.4912   -4.1848 C   0  0  2  0  0  0  0  0  0  0  0  0
   -5.0258    6.2194   -2.9959 N   0  0  0  0  0  0  0  0  0  0  0  0
   -2.7961    6.4612   -2.2553 C   0  0  0  0  0  0  0  0  0  0  0  0
   -6.1035    9.3979   -3.1819 C   0  0  0  0  0  0  0  0  0  0  0  0
   -5.5369    8.4913   -5.3695 C   0  0  0  0  0  0  0  0  0  0  0  0
   -3.1812   11.4984   -3.1303 N   0  0  1  0  0  0  0  0  0  0  0  0
   -5.1672    4.9730   -2.4613 C   0  0  0  0  0  0  0  0  0  0  0  0
   -2.8720    5.1798   -1.6825 C   0  0  0  0  0  0  0  0  0  0  0  0
   -7.3676    9.7759   -3.6698 C   0  0  0  0  0  0  0  0  0  0  0  0
   -6.7936    8.8844   -5.8614 C   0  0  0  0  0  0  0  0  0  0  0  0
   -2.2245   11.6104   -2.0035 C   0  0  1  0  0  0  0  0  0  0  0  0
   -3.4014   12.8842   -3.6168 C   0  0  1  0  0  0  0  0  0  0  0  0
   -6.3592    4.2551   -2.5638 C   0  0  0  0  0  0  0  0  0  0  0  0
   -4.0547    4.4318   -1.7813 C   0  0  0  0  0  0  0  0  0  0  0  0
   -7.7263    9.5211   -5.0137 C   0  0  0  0  0  0  0  0  0  0  0  0
   -2.6378   12.9030   -1.2875 C   0  0  1  0  0  0  0  0  0  0  0  0
   -3.1310   13.8205   -2.4184 C   0  0  1  0  0  0  0  0  0  0  0  0
   -7.4921    4.7060   -3.1342 C   0  0  0  0  0  0  0  0  0  0  0  0
   -9.0514    9.9065   -5.5476 C   0  0  0  0  0  0  0  0  0  0  0  0
   -8.6705    3.9802   -3.2129 C   0  0  0  0  0  0  0  0  0  0  0  0
   -9.7428    4.5109   -3.8472 O   0  0  0  0  0  0  0  0  0  0  0  0
   -8.8062    2.8383   -2.7139 O   0  0  0  0  0  0  0  0  0  0  0  0
   -1.9903    8.8026   -3.3568 H   0  0  0  0  0  0  0  0  0  0  0  0
   -3.5545   10.5921   -5.0169 H   0  0  0  0  0  0  0  0  0  0  0  0
   -1.8621   10.7040   -4.5967 H   0  0  0  0  0  0  0  0  0  0  0  0
   -1.9187    6.9690   -2.1504 H   0  0  0  0  0  0  0  0  0  0  0  0
   -5.8625    9.6014   -2.2083 H   0  0  0  0  0  0  0  0  0  0  0  0
   -4.8827    8.0203   -5.9996 H   0  0  0  0  0  0  0  0  0  0  0  0
   -2.0637    4.7912   -1.1886 H   0  0  0  0  0  0  0  0  0  0  0  0
   -8.0224   10.2367   -3.0328 H   0  0  0  0  0  0  0  0  0  0  0  0
   -7.0236    8.7018   -6.8424 H   0  0  0  0  0  0  0  0  0  0  0  0
   -2.3052   10.7550   -1.3281 H   0  0  0  0  0  0  0  0  0  0  0  0
   -1.1923   11.6959   -2.3577 H   0  0  0  0  0  0  0  0  0  0  0  0
   -2.7277   13.1349   -4.4437 H   0  0  0  0  0  0  0  0  0  0  0  0
   -4.4326   12.9922   -3.9612 H   0  0  0  0  0  0  0  0  0  0  0  0
   -6.3716    3.3358   -2.1804 H   0  0  0  0  0  0  0  0  0  0  0  0
   -4.0929    3.5022   -1.3537 H   0  0  0  0  0  0  0  0  0  0  0  0
   -3.4524   12.6962   -0.5875 H   0  0  0  0  0  0  0  0  0  0  0  0
   -1.7998   13.3434   -0.7406 H   0  0  0  0  0  0  0  0  0  0  0  0
   -2.3656   14.5581   -2.6772 H   0  0  0  0  0  0  0  0  0  0  0  0
   -4.0388   14.3475   -2.1117 H   0  0  0  0  0  0  0  0  0  0  0  0
   -7.5026    5.6184   -3.5282 H   0  0  0  0  0  0  0  0  0  0  0  0
   -8.9289   10.5864   -6.3930 H   0  0  0  0  0  0  0  0  0  0  0  0
   -9.5879    9.0172   -5.8856 H   0  0  0  0  0  0  0  0  0  0  0  0
   -9.6636   10.4084   -4.7967 H   0  0  0  0  0  0  0  0  0  0  0  0
  -10.5822    4.0092   -3.9101 H   0  0  0  0  0  0  0  0  0  0  0  0
  1  2  2  0  0  0  0 
  1  3  1  0  0  0  0 
  1  4  1  0  0  0  0 
  2  5  1  0  0  0  0 
  3  6  2  0  0  0  0 
  3  7  1  0  0  0  0 
  4  8  2  0  0  0  0 
  4  9  1  0  0  0  0 
  5 10  1  0  0  0  0 
  6 11  1  0  0  0  0 
  7 12  2  0  0  0  0 
  8 13  1  0  0  0  0 
  9 14  2  0  0  0  0 
 10 15  1  0  0  0  0 
 10 16  1  0  0  0  0 
 11 17  1  0  0  0  0 
 11 18  2  0  0  0  0 
 12 18  1  0  0  0  0 
 13 19  2  0  0  0  0 
 14 19  1  0  0  0  0 
 15 20  1  0  0  0  0 
 16 21  1  0  0  0  0 
 17 22  2  0  0  0  0 
 19 23  1  0  0  0  0 
 20 21  1  0  0  0  0 
 22 24  1  0  0  0  0 
 24 25  1  0  0  0  0 
 24 26  2  0  0  0  0 
  2 27  1  0  0  0  0 
  5 28  1  0  0  0  0 
  5 29  1  0  0  0  0 
  7 30  1  0  0  0  0 
  8 31  1  0  0  0  0 
  9 32  1  0  0  0  0 
 12 33  1  0  0  0  0 
 13 34  1  0  0  0  0 
 14 35  1  0  0  0  0 
 15 36  1  0  0  0  0 
 15 37  1  0  0  0  0 
 16 38  1  0  0  0  0 
 16 39  1  0  0  0  0 
 17 40  1  0  0  0  0 
 18 41  1  0  0  0  0 
 20 42  1  0  0  0  0 
 20 43  1  0  0  0  0 
 21 44  1  0  0  0  0 
 21 45  1  0  0  0  0 
 22 46  1  0  0  0  0 
 23 47  1  0  0  0  0 
 23 48  1  0  0  0  0 
 23 49  1  0  0  0  0 
 25 50  1  0  0  0  0 
M  END
> <cdk:Title>
acrivastine

> <Conformer>
1

> <SuperDrugID>
SD000057

$$$$
