acetylsalicylic acid
  CDK     0628171802

 21 21  0  0  0  0  0  0  0  0999 V2000
    0.1671   -3.2721   -3.0019 C   0  0  0  0  0  0  0  0  0  0  0  0
   -1.0161   -2.6617   -2.3864 C   0  0  0  0  0  0  0  0  0  0  0  0
   -2.0931   -3.3020   -2.4022 O   0  0  0  0  0  0  0  0  0  0  0  0
   -0.8721   -1.4544   -1.7610 O   0  0  0  0  0  0  0  0  0  0  0  0
   -1.7585   -0.5982   -1.1572 C   0  0  0  0  0  0  0  0  0  0  0  0
   -3.1408   -0.6319   -1.4587 C   0  0  0  0  0  0  0  0  0  0  0  0
   -4.0393    0.2353   -0.8188 C   0  0  0  0  0  0  0  0  0  0  0  0
   -3.5609    1.1723    0.1078 C   0  0  0  0  0  0  0  0  0  0  0  0
   -2.1857    1.2390    0.3946 C   0  0  0  0  0  0  0  0  0  0  0  0
   -1.2600    0.3579   -0.2223 C   0  0  0  0  0  0  0  0  0  0  0  0
    0.1223    0.4444    0.1244 C   0  0  0  0  0  0  0  0  0  0  0  0
    0.6236    1.5110    0.7961 O   0  0  0  0  0  0  0  0  0  0  0  0
    0.9478   -0.4557   -0.1539 O   0  0  0  0  0  0  0  0  0  0  0  0
    0.4192   -4.1935   -2.4746 H   0  0  0  0  0  0  0  0  0  0  0  0
   -0.0463   -3.4980   -4.0469 H   0  0  0  0  0  0  0  0  0  0  0  0
    1.0238   -2.5969   -2.9550 H   0  0  0  0  0  0  0  0  0  0  0  0
   -3.5085   -1.2759   -2.1593 H   0  0  0  0  0  0  0  0  0  0  0  0
   -5.0381    0.1911   -1.0361 H   0  0  0  0  0  0  0  0  0  0  0  0
   -4.2124    1.8107    0.5691 H   0  0  0  0  0  0  0  0  0  0  0  0
   -1.8756    1.9410    1.0731 H   0  0  0  0  0  0  0  0  0  0  0  0
    1.5771    1.5482    1.0208 H   0  0  0  0  0  0  0  0  0  0  0  0
  1  2  1  0  0  0  0 
  2  3  2  0  0  0  0 
  2  4  1  0  0  0  0 
  4  5  1  0  0  0  0 
  5  6  2  0  0  0  0 
  6  7  1  0  0  0  0 
  7  8  2  0  0  0  0 
  8  9  1  0  0  0  0 
  9 10  2  0  0  0  0 
  5 10  1  0  0  0  0 
 10 11  1  0  0  0  0 
 11 12  1  0  0  0  0 
 11 13  2  0  0  0  0 
  1 14  1  0  0  0  0 
  1 15  1  0  0  0  0 
  1 16  1  0  0  0  0 
  6 17  1  0  0  0  0 
  7 18  1  0  0  0  0 
  8 19  1  0  0  0  0 
  9 20  1  0  0  0  0 
 12 21  1  0  0  0  0 
M  END
> <cdk:Title>
acetylsalicylic acid

> <Conformer>
1

> <SuperDrugID>
SD000051

$$$$
