formocortal
  CDK     0628171801

 77 81  0  0  0  0  0  0  0  0999 V2000
   -8.3433    3.0352    7.8446 C   0  0  0  0  0  0  0  0  0  0  0  0
   -8.6454    4.4853    7.7758 C   0  0  1  0  0  0  0  0  0  0  0  0
   -8.2504    2.5446    8.9946 O   0  0  0  0  0  0  0  0  0  0  0  0
   -8.1154    2.1251    6.6651 C   0  0  2  0  0  0  0  0  0  0  0  0
  -10.0171    4.7322    8.1135 O   0  0  0  0  0  0  0  0  0  0  0  0
   -6.6017    1.9691    6.2141 C   0  0  2  0  0  0  0  0  0  0  0  0
   -8.8907    2.4301    5.3463 C   0  0  1  0  0  0  0  0  0  0  0  0
   -8.6811    0.8528    7.0320 O   0  0  0  0  0  0  0  0  0  0  0  0
  -10.9593    5.3693    7.3537 C   0  0  0  0  0  0  0  0  0  0  0  0
   -5.9105    3.3932    6.2261 C   0  0  0  0  0  0  0  0  0  0  0  0
   -6.7521    1.3446    4.7847 C   0  0  1  0  0  0  0  0  0  0  0  0
   -5.7373    0.9518    7.0471 C   0  0  1  0  0  0  0  0  0  0  0  0
   -7.9061    2.2055    4.1671 C   0  0  1  0  0  0  0  0  0  0  0  0
   -9.9862    1.5147    5.2531 O   0  0  0  0  0  0  0  0  0  0  0  0
   -9.9937    0.7522    6.4605 C   0  0  2  0  0  0  0  0  0  0  0  0
  -12.3032    5.5875    7.9043 C   0  0  0  0  0  0  0  0  0  0  0  0
  -10.7039    5.7863    6.1998 O   0  0  0  0  0  0  0  0  0  0  0  0
   -5.3091    1.1950    4.0577 C   0  0  1  0  0  0  0  0  0  0  0  0
   -4.3292    0.6500    6.4239 C   0  0  1  0  0  0  0  0  0  0  0  0
  -11.1043    1.2723    7.4182 C   0  0  0  0  0  0  0  0  0  0  0  0
  -10.2378   -0.7333    6.1034 C   0  0  0  0  0  0  0  0  0  0  0  0
   -4.3597    0.2675    4.8822 C   0  0  1  0  0  0  0  0  0  0  0  0
   -5.5440    0.5610    2.5856 C   0  0  1  0  0  0  0  0  0  0  0  0
   -3.4812    1.7497    6.7393 O   0  0  0  0  0  0  0  0  0  0  0  0
   -4.9824   -0.9735    4.8804 F   0  0  0  0  0  0  0  0  0  0  0  0
   -2.9649    0.1373    4.1013 C   0  0  2  0  0  0  0  0  0  0  0  0
   -4.3109    0.0605    1.9401 C   0  0  0  0  0  0  0  0  0  0  0  0
   -2.0480    1.4077    4.3327 C   0  0  0  0  0  0  0  0  0  0  0  0
   -3.1196   -0.0612    2.6111 C   0  0  0  0  0  0  0  0  0  0  0  0
   -2.1942   -1.1425    4.6289 C   0  0  1  0  0  0  0  0  0  0  0  0
   -4.4722   -0.3377    0.5884 C   0  0  0  0  0  0  0  0  0  0  0  0
   -1.9463   -0.3779    1.9283 C   0  0  0  0  0  0  0  0  0  0  0  0
   -0.8623   -1.4201    3.8761 C   0  0  1  0  0  0  0  0  0  0  0  0
   -5.4993   -0.1077   -0.0928 O   0  0  0  0  0  0  0  0  0  0  0  0
   -0.8837   -0.9991    2.4808 C   0  0  0  0  0  0  0  0  0  0  0  0
    0.2137   -1.2142    1.7313 O   0  0  0  0  0  0  0  0  0  0  0  0
    1.1952   -0.1541    1.8127 C   0  0  2  0  0  0  0  0  0  0  0  0
    2.3665   -0.4762    0.8650 C   0  0  2  0  0  0  0  0  0  0  0  0
    3.5982    0.7817    0.9196 Cl  0  0  0  0  0  0  0  0  0  0  0  0
   -8.0242    5.0096    8.5040 H   0  0  0  0  0  0  0  0  0  0  0  0
   -8.3967    4.9035    6.8024 H   0  0  0  0  0  0  0  0  0  0  0  0
   -9.2957    3.4394    5.2928 H   0  0  0  0  0  0  0  0  0  0  0  0
   -4.9372    3.4135    5.7481 H   0  0  0  0  0  0  0  0  0  0  0  0
   -5.7611    3.7313    7.2545 H   0  0  0  0  0  0  0  0  0  0  0  0
   -6.5108    4.1410    5.7093 H   0  0  0  0  0  0  0  0  0  0  0  0
   -7.2636    0.3425    4.9216 H   0  0  0  0  0  0  0  0  0  0  0  0
   -5.6129    1.3298    8.0658 H   0  0  0  0  0  0  0  0  0  0  0  0
   -6.2667   -0.0007    7.1400 H   0  0  0  0  0  0  0  0  0  0  0  0
   -8.3852    1.6855    3.3330 H   0  0  0  0  0  0  0  0  0  0  0  0
   -7.5184    3.1579    3.7952 H   0  0  0  0  0  0  0  0  0  0  0  0
  -13.0543    5.1421    7.2480 H   0  0  0  0  0  0  0  0  0  0  0  0
  -12.3850    5.1412    8.8960 H   0  0  0  0  0  0  0  0  0  0  0  0
  -12.4951    6.6568    7.9948 H   0  0  0  0  0  0  0  0  0  0  0  0
   -4.8728    2.1797    3.9031 H   0  0  0  0  0  0  0  0  0  0  0  0
   -3.9063   -0.1905    6.9817 H   0  0  0  0  0  0  0  0  0  0  0  0
  -11.0111    0.8069    8.4018 H   0  0  0  0  0  0  0  0  0  0  0  0
  -11.0335    2.3511    7.5409 H   0  0  0  0  0  0  0  0  0  0  0  0
  -12.0945    1.0509    7.0148 H   0  0  0  0  0  0  0  0  0  0  0  0
  -11.1883   -0.8492    5.5790 H   0  0  0  0  0  0  0  0  0  0  0  0
  -10.2600   -1.3451    7.0068 H   0  0  0  0  0  0  0  0  0  0  0  0
   -9.4365   -1.0982    5.4591 H   0  0  0  0  0  0  0  0  0  0  0  0
   -6.2502   -0.3167    2.5657 H   0  0  0  0  0  0  0  0  0  0  0  0
   -6.0171    1.2951    1.8699 H   0  0  0  0  0  0  0  0  0  0  0  0
   -3.4949    1.8259    7.7154 H   0  0  0  0  0  0  0  0  0  0  0  0
   -2.6120    2.3345    4.2374 H   0  0  0  0  0  0  0  0  0  0  0  0
   -1.5840    1.3838    5.3186 H   0  0  0  0  0  0  0  0  0  0  0  0
   -1.2154    1.4796    3.6316 H   0  0  0  0  0  0  0  0  0  0  0  0
   -1.9792   -1.0568    5.6968 H   0  0  0  0  0  0  0  0  0  0  0  0
   -2.8169   -2.0331    4.5022 H   0  0  0  0  0  0  0  0  0  0  0  0
   -3.7586   -0.8778    0.0989 H   0  0  0  0  0  0  0  0  0  0  0  0
   -1.8397   -0.0904    0.9820 H   0  0  0  0  0  0  0  0  0  0  0  0
   -0.0610   -0.8821    4.3870 H   0  0  0  0  0  0  0  0  0  0  0  0
   -0.6286   -2.4876    3.9277 H   0  0  0  0  0  0  0  0  0  0  0  0
    1.5867   -0.0598    2.8307 H   0  0  0  0  0  0  0  0  0  0  0  0
    0.7563    0.8032    1.5125 H   0  0  0  0  0  0  0  0  0  0  0  0
    2.0019   -0.5541   -0.1601 H   0  0  0  0  0  0  0  0  0  0  0  0
    2.8221   -1.4269    1.1478 H   0  0  0  0  0  0  0  0  0  0  0  0
  1  2  1  0  0  0  0 
  1  3  2  0  0  0  0 
  2  5  1  0  0  0  0 
  4  1  1  0  0  0  0 
  6  4  1  0  0  0  0 
  4  7  1  0  0  0  0 
  4  8  1  0  0  0  0 
  5  9  1  0  0  0  0 
  6 10  1  0  0  0  0 
 11  6  1  0  0  0  0 
  6 12  1  0  0  0  0 
  7 13  1  0  0  0  0 
  7 14  1  0  0  0  0 
  8 15  1  0  0  0  0 
  9 16  1  0  0  0  0 
  9 17  2  0  0  0  0 
 11 13  1  0  0  0  0 
 18 11  1  0  0  0  0 
 19 12  1  0  0  0  0 
 14 15  1  0  0  0  0 
 15 20  1  0  0  0  0 
 15 21  1  0  0  0  0 
 22 18  1  0  0  0  0 
 18 23  1  0  0  0  0 
 22 19  1  0  0  0  0 
 19 24  1  0  0  0  0 
 22 25  1  0  0  0  0 
 22 26  1  0  0  0  0 
 23 27  1  0  0  0  0 
 26 28  1  0  0  0  0 
 26 29  1  0  0  0  0 
 26 30  1  0  0  0  0 
 27 29  2  0  0  0  0 
 27 31  1  0  0  0  0 
 29 32  1  0  0  0  0 
 30 33  1  0  0  0  0 
 31 34  2  0  0  0  0 
 32 35  2  0  0  0  0 
 33 35  1  0  0  0  0 
 35 36  1  0  0  0  0 
 36 37  1  0  0  0  0 
 37 38  1  0  0  0  0 
 38 39  1  0  0  0  0 
 40  2  1  0  0  0  0 
 41  2  1  0  0  0  0 
  7 42  1  0  0  0  0 
 43 10  1  0  0  0  0 
 44 10  1  0  0  0  0 
 45 10  1  0  0  0  0 
 11 46  1  0  0  0  0 
 47 12  1  0  0  0  0 
 48 12  1  0  0  0  0 
 49 13  1  0  0  0  0 
 50 13  1  0  0  0  0 
 51 16  1  0  0  0  0 
 52 16  1  0  0  0  0 
 53 16  1  0  0  0  0 
 18 54  1  0  0  0  0 
 19 55  1  0  0  0  0 
 56 20  1  0  0  0  0 
 57 20  1  0  0  0  0 
 58 20  1  0  0  0  0 
 59 21  1  0  0  0  0 
 60 21  1  0  0  0  0 
 61 21  1  0  0  0  0 
 62 23  1  0  0  0  0 
 63 23  1  0  0  0  0 
 64 24  1  0  0  0  0 
 65 28  1  0  0  0  0 
 66 28  1  0  0  0  0 
 67 28  1  0  0  0  0 
 68 30  1  0  0  0  0 
 69 30  1  0  0  0  0 
 70 31  1  0  0  0  0 
 71 32  1  0  0  0  0 
 72 33  1  0  0  0  0 
 73 33  1  0  0  0  0 
 74 37  1  0  0  0  0 
 75 37  1  0  0  0  0 
 76 38  1  0  0  0  0 
 77 38  1  0  0  0  0 
M  END
> <cdk:Title>
formocortal

> <Conformer>
1

> <SuperDrugID>
SD002807

$$$$
