rimonabant
  CDK     0628171801

 51 54  0  0  0  0  0  0  0  0999 V2000
   -1.5924    6.1479   -2.5769 C   0  0  0  0  0  0  0  0  0  0  0  0
   -2.7009    5.3597   -1.9949 C   0  0  0  0  0  0  0  0  0  0  0  0
   -4.0737    5.5756   -2.1520 C   0  0  0  0  0  0  0  0  0  0  0  0
   -4.7136    4.6177   -1.4444 N   0  0  0  0  0  0  0  0  0  0  0  0
   -3.8450    3.8303   -0.8956 N   0  0  0  0  0  0  0  0  0  0  0  0
   -2.5928    4.2135   -1.2006 C   0  0  0  0  0  0  0  0  0  0  0  0
   -1.4237    3.5163   -0.7996 C   0  0  0  0  0  0  0  0  0  0  0  0
   -0.2918    3.9360   -1.1294 O   0  0  0  0  0  0  0  0  0  0  0  0
   -1.4165    2.3595   -0.0867 N   0  0  0  0  0  0  0  0  0  0  0  0
   -2.5221    1.7547    0.4238 N   0  0  2  0  0  0  0  0  0  0  0  0
   -2.3819    1.5379    1.8896 C   0  0  2  0  0  0  0  0  0  0  0  0
   -3.6671    0.9224    2.4978 C   0  0  1  0  0  0  0  0  0  0  0  0
   -4.1547   -0.3154    1.7000 C   0  0  1  0  0  0  0  0  0  0  0  0
   -4.2532   -0.0221    0.1823 C   0  0  2  0  0  0  0  0  0  0  0  0
   -2.9257    0.5575   -0.3636 C   0  0  2  0  0  0  0  0  0  0  0  0
   -6.0612    4.4573   -1.2805 C   0  0  0  0  0  0  0  0  0  0  0  0
   -6.7690    5.3822   -0.4801 C   0  0  0  0  0  0  0  0  0  0  0  0
   -8.1533    5.2441   -0.2760 C   0  0  0  0  0  0  0  0  0  0  0  0
   -8.8526    4.1849   -0.8823 C   0  0  0  0  0  0  0  0  0  0  0  0
  -10.5209    4.0222   -0.6455 Cl  0  0  0  0  0  0  0  0  0  0  0  0
   -8.1602    3.2635   -1.6904 C   0  0  0  0  0  0  0  0  0  0  0  0
   -6.7702    3.3926   -1.8912 C   0  0  0  0  0  0  0  0  0  0  0  0
   -5.9915    2.2629   -2.8889 Cl  0  0  0  0  0  0  0  0  0  0  0  0
   -4.6809    6.5688   -2.9563 C   0  0  0  0  0  0  0  0  0  0  0  0
   -4.4946    7.9445   -2.6942 C   0  0  0  0  0  0  0  0  0  0  0  0
   -5.0802    8.9129   -3.5304 C   0  0  0  0  0  0  0  0  0  0  0  0
   -5.8576    8.5158   -4.6359 C   0  0  0  0  0  0  0  0  0  0  0  0
   -6.5514    9.6766   -5.6530 Cl  0  0  0  0  0  0  0  0  0  0  0  0
   -6.0518    7.1463   -4.8985 C   0  0  0  0  0  0  0  0  0  0  0  0
   -5.4692    6.1789   -4.0616 C   0  0  0  0  0  0  0  0  0  0  0  0
   -1.0203    6.6127   -1.7729 H   0  0  0  0  0  0  0  0  0  0  0  0
   -1.9545    6.9314   -3.2393 H   0  0  0  0  0  0  0  0  0  0  0  0
   -0.9367    5.4990   -3.1572 H   0  0  0  0  0  0  0  0  0  0  0  0
   -0.5576    1.9355    0.0742 H   0  0  0  0  0  0  0  0  0  0  0  0
   -2.1969    2.4972    2.3829 H   0  0  0  0  0  0  0  0  0  0  0  0
   -1.5315    0.8773    2.0911 H   0  0  0  0  0  0  0  0  0  0  0  0
   -3.4725    0.6319    3.5334 H   0  0  0  0  0  0  0  0  0  0  0  0
   -4.4577    1.6784    2.5044 H   0  0  0  0  0  0  0  0  0  0  0  0
   -3.4633   -1.1473    1.8579 H   0  0  0  0  0  0  0  0  0  0  0  0
   -5.1333   -0.6211    2.0759 H   0  0  0  0  0  0  0  0  0  0  0  0
   -5.0562    0.6965    0.0043 H   0  0  0  0  0  0  0  0  0  0  0  0
   -4.5018   -0.9393   -0.3541 H   0  0  0  0  0  0  0  0  0  0  0  0
   -2.1419   -0.2052   -0.3283 H   0  0  0  0  0  0  0  0  0  0  0  0
   -3.0857    0.8334   -1.4105 H   0  0  0  0  0  0  0  0  0  0  0  0
   -6.2769    6.1616   -0.0367 H   0  0  0  0  0  0  0  0  0  0  0  0
   -8.6450    5.9178    0.3152 H   0  0  0  0  0  0  0  0  0  0  0  0
   -8.6725    2.4980   -2.1347 H   0  0  0  0  0  0  0  0  0  0  0  0
   -3.9303    8.2504   -1.8974 H   0  0  0  0  0  0  0  0  0  0  0  0
   -4.9350    9.9048   -3.3295 H   0  0  0  0  0  0  0  0  0  0  0  0
   -6.6136    6.8445   -5.6982 H   0  0  0  0  0  0  0  0  0  0  0  0
   -5.6129    5.1886   -4.2758 H   0  0  0  0  0  0  0  0  0  0  0  0
  1  2  1  0  0  0  0 
  2  3  2  0  0  0  0 
  3  4  1  0  0  0  0 
  4  5  1  0  0  0  0 
  5  6  2  0  0  0  0 
  2  6  1  0  0  0  0 
  6  7  1  0  0  0  0 
  7  8  2  0  0  0  0 
  7  9  1  0  0  0  0 
  9 10  1  0  0  0  0 
 10 11  1  0  0  0  0 
 11 12  1  0  0  0  0 
 12 13  1  0  0  0  0 
 13 14  1  0  0  0  0 
 14 15  1  0  0  0  0 
 10 15  1  0  0  0  0 
  4 16  1  0  0  0  0 
 16 17  2  0  0  0  0 
 17 18  1  0  0  0  0 
 18 19  2  0  0  0  0 
 19 20  1  0  0  0  0 
 19 21  1  0  0  0  0 
 21 22  2  0  0  0  0 
 16 22  1  0  0  0  0 
 22 23  1  0  0  0  0 
  3 24  1  0  0  0  0 
 24 25  2  0  0  0  0 
 25 26  1  0  0  0  0 
 26 27  2  0  0  0  0 
 27 28  1  0  0  0  0 
 27 29  1  0  0  0  0 
 29 30  2  0  0  0  0 
 24 30  1  0  0  0  0 
  1 31  1  0  0  0  0 
  1 32  1  0  0  0  0 
  1 33  1  0  0  0  0 
  9 34  1  0  0  0  0 
 11 35  1  0  0  0  0 
 11 36  1  0  0  0  0 
 12 37  1  0  0  0  0 
 12 38  1  0  0  0  0 
 13 39  1  0  0  0  0 
 13 40  1  0  0  0  0 
 14 41  1  0  0  0  0 
 14 42  1  0  0  0  0 
 15 43  1  0  0  0  0 
 15 44  1  0  0  0  0 
 17 45  1  0  0  0  0 
 18 46  1  0  0  0  0 
 21 47  1  0  0  0  0 
 25 48  1  0  0  0  0 
 26 49  1  0  0  0  0 
 29 50  1  0  0  0  0 
 30 51  1  0  0  0  0 
M  END
> <cdk:Title>
rimonabant

> <Conformer>
1

> <SuperDrugID>
SD003385

$$$$
