lonidamine
  CDK     0628171801

 31 33  0  0  0  0  0  0  0  0999 V2000
   -0.2825   -0.0206    0.1102 C   0  0  1  0  0  0  0  0  0  0  0  0
   -0.3234    1.4121    0.0469 N   0  0  0  0  0  0  0  0  0  0  0  0
    0.8617   -0.5068    0.9383 C   0  0  0  0  0  0  0  0  0  0  0  0
   -0.6199    2.2671    1.0482 C   0  0  0  0  0  0  0  0  0  0  0  0
   -0.0667    2.0982   -1.0298 N   0  0  0  0  0  0  0  0  0  0  0  0
    2.2170   -0.3331    0.5442 C   0  0  0  0  0  0  0  0  0  0  0  0
    0.6015   -1.1596    2.1671 C   0  0  0  0  0  0  0  0  0  0  0  0
   -0.5040    3.5613    0.5499 C   0  0  0  0  0  0  0  0  0  0  0  0
   -1.0032    2.0399    2.3838 C   0  0  0  0  0  0  0  0  0  0  0  0
   -0.1510    3.4213   -0.7906 C   0  0  0  0  0  0  0  0  0  0  0  0
    2.6648    0.4144   -0.9125 Cl  0  0  0  0  0  0  0  0  0  0  0  0
    3.2633   -0.7922    1.3708 C   0  0  0  0  0  0  0  0  0  0  0  0
    1.6470   -1.6020    2.9945 C   0  0  0  0  0  0  0  0  0  0  0  0
   -0.7449    4.6808    1.3709 C   0  0  0  0  0  0  0  0  0  0  0  0
   -1.2568    3.1501    3.2143 C   0  0  0  0  0  0  0  0  0  0  0  0
    0.0813    4.4086   -1.7631 C   0  0  0  0  0  0  0  0  0  0  0  0
    2.9835   -1.4212    2.5979 C   0  0  0  0  0  0  0  0  0  0  0  0
   -1.1204    4.4631    2.7126 C   0  0  0  0  0  0  0  0  0  0  0  0
    0.3916    4.0517   -3.0317 O   0  0  0  0  0  0  0  0  0  0  0  0
    0.0086    5.6284   -1.4960 O   0  0  0  0  0  0  0  0  0  0  0  0
    4.2455   -1.9592    3.5911 Cl  0  0  0  0  0  0  0  0  0  0  0  0
   -1.2440   -0.3710    0.4960 H   0  0  0  0  0  0  0  0  0  0  0  0
   -0.1888   -0.4469   -0.8916 H   0  0  0  0  0  0  0  0  0  0  0  0
   -0.3601   -1.3148    2.4807 H   0  0  0  0  0  0  0  0  0  0  0  0
   -1.1068    1.0937    2.7507 H   0  0  0  0  0  0  0  0  0  0  0  0
    4.2364   -0.6709    1.0815 H   0  0  0  0  0  0  0  0  0  0  0  0
    1.4282   -2.0525    3.8853 H   0  0  0  0  0  0  0  0  0  0  0  0
   -0.6559    5.6327    1.0104 H   0  0  0  0  0  0  0  0  0  0  0  0
   -1.5452    3.0027    4.1841 H   0  0  0  0  0  0  0  0  0  0  0  0
   -1.2996    5.2623    3.3255 H   0  0  0  0  0  0  0  0  0  0  0  0
    0.5438    4.7396   -3.7140 H   0  0  0  0  0  0  0  0  0  0  0  0
  1  2  1  0  0  0  0 
  1  3  1  0  0  0  0 
  2  4  1  0  0  0  0 
  2  5  1  0  0  0  0 
  3  6  2  0  0  0  0 
  3  7  1  0  0  0  0 
  4  8  1  0  0  0  0 
  4  9  2  0  0  0  0 
  5 10  2  0  0  0  0 
  6 11  1  0  0  0  0 
  6 12  1  0  0  0  0 
  7 13  2  0  0  0  0 
  8 10  1  0  0  0  0 
  8 14  2  0  0  0  0 
  9 15  1  0  0  0  0 
 10 16  1  0  0  0  0 
 12 17  2  0  0  0  0 
 13 17  1  0  0  0  0 
 14 18  1  0  0  0  0 
 15 18  2  0  0  0  0 
 16 19  1  0  0  0  0 
 16 20  2  0  0  0  0 
 17 21  1  0  0  0  0 
  1 22  1  0  0  0  0 
  1 23  1  0  0  0  0 
  7 24  1  0  0  0  0 
  9 25  1  0  0  0  0 
 12 26  1  0  0  0  0 
 13 27  1  0  0  0  0 
 14 28  1  0  0  0  0 
 15 29  1  0  0  0  0 
 18 30  1  0  0  0  0 
 19 31  1  0  0  0  0 
M  END
> <cdk:Title>
lonidamine

> <Conformer>
1

> <SuperDrugID>
SD001412

$$$$
