carbromal
  CDK     0628171802

 25 24  0  0  0  0  0  0  0  0999 V2000
    1.8093   -0.7074   -1.3330 C   0  0  1  0  0  0  0  0  0  0  0  0
    3.2572   -0.9782   -1.6098 C   0  0  0  0  0  0  0  0  0  0  0  0
    1.6368   -0.0904    0.0992 C   0  0  1  0  0  0  0  0  0  0  0  0
    1.1372    0.1422   -2.4752 C   0  0  1  0  0  0  0  0  0  0  0  0
    0.9330   -2.4389   -1.3164 Br  0  0  0  0  0  0  0  0  0  0  0  0
    3.9575   -1.8174   -0.7876 N   0  0  0  0  0  0  0  0  0  0  0  0
    3.8326   -0.4152   -2.5735 O   0  0  0  0  0  0  0  0  0  0  0  0
    2.3032    1.2899    0.3382 C   0  0  0  0  0  0  0  0  0  0  0  0
   -0.3579    0.5104   -2.3081 C   0  0  0  0  0  0  0  0  0  0  0  0
    5.2838   -2.1076   -0.8434 C   0  0  0  0  0  0  0  0  0  0  0  0
    5.7991   -2.9268    0.0824 N   0  0  0  0  0  0  0  0  0  0  0  0
    6.0640   -1.6365   -1.7019 O   0  0  0  0  0  0  0  0  0  0  0  0
    0.5722   -0.0033    0.3300 H   0  0  0  0  0  0  0  0  0  0  0  0
    2.0456   -0.7845    0.8397 H   0  0  0  0  0  0  0  0  0  0  0  0
    1.6960    1.0729   -2.6173 H   0  0  0  0  0  0  0  0  0  0  0  0
    1.2210   -0.4204   -3.4102 H   0  0  0  0  0  0  0  0  0  0  0  0
    3.4568   -2.2413   -0.0726 H   0  0  0  0  0  0  0  0  0  0  0  0
    3.3767    1.2444    0.1445 H   0  0  0  0  0  0  0  0  0  0  0  0
    1.8583    2.0504   -0.3041 H   0  0  0  0  0  0  0  0  0  0  0  0
    2.1607    1.5940    1.3780 H   0  0  0  0  0  0  0  0  0  0  0  0
   -0.7185    0.9787   -3.2261 H   0  0  0  0  0  0  0  0  0  0  0  0
   -0.4993    1.2171   -1.4896 H   0  0  0  0  0  0  0  0  0  0  0  0
   -0.9622   -0.3773   -2.1218 H   0  0  0  0  0  0  0  0  0  0  0  0
    6.7472   -3.1305    0.0773 H   0  0  0  0  0  0  0  0  0  0  0  0
    5.2248   -3.3092    0.7630 H   0  0  0  0  0  0  0  0  0  0  0  0
  1  2  1  0  0  0  0 
  1  3  1  0  0  0  0 
  1  4  1  0  0  0  0 
  1  5  1  0  0  0  0 
  2  6  1  0  0  0  0 
  2  7  2  0  0  0  0 
  3  8  1  0  0  0  0 
  4  9  1  0  0  0  0 
  6 10  1  0  0  0  0 
 10 11  1  0  0  0  0 
 10 12  2  0  0  0  0 
  3 13  1  0  0  0  0 
  3 14  1  0  0  0  0 
  4 15  1  0  0  0  0 
  4 16  1  0  0  0  0 
  6 17  1  0  0  0  0 
  8 18  1  0  0  0  0 
  8 19  1  0  0  0  0 
  8 20  1  0  0  0  0 
  9 21  1  0  0  0  0 
  9 22  1  0  0  0  0 
  9 23  1  0  0  0  0 
 11 24  1  0  0  0  0 
 11 25  1  0  0  0  0 
M  END
> <cdk:Title>
carbromal

> <Conformer>
1

> <SuperDrugID>
SD000434

$$$$
