hydrocortisone valerate
  CDK     0628171801

 70 73  0  0  0  0  0  0  0  0999 V2000
    1.1527    1.6431    1.1856 O   0  0  0  0  0  0  0  0  0  0  0  0
    2.2330    1.1968    0.4691 C   0  0  0  0  0  0  0  0  0  0  0  0
   -0.2884    1.5462    1.0723 C   0  0  1  0  0  0  0  0  0  0  0  0
    3.5721    1.3848    1.0709 C   0  0  2  0  0  0  0  0  0  0  0  0
    2.1230    0.5988   -0.6256 O   0  0  0  0  0  0  0  0  0  0  0  0
   -0.6505    1.5558    2.5368 C   0  0  0  0  0  0  0  0  0  0  0  0
   -0.9713    2.6762    0.1916 C   0  0  2  0  0  0  0  0  0  0  0  0
   -0.7285    0.2330    0.3277 C   0  0  2  0  0  0  0  0  0  0  0  0
    3.6734    0.3409    2.2625 C   0  0  2  0  0  0  0  0  0  0  0  0
   -0.3062    2.6612    3.4640 C   0  0  2  0  0  0  0  0  0  0  0  0
   -1.2723    0.5976    3.0551 O   0  0  0  0  0  0  0  0  0  0  0  0
   -2.4955    2.8129    0.5970 C   0  0  0  0  0  0  0  0  0  0  0  0
   -0.7494    2.1122   -1.2506 C   0  0  1  0  0  0  0  0  0  0  0  0
   -0.3023    4.0968    0.1886 C   0  0  2  0  0  0  0  0  0  0  0  0
   -1.0746    0.6080   -1.1351 C   0  0  1  0  0  0  0  0  0  0  0  0
    5.0226    0.4010    3.0216 C   0  0  2  0  0  0  0  0  0  0  0  0
    0.3409    2.1783    4.6375 O   0  0  0  0  0  0  0  0  0  0  0  0
   -1.4462    2.9445   -2.3818 C   0  0  1  0  0  0  0  0  0  0  0  0
   -0.8670    5.0629   -0.9097 C   0  0  1  0  0  0  0  0  0  0  0  0
    5.1272   -0.6847    4.1172 C   0  0  0  0  0  0  0  0  0  0  0  0
   -0.9416    4.4378   -2.3595 C   0  0  2  0  0  0  0  0  0  0  0  0
   -1.1869    2.3426   -3.7960 C   0  0  1  0  0  0  0  0  0  0  0  0
   -2.1081    5.6031   -0.4659 O   0  0  0  0  0  0  0  0  0  0  0  0
   -1.6082    5.3324   -3.5069 C   0  0  2  0  0  0  0  0  0  0  0  0
   -1.8152    3.2043   -4.9168 C   0  0  2  0  0  0  0  0  0  0  0  0
   -3.1482    5.5974   -3.3020 C   0  0  0  0  0  0  0  0  0  0  0  0
   -1.4787    4.6367   -4.8275 C   0  0  0  0  0  0  0  0  0  0  0  0
   -0.8634    6.7275   -3.5371 C   0  0  1  0  0  0  0  0  0  0  0  0
   -1.1357    5.2973   -5.9584 C   0  0  0  0  0  0  0  0  0  0  0  0
   -1.1045    7.5306   -4.8365 C   0  0  1  0  0  0  0  0  0  0  0  0
   -0.9033    6.6618   -6.0125 C   0  0  0  0  0  0  0  0  0  0  0  0
   -0.5525    7.1853   -7.0960 O   0  0  0  0  0  0  0  0  0  0  0  0
    3.5608    2.4164    1.5448 H   0  0  0  0  0  0  0  0  0  0  0  0
    4.3535    1.2403    0.2171 H   0  0  0  0  0  0  0  0  0  0  0  0
   -1.6247   -0.2036    0.7722 H   0  0  0  0  0  0  0  0  0  0  0  0
    0.0457   -0.5349    0.3731 H   0  0  0  0  0  0  0  0  0  0  0  0
    3.5496   -0.6683    1.8542 H   0  0  0  0  0  0  0  0  0  0  0  0
    2.8671    0.5237    2.9808 H   0  0  0  0  0  0  0  0  0  0  0  0
   -1.2185    3.1834    3.7556 H   0  0  0  0  0  0  0  0  0  0  0  0
    0.3722    3.3747    3.0007 H   0  0  0  0  0  0  0  0  0  0  0  0
   -3.0874    3.3666   -0.1253 H   0  0  0  0  0  0  0  0  0  0  0  0
   -2.9804    1.8421    0.6990 H   0  0  0  0  0  0  0  0  0  0  0  0
   -2.5905    3.3374    1.5509 H   0  0  0  0  0  0  0  0  0  0  0  0
    0.3216    2.1619   -1.4827 H   0  0  0  0  0  0  0  0  0  0  0  0
    0.7760    3.9975    0.0289 H   0  0  0  0  0  0  0  0  0  0  0  0
   -0.4258    4.5721    1.1622 H   0  0  0  0  0  0  0  0  0  0  0  0
   -0.4780    0.0237   -1.8411 H   0  0  0  0  0  0  0  0  0  0  0  0
   -2.1343    0.4279   -1.3412 H   0  0  0  0  0  0  0  0  0  0  0  0
    5.1292    1.3835    3.4895 H   0  0  0  0  0  0  0  0  0  0  0  0
    5.8436    0.2660    2.3124 H   0  0  0  0  0  0  0  0  0  0  0  0
   -0.3147    1.5932    5.0705 H   0  0  0  0  0  0  0  0  0  0  0  0
   -2.5231    2.9126   -2.2231 H   0  0  0  0  0  0  0  0  0  0  0  0
   -0.1844    5.9175   -0.9459 H   0  0  0  0  0  0  0  0  0  0  0  0
    6.0736   -0.5818    4.6528 H   0  0  0  0  0  0  0  0  0  0  0  0
    5.0899   -1.6822    3.6714 H   0  0  0  0  0  0  0  0  0  0  0  0
    4.3078   -0.5844    4.8341 H   0  0  0  0  0  0  0  0  0  0  0  0
    0.1177    4.3603   -2.6385 H   0  0  0  0  0  0  0  0  0  0  0  0
   -0.1117    2.2499   -3.9768 H   0  0  0  0  0  0  0  0  0  0  0  0
   -1.6192    1.3400   -3.8557 H   0  0  0  0  0  0  0  0  0  0  0  0
   -1.9014    6.0522    0.3813 H   0  0  0  0  0  0  0  0  0  0  0  0
   -2.9024    3.1066   -4.8628 H   0  0  0  0  0  0  0  0  0  0  0  0
   -1.5145    2.7622   -5.8721 H   0  0  0  0  0  0  0  0  0  0  0  0
   -3.3437    6.2624   -2.4610 H   0  0  0  0  0  0  0  0  0  0  0  0
   -3.7033    4.6745   -3.1299 H   0  0  0  0  0  0  0  0  0  0  0  0
   -3.5870    6.0768   -4.1822 H   0  0  0  0  0  0  0  0  0  0  0  0
   -1.1581    7.3464   -2.6857 H   0  0  0  0  0  0  0  0  0  0  0  0
    0.2177    6.5718   -3.4626 H   0  0  0  0  0  0  0  0  0  0  0  0
   -1.0597    4.7944   -6.8134 H   0  0  0  0  0  0  0  0  0  0  0  0
   -2.1222    7.9263   -4.8576 H   0  0  0  0  0  0  0  0  0  0  0  0
   -0.4155    8.3788   -4.8695 H   0  0  0  0  0  0  0  0  0  0  0  0
  1  2  1  0  0  0  0 
  2  4  1  0  0  0  0 
  2  5  2  0  0  0  0 
  3  1  1  0  0  0  0 
  3  6  1  0  0  0  0 
  7  3  1  0  0  0  0 
  3  8  1  0  0  0  0 
  4  9  1  0  0  0  0 
  6 10  1  0  0  0  0 
  6 11  2  0  0  0  0 
  7 12  1  0  0  0  0 
 13  7  1  0  0  0  0 
  7 14  1  0  0  0  0 
  8 15  1  0  0  0  0 
  9 16  1  0  0  0  0 
 10 17  1  0  0  0  0 
 13 15  1  0  0  0  0 
 18 13  1  0  0  0  0 
 19 14  1  0  0  0  0 
 16 20  1  0  0  0  0 
 21 18  1  0  0  0  0 
 18 22  1  0  0  0  0 
 21 19  1  0  0  0  0 
 19 23  1  0  0  0  0 
 21 24  1  0  0  0  0 
 22 25  1  0  0  0  0 
 24 26  1  0  0  0  0 
 24 27  1  0  0  0  0 
 24 28  1  0  0  0  0 
 25 27  1  0  0  0  0 
 27 29  2  0  0  0  0 
 28 30  1  0  0  0  0 
 29 31  1  0  0  0  0 
 30 31  1  0  0  0  0 
 31 32  2  0  0  0  0 
 33  4  1  0  0  0  0 
 34  4  1  0  0  0  0 
 35  8  1  0  0  0  0 
 36  8  1  0  0  0  0 
 37  9  1  0  0  0  0 
 38  9  1  0  0  0  0 
 39 10  1  0  0  0  0 
 40 10  1  0  0  0  0 
 41 12  1  0  0  0  0 
 42 12  1  0  0  0  0 
 43 12  1  0  0  0  0 
 13 44  1  0  0  0  0 
 45 14  1  0  0  0  0 
 46 14  1  0  0  0  0 
 47 15  1  0  0  0  0 
 48 15  1  0  0  0  0 
 49 16  1  0  0  0  0 
 50 16  1  0  0  0  0 
 51 17  1  0  0  0  0 
 18 52  1  0  0  0  0 
 19 53  1  0  0  0  0 
 54 20  1  0  0  0  0 
 55 20  1  0  0  0  0 
 56 20  1  0  0  0  0 
 21 57  1  0  0  0  0 
 58 22  1  0  0  0  0 
 59 22  1  0  0  0  0 
 60 23  1  0  0  0  0 
 61 25  1  0  0  0  0 
 62 25  1  0  0  0  0 
 63 26  1  0  0  0  0 
 64 26  1  0  0  0  0 
 65 26  1  0  0  0  0 
 66 28  1  0  0  0  0 
 67 28  1  0  0  0  0 
 68 29  1  0  0  0  0 
 69 30  1  0  0  0  0 
 70 30  1  0  0  0  0 
M  END
> <cdk:Title>
hydrocortisone valerate

> <Conformer>
1

> <SuperDrugID>
SD003601

$$$$
