ingenol mebutate
  CDK     0628171801

 65 68  0  0  0  0  0  0  0  0999 V2000
    3.8023   -4.1421    4.1512 C   0  0  1  0  0  0  0  0  0  0  0  0
    2.8714   -4.6322    2.9445 C   0  0  2  0  0  0  0  0  0  0  0  0
    3.1862   -6.0513    2.2478 C   0  0  1  0  0  0  0  0  0  0  0  0
    3.3423   -7.3595    2.9831 C   0  0  0  0  0  0  0  0  0  0  0  0
    3.6524   -7.4912    4.3010 C   0  0  0  0  0  0  0  0  0  0  0  0
    3.7039   -6.3769    5.2084 C   0  0  2  0  0  0  0  0  0  0  0  0
    4.5494   -5.3264    4.6032 C   0  0  0  0  0  0  0  0  0  0  0  0
    3.0529   -3.4755    1.8944 C   0  0  2  0  0  0  0  0  0  0  0  0
    4.2321   -2.7652    2.3116 C   0  0  0  0  0  0  0  0  0  0  0  0
    4.6576   -3.1650    3.5094 C   0  0  0  0  0  0  0  0  0  0  0  0
    4.8371   -1.6895    1.5441 C   0  0  0  0  0  0  0  0  0  0  0  0
    1.4928   -4.6932    3.3356 O   0  0  0  0  0  0  0  0  0  0  0  0
    1.9656   -2.5300    1.8454 O   0  0  0  0  0  0  0  0  0  0  0  0
    1.2010   -2.1959    0.7580 C   0  0  0  0  0  0  0  0  0  0  0  0
    3.2493   -3.8744    0.8948 H   0  0  0  0  0  0  0  0  0  0  0  0
    0.2833   -1.1572    0.8678 C   0  0  0  0  0  0  0  0  0  0  0  0
    1.3250   -2.8163   -0.3257 O   0  0  0  0  0  0  0  0  0  0  0  0
    0.2133   -0.1526   -0.0374 C   0  0  0  0  0  0  0  0  0  0  0  0
    1.0561    0.0173   -1.2117 C   0  0  0  0  0  0  0  0  0  0  0  0
   -0.6140   -1.1324    2.0235 C   0  0  0  0  0  0  0  0  0  0  0  0
    3.0829   -3.5156    5.4535 C   0  0  1  0  0  0  0  0  0  0  0  0
    4.1454   -5.9313    1.7334 H   0  0  0  0  0  0  0  0  0  0  0  0
    2.2058   -6.1964    1.2079 O   0  0  0  0  0  0  0  0  0  0  0  0
    3.2390   -8.6003    2.2002 C   0  0  2  0  0  0  0  0  0  0  0  0
    4.1208   -8.5644    1.0846 O   0  0  0  0  0  0  0  0  0  0  0  0
    2.6495   -6.1182    5.2514 H   0  0  0  0  0  0  0  0  0  0  0  0
    5.7943   -5.4711    4.4980 O   0  0  0  0  0  0  0  0  0  0  0  0
    3.7789   -3.7446    6.8671 C   0  0  1  0  0  0  0  0  0  0  0  0
    2.6982   -2.0055    5.3242 C   0  0  0  0  0  0  0  0  0  0  0  0
    2.1079   -3.9825    5.5467 H   0  0  0  0  0  0  0  0  0  0  0  0
    4.1622   -6.5144    6.6811 C   0  0  1  0  0  0  0  0  0  0  0  0
    4.2623   -5.1437    7.4304 C   0  0  2  0  0  0  0  0  0  0  0  0
    3.2904   -6.2396    7.9433 C   0  0  1  0  0  0  0  0  0  0  0  0
    5.0614   -7.1183    6.8351 H   0  0  0  0  0  0  0  0  0  0  0  0
    5.1674   -5.0682    8.0400 H   0  0  0  0  0  0  0  0  0  0  0  0
    1.7477   -6.0964    7.8169 C   0  0  0  0  0  0  0  0  0  0  0  0
    3.7442   -7.0312    9.2034 C   0  0  0  0  0  0  0  0  0  0  0  0
    3.8128   -8.3869    4.7010 H   0  0  0  0  0  0  0  0  0  0  0  0
    5.4640   -2.7858    3.9526 H   0  0  0  0  0  0  0  0  0  0  0  0
    4.3699   -0.7421    1.8253 H   0  0  0  0  0  0  0  0  0  0  0  0
    4.6811   -1.8414    0.4742 H   0  0  0  0  0  0  0  0  0  0  0  0
    5.9117   -1.6235    1.7306 H   0  0  0  0  0  0  0  0  0  0  0  0
    0.9839   -4.7400    2.4989 H   0  0  0  0  0  0  0  0  0  0  0  0
   -0.4816    0.5479    0.0966 H   0  0  0  0  0  0  0  0  0  0  0  0
    1.0589    1.0629   -1.5277 H   0  0  0  0  0  0  0  0  0  0  0  0
    2.0914   -0.2648   -1.0040 H   0  0  0  0  0  0  0  0  0  0  0  0
    0.6697   -0.5887   -2.0340 H   0  0  0  0  0  0  0  0  0  0  0  0
   -0.3912   -0.2660    2.6501 H   0  0  0  0  0  0  0  0  0  0  0  0
   -0.5296   -2.0249    2.6504 H   0  0  0  0  0  0  0  0  0  0  0  0
   -1.6519   -1.0647    1.6883 H   0  0  0  0  0  0  0  0  0  0  0  0
    2.5527   -6.8884    0.6071 H   0  0  0  0  0  0  0  0  0  0  0  0
    2.2144   -8.7222    1.8448 H   0  0  0  0  0  0  0  0  0  0  0  0
    3.4905   -9.5040    2.7606 H   0  0  0  0  0  0  0  0  0  0  0  0
    3.9997   -9.4323    0.6450 H   0  0  0  0  0  0  0  0  0  0  0  0
    4.6749   -3.1193    6.8574 H   0  0  0  0  0  0  0  0  0  0  0  0
    3.1277   -3.3365    7.6450 H   0  0  0  0  0  0  0  0  0  0  0  0
    3.5875   -1.3705    5.3315 H   0  0  0  0  0  0  0  0  0  0  0  0
    2.1468   -1.8274    4.4013 H   0  0  0  0  0  0  0  0  0  0  0  0
    2.0555   -1.6984    6.1538 H   0  0  0  0  0  0  0  0  0  0  0  0
    1.3030   -7.0840    7.6847 H   0  0  0  0  0  0  0  0  0  0  0  0
    1.3568   -5.6568    8.7351 H   0  0  0  0  0  0  0  0  0  0  0  0
    1.4148   -5.4726    6.9975 H   0  0  0  0  0  0  0  0  0  0  0  0
    3.3776   -6.5349   10.1035 H   0  0  0  0  0  0  0  0  0  0  0  0
    4.8306   -7.1125    9.2811 H   0  0  0  0  0  0  0  0  0  0  0  0
    3.3306   -8.0405    9.1676 H   0  0  0  0  0  0  0  0  0  0  0  0
  1  2  1  0  0  0  0 
  1  7  1  0  0  0  0 
  2  3  1  0  0  0  0 
  3  4  1  0  0  0  0 
  4  5  2  0  0  0  0 
  5  6  1  0  0  0  0 
  6  7  1  0  0  0  0 
  8  9  1  0  0  0  0 
  9 10  2  0  0  0  0 
  1 10  1  0  0  0  0 
  2  8  1  0  0  0  0 
  9 11  1  0  0  0  0 
  2 12  1  0  0  0  0 
  8 13  1  0  0  0  0 
 13 14  1  0  0  0  0 
  8 15  1  0  0  0  0 
 14 16  1  0  0  0  0 
 14 17  2  0  0  0  0 
 16 18  2  0  0  0  0 
 18 19  1  0  0  0  0 
 16 20  1  0  0  0  0 
  1 21  1  0  0  0  0 
  3 22  1  0  0  0  0 
  3 23  1  0  0  0  0 
  4 24  1  0  0  0  0 
 24 25  1  0  0  0  0 
  6 26  1  0  0  0  0 
  7 27  2  0  0  0  0 
 21 28  1  0  0  0  0 
 21 29  1  0  0  0  0 
 21 30  1  0  0  0  0 
  6 31  1  0  0  0  0 
 31 32  1  0  0  0  0 
 28 32  1  0  0  0  0 
 31 33  1  0  0  0  0 
 33 32  1  0  0  0  0 
 31 34  1  0  0  0  0 
 32 35  1  0  0  0  0 
 33 36  1  0  0  0  0 
 33 37  1  0  0  0  0 
  5 38  1  0  0  0  0 
 10 39  1  0  0  0  0 
 11 40  1  0  0  0  0 
 11 41  1  0  0  0  0 
 11 42  1  0  0  0  0 
 12 43  1  0  0  0  0 
 18 44  1  0  0  0  0 
 19 45  1  0  0  0  0 
 19 46  1  0  0  0  0 
 19 47  1  0  0  0  0 
 20 48  1  0  0  0  0 
 20 49  1  0  0  0  0 
 20 50  1  0  0  0  0 
 23 51  1  0  0  0  0 
 24 52  1  0  0  0  0 
 24 53  1  0  0  0  0 
 25 54  1  0  0  0  0 
 28 55  1  0  0  0  0 
 28 56  1  0  0  0  0 
 29 57  1  0  0  0  0 
 29 58  1  0  0  0  0 
 29 59  1  0  0  0  0 
 36 60  1  0  0  0  0 
 36 61  1  0  0  0  0 
 36 62  1  0  0  0  0 
 37 63  1  0  0  0  0 
 37 64  1  0  0  0  0 
 37 65  1  0  0  0  0 
M  END
> <cdk:Title>
ingenol mebutate

> <Conformer>
1

> <SuperDrugID>
SD003437

$$$$
