etafedrine
  CDK     0628171801

 33 33  0  0  0  0  0  0  0  0999 V2000
    3.0935   -1.5877   -2.2181 C   0  0  2  0  0  0  0  0  0  0  0  0
    1.8793   -2.5398   -1.9078 C   0  0  2  0  0  0  0  0  0  0  0  0
    3.3052   -1.4906   -3.6313 O   0  0  0  0  0  0  0  0  0  0  0  0
    4.3570   -1.9734   -1.5105 C   0  0  0  0  0  0  0  0  0  0  0  0
    1.4160   -2.4951   -0.4581 N   0  0  1  0  0  0  0  0  0  0  0  0
    2.1878   -3.9814   -2.4276 C   0  0  0  0  0  0  0  0  0  0  0  0
    5.3009   -2.8462   -2.1075 C   0  0  0  0  0  0  0  0  0  0  0  0
    4.6361   -1.4853   -0.2096 C   0  0  0  0  0  0  0  0  0  0  0  0
    0.9402   -1.1657    0.0725 C   0  0  2  0  0  0  0  0  0  0  0  0
    0.5058   -3.6071   -0.0226 C   0  0  0  0  0  0  0  0  0  0  0  0
    6.4724   -3.2252   -1.4278 C   0  0  0  0  0  0  0  0  0  0  0  0
    5.8040   -1.8681    0.4739 C   0  0  0  0  0  0  0  0  0  0  0  0
   -0.3300   -0.5877   -0.5954 C   0  0  0  0  0  0  0  0  0  0  0  0
    6.7260   -2.7344   -0.1368 C   0  0  0  0  0  0  0  0  0  0  0  0
    2.8347   -0.5627   -1.9491 H   0  0  0  0  0  0  0  0  0  0  0  0
    1.0472   -2.1943   -2.5286 H   0  0  0  0  0  0  0  0  0  0  0  0
    2.4550   -1.1743   -4.0040 H   0  0  0  0  0  0  0  0  0  0  0  0
    1.2700   -4.5654   -2.5032 H   0  0  0  0  0  0  0  0  0  0  0  0
    2.8750   -4.4988   -1.7554 H   0  0  0  0  0  0  0  0  0  0  0  0
    2.6284   -3.9624   -3.4244 H   0  0  0  0  0  0  0  0  0  0  0  0
    5.1433   -3.2223   -3.0449 H   0  0  0  0  0  0  0  0  0  0  0  0
    3.9946   -0.8448    0.2568 H   0  0  0  0  0  0  0  0  0  0  0  0
    1.7248   -0.4164   -0.0030 H   0  0  0  0  0  0  0  0  0  0  0  0
    0.7458   -1.2518    1.1460 H   0  0  0  0  0  0  0  0  0  0  0  0
    1.0243   -4.5650   -0.0619 H   0  0  0  0  0  0  0  0  0  0  0  0
    0.1743   -3.4890    1.0120 H   0  0  0  0  0  0  0  0  0  0  0  0
   -0.3767   -3.6570   -0.6638 H   0  0  0  0  0  0  0  0  0  0  0  0
    7.1352   -3.8618   -1.8734 H   0  0  0  0  0  0  0  0  0  0  0  0
    5.9820   -1.5159    1.4174 H   0  0  0  0  0  0  0  0  0  0  0  0
   -0.6048    0.3512   -0.1112 H   0  0  0  0  0  0  0  0  0  0  0  0
   -1.1675   -1.2805   -0.5005 H   0  0  0  0  0  0  0  0  0  0  0  0
   -0.1501   -0.3835   -1.6509 H   0  0  0  0  0  0  0  0  0  0  0  0
    7.5769   -3.0098    0.3595 H   0  0  0  0  0  0  0  0  0  0  0  0
  1  2  1  0  0  0  0 
  1  3  1  0  0  0  0 
  1  4  1  0  0  0  0 
  2  5  1  0  0  0  0 
  2  6  1  0  0  0  0 
  4  7  2  0  0  0  0 
  4  8  1  0  0  0  0 
  5  9  1  0  0  0  0 
  5 10  1  0  0  0  0 
  7 11  1  0  0  0  0 
  8 12  2  0  0  0  0 
  9 13  1  0  0  0  0 
 11 14  2  0  0  0  0 
 12 14  1  0  0  0  0 
  1 15  1  0  0  0  0 
  2 16  1  0  0  0  0 
  3 17  1  0  0  0  0 
  6 18  1  0  0  0  0 
  6 19  1  0  0  0  0 
  6 20  1  0  0  0  0 
  7 21  1  0  0  0  0 
  8 22  1  0  0  0  0 
  9 23  1  0  0  0  0 
  9 24  1  0  0  0  0 
 10 25  1  0  0  0  0 
 10 26  1  0  0  0  0 
 10 27  1  0  0  0  0 
 11 28  1  0  0  0  0 
 12 29  1  0  0  0  0 
 13 30  1  0  0  0  0 
 13 31  1  0  0  0  0 
 13 32  1  0  0  0  0 
 14 33  1  0  0  0  0 
M  END
> <cdk:Title>
etafedrine

> <Conformer>
1

> <SuperDrugID>
SD002761

$$$$
