estradiol benzoate
  CDK     0628171801

 56 60  0  0  0  0  0  0  0  0999 V2000
    1.7735   -0.0258    7.8567 C   0  0  0  0  0  0  0  0  0  0  0  0
    0.2348   -0.2478    8.1328 C   0  0  1  0  0  0  0  0  0  0  0  0
   -0.7379    0.7683    7.4516 C   0  0  2  0  0  0  0  0  0  0  0  0
   -0.1920   -1.6760    7.6495 C   0  0  2  0  0  0  0  0  0  0  0  0
   -0.0753    0.0858    9.6279 C   0  0  1  0  0  0  0  0  0  0  0  0
   -0.6660    0.7631    5.8935 C   0  0  1  0  0  0  0  0  0  0  0  0
   -0.5082    2.0906    8.2148 C   0  0  1  0  0  0  0  0  0  0  0  0
   -0.1679   -1.8011    6.0933 C   0  0  2  0  0  0  0  0  0  0  0  0
    0.9008   -0.3777   10.5612 O   0  0  0  0  0  0  0  0  0  0  0  0
   -0.2138    1.6347    9.6662 C   0  0  2  0  0  0  0  0  0  0  0  0
   -0.9746   -0.6858    5.3385 C   0  0  2  0  0  0  0  0  0  0  0  0
   -1.5973    1.8526    5.2414 C   0  0  1  0  0  0  0  0  0  0  0  0
   -0.8167   -0.6403    3.8356 C   0  0  0  0  0  0  0  0  0  0  0  0
   -2.2499    1.4142    3.9003 C   0  0  2  0  0  0  0  0  0  0  0  0
   -1.3842    0.4701    3.1459 C   0  0  0  0  0  0  0  0  0  0  0  0
   -0.0905   -1.5916    3.0766 C   0  0  0  0  0  0  0  0  0  0  0  0
   -1.1033    0.6782    1.7777 C   0  0  0  0  0  0  0  0  0  0  0  0
    0.1615   -1.3895    1.7073 C   0  0  0  0  0  0  0  0  0  0  0  0
   -0.3132   -0.2337    1.0527 C   0  0  0  0  0  0  0  0  0  0  0  0
   -0.0119    0.1231   -0.2351 O   0  0  0  0  0  0  0  0  0  0  0  0
    0.5587   -0.5297   -1.2959 C   0  0  0  0  0  0  0  0  0  0  0  0
    0.7460   -1.7681   -1.2471 O   0  0  0  0  0  0  0  0  0  0  0  0
    0.8908    0.2092   -2.4683 C   0  0  0  0  0  0  0  0  0  0  0  0
    1.4828   -0.4124   -3.5982 C   0  0  0  0  0  0  0  0  0  0  0  0
    0.6668    1.6089   -2.5251 C   0  0  0  0  0  0  0  0  0  0  0  0
    1.8516    0.3385   -4.7319 C   0  0  0  0  0  0  0  0  0  0  0  0
    1.0340    2.3594   -3.6562 C   0  0  0  0  0  0  0  0  0  0  0  0
    1.6324    1.7269   -4.7583 C   0  0  0  0  0  0  0  0  0  0  0  0
    0.3567    1.0195    5.6028 H   0  0  0  0  0  0  0  0  0  0  0  0
   -2.0306   -0.8999    5.5364 H   0  0  0  0  0  0  0  0  0  0  0  0
   -1.7735    0.4755    7.6848 H   0  0  0  0  0  0  0  0  0  0  0  0
    2.1232    0.9398    8.2264 H   0  0  0  0  0  0  0  0  0  0  0  0
    2.3606   -0.7992    8.3583 H   0  0  0  0  0  0  0  0  0  0  0  0
    2.0222   -0.0684    6.7981 H   0  0  0  0  0  0  0  0  0  0  0  0
   -1.2037   -1.9041    7.9982 H   0  0  0  0  0  0  0  0  0  0  0  0
    0.4716   -2.4311    8.0805 H   0  0  0  0  0  0  0  0  0  0  0  0
   -1.0319   -0.3623    9.9195 H   0  0  0  0  0  0  0  0  0  0  0  0
    0.3432    2.6318    7.7927 H   0  0  0  0  0  0  0  0  0  0  0  0
   -1.3928    2.7335    8.1720 H   0  0  0  0  0  0  0  0  0  0  0  0
   -0.5815   -2.7789    5.8284 H   0  0  0  0  0  0  0  0  0  0  0  0
    0.8721   -1.7891    5.7580 H   0  0  0  0  0  0  0  0  0  0  0  0
    0.6029   -0.0293   11.4286 H   0  0  0  0  0  0  0  0  0  0  0  0
    0.7124    2.1006   10.0158 H   0  0  0  0  0  0  0  0  0  0  0  0
   -1.0236    1.9287   10.3390 H   0  0  0  0  0  0  0  0  0  0  0  0
   -2.4152    2.1237    5.9167 H   0  0  0  0  0  0  0  0  0  0  0  0
   -1.0087    2.7597    5.0639 H   0  0  0  0  0  0  0  0  0  0  0  0
   -2.5088    2.2991    3.3099 H   0  0  0  0  0  0  0  0  0  0  0  0
   -3.1846    0.8884    4.1174 H   0  0  0  0  0  0  0  0  0  0  0  0
    0.2882   -2.4332    3.5111 H   0  0  0  0  0  0  0  0  0  0  0  0
   -1.4666    1.5108    1.3040 H   0  0  0  0  0  0  0  0  0  0  0  0
    0.7249   -2.0762    1.2100 H   0  0  0  0  0  0  0  0  0  0  0  0
    1.6632   -1.4193   -3.6083 H   0  0  0  0  0  0  0  0  0  0  0  0
    0.2403    2.1044   -1.7369 H   0  0  0  0  0  0  0  0  0  0  0  0
    2.2836   -0.1229   -5.5339 H   0  0  0  0  0  0  0  0  0  0  0  0
    0.8699    3.3683   -3.6747 H   0  0  0  0  0  0  0  0  0  0  0  0
    1.9080    2.2744   -5.5761 H   0  0  0  0  0  0  0  0  0  0  0  0
  2  1  1  0  0  0  0 
  3  2  1  0  0  0  0 
  2  4  1  0  0  0  0 
  2  5  1  0  0  0  0 
  6  3  1  0  0  0  0 
  3  7  1  0  0  0  0 
  3 31  1  0  0  0  0 
  4  8  1  0  0  0  0 
  5  9  1  0  0  0  0 
  5 10  1  0  0  0  0 
 11  6  1  0  0  0  0 
  6 12  1  0  0  0  0 
  6 29  1  0  0  0  0 
  7 10  1  0  0  0  0 
 11  8  1  0  0  0  0 
 11 13  1  0  0  0  0 
 11 30  1  0  0  0  0 
 12 14  1  0  0  0  0 
 13 15  2  0  0  0  0 
 13 16  1  0  0  0  0 
 14 15  1  0  0  0  0 
 15 17  1  0  0  0  0 
 16 18  2  0  0  0  0 
 17 19  2  0  0  0  0 
 18 19  1  0  0  0  0 
 19 20  1  0  0  0  0 
 20 21  1  0  0  0  0 
 21 22  2  0  0  0  0 
 21 23  1  0  0  0  0 
 23 24  2  0  0  0  0 
 23 25  1  0  0  0  0 
 24 26  1  0  0  0  0 
 25 27  2  0  0  0  0 
 26 28  2  0  0  0  0 
 27 28  1  0  0  0  0 
  1 32  1  0  0  0  0 
  1 33  1  0  0  0  0 
  1 34  1  0  0  0  0 
  4 35  1  0  0  0  0 
  4 36  1  0  0  0  0 
  5 37  1  0  0  0  0 
  7 38  1  0  0  0  0 
  7 39  1  0  0  0  0 
  8 40  1  0  0  0  0 
  8 41  1  0  0  0  0 
  9 42  1  0  0  0  0 
 10 43  1  0  0  0  0 
 10 44  1  0  0  0  0 
 12 45  1  0  0  0  0 
 12 46  1  0  0  0  0 
 14 47  1  0  0  0  0 
 14 48  1  0  0  0  0 
 16 49  1  0  0  0  0 
 17 50  1  0  0  0  0 
 18 51  1  0  0  0  0 
 24 52  1  0  0  0  0 
 25 53  1  0  0  0  0 
 26 54  1  0  0  0  0 
 27 55  1  0  0  0  0 
 28 56  1  0  0  0  0 
M  END
> <cdk:Title>
estradiol benzoate

> <Conformer>
1

> <SuperDrugID>
SD000943

$$$$
