glecaprevir
  Mrv0541 09131710103D             430.77881

104110  0  0  0  0            999 V2000
    1.4926  -10.2680    4.8112 C   0  0  0  0  0  0  0  0  0  0  0  0
    2.5648   -9.1245    4.9021 C   0  0  1  0  0  0  0  0  0  0  0  0
    3.4468   -9.4210    6.1647 C   0  0  0  0  0  0  0  0  0  0  0  0
    3.4920   -9.1886    3.6433 C   0  0  0  0  0  0  0  0  0  0  0  0
    1.8280   -7.7227    5.0141 C   0  0  2  0  0  0  0  0  0  0  0  0
    0.9841   -7.4930    3.8802 N   0  0  0  0  0  0  0  0  0  0  0  0
    0.0316   -6.5382    3.7542 C   0  0  0  0  0  0  0  0  0  0  0  0
   -0.2624   -5.7220    4.6602 O   0  0  0  0  0  0  0  0  0  0  0  0
   -0.5270   -6.5037    2.5224 O   0  0  0  0  0  0  0  0  0  0  0  0
   -1.3027   -5.4755    1.9024 C   0  0  2  0  0  0  0  0  0  0  0  0
   -2.7429   -5.9406    1.6356 C   0  0  2  0  0  0  0  0  0  0  0  0
   -3.2065   -5.0793    0.4478 C   0  0  1  0  0  0  0  0  0  0  0  0
   -1.9242   -4.6713   -0.3161 C   0  0  2  0  0  0  0  0  0  0  0  0
   -0.7224   -5.2045    0.4981 C   0  0  1  0  0  0  0  0  0  0  0  0
    0.3928   -4.2884    0.5946 O   0  0  0  0  0  0  0  0  0  0  0  0
    1.3004   -4.2830   -0.5282 C   0  0  2  0  0  0  0  0  0  0  0  0
    2.2721   -3.2219   -0.3465 C   0  0  0  0  0  0  0  0  0  0  0  0
    3.5730   -3.2401   -0.6940 C   0  0  0  0  0  0  0  0  0  0  0  0
    4.3089   -4.3227   -1.3461 C   0  0  1  0  0  0  0  0  0  0  0  0
    3.6215   -4.7086   -2.4761 F   0  0  0  0  0  0  0  0  0  0  0  0
    5.4990   -3.8255   -1.8335 F   0  0  0  0  0  0  0  0  0  0  0  0
    4.6935   -5.4936   -0.5014 C   0  0  0  0  0  0  0  0  0  0  0  0
    4.8332   -6.7037   -1.1165 N   0  0  0  0  0  0  0  0  0  0  0  0
    5.3161   -7.8175   -0.5088 C   0  0  0  0  0  0  0  0  0  0  0  0
    5.4469   -9.0412   -1.1931 C   0  0  0  0  0  0  0  0  0  0  0  0
    5.9934  -10.1584   -0.5303 C   0  0  0  0  0  0  0  0  0  0  0  0
    6.4065  -10.0551    0.8123 C   0  0  0  0  0  0  0  0  0  0  0  0
    6.2716   -8.8358    1.5012 C   0  0  0  0  0  0  0  0  0  0  0  0
    5.7224   -7.7187    0.8434 C   0  0  0  0  0  0  0  0  0  0  0  0
    5.5716   -6.5298    1.4731 N   0  0  0  0  0  0  0  0  0  0  0  0
    5.0443   -5.4285    0.8737 C   0  0  0  0  0  0  0  0  0  0  0  0
    4.9433   -4.2956    1.6280 O   0  0  0  0  0  0  0  0  0  0  0  0
    3.8884   -4.1981    2.6258 C   0  0  2  0  0  0  0  0  0  0  0  0
    4.5107   -3.6595    3.9244 C   0  0  2  0  0  0  0  0  0  0  0  0
    3.6856   -4.2815    5.0744 C   0  0  2  0  0  0  0  0  0  0  0  0
    3.1348   -5.4956    4.5283 N   0  0  0  0  0  0  0  0  0  0  0  0
    3.0425   -5.4221    3.0955 C   0  0  1  0  0  0  0  0  0  0  0  0
    2.7014   -6.5439    5.3493 C   0  0  0  0  0  0  0  0  0  0  0  0
    3.0101   -6.4896    6.5659 O   0  0  0  0  0  0  0  0  0  0  0  0
    2.5634   -3.4686    5.6294 C   0  0  0  0  0  0  0  0  0  0  0  0
    2.0604   -3.8674    6.7069 O   0  0  0  0  0  0  0  0  0  0  0  0
    2.0501   -2.3670    5.0094 N   0  0  0  0  0  0  0  0  0  0  0  0
    0.9118   -1.6255    5.4691 C   0  0  2  0  0  0  0  0  0  0  0  0
   -0.4031   -1.9305    4.7224 C   0  0  1  0  0  0  0  0  0  0  0  0
    0.3459   -0.6206    4.4343 C   0  0  1  0  0  0  0  0  0  0  0  0
   -0.3626    0.6942    4.8496 C   0  0  2  0  0  0  0  0  0  0  0  0
   -1.2281    1.0738    3.8553 F   0  0  0  0  0  0  0  0  0  0  0  0
    0.5785    1.6768    5.0185 F   0  0  0  0  0  0  0  0  0  0  0  0
    0.8447   -1.2424    6.8944 C   0  0  0  0  0  0  0  0  0  0  0  0
    1.5532   -0.2881    7.2886 O   0  0  0  0  0  0  0  0  0  0  0  0
    0.0801   -1.9837    7.7341 N   0  0  0  0  0  0  0  0  0  0  0  0
    0.0455   -1.8337    9.4402 S   0  0  2  0  0  0  0  0  0  0  0  0
   -1.3317   -1.1425    9.8837 O   0  0  0  0  0  0  0  0  0  0  0  0
    1.2794   -0.9545    9.9630 O   0  0  0  0  0  0  0  0  0  0  0  0
    0.1339   -3.5248   10.1515 C   0  0  1  0  0  0  0  0  0  0  0  0
   -1.1012   -4.4289    9.9378 C   0  0  0  0  0  0  0  0  0  0  0  0
    1.5249   -4.1903   10.1338 C   0  0  1  0  0  0  0  0  0  0  0  0
    0.9264   -3.6971   11.4620 C   0  0  2  0  0  0  0  0  0  0  0  0
    0.8622  -10.1588    3.9270 H   0  0  0  0  0  0  0  0  0  0  0  0
    0.8410  -10.2587    5.6884 H   0  0  0  0  0  0  0  0  0  0  0  0
    1.9678  -11.2489    4.7588 H   0  0  0  0  0  0  0  0  0  0  0  0
    3.8577  -10.4321    6.1299 H   0  0  0  0  0  0  0  0  0  0  0  0
    4.2923   -8.7331    6.2335 H   0  0  0  0  0  0  0  0  0  0  0  0
    2.8565   -9.3280    7.0780 H   0  0  0  0  0  0  0  0  0  0  0  0
    2.9319   -9.0492    2.7173 H   0  0  0  0  0  0  0  0  0  0  0  0
    4.2533   -8.4105    3.7019 H   0  0  0  0  0  0  0  0  0  0  0  0
    4.0030  -10.1514    3.5775 H   0  0  0  0  0  0  0  0  0  0  0  0
    1.1233   -7.8176    5.8512 H   0  0  0  0  0  0  0  0  0  0  0  0
    1.1254   -8.0541    3.1035 H   0  0  0  0  0  0  0  0  0  0  0  0
   -1.3136   -4.5517    2.4935 H   0  0  0  0  0  0  0  0  0  0  0  0
   -3.3719   -5.7952    2.5171 H   0  0  0  0  0  0  0  0  0  0  0  0
   -2.7541   -6.9997    1.3557 H   0  0  0  0  0  0  0  0  0  0  0  0
   -3.8931   -5.6422   -0.1904 H   0  0  0  0  0  0  0  0  0  0  0  0
   -3.7226   -4.1880    0.8186 H   0  0  0  0  0  0  0  0  0  0  0  0
   -1.8746   -3.5833   -0.4008 H   0  0  0  0  0  0  0  0  0  0  0  0
   -1.9223   -5.1036   -1.3205 H   0  0  0  0  0  0  0  0  0  0  0  0
   -0.3994   -6.1637    0.0701 H   0  0  0  0  0  0  0  0  0  0  0  0
    0.7563   -4.0904   -1.4547 H   0  0  0  0  0  0  0  0  0  0  0  0
    1.7864   -5.2592   -0.5988 H   0  0  0  0  0  0  0  0  0  0  0  0
    1.9352   -2.3835    0.0697 H   0  0  0  0  0  0  0  0  0  0  0  0
    4.0930   -2.4189   -0.4710 H   0  0  0  0  0  0  0  0  0  0  0  0
    5.1541   -9.1214   -2.1707 H   0  0  0  0  0  0  0  0  0  0  0  0
    6.0959  -11.0470   -1.0274 H   0  0  0  0  0  0  0  0  0  0  0  0
    6.8061  -10.8681    1.2866 H   0  0  0  0  0  0  0  0  0  0  0  0
    6.5741   -8.7682    2.4750 H   0  0  0  0  0  0  0  0  0  0  0  0
    3.1959   -3.4345    2.2649 H   0  0  0  0  0  0  0  0  0  0  0  0
    4.5210   -2.5656    3.9602 H   0  0  0  0  0  0  0  0  0  0  0  0
    5.5501   -4.0016    3.9969 H   0  0  0  0  0  0  0  0  0  0  0  0
    4.3927   -4.4943    5.8837 H   0  0  0  0  0  0  0  0  0  0  0  0
    2.0154   -5.2362    2.7911 H   0  0  0  0  0  0  0  0  0  0  0  0
    3.3568   -6.3568    2.6452 H   0  0  0  0  0  0  0  0  0  0  0  0
    2.4585   -2.0850    4.1767 H   0  0  0  0  0  0  0  0  0  0  0  0
   -0.3402   -2.6857    3.9384 H   0  0  0  0  0  0  0  0  0  0  0  0
   -1.3287   -1.8453    5.2957 H   0  0  0  0  0  0  0  0  0  0  0  0
    0.8566   -0.6109    3.4676 H   0  0  0  0  0  0  0  0  0  0  0  0
   -0.9268    0.5927    5.7787 H   0  0  0  0  0  0  0  0  0  0  0  0
   -0.4738   -2.6788    7.3452 H   0  0  0  0  0  0  0  0  0  0  0  0
   -1.2878   -4.5595    8.8697 H   0  0  0  0  0  0  0  0  0  0  0  0
   -0.9679   -5.4120   10.3916 H   0  0  0  0  0  0  0  0  0  0  0  0
   -1.9733   -3.9514   10.3884 H   0  0  0  0  0  0  0  0  0  0  0  0
    1.5554   -5.2744   10.0036 H   0  0  0  0  0  0  0  0  0  0  0  0
    2.3565   -3.5965    9.7485 H   0  0  0  0  0  0  0  0  0  0  0  0
    0.5875   -4.4776   12.1462 H   0  0  0  0  0  0  0  0  0  0  0  0
    1.3838   -2.8002   11.8834 H   0  0  0  0  0  0  0  0  0  0  0  0
  1  2  1  0  0  0  0
  2  3  1  0  0  0  0
  2  4  1  0  0  0  0
  5  2  1  0  0  0  0
  5  6  1  0  0  0  0
  6  7  1  0  0  0  0
  7  8  2  0  0  0  0
  7  9  1  0  0  0  0
 10  9  1  0  0  0  0
 10 11  1  0  0  0  0
 11 12  1  0  0  0  0
 12 13  1  0  0  0  0
 14 13  1  0  0  0  0
 14 15  1  0  0  0  0
 15 16  1  0  0  0  0
 16 17  1  0  0  0  0
 17 18  2  0  0  0  0
 18 19  1  0  0  0  0
 19 20  1  0  0  0  0
 19 21  1  0  0  0  0
 19 22  1  0  0  0  0
 22 23  2  0  0  0  0
 23 24  1  0  0  0  0
 24 25  2  0  0  0  0
 25 26  1  0  0  0  0
 26 27  2  0  0  0  0
 27 28  1  0  0  0  0
 28 29  2  0  0  0  0
 29 30  1  0  0  0  0
 30 31  2  0  0  0  0
 31 32  1  0  0  0  0
 33 32  1  0  0  0  0
 33 34  1  0  0  0  0
 34 35  1  0  0  0  0
 35 36  1  0  0  0  0
 36 37  1  0  0  0  0
 36 38  1  0  0  0  0
 38 39  2  0  0  0  0
 35 40  1  0  0  0  0
 40 41  2  0  0  0  0
 40 42  1  0  0  0  0
 43 42  1  0  0  0  0
 43 44  1  0  0  0  0
 44 45  1  0  0  0  0
 45 46  1  0  0  0  0
 46 47  1  0  0  0  0
 46 48  1  0  0  0  0
 43 49  1  0  0  0  0
 49 50  2  0  0  0  0
 49 51  1  0  0  0  0
 51 52  1  0  0  0  0
 52 53  2  0  0  0  0
 52 54  2  0  0  0  0
 52 55  1  0  0  0  0
 55 56  1  0  0  0  0
 55 57  1  0  0  0  0
 57 58  1  0  0  0  0
 38  5  1  0  0  0  0
 45 43  1  0  0  0  0
 58 55  1  0  0  0  0
 14 10  1  0  0  0  0
 31 22  1  0  0  0  0
 37 33  1  0  0  0  0
 29 24  1  0  0  0  0
  1 59  1  0  0  0  0
  1 60  1  0  0  0  0
  1 61  1  0  0  0  0
  3 62  1  0  0  0  0
  3 63  1  0  0  0  0
  3 64  1  0  0  0  0
  4 65  1  0  0  0  0
  4 66  1  0  0  0  0
  4 67  1  0  0  0  0
  5 68  1  0  0  0  0
  6 69  1  0  0  0  0
 10 70  1  0  0  0  0
 11 71  1  0  0  0  0
 11 72  1  0  0  0  0
 12 73  1  0  0  0  0
 12 74  1  0  0  0  0
 13 75  1  0  0  0  0
 13 76  1  0  0  0  0
 14 77  1  0  0  0  0
 16 78  1  0  0  0  0
 16 79  1  0  0  0  0
 17 80  1  0  0  0  0
 18 81  1  0  0  0  0
 25 82  1  0  0  0  0
 26 83  1  0  0  0  0
 27 84  1  0  0  0  0
 28 85  1  0  0  0  0
 33 86  1  0  0  0  0
 34 87  1  0  0  0  0
 34 88  1  0  0  0  0
 35 89  1  0  0  0  0
 37 90  1  0  0  0  0
 37 91  1  0  0  0  0
 42 92  1  0  0  0  0
 44 93  1  0  0  0  0
 44 94  1  0  0  0  0
 45 95  1  0  0  0  0
 46 96  1  0  0  0  0
 51 97  1  0  0  0  0
 56 98  1  0  0  0  0
 56 99  1  0  0  0  0
 56100  1  0  0  0  0
 57101  1  0  0  0  0
 57102  1  0  0  0  0
 58103  1  0  0  0  0
 58104  1  0  0  0  0
M  END
>  <SuperDrugID>
SD006009

>  <_MOLCOUNT>
1

$$$$
