glafenine
  CDK     0628171801

 43 45  0  0  0  0  0  0  0  0999 V2000
   -5.2131    0.3858   -0.3422 N   0  0  0  0  0  0  0  0  0  0  0  0
   -4.2003   -0.5190   -0.2018 C   0  0  0  0  0  0  0  0  0  0  0  0
   -5.4756    1.5087    0.4033 C   0  0  0  0  0  0  0  0  0  0  0  0
   -2.8122   -0.2019   -0.1376 C   0  0  0  0  0  0  0  0  0  0  0  0
   -4.6069   -1.8687   -0.1397 C   0  0  0  0  0  0  0  0  0  0  0  0
   -6.3906    2.4852   -0.0938 C   0  0  0  0  0  0  0  0  0  0  0  0
   -4.9026    1.6940    1.6872 C   0  0  0  0  0  0  0  0  0  0  0  0
   -1.8935   -1.2733    0.0677 C   0  0  0  0  0  0  0  0  0  0  0  0
   -2.2919    1.1071   -0.2904 C   0  0  0  0  0  0  0  0  0  0  0  0
   -3.6505   -2.8782    0.0449 C   0  0  0  0  0  0  0  0  0  0  0  0
   -7.0434    2.3679   -1.3526 C   0  0  0  0  0  0  0  0  0  0  0  0
   -6.6721    3.6271    0.6977 C   0  0  0  0  0  0  0  0  0  0  0  0
   -5.1966    2.8324    2.4547 C   0  0  0  0  0  0  0  0  0  0  0  0
   -2.3406   -2.5528    0.1510 N   0  0  0  0  0  0  0  0  0  0  0  0
   -0.5102   -1.0223    0.1691 C   0  0  0  0  0  0  0  0  0  0  0  0
   -0.9080    1.3499   -0.1983 C   0  0  0  0  0  0  0  0  0  0  0  0
   -8.3215    2.8351   -1.5012 O   0  0  0  0  0  0  0  0  0  0  0  0
   -6.4591    1.8505   -2.3343 O   0  0  0  0  0  0  0  0  0  0  0  0
   -6.0766    3.8032    1.9575 C   0  0  0  0  0  0  0  0  0  0  0  0
   -0.0147    0.2875    0.0360 C   0  0  0  0  0  0  0  0  0  0  0  0
   -9.1303    2.7407   -2.6813 C   0  0  2  0  0  0  0  0  0  0  0  0
    1.6499    0.5811    0.1429 Cl  0  0  0  0  0  0  0  0  0  0  0  0
  -10.5141    3.3960   -2.4569 C   0  0  1  0  0  0  0  0  0  0  0  0
  -10.4409    4.9278   -2.2444 C   0  0  1  0  0  0  0  0  0  0  0  0
  -11.3394    3.1221   -3.5897 O   0  0  0  0  0  0  0  0  0  0  0  0
  -11.7500    5.4399   -2.0106 O   0  0  0  0  0  0  0  0  0  0  0  0
   -5.8614    0.1721   -1.0295 H   0  0  0  0  0  0  0  0  0  0  0  0
   -5.5952   -2.1267   -0.2178 H   0  0  0  0  0  0  0  0  0  0  0  0
   -4.2760    0.9927    2.0856 H   0  0  0  0  0  0  0  0  0  0  0  0
   -2.9078    1.9008   -0.4780 H   0  0  0  0  0  0  0  0  0  0  0  0
   -3.9340   -3.8567    0.1049 H   0  0  0  0  0  0  0  0  0  0  0  0
   -7.3097    4.3545    0.3619 H   0  0  0  0  0  0  0  0  0  0  0  0
   -4.7757    2.9520    3.3780 H   0  0  0  0  0  0  0  0  0  0  0  0
    0.1375   -1.7970    0.3352 H   0  0  0  0  0  0  0  0  0  0  0  0
   -0.5576    2.3060   -0.3026 H   0  0  0  0  0  0  0  0  0  0  0  0
   -6.2898    4.6336    2.5142 H   0  0  0  0  0  0  0  0  0  0  0  0
   -9.2723    1.6843   -2.9283 H   0  0  0  0  0  0  0  0  0  0  0  0
   -8.6201    3.2275   -3.5155 H   0  0  0  0  0  0  0  0  0  0  0  0
  -10.9819    2.9382   -1.5811 H   0  0  0  0  0  0  0  0  0  0  0  0
   -9.8132    5.1630   -1.3811 H   0  0  0  0  0  0  0  0  0  0  0  0
  -10.0222    5.4151   -3.1282 H   0  0  0  0  0  0  0  0  0  0  0  0
  -12.2080    3.5218   -3.3703 H   0  0  0  0  0  0  0  0  0  0  0  0
  -11.6323    6.4075   -1.9174 H   0  0  0  0  0  0  0  0  0  0  0  0
  1  2  1  0  0  0  0 
  1  3  1  0  0  0  0 
  2  4  2  0  0  0  0 
  2  5  1  0  0  0  0 
  3  6  2  0  0  0  0 
  3  7  1  0  0  0  0 
  4  8  1  0  0  0  0 
  4  9  1  0  0  0  0 
  5 10  2  0  0  0  0 
  6 11  1  0  0  0  0 
  6 12  1  0  0  0  0 
  7 13  2  0  0  0  0 
  8 14  2  0  0  0  0 
  8 15  1  0  0  0  0 
  9 16  2  0  0  0  0 
 10 14  1  0  0  0  0 
 11 17  1  0  0  0  0 
 11 18  2  0  0  0  0 
 12 19  2  0  0  0  0 
 13 19  1  0  0  0  0 
 15 20  2  0  0  0  0 
 16 20  1  0  0  0  0 
 17 21  1  0  0  0  0 
 20 22  1  0  0  0  0 
 23 21  1  0  0  0  0 
 23 24  1  0  0  0  0 
 23 25  1  0  0  0  0 
 24 26  1  0  0  0  0 
  1 27  1  0  0  0  0 
  5 28  1  0  0  0  0 
  7 29  1  0  0  0  0 
  9 30  1  0  0  0  0 
 10 31  1  0  0  0  0 
 12 32  1  0  0  0  0 
 13 33  1  0  0  0  0 
 15 34  1  0  0  0  0 
 16 35  1  0  0  0  0 
 19 36  1  0  0  0  0 
 21 37  1  0  0  0  0 
 21 38  1  0  0  0  0 
 23 39  1  0  0  0  0 
 24 40  1  0  0  0  0 
 24 41  1  0  0  0  0 
 25 42  1  0  0  0  0 
 26 43  1  0  0  0  0 
M  END
> <cdk:Title>
glafenine

> <Conformer>
1

> <SuperDrugID>
SD001153

$$$$
