iloperidone
  CDK     0628171801

 58 61  0  0  0  0  0  0  0  0999 V2000
   -6.8274  -12.6073   -6.2387 F   0  0  0  0  0  0  0  0  0  0  0  0
   -5.7759  -12.1366   -5.6275 C   0  0  0  0  0  0  0  0  0  0  0  0
   -5.8726  -10.9408   -4.8811 C   0  0  0  0  0  0  0  0  0  0  0  0
   -4.5429  -12.8255   -5.7196 C   0  0  0  0  0  0  0  0  0  0  0  0
   -4.7226  -10.4679   -4.2275 C   0  0  0  0  0  0  0  0  0  0  0  0
   -3.3963  -12.3351   -5.0612 C   0  0  0  0  0  0  0  0  0  0  0  0
   -3.5173  -11.1519   -4.3119 C   0  0  0  0  0  0  0  0  0  0  0  0
   -4.5390   -9.3688   -3.4639 O   0  0  0  0  0  0  0  0  0  0  0  0
   -2.6104  -10.4164   -3.5596 C   0  0  0  0  0  0  0  0  0  0  0  0
   -3.2859   -9.3488   -3.0794 N   0  0  0  0  0  0  0  0  0  0  0  0
   -1.1689  -10.7100   -3.3554 C   0  0  2  0  0  0  0  0  0  0  0  0
   -0.6748  -10.2747   -1.9414 C   0  0  2  0  0  0  0  0  0  0  0  0
   -0.3339  -10.0843   -4.5169 C   0  0  1  0  0  0  0  0  0  0  0  0
    0.8677  -10.3765   -1.8256 C   0  0  1  0  0  0  0  0  0  0  0  0
    1.1974  -10.1214   -4.2408 C   0  0  1  0  0  0  0  0  0  0  0  0
    1.5639   -9.5803   -2.8879 N   0  0  1  0  0  0  0  0  0  0  0  0
    1.4527   -8.0801   -2.7994 C   0  0  2  0  0  0  0  0  0  0  0  0
    1.8293   -7.4215   -1.4405 C   0  0  1  0  0  0  0  0  0  0  0  0
    1.5455   -5.9006   -1.4433 C   0  0  2  0  0  0  0  0  0  0  0  0
    1.8696   -5.3305   -0.1572 O   0  0  0  0  0  0  0  0  0  0  0  0
    1.5340   -4.0021   -0.0803 C   0  0  0  0  0  0  0  0  0  0  0  0
    0.2638   -3.6004    0.3876 C   0  0  0  0  0  0  0  0  0  0  0  0
    2.4664   -3.0251   -0.4726 C   0  0  0  0  0  0  0  0  0  0  0  0
   -0.6643   -4.5368    0.7654 O   0  0  0  0  0  0  0  0  0  0  0  0
   -0.0698   -2.2293    0.4164 C   0  0  0  0  0  0  0  0  0  0  0  0
    2.1236   -1.6615   -0.4429 C   0  0  0  0  0  0  0  0  0  0  0  0
   -0.6035   -4.8639    2.1654 C   0  0  0  0  0  0  0  0  0  0  0  0
    0.8421   -1.2285   -0.0114 C   0  0  0  0  0  0  0  0  0  0  0  0
    0.4969    0.1640   -0.0227 C   0  0  0  0  0  0  0  0  0  0  0  0
   -0.8122    0.7006    0.4188 C   0  0  0  0  0  0  0  0  0  0  0  0
    1.3217    1.0111   -0.4435 O   0  0  0  0  0  0  0  0  0  0  0  0
   -6.7532  -10.4280   -4.8133 H   0  0  0  0  0  0  0  0  0  0  0  0
   -4.4759  -13.6867   -6.2665 H   0  0  0  0  0  0  0  0  0  0  0  0
   -2.5043  -12.8273   -5.1309 H   0  0  0  0  0  0  0  0  0  0  0  0
   -1.0363  -11.7954   -3.4026 H   0  0  0  0  0  0  0  0  0  0  0  0
   -1.1327  -10.9094   -1.1765 H   0  0  0  0  0  0  0  0  0  0  0  0
   -0.9640   -9.2427   -1.7338 H   0  0  0  0  0  0  0  0  0  0  0  0
   -0.5378  -10.6306   -5.4443 H   0  0  0  0  0  0  0  0  0  0  0  0
   -0.6381   -9.0459   -4.6804 H   0  0  0  0  0  0  0  0  0  0  0  0
    1.1885  -10.0731   -0.8299 H   0  0  0  0  0  0  0  0  0  0  0  0
    1.1657  -11.4252   -1.9087 H   0  0  0  0  0  0  0  0  0  0  0  0
    1.5417  -11.1579   -4.3166 H   0  0  0  0  0  0  0  0  0  0  0  0
    1.7162   -9.5679   -5.0283 H   0  0  0  0  0  0  0  0  0  0  0  0
    0.4363   -7.7668   -3.0474 H   0  0  0  0  0  0  0  0  0  0  0  0
    2.1137   -7.6508   -3.5582 H   0  0  0  0  0  0  0  0  0  0  0  0
    1.2318   -7.8466   -0.6325 H   0  0  0  0  0  0  0  0  0  0  0  0
    2.8850   -7.6071   -1.2255 H   0  0  0  0  0  0  0  0  0  0  0  0
    0.4797   -5.7571   -1.6578 H   0  0  0  0  0  0  0  0  0  0  0  0
    2.1345   -5.4259   -2.2358 H   0  0  0  0  0  0  0  0  0  0  0  0
    3.3959   -3.3097   -0.7909 H   0  0  0  0  0  0  0  0  0  0  0  0
   -1.0017   -1.9775    0.7501 H   0  0  0  0  0  0  0  0  0  0  0  0
    2.8310   -0.9877   -0.7466 H   0  0  0  0  0  0  0  0  0  0  0  0
   -1.3754   -5.6047    2.3799 H   0  0  0  0  0  0  0  0  0  0  0  0
    0.3642   -5.2978    2.4300 H   0  0  0  0  0  0  0  0  0  0  0  0
   -0.7937   -3.9856    2.7882 H   0  0  0  0  0  0  0  0  0  0  0  0
   -0.8450    1.7915    0.3548 H   0  0  0  0  0  0  0  0  0  0  0  0
   -1.6102    0.3021   -0.2108 H   0  0  0  0  0  0  0  0  0  0  0  0
   -0.9972    0.4204    1.4566 H   0  0  0  0  0  0  0  0  0  0  0  0
  1  2  1  0  0  0  0 
  2  3  1  0  0  0  0 
  2  4  2  0  0  0  0 
  3  5  2  0  0  0  0 
  4  6  1  0  0  0  0 
  5  7  1  0  0  0  0 
  5  8  1  0  0  0  0 
  6  7  2  0  0  0  0 
  7  9  1  0  0  0  0 
  8 10  1  0  0  0  0 
  9 10  2  0  0  0  0 
  9 11  1  0  0  0  0 
 11 12  1  0  0  0  0 
 11 13  1  0  0  0  0 
 12 14  1  0  0  0  0 
 13 15  1  0  0  0  0 
 14 16  1  0  0  0  0 
 15 16  1  0  0  0  0 
 16 17  1  0  0  0  0 
 17 18  1  0  0  0  0 
 18 19  1  0  0  0  0 
 19 20  1  0  0  0  0 
 20 21  1  0  0  0  0 
 21 22  2  0  0  0  0 
 21 23  1  0  0  0  0 
 22 24  1  0  0  0  0 
 22 25  1  0  0  0  0 
 23 26  2  0  0  0  0 
 24 27  1  0  0  0  0 
 25 28  2  0  0  0  0 
 26 28  1  0  0  0  0 
 28 29  1  0  0  0  0 
 29 30  1  0  0  0  0 
 29 31  2  0  0  0  0 
 32  3  1  0  0  0  0 
 33  4  1  0  0  0  0 
 34  6  1  0  0  0  0 
 35 11  1  0  0  0  0 
 36 12  1  0  0  0  0 
 37 12  1  0  0  0  0 
 38 13  1  0  0  0  0 
 39 13  1  0  0  0  0 
 40 14  1  0  0  0  0 
 41 14  1  0  0  0  0 
 42 15  1  0  0  0  0 
 43 15  1  0  0  0  0 
 44 17  1  0  0  0  0 
 45 17  1  0  0  0  0 
 46 18  1  0  0  0  0 
 47 18  1  0  0  0  0 
 48 19  1  0  0  0  0 
 49 19  1  0  0  0  0 
 50 23  1  0  0  0  0 
 51 25  1  0  0  0  0 
 52 26  1  0  0  0  0 
 53 27  1  0  0  0  0 
 54 27  1  0  0  0  0 
 55 27  1  0  0  0  0 
 56 30  1  0  0  0  0 
 57 30  1  0  0  0  0 
 58 30  1  0  0  0  0 
M  END
> <cdk:Title>
iloperidone

> <Conformer>
1

> <SuperDrugID>
SD002845

$$$$
