cefotiam
  CDK     0628171802

 57 60  0  0  0  0  0  0  0  0999 V2000
   -4.3249   -0.2936    3.9325 C   0  0  0  0  0  0  0  0  0  0  0  0
   -3.2042   -0.2675    4.6902 O   0  0  0  0  0  0  0  0  0  0  0  0
   -5.2855   -0.9663    4.3729 O   0  0  0  0  0  0  0  0  0  0  0  0
   -4.4431    0.4004    2.7275 C   0  0  0  0  0  0  0  0  0  0  0  0
   -5.6062    1.0528    2.5361 N   0  0  0  0  0  0  0  0  0  0  0  0
   -3.4698    0.4553    1.7710 C   0  0  0  0  0  0  0  0  0  0  0  0
   -6.2926    1.4102    1.3494 C   0  0  1  0  0  0  0  0  0  0  0  0
   -6.4589    1.7071    3.3388 C   0  0  0  0  0  0  0  0  0  0  0  0
   -2.1566   -0.1901    1.9273 C   0  0  1  0  0  0  0  0  0  0  0  0
   -3.6353    1.1707    0.4851 C   0  0  2  0  0  0  0  0  0  0  0  0
   -7.2653    2.2436    2.2451 C   0  0  1  0  0  0  0  0  0  0  0  0
   -5.0831    2.2675    0.2982 S   0  0  0  0  0  0  0  0  0  0  0  0
   -6.5137    1.8757    4.5777 O   0  0  0  0  0  0  0  0  0  0  0  0
   -1.0032    0.9729    2.7377 S   0  0  0  0  0  0  0  0  0  0  0  0
   -7.1163    3.6587    2.1293 N   0  0  0  0  0  0  0  0  0  0  0  0
    0.4514    0.0328    3.0064 C   0  0  0  0  0  0  0  0  0  0  0  0
   -7.9721    4.6127    2.5766 C   0  0  0  0  0  0  0  0  0  0  0  0
    1.3590   -0.3986    2.1127 N   0  0  0  0  0  0  0  0  0  0  0  0
    0.8437   -0.3815    4.2150 N   0  0  0  0  0  0  0  0  0  0  0  0
   -7.5787    6.0295    2.4146 C   0  0  1  0  0  0  0  0  0  0  0  0
   -9.0583    4.3227    3.1341 O   0  0  0  0  0  0  0  0  0  0  0  0
    1.4083   -0.2010    0.6909 C   0  0  1  0  0  0  0  0  0  0  0  0
    2.2551   -1.0493    2.7838 N   0  0  0  0  0  0  0  0  0  0  0  0
    1.9430   -1.0384    4.0393 N   0  0  0  0  0  0  0  0  0  0  0  0
   -7.3788    6.3711    0.9898 C   0  0  0  0  0  0  0  0  0  0  0  0
    1.2605   -1.5325   -0.0956 C   0  0  1  0  0  0  0  0  0  0  0  0
   -6.1292    6.4492    0.4440 N   0  0  0  0  0  0  0  0  0  0  0  0
   -8.4416    6.6016    0.1020 C   0  0  0  0  0  0  0  0  0  0  0  0
    1.6634   -1.4126   -1.5367 N   0  0  2  0  0  0  0  0  0  0  0  0
   -6.0551    6.7206   -0.8776 C   0  0  0  0  0  0  0  0  0  0  0  0
   -7.7012    6.8924   -1.4595 S   0  0  0  0  0  0  0  0  0  0  0  0
    0.6733   -0.6850   -2.3849 C   0  0  0  0  0  0  0  0  0  0  0  0
    2.0474   -2.7240   -2.1404 C   0  0  0  0  0  0  0  0  0  0  0  0
   -4.9350    6.8287   -1.6083 N   0  0  0  0  0  0  0  0  0  0  0  0
   -6.7469    0.5399    0.8656 H   0  0  0  0  0  0  0  0  0  0  0  0
   -3.1599   -0.7888    5.5189 H   0  0  0  0  0  0  0  0  0  0  0  0
   -2.2173   -1.1135    2.5050 H   0  0  0  0  0  0  0  0  0  0  0  0
   -1.7317   -0.4716    0.9603 H   0  0  0  0  0  0  0  0  0  0  0  0
   -3.6911    0.4322   -0.3175 H   0  0  0  0  0  0  0  0  0  0  0  0
   -2.7669    1.8041    0.2911 H   0  0  0  0  0  0  0  0  0  0  0  0
   -8.2929    1.8703    2.2542 H   0  0  0  0  0  0  0  0  0  0  0  0
   -6.3059    3.9751    1.7027 H   0  0  0  0  0  0  0  0  0  0  0  0
   -8.3235    6.7013    2.8504 H   0  0  0  0  0  0  0  0  0  0  0  0
   -6.6447    6.1864    2.9606 H   0  0  0  0  0  0  0  0  0  0  0  0
    0.6288    0.4949    0.3727 H   0  0  0  0  0  0  0  0  0  0  0  0
    2.3703    0.2570    0.4465 H   0  0  0  0  0  0  0  0  0  0  0  0
    1.8987   -2.2723    0.3976 H   0  0  0  0  0  0  0  0  0  0  0  0
    0.2296   -1.8902   -0.0139 H   0  0  0  0  0  0  0  0  0  0  0  0
   -9.4408    6.5999    0.3115 H   0  0  0  0  0  0  0  0  0  0  0  0
    0.4740    0.3120   -1.9878 H   0  0  0  0  0  0  0  0  0  0  0  0
    1.0644   -0.5558   -3.3978 H   0  0  0  0  0  0  0  0  0  0  0  0
   -0.2687   -1.2381   -2.4399 H   0  0  0  0  0  0  0  0  0  0  0  0
    2.8848   -3.1637   -1.5938 H   0  0  0  0  0  0  0  0  0  0  0  0
    2.3717   -2.5980   -3.1755 H   0  0  0  0  0  0  0  0  0  0  0  0
    1.2092   -3.4245   -2.1198 H   0  0  0  0  0  0  0  0  0  0  0  0
   -4.0665    6.7273   -1.1870 H   0  0  0  0  0  0  0  0  0  0  0  0
   -4.9932    7.0088   -2.5608 H   0  0  0  0  0  0  0  0  0  0  0  0
  1  2  1  0  0  0  0 
  1  3  2  0  0  0  0 
  1  4  1  0  0  0  0 
  4  5  1  0  0  0  0 
  4  6  2  0  0  0  0 
  7  5  1  0  0  0  0 
  5  8  1  0  0  0  0 
  6  9  1  0  0  0  0 
  6 10  1  0  0  0  0 
 11  7  1  0  0  0  0 
  7 12  1  0  0  0  0 
  7 35  1  0  0  0  0 
 11  8  1  0  0  0  0 
  8 13  2  0  0  0  0 
  9 14  1  0  0  0  0 
 10 12  1  0  0  0  0 
 11 15  1  0  0  0  0 
 14 16  1  0  0  0  0 
 15 17  1  0  0  0  0 
 16 18  1  0  0  0  0 
 16 19  2  0  0  0  0 
 17 20  1  0  0  0  0 
 17 21  2  0  0  0  0 
 18 22  1  0  0  0  0 
 18 23  1  0  0  0  0 
 19 24  1  0  0  0  0 
 20 25  1  0  0  0  0 
 22 26  1  0  0  0  0 
 23 24  2  0  0  0  0 
 25 27  1  0  0  0  0 
 25 28  2  0  0  0  0 
 26 29  1  0  0  0  0 
 27 30  2  0  0  0  0 
 28 31  1  0  0  0  0 
 29 32  1  0  0  0  0 
 29 33  1  0  0  0  0 
 30 31  1  0  0  0  0 
 30 34  1  0  0  0  0 
  2 36  1  0  0  0  0 
  9 37  1  0  0  0  0 
  9 38  1  0  0  0  0 
 10 39  1  0  0  0  0 
 10 40  1  0  0  0  0 
 11 41  1  0  0  0  0 
 15 42  1  0  0  0  0 
 20 43  1  0  0  0  0 
 20 44  1  0  0  0  0 
 22 45  1  0  0  0  0 
 22 46  1  0  0  0  0 
 26 47  1  0  0  0  0 
 26 48  1  0  0  0  0 
 28 49  1  0  0  0  0 
 32 50  1  0  0  0  0 
 32 51  1  0  0  0  0 
 32 52  1  0  0  0  0 
 33 53  1  0  0  0  0 
 33 54  1  0  0  0  0 
 33 55  1  0  0  0  0 
 34 56  1  0  0  0  0 
 34 57  1  0  0  0  0 
M  END
> <cdk:Title>
cefotiam

> <Conformer>
1

> <SuperDrugID>
SD000476

$$$$
