fenoterol
  CDK     0628171801

 43 44  0  0  0  0  0  0  0  0999 V2000
    0.1686    1.5913   -0.4880 C   0  0  1  0  0  0  0  0  0  0  0  0
    1.0813    0.9024    0.5611 C   0  0  1  0  0  0  0  0  0  0  0  0
    0.5402    1.1511   -1.7972 O   0  0  0  0  0  0  0  0  0  0  0  0
   -1.2826    1.3300   -0.2636 C   0  0  0  0  0  0  0  0  0  0  0  0
    0.8775    1.3398    1.9666 N   0  0  1  0  0  0  0  0  0  0  0  0
   -2.1179    2.3222    0.3000 C   0  0  0  0  0  0  0  0  0  0  0  0
   -1.8626    0.0929   -0.6403 C   0  0  0  0  0  0  0  0  0  0  0  0
    1.2725    2.7233    2.3683 C   0  0  1  0  0  0  0  0  0  0  0  0
   -3.4963    2.0938    0.4603 C   0  0  0  0  0  0  0  0  0  0  0  0
   -3.2455   -0.1330   -0.5029 C   0  0  0  0  0  0  0  0  0  0  0  0
    0.8804    2.9376    3.8629 C   0  0  2  0  0  0  0  0  0  0  0  0
    2.7874    3.0046    2.1577 C   0  0  0  0  0  0  0  0  0  0  0  0
   -4.2687    3.0784    0.9765 O   0  0  0  0  0  0  0  0  0  0  0  0
   -4.0593    0.8642    0.0663 C   0  0  0  0  0  0  0  0  0  0  0  0
   -3.7813   -1.3024   -0.9384 O   0  0  0  0  0  0  0  0  0  0  0  0
   -0.5930    2.9047    4.0795 C   0  0  0  0  0  0  0  0  0  0  0  0
   -1.2289    1.7032    4.4685 C   0  0  0  0  0  0  0  0  0  0  0  0
   -1.3885    4.0585    3.8774 C   0  0  0  0  0  0  0  0  0  0  0  0
   -2.6230    1.6464    4.6284 C   0  0  0  0  0  0  0  0  0  0  0  0
   -2.7864    4.0028    4.0410 C   0  0  0  0  0  0  0  0  0  0  0  0
   -3.4077    2.7946    4.4089 C   0  0  0  0  0  0  0  0  0  0  0  0
   -4.7559    2.7487    4.5403 O   0  0  0  0  0  0  0  0  0  0  0  0
    0.3671    2.6662   -0.4709 H   0  0  0  0  0  0  0  0  0  0  0  0
    0.9028   -0.1750    0.5292 H   0  0  0  0  0  0  0  0  0  0  0  0
    2.1237    1.0551    0.2772 H   0  0  0  0  0  0  0  0  0  0  0  0
    1.4952    1.3594   -1.8778 H   0  0  0  0  0  0  0  0  0  0  0  0
   -0.1204    1.2391    2.1695 H   0  0  0  0  0  0  0  0  0  0  0  0
   -1.7311    3.2249    0.5863 H   0  0  0  0  0  0  0  0  0  0  0  0
   -1.2800   -0.6466   -1.0426 H   0  0  0  0  0  0  0  0  0  0  0  0
    0.7110    3.4490    1.7732 H   0  0  0  0  0  0  0  0  0  0  0  0
    1.2613    3.9016    4.2155 H   0  0  0  0  0  0  0  0  0  0  0  0
    1.3674    2.1708    4.4747 H   0  0  0  0  0  0  0  0  0  0  0  0
    3.0108    3.0979    1.0944 H   0  0  0  0  0  0  0  0  0  0  0  0
    3.3887    2.1951    2.5761 H   0  0  0  0  0  0  0  0  0  0  0  0
    3.0791    3.9432    2.6345 H   0  0  0  0  0  0  0  0  0  0  0  0
   -5.1720    2.9011    0.6407 H   0  0  0  0  0  0  0  0  0  0  0  0
   -5.0605    0.6978    0.1892 H   0  0  0  0  0  0  0  0  0  0  0  0
   -4.6959   -1.0853   -1.2236 H   0  0  0  0  0  0  0  0  0  0  0  0
   -0.6789    0.8563    4.6253 H   0  0  0  0  0  0  0  0  0  0  0  0
   -0.9567    4.9470    3.6044 H   0  0  0  0  0  0  0  0  0  0  0  0
   -3.0625    0.7642    4.8958 H   0  0  0  0  0  0  0  0  0  0  0  0
   -3.3503    4.8431    3.8877 H   0  0  0  0  0  0  0  0  0  0  0  0
   -4.9654    1.8172    4.7609 H   0  0  0  0  0  0  0  0  0  0  0  0
  1  2  1  0  0  0  0 
  1  3  1  0  0  0  0 
  1  4  1  0  0  0  0 
  2  5  1  0  0  0  0 
  4  6  2  0  0  0  0 
  4  7  1  0  0  0  0 
  5  8  1  0  0  0  0 
  6  9  1  0  0  0  0 
  7 10  2  0  0  0  0 
  8 11  1  0  0  0  0 
  8 12  1  0  0  0  0 
  9 13  1  0  0  0  0 
  9 14  2  0  0  0  0 
 10 14  1  0  0  0  0 
 10 15  1  0  0  0  0 
 11 16  1  0  0  0  0 
 16 17  2  0  0  0  0 
 16 18  1  0  0  0  0 
 17 19  1  0  0  0  0 
 18 20  2  0  0  0  0 
 19 21  2  0  0  0  0 
 20 21  1  0  0  0  0 
 21 22  1  0  0  0  0 
  1 23  1  0  0  0  0 
  2 24  1  0  0  0  0 
  2 25  1  0  0  0  0 
  3 26  1  0  0  0  0 
  5 27  1  0  0  0  0 
  6 28  1  0  0  0  0 
  7 29  1  0  0  0  0 
  8 30  1  0  0  0  0 
 11 31  1  0  0  0  0 
 11 32  1  0  0  0  0 
 12 33  1  0  0  0  0 
 12 34  1  0  0  0  0 
 12 35  1  0  0  0  0 
 13 36  1  0  0  0  0 
 14 37  1  0  0  0  0 
 15 38  1  0  0  0  0 
 17 39  1  0  0  0  0 
 18 40  1  0  0  0  0 
 19 41  1  0  0  0  0 
 20 42  1  0  0  0  0 
 22 43  1  0  0  0  0 
M  END
> <cdk:Title>
fenoterol

> <Conformer>
1

> <SuperDrugID>
SD001032

$$$$
