tripelennamine
  CDK     0628171801

 40 41  0  0  0  0  0  0  0  0999 V2000
   -0.6054   -0.7514   -0.7599 N   0  0  0  0  0  0  0  0  0  0  0  0
   -1.1492   -1.2117    0.5122 C   0  0  1  0  0  0  0  0  0  0  0  0
    0.8164   -0.9048   -1.0123 C   0  0  1  0  0  0  0  0  0  0  0  0
   -1.4317   -0.1178   -1.6706 C   0  0  0  0  0  0  0  0  0  0  0  0
   -2.4684   -1.9018    0.4196 C   0  0  0  0  0  0  0  0  0  0  0  0
    1.6817   -0.0178   -0.0786 C   0  0  1  0  0  0  0  0  0  0  0  0
   -1.3986   -0.3733   -3.0635 C   0  0  0  0  0  0  0  0  0  0  0  0
   -2.3544    0.7727   -1.2058 N   0  0  0  0  0  0  0  0  0  0  0  0
   -3.6008   -1.4199    1.1212 C   0  0  0  0  0  0  0  0  0  0  0  0
   -2.6150   -3.0511   -0.3921 C   0  0  0  0  0  0  0  0  0  0  0  0
    3.1297   -0.3265   -0.3092 N   0  0  1  0  0  0  0  0  0  0  0  0
   -2.2896    0.3028   -3.9183 C   0  0  0  0  0  0  0  0  0  0  0  0
   -3.2377    1.4305   -1.9953 C   0  0  0  0  0  0  0  0  0  0  0  0
   -4.8462   -2.0640    1.0098 C   0  0  0  0  0  0  0  0  0  0  0  0
   -3.8625   -3.6933   -0.5093 C   0  0  0  0  0  0  0  0  0  0  0  0
    3.8701    0.7056   -1.0847 C   0  0  0  0  0  0  0  0  0  0  0  0
    3.8751   -0.7896    0.8939 C   0  0  0  0  0  0  0  0  0  0  0  0
   -3.2253    1.2065   -3.3820 C   0  0  0  0  0  0  0  0  0  0  0  0
   -4.9774   -3.2008    0.1925 C   0  0  0  0  0  0  0  0  0  0  0  0
   -0.4697   -1.9167    1.0002 H   0  0  0  0  0  0  0  0  0  0  0  0
   -1.2174   -0.3459    1.1769 H   0  0  0  0  0  0  0  0  0  0  0  0
    1.0893   -1.9540   -0.8704 H   0  0  0  0  0  0  0  0  0  0  0  0
    1.0908   -0.6470   -2.0403 H   0  0  0  0  0  0  0  0  0  0  0  0
    1.4513    1.0365   -0.2678 H   0  0  0  0  0  0  0  0  0  0  0  0
    1.3992   -0.2127    0.9579 H   0  0  0  0  0  0  0  0  0  0  0  0
   -0.7417   -1.0469   -3.4602 H   0  0  0  0  0  0  0  0  0  0  0  0
   -3.5333   -0.5884    1.7129 H   0  0  0  0  0  0  0  0  0  0  0  0
   -1.8151   -3.4201   -0.9141 H   0  0  0  0  0  0  0  0  0  0  0  0
   -2.2613    0.1308   -4.9277 H   0  0  0  0  0  0  0  0  0  0  0  0
   -3.9067    2.0752   -1.5732 H   0  0  0  0  0  0  0  0  0  0  0  0
   -5.6561   -1.7009    1.5193 H   0  0  0  0  0  0  0  0  0  0  0  0
   -3.9595   -4.5163   -1.1081 H   0  0  0  0  0  0  0  0  0  0  0  0
    4.8366    0.3158   -1.4077 H   0  0  0  0  0  0  0  0  0  0  0  0
    3.3139    0.9896   -1.9791 H   0  0  0  0  0  0  0  0  0  0  0  0
    4.0331    1.5993   -0.4781 H   0  0  0  0  0  0  0  0  0  0  0  0
    3.3271   -1.5868    1.3995 H   0  0  0  0  0  0  0  0  0  0  0  0
    4.8468   -1.1921    0.6060 H   0  0  0  0  0  0  0  0  0  0  0  0
    4.0255    0.0321    1.5981 H   0  0  0  0  0  0  0  0  0  0  0  0
   -3.8901    1.6891   -3.9899 H   0  0  0  0  0  0  0  0  0  0  0  0
   -5.8811   -3.6700    0.1095 H   0  0  0  0  0  0  0  0  0  0  0  0
  1  2  1  0  0  0  0 
  1  3  1  0  0  0  0 
  1  4  1  0  0  0  0 
  2  5  1  0  0  0  0 
  3  6  1  0  0  0  0 
  4  7  2  0  0  0  0 
  4  8  1  0  0  0  0 
  5  9  2  0  0  0  0 
  5 10  1  0  0  0  0 
  6 11  1  0  0  0  0 
  7 12  1  0  0  0  0 
  8 13  2  0  0  0  0 
  9 14  1  0  0  0  0 
 10 15  2  0  0  0  0 
 11 16  1  0  0  0  0 
 11 17  1  0  0  0  0 
 12 18  2  0  0  0  0 
 13 18  1  0  0  0  0 
 14 19  2  0  0  0  0 
 15 19  1  0  0  0  0 
  2 20  1  0  0  0  0 
  2 21  1  0  0  0  0 
  3 22  1  0  0  0  0 
  3 23  1  0  0  0  0 
  6 24  1  0  0  0  0 
  6 25  1  0  0  0  0 
  7 26  1  0  0  0  0 
  9 27  1  0  0  0  0 
 10 28  1  0  0  0  0 
 12 29  1  0  0  0  0 
 13 30  1  0  0  0  0 
 14 31  1  0  0  0  0 
 15 32  1  0  0  0  0 
 16 33  1  0  0  0  0 
 16 34  1  0  0  0  0 
 16 35  1  0  0  0  0 
 17 36  1  0  0  0  0 
 17 37  1  0  0  0  0 
 17 38  1  0  0  0  0 
 18 39  1  0  0  0  0 
 19 40  1  0  0  0  0 
M  END
> <cdk:Title>
tripelennamine

> <Conformer>
1

> <SuperDrugID>
SD002491

$$$$
