lisinopril
  CDK     0628171801

 60 61  0  0  0  0  0  0  0  0999 V2000
   -2.2252   -3.7832    4.0458 C   0  0  0  0  0  0  0  0  0  0  0  0
   -1.4044   -2.9532    3.1148 C   0  0  1  0  0  0  0  0  0  0  0  0
   -2.6329   -4.8711    3.5655 O   0  0  0  0  0  0  0  0  0  0  0  0
   -2.5276   -3.4736    5.3667 N   0  0  0  0  0  0  0  0  0  0  0  0
   -0.2832   -3.7653    2.5550 N   0  0  2  0  0  0  0  0  0  0  0  0
   -2.2907   -2.3690    1.9711 C   0  0  1  0  0  0  0  0  0  0  0  0
   -2.3616   -2.1906    6.0005 C   0  0  2  0  0  0  0  0  0  0  0  0
   -3.0720   -4.4423    6.2728 C   0  0  2  0  0  0  0  0  0  0  0  0
    0.8362   -4.1727    3.4582 C   0  0  1  0  0  0  0  0  0  0  0  0
   -1.5583   -1.3299    1.0748 C   0  0  2  0  0  0  0  0  0  0  0  0
   -0.9494   -1.7929    6.2093 C   0  0  0  0  0  0  0  0  0  0  0  0
   -3.1296   -2.2799    7.3479 C   0  0  2  0  0  0  0  0  0  0  0  0
   -3.8564   -3.6315    7.3110 C   0  0  1  0  0  0  0  0  0  0  0  0
    0.4852   -5.3827    4.3856 C   0  0  2  0  0  0  0  0  0  0  0  0
    1.9864   -4.4739    2.5769 C   0  0  0  0  0  0  0  0  0  0  0  0
   -2.4555   -0.7444   -0.0510 C   0  0  2  0  0  0  0  0  0  0  0  0
   -0.4962   -0.6106    5.7314 O   0  0  0  0  0  0  0  0  0  0  0  0
   -0.1498   -2.5321    6.8252 O   0  0  0  0  0  0  0  0  0  0  0  0
    1.6835   -6.0621    5.1074 C   0  0  1  0  0  0  0  0  0  0  0  0
    3.1299   -3.7563    2.6725 O   0  0  0  0  0  0  0  0  0  0  0  0
    1.9332   -5.3983    1.7346 O   0  0  0  0  0  0  0  0  0  0  0  0
   -1.6568    0.1259   -1.0516 C   0  0  1  0  0  0  0  0  0  0  0  0
    1.2518   -7.0197    6.1686 C   0  0  0  0  0  0  0  0  0  0  0  0
   -2.5173    0.6164   -2.1329 N   0  0  2  0  0  0  0  0  0  0  0  0
    0.5691   -8.2173    5.8401 C   0  0  0  0  0  0  0  0  0  0  0  0
    1.5166   -6.7482    7.5321 C   0  0  0  0  0  0  0  0  0  0  0  0
    0.1504   -9.1087    6.8484 C   0  0  0  0  0  0  0  0  0  0  0  0
    1.1005   -7.6370    8.5408 C   0  0  0  0  0  0  0  0  0  0  0  0
    0.4136   -8.8155    8.1991 C   0  0  0  0  0  0  0  0  0  0  0  0
   -0.9684   -2.0989    3.6219 H   0  0  0  0  0  0  0  0  0  0  0  0
    0.1449   -3.1899    1.8269 H   0  0  0  0  0  0  0  0  0  0  0  0
   -2.6481   -3.1879    1.3389 H   0  0  0  0  0  0  0  0  0  0  0  0
   -3.1657   -1.8795    2.4130 H   0  0  0  0  0  0  0  0  0  0  0  0
   -2.8588   -1.4405    5.3773 H   0  0  0  0  0  0  0  0  0  0  0  0
   -2.2521   -4.9842    6.7568 H   0  0  0  0  0  0  0  0  0  0  0  0
   -3.7375   -5.1631    5.7919 H   0  0  0  0  0  0  0  0  0  0  0  0
    1.1126   -3.3206    4.0882 H   0  0  0  0  0  0  0  0  0  0  0  0
   -0.6965   -1.8128    0.6119 H   0  0  0  0  0  0  0  0  0  0  0  0
   -1.1928   -0.5099    1.6994 H   0  0  0  0  0  0  0  0  0  0  0  0
   -3.8471   -1.4614    7.4487 H   0  0  0  0  0  0  0  0  0  0  0  0
   -2.4619   -2.2539    8.2147 H   0  0  0  0  0  0  0  0  0  0  0  0
   -4.8914   -3.4993    6.9823 H   0  0  0  0  0  0  0  0  0  0  0  0
   -3.8535   -4.1259    8.2863 H   0  0  0  0  0  0  0  0  0  0  0  0
   -0.0439   -6.1366    3.7982 H   0  0  0  0  0  0  0  0  0  0  0  0
   -0.1876   -5.0243    5.1648 H   0  0  0  0  0  0  0  0  0  0  0  0
   -3.2479   -0.1377    0.3977 H   0  0  0  0  0  0  0  0  0  0  0  0
   -2.9230   -1.5617   -0.6073 H   0  0  0  0  0  0  0  0  0  0  0  0
    0.4417   -0.3518    5.8450 H   0  0  0  0  0  0  0  0  0  0  0  0
    2.2947   -6.5998    4.3784 H   0  0  0  0  0  0  0  0  0  0  0  0
    2.3089   -5.2742    5.5365 H   0  0  0  0  0  0  0  0  0  0  0  0
    3.8862   -3.9523    2.0823 H   0  0  0  0  0  0  0  0  0  0  0  0
   -1.2221    0.9873   -0.5401 H   0  0  0  0  0  0  0  0  0  0  0  0
   -0.8529   -0.4642   -1.4967 H   0  0  0  0  0  0  0  0  0  0  0  0
   -2.8657   -0.2024   -2.6360 H   0  0  0  0  0  0  0  0  0  0  0  0
   -1.9146    1.1253   -2.7825 H   0  0  0  0  0  0  0  0  0  0  0  0
    0.3720   -8.4463    4.8624 H   0  0  0  0  0  0  0  0  0  0  0  0
    2.0124   -5.8966    7.8017 H   0  0  0  0  0  0  0  0  0  0  0  0
   -0.3453   -9.9698    6.6025 H   0  0  0  0  0  0  0  0  0  0  0  0
    1.2976   -7.4266    9.5222 H   0  0  0  0  0  0  0  0  0  0  0  0
    0.1058   -9.4572    8.9356 H   0  0  0  0  0  0  0  0  0  0  0  0
  2  1  1  0  0  0  0 
  1  3  2  0  0  0  0 
  1  4  1  0  0  0  0 
  2  5  1  0  0  0  0 
  2  6  1  0  0  0  0 
  7  4  1  0  0  0  0 
  4  8  1  0  0  0  0 
  9  5  1  0  0  0  0 
  6 10  1  0  0  0  0 
  7 11  1  0  0  0  0 
  7 12  1  0  0  0  0 
  8 13  1  0  0  0  0 
  9 14  1  0  0  0  0 
  9 15  1  0  0  0  0 
 10 16  1  0  0  0  0 
 11 17  1  0  0  0  0 
 11 18  2  0  0  0  0 
 12 13  1  0  0  0  0 
 14 19  1  0  0  0  0 
 15 20  1  0  0  0  0 
 15 21  2  0  0  0  0 
 16 22  1  0  0  0  0 
 19 23  1  0  0  0  0 
 22 24  1  0  0  0  0 
 23 25  2  0  0  0  0 
 23 26  1  0  0  0  0 
 25 27  1  0  0  0  0 
 26 28  2  0  0  0  0 
 27 29  2  0  0  0  0 
 28 29  1  0  0  0  0 
  2 30  1  0  0  0  0 
  5 31  1  0  0  0  0 
  6 32  1  0  0  0  0 
  6 33  1  0  0  0  0 
  7 34  1  0  0  0  0 
  8 35  1  0  0  0  0 
  8 36  1  0  0  0  0 
  9 37  1  0  0  0  0 
 10 38  1  0  0  0  0 
 10 39  1  0  0  0  0 
 12 40  1  0  0  0  0 
 12 41  1  0  0  0  0 
 13 42  1  0  0  0  0 
 13 43  1  0  0  0  0 
 14 44  1  0  0  0  0 
 14 45  1  0  0  0  0 
 16 46  1  0  0  0  0 
 16 47  1  0  0  0  0 
 17 48  1  0  0  0  0 
 19 49  1  0  0  0  0 
 19 50  1  0  0  0  0 
 20 51  1  0  0  0  0 
 22 52  1  0  0  0  0 
 22 53  1  0  0  0  0 
 24 54  1  0  0  0  0 
 24 55  1  0  0  0  0 
 25 56  1  0  0  0  0 
 26 57  1  0  0  0  0 
 27 58  1  0  0  0  0 
 28 59  1  0  0  0  0 
 29 60  1  0  0  0  0 
M  END
> <cdk:Title>
lisinopril

> <Conformer>
1

> <SuperDrugID>
SD001402

$$$$
