tazarotene
  CDK     0628171801

 46 48  0  0  0  0  0  0  0  0999 V2000
   -4.6558   -1.2403   -1.9967 C   0  0  0  0  0  0  0  0  0  0  0  0
   -4.8463   -1.3712   -0.5905 C   0  0  0  0  0  0  0  0  0  0  0  0
   -4.6509   -0.1964    0.1954 C   0  0  0  0  0  0  0  0  0  0  0  0
   -4.2290    1.0116   -0.3977 C   0  0  0  0  0  0  0  0  0  0  0  0
   -4.0329    1.0985   -1.7834 C   0  0  0  0  0  0  0  0  0  0  0  0
   -4.2620   -0.0255   -2.5969 C   0  0  0  0  0  0  0  0  0  0  0  0
   -4.9385   -0.1259    1.9294 S   0  0  0  0  0  0  0  0  0  0  0  0
   -5.9627   -1.5894    2.2495 C   0  0  1  0  0  0  0  0  0  0  0  0
   -5.2845   -2.7878    1.5582 C   0  0  1  0  0  0  0  0  0  0  0  0
   -5.2641   -2.7229   -0.0198 C   0  0  2  0  0  0  0  0  0  0  0  0
   -4.1134    0.0582   -3.8914 C   0  0  0  0  0  0  0  0  0  0  0  0
   -3.9619    0.1366   -5.0750 C   0  0  0  0  0  0  0  0  0  0  0  0
   -3.7741    0.2300   -6.3589 C   0  0  0  0  0  0  0  0  0  0  0  0
   -3.3041    1.4182   -6.9518 C   0  0  0  0  0  0  0  0  0  0  0  0
   -3.0908    1.4505   -8.3437 C   0  0  0  0  0  0  0  0  0  0  0  0
   -3.3399    0.3112   -9.1500 C   0  0  0  0  0  0  0  0  0  0  0  0
   -3.8174   -0.8460   -8.4904 C   0  0  0  0  0  0  0  0  0  0  0  0
   -4.0167   -0.8481   -7.1460 N   0  0  0  0  0  0  0  0  0  0  0  0
   -3.1256    0.3263  -10.5574 C   0  0  0  0  0  0  0  0  0  0  0  0
   -2.6885    1.3568  -11.1240 O   0  0  0  0  0  0  0  0  0  0  0  0
   -3.3901   -0.7811  -11.3220 O   0  0  0  0  0  0  0  0  0  0  0  0
   -3.2357   -0.8769  -12.7463 C   0  0  2  0  0  0  0  0  0  0  0  0
   -3.6108   -2.2831  -13.2482 C   0  0  0  0  0  0  0  0  0  0  0  0
   -4.2621   -3.8444   -0.4775 C   0  0  0  0  0  0  0  0  0  0  0  0
   -6.6924   -3.0877   -0.5599 C   0  0  0  0  0  0  0  0  0  0  0  0
   -4.8125   -2.0500   -2.6020 H   0  0  0  0  0  0  0  0  0  0  0  0
   -4.0700    1.8470    0.1732 H   0  0  0  0  0  0  0  0  0  0  0  0
   -3.7281    1.9902   -2.1865 H   0  0  0  0  0  0  0  0  0  0  0  0
   -6.0145   -1.7449    3.3298 H   0  0  0  0  0  0  0  0  0  0  0  0
   -6.9723   -1.4264    1.8714 H   0  0  0  0  0  0  0  0  0  0  0  0
   -4.2597   -2.8504    1.9387 H   0  0  0  0  0  0  0  0  0  0  0  0
   -5.7917   -3.6979    1.8928 H   0  0  0  0  0  0  0  0  0  0  0  0
   -3.1116    2.2530   -6.3906 H   0  0  0  0  0  0  0  0  0  0  0  0
   -2.7485    2.3200   -8.7596 H   0  0  0  0  0  0  0  0  0  0  0  0
   -4.0245   -1.7030   -9.0085 H   0  0  0  0  0  0  0  0  0  0  0  0
   -2.1966   -0.6685  -13.0140 H   0  0  0  0  0  0  0  0  0  0  0  0
   -3.8810   -0.1410  -13.2332 H   0  0  0  0  0  0  0  0  0  0  0  0
   -3.4979   -2.3307  -14.3342 H   0  0  0  0  0  0  0  0  0  0  0  0
   -2.9577   -3.0302  -12.7931 H   0  0  0  0  0  0  0  0  0  0  0  0
   -4.6474   -2.5099  -12.9918 H   0  0  0  0  0  0  0  0  0  0  0  0
   -4.3322   -4.0397   -1.5475 H   0  0  0  0  0  0  0  0  0  0  0  0
   -3.2321   -3.5530   -0.2538 H   0  0  0  0  0  0  0  0  0  0  0  0
   -4.4659   -4.7901    0.0315 H   0  0  0  0  0  0  0  0  0  0  0  0
   -7.0453   -4.0345   -0.1393 H   0  0  0  0  0  0  0  0  0  0  0  0
   -6.6961   -3.1992   -1.6459 H   0  0  0  0  0  0  0  0  0  0  0  0
   -7.4192   -2.3132   -0.3085 H   0  0  0  0  0  0  0  0  0  0  0  0
  1  2  2  0  0  0  0 
  2  3  1  0  0  0  0 
  3  4  2  0  0  0  0 
  4  5  1  0  0  0  0 
  5  6  2  0  0  0  0 
  1  6  1  0  0  0  0 
  7  8  1  0  0  0  0 
  8  9  1  0  0  0  0 
  9 10  1  0  0  0  0 
  2 10  1  0  0  0  0 
  3  7  1  0  0  0  0 
  6 11  1  0  0  0  0 
 11 12  3  0  0  0  0 
 12 13  1  0  0  0  0 
 14 15  1  0  0  0  0 
 15 16  2  0  0  0  0 
 16 17  1  0  0  0  0 
 17 18  2  0  0  0  0 
 13 14  2  0  0  0  0 
 13 18  1  0  0  0  0 
 16 19  1  0  0  0  0 
 19 20  2  0  0  0  0 
 19 21  1  0  0  0  0 
 21 22  1  0  0  0  0 
 22 23  1  0  0  0  0 
 10 24  1  0  0  0  0 
 10 25  1  0  0  0  0 
  1 26  1  0  0  0  0 
  4 27  1  0  0  0  0 
  5 28  1  0  0  0  0 
  8 29  1  0  0  0  0 
  8 30  1  0  0  0  0 
  9 31  1  0  0  0  0 
  9 32  1  0  0  0  0 
 14 33  1  0  0  0  0 
 15 34  1  0  0  0  0 
 17 35  1  0  0  0  0 
 22 36  1  0  0  0  0 
 22 37  1  0  0  0  0 
 23 38  1  0  0  0  0 
 23 39  1  0  0  0  0 
 23 40  1  0  0  0  0 
 24 41  1  0  0  0  0 
 24 42  1  0  0  0  0 
 24 43  1  0  0  0  0 
 25 44  1  0  0  0  0 
 25 45  1  0  0  0  0 
 25 46  1  0  0  0  0 
M  END
> <cdk:Title>
tazarotene

> <Conformer>
1

> <SuperDrugID>
SD002313

$$$$
