febarbamate
  CDK     0628171801

 56 57  0  0  0  0  0  0  0  0999 V2000
   -5.5045   -2.6630   -4.5037 C   0  0  1  0  0  0  0  0  0  0  0  0
   -6.6847   -1.6517   -4.5152 C   0  0  0  0  0  0  0  0  0  0  0  0
   -4.6588   -2.7652   -3.1737 C   0  0  1  0  0  0  0  0  0  0  0  0
   -4.1300   -1.3838   -2.8755 C   0  0  0  0  0  0  0  0  0  0  0  0
   -5.5858   -3.2293   -2.0954 C   0  0  0  0  0  0  0  0  0  0  0  0
   -3.4953   -3.7449   -3.2120 C   0  0  0  0  0  0  0  0  0  0  0  0
   -3.2323   -0.9572   -3.6451 O   0  0  0  0  0  0  0  0  0  0  0  0
   -4.6316   -0.5792   -1.8545 N   0  0  0  0  0  0  0  0  0  0  0  0
   -6.0604   -4.3906   -2.1040 O   0  0  0  0  0  0  0  0  0  0  0  0
   -5.9774   -2.4179   -1.0926 N   0  0  0  0  0  0  0  0  0  0  0  0
   -3.1843   -4.5541   -4.3391 C   0  0  0  0  0  0  0  0  0  0  0  0
   -2.6627   -3.8898   -2.0677 C   0  0  0  0  0  0  0  0  0  0  0  0
   -4.2631    0.8320   -1.7510 C   0  0  1  0  0  0  0  0  0  0  0  0
   -5.5562   -1.1364   -0.9859 C   0  0  0  0  0  0  0  0  0  0  0  0
   -2.1019   -5.4542   -4.3261 C   0  0  0  0  0  0  0  0  0  0  0  0
   -1.5841   -4.7926   -2.0470 C   0  0  0  0  0  0  0  0  0  0  0  0
   -3.5788    1.3342   -0.4384 C   0  0  2  0  0  0  0  0  0  0  0  0
   -6.0916   -0.5032   -0.0490 O   0  0  0  0  0  0  0  0  0  0  0  0
   -1.3025   -5.5766   -3.1767 C   0  0  0  0  0  0  0  0  0  0  0  0
   -2.4158    0.4377    0.0551 C   0  0  2  0  0  0  0  0  0  0  0  0
   -4.5003    1.5173    0.6519 O   0  0  0  0  0  0  0  0  0  0  0  0
   -1.2882    0.5442   -0.8389 O   0  0  0  0  0  0  0  0  0  0  0  0
   -5.4914    2.4500    0.7653 C   0  0  0  0  0  0  0  0  0  0  0  0
   -0.0929   -0.1061   -0.3598 C   0  0  1  0  0  0  0  0  0  0  0  0
   -6.2681    2.4279    1.8578 N   0  0  0  0  0  0  0  0  0  0  0  0
   -5.6938    3.3314   -0.1010 O   0  0  0  0  0  0  0  0  0  0  0  0
    1.1206    0.3360   -1.2123 C   0  0  1  0  0  0  0  0  0  0  0  0
    2.4734   -0.1524   -0.6285 C   0  0  1  0  0  0  0  0  0  0  0  0
    3.6954    0.3414   -1.4351 C   0  0  0  0  0  0  0  0  0  0  0  0
   -5.9221   -3.6434   -4.7524 H   0  0  0  0  0  0  0  0  0  0  0  0
   -4.8447   -2.3778   -5.3279 H   0  0  0  0  0  0  0  0  0  0  0  0
   -7.1784   -1.6736   -5.4898 H   0  0  0  0  0  0  0  0  0  0  0  0
   -7.4244   -1.8996   -3.7513 H   0  0  0  0  0  0  0  0  0  0  0  0
   -6.3210   -0.6372   -4.3422 H   0  0  0  0  0  0  0  0  0  0  0  0
   -6.6038   -2.7609   -0.4355 H   0  0  0  0  0  0  0  0  0  0  0  0
   -3.7385   -4.5139   -5.1951 H   0  0  0  0  0  0  0  0  0  0  0  0
   -2.8412   -3.3351   -1.2265 H   0  0  0  0  0  0  0  0  0  0  0  0
   -3.5972    1.1329   -2.5642 H   0  0  0  0  0  0  0  0  0  0  0  0
   -5.1697    1.4158   -1.9154 H   0  0  0  0  0  0  0  0  0  0  0  0
   -1.8970   -6.0213   -5.1520 H   0  0  0  0  0  0  0  0  0  0  0  0
   -1.0048   -4.8801   -1.2090 H   0  0  0  0  0  0  0  0  0  0  0  0
   -3.1461    2.3221   -0.6408 H   0  0  0  0  0  0  0  0  0  0  0  0
   -0.5199   -6.2331   -3.1636 H   0  0  0  0  0  0  0  0  0  0  0  0
   -2.7411   -0.6014    0.1431 H   0  0  0  0  0  0  0  0  0  0  0  0
   -2.1285    0.7898    1.0508 H   0  0  0  0  0  0  0  0  0  0  0  0
    0.0994    0.1685    0.6830 H   0  0  0  0  0  0  0  0  0  0  0  0
   -0.2147   -1.1912   -0.4225 H   0  0  0  0  0  0  0  0  0  0  0  0
   -6.1278    1.7521    2.5425 H   0  0  0  0  0  0  0  0  0  0  0  0
   -6.9648    3.0922    1.9712 H   0  0  0  0  0  0  0  0  0  0  0  0
    1.0010   -0.0509   -2.2273 H   0  0  0  0  0  0  0  0  0  0  0  0
    1.1299    1.4286   -1.2625 H   0  0  0  0  0  0  0  0  0  0  0  0
    2.5760    0.2120    0.3975 H   0  0  0  0  0  0  0  0  0  0  0  0
    2.4878   -1.2455   -0.6028 H   0  0  0  0  0  0  0  0  0  0  0  0
    4.6161    0.0025   -0.9558 H   0  0  0  0  0  0  0  0  0  0  0  0
    3.6687   -0.0532   -2.4526 H   0  0  0  0  0  0  0  0  0  0  0  0
    3.7120    1.4329   -1.4781 H   0  0  0  0  0  0  0  0  0  0  0  0
  1  2  1  0  0  0  0 
  1  3  1  0  0  0  0 
  3  4  1  0  0  0  0 
  3  5  1  0  0  0  0 
  3  6  1  0  0  0  0 
  4  7  2  0  0  0  0 
  4  8  1  0  0  0  0 
  5  9  2  0  0  0  0 
  5 10  1  0  0  0  0 
  6 11  2  0  0  0  0 
  6 12  1  0  0  0  0 
  8 13  1  0  0  0  0 
  8 14  1  0  0  0  0 
 10 14  1  0  0  0  0 
 11 15  1  0  0  0  0 
 12 16  2  0  0  0  0 
 13 17  1  0  0  0  0 
 14 18  2  0  0  0  0 
 15 19  2  0  0  0  0 
 16 19  1  0  0  0  0 
 17 20  1  0  0  0  0 
 17 21  1  0  0  0  0 
 20 22  1  0  0  0  0 
 21 23  1  0  0  0  0 
 22 24  1  0  0  0  0 
 23 25  1  0  0  0  0 
 23 26  2  0  0  0  0 
 24 27  1  0  0  0  0 
 27 28  1  0  0  0  0 
 28 29  1  0  0  0  0 
 30  1  1  0  0  0  0 
 31  1  1  0  0  0  0 
 32  2  1  0  0  0  0 
 33  2  1  0  0  0  0 
 34  2  1  0  0  0  0 
 35 10  1  0  0  0  0 
 36 11  1  0  0  0  0 
 37 12  1  0  0  0  0 
 38 13  1  0  0  0  0 
 39 13  1  0  0  0  0 
 40 15  1  0  0  0  0 
 41 16  1  0  0  0  0 
 42 17  1  0  0  0  0 
 43 19  1  0  0  0  0 
 44 20  1  0  0  0  0 
 45 20  1  0  0  0  0 
 46 24  1  0  0  0  0 
 47 24  1  0  0  0  0 
 48 25  1  0  0  0  0 
 49 25  1  0  0  0  0 
 50 27  1  0  0  0  0 
 51 27  1  0  0  0  0 
 52 28  1  0  0  0  0 
 53 28  1  0  0  0  0 
 54 29  1  0  0  0  0 
 55 29  1  0  0  0  0 
 56 29  1  0  0  0  0 
M  END
> <cdk:Title>
febarbamate

> <Conformer>
1

> <SuperDrugID>
SD001012

$$$$
