phenyltoloxamine
  CDK     0628171801

 40 41  0  0  0  0  0  0  0  0999 V2000
    1.3853    4.5273    0.0515 C   0  0  1  0  0  0  0  0  0  0  0  0
    2.3536    3.4457    0.3941 C   0  0  0  0  0  0  0  0  0  0  0  0
    0.9064    5.2322    1.2708 C   0  0  0  0  0  0  0  0  0  0  0  0
    1.9357    2.1171    0.6816 C   0  0  0  0  0  0  0  0  0  0  0  0
    3.7352    3.7513    0.4656 C   0  0  0  0  0  0  0  0  0  0  0  0
    1.5485    6.4049    1.7368 C   0  0  0  0  0  0  0  0  0  0  0  0
   -0.2059    4.7396    1.9943 C   0  0  0  0  0  0  0  0  0  0  0  0
    0.6185    1.7415    0.6063 O   0  0  0  0  0  0  0  0  0  0  0  0
    2.8819    1.1546    1.0976 C   0  0  0  0  0  0  0  0  0  0  0  0
    4.6729    2.7814    0.8608 C   0  0  0  0  0  0  0  0  0  0  0  0
    1.0892    7.0669    2.8915 C   0  0  0  0  0  0  0  0  0  0  0  0
   -0.6662    5.4002    3.1481 C   0  0  0  0  0  0  0  0  0  0  0  0
    0.2408    1.2104   -0.6824 C   0  0  1  0  0  0  0  0  0  0  0  0
    4.2432    1.4885    1.1981 C   0  0  0  0  0  0  0  0  0  0  0  0
   -0.0149    6.5611    3.6001 C   0  0  0  0  0  0  0  0  0  0  0  0
   -1.2427    0.7690   -0.6427 C   0  0  2  0  0  0  0  0  0  0  0  0
   -1.5725   -0.2595    0.4008 N   0  0  1  0  0  0  0  0  0  0  0  0
   -3.0434   -0.5064    0.4955 C   0  0  0  0  0  0  0  0  0  0  0  0
   -0.8133   -1.5391    0.2493 C   0  0  0  0  0  0  0  0  0  0  0  0
    1.8498    5.2398   -0.6365 H   0  0  0  0  0  0  0  0  0  0  0  0
    0.5285    4.1328   -0.4967 H   0  0  0  0  0  0  0  0  0  0  0  0
    4.0704    4.6897    0.2364 H   0  0  0  0  0  0  0  0  0  0  0  0
    2.3589    6.7829    1.2403 H   0  0  0  0  0  0  0  0  0  0  0  0
   -0.6897    3.8935    1.6855 H   0  0  0  0  0  0  0  0  0  0  0  0
    2.5801    0.2061    1.3327 H   0  0  0  0  0  0  0  0  0  0  0  0
    5.6664    3.0177    0.9105 H   0  0  0  0  0  0  0  0  0  0  0  0
    1.5586    7.9144    3.2190 H   0  0  0  0  0  0  0  0  0  0  0  0
   -1.4730    5.0357    3.6597 H   0  0  0  0  0  0  0  0  0  0  0  0
    0.3521    1.9667   -1.4662 H   0  0  0  0  0  0  0  0  0  0  0  0
    0.8631    0.3565   -0.9620 H   0  0  0  0  0  0  0  0  0  0  0  0
    4.9213    0.7929    1.5174 H   0  0  0  0  0  0  0  0  0  0  0  0
   -0.3438    7.0357    4.4443 H   0  0  0  0  0  0  0  0  0  0  0  0
   -1.5202    0.3936   -1.6335 H   0  0  0  0  0  0  0  0  0  0  0  0
   -1.8360    1.6704   -0.4573 H   0  0  0  0  0  0  0  0  0  0  0  0
   -3.2679   -1.2096    1.3014 H   0  0  0  0  0  0  0  0  0  0  0  0
   -3.5719    0.4213    0.7220 H   0  0  0  0  0  0  0  0  0  0  0  0
   -3.4329   -0.9144   -0.4414 H   0  0  0  0  0  0  0  0  0  0  0  0
    0.2449   -1.3756    0.4560 H   0  0  0  0  0  0  0  0  0  0  0  0
   -1.1546   -2.2945    0.9616 H   0  0  0  0  0  0  0  0  0  0  0  0
   -0.9186   -1.9439   -0.7621 H   0  0  0  0  0  0  0  0  0  0  0  0
  1  2  1  0  0  0  0 
  1  3  1  0  0  0  0 
  2  4  2  0  0  0  0 
  2  5  1  0  0  0  0 
  3  6  2  0  0  0  0 
  3  7  1  0  0  0  0 
  4  8  1  0  0  0  0 
  4  9  1  0  0  0  0 
  5 10  2  0  0  0  0 
  6 11  1  0  0  0  0 
  7 12  2  0  0  0  0 
  8 13  1  0  0  0  0 
  9 14  2  0  0  0  0 
 10 14  1  0  0  0  0 
 11 15  2  0  0  0  0 
 12 15  1  0  0  0  0 
 13 16  1  0  0  0  0 
 16 17  1  0  0  0  0 
 17 18  1  0  0  0  0 
 17 19  1  0  0  0  0 
  1 20  1  0  0  0  0 
  1 21  1  0  0  0  0 
  5 22  1  0  0  0  0 
  6 23  1  0  0  0  0 
  7 24  1  0  0  0  0 
  9 25  1  0  0  0  0 
 10 26  1  0  0  0  0 
 11 27  1  0  0  0  0 
 12 28  1  0  0  0  0 
 13 29  1  0  0  0  0 
 13 30  1  0  0  0  0 
 14 31  1  0  0  0  0 
 15 32  1  0  0  0  0 
 16 33  1  0  0  0  0 
 16 34  1  0  0  0  0 
 18 35  1  0  0  0  0 
 18 36  1  0  0  0  0 
 18 37  1  0  0  0  0 
 19 38  1  0  0  0  0 
 19 39  1  0  0  0  0 
 19 40  1  0  0  0  0 
M  END
> <cdk:Title>
phenyltoloxamine

> <Conformer>
1

> <SuperDrugID>
SD001929

$$$$
