dichlorisone
  CDK     0628171801

 58 61  0  0  0  0  0  0  0  0999 V2000
    1.0986   -5.1692   -0.3507 Cl  0  0  0  0  0  0  0  0  0  0  0  0
   -0.5427   -5.8948   -0.3616 C   0  0  2  0  0  0  0  0  0  0  0  0
   -0.7701   -6.5682   -1.7873 C   0  0  2  0  0  0  0  0  0  0  0  0
   -1.5660   -4.6608   -0.1565 C   0  0  2  0  0  0  0  0  0  0  0  0
   -0.4502   -7.0050    0.7869 C   0  0  1  0  0  0  0  0  0  0  0  0
    0.2128   -7.7658   -2.0343 C   0  0  1  0  0  0  0  0  0  0  0  0
   -0.6990   -5.5202   -2.9426 C   0  0  2  0  0  0  0  0  0  0  0  0
   -3.1013   -5.0166   -0.0506 C   0  0  0  0  0  0  0  0  0  0  0  0
   -1.4608   -3.7510   -1.3511 C   0  0  0  0  0  0  0  0  0  0  0  0
   -1.2741   -3.9495    1.1159 C   0  0  0  0  0  0  0  0  0  0  0  0
   -1.9662   -7.5621    1.5040 Cl  0  0  0  0  0  0  0  0  0  0  0  0
    0.4159   -8.2713    0.4212 C   0  0  1  0  0  0  0  0  0  0  0  0
    0.0968   -8.9145   -0.9802 C   0  0  1  0  0  0  0  0  0  0  0  0
    0.2120   -8.4956   -3.3949 C   0  0  1  0  0  0  0  0  0  0  0  0
   -1.6363   -4.3158   -2.6960 C   0  0  2  0  0  0  0  0  0  0  0  0
   -1.2176   -2.4269   -1.2096 C   0  0  0  0  0  0  0  0  0  0  0  0
   -1.0351   -2.6290    1.1818 C   0  0  0  0  0  0  0  0  0  0  0  0
   -1.3175   -9.6179   -0.9362 C   0  0  0  0  0  0  0  0  0  0  0  0
    1.1659   -9.9268   -1.5607 C   0  0  2  0  0  0  0  0  0  0  0  0
    0.9273   -9.8436   -3.1119 C   0  0  2  0  0  0  0  0  0  0  0  0
   -1.0369   -1.8537    0.0380 C   0  0  0  0  0  0  0  0  0  0  0  0
    1.1217  -11.3214   -0.9974 C   0  0  0  0  0  0  0  0  0  0  0  0
    2.4929   -9.4207   -1.3447 O   0  0  0  0  0  0  0  0  0  0  0  0
   -0.8666   -0.6149    0.1309 O   0  0  0  0  0  0  0  0  0  0  0  0
    1.9160  -11.7510    0.1773 C   0  0  1  0  0  0  0  0  0  0  0  0
    0.3541  -12.1787   -1.4984 O   0  0  0  0  0  0  0  0  0  0  0  0
    3.2920  -11.8953   -0.1950 O   0  0  0  0  0  0  0  0  0  0  0  0
    4.0451  -13.0336   -0.2082 C   0  0  0  0  0  0  0  0  0  0  0  0
    5.4618  -12.9103   -0.5673 C   0  0  0  0  0  0  0  0  0  0  0  0
    3.5612  -14.1569    0.0626 O   0  0  0  0  0  0  0  0  0  0  0  0
   -1.7816   -6.9694   -1.8296 H   0  0  0  0  0  0  0  0  0  0  0  0
    0.0388   -6.5529    1.6549 H   0  0  0  0  0  0  0  0  0  0  0  0
    1.2178   -7.3320   -1.9710 H   0  0  0  0  0  0  0  0  0  0  0  0
   -0.9936   -5.9871   -3.8859 H   0  0  0  0  0  0  0  0  0  0  0  0
    0.3256   -5.1595   -3.0689 H   0  0  0  0  0  0  0  0  0  0  0  0
   -3.4050   -5.7543   -0.7922 H   0  0  0  0  0  0  0  0  0  0  0  0
   -3.3867   -5.4017    0.9274 H   0  0  0  0  0  0  0  0  0  0  0  0
   -3.7231   -4.1279   -0.2014 H   0  0  0  0  0  0  0  0  0  0  0  0
   -1.2635   -4.4643    1.9664 H   0  0  0  0  0  0  0  0  0  0  0  0
    1.4661   -7.9679    0.4481 H   0  0  0  0  0  0  0  0  0  0  0  0
    0.3179   -9.0294    1.2044 H   0  0  0  0  0  0  0  0  0  0  0  0
   -0.8124   -8.6608   -3.7408 H   0  0  0  0  0  0  0  0  0  0  0  0
    0.7484   -7.9148   -4.1515 H   0  0  0  0  0  0  0  0  0  0  0  0
   -2.6723   -4.6407   -2.8135 H   0  0  0  0  0  0  0  0  0  0  0  0
   -1.4509   -3.5846   -3.4894 H   0  0  0  0  0  0  0  0  0  0  0  0
   -1.1686   -1.8356   -2.0083 H   0  0  0  0  0  0  0  0  0  0  0  0
   -0.8595   -2.2062    2.0649 H   0  0  0  0  0  0  0  0  0  0  0  0
   -1.3735  -10.3015   -0.0867 H   0  0  0  0  0  0  0  0  0  0  0  0
   -1.5161  -10.2039   -1.8331 H   0  0  0  0  0  0  0  0  0  0  0  0
   -2.1402   -8.9183   -0.8424 H   0  0  0  0  0  0  0  0  0  0  0  0
    1.8690   -9.8995   -3.6669 H   0  0  0  0  0  0  0  0  0  0  0  0
    0.2921  -10.6554   -3.4768 H   0  0  0  0  0  0  0  0  0  0  0  0
    3.0867  -10.0382   -1.8244 H   0  0  0  0  0  0  0  0  0  0  0  0
    1.8507  -11.0010    0.9657 H   0  0  0  0  0  0  0  0  0  0  0  0
    1.5162  -12.6815    0.5904 H   0  0  0  0  0  0  0  0  0  0  0  0
    5.9649  -13.8784   -0.5456 H   0  0  0  0  0  0  0  0  0  0  0  0
    5.5397  -12.4903   -1.5688 H   0  0  0  0  0  0  0  0  0  0  0  0
    5.9522  -12.2403    0.1380 H   0  0  0  0  0  0  0  0  0  0  0  0
  2  1  1  0  0  0  0 
  2  3  1  0  0  0  0 
  2  4  1  0  0  0  0 
  2  5  1  0  0  0  0 
  3  6  1  0  0  0  0 
  3  7  1  0  0  0  0 
  4  8  1  0  0  0  0 
  4  9  1  0  0  0  0 
  4 10  1  0  0  0  0 
  5 11  1  0  0  0  0 
  5 12  1  0  0  0  0 
  6 13  1  0  0  0  0 
  6 14  1  0  0  0  0 
  7 15  1  0  0  0  0 
  9 15  1  0  0  0  0 
  9 16  2  0  0  0  0 
 10 17  2  0  0  0  0 
 13 12  1  0  0  0  0 
 13 18  1  0  0  0  0 
 13 19  1  0  0  0  0 
 14 20  1  0  0  0  0 
 16 21  1  0  0  0  0 
 17 21  1  0  0  0  0 
 19 20  1  0  0  0  0 
 19 22  1  0  0  0  0 
 19 23  1  0  0  0  0 
 21 24  2  0  0  0  0 
 22 25  1  0  0  0  0 
 22 26  2  0  0  0  0 
 25 27  1  0  0  0  0 
 27 28  1  0  0  0  0 
 28 29  1  0  0  0  0 
 28 30  2  0  0  0  0 
  3 31  1  0  0  0  0 
  5 32  1  0  0  0  0 
  6 33  1  0  0  0  0 
 34  7  1  0  0  0  0 
 35  7  1  0  0  0  0 
 36  8  1  0  0  0  0 
 37  8  1  0  0  0  0 
 38  8  1  0  0  0  0 
 39 10  1  0  0  0  0 
 40 12  1  0  0  0  0 
 41 12  1  0  0  0  0 
 42 14  1  0  0  0  0 
 43 14  1  0  0  0  0 
 44 15  1  0  0  0  0 
 45 15  1  0  0  0  0 
 46 16  1  0  0  0  0 
 47 17  1  0  0  0  0 
 48 18  1  0  0  0  0 
 49 18  1  0  0  0  0 
 50 18  1  0  0  0  0 
 51 20  1  0  0  0  0 
 52 20  1  0  0  0  0 
 53 23  1  0  0  0  0 
 54 25  1  0  0  0  0 
 55 25  1  0  0  0  0 
 56 29  1  0  0  0  0 
 57 29  1  0  0  0  0 
 58 29  1  0  0  0  0 
M  END
> <cdk:Title>
dichlorisone

> <Conformer>
1

> <SuperDrugID>
SD002721

$$$$
