octenidine
  CDK     0628171801

102103  0  0  0  0  0  0  0  0999 V2000
   10.2619   -9.6156  -12.1808 C   0  0  2  0  0  0  0  0  0  0  0  0
   11.6117   -9.3838  -12.9168 C   0  0  2  0  0  0  0  0  0  0  0  0
    9.3808  -10.5042  -12.9129 N   0  0  0  0  0  0  0  0  0  0  0  0
   12.3684  -10.7074  -13.2206 C   0  0  1  0  0  0  0  0  0  0  0  0
    9.2936  -11.8308  -12.5750 C   0  0  0  0  0  0  0  0  0  0  0  0
    8.6699  -10.0264  -13.9833 C   0  0  0  0  0  0  0  0  0  0  0  0
   13.7465  -10.4903  -13.8912 C   0  0  2  0  0  0  0  0  0  0  0  0
    8.5148  -12.7240  -13.3302 C   0  0  0  0  0  0  0  0  0  0  0  0
    7.8722  -10.8801  -14.7682 C   0  0  0  0  0  0  0  0  0  0  0  0
   14.4317  -11.8371  -14.2549 C   0  0  2  0  0  0  0  0  0  0  0  0
    7.7956  -12.2495  -14.4488 C   0  0  0  0  0  0  0  0  0  0  0  0
   15.7730  -11.6380  -15.0066 C   0  0  1  0  0  0  0  0  0  0  0  0
    7.0420  -13.0112  -15.2157 N   0  0  0  0  0  0  0  0  0  0  0  0
   16.4637  -12.9794  -15.3704 C   0  0  1  0  0  0  0  0  0  0  0  0
    7.0376  -14.3986  -15.3457 C   0  0  2  0  0  0  0  0  0  0  0  0
   17.7918  -12.7914  -16.1545 C   0  0  1  0  0  0  0  0  0  0  0  0
    6.0451  -14.8488  -16.4422 C   0  0  1  0  0  0  0  0  0  0  0  0
   18.4189  -14.2476  -16.4705 C   0  0  2  0  0  0  0  0  0  0  0  0
    6.4754  -14.4650  -17.8855 C   0  0  2  0  0  0  0  0  0  0  0  0
   19.7911  -14.1253  -17.3647 C   0  0  2  0  0  0  0  0  0  0  0  0
    5.4816  -15.0187  -18.9399 C   0  0  1  0  0  0  0  0  0  0  0  0
   20.5106  -15.3974  -17.5598 N   0  0  0  0  0  0  0  0  0  0  0  0
    5.8452  -14.6289  -20.3967 C   0  0  1  0  0  0  0  0  0  0  0  0
   21.3237  -15.8645  -16.5639 C   0  0  0  0  0  0  0  0  0  0  0  0
   20.3453  -16.1414  -18.6996 C   0  0  0  0  0  0  0  0  0  0  0  0
    4.8447  -15.2097  -21.4322 C   0  0  2  0  0  0  0  0  0  0  0  0
   21.9881  -17.0930  -16.6983 C   0  0  0  0  0  0  0  0  0  0  0  0
   20.9991  -17.3824  -18.8523 C   0  0  0  0  0  0  0  0  0  0  0  0
    5.2165  -14.8034  -22.8825 C   0  0  2  0  0  0  0  0  0  0  0  0
   21.7901  -17.8761  -17.8284 C   0  0  0  0  0  0  0  0  0  0  0  0
    4.2406  -15.3616  -23.9402 C   0  0  0  0  0  0  0  0  0  0  0  0
   22.2946  -19.0567  -17.9682 N   0  0  0  0  0  0  0  0  0  0  0  0
   23.1036  -19.7708  -17.0772 C   0  0  2  0  0  0  0  0  0  0  0  0
   23.5584  -21.1354  -17.6455 C   0  0  2  0  0  0  0  0  0  0  0  0
   24.5161  -21.8627  -16.6634 C   0  0  2  0  0  0  0  0  0  0  0  0
   25.0340  -23.2261  -17.1891 C   0  0  2  0  0  0  0  0  0  0  0  0
   25.9986  -23.8926  -16.1726 C   0  0  1  0  0  0  0  0  0  0  0  0
   26.5550  -25.2624  -16.6420 C   0  0  1  0  0  0  0  0  0  0  0  0
   27.5096  -25.8712  -15.5790 C   0  0  2  0  0  0  0  0  0  0  0  0
   28.0980  -27.2390  -15.9823 C   0  0  0  0  0  0  0  0  0  0  0  0
    9.7718   -8.6508  -12.0150 H   0  0  0  0  0  0  0  0  0  0  0  0
   10.4914  -10.0035  -11.1833 H   0  0  0  0  0  0  0  0  0  0  0  0
   12.2409   -8.7480  -12.2861 H   0  0  0  0  0  0  0  0  0  0  0  0
   11.4287   -8.8465  -13.8528 H   0  0  0  0  0  0  0  0  0  0  0  0
   12.5091  -11.2611  -12.2875 H   0  0  0  0  0  0  0  0  0  0  0  0
   11.7584  -11.3176  -13.8926 H   0  0  0  0  0  0  0  0  0  0  0  0
    9.8161  -12.2102  -11.7797 H   0  0  0  0  0  0  0  0  0  0  0  0
    8.7147   -9.0361  -14.2402 H   0  0  0  0  0  0  0  0  0  0  0  0
   14.3888   -9.9245  -13.2109 H   0  0  0  0  0  0  0  0  0  0  0  0
   13.6062   -9.9001  -14.8008 H   0  0  0  0  0  0  0  0  0  0  0  0
    8.4923  -13.7111  -13.0618 H   0  0  0  0  0  0  0  0  0  0  0  0
    7.3562  -10.4966  -15.5663 H   0  0  0  0  0  0  0  0  0  0  0  0
   13.7579  -12.4223  -14.8886 H   0  0  0  0  0  0  0  0  0  0  0  0
   14.6158  -12.4044  -13.3376 H   0  0  0  0  0  0  0  0  0  0  0  0
   15.5803  -11.0755  -15.9244 H   0  0  0  0  0  0  0  0  0  0  0  0
   16.4459  -11.0494  -14.3767 H   0  0  0  0  0  0  0  0  0  0  0  0
   16.6689  -13.5310  -14.4490 H   0  0  0  0  0  0  0  0  0  0  0  0
   15.7791  -13.5799  -15.9758 H   0  0  0  0  0  0  0  0  0  0  0  0
    6.7303  -14.8452  -14.3953 H   0  0  0  0  0  0  0  0  0  0  0  0
    8.0402  -14.7609  -15.5901 H   0  0  0  0  0  0  0  0  0  0  0  0
   17.5455  -12.1710  -17.0598 H   0  0  0  0  0  0  0  0  0  0  0  0
   18.4405  -12.1196  -15.5272 H   0  0  0  0  0  0  0  0  0  0  0  0
    5.9509  -15.9354  -16.3779 H   0  0  0  0  0  0  0  0  0  0  0  0
    5.0626  -14.4179  -16.2287 H   0  0  0  0  0  0  0  0  0  0  0  0
   17.7029  -14.8531  -17.0304 H   0  0  0  0  0  0  0  0  0  0  0  0
   18.6528  -14.7561  -15.5321 H   0  0  0  0  0  0  0  0  0  0  0  0
    7.4714  -14.8679  -18.0879 H   0  0  0  0  0  0  0  0  0  0  0  0
    6.5226  -13.3768  -17.9764 H   0  0  0  0  0  0  0  0  0  0  0  0
   20.5505  -13.4119  -16.9424 H   0  0  0  0  0  0  0  0  0  0  0  0
   19.6270  -13.6849  -18.3852 H   0  0  0  0  0  0  0  0  0  0  0  0
    5.4594  -16.1097  -18.8626 H   0  0  0  0  0  0  0  0  0  0  0  0
    4.4813  -14.6383  -18.7149 H   0  0  0  0  0  0  0  0  0  0  0  0
    5.8545  -13.5383  -20.4840 H   0  0  0  0  0  0  0  0  0  0  0  0
    6.8482  -14.9990  -20.6287 H   0  0  0  0  0  0  0  0  0  0  0  0
   21.4634  -15.3319  -15.6999 H   0  0  0  0  0  0  0  0  0  0  0  0
   19.7347  -15.8144  -19.4550 H   0  0  0  0  0  0  0  0  0  0  0  0
    3.8376  -14.8477  -21.2024 H   0  0  0  0  0  0  0  0  0  0  0  0
    4.8411  -16.3013  -21.3532 H   0  0  0  0  0  0  0  0  0  0  0  0
   22.6051  -17.3906  -15.9376 H   0  0  0  0  0  0  0  0  0  0  0  0
   20.8650  -17.9124  -19.7213 H   0  0  0  0  0  0  0  0  0  0  0  0
    6.2222  -15.1677  -23.1099 H   0  0  0  0  0  0  0  0  0  0  0  0
    5.2237  -13.7126  -22.9588 H   0  0  0  0  0  0  0  0  0  0  0  0
    3.2304  -14.9913  -23.7575 H   0  0  0  0  0  0  0  0  0  0  0  0
    4.2327  -16.4526  -23.9123 H   0  0  0  0  0  0  0  0  0  0  0  0
    4.5552  -15.0403  -24.9345 H   0  0  0  0  0  0  0  0  0  0  0  0
   22.5473  -19.9423  -16.1498 H   0  0  0  0  0  0  0  0  0  0  0  0
   23.9935  -19.1742  -16.8513 H   0  0  0  0  0  0  0  0  0  0  0  0
   24.0683  -20.9702  -18.5986 H   0  0  0  0  0  0  0  0  0  0  0  0
   22.6785  -21.7590  -17.8262 H   0  0  0  0  0  0  0  0  0  0  0  0
   23.9921  -22.0286  -15.7181 H   0  0  0  0  0  0  0  0  0  0  0  0
   25.3767  -21.2178  -16.4651 H   0  0  0  0  0  0  0  0  0  0  0  0
   25.5611  -23.0735  -18.1346 H   0  0  0  0  0  0  0  0  0  0  0  0
   24.1845  -23.8901  -17.3696 H   0  0  0  0  0  0  0  0  0  0  0  0
   26.8410  -23.2178  -15.9924 H   0  0  0  0  0  0  0  0  0  0  0  0
   25.4702  -24.0352  -15.2249 H   0  0  0  0  0  0  0  0  0  0  0  0
   25.7212  -25.9483  -16.8194 H   0  0  0  0  0  0  0  0  0  0  0  0
   27.0957  -25.1278  -17.5837 H   0  0  0  0  0  0  0  0  0  0  0  0
   26.9652  -25.9952  -14.6389 H   0  0  0  0  0  0  0  0  0  0  0  0
   28.3376  -25.1791  -15.4030 H   0  0  0  0  0  0  0  0  0  0  0  0
   28.7543  -27.6006  -15.1885 H   0  0  0  0  0  0  0  0  0  0  0  0
   27.2998  -27.9674  -16.1330 H   0  0  0  0  0  0  0  0  0  0  0  0
   28.6801  -27.1475  -16.9007 H   0  0  0  0  0  0  0  0  0  0  0  0
  1  2  1  0  0  0  0 
  1  3  1  0  0  0  0 
  2  4  1  0  0  0  0 
  3  5  1  0  0  0  0 
  3  6  1  0  0  0  0 
  4  7  1  0  0  0  0 
  5  8  2  0  0  0  0 
  6  9  2  0  0  0  0 
  7 10  1  0  0  0  0 
  8 11  1  0  0  0  0 
  9 11  1  0  0  0  0 
 10 12  1  0  0  0  0 
 11 13  2  0  0  0  0 
 12 14  1  0  0  0  0 
 13 15  1  0  0  0  0 
 14 16  1  0  0  0  0 
 15 17  1  0  0  0  0 
 16 18  1  0  0  0  0 
 17 19  1  0  0  0  0 
 18 20  1  0  0  0  0 
 19 21  1  0  0  0  0 
 20 22  1  0  0  0  0 
 21 23  1  0  0  0  0 
 22 24  1  0  0  0  0 
 22 25  1  0  0  0  0 
 23 26  1  0  0  0  0 
 24 27  2  0  0  0  0 
 25 28  2  0  0  0  0 
 26 29  1  0  0  0  0 
 27 30  1  0  0  0  0 
 28 30  1  0  0  0  0 
 29 31  1  0  0  0  0 
 30 32  2  0  0  0  0 
 32 33  1  0  0  0  0 
 33 34  1  0  0  0  0 
 34 35  1  0  0  0  0 
 35 36  1  0  0  0  0 
 36 37  1  0  0  0  0 
 37 38  1  0  0  0  0 
 38 39  1  0  0  0  0 
 39 40  1  0  0  0  0 
  1 41  1  0  0  0  0 
  1 42  1  0  0  0  0 
  2 43  1  0  0  0  0 
  2 44  1  0  0  0  0 
  4 45  1  0  0  0  0 
  4 46  1  0  0  0  0 
  5 47  1  0  0  0  0 
  6 48  1  0  0  0  0 
  7 49  1  0  0  0  0 
  7 50  1  0  0  0  0 
  8 51  1  0  0  0  0 
  9 52  1  0  0  0  0 
 10 53  1  0  0  0  0 
 10 54  1  0  0  0  0 
 12 55  1  0  0  0  0 
 12 56  1  0  0  0  0 
 14 57  1  0  0  0  0 
 14 58  1  0  0  0  0 
 15 59  1  0  0  0  0 
 15 60  1  0  0  0  0 
 16 61  1  0  0  0  0 
 16 62  1  0  0  0  0 
 17 63  1  0  0  0  0 
 17 64  1  0  0  0  0 
 18 65  1  0  0  0  0 
 18 66  1  0  0  0  0 
 19 67  1  0  0  0  0 
 19 68  1  0  0  0  0 
 20 69  1  0  0  0  0 
 20 70  1  0  0  0  0 
 21 71  1  0  0  0  0 
 21 72  1  0  0  0  0 
 23 73  1  0  0  0  0 
 23 74  1  0  0  0  0 
 24 75  1  0  0  0  0 
 25 76  1  0  0  0  0 
 26 77  1  0  0  0  0 
 26 78  1  0  0  0  0 
 27 79  1  0  0  0  0 
 28 80  1  0  0  0  0 
 29 81  1  0  0  0  0 
 29 82  1  0  0  0  0 
 31 83  1  0  0  0  0 
 31 84  1  0  0  0  0 
 31 85  1  0  0  0  0 
 33 86  1  0  0  0  0 
 33 87  1  0  0  0  0 
 34 88  1  0  0  0  0 
 34 89  1  0  0  0  0 
 35 90  1  0  0  0  0 
 35 91  1  0  0  0  0 
 36 92  1  0  0  0  0 
 36 93  1  0  0  0  0 
 37 94  1  0  0  0  0 
 37 95  1  0  0  0  0 
 38 96  1  0  0  0  0 
 38 97  1  0  0  0  0 
 39 98  1  0  0  0  0 
 39 99  1  0  0  0  0 
 40100  1  0  0  0  0 
 40101  1  0  0  0  0 
 40102  1  0  0  0  0 
M  END
> <cdk:Title>
octenidine

> <Conformer>
1

> <SuperDrugID>
SD002922

$$$$
