tipepidine
  CDK     0628171801

 35 37  0  0  0  0  0  0  0  0999 V2000
   -2.3529   -0.2948   -0.6741 C   0  0  0  0  0  0  0  0  0  0  0  0
   -1.1552   -0.7102   -0.1765 C   0  0  0  0  0  0  0  0  0  0  0  0
   -3.3617    0.1752    0.1505 C   0  0  0  0  0  0  0  0  0  0  0  0
   -2.6700   -0.2607   -2.0293 C   0  0  0  0  0  0  0  0  0  0  0  0
   -0.1207   -1.3919   -0.9756 C   0  0  1  0  0  0  0  0  0  0  0  0
   -0.7231   -0.4935    1.2199 C   0  0  1  0  0  0  0  0  0  0  0  0
   -3.7178    1.5066    0.4108 C   0  0  0  0  0  0  0  0  0  0  0  0
   -4.4437   -0.8272    1.1021 S   0  0  0  0  0  0  0  0  0  0  0  0
   -3.7908   -0.8088   -2.6765 C   0  0  0  0  0  0  0  0  0  0  0  0
   -1.7831    0.6250   -3.2624 S   0  0  0  0  0  0  0  0  0  0  0  0
    1.1092   -0.5400   -1.0461 N   0  0  2  0  0  0  0  0  0  0  0  0
    0.5576    0.3844    1.2280 C   0  0  1  0  0  0  0  0  0  0  0  0
   -4.7854    1.6817    1.3140 C   0  0  0  0  0  0  0  0  0  0  0  0
   -5.3357    0.5005    1.8182 C   0  0  0  0  0  0  0  0  0  0  0  0
   -3.9131   -0.5102   -4.0462 C   0  0  0  0  0  0  0  0  0  0  0  0
   -2.9019    0.2965   -4.5686 C   0  0  0  0  0  0  0  0  0  0  0  0
    2.1419   -1.0961   -1.9651 C   0  0  0  0  0  0  0  0  0  0  0  0
    1.6569   -0.2098    0.3106 C   0  0  1  0  0  0  0  0  0  0  0  0
    0.1231   -2.3534   -0.5066 H   0  0  0  0  0  0  0  0  0  0  0  0
   -0.4640   -1.6392   -1.9818 H   0  0  0  0  0  0  0  0  0  0  0  0
   -1.4632    0.0130    1.8399 H   0  0  0  0  0  0  0  0  0  0  0  0
   -0.5165   -1.4527    1.7042 H   0  0  0  0  0  0  0  0  0  0  0  0
   -3.2307    2.2965   -0.0179 H   0  0  0  0  0  0  0  0  0  0  0  0
   -4.4836   -1.3771   -2.1854 H   0  0  0  0  0  0  0  0  0  0  0  0
    0.3075    1.3901    0.8797 H   0  0  0  0  0  0  0  0  0  0  0  0
    0.9452    0.4706    2.2457 H   0  0  0  0  0  0  0  0  0  0  0  0
   -5.1352    2.6045    1.5800 H   0  0  0  0  0  0  0  0  0  0  0  0
   -6.1155    0.4194    2.4714 H   0  0  0  0  0  0  0  0  0  0  0  0
   -4.6923   -0.8433   -4.6148 H   0  0  0  0  0  0  0  0  0  0  0  0
   -2.8286    0.6397   -5.5261 H   0  0  0  0  0  0  0  0  0  0  0  0
    1.7301   -1.2147   -2.9706 H   0  0  0  0  0  0  0  0  0  0  0  0
    2.9960   -0.4199   -2.0388 H   0  0  0  0  0  0  0  0  0  0  0  0
    2.4962   -2.0675   -1.6114 H   0  0  0  0  0  0  0  0  0  0  0  0
    2.0687   -1.1059    0.7863 H   0  0  0  0  0  0  0  0  0  0  0  0
    2.4599    0.5286    0.2235 H   0  0  0  0  0  0  0  0  0  0  0  0
  1  2  2  0  0  0  0 
  1  3  1  0  0  0  0 
  1  4  1  0  0  0  0 
  2  5  1  0  0  0  0 
  2  6  1  0  0  0  0 
  3  7  2  0  0  0  0 
  3  8  1  0  0  0  0 
  4  9  2  0  0  0  0 
  4 10  1  0  0  0  0 
  5 11  1  0  0  0  0 
  6 12  1  0  0  0  0 
  7 13  1  0  0  0  0 
  8 14  1  0  0  0  0 
  9 15  1  0  0  0  0 
 10 16  1  0  0  0  0 
 11 17  1  0  0  0  0 
 11 18  1  0  0  0  0 
 12 18  1  0  0  0  0 
 13 14  2  0  0  0  0 
 15 16  2  0  0  0  0 
  5 19  1  0  0  0  0 
  5 20  1  0  0  0  0 
  6 21  1  0  0  0  0 
  6 22  1  0  0  0  0 
  7 23  1  0  0  0  0 
  9 24  1  0  0  0  0 
 12 25  1  0  0  0  0 
 12 26  1  0  0  0  0 
 13 27  1  0  0  0  0 
 14 28  1  0  0  0  0 
 15 29  1  0  0  0  0 
 16 30  1  0  0  0  0 
 17 31  1  0  0  0  0 
 17 32  1  0  0  0  0 
 17 33  1  0  0  0  0 
 18 34  1  0  0  0  0 
 18 35  1  0  0  0  0 
M  END
> <cdk:Title>
tipepidine

> <Conformer>
1

> <SuperDrugID>
SD000209

$$$$
