carmustine
  CDK     0628171802

 21 20  0  0  0  0  0  0  0  0999 V2000
   -0.2793    0.9480    0.5439 N   0  0  0  0  0  0  0  0  0  0  0  0
   -1.5567    0.7178    0.0651 C   0  0  0  0  0  0  0  0  0  0  0  0
    0.1775    2.2168    1.0677 C   0  0  1  0  0  0  0  0  0  0  0  0
    0.5781    0.0010    0.5059 N   0  0  0  0  0  0  0  0  0  0  0  0
   -2.5164    1.6929    0.0415 N   0  0  0  0  0  0  0  0  0  0  0  0
   -1.8562   -0.4226   -0.3705 O   0  0  0  0  0  0  0  0  0  0  0  0
    0.1158    2.2506    2.6138 C   0  0  2  0  0  0  0  0  0  0  0  0
    0.7138   -0.7597    1.3814 O   0  0  0  0  0  0  0  0  0  0  0  0
   -3.8301    1.5393   -0.4979 C   0  0  1  0  0  0  0  0  0  0  0  0
    0.6932    3.7901    3.2439 Cl  0  0  0  0  0  0  0  0  0  0  0  0
   -4.5586    2.8988   -0.5395 C   0  0  1  0  0  0  0  0  0  0  0  0
   -6.1921    2.7178   -1.1712 Cl  0  0  0  0  0  0  0  0  0  0  0  0
    1.2091    2.4006    0.7491 H   0  0  0  0  0  0  0  0  0  0  0  0
   -0.4089    3.0475    0.6676 H   0  0  0  0  0  0  0  0  0  0  0  0
   -2.2976    2.5558    0.4249 H   0  0  0  0  0  0  0  0  0  0  0  0
    0.7393    1.4600    3.0349 H   0  0  0  0  0  0  0  0  0  0  0  0
   -0.9118    2.1018    2.9507 H   0  0  0  0  0  0  0  0  0  0  0  0
   -3.7663    1.1433   -1.5160 H   0  0  0  0  0  0  0  0  0  0  0  0
   -4.3942    0.8397    0.1252 H   0  0  0  0  0  0  0  0  0  0  0  0
   -4.6207    3.3220    0.4652 H   0  0  0  0  0  0  0  0  0  0  0  0
   -4.0165    3.5971   -1.1821 H   0  0  0  0  0  0  0  0  0  0  0  0
  1  2  1  0  0  0  0 
  1  3  1  0  0  0  0 
  1  4  1  0  0  0  0 
  2  5  1  0  0  0  0 
  2  6  2  0  0  0  0 
  3  7  1  0  0  0  0 
  4  8  2  0  0  0  0 
  5  9  1  0  0  0  0 
  7 10  1  0  0  0  0 
  9 11  1  0  0  0  0 
 11 12  1  0  0  0  0 
 13  3  1  0  0  0  0 
 14  3  1  0  0  0  0 
 15  5  1  0  0  0  0 
 16  7  1  0  0  0  0 
 17  7  1  0  0  0  0 
 18  9  1  0  0  0  0 
 19  9  1  0  0  0  0 
 20 11  1  0  0  0  0 
 21 11  1  0  0  0  0 
M  END
> <cdk:Title>
carmustine

> <Conformer>
1

> <SuperDrugID>
SD000442

$$$$
