phenylbutanoic acid
  CDK     0628171801

 24 24  0  0  0  0  0  0  0  0999 V2000
    2.1449    1.0214    0.5692 O   0  0  0  0  0  0  0  0  0  0  0  0
    1.7812   -0.1051   -0.0898 C   0  0  0  0  0  0  0  0  0  0  0  0
    2.2902   -0.3406   -1.2085 O   0  0  0  0  0  0  0  0  0  0  0  0
    0.8042   -1.0392    0.5022 C   0  0  1  0  0  0  0  0  0  0  0  0
   -0.6065   -0.4061    0.6081 C   0  0  1  0  0  0  0  0  0  0  0  0
   -1.6274   -1.3266    1.3292 C   0  0  2  0  0  0  0  0  0  0  0  0
   -2.9700   -0.6872    1.3822 C   0  0  0  0  0  0  0  0  0  0  0  0
   -3.9031   -0.8907    0.3387 C   0  0  0  0  0  0  0  0  0  0  0  0
   -5.1461   -0.2317    0.3504 C   0  0  0  0  0  0  0  0  0  0  0  0
   -5.4760    0.6284    1.4139 C   0  0  0  0  0  0  0  0  0  0  0  0
   -4.5627    0.8300    2.4650 C   0  0  0  0  0  0  0  0  0  0  0  0
   -3.3195    0.1706    2.4520 C   0  0  0  0  0  0  0  0  0  0  0  0
    2.8005    1.6379    0.1783 H   0  0  0  0  0  0  0  0  0  0  0  0
    0.7371   -1.9414   -0.1120 H   0  0  0  0  0  0  0  0  0  0  0  0
    1.1570   -1.3312    1.4941 H   0  0  0  0  0  0  0  0  0  0  0  0
   -0.5394    0.5382    1.1580 H   0  0  0  0  0  0  0  0  0  0  0  0
   -0.9700   -0.1873   -0.4027 H   0  0  0  0  0  0  0  0  0  0  0  0
   -1.2734   -1.5334    2.3426 H   0  0  0  0  0  0  0  0  0  0  0  0
   -1.6868   -2.2868    0.8094 H   0  0  0  0  0  0  0  0  0  0  0  0
   -3.6782   -1.5117   -0.4430 H   0  0  0  0  0  0  0  0  0  0  0  0
   -5.8083   -0.3739   -0.4166 H   0  0  0  0  0  0  0  0  0  0  0  0
   -6.3777    1.1090    1.4213 H   0  0  0  0  0  0  0  0  0  0  0  0
   -4.8013    1.4598    3.2356 H   0  0  0  0  0  0  0  0  0  0  0  0
   -2.6663    0.3296    3.2237 H   0  0  0  0  0  0  0  0  0  0  0  0
  1  2  1  0  0  0  0 
  2  3  2  0  0  0  0 
  2  4  1  0  0  0  0 
  4  5  1  0  0  0  0 
  5  6  1  0  0  0  0 
  6  7  1  0  0  0  0 
  7  8  2  0  0  0  0 
  8  9  1  0  0  0  0 
  9 10  2  0  0  0  0 
 10 11  1  0  0  0  0 
 11 12  2  0  0  0  0 
  7 12  1  0  0  0  0 
  1 13  1  0  0  0  0 
  4 14  1  0  0  0  0 
  4 15  1  0  0  0  0 
  5 16  1  0  0  0  0 
  5 17  1  0  0  0  0 
  6 18  1  0  0  0  0 
  6 19  1  0  0  0  0 
  8 20  1  0  0  0  0 
  9 21  1  0  0  0  0 
 10 22  1  0  0  0  0 
 11 23  1  0  0  0  0 
 12 24  1  0  0  0  0 
M  END
> <cdk:Title>
phenylbutanoic acid

> <Conformer>
1

> <SuperDrugID>
SD000007

$$$$
