desipramine
  CDK     0628171802

 42 44  0  0  0  0  0  0  0  0999 V2000
   -0.5081    0.9146    4.2280 C   0  0  2  0  0  0  0  0  0  0  0  0
   -0.8501    0.5850    2.7448 C   0  0  2  0  0  0  0  0  0  0  0  0
   -1.6173    0.8893    5.1718 N   0  0  0  0  0  0  0  0  0  0  0  0
    0.3726    0.7464    1.8083 C   0  0  1  0  0  0  0  0  0  0  0  0
   -1.4472    0.4649    6.4787 C   0  0  0  0  0  0  0  0  0  0  0  0
   -2.8330    1.4226    4.8195 C   0  0  0  0  0  0  0  0  0  0  0  0
   -0.0288    0.5515    0.3978 N   0  0  1  0  0  0  0  0  0  0  0  0
   -2.3369   -0.4357    7.1479 C   0  0  0  0  0  0  0  0  0  0  0  0
   -0.3525    1.0052    7.2029 C   0  0  0  0  0  0  0  0  0  0  0  0
   -3.9795    0.5935    4.7293 C   0  0  0  0  0  0  0  0  0  0  0  0
   -2.9437    2.8018    4.5278 C   0  0  0  0  0  0  0  0  0  0  0  0
    1.0557    0.7822   -0.5758 C   0  0  0  0  0  0  0  0  0  0  0  0
   -3.5429   -1.0874    6.5451 C   0  0  2  0  0  0  0  0  0  0  0  0
   -2.0911   -0.7474    8.5101 C   0  0  0  0  0  0  0  0  0  0  0  0
   -0.1289    0.6783    8.5474 C   0  0  0  0  0  0  0  0  0  0  0  0
   -3.8596   -0.8508    5.0479 C   0  0  1  0  0  0  0  0  0  0  0  0
   -5.2153    1.1587    4.3374 C   0  0  0  0  0  0  0  0  0  0  0  0
   -4.1748    3.3508    4.1297 C   0  0  0  0  0  0  0  0  0  0  0  0
   -1.0011   -0.1982    9.2039 C   0  0  0  0  0  0  0  0  0  0  0  0
   -5.3096    2.5278    4.0317 C   0  0  0  0  0  0  0  0  0  0  0  0
   -0.0620    1.9117    4.2658 H   0  0  0  0  0  0  0  0  0  0  0  0
    0.2651    0.2063    4.5401 H   0  0  0  0  0  0  0  0  0  0  0  0
   -1.6339    1.2552    2.3893 H   0  0  0  0  0  0  0  0  0  0  0  0
   -1.2268   -0.4381    2.6772 H   0  0  0  0  0  0  0  0  0  0  0  0
    0.7904    1.7492    1.9337 H   0  0  0  0  0  0  0  0  0  0  0  0
    1.1344    0.0127    2.0785 H   0  0  0  0  0  0  0  0  0  0  0  0
   -0.3234   -0.4223    0.2995 H   0  0  0  0  0  0  0  0  0  0  0  0
    0.2916    1.6643    6.7592 H   0  0  0  0  0  0  0  0  0  0  0  0
   -2.1263    3.4128    4.6036 H   0  0  0  0  0  0  0  0  0  0  0  0
    0.6776    0.5726   -1.5755 H   0  0  0  0  0  0  0  0  0  0  0  0
    1.3863    1.8214   -0.5434 H   0  0  0  0  0  0  0  0  0  0  0  0
    1.9041    0.1256   -0.3787 H   0  0  0  0  0  0  0  0  0  0  0  0
   -4.4159   -0.7666    7.1237 H   0  0  0  0  0  0  0  0  0  0  0  0
   -3.4464   -2.1701    6.6789 H   0  0  0  0  0  0  0  0  0  0  0  0
   -2.7130   -1.3813    9.0184 H   0  0  0  0  0  0  0  0  0  0  0  0
    0.6631    1.0858    9.0508 H   0  0  0  0  0  0  0  0  0  0  0  0
   -4.7851   -1.3823    4.8117 H   0  0  0  0  0  0  0  0  0  0  0  0
   -3.0761   -1.2996    4.4333 H   0  0  0  0  0  0  0  0  0  0  0  0
   -6.0560    0.5816    4.2732 H   0  0  0  0  0  0  0  0  0  0  0  0
   -4.2444    4.3471    3.9091 H   0  0  0  0  0  0  0  0  0  0  0  0
   -0.8474   -0.4334   10.1878 H   0  0  0  0  0  0  0  0  0  0  0  0
   -6.2040    2.9271    3.7400 H   0  0  0  0  0  0  0  0  0  0  0  0
  1  2  1  0  0  0  0 
  1  3  1  0  0  0  0 
  2  4  1  0  0  0  0 
  3  5  1  0  0  0  0 
  3  6  1  0  0  0  0 
  4  7  1  0  0  0  0 
  5  8  2  0  0  0  0 
  5  9  1  0  0  0  0 
  6 10  2  0  0  0  0 
  6 11  1  0  0  0  0 
  7 12  1  0  0  0  0 
  8 13  1  0  0  0  0 
  8 14  1  0  0  0  0 
  9 15  2  0  0  0  0 
 10 16  1  0  0  0  0 
 10 17  1  0  0  0  0 
 11 18  2  0  0  0  0 
 13 16  1  0  0  0  0 
 14 19  2  0  0  0  0 
 15 19  1  0  0  0  0 
 17 20  2  0  0  0  0 
 18 20  1  0  0  0  0 
  1 21  1  0  0  0  0 
  1 22  1  0  0  0  0 
  2 23  1  0  0  0  0 
  2 24  1  0  0  0  0 
  4 25  1  0  0  0  0 
  4 26  1  0  0  0  0 
  7 27  1  0  0  0  0 
  9 28  1  0  0  0  0 
 11 29  1  0  0  0  0 
 12 30  1  0  0  0  0 
 12 31  1  0  0  0  0 
 12 32  1  0  0  0  0 
 13 33  1  0  0  0  0 
 13 34  1  0  0  0  0 
 14 35  1  0  0  0  0 
 15 36  1  0  0  0  0 
 16 37  1  0  0  0  0 
 16 38  1  0  0  0  0 
 17 39  1  0  0  0  0 
 18 40  1  0  0  0  0 
 19 41  1  0  0  0  0 
 20 42  1  0  0  0  0 
M  END
> <cdk:Title>
desipramine

> <Conformer>
1

> <SuperDrugID>
SD000717

$$$$
