topotecan
  CDK     0628171801

 54 58  0  0  0  0  0  0  0  0999 V2000
   -0.2360    2.8836   -5.9066 C   0  0  2  0  0  0  0  0  0  0  0  0
   -1.3919    3.1318   -4.9052 C   0  0  0  0  0  0  0  0  0  0  0  0
    1.1134    3.6065   -5.5571 C   0  0  2  0  0  0  0  0  0  0  0  0
    2.0854    3.2634   -6.5526 O   0  0  0  0  0  0  0  0  0  0  0  0
    1.6710    3.1637   -4.2298 C   0  0  0  0  0  0  0  0  0  0  0  0
    0.9386    5.0809   -5.6559 C   0  0  0  0  0  0  0  0  0  0  0  0
    1.8432    4.0632   -3.1359 C   0  0  0  0  0  0  0  0  0  0  0  0
    2.0413    1.8064   -4.0524 C   0  0  0  0  0  0  0  0  0  0  0  0
    0.6188    5.6201   -6.7401 O   0  0  0  0  0  0  0  0  0  0  0  0
    1.0644    5.8964   -4.5802 O   0  0  0  0  0  0  0  0  0  0  0  0
    2.3835    3.5809   -1.9117 C   0  0  0  0  0  0  0  0  0  0  0  0
    1.4660    5.4957   -3.2684 C   0  0  1  0  0  0  0  0  0  0  0  0
    2.5966    1.4053   -2.8287 C   0  0  0  0  0  0  0  0  0  0  0  0
    2.5345    4.3478   -0.9303 O   0  0  0  0  0  0  0  0  0  0  0  0
    2.7560    2.2716   -1.8012 N   0  0  0  0  0  0  0  0  0  0  0  0
    3.0723    0.1594   -2.4528 C   0  0  0  0  0  0  0  0  0  0  0  0
    3.3650    1.6365   -0.6609 C   0  0  1  0  0  0  0  0  0  0  0  0
    3.5499    0.2657   -1.1543 C   0  0  0  0  0  0  0  0  0  0  0  0
    3.1328   -1.0079   -3.1311 N   0  0  0  0  0  0  0  0  0  0  0  0
    4.1125   -0.8596   -0.5244 C   0  0  0  0  0  0  0  0  0  0  0  0
    3.6676   -2.1213   -2.5569 C   0  0  0  0  0  0  0  0  0  0  0  0
    4.1866   -2.0985   -1.2218 C   0  0  0  0  0  0  0  0  0  0  0  0
    3.6867   -3.3044   -3.3125 C   0  0  0  0  0  0  0  0  0  0  0  0
    4.7317   -3.2960   -0.6619 C   0  0  0  0  0  0  0  0  0  0  0  0
    4.2095   -4.4791   -2.7580 C   0  0  0  0  0  0  0  0  0  0  0  0
    5.3137   -3.3364    0.7199 C   0  0  2  0  0  0  0  0  0  0  0  0
    4.7257   -4.4791   -1.4514 C   0  0  0  0  0  0  0  0  0  0  0  0
    6.5787   -2.5429    0.8576 N   0  0  1  0  0  0  0  0  0  0  0  0
    5.2188   -5.6634   -1.0059 O   0  0  0  0  0  0  0  0  0  0  0  0
    7.0404   -2.4265    2.2744 C   0  0  0  0  0  0  0  0  0  0  0  0
    7.6838   -2.9829   -0.0489 C   0  0  0  0  0  0  0  0  0  0  0  0
   -0.5704    3.1975   -6.9020 H   0  0  0  0  0  0  0  0  0  0  0  0
   -0.0750    1.8037   -5.9662 H   0  0  0  0  0  0  0  0  0  0  0  0
   -2.2964    2.6306   -5.2524 H   0  0  0  0  0  0  0  0  0  0  0  0
   -1.5995    4.1985   -4.8188 H   0  0  0  0  0  0  0  0  0  0  0  0
   -1.1396    2.7374   -3.9200 H   0  0  0  0  0  0  0  0  0  0  0  0
    1.6789    3.5079   -7.4117 H   0  0  0  0  0  0  0  0  0  0  0  0
    1.9222    1.1210   -4.8010 H   0  0  0  0  0  0  0  0  0  0  0  0
    0.6502    5.7191   -2.5771 H   0  0  0  0  0  0  0  0  0  0  0  0
    2.3189    6.1209   -3.0004 H   0  0  0  0  0  0  0  0  0  0  0  0
    4.3296    2.0938   -0.4238 H   0  0  0  0  0  0  0  0  0  0  0  0
    2.7066    1.6478    0.2118 H   0  0  0  0  0  0  0  0  0  0  0  0
    4.4579   -0.7594    0.4309 H   0  0  0  0  0  0  0  0  0  0  0  0
    3.3190   -3.3161   -4.2672 H   0  0  0  0  0  0  0  0  0  0  0  0
    4.2176   -5.3373   -3.3146 H   0  0  0  0  0  0  0  0  0  0  0  0
    5.5078   -4.3598    1.0527 H   0  0  0  0  0  0  0  0  0  0  0  0
    4.5514   -2.9458    1.4001 H   0  0  0  0  0  0  0  0  0  0  0  0
    6.1126   -5.4585   -0.6626 H   0  0  0  0  0  0  0  0  0  0  0  0
    7.8260   -1.6707    2.3462 H   0  0  0  0  0  0  0  0  0  0  0  0
    6.2252   -2.1095    2.9299 H   0  0  0  0  0  0  0  0  0  0  0  0
    7.4357   -3.3772    2.6466 H   0  0  0  0  0  0  0  0  0  0  0  0
    7.3798   -2.9130   -1.0942 H   0  0  0  0  0  0  0  0  0  0  0  0
    8.5591   -2.3416    0.0679 H   0  0  0  0  0  0  0  0  0  0  0  0
    7.9753   -4.0161    0.1557 H   0  0  0  0  0  0  0  0  0  0  0  0
  1  2  1  0  0  0  0 
  3  1  1  0  0  0  0 
  3  4  1  0  0  0  0 
  3  5  1  0  0  0  0 
  3  6  1  0  0  0  0 
  5  7  2  0  0  0  0 
  5  8  1  0  0  0  0 
  6  9  2  0  0  0  0 
  6 10  1  0  0  0  0 
  7 11  1  0  0  0  0 
  7 12  1  0  0  0  0 
  8 13  2  0  0  0  0 
 10 12  1  0  0  0  0 
 11 14  2  0  0  0  0 
 11 15  1  0  0  0  0 
 13 15  1  0  0  0  0 
 13 16  1  0  0  0  0 
 15 17  1  0  0  0  0 
 16 18  2  0  0  0  0 
 16 19  1  0  0  0  0 
 17 18  1  0  0  0  0 
 18 20  1  0  0  0  0 
 19 21  2  0  0  0  0 
 20 22  2  0  0  0  0 
 21 22  1  0  0  0  0 
 21 23  1  0  0  0  0 
 22 24  1  0  0  0  0 
 23 25  2  0  0  0  0 
 24 26  1  0  0  0  0 
 24 27  2  0  0  0  0 
 25 27  1  0  0  0  0 
 26 28  1  0  0  0  0 
 27 29  1  0  0  0  0 
 28 30  1  0  0  0  0 
 28 31  1  0  0  0  0 
  1 32  1  0  0  0  0 
  1 33  1  0  0  0  0 
  2 34  1  0  0  0  0 
  2 35  1  0  0  0  0 
  2 36  1  0  0  0  0 
  4 37  1  0  0  0  0 
  8 38  1  0  0  0  0 
 12 39  1  0  0  0  0 
 12 40  1  0  0  0  0 
 17 41  1  0  0  0  0 
 17 42  1  0  0  0  0 
 20 43  1  0  0  0  0 
 23 44  1  0  0  0  0 
 25 45  1  0  0  0  0 
 26 46  1  0  0  0  0 
 26 47  1  0  0  0  0 
 29 48  1  0  0  0  0 
 30 49  1  0  0  0  0 
 30 50  1  0  0  0  0 
 30 51  1  0  0  0  0 
 31 52  1  0  0  0  0 
 31 53  1  0  0  0  0 
 31 54  1  0  0  0  0 
M  END
> <cdk:Title>
topotecan

> <Conformer>
1

> <SuperDrugID>
SD002438

$$$$
