naloxone
  CDK     0628171801

 45 49  0  0  0  0  0  0  0  0999 V2000
    0.0359   -2.7080   -0.1764 O   0  0  0  0  0  0  0  0  0  0  0  0
   -0.0988   -2.9959    1.2205 C   0  0  1  0  0  0  0  0  0  0  0  0
    0.5317   -4.3960    1.5421 C   0  0  1  0  0  0  0  0  0  0  0  0
    0.7414   -1.9583    2.0557 C   0  0  1  0  0  0  0  0  0  0  0  0
   -1.6377   -2.9663    1.5045 C   0  0  1  0  0  0  0  0  0  0  0  0
    0.4739   -4.6338    2.9875 C   0  0  0  0  0  0  0  0  0  0  0  0
   -0.2880   -5.6594    1.1120 C   0  0  1  0  0  0  0  0  0  0  0  0
    2.0242   -4.4393    1.0565 C   0  0  1  0  0  0  0  0  0  0  0  0
    0.6624   -2.2171    3.6059 C   0  0  1  0  0  0  0  0  0  0  0  0
    2.1961   -1.9483    1.6241 N   0  0  1  0  0  0  0  0  0  0  0  0
   -2.3655   -4.1081    0.7471 C   0  0  2  0  0  0  0  0  0  0  0  0
    0.1995   -5.9649    3.2630 C   0  0  0  0  0  0  0  0  0  0  0  0
    0.5701   -3.6523    3.9931 C   0  0  0  0  0  0  0  0  0  0  0  0
   -0.0186   -6.6739    2.1207 O   0  0  0  0  0  0  0  0  0  0  0  0
   -1.7622   -5.4418    0.9898 C   0  0  0  0  0  0  0  0  0  0  0  0
    2.8758   -3.2891    1.6626 C   0  0  1  0  0  0  0  0  0  0  0  0
    2.5771   -1.1022    0.4468 C   0  0  1  0  0  0  0  0  0  0  0  0
    0.1337   -6.4045    4.5992 C   0  0  0  0  0  0  0  0  0  0  0  0
    0.4932   -4.0884    5.3360 C   0  0  0  0  0  0  0  0  0  0  0  0
   -2.5207   -6.4398    1.0192 O   0  0  0  0  0  0  0  0  0  0  0  0
    2.1108    0.2685    0.5662 C   0  0  0  0  0  0  0  0  0  0  0  0
   -0.0815   -7.7067    4.9020 O   0  0  0  0  0  0  0  0  0  0  0  0
    0.2860   -5.4548    5.6354 C   0  0  0  0  0  0  0  0  0  0  0  0
    1.1990    0.8124   -0.2489 C   0  0  0  0  0  0  0  0  0  0  0  0
    0.0589   -6.0276    0.1431 H   0  0  0  0  0  0  0  0  0  0  0  0
    0.2944   -0.9742    1.9001 H   0  0  0  0  0  0  0  0  0  0  0  0
   -0.2781   -1.7844   -0.2836 H   0  0  0  0  0  0  0  0  0  0  0  0
   -1.8430   -3.0716    2.5730 H   0  0  0  0  0  0  0  0  0  0  0  0
   -2.0569   -2.0040    1.1917 H   0  0  0  0  0  0  0  0  0  0  0  0
    2.4863   -5.3950    1.3199 H   0  0  0  0  0  0  0  0  0  0  0  0
    2.0552   -4.3631   -0.0333 H   0  0  0  0  0  0  0  0  0  0  0  0
    1.5283   -1.7649    4.0966 H   0  0  0  0  0  0  0  0  0  0  0  0
   -0.2295   -1.7202    3.9990 H   0  0  0  0  0  0  0  0  0  0  0  0
   -2.3273   -3.9117   -0.3269 H   0  0  0  0  0  0  0  0  0  0  0  0
   -3.4195   -4.1075    1.0434 H   0  0  0  0  0  0  0  0  0  0  0  0
    3.0964   -3.5297    2.7043 H   0  0  0  0  0  0  0  0  0  0  0  0
    3.8451   -3.2666    1.1590 H   0  0  0  0  0  0  0  0  0  0  0  0
    3.6667   -1.0471    0.3826 H   0  0  0  0  0  0  0  0  0  0  0  0
    2.2365   -1.5729   -0.4784 H   0  0  0  0  0  0  0  0  0  0  0  0
    0.5730   -3.4125    6.0997 H   0  0  0  0  0  0  0  0  0  0  0  0
    2.4771    0.8205    1.3087 H   0  0  0  0  0  0  0  0  0  0  0  0
    0.1997   -8.2086    4.1101 H   0  0  0  0  0  0  0  0  0  0  0  0
    0.2277   -5.7535    6.6129 H   0  0  0  0  0  0  0  0  0  0  0  0
    0.8027    0.2949   -0.9977 H   0  0  0  0  0  0  0  0  0  0  0  0
    0.9030    1.7481   -0.1076 H   0  0  0  0  0  0  0  0  0  0  0  0
  2  1  1  0  0  0  0 
  3  2  1  0  0  0  0 
  2  4  1  0  0  0  0 
  2  5  1  0  0  0  0 
  3  6  1  0  0  0  0 
  7  3  1  0  0  0  0 
  3  8  1  0  0  0  0 
  4  9  1  0  0  0  0 
  4 10  1  0  0  0  0 
  4 26  1  0  0  0  0 
  5 11  1  0  0  0  0 
  6 12  2  0  0  0  0 
  6 13  1  0  0  0  0 
  7 14  1  0  0  0  0 
  7 15  1  0  0  0  0 
  7 25  1  0  0  0  0 
  8 16  1  0  0  0  0 
  9 13  1  0  0  0  0 
 10 16  1  0  0  0  0 
 10 17  1  0  0  0  0 
 11 15  1  0  0  0  0 
 12 14  1  0  0  0  0 
 12 18  1  0  0  0  0 
 13 19  2  0  0  0  0 
 15 20  2  0  0  0  0 
 17 21  1  0  0  0  0 
 18 22  1  0  0  0  0 
 18 23  2  0  0  0  0 
 19 23  1  0  0  0  0 
 21 24  2  0  0  0  0 
  1 27  1  0  0  0  0 
  5 28  1  0  0  0  0 
  5 29  1  0  0  0  0 
  8 30  1  0  0  0  0 
  8 31  1  0  0  0  0 
  9 32  1  0  0  0  0 
  9 33  1  0  0  0  0 
 11 34  1  0  0  0  0 
 11 35  1  0  0  0  0 
 16 36  1  0  0  0  0 
 16 37  1  0  0  0  0 
 17 38  1  0  0  0  0 
 17 39  1  0  0  0  0 
 19 40  1  0  0  0  0 
 21 41  1  0  0  0  0 
 22 42  1  0  0  0  0 
 23 43  1  0  0  0  0 
 24 44  1  0  0  0  0 
 24 45  1  0  0  0  0 
M  END
> <cdk:Title>
naloxone

> <Conformer>
1

> <SuperDrugID>
SD001674

$$$$
