tisopurine
  CDK     0628171801

 14 15  0  0  0  0  0  0  0  0999 V2000
    1.6895    0.0540    0.0000 S   0  0  0  0  0  0  0  0  0  0  0  0
   -0.0129    0.0261    0.0000 C   0  0  0  0  0  0  0  0  0  0  0  0
   -0.6901    1.1779    0.0000 N   0  0  0  0  0  0  0  0  0  0  0  0
   -2.0564    1.2188    0.0000 C   0  0  0  0  0  0  0  0  0  0  0  0
   -2.7789    0.0625    0.0000 N   0  0  0  0  0  0  0  0  0  0  0  0
   -2.1150   -1.1197    0.0000 C   0  0  0  0  0  0  0  0  0  0  0  0
   -2.5811   -2.3789    0.0000 N   0  0  0  0  0  0  0  0  0  0  0  0
   -1.5507   -3.1741    0.0000 N   0  0  0  0  0  0  0  0  0  0  0  0
   -0.3893   -2.4976    0.0000 C   0  0  0  0  0  0  0  0  0  0  0  0
   -0.7259   -1.1544    0.0000 C   0  0  0  0  0  0  0  0  0  0  0  0
   -0.1974    2.0137    0.0000 H   0  0  0  0  0  0  0  0  0  0  0  0
   -2.5359    2.1191    0.0000 H   0  0  0  0  0  0  0  0  0  0  0  0
   -1.6116   -4.1406    0.0000 H   0  0  0  0  0  0  0  0  0  0  0  0
    0.5495   -2.8979    0.0000 H   0  0  0  0  0  0  0  0  0  0  0  0
  1  2  2  0  0  0  0 
  2  3  1  0  0  0  0 
  3  4  1  0  0  0  0 
  4  5  2  0  0  0  0 
  5  6  1  0  0  0  0 
  6  7  2  0  0  0  0 
  7  8  1  0  0  0  0 
  8  9  1  0  0  0  0 
  9 10  2  0  0  0  0 
  2 10  1  0  0  0  0 
  6 10  1  0  0  0  0 
 11  3  1  0  0  0  0 
 12  4  1  0  0  0  0 
 13  8  1  0  0  0  0 
 14  9  1  0  0  0  0 
M  END
> <cdk:Title>
tisopurine

> <Conformer>
1

> <SuperDrugID>
SD002414

$$$$
