ketoconazole
  CDK     0628171801

 64 68  0  0  0  0  0  0  0  0999 V2000
    1.7864   -1.7578   -8.0633 C   0  0  2  0  0  0  0  0  0  0  0  0
    1.2489   -3.0015   -7.2829 C   0  0  1  0  0  0  0  0  0  0  0  0
    1.0475   -1.4906   -9.2646 N   0  0  0  0  0  0  0  0  0  0  0  0
    2.1183   -3.3010   -6.1709 O   0  0  0  0  0  0  0  0  0  0  0  0
   -0.0180   -2.5890   -6.7373 O   0  0  0  0  0  0  0  0  0  0  0  0
    1.2193   -4.2273   -8.1650 C   0  0  0  0  0  0  0  0  0  0  0  0
    1.4775   -1.6771  -10.5237 C   0  0  0  0  0  0  0  0  0  0  0  0
   -0.2121   -1.0143   -9.3478 C   0  0  0  0  0  0  0  0  0  0  0  0
    1.5567   -2.6640   -5.0270 C   0  0  1  0  0  0  0  0  0  0  0  0
    0.0557   -2.7074   -5.3249 C   0  0  2  0  0  0  0  0  0  0  0  0
    0.0446   -4.9264   -8.5799 C   0  0  0  0  0  0  0  0  0  0  0  0
    2.4693   -4.7167   -8.6357 C   0  0  0  0  0  0  0  0  0  0  0  0
    0.4430   -1.3066  -11.3715 C   0  0  0  0  0  0  0  0  0  0  0  0
   -0.5954   -0.8946  -10.6301 N   0  0  0  0  0  0  0  0  0  0  0  0
    1.9339   -3.3858   -3.7175 C   0  0  2  0  0  0  0  0  0  0  0  0
   -1.5425   -4.5052   -8.1434 Cl  0  0  0  0  0  0  0  0  0  0  0  0
    0.1452   -6.0510   -9.4288 C   0  0  0  0  0  0  0  0  0  0  0  0
    2.5595   -5.8261   -9.4913 C   0  0  0  0  0  0  0  0  0  0  0  0
    3.3653   -3.3592   -3.5713 O   0  0  0  0  0  0  0  0  0  0  0  0
    1.3946   -6.4974   -9.8925 C   0  0  0  0  0  0  0  0  0  0  0  0
    3.7817   -3.5458   -2.2838 C   0  0  0  0  0  0  0  0  0  0  0  0
    1.4979   -7.8311  -10.9306 Cl  0  0  0  0  0  0  0  0  0  0  0  0
    4.2631   -2.4291   -1.5748 C   0  0  0  0  0  0  0  0  0  0  0  0
    3.7528   -4.8126   -1.6614 C   0  0  0  0  0  0  0  0  0  0  0  0
    4.7358   -2.5786   -0.2607 C   0  0  0  0  0  0  0  0  0  0  0  0
    4.2176   -4.9579   -0.3409 C   0  0  0  0  0  0  0  0  0  0  0  0
    4.7419   -3.8478    0.3626 C   0  0  0  0  0  0  0  0  0  0  0  0
    5.2735   -3.9809    1.6209 N   0  0  0  0  0  0  0  0  0  0  0  0
    6.3624   -4.9004    1.8716 C   0  0  1  0  0  0  0  0  0  0  0  0
    4.7879   -3.1775    2.7248 C   0  0  1  0  0  0  0  0  0  0  0  0
    6.0583   -5.7568    3.1224 C   0  0  1  0  0  0  0  0  0  0  0  0
    4.5704   -4.0337    4.0015 C   0  0  2  0  0  0  0  0  0  0  0  0
    5.7347   -4.8741    4.2298 N   0  0  0  0  0  0  0  0  0  0  0  0
    6.4931   -4.7880    5.3920 C   0  0  0  0  0  0  0  0  0  0  0  0
    7.7865   -5.4825    5.5929 C   0  0  0  0  0  0  0  0  0  0  0  0
    6.1157   -4.0649    6.3464 O   0  0  0  0  0  0  0  0  0  0  0  0
    2.8439   -1.9050   -8.2993 H   0  0  0  0  0  0  0  0  0  0  0  0
    1.7425   -0.8724   -7.4229 H   0  0  0  0  0  0  0  0  0  0  0  0
    2.3951   -2.0311  -10.8097 H   0  0  0  0  0  0  0  0  0  0  0  0
   -0.8058   -0.7788   -8.5493 H   0  0  0  0  0  0  0  0  0  0  0  0
    1.9094   -1.6268   -4.9800 H   0  0  0  0  0  0  0  0  0  0  0  0
   -0.3913   -3.6615   -5.0274 H   0  0  0  0  0  0  0  0  0  0  0  0
   -0.4727   -1.8849   -4.8383 H   0  0  0  0  0  0  0  0  0  0  0  0
    3.3439   -4.2607   -8.3622 H   0  0  0  0  0  0  0  0  0  0  0  0
    0.4670   -1.3410  -12.3907 H   0  0  0  0  0  0  0  0  0  0  0  0
    1.5943   -4.4250   -3.7612 H   0  0  0  0  0  0  0  0  0  0  0  0
    1.4168   -2.8801   -2.8931 H   0  0  0  0  0  0  0  0  0  0  0  0
   -0.6987   -6.5524   -9.7197 H   0  0  0  0  0  0  0  0  0  0  0  0
    3.4777   -6.1389   -9.8184 H   0  0  0  0  0  0  0  0  0  0  0  0
    4.2738   -1.5065   -2.0195 H   0  0  0  0  0  0  0  0  0  0  0  0
    3.3936   -5.6301   -2.1637 H   0  0  0  0  0  0  0  0  0  0  0  0
    5.0861   -1.7540    0.2333 H   0  0  0  0  0  0  0  0  0  0  0  0
    4.1714   -5.8770    0.1075 H   0  0  0  0  0  0  0  0  0  0  0  0
    6.5613   -5.5654    1.0256 H   0  0  0  0  0  0  0  0  0  0  0  0
    7.2766   -4.3271    2.0556 H   0  0  0  0  0  0  0  0  0  0  0  0
    5.5273   -2.4028    2.9454 H   0  0  0  0  0  0  0  0  0  0  0  0
    3.8458   -2.6791    2.4778 H   0  0  0  0  0  0  0  0  0  0  0  0
    5.2020   -6.4068    2.9157 H   0  0  0  0  0  0  0  0  0  0  0  0
    6.9092   -6.4123    3.3045 H   0  0  0  0  0  0  0  0  0  0  0  0
    3.6890   -4.6677    3.8680 H   0  0  0  0  0  0  0  0  0  0  0  0
    4.3509   -3.3529    4.8279 H   0  0  0  0  0  0  0  0  0  0  0  0
    8.2220   -5.2514    6.5683 H   0  0  0  0  0  0  0  0  0  0  0  0
    7.6461   -6.5634    5.5306 H   0  0  0  0  0  0  0  0  0  0  0  0
    8.4949   -5.1603    4.8262 H   0  0  0  0  0  0  0  0  0  0  0  0
  1  3  1  0  0  0  0 
  2  1  1  0  0  0  0 
  2  4  1  0  0  0  0 
  2  5  1  0  0  0  0 
  2  6  1  0  0  0  0 
  3  7  1  0  0  0  0 
  3  8  1  0  0  0  0 
  9  4  1  0  0  0  0 
  5 10  1  0  0  0  0 
  6 11  2  0  0  0  0 
  6 12  1  0  0  0  0 
  7 13  2  0  0  0  0 
  8 14  2  0  0  0  0 
  9 10  1  0  0  0  0 
  9 15  1  0  0  0  0 
 11 16  1  0  0  0  0 
 11 17  1  0  0  0  0 
 12 18  2  0  0  0  0 
 13 14  1  0  0  0  0 
 15 19  1  0  0  0  0 
 17 20  2  0  0  0  0 
 18 20  1  0  0  0  0 
 19 21  1  0  0  0  0 
 20 22  1  0  0  0  0 
 21 23  2  0  0  0  0 
 21 24  1  0  0  0  0 
 23 25  1  0  0  0  0 
 24 26  2  0  0  0  0 
 25 27  2  0  0  0  0 
 26 27  1  0  0  0  0 
 27 28  1  0  0  0  0 
 28 29  1  0  0  0  0 
 28 30  1  0  0  0  0 
 29 31  1  0  0  0  0 
 30 32  1  0  0  0  0 
 31 33  1  0  0  0  0 
 32 33  1  0  0  0  0 
 33 34  1  0  0  0  0 
 34 35  1  0  0  0  0 
 34 36  2  0  0  0  0 
  1 37  1  0  0  0  0 
  1 38  1  0  0  0  0 
  7 39  1  0  0  0  0 
  8 40  1  0  0  0  0 
  9 41  1  0  0  0  0 
 10 42  1  0  0  0  0 
 10 43  1  0  0  0  0 
 12 44  1  0  0  0  0 
 13 45  1  0  0  0  0 
 15 46  1  0  0  0  0 
 15 47  1  0  0  0  0 
 17 48  1  0  0  0  0 
 18 49  1  0  0  0  0 
 23 50  1  0  0  0  0 
 24 51  1  0  0  0  0 
 25 52  1  0  0  0  0 
 26 53  1  0  0  0  0 
 29 54  1  0  0  0  0 
 29 55  1  0  0  0  0 
 30 56  1  0  0  0  0 
 30 57  1  0  0  0  0 
 31 58  1  0  0  0  0 
 31 59  1  0  0  0  0 
 32 60  1  0  0  0  0 
 32 61  1  0  0  0  0 
 35 62  1  0  0  0  0 
 35 63  1  0  0  0  0 
 35 64  1  0  0  0  0 
M  END
> <cdk:Title>
ketoconazole

> <Conformer>
1

> <SuperDrugID>
SD001350

$$$$
