sulmazole
  CDK     0628171801

 33 35  0  0  0  0  0  0  0  0999 V2000
   -2.1974    2.8797    2.4589 O   0  0  0  0  0  0  0  0  0  0  0  0
   -2.5250    1.9383    3.5000 C   0  0  0  0  0  0  0  0  0  0  0  0
   -2.6922    2.5071    1.2337 C   0  0  0  0  0  0  0  0  0  0  0  0
   -1.9589    1.6561    0.3705 C   0  0  0  0  0  0  0  0  0  0  0  0
   -3.9610    2.9803    0.8401 C   0  0  0  0  0  0  0  0  0  0  0  0
   -2.5348    1.2498   -0.8529 C   0  0  0  0  0  0  0  0  0  0  0  0
   -0.6718    1.2089    0.7245 C   0  0  0  0  0  0  0  0  0  0  0  0
   -4.5326    2.5736   -0.3816 C   0  0  0  0  0  0  0  0  0  0  0  0
   -3.8126    1.7055   -1.2257 C   0  0  0  0  0  0  0  0  0  0  0  0
    0.3729    2.0087    1.0175 N   0  0  0  0  0  0  0  0  0  0  0  0
   -0.3183   -0.0900    0.8348 N   0  0  0  0  0  0  0  0  0  0  0  0
   -6.1405    3.1295   -0.8662 S   0  0  1  0  0  0  0  0  0  0  0  0
    1.4068    1.2182    1.3186 C   0  0  0  0  0  0  0  0  0  0  0  0
    0.9666   -0.0960    1.2182 C   0  0  0  0  0  0  0  0  0  0  0  0
   -7.3013    2.5789    0.4404 C   0  0  0  0  0  0  0  0  0  0  0  0
   -6.1225    4.7286   -0.7361 O   0  0  0  0  0  0  0  0  0  0  0  0
    2.7329    1.4977    1.6807 C   0  0  0  0  0  0  0  0  0  0  0  0
    1.7944   -1.1358    1.4917 N   0  0  0  0  0  0  0  0  0  0  0  0
    3.5893    0.4097    1.9532 C   0  0  0  0  0  0  0  0  0  0  0  0
    3.0876   -0.9101    1.8606 C   0  0  0  0  0  0  0  0  0  0  0  0
   -2.0706    2.2816    4.4295 H   0  0  0  0  0  0  0  0  0  0  0  0
   -3.6055    1.8768    3.6523 H   0  0  0  0  0  0  0  0  0  0  0  0
   -2.1320    0.9415    3.2825 H   0  0  0  0  0  0  0  0  0  0  0  0
   -4.4706    3.6153    1.4568 H   0  0  0  0  0  0  0  0  0  0  0  0
   -2.0236    0.6284   -1.4859 H   0  0  0  0  0  0  0  0  0  0  0  0
   -4.2127    1.4037   -2.1174 H   0  0  0  0  0  0  0  0  0  0  0  0
    0.3774    2.9801    1.0060 H   0  0  0  0  0  0  0  0  0  0  0  0
   -8.3072    2.9193    0.1948 H   0  0  0  0  0  0  0  0  0  0  0  0
   -7.2983    1.4906    0.5050 H   0  0  0  0  0  0  0  0  0  0  0  0
   -7.0076    2.9985    1.4024 H   0  0  0  0  0  0  0  0  0  0  0  0
    3.0677    2.4600    1.7420 H   0  0  0  0  0  0  0  0  0  0  0  0
    4.5649    0.5747    2.2155 H   0  0  0  0  0  0  0  0  0  0  0  0
    3.6946   -1.7050    2.0688 H   0  0  0  0  0  0  0  0  0  0  0  0
  1  2  1  0  0  0  0 
  1  3  1  0  0  0  0 
  3  4  2  0  0  0  0 
  3  5  1  0  0  0  0 
  4  6  1  0  0  0  0 
  4  7  1  0  0  0  0 
  5  8  2  0  0  0  0 
  6  9  2  0  0  0  0 
  7 10  1  0  0  0  0 
  7 11  2  0  0  0  0 
  8  9  1  0  0  0  0 
  8 12  1  0  0  0  0 
 10 13  1  0  0  0  0 
 11 14  1  0  0  0  0 
 12 15  1  0  0  0  0 
 12 16  2  0  0  0  0 
 13 14  1  0  0  0  0 
 13 17  2  0  0  0  0 
 14 18  2  0  0  0  0 
 17 19  1  0  0  0  0 
 18 20  1  0  0  0  0 
 19 20  2  0  0  0  0 
 21  2  1  0  0  0  0 
 22  2  1  0  0  0  0 
 23  2  1  0  0  0  0 
 24  5  1  0  0  0  0 
 25  6  1  0  0  0  0 
 26  9  1  0  0  0  0 
 27 10  1  0  0  0  0 
 28 15  1  0  0  0  0 
 29 15  1  0  0  0  0 
 30 15  1  0  0  0  0 
 31 17  1  0  0  0  0 
 32 19  1  0  0  0  0 
 33 20  1  0  0  0  0 
M  END
> <cdk:Title>
sulmazole

> <Conformer>
1

> <SuperDrugID>
SD003072

$$$$
