piposulfan
  CDK     0628171801

 46 46  0  0  0  0  0  0  0  0999 V2000
   -1.6064   -0.6840    4.5371 C   0  0  0  0  0  0  0  0  0  0  0  0
   -0.3252   -1.4301    4.6968 C   0  0  1  0  0  0  0  0  0  0  0  0
   -2.0189   -0.5216    3.3616 O   0  0  0  0  0  0  0  0  0  0  0  0
   -2.3365   -0.1577    5.6014 N   0  0  0  0  0  0  0  0  0  0  0  0
    0.4593   -1.7267    3.3945 C   0  0  1  0  0  0  0  0  0  0  0  0
   -1.9763   -0.3554    6.9978 C   0  0  2  0  0  0  0  0  0  0  0  0
   -3.5029    0.6779    5.3719 C   0  0  1  0  0  0  0  0  0  0  0  0
    1.6785   -2.4076    3.7272 O   0  0  0  0  0  0  0  0  0  0  0  0
   -3.1952   -0.7349    7.8864 C   0  0  2  0  0  0  0  0  0  0  0  0
   -4.7081    0.2179    6.2245 C   0  0  2  0  0  0  0  0  0  0  0  0
    2.6503   -2.6782    2.3340 S   0  0  1  0  0  0  0  0  0  0  0  0
   -4.3273    0.1367    7.6234 N   0  0  0  0  0  0  0  0  0  0  0  0
    4.1677   -3.5498    2.8521 C   0  0  0  0  0  0  0  0  0  0  0  0
    1.8396   -3.5795    1.2860 O   0  0  0  0  0  0  0  0  0  0  0  0
    3.0365   -1.2683    1.6773 O   0  0  0  0  0  0  0  0  0  0  0  0
   -5.0024    0.8567    8.6075 C   0  0  0  0  0  0  0  0  0  0  0  0
   -4.7308    0.7426   10.0695 C   0  0  1  0  0  0  0  0  0  0  0  0
   -5.9031    1.6630    8.2657 O   0  0  0  0  0  0  0  0  0  0  0  0
   -5.7023    1.5184   10.9978 C   0  0  2  0  0  0  0  0  0  0  0  0
   -5.2880    1.3386   12.3592 O   0  0  0  0  0  0  0  0  0  0  0  0
   -6.4126    1.9597   13.5052 S   0  0  2  0  0  0  0  0  0  0  0  0
   -6.5672    3.7746   13.3643 C   0  0  0  0  0  0  0  0  0  0  0  0
   -5.8547    1.5881   14.9611 O   0  0  0  0  0  0  0  0  0  0  0  0
   -7.8370    1.2545   13.2976 O   0  0  0  0  0  0  0  0  0  0  0  0
    0.3378   -0.8482    5.3431 H   0  0  0  0  0  0  0  0  0  0  0  0
   -0.5393   -2.3817    5.1873 H   0  0  0  0  0  0  0  0  0  0  0  0
   -0.1510   -2.3541    2.7378 H   0  0  0  0  0  0  0  0  0  0  0  0
    0.6776   -0.7801    2.8891 H   0  0  0  0  0  0  0  0  0  0  0  0
   -1.5434    0.5752    7.3762 H   0  0  0  0  0  0  0  0  0  0  0  0
   -1.2284   -1.1372    7.1384 H   0  0  0  0  0  0  0  0  0  0  0  0
   -3.2501    1.7076    5.6431 H   0  0  0  0  0  0  0  0  0  0  0  0
   -3.8350    0.6964    4.3310 H   0  0  0  0  0  0  0  0  0  0  0  0
   -2.8593   -0.7106    8.9237 H   0  0  0  0  0  0  0  0  0  0  0  0
   -3.4820   -1.7689    7.6742 H   0  0  0  0  0  0  0  0  0  0  0  0
   -5.0445   -0.7664    5.8837 H   0  0  0  0  0  0  0  0  0  0  0  0
   -5.5305    0.9100    6.0315 H   0  0  0  0  0  0  0  0  0  0  0  0
    3.9001   -4.4968    3.3231 H   0  0  0  0  0  0  0  0  0  0  0  0
    4.7191   -2.9324    3.5630 H   0  0  0  0  0  0  0  0  0  0  0  0
    4.7906   -3.7416    1.9772 H   0  0  0  0  0  0  0  0  0  0  0  0
   -4.7782   -0.3125   10.3529 H   0  0  0  0  0  0  0  0  0  0  0  0
   -3.7186    1.1037   10.2586 H   0  0  0  0  0  0  0  0  0  0  0  0
   -6.7170    1.1366   10.8464 H   0  0  0  0  0  0  0  0  0  0  0  0
   -5.6773    2.5820   10.7447 H   0  0  0  0  0  0  0  0  0  0  0  0
   -7.0537    4.0359   12.4235 H   0  0  0  0  0  0  0  0  0  0  0  0
   -5.5767    4.2302   13.4029 H   0  0  0  0  0  0  0  0  0  0  0  0
   -7.1703    4.1483   14.1935 H   0  0  0  0  0  0  0  0  0  0  0  0
  1  2  1  0  0  0  0 
  1  3  2  0  0  0  0 
  1  4  1  0  0  0  0 
  2  5  1  0  0  0  0 
  4  6  1  0  0  0  0 
  4  7  1  0  0  0  0 
  5  8  1  0  0  0  0 
  6  9  1  0  0  0  0 
  7 10  1  0  0  0  0 
  8 11  1  0  0  0  0 
  9 12  1  0  0  0  0 
 10 12  1  0  0  0  0 
 11 13  1  0  0  0  0 
 11 14  2  0  0  0  0 
 11 15  2  0  0  0  0 
 12 16  1  0  0  0  0 
 16 17  1  0  0  0  0 
 16 18  2  0  0  0  0 
 17 19  1  0  0  0  0 
 19 20  1  0  0  0  0 
 20 21  1  0  0  0  0 
 21 22  1  0  0  0  0 
 21 23  2  0  0  0  0 
 21 24  2  0  0  0  0 
  2 25  1  0  0  0  0 
  2 26  1  0  0  0  0 
  5 27  1  0  0  0  0 
  5 28  1  0  0  0  0 
  6 29  1  0  0  0  0 
  6 30  1  0  0  0  0 
  7 31  1  0  0  0  0 
  7 32  1  0  0  0  0 
  9 33  1  0  0  0  0 
  9 34  1  0  0  0  0 
 10 35  1  0  0  0  0 
 10 36  1  0  0  0  0 
 13 37  1  0  0  0  0 
 13 38  1  0  0  0  0 
 13 39  1  0  0  0  0 
 17 40  1  0  0  0  0 
 17 41  1  0  0  0  0 
 19 42  1  0  0  0  0 
 19 43  1  0  0  0  0 
 22 44  1  0  0  0  0 
 22 45  1  0  0  0  0 
 22 46  1  0  0  0  0 
M  END
> <cdk:Title>
piposulfan

> <Conformer>
1

> <SuperDrugID>
SD002996

$$$$
