troxacitabine
  CDK     0628171801

 26 27  0  0  0  0  0  0  0  0999 V2000
    0.2964   -4.5337   -2.2674 O   0  0  0  0  0  0  0  0  0  0  0  0
    0.9341   -5.5332   -1.8637 C   0  0  0  0  0  0  0  0  0  0  0  0
    1.5204   -5.6089   -0.6219 N   0  0  0  0  0  0  0  0  0  0  0  0
    1.0105   -6.5707   -2.7340 N   0  0  0  0  0  0  0  0  0  0  0  0
    2.1823   -6.7617   -0.2796 C   0  0  0  0  0  0  0  0  0  0  0  0
    1.6522   -7.7204   -2.4211 C   0  0  0  0  0  0  0  0  0  0  0  0
    2.2679   -7.8474   -1.1663 C   0  0  0  0  0  0  0  0  0  0  0  0
    1.6764   -8.7245   -3.3133 N   0  0  0  0  0  0  0  0  0  0  0  0
    1.4454   -4.5242    0.3407 C   0  0  1  0  0  0  0  0  0  0  0  0
    1.5586   -3.2271   -0.2464 O   0  0  0  0  0  0  0  0  0  0  0  0
    0.7223   -2.3636    0.5375 C   0  0  2  0  0  0  0  0  0  0  0  0
    0.0593   -3.1243    1.5582 O   0  0  0  0  0  0  0  0  0  0  0  0
    0.1166   -4.4732    1.1068 C   0  0  1  0  0  0  0  0  0  0  0  0
   -0.3042   -1.6456   -0.3653 C   0  0  2  0  0  0  0  0  0  0  0  0
    2.2571   -4.5893    1.0751 H   0  0  0  0  0  0  0  0  0  0  0  0
    0.3558   -0.8802   -1.3684 O   0  0  0  0  0  0  0  0  0  0  0  0
    2.6237   -6.8603    0.6381 H   0  0  0  0  0  0  0  0  0  0  0  0
    2.7604   -8.7019   -0.8973 H   0  0  0  0  0  0  0  0  0  0  0  0
    1.2536   -8.6169   -4.1798 H   0  0  0  0  0  0  0  0  0  0  0  0
    2.1143   -9.5606   -3.0919 H   0  0  0  0  0  0  0  0  0  0  0  0
    1.3513   -1.6153    1.0252 H   0  0  0  0  0  0  0  0  0  0  0  0
   -0.7378   -4.6914    0.4604 H   0  0  0  0  0  0  0  0  0  0  0  0
    0.1142   -5.1635    1.9532 H   0  0  0  0  0  0  0  0  0  0  0  0
   -0.9252   -0.9795    0.2371 H   0  0  0  0  0  0  0  0  0  0  0  0
   -0.9472   -2.3810   -0.8503 H   0  0  0  0  0  0  0  0  0  0  0  0
   -0.3668   -0.4914   -1.9052 H   0  0  0  0  0  0  0  0  0  0  0  0
  1  2  2  0  0  0  0 
  2  3  1  0  0  0  0 
  2  4  1  0  0  0  0 
  3  5  1  0  0  0  0 
  4  6  2  0  0  0  0 
  5  7  2  0  0  0  0 
  6  7  1  0  0  0  0 
  6  8  1  0  0  0  0 
  9  3  1  0  0  0  0 
 10 11  1  0  0  0  0 
 11 12  1  0  0  0  0 
 12 13  1  0  0  0  0 
  9 10  1  0  0  0  0 
  9 13  1  0  0  0  0 
 11 14  1  0  0  0  0 
  9 15  1  0  0  0  0 
 14 16  1  0  0  0  0 
  5 17  1  0  0  0  0 
  7 18  1  0  0  0  0 
  8 19  1  0  0  0  0 
  8 20  1  0  0  0  0 
 11 21  1  0  0  0  0 
 13 22  1  0  0  0  0 
 13 23  1  0  0  0  0 
 14 24  1  0  0  0  0 
 14 25  1  0  0  0  0 
 16 26  1  0  0  0  0 
M  END
> <cdk:Title>
troxacitabine

> <Conformer>
1

> <SuperDrugID>
SD003115

$$$$
