hydracarbazine
  CDK     0628171802

 18 18  0  0  0  0  0  0  0  0999 V2000
    2.2059   -0.1970   -0.6440 C   0  0  0  0  0  0  0  0  0  0  0  0
    3.3680   -0.9815   -0.7430 C   0  0  0  0  0  0  0  0  0  0  0  0
    4.6371   -0.3595   -0.7011 C   0  0  0  0  0  0  0  0  0  0  0  0
    4.6600    0.9942   -0.5565 N   0  0  0  0  0  0  0  0  0  0  0  0
    3.5791    1.7267   -0.4575 N   0  0  0  0  0  0  0  0  0  0  0  0
    2.3263    1.1969   -0.4944 C   0  0  0  0  0  0  0  0  0  0  0  0
    5.8486   -1.0851   -0.8049 C   0  0  0  0  0  0  0  0  0  0  0  0
    5.8606   -2.3333   -0.9074 O   0  0  0  0  0  0  0  0  0  0  0  0
    7.0466   -0.4728   -0.8056 N   0  0  0  0  0  0  0  0  0  0  0  0
    1.2139    1.9626   -0.3921 N   0  0  0  0  0  0  0  0  0  0  0  0
    1.2561    3.2864   -0.1475 N   0  0  1  0  0  0  0  0  0  0  0  0
    1.2858   -0.6407   -0.6792 H   0  0  0  0  0  0  0  0  0  0  0  0
    3.2753   -1.9946   -0.8483 H   0  0  0  0  0  0  0  0  0  0  0  0
    7.8583   -1.0001   -0.8807 H   0  0  0  0  0  0  0  0  0  0  0  0
    7.1031    0.4929   -0.7324 H   0  0  0  0  0  0  0  0  0  0  0  0
    0.3458    1.5410   -0.4962 H   0  0  0  0  0  0  0  0  0  0  0  0
    0.2842    3.5972   -0.0746 H   0  0  0  0  0  0  0  0  0  0  0  0
    1.6711    3.4073    0.7788 H   0  0  0  0  0  0  0  0  0  0  0  0
  1  2  2  0  0  0  0 
  1  6  1  0  0  0  0 
  2  3  1  0  0  0  0 
  3  4  2  0  0  0  0 
  4  5  1  0  0  0  0 
  5  6  2  0  0  0  0 
  3  7  1  0  0  0  0 
  7  8  2  0  0  0  0 
  7  9  1  0  0  0  0 
  6 10  1  0  0  0  0 
 10 11  1  0  0  0  0 
 12  1  1  0  0  0  0 
 13  2  1  0  0  0  0 
 14  9  1  0  0  0  0 
 15  9  1  0  0  0  0 
 16 10  1  0  0  0  0 
 17 11  1  0  0  0  0 
 18 11  1  0  0  0  0 
M  END
> <cdk:Title>
hydracarbazine

> <Conformer>
1

> <SuperDrugID>
SD003913

$$$$
