carbamide
  CDK     0628171801

  8  7  0  0  0  0  0  0  0  0999 V2000
    0.0392    0.0017    0.1096 C   0  0  0  0  0  0  0  0  0  0  0  0
   -0.6522   -1.1477    0.1261 N   0  0  0  0  0  0  0  0  0  0  0  0
   -0.5975    1.1716    0.2686 N   0  0  0  0  0  0  0  0  0  0  0  0
    1.2786   -0.0175   -0.0543 O   0  0  0  0  0  0  0  0  0  0  0  0
   -0.1902   -1.9925    0.0108 H   0  0  0  0  0  0  0  0  0  0  0  0
   -1.6142   -1.1345    0.2542 H   0  0  0  0  0  0  0  0  0  0  0  0
   -0.0959    2.0015    0.2565 H   0  0  0  0  0  0  0  0  0  0  0  0
   -1.5597    1.1882    0.3950 H   0  0  0  0  0  0  0  0  0  0  0  0
  1  2  1  0  0  0  0 
  1  3  1  0  0  0  0 
  1  4  2  0  0  0  0 
  5  2  1  0  0  0  0 
  6  2  1  0  0  0  0 
  7  3  1  0  0  0  0 
  8  3  1  0  0  0  0 
M  END
> <cdk:Title>
carbamide

> <Conformer>
1

> <SuperDrugID>
SD003462

$$$$
