terodiline
  CDK     0628171801

 48 49  0  0  0  0  0  0  0  0999 V2000
   -3.7574    0.4553    1.7112 C   0  0  2  0  0  0  0  0  0  0  0  0
   -3.2099   -0.8817    1.0951 C   0  0  2  0  0  0  0  0  0  0  0  0
   -2.7598    1.1930    2.5531 C   0  0  0  0  0  0  0  0  0  0  0  0
   -5.0464    0.3230    2.4789 C   0  0  0  0  0  0  0  0  0  0  0  0
   -2.0743   -0.7286    0.0306 C   0  0  1  0  0  0  0  0  0  0  0  0
   -2.3546    2.5081    2.2119 C   0  0  0  0  0  0  0  0  0  0  0  0
   -2.2018    0.6041    3.7161 C   0  0  0  0  0  0  0  0  0  0  0  0
   -5.3647   -0.8164    3.2629 C   0  0  0  0  0  0  0  0  0  0  0  0
   -5.9908    1.3812    2.4447 C   0  0  0  0  0  0  0  0  0  0  0  0
   -0.8429   -0.2587    0.7312 N   0  0  2  0  0  0  0  0  0  0  0  0
   -1.8533   -2.0635   -0.7332 C   0  0  0  0  0  0  0  0  0  0  0  0
   -1.4263    3.2088    3.0042 C   0  0  0  0  0  0  0  0  0  0  0  0
   -1.2689    1.3001    4.5043 C   0  0  0  0  0  0  0  0  0  0  0  0
   -6.5904   -0.9081    3.9521 C   0  0  0  0  0  0  0  0  0  0  0  0
   -7.2138    1.2933    3.1350 C   0  0  0  0  0  0  0  0  0  0  0  0
    0.3915    0.2357    0.0420 C   0  0  2  0  0  0  0  0  0  0  0  0
   -0.8800    2.6030    4.1483 C   0  0  0  0  0  0  0  0  0  0  0  0
   -7.5171    0.1442    3.8839 C   0  0  0  0  0  0  0  0  0  0  0  0
    0.0577    1.2334   -1.1097 C   0  0  0  0  0  0  0  0  0  0  0  0
    1.2883   -0.9341   -0.4747 C   0  0  0  0  0  0  0  0  0  0  0  0
    1.1865    0.9855    1.1571 C   0  0  0  0  0  0  0  0  0  0  0  0
   -3.9920    1.0637    0.8291 H   0  0  0  0  0  0  0  0  0  0  0  0
   -4.0567   -1.3885    0.6200 H   0  0  0  0  0  0  0  0  0  0  0  0
   -2.8491   -1.5425    1.8868 H   0  0  0  0  0  0  0  0  0  0  0  0
   -2.4030    0.0199   -0.6941 H   0  0  0  0  0  0  0  0  0  0  0  0
   -2.7349    2.9718    1.3829 H   0  0  0  0  0  0  0  0  0  0  0  0
   -2.4723   -0.3392    4.0020 H   0  0  0  0  0  0  0  0  0  0  0  0
   -4.7107   -1.5959    3.3432 H   0  0  0  0  0  0  0  0  0  0  0  0
   -5.7936    2.2316    1.9109 H   0  0  0  0  0  0  0  0  0  0  0  0
   -0.5800   -0.9561    1.4306 H   0  0  0  0  0  0  0  0  0  0  0  0
   -1.2875   -1.8919   -1.6480 H   0  0  0  0  0  0  0  0  0  0  0  0
   -2.8048   -2.5078   -1.0327 H   0  0  0  0  0  0  0  0  0  0  0  0
   -1.3160   -2.7770   -0.1047 H   0  0  0  0  0  0  0  0  0  0  0  0
   -1.1471    4.1577    2.7454 H   0  0  0  0  0  0  0  0  0  0  0  0
   -0.8769    0.8586    5.3390 H   0  0  0  0  0  0  0  0  0  0  0  0
   -6.8075   -1.7419    4.5024 H   0  0  0  0  0  0  0  0  0  0  0  0
   -7.8830    2.0644    3.0910 H   0  0  0  0  0  0  0  0  0  0  0  0
   -0.2014    3.1082    4.7212 H   0  0  0  0  0  0  0  0  0  0  0  0
   -8.4094    0.0747    4.3792 H   0  0  0  0  0  0  0  0  0  0  0  0
    0.9643    1.6973   -1.5025 H   0  0  0  0  0  0  0  0  0  0  0  0
   -0.6091    2.0207   -0.7489 H   0  0  0  0  0  0  0  0  0  0  0  0
   -0.4346    0.7175   -1.9357 H   0  0  0  0  0  0  0  0  0  0  0  0
    2.2963   -0.5825   -0.7077 H   0  0  0  0  0  0  0  0  0  0  0  0
    1.3654   -1.7172    0.2819 H   0  0  0  0  0  0  0  0  0  0  0  0
    0.8920   -1.3745   -1.3859 H   0  0  0  0  0  0  0  0  0  0  0  0
    2.1510    1.3406    0.7892 H   0  0  0  0  0  0  0  0  0  0  0  0
    1.3745    0.3291    2.0095 H   0  0  0  0  0  0  0  0  0  0  0  0
    0.6317    1.8502    1.5161 H   0  0  0  0  0  0  0  0  0  0  0  0
  1  2  1  0  0  0  0 
  1  3  1  0  0  0  0 
  1  4  1  0  0  0  0 
  5  2  1  0  0  0  0 
  3  6  2  0  0  0  0 
  3  7  1  0  0  0  0 
  4  8  2  0  0  0  0 
  4  9  1  0  0  0  0 
  5 10  1  0  0  0  0 
  5 11  1  0  0  0  0 
  6 12  1  0  0  0  0 
  7 13  2  0  0  0  0 
  8 14  1  0  0  0  0 
  9 15  2  0  0  0  0 
 10 16  1  0  0  0  0 
 12 17  2  0  0  0  0 
 13 17  1  0  0  0  0 
 14 18  2  0  0  0  0 
 15 18  1  0  0  0  0 
 16 19  1  0  0  0  0 
 16 20  1  0  0  0  0 
 16 21  1  0  0  0  0 
  1 22  1  0  0  0  0 
  2 23  1  0  0  0  0 
  2 24  1  0  0  0  0 
  5 25  1  0  0  0  0 
  6 26  1  0  0  0  0 
  7 27  1  0  0  0  0 
  8 28  1  0  0  0  0 
  9 29  1  0  0  0  0 
 10 30  1  0  0  0  0 
 11 31  1  0  0  0  0 
 11 32  1  0  0  0  0 
 11 33  1  0  0  0  0 
 12 34  1  0  0  0  0 
 13 35  1  0  0  0  0 
 14 36  1  0  0  0  0 
 15 37  1  0  0  0  0 
 17 38  1  0  0  0  0 
 18 39  1  0  0  0  0 
 19 40  1  0  0  0  0 
 19 41  1  0  0  0  0 
 19 42  1  0  0  0  0 
 20 43  1  0  0  0  0 
 20 44  1  0  0  0  0 
 20 45  1  0  0  0  0 
 21 46  1  0  0  0  0 
 21 47  1  0  0  0  0 
 21 48  1  0  0  0  0 
M  END
> <cdk:Title>
terodiline

> <Conformer>
1

> <SuperDrugID>
SD002342

$$$$
