nimorazole
  CDK     0628171801

 30 31  0  0  0  0  0  0  0  0999 V2000
   -0.0393   -0.5537    0.1586 C   0  0  1  0  0  0  0  0  0  0  0  0
   -0.5697   -0.0391   -1.2038 C   0  0  2  0  0  0  0  0  0  0  0  0
    1.3386   -0.1999    0.3987 N   0  0  0  0  0  0  0  0  0  0  0  0
    0.2181   -0.6570   -2.3173 N   0  0  1  0  0  0  0  0  0  0  0  0
    1.8578    0.9929    0.7905 C   0  0  0  0  0  0  0  0  0  0  0  0
    2.3761   -1.0542    0.2657 C   0  0  0  0  0  0  0  0  0  0  0  0
   -0.4529   -1.7839   -3.0328 C   0  0  1  0  0  0  0  0  0  0  0  0
    0.9225    0.2933   -3.2267 C   0  0  2  0  0  0  0  0  0  0  0  0
    1.2426    2.1494    1.0493 N   0  0  0  0  0  0  0  0  0  0  0  0
    3.2363    0.7948    0.8935 C   0  0  0  0  0  0  0  0  0  0  0  0
    3.5421   -0.4639    0.5649 N   0  0  0  0  0  0  0  0  0  0  0  0
    0.5571   -2.4966   -3.9643 C   0  0  1  0  0  0  0  0  0  0  0  0
    1.9022   -0.4986   -4.1258 C   0  0  2  0  0  0  0  0  0  0  0  0
    0.0825    2.2645    1.0516 O   0  0  0  0  0  0  0  0  0  0  0  0
    1.8919    3.2069    1.3200 O   0  0  0  0  0  0  0  0  0  0  0  0
    1.2245   -1.5588   -4.8322 O   0  0  0  0  0  0  0  0  0  0  0  0
   -0.6621   -0.1721    0.9710 H   0  0  0  0  0  0  0  0  0  0  0  0
   -0.1583   -1.6403    0.1781 H   0  0  0  0  0  0  0  0  0  0  0  0
   -0.5076    1.0520   -1.2198 H   0  0  0  0  0  0  0  0  0  0  0  0
   -1.6330   -0.2882   -1.2819 H   0  0  0  0  0  0  0  0  0  0  0  0
    2.3017   -2.0289   -0.0325 H   0  0  0  0  0  0  0  0  0  0  0  0
   -0.8342   -2.5157   -2.3165 H   0  0  0  0  0  0  0  0  0  0  0  0
   -1.2945   -1.4077   -3.6228 H   0  0  0  0  0  0  0  0  0  0  0  0
    1.4944    1.0196   -2.6434 H   0  0  0  0  0  0  0  0  0  0  0  0
    0.1998    0.8378   -3.8425 H   0  0  0  0  0  0  0  0  0  0  0  0
    3.9188    1.5003    1.1768 H   0  0  0  0  0  0  0  0  0  0  0  0
    1.2931   -3.0488   -3.3719 H   0  0  0  0  0  0  0  0  0  0  0  0
    0.0268   -3.2145   -4.5911 H   0  0  0  0  0  0  0  0  0  0  0  0
    2.7130   -0.9082   -3.5155 H   0  0  0  0  0  0  0  0  0  0  0  0
    2.3436    0.1756   -4.8607 H   0  0  0  0  0  0  0  0  0  0  0  0
  1  2  1  0  0  0  0 
  1  3  1  0  0  0  0 
  2  4  1  0  0  0  0 
  3  5  1  0  0  0  0 
  3  6  1  0  0  0  0 
  4  7  1  0  0  0  0 
  4  8  1  0  0  0  0 
  5  9  1  0  0  0  0 
  5 10  2  0  0  0  0 
  6 11  2  0  0  0  0 
  7 12  1  0  0  0  0 
  8 13  1  0  0  0  0 
  9 14  2  0  0  0  0 
  9 15  1  0  0  0  0 
 10 11  1  0  0  0  0 
 12 16  1  0  0  0  0 
 13 16  1  0  0  0  0 
  1 17  1  0  0  0  0 
  1 18  1  0  0  0  0 
  2 19  1  0  0  0  0 
  2 20  1  0  0  0  0 
  6 21  1  0  0  0  0 
  7 22  1  0  0  0  0 
  7 23  1  0  0  0  0 
  8 24  1  0  0  0  0 
  8 25  1  0  0  0  0 
 10 26  1  0  0  0  0 
 12 27  1  0  0  0  0 
 12 28  1  0  0  0  0 
 13 29  1  0  0  0  0 
 13 30  1  0  0  0  0 
M  CHG  1   9   1
M  CHG  1  15  -1
M  END
> <cdk:Title>
nimorazole

> <Conformer>
1

> <SuperDrugID>
SD001733

$$$$
