flumetasone pivalate
  CDK     0628171801

 71 74  0  0  0  0  0  0  0  0999 V2000
   -5.2475    6.2288    2.9958 C   0  0  0  0  0  0  0  0  0  0  0  0
   -3.9444    7.0758    3.2874 C   0  0  2  0  0  0  0  0  0  0  0  0
   -3.1233    6.6061    4.5341 C   0  0  2  0  0  0  0  0  0  0  0  0
   -4.3547    8.5306    3.7700 C   0  0  2  0  0  0  0  0  0  0  0  0
   -2.9645    6.9661    2.0601 C   0  0  2  0  0  0  0  0  0  0  0  0
   -2.5780    5.1400    4.4426 C   0  0  1  0  0  0  0  0  0  0  0  0
   -3.9971    7.0050    5.7393 C   0  0  1  0  0  0  0  0  0  0  0  0
   -5.4218    9.2110    2.9543 C   0  0  0  0  0  0  0  0  0  0  0  0
   -3.2094    9.3962    3.7202 O   0  0  0  0  0  0  0  0  0  0  0  0
   -4.7273    8.3074    5.2915 C   0  0  1  0  0  0  0  0  0  0  0  0
   -2.2964    5.5563    1.8786 C   0  0  1  0  0  0  0  0  0  0  0  0
   -1.6270    4.9689    3.1895 C   0  0  1  0  0  0  0  0  0  0  0  0
   -1.8482    4.7094    5.7558 C   0  0  1  0  0  0  0  0  0  0  0  0
   -5.1774    9.8241    1.6311 C   0  0  2  0  0  0  0  0  0  0  0  0
   -6.6033    9.2758    3.3703 O   0  0  0  0  0  0  0  0  0  0  0  0
   -4.4605    9.5103    6.2397 C   0  0  0  0  0  0  0  0  0  0  0  0
   -3.2323    4.6656    1.2781 O   0  0  0  0  0  0  0  0  0  0  0  0
   -0.5383    5.8058    3.4006 F   0  0  0  0  0  0  0  0  0  0  0  0
   -1.0192    3.4869    3.1084 C   0  0  2  0  0  0  0  0  0  0  0  0
   -1.2189    3.2963    5.6541 C   0  0  1  0  0  0  0  0  0  0  0  0
   -5.7782    9.0162    0.6145 O   0  0  0  0  0  0  0  0  0  0  0  0
   -2.0725    2.3560    2.8054 C   0  0  0  0  0  0  0  0  0  0  0  0
   -0.3901    3.1649    4.4400 C   0  0  0  0  0  0  0  0  0  0  0  0
   -0.0481    3.3918    1.9866 C   0  0  0  0  0  0  0  0  0  0  0  0
   -0.5730    3.0389    6.8469 F   0  0  0  0  0  0  0  0  0  0  0  0
   -6.4917    9.4159   -0.4814 C   0  0  0  0  0  0  0  0  0  0  0  0
    0.9080    2.7855    4.5192 C   0  0  0  0  0  0  0  0  0  0  0  0
    1.2286    3.0125    2.1472 C   0  0  0  0  0  0  0  0  0  0  0  0
   -6.9413    8.3687   -1.4517 C   0  0  1  0  0  0  0  0  0  0  0  0
   -6.7320   10.6342   -0.6639 O   0  0  0  0  0  0  0  0  0  0  0  0
    1.7141    2.6887    3.3977 C   0  0  0  0  0  0  0  0  0  0  0  0
   -7.9425    7.4111   -0.7312 C   0  0  0  0  0  0  0  0  0  0  0  0
   -7.6322    8.9889   -2.7112 C   0  0  0  0  0  0  0  0  0  0  0  0
   -5.6937    7.5643   -1.9378 C   0  0  0  0  0  0  0  0  0  0  0  0
    2.9016    2.3040    3.5129 O   0  0  0  0  0  0  0  0  0  0  0  0
   -5.0531    5.1682    2.8836 H   0  0  0  0  0  0  0  0  0  0  0  0
   -5.9923    6.3218    3.7853 H   0  0  0  0  0  0  0  0  0  0  0  0
   -5.7161    6.5665    2.0714 H   0  0  0  0  0  0  0  0  0  0  0  0
   -2.2279    7.2364    4.6249 H   0  0  0  0  0  0  0  0  0  0  0  0
   -2.1565    7.6934    2.1737 H   0  0  0  0  0  0  0  0  0  0  0  0
   -3.4910    7.2306    1.1398 H   0  0  0  0  0  0  0  0  0  0  0  0
   -3.4365    4.4774    4.3320 H   0  0  0  0  0  0  0  0  0  0  0  0
   -4.7180    6.2128    5.9601 H   0  0  0  0  0  0  0  0  0  0  0  0
   -3.3768    7.1544    6.6273 H   0  0  0  0  0  0  0  0  0  0  0  0
   -3.5192   10.2642    4.0548 H   0  0  0  0  0  0  0  0  0  0  0  0
   -5.7990    8.1052    5.3806 H   0  0  0  0  0  0  0  0  0  0  0  0
   -1.5156    5.6837    1.1236 H   0  0  0  0  0  0  0  0  0  0  0  0
   -1.0644    5.4331    6.0038 H   0  0  0  0  0  0  0  0  0  0  0  0
   -2.5652    4.7063    6.5821 H   0  0  0  0  0  0  0  0  0  0  0  0
   -4.1117    9.8701    1.4100 H   0  0  0  0  0  0  0  0  0  0  0  0
   -5.5666   10.8476    1.6297 H   0  0  0  0  0  0  0  0  0  0  0  0
   -3.3927    9.7285    6.3063 H   0  0  0  0  0  0  0  0  0  0  0  0
   -4.9800   10.3983    5.8766 H   0  0  0  0  0  0  0  0  0  0  0  0
   -4.8283    9.2812    7.2420 H   0  0  0  0  0  0  0  0  0  0  0  0
   -3.4242    5.0466    0.3955 H   0  0  0  0  0  0  0  0  0  0  0  0
   -2.0213    2.5607    5.6069 H   0  0  0  0  0  0  0  0  0  0  0  0
   -1.6290    1.3673    2.9506 H   0  0  0  0  0  0  0  0  0  0  0  0
   -2.4336    2.3852    1.7775 H   0  0  0  0  0  0  0  0  0  0  0  0
   -2.9476    2.4142    3.4496 H   0  0  0  0  0  0  0  0  0  0  0  0
   -0.3513    3.6003    1.0619 H   0  0  0  0  0  0  0  0  0  0  0  0
    1.3203    2.5702    5.3966 H   0  0  0  0  0  0  0  0  0  0  0  0
    1.8295    2.9641    1.3561 H   0  0  0  0  0  0  0  0  0  0  0  0
   -8.2609    6.6068   -1.3990 H   0  0  0  0  0  0  0  0  0  0  0  0
   -8.8335    7.9549   -0.4078 H   0  0  0  0  0  0  0  0  0  0  0  0
   -7.4859    6.9528    0.1495 H   0  0  0  0  0  0  0  0  0  0  0  0
   -7.9347    8.2115   -3.4166 H   0  0  0  0  0  0  0  0  0  0  0  0
   -8.5222    9.5553   -2.4301 H   0  0  0  0  0  0  0  0  0  0  0  0
   -6.9463    9.6649   -3.2284 H   0  0  0  0  0  0  0  0  0  0  0  0
   -5.9844    6.7894   -2.6498 H   0  0  0  0  0  0  0  0  0  0  0  0
   -4.9817    8.2270   -2.4333 H   0  0  0  0  0  0  0  0  0  0  0  0
   -5.1819    7.0769   -1.1053 H   0  0  0  0  0  0  0  0  0  0  0  0
  2  1  1  0  0  0  0 
  3  2  1  0  0  0  0 
  2  4  1  0  0  0  0 
  2  5  1  0  0  0  0 
  6  3  1  0  0  0  0 
  3  7  1  0  0  0  0 
  4  8  1  0  0  0  0 
  4  9  1  0  0  0  0 
  4 10  1  0  0  0  0 
 11  5  1  0  0  0  0 
 12  6  1  0  0  0  0 
  6 13  1  0  0  0  0 
 10  7  1  0  0  0  0 
  8 14  1  0  0  0  0 
  8 15  2  0  0  0  0 
 10 16  1  0  0  0  0 
 12 11  1  0  0  0  0 
 11 17  1  0  0  0  0 
 12 18  1  0  0  0  0 
 12 19  1  0  0  0  0 
 20 13  1  0  0  0  0 
 14 21  1  0  0  0  0 
 19 22  1  0  0  0  0 
 19 23  1  0  0  0  0 
 19 24  1  0  0  0  0 
 20 23  1  0  0  0  0 
 20 25  1  0  0  0  0 
 21 26  1  0  0  0  0 
 23 27  2  0  0  0  0 
 24 28  2  0  0  0  0 
 26 29  1  0  0  0  0 
 26 30  2  0  0  0  0 
 27 31  1  0  0  0  0 
 28 31  1  0  0  0  0 
 29 32  1  0  0  0  0 
 29 33  1  0  0  0  0 
 29 34  1  0  0  0  0 
 31 35  2  0  0  0  0 
 36  1  1  0  0  0  0 
 37  1  1  0  0  0  0 
 38  1  1  0  0  0  0 
  3 39  1  0  0  0  0 
 40  5  1  0  0  0  0 
 41  5  1  0  0  0  0 
  6 42  1  0  0  0  0 
 43  7  1  0  0  0  0 
 44  7  1  0  0  0  0 
 45  9  1  0  0  0  0 
 10 46  1  0  0  0  0 
 11 47  1  0  0  0  0 
 48 13  1  0  0  0  0 
 49 13  1  0  0  0  0 
 50 14  1  0  0  0  0 
 51 14  1  0  0  0  0 
 52 16  1  0  0  0  0 
 53 16  1  0  0  0  0 
 54 16  1  0  0  0  0 
 55 17  1  0  0  0  0 
 20 56  1  0  0  0  0 
 57 22  1  0  0  0  0 
 58 22  1  0  0  0  0 
 59 22  1  0  0  0  0 
 60 24  1  0  0  0  0 
 61 27  1  0  0  0  0 
 62 28  1  0  0  0  0 
 63 32  1  0  0  0  0 
 64 32  1  0  0  0  0 
 65 32  1  0  0  0  0 
 66 33  1  0  0  0  0 
 67 33  1  0  0  0  0 
 68 33  1  0  0  0  0 
 69 34  1  0  0  0  0 
 70 34  1  0  0  0  0 
 71 34  1  0  0  0  0 
M  END
> <cdk:Title>
flumetasone pivalate

> <Conformer>
1

> <SuperDrugID>
SD001072

$$$$
