procarbazine
  CDK     0628171801

 35 35  0  0  0  0  0  0  0  0999 V2000
   -0.2107   -1.8900   -1.2140 C   0  0  0  0  0  0  0  0  0  0  0  0
   -0.2958   -0.5319   -1.0633 N   0  0  0  0  0  0  0  0  0  0  0  0
    0.7906   -2.4932   -0.7552 O   0  0  0  0  0  0  0  0  0  0  0  0
   -1.2293   -2.6323   -1.8857 C   0  0  0  0  0  0  0  0  0  0  0  0
    0.7052    0.3256   -0.4942 C   0  0  1  0  0  0  0  0  0  0  0  0
   -2.1314   -2.0067   -2.7824 C   0  0  0  0  0  0  0  0  0  0  0  0
   -1.3558   -4.0329   -1.7017 C   0  0  0  0  0  0  0  0  0  0  0  0
    0.3562    1.7992   -0.8297 C   0  0  0  0  0  0  0  0  0  0  0  0
    0.8504    0.1181    1.0372 C   0  0  0  0  0  0  0  0  0  0  0  0
   -3.1048   -2.7502   -3.4766 C   0  0  0  0  0  0  0  0  0  0  0  0
   -2.3323   -4.7774   -2.3903 C   0  0  0  0  0  0  0  0  0  0  0  0
   -3.2110   -4.1479   -3.3007 C   0  0  0  0  0  0  0  0  0  0  0  0
   -4.2148   -4.9373   -4.0586 C   0  0  1  0  0  0  0  0  0  0  0  0
   -5.4391   -5.0912   -3.2532 N   0  0  2  0  0  0  0  0  0  0  0  0
   -6.3924   -5.8574   -3.9493 N   0  0  2  0  0  0  0  0  0  0  0  0
   -7.6233   -5.9860   -3.1552 C   0  0  0  0  0  0  0  0  0  0  0  0
   -1.1105   -0.1016   -1.3633 H   0  0  0  0  0  0  0  0  0  0  0  0
    1.6639    0.1047   -0.9717 H   0  0  0  0  0  0  0  0  0  0  0  0
   -2.0792   -0.9995   -2.9578 H   0  0  0  0  0  0  0  0  0  0  0  0
   -0.7318   -4.5320   -1.0611 H   0  0  0  0  0  0  0  0  0  0  0  0
    1.1285    2.4723   -0.4469 H   0  0  0  0  0  0  0  0  0  0  0  0
    0.2914    1.9352   -1.9130 H   0  0  0  0  0  0  0  0  0  0  0  0
   -0.6016    2.0802   -0.3861 H   0  0  0  0  0  0  0  0  0  0  0  0
    1.5195    0.8672    1.4649 H   0  0  0  0  0  0  0  0  0  0  0  0
    1.2731   -0.8637    1.2537 H   0  0  0  0  0  0  0  0  0  0  0  0
   -0.1218    0.1976    1.5257 H   0  0  0  0  0  0  0  0  0  0  0  0
   -3.7335   -2.2605   -4.1188 H   0  0  0  0  0  0  0  0  0  0  0  0
   -2.3940   -5.7858   -2.2277 H   0  0  0  0  0  0  0  0  0  0  0  0
   -4.4600   -4.4377   -5.0016 H   0  0  0  0  0  0  0  0  0  0  0  0
   -3.8031   -5.9211   -4.3045 H   0  0  0  0  0  0  0  0  0  0  0  0
   -5.8357   -4.1549   -3.1423 H   0  0  0  0  0  0  0  0  0  0  0  0
   -6.0065   -6.7990   -4.0507 H   0  0  0  0  0  0  0  0  0  0  0  0
   -8.3333   -6.6049   -3.7035 H   0  0  0  0  0  0  0  0  0  0  0  0
   -7.4155   -6.4599   -2.1939 H   0  0  0  0  0  0  0  0  0  0  0  0
   -8.0723   -5.0056   -2.9877 H   0  0  0  0  0  0  0  0  0  0  0  0
  1  2  1  0  0  0  0 
  1  3  2  0  0  0  0 
  1  4  1  0  0  0  0 
  2  5  1  0  0  0  0 
  4  6  2  0  0  0  0 
  4  7  1  0  0  0  0 
  5  8  1  0  0  0  0 
  5  9  1  0  0  0  0 
  6 10  1  0  0  0  0 
  7 11  2  0  0  0  0 
 10 12  2  0  0  0  0 
 11 12  1  0  0  0  0 
 12 13  1  0  0  0  0 
 13 14  1  0  0  0  0 
 14 15  1  0  0  0  0 
 15 16  1  0  0  0  0 
  2 17  1  0  0  0  0 
  5 18  1  0  0  0  0 
  6 19  1  0  0  0  0 
  7 20  1  0  0  0  0 
  8 21  1  0  0  0  0 
  8 22  1  0  0  0  0 
  8 23  1  0  0  0  0 
  9 24  1  0  0  0  0 
  9 25  1  0  0  0  0 
  9 26  1  0  0  0  0 
 10 27  1  0  0  0  0 
 11 28  1  0  0  0  0 
 13 29  1  0  0  0  0 
 13 30  1  0  0  0  0 
 14 31  1  0  0  0  0 
 15 32  1  0  0  0  0 
 16 33  1  0  0  0  0 
 16 34  1  0  0  0  0 
 16 35  1  0  0  0  0 
M  END
> <cdk:Title>
procarbazine

> <Conformer>
1

> <SuperDrugID>
SD002038

$$$$
