pramipexole
  CDK     0628171801

 31 32  0  0  0  0  0  0  0  0999 V2000
    7.1874    4.6955   -3.0839 N   0  0  0  0  0  0  0  0  0  0  0  0
    5.9489    4.3309   -2.7090 C   0  0  0  0  0  0  0  0  0  0  0  0
    5.5811    3.9255   -1.4729 N   0  0  0  0  0  0  0  0  0  0  0  0
    4.5135    4.2911   -3.7211 S   0  0  0  0  0  0  0  0  0  0  0  0
    4.2670    3.6037   -1.3067 C   0  0  0  0  0  0  0  0  0  0  0  0
    3.4551    3.7093   -2.4491 C   0  0  0  0  0  0  0  0  0  0  0  0
    3.7086    3.1764   -0.0036 C   0  0  1  0  0  0  0  0  0  0  0  0
    2.0018    3.4377   -2.5033 C   0  0  1  0  0  0  0  0  0  0  0  0
    2.1663    3.3578    0.0572 C   0  0  2  0  0  0  0  0  0  0  0  0
    1.4600    2.7576   -1.2014 C   0  0  2  0  0  0  0  0  0  0  0  0
    1.6492    1.2872   -1.3260 N   0  0  1  0  0  0  0  0  0  0  0  0
    0.9937    0.4259   -0.3128 C   0  0  2  0  0  0  0  0  0  0  0  0
    1.2828   -1.0699   -0.5867 C   0  0  2  0  0  0  0  0  0  0  0  0
    2.7873   -1.4344   -0.6152 C   0  0  0  0  0  0  0  0  0  0  0  0
    7.3562    4.9907   -3.9938 H   0  0  0  0  0  0  0  0  0  0  0  0
    7.9188    4.6592   -2.4446 H   0  0  0  0  0  0  0  0  0  0  0  0
    3.9628    2.1262    0.1578 H   0  0  0  0  0  0  0  0  0  0  0  0
    4.1623    3.7636    0.7989 H   0  0  0  0  0  0  0  0  0  0  0  0
    1.4972    4.3956   -2.6442 H   0  0  0  0  0  0  0  0  0  0  0  0
    1.7793    2.8165   -3.3758 H   0  0  0  0  0  0  0  0  0  0  0  0
    1.9475    4.4285    0.1037 H   0  0  0  0  0  0  0  0  0  0  0  0
    1.7773    2.9108    0.9733 H   0  0  0  0  0  0  0  0  0  0  0  0
    0.3859    2.9606   -1.1381 H   0  0  0  0  0  0  0  0  0  0  0  0
    1.2392    1.0189   -2.2249 H   0  0  0  0  0  0  0  0  0  0  0  0
   -0.0874    0.5832   -0.3451 H   0  0  0  0  0  0  0  0  0  0  0  0
    1.3478    0.6660    0.6901 H   0  0  0  0  0  0  0  0  0  0  0  0
    0.8367   -1.3527   -1.5439 H   0  0  0  0  0  0  0  0  0  0  0  0
    0.7975   -1.6622    0.1953 H   0  0  0  0  0  0  0  0  0  0  0  0
    2.9009   -2.5136   -0.7299 H   0  0  0  0  0  0  0  0  0  0  0  0
    3.2784   -1.1314    0.3107 H   0  0  0  0  0  0  0  0  0  0  0  0
    3.2861   -0.9477   -1.4547 H   0  0  0  0  0  0  0  0  0  0  0  0
  1  2  1  0  0  0  0 
  2  3  2  0  0  0  0 
  2  4  1  0  0  0  0 
  3  5  1  0  0  0  0 
  4  6  1  0  0  0  0 
  5  6  2  0  0  0  0 
  5  7  1  0  0  0  0 
  6  8  1  0  0  0  0 
  7  9  1  0  0  0  0 
 10  8  1  0  0  0  0 
 10  9  1  0  0  0  0 
 10 11  1  0  0  0  0 
 11 12  1  0  0  0  0 
 12 13  1  0  0  0  0 
 13 14  1  0  0  0  0 
  1 15  1  0  0  0  0 
  1 16  1  0  0  0  0 
  7 17  1  0  0  0  0 
  7 18  1  0  0  0  0 
  8 19  1  0  0  0  0 
  8 20  1  0  0  0  0 
  9 21  1  0  0  0  0 
  9 22  1  0  0  0  0 
 10 23  1  0  0  0  0 
 11 24  1  0  0  0  0 
 12 25  1  0  0  0  0 
 12 26  1  0  0  0  0 
 13 27  1  0  0  0  0 
 13 28  1  0  0  0  0 
 14 29  1  0  0  0  0 
 14 30  1  0  0  0  0 
 14 31  1  0  0  0  0 
M  END
> <cdk:Title>
pramipexole

> <Conformer>
1

> <SuperDrugID>
SD002002

$$$$
