prednisolamate
  CDK     0628171801

 73 76  0  0  0  0  0  0  0  0999 V2000
    4.6158    4.3070   -0.0880 C   0  0  0  0  0  0  0  0  0  0  0  0
    3.9207    4.1977   -1.5038 C   0  0  2  0  0  0  0  0  0  0  0  0
    4.8143    4.6842   -2.6934 C   0  0  2  0  0  0  0  0  0  0  0  0
    2.7224    5.2262   -1.5982 C   0  0  2  0  0  0  0  0  0  0  0  0
    3.5649    2.6992   -1.8003 C   0  0  2  0  0  0  0  0  0  0  0  0
    6.1485    3.8761   -2.8629 C   0  0  1  0  0  0  0  0  0  0  0  0
    4.8534    6.2179   -2.5200 C   0  0  1  0  0  0  0  0  0  0  0  0
    1.8005    5.2641   -0.4089 C   0  0  0  0  0  0  0  0  0  0  0  0
    1.8935    4.9457   -2.7394 O   0  0  0  0  0  0  0  0  0  0  0  0
    3.4655    6.5764   -1.9216 C   0  0  2  0  0  0  0  0  0  0  0  0
    4.7987    1.7774   -2.0554 C   0  0  1  0  0  0  0  0  0  0  0  0
    5.8241    2.3460   -3.1115 C   0  0  2  0  0  0  0  0  0  0  0  0
    7.0323    4.4332   -4.0221 C   0  0  1  0  0  0  0  0  0  0  0  0
    0.6322    4.3683   -0.1874 C   0  0  2  0  0  0  0  0  0  0  0  0
    1.9609    6.1484    0.4656 O   0  0  0  0  0  0  0  0  0  0  0  0
    5.4116    1.4543   -0.8100 O   0  0  0  0  0  0  0  0  0  0  0  0
    7.1281    1.4685   -3.3942 C   0  0  2  0  0  0  0  0  0  0  0  0
    8.2961    3.5710   -4.2581 C   0  0  2  0  0  0  0  0  0  0  0  0
    0.6779    3.1501   -0.9398 O   0  0  0  0  0  0  0  0  0  0  0  0
    8.0680    1.2782   -2.1478 C   0  0  0  0  0  0  0  0  0  0  0  0
    7.9204    2.1662   -4.4608 C   0  0  0  0  0  0  0  0  0  0  0  0
    6.7243    0.0982   -3.8032 C   0  0  0  0  0  0  0  0  0  0  0  0
   -0.2276    2.1228   -0.9146 C   0  0  0  0  0  0  0  0  0  0  0  0
    8.2538    1.5420   -5.6135 C   0  0  0  0  0  0  0  0  0  0  0  0
    7.0778   -0.4563   -4.9737 C   0  0  0  0  0  0  0  0  0  0  0  0
    0.0546    0.8861   -1.6701 C   0  0  1  0  0  0  0  0  0  0  0  0
   -1.2732    2.1965   -0.2269 O   0  0  0  0  0  0  0  0  0  0  0  0
    7.8574    0.2413   -5.8760 C   0  0  0  0  0  0  0  0  0  0  0  0
   -1.0771    0.4329   -2.5390 N   0  0  2  0  0  0  0  0  0  0  0  0
    8.1982   -0.3063   -6.9508 O   0  0  0  0  0  0  0  0  0  0  0  0
   -1.0144   -1.1082   -2.8652 C   0  0  1  0  0  0  0  0  0  0  0  0
   -1.1974    1.2368   -3.8905 C   0  0  1  0  0  0  0  0  0  0  0  0
   -1.3359   -2.0948   -1.6860 C   0  0  0  0  0  0  0  0  0  0  0  0
   -1.8397    2.6658   -3.8152 C   0  0  0  0  0  0  0  0  0  0  0  0
    3.9853    3.8568    0.6805 H   0  0  0  0  0  0  0  0  0  0  0  0
    4.7941    5.3412    0.2049 H   0  0  0  0  0  0  0  0  0  0  0  0
    5.5768    3.8017   -0.0500 H   0  0  0  0  0  0  0  0  0  0  0  0
    4.2676    4.5228   -3.6336 H   0  0  0  0  0  0  0  0  0  0  0  0
    2.9268    2.6419   -2.6851 H   0  0  0  0  0  0  0  0  0  0  0  0
    2.9945    2.2805   -0.9684 H   0  0  0  0  0  0  0  0  0  0  0  0
    6.7373    3.9824   -1.9519 H   0  0  0  0  0  0  0  0  0  0  0  0
    5.6600    6.5036   -1.8384 H   0  0  0  0  0  0  0  0  0  0  0  0
    5.0122    6.7195   -3.4789 H   0  0  0  0  0  0  0  0  0  0  0  0
    1.2227    5.6608   -2.7655 H   0  0  0  0  0  0  0  0  0  0  0  0
    3.6278    7.1868   -1.0296 H   0  0  0  0  0  0  0  0  0  0  0  0
    2.8917    7.1862   -2.6241 H   0  0  0  0  0  0  0  0  0  0  0  0
    4.3937    0.8357   -2.4350 H   0  0  0  0  0  0  0  0  0  0  0  0
    5.2589    2.3217   -4.0535 H   0  0  0  0  0  0  0  0  0  0  0  0
    6.4538    4.4680   -4.9504 H   0  0  0  0  0  0  0  0  0  0  0  0
    7.3499    5.4523   -3.7900 H   0  0  0  0  0  0  0  0  0  0  0  0
   -0.2768    4.9186   -0.4452 H   0  0  0  0  0  0  0  0  0  0  0  0
    0.5853    4.1000    0.8730 H   0  0  0  0  0  0  0  0  0  0  0  0
    4.7027    1.0397   -0.2754 H   0  0  0  0  0  0  0  0  0  0  0  0
    8.9652    3.6539   -3.3995 H   0  0  0  0  0  0  0  0  0  0  0  0
    8.8380    3.9901   -5.1121 H   0  0  0  0  0  0  0  0  0  0  0  0
    9.0353    0.8669   -2.4512 H   0  0  0  0  0  0  0  0  0  0  0  0
    8.2546    2.2214   -1.6340 H   0  0  0  0  0  0  0  0  0  0  0  0
    7.6492    0.5898   -1.4116 H   0  0  0  0  0  0  0  0  0  0  0  0
    6.1749   -0.4533   -3.1847 H   0  0  0  0  0  0  0  0  0  0  0  0
    8.7837    2.0176   -6.3076 H   0  0  0  0  0  0  0  0  0  0  0  0
    6.7770   -1.3798   -5.1902 H   0  0  0  0  0  0  0  0  0  0  0  0
    0.9622    1.0052   -2.2639 H   0  0  0  0  0  0  0  0  0  0  0  0
    0.2757    0.1342   -0.9141 H   0  0  0  0  0  0  0  0  0  0  0  0
   -1.7486   -1.4237   -3.6519 H   0  0  0  0  0  0  0  0  0  0  0  0
   -0.0282   -1.4428   -3.2711 H   0  0  0  0  0  0  0  0  0  0  0  0
   -0.2256    1.3757   -4.4259 H   0  0  0  0  0  0  0  0  0  0  0  0
   -1.8367    0.7270   -4.6559 H   0  0  0  0  0  0  0  0  0  0  0  0
   -1.4023   -3.1198   -2.0587 H   0  0  0  0  0  0  0  0  0  0  0  0
   -0.5573   -2.0605   -0.9244 H   0  0  0  0  0  0  0  0  0  0  0  0
   -2.2912   -1.8274   -1.2306 H   0  0  0  0  0  0  0  0  0  0  0  0
   -1.9284    3.0884   -4.8189 H   0  0  0  0  0  0  0  0  0  0  0  0
   -2.8366    2.6000   -3.3719 H   0  0  0  0  0  0  0  0  0  0  0  0
   -1.2205    3.3381   -3.2210 H   0  0  0  0  0  0  0  0  0  0  0  0
  2  1  1  0  0  0  0 
  3  2  1  0  0  0  0 
  2  4  1  0  0  0  0 
  2  5  1  0  0  0  0 
  6  3  1  0  0  0  0 
  3  7  1  0  0  0  0 
  4  8  1  0  0  0  0 
  4  9  1  0  0  0  0 
  4 10  1  0  0  0  0 
 11  5  1  0  0  0  0 
 12  6  1  0  0  0  0 
  6 13  1  0  0  0  0 
  7 10  1  0  0  0  0 
  8 14  1  0  0  0  0 
  8 15  2  0  0  0  0 
 12 11  1  0  0  0  0 
 11 16  1  0  0  0  0 
 12 17  1  0  0  0  0 
 13 18  1  0  0  0  0 
 14 19  1  0  0  0  0 
 17 20  1  0  0  0  0 
 17 21  1  0  0  0  0 
 17 22  1  0  0  0  0 
 18 21  1  0  0  0  0 
 19 23  1  0  0  0  0 
 21 24  2  0  0  0  0 
 22 25  2  0  0  0  0 
 23 26  1  0  0  0  0 
 23 27  2  0  0  0  0 
 24 28  1  0  0  0  0 
 25 28  1  0  0  0  0 
 26 29  1  0  0  0  0 
 28 30  2  0  0  0  0 
 29 31  1  0  0  0  0 
 29 32  1  0  0  0  0 
 31 33  1  0  0  0  0 
 32 34  1  0  0  0  0 
 35  1  1  0  0  0  0 
 36  1  1  0  0  0  0 
 37  1  1  0  0  0  0 
  3 38  1  0  0  0  0 
 39  5  1  0  0  0  0 
 40  5  1  0  0  0  0 
  6 41  1  0  0  0  0 
 42  7  1  0  0  0  0 
 43  7  1  0  0  0  0 
 44  9  1  0  0  0  0 
 45 10  1  0  0  0  0 
 46 10  1  0  0  0  0 
 11 47  1  0  0  0  0 
 12 48  1  0  0  0  0 
 49 13  1  0  0  0  0 
 50 13  1  0  0  0  0 
 51 14  1  0  0  0  0 
 52 14  1  0  0  0  0 
 53 16  1  0  0  0  0 
 54 18  1  0  0  0  0 
 55 18  1  0  0  0  0 
 56 20  1  0  0  0  0 
 57 20  1  0  0  0  0 
 58 20  1  0  0  0  0 
 59 22  1  0  0  0  0 
 60 24  1  0  0  0  0 
 61 25  1  0  0  0  0 
 62 26  1  0  0  0  0 
 63 26  1  0  0  0  0 
 64 31  1  0  0  0  0 
 65 31  1  0  0  0  0 
 66 32  1  0  0  0  0 
 67 32  1  0  0  0  0 
 68 33  1  0  0  0  0 
 69 33  1  0  0  0  0 
 70 33  1  0  0  0  0 
 71 34  1  0  0  0  0 
 72 34  1  0  0  0  0 
 73 34  1  0  0  0  0 
M  END
> <cdk:Title>
prednisolamate

> <Conformer>
1

> <SuperDrugID>
SD003259

$$$$
