homatropine
  CDK     0628171801

 41 43  0  0  0  0  0  0  0  0999 V2000
   -3.4788   -0.9168    0.2793 O   0  0  0  0  0  0  0  0  0  0  0  0
   -4.8385   -0.7520    0.2356 C   0  0  0  0  0  0  0  0  0  0  0  0
   -2.5510   -0.9335   -0.8228 C   0  0  1  0  0  0  0  0  0  0  0  0
   -5.5271   -0.2624    1.4501 C   0  0  1  0  0  0  0  0  0  0  0  0
   -5.4837   -0.9462   -0.8224 O   0  0  0  0  0  0  0  0  0  0  0  0
   -1.2336   -0.2347   -0.3541 C   0  0  1  0  0  0  0  0  0  0  0  0
   -2.2946   -2.3697   -1.3818 C   0  0  2  0  0  0  0  0  0  0  0  0
   -6.0383    1.0233    1.0954 O   0  0  0  0  0  0  0  0  0  0  0  0
   -6.5535   -1.1796    2.0391 C   0  0  0  0  0  0  0  0  0  0  0  0
   -0.2003   -1.2209    0.2757 C   0  0  2  0  0  0  0  0  0  0  0  0
   -1.1159   -3.1196   -0.6801 C   0  0  1  0  0  0  0  0  0  0  0  0
   -6.2020   -2.5045    2.4006 C   0  0  0  0  0  0  0  0  0  0  0  0
   -7.8744   -0.7446    2.3238 C   0  0  0  0  0  0  0  0  0  0  0  0
    0.0724   -2.2313   -0.7788 N   0  0  2  0  0  0  0  0  0  0  0  0
   -0.7298   -2.0451    1.4804 C   0  0  1  0  0  0  0  0  0  0  0  0
   -1.3146   -3.3257    0.8428 C   0  0  2  0  0  0  0  0  0  0  0  0
   -7.1300   -3.3562    3.0328 C   0  0  0  0  0  0  0  0  0  0  0  0
   -8.8002   -1.5937    2.9574 C   0  0  0  0  0  0  0  0  0  0  0  0
    1.4084   -2.8862   -0.7334 C   0  0  0  0  0  0  0  0  0  0  0  0
   -8.4277   -2.8984    3.3189 C   0  0  0  0  0  0  0  0  0  0  0  0
   -2.9801   -0.3228   -1.6252 H   0  0  0  0  0  0  0  0  0  0  0  0
   -4.7766   -0.0851    2.2248 H   0  0  0  0  0  0  0  0  0  0  0  0
   -0.7558    0.2325   -1.2223 H   0  0  0  0  0  0  0  0  0  0  0  0
   -1.4630    0.5637    0.3563 H   0  0  0  0  0  0  0  0  0  0  0  0
   -2.0336   -2.2766   -2.4407 H   0  0  0  0  0  0  0  0  0  0  0  0
   -3.2108   -2.9621   -1.3216 H   0  0  0  0  0  0  0  0  0  0  0  0
   -6.3204    1.4294    1.9406 H   0  0  0  0  0  0  0  0  0  0  0  0
    0.6940   -0.6551    0.5560 H   0  0  0  0  0  0  0  0  0  0  0  0
   -0.9596   -4.0771   -1.1885 H   0  0  0  0  0  0  0  0  0  0  0  0
   -5.2596   -2.8599    2.2197 H   0  0  0  0  0  0  0  0  0  0  0  0
   -8.1758    0.2043    2.0940 H   0  0  0  0  0  0  0  0  0  0  0  0
    0.0981   -2.3019    2.1480 H   0  0  0  0  0  0  0  0  0  0  0  0
   -1.4798   -1.5029    2.0606 H   0  0  0  0  0  0  0  0  0  0  0  0
   -0.7473   -4.2013    1.1736 H   0  0  0  0  0  0  0  0  0  0  0  0
   -2.3643   -3.4744    1.1074 H   0  0  0  0  0  0  0  0  0  0  0  0
   -6.8585   -4.3069    3.2929 H   0  0  0  0  0  0  0  0  0  0  0  0
   -9.7430   -1.2576    3.1648 H   0  0  0  0  0  0  0  0  0  0  0  0
    1.4930   -3.6050   -1.5507 H   0  0  0  0  0  0  0  0  0  0  0  0
    2.1853   -2.1310   -0.8673 H   0  0  0  0  0  0  0  0  0  0  0  0
    1.5820   -3.4037    0.2112 H   0  0  0  0  0  0  0  0  0  0  0  0
   -9.0995   -3.5091    3.7914 H   0  0  0  0  0  0  0  0  0  0  0  0
  1  2  1  0  0  0  0 
  4  2  1  0  0  0  0 
  2  5  2  0  0  0  0 
  3  1  1  0  0  0  0 
  3  6  1  0  0  0  0 
  3  7  1  0  0  0  0 
  4  8  1  0  0  0  0 
  4  9  1  0  0  0  0 
 10  6  1  0  0  0  0 
 11  7  1  0  0  0  0 
  9 12  2  0  0  0  0 
  9 13  1  0  0  0  0 
 10 14  1  0  0  0  0 
 10 15  1  0  0  0  0 
 11 14  1  0  0  0  0 
 11 16  1  0  0  0  0 
 12 17  1  0  0  0  0 
 13 18  2  0  0  0  0 
 14 19  1  0  0  0  0 
 15 16  1  0  0  0  0 
 17 20  2  0  0  0  0 
 18 20  1  0  0  0  0 
  3 21  1  0  0  0  0 
  4 22  1  0  0  0  0 
  6 23  1  0  0  0  0 
  6 24  1  0  0  0  0 
  7 25  1  0  0  0  0 
  7 26  1  0  0  0  0 
  8 27  1  0  0  0  0 
 10 28  1  0  0  0  0 
 11 29  1  0  0  0  0 
 12 30  1  0  0  0  0 
 13 31  1  0  0  0  0 
 15 32  1  0  0  0  0 
 15 33  1  0  0  0  0 
 16 34  1  0  0  0  0 
 16 35  1  0  0  0  0 
 17 36  1  0  0  0  0 
 18 37  1  0  0  0  0 
 19 38  1  0  0  0  0 
 19 39  1  0  0  0  0 
 19 40  1  0  0  0  0 
 20 41  1  0  0  0  0 
M  END
> <cdk:Title>
homatropine

> <Conformer>
1

> <SuperDrugID>
SD001225

$$$$
