zimeldine
  CDK     0628171801

 36 37  0  0  0  0  0  0  0  0999 V2000
    2.0901    3.5468   -0.2821 C   0  0  0  0  0  0  0  0  0  0  0  0
    2.2644    4.2508    0.8642 C   0  0  0  0  0  0  0  0  0  0  0  0
    1.3407    2.3539   -0.2874 C   0  0  0  0  0  0  0  0  0  0  0  0
    2.6489    3.9628   -1.4944 C   0  0  0  0  0  0  0  0  0  0  0  0
    2.9689    5.5221    1.0000 C   0  0  2  0  0  0  0  0  0  0  0  0
    1.8200    1.1875   -0.9436 C   0  0  0  0  0  0  0  0  0  0  0  0
    0.0800    2.2739    0.3584 C   0  0  0  0  0  0  0  0  0  0  0  0
    4.0485    3.9303   -1.6952 C   0  0  0  0  0  0  0  0  0  0  0  0
    1.8365    4.3797   -2.5765 C   0  0  0  0  0  0  0  0  0  0  0  0
    2.3318    6.6078    0.1862 N   0  0  2  0  0  0  0  0  0  0  0  0
    1.0770   -0.0068   -0.9438 C   0  0  0  0  0  0  0  0  0  0  0  0
   -0.6606    1.0779    0.3633 C   0  0  0  0  0  0  0  0  0  0  0  0
    4.5985    4.2958   -2.9351 C   0  0  0  0  0  0  0  0  0  0  0  0
    2.4007    4.7309   -3.7618 N   0  0  0  0  0  0  0  0  0  0  0  0
    3.2629    7.7080   -0.1926 C   0  0  0  0  0  0  0  0  0  0  0  0
    1.0534    7.1164    0.7683 C   0  0  0  0  0  0  0  0  0  0  0  0
   -0.1668   -0.0618   -0.2922 C   0  0  0  0  0  0  0  0  0  0  0  0
    3.7416    4.6997   -3.9725 C   0  0  0  0  0  0  0  0  0  0  0  0
   -1.1650   -1.6310   -0.2997 Br  0  0  0  0  0  0  0  0  0  0  0  0
    1.8745    3.8881    1.7064 H   0  0  0  0  0  0  0  0  0  0  0  0
    4.0069    5.3554    0.7044 H   0  0  0  0  0  0  0  0  0  0  0  0
    2.9982    5.8240    2.0521 H   0  0  0  0  0  0  0  0  0  0  0  0
    2.7241    1.1903   -1.4220 H   0  0  0  0  0  0  0  0  0  0  0  0
   -0.3182    3.0901    0.8312 H   0  0  0  0  0  0  0  0  0  0  0  0
    4.6756    3.6299   -0.9439 H   0  0  0  0  0  0  0  0  0  0  0  0
    0.8174    4.4189   -2.4870 H   0  0  0  0  0  0  0  0  0  0  0  0
    1.4456   -0.8338   -1.4177 H   0  0  0  0  0  0  0  0  0  0  0  0
   -1.5630    1.0406    0.8416 H   0  0  0  0  0  0  0  0  0  0  0  0
    5.6091    4.2664   -3.0782 H   0  0  0  0  0  0  0  0  0  0  0  0
    2.7925    8.3634   -0.9296 H   0  0  0  0  0  0  0  0  0  0  0  0
    4.1696    7.3030   -0.6475 H   0  0  0  0  0  0  0  0  0  0  0  0
    3.5437    8.3047    0.6786 H   0  0  0  0  0  0  0  0  0  0  0  0
    0.3730    6.2904    0.9872 H   0  0  0  0  0  0  0  0  0  0  0  0
    0.5502    7.7749    0.0566 H   0  0  0  0  0  0  0  0  0  0  0  0
    1.2333    7.6686    1.6958 H   0  0  0  0  0  0  0  0  0  0  0  0
    4.1233    4.9675   -4.8825 H   0  0  0  0  0  0  0  0  0  0  0  0
  1  2  2  0  0  0  0 
  1  3  1  0  0  0  0 
  1  4  1  0  0  0  0 
  2  5  1  0  0  0  0 
  3  6  2  0  0  0  0 
  3  7  1  0  0  0  0 
  4  8  2  0  0  0  0 
  4  9  1  0  0  0  0 
  5 10  1  0  0  0  0 
  6 11  1  0  0  0  0 
  7 12  2  0  0  0  0 
  8 13  1  0  0  0  0 
  9 14  2  0  0  0  0 
 10 15  1  0  0  0  0 
 10 16  1  0  0  0  0 
 11 17  2  0  0  0  0 
 12 17  1  0  0  0  0 
 13 18  2  0  0  0  0 
 14 18  1  0  0  0  0 
 17 19  1  0  0  0  0 
  2 20  1  0  0  0  0 
  5 21  1  0  0  0  0 
  5 22  1  0  0  0  0 
  6 23  1  0  0  0  0 
  7 24  1  0  0  0  0 
  8 25  1  0  0  0  0 
  9 26  1  0  0  0  0 
 11 27  1  0  0  0  0 
 12 28  1  0  0  0  0 
 13 29  1  0  0  0  0 
 15 30  1  0  0  0  0 
 15 31  1  0  0  0  0 
 15 32  1  0  0  0  0 
 16 33  1  0  0  0  0 
 16 34  1  0  0  0  0 
 16 35  1  0  0  0  0 
 18 36  1  0  0  0  0 
M  END
> <cdk:Title>
zimeldine

> <Conformer>
1

> <SuperDrugID>
SD002580

$$$$
