tilidine
  CDK     0628171801

 43 44  0  0  0  0  0  0  0  0999 V2000
   -3.3772    4.5048   -1.7263 C   0  0  0  0  0  0  0  0  0  0  0  0
   -3.2005    3.0839   -1.4041 C   0  0  2  0  0  0  0  0  0  0  0  0
   -2.4582    2.8160   -0.0144 C   0  0  1  0  0  0  0  0  0  0  0  0
   -1.2858    3.8587    0.1320 C   0  0  2  0  0  0  0  0  0  0  0  0
   -1.7737    5.3240   -0.0347 C   0  0  1  0  0  0  0  0  0  0  0  0
   -2.7314    5.5096   -1.1107 C   0  0  0  0  0  0  0  0  0  0  0  0
   -3.3234    2.9643    1.2417 C   0  0  0  0  0  0  0  0  0  0  0  0
   -2.8977    2.4117    2.4846 C   0  0  0  0  0  0  0  0  0  0  0  0
   -3.6701    2.5200    3.6553 C   0  0  0  0  0  0  0  0  0  0  0  0
   -4.8817    3.2267    3.6342 C   0  0  0  0  0  0  0  0  0  0  0  0
   -5.3193    3.8149    2.4378 C   0  0  0  0  0  0  0  0  0  0  0  0
   -4.5528    3.6808    1.2653 C   0  0  0  0  0  0  0  0  0  0  0  0
   -2.6682    2.3283   -2.6105 N   0  0  1  0  0  0  0  0  0  0  0  0
   -3.6563    2.0352   -3.6951 C   0  0  0  0  0  0  0  0  0  0  0  0
   -1.3181    2.6868   -3.1442 C   0  0  0  0  0  0  0  0  0  0  0  0
   -1.9496    1.4048   -0.0551 C   0  0  0  0  0  0  0  0  0  0  0  0
   -2.7630    0.4522   -0.1376 O   0  0  0  0  0  0  0  0  0  0  0  0
   -0.6102    1.1443    0.0112 O   0  0  0  0  0  0  0  0  0  0  0  0
    0.0191   -0.1385    0.0050 C   0  0  1  0  0  0  0  0  0  0  0  0
    1.5436    0.0589    0.0383 C   0  0  0  0  0  0  0  0  0  0  0  0
   -4.2094    2.6869   -1.2518 H   0  0  0  0  0  0  0  0  0  0  0  0
   -4.0242    4.7443   -2.4423 H   0  0  0  0  0  0  0  0  0  0  0  0
   -0.5165    3.6861   -0.6198 H   0  0  0  0  0  0  0  0  0  0  0  0
   -0.7795    3.7618    1.0965 H   0  0  0  0  0  0  0  0  0  0  0  0
   -2.2386    5.6577    0.8986 H   0  0  0  0  0  0  0  0  0  0  0  0
   -0.9046    5.9643   -0.2185 H   0  0  0  0  0  0  0  0  0  0  0  0
   -2.9263    6.4419   -1.3970 H   0  0  0  0  0  0  0  0  0  0  0  0
   -2.0099    1.9092    2.5487 H   0  0  0  0  0  0  0  0  0  0  0  0
   -3.3514    2.0871    4.5245 H   0  0  0  0  0  0  0  0  0  0  0  0
   -5.4409    3.3160    4.4871 H   0  0  0  0  0  0  0  0  0  0  0  0
   -6.1950    4.3429    2.4217 H   0  0  0  0  0  0  0  0  0  0  0  0
   -4.9171    4.1338    0.4297 H   0  0  0  0  0  0  0  0  0  0  0  0
   -4.6184    1.7192   -3.2912 H   0  0  0  0  0  0  0  0  0  0  0  0
   -3.2914    1.2140   -4.3163 H   0  0  0  0  0  0  0  0  0  0  0  0
   -3.8151    2.9087   -4.3310 H   0  0  0  0  0  0  0  0  0  0  0  0
   -0.5442    2.3607   -2.4543 H   0  0  0  0  0  0  0  0  0  0  0  0
   -1.1089    2.1885   -4.0924 H   0  0  0  0  0  0  0  0  0  0  0  0
   -1.2259    3.7624   -3.3046 H   0  0  0  0  0  0  0  0  0  0  0  0
   -0.2992   -0.7100    0.8803 H   0  0  0  0  0  0  0  0  0  0  0  0
   -0.2608   -0.6827   -0.9003 H   0  0  0  0  0  0  0  0  0  0  0  0
    2.0438   -0.9101    0.0216 H   0  0  0  0  0  0  0  0  0  0  0  0
    1.8621    0.6387   -0.8302 H   0  0  0  0  0  0  0  0  0  0  0  0
    1.8318    0.5926    0.9460 H   0  0  0  0  0  0  0  0  0  0  0  0
  2  1  1  0  0  0  0 
  1  6  2  0  0  0  0 
  3  2  1  0  0  0  0 
  3  4  1  0  0  0  0 
  4  5  1  0  0  0  0 
  5  6  1  0  0  0  0 
  3  7  1  0  0  0  0 
  8  9  2  0  0  0  0 
  9 10  1  0  0  0  0 
 10 11  2  0  0  0  0 
 11 12  1  0  0  0  0 
 12  7  2  0  0  0  0 
  8  7  1  0  0  0  0 
  2 13  1  0  0  0  0 
 13 14  1  0  0  0  0 
 13 15  1  0  0  0  0 
  3 16  1  0  0  0  0 
 16 17  2  0  0  0  0 
 16 18  1  0  0  0  0 
 18 19  1  0  0  0  0 
 19 20  1  0  0  0  0 
  2 21  1  0  0  0  0 
  1 22  1  0  0  0  0 
  4 23  1  0  0  0  0 
  4 24  1  0  0  0  0 
  5 25  1  0  0  0  0 
  5 26  1  0  0  0  0 
  6 27  1  0  0  0  0 
  8 28  1  0  0  0  0 
  9 29  1  0  0  0  0 
 10 30  1  0  0  0  0 
 11 31  1  0  0  0  0 
 12 32  1  0  0  0  0 
 14 33  1  0  0  0  0 
 14 34  1  0  0  0  0 
 14 35  1  0  0  0  0 
 15 36  1  0  0  0  0 
 15 37  1  0  0  0  0 
 15 38  1  0  0  0  0 
 19 39  1  0  0  0  0 
 19 40  1  0  0  0  0 
 20 41  1  0  0  0  0 
 20 42  1  0  0  0  0 
 20 43  1  0  0  0  0 
M  END
> <cdk:Title>
tilidine

> <Conformer>
1

> <SuperDrugID>
SD002396

$$$$
