idebenone
  CDK     0628171801

 54 54  0  0  0  0  0  0  0  0999 V2000
   -0.6854   -4.6977   -1.4338 O   0  0  0  0  0  0  0  0  0  0  0  0
    0.0516   -5.2916   -2.5196 C   0  0  0  0  0  0  0  0  0  0  0  0
   -0.9972   -3.3771   -1.6337 C   0  0  0  0  0  0  0  0  0  0  0  0
   -2.2325   -3.0374   -2.2187 C   0  0  0  0  0  0  0  0  0  0  0  0
   -0.1155   -2.3566   -1.2239 C   0  0  0  0  0  0  0  0  0  0  0  0
   -3.0972   -4.0206   -2.6185 O   0  0  0  0  0  0  0  0  0  0  0  0
   -2.5706   -1.6850   -2.4194 C   0  0  0  0  0  0  0  0  0  0  0  0
    1.0681   -2.7219   -0.6655 O   0  0  0  0  0  0  0  0  0  0  0  0
   -0.4505   -0.9879   -1.4008 C   0  0  0  0  0  0  0  0  0  0  0  0
   -4.0680   -4.3483   -1.6095 C   0  0  0  0  0  0  0  0  0  0  0  0
   -3.7694   -1.4272   -3.0032 O   0  0  0  0  0  0  0  0  0  0  0  0
   -1.6940   -0.6458   -2.0154 C   0  0  0  0  0  0  0  0  0  0  0  0
    0.4284    0.0112   -0.9811 C   0  0  0  0  0  0  0  0  0  0  0  0
   -2.0887    0.7794   -2.2315 C   0  0  0  0  0  0  0  0  0  0  0  0
    0.9464    0.0876    0.2573 C   0  0  0  0  0  0  0  0  0  0  0  0
    1.8331    1.1547    0.6916 C   0  0  2  0  0  0  0  0  0  0  0  0
    1.1220    2.0784    1.7150 C   0  0  1  0  0  0  0  0  0  0  0  0
    2.0263    3.2253    2.2385 C   0  0  2  0  0  0  0  0  0  0  0  0
    1.2739    4.1578    3.2248 C   0  0  2  0  0  0  0  0  0  0  0  0
    2.1395    5.3328    3.7514 C   0  0  1  0  0  0  0  0  0  0  0  0
    1.3475    6.2455    4.7283 C   0  0  2  0  0  0  0  0  0  0  0  0
    2.1831    7.4321    5.2765 C   0  0  2  0  0  0  0  0  0  0  0  0
    1.3888    8.3335    6.2499 C   0  0  2  0  0  0  0  0  0  0  0  0
    2.2194    9.3924    6.7079 O   0  0  0  0  0  0  0  0  0  0  0  0
    0.1884   -6.3513   -2.2970 H   0  0  0  0  0  0  0  0  0  0  0  0
   -0.4820   -5.2122   -3.4720 H   0  0  0  0  0  0  0  0  0  0  0  0
    1.0403   -4.8366   -2.6178 H   0  0  0  0  0  0  0  0  0  0  0  0
    0.8238   -3.0851    0.2129 H   0  0  0  0  0  0  0  0  0  0  0  0
   -4.7270   -5.1147   -2.0156 H   0  0  0  0  0  0  0  0  0  0  0  0
   -3.5858   -4.7485   -0.7143 H   0  0  0  0  0  0  0  0  0  0  0  0
   -4.6789   -3.4824   -1.3384 H   0  0  0  0  0  0  0  0  0  0  0  0
   -3.5430   -1.0654   -3.8832 H   0  0  0  0  0  0  0  0  0  0  0  0
    0.6522    0.7262   -1.6356 H   0  0  0  0  0  0  0  0  0  0  0  0
   -1.3775    1.2540   -2.9090 H   0  0  0  0  0  0  0  0  0  0  0  0
   -2.0847    1.3179   -1.2815 H   0  0  0  0  0  0  0  0  0  0  0  0
   -3.0817    0.8932   -2.6702 H   0  0  0  0  0  0  0  0  0  0  0  0
    0.7078   -0.6048    0.9313 H   0  0  0  0  0  0  0  0  0  0  0  0
    2.1776    1.7601   -0.1530 H   0  0  0  0  0  0  0  0  0  0  0  0
    2.7161    0.7037    1.1531 H   0  0  0  0  0  0  0  0  0  0  0  0
    0.2388    2.5133    1.2382 H   0  0  0  0  0  0  0  0  0  0  0  0
    0.7884    1.4812    2.5687 H   0  0  0  0  0  0  0  0  0  0  0  0
    2.3795    3.8135    1.3885 H   0  0  0  0  0  0  0  0  0  0  0  0
    2.8972    2.7951    2.7396 H   0  0  0  0  0  0  0  0  0  0  0  0
    0.9265    3.5644    4.0742 H   0  0  0  0  0  0  0  0  0  0  0  0
    0.3970    4.5691    2.7180 H   0  0  0  0  0  0  0  0  0  0  0  0
    3.0150    4.9289    4.2663 H   0  0  0  0  0  0  0  0  0  0  0  0
    2.4866    5.9310    2.9047 H   0  0  0  0  0  0  0  0  0  0  0  0
    1.0000    5.6430    5.5723 H   0  0  0  0  0  0  0  0  0  0  0  0
    0.4710    6.6455    4.2107 H   0  0  0  0  0  0  0  0  0  0  0  0
    2.5299    8.0461    4.4410 H   0  0  0  0  0  0  0  0  0  0  0  0
    3.0596    7.0429    5.8016 H   0  0  0  0  0  0  0  0  0  0  0  0
    1.0514    7.7587    7.1141 H   0  0  0  0  0  0  0  0  0  0  0  0
    0.5207    8.7655    5.7487 H   0  0  0  0  0  0  0  0  0  0  0  0
    1.6510    9.9123    7.3131 H   0  0  0  0  0  0  0  0  0  0  0  0
  1  2  1  0  0  0  0 
  1  3  1  0  0  0  0 
  3  4  2  0  0  0  0 
  3  5  1  0  0  0  0 
  4  6  1  0  0  0  0 
  4  7  1  0  0  0  0 
  5  8  1  0  0  0  0 
  5  9  2  0  0  0  0 
  6 10  1  0  0  0  0 
  7 11  1  0  0  0  0 
  7 12  2  0  0  0  0 
  9 12  1  0  0  0  0 
 13  9  1  0  0  0  0 
 12 14  1  0  0  0  0 
 13 15  2  0  0  0  0 
 15 16  1  0  0  0  0 
 16 17  1  0  0  0  0 
 17 18  1  0  0  0  0 
 18 19  1  0  0  0  0 
 19 20  1  0  0  0  0 
 20 21  1  0  0  0  0 
 21 22  1  0  0  0  0 
 22 23  1  0  0  0  0 
 23 24  1  0  0  0  0 
 25  2  1  0  0  0  0 
 26  2  1  0  0  0  0 
 27  2  1  0  0  0  0 
 28  8  1  0  0  0  0 
 29 10  1  0  0  0  0 
 30 10  1  0  0  0  0 
 31 10  1  0  0  0  0 
 32 11  1  0  0  0  0 
 13 33  1  0  0  0  0 
 34 14  1  0  0  0  0 
 35 14  1  0  0  0  0 
 36 14  1  0  0  0  0 
 37 15  1  0  0  0  0 
 38 16  1  0  0  0  0 
 39 16  1  0  0  0  0 
 40 17  1  0  0  0  0 
 41 17  1  0  0  0  0 
 42 18  1  0  0  0  0 
 43 18  1  0  0  0  0 
 44 19  1  0  0  0  0 
 45 19  1  0  0  0  0 
 46 20  1  0  0  0  0 
 47 20  1  0  0  0  0 
 48 21  1  0  0  0  0 
 49 21  1  0  0  0  0 
 50 22  1  0  0  0  0 
 51 22  1  0  0  0  0 
 52 23  1  0  0  0  0 
 53 23  1  0  0  0  0 
 54 24  1  0  0  0  0 
M  END
> <cdk:Title>
idebenone

> <Conformer>
1

> <SuperDrugID>
SD001257

$$$$
