niclosamide
  CDK     0628171801

 29 30  0  0  0  0  0  0  0  0999 V2000
   -3.0885    4.5406    1.1398 C   0  0  0  0  0  0  0  0  0  0  0  0
   -2.1758    4.3107    0.1431 N   0  0  0  0  0  0  0  0  0  0  0  0
   -3.1990    3.7166    2.0795 O   0  0  0  0  0  0  0  0  0  0  0  0
   -3.8651    5.7409    1.1769 C   0  0  0  0  0  0  0  0  0  0  0  0
   -1.3138    3.2551    0.0225 C   0  0  0  0  0  0  0  0  0  0  0  0
   -5.0714    5.8369    1.9277 C   0  0  0  0  0  0  0  0  0  0  0  0
   -3.4337    6.9001    0.4811 C   0  0  0  0  0  0  0  0  0  0  0  0
    0.0056    3.4989   -0.4285 C   0  0  0  0  0  0  0  0  0  0  0  0
   -1.6896    1.9266    0.3188 C   0  0  0  0  0  0  0  0  0  0  0  0
   -5.6291    4.7714    2.5560 O   0  0  0  0  0  0  0  0  0  0  0  0
   -5.7612    7.0598    2.0365 C   0  0  0  0  0  0  0  0  0  0  0  0
   -4.1382    8.1162    0.5648 C   0  0  0  0  0  0  0  0  0  0  0  0
    0.5237    5.0540   -0.8740 Cl  0  0  0  0  0  0  0  0  0  0  0  0
    0.9384    2.4431   -0.4996 C   0  0  0  0  0  0  0  0  0  0  0  0
   -0.7519    0.8817    0.2534 C   0  0  0  0  0  0  0  0  0  0  0  0
   -5.2947    8.1977    1.3598 C   0  0  0  0  0  0  0  0  0  0  0  0
   -3.5931    9.4757   -0.2849 Cl  0  0  0  0  0  0  0  0  0  0  0  0
    0.5898    1.1164   -0.1424 C   0  0  0  0  0  0  0  0  0  0  0  0
    1.5013    0.1252   -0.1729 N   0  0  0  0  0  0  0  0  0  0  0  0
    2.6917    0.2960   -0.5907 O   0  0  0  0  0  0  0  0  0  0  0  0
    1.2732   -0.9601    0.1957 O   0  0  0  0  0  0  0  0  0  0  0  0
   -2.0825    5.0040   -0.5267 H   0  0  0  0  0  0  0  0  0  0  0  0
   -2.5868    6.8758   -0.0907 H   0  0  0  0  0  0  0  0  0  0  0  0
   -2.6548    1.7066    0.5761 H   0  0  0  0  0  0  0  0  0  0  0  0
   -5.4966    4.0163    1.9458 H   0  0  0  0  0  0  0  0  0  0  0  0
   -6.6115    7.1228    2.6031 H   0  0  0  0  0  0  0  0  0  0  0  0
    1.8913    2.6501   -0.8098 H   0  0  0  0  0  0  0  0  0  0  0  0
   -1.0640   -0.0596    0.5027 H   0  0  0  0  0  0  0  0  0  0  0  0
   -5.8058    9.0789    1.4441 H   0  0  0  0  0  0  0  0  0  0  0  0
  1  2  1  0  0  0  0 
  1  3  2  0  0  0  0 
  1  4  1  0  0  0  0 
  2  5  1  0  0  0  0 
  4  6  2  0  0  0  0 
  4  7  1  0  0  0  0 
  5  8  2  0  0  0  0 
  5  9  1  0  0  0  0 
  6 10  1  0  0  0  0 
  6 11  1  0  0  0  0 
  7 12  2  0  0  0  0 
  8 13  1  0  0  0  0 
  8 14  1  0  0  0  0 
  9 15  2  0  0  0  0 
 11 16  2  0  0  0  0 
 12 16  1  0  0  0  0 
 12 17  1  0  0  0  0 
 14 18  2  0  0  0  0 
 15 18  1  0  0  0  0 
 18 19  1  0  0  0  0 
 19 20  1  0  0  0  0 
 19 21  2  0  0  0  0 
  2 22  1  0  0  0  0 
  7 23  1  0  0  0  0 
  9 24  1  0  0  0  0 
 10 25  1  0  0  0  0 
 11 26  1  0  0  0  0 
 14 27  1  0  0  0  0 
 15 28  1  0  0  0  0 
 16 29  1  0  0  0  0 
M  CHG  1  19   1
M  CHG  1  20  -1
M  END
> <cdk:Title>
niclosamide

> <Conformer>
1

> <SuperDrugID>
SD001707

$$$$
