dexamethasone dipropionate
  CDK     0628171802

 73 76  0  0  0  0  0  0  0  0999 V2000
   -5.5714    5.5065    6.4414 C   0  0  0  0  0  0  0  0  0  0  0  0
   -6.9789    5.3495    6.0103 C   0  0  1  0  0  0  0  0  0  0  0  0
   -5.3816    5.6267    7.6748 O   0  0  0  0  0  0  0  0  0  0  0  0
   -4.4075    5.4938    5.4848 C   0  0  2  0  0  0  0  0  0  0  0  0
   -7.8193    6.3074    6.6723 O   0  0  0  0  0  0  0  0  0  0  0  0
   -4.6214    6.4987    4.4495 O   0  0  0  0  0  0  0  0  0  0  0  0
   -4.1974    4.0811    4.7862 C   0  0  2  0  0  0  0  0  0  0  0  0
   -2.9826    5.7346    6.1498 C   0  0  2  0  0  0  0  0  0  0  0  0
   -8.7762    6.0664    7.6178 C   0  0  0  0  0  0  0  0  0  0  0  0
   -5.1606    7.7620    4.4789 C   0  0  0  0  0  0  0  0  0  0  0  0
   -4.2930    2.9166    5.8591 C   0  0  0  0  0  0  0  0  0  0  0  0
   -2.7635    4.2822    4.1945 C   0  0  1  0  0  0  0  0  0  0  0  0
   -5.1416    3.7454    3.5693 C   0  0  2  0  0  0  0  0  0  0  0  0
   -2.5167    7.2129    6.2552 C   0  0  0  0  0  0  0  0  0  0  0  0
   -1.9565    4.8447    5.3791 C   0  0  2  0  0  0  0  0  0  0  0  0
   -9.5532    7.2021    8.1481 C   0  0  1  0  0  0  0  0  0  0  0  0
   -8.9891    4.9095    8.0518 O   0  0  0  0  0  0  0  0  0  0  0  0
   -5.1531    8.5886    3.2563 C   0  0  2  0  0  0  0  0  0  0  0  0
   -5.6769    8.2301    5.5204 O   0  0  0  0  0  0  0  0  0  0  0  0
   -2.2081    3.0624    3.3824 C   0  0  1  0  0  0  0  0  0  0  0  0
   -4.6489    2.5607    2.6710 C   0  0  1  0  0  0  0  0  0  0  0  0
  -10.6333    7.6782    7.1536 C   0  0  0  0  0  0  0  0  0  0  0  0
   -4.4796    9.9636    3.4743 C   0  0  0  0  0  0  0  0  0  0  0  0
   -3.1628    2.7237    2.1630 C   0  0  1  0  0  0  0  0  0  0  0  0
   -0.7491    3.3219    2.8950 C   0  0  1  0  0  0  0  0  0  0  0  0
   -4.8538    1.3313    3.3611 O   0  0  0  0  0  0  0  0  0  0  0  0
   -3.1992    3.8503    1.3491 F   0  0  0  0  0  0  0  0  0  0  0  0
   -2.5809    1.5525    1.2383 C   0  0  2  0  0  0  0  0  0  0  0  0
   -0.2223    2.1566    2.0275 C   0  0  2  0  0  0  0  0  0  0  0  0
   -2.5986    0.1219    1.8913 C   0  0  0  0  0  0  0  0  0  0  0  0
   -1.1521    1.8976    0.9201 C   0  0  0  0  0  0  0  0  0  0  0  0
   -3.4093    1.4145    0.0104 C   0  0  0  0  0  0  0  0  0  0  0  0
   -0.7263    2.0319   -0.3561 C   0  0  0  0  0  0  0  0  0  0  0  0
   -2.9188    1.5636   -1.2308 C   0  0  0  0  0  0  0  0  0  0  0  0
   -1.5851    1.8656   -1.4297 C   0  0  0  0  0  0  0  0  0  0  0  0
   -1.1514    2.0042   -2.5977 O   0  0  0  0  0  0  0  0  0  0  0  0
   -7.0869    5.5203    4.9395 H   0  0  0  0  0  0  0  0  0  0  0  0
   -7.2924    4.3253    6.2193 H   0  0  0  0  0  0  0  0  0  0  0  0
   -2.9876    5.3659    7.1806 H   0  0  0  0  0  0  0  0  0  0  0  0
   -3.8243    1.9942    5.5285 H   0  0  0  0  0  0  0  0  0  0  0  0
   -3.8144    3.1804    6.8024 H   0  0  0  0  0  0  0  0  0  0  0  0
   -5.3354    2.6862    6.0870 H   0  0  0  0  0  0  0  0  0  0  0  0
   -2.7914    5.1055    3.4685 H   0  0  0  0  0  0  0  0  0  0  0  0
   -5.2403    4.6233    2.9256 H   0  0  0  0  0  0  0  0  0  0  0  0
   -6.1484    3.5110    3.9229 H   0  0  0  0  0  0  0  0  0  0  0  0
   -1.5914    7.2713    6.8332 H   0  0  0  0  0  0  0  0  0  0  0  0
   -3.2727    7.8122    6.7634 H   0  0  0  0  0  0  0  0  0  0  0  0
   -2.3295    7.6326    5.2648 H   0  0  0  0  0  0  0  0  0  0  0  0
   -1.5900    4.0275    6.0080 H   0  0  0  0  0  0  0  0  0  0  0  0
   -1.0911    5.4103    5.0240 H   0  0  0  0  0  0  0  0  0  0  0  0
  -10.0398    6.9214    9.0864 H   0  0  0  0  0  0  0  0  0  0  0  0
   -8.8681    8.0251    8.3652 H   0  0  0  0  0  0  0  0  0  0  0  0
   -6.1837    8.7409    2.9299 H   0  0  0  0  0  0  0  0  0  0  0  0
   -4.6237    8.0631    2.4576 H   0  0  0  0  0  0  0  0  0  0  0  0
   -2.1581    2.1996    4.0470 H   0  0  0  0  0  0  0  0  0  0  0  0
   -5.3177    2.5220    1.8080 H   0  0  0  0  0  0  0  0  0  0  0  0
  -11.1527    8.5456    7.5656 H   0  0  0  0  0  0  0  0  0  0  0  0
  -10.1816    7.9616    6.2011 H   0  0  0  0  0  0  0  0  0  0  0  0
  -11.3655    6.8862    6.9800 H   0  0  0  0  0  0  0  0  0  0  0  0
   -4.5096   10.5406    2.5479 H   0  0  0  0  0  0  0  0  0  0  0  0
   -5.0031   10.5295    4.2497 H   0  0  0  0  0  0  0  0  0  0  0  0
   -3.4368    9.8326    3.7728 H   0  0  0  0  0  0  0  0  0  0  0  0
   -0.7059    4.2490    2.3135 H   0  0  0  0  0  0  0  0  0  0  0  0
   -0.0821    3.4390    3.7537 H   0  0  0  0  0  0  0  0  0  0  0  0
   -5.8162    1.2916    3.5417 H   0  0  0  0  0  0  0  0  0  0  0  0
   -0.1141    1.2619    2.6445 H   0  0  0  0  0  0  0  0  0  0  0  0
    0.7839    2.4213    1.6870 H   0  0  0  0  0  0  0  0  0  0  0  0
   -2.2035    0.1320    2.9055 H   0  0  0  0  0  0  0  0  0  0  0  0
   -1.9966   -0.5798    1.3069 H   0  0  0  0  0  0  0  0  0  0  0  0
   -3.6053   -0.2973    1.9418 H   0  0  0  0  0  0  0  0  0  0  0  0
   -4.3755    1.1915    0.0951 H   0  0  0  0  0  0  0  0  0  0  0  0
    0.2203    2.2717   -0.5462 H   0  0  0  0  0  0  0  0  0  0  0  0
   -3.5221    1.4537   -2.0150 H   0  0  0  0  0  0  0  0  0  0  0  0
  1  2  1  0  0  0  0 
  1  3  2  0  0  0  0 
  4  1  1  0  0  0  0 
  2  5  1  0  0  0  0 
  4  6  1  0  0  0  0 
  7  4  1  0  0  0  0 
  4  8  1  0  0  0  0 
  5  9  1  0  0  0  0 
  6 10  1  0  0  0  0 
  7 11  1  0  0  0  0 
 12  7  1  0  0  0  0 
  7 13  1  0  0  0  0 
  8 14  1  0  0  0  0 
  8 15  1  0  0  0  0 
  9 16  1  0  0  0  0 
  9 17  2  0  0  0  0 
 10 18  1  0  0  0  0 
 10 19  2  0  0  0  0 
 12 15  1  0  0  0  0 
 20 12  1  0  0  0  0 
 21 13  1  0  0  0  0 
 16 22  1  0  0  0  0 
 18 23  1  0  0  0  0 
 24 20  1  0  0  0  0 
 20 25  1  0  0  0  0 
 24 21  1  0  0  0  0 
 21 26  1  0  0  0  0 
 24 27  1  0  0  0  0 
 24 28  1  0  0  0  0 
 25 29  1  0  0  0  0 
 28 30  1  0  0  0  0 
 28 31  1  0  0  0  0 
 28 32  1  0  0  0  0 
 29 31  1  0  0  0  0 
 31 33  2  0  0  0  0 
 32 34  2  0  0  0  0 
 33 35  1  0  0  0  0 
 34 35  1  0  0  0  0 
 35 36  2  0  0  0  0 
 37  2  1  0  0  0  0 
 38  2  1  0  0  0  0 
  8 39  1  0  0  0  0 
 40 11  1  0  0  0  0 
 41 11  1  0  0  0  0 
 42 11  1  0  0  0  0 
 12 43  1  0  0  0  0 
 44 13  1  0  0  0  0 
 45 13  1  0  0  0  0 
 46 14  1  0  0  0  0 
 47 14  1  0  0  0  0 
 48 14  1  0  0  0  0 
 49 15  1  0  0  0  0 
 50 15  1  0  0  0  0 
 51 16  1  0  0  0  0 
 52 16  1  0  0  0  0 
 53 18  1  0  0  0  0 
 54 18  1  0  0  0  0 
 20 55  1  0  0  0  0 
 21 56  1  0  0  0  0 
 57 22  1  0  0  0  0 
 58 22  1  0  0  0  0 
 59 22  1  0  0  0  0 
 60 23  1  0  0  0  0 
 61 23  1  0  0  0  0 
 62 23  1  0  0  0  0 
 63 25  1  0  0  0  0 
 64 25  1  0  0  0  0 
 65 26  1  0  0  0  0 
 66 29  1  0  0  0  0 
 67 29  1  0  0  0  0 
 68 30  1  0  0  0  0 
 69 30  1  0  0  0  0 
 70 30  1  0  0  0  0 
 71 32  1  0  0  0  0 
 72 33  1  0  0  0  0 
 73 34  1  0  0  0  0 
M  END
> <cdk:Title>
dexamethasone dipropionate

> <Conformer>
1

> <SuperDrugID>
SD000731

$$$$
