dimethisterone
  CDK     0628171802

 57 60  0  0  0  0  0  0  0  0999 V2000
   -3.9890    1.7975    0.4749 C   0  0  0  0  0  0  0  0  0  0  0  0
   -2.8567    2.3513    1.4291 C   0  0  2  0  0  0  0  0  0  0  0  0
   -3.3883    3.1143    2.6869 C   0  0  2  0  0  0  0  0  0  0  0  0
   -2.0885    3.5246    0.6996 C   0  0  1  0  0  0  0  0  0  0  0  0
   -2.0160    1.1278    1.9444 C   0  0  2  0  0  0  0  0  0  0  0  0
   -4.2988    2.2439    3.6124 C   0  0  1  0  0  0  0  0  0  0  0  0
   -3.9272    4.4511    2.1225 C   0  0  2  0  0  0  0  0  0  0  0  0
   -0.8605    3.8496    1.2517 C   0  0  0  0  0  0  0  0  0  0  0  0
   -1.8379    3.2744   -0.6867 O   0  0  0  0  0  0  0  0  0  0  0  0
   -3.0632    4.7368    0.8628 C   0  0  2  0  0  0  0  0  0  0  0  0
   -2.8129    0.2025    2.9180 C   0  0  2  0  0  0  0  0  0  0  0  0
   -3.5116    0.9683    4.1005 C   0  0  2  0  0  0  0  0  0  0  0  0
   -4.8028    3.0460    4.8503 C   0  0  1  0  0  0  0  0  0  0  0  0
    0.1669    4.1783    1.7667 C   0  0  0  0  0  0  0  0  0  0  0  0
   -4.3613    0.0629    5.1012 C   0  0  2  0  0  0  0  0  0  0  0  0
   -5.6572    2.1612    5.8054 C   0  0  1  0  0  0  0  0  0  0  0  0
    1.3144    4.5849    2.3782 C   0  0  0  0  0  0  0  0  0  0  0  0
   -5.5816   -0.6545    4.4070 C   0  0  0  0  0  0  0  0  0  0  0  0
   -4.8862    0.9490    6.2029 C   0  0  0  0  0  0  0  0  0  0  0  0
   -3.4070   -1.0770    5.6609 C   0  0  1  0  0  0  0  0  0  0  0  0
   -6.2962    3.0431    6.9216 C   0  0  0  0  0  0  0  0  0  0  0  0
   -4.6578    0.6554    7.5079 C   0  0  0  0  0  0  0  0  0  0  0  0
   -3.8939   -1.6439    7.0128 C   0  0  1  0  0  0  0  0  0  0  0  0
   -4.0390   -0.5059    7.9394 C   0  0  0  0  0  0  0  0  0  0  0  0
   -3.6012   -0.5950    9.1117 O   0  0  0  0  0  0  0  0  0  0  0  0
   -3.5431    1.3304   -0.4048 H   0  0  0  0  0  0  0  0  0  0  0  0
   -4.6537    2.5841    0.1216 H   0  0  0  0  0  0  0  0  0  0  0  0
   -4.6166    1.0475    0.9516 H   0  0  0  0  0  0  0  0  0  0  0  0
   -2.5304    3.3939    3.3170 H   0  0  0  0  0  0  0  0  0  0  0  0
   -1.1297    1.4753    2.4800 H   0  0  0  0  0  0  0  0  0  0  0  0
   -1.6594    0.5368    1.0971 H   0  0  0  0  0  0  0  0  0  0  0  0
   -5.1782    1.9440    3.0411 H   0  0  0  0  0  0  0  0  0  0  0  0
   -3.8238    5.2549    2.8597 H   0  0  0  0  0  0  0  0  0  0  0  0
   -4.9833    4.3562    1.8537 H   0  0  0  0  0  0  0  0  0  0  0  0
   -1.2880    2.4632   -0.7082 H   0  0  0  0  0  0  0  0  0  0  0  0
   -3.7159    4.8116   -0.0118 H   0  0  0  0  0  0  0  0  0  0  0  0
   -2.5522    5.7006    0.9533 H   0  0  0  0  0  0  0  0  0  0  0  0
   -2.0950   -0.5147    3.3225 H   0  0  0  0  0  0  0  0  0  0  0  0
   -3.5488   -0.3752    2.3592 H   0  0  0  0  0  0  0  0  0  0  0  0
   -2.6735    1.3626    4.6907 H   0  0  0  0  0  0  0  0  0  0  0  0
   -3.9514    3.4621    5.4022 H   0  0  0  0  0  0  0  0  0  0  0  0
   -5.4090    3.8842    4.4969 H   0  0  0  0  0  0  0  0  0  0  0  0
   -6.5266    1.8219    5.2368 H   0  0  0  0  0  0  0  0  0  0  0  0
    1.9853    5.0213    1.6402 H   0  0  0  0  0  0  0  0  0  0  0  0
    1.0773    5.3336    3.1330 H   0  0  0  0  0  0  0  0  0  0  0  0
    1.8026    3.7386    2.8589 H   0  0  0  0  0  0  0  0  0  0  0  0
   -6.2046   -1.1605    5.1494 H   0  0  0  0  0  0  0  0  0  0  0  0
   -6.2252    0.0393    3.8677 H   0  0  0  0  0  0  0  0  0  0  0  0
   -5.2539   -1.4085    3.6876 H   0  0  0  0  0  0  0  0  0  0  0  0
   -3.3068   -1.9003    4.9471 H   0  0  0  0  0  0  0  0  0  0  0  0
   -2.3959   -0.6891    5.8266 H   0  0  0  0  0  0  0  0  0  0  0  0
   -6.9129    3.8296    6.4813 H   0  0  0  0  0  0  0  0  0  0  0  0
   -5.5277    3.5124    7.5380 H   0  0  0  0  0  0  0  0  0  0  0  0
   -6.9450    2.4362    7.5572 H   0  0  0  0  0  0  0  0  0  0  0  0
   -4.9372    1.2852    8.2201 H   0  0  0  0  0  0  0  0  0  0  0  0
   -4.8638   -2.1329    6.8914 H   0  0  0  0  0  0  0  0  0  0  0  0
   -3.1873   -2.3855    7.3937 H   0  0  0  0  0  0  0  0  0  0  0  0
  2  1  1  0  0  0  0 
  2  3  1  0  0  0  0 
  2  4  1  0  0  0  0 
  2  5  1  0  0  0  0 
  3  6  1  0  0  0  0 
  3  7  1  0  0  0  0 
  4  8  1  0  0  0  0 
  4  9  1  0  0  0  0 
  4 10  1  0  0  0  0 
  5 11  1  0  0  0  0 
  6 12  1  0  0  0  0 
  6 13  1  0  0  0  0 
  7 10  1  0  0  0  0 
  8 14  3  0  0  0  0 
 12 11  1  0  0  0  0 
 12 15  1  0  0  0  0 
 16 13  1  0  0  0  0 
 14 17  1  0  0  0  0 
 15 18  1  0  0  0  0 
 15 19  1  0  0  0  0 
 15 20  1  0  0  0  0 
 16 19  1  0  0  0  0 
 16 21  1  0  0  0  0 
 19 22  2  0  0  0  0 
 20 23  1  0  0  0  0 
 22 24  1  0  0  0  0 
 23 24  1  0  0  0  0 
 24 25  2  0  0  0  0 
 26  1  1  0  0  0  0 
 27  1  1  0  0  0  0 
 28  1  1  0  0  0  0 
  3 29  1  0  0  0  0 
 30  5  1  0  0  0  0 
 31  5  1  0  0  0  0 
  6 32  1  0  0  0  0 
 33  7  1  0  0  0  0 
 34  7  1  0  0  0  0 
 35  9  1  0  0  0  0 
 36 10  1  0  0  0  0 
 37 10  1  0  0  0  0 
 38 11  1  0  0  0  0 
 39 11  1  0  0  0  0 
 12 40  1  0  0  0  0 
 41 13  1  0  0  0  0 
 42 13  1  0  0  0  0 
 16 43  1  0  0  0  0 
 44 17  1  0  0  0  0 
 45 17  1  0  0  0  0 
 46 17  1  0  0  0  0 
 47 18  1  0  0  0  0 
 48 18  1  0  0  0  0 
 49 18  1  0  0  0  0 
 50 20  1  0  0  0  0 
 51 20  1  0  0  0  0 
 52 21  1  0  0  0  0 
 53 21  1  0  0  0  0 
 54 21  1  0  0  0  0 
 55 22  1  0  0  0  0 
 56 23  1  0  0  0  0 
 57 23  1  0  0  0  0 
M  END
> <cdk:Title>
dimethisterone

> <Conformer>
1

> <SuperDrugID>
SD000804

$$$$
