pecazine
  CDK     0628171801

 44 47  0  0  0  0  0  0  0  0999 V2000
    1.3711    2.2832    1.4069 C   0  0  0  0  0  0  0  0  0  0  0  0
    0.7689    3.1153    0.4498 C   0  0  0  0  0  0  0  0  0  0  0  0
   -0.4665    2.7550   -0.1118 C   0  0  0  0  0  0  0  0  0  0  0  0
   -1.1068    1.5742    0.3069 C   0  0  0  0  0  0  0  0  0  0  0  0
   -0.5565    0.7535    1.3269 C   0  0  0  0  0  0  0  0  0  0  0  0
    0.7115    1.1218    1.8465 C   0  0  0  0  0  0  0  0  0  0  0  0
   -2.5977    1.0801   -0.4826 S   0  0  0  0  0  0  0  0  0  0  0  0
   -2.5764   -0.6630   -0.2504 C   0  0  0  0  0  0  0  0  0  0  0  0
   -1.8962   -1.2026    0.8732 C   0  0  0  0  0  0  0  0  0  0  0  0
   -1.2474   -0.3697    1.7882 N   0  0  0  0  0  0  0  0  0  0  0  0
   -3.1999   -1.4901   -1.2045 C   0  0  0  0  0  0  0  0  0  0  0  0
   -3.1717   -2.8844   -1.0446 C   0  0  0  0  0  0  0  0  0  0  0  0
   -2.5263   -3.4468    0.0681 C   0  0  0  0  0  0  0  0  0  0  0  0
   -1.8828   -2.6161    1.0050 C   0  0  0  0  0  0  0  0  0  0  0  0
   -1.3197   -0.6485    3.2230 C   0  0  1  0  0  0  0  0  0  0  0  0
   -1.8747    0.5247    4.0979 C   0  0  2  0  0  0  0  0  0  0  0  0
   -1.8108    0.2006    5.6213 C   0  0  1  0  0  0  0  0  0  0  0  0
   -3.3354    0.9013    3.7094 C   0  0  2  0  0  0  0  0  0  0  0  0
   -3.8397    2.0378    4.5419 N   0  0  2  0  0  0  0  0  0  0  0  0
   -3.7955    1.7684    6.0132 C   0  0  2  0  0  0  0  0  0  0  0  0
   -2.3746    1.3623    6.4782 C   0  0  2  0  0  0  0  0  0  0  0  0
   -5.1600    2.5494    4.0843 C   0  0  0  0  0  0  0  0  0  0  0  0
    2.2861    2.5243    1.7892 H   0  0  0  0  0  0  0  0  0  0  0  0
    1.2341    3.9755    0.1558 H   0  0  0  0  0  0  0  0  0  0  0  0
   -0.8914    3.3486   -0.8283 H   0  0  0  0  0  0  0  0  0  0  0  0
    1.1759    0.5445    2.5495 H   0  0  0  0  0  0  0  0  0  0  0  0
   -3.6666   -1.0873   -2.0213 H   0  0  0  0  0  0  0  0  0  0  0  0
   -3.6207   -3.4902   -1.7370 H   0  0  0  0  0  0  0  0  0  0  0  0
   -2.5226   -4.4625    0.1906 H   0  0  0  0  0  0  0  0  0  0  0  0
   -1.3914   -3.0605    1.7836 H   0  0  0  0  0  0  0  0  0  0  0  0
   -1.9594   -1.5103    3.4318 H   0  0  0  0  0  0  0  0  0  0  0  0
   -0.3232   -0.9252    3.5740 H   0  0  0  0  0  0  0  0  0  0  0  0
   -1.2441    1.4035    3.9296 H   0  0  0  0  0  0  0  0  0  0  0  0
   -2.3870   -0.7065    5.8257 H   0  0  0  0  0  0  0  0  0  0  0  0
   -0.7754    0.0115    5.9163 H   0  0  0  0  0  0  0  0  0  0  0  0
   -3.9869    0.0269    3.8182 H   0  0  0  0  0  0  0  0  0  0  0  0
   -3.3463    1.1979    2.6575 H   0  0  0  0  0  0  0  0  0  0  0  0
   -4.5081    0.9835    6.2872 H   0  0  0  0  0  0  0  0  0  0  0  0
   -4.0791    2.6725    6.5570 H   0  0  0  0  0  0  0  0  0  0  0  0
   -1.7087    2.2289    6.4006 H   0  0  0  0  0  0  0  0  0  0  0  0
   -2.4099    1.0580    7.5274 H   0  0  0  0  0  0  0  0  0  0  0  0
   -5.9497    1.8109    4.2393 H   0  0  0  0  0  0  0  0  0  0  0  0
   -5.1226    2.8044    3.0240 H   0  0  0  0  0  0  0  0  0  0  0  0
   -5.4183    3.4595    4.6272 H   0  0  0  0  0  0  0  0  0  0  0  0
  1  2  2  0  0  0  0 
  2  3  1  0  0  0  0 
  3  4  2  0  0  0  0 
  4  5  1  0  0  0  0 
  5  6  2  0  0  0  0 
  1  6  1  0  0  0  0 
  7  8  1  0  0  0  0 
  9 10  1  0  0  0  0 
  4  7  1  0  0  0  0 
  5 10  1  0  0  0  0 
 11 12  1  0  0  0  0 
 12 13  2  0  0  0  0 
 13 14  1  0  0  0  0 
  8 11  2  0  0  0  0 
  9 14  2  0  0  0  0 
  9  8  1  0  0  0  0 
 10 15  1  0  0  0  0 
 16 15  1  0  0  0  0 
 18 19  1  0  0  0  0 
 19 20  1  0  0  0  0 
 20 21  1  0  0  0  0 
 17 21  1  0  0  0  0 
 16 17  1  0  0  0  0 
 16 18  1  0  0  0  0 
 19 22  1  0  0  0  0 
  1 23  1  0  0  0  0 
  2 24  1  0  0  0  0 
  3 25  1  0  0  0  0 
  6 26  1  0  0  0  0 
 11 27  1  0  0  0  0 
 12 28  1  0  0  0  0 
 13 29  1  0  0  0  0 
 14 30  1  0  0  0  0 
 15 31  1  0  0  0  0 
 15 32  1  0  0  0  0 
 16 33  1  0  0  0  0 
 17 34  1  0  0  0  0 
 17 35  1  0  0  0  0 
 18 36  1  0  0  0  0 
 18 37  1  0  0  0  0 
 20 38  1  0  0  0  0 
 20 39  1  0  0  0  0 
 21 40  1  0  0  0  0 
 21 41  1  0  0  0  0 
 22 42  1  0  0  0  0 
 22 43  1  0  0  0  0 
 22 44  1  0  0  0  0 
M  END
> <cdk:Title>
pecazine

> <Conformer>
1

> <SuperDrugID>
SD001492

$$$$
