chlortetracycline
  CDK     0628171802

 56 59  0  0  0  0  0  0  0  0999 V2000
   -4.3519   -2.7877    1.1855 O   0  0  0  0  0  0  0  0  0  0  0  0
   -2.9854   -2.8404    0.7604 C   0  0  1  0  0  0  0  0  0  0  0  0
   -2.4376   -4.2762    1.0743 C   0  0  2  0  0  0  0  0  0  0  0  0
   -3.0195   -2.5772   -0.6882 C   0  0  0  0  0  0  0  0  0  0  0  0
   -2.2384   -1.8126    1.5175 C   0  0  0  0  0  0  0  0  0  0  0  0
   -0.8726   -4.2883    0.9294 C   0  0  2  0  0  0  0  0  0  0  0  0
   -3.2163   -5.3284    0.2251 C   0  0  1  0  0  0  0  0  0  0  0  0
   -2.8992   -1.3112   -1.1002 O   0  0  0  0  0  0  0  0  0  0  0  0
   -3.1972   -3.5504   -1.6165 C   0  0  0  0  0  0  0  0  0  0  0  0
   -2.8586   -0.6412    1.6954 O   0  0  0  0  0  0  0  0  0  0  0  0
   -0.9818   -1.9911    1.9956 C   0  0  0  0  0  0  0  0  0  0  0  0
   -0.2502   -5.6560    1.0873 N   0  0  2  0  0  0  0  0  0  0  0  0
   -0.3046   -3.2067    1.7928 C   0  0  0  0  0  0  0  0  0  0  0  0
   -3.3309   -4.9808   -1.3041 C   0  0  1  0  0  0  0  0  0  0  0  0
   -3.3021   -3.2524   -2.9695 C   0  0  0  0  0  0  0  0  0  0  0  0
   -0.3454   -0.9726    2.7052 C   0  0  0  0  0  0  0  0  0  0  0  0
   -0.4000   -6.3372    2.4069 C   0  0  0  0  0  0  0  0  0  0  0  0
    1.1181   -5.8240    0.5071 C   0  0  0  0  0  0  0  0  0  0  0  0
    0.8060   -3.3999    2.3439 O   0  0  0  0  0  0  0  0  0  0  0  0
   -2.4783   -5.9258   -2.2644 C   0  0  2  0  0  0  0  0  0  0  0  0
   -4.1049   -2.3578   -3.3311 O   0  0  0  0  0  0  0  0  0  0  0  0
   -2.5245   -3.9805   -3.9099 C   0  0  0  0  0  0  0  0  0  0  0  0
   -0.9082   -0.4067    3.7904 N   0  0  0  0  0  0  0  0  0  0  0  0
    0.7870   -0.5629    2.3623 O   0  0  0  0  0  0  0  0  0  0  0  0
   -3.3083   -7.2310   -2.5148 C   0  0  0  0  0  0  0  0  0  0  0  0
   -1.2673   -6.2867   -1.6034 O   0  0  0  0  0  0  0  0  0  0  0  0
   -2.0517   -5.2894   -3.5761 C   0  0  0  0  0  0  0  0  0  0  0  0
   -2.1684   -3.3876   -5.1517 C   0  0  0  0  0  0  0  0  0  0  0  0
   -1.1533   -5.9312   -4.4875 C   0  0  0  0  0  0  0  0  0  0  0  0
   -2.5867   -2.1572   -5.5510 O   0  0  0  0  0  0  0  0  0  0  0  0
   -1.3108   -4.0561   -6.0347 C   0  0  0  0  0  0  0  0  0  0  0  0
   -0.3923   -7.4280   -4.2149 Cl  0  0  0  0  0  0  0  0  0  0  0  0
   -0.7966   -5.3116   -5.7001 C   0  0  0  0  0  0  0  0  0  0  0  0
   -4.3350   -2.9932    2.1436 H   0  0  0  0  0  0  0  0  0  0  0  0
   -2.6680   -4.4880    2.1241 H   0  0  0  0  0  0  0  0  0  0  0  0
   -0.6632   -3.9618   -0.0925 H   0  0  0  0  0  0  0  0  0  0  0  0
   -2.7849   -6.3175    0.3823 H   0  0  0  0  0  0  0  0  0  0  0  0
   -4.2289   -5.3916    0.6401 H   0  0  0  0  0  0  0  0  0  0  0  0
   -3.7610   -0.8931   -0.8904 H   0  0  0  0  0  0  0  0  0  0  0  0
   -3.6722   -0.8543    2.2004 H   0  0  0  0  0  0  0  0  0  0  0  0
   -4.3862   -5.1643   -1.5462 H   0  0  0  0  0  0  0  0  0  0  0  0
   -1.4351   -6.3317    2.7431 H   0  0  0  0  0  0  0  0  0  0  0  0
   -0.1020   -7.3834    2.3201 H   0  0  0  0  0  0  0  0  0  0  0  0
    0.2185   -5.8661    3.1722 H   0  0  0  0  0  0  0  0  0  0  0  0
    1.1890   -5.3694   -0.4826 H   0  0  0  0  0  0  0  0  0  0  0  0
    1.3435   -6.8856    0.3935 H   0  0  0  0  0  0  0  0  0  0  0  0
    1.8814   -5.3782    1.1464 H   0  0  0  0  0  0  0  0  0  0  0  0
   -0.4504    0.3078    4.2618 H   0  0  0  0  0  0  0  0  0  0  0  0
   -1.7713   -0.7146    4.1073 H   0  0  0  0  0  0  0  0  0  0  0  0
   -2.7416   -8.0065   -3.0236 H   0  0  0  0  0  0  0  0  0  0  0  0
   -4.1891   -7.0053   -3.1211 H   0  0  0  0  0  0  0  0  0  0  0  0
   -3.6512   -7.6588   -1.5708 H   0  0  0  0  0  0  0  0  0  0  0  0
   -0.7714   -5.4458   -1.5239 H   0  0  0  0  0  0  0  0  0  0  0  0
   -2.6186   -1.6109   -4.7394 H   0  0  0  0  0  0  0  0  0  0  0  0
   -1.0416   -3.6172   -6.9183 H   0  0  0  0  0  0  0  0  0  0  0  0
   -0.1478   -5.7627   -6.3504 H   0  0  0  0  0  0  0  0  0  0  0  0
  2  1  1  0  0  0  0 
  3  2  1  0  0  0  0 
  2  4  1  0  0  0  0 
  2  5  1  0  0  0  0 
  3  6  1  0  0  0  0 
  3  7  1  0  0  0  0 
  4  8  1  0  0  0  0 
  4  9  2  0  0  0  0 
  5 10  1  0  0  0  0 
  5 11  2  0  0  0  0 
  6 12  1  0  0  0  0 
  6 13  1  0  0  0  0 
 14  7  1  0  0  0  0 
 14  9  1  0  0  0  0 
  9 15  1  0  0  0  0 
 11 13  1  0  0  0  0 
 11 16  1  0  0  0  0 
 12 17  1  0  0  0  0 
 12 18  1  0  0  0  0 
 13 19  2  0  0  0  0 
 14 20  1  0  0  0  0 
 15 21  2  0  0  0  0 
 15 22  1  0  0  0  0 
 16 23  1  0  0  0  0 
 16 24  2  0  0  0  0 
 20 25  1  0  0  0  0 
 20 26  1  0  0  0  0 
 20 27  1  0  0  0  0 
 22 27  2  0  0  0  0 
 22 28  1  0  0  0  0 
 27 29  1  0  0  0  0 
 28 30  1  0  0  0  0 
 28 31  2  0  0  0  0 
 29 32  1  0  0  0  0 
 29 33  2  0  0  0  0 
 31 33  1  0  0  0  0 
 34  1  1  0  0  0  0 
  3 35  1  0  0  0  0 
  6 36  1  0  0  0  0 
 37  7  1  0  0  0  0 
 38  7  1  0  0  0  0 
 39  8  1  0  0  0  0 
 40 10  1  0  0  0  0 
 14 41  1  0  0  0  0 
 42 17  1  0  0  0  0 
 43 17  1  0  0  0  0 
 44 17  1  0  0  0  0 
 45 18  1  0  0  0  0 
 46 18  1  0  0  0  0 
 47 18  1  0  0  0  0 
 48 23  1  0  0  0  0 
 49 23  1  0  0  0  0 
 50 25  1  0  0  0  0 
 51 25  1  0  0  0  0 
 52 25  1  0  0  0  0 
 53 26  1  0  0  0  0 
 54 30  1  0  0  0  0 
 55 31  1  0  0  0  0 
 56 33  1  0  0  0  0 
M  END
> <cdk:Title>
chlortetracycline

> <Conformer>
1

> <SuperDrugID>
SD000545

$$$$
