colecalciferol
  CDK     0628171801

 72 74  0  0  0  0  0  0  0  0999 V2000
   -7.0076   -3.1450   -9.3977 C   0  0  0  0  0  0  0  0  0  0  0  0
   -5.6949   -3.3497   -8.5907 C   0  0  1  0  0  0  0  0  0  0  0  0
   -4.5465   -2.4947   -9.2004 C   0  0  0  0  0  0  0  0  0  0  0  0
   -5.9469   -3.0800   -7.0705 C   0  0  2  0  0  0  0  0  0  0  0  0
   -4.7251   -3.2020   -6.1140 C   0  0  2  0  0  0  0  0  0  0  0  0
   -3.9889   -4.5770   -6.1246 C   0  0  1  0  0  0  0  0  0  0  0  0
   -3.0326   -4.9077   -4.9105 C   0  0  1  0  0  0  0  0  0  0  0  0
   -2.8518   -6.4587   -4.8544 C   0  0  0  0  0  0  0  0  0  0  0  0
   -1.6379   -4.1484   -4.9367 C   0  0  1  0  0  0  0  0  0  0  0  0
   -1.7617   -2.5911   -4.8699 C   0  0  2  0  0  0  0  0  0  0  0  0
   -0.5196   -2.0310   -4.1428 C   0  0  1  0  0  0  0  0  0  0  0  0
    0.4426   -3.2376   -4.0433 C   0  0  2  0  0  0  0  0  0  0  0  0
   -0.5368   -4.4515   -3.8341 C   0  0  1  0  0  0  0  0  0  0  0  0
   -1.1646   -4.4706   -2.3847 C   0  0  0  0  0  0  0  0  0  0  0  0
    0.3271   -5.7484   -4.0681 C   0  0  1  0  0  0  0  0  0  0  0  0
    1.6077   -5.7807   -3.1812 C   0  0  1  0  0  0  0  0  0  0  0  0
    2.4353   -4.4702   -3.2643 C   0  0  2  0  0  0  0  0  0  0  0  0
    1.5999   -3.2628   -3.1102 C   0  0  0  0  0  0  0  0  0  0  0  0
    1.8267   -2.2724   -2.2126 C   0  0  0  0  0  0  0  0  0  0  0  0
    2.7763   -2.2083   -1.2237 C   0  0  0  0  0  0  0  0  0  0  0  0
    2.7287   -1.4037   -0.1326 C   0  0  0  0  0  0  0  0  0  0  0  0
    3.7911   -1.4144    0.8889 C   0  0  2  0  0  0  0  0  0  0  0  0
    4.4047    0.0037    1.0953 C   0  0  1  0  0  0  0  0  0  0  0  0
    5.2607    0.3159   -0.0048 O   0  0  0  0  0  0  0  0  0  0  0  0
    3.2885    1.0827    1.2444 C   0  0  1  0  0  0  0  0  0  0  0  0
    2.1836    0.9206    0.1603 C   0  0  1  0  0  0  0  0  0  0  0  0
    1.7414   -0.4772    0.1098 C   0  0  0  0  0  0  0  0  0  0  0  0
    0.4678   -0.8351    0.3475 C   0  0  0  0  0  0  0  0  0  0  0  0
    0.8895   -3.3062   -5.0479 H   0  0  0  0  0  0  0  0  0  0  0  0
   -7.8031   -3.7753   -8.9973 H   0  0  0  0  0  0  0  0  0  0  0  0
   -6.8627   -3.4154  -10.4447 H   0  0  0  0  0  0  0  0  0  0  0  0
   -7.3331   -2.1040   -9.3507 H   0  0  0  0  0  0  0  0  0  0  0  0
   -5.4156   -4.4016   -8.7037 H   0  0  0  0  0  0  0  0  0  0  0  0
   -3.5883   -2.7704   -8.7572 H   0  0  0  0  0  0  0  0  0  0  0  0
   -4.4660   -2.6657  -10.2772 H   0  0  0  0  0  0  0  0  0  0  0  0
   -4.7179   -1.4290   -9.0307 H   0  0  0  0  0  0  0  0  0  0  0  0
   -6.7183   -3.7689   -6.7177 H   0  0  0  0  0  0  0  0  0  0  0  0
   -6.3553   -2.0723   -6.9580 H   0  0  0  0  0  0  0  0  0  0  0  0
   -5.0813   -2.9994   -5.0996 H   0  0  0  0  0  0  0  0  0  0  0  0
   -4.0342   -2.4075   -6.3785 H   0  0  0  0  0  0  0  0  0  0  0  0
   -4.7889   -5.3223   -6.1563 H   0  0  0  0  0  0  0  0  0  0  0  0
   -3.4239   -4.6791   -7.0539 H   0  0  0  0  0  0  0  0  0  0  0  0
   -3.5630   -4.6308   -3.9953 H   0  0  0  0  0  0  0  0  0  0  0  0
   -2.4970   -6.7755   -3.8767 H   0  0  0  0  0  0  0  0  0  0  0  0
   -3.7914   -6.9903   -5.0149 H   0  0  0  0  0  0  0  0  0  0  0  0
   -2.1460   -6.7916   -5.6169 H   0  0  0  0  0  0  0  0  0  0  0  0
   -1.1926   -4.3836   -5.9123 H   0  0  0  0  0  0  0  0  0  0  0  0
   -2.6561   -2.2922   -4.3147 H   0  0  0  0  0  0  0  0  0  0  0  0
   -1.8142   -2.1673   -5.8758 H   0  0  0  0  0  0  0  0  0  0  0  0
   -0.0669   -1.2028   -4.6941 H   0  0  0  0  0  0  0  0  0  0  0  0
   -0.8284   -1.6660   -3.1602 H   0  0  0  0  0  0  0  0  0  0  0  0
   -1.9297   -3.7030   -2.2615 H   0  0  0  0  0  0  0  0  0  0  0  0
   -1.6326   -5.4304   -2.1684 H   0  0  0  0  0  0  0  0  0  0  0  0
   -0.4115   -4.2980   -1.6146 H   0  0  0  0  0  0  0  0  0  0  0  0
   -0.2391   -6.6510   -3.8445 H   0  0  0  0  0  0  0  0  0  0  0  0
    0.6364   -5.8067   -5.1166 H   0  0  0  0  0  0  0  0  0  0  0  0
    1.3303   -5.9532   -2.1376 H   0  0  0  0  0  0  0  0  0  0  0  0
    2.2414   -6.6158   -3.4921 H   0  0  0  0  0  0  0  0  0  0  0  0
    2.9275   -4.4257   -4.2408 H   0  0  0  0  0  0  0  0  0  0  0  0
    3.2371   -4.5530   -2.5325 H   0  0  0  0  0  0  0  0  0  0  0  0
    1.2223   -1.4927   -2.2588 H   0  0  0  0  0  0  0  0  0  0  0  0
    3.5718   -2.7923   -1.3010 H   0  0  0  0  0  0  0  0  0  0  0  0
    4.5988   -2.1109    0.6508 H   0  0  0  0  0  0  0  0  0  0  0  0
    3.3603   -1.7552    1.8358 H   0  0  0  0  0  0  0  0  0  0  0  0
    5.0200    0.0001    1.9998 H   0  0  0  0  0  0  0  0  0  0  0  0
    5.6953    1.1617    0.2411 H   0  0  0  0  0  0  0  0  0  0  0  0
    2.8283    0.9874    2.2343 H   0  0  0  0  0  0  0  0  0  0  0  0
    3.7238    2.0838    1.1788 H   0  0  0  0  0  0  0  0  0  0  0  0
    1.3641    1.6129    0.3846 H   0  0  0  0  0  0  0  0  0  0  0  0
    2.5902    1.2006   -0.8179 H   0  0  0  0  0  0  0  0  0  0  0  0
    0.1898   -1.7890    0.3402 H   0  0  0  0  0  0  0  0  0  0  0  0
   -0.2263   -0.1524    0.5399 H   0  0  0  0  0  0  0  0  0  0  0  0
  1  2  1  0  0  0  0 
  2  3  1  0  0  0  0 
  2  4  1  0  0  0  0 
  4  5  1  0  0  0  0 
  5  6  1  0  0  0  0 
  6  7  1  0  0  0  0 
  7  8  1  0  0  0  0 
  9  7  1  0  0  0  0 
  9 10  1  0  0  0  0 
 10 11  1  0  0  0  0 
 12 11  1  0  0  0  0 
 12 13  1  0  0  0  0 
  9 13  1  0  0  0  0 
 13 14  1  0  0  0  0 
 13 15  1  0  0  0  0 
 15 16  1  0  0  0  0 
 16 17  1  0  0  0  0 
 17 18  1  0  0  0  0 
 12 18  1  0  0  0  0 
 18 19  2  0  0  0  0 
 19 20  1  0  0  0  0 
 20 21  2  0  0  0  0 
 21 22  1  0  0  0  0 
 22 23  1  0  0  0  0 
 23 24  1  0  0  0  0 
 23 25  1  0  0  0  0 
 25 26  1  0  0  0  0 
 26 27  1  0  0  0  0 
 21 27  1  0  0  0  0 
 27 28  2  0  0  0  0 
 12 29  1  0  0  0  0 
  1 30  1  0  0  0  0 
  1 31  1  0  0  0  0 
  1 32  1  0  0  0  0 
  2 33  1  0  0  0  0 
  3 34  1  0  0  0  0 
  3 35  1  0  0  0  0 
  3 36  1  0  0  0  0 
  4 37  1  0  0  0  0 
  4 38  1  0  0  0  0 
  5 39  1  0  0  0  0 
  5 40  1  0  0  0  0 
  6 41  1  0  0  0  0 
  6 42  1  0  0  0  0 
  7 43  1  0  0  0  0 
  8 44  1  0  0  0  0 
  8 45  1  0  0  0  0 
  8 46  1  0  0  0  0 
  9 47  1  0  0  0  0 
 10 48  1  0  0  0  0 
 10 49  1  0  0  0  0 
 11 50  1  0  0  0  0 
 11 51  1  0  0  0  0 
 14 52  1  0  0  0  0 
 14 53  1  0  0  0  0 
 14 54  1  0  0  0  0 
 15 55  1  0  0  0  0 
 15 56  1  0  0  0  0 
 16 57  1  0  0  0  0 
 16 58  1  0  0  0  0 
 17 59  1  0  0  0  0 
 17 60  1  0  0  0  0 
 19 61  1  0  0  0  0 
 20 62  1  0  0  0  0 
 22 63  1  0  0  0  0 
 22 64  1  0  0  0  0 
 23 65  1  0  0  0  0 
 24 66  1  0  0  0  0 
 25 67  1  0  0  0  0 
 25 68  1  0  0  0  0 
 26 69  1  0  0  0  0 
 26 70  1  0  0  0  0 
 28 71  1  0  0  0  0 
 28 72  1  0  0  0  0 
M  END
> <cdk:Title>
colecalciferol

> <Conformer>
1

> <SuperDrugID>
SD002560

$$$$
