frovatriptan
  CDK     0628171801

 35 37  0  0  0  0  0  0  0  0999 V2000
    0.6548    1.0469    0.1663 C   0  0  0  0  0  0  0  0  0  0  0  0
    1.9114    1.5407    0.2110 N   0  0  0  0  0  0  0  0  0  0  0  0
    0.5726   -0.1940    0.0129 O   0  0  0  0  0  0  0  0  0  0  0  0
   -0.5082    1.8650    0.2792 C   0  0  0  0  0  0  0  0  0  0  0  0
   -0.3921    3.2709    0.4627 C   0  0  0  0  0  0  0  0  0  0  0  0
   -1.8164    1.2983    0.2102 C   0  0  0  0  0  0  0  0  0  0  0  0
   -1.5517    4.0540    0.5608 C   0  0  0  0  0  0  0  0  0  0  0  0
   -2.9755    2.0980    0.3048 C   0  0  0  0  0  0  0  0  0  0  0  0
   -1.7313    5.4199    0.7487 C   0  0  0  0  0  0  0  0  0  0  0  0
   -2.8171    3.4805    0.4750 C   0  0  0  0  0  0  0  0  0  0  0  0
   -3.1122    5.6290    0.7680 C   0  0  0  0  0  0  0  0  0  0  0  0
   -0.7166    6.4802    0.9406 C   0  0  1  0  0  0  0  0  0  0  0  0
   -3.7381    4.4503    0.5922 N   0  0  0  0  0  0  0  0  0  0  0  0
   -3.7404    6.9490    0.9626 C   0  0  1  0  0  0  0  0  0  0  0  0
   -1.3321    7.9205    0.8983 C   0  0  1  0  0  0  0  0  0  0  0  0
   -2.7374    7.9681    1.5740 C   0  0  2  0  0  0  0  0  0  0  0  0
   -0.4856    8.9330    1.5788 N   0  0  2  0  0  0  0  0  0  0  0  0
    0.8642    9.1555    1.0277 C   0  0  0  0  0  0  0  0  0  0  0  0
    2.0665    2.4901    0.3262 H   0  0  0  0  0  0  0  0  0  0  0  0
    2.6714    0.9444    0.1257 H   0  0  0  0  0  0  0  0  0  0  0  0
    0.5157    3.7345    0.5259 H   0  0  0  0  0  0  0  0  0  0  0  0
   -1.9454    0.2905    0.0887 H   0  0  0  0  0  0  0  0  0  0  0  0
   -3.9094    1.6834    0.2553 H   0  0  0  0  0  0  0  0  0  0  0  0
   -0.2330    6.3066    1.9056 H   0  0  0  0  0  0  0  0  0  0  0  0
    0.0428    6.3897    0.1579 H   0  0  0  0  0  0  0  0  0  0  0  0
   -4.6987    4.3217    0.5672 H   0  0  0  0  0  0  0  0  0  0  0  0
   -4.0992    7.3090   -0.0046 H   0  0  0  0  0  0  0  0  0  0  0  0
   -4.5998    6.8427    1.6309 H   0  0  0  0  0  0  0  0  0  0  0  0
   -1.4599    8.2134   -0.1495 H   0  0  0  0  0  0  0  0  0  0  0  0
   -2.6250    7.7468    2.6391 H   0  0  0  0  0  0  0  0  0  0  0  0
   -3.1582    8.9724    1.4858 H   0  0  0  0  0  0  0  0  0  0  0  0
   -0.3762    8.6362    2.5508 H   0  0  0  0  0  0  0  0  0  0  0  0
    1.3180    9.9840    1.5701 H   0  0  0  0  0  0  0  0  0  0  0  0
    1.4875    8.2707    1.1638 H   0  0  0  0  0  0  0  0  0  0  0  0
    0.8136    9.4139   -0.0317 H   0  0  0  0  0  0  0  0  0  0  0  0
  1  2  1  0  0  0  0 
  1  3  2  0  0  0  0 
  1  4  1  0  0  0  0 
  4  5  1  0  0  0  0 
  4  6  2  0  0  0  0 
  5  7  2  0  0  0  0 
  6  8  1  0  0  0  0 
  7  9  1  0  0  0  0 
  7 10  1  0  0  0  0 
  8 10  2  0  0  0  0 
  9 11  2  0  0  0  0 
  9 12  1  0  0  0  0 
 10 13  1  0  0  0  0 
 11 13  1  0  0  0  0 
 11 14  1  0  0  0  0 
 15 12  1  0  0  0  0 
 14 16  1  0  0  0  0 
 15 16  1  0  0  0  0 
 15 17  1  0  0  0  0 
 17 18  1  0  0  0  0 
  2 19  1  0  0  0  0 
  2 20  1  0  0  0  0 
  5 21  1  0  0  0  0 
  6 22  1  0  0  0  0 
  8 23  1  0  0  0  0 
 12 24  1  0  0  0  0 
 12 25  1  0  0  0  0 
 13 26  1  0  0  0  0 
 14 27  1  0  0  0  0 
 14 28  1  0  0  0  0 
 15 29  1  0  0  0  0 
 16 30  1  0  0  0  0 
 16 31  1  0  0  0  0 
 17 32  1  0  0  0  0 
 18 33  1  0  0  0  0 
 18 34  1  0  0  0  0 
 18 35  1  0  0  0  0 
M  END
> <cdk:Title>
frovatriptan

> <Conformer>
1

> <SuperDrugID>
SD001121

$$$$
