fludroxycortide
  CDK     0628171801

 64 68  0  0  0  0  0  0  0  0999 V2000
    0.6802    1.1572   -5.2713 C   0  0  0  0  0  0  0  0  0  0  0  0
    0.0613    2.4403   -5.6868 C   0  0  1  0  0  0  0  0  0  0  0  0
   -0.0689    0.1657   -5.0917 O   0  0  0  0  0  0  0  0  0  0  0  0
    2.1434    0.9657   -4.9950 C   0  0  2  0  0  0  0  0  0  0  0  0
   -1.3581    2.3648   -5.8003 O   0  0  0  0  0  0  0  0  0  0  0  0
    2.4994    0.8149   -3.4630 C   0  0  2  0  0  0  0  0  0  0  0  0
    3.1632    2.0267   -5.5082 C   0  0  1  0  0  0  0  0  0  0  0  0
    2.5232   -0.1965   -5.7518 O   0  0  0  0  0  0  0  0  0  0  0  0
    1.8058    1.9791   -2.6492 C   0  0  0  0  0  0  0  0  0  0  0  0
    4.0566    0.9260   -3.5239 C   0  0  1  0  0  0  0  0  0  0  0  0
    2.1662   -0.5836   -2.8288 C   0  0  1  0  0  0  0  0  0  0  0  0
    4.3009    2.1324   -4.4533 C   0  0  1  0  0  0  0  0  0  0  0  0
    3.6781    1.5649   -6.7565 O   0  0  0  0  0  0  0  0  0  0  0  0
    3.2160    0.2234   -6.9360 C   0  0  2  0  0  0  0  0  0  0  0  0
    4.7747    0.8455   -2.1353 C   0  0  1  0  0  0  0  0  0  0  0  0
    2.8636   -0.8192   -1.4461 C   0  0  1  0  0  0  0  0  0  0  0  0
    2.2700    0.1996   -8.1646 C   0  0  0  0  0  0  0  0  0  0  0  0
    4.4324   -0.7180   -7.1411 C   0  0  0  0  0  0  0  0  0  0  0  0
    4.4147   -0.5139   -1.4239 C   0  0  2  0  0  0  0  0  0  0  0  0
    6.3210    0.9358   -2.2988 C   0  0  1  0  0  0  0  0  0  0  0  0
    2.1551   -0.1404   -0.4151 O   0  0  0  0  0  0  0  0  0  0  0  0
    5.1766   -0.7170   -0.0314 C   0  0  2  0  0  0  0  0  0  0  0  0
    7.0708    0.7415   -0.9589 C   0  0  1  0  0  0  0  0  0  0  0  0
    4.6949    0.2596    1.1069 C   0  0  0  0  0  0  0  0  0  0  0  0
    6.6456   -0.4655   -0.2136 C   0  0  0  0  0  0  0  0  0  0  0  0
    4.9053   -2.1987    0.4556 C   0  0  1  0  0  0  0  0  0  0  0  0
    8.4185    0.8180   -1.2546 F   0  0  0  0  0  0  0  0  0  0  0  0
    7.5774   -1.2617    0.3654 C   0  0  0  0  0  0  0  0  0  0  0  0
    5.8992   -2.7063    1.5265 C   0  0  1  0  0  0  0  0  0  0  0  0
    7.2853   -2.3310    1.1937 C   0  0  0  0  0  0  0  0  0  0  0  0
    8.2200   -2.9696    1.7328 O   0  0  0  0  0  0  0  0  0  0  0  0
    0.2852    3.2125   -4.9508 H   0  0  0  0  0  0  0  0  0  0  0  0
    0.4600    2.7536   -6.6524 H   0  0  0  0  0  0  0  0  0  0  0  0
   -1.5256    1.7016   -6.5015 H   0  0  0  0  0  0  0  0  0  0  0  0
    2.7228    3.0146   -5.6569 H   0  0  0  0  0  0  0  0  0  0  0  0
    2.2242    2.1153   -1.6602 H   0  0  0  0  0  0  0  0  0  0  0  0
    0.7395    1.7793   -2.5298 H   0  0  0  0  0  0  0  0  0  0  0  0
    1.9030    2.9403   -3.1524 H   0  0  0  0  0  0  0  0  0  0  0  0
    4.4456    0.0608   -4.0763 H   0  0  0  0  0  0  0  0  0  0  0  0
    1.0427   -0.6294   -2.6486 H   0  0  0  0  0  0  0  0  0  0  0  0
    2.5936   -1.3857   -3.5171 H   0  0  0  0  0  0  0  0  0  0  0  0
    5.2896    2.0833   -4.9171 H   0  0  0  0  0  0  0  0  0  0  0  0
    4.2295    3.0689   -3.8926 H   0  0  0  0  0  0  0  0  0  0  0  0
    4.4553    1.6897   -1.5237 H   0  0  0  0  0  0  0  0  0  0  0  0
    2.7169   -1.8812   -1.2310 H   0  0  0  0  0  0  0  0  0  0  0  0
    1.4676    0.9268   -8.0462 H   0  0  0  0  0  0  0  0  0  0  0  0
    1.8226   -0.7870   -8.2825 H   0  0  0  0  0  0  0  0  0  0  0  0
    2.8213    0.4524   -9.0718 H   0  0  0  0  0  0  0  0  0  0  0  0
    5.0833   -0.7064   -6.2658 H   0  0  0  0  0  0  0  0  0  0  0  0
    4.0952   -1.7448   -7.2978 H   0  0  0  0  0  0  0  0  0  0  0  0
    5.0217   -0.4060   -8.0057 H   0  0  0  0  0  0  0  0  0  0  0  0
    4.8321   -1.2830   -2.0882 H   0  0  0  0  0  0  0  0  0  0  0  0
    6.6656    0.1775   -3.0098 H   0  0  0  0  0  0  0  0  0  0  0  0
    6.5810    1.9165   -2.7068 H   0  0  0  0  0  0  0  0  0  0  0  0
    2.5354    0.7597   -0.3893 H   0  0  0  0  0  0  0  0  0  0  0  0
    6.8649    1.6069   -0.3251 H   0  0  0  0  0  0  0  0  0  0  0  0
    5.3789    0.2379    1.9604 H   0  0  0  0  0  0  0  0  0  0  0  0
    4.6352    1.2920    0.7617 H   0  0  0  0  0  0  0  0  0  0  0  0
    3.7124   -0.0146    1.4946 H   0  0  0  0  0  0  0  0  0  0  0  0
    3.8925   -2.2960    0.8582 H   0  0  0  0  0  0  0  0  0  0  0  0
    4.9660   -2.8922   -0.3895 H   0  0  0  0  0  0  0  0  0  0  0  0
    8.5417   -1.0702    0.2298 H   0  0  0  0  0  0  0  0  0  0  0  0
    5.6471   -2.2907    2.5044 H   0  0  0  0  0  0  0  0  0  0  0  0
    5.8142   -3.7934    1.5922 H   0  0  0  0  0  0  0  0  0  0  0  0
  1  2  1  0  0  0  0 
  1  3  2  0  0  0  0 
  2  5  1  0  0  0  0 
  4  1  1  0  0  0  0 
  6  4  1  0  0  0  0 
  4  7  1  0  0  0  0 
  4  8  1  0  0  0  0 
  6  9  1  0  0  0  0 
 10  6  1  0  0  0  0 
  6 11  1  0  0  0  0 
  7 12  1  0  0  0  0 
  7 13  1  0  0  0  0 
  8 14  1  0  0  0  0 
 10 12  1  0  0  0  0 
 15 10  1  0  0  0  0 
 16 11  1  0  0  0  0 
 13 14  1  0  0  0  0 
 14 17  1  0  0  0  0 
 14 18  1  0  0  0  0 
 19 15  1  0  0  0  0 
 15 20  1  0  0  0  0 
 19 16  1  0  0  0  0 
 16 21  1  0  0  0  0 
 19 22  1  0  0  0  0 
 23 20  1  0  0  0  0 
 22 24  1  0  0  0  0 
 22 25  1  0  0  0  0 
 22 26  1  0  0  0  0 
 23 25  1  0  0  0  0 
 23 27  1  0  0  0  0 
 25 28  2  0  0  0  0 
 26 29  1  0  0  0  0 
 28 30  1  0  0  0  0 
 29 30  1  0  0  0  0 
 30 31  2  0  0  0  0 
 32  2  1  0  0  0  0 
 33  2  1  0  0  0  0 
 34  5  1  0  0  0  0 
  7 35  1  0  0  0  0 
 36  9  1  0  0  0  0 
 37  9  1  0  0  0  0 
 38  9  1  0  0  0  0 
 10 39  1  0  0  0  0 
 40 11  1  0  0  0  0 
 41 11  1  0  0  0  0 
 42 12  1  0  0  0  0 
 43 12  1  0  0  0  0 
 15 44  1  0  0  0  0 
 16 45  1  0  0  0  0 
 46 17  1  0  0  0  0 
 47 17  1  0  0  0  0 
 48 17  1  0  0  0  0 
 49 18  1  0  0  0  0 
 50 18  1  0  0  0  0 
 51 18  1  0  0  0  0 
 19 52  1  0  0  0  0 
 53 20  1  0  0  0  0 
 54 20  1  0  0  0  0 
 55 21  1  0  0  0  0 
 23 56  1  0  0  0  0 
 57 24  1  0  0  0  0 
 58 24  1  0  0  0  0 
 59 24  1  0  0  0  0 
 60 26  1  0  0  0  0 
 61 26  1  0  0  0  0 
 62 28  1  0  0  0  0 
 63 29  1  0  0  0  0 
 64 29  1  0  0  0  0 
M  END
> <cdk:Title>
fludroxycortide

> <Conformer>
1

> <SuperDrugID>
SD001090

$$$$
