papaverine
  CDK     0628171801

 46 48  0  0  0  0  0  0  0  0999 V2000
   -0.0036   -0.2942   -1.8065 C   0  0  2  0  0  0  0  0  0  0  0  0
   -0.0667    0.4934   -3.0667 C   0  0  0  0  0  0  0  0  0  0  0  0
    1.2491   -1.0949   -1.7505 C   0  0  0  0  0  0  0  0  0  0  0  0
   -0.0506    1.9155   -3.1933 C   0  0  0  0  0  0  0  0  0  0  0  0
   -0.1610   -0.2669   -4.1926 N   0  0  0  0  0  0  0  0  0  0  0  0
    1.2580   -2.4611   -2.1168 C   0  0  0  0  0  0  0  0  0  0  0  0
    2.4640   -0.4884   -1.3568 C   0  0  0  0  0  0  0  0  0  0  0  0
   -0.1503    2.4709   -4.5067 C   0  0  0  0  0  0  0  0  0  0  0  0
    0.0528    2.8130   -2.0998 C   0  0  0  0  0  0  0  0  0  0  0  0
   -0.2472    0.2338   -5.4434 C   0  0  0  0  0  0  0  0  0  0  0  0
    2.4560   -3.2045   -2.1029 C   0  0  0  0  0  0  0  0  0  0  0  0
    3.6517   -1.2380   -1.2959 C   0  0  0  0  0  0  0  0  0  0  0  0
   -0.1437    3.8724   -4.6891 C   0  0  0  0  0  0  0  0  0  0  0  0
   -0.2523    1.6204   -5.6298 C   0  0  0  0  0  0  0  0  0  0  0  0
    0.0229    4.2097   -2.2852 C   0  0  0  0  0  0  0  0  0  0  0  0
    2.4502   -4.5095   -2.5191 O   0  0  0  0  0  0  0  0  0  0  0  0
    3.6491   -2.6039   -1.6427 C   0  0  0  0  0  0  0  0  0  0  0  0
   -0.0369    4.7421   -3.5880 C   0  0  0  0  0  0  0  0  0  0  0  0
    0.0775    5.0457   -1.2000 O   0  0  0  0  0  0  0  0  0  0  0  0
    2.6271   -4.6325   -3.9435 C   0  0  0  0  0  0  0  0  0  0  0  0
    4.8044   -3.3349   -1.5590 O   0  0  0  0  0  0  0  0  0  0  0  0
   -0.0131    6.0970   -3.7866 O   0  0  0  0  0  0  0  0  0  0  0  0
   -1.2120    5.2599   -0.5952 C   0  0  0  0  0  0  0  0  0  0  0  0
    4.9351   -4.0120   -0.2946 C   0  0  0  0  0  0  0  0  0  0  0  0
    1.3254    6.6196   -3.8860 C   0  0  0  0  0  0  0  0  0  0  0  0
   -0.8851   -0.9415   -1.7740 H   0  0  0  0  0  0  0  0  0  0  0  0
   -0.0675    0.3182   -0.9089 H   0  0  0  0  0  0  0  0  0  0  0  0
    0.3929   -2.9219   -2.4126 H   0  0  0  0  0  0  0  0  0  0  0  0
    2.4892    0.5045   -1.1110 H   0  0  0  0  0  0  0  0  0  0  0  0
    0.1492    2.4792   -1.1422 H   0  0  0  0  0  0  0  0  0  0  0  0
   -0.3112   -0.3979   -6.2408 H   0  0  0  0  0  0  0  0  0  0  0  0
    4.5178   -0.7855   -0.9991 H   0  0  0  0  0  0  0  0  0  0  0  0
   -0.2168    4.2723   -5.6296 H   0  0  0  0  0  0  0  0  0  0  0  0
   -0.3302    1.9945   -6.5790 H   0  0  0  0  0  0  0  0  0  0  0  0
    2.5522   -5.6872   -4.2082 H   0  0  0  0  0  0  0  0  0  0  0  0
    1.8524   -4.0917   -4.4945 H   0  0  0  0  0  0  0  0  0  0  0  0
    3.6117   -4.2727   -4.2541 H   0  0  0  0  0  0  0  0  0  0  0  0
   -1.0784    5.8837    0.2892 H   0  0  0  0  0  0  0  0  0  0  0  0
   -1.8897    5.7773   -1.2791 H   0  0  0  0  0  0  0  0  0  0  0  0
   -1.6665    4.3183   -0.2757 H   0  0  0  0  0  0  0  0  0  0  0  0
    5.8454   -4.6099   -0.3233 H   0  0  0  0  0  0  0  0  0  0  0  0
    5.0210   -3.2987    0.5293 H   0  0  0  0  0  0  0  0  0  0  0  0
    4.0950   -4.6865   -0.1047 H   0  0  0  0  0  0  0  0  0  0  0  0
    1.2622    7.7027   -3.9912 H   0  0  0  0  0  0  0  0  0  0  0  0
    1.9129    6.4026   -2.9898 H   0  0  0  0  0  0  0  0  0  0  0  0
    1.8420    6.2216   -4.7630 H   0  0  0  0  0  0  0  0  0  0  0  0
  1  2  1  0  0  0  0 
  1  3  1  0  0  0  0 
  2  4  2  0  0  0  0 
  2  5  1  0  0  0  0 
  3  6  2  0  0  0  0 
  3  7  1  0  0  0  0 
  4  8  1  0  0  0  0 
  4  9  1  0  0  0  0 
  5 10  2  0  0  0  0 
  6 11  1  0  0  0  0 
  7 12  2  0  0  0  0 
  8 13  1  0  0  0  0 
  8 14  2  0  0  0  0 
  9 15  2  0  0  0  0 
 10 14  1  0  0  0  0 
 11 16  1  0  0  0  0 
 11 17  2  0  0  0  0 
 12 17  1  0  0  0  0 
 13 18  2  0  0  0  0 
 15 18  1  0  0  0  0 
 15 19  1  0  0  0  0 
 16 20  1  0  0  0  0 
 17 21  1  0  0  0  0 
 18 22  1  0  0  0  0 
 19 23  1  0  0  0  0 
 21 24  1  0  0  0  0 
 22 25  1  0  0  0  0 
  1 26  1  0  0  0  0 
  1 27  1  0  0  0  0 
  6 28  1  0  0  0  0 
  7 29  1  0  0  0  0 
  9 30  1  0  0  0  0 
 10 31  1  0  0  0  0 
 12 32  1  0  0  0  0 
 13 33  1  0  0  0  0 
 14 34  1  0  0  0  0 
 20 35  1  0  0  0  0 
 20 36  1  0  0  0  0 
 20 37  1  0  0  0  0 
 23 38  1  0  0  0  0 
 23 39  1  0  0  0  0 
 23 40  1  0  0  0  0 
 24 41  1  0  0  0  0 
 24 42  1  0  0  0  0 
 24 43  1  0  0  0  0 
 25 44  1  0  0  0  0 
 25 45  1  0  0  0  0 
 25 46  1  0  0  0  0 
M  END
> <cdk:Title>
papaverine

> <Conformer>
1

> <SuperDrugID>
SD001843

$$$$
