dihydroergocryptine
  CDK     0628171801

 85 91  0  0  0  0  0  0  0  0999 V2000
   -6.6335    1.3448    0.4702 O   0  0  0  0  0  0  0  0  0  0  0  0
   -5.3003    1.1255    0.9302 C   0  0  1  0  0  0  0  0  0  0  0  0
   -5.2925    0.7842    2.3104 N   0  0  0  0  0  0  0  0  0  0  0  0
   -4.6039   -0.0435    0.1775 C   0  0  1  0  0  0  0  0  0  0  0  0
   -4.5556    2.3475    0.8024 O   0  0  0  0  0  0  0  0  0  0  0  0
   -5.8233   -0.4646    2.8246 C   0  0  1  0  0  0  0  0  0  0  0  0
   -4.6538    1.7451    2.9997 C   0  0  0  0  0  0  0  0  0  0  0  0
   -5.1198   -1.3206    0.5686 N   0  0  0  0  0  0  0  0  0  0  0  0
   -4.7318   -0.0572   -1.3606 C   0  0  1  0  0  0  0  0  0  0  0  0
   -4.2134    2.8433    2.1177 C   0  0  2  0  0  0  0  0  0  0  0  0
   -7.3303   -0.3515    3.2465 C   0  0  2  0  0  0  0  0  0  0  0  0
   -5.6267   -1.5649    1.8262 C   0  0  0  0  0  0  0  0  0  0  0  0
   -4.4907    1.7298    4.2425 O   0  0  0  0  0  0  0  0  0  0  0  0
   -5.0561   -2.2940   -0.4770 C   0  0  2  0  0  0  0  0  0  0  0  0
   -4.4989   -1.5391   -1.7016 C   0  0  1  0  0  0  0  0  0  0  0  0
   -5.0585    4.0023    2.2681 N   0  0  0  0  0  0  0  0  0  0  0  0
   -2.6565    3.1373    2.0872 C   0  0  2  0  0  0  0  0  0  0  0  0
   -7.6327    0.6165    4.4474 C   0  0  1  0  0  0  0  0  0  0  0  0
   -5.9549   -2.7330    2.1467 O   0  0  0  0  0  0  0  0  0  0  0  0
   -5.1637    4.8506    3.3321 C   0  0  0  0  0  0  0  0  0  0  0  0
   -1.8777    2.9892    3.4308 C   0  0  0  0  0  0  0  0  0  0  0  0
   -2.3264    4.5164    1.4405 C   0  0  0  0  0  0  0  0  0  0  0  0
   -8.0289    2.0480    3.9827 C   0  0  0  0  0  0  0  0  0  0  0  0
   -8.7309    0.0572    5.3971 C   0  0  0  0  0  0  0  0  0  0  0  0
   -4.5685    4.6038    4.4067 O   0  0  0  0  0  0  0  0  0  0  0  0
   -5.9789    6.0928    3.1842 C   0  0  2  0  0  0  0  0  0  0  0  0
   -5.4616    6.9404    1.9794 C   0  0  1  0  0  0  0  0  0  0  0  0
   -6.0357    6.9598    4.4856 C   0  0  2  0  0  0  0  0  0  0  0  0
   -6.2894    8.2825    1.8621 C   0  0  2  0  0  0  0  0  0  0  0  0
   -6.9139    8.1708    4.3656 N   0  0  2  0  0  0  0  0  0  0  0  0
   -5.8847    9.1482    0.6633 C   0  0  0  0  0  0  0  0  0  0  0  0
   -6.4303    9.1026    3.2997 C   0  0  2  0  0  0  0  0  0  0  0  0
   -7.1161    8.8398    5.6857 C   0  0  0  0  0  0  0  0  0  0  0  0
   -6.4203   10.4493    0.6604 C   0  0  0  0  0  0  0  0  0  0  0  0
   -5.1111    8.7830   -0.4701 C   0  0  0  0  0  0  0  0  0  0  0  0
   -7.4149   10.4000    2.9812 C   0  0  1  0  0  0  0  0  0  0  0  0
   -7.1687   11.0690    1.6467 C   0  0  0  0  0  0  0  0  0  0  0  0
   -6.2842   11.3348   -0.3981 C   0  0  0  0  0  0  0  0  0  0  0  0
   -4.9274    9.6892   -1.5442 C   0  0  0  0  0  0  0  0  0  0  0  0
   -7.5401   12.3082    1.1265 C   0  0  0  0  0  0  0  0  0  0  0  0
   -6.9842   12.4440   -0.0976 N   0  0  0  0  0  0  0  0  0  0  0  0
   -5.5207   10.9725   -1.5200 C   0  0  0  0  0  0  0  0  0  0  0  0
   -6.9698    2.0882    1.0116 H   0  0  0  0  0  0  0  0  0  0  0  0
   -3.5366   -0.0268    0.4333 H   0  0  0  0  0  0  0  0  0  0  0  0
   -5.2431   -0.7563    3.7062 H   0  0  0  0  0  0  0  0  0  0  0  0
   -5.7355    0.2363   -1.6805 H   0  0  0  0  0  0  0  0  0  0  0  0
   -3.9951    0.5925   -1.8406 H   0  0  0  0  0  0  0  0  0  0  0  0
   -7.6632   -1.3555    3.5278 H   0  0  0  0  0  0  0  0  0  0  0  0
   -7.9345   -0.0658    2.3796 H   0  0  0  0  0  0  0  0  0  0  0  0
   -6.0583   -2.6742   -0.6938 H   0  0  0  0  0  0  0  0  0  0  0  0
   -4.4048   -3.1275   -0.2027 H   0  0  0  0  0  0  0  0  0  0  0  0
   -5.0110   -1.8251   -2.6241 H   0  0  0  0  0  0  0  0  0  0  0  0
   -3.4278   -1.7336   -1.8126 H   0  0  0  0  0  0  0  0  0  0  0  0
   -5.6075    4.2283    1.4995 H   0  0  0  0  0  0  0  0  0  0  0  0
   -2.2070    2.3838    1.4317 H   0  0  0  0  0  0  0  0  0  0  0  0
   -6.7342    0.7029    5.0631 H   0  0  0  0  0  0  0  0  0  0  0  0
   -1.9062    1.9559    3.7819 H   0  0  0  0  0  0  0  0  0  0  0  0
   -0.8283    3.2623    3.2992 H   0  0  0  0  0  0  0  0  0  0  0  0
   -2.2871    3.6307    4.2065 H   0  0  0  0  0  0  0  0  0  0  0  0
   -2.8726    4.6442    0.5028 H   0  0  0  0  0  0  0  0  0  0  0  0
   -1.2577    4.5977    1.2307 H   0  0  0  0  0  0  0  0  0  0  0  0
   -2.5962    5.3337    2.1116 H   0  0  0  0  0  0  0  0  0  0  0  0
   -9.0083    2.0363    3.4997 H   0  0  0  0  0  0  0  0  0  0  0  0
   -8.0666    2.7282    4.8368 H   0  0  0  0  0  0  0  0  0  0  0  0
   -7.3081    2.4473    3.2739 H   0  0  0  0  0  0  0  0  0  0  0  0
   -9.6701   -0.0785    4.8566 H   0  0  0  0  0  0  0  0  0  0  0  0
   -8.9006    0.7400    6.2331 H   0  0  0  0  0  0  0  0  0  0  0  0
   -8.4233   -0.9051    5.8131 H   0  0  0  0  0  0  0  0  0  0  0  0
   -7.0055    5.7802    2.9619 H   0  0  0  0  0  0  0  0  0  0  0  0
   -4.4029    7.1816    2.1142 H   0  0  0  0  0  0  0  0  0  0  0  0
   -5.5744    6.3612    1.0580 H   0  0  0  0  0  0  0  0  0  0  0  0
   -5.0210    7.2639    4.7667 H   0  0  0  0  0  0  0  0  0  0  0  0
   -6.4207    6.3233    5.2869 H   0  0  0  0  0  0  0  0  0  0  0  0
   -7.2858    7.9035    1.5001 H   0  0  0  0  0  0  0  0  0  0  0  0
   -5.4423    9.4954    3.5656 H   0  0  0  0  0  0  0  0  0  0  0  0
   -7.8461    9.6447    5.6045 H   0  0  0  0  0  0  0  0  0  0  0  0
   -7.5106    8.1314    6.4168 H   0  0  0  0  0  0  0  0  0  0  0  0
   -6.1807    9.2530    6.0718 H   0  0  0  0  0  0  0  0  0  0  0  0
   -4.6865    7.8574   -0.5364 H   0  0  0  0  0  0  0  0  0  0  0  0
   -8.5045   10.1527    2.9621 H   0  0  0  0  0  0  0  0  0  0  0  0
   -7.3360   11.2253    3.7321 H   0  0  0  0  0  0  0  0  0  0  0  0
   -4.3706    9.4072   -2.3548 H   0  0  0  0  0  0  0  0  0  0  0  0
   -8.1262   13.0028    1.5937 H   0  0  0  0  0  0  0  0  0  0  0  0
   -7.0773   13.2193   -0.6732 H   0  0  0  0  0  0  0  0  0  0  0  0
   -5.4008   11.6220   -2.2987 H   0  0  0  0  0  0  0  0  0  0  0  0
  2  1  1  0  0  0  0 
  2  3  1  0  0  0  0 
  2  4  1  0  0  0  0 
  2  5  1  0  0  0  0 
  6  3  1  0  0  0  0 
  3  7  1  0  0  0  0 
  4  8  1  0  0  0  0 
  4  9  1  0  0  0  0 
 10  5  1  0  0  0  0 
  6 11  1  0  0  0  0 
  6 12  1  0  0  0  0 
 10  7  1  0  0  0  0 
  7 13  2  0  0  0  0 
  8 12  1  0  0  0  0 
  8 14  1  0  0  0  0 
  9 15  1  0  0  0  0 
 10 16  1  0  0  0  0 
 10 17  1  0  0  0  0 
 11 18  1  0  0  0  0 
 12 19  2  0  0  0  0 
 14 15  1  0  0  0  0 
 16 20  1  0  0  0  0 
 17 21  1  0  0  0  0 
 17 22  1  0  0  0  0 
 18 23  1  0  0  0  0 
 18 24  1  0  0  0  0 
 20 25  2  0  0  0  0 
 26 20  1  0  0  0  0 
 26 27  1  0  0  0  0 
 26 28  1  0  0  0  0 
 29 27  1  0  0  0  0 
 28 30  1  0  0  0  0 
 29 31  1  0  0  0  0 
 29 32  1  0  0  0  0 
 32 30  1  0  0  0  0 
 30 33  1  0  0  0  0 
 31 34  2  0  0  0  0 
 31 35  1  0  0  0  0 
 32 36  1  0  0  0  0 
 34 37  1  0  0  0  0 
 34 38  1  0  0  0  0 
 35 39  2  0  0  0  0 
 36 37  1  0  0  0  0 
 37 40  2  0  0  0  0 
 38 41  1  0  0  0  0 
 38 42  2  0  0  0  0 
 39 42  1  0  0  0  0 
 40 41  1  0  0  0  0 
 43  1  1  0  0  0  0 
  4 44  1  0  0  0  0 
  6 45  1  0  0  0  0 
 46  9  1  0  0  0  0 
 47  9  1  0  0  0  0 
 48 11  1  0  0  0  0 
 49 11  1  0  0  0  0 
 50 14  1  0  0  0  0 
 51 14  1  0  0  0  0 
 52 15  1  0  0  0  0 
 53 15  1  0  0  0  0 
 54 16  1  0  0  0  0 
 55 17  1  0  0  0  0 
 56 18  1  0  0  0  0 
 57 21  1  0  0  0  0 
 58 21  1  0  0  0  0 
 59 21  1  0  0  0  0 
 60 22  1  0  0  0  0 
 61 22  1  0  0  0  0 
 62 22  1  0  0  0  0 
 63 23  1  0  0  0  0 
 64 23  1  0  0  0  0 
 65 23  1  0  0  0  0 
 66 24  1  0  0  0  0 
 67 24  1  0  0  0  0 
 68 24  1  0  0  0  0 
 26 69  1  0  0  0  0 
 70 27  1  0  0  0  0 
 71 27  1  0  0  0  0 
 72 28  1  0  0  0  0 
 73 28  1  0  0  0  0 
 29 74  1  0  0  0  0 
 32 75  1  0  0  0  0 
 76 33  1  0  0  0  0 
 77 33  1  0  0  0  0 
 78 33  1  0  0  0  0 
 79 35  1  0  0  0  0 
 80 36  1  0  0  0  0 
 81 36  1  0  0  0  0 
 82 39  1  0  0  0  0 
 83 40  1  0  0  0  0 
 84 41  1  0  0  0  0 
 85 42  1  0  0  0  0 
M  END
> <cdk:Title>
dihydroergocryptine

> <Conformer>
1

> <SuperDrugID>
SD003559

$$$$
