alpha-tocopherol acetate
  CDK     0628171801

 86 87  0  0  0  0  0  0  0  0999 V2000
   -2.4593   -0.2439   -3.4542 C   0  0  0  0  0  0  0  0  0  0  0  0
   -1.8793   -0.3230   -2.0764 C   0  0  0  0  0  0  0  0  0  0  0  0
   -2.4030    0.4879   -1.0319 C   0  0  0  0  0  0  0  0  0  0  0  0
   -0.7976   -1.2141   -1.7991 C   0  0  0  0  0  0  0  0  0  0  0  0
   -1.8321    0.4497    0.2686 C   0  0  0  0  0  0  0  0  0  0  0  0
   -3.5149    1.2693   -1.3171 O   0  0  0  0  0  0  0  0  0  0  0  0
   -0.3565   -2.2028   -2.8313 C   0  0  0  0  0  0  0  0  0  0  0  0
   -0.1718   -1.1758   -0.5219 C   0  0  0  0  0  0  0  0  0  0  0  0
   -0.6873   -0.3599    0.5194 C   0  0  0  0  0  0  0  0  0  0  0  0
   -2.4279    1.2876    1.3534 C   0  0  1  0  0  0  0  0  0  0  0  0
   -3.8835    2.3839   -0.4669 C   0  0  1  0  0  0  0  0  0  0  0  0
    0.9421   -1.9303   -0.2299 O   0  0  0  0  0  0  0  0  0  0  0  0
   -0.0350   -0.3506    1.8670 C   0  0  0  0  0  0  0  0  0  0  0  0
   -3.8021    1.9084    1.0176 C   0  0  1  0  0  0  0  0  0  0  0  0
   -2.9626    3.6359   -0.7292 C   0  0  2  0  0  0  0  0  0  0  0  0
   -5.3785    2.7033   -0.7867 C   0  0  0  0  0  0  0  0  0  0  0  0
    2.1717   -1.8884   -0.8261 C   0  0  0  0  0  0  0  0  0  0  0  0
   -3.0723    4.2808   -2.1441 C   0  0  2  0  0  0  0  0  0  0  0  0
    3.2424   -2.7544   -0.3136 C   0  0  0  0  0  0  0  0  0  0  0  0
    2.3964   -1.1125   -1.7822 O   0  0  0  0  0  0  0  0  0  0  0  0
   -2.2371    5.5788   -2.3585 C   0  0  1  0  0  0  0  0  0  0  0  0
   -0.6787    5.4987   -2.2313 C   0  0  1  0  0  0  0  0  0  0  0  0
   -0.0562    4.4583   -3.2207 C   0  0  1  0  0  0  0  0  0  0  0  0
   -0.0706    6.9211   -2.4292 C   0  0  0  0  0  0  0  0  0  0  0  0
    1.4675    4.1962   -3.0463 C   0  0  2  0  0  0  0  0  0  0  0  0
    1.9724    3.0124   -3.9217 C   0  0  2  0  0  0  0  0  0  0  0  0
    3.4948    2.6581   -3.7865 C   0  0  1  0  0  0  0  0  0  0  0  0
    3.8478    2.1101   -2.3609 C   0  0  2  0  0  0  0  0  0  0  0  0
    3.8964    1.6630   -4.9171 C   0  0  0  0  0  0  0  0  0  0  0  0
    5.3229    1.6782   -2.1327 C   0  0  2  0  0  0  0  0  0  0  0  0
    5.5953    1.2136   -0.6351 C   0  0  1  0  0  0  0  0  0  0  0  0
    7.1594    1.0037   -0.3760 C   0  0  1  0  0  0  0  0  0  0  0  0
    7.4200    0.7807    1.1390 C   0  0  0  0  0  0  0  0  0  0  0  0
    7.7908   -0.1552   -1.2004 C   0  0  0  0  0  0  0  0  0  0  0  0
   -2.8503   -1.2148   -3.7560 H   0  0  0  0  0  0  0  0  0  0  0  0
   -1.6800    0.0596   -4.1550 H   0  0  0  0  0  0  0  0  0  0  0  0
   -3.2743    0.4727   -3.5549 H   0  0  0  0  0  0  0  0  0  0  0  0
    0.4006   -2.9027   -2.4811 H   0  0  0  0  0  0  0  0  0  0  0  0
   -1.2043   -2.8150   -3.1415 H   0  0  0  0  0  0  0  0  0  0  0  0
    0.0456   -1.6823   -3.7016 H   0  0  0  0  0  0  0  0  0  0  0  0
   -2.5693    0.6779    2.2500 H   0  0  0  0  0  0  0  0  0  0  0  0
   -1.7272    2.0891    1.6042 H   0  0  0  0  0  0  0  0  0  0  0  0
    0.8779   -0.9411    1.9281 H   0  0  0  0  0  0  0  0  0  0  0  0
    0.2357    0.6708    2.1368 H   0  0  0  0  0  0  0  0  0  0  0  0
   -0.7260   -0.7516    2.6077 H   0  0  0  0  0  0  0  0  0  0  0  0
   -4.5594    1.1384    1.1987 H   0  0  0  0  0  0  0  0  0  0  0  0
   -4.0041    2.7348    1.7045 H   0  0  0  0  0  0  0  0  0  0  0  0
   -1.9212    3.3459   -0.5730 H   0  0  0  0  0  0  0  0  0  0  0  0
   -3.1997    4.4059    0.0108 H   0  0  0  0  0  0  0  0  0  0  0  0
   -5.5263    2.8592   -1.8550 H   0  0  0  0  0  0  0  0  0  0  0  0
   -6.0295    1.8772   -0.4967 H   0  0  0  0  0  0  0  0  0  0  0  0
   -5.7022    3.5993   -0.2532 H   0  0  0  0  0  0  0  0  0  0  0  0
   -4.1076    4.5765   -2.3179 H   0  0  0  0  0  0  0  0  0  0  0  0
   -2.8270    3.5411   -2.9071 H   0  0  0  0  0  0  0  0  0  0  0  0
    4.1695   -2.5988   -0.8646 H   0  0  0  0  0  0  0  0  0  0  0  0
    3.4175   -2.5258    0.7398 H   0  0  0  0  0  0  0  0  0  0  0  0
    2.9520   -3.8001   -0.4053 H   0  0  0  0  0  0  0  0  0  0  0  0
   -2.4774    5.9577   -3.3573 H   0  0  0  0  0  0  0  0  0  0  0  0
   -2.6046    6.3200   -1.6419 H   0  0  0  0  0  0  0  0  0  0  0  0
   -0.4426    5.1871   -1.2101 H   0  0  0  0  0  0  0  0  0  0  0  0
   -0.5510    3.4977   -3.0691 H   0  0  0  0  0  0  0  0  0  0  0  0
   -0.2540    4.7736   -4.2499 H   0  0  0  0  0  0  0  0  0  0  0  0
   -0.5231    7.6322   -1.7371 H   0  0  0  0  0  0  0  0  0  0  0  0
    1.0029    6.9216   -2.2385 H   0  0  0  0  0  0  0  0  0  0  0  0
   -0.2412    7.2775   -3.4475 H   0  0  0  0  0  0  0  0  0  0  0  0
    1.6521    3.9828   -1.9929 H   0  0  0  0  0  0  0  0  0  0  0  0
    2.0299    5.0909   -3.3221 H   0  0  0  0  0  0  0  0  0  0  0  0
    1.7627    3.2795   -4.9623 H   0  0  0  0  0  0  0  0  0  0  0  0
    1.3814    2.1220   -3.6895 H   0  0  0  0  0  0  0  0  0  0  0  0
    4.0686    3.5764   -3.9475 H   0  0  0  0  0  0  0  0  0  0  0  0
    3.2007    1.2615   -2.1405 H   0  0  0  0  0  0  0  0  0  0  0  0
    3.6303    2.8869   -1.6258 H   0  0  0  0  0  0  0  0  0  0  0  0
    3.4071    0.6986   -4.7680 H   0  0  0  0  0  0  0  0  0  0  0  0
    4.9755    1.5084   -4.9421 H   0  0  0  0  0  0  0  0  0  0  0  0
    3.6084    2.0521   -5.8958 H   0  0  0  0  0  0  0  0  0  0  0  0
    5.9718    2.5227   -2.3738 H   0  0  0  0  0  0  0  0  0  0  0  0
    5.5620    0.8483   -2.7976 H   0  0  0  0  0  0  0  0  0  0  0  0
    5.0599    1.8521    0.1681 H   0  0  0  0  0  0  0  0  0  0  0  0
    5.1240    0.2302   -0.5344 H   0  0  0  0  0  0  0  0  0  0  0  0
    7.6732    1.9299   -0.6520 H   0  0  0  0  0  0  0  0  0  0  0  0
    7.0307    1.6199    1.7199 H   0  0  0  0  0  0  0  0  0  0  0  0
    8.4925    0.7085    1.3351 H   0  0  0  0  0  0  0  0  0  0  0  0
    6.9385   -0.1380    1.4834 H   0  0  0  0  0  0  0  0  0  0  0  0
    7.7206    0.0429   -2.2714 H   0  0  0  0  0  0  0  0  0  0  0  0
    8.8512   -0.2590   -0.9541 H   0  0  0  0  0  0  0  0  0  0  0  0
    7.2876   -1.1015   -0.9822 H   0  0  0  0  0  0  0  0  0  0  0  0
  1  2  1  0  0  0  0 
  2  3  2  0  0  0  0 
  2  4  1  0  0  0  0 
  3  5  1  0  0  0  0 
  3  6  1  0  0  0  0 
  4  7  1  0  0  0  0 
  4  8  2  0  0  0  0 
  5  9  2  0  0  0  0 
  5 10  1  0  0  0  0 
 11  6  1  0  0  0  0 
  8  9  1  0  0  0  0 
  8 12  1  0  0  0  0 
  9 13  1  0  0  0  0 
 10 14  1  0  0  0  0 
 11 14  1  0  0  0  0 
 11 15  1  0  0  0  0 
 11 16  1  0  0  0  0 
 12 17  1  0  0  0  0 
 15 18  1  0  0  0  0 
 17 19  1  0  0  0  0 
 17 20  2  0  0  0  0 
 18 21  1  0  0  0  0 
 22 21  1  0  0  0  0 
 22 23  1  0  0  0  0 
 22 24  1  0  0  0  0 
 23 25  1  0  0  0  0 
 25 26  1  0  0  0  0 
 27 26  1  0  0  0  0 
 27 28  1  0  0  0  0 
 27 29  1  0  0  0  0 
 28 30  1  0  0  0  0 
 30 31  1  0  0  0  0 
 31 32  1  0  0  0  0 
 32 33  1  0  0  0  0 
 32 34  1  0  0  0  0 
  1 35  1  0  0  0  0 
  1 36  1  0  0  0  0 
  1 37  1  0  0  0  0 
  7 38  1  0  0  0  0 
  7 39  1  0  0  0  0 
  7 40  1  0  0  0  0 
 10 41  1  0  0  0  0 
 10 42  1  0  0  0  0 
 13 43  1  0  0  0  0 
 13 44  1  0  0  0  0 
 13 45  1  0  0  0  0 
 14 46  1  0  0  0  0 
 14 47  1  0  0  0  0 
 15 48  1  0  0  0  0 
 15 49  1  0  0  0  0 
 16 50  1  0  0  0  0 
 16 51  1  0  0  0  0 
 16 52  1  0  0  0  0 
 18 53  1  0  0  0  0 
 18 54  1  0  0  0  0 
 19 55  1  0  0  0  0 
 19 56  1  0  0  0  0 
 19 57  1  0  0  0  0 
 21 58  1  0  0  0  0 
 21 59  1  0  0  0  0 
 22 60  1  0  0  0  0 
 23 61  1  0  0  0  0 
 23 62  1  0  0  0  0 
 24 63  1  0  0  0  0 
 24 64  1  0  0  0  0 
 24 65  1  0  0  0  0 
 25 66  1  0  0  0  0 
 25 67  1  0  0  0  0 
 26 68  1  0  0  0  0 
 26 69  1  0  0  0  0 
 27 70  1  0  0  0  0 
 28 71  1  0  0  0  0 
 28 72  1  0  0  0  0 
 29 73  1  0  0  0  0 
 29 74  1  0  0  0  0 
 29 75  1  0  0  0  0 
 30 76  1  0  0  0  0 
 30 77  1  0  0  0  0 
 31 78  1  0  0  0  0 
 31 79  1  0  0  0  0 
 32 80  1  0  0  0  0 
 33 81  1  0  0  0  0 
 33 82  1  0  0  0  0 
 33 83  1  0  0  0  0 
 34 84  1  0  0  0  0 
 34 85  1  0  0  0  0 
 34 86  1  0  0  0  0 
M  END
> <cdk:Title>
alpha-tocopherol acetate

> <Conformer>
1

> <SuperDrugID>
SD003425

$$$$
