amylocaine
  CDK     0628171801

 38 38  0  0  0  0  0  0  0  0999 V2000
   -0.7399   -1.1077   -0.3315 C   0  0  0  0  0  0  0  0  0  0  0  0
   -0.1825   -2.2438    0.1905 O   0  0  0  0  0  0  0  0  0  0  0  0
   -1.7413   -1.1899   -1.0820 O   0  0  0  0  0  0  0  0  0  0  0  0
   -0.1473    0.1481   -0.0268 C   0  0  0  0  0  0  0  0  0  0  0  0
   -0.4849   -3.6382    0.0011 C   0  0  2  0  0  0  0  0  0  0  0  0
   -0.6311    1.3517   -0.5980 C   0  0  0  0  0  0  0  0  0  0  0  0
    0.9685    0.2283    0.8467 C   0  0  0  0  0  0  0  0  0  0  0  0
   -0.2938   -4.0662   -1.5031 C   0  0  1  0  0  0  0  0  0  0  0  0
   -1.9517   -3.9625    0.4670 C   0  0  1  0  0  0  0  0  0  0  0  0
    0.5567   -4.3843    0.8894 C   0  0  0  0  0  0  0  0  0  0  0  0
   -0.0016    2.5816   -0.3277 C   0  0  0  0  0  0  0  0  0  0  0  0
    1.5950    1.4562    1.1199 C   0  0  0  0  0  0  0  0  0  0  0  0
    1.0954   -3.9899   -2.0855 N   0  0  2  0  0  0  0  0  0  0  0  0
   -2.3701   -3.4372    1.8644 C   0  0  0  0  0  0  0  0  0  0  0  0
    1.1112    2.6346    0.5297 C   0  0  0  0  0  0  0  0  0  0  0  0
    1.6560   -2.6100   -2.2115 C   0  0  0  0  0  0  0  0  0  0  0  0
    1.2162   -4.7442   -3.3701 C   0  0  0  0  0  0  0  0  0  0  0  0
   -1.4398    1.3498   -1.2238 H   0  0  0  0  0  0  0  0  0  0  0  0
    1.3479   -0.6098    1.2950 H   0  0  0  0  0  0  0  0  0  0  0  0
   -0.6235   -5.1101   -1.5648 H   0  0  0  0  0  0  0  0  0  0  0  0
   -0.9744   -3.4884   -2.1376 H   0  0  0  0  0  0  0  0  0  0  0  0
   -2.6559   -3.5431   -0.2550 H   0  0  0  0  0  0  0  0  0  0  0  0
   -2.0989   -5.0453    0.4594 H   0  0  0  0  0  0  0  0  0  0  0  0
    0.4200   -5.4671    0.8362 H   0  0  0  0  0  0  0  0  0  0  0  0
    0.4766   -4.0743    1.9317 H   0  0  0  0  0  0  0  0  0  0  0  0
    1.5717   -4.1462    0.5666 H   0  0  0  0  0  0  0  0  0  0  0  0
   -0.3484    3.4401   -0.7592 H   0  0  0  0  0  0  0  0  0  0  0  0
    2.4058    1.4921    1.7411 H   0  0  0  0  0  0  0  0  0  0  0  0
   -2.3567   -2.3453    1.8807 H   0  0  0  0  0  0  0  0  0  0  0  0
   -1.7125   -3.8137    2.6493 H   0  0  0  0  0  0  0  0  0  0  0  0
   -3.3846   -3.7731    2.0943 H   0  0  0  0  0  0  0  0  0  0  0  0
    1.5701    3.5274    0.7228 H   0  0  0  0  0  0  0  0  0  0  0  0
    1.8958   -2.2157   -1.2254 H   0  0  0  0  0  0  0  0  0  0  0  0
    2.5920   -2.6046   -2.7742 H   0  0  0  0  0  0  0  0  0  0  0  0
    0.9547   -1.9386   -2.7147 H   0  0  0  0  0  0  0  0  0  0  0  0
    0.8917   -5.7793   -3.2437 H   0  0  0  0  0  0  0  0  0  0  0  0
    2.2578   -4.7757   -3.7004 H   0  0  0  0  0  0  0  0  0  0  0  0
    0.6112   -4.2810   -4.1549 H   0  0  0  0  0  0  0  0  0  0  0  0
  1  2  1  0  0  0  0 
  1  3  2  0  0  0  0 
  1  4  1  0  0  0  0 
  5  2  1  0  0  0  0 
  4  6  2  0  0  0  0 
  4  7  1  0  0  0  0 
  5  8  1  0  0  0  0 
  5  9  1  0  0  0  0 
  5 10  1  0  0  0  0 
  6 11  1  0  0  0  0 
  7 12  2  0  0  0  0 
  8 13  1  0  0  0  0 
  9 14  1  0  0  0  0 
 11 15  2  0  0  0  0 
 12 15  1  0  0  0  0 
 13 16  1  0  0  0  0 
 13 17  1  0  0  0  0 
  6 18  1  0  0  0  0 
  7 19  1  0  0  0  0 
  8 20  1  0  0  0  0 
  8 21  1  0  0  0  0 
  9 22  1  0  0  0  0 
  9 23  1  0  0  0  0 
 10 24  1  0  0  0  0 
 10 25  1  0  0  0  0 
 10 26  1  0  0  0  0 
 11 27  1  0  0  0  0 
 12 28  1  0  0  0  0 
 14 29  1  0  0  0  0 
 14 30  1  0  0  0  0 
 14 31  1  0  0  0  0 
 15 32  1  0  0  0  0 
 16 33  1  0  0  0  0 
 16 34  1  0  0  0  0 
 16 35  1  0  0  0  0 
 17 36  1  0  0  0  0 
 17 37  1  0  0  0  0 
 17 38  1  0  0  0  0 
M  END
> <cdk:Title>
amylocaine

> <Conformer>
1

> <SuperDrugID>
SD000170

$$$$
