isoconazole
  CDK     0628171801

 39 41  0  0  0  0  0  0  0  0999 V2000
    0.7664   -2.4079    0.5751 C   0  0  0  0  0  0  0  0  0  0  0  0
    0.7509   -3.5525    1.3969 C   0  0  0  0  0  0  0  0  0  0  0  0
    0.9249   -3.4340    2.7823 C   0  0  0  0  0  0  0  0  0  0  0  0
    1.1003   -2.1700    3.3600 C   0  0  0  0  0  0  0  0  0  0  0  0
    1.1147   -1.0150    2.5554 C   0  0  0  0  0  0  0  0  0  0  0  0
    0.9478   -1.1112    1.1430 C   0  0  0  0  0  0  0  0  0  0  0  0
    0.9666    0.1325    0.3154 C   0  0  2  0  0  0  0  0  0  0  0  0
   -0.1984    0.9248    0.6339 O   0  0  0  0  0  0  0  0  0  0  0  0
   -0.3665    2.1803   -0.0770 C   0  0  1  0  0  0  0  0  0  0  0  0
   -0.9079    1.9852   -1.5291 C   0  0  1  0  0  0  0  0  0  0  0  0
   -1.2975    3.1043    0.6586 C   0  0  0  0  0  0  0  0  0  0  0  0
   -2.3767    2.5675    1.4069 C   0  0  0  0  0  0  0  0  0  0  0  0
   -3.3438    3.3992    1.9970 C   0  0  0  0  0  0  0  0  0  0  0  0
   -3.2537    4.7940    1.8578 C   0  0  0  0  0  0  0  0  0  0  0  0
   -2.1722    5.3532    1.1550 C   0  0  0  0  0  0  0  0  0  0  0  0
   -1.1939    4.5240    0.5660 C   0  0  0  0  0  0  0  0  0  0  0  0
   -2.1732    1.3049   -1.5825 N   0  0  0  0  0  0  0  0  0  0  0  0
   -2.3972   -0.0092   -1.4139 C   0  0  0  0  0  0  0  0  0  0  0  0
   -3.7593   -0.2247   -1.5600 C   0  0  0  0  0  0  0  0  0  0  0  0
   -4.3524    0.9503   -1.8134 N   0  0  0  0  0  0  0  0  0  0  0  0
   -3.3733    1.8709   -1.8243 C   0  0  0  0  0  0  0  0  0  0  0  0
    0.0621    5.3170   -0.2602 Cl  0  0  0  0  0  0  0  0  0  0  0  0
   -4.4501    5.7916    2.5227 Cl  0  0  0  0  0  0  0  0  0  0  0  0
    0.5539   -2.7019   -1.0846 Cl  0  0  0  0  0  0  0  0  0  0  0  0
    1.3420    0.4613    3.3662 Cl  0  0  0  0  0  0  0  0  0  0  0  0
    0.6157    2.6603   -0.1389 H   0  0  0  0  0  0  0  0  0  0  0  0
    0.6106   -4.4836    0.9954 H   0  0  0  0  0  0  0  0  0  0  0  0
    0.9215   -4.2680    3.3711 H   0  0  0  0  0  0  0  0  0  0  0  0
    1.2116   -2.1011    4.3740 H   0  0  0  0  0  0  0  0  0  0  0  0
    0.9829   -0.0873   -0.7508 H   0  0  0  0  0  0  0  0  0  0  0  0
    1.8790    0.6932    0.5390 H   0  0  0  0  0  0  0  0  0  0  0  0
   -1.0060    2.9717   -1.9962 H   0  0  0  0  0  0  0  0  0  0  0  0
   -0.1812    1.4444   -2.1396 H   0  0  0  0  0  0  0  0  0  0  0  0
   -2.4834    1.5556    1.5120 H   0  0  0  0  0  0  0  0  0  0  0  0
   -4.1205    2.9815    2.5158 H   0  0  0  0  0  0  0  0  0  0  0  0
   -2.1067    6.3716    1.0653 H   0  0  0  0  0  0  0  0  0  0  0  0
   -1.6986   -0.7278   -1.2221 H   0  0  0  0  0  0  0  0  0  0  0  0
   -4.2331   -1.1261   -1.4917 H   0  0  0  0  0  0  0  0  0  0  0  0
   -3.5281    2.8675   -1.9934 H   0  0  0  0  0  0  0  0  0  0  0  0
  1  2  2  0  0  0  0 
  2  3  1  0  0  0  0 
  3  4  2  0  0  0  0 
  4  5  1  0  0  0  0 
  5  6  2  0  0  0  0 
  1  6  1  0  0  0  0 
  6  7  1  0  0  0  0 
  7  8  1  0  0  0  0 
  8  9  1  0  0  0  0 
  9 10  1  0  0  0  0 
  9 11  1  0  0  0  0 
 12 13  1  0  0  0  0 
 13 14  2  0  0  0  0 
 14 15  1  0  0  0  0 
 15 16  2  0  0  0  0 
 11 12  2  0  0  0  0 
 11 16  1  0  0  0  0 
 10 17  1  0  0  0  0 
 18 19  2  0  0  0  0 
 19 20  1  0  0  0  0 
 20 21  2  0  0  0  0 
 17 18  1  0  0  0  0 
 17 21  1  0  0  0  0 
 16 22  1  0  0  0  0 
 14 23  1  0  0  0  0 
  1 24  1  0  0  0  0 
  5 25  1  0  0  0  0 
  9 26  1  0  0  0  0 
  2 27  1  0  0  0  0 
  3 28  1  0  0  0  0 
  4 29  1  0  0  0  0 
  7 30  1  0  0  0  0 
  7 31  1  0  0  0  0 
 10 32  1  0  0  0  0 
 10 33  1  0  0  0  0 
 12 34  1  0  0  0  0 
 13 35  1  0  0  0  0 
 15 36  1  0  0  0  0 
 18 37  1  0  0  0  0 
 19 38  1  0  0  0  0 
 21 39  1  0  0  0  0 
M  END
> <cdk:Title>
isoconazole

> <Conformer>
1

> <SuperDrugID>
SD002858

$$$$
