raltitrexed
  CDK     0628171801

 54 56  0  0  0  0  0  0  0  0999 V2000
   -1.0261   -0.3872    8.1621 C   0  0  0  0  0  0  0  0  0  0  0  0
   -2.0537   -0.8514    7.2504 N   0  0  0  0  0  0  0  0  0  0  0  0
   -3.3128   -1.4097    7.7369 C   0  0  2  0  0  0  0  0  0  0  0  0
   -3.4904   -1.5816    9.2162 C   0  0  0  0  0  0  0  0  0  0  0  0
   -2.7688   -2.5732    9.9252 C   0  0  0  0  0  0  0  0  0  0  0  0
   -2.8866   -2.7040   11.3296 C   0  0  0  0  0  0  0  0  0  0  0  0
   -3.7444   -1.8227   12.0383 C   0  0  0  0  0  0  0  0  0  0  0  0
   -4.4897   -0.8552   11.3408 C   0  0  0  0  0  0  0  0  0  0  0  0
   -4.3641   -0.7387    9.9451 C   0  0  0  0  0  0  0  0  0  0  0  0
   -3.8402   -1.9099   13.3900 N   0  0  0  0  0  0  0  0  0  0  0  0
   -3.1446   -2.8332   14.1050 C   0  0  0  0  0  0  0  0  0  0  0  0
   -3.2544   -2.8953   15.5730 C   0  0  0  0  0  0  0  0  0  0  0  0
   -2.3378   -3.7068   13.4477 N   0  0  0  0  0  0  0  0  0  0  0  0
   -2.1904   -3.6674   12.0980 C   0  0  0  0  0  0  0  0  0  0  0  0
   -1.4198   -4.5053   11.5776 O   0  0  0  0  0  0  0  0  0  0  0  0
   -1.8165   -0.7710    5.8819 C   0  0  0  0  0  0  0  0  0  0  0  0
   -2.7360   -0.8427    4.8201 C   0  0  0  0  0  0  0  0  0  0  0  0
   -2.2118   -0.6932    3.5236 C   0  0  0  0  0  0  0  0  0  0  0  0
   -0.8309   -0.4777    3.4494 C   0  0  0  0  0  0  0  0  0  0  0  0
   -0.2567   -0.5365    5.1029 S   0  0  0  0  0  0  0  0  0  0  0  0
   -0.0359   -0.2470    2.3075 C   0  0  0  0  0  0  0  0  0  0  0  0
    1.2065   -0.1632    2.4577 O   0  0  0  0  0  0  0  0  0  0  0  0
   -0.6193   -0.1009    1.0798 N   0  0  0  0  0  0  0  0  0  0  0  0
    0.0208    0.1439   -0.1823 C   0  0  1  0  0  0  0  0  0  0  0  0
    0.8671    1.4551   -0.2302 C   0  0  2  0  0  0  0  0  0  0  0  0
    0.0278    2.7257    0.0813 C   0  0  2  0  0  0  0  0  0  0  0  0
    0.8331    3.9610    0.0998 C   0  0  0  0  0  0  0  0  0  0  0  0
    0.9835    4.6627    1.2490 O   0  0  0  0  0  0  0  0  0  0  0  0
    1.3824    4.3787   -0.9446 O   0  0  0  0  0  0  0  0  0  0  0  0
    0.7734   -1.0557   -0.6235 C   0  0  0  0  0  0  0  0  0  0  0  0
    0.3074   -1.8129   -1.6468 O   0  0  0  0  0  0  0  0  0  0  0  0
    1.8349   -1.4105   -0.0616 O   0  0  0  0  0  0  0  0  0  0  0  0
   -0.4257    0.4215    7.7382 H   0  0  0  0  0  0  0  0  0  0  0  0
   -1.4434    0.0169    9.0856 H   0  0  0  0  0  0  0  0  0  0  0  0
   -0.3642   -1.2199    8.4107 H   0  0  0  0  0  0  0  0  0  0  0  0
   -3.4556   -2.3938    7.2796 H   0  0  0  0  0  0  0  0  0  0  0  0
   -4.1191   -0.7738    7.3581 H   0  0  0  0  0  0  0  0  0  0  0  0
   -2.1463   -3.1995    9.4101 H   0  0  0  0  0  0  0  0  0  0  0  0
   -5.1182   -0.2280   11.8493 H   0  0  0  0  0  0  0  0  0  0  0  0
   -4.9080   -0.0188    9.4627 H   0  0  0  0  0  0  0  0  0  0  0  0
   -2.2656   -2.7932   16.0238 H   0  0  0  0  0  0  0  0  0  0  0  0
   -3.8910   -2.0952   15.9560 H   0  0  0  0  0  0  0  0  0  0  0  0
   -3.6812   -3.8537   15.8737 H   0  0  0  0  0  0  0  0  0  0  0  0
   -1.8487   -4.3725   13.9593 H   0  0  0  0  0  0  0  0  0  0  0  0
   -3.7374   -0.9763    4.9663 H   0  0  0  0  0  0  0  0  0  0  0  0
   -2.8080   -0.7295    2.6943 H   0  0  0  0  0  0  0  0  0  0  0  0
   -1.5862   -0.1745    1.0513 H   0  0  0  0  0  0  0  0  0  0  0  0
   -0.7988    0.2795   -0.8979 H   0  0  0  0  0  0  0  0  0  0  0  0
    1.2904    1.5560   -1.2331 H   0  0  0  0  0  0  0  0  0  0  0  0
    1.7044    1.3856    0.4706 H   0  0  0  0  0  0  0  0  0  0  0  0
   -0.4582    2.6087    1.0525 H   0  0  0  0  0  0  0  0  0  0  0  0
   -0.7572    2.8389   -0.6707 H   0  0  0  0  0  0  0  0  0  0  0  0
    1.5098    5.4897    1.2703 H   0  0  0  0  0  0  0  0  0  0  0  0
    0.7809   -2.6236   -1.9301 H   0  0  0  0  0  0  0  0  0  0  0  0
  1  2  1  0  0  0  0 
  2  3  1  0  0  0  0 
  3  4  1  0  0  0  0 
  4  5  1  0  0  0  0 
  5  6  2  0  0  0  0 
  6  7  1  0  0  0  0 
  7  8  2  0  0  0  0 
  8  9  1  0  0  0  0 
  4  9  2  0  0  0  0 
  7 10  1  0  0  0  0 
 10 11  2  0  0  0  0 
 11 12  1  0  0  0  0 
 11 13  1  0  0  0  0 
 13 14  1  0  0  0  0 
  6 14  1  0  0  0  0 
 14 15  2  0  0  0  0 
  2 16  1  0  0  0  0 
 16 17  2  0  0  0  0 
 17 18  1  0  0  0  0 
 18 19  2  0  0  0  0 
 19 20  1  0  0  0  0 
 16 20  1  0  0  0  0 
 19 21  1  0  0  0  0 
 21 22  2  0  0  0  0 
 21 23  1  0  0  0  0 
 24 23  1  0  0  0  0 
 24 25  1  0  0  0  0 
 25 26  1  0  0  0  0 
 26 27  1  0  0  0  0 
 27 28  1  0  0  0  0 
 27 29  2  0  0  0  0 
 24 30  1  0  0  0  0 
 30 31  1  0  0  0  0 
 30 32  2  0  0  0  0 
 33  1  1  0  0  0  0 
 34  1  1  0  0  0  0 
 35  1  1  0  0  0  0 
 36  3  1  0  0  0  0 
 37  3  1  0  0  0  0 
 38  5  1  0  0  0  0 
 39  8  1  0  0  0  0 
 40  9  1  0  0  0  0 
 41 12  1  0  0  0  0 
 42 12  1  0  0  0  0 
 43 12  1  0  0  0  0 
 44 13  1  0  0  0  0 
 45 17  1  0  0  0  0 
 46 18  1  0  0  0  0 
 47 23  1  0  0  0  0 
 24 48  1  0  0  0  0 
 49 25  1  0  0  0  0 
 50 25  1  0  0  0  0 
 51 26  1  0  0  0  0 
 52 26  1  0  0  0  0 
 53 28  1  0  0  0  0 
 54 31  1  0  0  0  0 
M  END
> <cdk:Title>
raltitrexed

> <Conformer>
1

> <SuperDrugID>
SD002116

$$$$
