cefpiramide
  CDK     0628171802

 66 70  0  0  0  0  0  0  0  0999 V2000
   -1.1220   -4.0208    3.7703 C   0  0  0  0  0  0  0  0  0  0  0  0
   -2.0161   -3.4171    2.9502 O   0  0  0  0  0  0  0  0  0  0  0  0
   -1.4143   -4.1418    4.9818 O   0  0  0  0  0  0  0  0  0  0  0  0
    0.0726   -4.5383    3.2836 C   0  0  0  0  0  0  0  0  0  0  0  0
    0.2548   -5.8739    3.4421 N   0  0  0  0  0  0  0  0  0  0  0  0
    0.9710   -3.7912    2.5738 C   0  0  0  0  0  0  0  0  0  0  0  0
    1.3529   -6.7319    3.1488 C   0  0  1  0  0  0  0  0  0  0  0  0
   -0.5998   -6.9016    3.5902 C   0  0  0  0  0  0  0  0  0  0  0  0
    0.7229   -2.3960    2.1778 C   0  0  2  0  0  0  0  0  0  0  0  0
    2.2668   -4.3443    2.1306 C   0  0  2  0  0  0  0  0  0  0  0  0
    0.3313   -7.9056    3.0725 C   0  0  1  0  0  0  0  0  0  0  0  0
    2.1686   -6.1034    1.6470 S   0  0  0  0  0  0  0  0  0  0  0  0
   -1.8197   -6.9753    3.8644 O   0  0  0  0  0  0  0  0  0  0  0  0
   -0.0013   -2.4288    0.5007 S   0  0  0  0  0  0  0  0  0  0  0  0
   -0.1135   -8.2559    1.7588 N   0  0  0  0  0  0  0  0  0  0  0  0
   -0.6085   -0.8100    0.2272 C   0  0  0  0  0  0  0  0  0  0  0  0
   -1.0737   -9.1754    1.4703 C   0  0  0  0  0  0  0  0  0  0  0  0
    0.0459    0.2493   -0.2721 N   0  0  0  0  0  0  0  0  0  0  0  0
   -1.8639   -0.4274    0.4813 N   0  0  0  0  0  0  0  0  0  0  0  0
   -1.8570   -9.0563    0.2107 C   0  0  2  0  0  0  0  0  0  0  0  0
   -1.3909  -10.0500    2.3119 O   0  0  0  0  0  0  0  0  0  0  0  0
    1.4055    0.3180   -0.7017 C   0  0  0  0  0  0  0  0  0  0  0  0
   -0.7980    1.2290   -0.3065 N   0  0  0  0  0  0  0  0  0  0  0  0
   -1.9409    0.8189    0.1455 N   0  0  0  0  0  0  0  0  0  0  0  0
   -1.0298   -8.9616   -0.9589 N   0  0  0  0  0  0  0  0  0  0  0  0
   -2.7390   -7.8464    0.3271 C   0  0  0  0  0  0  0  0  0  0  0  0
   -1.4898   -8.9249   -2.2521 C   0  0  0  0  0  0  0  0  0  0  0  0
   -4.1234   -7.9839    0.5800 C   0  0  0  0  0  0  0  0  0  0  0  0
   -2.2036   -6.5408    0.1832 C   0  0  0  0  0  0  0  0  0  0  0  0
   -2.7098   -9.1455   -2.4461 O   0  0  0  0  0  0  0  0  0  0  0  0
   -0.6420   -8.5729   -3.3503 C   0  0  0  0  0  0  0  0  0  0  0  0
   -4.9737   -6.8717    0.7143 C   0  0  0  0  0  0  0  0  0  0  0  0
   -2.9893   -5.3827    0.3111 C   0  0  0  0  0  0  0  0  0  0  0  0
   -1.0795   -8.5871   -4.7062 C   0  0  0  0  0  0  0  0  0  0  0  0
    0.6873   -8.1337   -3.1239 C   0  0  0  0  0  0  0  0  0  0  0  0
   -4.3907   -5.5591    0.5915 C   0  0  0  0  0  0  0  0  0  0  0  0
   -2.3054   -9.0305   -5.0901 O   0  0  0  0  0  0  0  0  0  0  0  0
   -0.2414   -8.1242   -5.7399 C   0  0  0  0  0  0  0  0  0  0  0  0
    1.4698   -7.7044   -4.1433 N   0  0  0  0  0  0  0  0  0  0  0  0
   -5.2005   -4.4542    0.7341 O   0  0  0  0  0  0  0  0  0  0  0  0
    1.0544   -7.6675   -5.4334 C   0  0  0  0  0  0  0  0  0  0  0  0
    1.9531   -7.1471   -6.4808 C   0  0  0  0  0  0  0  0  0  0  0  0
   -2.8579   -3.0632    3.3059 H   0  0  0  0  0  0  0  0  0  0  0  0
    2.0431   -6.8119    3.9966 H   0  0  0  0  0  0  0  0  0  0  0  0
    1.6477   -1.8139    2.1580 H   0  0  0  0  0  0  0  0  0  0  0  0
    0.0483   -1.8721    2.8554 H   0  0  0  0  0  0  0  0  0  0  0  0
    2.9760   -4.2607    2.9566 H   0  0  0  0  0  0  0  0  0  0  0  0
    2.6884   -3.8052    1.2783 H   0  0  0  0  0  0  0  0  0  0  0  0
    0.5302   -8.7308    3.7612 H   0  0  0  0  0  0  0  0  0  0  0  0
    0.1970   -7.7006    1.0287 H   0  0  0  0  0  0  0  0  0  0  0  0
   -2.4644   -9.9624    0.1020 H   0  0  0  0  0  0  0  0  0  0  0  0
    1.6536    1.3283   -1.0330 H   0  0  0  0  0  0  0  0  0  0  0  0
    1.5704   -0.3662   -1.5367 H   0  0  0  0  0  0  0  0  0  0  0  0
    2.0760    0.0489    0.1171 H   0  0  0  0  0  0  0  0  0  0  0  0
   -0.0800   -8.8492   -0.8114 H   0  0  0  0  0  0  0  0  0  0  0  0
   -4.5338   -8.9170    0.6719 H   0  0  0  0  0  0  0  0  0  0  0  0
   -1.2100   -6.4216   -0.0267 H   0  0  0  0  0  0  0  0  0  0  0  0
   -6.0044   -7.1098    0.8977 H   0  0  0  0  0  0  0  0  0  0  0  0
   -2.4623   -4.4552    0.1810 H   0  0  0  0  0  0  0  0  0  0  0  0
    1.0941   -8.1098   -2.1882 H   0  0  0  0  0  0  0  0  0  0  0  0
   -2.4839   -9.8213   -4.5400 H   0  0  0  0  0  0  0  0  0  0  0  0
   -0.5736   -8.1199   -6.7080 H   0  0  0  0  0  0  0  0  0  0  0  0
   -4.6865   -3.5975    0.6614 H   0  0  0  0  0  0  0  0  0  0  0  0
    1.5087   -6.2599   -6.9347 H   0  0  0  0  0  0  0  0  0  0  0  0
    2.9250   -6.8723   -6.0660 H   0  0  0  0  0  0  0  0  0  0  0  0
    2.1068   -7.9036   -7.2518 H   0  0  0  0  0  0  0  0  0  0  0  0
  1  2  1  0  0  0  0 
  1  3  2  0  0  0  0 
  1  4  1  0  0  0  0 
  4  5  1  0  0  0  0 
  4  6  2  0  0  0  0 
  7  5  1  0  0  0  0 
  5  8  1  0  0  0  0 
  6  9  1  0  0  0  0 
  6 10  1  0  0  0  0 
  7 11  1  0  0  0  0 
  7 12  1  0  0  0  0 
 11  8  1  0  0  0  0 
  8 13  2  0  0  0  0 
  9 14  1  0  0  0  0 
 10 12  1  0  0  0  0 
 11 15  1  0  0  0  0 
 14 16  1  0  0  0  0 
 15 17  1  0  0  0  0 
 16 18  1  0  0  0  0 
 16 19  2  0  0  0  0 
 20 17  1  0  0  0  0 
 17 21  2  0  0  0  0 
 18 22  1  0  0  0  0 
 18 23  1  0  0  0  0 
 19 24  1  0  0  0  0 
 20 25  1  0  0  0  0 
 20 26  1  0  0  0  0 
 23 24  2  0  0  0  0 
 25 27  1  0  0  0  0 
 26 28  2  0  0  0  0 
 26 29  1  0  0  0  0 
 27 30  2  0  0  0  0 
 27 31  1  0  0  0  0 
 28 32  1  0  0  0  0 
 29 33  2  0  0  0  0 
 31 34  2  0  0  0  0 
 31 35  1  0  0  0  0 
 32 36  2  0  0  0  0 
 33 36  1  0  0  0  0 
 34 37  1  0  0  0  0 
 34 38  1  0  0  0  0 
 35 39  2  0  0  0  0 
 36 40  1  0  0  0  0 
 38 41  2  0  0  0  0 
 39 41  1  0  0  0  0 
 41 42  1  0  0  0  0 
 43  2  1  0  0  0  0 
  7 44  1  0  0  0  0 
 45  9  1  0  0  0  0 
 46  9  1  0  0  0  0 
 47 10  1  0  0  0  0 
 48 10  1  0  0  0  0 
 11 49  1  0  0  0  0 
 50 15  1  0  0  0  0 
 20 51  1  0  0  0  0 
 52 22  1  0  0  0  0 
 53 22  1  0  0  0  0 
 54 22  1  0  0  0  0 
 55 25  1  0  0  0  0 
 56 28  1  0  0  0  0 
 57 29  1  0  0  0  0 
 58 32  1  0  0  0  0 
 59 33  1  0  0  0  0 
 60 35  1  0  0  0  0 
 61 37  1  0  0  0  0 
 62 38  1  0  0  0  0 
 63 40  1  0  0  0  0 
 64 42  1  0  0  0  0 
 65 42  1  0  0  0  0 
 66 42  1  0  0  0  0 
M  END
> <cdk:Title>
cefpiramide

> <Conformer>
1

> <SuperDrugID>
SD000480

$$$$
