amiloxate
  CDK     0628171801

 38 38  0  0  0  0  0  0  0  0999 V2000
   -2.7570    3.1420   -0.8153 C   0  0  0  0  0  0  0  0  0  0  0  0
   -3.0471    1.8294   -0.7227 C   0  0  0  0  0  0  0  0  0  0  0  0
   -3.6728    4.1743   -1.0934 C   0  0  0  0  0  0  0  0  0  0  0  0
   -2.1332    0.8249   -0.4344 C   0  0  0  0  0  0  0  0  0  0  0  0
   -5.0832    4.0363   -0.9713 C   0  0  0  0  0  0  0  0  0  0  0  0
   -3.1816    5.4382   -1.5157 C   0  0  0  0  0  0  0  0  0  0  0  0
   -0.8099    1.0862   -0.1823 O   0  0  0  0  0  0  0  0  0  0  0  0
   -2.5495   -0.3591   -0.3998 O   0  0  0  0  0  0  0  0  0  0  0  0
   -5.9558    5.0955   -1.2801 C   0  0  0  0  0  0  0  0  0  0  0  0
   -4.0548    6.5040   -1.8104 C   0  0  0  0  0  0  0  0  0  0  0  0
    0.2018    0.1054    0.1008 C   0  0  2  0  0  0  0  0  0  0  0  0
   -5.4459    6.3389   -1.6911 C   0  0  0  0  0  0  0  0  0  0  0  0
    1.5663    0.7843    0.3778 C   0  0  2  0  0  0  0  0  0  0  0  0
   -6.2890    7.3716   -1.9981 O   0  0  0  0  0  0  0  0  0  0  0  0
    2.7067   -0.2082    0.7806 C   0  0  2  0  0  0  0  0  0  0  0  0
   -6.6410    8.1606   -0.8488 C   0  0  0  0  0  0  0  0  0  0  0  0
    3.9282    0.5575    1.3604 C   0  0  0  0  0  0  0  0  0  0  0  0
    3.1529   -1.1101   -0.4046 C   0  0  0  0  0  0  0  0  0  0  0  0
   -1.8051    3.4059   -0.6852 H   0  0  0  0  0  0  0  0  0  0  0  0
   -3.9821    1.5349   -0.8805 H   0  0  0  0  0  0  0  0  0  0  0  0
   -5.5069    3.1650   -0.6509 H   0  0  0  0  0  0  0  0  0  0  0  0
   -2.1752    5.6001   -1.6246 H   0  0  0  0  0  0  0  0  0  0  0  0
   -6.9658    4.9621   -1.1981 H   0  0  0  0  0  0  0  0  0  0  0  0
   -3.6760    7.4051   -2.1114 H   0  0  0  0  0  0  0  0  0  0  0  0
    0.2827   -0.5672   -0.7549 H   0  0  0  0  0  0  0  0  0  0  0  0
   -0.0945   -0.4745    0.9784 H   0  0  0  0  0  0  0  0  0  0  0  0
    1.4134    1.5037    1.1878 H   0  0  0  0  0  0  0  0  0  0  0  0
    1.8713    1.3485   -0.5083 H   0  0  0  0  0  0  0  0  0  0  0  0
    2.3351   -0.8635    1.5759 H   0  0  0  0  0  0  0  0  0  0  0  0
   -7.2741    8.9822   -1.1830 H   0  0  0  0  0  0  0  0  0  0  0  0
   -7.2047    7.5712   -0.1215 H   0  0  0  0  0  0  0  0  0  0  0  0
   -5.7568    8.5874   -0.3683 H   0  0  0  0  0  0  0  0  0  0  0  0
    3.6314    1.1402    2.2349 H   0  0  0  0  0  0  0  0  0  0  0  0
    4.7052   -0.1436    1.6726 H   0  0  0  0  0  0  0  0  0  0  0  0
    4.3477    1.2352    0.6137 H   0  0  0  0  0  0  0  0  0  0  0  0
    2.3341   -1.7536   -0.7295 H   0  0  0  0  0  0  0  0  0  0  0  0
    3.9837   -1.7534   -0.1062 H   0  0  0  0  0  0  0  0  0  0  0  0
    3.4741   -0.4978   -1.2499 H   0  0  0  0  0  0  0  0  0  0  0  0
  1  2  2  0  0  0  0 
  1  3  1  0  0  0  0 
  2  4  1  0  0  0  0 
  3  5  2  0  0  0  0 
  3  6  1  0  0  0  0 
  4  7  1  0  0  0  0 
  4  8  2  0  0  0  0 
  5  9  1  0  0  0  0 
  6 10  2  0  0  0  0 
  7 11  1  0  0  0  0 
  9 12  2  0  0  0  0 
 10 12  1  0  0  0  0 
 11 13  1  0  0  0  0 
 12 14  1  0  0  0  0 
 13 15  1  0  0  0  0 
 14 16  1  0  0  0  0 
 15 17  1  0  0  0  0 
 15 18  1  0  0  0  0 
  1 19  1  0  0  0  0 
  2 20  1  0  0  0  0 
  5 21  1  0  0  0  0 
  6 22  1  0  0  0  0 
  9 23  1  0  0  0  0 
 10 24  1  0  0  0  0 
 11 25  1  0  0  0  0 
 11 26  1  0  0  0  0 
 13 27  1  0  0  0  0 
 13 28  1  0  0  0  0 
 15 29  1  0  0  0  0 
 16 30  1  0  0  0  0 
 16 31  1  0  0  0  0 
 16 32  1  0  0  0  0 
 17 33  1  0  0  0  0 
 17 34  1  0  0  0  0 
 17 35  1  0  0  0  0 
 18 36  1  0  0  0  0 
 18 37  1  0  0  0  0 
 18 38  1  0  0  0  0 
M  END
> <cdk:Title>
amiloxate

> <Conformer>
1

> <SuperDrugID>
SD003599

$$$$
