disulfamide
  CDK     0628171801

 25 25  0  0  0  0  0  0  0  0999 V2000
   -2.5186    2.4997    3.5467 S   0  0  2  0  0  0  0  0  0  0  0  0
   -4.2637    2.4684    3.7551 N   0  0  2  0  0  0  0  0  0  0  0  0
   -1.8563    2.9749    4.9283 O   0  0  0  0  0  0  0  0  0  0  0  0
   -2.1850    3.5994    2.4267 O   0  0  0  0  0  0  0  0  0  0  0  0
   -1.9573    0.8833    3.0625 C   0  0  0  0  0  0  0  0  0  0  0  0
   -1.6369    0.6911    1.7033 C   0  0  0  0  0  0  0  0  0  0  0  0
   -1.8359   -0.2078    3.9672 C   0  0  0  0  0  0  0  0  0  0  0  0
   -1.1560   -0.5421    1.2238 C   0  0  0  0  0  0  0  0  0  0  0  0
   -2.1545   -0.0718    5.4135 C   0  0  0  0  0  0  0  0  0  0  0  0
   -1.3885   -1.4562    3.4736 C   0  0  0  0  0  0  0  0  0  0  0  0
   -0.7079   -0.6783   -0.4873 S   0  0  2  0  0  0  0  0  0  0  0  0
   -1.0378   -1.6291    2.1203 C   0  0  0  0  0  0  0  0  0  0  0  0
    1.0070   -1.0378   -0.6096 N   0  0  2  0  0  0  0  0  0  0  0  0
   -0.9799    0.6818   -1.2943 O   0  0  0  0  0  0  0  0  0  0  0  0
   -1.5166   -1.8737   -1.1868 O   0  0  0  0  0  0  0  0  0  0  0  0
   -0.4789   -3.1584    1.6360 Cl  0  0  0  0  0  0  0  0  0  0  0  0
   -4.5425    3.4081    4.0421 H   0  0  0  0  0  0  0  0  0  0  0  0
   -4.4582    1.8545    4.5473 H   0  0  0  0  0  0  0  0  0  0  0  0
   -1.7534    1.4647    1.0468 H   0  0  0  0  0  0  0  0  0  0  0  0
   -1.4336    0.5974    5.8843 H   0  0  0  0  0  0  0  0  0  0  0  0
   -2.1152   -1.0269    5.9416 H   0  0  0  0  0  0  0  0  0  0  0  0
   -3.1596    0.3300    5.5428 H   0  0  0  0  0  0  0  0  0  0  0  0
   -1.3060   -2.2538    4.1099 H   0  0  0  0  0  0  0  0  0  0  0  0
    1.2018   -1.2026   -1.5989 H   0  0  0  0  0  0  0  0  0  0  0  0
    1.1606   -1.9230   -0.1228 H   0  0  0  0  0  0  0  0  0  0  0  0
  1  2  1  0  0  0  0 
  1  3  2  0  0  0  0 
  1  4  2  0  0  0  0 
  1  5  1  0  0  0  0 
  5  6  2  0  0  0  0 
  5  7  1  0  0  0  0 
  6  8  1  0  0  0  0 
  7  9  1  0  0  0  0 
  7 10  2  0  0  0  0 
  8 11  1  0  0  0  0 
  8 12  2  0  0  0  0 
 10 12  1  0  0  0  0 
 11 13  1  0  0  0  0 
 11 14  2  0  0  0  0 
 11 15  2  0  0  0  0 
 12 16  1  0  0  0  0 
  2 17  1  0  0  0  0 
  2 18  1  0  0  0  0 
  6 19  1  0  0  0  0 
  9 20  1  0  0  0  0 
  9 21  1  0  0  0  0 
  9 22  1  0  0  0  0 
 10 23  1  0  0  0  0 
 13 24  1  0  0  0  0 
 13 25  1  0  0  0  0 
M  END
> <cdk:Title>
disulfamide

> <Conformer>
1

> <SuperDrugID>
SD002969

$$$$
