casopitant
  CDK     0628171801

 78 81  0  0  0  0  0  0  0  0999 V2000
    2.6334    3.7215   -6.6414 C   0  0  2  0  0  0  0  0  0  0  0  0
    2.7221    4.0285   -8.1629 C   0  0  2  0  0  0  0  0  0  0  0  0
    1.3910    4.1297   -8.7459 N   0  0  0  0  0  0  0  0  0  0  0  0
    0.5273    2.9834   -8.5169 C   0  0  1  0  0  0  0  0  0  0  0  0
    0.3839    2.7242   -6.9980 C   0  0  2  0  0  0  0  0  0  0  0  0
    1.7255    2.5649   -6.3629 N   0  0  0  0  0  0  0  0  0  0  0  0
    0.9394    5.2386   -9.4541 C   0  0  0  0  0  0  0  0  0  0  0  0
    1.7467    6.4501   -9.7084 C   0  0  0  0  0  0  0  0  0  0  0  0
   -0.2232    5.2686   -9.9284 O   0  0  0  0  0  0  0  0  0  0  0  0
    2.2810    1.1742   -6.1877 C   0  0  2  0  0  0  0  0  0  0  0  0
    2.6798    0.9869   -4.6932 C   0  0  2  0  0  0  0  0  0  0  0  0
    3.3130   -0.4184   -4.4062 C   0  0  1  0  0  0  0  0  0  0  0  0
    4.4794   -0.5604   -5.3115 N   0  0  0  0  0  0  0  0  0  0  0  0
    4.0967   -0.5759   -6.7186 C   0  0  2  0  0  0  0  0  0  0  0  0
    3.4618    0.7789   -7.1272 C   0  0  1  0  0  0  0  0  0  0  0  0
    3.4373   -0.6601   -2.9100 C   0  0  0  0  0  0  0  0  0  0  0  0
    5.8052   -0.6152   -4.8476 C   0  0  0  0  0  0  0  0  0  0  0  0
    2.7990   -1.7464   -2.2211 C   0  0  0  0  0  0  0  0  0  0  0  0
    2.9833   -1.8975   -0.8230 C   0  0  0  0  0  0  0  0  0  0  0  0
    3.7708   -0.9978   -0.0894 C   0  0  0  0  0  0  0  0  0  0  0  0
    4.3828    0.0773   -0.7469 C   0  0  0  0  0  0  0  0  0  0  0  0
    4.2101    0.2411   -2.1299 C   0  0  0  0  0  0  0  0  0  0  0  0
    1.9297   -2.7476   -2.9020 C   0  0  0  0  0  0  0  0  0  0  0  0
    3.9294   -1.1611    1.1970 F   0  0  0  0  0  0  0  0  0  0  0  0
    6.9659    0.0035   -5.3555 N   0  0  0  0  0  0  0  0  0  0  0  0
    5.9600   -1.3179   -3.8249 O   0  0  0  0  0  0  0  0  0  0  0  0
    8.0477    0.5445   -4.4998 C   0  0  1  0  0  0  0  0  0  0  0  0
    7.1623    0.2148   -6.7778 C   0  0  0  0  0  0  0  0  0  0  0  0
    8.0353    2.0502   -4.5937 C   0  0  0  0  0  0  0  0  0  0  0  0
    8.1872    0.1453   -2.9954 C   0  0  0  0  0  0  0  0  0  0  0  0
    9.1592    2.7591   -5.0766 C   0  0  0  0  0  0  0  0  0  0  0  0
    9.1577    4.1674   -5.2135 C   0  0  0  0  0  0  0  0  0  0  0  0
    7.9897    4.8719   -4.8371 C   0  0  0  0  0  0  0  0  0  0  0  0
    6.8438    4.2070   -4.3380 C   0  0  0  0  0  0  0  0  0  0  0  0
    6.8898    2.7973   -4.2299 C   0  0  0  0  0  0  0  0  0  0  0  0
    5.6412    5.0042   -3.9536 C   0  0  2  0  0  0  0  0  0  0  0  0
   10.3726    4.8456   -5.7542 C   0  0  1  0  0  0  0  0  0  0  0  0
   10.2529    6.2079   -5.8980 F   0  0  0  0  0  0  0  0  0  0  0  0
   11.4461    4.6233   -4.9253 F   0  0  0  0  0  0  0  0  0  0  0  0
   10.6718    4.3430   -6.9981 F   0  0  0  0  0  0  0  0  0  0  0  0
    5.1774    5.7066   -5.0410 F   0  0  0  0  0  0  0  0  0  0  0  0
    5.9684    5.9004   -2.9652 F   0  0  0  0  0  0  0  0  0  0  0  0
    4.5865    4.2612   -3.4756 F   0  0  0  0  0  0  0  0  0  0  0  0
    2.2278    4.6028   -6.1403 H   0  0  0  0  0  0  0  0  0  0  0  0
    3.6275    3.5616   -6.2222 H   0  0  0  0  0  0  0  0  0  0  0  0
    3.2656    3.2297   -8.6702 H   0  0  0  0  0  0  0  0  0  0  0  0
    3.3280    4.9266   -8.2812 H   0  0  0  0  0  0  0  0  0  0  0  0
   -0.4773    3.1024   -8.9280 H   0  0  0  0  0  0  0  0  0  0  0  0
    0.9602    2.1049   -9.0002 H   0  0  0  0  0  0  0  0  0  0  0  0
   -0.2628    1.8610   -6.8236 H   0  0  0  0  0  0  0  0  0  0  0  0
   -0.1142    3.5832   -6.5400 H   0  0  0  0  0  0  0  0  0  0  0  0
    1.1861    7.1947  -10.2784 H   0  0  0  0  0  0  0  0  0  0  0  0
    2.0428    6.9022   -8.7612 H   0  0  0  0  0  0  0  0  0  0  0  0
    2.6364    6.1832  -10.2794 H   0  0  0  0  0  0  0  0  0  0  0  0
    1.4874    0.4447   -6.3824 H   0  0  0  0  0  0  0  0  0  0  0  0
    1.7888    1.1262   -4.0747 H   0  0  0  0  0  0  0  0  0  0  0  0
    3.3917    1.7687   -4.4244 H   0  0  0  0  0  0  0  0  0  0  0  0
    2.5674   -1.1270   -4.7631 H   0  0  0  0  0  0  0  0  0  0  0  0
    3.3632   -1.3703   -6.8854 H   0  0  0  0  0  0  0  0  0  0  0  0
    4.8980   -0.8316   -7.3999 H   0  0  0  0  0  0  0  0  0  0  0  0
    3.1115    0.7199   -8.1604 H   0  0  0  0  0  0  0  0  0  0  0  0
    4.2417    1.5336   -7.0799 H   0  0  0  0  0  0  0  0  0  0  0  0
    2.5418   -2.6716   -0.3182 H   0  0  0  0  0  0  0  0  0  0  0  0
    4.9567    0.7411   -0.2205 H   0  0  0  0  0  0  0  0  0  0  0  0
    4.6694    1.0351   -2.5673 H   0  0  0  0  0  0  0  0  0  0  0  0
    1.0742   -2.2519   -3.3639 H   0  0  0  0  0  0  0  0  0  0  0  0
    1.5309   -3.5019   -2.2206 H   0  0  0  0  0  0  0  0  0  0  0  0
    2.5004   -3.2720   -3.6682 H   0  0  0  0  0  0  0  0  0  0  0  0
    8.9867    0.1650   -4.9235 H   0  0  0  0  0  0  0  0  0  0  0  0
    6.4301    0.9112   -7.1733 H   0  0  0  0  0  0  0  0  0  0  0  0
    7.1125   -0.7377   -7.3055 H   0  0  0  0  0  0  0  0  0  0  0  0
    8.1365    0.6375   -7.0339 H   0  0  0  0  0  0  0  0  0  0  0  0
    9.1461    0.6966   -2.5914 H   0  0  0  0  0  0  0  0  0  0  0  0
    7.2234    0.4128   -2.4686 H   0  0  0  0  0  0  0  0  0  0  0  0
    8.2434   -0.9857   -2.9553 H   0  0  0  0  0  0  0  0  0  0  0  0
    9.9990    2.2380   -5.3445 H   0  0  0  0  0  0  0  0  0  0  0  0
    7.9620    5.8903   -4.9309 H   0  0  0  0  0  0  0  0  0  0  0  0
    6.0725    2.2959   -3.8885 H   0  0  0  0  0  0  0  0  0  0  0  0
  1  2  1  0  0  0  0 
  2  3  1  0  0  0  0 
  3  4  1  0  0  0  0 
  4  5  1  0  0  0  0 
  5  6  1  0  0  0  0 
  1  6  1  0  0  0  0 
  3  7  1  0  0  0  0 
  7  8  1  0  0  0  0 
  7  9  2  0  0  0  0 
 10  6  1  0  0  0  0 
 11 12  1  0  0  0  0 
 12 13  1  0  0  0  0 
 13 14  1  0  0  0  0 
 14 15  1  0  0  0  0 
 10 11  1  0  0  0  0 
 10 15  1  0  0  0  0 
 12 16  1  0  0  0  0 
 13 17  1  0  0  0  0 
 18 19  1  0  0  0  0 
 19 20  2  0  0  0  0 
 20 21  1  0  0  0  0 
 21 22  2  0  0  0  0 
 16 18  2  0  0  0  0 
 16 22  1  0  0  0  0 
 18 23  1  0  0  0  0 
 20 24  1  0  0  0  0 
 17 25  1  0  0  0  0 
 17 26  2  0  0  0  0 
 25 27  1  0  0  0  0 
 25 28  1  0  0  0  0 
 27 29  1  0  0  0  0 
 27 30  1  0  0  0  0 
 31 32  1  0  0  0  0 
 32 33  2  0  0  0  0 
 33 34  1  0  0  0  0 
 34 35  2  0  0  0  0 
 29 31  2  0  0  0  0 
 29 35  1  0  0  0  0 
 34 36  1  0  0  0  0 
 32 37  1  0  0  0  0 
 37 38  1  0  0  0  0 
 37 39  1  0  0  0  0 
 37 40  1  0  0  0  0 
 36 41  1  0  0  0  0 
 36 42  1  0  0  0  0 
 36 43  1  0  0  0  0 
  1 44  1  0  0  0  0 
  1 45  1  0  0  0  0 
  2 46  1  0  0  0  0 
  2 47  1  0  0  0  0 
  4 48  1  0  0  0  0 
  4 49  1  0  0  0  0 
  5 50  1  0  0  0  0 
  5 51  1  0  0  0  0 
  8 52  1  0  0  0  0 
  8 53  1  0  0  0  0 
  8 54  1  0  0  0  0 
 10 55  1  0  0  0  0 
 11 56  1  0  0  0  0 
 11 57  1  0  0  0  0 
 12 58  1  0  0  0  0 
 14 59  1  0  0  0  0 
 14 60  1  0  0  0  0 
 15 61  1  0  0  0  0 
 15 62  1  0  0  0  0 
 19 63  1  0  0  0  0 
 21 64  1  0  0  0  0 
 22 65  1  0  0  0  0 
 23 66  1  0  0  0  0 
 23 67  1  0  0  0  0 
 23 68  1  0  0  0  0 
 27 69  1  0  0  0  0 
 28 70  1  0  0  0  0 
 28 71  1  0  0  0  0 
 28 72  1  0  0  0  0 
 30 73  1  0  0  0  0 
 30 74  1  0  0  0  0 
 30 75  1  0  0  0  0 
 31 76  1  0  0  0  0 
 33 77  1  0  0  0  0 
 35 78  1  0  0  0  0 
M  END
> <cdk:Title>
casopitant

> <Conformer>
1

> <SuperDrugID>
SD003545

$$$$
