hydroflumethiazide
  CDK     0628171801

 28 29  0  0  0  0  0  0  0  0999 V2000
   -3.9001   -1.3315    6.5814 O   0  0  0  0  0  0  0  0  0  0  0  0
   -2.5144   -0.9334    5.8817 S   0  0  2  0  0  0  0  0  0  0  0  0
   -2.2504    0.6411    6.0374 O   0  0  0  0  0  0  0  0  0  0  0  0
   -2.4824   -1.4018    4.1783 C   0  0  0  0  0  0  0  0  0  0  0  0
   -1.1908   -1.8134    6.6438 N   0  0  2  0  0  0  0  0  0  0  0  0
   -1.2874   -1.9412    3.6659 C   0  0  0  0  0  0  0  0  0  0  0  0
   -3.6126   -1.2691    3.3530 C   0  0  0  0  0  0  0  0  0  0  0  0
    0.0151   -1.7346    5.7938 C   0  0  1  0  0  0  0  0  0  0  0  0
   -1.2413   -2.3155    2.3099 C   0  0  0  0  0  0  0  0  0  0  0  0
   -0.1679   -2.1312    4.4282 N   0  0  0  0  0  0  0  0  0  0  0  0
   -3.5767   -1.6678    1.9955 C   0  0  0  0  0  0  0  0  0  0  0  0
   -2.3591   -2.1792    1.4438 C   0  0  0  0  0  0  0  0  0  0  0  0
   -5.1092   -1.5520    1.0904 S   0  0  2  0  0  0  0  0  0  0  0  0
   -2.2121   -2.5629    0.0008 C   0  0  2  0  0  0  0  0  0  0  0  0
   -6.3036   -0.5819    1.9431 N   0  0  2  0  0  0  0  0  0  0  0  0
   -5.7395   -3.0162    0.9037 O   0  0  0  0  0  0  0  0  0  0  0  0
   -4.9353   -0.8843   -0.3567 O   0  0  0  0  0  0  0  0  0  0  0  0
   -2.3612   -1.4612   -0.8025 F   0  0  0  0  0  0  0  0  0  0  0  0
   -3.1188   -3.5311   -0.3524 F   0  0  0  0  0  0  0  0  0  0  0  0
   -0.9853   -3.0778   -0.3515 F   0  0  0  0  0  0  0  0  0  0  0  0
   -1.4671   -2.7969    6.6551 H   0  0  0  0  0  0  0  0  0  0  0  0
   -4.4675   -0.8865    3.7622 H   0  0  0  0  0  0  0  0  0  0  0  0
    0.4222   -0.7216    5.8192 H   0  0  0  0  0  0  0  0  0  0  0  0
    0.7611   -2.4023    6.2282 H   0  0  0  0  0  0  0  0  0  0  0  0
   -0.3609   -2.6961    1.9549 H   0  0  0  0  0  0  0  0  0  0  0  0
    0.5914   -2.5514    3.9937 H   0  0  0  0  0  0  0  0  0  0  0  0
   -5.8920    0.3448    2.0688 H   0  0  0  0  0  0  0  0  0  0  0  0
   -6.4144   -0.9880    2.8741 H   0  0  0  0  0  0  0  0  0  0  0  0
  1  2  2  0  0  0  0 
  2  3  2  0  0  0  0 
  2  4  1  0  0  0  0 
  2  5  1  0  0  0  0 
  4  6  2  0  0  0  0 
  4  7  1  0  0  0  0 
  5  8  1  0  0  0  0 
  6  9  1  0  0  0  0 
  6 10  1  0  0  0  0 
  7 11  2  0  0  0  0 
  8 10  1  0  0  0  0 
  9 12  2  0  0  0  0 
 11 12  1  0  0  0  0 
 11 13  1  0  0  0  0 
 12 14  1  0  0  0  0 
 13 15  1  0  0  0  0 
 13 16  2  0  0  0  0 
 13 17  2  0  0  0  0 
 14 18  1  0  0  0  0 
 14 19  1  0  0  0  0 
 14 20  1  0  0  0  0 
  5 21  1  0  0  0  0 
  7 22  1  0  0  0  0 
  8 23  1  0  0  0  0 
  8 24  1  0  0  0  0 
  9 25  1  0  0  0  0 
 10 26  1  0  0  0  0 
 15 27  1  0  0  0  0 
 15 28  1  0  0  0  0 
M  END
> <cdk:Title>
hydroflumethiazide

> <Conformer>
1

> <SuperDrugID>
SD001237

$$$$
