piroheptine
  CDK     0628171801

 48 51  0  0  0  0  0  0  0  0999 V2000
   -4.3097    3.8663   -0.2237 C   0  0  0  0  0  0  0  0  0  0  0  0
   -3.6517    3.2572    1.0457 C   0  0  1  0  0  0  0  0  0  0  0  0
   -2.3013    2.7375    0.8120 C   0  0  0  0  0  0  0  0  0  0  0  0
   -3.5220    4.3325    2.0725 N   0  0  1  0  0  0  0  0  0  0  0  0
   -1.9607    1.6730    0.0322 C   0  0  0  0  0  0  0  0  0  0  0  0
   -1.3367    3.5787    1.4968 C   0  0  2  0  0  0  0  0  0  0  0  0
   -4.5973    4.3730    3.1133 C   0  0  1  0  0  0  0  0  0  0  0  0
   -2.1428    4.2658    2.5972 C   0  0  1  0  0  0  0  0  0  0  0  0
   -0.6191    1.3417   -0.1710 C   0  0  0  0  0  0  0  0  0  0  0  0
   -2.8853    0.8959   -0.6815 C   0  0  0  0  0  0  0  0  0  0  0  0
   -4.5155    5.6050    4.0428 C   0  0  0  0  0  0  0  0  0  0  0  0
    0.0204    1.7211   -1.3813 C   0  0  0  0  0  0  0  0  0  0  0  0
    0.1184    0.6719    0.8351 C   0  0  0  0  0  0  0  0  0  0  0  0
   -2.8758    0.7953   -2.1110 C   0  0  0  0  0  0  0  0  0  0  0  0
   -3.8578    0.1644    0.0478 C   0  0  0  0  0  0  0  0  0  0  0  0
   -0.7754    2.3651   -2.4668 C   0  0  2  0  0  0  0  0  0  0  0  0
    1.4078    1.4763   -1.5289 C   0  0  0  0  0  0  0  0  0  0  0  0
    1.4920    0.4302    0.6668 C   0  0  0  0  0  0  0  0  0  0  0  0
   -1.8716    1.4241   -3.0356 C   0  0  1  0  0  0  0  0  0  0  0  0
   -3.8878    0.0270   -2.7440 C   0  0  0  0  0  0  0  0  0  0  0  0
   -4.8377   -0.6022   -0.6035 C   0  0  0  0  0  0  0  0  0  0  0  0
    2.1396    0.8438   -0.5075 C   0  0  0  0  0  0  0  0  0  0  0  0
   -4.8561   -0.6678   -2.0027 C   0  0  0  0  0  0  0  0  0  0  0  0
   -3.6678    4.6356   -0.6585 H   0  0  0  0  0  0  0  0  0  0  0  0
   -5.2723    4.3194    0.0216 H   0  0  0  0  0  0  0  0  0  0  0  0
   -4.4915    3.0992   -0.9765 H   0  0  0  0  0  0  0  0  0  0  0  0
   -4.2891    2.4572    1.4272 H   0  0  0  0  0  0  0  0  0  0  0  0
   -0.9268    4.3127    0.7989 H   0  0  0  0  0  0  0  0  0  0  0  0
   -0.5188    3.0222    1.9556 H   0  0  0  0  0  0  0  0  0  0  0  0
   -5.5713    4.3994    2.6165 H   0  0  0  0  0  0  0  0  0  0  0  0
   -4.5646    3.4668    3.7258 H   0  0  0  0  0  0  0  0  0  0  0  0
   -1.7524    5.2683    2.7902 H   0  0  0  0  0  0  0  0  0  0  0  0
   -2.0844    3.6716    3.5167 H   0  0  0  0  0  0  0  0  0  0  0  0
   -5.3641    5.6058    4.7297 H   0  0  0  0  0  0  0  0  0  0  0  0
   -3.5991    5.5937    4.6357 H   0  0  0  0  0  0  0  0  0  0  0  0
   -4.5404    6.5177    3.4470 H   0  0  0  0  0  0  0  0  0  0  0  0
   -0.3314    0.3771    1.7060 H   0  0  0  0  0  0  0  0  0  0  0  0
   -3.8628    0.1760    1.0710 H   0  0  0  0  0  0  0  0  0  0  0  0
   -0.1265    2.6657   -3.2936 H   0  0  0  0  0  0  0  0  0  0  0  0
   -1.2502    3.2776   -2.0935 H   0  0  0  0  0  0  0  0  0  0  0  0
    1.8969    1.7571   -2.3814 H   0  0  0  0  0  0  0  0  0  0  0  0
    2.0211   -0.0397    1.4046 H   0  0  0  0  0  0  0  0  0  0  0  0
   -1.3638    0.6180   -3.5738 H   0  0  0  0  0  0  0  0  0  0  0  0
   -2.4166    2.0044   -3.7846 H   0  0  0  0  0  0  0  0  0  0  0  0
   -3.9294   -0.0344   -3.7660 H   0  0  0  0  0  0  0  0  0  0  0  0
   -5.5337   -1.1167   -0.0584 H   0  0  0  0  0  0  0  0  0  0  0  0
    3.1420    0.6782   -0.6183 H   0  0  0  0  0  0  0  0  0  0  0  0
   -5.5691   -1.2262   -2.4804 H   0  0  0  0  0  0  0  0  0  0  0  0
  2  1  1  0  0  0  0 
  2  3  1  0  0  0  0 
  2  4  1  0  0  0  0 
  3  5  2  0  0  0  0 
  3  6  1  0  0  0  0 
  4  7  1  0  0  0  0 
  4  8  1  0  0  0  0 
  5  9  1  0  0  0  0 
  5 10  1  0  0  0  0 
  6  8  1  0  0  0  0 
  7 11  1  0  0  0  0 
  9 12  2  0  0  0  0 
  9 13  1  0  0  0  0 
 10 14  2  0  0  0  0 
 10 15  1  0  0  0  0 
 12 16  1  0  0  0  0 
 12 17  1  0  0  0  0 
 13 18  2  0  0  0  0 
 14 19  1  0  0  0  0 
 14 20  1  0  0  0  0 
 15 21  2  0  0  0  0 
 16 19  1  0  0  0  0 
 17 22  2  0  0  0  0 
 18 22  1  0  0  0  0 
 20 23  2  0  0  0  0 
 21 23  1  0  0  0  0 
  1 24  1  0  0  0  0 
  1 25  1  0  0  0  0 
  1 26  1  0  0  0  0 
  2 27  1  0  0  0  0 
  6 28  1  0  0  0  0 
  6 29  1  0  0  0  0 
  7 30  1  0  0  0  0 
  7 31  1  0  0  0  0 
  8 32  1  0  0  0  0 
  8 33  1  0  0  0  0 
 11 34  1  0  0  0  0 
 11 35  1  0  0  0  0 
 11 36  1  0  0  0  0 
 13 37  1  0  0  0  0 
 15 38  1  0  0  0  0 
 16 39  1  0  0  0  0 
 16 40  1  0  0  0  0 
 17 41  1  0  0  0  0 
 18 42  1  0  0  0  0 
 19 43  1  0  0  0  0 
 19 44  1  0  0  0  0 
 20 45  1  0  0  0  0 
 21 46  1  0  0  0  0 
 22 47  1  0  0  0  0 
 23 48  1  0  0  0  0 
M  END
> <cdk:Title>
piroheptine

> <Conformer>
1

> <SuperDrugID>
SD001982

$$$$
