iodocholesterol (131I)
  CDK     0628171801

 74 77  0  0  0  0  0  0  0  0999 V2000
    1.1668    4.6322    4.8567 C   0  0  1  0  0  0  0  0  0  0  0  0
    2.1535    5.4013    3.1401 I   0  0  0  0  0  0  0  0  0  0  0  0
    1.5407    3.1565    5.2944 C   0  0  1  0  0  0  0  0  0  0  0  0
    0.9793    2.0514    4.2698 C   0  0  2  0  0  0  0  0  0  0  0  0
    3.0242    3.0549    5.4935 C   0  0  0  0  0  0  0  0  0  0  0  0
    0.8894    2.8923    6.7159 C   0  0  2  0  0  0  0  0  0  0  0  0
    1.9998    1.7462    3.1151 C   0  0  2  0  0  0  0  0  0  0  0  0
   -0.4970    2.2320    3.7414 C   0  0  1  0  0  0  0  0  0  0  0  0
    3.8096    2.2120    4.7838 C   0  0  0  0  0  0  0  0  0  0  0  0
    3.6601    3.8868    6.5350 C   0  0  1  0  0  0  0  0  0  0  0  0
    1.4759    3.7284    7.8916 C   0  0  1  0  0  0  0  0  0  0  0  0
    1.4250    0.6709    2.1380 C   0  0  1  0  0  0  0  0  0  0  0  0
    3.3494    1.3115    3.7477 C   0  0  2  0  0  0  0  0  0  0  0  0
   -0.9468    1.2092    2.6475 C   0  0  1  0  0  0  0  0  0  0  0  0
    3.0232    3.6418    7.9278 C   0  0  2  0  0  0  0  0  0  0  0  0
    0.0769    1.0904    1.4579 C   0  0  1  0  0  0  0  0  0  0  0  0
    2.3189    0.1938    0.9791 C   0  0  1  0  0  0  0  0  0  0  0  0
    3.5317    4.5907    8.8641 O   0  0  0  0  0  0  0  0  0  0  0  0
    0.1592    2.4460    0.6503 C   0  0  0  0  0  0  0  0  0  0  0  0
   -0.1303   -0.1325    0.4744 C   0  0  2  0  0  0  0  0  0  0  0  0
    1.3238   -0.4216   -0.0311 C   0  0  2  0  0  0  0  0  0  0  0  0
   -1.1739   -0.0328   -0.7114 C   0  0  1  0  0  0  0  0  0  0  0  0
   -1.2359   -1.3145   -1.6205 C   0  0  1  0  0  0  0  0  0  0  0  0
   -2.6120    0.3728   -0.2660 C   0  0  0  0  0  0  0  0  0  0  0  0
   -1.8974   -2.5805   -0.9981 C   0  0  2  0  0  0  0  0  0  0  0  0
   -2.0481   -3.7462   -2.0181 C   0  0  1  0  0  0  0  0  0  0  0  0
   -2.9306   -4.9465   -1.5385 C   0  0  2  0  0  0  0  0  0  0  0  0
   -2.3919   -5.6332   -0.2517 C   0  0  0  0  0  0  0  0  0  0  0  0
   -3.0945   -5.9994   -2.6719 C   0  0  0  0  0  0  0  0  0  0  0  0
    2.2011    2.6467    2.5423 H   0  0  0  0  0  0  0  0  0  0  0  0
    0.9257    1.1092    4.8295 H   0  0  0  0  0  0  0  0  0  0  0  0
    1.2508   -0.2289    2.7490 H   0  0  0  0  0  0  0  0  0  0  0  0
   -0.4371   -0.9914    1.0817 H   0  0  0  0  0  0  0  0  0  0  0  0
    1.4037    5.3535    5.6348 H   0  0  0  0  0  0  0  0  0  0  0  0
    0.0946    4.7470    4.7129 H   0  0  0  0  0  0  0  0  0  0  0  0
    1.0231    1.8414    6.9915 H   0  0  0  0  0  0  0  0  0  0  0  0
   -0.1888    3.0715    6.6773 H   0  0  0  0  0  0  0  0  0  0  0  0
   -1.1911    2.1535    4.5844 H   0  0  0  0  0  0  0  0  0  0  0  0
   -0.6309    3.2217    3.3109 H   0  0  0  0  0  0  0  0  0  0  0  0
    4.7865    2.1765    4.9743 H   0  0  0  0  0  0  0  0  0  0  0  0
    4.7345    3.7020    6.6346 H   0  0  0  0  0  0  0  0  0  0  0  0
    3.5687    4.9400    6.2683 H   0  0  0  0  0  0  0  0  0  0  0  0
    1.1641    4.7701    7.8047 H   0  0  0  0  0  0  0  0  0  0  0  0
    1.0724    3.3563    8.8376 H   0  0  0  0  0  0  0  0  0  0  0  0
    4.1114    1.2664    2.9640 H   0  0  0  0  0  0  0  0  0  0  0  0
    3.2618    0.3128    4.1875 H   0  0  0  0  0  0  0  0  0  0  0  0
   -1.0837    0.2336    3.1244 H   0  0  0  0  0  0  0  0  0  0  0  0
   -1.9269    1.5143    2.2795 H   0  0  0  0  0  0  0  0  0  0  0  0
    3.3106    2.6465    8.2817 H   0  0  0  0  0  0  0  0  0  0  0  0
    2.8570    1.0358    0.5335 H   0  0  0  0  0  0  0  0  0  0  0  0
    3.0499   -0.5468    1.3194 H   0  0  0  0  0  0  0  0  0  0  0  0
    4.5028    4.4550    8.8616 H   0  0  0  0  0  0  0  0  0  0  0  0
    0.4465    3.2901    1.2702 H   0  0  0  0  0  0  0  0  0  0  0  0
   -0.8036    2.7072    0.2198 H   0  0  0  0  0  0  0  0  0  0  0  0
    0.8824    2.3878   -0.1643 H   0  0  0  0  0  0  0  0  0  0  0  0
    1.4942   -1.4978   -0.1262 H   0  0  0  0  0  0  0  0  0  0  0  0
    1.4995    0.0319   -1.0092 H   0  0  0  0  0  0  0  0  0  0  0  0
   -0.8295    0.7678   -1.3738 H   0  0  0  0  0  0  0  0  0  0  0  0
   -1.7915   -1.0484   -2.5252 H   0  0  0  0  0  0  0  0  0  0  0  0
   -0.2316   -1.5803   -1.9561 H   0  0  0  0  0  0  0  0  0  0  0  0
   -2.6604    1.4126    0.0417 H   0  0  0  0  0  0  0  0  0  0  0  0
   -2.9451   -0.2460    0.5658 H   0  0  0  0  0  0  0  0  0  0  0  0
   -3.3218    0.2618   -1.0880 H   0  0  0  0  0  0  0  0  0  0  0  0
   -2.8920   -2.3273   -0.6310 H   0  0  0  0  0  0  0  0  0  0  0  0
   -1.2942   -2.9150   -0.1530 H   0  0  0  0  0  0  0  0  0  0  0  0
   -2.5095   -3.3397   -2.9234 H   0  0  0  0  0  0  0  0  0  0  0  0
   -1.0525   -4.1083   -2.2906 H   0  0  0  0  0  0  0  0  0  0  0  0
   -3.9308   -4.5597   -1.3148 H   0  0  0  0  0  0  0  0  0  0  0  0
   -2.4121   -4.9435    0.5932 H   0  0  0  0  0  0  0  0  0  0  0  0
   -3.0143   -6.4916    0.0113 H   0  0  0  0  0  0  0  0  0  0  0  0
   -1.3667   -5.9786   -0.4024 H   0  0  0  0  0  0  0  0  0  0  0  0
   -3.5112   -5.5385   -3.5700 H   0  0  0  0  0  0  0  0  0  0  0  0
   -3.7747   -6.7946   -2.3582 H   0  0  0  0  0  0  0  0  0  0  0  0
   -2.1302   -6.4466   -2.9247 H   0  0  0  0  0  0  0  0  0  0  0  0
  1  2  1  0  0  0  0 
  3  1  1  0  0  0  0 
  4  3  1  0  0  0  0 
  3  5  1  0  0  0  0 
  3  6  1  0  0  0  0 
  7  4  1  0  0  0  0 
  4  8  1  0  0  0  0 
  4 31  1  0  0  0  0 
  5  9  2  0  0  0  0 
  5 10  1  0  0  0  0 
  6 11  1  0  0  0  0 
 12  7  1  0  0  0  0 
  7 13  1  0  0  0  0 
  7 30  1  0  0  0  0 
  8 14  1  0  0  0  0 
  9 13  1  0  0  0  0 
 15 10  1  0  0  0  0 
 15 11  1  0  0  0  0 
 12 16  1  0  0  0  0 
 12 17  1  0  0  0  0 
 12 32  1  0  0  0  0 
 16 14  1  0  0  0  0 
 15 18  1  0  0  0  0 
 16 19  1  0  0  0  0 
 16 20  1  0  0  0  0 
 17 21  1  0  0  0  0 
 20 21  1  0  0  0  0 
 20 22  1  0  0  0  0 
 20 33  1  0  0  0  0 
 22 23  1  0  0  0  0 
 22 24  1  0  0  0  0 
 23 25  1  0  0  0  0 
 25 26  1  0  0  0  0 
 26 27  1  0  0  0  0 
 27 28  1  0  0  0  0 
 27 29  1  0  0  0  0 
  1 34  1  0  0  0  0 
  1 35  1  0  0  0  0 
  6 36  1  0  0  0  0 
  6 37  1  0  0  0  0 
  8 38  1  0  0  0  0 
  8 39  1  0  0  0  0 
  9 40  1  0  0  0  0 
 10 41  1  0  0  0  0 
 10 42  1  0  0  0  0 
 11 43  1  0  0  0  0 
 11 44  1  0  0  0  0 
 13 45  1  0  0  0  0 
 13 46  1  0  0  0  0 
 14 47  1  0  0  0  0 
 14 48  1  0  0  0  0 
 15 49  1  0  0  0  0 
 17 50  1  0  0  0  0 
 17 51  1  0  0  0  0 
 18 52  1  0  0  0  0 
 19 53  1  0  0  0  0 
 19 54  1  0  0  0  0 
 19 55  1  0  0  0  0 
 21 56  1  0  0  0  0 
 21 57  1  0  0  0  0 
 22 58  1  0  0  0  0 
 23 59  1  0  0  0  0 
 23 60  1  0  0  0  0 
 24 61  1  0  0  0  0 
 24 62  1  0  0  0  0 
 24 63  1  0  0  0  0 
 25 64  1  0  0  0  0 
 25 65  1  0  0  0  0 
 26 66  1  0  0  0  0 
 26 67  1  0  0  0  0 
 27 68  1  0  0  0  0 
 28 69  1  0  0  0  0 
 28 70  1  0  0  0  0 
 28 71  1  0  0  0  0 
 29 72  1  0  0  0  0 
 29 73  1  0  0  0  0 
 29 74  1  0  0  0  0 
M  ISO  1   2 131
M  END
> <cdk:Title>
iodocholesterol (131I)

> <Conformer>
1

> <SuperDrugID>
SD003634

$$$$
