cetilistat
  CDK     0628171802

 68 69  0  0  0  0  0  0  0  0999 V2000
   10.4175   -7.3676    0.4027 C   0  0  0  0  0  0  0  0  0  0  0  0
   11.0654   -8.1180    1.4002 C   0  0  0  0  0  0  0  0  0  0  0  0
   10.3178   -8.8402    2.3599 C   0  0  0  0  0  0  0  0  0  0  0  0
    8.9048   -8.7908    2.3102 C   0  0  0  0  0  0  0  0  0  0  0  0
    8.2429   -8.0389    1.3144 C   0  0  0  0  0  0  0  0  0  0  0  0
    9.0121   -7.3303    0.3533 C   0  0  0  0  0  0  0  0  0  0  0  0
    8.4042   -6.6009   -0.6132 N   0  0  0  0  0  0  0  0  0  0  0  0
    6.8373   -7.9437    1.2082 C   0  0  0  0  0  0  0  0  0  0  0  0
    6.2871   -7.1875    0.2171 O   0  0  0  0  0  0  0  0  0  0  0  0
    7.0562   -6.5143   -0.6844 C   0  0  0  0  0  0  0  0  0  0  0  0
   11.0008   -9.6755    3.3756 C   0  0  0  0  0  0  0  0  0  0  0  0
    6.0526   -8.5220    1.9929 O   0  0  0  0  0  0  0  0  0  0  0  0
    6.4739   -5.7085   -1.6095 O   0  0  0  0  0  0  0  0  0  0  0  0
    6.3252   -4.3824   -1.0679 C   0  0  2  0  0  0  0  0  0  0  0  0
    5.6763   -3.4687   -2.1239 C   0  0  1  0  0  0  0  0  0  0  0  0
    5.4916   -2.0333   -1.5777 C   0  0  2  0  0  0  0  0  0  0  0  0
    4.8267   -1.0947   -2.6150 C   0  0  2  0  0  0  0  0  0  0  0  0
    4.6441    0.3403   -2.0617 C   0  0  2  0  0  0  0  0  0  0  0  0
    3.9487    1.2653   -3.1861 C   0  0  1  0  0  0  0  0  0  0  0  0
    3.7784    2.7477   -2.5661 C   0  0  1  0  0  0  0  0  0  0  0  0
    3.1109    3.6774   -3.6144 C   0  0  2  0  0  0  0  0  0  0  0  0
    2.9079    5.1315   -3.0979 C   0  0  1  0  0  0  0  0  0  0  0  0
    2.2403    6.0705   -4.1397 C   0  0  2  0  0  0  0  0  0  0  0  0
    2.0433    7.5208   -3.6104 C   0  0  1  0  0  0  0  0  0  0  0  0
    1.3754    8.4627   -4.6511 C   0  0  2  0  0  0  0  0  0  0  0  0
    1.1769    9.9120   -4.1262 C   0  0  2  0  0  0  0  0  0  0  0  0
    0.5091   10.8404   -5.1762 C   0  0  1  0  0  0  0  0  0  0  0  0
    0.3129   12.2868   -4.6477 C   0  0  1  0  0  0  0  0  0  0  0  0
   -0.3517   13.2106   -5.6928 C   0  0  0  0  0  0  0  0  0  0  0  0
   10.9732   -6.8499   -0.2845 H   0  0  0  0  0  0  0  0  0  0  0  0
   12.0901   -8.1361    1.4150 H   0  0  0  0  0  0  0  0  0  0  0  0
    8.3594   -9.3105    3.0030 H   0  0  0  0  0  0  0  0  0  0  0  0
   11.9885   -9.2804    3.6272 H   0  0  0  0  0  0  0  0  0  0  0  0
   10.4196   -9.7315    4.2992 H   0  0  0  0  0  0  0  0  0  0  0  0
   11.1158  -10.6822    2.9691 H   0  0  0  0  0  0  0  0  0  0  0  0
    7.3017   -3.9625   -0.7961 H   0  0  0  0  0  0  0  0  0  0  0  0
    5.6851   -4.3961   -0.1770 H   0  0  0  0  0  0  0  0  0  0  0  0
    6.3105   -3.4464   -3.0137 H   0  0  0  0  0  0  0  0  0  0  0  0
    4.7048   -3.8842   -2.4017 H   0  0  0  0  0  0  0  0  0  0  0  0
    6.4685   -1.6272   -1.2983 H   0  0  0  0  0  0  0  0  0  0  0  0
    4.8702   -2.0708   -0.6779 H   0  0  0  0  0  0  0  0  0  0  0  0
    3.8494   -1.5027   -2.8889 H   0  0  0  0  0  0  0  0  0  0  0  0
    5.4496   -1.0583   -3.5133 H   0  0  0  0  0  0  0  0  0  0  0  0
    5.6637    0.6794   -1.7300 H   0  0  0  0  0  0  0  0  0  0  0  0
    4.0624    0.2351   -1.1050 H   0  0  0  0  0  0  0  0  0  0  0  0
    4.5788    1.3008   -4.0776 H   0  0  0  0  0  0  0  0  0  0  0  0
    2.9722    0.8543   -3.4516 H   0  0  0  0  0  0  0  0  0  0  0  0
    3.1401    2.8040   -1.6424 H   0  0  0  0  0  0  0  0  0  0  0  0
    4.7391    3.2486   -2.2661 H   0  0  0  0  0  0  0  0  0  0  0  0
    2.1392    3.2573   -3.8875 H   0  0  0  0  0  0  0  0  0  0  0  0
    3.7366    3.7016   -4.5106 H   0  0  0  0  0  0  0  0  0  0  0  0
    2.2841    5.1054   -2.2005 H   0  0  0  0  0  0  0  0  0  0  0  0
    3.8799    5.5493   -2.8229 H   0  0  0  0  0  0  0  0  0  0  0  0
    1.2656    5.6588   -4.4155 H   0  0  0  0  0  0  0  0  0  0  0  0
    2.8623    6.1030   -5.0383 H   0  0  0  0  0  0  0  0  0  0  0  0
    1.4204    7.4912   -2.7115 H   0  0  0  0  0  0  0  0  0  0  0  0
    3.0173    7.9355   -3.3344 H   0  0  0  0  0  0  0  0  0  0  0  0
    0.3994    8.0522   -4.9268 H   0  0  0  0  0  0  0  0  0  0  0  0
    1.9977    8.4968   -5.5502 H   0  0  0  0  0  0  0  0  0  0  0  0
    2.1500   10.3311   -3.8526 H   0  0  0  0  0  0  0  0  0  0  0  0
    0.5511    9.8864   -3.2290 H   0  0  0  0  0  0  0  0  0  0  0  0
    1.1327   10.8705   -6.0751 H   0  0  0  0  0  0  0  0  0  0  0  0
   -0.4656   10.4259   -5.4516 H   0  0  0  0  0  0  0  0  0  0  0  0
   -0.3133   12.2651   -3.7510 H   0  0  0  0  0  0  0  0  0  0  0  0
    1.2841   12.7095   -4.3741 H   0  0  0  0  0  0  0  0  0  0  0  0
   -0.4701   14.2147   -5.2803 H   0  0  0  0  0  0  0  0  0  0  0  0
    0.2673   13.2730   -6.5905 H   0  0  0  0  0  0  0  0  0  0  0  0
   -1.3374   12.8266   -5.9646 H   0  0  0  0  0  0  0  0  0  0  0  0
  1  2  1  0  0  0  0 
  1  6  2  0  0  0  0 
  2  3  2  0  0  0  0 
  3  4  1  0  0  0  0 
  4  5  2  0  0  0  0 
  5  6  1  0  0  0  0 
  8  9  1  0  0  0  0 
  9 10  1  0  0  0  0 
  7 10  2  0  0  0  0 
  5  8  1  0  0  0  0 
  7  6  1  0  0  0  0 
  3 11  1  0  0  0  0 
  8 12  2  0  0  0  0 
 10 13  1  0  0  0  0 
 13 14  1  0  0  0  0 
 15 16  1  0  0  0  0 
 16 17  1  0  0  0  0 
 17 18  1  0  0  0  0 
 18 19  1  0  0  0  0 
 19 20  1  0  0  0  0 
 20 21  1  0  0  0  0 
 21 22  1  0  0  0  0 
 22 23  1  0  0  0  0 
 23 24  1  0  0  0  0 
 24 25  1  0  0  0  0 
 25 26  1  0  0  0  0 
 26 27  1  0  0  0  0 
 27 28  1  0  0  0  0 
 28 29  1  0  0  0  0 
 14 15  1  0  0  0  0 
  1 30  1  0  0  0  0 
  2 31  1  0  0  0  0 
  4 32  1  0  0  0  0 
 11 33  1  0  0  0  0 
 11 34  1  0  0  0  0 
 11 35  1  0  0  0  0 
 14 36  1  0  0  0  0 
 14 37  1  0  0  0  0 
 15 38  1  0  0  0  0 
 15 39  1  0  0  0  0 
 16 40  1  0  0  0  0 
 16 41  1  0  0  0  0 
 17 42  1  0  0  0  0 
 17 43  1  0  0  0  0 
 18 44  1  0  0  0  0 
 18 45  1  0  0  0  0 
 19 46  1  0  0  0  0 
 19 47  1  0  0  0  0 
 20 48  1  0  0  0  0 
 20 49  1  0  0  0  0 
 21 50  1  0  0  0  0 
 21 51  1  0  0  0  0 
 22 52  1  0  0  0  0 
 22 53  1  0  0  0  0 
 23 54  1  0  0  0  0 
 23 55  1  0  0  0  0 
 24 56  1  0  0  0  0 
 24 57  1  0  0  0  0 
 25 58  1  0  0  0  0 
 25 59  1  0  0  0  0 
 26 60  1  0  0  0  0 
 26 61  1  0  0  0  0 
 27 62  1  0  0  0  0 
 27 63  1  0  0  0  0 
 28 64  1  0  0  0  0 
 28 65  1  0  0  0  0 
 29 66  1  0  0  0  0 
 29 67  1  0  0  0  0 
 29 68  1  0  0  0  0 
M  END
> <cdk:Title>
cetilistat

> <Conformer>
1

> <SuperDrugID>
SD003824

$$$$
