tianeptine
  CDK     0628171801

 54 56  0  0  0  0  0  0  0  0999 V2000
   -5.8824    1.3345   -0.2064 N   0  0  1  0  0  0  0  0  0  0  0  0
   -6.8515    0.2926    0.2237 C   0  0  2  0  0  0  0  0  0  0  0  0
   -4.4393    1.1839    0.1268 C   0  0  1  0  0  0  0  0  0  0  0  0
   -6.6897   -1.0458   -0.5391 C   0  0  1  0  0  0  0  0  0  0  0  0
   -3.6454    2.3044   -0.4591 C   0  0  0  0  0  0  0  0  0  0  0  0
   -4.1992    0.9293    1.5952 C   0  0  0  0  0  0  0  0  0  0  0  0
   -7.6645   -2.1560   -0.0691 C   0  0  2  0  0  0  0  0  0  0  0  0
   -3.8720    3.6584   -0.1029 C   0  0  0  0  0  0  0  0  0  0  0  0
   -2.6408    2.0238   -1.4240 C   0  0  0  0  0  0  0  0  0  0  0  0
   -4.4647    1.8400    2.6816 C   0  0  0  0  0  0  0  0  0  0  0  0
   -3.7680   -0.3920    1.9060 C   0  0  0  0  0  0  0  0  0  0  0  0
   -7.4080   -3.4977   -0.8103 C   0  0  2  0  0  0  0  0  0  0  0  0
   -5.0365    4.0846    1.1651 S   0  0  1  0  0  0  0  0  0  0  0  0
   -3.1169    4.6870   -0.7102 C   0  0  0  0  0  0  0  0  0  0  0  0
   -1.8876    3.0486   -2.0174 C   0  0  0  0  0  0  0  0  0  0  0  0
   -4.5675    3.2387    2.5963 N   0  0  0  0  0  0  0  0  0  0  0  0
   -4.6073    1.2549    3.9739 C   0  0  0  0  0  0  0  0  0  0  0  0
   -3.8123   -0.8962    3.2099 C   0  0  0  0  0  0  0  0  0  0  0  0
   -8.2634   -4.6701   -0.2643 C   0  0  2  0  0  0  0  0  0  0  0  0
   -5.0222    5.6729    1.4150 O   0  0  0  0  0  0  0  0  0  0  0  0
   -6.5510    3.7129    0.7909 O   0  0  0  0  0  0  0  0  0  0  0  0
   -2.1259    4.3861   -1.6625 C   0  0  0  0  0  0  0  0  0  0  0  0
   -4.1951    4.1219    3.6863 C   0  0  0  0  0  0  0  0  0  0  0  0
   -4.2850   -0.0828    4.2411 C   0  0  0  0  0  0  0  0  0  0  0  0
   -7.9071   -6.0307   -0.9249 C   0  0  2  0  0  0  0  0  0  0  0  0
   -1.2183    5.6267   -2.3718 Cl  0  0  0  0  0  0  0  0  0  0  0  0
   -8.6877   -7.1500   -0.3615 C   0  0  0  0  0  0  0  0  0  0  0  0
   -8.0707   -8.1905    0.2458 O   0  0  0  0  0  0  0  0  0  0  0  0
   -9.9373   -7.1636   -0.4359 O   0  0  0  0  0  0  0  0  0  0  0  0
   -5.9561    1.4144   -1.2234 H   0  0  0  0  0  0  0  0  0  0  0  0
   -7.8484    0.6874    0.0220 H   0  0  0  0  0  0  0  0  0  0  0  0
   -6.7817    0.1275    1.3004 H   0  0  0  0  0  0  0  0  0  0  0  0
   -4.1650    0.2970   -0.4495 H   0  0  0  0  0  0  0  0  0  0  0  0
   -6.8394   -0.8627   -1.6055 H   0  0  0  0  0  0  0  0  0  0  0  0
   -5.6743   -1.4151   -0.3951 H   0  0  0  0  0  0  0  0  0  0  0  0
   -8.6955   -1.8359   -0.2416 H   0  0  0  0  0  0  0  0  0  0  0  0
   -7.5288   -2.3079    1.0051 H   0  0  0  0  0  0  0  0  0  0  0  0
   -2.4439    1.0609   -1.7110 H   0  0  0  0  0  0  0  0  0  0  0  0
   -3.4469   -1.0335    1.1755 H   0  0  0  0  0  0  0  0  0  0  0  0
   -6.3513   -3.7594   -0.7089 H   0  0  0  0  0  0  0  0  0  0  0  0
   -7.6255   -3.3689   -1.8739 H   0  0  0  0  0  0  0  0  0  0  0  0
   -3.2767    5.6638   -0.4559 H   0  0  0  0  0  0  0  0  0  0  0  0
   -1.1682    2.8119   -2.7063 H   0  0  0  0  0  0  0  0  0  0  0  0
   -4.9476    1.8080    4.7627 H   0  0  0  0  0  0  0  0  0  0  0  0
   -3.5285   -1.8593    3.4016 H   0  0  0  0  0  0  0  0  0  0  0  0
   -9.3193   -4.4455   -0.4372 H   0  0  0  0  0  0  0  0  0  0  0  0
   -8.1048   -4.7498    0.8143 H   0  0  0  0  0  0  0  0  0  0  0  0
   -3.6173    3.6305    4.4689 H   0  0  0  0  0  0  0  0  0  0  0  0
   -3.5608    4.9413    3.3422 H   0  0  0  0  0  0  0  0  0  0  0  0
   -5.0980    4.5423    4.1340 H   0  0  0  0  0  0  0  0  0  0  0  0
   -4.3793   -0.4580    5.1870 H   0  0  0  0  0  0  0  0  0  0  0  0
   -6.8413   -6.2300   -0.7768 H   0  0  0  0  0  0  0  0  0  0  0  0
   -8.0935   -5.9850   -2.0020 H   0  0  0  0  0  0  0  0  0  0  0  0
   -8.6043   -8.9275    0.6102 H   0  0  0  0  0  0  0  0  0  0  0  0
  1  2  1  0  0  0  0 
  1  3  1  0  0  0  0 
  2  4  1  0  0  0  0 
  3  5  1  0  0  0  0 
  3  6  1  0  0  0  0 
  4  7  1  0  0  0  0 
  5  8  2  0  0  0  0 
  5  9  1  0  0  0  0 
  6 10  2  0  0  0  0 
  6 11  1  0  0  0  0 
  7 12  1  0  0  0  0 
  8 13  1  0  0  0  0 
  8 14  1  0  0  0  0 
  9 15  2  0  0  0  0 
 10 16  1  0  0  0  0 
 10 17  1  0  0  0  0 
 11 18  2  0  0  0  0 
 12 19  1  0  0  0  0 
 13 16  1  0  0  0  0 
 13 20  2  0  0  0  0 
 13 21  2  0  0  0  0 
 14 22  2  0  0  0  0 
 15 22  1  0  0  0  0 
 16 23  1  0  0  0  0 
 17 24  2  0  0  0  0 
 18 24  1  0  0  0  0 
 19 25  1  0  0  0  0 
 22 26  1  0  0  0  0 
 25 27  1  0  0  0  0 
 27 28  1  0  0  0  0 
 27 29  2  0  0  0  0 
  1 30  1  0  0  0  0 
  2 31  1  0  0  0  0 
  2 32  1  0  0  0  0 
  3 33  1  0  0  0  0 
  4 34  1  0  0  0  0 
  4 35  1  0  0  0  0 
  7 36  1  0  0  0  0 
  7 37  1  0  0  0  0 
  9 38  1  0  0  0  0 
 11 39  1  0  0  0  0 
 12 40  1  0  0  0  0 
 12 41  1  0  0  0  0 
 14 42  1  0  0  0  0 
 15 43  1  0  0  0  0 
 17 44  1  0  0  0  0 
 18 45  1  0  0  0  0 
 19 46  1  0  0  0  0 
 19 47  1  0  0  0  0 
 23 48  1  0  0  0  0 
 23 49  1  0  0  0  0 
 23 50  1  0  0  0  0 
 24 51  1  0  0  0  0 
 25 52  1  0  0  0  0 
 25 53  1  0  0  0  0 
 28 54  1  0  0  0  0 
M  END
> <cdk:Title>
tianeptine

> <Conformer>
1

> <SuperDrugID>
SD002383

$$$$
