halothane
  CDK     0628171801

  8  7  0  0  0  0  0  0  0  0999 V2000
    3.7219   -1.5706   -1.5778 F   0  0  0  0  0  0  0  0  0  0  0  0
    2.3904   -1.4000   -1.2877 C   0  0  2  0  0  0  0  0  0  0  0  0
    1.9253   -2.5443   -0.6853 F   0  0  0  0  0  0  0  0  0  0  0  0
    1.7103   -1.2540   -2.4731 F   0  0  0  0  0  0  0  0  0  0  0  0
    2.1664   -0.1657   -0.3811 C   0  0  1  0  0  0  0  0  0  0  0  0
    3.0029   -0.3155    1.1636 Cl  0  0  0  0  0  0  0  0  0  0  0  0
    2.7860    1.4496   -1.2401 Br  0  0  0  0  0  0  0  0  0  0  0  0
    1.1004   -0.0474   -0.1730 H   0  0  0  0  0  0  0  0  0  0  0  0
  1  2  1  0  0  0  0 
  2  3  1  0  0  0  0 
  2  4  1  0  0  0  0 
  2  5  1  0  0  0  0 
  5  6  1  0  0  0  0 
  5  7  1  0  0  0  0 
  5  8  1  0  0  0  0 
M  END
> <cdk:Title>
halothane

> <Conformer>
1

> <SuperDrugID>
SD001203

$$$$
