cimetidine
  CDK     0628171802

 33 33  0  0  0  0  0  0  0  0999 V2000
   -4.0023   -5.6809    1.0887 N   0  0  0  0  0  0  0  0  0  0  0  0
   -4.0099   -4.7866    2.0187 C   0  0  0  0  0  0  0  0  0  0  0  0
   -4.7186   -4.9964    3.1375 N   0  0  0  0  0  0  0  0  0  0  0  0
   -4.7093   -4.2667    4.1559 C   0  0  0  0  0  0  0  0  0  0  0  0
   -4.6990   -3.6028    5.0926 N   0  0  0  0  0  0  0  0  0  0  0  0
   -3.3066   -3.6549    1.8322 N   0  0  0  0  0  0  0  0  0  0  0  0
   -2.4602   -3.3760    0.7125 C   0  0  1  0  0  0  0  0  0  0  0  0
   -1.9301   -1.9266    0.7429 C   0  0  2  0  0  0  0  0  0  0  0  0
   -0.8270   -1.6472   -0.6803 S   0  0  0  0  0  0  0  0  0  0  0  0
   -0.1734    0.0296   -0.4132 C   0  0  1  0  0  0  0  0  0  0  0  0
    0.9375    0.2793   -1.3475 C   0  0  0  0  0  0  0  0  0  0  0  0
    0.8967    0.4867   -2.7297 C   0  0  0  0  0  0  0  0  0  0  0  0
   -0.2900    0.4937   -3.6010 C   0  0  0  0  0  0  0  0  0  0  0  0
    2.1580    0.6765   -3.1584 N   0  0  0  0  0  0  0  0  0  0  0  0
    2.9588    0.5855   -2.0846 C   0  0  0  0  0  0  0  0  0  0  0  0
    2.2264    0.3433   -0.9920 N   0  0  0  0  0  0  0  0  0  0  0  0
   -4.6328   -6.9150    1.0259 C   0  0  0  0  0  0  0  0  0  0  0  0
   -5.2775   -5.7892    3.1782 H   0  0  0  0  0  0  0  0  0  0  0  0
   -3.3638   -2.9759    2.5245 H   0  0  0  0  0  0  0  0  0  0  0  0
   -1.6169   -4.0730    0.7303 H   0  0  0  0  0  0  0  0  0  0  0  0
   -3.0213   -3.5238   -0.2158 H   0  0  0  0  0  0  0  0  0  0  0  0
   -1.3749   -1.7510    1.6681 H   0  0  0  0  0  0  0  0  0  0  0  0
   -2.7652   -1.2244    0.6881 H   0  0  0  0  0  0  0  0  0  0  0  0
   -0.9613    0.7728   -0.5530 H   0  0  0  0  0  0  0  0  0  0  0  0
    0.1927    0.0980    0.6135 H   0  0  0  0  0  0  0  0  0  0  0  0
   -0.7568   -0.4920   -3.5976 H   0  0  0  0  0  0  0  0  0  0  0  0
   -0.0100    0.7437   -4.6261 H   0  0  0  0  0  0  0  0  0  0  0  0
   -1.0093    1.2324   -3.2467 H   0  0  0  0  0  0  0  0  0  0  0  0
    3.9747    0.6793   -2.0992 H   0  0  0  0  0  0  0  0  0  0  0  0
    2.5704    0.2269   -0.0929 H   0  0  0  0  0  0  0  0  0  0  0  0
   -4.3851   -7.3790    0.0726 H   0  0  0  0  0  0  0  0  0  0  0  0
   -5.7154   -6.7971    1.0881 H   0  0  0  0  0  0  0  0  0  0  0  0
   -4.2863   -7.5648    1.8309 H   0  0  0  0  0  0  0  0  0  0  0  0
  1  2  2  0  0  0  0 
  2  3  1  0  0  0  0 
  3  4  1  0  0  0  0 
  4  5  3  0  0  0  0 
  2  6  1  0  0  0  0 
  6  7  1  0  0  0  0 
  7  8  1  0  0  0  0 
  8  9  1  0  0  0  0 
  9 10  1  0  0  0  0 
 10 11  1  0  0  0  0 
 11 12  2  0  0  0  0 
 12 13  1  0  0  0  0 
 12 14  1  0  0  0  0 
 14 15  2  0  0  0  0 
 15 16  1  0  0  0  0 
 11 16  1  0  0  0  0 
  1 17  1  0  0  0  0 
 18  3  1  0  0  0  0 
 19  6  1  0  0  0  0 
 20  7  1  0  0  0  0 
 21  7  1  0  0  0  0 
 22  8  1  0  0  0  0 
 23  8  1  0  0  0  0 
 24 10  1  0  0  0  0 
 25 10  1  0  0  0  0 
 26 13  1  0  0  0  0 
 27 13  1  0  0  0  0 
 28 13  1  0  0  0  0 
 29 15  1  0  0  0  0 
 30 16  1  0  0  0  0 
 31 17  1  0  0  0  0 
 32 17  1  0  0  0  0 
 33 17  1  0  0  0  0 
M  END
> <cdk:Title>
cimetidine

> <Conformer>
1

> <SuperDrugID>
SD000565

$$$$
