diquafosol
  CDK     0628171802

 75 78  0  0  0  0  0  0  0  0999 V2000
   -6.5668    3.0145    3.2224 C   0  0  0  0  0  0  0  0  0  0  0  0
   -7.5295    3.8415    2.6295 C   0  0  0  0  0  0  0  0  0  0  0  0
   -7.2992    4.3519    1.3988 N   0  0  0  0  0  0  0  0  0  0  0  0
   -6.1466    4.1078    0.7230 C   0  0  0  0  0  0  0  0  0  0  0  0
   -5.1442    3.3386    1.2753 N   0  0  0  0  0  0  0  0  0  0  0  0
   -5.3823    2.7744    2.5067 C   0  0  0  0  0  0  0  0  0  0  0  0
   -6.0994    4.6221   -0.4160 O   0  0  0  0  0  0  0  0  0  0  0  0
   -8.5963    4.1162    3.2240 O   0  0  0  0  0  0  0  0  0  0  0  0
   -3.8643    3.0427    0.6337 C   0  0  2  0  0  0  0  0  0  0  0  0
   -2.7700    3.1798    1.5627 O   0  0  0  0  0  0  0  0  0  0  0  0
   -3.3512    3.9070   -0.5492 C   0  0  1  0  0  0  0  0  0  0  0  0
   -1.8115    3.7582   -0.5158 C   0  0  1  0  0  0  0  0  0  0  0  0
   -1.5607    3.0050    0.8121 C   0  0  1  0  0  0  0  0  0  0  0  0
   -0.3114    3.4479    1.6113 C   0  0  2  0  0  0  0  0  0  0  0  0
   -3.9263    3.5004   -1.7916 O   0  0  0  0  0  0  0  0  0  0  0  0
   -1.2846    3.0416   -1.6338 O   0  0  0  0  0  0  0  0  0  0  0  0
   -0.3765    4.8516    1.9327 O   0  0  0  0  0  0  0  0  0  0  0  0
    0.9862    5.5014    2.4556 P   0  0  1  0  0  0  0  0  0  0  0  0
    0.7910    7.0786    2.6354 O   0  0  0  0  0  0  0  0  0  0  0  0
    1.4638    4.8580    3.6833 O   0  0  0  0  0  0  0  0  0  0  0  0
    2.0732    5.3226    1.3109 O   0  0  0  0  0  0  0  0  0  0  0  0
   -0.1046    7.6180    3.8491 P   0  0  2  0  0  0  0  0  0  0  0  0
   -1.4438    8.3234    3.3266 O   0  0  0  0  0  0  0  0  0  0  0  0
   -2.3751    7.5083    2.3190 P   0  0  1  0  0  0  0  0  0  0  0  0
   -2.7053    6.0500    2.8773 O   0  0  0  0  0  0  0  0  0  0  0  0
    0.6748    8.6462    4.5562 O   0  0  0  0  0  0  0  0  0  0  0  0
   -0.4849    6.5024    4.9060 O   0  0  0  0  0  0  0  0  0  0  0  0
   -3.5955    8.2802    2.0557 O   0  0  0  0  0  0  0  0  0  0  0  0
   -1.5891    7.3493    0.9474 O   0  0  0  0  0  0  0  0  0  0  0  0
   -3.7807    5.9358    4.0512 P   0  0  2  0  0  0  0  0  0  0  0  0
   -3.6848    4.4540    4.6590 O   0  0  0  0  0  0  0  0  0  0  0  0
   -2.3961    4.1157    5.2115 C   0  0  2  0  0  0  0  0  0  0  0  0
   -2.3621    2.6614    5.7327 C   0  0  1  0  0  0  0  0  0  0  0  0
   -5.1314    6.1499    3.5205 O   0  0  0  0  0  0  0  0  0  0  0  0
   -3.4897    6.9717    5.2147 O   0  0  0  0  0  0  0  0  0  0  0  0
   -2.4855    1.7424    4.6467 O   0  0  0  0  0  0  0  0  0  0  0  0
   -1.0175    2.2858    6.3844 C   0  0  2  0  0  0  0  0  0  0  0  0
   -0.9201    0.7685    6.1385 C   0  0  2  0  0  0  0  0  0  0  0  0
   -2.0226    0.4465    5.0830 C   0  0  2  0  0  0  0  0  0  0  0  0
   -1.6526   -0.4336    3.9727 N   0  0  0  0  0  0  0  0  0  0  0  0
   -1.7722   -0.9715    1.6014 C   0  0  0  0  0  0  0  0  0  0  0  0
   -2.1062   -0.1663    2.7021 C   0  0  0  0  0  0  0  0  0  0  0  0
   -0.9044   -1.5784    4.1462 C   0  0  0  0  0  0  0  0  0  0  0  0
   -0.5591   -2.3672    3.0954 N   0  0  0  0  0  0  0  0  0  0  0  0
   -0.9640   -2.0902    1.8348 C   0  0  0  0  0  0  0  0  0  0  0  0
   -0.6225   -2.8432    0.8956 O   0  0  0  0  0  0  0  0  0  0  0  0
   -0.5042   -1.9803    5.2616 O   0  0  0  0  0  0  0  0  0  0  0  0
   -0.9683    2.6533    7.7643 O   0  0  0  0  0  0  0  0  0  0  0  0
   -1.1369    0.0401    7.3496 O   0  0  0  0  0  0  0  0  0  0  0  0
   -6.7142    2.6049    4.1484 H   0  0  0  0  0  0  0  0  0  0  0  0
   -7.9810    4.9052    0.9859 H   0  0  0  0  0  0  0  0  0  0  0  0
   -4.6916    2.1593    2.9455 H   0  0  0  0  0  0  0  0  0  0  0  0
   -3.9193    1.9957    0.3058 H   0  0  0  0  0  0  0  0  0  0  0  0
   -3.5968    4.9577   -0.3704 H   0  0  0  0  0  0  0  0  0  0  0  0
   -1.3498    4.7493   -0.5121 H   0  0  0  0  0  0  0  0  0  0  0  0
   -1.4429    1.9366    0.6012 H   0  0  0  0  0  0  0  0  0  0  0  0
    0.5641    3.2051    0.9996 H   0  0  0  0  0  0  0  0  0  0  0  0
   -0.2599    2.8645    2.5360 H   0  0  0  0  0  0  0  0  0  0  0  0
   -3.5698    4.1243   -2.4589 H   0  0  0  0  0  0  0  0  0  0  0  0
   -0.3110    3.0697   -1.5177 H   0  0  0  0  0  0  0  0  0  0  0  0
    2.8905    5.7201    1.6756 H   0  0  0  0  0  0  0  0  0  0  0  0
    0.3666    6.2395    5.3141 H   0  0  0  0  0  0  0  0  0  0  0  0
   -2.2307    6.9396    0.3297 H   0  0  0  0  0  0  0  0  0  0  0  0
   -2.1574    4.7789    6.0487 H   0  0  0  0  0  0  0  0  0  0  0  0
   -1.6208    4.2052    4.4462 H   0  0  0  0  0  0  0  0  0  0  0  0
   -3.1842    2.5079    6.4394 H   0  0  0  0  0  0  0  0  0  0  0  0
   -3.6439    7.8520    4.8140 H   0  0  0  0  0  0  0  0  0  0  0  0
   -0.1911    2.7863    5.8692 H   0  0  0  0  0  0  0  0  0  0  0  0
    0.0793    0.5337    5.7640 H   0  0  0  0  0  0  0  0  0  0  0  0
   -2.8676   -0.0331    5.5888 H   0  0  0  0  0  0  0  0  0  0  0  0
   -2.1144   -0.7511    0.6636 H   0  0  0  0  0  0  0  0  0  0  0  0
   -2.7223    0.6248    2.5166 H   0  0  0  0  0  0  0  0  0  0  0  0
   -0.0136   -3.1535    3.2551 H   0  0  0  0  0  0  0  0  0  0  0  0
   -1.0378    3.6314    7.7726 H   0  0  0  0  0  0  0  0  0  0  0  0
   -1.0527   -0.9048    7.1110 H   0  0  0  0  0  0  0  0  0  0  0  0
  1  2  1  0  0  0  0 
  1  6  2  0  0  0  0 
  2  3  1  0  0  0  0 
  3  4  1  0  0  0  0 
  4  5  1  0  0  0  0 
  5  6  1  0  0  0  0 
  4  7  2  0  0  0  0 
  2  8  2  0  0  0  0 
  9  5  1  0  0  0  0 
 11 12  1  0  0  0  0 
 12 13  1  0  0  0  0 
 13 10  1  0  0  0  0 
  9 10  1  0  0  0  0 
 11  9  1  0  0  0  0 
 13 14  1  0  0  0  0 
 11 15  1  0  0  0  0 
 12 16  1  0  0  0  0 
 14 17  1  0  0  0  0 
 17 18  1  0  0  0  0 
 18 19  1  0  0  0  0 
 18 20  2  0  0  0  0 
 18 21  1  0  0  0  0 
 19 22  1  0  0  0  0 
 22 23  1  0  0  0  0 
 23 24  1  0  0  0  0 
 24 25  1  0  0  0  0 
 22 26  2  0  0  0  0 
 22 27  1  0  0  0  0 
 24 28  2  0  0  0  0 
 24 29  1  0  0  0  0 
 25 30  1  0  0  0  0 
 30 31  1  0  0  0  0 
 31 32  1  0  0  0  0 
 33 32  1  0  0  0  0 
 30 34  2  0  0  0  0 
 30 35  1  0  0  0  0 
 37 38  1  0  0  0  0 
 38 39  1  0  0  0  0 
 39 36  1  0  0  0  0 
 33 36  1  0  0  0  0 
 37 33  1  0  0  0  0 
 39 40  1  0  0  0  0 
 41 42  2  0  0  0  0 
 43 44  1  0  0  0  0 
 44 45  1  0  0  0  0 
 41 45  1  0  0  0  0 
 42 40  1  0  0  0  0 
 40 43  1  0  0  0  0 
 45 46  2  0  0  0  0 
 43 47  2  0  0  0  0 
 37 48  1  0  0  0  0 
 38 49  1  0  0  0  0 
 50  1  1  0  0  0  0 
 51  3  1  0  0  0  0 
 52  6  1  0  0  0  0 
  9 53  1  0  0  0  0 
 11 54  1  0  0  0  0 
 12 55  1  0  0  0  0 
 13 56  1  0  0  0  0 
 57 14  1  0  0  0  0 
 58 14  1  0  0  0  0 
 59 15  1  0  0  0  0 
 60 16  1  0  0  0  0 
 61 21  1  0  0  0  0 
 62 27  1  0  0  0  0 
 63 29  1  0  0  0  0 
 64 32  1  0  0  0  0 
 65 32  1  0  0  0  0 
 33 66  1  0  0  0  0 
 67 35  1  0  0  0  0 
 37 68  1  0  0  0  0 
 38 69  1  0  0  0  0 
 39 70  1  0  0  0  0 
 71 41  1  0  0  0  0 
 72 42  1  0  0  0  0 
 73 44  1  0  0  0  0 
 74 48  1  0  0  0  0 
 75 49  1  0  0  0  0 
M  END
> <cdk:Title>
diquafosol

> <Conformer>
1

> <SuperDrugID>
SD003838

$$$$
