tafenoquine
  CDK     0628171801

 61 63  0  0  0  0  0  0  0  0999 V2000
    7.6870   -3.0029    0.2229 O   0  0  0  0  0  0  0  0  0  0  0  0
    6.9068   -2.2456   -0.6145 C   0  0  0  0  0  0  0  0  0  0  0  0
    7.1651   -3.2047    1.4827 C   0  0  0  0  0  0  0  0  0  0  0  0
    6.0504   -2.8413   -1.5858 C   0  0  0  0  0  0  0  0  0  0  0  0
    6.9880   -0.8382   -0.4954 C   0  0  0  0  0  0  0  0  0  0  0  0
    7.9017   -2.7329    2.5901 C   0  0  0  0  0  0  0  0  0  0  0  0
    5.9686   -3.9213    1.7160 C   0  0  0  0  0  0  0  0  0  0  0  0
    5.1488   -1.9830   -2.2833 C   0  0  0  0  0  0  0  0  0  0  0  0
    6.0401   -4.2281   -1.9419 C   0  0  0  0  0  0  0  0  0  0  0  0
    7.8796   -0.2921    0.3948 O   0  0  0  0  0  0  0  0  0  0  0  0
    6.1964   -0.0167   -1.3190 C   0  0  0  0  0  0  0  0  0  0  0  0
    7.4791   -2.9673    3.9224 C   0  0  0  0  0  0  0  0  0  0  0  0
    5.5319   -4.1655    3.0283 C   0  0  0  0  0  0  0  0  0  0  0  0
    5.2619   -0.5779   -2.2102 C   0  0  0  0  0  0  0  0  0  0  0  0
    4.1861   -2.5151   -3.0784 N   0  0  0  0  0  0  0  0  0  0  0  0
    7.1117   -5.1824   -1.5447 C   0  0  0  0  0  0  0  0  0  0  0  0
    5.0006   -4.7186   -2.7702 C   0  0  0  0  0  0  0  0  0  0  0  0
    7.2903    0.4421    1.4859 C   0  0  0  0  0  0  0  0  0  0  0  0
    8.2576   -2.4223    5.0689 C   0  0  2  0  0  0  0  0  0  0  0  0
    6.2824   -3.6969    4.1211 C   0  0  0  0  0  0  0  0  0  0  0  0
    4.4924    0.1760   -3.0496 N   0  0  0  0  0  0  0  0  0  0  0  0
    4.0433   -3.8389   -3.2975 C   0  0  0  0  0  0  0  0  0  0  0  0
    9.6137   -2.5087    4.8600 F   0  0  0  0  0  0  0  0  0  0  0  0
    8.0148   -3.0636    6.2611 F   0  0  0  0  0  0  0  0  0  0  0  0
    7.9228   -1.1016    5.2293 F   0  0  0  0  0  0  0  0  0  0  0  0
    4.9411    1.2734   -3.8581 C   0  0  1  0  0  0  0  0  0  0  0  0
    3.0015   -4.2871   -4.0580 O   0  0  0  0  0  0  0  0  0  0  0  0
    5.6754    0.7801   -5.1472 C   0  0  2  0  0  0  0  0  0  0  0  0
    3.6970    2.1353   -4.2002 C   0  0  0  0  0  0  0  0  0  0  0  0
    1.8006   -4.4501   -3.2810 C   0  0  0  0  0  0  0  0  0  0  0  0
    7.0656    0.1238   -4.9003 C   0  0  2  0  0  0  0  0  0  0  0  0
    7.8784   -0.0814   -6.2023 C   0  0  1  0  0  0  0  0  0  0  0  0
    9.1747   -0.7114   -5.9238 N   0  0  1  0  0  0  0  0  0  0  0  0
    8.7624   -2.2094    2.4152 H   0  0  0  0  0  0  0  0  0  0  0  0
    5.4103   -4.2761    0.9385 H   0  0  0  0  0  0  0  0  0  0  0  0
    6.2966    0.9963   -1.2524 H   0  0  0  0  0  0  0  0  0  0  0  0
    4.6666   -4.6872    3.1874 H   0  0  0  0  0  0  0  0  0  0  0  0
    7.0223   -6.1458   -2.0501 H   0  0  0  0  0  0  0  0  0  0  0  0
    7.0890   -5.3812   -0.4763 H   0  0  0  0  0  0  0  0  0  0  0  0
    8.0837   -4.7645   -1.8154 H   0  0  0  0  0  0  0  0  0  0  0  0
    4.9362   -5.7114   -3.0085 H   0  0  0  0  0  0  0  0  0  0  0  0
    8.0719    0.6238    2.2246 H   0  0  0  0  0  0  0  0  0  0  0  0
    6.9173    1.4096    1.1444 H   0  0  0  0  0  0  0  0  0  0  0  0
    6.4822   -0.1123    1.9724 H   0  0  0  0  0  0  0  0  0  0  0  0
    5.9378   -3.8912    5.0639 H   0  0  0  0  0  0  0  0  0  0  0  0
    3.5850   -0.1348   -3.2024 H   0  0  0  0  0  0  0  0  0  0  0  0
    5.6224    1.9172   -3.2947 H   0  0  0  0  0  0  0  0  0  0  0  0
    5.8282    1.6440   -5.7992 H   0  0  0  0  0  0  0  0  0  0  0  0
    5.0387    0.0682   -5.6806 H   0  0  0  0  0  0  0  0  0  0  0  0
    2.9633    1.5569   -4.7670 H   0  0  0  0  0  0  0  0  0  0  0  0
    3.9829    3.0083   -4.7900 H   0  0  0  0  0  0  0  0  0  0  0  0
    3.2249    2.4897   -3.2813 H   0  0  0  0  0  0  0  0  0  0  0  0
    1.0145   -4.8128   -3.9429 H   0  0  0  0  0  0  0  0  0  0  0  0
    1.9395   -5.1873   -2.4855 H   0  0  0  0  0  0  0  0  0  0  0  0
    1.4664   -3.5034   -2.8455 H   0  0  0  0  0  0  0  0  0  0  0  0
    6.9369   -0.8484   -4.4216 H   0  0  0  0  0  0  0  0  0  0  0  0
    7.6477    0.7571   -4.2281 H   0  0  0  0  0  0  0  0  0  0  0  0
    7.3266   -0.7201   -6.8926 H   0  0  0  0  0  0  0  0  0  0  0  0
    8.0600    0.8794   -6.6861 H   0  0  0  0  0  0  0  0  0  0  0  0
    9.6491   -0.8347   -6.8220 H   0  0  0  0  0  0  0  0  0  0  0  0
    9.7264   -0.0395   -5.3857 H   0  0  0  0  0  0  0  0  0  0  0  0
  1  2  1  0  0  0  0 
  1  3  1  0  0  0  0 
  2  4  2  0  0  0  0 
  2  5  1  0  0  0  0 
  3  6  2  0  0  0  0 
  3  7  1  0  0  0  0 
  4  8  1  0  0  0  0 
  4  9  1  0  0  0  0 
  5 10  1  0  0  0  0 
  5 11  2  0  0  0  0 
  6 12  1  0  0  0  0 
  7 13  2  0  0  0  0 
  8 14  2  0  0  0  0 
  8 15  1  0  0  0  0 
  9 16  1  0  0  0  0 
  9 17  2  0  0  0  0 
 10 18  1  0  0  0  0 
 11 14  1  0  0  0  0 
 12 19  1  0  0  0  0 
 12 20  2  0  0  0  0 
 13 20  1  0  0  0  0 
 14 21  1  0  0  0  0 
 15 22  2  0  0  0  0 
 17 22  1  0  0  0  0 
 19 23  1  0  0  0  0 
 19 24  1  0  0  0  0 
 19 25  1  0  0  0  0 
 26 21  1  0  0  0  0 
 22 27  1  0  0  0  0 
 26 28  1  0  0  0  0 
 26 29  1  0  0  0  0 
 27 30  1  0  0  0  0 
 28 31  1  0  0  0  0 
 31 32  1  0  0  0  0 
 32 33  1  0  0  0  0 
  6 34  1  0  0  0  0 
  7 35  1  0  0  0  0 
 11 36  1  0  0  0  0 
 13 37  1  0  0  0  0 
 16 38  1  0  0  0  0 
 16 39  1  0  0  0  0 
 16 40  1  0  0  0  0 
 17 41  1  0  0  0  0 
 18 42  1  0  0  0  0 
 18 43  1  0  0  0  0 
 18 44  1  0  0  0  0 
 20 45  1  0  0  0  0 
 21 46  1  0  0  0  0 
 26 47  1  0  0  0  0 
 28 48  1  0  0  0  0 
 28 49  1  0  0  0  0 
 29 50  1  0  0  0  0 
 29 51  1  0  0  0  0 
 29 52  1  0  0  0  0 
 30 53  1  0  0  0  0 
 30 54  1  0  0  0  0 
 30 55  1  0  0  0  0 
 31 56  1  0  0  0  0 
 31 57  1  0  0  0  0 
 32 58  1  0  0  0  0 
 32 59  1  0  0  0  0 
 33 60  1  0  0  0  0 
 33 61  1  0  0  0  0 
M  END
> <cdk:Title>
tafenoquine

> <Conformer>
1

> <SuperDrugID>
SD003074

$$$$
