carisbamate
  CDK     0628171801

 24 24  0  0  0  0  0  0  0  0999 V2000
   -5.1662   -4.4015    0.3002 C   0  0  1  0  0  0  0  0  0  0  0  0
   -6.1798   -3.7841   -0.6940 C   0  0  2  0  0  0  0  0  0  0  0  0
   -5.4588   -5.7887    0.4812 O   0  0  0  0  0  0  0  0  0  0  0  0
   -3.7547   -4.1677   -0.1454 C   0  0  0  0  0  0  0  0  0  0  0  0
   -6.1451   -4.4935   -1.9406 O   0  0  0  0  0  0  0  0  0  0  0  0
   -3.0361   -2.9845    0.1912 C   0  0  0  0  0  0  0  0  0  0  0  0
   -3.1057   -5.1298   -0.9605 C   0  0  0  0  0  0  0  0  0  0  0  0
   -5.7177   -4.0461   -3.1530 C   0  0  0  0  0  0  0  0  0  0  0  0
   -3.7086   -1.7226    1.1079 Cl  0  0  0  0  0  0  0  0  0  0  0  0
   -1.7079   -2.8059   -0.2508 C   0  0  0  0  0  0  0  0  0  0  0  0
   -1.7874   -4.9388   -1.4107 C   0  0  0  0  0  0  0  0  0  0  0  0
   -5.7900   -4.8836   -4.1944 N   0  0  0  0  0  0  0  0  0  0  0  0
   -5.2505   -2.8990   -3.3258 O   0  0  0  0  0  0  0  0  0  0  0  0
   -1.0846   -3.7790   -1.0482 C   0  0  0  0  0  0  0  0  0  0  0  0
   -5.3236   -3.9509    1.2831 H   0  0  0  0  0  0  0  0  0  0  0  0
   -5.9735   -2.7182   -0.8249 H   0  0  0  0  0  0  0  0  0  0  0  0
   -7.1899   -3.8770   -0.2895 H   0  0  0  0  0  0  0  0  0  0  0  0
   -6.3727   -5.8156    0.8348 H   0  0  0  0  0  0  0  0  0  0  0  0
   -3.5895   -5.9845   -1.2456 H   0  0  0  0  0  0  0  0  0  0  0  0
   -1.1840   -1.9626   -0.0007 H   0  0  0  0  0  0  0  0  0  0  0  0
   -1.3401   -5.6413   -2.0040 H   0  0  0  0  0  0  0  0  0  0  0  0
   -6.1514   -5.7748   -4.0709 H   0  0  0  0  0  0  0  0  0  0  0  0
   -5.4826   -4.6009   -5.0688 H   0  0  0  0  0  0  0  0  0  0  0  0
   -0.1228   -3.6409   -1.3682 H   0  0  0  0  0  0  0  0  0  0  0  0
  1  2  1  0  0  0  0 
  1  3  1  0  0  0  0 
  1  4  1  0  0  0  0 
  2  5  1  0  0  0  0 
  4  6  2  0  0  0  0 
  4  7  1  0  0  0  0 
  5  8  1  0  0  0  0 
  6  9  1  0  0  0  0 
  6 10  1  0  0  0  0 
  7 11  2  0  0  0  0 
  8 12  1  0  0  0  0 
  8 13  2  0  0  0  0 
 10 14  2  0  0  0  0 
 11 14  1  0  0  0  0 
  1 15  1  0  0  0  0 
 16  2  1  0  0  0  0 
 17  2  1  0  0  0  0 
 18  3  1  0  0  0  0 
 19  7  1  0  0  0  0 
 20 10  1  0  0  0  0 
 21 11  1  0  0  0  0 
 22 12  1  0  0  0  0 
 23 12  1  0  0  0  0 
 24 14  1  0  0  0  0 
M  END
> <cdk:Title>
carisbamate

> <Conformer>
1

> <SuperDrugID>
SD003544

$$$$
