cilazapril
  CDK     0628171802

 61 63  0  0  0  0  0  0  0  0999 V2000
   -5.7500    4.4421   -0.0869 C   0  0  0  0  0  0  0  0  0  0  0  0
   -6.2255    3.1729   -0.1206 O   0  0  0  0  0  0  0  0  0  0  0  0
   -5.8435    5.1447   -1.1211 O   0  0  0  0  0  0  0  0  0  0  0  0
   -5.1185    4.9593    1.1513 C   0  0  1  0  0  0  0  0  0  0  0  0
   -3.6931    5.1493    0.9244 N   0  0  0  0  0  0  0  0  0  0  0  0
   -5.8185    6.2367    1.7300 C   0  0  2  0  0  0  0  0  0  0  0  0
   -3.3030    6.3695    0.4295 N   0  0  0  0  0  0  0  0  0  0  0  0
   -2.7520    4.1682    1.1909 C   0  0  0  0  0  0  0  0  0  0  0  0
   -5.2749    7.5751    1.1597 C   0  0  1  0  0  0  0  0  0  0  0  0
   -3.7304    7.5779    1.1741 C   0  0  1  0  0  0  0  0  0  0  0  0
   -2.6050    6.4942   -0.8679 C   0  0  1  0  0  0  0  0  0  0  0  0
   -3.0557    3.2068    1.9400 O   0  0  0  0  0  0  0  0  0  0  0  0
   -1.3960    4.0776    0.5576 C   0  0  1  0  0  0  0  0  0  0  0  0
   -1.0732    6.4093   -0.6363 C   0  0  1  0  0  0  0  0  0  0  0  0
   -1.4421    3.5065   -0.8191 N   0  0  2  0  0  0  0  0  0  0  0  0
   -0.6252    5.4287    0.4926 C   0  0  2  0  0  0  0  0  0  0  0  0
   -2.1653    2.2317   -1.0668 C   0  0  1  0  0  0  0  0  0  0  0  0
   -2.3142    2.0049   -2.6006 C   0  0  1  0  0  0  0  0  0  0  0  0
   -1.4716    1.1121   -0.3940 C   0  0  0  0  0  0  0  0  0  0  0  0
   -3.1600    3.1215   -3.2808 C   0  0  2  0  0  0  0  0  0  0  0  0
   -0.1597    0.8721   -0.6901 O   0  0  0  0  0  0  0  0  0  0  0  0
   -2.0829    0.4335    0.4647 O   0  0  0  0  0  0  0  0  0  0  0  0
   -3.4601    2.8230   -4.7036 C   0  0  0  0  0  0  0  0  0  0  0  0
    0.6885   -0.1513   -0.1508 C   0  0  1  0  0  0  0  0  0  0  0  0
   -4.6937    2.2351   -5.0756 C   0  0  0  0  0  0  0  0  0  0  0  0
   -2.5116    3.1147   -5.7127 C   0  0  0  0  0  0  0  0  0  0  0  0
    1.3065   -0.9642   -1.3008 C   0  0  0  0  0  0  0  0  0  0  0  0
   -4.9668    1.9397   -6.4234 C   0  0  0  0  0  0  0  0  0  0  0  0
   -2.7878    2.8219   -7.0603 C   0  0  0  0  0  0  0  0  0  0  0  0
   -4.0149    2.2335   -7.4152 C   0  0  0  0  0  0  0  0  0  0  0  0
   -6.6464    2.8161   -0.9304 H   0  0  0  0  0  0  0  0  0  0  0  0
   -5.2769    4.1902    1.9154 H   0  0  0  0  0  0  0  0  0  0  0  0
   -5.6613    6.2538    2.8137 H   0  0  0  0  0  0  0  0  0  0  0  0
   -6.8985    6.1886    1.5642 H   0  0  0  0  0  0  0  0  0  0  0  0
   -5.6276    7.7104    0.1334 H   0  0  0  0  0  0  0  0  0  0  0  0
   -5.6474    8.4100    1.7568 H   0  0  0  0  0  0  0  0  0  0  0  0
   -3.3561    7.5297    2.2015 H   0  0  0  0  0  0  0  0  0  0  0  0
   -3.3548    8.4989    0.7199 H   0  0  0  0  0  0  0  0  0  0  0  0
   -2.9354    5.6902   -1.5264 H   0  0  0  0  0  0  0  0  0  0  0  0
   -2.8544    7.4350   -1.3673 H   0  0  0  0  0  0  0  0  0  0  0  0
   -0.7786    3.4004    1.1596 H   0  0  0  0  0  0  0  0  0  0  0  0
   -0.6030    6.1117   -1.5777 H   0  0  0  0  0  0  0  0  0  0  0  0
   -0.6988    7.4070   -0.3863 H   0  0  0  0  0  0  0  0  0  0  0  0
   -0.4752    3.3695   -1.1288 H   0  0  0  0  0  0  0  0  0  0  0  0
    0.4399    5.2194    0.3497 H   0  0  0  0  0  0  0  0  0  0  0  0
   -0.7196    5.9288    1.4608 H   0  0  0  0  0  0  0  0  0  0  0  0
   -3.1812    2.3070   -0.6720 H   0  0  0  0  0  0  0  0  0  0  0  0
   -1.3262    1.9617   -3.0721 H   0  0  0  0  0  0  0  0  0  0  0  0
   -2.8095    1.0415   -2.7676 H   0  0  0  0  0  0  0  0  0  0  0  0
   -2.6206    4.0704   -3.2255 H   0  0  0  0  0  0  0  0  0  0  0  0
   -4.0938    3.2559   -2.7256 H   0  0  0  0  0  0  0  0  0  0  0  0
    1.4862    0.3263    0.4204 H   0  0  0  0  0  0  0  0  0  0  0  0
    0.1449   -0.8235    0.5185 H   0  0  0  0  0  0  0  0  0  0  0  0
   -5.3976    2.0158   -4.3663 H   0  0  0  0  0  0  0  0  0  0  0  0
   -1.6152    3.5448   -5.4703 H   0  0  0  0  0  0  0  0  0  0  0  0
    1.9237   -1.7700   -0.8990 H   0  0  0  0  0  0  0  0  0  0  0  0
    0.5186   -1.3960   -1.9196 H   0  0  0  0  0  0  0  0  0  0  0  0
    1.9306   -0.3171   -1.9194 H   0  0  0  0  0  0  0  0  0  0  0  0
   -5.8584    1.5092   -6.6810 H   0  0  0  0  0  0  0  0  0  0  0  0
   -2.0954    3.0362   -7.7815 H   0  0  0  0  0  0  0  0  0  0  0  0
   -4.2135    2.0174   -8.3948 H   0  0  0  0  0  0  0  0  0  0  0  0
  1  2  1  0  0  0  0 
  1  3  2  0  0  0  0 
  4  1  1  0  0  0  0 
  4  5  1  0  0  0  0 
  4  6  1  0  0  0  0 
  5  7  1  0  0  0  0 
  5  8  1  0  0  0  0 
  6  9  1  0  0  0  0 
  7 10  1  0  0  0  0 
  7 11  1  0  0  0  0 
  8 12  2  0  0  0  0 
 13  8  1  0  0  0  0 
  9 10  1  0  0  0  0 
 11 14  1  0  0  0  0 
 13 15  1  0  0  0  0 
 13 16  1  0  0  0  0 
 14 16  1  0  0  0  0 
 17 15  1  0  0  0  0 
 17 18  1  0  0  0  0 
 17 19  1  0  0  0  0 
 18 20  1  0  0  0  0 
 19 21  1  0  0  0  0 
 19 22  2  0  0  0  0 
 20 23  1  0  0  0  0 
 21 24  1  0  0  0  0 
 23 25  2  0  0  0  0 
 23 26  1  0  0  0  0 
 24 27  1  0  0  0  0 
 25 28  1  0  0  0  0 
 26 29  2  0  0  0  0 
 28 30  2  0  0  0  0 
 29 30  1  0  0  0  0 
 31  2  1  0  0  0  0 
  4 32  1  0  0  0  0 
 33  6  1  0  0  0  0 
 34  6  1  0  0  0  0 
 35  9  1  0  0  0  0 
 36  9  1  0  0  0  0 
 37 10  1  0  0  0  0 
 38 10  1  0  0  0  0 
 39 11  1  0  0  0  0 
 40 11  1  0  0  0  0 
 13 41  1  0  0  0  0 
 42 14  1  0  0  0  0 
 43 14  1  0  0  0  0 
 44 15  1  0  0  0  0 
 45 16  1  0  0  0  0 
 46 16  1  0  0  0  0 
 17 47  1  0  0  0  0 
 48 18  1  0  0  0  0 
 49 18  1  0  0  0  0 
 50 20  1  0  0  0  0 
 51 20  1  0  0  0  0 
 52 24  1  0  0  0  0 
 53 24  1  0  0  0  0 
 54 25  1  0  0  0  0 
 55 26  1  0  0  0  0 
 56 27  1  0  0  0  0 
 57 27  1  0  0  0  0 
 58 27  1  0  0  0  0 
 59 28  1  0  0  0  0 
 60 29  1  0  0  0  0 
 61 30  1  0  0  0  0 
M  END
> <cdk:Title>
cilazapril

> <Conformer>
1

> <SuperDrugID>
SD000562

$$$$
