pentazocine
  CDK     0628171801

 48 50  0  0  0  0  0  0  0  0999 V2000
   -0.2005   -7.0949   -0.1755 C   0  0  0  0  0  0  0  0  0  0  0  0
   -0.5917   -5.6864   -0.7578 C   0  0  2  0  0  0  0  0  0  0  0  0
   -2.0363   -5.3050   -0.4593 C   0  0  0  0  0  0  0  0  0  0  0  0
   -0.3116   -5.6823   -2.3138 C   0  0  1  0  0  0  0  0  0  0  0  0
    0.3564   -4.6053   -0.1238 C   0  0  1  0  0  0  0  0  0  0  0  0
   -2.8019   -4.5328   -1.3872 C   0  0  0  0  0  0  0  0  0  0  0  0
   -2.6642   -5.6701    0.7609 C   0  0  0  0  0  0  0  0  0  0  0  0
   -0.9932   -6.8372   -3.1177 C   0  0  0  0  0  0  0  0  0  0  0  0
   -0.6895   -4.2673   -2.8571 C   0  0  1  0  0  0  0  0  0  0  0  0
    0.1866   -3.1937   -0.7504 C   0  0  1  0  0  0  0  0  0  0  0  0
   -2.2204   -4.0174   -2.6607 C   0  0  2  0  0  0  0  0  0  0  0  0
   -4.1645   -4.2487   -1.1203 C   0  0  0  0  0  0  0  0  0  0  0  0
   -4.0164   -5.3814    1.0219 C   0  0  0  0  0  0  0  0  0  0  0  0
    0.2171   -3.2185   -2.2501 N   0  0  2  0  0  0  0  0  0  0  0  0
   -4.7740   -4.6880    0.0656 C   0  0  0  0  0  0  0  0  0  0  0  0
   -4.5907   -5.7658    2.1901 O   0  0  0  0  0  0  0  0  0  0  0  0
    0.2082   -1.8348   -2.8490 C   0  0  1  0  0  0  0  0  0  0  0  0
    0.3830   -1.7755   -4.3026 C   0  0  0  0  0  0  0  0  0  0  0  0
    1.4129   -1.2457   -5.0034 C   0  0  0  0  0  0  0  0  0  0  0  0
    1.3970   -1.2655   -6.4707 C   0  0  0  0  0  0  0  0  0  0  0  0
    2.5603   -0.6143   -4.3518 C   0  0  0  0  0  0  0  0  0  0  0  0
   -0.4844   -4.2891   -3.9297 H   0  0  0  0  0  0  0  0  0  0  0  0
   -0.1279   -7.0739    0.9131 H   0  0  0  0  0  0  0  0  0  0  0  0
   -0.9446   -7.8479   -0.4475 H   0  0  0  0  0  0  0  0  0  0  0  0
    0.7712   -7.4250   -0.5518 H   0  0  0  0  0  0  0  0  0  0  0  0
    0.7646   -5.8130   -2.4836 H   0  0  0  0  0  0  0  0  0  0  0  0
    0.1839   -4.5326    0.9539 H   0  0  0  0  0  0  0  0  0  0  0  0
    1.3997   -4.9092   -0.2602 H   0  0  0  0  0  0  0  0  0  0  0  0
   -2.1449   -6.1618    1.4865 H   0  0  0  0  0  0  0  0  0  0  0  0
   -0.8982   -6.6665   -4.1923 H   0  0  0  0  0  0  0  0  0  0  0  0
   -2.0531   -6.9209   -2.8723 H   0  0  0  0  0  0  0  0  0  0  0  0
   -0.5129   -7.7918   -2.8953 H   0  0  0  0  0  0  0  0  0  0  0  0
   -0.7547   -2.7583   -0.4059 H   0  0  0  0  0  0  0  0  0  0  0  0
    0.9929   -2.5597   -0.3689 H   0  0  0  0  0  0  0  0  0  0  0  0
   -2.4247   -2.9495   -2.7384 H   0  0  0  0  0  0  0  0  0  0  0  0
   -2.7558   -4.5011   -3.4819 H   0  0  0  0  0  0  0  0  0  0  0  0
   -4.7277   -3.7157   -1.7903 H   0  0  0  0  0  0  0  0  0  0  0  0
   -5.7650   -4.4916    0.2356 H   0  0  0  0  0  0  0  0  0  0  0  0
   -3.8534   -6.0730    2.7619 H   0  0  0  0  0  0  0  0  0  0  0  0
   -0.7368   -1.3432   -2.6087 H   0  0  0  0  0  0  0  0  0  0  0  0
    0.9785   -1.2415   -2.3538 H   0  0  0  0  0  0  0  0  0  0  0  0
   -0.3735   -2.1572   -4.8223 H   0  0  0  0  0  0  0  0  0  0  0  0
    1.3918   -0.2412   -6.8496 H   0  0  0  0  0  0  0  0  0  0  0  0
    0.5274   -1.7776   -6.8921 H   0  0  0  0  0  0  0  0  0  0  0  0
    2.2880   -1.7723   -6.8478 H   0  0  0  0  0  0  0  0  0  0  0  0
    3.0385   -1.3144   -3.6629 H   0  0  0  0  0  0  0  0  0  0  0  0
    2.2293    0.2673   -3.7976 H   0  0  0  0  0  0  0  0  0  0  0  0
    3.3205   -0.2858   -5.0650 H   0  0  0  0  0  0  0  0  0  0  0  0
  2  1  1  0  0  0  0 
  2  3  1  0  0  0  0 
  4  2  1  0  0  0  0 
  2  5  1  0  0  0  0 
  3  6  2  0  0  0  0 
  3  7  1  0  0  0  0 
  5 10  1  0  0  0  0 
  6 11  1  0  0  0  0 
  6 12  1  0  0  0  0 
  7 13  2  0  0  0  0 
  9  4  1  0  0  0  0 
  9 11  1  0  0  0  0 
  9 14  1  0  0  0  0 
  9 22  1  0  0  0  0 
 10 14  1  0  0  0  0 
 12 15  2  0  0  0  0 
 13 15  1  0  0  0  0 
 13 16  1  0  0  0  0 
 14 17  1  0  0  0  0 
 17 18  1  0  0  0  0 
 18 19  2  0  0  0  0 
 19 20  1  0  0  0  0 
 19 21  1  0  0  0  0 
  4  8  1  0  0  0  0 
  1 23  1  0  0  0  0 
  1 24  1  0  0  0  0 
  1 25  1  0  0  0  0 
  4 26  1  0  0  0  0 
  5 27  1  0  0  0  0 
  5 28  1  0  0  0  0 
  7 29  1  0  0  0  0 
  8 30  1  0  0  0  0 
  8 31  1  0  0  0  0 
  8 32  1  0  0  0  0 
 10 33  1  0  0  0  0 
 10 34  1  0  0  0  0 
 11 35  1  0  0  0  0 
 11 36  1  0  0  0  0 
 12 37  1  0  0  0  0 
 15 38  1  0  0  0  0 
 16 39  1  0  0  0  0 
 17 40  1  0  0  0  0 
 17 41  1  0  0  0  0 
 18 42  1  0  0  0  0 
 20 43  1  0  0  0  0 
 20 44  1  0  0  0  0 
 20 45  1  0  0  0  0 
 21 46  1  0  0  0  0 
 21 47  1  0  0  0  0 
 21 48  1  0  0  0  0 
M  END
> <cdk:Title>
pentazocine

> <Conformer>
1

> <SuperDrugID>
SD002949

$$$$
