phentolamine
  CDK     0628171801

 40 42  0  0  0  0  0  0  0  0999 V2000
   -1.2584    2.7116    1.8570 N   0  0  0  0  0  0  0  0  0  0  0  0
   -1.2335    1.2964    1.4962 C   0  0  2  0  0  0  0  0  0  0  0  0
   -0.1512    3.4578    1.4971 C   0  0  0  0  0  0  0  0  0  0  0  0
   -2.3324    3.3083    2.5475 C   0  0  0  0  0  0  0  0  0  0  0  0
   -0.9267    0.4523    2.6316 C   0  0  0  0  0  0  0  0  0  0  0  0
    0.6476    4.0828    2.4836 C   0  0  0  0  0  0  0  0  0  0  0  0
    0.2034    3.6161    0.1371 C   0  0  0  0  0  0  0  0  0  0  0  0
   -2.5043    4.7213    2.6008 C   0  0  0  0  0  0  0  0  0  0  0  0
   -3.3146    2.5442    3.2340 C   0  0  0  0  0  0  0  0  0  0  0  0
    0.1048    0.5827    3.3752 N   0  0  0  0  0  0  0  0  0  0  0  0
   -1.6858   -0.5295    3.0500 N   0  0  0  0  0  0  0  0  0  0  0  0
    1.7622    4.8637    2.1188 C   0  0  0  0  0  0  0  0  0  0  0  0
    1.3315    4.3690   -0.2293 C   0  0  0  0  0  0  0  0  0  0  0  0
   -3.5501    5.3250    3.3234 C   0  0  0  0  0  0  0  0  0  0  0  0
   -4.3718    3.1382    3.9443 C   0  0  0  0  0  0  0  0  0  0  0  0
    0.1223   -0.3227    4.4201 C   0  0  2  0  0  0  0  0  0  0  0  0
   -1.1795   -1.1298    4.2192 C   0  0  1  0  0  0  0  0  0  0  0  0
    2.5237    5.4765    3.0604 O   0  0  0  0  0  0  0  0  0  0  0  0
    2.0998    5.0062    0.7599 C   0  0  0  0  0  0  0  0  0  0  0  0
   -4.4930    4.5391    4.0147 C   0  0  0  0  0  0  0  0  0  0  0  0
   -5.5698    5.1814    4.8026 C   0  0  0  0  0  0  0  0  0  0  0  0
   -0.4790    1.0659    0.7371 H   0  0  0  0  0  0  0  0  0  0  0  0
   -2.1953    1.0175    1.0526 H   0  0  0  0  0  0  0  0  0  0  0  0
    0.4097    3.9751    3.4724 H   0  0  0  0  0  0  0  0  0  0  0  0
   -0.3642    3.1840   -0.5935 H   0  0  0  0  0  0  0  0  0  0  0  0
   -1.8590    5.3453    2.1128 H   0  0  0  0  0  0  0  0  0  0  0  0
   -3.2858    1.5285    3.2407 H   0  0  0  0  0  0  0  0  0  0  0  0
   -2.5092   -0.7973    2.6087 H   0  0  0  0  0  0  0  0  0  0  0  0
    1.5906    4.4540   -1.2143 H   0  0  0  0  0  0  0  0  0  0  0  0
   -3.6204    6.3451    3.3420 H   0  0  0  0  0  0  0  0  0  0  0  0
   -5.0515    2.5391    4.4175 H   0  0  0  0  0  0  0  0  0  0  0  0
    0.1207    0.2112    5.3731 H   0  0  0  0  0  0  0  0  0  0  0  0
    1.0064   -0.9615    4.3575 H   0  0  0  0  0  0  0  0  0  0  0  0
   -1.8824   -0.9960    5.0471 H   0  0  0  0  0  0  0  0  0  0  0  0
   -0.9862   -2.1938    4.0538 H   0  0  0  0  0  0  0  0  0  0  0  0
    2.2002    5.1465    3.9255 H   0  0  0  0  0  0  0  0  0  0  0  0
    2.9063    5.5733    0.4875 H   0  0  0  0  0  0  0  0  0  0  0  0
   -6.1015    5.9158    4.1954 H   0  0  0  0  0  0  0  0  0  0  0  0
   -5.1325    5.6859    5.6654 H   0  0  0  0  0  0  0  0  0  0  0  0
   -6.2992    4.4551    5.1658 H   0  0  0  0  0  0  0  0  0  0  0  0
  1  2  1  0  0  0  0 
  1  3  1  0  0  0  0 
  1  4  1  0  0  0  0 
  2  5  1  0  0  0  0 
  3  6  2  0  0  0  0 
  3  7  1  0  0  0  0 
  4  8  2  0  0  0  0 
  4  9  1  0  0  0  0 
  5 10  2  0  0  0  0 
  5 11  1  0  0  0  0 
  6 12  1  0  0  0  0 
  7 13  2  0  0  0  0 
  8 14  1  0  0  0  0 
  9 15  2  0  0  0  0 
 10 16  1  0  0  0  0 
 11 17  1  0  0  0  0 
 12 18  1  0  0  0  0 
 12 19  2  0  0  0  0 
 13 19  1  0  0  0  0 
 14 20  2  0  0  0  0 
 15 20  1  0  0  0  0 
 16 17  1  0  0  0  0 
 20 21  1  0  0  0  0 
 22  2  1  0  0  0  0 
 23  2  1  0  0  0  0 
 24  6  1  0  0  0  0 
 25  7  1  0  0  0  0 
 26  8  1  0  0  0  0 
 27  9  1  0  0  0  0 
 28 11  1  0  0  0  0 
 29 13  1  0  0  0  0 
 30 14  1  0  0  0  0 
 31 15  1  0  0  0  0 
 32 16  1  0  0  0  0 
 33 16  1  0  0  0  0 
 34 17  1  0  0  0  0 
 35 17  1  0  0  0  0 
 36 18  1  0  0  0  0 
 37 19  1  0  0  0  0 
 38 21  1  0  0  0  0 
 39 21  1  0  0  0  0 
 40 21  1  0  0  0  0 
M  END
> <cdk:Title>
phentolamine

> <Conformer>
1

> <SuperDrugID>
SD001922

$$$$
