enflurane
  CDK     0628171801

 12 11  0  0  0  0  0  0  0  0999 V2000
   -1.0600    0.5138   -0.1071 C   0  0  2  0  0  0  0  0  0  0  0  0
   -2.1362    1.4162   -0.4536 O   0  0  0  0  0  0  0  0  0  0  0  0
   -1.6354   -0.9111    0.0851 C   0  0  1  0  0  0  0  0  0  0  0  0
   -0.4350    0.8981    1.0601 F   0  0  0  0  0  0  0  0  0  0  0  0
   -0.1039    0.4630   -1.1009 F   0  0  0  0  0  0  0  0  0  0  0  0
   -1.7868    2.7847   -0.7383 C   0  0  1  0  0  0  0  0  0  0  0  0
   -2.8709   -0.9777    1.3405 Cl  0  0  0  0  0  0  0  0  0  0  0  0
   -2.2014   -1.3694   -1.0808 F   0  0  0  0  0  0  0  0  0  0  0  0
   -2.9266    3.4218   -1.1549 F   0  0  0  0  0  0  0  0  0  0  0  0
   -1.3235    3.4484    0.3716 F   0  0  0  0  0  0  0  0  0  0  0  0
   -0.8346   -1.5983    0.3664 H   0  0  0  0  0  0  0  0  0  0  0  0
   -1.0490    2.8528   -1.5406 H   0  0  0  0  0  0  0  0  0  0  0  0
  1  2  1  0  0  0  0 
  1  3  1  0  0  0  0 
  1  4  1  0  0  0  0 
  1  5  1  0  0  0  0 
  2  6  1  0  0  0  0 
  3  7  1  0  0  0  0 
  3  8  1  0  0  0  0 
  6  9  1  0  0  0  0 
  6 10  1  0  0  0  0 
  3 11  1  0  0  0  0 
  6 12  1  0  0  0  0 
M  END
> <cdk:Title>
enflurane

> <Conformer>
1

> <SuperDrugID>
SD000897

$$$$
