lidamidine
  CDK     0628171801

 32 32  0  0  0  0  0  0  0  0999 V2000
   -1.5431    1.3308   -0.0802 N   0  0  0  0  0  0  0  0  0  0  0  0
   -0.3461    1.0105    0.4792 C   0  0  0  0  0  0  0  0  0  0  0  0
   -2.2240    2.5088    0.0762 C   0  0  0  0  0  0  0  0  0  0  0  0
    0.1361   -0.2347    0.2085 N   0  0  0  0  0  0  0  0  0  0  0  0
    0.2567    1.8145    1.2324 O   0  0  0  0  0  0  0  0  0  0  0  0
   -1.6455    3.7803   -0.2256 C   0  0  0  0  0  0  0  0  0  0  0  0
   -3.5619    2.4261    0.5603 C   0  0  0  0  0  0  0  0  0  0  0  0
    1.2860   -0.7734    0.6105 C   0  0  0  0  0  0  0  0  0  0  0  0
   -0.3180    3.9560   -0.8808 C   0  0  0  0  0  0  0  0  0  0  0  0
   -2.3803    4.9503    0.0754 C   0  0  0  0  0  0  0  0  0  0  0  0
   -4.2200    1.1154    0.8193 C   0  0  0  0  0  0  0  0  0  0  0  0
   -4.2748    3.6212    0.8100 C   0  0  0  0  0  0  0  0  0  0  0  0
    2.2689   -0.0507    1.0235 N   0  0  0  0  0  0  0  0  0  0  0  0
    1.3691   -2.0895    0.5412 N   0  0  0  0  0  0  0  0  0  0  0  0
   -3.6786    4.8735    0.6007 C   0  0  0  0  0  0  0  0  0  0  0  0
    3.5236   -0.4415    1.4715 C   0  0  0  0  0  0  0  0  0  0  0  0
   -1.9861    0.6304   -0.5870 H   0  0  0  0  0  0  0  0  0  0  0  0
   -0.4324   -0.8059   -0.3310 H   0  0  0  0  0  0  0  0  0  0  0  0
    0.0680    3.0265   -1.2973 H   0  0  0  0  0  0  0  0  0  0  0  0
    0.4062    4.3461   -0.1620 H   0  0  0  0  0  0  0  0  0  0  0  0
   -0.4007    4.6621   -1.7102 H   0  0  0  0  0  0  0  0  0  0  0  0
   -1.9785    5.8754   -0.0987 H   0  0  0  0  0  0  0  0  0  0  0  0
   -3.6300    0.5415    1.5362 H   0  0  0  0  0  0  0  0  0  0  0  0
   -5.2273    1.2238    1.2260 H   0  0  0  0  0  0  0  0  0  0  0  0
   -4.2913    0.5515   -0.1130 H   0  0  0  0  0  0  0  0  0  0  0  0
   -5.2377    3.5927    1.1546 H   0  0  0  0  0  0  0  0  0  0  0  0
    0.6106   -2.6085    0.2311 H   0  0  0  0  0  0  0  0  0  0  0  0
    2.1851   -2.5434    0.8035 H   0  0  0  0  0  0  0  0  0  0  0  0
   -4.1974    5.7287    0.8198 H   0  0  0  0  0  0  0  0  0  0  0  0
    4.1119    0.4497    1.6932 H   0  0  0  0  0  0  0  0  0  0  0  0
    4.0406   -1.0216    0.7047 H   0  0  0  0  0  0  0  0  0  0  0  0
    3.4316   -1.0352    2.3823 H   0  0  0  0  0  0  0  0  0  0  0  0
  1  2  1  0  0  0  0 
  1  3  1  0  0  0  0 
  2  4  1  0  0  0  0 
  2  5  2  0  0  0  0 
  3  6  2  0  0  0  0 
  3  7  1  0  0  0  0 
  4  8  1  0  0  0  0 
  6  9  1  0  0  0  0 
  6 10  1  0  0  0  0 
  7 11  1  0  0  0  0 
  7 12  2  0  0  0  0 
  8 13  2  0  0  0  0 
  8 14  1  0  0  0  0 
 10 15  2  0  0  0  0 
 12 15  1  0  0  0  0 
 13 16  1  0  0  0  0 
 17  1  1  0  0  0  0 
 18  4  1  0  0  0  0 
 19  9  1  0  0  0  0 
 20  9  1  0  0  0  0 
 21  9  1  0  0  0  0 
 22 10  1  0  0  0  0 
 23 11  1  0  0  0  0 
 24 11  1  0  0  0  0 
 25 11  1  0  0  0  0 
 26 12  1  0  0  0  0 
 27 14  1  0  0  0  0 
 28 14  1  0  0  0  0 
 29 15  1  0  0  0  0 
 30 16  1  0  0  0  0 
 31 16  1  0  0  0  0 
 32 16  1  0  0  0  0 
M  END
> <cdk:Title>
lidamidine

> <Conformer>
1

> <SuperDrugID>
SD001393

$$$$
