disofenin
  CDK     0628171801

 51 51  0  0  0  0  0  0  0  0999 V2000
    3.2584   -1.1066    0.0522 N   0  0  0  0  0  0  0  0  0  0  0  0
    2.9421   -2.3389    0.5527 C   0  0  0  0  0  0  0  0  0  0  0  0
    2.4858   -0.3766   -0.8124 C   0  0  0  0  0  0  0  0  0  0  0  0
    3.9461   -3.1877    1.2333 C   0  0  2  0  0  0  0  0  0  0  0  0
    1.7988   -2.8277    0.3842 O   0  0  0  0  0  0  0  0  0  0  0  0
    2.2981   -0.8370   -2.1588 C   0  0  0  0  0  0  0  0  0  0  0  0
    1.9197    0.8671   -0.3850 C   0  0  0  0  0  0  0  0  0  0  0  0
    5.2805   -2.5219    1.4250 N   0  0  2  0  0  0  0  0  0  0  0  0
    2.9354   -2.0814   -2.7281 C   0  0  1  0  0  0  0  0  0  0  0  0
    1.4775   -0.0741   -3.0248 C   0  0  0  0  0  0  0  0  0  0  0  0
    2.1010    1.4740    0.9866 C   0  0  2  0  0  0  0  0  0  0  0  0
    1.1175    1.5860   -1.3072 C   0  0  0  0  0  0  0  0  0  0  0  0
    6.4531   -3.3471    0.9752 C   0  0  2  0  0  0  0  0  0  0  0  0
    5.4330   -1.8691    2.7646 C   0  0  2  0  0  0  0  0  0  0  0  0
    1.8653   -3.1473   -3.0982 C   0  0  0  0  0  0  0  0  0  0  0  0
    3.8810   -1.7828   -3.9269 C   0  0  0  0  0  0  0  0  0  0  0  0
    0.8886    1.1196   -2.6055 C   0  0  0  0  0  0  0  0  0  0  0  0
    3.5838    1.6449    1.4189 C   0  0  0  0  0  0  0  0  0  0  0  0
    1.2558    0.7435    2.0635 C   0  0  0  0  0  0  0  0  0  0  0  0
    6.6118   -3.2554   -0.4878 C   0  0  0  0  0  0  0  0  0  0  0  0
    6.4990   -0.8494    2.7782 C   0  0  0  0  0  0  0  0  0  0  0  0
    6.5309   -4.3551   -1.2738 O   0  0  0  0  0  0  0  0  0  0  0  0
    6.8355   -2.1470   -1.0263 O   0  0  0  0  0  0  0  0  0  0  0  0
    7.5129   -0.9279    3.6697 O   0  0  0  0  0  0  0  0  0  0  0  0
    6.4938    0.0934    1.9550 O   0  0  0  0  0  0  0  0  0  0  0  0
    4.1173   -0.7313    0.3040 H   0  0  0  0  0  0  0  0  0  0  0  0
    4.0490   -4.0797    0.6093 H   0  0  0  0  0  0  0  0  0  0  0  0
    3.5455   -3.5340    2.1913 H   0  0  0  0  0  0  0  0  0  0  0  0
    3.5845   -2.5527   -1.9906 H   0  0  0  0  0  0  0  0  0  0  0  0
    1.2963   -0.3806   -3.9827 H   0  0  0  0  0  0  0  0  0  0  0  0
    1.7143    2.4982    0.9758 H   0  0  0  0  0  0  0  0  0  0  0  0
    0.6762    2.4697   -1.0428 H   0  0  0  0  0  0  0  0  0  0  0  0
    6.3307   -4.3919    1.2807 H   0  0  0  0  0  0  0  0  0  0  0  0
    7.3911   -2.9961    1.4139 H   0  0  0  0  0  0  0  0  0  0  0  0
    5.6330   -2.6332    3.5219 H   0  0  0  0  0  0  0  0  0  0  0  0
    4.5060   -1.3624    3.0487 H   0  0  0  0  0  0  0  0  0  0  0  0
    2.3439   -4.0690   -3.4345 H   0  0  0  0  0  0  0  0  0  0  0  0
    1.2083   -2.7952   -3.8958 H   0  0  0  0  0  0  0  0  0  0  0  0
    1.2487   -3.3804   -2.2285 H   0  0  0  0  0  0  0  0  0  0  0  0
    4.4066   -2.6917   -4.2280 H   0  0  0  0  0  0  0  0  0  0  0  0
    3.3303   -1.4115   -4.7923 H   0  0  0  0  0  0  0  0  0  0  0  0
    4.6276   -1.0378   -3.6445 H   0  0  0  0  0  0  0  0  0  0  0  0
    0.2960    1.6499   -3.2469 H   0  0  0  0  0  0  0  0  0  0  0  0
    3.6719    2.4183    2.1866 H   0  0  0  0  0  0  0  0  0  0  0  0
    3.9718    0.7187    1.8346 H   0  0  0  0  0  0  0  0  0  0  0  0
    4.2088    1.9367    0.5723 H   0  0  0  0  0  0  0  0  0  0  0  0
    1.3138    1.2802    3.0152 H   0  0  0  0  0  0  0  0  0  0  0  0
    1.6160   -0.2745    2.2175 H   0  0  0  0  0  0  0  0  0  0  0  0
    0.2053    0.7028    1.7590 H   0  0  0  0  0  0  0  0  0  0  0  0
    6.6515   -4.2745   -2.2443 H   0  0  0  0  0  0  0  0  0  0  0  0
    8.2196   -0.2491    3.6700 H   0  0  0  0  0  0  0  0  0  0  0  0
  1  2  1  0  0  0  0 
  1  3  1  0  0  0  0 
  2  4  1  0  0  0  0 
  2  5  2  0  0  0  0 
  3  6  2  0  0  0  0 
  3  7  1  0  0  0  0 
  4  8  1  0  0  0  0 
  6  9  1  0  0  0  0 
  6 10  1  0  0  0  0 
  7 11  1  0  0  0  0 
  7 12  2  0  0  0  0 
  8 13  1  0  0  0  0 
  8 14  1  0  0  0  0 
  9 15  1  0  0  0  0 
  9 16  1  0  0  0  0 
 10 17  2  0  0  0  0 
 11 18  1  0  0  0  0 
 11 19  1  0  0  0  0 
 12 17  1  0  0  0  0 
 13 20  1  0  0  0  0 
 14 21  1  0  0  0  0 
 20 22  1  0  0  0  0 
 20 23  2  0  0  0  0 
 21 24  1  0  0  0  0 
 21 25  2  0  0  0  0 
  1 26  1  0  0  0  0 
  4 27  1  0  0  0  0 
  4 28  1  0  0  0  0 
  9 29  1  0  0  0  0 
 10 30  1  0  0  0  0 
 11 31  1  0  0  0  0 
 12 32  1  0  0  0  0 
 13 33  1  0  0  0  0 
 13 34  1  0  0  0  0 
 14 35  1  0  0  0  0 
 14 36  1  0  0  0  0 
 15 37  1  0  0  0  0 
 15 38  1  0  0  0  0 
 15 39  1  0  0  0  0 
 16 40  1  0  0  0  0 
 16 41  1  0  0  0  0 
 16 42  1  0  0  0  0 
 17 43  1  0  0  0  0 
 18 44  1  0  0  0  0 
 18 45  1  0  0  0  0 
 18 46  1  0  0  0  0 
 19 47  1  0  0  0  0 
 19 48  1  0  0  0  0 
 19 49  1  0  0  0  0 
 22 50  1  0  0  0  0 
 24 51  1  0  0  0  0 
M  END
> <cdk:Title>
disofenin

> <Conformer>
1

> <SuperDrugID>
SD002737

$$$$
