sulfadimethoxine
  CDK     0628171801

 35 36  0  0  0  0  0  0  0  0999 V2000
    0.8799    0.6589   -0.9396 N   0  0  0  0  0  0  0  0  0  0  0  0
   -0.1499   -0.5116   -0.2196 S   0  0  1  0  0  0  0  0  0  0  0  0
    1.8045    1.3765   -0.2591 C   0  0  0  0  0  0  0  0  0  0  0  0
   -0.8820    0.1539    1.0442 O   0  0  0  0  0  0  0  0  0  0  0  0
   -1.2697   -0.9196   -1.2953 O   0  0  0  0  0  0  0  0  0  0  0  0
    0.7731   -1.9495    0.2500 C   0  0  0  0  0  0  0  0  0  0  0  0
    2.3238    2.5477   -0.8428 C   0  0  0  0  0  0  0  0  0  0  0  0
    2.2435    1.0033    0.9734 N   0  0  0  0  0  0  0  0  0  0  0  0
    1.6975   -2.5099   -0.6559 C   0  0  0  0  0  0  0  0  0  0  0  0
    0.5837   -2.5544    1.5110 C   0  0  0  0  0  0  0  0  0  0  0  0
    3.2394    3.3159   -0.0986 C   0  0  0  0  0  0  0  0  0  0  0  0
    3.1583    1.7328    1.6637 C   0  0  0  0  0  0  0  0  0  0  0  0
    2.4086   -3.6752   -0.3148 C   0  0  0  0  0  0  0  0  0  0  0  0
    1.2936   -3.7208    1.8521 C   0  0  0  0  0  0  0  0  0  0  0  0
    3.7399    4.4855   -0.5941 O   0  0  0  0  0  0  0  0  0  0  0  0
    3.6414    2.8804    1.1233 N   0  0  0  0  0  0  0  0  0  0  0  0
    3.6100    1.3094    2.8787 O   0  0  0  0  0  0  0  0  0  0  0  0
    2.2075   -4.2839    0.9395 C   0  0  0  0  0  0  0  0  0  0  0  0
    2.9554    5.6223   -0.1927 C   0  0  0  0  0  0  0  0  0  0  0  0
    2.6962    1.6206    3.9423 C   0  0  0  0  0  0  0  0  0  0  0  0
    2.8956   -5.3929    1.2663 N   0  0  0  0  0  0  0  0  0  0  0  0
    0.7760    0.8366   -1.8877 H   0  0  0  0  0  0  0  0  0  0  0  0
    2.0311    2.8497   -1.7744 H   0  0  0  0  0  0  0  0  0  0  0  0
    1.8567   -2.0766   -1.5688 H   0  0  0  0  0  0  0  0  0  0  0  0
   -0.0711   -2.1567    2.1877 H   0  0  0  0  0  0  0  0  0  0  0  0
    3.0706   -4.0757   -0.9840 H   0  0  0  0  0  0  0  0  0  0  0  0
    1.1402   -4.1556    2.7655 H   0  0  0  0  0  0  0  0  0  0  0  0
    3.4350    6.5164   -0.5877 H   0  0  0  0  0  0  0  0  0  0  0  0
    1.9421    5.5732   -0.6001 H   0  0  0  0  0  0  0  0  0  0  0  0
    2.9061    5.7176    0.8954 H   0  0  0  0  0  0  0  0  0  0  0  0
    3.1224    1.2534    4.8769 H   0  0  0  0  0  0  0  0  0  0  0  0
    2.5517    2.7003    4.0346 H   0  0  0  0  0  0  0  0  0  0  0  0
    1.7296    1.1304    3.7951 H   0  0  0  0  0  0  0  0  0  0  0  0
    3.5277   -5.7730    0.6359 H   0  0  0  0  0  0  0  0  0  0  0  0
    2.7600   -5.8129    2.1303 H   0  0  0  0  0  0  0  0  0  0  0  0
  1  2  1  0  0  0  0 
  1  3  1  0  0  0  0 
  2  4  2  0  0  0  0 
  2  5  2  0  0  0  0 
  2  6  1  0  0  0  0 
  3  7  2  0  0  0  0 
  3  8  1  0  0  0  0 
  6  9  2  0  0  0  0 
  6 10  1  0  0  0  0 
  7 11  1  0  0  0  0 
  8 12  2  0  0  0  0 
  9 13  1  0  0  0  0 
 10 14  2  0  0  0  0 
 11 15  1  0  0  0  0 
 11 16  2  0  0  0  0 
 12 16  1  0  0  0  0 
 12 17  1  0  0  0  0 
 13 18  2  0  0  0  0 
 14 18  1  0  0  0  0 
 15 19  1  0  0  0  0 
 17 20  1  0  0  0  0 
 18 21  1  0  0  0  0 
  1 22  1  0  0  0  0 
  7 23  1  0  0  0  0 
  9 24  1  0  0  0  0 
 10 25  1  0  0  0  0 
 13 26  1  0  0  0  0 
 14 27  1  0  0  0  0 
 19 28  1  0  0  0  0 
 19 29  1  0  0  0  0 
 19 30  1  0  0  0  0 
 20 31  1  0  0  0  0 
 20 32  1  0  0  0  0 
 20 33  1  0  0  0  0 
 21 34  1  0  0  0  0 
 21 35  1  0  0  0  0 
M  END
> <cdk:Title>
sulfadimethoxine

> <Conformer>
1

> <SuperDrugID>
SD002248

$$$$
