haletazole
  CDK     0628171801

 45 47  0  0  0  0  0  0  0  0999 V2000
    7.3653    5.4208    8.3502 O   0  0  0  0  0  0  0  0  0  0  0  0
    8.2624    6.5511    8.3811 C   0  0  1  0  0  0  0  0  0  0  0  0
    7.5427    4.5951    7.2726 C   0  0  0  0  0  0  0  0  0  0  0  0
    7.6754    7.6433    9.3071 C   0  0  1  0  0  0  0  0  0  0  0  0
    6.6248    4.6649    6.2089 C   0  0  0  0  0  0  0  0  0  0  0  0
    8.5972    3.6634    7.2078 C   0  0  0  0  0  0  0  0  0  0  0  0
    6.3135    8.1153    8.8903 N   0  0  0  0  0  0  0  0  0  0  0  0
    6.7733    3.8372    5.0829 C   0  0  0  0  0  0  0  0  0  0  0  0
    8.7363    2.8223    6.0850 C   0  0  0  0  0  0  0  0  0  0  0  0
    6.1437    8.7046    7.5200 C   0  0  2  0  0  0  0  0  0  0  0  0
    5.4440    8.6685    9.9765 C   0  0  2  0  0  0  0  0  0  0  0  0
    7.8335    2.9022    4.9968 C   0  0  0  0  0  0  0  0  0  0  0  0
    7.1039    9.8588    7.1388 C   0  0  0  0  0  0  0  0  0  0  0  0
    5.8113   10.0949   10.4425 C   0  0  0  0  0  0  0  0  0  0  0  0
    7.9991    2.0841    3.8475 C   0  0  0  0  0  0  0  0  0  0  0  0
    9.0698    1.2946    3.5717 N   0  0  0  0  0  0  0  0  0  0  0  0
    6.8975    1.9156    2.4821 S   0  0  0  0  0  0  0  0  0  0  0  0
    9.0598    0.6296    2.3842 C   0  0  0  0  0  0  0  0  0  0  0  0
    7.9262    0.8261    1.5808 C   0  0  0  0  0  0  0  0  0  0  0  0
   10.0885   -0.2072    1.9094 C   0  0  0  0  0  0  0  0  0  0  0  0
    7.7704    0.2277    0.3223 C   0  0  0  0  0  0  0  0  0  0  0  0
    9.9647   -0.8203    0.6409 C   0  0  0  0  0  0  0  0  0  0  0  0
    8.8085   -0.6034   -0.1452 C   0  0  0  0  0  0  0  0  0  0  0  0
   11.2082   -1.8093    0.0554 Cl  0  0  0  0  0  0  0  0  0  0  0  0
    9.2283    6.2307    8.7801 H   0  0  0  0  0  0  0  0  0  0  0  0
    8.4315    6.9791    7.3871 H   0  0  0  0  0  0  0  0  0  0  0  0
    7.6303    7.2118   10.3117 H   0  0  0  0  0  0  0  0  0  0  0  0
    8.3650    8.4898    9.3553 H   0  0  0  0  0  0  0  0  0  0  0  0
    5.8459    5.3247    6.2499 H   0  0  0  0  0  0  0  0  0  0  0  0
    9.2669    3.6002    7.9773 H   0  0  0  0  0  0  0  0  0  0  0  0
    6.0978    3.9354    4.3230 H   0  0  0  0  0  0  0  0  0  0  0  0
    9.5103    2.1532    6.0753 H   0  0  0  0  0  0  0  0  0  0  0  0
    5.1185    9.0607    7.3896 H   0  0  0  0  0  0  0  0  0  0  0  0
    6.2740    7.9051    6.7888 H   0  0  0  0  0  0  0  0  0  0  0  0
    5.4793    7.9995   10.8400 H   0  0  0  0  0  0  0  0  0  0  0  0
    4.4044    8.6678    9.6404 H   0  0  0  0  0  0  0  0  0  0  0  0
    6.8818   10.1969    6.1253 H   0  0  0  0  0  0  0  0  0  0  0  0
    8.1415    9.5292    7.1687 H   0  0  0  0  0  0  0  0  0  0  0  0
    6.9886   10.7048    7.8119 H   0  0  0  0  0  0  0  0  0  0  0  0
    5.2457   10.3496   11.3401 H   0  0  0  0  0  0  0  0  0  0  0  0
    5.5649   10.8216    9.6688 H   0  0  0  0  0  0  0  0  0  0  0  0
    6.8747   10.1600   10.6726 H   0  0  0  0  0  0  0  0  0  0  0  0
   10.9222   -0.3607    2.4825 H   0  0  0  0  0  0  0  0  0  0  0  0
    6.9342    0.3959   -0.2403 H   0  0  0  0  0  0  0  0  0  0  0  0
    8.7193   -1.0444   -1.0625 H   0  0  0  0  0  0  0  0  0  0  0  0
  1  2  1  0  0  0  0 
  1  3  1  0  0  0  0 
  2  4  1  0  0  0  0 
  3  5  2  0  0  0  0 
  3  6  1  0  0  0  0 
  4  7  1  0  0  0  0 
  5  8  1  0  0  0  0 
  6  9  2  0  0  0  0 
  7 10  1  0  0  0  0 
  7 11  1  0  0  0  0 
  8 12  2  0  0  0  0 
  9 12  1  0  0  0  0 
 10 13  1  0  0  0  0 
 11 14  1  0  0  0  0 
 12 15  1  0  0  0  0 
 15 16  2  0  0  0  0 
 15 17  1  0  0  0  0 
 16 18  1  0  0  0  0 
 17 19  1  0  0  0  0 
 18 19  1  0  0  0  0 
 18 20  2  0  0  0  0 
 19 21  2  0  0  0  0 
 20 22  1  0  0  0  0 
 21 23  1  0  0  0  0 
 22 23  2  0  0  0  0 
 22 24  1  0  0  0  0 
  2 25  1  0  0  0  0 
  2 26  1  0  0  0  0 
  4 27  1  0  0  0  0 
  4 28  1  0  0  0  0 
  5 29  1  0  0  0  0 
  6 30  1  0  0  0  0 
  8 31  1  0  0  0  0 
  9 32  1  0  0  0  0 
 10 33  1  0  0  0  0 
 10 34  1  0  0  0  0 
 11 35  1  0  0  0  0 
 11 36  1  0  0  0  0 
 13 37  1  0  0  0  0 
 13 38  1  0  0  0  0 
 13 39  1  0  0  0  0 
 14 40  1  0  0  0  0 
 14 41  1  0  0  0  0 
 14 42  1  0  0  0  0 
 20 43  1  0  0  0  0 
 21 44  1  0  0  0  0 
 23 45  1  0  0  0  0 
M  END
> <cdk:Title>
haletazole

> <Conformer>
1

> <SuperDrugID>
SD002978

$$$$
