iotalamic acid
  CDK     0628171801

 29 29  0  0  0  0  0  0  0  0999 V2000
   -0.2826   -0.5725    1.6039 C   0  0  0  0  0  0  0  0  0  0  0  0
   -0.0534   -0.4073    0.2723 N   0  0  0  0  0  0  0  0  0  0  0  0
   -0.1841    0.3678    2.4280 O   0  0  0  0  0  0  0  0  0  0  0  0
   -0.6253   -1.8550    2.0767 C   0  0  0  0  0  0  0  0  0  0  0  0
    0.3289    0.8035   -0.3747 C   0  0  0  0  0  0  0  0  0  0  0  0
   -1.8932   -2.4183    1.7840 C   0  0  0  0  0  0  0  0  0  0  0  0
    0.3109   -2.5910    2.8427 C   0  0  0  0  0  0  0  0  0  0  0  0
   -3.2929   -1.2914    0.7598 I   0  0  0  0  0  0  0  0  0  0  0  0
   -2.2069   -3.7322    2.2159 C   0  0  0  0  0  0  0  0  0  0  0  0
    2.2062   -1.8369    3.1720 I   0  0  0  0  0  0  0  0  0  0  0  0
   -0.0237   -3.8759    3.3285 C   0  0  0  0  0  0  0  0  0  0  0  0
   -3.4501   -4.3170    1.8958 C   0  0  0  0  0  0  0  0  0  0  0  0
   -1.2579   -4.4625    2.9741 C   0  0  0  0  0  0  0  0  0  0  0  0
    0.8299   -4.5967    4.1067 N   0  0  0  0  0  0  0  0  0  0  0  0
   -4.2892   -4.7400    2.8724 O   0  0  0  0  0  0  0  0  0  0  0  0
   -3.7998   -4.4654    0.7033 O   0  0  0  0  0  0  0  0  0  0  0  0
   -1.6281   -6.4113    3.5553 I   0  0  0  0  0  0  0  0  0  0  0  0
    1.2443   -4.2506    5.3561 C   0  0  0  0  0  0  0  0  0  0  0  0
    2.1766   -5.1395    6.0627 C   0  0  0  0  0  0  0  0  0  0  0  0
    0.8469   -3.2032    5.9211 O   0  0  0  0  0  0  0  0  0  0  0  0
   -0.1551   -1.1919   -0.2907 H   0  0  0  0  0  0  0  0  0  0  0  0
   -0.4120    1.0394   -1.1377 H   0  0  0  0  0  0  0  0  0  0  0  0
    0.4061    1.6491    0.3116 H   0  0  0  0  0  0  0  0  0  0  0  0
    1.2945    0.6579   -0.8600 H   0  0  0  0  0  0  0  0  0  0  0  0
    1.1335   -5.4507    3.7585 H   0  0  0  0  0  0  0  0  0  0  0  0
   -5.1455   -5.1569    2.6397 H   0  0  0  0  0  0  0  0  0  0  0  0
    3.0511   -5.3162    5.4358 H   0  0  0  0  0  0  0  0  0  0  0  0
    1.6871   -6.0916    6.2726 H   0  0  0  0  0  0  0  0  0  0  0  0
    2.5063   -4.6965    7.0045 H   0  0  0  0  0  0  0  0  0  0  0  0
  1  2  1  0  0  0  0 
  1  3  2  0  0  0  0 
  1  4  1  0  0  0  0 
  2  5  1  0  0  0  0 
  4  6  2  0  0  0  0 
  4  7  1  0  0  0  0 
  6  8  1  0  0  0  0 
  6  9  1  0  0  0  0 
  7 10  1  0  0  0  0 
  7 11  2  0  0  0  0 
  9 12  1  0  0  0  0 
  9 13  2  0  0  0  0 
 11 13  1  0  0  0  0 
 11 14  1  0  0  0  0 
 12 15  1  0  0  0  0 
 12 16  2  0  0  0  0 
 13 17  1  0  0  0  0 
 14 18  1  0  0  0  0 
 18 19  1  0  0  0  0 
 18 20  2  0  0  0  0 
  2 21  1  0  0  0  0 
  5 22  1  0  0  0  0 
  5 23  1  0  0  0  0 
  5 24  1  0  0  0  0 
 14 25  1  0  0  0  0 
 15 26  1  0  0  0  0 
 19 27  1  0  0  0  0 
 19 28  1  0  0  0  0 
 19 29  1  0  0  0  0 
M  END
> <cdk:Title>
iotalamic acid

> <Conformer>
1

> <SuperDrugID>
SD001300

$$$$
