tixocortol
  CDK     0628171801

 70 73  0  0  0  0  0  0  0  0999 V2000
   -0.6666    6.8812   -4.8492 C   0  0  0  0  0  0  0  0  0  0  0  0
   -2.1220    6.8400   -4.2565 C   0  0  1  0  0  0  0  0  0  0  0  0
   -2.2570    5.8996   -2.9661 C   0  0  2  0  0  0  0  0  0  0  0  0
   -2.4806    8.2533   -3.9075 C   0  0  0  0  0  0  0  0  0  0  0  0
   -3.0979    6.2880   -5.3733 C   0  0  1  0  0  0  0  0  0  0  0  0
   -1.6191    6.5160   -1.6644 C   0  0  2  0  0  0  0  0  0  0  0  0
   -1.8782    4.3749   -3.1348 C   0  0  1  0  0  0  0  0  0  0  0  0
   -1.9151    8.8418   -2.6847 C   0  0  2  0  0  0  0  0  0  0  0  0
   -3.2522    9.0275   -4.7086 C   0  0  0  0  0  0  0  0  0  0  0  0
   -3.3956    7.3012   -6.5066 C   0  0  1  0  0  0  0  0  0  0  0  0
   -1.9311    5.5932   -0.4387 C   0  0  1  0  0  0  0  0  0  0  0  0
   -2.1569    7.9600   -1.4428 C   0  0  2  0  0  0  0  0  0  0  0  0
   -0.5725    4.1791   -3.6707 O   0  0  0  0  0  0  0  0  0  0  0  0
   -2.0395    3.5294   -1.8234 C   0  0  1  0  0  0  0  0  0  0  0  0
   -3.7359    8.6200   -5.9393 C   0  0  0  0  0  0  0  0  0  0  0  0
   -1.3532    4.1416   -0.5403 C   0  0  1  0  0  0  0  0  0  0  0  0
   -1.5274    6.0776    0.9608 C   0  0  1  0  0  0  0  0  0  0  0  0
   -4.4385    9.4045   -6.6202 O   0  0  0  0  0  0  0  0  0  0  0  0
    0.2132    4.0802   -0.6888 C   0  0  0  0  0  0  0  0  0  0  0  0
   -1.7731    3.5613    0.8813 C   0  0  2  0  0  0  0  0  0  0  0  0
   -1.6460    4.8093    1.8336 C   0  0  2  0  0  0  0  0  0  0  0  0
   -1.0898    2.3321    1.4336 C   0  0  0  0  0  0  0  0  0  0  0  0
   -3.1591    3.1995    0.8669 O   0  0  0  0  0  0  0  0  0  0  0  0
   -0.9470    1.0442    0.7201 C   0  0  2  0  0  0  0  0  0  0  0  0
   -0.6785    2.3193    2.6194 O   0  0  0  0  0  0  0  0  0  0  0  0
    0.8044    0.5292    0.6543 S   0  0  0  0  0  0  0  0  0  0  0  0
    0.8323   -0.7845   -0.5131 C   0  0  0  0  0  0  0  0  0  0  0  0
    1.8538   -0.8700   -1.6127 C   0  0  1  0  0  0  0  0  0  0  0  0
   -0.0474   -1.6614   -0.3455 O   0  0  0  0  0  0  0  0  0  0  0  0
    1.3688   -1.9391   -2.6936 C   0  0  0  0  0  0  0  0  0  0  0  0
    1.8471    0.5077   -2.4125 C   0  0  0  0  0  0  0  0  0  0  0  0
    3.2433   -1.2412   -0.8666 C   0  0  0  0  0  0  0  0  0  0  0  0
   -0.5436    7.7086   -5.5523 H   0  0  0  0  0  0  0  0  0  0  0  0
    0.0837    7.0016   -4.0683 H   0  0  0  0  0  0  0  0  0  0  0  0
   -0.4300    5.9716   -5.4015 H   0  0  0  0  0  0  0  0  0  0  0  0
   -3.3331    5.8715   -2.7511 H   0  0  0  0  0  0  0  0  0  0  0  0
   -2.7078    5.3665   -5.8181 H   0  0  0  0  0  0  0  0  0  0  0  0
   -4.0641    6.0385   -4.9225 H   0  0  0  0  0  0  0  0  0  0  0  0
   -0.5374    6.5920   -1.7836 H   0  0  0  0  0  0  0  0  0  0  0  0
   -2.5588    3.9339   -3.8677 H   0  0  0  0  0  0  0  0  0  0  0  0
   -2.3202    9.8350   -2.4656 H   0  0  0  0  0  0  0  0  0  0  0  0
   -0.8373    8.9690   -2.8247 H   0  0  0  0  0  0  0  0  0  0  0  0
   -3.4783    9.9558   -4.4286 H   0  0  0  0  0  0  0  0  0  0  0  0
   -2.5276    7.4105   -7.1606 H   0  0  0  0  0  0  0  0  0  0  0  0
   -4.2283    6.9256   -7.1083 H   0  0  0  0  0  0  0  0  0  0  0  0
   -3.0288    5.5255   -0.4021 H   0  0  0  0  0  0  0  0  0  0  0  0
   -1.6350    8.4228   -0.6002 H   0  0  0  0  0  0  0  0  0  0  0  0
   -3.2294    7.9378   -1.2159 H   0  0  0  0  0  0  0  0  0  0  0  0
   -0.4941    3.2117   -3.8219 H   0  0  0  0  0  0  0  0  0  0  0  0
   -3.1124    3.4186   -1.6488 H   0  0  0  0  0  0  0  0  0  0  0  0
   -1.6621    2.5254   -2.0109 H   0  0  0  0  0  0  0  0  0  0  0  0
   -0.5032    6.4618    0.9519 H   0  0  0  0  0  0  0  0  0  0  0  0
   -2.1994    6.8654    1.3115 H   0  0  0  0  0  0  0  0  0  0  0  0
    0.5365    3.0541   -0.8474 H   0  0  0  0  0  0  0  0  0  0  0  0
    0.7195    4.4552    0.2001 H   0  0  0  0  0  0  0  0  0  0  0  0
    0.5830    4.6597   -1.5301 H   0  0  0  0  0  0  0  0  0  0  0  0
   -2.5188    4.8912    2.4883 H   0  0  0  0  0  0  0  0  0  0  0  0
   -0.7617    4.7635    2.4740 H   0  0  0  0  0  0  0  0  0  0  0  0
   -3.2176    2.4256    0.2683 H   0  0  0  0  0  0  0  0  0  0  0  0
   -1.3253    1.1102   -0.2939 H   0  0  0  0  0  0  0  0  0  0  0  0
   -1.5186    0.2727    1.2419 H   0  0  0  0  0  0  0  0  0  0  0  0
    2.1061   -2.0207   -3.4943 H   0  0  0  0  0  0  0  0  0  0  0  0
    0.4062   -1.6583   -3.1314 H   0  0  0  0  0  0  0  0  0  0  0  0
    1.2671   -2.9234   -2.2339 H   0  0  0  0  0  0  0  0  0  0  0  0
    2.4823    0.4335   -3.2976 H   0  0  0  0  0  0  0  0  0  0  0  0
    0.8379    0.7811   -2.7323 H   0  0  0  0  0  0  0  0  0  0  0  0
    2.2445    1.3127   -1.7943 H   0  0  0  0  0  0  0  0  0  0  0  0
    4.0333   -1.3453   -1.6110 H   0  0  0  0  0  0  0  0  0  0  0  0
    3.5382   -0.4598   -0.1615 H   0  0  0  0  0  0  0  0  0  0  0  0
    3.1491   -2.1887   -0.3302 H   0  0  0  0  0  0  0  0  0  0  0  0
  2  1  1  0  0  0  0 
  3  2  1  0  0  0  0 
  2  4  1  0  0  0  0 
  2  5  1  0  0  0  0 
  3  6  1  0  0  0  0 
  3  7  1  0  0  0  0 
  4  8  1  0  0  0  0 
  4  9  2  0  0  0  0 
  5 10  1  0  0  0  0 
  6 11  1  0  0  0  0 
  6 12  1  0  0  0  0 
  7 13  1  0  0  0  0 
  7 14  1  0  0  0  0 
  8 12  1  0  0  0  0 
  9 15  1  0  0  0  0 
 10 15  1  0  0  0  0 
 11 16  1  0  0  0  0 
 11 17  1  0  0  0  0 
 16 14  1  0  0  0  0 
 15 18  2  0  0  0  0 
 16 19  1  0  0  0  0 
 16 20  1  0  0  0  0 
 17 21  1  0  0  0  0 
 20 21  1  0  0  0  0 
 20 22  1  0  0  0  0 
 20 23  1  0  0  0  0 
 22 24  1  0  0  0  0 
 22 25  2  0  0  0  0 
 24 26  1  0  0  0  0 
 26 27  1  0  0  0  0 
 27 28  1  0  0  0  0 
 27 29  2  0  0  0  0 
 28 30  1  0  0  0  0 
 28 31  1  0  0  0  0 
 28 32  1  0  0  0  0 
 33  1  1  0  0  0  0 
 34  1  1  0  0  0  0 
 35  1  1  0  0  0  0 
  3 36  1  0  0  0  0 
 37  5  1  0  0  0  0 
 38  5  1  0  0  0  0 
  6 39  1  0  0  0  0 
  7 40  1  0  0  0  0 
 41  8  1  0  0  0  0 
 42  8  1  0  0  0  0 
 43  9  1  0  0  0  0 
 44 10  1  0  0  0  0 
 45 10  1  0  0  0  0 
 11 46  1  0  0  0  0 
 47 12  1  0  0  0  0 
 48 12  1  0  0  0  0 
 49 13  1  0  0  0  0 
 50 14  1  0  0  0  0 
 51 14  1  0  0  0  0 
 52 17  1  0  0  0  0 
 53 17  1  0  0  0  0 
 54 19  1  0  0  0  0 
 55 19  1  0  0  0  0 
 56 19  1  0  0  0  0 
 57 21  1  0  0  0  0 
 58 21  1  0  0  0  0 
 59 23  1  0  0  0  0 
 60 24  1  0  0  0  0 
 61 24  1  0  0  0  0 
 62 30  1  0  0  0  0 
 63 30  1  0  0  0  0 
 64 30  1  0  0  0  0 
 65 31  1  0  0  0  0 
 66 31  1  0  0  0  0 
 67 31  1  0  0  0  0 
 68 32  1  0  0  0  0 
 69 32  1  0  0  0  0 
 70 32  1  0  0  0  0 
M  END
> <cdk:Title>
tixocortol

> <Conformer>
1

> <SuperDrugID>
SD003346

$$$$
