propylthiouracil
  CDK     0628171801

 21 21  0  0  0  0  0  0  0  0999 V2000
    2.2918   -1.1905   -0.9264 C   0  0  0  0  0  0  0  0  0  0  0  0
    1.9214   -0.3329    0.3038 C   0  0  2  0  0  0  0  0  0  0  0  0
    1.8623    1.1855   -0.0196 C   0  0  2  0  0  0  0  0  0  0  0  0
    1.4853    1.9997    1.1609 C   0  0  0  0  0  0  0  0  0  0  0  0
    0.3191    2.7971    1.1925 C   0  0  0  0  0  0  0  0  0  0  0  0
    0.0435    3.5200    2.3682 C   0  0  0  0  0  0  0  0  0  0  0  0
   -0.9782    4.2371    2.4503 O   0  0  0  0  0  0  0  0  0  0  0  0
    0.8855    3.4405    3.4306 N   0  0  0  0  0  0  0  0  0  0  0  0
    2.0038    2.6735    3.3823 C   0  0  0  0  0  0  0  0  0  0  0  0
    3.0561    2.5730    4.7526 S   0  0  0  0  0  0  0  0  0  0  0  0
    2.2933    1.9738    2.2573 N   0  0  0  0  0  0  0  0  0  0  0  0
    1.5473   -1.0651   -1.7150 H   0  0  0  0  0  0  0  0  0  0  0  0
    2.3300   -2.2462   -0.6489 H   0  0  0  0  0  0  0  0  0  0  0  0
    3.2706   -0.8962   -1.3099 H   0  0  0  0  0  0  0  0  0  0  0  0
    2.6652   -0.5188    1.0838 H   0  0  0  0  0  0  0  0  0  0  0  0
    0.9489   -0.6630    0.6784 H   0  0  0  0  0  0  0  0  0  0  0  0
    1.1515    1.3416   -0.8353 H   0  0  0  0  0  0  0  0  0  0  0  0
    2.8404    1.5204   -0.3732 H   0  0  0  0  0  0  0  0  0  0  0  0
   -0.3130    2.8500    0.3885 H   0  0  0  0  0  0  0  0  0  0  0  0
    0.6821    3.9380    4.2400 H   0  0  0  0  0  0  0  0  0  0  0  0
    3.0969    1.4323    2.2354 H   0  0  0  0  0  0  0  0  0  0  0  0
  1  2  1  0  0  0  0 
  2  3  1  0  0  0  0 
  3  4  1  0  0  0  0 
  4  5  2  0  0  0  0 
  5  6  1  0  0  0  0 
  6  7  2  0  0  0  0 
  6  8  1  0  0  0  0 
  8  9  1  0  0  0  0 
  9 10  2  0  0  0  0 
  9 11  1  0  0  0  0 
  4 11  1  0  0  0  0 
 12  1  1  0  0  0  0 
 13  1  1  0  0  0  0 
 14  1  1  0  0  0  0 
 15  2  1  0  0  0  0 
 16  2  1  0  0  0  0 
 17  3  1  0  0  0  0 
 18  3  1  0  0  0  0 
 19  5  1  0  0  0  0 
 20  8  1  0  0  0  0 
 21 11  1  0  0  0  0 
M  END
> <cdk:Title>
propylthiouracil

> <Conformer>
1

> <SuperDrugID>
SD002072

$$$$
