ataluren
  CDK     0628171802

 30 32  0  0  0  0  0  0  0  0999 V2000
    7.6226   -1.0038   -0.5686 F   0  0  0  0  0  0  0  0  0  0  0  0
    7.7112   -0.5321    0.6490 C   0  0  0  0  0  0  0  0  0  0  0  0
    6.6765    0.2441    1.2364 C   0  0  0  0  0  0  0  0  0  0  0  0
    5.4793    0.5547    0.5358 C   0  0  0  0  0  0  0  0  0  0  0  0
    4.4506    1.2664    1.0216 N   0  0  0  0  0  0  0  0  0  0  0  0
    3.5250    1.3402    0.0540 C   0  0  0  0  0  0  0  0  0  0  0  0
    3.9863    0.6712   -1.0164 N   0  0  0  0  0  0  0  0  0  0  0  0
    5.1653    0.1943   -0.7303 O   0  0  0  0  0  0  0  0  0  0  0  0
    2.2766    2.0079    0.1593 C   0  0  0  0  0  0  0  0  0  0  0  0
    1.8378    2.5317    1.4010 C   0  0  0  0  0  0  0  0  0  0  0  0
    0.5972    3.2048    1.5369 C   0  0  0  0  0  0  0  0  0  0  0  0
    0.1818    3.7308    2.7916 C   0  0  0  0  0  0  0  0  0  0  0  0
   -0.9565    4.4537    2.9232 O   0  0  0  0  0  0  0  0  0  0  0  0
    0.8439    3.5539    3.8394 O   0  0  0  0  0  0  0  0  0  0  0  0
   -0.2171    3.3360    0.3871 C   0  0  0  0  0  0  0  0  0  0  0  0
    0.1966    2.8188   -0.8533 C   0  0  0  0  0  0  0  0  0  0  0  0
    1.4370    2.1678   -0.9671 C   0  0  0  0  0  0  0  0  0  0  0  0
    6.8600    0.7141    2.5608 C   0  0  0  0  0  0  0  0  0  0  0  0
    8.0316    0.4193    3.2804 C   0  0  0  0  0  0  0  0  0  0  0  0
    9.0486   -0.3412    2.6838 C   0  0  0  0  0  0  0  0  0  0  0  0
    8.8861   -0.8204    1.3735 C   0  0  0  0  0  0  0  0  0  0  0  0
    2.4357    2.4210    2.2231 H   0  0  0  0  0  0  0  0  0  0  0  0
   -1.2196    4.8003    3.8014 H   0  0  0  0  0  0  0  0  0  0  0  0
   -1.1253    3.8075    0.4368 H   0  0  0  0  0  0  0  0  0  0  0  0
   -0.4070    2.9184   -1.6752 H   0  0  0  0  0  0  0  0  0  0  0  0
    1.7202    1.8164   -1.8864 H   0  0  0  0  0  0  0  0  0  0  0  0
    6.1418    1.2780    3.0218 H   0  0  0  0  0  0  0  0  0  0  0  0
    8.1411    0.7608    4.2367 H   0  0  0  0  0  0  0  0  0  0  0  0
    9.9046   -0.5459    3.2039 H   0  0  0  0  0  0  0  0  0  0  0  0
    9.6287   -1.3834    0.9491 H   0  0  0  0  0  0  0  0  0  0  0  0
  1  2  1  0  0  0  0 
  2  3  2  0  0  0  0 
  2 21  1  0  0  0  0 
  3  4  1  0  0  0  0 
  3 18  1  0  0  0  0 
  4  5  2  0  0  0  0 
  4  8  1  0  0  0  0 
  5  6  1  0  0  0  0 
  6  7  2  0  0  0  0 
  6  9  1  0  0  0  0 
  8  7  1  0  0  0  0 
  9 10  2  0  0  0  0 
  9 17  1  0  0  0  0 
 10 11  1  0  0  0  0 
 11 12  1  0  0  0  0 
 11 15  2  0  0  0  0 
 12 13  1  0  0  0  0 
 12 14  2  0  0  0  0 
 16 15  1  0  0  0  0 
 17 16  2  0  0  0  0 
 18 19  2  0  0  0  0 
 20 19  1  0  0  0  0 
 21 20  2  0  0  0  0 
 10 22  1  0  0  0  0 
 13 23  1  0  0  0  0 
 15 24  1  0  0  0  0 
 16 25  1  0  0  0  0 
 17 26  1  0  0  0  0 
 18 27  1  0  0  0  0 
 19 28  1  0  0  0  0 
 20 29  1  0  0  0  0 
 21 30  1  0  0  0  0 
M  END
> <cdk:Title>
ataluren

> <Conformer>
1

> <SuperDrugID>
SD003814

$$$$
