bismuth subgallate
  CDK     0628171801

 19 20  0  0  0  0  0  0  0  0999 V2000
   -2.3375   -4.0395   -0.0614 O   0  0  0  0  0  0  0  0  0  0  0  0
   -1.0503   -3.6133    0.0241 C   0  0  0  0  0  0  0  0  0  0  0  0
    0.0210   -4.3867   -0.4666 C   0  0  0  0  0  0  0  0  0  0  0  0
   -0.7992   -2.3673    0.6273 C   0  0  0  0  0  0  0  0  0  0  0  0
    1.3421   -3.9022   -0.3515 C   0  0  0  0  0  0  0  0  0  0  0  0
   -0.2520   -5.5874   -1.0405 O   0  0  0  0  0  0  0  0  0  0  0  0
    0.5176   -1.8636    0.7545 C   0  0  0  0  0  0  0  0  0  0  0  0
    1.5811   -2.6520    0.2525 C   0  0  0  0  0  0  0  0  0  0  0  0
    2.4081   -4.6103   -0.8069 O   0  0  0  0  0  0  0  0  0  0  0  0
    1.5862   -6.2583   -1.8629 Bi  0  0  0  0  0  0  0  0  0  0  0  0
    0.7650   -0.6056    1.3671 C   0  0  0  0  0  0  0  0  0  0  0  0
    2.3046   -7.8149   -3.1556 O   0  0  0  0  0  0  0  0  0  0  0  0
    1.9938   -0.0351    1.3769 O   0  0  0  0  0  0  0  0  0  0  0  0
   -0.1439    0.0497    1.9279 O   0  0  0  0  0  0  0  0  0  0  0  0
   -2.3123   -4.8755   -0.5682 H   0  0  0  0  0  0  0  0  0  0  0  0
   -1.5952   -1.8292    0.9754 H   0  0  0  0  0  0  0  0  0  0  0  0
    2.5467   -2.3228    0.3246 H   0  0  0  0  0  0  0  0  0  0  0  0
    2.4767   -7.3569   -4.0042 H   0  0  0  0  0  0  0  0  0  0  0  0
    2.1221    0.8402    1.8011 H   0  0  0  0  0  0  0  0  0  0  0  0
  1  2  1  0  0  0  0 
  2  3  2  0  0  0  0 
  2  4  1  0  0  0  0 
  3  5  1  0  0  0  0 
  3  6  1  0  0  0  0 
  4  7  2  0  0  0  0 
  5  8  2  0  0  0  0 
  5  9  1  0  0  0  0 
  6 10  1  0  0  0  0 
  7  8  1  0  0  0  0 
  7 11  1  0  0  0  0 
  9 10  1  0  0  0  0 
 10 12  1  0  0  0  0 
 11 13  1  0  0  0  0 
 11 14  2  0  0  0  0 
  1 15  1  0  0  0  0 
  4 16  1  0  0  0  0 
  8 17  1  0  0  0  0 
 12 18  1  0  0  0  0 
 13 19  1  0  0  0  0 
M  END
> <cdk:Title>
bismuth subgallate

> <Conformer>
1

> <SuperDrugID>
SD003609

$$$$
