ampiroxicam
  CDK     0628171801

 52 54  0  0  0  0  0  0  0  0999 V2000
    5.8837    5.9125    2.5568 O   0  0  0  0  0  0  0  0  0  0  0  0
    5.3822    5.0964    3.6571 C   0  0  2  0  0  0  0  0  0  0  0  0
    4.9498    6.4067    1.7060 C   0  0  0  0  0  0  0  0  0  0  0  0
    6.4835    4.7399    4.5030 O   0  0  0  0  0  0  0  0  0  0  0  0
    4.7419    3.7463    3.2557 C   0  0  0  0  0  0  0  0  0  0  0  0
    4.4131    7.6984    2.0040 C   0  0  0  0  0  0  0  0  0  0  0  0
    4.6180    5.6632    0.6052 C   0  0  0  0  0  0  0  0  0  0  0  0
    7.2580    5.5624    5.2578 C   0  0  0  0  0  0  0  0  0  0  0  0
    3.5682    8.4004    1.0989 C   0  0  0  0  0  0  0  0  0  0  0  0
    4.7571    8.3937    3.1950 C   0  0  0  0  0  0  0  0  0  0  0  0
    5.4315    4.6030    0.1301 C   0  0  0  0  0  0  0  0  0  0  0  0
    3.4563    5.9447   -0.0322 N   0  0  0  0  0  0  0  0  0  0  0  0
    8.2303    4.9736    6.0098 O   0  0  0  0  0  0  0  0  0  0  0  0
    7.0812    6.8032    5.2751 O   0  0  0  0  0  0  0  0  0  0  0  0
    3.1605    7.5931   -0.4175 S   0  0  1  0  0  0  0  0  0  0  0  0
    3.0650    9.6865    1.3768 C   0  0  0  0  0  0  0  0  0  0  0  0
    4.2715    9.6823    3.4812 C   0  0  0  0  0  0  0  0  0  0  0  0
    5.0059    3.7097   -0.8190 N   0  0  0  0  0  0  0  0  0  0  0  0
    6.6126    4.4899    0.5425 O   0  0  0  0  0  0  0  0  0  0  0  0
    2.3691    5.0125   -0.1685 C   0  0  0  0  0  0  0  0  0  0  0  0
    9.1101    5.6210    6.9388 C   0  0  2  0  0  0  0  0  0  0  0  0
    1.6308    7.8481   -0.8248 O   0  0  0  0  0  0  0  0  0  0  0  0
    4.1516    8.0675   -1.5849 O   0  0  0  0  0  0  0  0  0  0  0  0
    3.4187   10.3280    2.5740 C   0  0  0  0  0  0  0  0  0  0  0  0
    5.6490    2.5953   -1.2865 C   0  0  0  0  0  0  0  0  0  0  0  0
    8.3519    6.1756    8.1620 C   0  0  0  0  0  0  0  0  0  0  0  0
    5.0224    1.8295   -2.2934 C   0  0  0  0  0  0  0  0  0  0  0  0
    6.8510    2.1684   -0.8054 N   0  0  0  0  0  0  0  0  0  0  0  0
    5.6403    0.6527   -2.7577 C   0  0  0  0  0  0  0  0  0  0  0  0
    7.4781    1.0408   -1.2309 C   0  0  0  0  0  0  0  0  0  0  0  0
    6.8760    0.2475   -2.2213 C   0  0  0  0  0  0  0  0  0  0  0  0
    4.6516    5.6509    4.2552 H   0  0  0  0  0  0  0  0  0  0  0  0
    3.8591    3.9002    2.6385 H   0  0  0  0  0  0  0  0  0  0  0  0
    4.4297    3.2022    4.1489 H   0  0  0  0  0  0  0  0  0  0  0  0
    5.4620    3.1345    2.7110 H   0  0  0  0  0  0  0  0  0  0  0  0
    5.3803    7.9781    3.8800 H   0  0  0  0  0  0  0  0  0  0  0  0
    2.4458   10.1600    0.7147 H   0  0  0  0  0  0  0  0  0  0  0  0
    4.5418   10.1516    4.3485 H   0  0  0  0  0  0  0  0  0  0  0  0
    4.1292    3.8688   -1.1957 H   0  0  0  0  0  0  0  0  0  0  0  0
    2.1489    4.8538   -1.2251 H   0  0  0  0  0  0  0  0  0  0  0  0
    1.4736    5.4041    0.3201 H   0  0  0  0  0  0  0  0  0  0  0  0
    2.5824    4.0469    0.2955 H   0  0  0  0  0  0  0  0  0  0  0  0
    9.6487    6.4283    6.4364 H   0  0  0  0  0  0  0  0  0  0  0  0
    9.8357    4.8819    7.2870 H   0  0  0  0  0  0  0  0  0  0  0  0
    3.0605   11.2623    2.7825 H   0  0  0  0  0  0  0  0  0  0  0  0
    9.0475    6.6407    8.8607 H   0  0  0  0  0  0  0  0  0  0  0  0
    7.8285    5.3668    8.6722 H   0  0  0  0  0  0  0  0  0  0  0  0
    7.6235    6.9263    7.8559 H   0  0  0  0  0  0  0  0  0  0  0  0
    4.1227    2.1172   -2.6847 H   0  0  0  0  0  0  0  0  0  0  0  0
    5.1900    0.0900   -3.4825 H   0  0  0  0  0  0  0  0  0  0  0  0
    8.3771    0.7743   -0.8245 H   0  0  0  0  0  0  0  0  0  0  0  0
    7.3285   -0.6110   -2.5450 H   0  0  0  0  0  0  0  0  0  0  0  0
  2  1  1  0  0  0  0 
  1  3  1  0  0  0  0 
  2  4  1  0  0  0  0 
  2  5  1  0  0  0  0 
  3  6  1  0  0  0  0 
  3  7  2  0  0  0  0 
  4  8  1  0  0  0  0 
  6  9  2  0  0  0  0 
  6 10  1  0  0  0  0 
  7 11  1  0  0  0  0 
  7 12  1  0  0  0  0 
  8 13  1  0  0  0  0 
  8 14  2  0  0  0  0 
  9 15  1  0  0  0  0 
  9 16  1  0  0  0  0 
 10 17  2  0  0  0  0 
 11 18  1  0  0  0  0 
 11 19  2  0  0  0  0 
 12 15  1  0  0  0  0 
 12 20  1  0  0  0  0 
 13 21  1  0  0  0  0 
 15 22  2  0  0  0  0 
 15 23  2  0  0  0  0 
 16 24  2  0  0  0  0 
 17 24  1  0  0  0  0 
 18 25  1  0  0  0  0 
 21 26  1  0  0  0  0 
 25 27  2  0  0  0  0 
 25 28  1  0  0  0  0 
 27 29  1  0  0  0  0 
 28 30  2  0  0  0  0 
 29 31  2  0  0  0  0 
 30 31  1  0  0  0  0 
  2 32  1  0  0  0  0 
  5 33  1  0  0  0  0 
  5 34  1  0  0  0  0 
  5 35  1  0  0  0  0 
 10 36  1  0  0  0  0 
 16 37  1  0  0  0  0 
 17 38  1  0  0  0  0 
 18 39  1  0  0  0  0 
 20 40  1  0  0  0  0 
 20 41  1  0  0  0  0 
 20 42  1  0  0  0  0 
 21 43  1  0  0  0  0 
 21 44  1  0  0  0  0 
 24 45  1  0  0  0  0 
 26 46  1  0  0  0  0 
 26 47  1  0  0  0  0 
 26 48  1  0  0  0  0 
 27 49  1  0  0  0  0 
 29 50  1  0  0  0  0 
 30 51  1  0  0  0  0 
 31 52  1  0  0  0  0 
M  END
> <cdk:Title>
ampiroxicam

> <Conformer>
1

> <SuperDrugID>
SD000164

$$$$
