naftazone
  CDK     0628171801

 25 26  0  0  0  0  0  0  0  0999 V2000
   -3.1790   -1.1374   -0.2992 O   0  0  0  0  0  0  0  0  0  0  0  0
   -2.6410   -1.0687    0.9518 C   0  0  0  0  0  0  0  0  0  0  0  0
   -3.4327   -1.4201    2.0762 C   0  0  0  0  0  0  0  0  0  0  0  0
   -1.2989   -0.6467    1.1210 C   0  0  0  0  0  0  0  0  0  0  0  0
   -2.8740   -1.3257    3.3853 C   0  0  0  0  0  0  0  0  0  0  0  0
   -4.7745   -1.8564    1.9408 C   0  0  0  0  0  0  0  0  0  0  0  0
   -0.5853   -0.3406    0.0388 N   0  0  0  0  0  0  0  0  0  0  0  0
   -0.7614   -0.5743    2.4286 C   0  0  0  0  0  0  0  0  0  0  0  0
   -1.5384   -0.9071    3.5476 C   0  0  0  0  0  0  0  0  0  0  0  0
   -3.6617   -1.6476    4.5129 C   0  0  0  0  0  0  0  0  0  0  0  0
   -5.5499   -2.1655    3.0717 C   0  0  0  0  0  0  0  0  0  0  0  0
    0.5731    0.0688    0.0052 N   0  0  0  0  0  0  0  0  0  0  0  0
   -4.9952   -2.0574    4.3559 C   0  0  0  0  0  0  0  0  0  0  0  0
    1.6509   -0.6859   -0.0859 C   0  0  0  0  0  0  0  0  0  0  0  0
    2.8521   -0.0948   -0.0092 N   0  0  0  0  0  0  0  0  0  0  0  0
    1.5982   -1.9310   -0.2216 O   0  0  0  0  0  0  0  0  0  0  0  0
   -2.7912   -0.3889   -0.8022 H   0  0  0  0  0  0  0  0  0  0  0  0
   -5.2038   -1.9522    1.0176 H   0  0  0  0  0  0  0  0  0  0  0  0
    0.2057   -0.2803    2.5812 H   0  0  0  0  0  0  0  0  0  0  0  0
   -1.1231   -0.8425    4.4818 H   0  0  0  0  0  0  0  0  0  0  0  0
   -3.2718   -1.5852    5.4568 H   0  0  0  0  0  0  0  0  0  0  0  0
   -6.5180   -2.4705    2.9602 H   0  0  0  0  0  0  0  0  0  0  0  0
   -5.5601   -2.2796    5.1794 H   0  0  0  0  0  0  0  0  0  0  0  0
    3.6575   -0.6335   -0.0606 H   0  0  0  0  0  0  0  0  0  0  0  0
    2.9212    0.8678    0.1051 H   0  0  0  0  0  0  0  0  0  0  0  0
  1  2  1  0  0  0  0 
  2  3  2  0  0  0  0 
  2  4  1  0  0  0  0 
  3  5  1  0  0  0  0 
  3  6  1  0  0  0  0 
  7  4  1  0  0  0  0 
  4  8  2  0  0  0  0 
  5  9  2  0  0  0  0 
  5 10  1  0  0  0  0 
  6 11  2  0  0  0  0 
  7 12  2  0  0  0  0 
  8  9  1  0  0  0  0 
 10 13  2  0  0  0  0 
 11 13  1  0  0  0  0 
 12 14  1  0  0  0  0 
 14 15  1  0  0  0  0 
 14 16  2  0  0  0  0 
 17  1  1  0  0  0  0 
 18  6  1  0  0  0  0 
 19  8  1  0  0  0  0 
 20  9  1  0  0  0  0 
 21 10  1  0  0  0  0 
 22 11  1  0  0  0  0 
 23 13  1  0  0  0  0 
 24 15  1  0  0  0  0 
 25 15  1  0  0  0  0 
M  END
> <cdk:Title>
naftazone

> <Conformer>
1

> <SuperDrugID>
SD001667

$$$$
