enprofylline
  CDK     0628171801

 24 25  0  0  0  0  0  0  0  0999 V2000
    1.6141    0.8687    0.2732 C   0  0  1  0  0  0  0  0  0  0  0  0
    2.4663    1.5738   -0.8147 C   0  0  1  0  0  0  0  0  0  0  0  0
    1.2989    1.7745    1.3566 N   0  0  0  0  0  0  0  0  0  0  0  0
    2.8148    0.6423   -1.9970 C   0  0  0  0  0  0  0  0  0  0  0  0
    2.1401    1.8847    2.4310 C   0  0  0  0  0  0  0  0  0  0  0  0
    0.1769    2.5758    1.3451 C   0  0  0  0  0  0  0  0  0  0  0  0
    1.8834    2.7568    3.4833 C   0  0  0  0  0  0  0  0  0  0  0  0
    3.2990    1.2549    2.6990 N   0  0  0  0  0  0  0  0  0  0  0  0
   -0.6455    2.5706    0.3999 O   0  0  0  0  0  0  0  0  0  0  0  0
   -0.0879    3.4341    2.3722 N   0  0  0  0  0  0  0  0  0  0  0  0
    0.7310    3.5509    3.4496 C   0  0  0  0  0  0  0  0  0  0  0  0
    2.8789    2.6407    4.3670 N   0  0  0  0  0  0  0  0  0  0  0  0
    3.7344    1.7283    3.8815 C   0  0  0  0  0  0  0  0  0  0  0  0
    0.4541    4.3533    4.3694 O   0  0  0  0  0  0  0  0  0  0  0  0
    0.6977    0.4751   -0.1780 H   0  0  0  0  0  0  0  0  0  0  0  0
    2.1649   -0.0018    0.6424 H   0  0  0  0  0  0  0  0  0  0  0  0
    1.9172    2.4375   -1.1980 H   0  0  0  0  0  0  0  0  0  0  0  0
    3.3973    1.9356   -0.3689 H   0  0  0  0  0  0  0  0  0  0  0  0
    3.3874   -0.2187   -1.6450 H   0  0  0  0  0  0  0  0  0  0  0  0
    3.4135    1.1795   -2.7361 H   0  0  0  0  0  0  0  0  0  0  0  0
    1.9009    0.2892   -2.4789 H   0  0  0  0  0  0  0  0  0  0  0  0
   -0.8847    3.9859    2.3335 H   0  0  0  0  0  0  0  0  0  0  0  0
    2.9694    3.1245    5.2008 H   0  0  0  0  0  0  0  0  0  0  0  0
    4.5959    1.4339    4.3420 H   0  0  0  0  0  0  0  0  0  0  0  0
  1  2  1  0  0  0  0 
  1  3  1  0  0  0  0 
  2  4  1  0  0  0  0 
  3  5  1  0  0  0  0 
  3  6  1  0  0  0  0 
  5  7  2  0  0  0  0 
  5  8  1  0  0  0  0 
  6  9  2  0  0  0  0 
  6 10  1  0  0  0  0 
  7 11  1  0  0  0  0 
  7 12  1  0  0  0  0 
  8 13  2  0  0  0  0 
 10 11  1  0  0  0  0 
 11 14  2  0  0  0  0 
 12 13  1  0  0  0  0 
 15  1  1  0  0  0  0 
 16  1  1  0  0  0  0 
 17  2  1  0  0  0  0 
 18  2  1  0  0  0  0 
 19  4  1  0  0  0  0 
 20  4  1  0  0  0  0 
 21  4  1  0  0  0  0 
 22 10  1  0  0  0  0 
 23 12  1  0  0  0  0 
 24 13  1  0  0  0  0 
M  END
> <cdk:Title>
enprofylline

> <Conformer>
1

> <SuperDrugID>
SD000902

$$$$
