methoxyflurane
  CDK     0628171801

 12 11  0  0  0  0  0  0  0  0999 V2000
    1.5022   -0.0210   -0.0364 C   0  0  0  0  0  0  0  0  0  0  0  0
    0.0635    0.0272    0.0471 O   0  0  0  0  0  0  0  0  0  0  0  0
   -0.4890    0.6963    1.2061 C   0  0  2  0  0  0  0  0  0  0  0  0
   -0.0772    2.0109    1.2624 F   0  0  0  0  0  0  0  0  0  0  0  0
   -0.0772    0.0878    2.3727 F   0  0  0  0  0  0  0  0  0  0  0  0
   -2.0409    0.6653    1.1522 C   0  0  2  0  0  0  0  0  0  0  0  0
   -2.6743   -0.9802    1.1477 Cl  0  0  0  0  0  0  0  0  0  0  0  0
   -2.6743    1.4840   -0.2750 Cl  0  0  0  0  0  0  0  0  0  0  0  0
    1.9264   -0.5608    0.8128 H   0  0  0  0  0  0  0  0  0  0  0  0
    1.7756   -0.5488   -0.9506 H   0  0  0  0  0  0  0  0  0  0  0  0
    1.9264    0.9843   -0.0792 H   0  0  0  0  0  0  0  0  0  0  0  0
   -2.4450    1.1726    2.0310 H   0  0  0  0  0  0  0  0  0  0  0  0
  1  2  1  0  0  0  0 
  2  3  1  0  0  0  0 
  3  4  1  0  0  0  0 
  3  5  1  0  0  0  0 
  3  6  1  0  0  0  0 
  6  7  1  0  0  0  0 
  6  8  1  0  0  0  0 
  1  9  1  0  0  0  0 
  1 10  1  0  0  0  0 
  1 11  1  0  0  0  0 
  6 12  1  0  0  0  0 
M  END
> <cdk:Title>
methoxyflurane

> <Conformer>
1

> <SuperDrugID>
SD001554

$$$$
