nicomol
  CDK     0628171801

 79 83  0  0  0  0  0  0  0  0999 V2000
    2.6834   -3.2699    1.6472 C   0  0  2  0  0  0  0  0  0  0  0  0
    1.9092   -2.1596    1.1508 O   0  0  0  0  0  0  0  0  0  0  0  0
    1.9163   -4.6448    1.8040 C   0  0  2  0  0  0  0  0  0  0  0  0
    2.3917   -0.8891    0.9489 C   0  0  0  0  0  0  0  0  0  0  0  0
    0.6066   -4.3437    2.6244 C   0  0  2  0  0  0  0  0  0  0  0  0
    2.9341   -5.6745    2.4701 C   0  0  1  0  0  0  0  0  0  0  0  0
    1.5232   -5.1897    0.3796 C   0  0  2  0  0  0  0  0  0  0  0  0
    3.6197   -0.6762    1.1019 O   0  0  0  0  0  0  0  0  0  0  0  0
    1.5327    0.1765    0.5681 C   0  0  0  0  0  0  0  0  0  0  0  0
    0.8807   -4.0311    3.9924 O   0  0  0  0  0  0  0  0  0  0  0  0
    3.3578   -5.2369    3.7664 O   0  0  0  0  0  0  0  0  0  0  0  0
    2.5695   -7.2188    2.5231 C   0  0  1  0  0  0  0  0  0  0  0  0
    0.9888   -6.7205    0.4586 C   0  0  2  0  0  0  0  0  0  0  0  0
    0.1330    0.1065    0.7719 C   0  0  0  0  0  0  0  0  0  0  0  0
    2.0399    1.3660   -0.0105 C   0  0  0  0  0  0  0  0  0  0  0  0
   -0.0343   -3.7101    4.9550 C   0  0  0  0  0  0  0  0  0  0  0  0
    3.8713   -8.0341    2.9051 C   0  0  1  0  0  0  0  0  0  0  0  0
    1.4981   -7.5546    3.6322 C   0  0  2  0  0  0  0  0  0  0  0  0
    2.1119   -7.6983    1.0910 C   0  0  2  0  0  0  0  0  0  0  0  0
   -0.7036    1.1795    0.4087 C   0  0  0  0  0  0  0  0  0  0  0  0
    1.2092    2.3826   -0.3538 N   0  0  0  0  0  0  0  0  0  0  0  0
   -1.2502   -3.6451    4.6500 O   0  0  0  0  0  0  0  0  0  0  0  0
    0.4015   -3.4586    6.2818 C   0  0  0  0  0  0  0  0  0  0  0  0
    3.6065   -9.4427    3.0215 O   0  0  0  0  0  0  0  0  0  0  0  0
    2.0029   -7.1712    4.9215 O   0  0  0  0  0  0  0  0  0  0  0  0
   -0.1321    2.3270   -0.1660 C   0  0  0  0  0  0  0  0  0  0  0  0
    1.7815   -3.3995    6.6006 C   0  0  0  0  0  0  0  0  0  0  0  0
   -0.5160   -3.2596    7.3431 C   0  0  0  0  0  0  0  0  0  0  0  0
    4.4611  -10.4357    3.4172 C   0  0  0  0  0  0  0  0  0  0  0  0
    1.4172   -7.1557    6.1523 C   0  0  0  0  0  0  0  0  0  0  0  0
    2.2067   -3.1564    7.9178 C   0  0  0  0  0  0  0  0  0  0  0  0
   -0.0766   -3.0332    8.6072 N   0  0  0  0  0  0  0  0  0  0  0  0
    5.6438  -10.1374    3.7099 O   0  0  0  0  0  0  0  0  0  0  0  0
    3.9972  -11.7785    3.5066 C   0  0  0  0  0  0  0  0  0  0  0  0
    0.2024   -7.4482    6.2520 O   0  0  0  0  0  0  0  0  0  0  0  0
    2.1972   -6.7900    7.2896 C   0  0  0  0  0  0  0  0  0  0  0  0
    1.2409   -2.9804    8.9219 C   0  0  0  0  0  0  0  0  0  0  0  0
    2.6694  -12.1196    3.1452 C   0  0  0  0  0  0  0  0  0  0  0  0
    4.8281  -12.8341    3.9603 C   0  0  0  0  0  0  0  0  0  0  0  0
    3.5795   -6.4903    7.1711 C   0  0  0  0  0  0  0  0  0  0  0  0
    1.6379   -6.7032    8.5893 C   0  0  0  0  0  0  0  0  0  0  0  0
    2.2105  -13.4462    3.2359 C   0  0  0  0  0  0  0  0  0  0  0  0
    4.3581  -14.1060    4.0390 N   0  0  0  0  0  0  0  0  0  0  0  0
    4.3457   -6.1238    8.2932 C   0  0  0  0  0  0  0  0  0  0  0  0
    2.3998   -6.3437    9.6555 N   0  0  0  0  0  0  0  0  0  0  0  0
    3.0901  -14.4401    3.6944 C   0  0  0  0  0  0  0  0  0  0  0  0
    3.7201   -6.0534    9.5482 C   0  0  0  0  0  0  0  0  0  0  0  0
    3.0561   -2.9479    2.6215 H   0  0  0  0  0  0  0  0  0  0  0  0
    3.5516   -3.4035    0.9922 H   0  0  0  0  0  0  0  0  0  0  0  0
   -0.0943   -5.1733    2.5937 H   0  0  0  0  0  0  0  0  0  0  0  0
    0.0690   -3.4962    2.1883 H   0  0  0  0  0  0  0  0  0  0  0  0
    3.8423   -5.6201    1.8615 H   0  0  0  0  0  0  0  0  0  0  0  0
    2.4304   -5.0639   -0.2753 H   0  0  0  0  0  0  0  0  0  0  0  0
    0.7907   -4.4614   -0.0629 H   0  0  0  0  0  0  0  0  0  0  0  0
    3.8257   -4.3879    3.6395 H   0  0  0  0  0  0  0  0  0  0  0  0
    0.7982   -7.0587   -0.5632 H   0  0  0  0  0  0  0  0  0  0  0  0
    0.0506   -6.8052    1.0073 H   0  0  0  0  0  0  0  0  0  0  0  0
   -0.2914   -0.7195    1.2012 H   0  0  0  0  0  0  0  0  0  0  0  0
    3.0386    1.4832   -0.1894 H   0  0  0  0  0  0  0  0  0  0  0  0
    4.6555   -7.8901    2.1564 H   0  0  0  0  0  0  0  0  0  0  0  0
    4.2724   -7.6852    3.8596 H   0  0  0  0  0  0  0  0  0  0  0  0
    1.2882   -8.6270    3.6537 H   0  0  0  0  0  0  0  0  0  0  0  0
    0.5519   -7.0615    3.4457 H   0  0  0  0  0  0  0  0  0  0  0  0
    1.7956   -8.7737    1.1890 H   0  0  0  0  0  0  0  0  0  0  0  0
    3.0421   -7.7702    0.4572 H   0  0  0  0  0  0  0  0  0  0  0  0
   -1.7123    1.1318    0.5637 H   0  0  0  0  0  0  0  0  0  0  0  0
   -0.7164    3.1194   -0.4423 H   0  0  0  0  0  0  0  0  0  0  0  0
    2.4956   -3.5360    5.8810 H   0  0  0  0  0  0  0  0  0  0  0  0
   -1.5252   -3.2860    7.1810 H   0  0  0  0  0  0  0  0  0  0  0  0
    3.2028   -3.1115    8.1412 H   0  0  0  0  0  0  0  0  0  0  0  0
    1.5245   -2.8131    9.8877 H   0  0  0  0  0  0  0  0  0  0  0  0
    2.0164  -11.4070    2.8100 H   0  0  0  0  0  0  0  0  0  0  0  0
    5.7966  -12.6639    4.2372 H   0  0  0  0  0  0  0  0  0  0  0  0
    4.0525   -6.5336    6.2657 H   0  0  0  0  0  0  0  0  0  0  0  0
    0.6502   -6.9034    8.7524 H   0  0  0  0  0  0  0  0  0  0  0  0
    1.2512  -13.6834    2.9722 H   0  0  0  0  0  0  0  0  0  0  0  0
    5.3421   -5.9094    8.1976 H   0  0  0  0  0  0  0  0  0  0  0  0
    2.7802  -15.4110    3.7696 H   0  0  0  0  0  0  0  0  0  0  0  0
    4.2526   -5.7817   10.3779 H   0  0  0  0  0  0  0  0  0  0  0  0
  1  2  1  0  0  0  0 
  1  3  1  0  0  0  0 
  2  4  1  0  0  0  0 
  3  5  1  0  0  0  0 
  3  6  1  0  0  0  0 
  3  7  1  0  0  0  0 
  4  8  2  0  0  0  0 
  4  9  1  0  0  0  0 
  5 10  1  0  0  0  0 
  6 11  1  0  0  0  0 
  6 12  1  0  0  0  0 
  7 13  1  0  0  0  0 
  9 14  2  0  0  0  0 
  9 15  1  0  0  0  0 
 10 16  1  0  0  0  0 
 12 17  1  0  0  0  0 
 12 18  1  0  0  0  0 
 12 19  1  0  0  0  0 
 13 19  1  0  0  0  0 
 14 20  1  0  0  0  0 
 15 21  2  0  0  0  0 
 16 22  2  0  0  0  0 
 16 23  1  0  0  0  0 
 17 24  1  0  0  0  0 
 18 25  1  0  0  0  0 
 20 26  2  0  0  0  0 
 21 26  1  0  0  0  0 
 23 27  2  0  0  0  0 
 23 28  1  0  0  0  0 
 24 29  1  0  0  0  0 
 25 30  1  0  0  0  0 
 27 31  1  0  0  0  0 
 28 32  2  0  0  0  0 
 29 33  2  0  0  0  0 
 29 34  1  0  0  0  0 
 30 35  2  0  0  0  0 
 30 36  1  0  0  0  0 
 31 37  2  0  0  0  0 
 32 37  1  0  0  0  0 
 34 38  2  0  0  0  0 
 34 39  1  0  0  0  0 
 36 40  2  0  0  0  0 
 36 41  1  0  0  0  0 
 38 42  1  0  0  0  0 
 39 43  2  0  0  0  0 
 40 44  1  0  0  0  0 
 41 45  2  0  0  0  0 
 42 46  2  0  0  0  0 
 43 46  1  0  0  0  0 
 44 47  2  0  0  0  0 
 45 47  1  0  0  0  0 
  1 48  1  0  0  0  0 
  1 49  1  0  0  0  0 
  5 50  1  0  0  0  0 
  5 51  1  0  0  0  0 
  6 52  1  0  0  0  0 
  7 53  1  0  0  0  0 
  7 54  1  0  0  0  0 
 11 55  1  0  0  0  0 
 13 56  1  0  0  0  0 
 13 57  1  0  0  0  0 
 14 58  1  0  0  0  0 
 15 59  1  0  0  0  0 
 17 60  1  0  0  0  0 
 17 61  1  0  0  0  0 
 18 62  1  0  0  0  0 
 18 63  1  0  0  0  0 
 19 64  1  0  0  0  0 
 19 65  1  0  0  0  0 
 20 66  1  0  0  0  0 
 26 67  1  0  0  0  0 
 27 68  1  0  0  0  0 
 28 69  1  0  0  0  0 
 31 70  1  0  0  0  0 
 37 71  1  0  0  0  0 
 38 72  1  0  0  0  0 
 39 73  1  0  0  0  0 
 40 74  1  0  0  0  0 
 41 75  1  0  0  0  0 
 42 76  1  0  0  0  0 
 44 77  1  0  0  0  0 
 46 78  1  0  0  0  0 
 47 79  1  0  0  0  0 
M  END
> <cdk:Title>
nicomol

> <Conformer>
1

> <SuperDrugID>
SD001712

$$$$
