fluroxene
  CDK     0628171801

 13 12  0  0  0  0  0  0  0  0999 V2000
   -3.6844   -0.7494   -0.4170 F   0  0  0  0  0  0  0  0  0  0  0  0
   -2.7317   -1.7154   -0.6353 C   0  0  2  0  0  0  0  0  0  0  0  0
   -3.1276   -2.4724   -1.7127 F   0  0  0  0  0  0  0  0  0  0  0  0
   -2.6772   -2.5331    0.4674 F   0  0  0  0  0  0  0  0  0  0  0  0
   -1.3526   -1.0725   -0.9085 C   0  0  2  0  0  0  0  0  0  0  0  0
   -0.9312   -0.2921    0.2296 O   0  0  0  0  0  0  0  0  0  0  0  0
    0.2492    0.3156    0.0462 C   0  0  0  0  0  0  0  0  0  0  0  0
    0.3393    1.6479    0.0559 C   0  0  0  0  0  0  0  0  0  0  0  0
   -1.4360   -0.4347   -1.7943 H   0  0  0  0  0  0  0  0  0  0  0  0
   -0.6306   -1.8704   -1.1141 H   0  0  0  0  0  0  0  0  0  0  0  0
    1.0721   -0.2279   -0.0843 H   0  0  0  0  0  0  0  0  0  0  0  0
   -0.4674    2.2075    0.1993 H   0  0  0  0  0  0  0  0  0  0  0  0
    1.2146    2.0923   -0.0864 H   0  0  0  0  0  0  0  0  0  0  0  0
  1  2  1  0  0  0  0 
  2  3  1  0  0  0  0 
  2  4  1  0  0  0  0 
  2  5  1  0  0  0  0 
  5  6  1  0  0  0  0 
  6  7  1  0  0  0  0 
  7  8  2  0  0  0  0 
  5  9  1  0  0  0  0 
  5 10  1  0  0  0  0 
  7 11  1  0  0  0  0 
  8 12  1  0  0  0  0 
  8 13  1  0  0  0  0 
M  END
> <cdk:Title>
fluroxene

> <Conformer>
1

> <SuperDrugID>
SD002804

$$$$
