4-dimethylaminophenol
  CDK     0628171801

 21 21  0  0  0  0  0  0  0  0999 V2000
    1.8205   -0.0357    1.6118 C   0  0  0  0  0  0  0  0  0  0  0  0
    2.9424   -0.4324    0.8626 C   0  0  0  0  0  0  0  0  0  0  0  0
    4.0907   -0.9152    1.5154 C   0  0  0  0  0  0  0  0  0  0  0  0
    4.1155   -0.9903    2.9214 C   0  0  0  0  0  0  0  0  0  0  0  0
    2.9944   -0.5884    3.6708 C   0  0  0  0  0  0  0  0  0  0  0  0
    1.8294   -0.1116    3.0254 C   0  0  0  0  0  0  0  0  0  0  0  0
    5.1553   -1.3165    0.7797 O   0  0  0  0  0  0  0  0  0  0  0  0
    0.7220    0.2703    3.7469 N   0  0  0  0  0  0  0  0  0  0  0  0
    0.8158    1.2913    4.7584 C   0  0  0  0  0  0  0  0  0  0  0  0
   -0.5620   -0.3386    3.4975 C   0  0  0  0  0  0  0  0  0  0  0  0
    0.9950    0.3149    1.1180 H   0  0  0  0  0  0  0  0  0  0  0  0
    2.9205   -0.3733   -0.1572 H   0  0  0  0  0  0  0  0  0  0  0  0
    4.9462   -1.3430    3.4035 H   0  0  0  0  0  0  0  0  0  0  0  0
    3.0279   -0.6511    4.6907 H   0  0  0  0  0  0  0  0  0  0  0  0
    5.7681   -1.7370    1.4198 H   0  0  0  0  0  0  0  0  0  0  0  0
    0.1692    2.1291    4.4925 H   0  0  0  0  0  0  0  0  0  0  0  0
    1.8307    1.6812    4.8788 H   0  0  0  0  0  0  0  0  0  0  0  0
    0.4955    0.8893    5.7208 H   0  0  0  0  0  0  0  0  0  0  0  0
   -1.0164   -0.6706    4.4346 H   0  0  0  0  0  0  0  0  0  0  0  0
   -1.2258    0.3879    3.0243 H   0  0  0  0  0  0  0  0  0  0  0  0
   -0.4899   -1.2144    2.8457 H   0  0  0  0  0  0  0  0  0  0  0  0
  1  2  2  0  0  0  0 
  1  6  1  0  0  0  0 
  2  3  1  0  0  0  0 
  3  4  2  0  0  0  0 
  4  5  1  0  0  0  0 
  5  6  2  0  0  0  0 
  3  7  1  0  0  0  0 
  6  8  1  0  0  0  0 
  8  9  1  0  0  0  0 
  8 10  1  0  0  0  0 
  1 11  1  0  0  0  0 
  2 12  1  0  0  0  0 
  4 13  1  0  0  0  0 
  5 14  1  0  0  0  0 
  7 15  1  0  0  0  0 
  9 16  1  0  0  0  0 
  9 17  1  0  0  0  0 
  9 18  1  0  0  0  0 
 10 19  1  0  0  0  0 
 10 20  1  0  0  0  0 
 10 21  1  0  0  0  0 
M  END
> <cdk:Title>
4-dimethylaminophenol

> <Conformer>
1

> <SuperDrugID>
SD003493

$$$$
