menadiol sodium diphosphate
  CDK     0628171802

 33 34  0  0  0  0  0  0  0  0999 V2000
    0.2914    5.1793   -0.0387 C   0  0  0  0  0  0  0  0  0  0  0  0
   -0.9394    5.2167   -0.7136 C   0  0  0  0  0  0  0  0  0  0  0  0
   -1.6038    4.0210   -1.0276 C   0  0  0  0  0  0  0  0  0  0  0  0
   -1.0184    2.7864   -0.7007 C   0  0  0  0  0  0  0  0  0  0  0  0
    0.2420    2.7318   -0.0537 C   0  0  0  0  0  0  0  0  0  0  0  0
    0.8865    3.9481    0.3286 C   0  0  0  0  0  0  0  0  0  0  0  0
    2.1086    3.9124    1.0568 C   0  0  0  0  0  0  0  0  0  0  0  0
    0.8775    1.4940    0.2130 C   0  0  0  0  0  0  0  0  0  0  0  0
    2.1033    1.4786    0.9071 C   0  0  0  0  0  0  0  0  0  0  0  0
    2.7452    2.6690    1.3091 C   0  0  0  0  0  0  0  0  0  0  0  0
    4.0700    2.5676    1.9762 C   0  0  0  0  0  0  0  0  0  0  0  0
    2.7041    5.0792    1.4814 O   0  0  0  0  0  0  0  0  0  0  0  0
    0.3249    0.2952   -0.1702 O   0  0  0  0  0  0  0  0  0  0  0  0
    0.8428   -0.2070   -1.5975 P   0  0  2  0  0  0  0  0  0  0  0  0
    2.2297    5.5860    2.9245 P   0  0  2  0  0  0  0  0  0  0  0  0
    0.7875    5.8513    2.9666 O   0  0  0  0  0  0  0  0  0  0  0  0
    3.0210    6.9254    3.2329 O   0  0  0  0  0  0  0  0  0  0  0  0
    2.6142    4.5329    4.0434 O   0  0  0  0  0  0  0  0  0  0  0  0
    0.5146    0.7497   -2.6601 O   0  0  0  0  0  0  0  0  0  0  0  0
    0.1391   -1.5944   -1.9012 O   0  0  0  0  0  0  0  0  0  0  0  0
    2.4062   -0.4570   -1.5467 O   0  0  0  0  0  0  0  0  0  0  0  0
    0.7500    6.0679    0.1756 H   0  0  0  0  0  0  0  0  0  0  0  0
   -1.3497    6.1159   -0.9743 H   0  0  0  0  0  0  0  0  0  0  0  0
   -2.5106    4.0491   -1.5005 H   0  0  0  0  0  0  0  0  0  0  0  0
   -1.5253    1.9315   -0.9473 H   0  0  0  0  0  0  0  0  0  0  0  0
    2.5355    0.5740    1.1073 H   0  0  0  0  0  0  0  0  0  0  0  0
    3.9320    2.2647    3.0151 H   0  0  0  0  0  0  0  0  0  0  0  0
    4.6161    3.5113    1.9593 H   0  0  0  0  0  0  0  0  0  0  0  0
    4.6955    1.8269    1.4737 H   0  0  0  0  0  0  0  0  0  0  0  0
    3.9669    6.6701    3.2161 H   0  0  0  0  0  0  0  0  0  0  0  0
    3.5926    4.4854    4.0218 H   0  0  0  0  0  0  0  0  0  0  0  0
    0.4139   -2.1838   -1.1686 H   0  0  0  0  0  0  0  0  0  0  0  0
    2.5233   -1.1415   -0.8563 H   0  0  0  0  0  0  0  0  0  0  0  0
  1  2  1  0  0  0  0 
  1  6  2  0  0  0  0 
  2  3  2  0  0  0  0 
  3  4  1  0  0  0  0 
  4  5  2  0  0  0  0 
  5  6  1  0  0  0  0 
  8  9  2  0  0  0  0 
  9 10  1  0  0  0  0 
  7 10  2  0  0  0  0 
  5  8  1  0  0  0  0 
  7  6  1  0  0  0  0 
 10 11  1  0  0  0  0 
  7 12  1  0  0  0  0 
  8 13  1  0  0  0  0 
 13 14  1  0  0  0  0 
 12 15  1  0  0  0  0 
 15 16  2  0  0  0  0 
 15 17  1  0  0  0  0 
 15 18  1  0  0  0  0 
 14 19  2  0  0  0  0 
 14 20  1  0  0  0  0 
 14 21  1  0  0  0  0 
  1 22  1  0  0  0  0 
  2 23  1  0  0  0  0 
  3 24  1  0  0  0  0 
  4 25  1  0  0  0  0 
  9 26  1  0  0  0  0 
 11 27  1  0  0  0  0 
 11 28  1  0  0  0  0 
 11 29  1  0  0  0  0 
 17 30  1  0  0  0  0 
 18 31  1  0  0  0  0 
 20 32  1  0  0  0  0 
 21 33  1  0  0  0  0 
M  END
> <cdk:Title>
menadiol sodium diphosphate

> <Conformer>
1

> <SuperDrugID>
SD003881

$$$$
