hydroxyproline
  CDK     0628171801

 18 18  0  0  0  0  0  0  0  0999 V2000
   -1.3971   -1.0362    0.2699 C   0  0  0  0  0  0  0  0  0  0  0  0
   -1.5928   -2.1308    1.0386 O   0  0  0  0  0  0  0  0  0  0  0  0
   -0.8150   -0.0493    0.7725 O   0  0  0  0  0  0  0  0  0  0  0  0
   -1.8670   -1.0131   -1.1280 C   0  0  2  0  0  0  0  0  0  0  0  0
   -0.7423   -0.8183   -2.1684 C   0  0  1  0  0  0  0  0  0  0  0  0
   -2.8390    0.0755   -1.3384 N   0  0  1  0  0  0  0  0  0  0  0  0
   -1.4806   -0.1549   -3.3389 C   0  0  2  0  0  0  0  0  0  0  0  0
   -2.5156    0.7294   -2.6197 C   0  0  2  0  0  0  0  0  0  0  0  0
   -2.1238   -1.1306   -4.1565 O   0  0  0  0  0  0  0  0  0  0  0  0
   -1.2704   -2.1500    1.9645 H   0  0  0  0  0  0  0  0  0  0  0  0
   -2.3797   -1.9554   -1.3479 H   0  0  0  0  0  0  0  0  0  0  0  0
    0.0383   -0.1449   -1.8006 H   0  0  0  0  0  0  0  0  0  0  0  0
   -0.2830   -1.7678   -2.4576 H   0  0  0  0  0  0  0  0  0  0  0  0
   -3.7559   -0.3641   -1.4451 H   0  0  0  0  0  0  0  0  0  0  0  0
   -0.8024    0.4388   -3.9555 H   0  0  0  0  0  0  0  0  0  0  0  0
   -2.0864    1.7108   -2.4040 H   0  0  0  0  0  0  0  0  0  0  0  0
   -3.4191    0.8660   -3.2185 H   0  0  0  0  0  0  0  0  0  0  0  0
   -2.6278   -0.6130   -4.8194 H   0  0  0  0  0  0  0  0  0  0  0  0
  1  2  1  0  0  0  0 
  1  3  2  0  0  0  0 
  4  1  1  0  0  0  0 
  4  5  1  0  0  0  0 
  4  6  1  0  0  0  0 
  7  5  1  0  0  0  0 
  6  8  1  0  0  0  0 
  7  8  1  0  0  0  0 
  7  9  1  0  0  0  0 
  2 10  1  0  0  0  0 
  4 11  1  0  0  0  0 
  5 12  1  0  0  0  0 
  5 13  1  0  0  0  0 
  6 14  1  0  0  0  0 
  7 15  1  0  0  0  0 
  8 16  1  0  0  0  0 
  8 17  1  0  0  0  0 
  9 18  1  0  0  0  0 
M  END
> <cdk:Title>
hydroxyproline

> <Conformer>
1

> <SuperDrugID>
SD003467

$$$$
