temoporfin
  CDK     0628171801

 84 92  0  0  0  0  0  0  0  0999 V2000
  -13.2546    1.1462   -5.0146 O   0  0  0  0  0  0  0  0  0  0  0  0
  -12.8799    0.8983   -3.7358 C   0  0  0  0  0  0  0  0  0  0  0  0
  -11.5250    0.6840   -3.4158 C   0  0  0  0  0  0  0  0  0  0  0  0
  -13.8564    0.8486   -2.7241 C   0  0  0  0  0  0  0  0  0  0  0  0
  -11.1411    0.4071   -2.0832 C   0  0  0  0  0  0  0  0  0  0  0  0
  -13.4818    0.5873   -1.3944 C   0  0  0  0  0  0  0  0  0  0  0  0
   -9.7768    0.1523   -1.7542 C   0  0  0  0  0  0  0  0  0  0  0  0
  -12.1295    0.3727   -1.0731 C   0  0  0  0  0  0  0  0  0  0  0  0
   -9.0301    1.2185   -1.1953 C   0  0  0  0  0  0  0  0  0  0  0  0
   -9.2883   -1.1563   -2.0034 C   0  0  0  0  0  0  0  0  0  0  0  0
   -7.7390    1.2238   -0.7824 N   0  0  0  0  0  0  0  0  0  0  0  0
   -9.5336    2.5023   -0.9736 C   0  0  0  0  0  0  0  0  0  0  0  0
   -8.0534   -1.6334   -1.7352 N   0  0  0  0  0  0  0  0  0  0  0  0
  -10.1203   -2.2100   -2.6204 C   0  0  2  0  0  0  0  0  0  0  0  0
   -7.3967    2.4474   -0.3058 C   0  0  0  0  0  0  0  0  0  0  0  0
   -8.5288    3.2556   -0.4188 C   0  0  0  0  0  0  0  0  0  0  0  0
   -7.9297   -2.9303   -2.0933 C   0  0  0  0  0  0  0  0  0  0  0  0
   -9.2003   -3.4250   -2.6542 C   0  0  2  0  0  0  0  0  0  0  0  0
   -6.1505    2.8746    0.2177 C   0  0  0  0  0  0  0  0  0  0  0  0
   -6.7812   -3.7549   -1.9676 C   0  0  0  0  0  0  0  0  0  0  0  0
   -5.0101    2.0420    0.3192 C   0  0  0  0  0  0  0  0  0  0  0  0
   -6.0414    4.2256    0.6665 C   0  0  0  0  0  0  0  0  0  0  0  0
   -5.5363   -3.3433   -1.4336 C   0  0  0  0  0  0  0  0  0  0  0  0
   -6.8946   -5.1023   -2.4207 C   0  0  0  0  0  0  0  0  0  0  0  0
   -4.8861    0.7423   -0.0295 N   0  0  0  0  0  0  0  0  0  0  0  0
   -3.7639    2.4270    0.8139 C   0  0  0  0  0  0  0  0  0  0  0  0
   -5.8070    5.2702   -0.2584 C   0  0  0  0  0  0  0  0  0  0  0  0
   -6.1974    4.5456    2.0360 C   0  0  0  0  0  0  0  0  0  0  0  0
   -5.1691   -2.1281   -0.9656 N   0  0  0  0  0  0  0  0  0  0  0  0
   -4.4117   -4.1585   -1.2983 C   0  0  0  0  0  0  0  0  0  0  0  0
   -7.3759   -6.1084   -1.5515 C   0  0  0  0  0  0  0  0  0  0  0  0
   -6.5626   -5.4424   -3.7533 C   0  0  0  0  0  0  0  0  0  0  0  0
   -3.6437    0.2655    0.2152 C   0  0  0  0  0  0  0  0  0  0  0  0
   -2.9273    1.3343    0.7570 C   0  0  0  0  0  0  0  0  0  0  0  0
   -5.7582    6.6105    0.1722 C   0  0  0  0  0  0  0  0  0  0  0  0
   -6.1408    5.8853    2.4671 C   0  0  0  0  0  0  0  0  0  0  0  0
   -3.8802   -2.1086   -0.5493 C   0  0  0  0  0  0  0  0  0  0  0  0
   -3.3940   -3.3987   -0.7697 C   0  0  0  0  0  0  0  0  0  0  0  0
   -7.5546   -7.4255   -2.0174 C   0  0  0  0  0  0  0  0  0  0  0  0
   -6.7336   -6.7606   -4.2163 C   0  0  0  0  0  0  0  0  0  0  0  0
   -3.1284   -1.0350   -0.0079 C   0  0  0  0  0  0  0  0  0  0  0  0
   -5.5569    7.5974   -0.7344 O   0  0  0  0  0  0  0  0  0  0  0  0
   -5.9258    6.9182    1.5362 C   0  0  0  0  0  0  0  0  0  0  0  0
   -8.0556   -8.3687   -1.1830 O   0  0  0  0  0  0  0  0  0  0  0  0
   -7.2311   -7.7499   -3.3492 C   0  0  0  0  0  0  0  0  0  0  0  0
   -1.7619   -1.2841    0.3276 C   0  0  0  0  0  0  0  0  0  0  0  0
   -1.4244   -2.0479    1.4709 C   0  0  0  0  0  0  0  0  0  0  0  0
   -0.7245   -0.7801   -0.4910 C   0  0  0  0  0  0  0  0  0  0  0  0
   -0.0750   -2.3181    1.7788 C   0  0  0  0  0  0  0  0  0  0  0  0
    0.6215   -1.0497   -0.1834 C   0  0  0  0  0  0  0  0  0  0  0  0
    0.2548   -3.0553    2.8684 O   0  0  0  0  0  0  0  0  0  0  0  0
    0.9455   -1.8189    0.9483 C   0  0  0  0  0  0  0  0  0  0  0  0
  -12.4224    1.2913   -5.5073 H   0  0  0  0  0  0  0  0  0  0  0  0
  -10.8230    0.7191   -4.1609 H   0  0  0  0  0  0  0  0  0  0  0  0
  -14.8394    1.0044   -2.9537 H   0  0  0  0  0  0  0  0  0  0  0  0
  -14.1928    0.5567   -0.6602 H   0  0  0  0  0  0  0  0  0  0  0  0
  -11.8683    0.1932   -0.0998 H   0  0  0  0  0  0  0  0  0  0  0  0
  -10.4733    2.8503   -1.1788 H   0  0  0  0  0  0  0  0  0  0  0  0
  -10.4236   -1.9299   -3.6336 H   0  0  0  0  0  0  0  0  0  0  0  0
  -11.0084   -2.4231   -2.0186 H   0  0  0  0  0  0  0  0  0  0  0  0
   -8.6211    4.2357   -0.1484 H   0  0  0  0  0  0  0  0  0  0  0  0
   -9.0660   -3.7866   -3.6771 H   0  0  0  0  0  0  0  0  0  0  0  0
   -9.6085   -4.2220   -2.0285 H   0  0  0  0  0  0  0  0  0  0  0  0
   -5.6031    0.2189   -0.4095 H   0  0  0  0  0  0  0  0  0  0  0  0
   -3.4941    3.3483    1.1604 H   0  0  0  0  0  0  0  0  0  0  0  0
   -5.6810    5.0614   -1.2523 H   0  0  0  0  0  0  0  0  0  0  0  0
   -6.3605    3.8083    2.7267 H   0  0  0  0  0  0  0  0  0  0  0  0
   -5.7596   -1.3641   -0.9389 H   0  0  0  0  0  0  0  0  0  0  0  0
   -4.3301   -5.1464   -1.5424 H   0  0  0  0  0  0  0  0  0  0  0  0
   -7.6125   -5.8830   -0.5806 H   0  0  0  0  0  0  0  0  0  0  0  0
   -6.2040   -4.7323   -4.3973 H   0  0  0  0  0  0  0  0  0  0  0  0
   -1.9529    1.3306    1.0645 H   0  0  0  0  0  0  0  0  0  0  0  0
   -6.2610    6.1100    3.4585 H   0  0  0  0  0  0  0  0  0  0  0  0
   -2.4526   -3.7467   -0.5830 H   0  0  0  0  0  0  0  0  0  0  0  0
   -6.5035   -6.9991   -5.1847 H   0  0  0  0  0  0  0  0  0  0  0  0
   -6.2900    8.2312   -0.5872 H   0  0  0  0  0  0  0  0  0  0  0  0
   -5.8896    7.8907    1.8533 H   0  0  0  0  0  0  0  0  0  0  0  0
   -8.5782   -8.9679   -1.7548 H   0  0  0  0  0  0  0  0  0  0  0  0
   -7.3586   -8.7056   -3.6888 H   0  0  0  0  0  0  0  0  0  0  0  0
   -2.1606   -2.4161    2.0812 H   0  0  0  0  0  0  0  0  0  0  0  0
   -0.9448   -0.2150   -1.3155 H   0  0  0  0  0  0  0  0  0  0  0  0
    1.3658   -0.6860   -0.7827 H   0  0  0  0  0  0  0  0  0  0  0  0
   -0.5728   -3.1381    3.3824 H   0  0  0  0  0  0  0  0  0  0  0  0
    1.9265   -2.0112    1.1680 H   0  0  0  0  0  0  0  0  0  0  0  0
  1  2  1  0  0  0  0 
  2  3  2  0  0  0  0 
  2  4  1  0  0  0  0 
  3  5  1  0  0  0  0 
  4  6  2  0  0  0  0 
  5  7  1  0  0  0  0 
  5  8  2  0  0  0  0 
  6  8  1  0  0  0  0 
  7  9  1  0  0  0  0 
  7 10  2  0  0  0  0 
  9 11  2  0  0  0  0 
  9 12  1  0  0  0  0 
 10 13  1  0  0  0  0 
 10 14  1  0  0  0  0 
 11 15  1  0  0  0  0 
 12 16  2  0  0  0  0 
 13 17  2  0  0  0  0 
 14 18  1  0  0  0  0 
 15 16  1  0  0  0  0 
 15 19  2  0  0  0  0 
 17 18  1  0  0  0  0 
 17 20  1  0  0  0  0 
 19 21  1  0  0  0  0 
 19 22  1  0  0  0  0 
 20 23  2  0  0  0  0 
 20 24  1  0  0  0  0 
 21 25  1  0  0  0  0 
 21 26  2  0  0  0  0 
 22 27  2  0  0  0  0 
 22 28  1  0  0  0  0 
 23 29  1  0  0  0  0 
 23 30  1  0  0  0  0 
 24 31  2  0  0  0  0 
 24 32  1  0  0  0  0 
 25 33  1  0  0  0  0 
 26 34  1  0  0  0  0 
 27 35  1  0  0  0  0 
 28 36  2  0  0  0  0 
 29 37  1  0  0  0  0 
 30 38  2  0  0  0  0 
 31 39  1  0  0  0  0 
 32 40  2  0  0  0  0 
 33 34  2  0  0  0  0 
 33 41  1  0  0  0  0 
 35 42  1  0  0  0  0 
 35 43  2  0  0  0  0 
 36 43  1  0  0  0  0 
 37 38  1  0  0  0  0 
 37 41  2  0  0  0  0 
 39 44  1  0  0  0  0 
 39 45  2  0  0  0  0 
 40 45  1  0  0  0  0 
 41 46  1  0  0  0  0 
 46 47  2  0  0  0  0 
 46 48  1  0  0  0  0 
 47 49  1  0  0  0  0 
 48 50  2  0  0  0  0 
 49 51  1  0  0  0  0 
 49 52  2  0  0  0  0 
 50 52  1  0  0  0  0 
 53  1  1  0  0  0  0 
 54  3  1  0  0  0  0 
 55  4  1  0  0  0  0 
 56  6  1  0  0  0  0 
 57  8  1  0  0  0  0 
 58 12  1  0  0  0  0 
 59 14  1  0  0  0  0 
 60 14  1  0  0  0  0 
 61 16  1  0  0  0  0 
 62 18  1  0  0  0  0 
 63 18  1  0  0  0  0 
 64 25  1  0  0  0  0 
 65 26  1  0  0  0  0 
 66 27  1  0  0  0  0 
 67 28  1  0  0  0  0 
 68 29  1  0  0  0  0 
 69 30  1  0  0  0  0 
 70 31  1  0  0  0  0 
 71 32  1  0  0  0  0 
 72 34  1  0  0  0  0 
 73 36  1  0  0  0  0 
 74 38  1  0  0  0  0 
 75 40  1  0  0  0  0 
 76 42  1  0  0  0  0 
 77 43  1  0  0  0  0 
 78 44  1  0  0  0  0 
 79 45  1  0  0  0  0 
 80 47  1  0  0  0  0 
 81 48  1  0  0  0  0 
 82 50  1  0  0  0  0 
 83 51  1  0  0  0  0 
 84 52  1  0  0  0  0 
M  END
> <cdk:Title>
temoporfin

> <Conformer>
1

> <SuperDrugID>
SD002327

$$$$
