meobentine
  CDK     0628171801

 32 32  0  0  0  0  0  0  0  0999 V2000
   -2.2629    3.6575   -0.4316 C   0  0  1  0  0  0  0  0  0  0  0  0
   -1.5089    4.8310   -0.4682 N   0  0  0  0  0  0  0  0  0  0  0  0
   -1.3696    2.4868   -0.2544 C   0  0  0  0  0  0  0  0  0  0  0  0
   -1.8678    6.0313   -0.7749 C   0  0  0  0  0  0  0  0  0  0  0  0
   -1.2691    1.8229    0.9898 C   0  0  0  0  0  0  0  0  0  0  0  0
   -0.6111    2.0014   -1.3461 C   0  0  0  0  0  0  0  0  0  0  0  0
   -0.9802    7.0309   -0.7133 N   0  0  0  0  0  0  0  0  0  0  0  0
   -3.1250    6.2781   -1.1639 N   0  0  0  0  0  0  0  0  0  0  0  0
   -0.4394    0.6962    1.1326 C   0  0  0  0  0  0  0  0  0  0  0  0
    0.2111    0.8700   -1.2041 C   0  0  0  0  0  0  0  0  0  0  0  0
    0.3717    6.9480   -0.2670 C   0  0  0  0  0  0  0  0  0  0  0  0
    0.2926    0.2041    0.0349 C   0  0  0  0  0  0  0  0  0  0  0  0
    1.0782   -0.9070    0.1828 O   0  0  0  0  0  0  0  0  0  0  0  0
    0.3923   -2.1114   -0.1997 C   0  0  0  0  0  0  0  0  0  0  0  0
   -3.6314    7.5236   -1.6385 C   0  0  0  0  0  0  0  0  0  0  0  0
   -2.9852    3.7263    0.3866 H   0  0  0  0  0  0  0  0  0  0  0  0
   -2.8264    3.5259   -1.3594 H   0  0  0  0  0  0  0  0  0  0  0  0
   -1.8016    2.1505    1.7998 H   0  0  0  0  0  0  0  0  0  0  0  0
   -0.6623    2.4634   -2.2583 H   0  0  0  0  0  0  0  0  0  0  0  0
   -1.2814    7.9077   -0.9981 H   0  0  0  0  0  0  0  0  0  0  0  0
   -3.7468    5.5329   -1.1612 H   0  0  0  0  0  0  0  0  0  0  0  0
   -0.3765    0.2300    2.0399 H   0  0  0  0  0  0  0  0  0  0  0  0
    0.7404    0.5245   -2.0078 H   0  0  0  0  0  0  0  0  0  0  0  0
    0.9541    6.3102   -0.9326 H   0  0  0  0  0  0  0  0  0  0  0  0
    0.7992    7.9516   -0.2812 H   0  0  0  0  0  0  0  0  0  0  0  0
    0.4275    6.5619    0.7538 H   0  0  0  0  0  0  0  0  0  0  0  0
    1.0347   -2.9592    0.0360 H   0  0  0  0  0  0  0  0  0  0  0  0
   -0.5450   -2.2368    0.3484 H   0  0  0  0  0  0  0  0  0  0  0  0
    0.1924   -2.1217   -1.2744 H   0  0  0  0  0  0  0  0  0  0  0  0
   -3.4427    8.3296   -0.9284 H   0  0  0  0  0  0  0  0  0  0  0  0
   -4.7085    7.4348   -1.7767 H   0  0  0  0  0  0  0  0  0  0  0  0
   -3.1744    7.7707   -2.5966 H   0  0  0  0  0  0  0  0  0  0  0  0
  1  2  1  0  0  0  0 
  1  3  1  0  0  0  0 
  2  4  2  0  0  0  0 
  3  5  2  0  0  0  0 
  3  6  1  0  0  0  0 
  4  7  1  0  0  0  0 
  4  8  1  0  0  0  0 
  5  9  1  0  0  0  0 
  6 10  2  0  0  0  0 
  7 11  1  0  0  0  0 
  9 12  2  0  0  0  0 
 10 12  1  0  0  0  0 
 12 13  1  0  0  0  0 
 13 14  1  0  0  0  0 
  8 15  1  0  0  0  0 
 16  1  1  0  0  0  0 
 17  1  1  0  0  0  0 
 18  5  1  0  0  0  0 
 19  6  1  0  0  0  0 
 20  7  1  0  0  0  0 
 21  8  1  0  0  0  0 
 22  9  1  0  0  0  0 
 23 10  1  0  0  0  0 
 24 11  1  0  0  0  0 
 25 11  1  0  0  0  0 
 26 11  1  0  0  0  0 
 27 14  1  0  0  0  0 
 28 14  1  0  0  0  0 
 29 14  1  0  0  0  0 
 30 15  1  0  0  0  0 
 31 15  1  0  0  0  0 
 32 15  1  0  0  0  0 
M  END
> <cdk:Title>
meobentine

> <Conformer>
1

> <SuperDrugID>
SD002882

$$$$
