glycerol phenylbutyrate
  CDK     0628171802

 77 79  0  0  0  0  0  0  0  0999 V2000
   -5.4571    1.6555    2.0032 C   0  0  1  0  0  0  0  0  0  0  0  0
   -4.7748    0.5514    1.3815 O   0  0  0  0  0  0  0  0  0  0  0  0
   -6.9670    1.3265    1.9917 C   0  0  1  0  0  0  0  0  0  0  0  0
   -4.8877    1.9448    3.4254 C   0  0  1  0  0  0  0  0  0  0  0  0
   -3.6482    0.5952    0.6118 C   0  0  0  0  0  0  0  0  0  0  0  0
   -7.2178    0.1005    2.6912 O   0  0  0  0  0  0  0  0  0  0  0  0
   -4.2865    3.2474    3.4625 O   0  0  0  0  0  0  0  0  0  0  0  0
   -3.1163   -0.6527    0.0335 C   0  0  2  0  0  0  0  0  0  0  0  0
   -3.0493    1.6764    0.4005 O   0  0  0  0  0  0  0  0  0  0  0  0
   -8.4403   -0.4706    2.8891 C   0  0  0  0  0  0  0  0  0  0  0  0
   -2.9726    3.5679    3.6495 C   0  0  0  0  0  0  0  0  0  0  0  0
   -1.7908   -1.0758    0.7211 C   0  0  2  0  0  0  0  0  0  0  0  0
   -8.5226   -1.7777    3.5661 C   0  0  2  0  0  0  0  0  0  0  0  0
   -9.4901    0.0960    2.5030 O   0  0  0  0  0  0  0  0  0  0  0  0
   -2.5777    4.9895    3.6938 C   0  0  2  0  0  0  0  0  0  0  0  0
   -2.0995    2.6770    3.7729 O   0  0  0  0  0  0  0  0  0  0  0  0
   -1.1986   -2.4067    0.1784 C   0  0  1  0  0  0  0  0  0  0  0  0
   -8.1119   -1.6965    5.0597 C   0  0  1  0  0  0  0  0  0  0  0  0
   -1.8933    5.3776    2.3160 C   0  0  1  0  0  0  0  0  0  0  0  0
   -0.8925   -2.3857   -1.2823 C   0  0  0  0  0  0  0  0  0  0  0  0
   -8.4129   -3.0253    5.8049 C   0  0  1  0  0  0  0  0  0  0  0  0
   -1.4873    6.8752    2.2939 C   0  0  1  0  0  0  0  0  0  0  0  0
   -1.5535   -3.2640   -2.1740 C   0  0  0  0  0  0  0  0  0  0  0  0
    0.0546   -1.4743   -1.8111 C   0  0  0  0  0  0  0  0  0  0  0  0
   -7.9824   -2.9788    7.2271 C   0  0  0  0  0  0  0  0  0  0  0  0
   -0.7151    7.2465    1.0758 C   0  0  0  0  0  0  0  0  0  0  0  0
   -1.2840   -3.2262   -3.5548 C   0  0  0  0  0  0  0  0  0  0  0  0
    0.3103   -1.4237   -3.1942 C   0  0  0  0  0  0  0  0  0  0  0  0
   -6.6322   -3.2237    7.5721 C   0  0  0  0  0  0  0  0  0  0  0  0
   -8.9055   -2.6827    8.2584 C   0  0  0  0  0  0  0  0  0  0  0  0
    0.6883    7.4272    1.1319 C   0  0  0  0  0  0  0  0  0  0  0  0
   -1.3729    7.4399   -0.1628 C   0  0  0  0  0  0  0  0  0  0  0  0
   -0.3535   -2.3043   -4.0657 C   0  0  0  0  0  0  0  0  0  0  0  0
   -6.2182   -3.1820    8.9161 C   0  0  0  0  0  0  0  0  0  0  0  0
   -8.4897   -2.6391    9.6018 C   0  0  0  0  0  0  0  0  0  0  0  0
    1.4113    7.8058   -0.0147 C   0  0  0  0  0  0  0  0  0  0  0  0
   -0.6508    7.8230   -1.3095 C   0  0  0  0  0  0  0  0  0  0  0  0
   -7.1479   -2.8982    9.9323 C   0  0  0  0  0  0  0  0  0  0  0  0
    0.7414    8.0092   -1.2347 C   0  0  0  0  0  0  0  0  0  0  0  0
   -5.3303    2.5467    1.3799 H   0  0  0  0  0  0  0  0  0  0  0  0
   -7.5277    2.1490    2.4446 H   0  0  0  0  0  0  0  0  0  0  0  0
   -7.2936    1.2177    0.9546 H   0  0  0  0  0  0  0  0  0  0  0  0
   -5.6762    1.9465    4.1807 H   0  0  0  0  0  0  0  0  0  0  0  0
   -4.1721    1.1692    3.7084 H   0  0  0  0  0  0  0  0  0  0  0  0
   -2.9556   -0.4908   -1.0355 H   0  0  0  0  0  0  0  0  0  0  0  0
   -3.8506   -1.4565    0.1419 H   0  0  0  0  0  0  0  0  0  0  0  0
   -1.9755   -1.1964    1.7944 H   0  0  0  0  0  0  0  0  0  0  0  0
   -1.0530   -0.2774    0.6035 H   0  0  0  0  0  0  0  0  0  0  0  0
   -7.8603   -2.4764    3.0475 H   0  0  0  0  0  0  0  0  0  0  0  0
   -9.5442   -2.1648    3.4887 H   0  0  0  0  0  0  0  0  0  0  0  0
   -1.7569    5.0602    4.4757 H   0  0  0  0  0  0  0  0  0  0  0  0
   -3.5516    5.5772    3.9456 H   0  0  0  0  0  0  0  0  0  0  0  0
   -0.2762   -2.6216    0.7233 H   0  0  0  0  0  0  0  0  0  0  0  0
   -1.9003   -3.2119    0.4217 H   0  0  0  0  0  0  0  0  0  0  0  0
   -7.0416   -1.4762    5.1245 H   0  0  0  0  0  0  0  0  0  0  0  0
   -8.6586   -0.8803    5.5444 H   0  0  0  0  0  0  0  0  0  0  0  0
   -1.0037    4.7548    2.1613 H   0  0  0  0  0  0  0  0  0  0  0  0
   -2.5947    5.1856    1.4956 H   0  0  0  0  0  0  0  0  0  0  0  0
   -9.4875   -3.2249    5.7443 H   0  0  0  0  0  0  0  0  0  0  0  0
   -7.9085   -3.8540    5.2971 H   0  0  0  0  0  0  0  0  0  0  0  0
   -2.3833    7.5014    2.3545 H   0  0  0  0  0  0  0  0  0  0  0  0
   -0.8954    7.0862    3.1884 H   0  0  0  0  0  0  0  0  0  0  0  0
   -2.2419   -3.9354   -1.8241 H   0  0  0  0  0  0  0  0  0  0  0  0
    0.5615   -0.8338   -1.1952 H   0  0  0  0  0  0  0  0  0  0  0  0
   -1.7705   -3.8660   -4.1852 H   0  0  0  0  0  0  0  0  0  0  0  0
    0.9778   -0.7437   -3.5654 H   0  0  0  0  0  0  0  0  0  0  0  0
   -5.9429   -3.4388    6.8468 H   0  0  0  0  0  0  0  0  0  0  0  0
   -9.8872   -2.4956    8.0388 H   0  0  0  0  0  0  0  0  0  0  0  0
    1.1961    7.2858    2.0087 H   0  0  0  0  0  0  0  0  0  0  0  0
   -2.3850    7.3121   -0.2358 H   0  0  0  0  0  0  0  0  0  0  0  0
   -0.1637   -2.2734   -5.0694 H   0  0  0  0  0  0  0  0  0  0  0  0
   -5.2402   -3.3590    9.1536 H   0  0  0  0  0  0  0  0  0  0  0  0
   -9.1638   -2.4184   10.3382 H   0  0  0  0  0  0  0  0  0  0  0  0
    2.4244    7.9355    0.0396 H   0  0  0  0  0  0  0  0  0  0  0  0
   -1.1381    7.9696   -2.1974 H   0  0  0  0  0  0  0  0  0  0  0  0
   -6.8483   -2.8795   10.9100 H   0  0  0  0  0  0  0  0  0  0  0  0
    1.2655    8.2943   -2.0666 H   0  0  0  0  0  0  0  0  0  0  0  0
  1  2  1  0  0  0  0 
  1  3  1  0  0  0  0 
  1  4  1  0  0  0  0 
  2  5  1  0  0  0  0 
  3  6  1  0  0  0  0 
  4  7  1  0  0  0  0 
  5  8  1  0  0  0  0 
  5  9  2  0  0  0  0 
  6 10  1  0  0  0  0 
  7 11  1  0  0  0  0 
  8 12  1  0  0  0  0 
 10 13  1  0  0  0  0 
 10 14  2  0  0  0  0 
 11 15  1  0  0  0  0 
 11 16  2  0  0  0  0 
 12 17  1  0  0  0  0 
 13 18  1  0  0  0  0 
 15 19  1  0  0  0  0 
 17 20  1  0  0  0  0 
 18 21  1  0  0  0  0 
 19 22  1  0  0  0  0 
 20 23  2  0  0  0  0 
 20 24  1  0  0  0  0 
 21 25  1  0  0  0  0 
 22 26  1  0  0  0  0 
 23 27  1  0  0  0  0 
 24 28  2  0  0  0  0 
 25 29  2  0  0  0  0 
 25 30  1  0  0  0  0 
 26 31  2  0  0  0  0 
 26 32  1  0  0  0  0 
 27 33  2  0  0  0  0 
 28 33  1  0  0  0  0 
 29 34  1  0  0  0  0 
 30 35  2  0  0  0  0 
 31 36  1  0  0  0  0 
 32 37  2  0  0  0  0 
 34 38  2  0  0  0  0 
 35 38  1  0  0  0  0 
 36 39  2  0  0  0  0 
 37 39  1  0  0  0  0 
  1 40  1  0  0  0  0 
  3 41  1  0  0  0  0 
  3 42  1  0  0  0  0 
  4 43  1  0  0  0  0 
  4 44  1  0  0  0  0 
  8 45  1  0  0  0  0 
  8 46  1  0  0  0  0 
 12 47  1  0  0  0  0 
 12 48  1  0  0  0  0 
 13 49  1  0  0  0  0 
 13 50  1  0  0  0  0 
 15 51  1  0  0  0  0 
 15 52  1  0  0  0  0 
 17 53  1  0  0  0  0 
 17 54  1  0  0  0  0 
 18 55  1  0  0  0  0 
 18 56  1  0  0  0  0 
 19 57  1  0  0  0  0 
 19 58  1  0  0  0  0 
 21 59  1  0  0  0  0 
 21 60  1  0  0  0  0 
 22 61  1  0  0  0  0 
 22 62  1  0  0  0  0 
 23 63  1  0  0  0  0 
 24 64  1  0  0  0  0 
 27 65  1  0  0  0  0 
 28 66  1  0  0  0  0 
 29 67  1  0  0  0  0 
 30 68  1  0  0  0  0 
 31 69  1  0  0  0  0 
 32 70  1  0  0  0  0 
 33 71  1  0  0  0  0 
 34 72  1  0  0  0  0 
 35 73  1  0  0  0  0 
 36 74  1  0  0  0  0 
 37 75  1  0  0  0  0 
 38 76  1  0  0  0  0 
 39 77  1  0  0  0  0 
M  END
> <cdk:Title>
glycerol phenylbutyrate

> <Conformer>
1

> <SuperDrugID>
SD003742

$$$$
