trimethadione
  CDK     0628171801

 19 19  0  0  0  0  0  0  0  0999 V2000
    0.8525   -0.1843   -1.1521 C   0  0  0  0  0  0  0  0  0  0  0  0
    0.5339   -0.3475    0.2358 N   0  0  0  0  0  0  0  0  0  0  0  0
    0.2119    0.6241    1.1120 C   0  0  0  0  0  0  0  0  0  0  0  0
    0.1390    1.8497    0.8691 O   0  0  0  0  0  0  0  0  0  0  0  0
   -0.0349    0.0999    2.3321 O   0  0  0  0  0  0  0  0  0  0  0  0
    0.1238   -1.3220    2.3199 C   0  0  2  0  0  0  0  0  0  0  0  0
   -1.2306   -1.9910    2.6824 C   0  0  0  0  0  0  0  0  0  0  0  0
    1.2647   -1.7238    3.2911 C   0  0  0  0  0  0  0  0  0  0  0  0
    0.4944   -1.5211    0.9034 C   0  0  0  0  0  0  0  0  0  0  0  0
    0.7407   -2.6407    0.3955 O   0  0  0  0  0  0  0  0  0  0  0  0
    0.7936    0.8584   -1.4709 H   0  0  0  0  0  0  0  0  0  0  0  0
    1.8635   -0.5442   -1.3484 H   0  0  0  0  0  0  0  0  0  0  0  0
    0.1501   -0.7584   -1.7587 H   0  0  0  0  0  0  0  0  0  0  0  0
   -2.0197   -1.6676    1.9990 H   0  0  0  0  0  0  0  0  0  0  0  0
   -1.1536   -3.0788    2.6325 H   0  0  0  0  0  0  0  0  0  0  0  0
   -1.5258   -1.7112    3.6954 H   0  0  0  0  0  0  0  0  0  0  0  0
    1.4477   -2.7997    3.2477 H   0  0  0  0  0  0  0  0  0  0  0  0
    0.9975   -1.4557    4.3158 H   0  0  0  0  0  0  0  0  0  0  0  0
    2.1896   -1.2033    3.0315 H   0  0  0  0  0  0  0  0  0  0  0  0
  1  2  1  0  0  0  0 
  2  3  1  0  0  0  0 
  3  4  2  0  0  0  0 
  3  5  1  0  0  0  0 
  5  6  1  0  0  0  0 
  6  7  1  0  0  0  0 
  6  8  1  0  0  0  0 
  6  9  1  0  0  0  0 
  2  9  1  0  0  0  0 
  9 10  2  0  0  0  0 
  1 11  1  0  0  0  0 
  1 12  1  0  0  0  0 
  1 13  1  0  0  0  0 
  7 14  1  0  0  0  0 
  7 15  1  0  0  0  0 
  7 16  1  0  0  0  0 
  8 17  1  0  0  0  0 
  8 18  1  0  0  0  0 
  8 19  1  0  0  0  0 
M  END
> <cdk:Title>
trimethadione

> <Conformer>
1

> <SuperDrugID>
SD002481

$$$$
