butamben
  CDK     0628171801

 29 29  0  0  0  0  0  0  0  0999 V2000
   -0.0419   -0.7944   -0.3942 C   0  0  0  0  0  0  0  0  0  0  0  0
   -1.2740   -1.3696   -0.5455 O   0  0  0  0  0  0  0  0  0  0  0  0
    0.0258    0.4149   -0.0662 O   0  0  0  0  0  0  0  0  0  0  0  0
    1.1372   -1.5641   -0.6078 C   0  0  0  0  0  0  0  0  0  0  0  0
   -2.5461   -0.7609   -0.2933 C   0  0  2  0  0  0  0  0  0  0  0  0
    2.4225   -0.9668   -0.5706 C   0  0  0  0  0  0  0  0  0  0  0  0
    1.0611   -2.9586   -0.8527 C   0  0  0  0  0  0  0  0  0  0  0  0
   -3.6984   -1.7572   -0.5654 C   0  0  2  0  0  0  0  0  0  0  0  0
    3.5856   -1.7340   -0.7678 C   0  0  0  0  0  0  0  0  0  0  0  0
    2.2239   -3.7269   -1.0493 C   0  0  0  0  0  0  0  0  0  0  0  0
   -3.5266   -3.1195    0.1579 C   0  0  1  0  0  0  0  0  0  0  0  0
    3.4920   -3.1168   -1.0100 C   0  0  0  0  0  0  0  0  0  0  0  0
   -4.7427   -4.0517   -0.0377 C   0  0  0  0  0  0  0  0  0  0  0  0
    4.6097   -3.8421   -1.2076 N   0  0  0  0  0  0  0  0  0  0  0  0
   -2.6642    0.1120   -0.9414 H   0  0  0  0  0  0  0  0  0  0  0  0
   -2.5865   -0.4247    0.7453 H   0  0  0  0  0  0  0  0  0  0  0  0
    2.5287    0.0374   -0.4030 H   0  0  0  0  0  0  0  0  0  0  0  0
    0.1553   -3.4345   -0.8893 H   0  0  0  0  0  0  0  0  0  0  0  0
   -3.7611   -1.9314   -1.6431 H   0  0  0  0  0  0  0  0  0  0  0  0
   -4.6343   -1.2939   -0.2435 H   0  0  0  0  0  0  0  0  0  0  0  0
    4.4995   -1.2771   -0.7397 H   0  0  0  0  0  0  0  0  0  0  0  0
    2.1371   -4.7299   -1.2265 H   0  0  0  0  0  0  0  0  0  0  0  0
   -2.6364   -3.6245   -0.2270 H   0  0  0  0  0  0  0  0  0  0  0  0
   -3.3843   -2.9485    1.2279 H   0  0  0  0  0  0  0  0  0  0  0  0
   -4.5278   -5.0343    0.3861 H   0  0  0  0  0  0  0  0  0  0  0  0
   -4.9715   -4.1744   -1.0983 H   0  0  0  0  0  0  0  0  0  0  0  0
   -5.6168   -3.6388    0.4679 H   0  0  0  0  0  0  0  0  0  0  0  0
    4.5506   -4.7958   -1.3759 H   0  0  0  0  0  0  0  0  0  0  0  0
    5.4763   -3.4064   -1.1873 H   0  0  0  0  0  0  0  0  0  0  0  0
  1  2  1  0  0  0  0 
  1  3  2  0  0  0  0 
  1  4  1  0  0  0  0 
  2  5  1  0  0  0  0 
  4  6  2  0  0  0  0 
  4  7  1  0  0  0  0 
  5  8  1  0  0  0  0 
  6  9  1  0  0  0  0 
  7 10  2  0  0  0  0 
  8 11  1  0  0  0  0 
  9 12  2  0  0  0  0 
 10 12  1  0  0  0  0 
 11 13  1  0  0  0  0 
 12 14  1  0  0  0  0 
  5 15  1  0  0  0  0 
  5 16  1  0  0  0  0 
  6 17  1  0  0  0  0 
  7 18  1  0  0  0  0 
  8 19  1  0  0  0  0 
  8 20  1  0  0  0  0 
  9 21  1  0  0  0  0 
 10 22  1  0  0  0  0 
 11 23  1  0  0  0  0 
 11 24  1  0  0  0  0 
 13 25  1  0  0  0  0 
 13 26  1  0  0  0  0 
 13 27  1  0  0  0  0 
 14 28  1  0  0  0  0 
 14 29  1  0  0  0  0 
M  END
> <cdk:Title>
butamben

> <Conformer>
1

> <SuperDrugID>
SD002650

$$$$
