nifenazone
  CDK     0628171801

 39 41  0  0  0  0  0  0  0  0999 V2000
    1.1747   -3.4617   -0.6751 C   0  0  0  0  0  0  0  0  0  0  0  0
    1.9049   -2.4000   -1.0853 N   0  0  0  0  0  0  0  0  0  0  0  0
    1.1091   -1.5235   -1.6563 N   0  0  0  0  0  0  0  0  0  0  0  0
   -0.1683   -1.9860   -1.6196 C   0  0  0  0  0  0  0  0  0  0  0  0
   -0.1585   -3.2382   -1.0075 C   0  0  0  0  0  0  0  0  0  0  0  0
    3.2631   -2.3019   -0.9088 C   0  0  0  0  0  0  0  0  0  0  0  0
    1.4834   -0.2568   -2.2336 C   0  0  0  0  0  0  0  0  0  0  0  0
   -1.3709   -1.2895   -2.1348 C   0  0  0  0  0  0  0  0  0  0  0  0
   -1.2661   -4.0033   -0.7735 N   0  0  0  0  0  0  0  0  0  0  0  0
   -1.3563   -5.3616   -0.6493 C   0  0  0  0  0  0  0  0  0  0  0  0
   -2.5838   -5.9791   -0.2668 C   0  0  0  0  0  0  0  0  0  0  0  0
   -2.8175   -7.3621   -0.4765 C   0  0  0  0  0  0  0  0  0  0  0  0
   -3.9723   -7.9460   -0.0662 N   0  0  0  0  0  0  0  0  0  0  0  0
   -4.9649   -7.2577    0.5501 C   0  0  0  0  0  0  0  0  0  0  0  0
   -4.8117   -5.8807    0.7756 C   0  0  0  0  0  0  0  0  0  0  0  0
   -3.6234   -5.2494    0.3657 C   0  0  0  0  0  0  0  0  0  0  0  0
   -0.3627   -6.0883   -0.8874 O   0  0  0  0  0  0  0  0  0  0  0  0
    1.6202   -4.4643   -0.0693 O   0  0  0  0  0  0  0  0  0  0  0  0
    3.8228   -2.3159    0.3893 C   0  0  0  0  0  0  0  0  0  0  0  0
    5.2155   -2.2323    0.5688 C   0  0  0  0  0  0  0  0  0  0  0  0
    6.0646   -2.1330   -0.5483 C   0  0  0  0  0  0  0  0  0  0  0  0
    5.5197   -2.1046   -1.8443 C   0  0  0  0  0  0  0  0  0  0  0  0
    4.1267   -2.1920   -2.0232 C   0  0  0  0  0  0  0  0  0  0  0  0
    1.3158   -0.2809   -3.3122 H   0  0  0  0  0  0  0  0  0  0  0  0
    0.8915    0.5496   -1.7991 H   0  0  0  0  0  0  0  0  0  0  0  0
    2.5286   -0.0092   -2.0609 H   0  0  0  0  0  0  0  0  0  0  0  0
   -1.2410   -1.0744   -3.1945 H   0  0  0  0  0  0  0  0  0  0  0  0
   -2.2733   -1.8897   -2.0173 H   0  0  0  0  0  0  0  0  0  0  0  0
   -1.5097   -0.3532   -1.5934 H   0  0  0  0  0  0  0  0  0  0  0  0
   -2.1016   -3.5152   -0.7016 H   0  0  0  0  0  0  0  0  0  0  0  0
   -2.1254   -7.9544   -0.9389 H   0  0  0  0  0  0  0  0  0  0  0  0
   -5.8137   -7.7437    0.8479 H   0  0  0  0  0  0  0  0  0  0  0  0
   -5.5526   -5.3467    1.2373 H   0  0  0  0  0  0  0  0  0  0  0  0
   -3.5265   -4.2493    0.5500 H   0  0  0  0  0  0  0  0  0  0  0  0
    3.2180   -2.3851    1.2103 H   0  0  0  0  0  0  0  0  0  0  0  0
    5.6107   -2.2436    1.5129 H   0  0  0  0  0  0  0  0  0  0  0  0
    7.0766   -2.0804   -0.4176 H   0  0  0  0  0  0  0  0  0  0  0  0
    6.1364   -2.0229   -2.6561 H   0  0  0  0  0  0  0  0  0  0  0  0
    3.7443   -2.1749   -2.9723 H   0  0  0  0  0  0  0  0  0  0  0  0
  1  2  1  0  0  0  0 
  2  3  1  0  0  0  0 
  3  4  1  0  0  0  0 
  4  5  2  0  0  0  0 
  1  5  1  0  0  0  0 
  2  6  1  0  0  0  0 
  3  7  1  0  0  0  0 
  4  8  1  0  0  0  0 
  5  9  1  0  0  0  0 
  9 10  1  0  0  0  0 
 10 11  1  0  0  0  0 
 12 13  1  0  0  0  0 
 13 14  2  0  0  0  0 
 14 15  1  0  0  0  0 
 15 16  2  0  0  0  0 
 11 12  2  0  0  0  0 
 11 16  1  0  0  0  0 
 10 17  2  0  0  0  0 
  1 18  2  0  0  0  0 
 19 20  1  0  0  0  0 
 20 21  2  0  0  0  0 
 21 22  1  0  0  0  0 
 22 23  2  0  0  0  0 
  6 19  2  0  0  0  0 
  6 23  1  0  0  0  0 
  7 24  1  0  0  0  0 
  7 25  1  0  0  0  0 
  7 26  1  0  0  0  0 
  8 27  1  0  0  0  0 
  8 28  1  0  0  0  0 
  8 29  1  0  0  0  0 
  9 30  1  0  0  0  0 
 12 31  1  0  0  0  0 
 14 32  1  0  0  0  0 
 15 33  1  0  0  0  0 
 16 34  1  0  0  0  0 
 19 35  1  0  0  0  0 
 20 36  1  0  0  0  0 
 21 37  1  0  0  0  0 
 22 38  1  0  0  0  0 
 23 39  1  0  0  0  0 
M  END
> <cdk:Title>
nifenazone

> <Conformer>
1

> <SuperDrugID>
SD001719

$$$$
