benzyl nicotinate
  CDK     0628171801

 27 28  0  0  0  0  0  0  0  0999 V2000
    1.2454   -0.3517    0.3926 O   0  0  0  0  0  0  0  0  0  0  0  0
    1.8656    0.6207    0.8826 C   0  0  0  0  0  0  0  0  0  0  0  0
    3.2251    0.5934    0.8023 O   0  0  0  0  0  0  0  0  0  0  0  0
    4.0483    0.1282    1.8764 C   0  0  2  0  0  0  0  0  0  0  0  0
    5.4752    0.2739    1.5078 C   0  0  0  0  0  0  0  0  0  0  0  0
    6.1801    1.4664    1.7987 C   0  0  0  0  0  0  0  0  0  0  0  0
    7.5507    1.5770    1.4988 C   0  0  0  0  0  0  0  0  0  0  0  0
    8.2268    0.5030    0.8928 C   0  0  0  0  0  0  0  0  0  0  0  0
    7.5279   -0.6716    0.5625 C   0  0  0  0  0  0  0  0  0  0  0  0
    6.1577   -0.7825    0.8612 C   0  0  0  0  0  0  0  0  0  0  0  0
    1.1915    1.7207    1.4727 C   0  0  0  0  0  0  0  0  0  0  0  0
   -0.1895    1.6691    1.7834 C   0  0  0  0  0  0  0  0  0  0  0  0
   -0.8204    2.7497    2.4252 C   0  0  0  0  0  0  0  0  0  0  0  0
   -0.0653    3.8918    2.7376 C   0  0  0  0  0  0  0  0  0  0  0  0
    1.2489    3.9394    2.4107 N   0  0  0  0  0  0  0  0  0  0  0  0
    1.8866    2.9107    1.7989 C   0  0  0  0  0  0  0  0  0  0  0  0
    3.8111   -0.9160    2.0981 H   0  0  0  0  0  0  0  0  0  0  0  0
    3.8332    0.7055    2.7807 H   0  0  0  0  0  0  0  0  0  0  0  0
    5.7016    2.2586    2.2362 H   0  0  0  0  0  0  0  0  0  0  0  0
    8.0554    2.4374    1.7236 H   0  0  0  0  0  0  0  0  0  0  0  0
    9.2244    0.5782    0.6867 H   0  0  0  0  0  0  0  0  0  0  0  0
    8.0149   -1.4465    0.1072 H   0  0  0  0  0  0  0  0  0  0  0  0
    5.6615   -1.6413    0.6095 H   0  0  0  0  0  0  0  0  0  0  0  0
   -0.7487    0.8438    1.5561 H   0  0  0  0  0  0  0  0  0  0  0  0
   -1.8123    2.7053    2.6604 H   0  0  0  0  0  0  0  0  0  0  0  0
   -0.4986    4.6883    3.2064 H   0  0  0  0  0  0  0  0  0  0  0  0
    2.8787    3.0219    1.5846 H   0  0  0  0  0  0  0  0  0  0  0  0
  1  2  2  0  0  0  0 
  2  3  1  0  0  0  0 
  3  4  1  0  0  0  0 
  4  5  1  0  0  0  0 
  5  6  2  0  0  0  0 
  6  7  1  0  0  0  0 
  7  8  2  0  0  0  0 
  8  9  1  0  0  0  0 
  9 10  2  0  0  0  0 
  5 10  1  0  0  0  0 
  2 11  1  0  0  0  0 
 11 12  2  0  0  0  0 
 12 13  1  0  0  0  0 
 13 14  2  0  0  0  0 
 14 15  1  0  0  0  0 
 15 16  2  0  0  0  0 
 11 16  1  0  0  0  0 
  4 17  1  0  0  0  0 
  4 18  1  0  0  0  0 
  6 19  1  0  0  0  0 
  7 20  1  0  0  0  0 
  8 21  1  0  0  0  0 
  9 22  1  0  0  0  0 
 10 23  1  0  0  0  0 
 12 24  1  0  0  0  0 
 13 25  1  0  0  0  0 
 14 26  1  0  0  0  0 
 16 27  1  0  0  0  0 
M  END
> <cdk:Title>
benzyl nicotinate

> <Conformer>
1

> <SuperDrugID>
SD002909

$$$$
