galantamine
  CDK     0628171801

 42 45  0  0  0  0  0  0  0  0999 V2000
   -0.2328   -1.7593   -1.4806 O   0  0  0  0  0  0  0  0  0  0  0  0
    0.5751   -2.4261   -2.4669 C   0  0  0  0  0  0  0  0  0  0  0  0
    0.1827   -2.0206   -0.2050 C   0  0  0  0  0  0  0  0  0  0  0  0
    1.1332   -1.1915    0.4153 C   0  0  0  0  0  0  0  0  0  0  0  0
   -0.3474   -3.1030    0.5224 C   0  0  0  0  0  0  0  0  0  0  0  0
    1.5552   -1.4266    1.7249 C   0  0  0  0  0  0  0  0  0  0  0  0
    1.6864   -0.1144   -0.1855 O   0  0  0  0  0  0  0  0  0  0  0  0
    0.1011   -3.3679    1.8304 C   0  0  0  0  0  0  0  0  0  0  0  0
    2.4870   -0.3601    2.1312 C   0  0  1  0  0  0  0  0  0  0  0  0
    1.0657   -2.5414    2.4613 C   0  0  0  0  0  0  0  0  0  0  0  0
    2.6591    0.3913    0.7442 C   0  0  2  0  0  0  0  0  0  0  0  0
    1.8544    0.5029    3.1465 C   0  0  0  0  0  0  0  0  0  0  0  0
    3.8560   -0.9423    2.6398 C   0  0  1  0  0  0  0  0  0  0  0  0
    1.4746   -2.8978    3.8529 C   0  0  2  0  0  0  0  0  0  0  0  0
    2.5251    1.9484    0.7790 C   0  0  1  0  0  0  0  0  0  0  0  0
    2.0138    1.8343    3.1762 C   0  0  0  0  0  0  0  0  0  0  0  0
    3.8283   -2.0166    3.7690 C   0  0  1  0  0  0  0  0  0  0  0  0
    2.5309   -2.0615    4.5106 N   0  0  2  0  0  0  0  0  0  0  0  0
    2.8207    2.5225    2.1868 C   0  0  2  0  0  0  0  0  0  0  0  0
    2.6685   -2.3310    5.9706 C   0  0  0  0  0  0  0  0  0  0  0  0
    2.5536    3.9226    2.1996 O   0  0  0  0  0  0  0  0  0  0  0  0
    3.6375    0.1650    0.3042 H   0  0  0  0  0  0  0  0  0  0  0  0
    0.2110   -2.1344   -3.4523 H   0  0  0  0  0  0  0  0  0  0  0  0
    1.6273   -2.1344   -2.3928 H   0  0  0  0  0  0  0  0  0  0  0  0
    0.4924   -3.5133   -2.3788 H   0  0  0  0  0  0  0  0  0  0  0  0
   -1.0572   -3.7031    0.0974 H   0  0  0  0  0  0  0  0  0  0  0  0
   -0.2879   -4.1765    2.3240 H   0  0  0  0  0  0  0  0  0  0  0  0
    1.2801    0.1021    3.8522 H   0  0  0  0  0  0  0  0  0  0  0  0
    4.3879   -1.3988    1.7991 H   0  0  0  0  0  0  0  0  0  0  0  0
    4.4781   -0.1032    2.9698 H   0  0  0  0  0  0  0  0  0  0  0  0
    1.8061   -3.9428    3.8603 H   0  0  0  0  0  0  0  0  0  0  0  0
    0.5627   -2.8403    4.4555 H   0  0  0  0  0  0  0  0  0  0  0  0
    3.1962    2.4050    0.0455 H   0  0  0  0  0  0  0  0  0  0  0  0
    1.5065    2.2334    0.5002 H   0  0  0  0  0  0  0  0  0  0  0  0
    1.5741    2.3546    3.8991 H   0  0  0  0  0  0  0  0  0  0  0  0
    4.0483   -3.0029    3.3462 H   0  0  0  0  0  0  0  0  0  0  0  0
    4.6613   -1.7945    4.4433 H   0  0  0  0  0  0  0  0  0  0  0  0
    3.8772    2.3805    2.4285 H   0  0  0  0  0  0  0  0  0  0  0  0
    3.0604   -3.3343    6.1534 H   0  0  0  0  0  0  0  0  0  0  0  0
    1.7015   -2.2311    6.4672 H   0  0  0  0  0  0  0  0  0  0  0  0
    3.3410   -1.6020    6.4266 H   0  0  0  0  0  0  0  0  0  0  0  0
    3.1643    4.2998    1.5319 H   0  0  0  0  0  0  0  0  0  0  0  0
  1  2  1  0  0  0  0 
  1  3  1  0  0  0  0 
  3  4  2  0  0  0  0 
  3  5  1  0  0  0  0 
  4  6  1  0  0  0  0 
  4  7  1  0  0  0  0 
  5  8  2  0  0  0  0 
  9  6  1  0  0  0  0 
  6 10  2  0  0  0  0 
 11  7  1  0  0  0  0 
  8 10  1  0  0  0  0 
 11  9  1  0  0  0  0 
  9 12  1  0  0  0  0 
  9 13  1  0  0  0  0 
 10 14  1  0  0  0  0 
 11 15  1  0  0  0  0 
 11 22  1  0  0  0  0 
 12 16  2  0  0  0  0 
 13 17  1  0  0  0  0 
 14 18  1  0  0  0  0 
 19 15  1  0  0  0  0 
 19 16  1  0  0  0  0 
 17 18  1  0  0  0  0 
 18 20  1  0  0  0  0 
 19 21  1  0  0  0  0 
  2 23  1  0  0  0  0 
  2 24  1  0  0  0  0 
  2 25  1  0  0  0  0 
  5 26  1  0  0  0  0 
  8 27  1  0  0  0  0 
 12 28  1  0  0  0  0 
 13 29  1  0  0  0  0 
 13 30  1  0  0  0  0 
 14 31  1  0  0  0  0 
 14 32  1  0  0  0  0 
 15 33  1  0  0  0  0 
 15 34  1  0  0  0  0 
 16 35  1  0  0  0  0 
 17 36  1  0  0  0  0 
 17 37  1  0  0  0  0 
 19 38  1  0  0  0  0 
 20 39  1  0  0  0  0 
 20 40  1  0  0  0  0 
 20 41  1  0  0  0  0 
 21 42  1  0  0  0  0 
M  END
> <cdk:Title>
galantamine

> <Conformer>
1

> <SuperDrugID>
SD001135

$$$$
