hydroxychloroquine
  CDK     0628171801

 49 50  0  0  0  0  0  0  0  0999 V2000
    4.0958    0.4582   -0.5272 N   0  0  0  0  0  0  0  0  0  0  0  0
    3.2047   -0.6324   -0.2348 C   0  0  2  0  0  0  0  0  0  0  0  0
    3.8137    1.7897   -0.7437 C   0  0  0  0  0  0  0  0  0  0  0  0
    3.8741   -1.6100    0.7840 C   0  0  1  0  0  0  0  0  0  0  0  0
    2.8337   -1.3478   -1.5598 C   0  0  0  0  0  0  0  0  0  0  0  0
    4.8869    2.7121   -0.9298 C   0  0  0  0  0  0  0  0  0  0  0  0
    2.4874    2.2862   -0.8145 C   0  0  0  0  0  0  0  0  0  0  0  0
    4.1302   -0.9591    2.1724 C   0  0  2  0  0  0  0  0  0  0  0  0
    4.5795    4.0858   -1.1651 C   0  0  0  0  0  0  0  0  0  0  0  0
    6.2561    2.3416   -0.9059 C   0  0  0  0  0  0  0  0  0  0  0  0
    2.2486    3.6520   -1.0360 C   0  0  0  0  0  0  0  0  0  0  0  0
    4.6279   -1.9300    3.2844 C   0  0  1  0  0  0  0  0  0  0  0  0
    3.2885    4.4989   -1.2013 N   0  0  0  0  0  0  0  0  0  0  0  0
    5.5990    5.0372   -1.3750 C   0  0  0  0  0  0  0  0  0  0  0  0
    7.2728    3.2917   -1.1106 C   0  0  0  0  0  0  0  0  0  0  0  0
    5.9025   -2.6925    3.0262 N   0  0  2  0  0  0  0  0  0  0  0  0
    6.9487    4.6399   -1.3476 C   0  0  0  0  0  0  0  0  0  0  0  0
    6.0571   -3.8244    4.0120 C   0  0  1  0  0  0  0  0  0  0  0  0
    7.1275   -1.8268    2.8867 C   0  0  2  0  0  0  0  0  0  0  0  0
    8.1766    5.7768   -1.6063 Cl  0  0  0  0  0  0  0  0  0  0  0  0
    7.2547   -4.7791    3.7841 C   0  0  2  0  0  0  0  0  0  0  0  0
    7.9349   -2.1971    1.6216 C   0  0  0  0  0  0  0  0  0  0  0  0
    7.2445   -5.8373    4.7357 O   0  0  0  0  0  0  0  0  0  0  0  0
    5.0291    0.2071   -0.5768 H   0  0  0  0  0  0  0  0  0  0  0  0
    2.2784   -0.2766    0.2212 H   0  0  0  0  0  0  0  0  0  0  0  0
    3.2190   -2.4744    0.9255 H   0  0  0  0  0  0  0  0  0  0  0  0
    4.8192   -1.9701    0.3707 H   0  0  0  0  0  0  0  0  0  0  0  0
    2.4531   -0.6264   -2.2845 H   0  0  0  0  0  0  0  0  0  0  0  0
    3.7021   -1.8474   -1.9921 H   0  0  0  0  0  0  0  0  0  0  0  0
    2.0554   -2.0937   -1.3889 H   0  0  0  0  0  0  0  0  0  0  0  0
    1.6808    1.6725   -0.7141 H   0  0  0  0  0  0  0  0  0  0  0  0
    3.1865   -0.5274    2.5214 H   0  0  0  0  0  0  0  0  0  0  0  0
    4.8253   -0.1266    2.0601 H   0  0  0  0  0  0  0  0  0  0  0  0
    6.5397    1.3751   -0.7442 H   0  0  0  0  0  0  0  0  0  0  0  0
    1.2950    4.0150   -1.0805 H   0  0  0  0  0  0  0  0  0  0  0  0
    4.7444   -1.3486    4.2041 H   0  0  0  0  0  0  0  0  0  0  0  0
    3.8061   -2.6324    3.4571 H   0  0  0  0  0  0  0  0  0  0  0  0
    5.3578    6.0191   -1.5497 H   0  0  0  0  0  0  0  0  0  0  0  0
    8.2500    2.9930   -1.0902 H   0  0  0  0  0  0  0  0  0  0  0  0
    6.1328   -3.4183    5.0256 H   0  0  0  0  0  0  0  0  0  0  0  0
    5.1604   -4.4519    3.9805 H   0  0  0  0  0  0  0  0  0  0  0  0
    7.7752   -1.8906    3.7663 H   0  0  0  0  0  0  0  0  0  0  0  0
    6.8751   -0.7701    2.7951 H   0  0  0  0  0  0  0  0  0  0  0  0
    8.1996   -4.2512    3.9058 H   0  0  0  0  0  0  0  0  0  0  0  0
    7.2093   -5.2079    2.7829 H   0  0  0  0  0  0  0  0  0  0  0  0
    8.7175   -1.4560    1.4481 H   0  0  0  0  0  0  0  0  0  0  0  0
    7.2812   -2.2167    0.7502 H   0  0  0  0  0  0  0  0  0  0  0  0
    8.4114   -3.1716    1.7273 H   0  0  0  0  0  0  0  0  0  0  0  0
    8.0874   -6.3135    4.5837 H   0  0  0  0  0  0  0  0  0  0  0  0
  2  1  1  0  0  0  0 
  1  3  1  0  0  0  0 
  2  4  1  0  0  0  0 
  2  5  1  0  0  0  0 
  3  6  2  0  0  0  0 
  3  7  1  0  0  0  0 
  4  8  1  0  0  0  0 
  6  9  1  0  0  0  0 
  6 10  1  0  0  0  0 
  7 11  2  0  0  0  0 
  8 12  1  0  0  0  0 
  9 13  2  0  0  0  0 
  9 14  1  0  0  0  0 
 10 15  2  0  0  0  0 
 11 13  1  0  0  0  0 
 12 16  1  0  0  0  0 
 14 17  2  0  0  0  0 
 15 17  1  0  0  0  0 
 16 18  1  0  0  0  0 
 16 19  1  0  0  0  0 
 17 20  1  0  0  0  0 
 18 21  1  0  0  0  0 
 19 22  1  0  0  0  0 
 21 23  1  0  0  0  0 
  1 24  1  0  0  0  0 
  2 25  1  0  0  0  0 
  4 26  1  0  0  0  0 
  4 27  1  0  0  0  0 
  5 28  1  0  0  0  0 
  5 29  1  0  0  0  0 
  5 30  1  0  0  0  0 
  7 31  1  0  0  0  0 
  8 32  1  0  0  0  0 
  8 33  1  0  0  0  0 
 10 34  1  0  0  0  0 
 11 35  1  0  0  0  0 
 12 36  1  0  0  0  0 
 12 37  1  0  0  0  0 
 14 38  1  0  0  0  0 
 15 39  1  0  0  0  0 
 18 40  1  0  0  0  0 
 18 41  1  0  0  0  0 
 19 42  1  0  0  0  0 
 19 43  1  0  0  0  0 
 21 44  1  0  0  0  0 
 21 45  1  0  0  0  0 
 22 46  1  0  0  0  0 
 22 47  1  0  0  0  0 
 22 48  1  0  0  0  0 
 23 49  1  0  0  0  0 
M  END
> <cdk:Title>
hydroxychloroquine

> <Conformer>
1

> <SuperDrugID>
SD001240

$$$$
