indapamide
  CDK     0628171801

 40 42  0  0  0  0  0  0  0  0999 V2000
   -0.7420    0.7315    3.6689 C   0  0  0  0  0  0  0  0  0  0  0  0
   -1.6505   -0.2096    3.1594 C   0  0  0  0  0  0  0  0  0  0  0  0
   -1.5646   -0.6348    1.8190 C   0  0  0  0  0  0  0  0  0  0  0  0
   -0.5515   -0.1091    0.9777 C   0  0  0  0  0  0  0  0  0  0  0  0
    0.3779    0.8123    1.5135 C   0  0  0  0  0  0  0  0  0  0  0  0
    0.2961    1.2380    2.8594 C   0  0  0  0  0  0  0  0  0  0  0  0
    1.2341    2.1402    3.4053 C   0  0  0  0  0  0  0  0  0  0  0  0
    2.5597    1.8936    3.2598 N   0  0  0  0  0  0  0  0  0  0  0  0
    3.5172    2.6861    3.8115 N   0  0  2  0  0  0  0  0  0  0  0  0
    4.5484    3.0261    2.9247 C   0  0  0  0  0  0  0  0  0  0  0  0
    5.8077    2.8740    3.5041 C   0  0  0  0  0  0  0  0  0  0  0  0
    5.7062    2.3974    4.8797 C   0  0  2  0  0  0  0  0  0  0  0  0
    4.1713    2.2034    5.0695 C   0  0  2  0  0  0  0  0  0  0  0  0
    4.4262    3.5006    1.6017 C   0  0  0  0  0  0  0  0  0  0  0  0
    5.5915    3.8014    0.8664 C   0  0  0  0  0  0  0  0  0  0  0  0
    6.8641    3.6354    1.4537 C   0  0  0  0  0  0  0  0  0  0  0  0
    6.9804    3.1734    2.7816 C   0  0  0  0  0  0  0  0  0  0  0  0
    0.8386    3.1234    4.0773 O   0  0  0  0  0  0  0  0  0  0  0  0
   -2.7128   -1.7655    1.2874 Cl  0  0  0  0  0  0  0  0  0  0  0  0
    3.8082    0.7573    5.5162 C   0  0  0  0  0  0  0  0  0  0  0  0
    3.8329    2.8761    5.8641 H   0  0  0  0  0  0  0  0  0  0  0  0
   -0.4328   -0.5447   -0.7402 S   0  0  1  0  0  0  0  0  0  0  0  0
   -0.2053   -2.2787   -0.9201 N   0  0  2  0  0  0  0  0  0  0  0  0
   -1.7836   -0.1370   -1.5044 O   0  0  0  0  0  0  0  0  0  0  0  0
    0.7967    0.1941   -1.4588 O   0  0  0  0  0  0  0  0  0  0  0  0
   -0.8359    1.0356    4.6414 H   0  0  0  0  0  0  0  0  0  0  0  0
   -2.3755   -0.5817    3.7772 H   0  0  0  0  0  0  0  0  0  0  0  0
    1.1143    1.1936    0.9139 H   0  0  0  0  0  0  0  0  0  0  0  0
    2.8372    1.1021    2.7711 H   0  0  0  0  0  0  0  0  0  0  0  0
    6.0988    3.1486    5.5694 H   0  0  0  0  0  0  0  0  0  0  0  0
    6.2714    1.4695    4.9971 H   0  0  0  0  0  0  0  0  0  0  0  0
    3.5046    3.6204    1.1764 H   0  0  0  0  0  0  0  0  0  0  0  0
    5.5141    4.1432   -0.0946 H   0  0  0  0  0  0  0  0  0  0  0  0
    7.7057    3.8581    0.9153 H   0  0  0  0  0  0  0  0  0  0  0  0
    7.9027    3.0608    3.2108 H   0  0  0  0  0  0  0  0  0  0  0  0
    4.3065    0.5171    6.4561 H   0  0  0  0  0  0  0  0  0  0  0  0
    4.1173    0.0342    4.7588 H   0  0  0  0  0  0  0  0  0  0  0  0
    2.7311    0.6647    5.6724 H   0  0  0  0  0  0  0  0  0  0  0  0
   -0.1811   -2.4702   -1.9241 H   0  0  0  0  0  0  0  0  0  0  0  0
   -1.0455   -2.7316   -0.5546 H   0  0  0  0  0  0  0  0  0  0  0  0
  1  2  2  0  0  0  0 
  2  3  1  0  0  0  0 
  3  4  2  0  0  0  0 
  4  5  1  0  0  0  0 
  5  6  2  0  0  0  0 
  1  6  1  0  0  0  0 
  6  7  1  0  0  0  0 
  7  8  1  0  0  0  0 
  9 10  1  0  0  0  0 
 10 11  2  0  0  0  0 
 11 12  1  0  0  0  0 
 13 12  1  0  0  0  0 
 10 14  1  0  0  0  0 
 14 15  2  0  0  0  0 
 15 16  1  0  0  0  0 
 16 17  2  0  0  0  0 
 11 17  1  0  0  0  0 
  7 18  2  0  0  0  0 
  3 19  1  0  0  0  0 
 13 21  1  0  0  0  0 
 13 20  1  0  0  0  0 
  4 22  1  0  0  0  0 
  8  9  1  0  0  0  0 
 13  9  1  0  0  0  0 
 22 23  1  0  0  0  0 
 22 24  2  0  0  0  0 
 22 25  2  0  0  0  0 
  1 26  1  0  0  0  0 
  2 27  1  0  0  0  0 
  5 28  1  0  0  0  0 
  8 29  1  0  0  0  0 
 12 30  1  0  0  0  0 
 12 31  1  0  0  0  0 
 14 32  1  0  0  0  0 
 15 33  1  0  0  0  0 
 16 34  1  0  0  0  0 
 17 35  1  0  0  0  0 
 20 36  1  0  0  0  0 
 20 37  1  0  0  0  0 
 20 38  1  0  0  0  0 
 23 39  1  0  0  0  0 
 23 40  1  0  0  0  0 
M  END
> <cdk:Title>
indapamide

> <Conformer>
1

> <SuperDrugID>
SD001271

$$$$
