phenoxymethylpenicillin
  CDK     0628171801

 42 44  0  0  0  0  0  0  0  0999 V2000
   -2.3104   -0.7722   -3.0441 C   0  0  0  0  0  0  0  0  0  0  0  0
   -3.0341   -1.6293   -1.9640 C   0  0  1  0  0  0  0  0  0  0  0  0
   -2.1683   -1.6688   -0.6645 C   0  0  0  0  0  0  0  0  0  0  0  0
   -4.6279   -0.8354   -1.4892 S   0  0  0  0  0  0  0  0  0  0  0  0
   -5.7308   -2.2444   -1.8189 C   0  0  2  0  0  0  0  0  0  0  0  0
   -6.3981   -3.1473   -0.7270 C   0  0  2  0  0  0  0  0  0  0  0  0
   -6.4188   -2.6964    0.6263 N   0  0  0  0  0  0  0  0  0  0  0  0
   -7.1150   -1.6215    1.0842 C   0  0  0  0  0  0  0  0  0  0  0  0
   -7.7134   -0.8431    0.3038 O   0  0  0  0  0  0  0  0  0  0  0  0
   -7.2185   -1.3865    2.5374 C   0  0  2  0  0  0  0  0  0  0  0  0
   -6.6901   -0.0896    2.8888 O   0  0  0  0  0  0  0  0  0  0  0  0
   -6.8703    0.2272    4.2137 C   0  0  0  0  0  0  0  0  0  0  0  0
   -6.0484   -0.3307    5.2193 C   0  0  0  0  0  0  0  0  0  0  0  0
   -6.2511    0.0036    6.5727 C   0  0  0  0  0  0  0  0  0  0  0  0
   -7.2588    0.9200    6.9283 C   0  0  0  0  0  0  0  0  0  0  0  0
   -8.0732    1.4898    5.9315 C   0  0  0  0  0  0  0  0  0  0  0  0
   -7.8810    1.1425    4.5799 C   0  0  0  0  0  0  0  0  0  0  0  0
   -5.2864   -4.0608   -0.9909 C   0  0  0  0  0  0  0  0  0  0  0  0
   -4.9270   -5.1539   -0.4998 O   0  0  0  0  0  0  0  0  0  0  0  0
   -4.7274   -3.2321   -1.8622 N   0  0  0  0  0  0  0  0  0  0  0  0
   -3.4362   -3.0853   -2.4286 C   0  0  1  0  0  0  0  0  0  0  0  0
   -3.5268   -3.3839   -3.8803 C   0  0  0  0  0  0  0  0  0  0  0  0
   -2.8168   -4.4109   -4.4062 O   0  0  0  0  0  0  0  0  0  0  0  0
   -4.2790   -2.7372   -4.6453 O   0  0  0  0  0  0  0  0  0  0  0  0
   -2.0521    0.2142   -2.6540 H   0  0  0  0  0  0  0  0  0  0  0  0
   -1.3927   -1.2688   -3.3630 H   0  0  0  0  0  0  0  0  0  0  0  0
   -2.9445   -0.6227   -3.9172 H   0  0  0  0  0  0  0  0  0  0  0  0
   -1.9342   -0.6588   -0.3155 H   0  0  0  0  0  0  0  0  0  0  0  0
   -1.2266   -2.1909   -0.8491 H   0  0  0  0  0  0  0  0  0  0  0  0
   -2.6926   -2.1898    0.1416 H   0  0  0  0  0  0  0  0  0  0  0  0
   -6.2738   -2.1735   -2.7651 H   0  0  0  0  0  0  0  0  0  0  0  0
   -7.3492   -3.5835   -1.0449 H   0  0  0  0  0  0  0  0  0  0  0  0
   -5.9466   -3.2345    1.2811 H   0  0  0  0  0  0  0  0  0  0  0  0
   -6.6700   -2.1687    3.0730 H   0  0  0  0  0  0  0  0  0  0  0  0
   -8.2770   -1.4600    2.8110 H   0  0  0  0  0  0  0  0  0  0  0  0
   -5.3033   -0.9836    4.9674 H   0  0  0  0  0  0  0  0  0  0  0  0
   -5.6659   -0.4185    7.2982 H   0  0  0  0  0  0  0  0  0  0  0  0
   -7.3990    1.1716    7.9102 H   0  0  0  0  0  0  0  0  0  0  0  0
   -8.8043    2.1571    6.1898 H   0  0  0  0  0  0  0  0  0  0  0  0
   -8.4797    1.5587    3.8638 H   0  0  0  0  0  0  0  0  0  0  0  0
   -2.7600   -3.8237   -1.9852 H   0  0  0  0  0  0  0  0  0  0  0  0
   -2.9083   -4.6406   -5.3555 H   0  0  0  0  0  0  0  0  0  0  0  0
  1  2  1  0  0  0  0 
  2  3  1  0  0  0  0 
  2  4  1  0  0  0  0 
  4  5  1  0  0  0  0 
  5  6  1  0  0  0  0 
  6  7  1  0  0  0  0 
  7  8  1  0  0  0  0 
  8  9  2  0  0  0  0 
  8 10  1  0  0  0  0 
 10 11  1  0  0  0  0 
 11 12  1  0  0  0  0 
 12 13  2  0  0  0  0 
 13 14  1  0  0  0  0 
 14 15  2  0  0  0  0 
 15 16  1  0  0  0  0 
 16 17  2  0  0  0  0 
 12 17  1  0  0  0  0 
  6 18  1  0  0  0  0 
 18 19  2  0  0  0  0 
 18 20  1  0  0  0  0 
  5 20  1  0  0  0  0 
 20 21  1  0  0  0  0 
  2 21  1  0  0  0  0 
 21 22  1  0  0  0  0 
 22 23  1  0  0  0  0 
 22 24  2  0  0  0  0 
  1 25  1  0  0  0  0 
  1 26  1  0  0  0  0 
  1 27  1  0  0  0  0 
  3 28  1  0  0  0  0 
  3 29  1  0  0  0  0 
  3 30  1  0  0  0  0 
  5 31  1  0  0  0  0 
  6 32  1  0  0  0  0 
  7 33  1  0  0  0  0 
 10 34  1  0  0  0  0 
 10 35  1  0  0  0  0 
 13 36  1  0  0  0  0 
 14 37  1  0  0  0  0 
 15 38  1  0  0  0  0 
 16 39  1  0  0  0  0 
 17 40  1  0  0  0  0 
 21 41  1  0  0  0  0 
 23 42  1  0  0  0  0 
M  END
> <cdk:Title>
phenoxymethylpenicillin

> <Conformer>
1

> <SuperDrugID>
SD001868

$$$$
