fludeoxyglucose (18F)
  CDK     0628171801

 23 23  0  0  0  0  0  0  0  0999 V2000
   -2.9702    1.0940   -1.3481 C   0  0  1  0  0  0  0  0  0  0  0  0
   -1.9248    1.9505   -1.7924 O   0  0  0  0  0  0  0  0  0  0  0  0
   -2.8741    0.8572    0.1791 C   0  0  2  0  0  0  0  0  0  0  0  0
   -3.9931   -0.0987    0.6949 C   0  0  1  0  0  0  0  0  0  0  0  0
   -2.9564    2.1363    0.8533 O   0  0  0  0  0  0  0  0  0  0  0  0
   -3.8603   -1.3939    0.1091 O   0  0  0  0  0  0  0  0  0  0  0  0
   -3.9430   -0.2201    2.2436 C   0  0  2  0  0  0  0  0  0  0  0  0
   -2.8393    2.0822    2.2943 C   0  0  1  0  0  0  0  0  0  0  0  0
   -5.0517   -0.9900    2.7082 O   0  0  0  0  0  0  0  0  0  0  0  0
   -3.9411    1.1804    2.9146 C   0  0  2  0  0  0  0  0  0  0  0  0
   -1.5359    1.6448    2.6830 O   0  0  0  0  0  0  0  0  0  0  0  0
   -3.7620    1.0612    4.2752 F   0  0  0  0  0  0  0  0  0  0  0  0
   -3.9265    1.5553   -1.6029 H   0  0  0  0  0  0  0  0  0  0  0  0
   -2.8806    0.1466   -1.8835 H   0  0  0  0  0  0  0  0  0  0  0  0
   -2.0605    2.0215   -2.7609 H   0  0  0  0  0  0  0  0  0  0  0  0
   -1.8976    0.4051    0.3793 H   0  0  0  0  0  0  0  0  0  0  0  0
   -4.9713    0.2989    0.4032 H   0  0  0  0  0  0  0  0  0  0  0  0
   -2.9639   -1.6997    0.3644 H   0  0  0  0  0  0  0  0  0  0  0  0
   -3.0322   -0.7541    2.5290 H   0  0  0  0  0  0  0  0  0  0  0  0
   -2.9698    3.1005    2.6708 H   0  0  0  0  0  0  0  0  0  0  0  0
   -5.8468   -0.4906    2.4261 H   0  0  0  0  0  0  0  0  0  0  0  0
   -4.9123    1.6563    2.7505 H   0  0  0  0  0  0  0  0  0  0  0  0
   -0.9208    2.2748    2.2521 H   0  0  0  0  0  0  0  0  0  0  0  0
  1  2  1  0  0  0  0 
  3  1  1  0  0  0  0 
  4  3  1  0  0  0  0 
  3  5  1  0  0  0  0 
  4  6  1  0  0  0  0 
  7  4  1  0  0  0  0 
  8  5  1  0  0  0  0 
  7  9  1  0  0  0  0 
 10  7  1  0  0  0  0 
 10  8  1  0  0  0  0 
  8 11  1  0  0  0  0 
 10 12  1  0  0  0  0 
  1 13  1  0  0  0  0 
  1 14  1  0  0  0  0 
  2 15  1  0  0  0  0 
  3 16  1  0  0  0  0 
  4 17  1  0  0  0  0 
  6 18  1  0  0  0  0 
  7 19  1  0  0  0  0 
  8 20  1  0  0  0  0 
  9 21  1  0  0  0  0 
 10 22  1  0  0  0  0 
 11 23  1  0  0  0  0 
M  ISO  1  12  18
M  END
> <cdk:Title>
fludeoxyglucose (18F)

> <Conformer>
1

> <SuperDrugID>
SD003574

$$$$
