bemotrizinol
  CDK     0628171801

 95 98  0  0  0  0  0  0  0  0999 V2000
    0.6923    2.5222    5.0782 O   0  0  0  0  0  0  0  0  0  0  0  0
    1.8655    1.9119    4.7586 C   0  0  0  0  0  0  0  0  0  0  0  0
    3.0347    2.0118    5.6211 C   0  0  0  0  0  0  0  0  0  0  0  0
    1.8616    1.1554    3.5697 C   0  0  0  0  0  0  0  0  0  0  0  0
    3.0756    2.7843    6.9327 C   0  0  0  0  0  0  0  0  0  0  0  0
    4.1875    1.2786    5.1161 C   0  0  0  0  0  0  0  0  0  0  0  0
    3.0105    0.4674    3.1489 C   0  0  0  0  0  0  0  0  0  0  0  0
    2.5632    4.0356    7.0545 N   0  0  0  0  0  0  0  0  0  0  0  0
    3.6572    2.2093    8.0155 N   0  0  0  0  0  0  0  0  0  0  0  0
    4.1825    0.5498    3.9167 C   0  0  0  0  0  0  0  0  0  0  0  0
    2.9786   -0.2736    1.9953 O   0  0  0  0  0  0  0  0  0  0  0  0
    2.6380    4.7166    8.2316 C   0  0  0  0  0  0  0  0  0  0  0  0
    3.7419    2.8603    9.2056 C   0  0  0  0  0  0  0  0  0  0  0  0
    2.7368   -1.6791    2.2342 C   0  0  2  0  0  0  0  0  0  0  0  0
    3.2343    4.1174    9.2971 N   0  0  0  0  0  0  0  0  0  0  0  0
    2.1072    6.0233    8.3447 C   0  0  0  0  0  0  0  0  0  0  0  0
    4.3309    2.2324   10.3267 C   0  0  0  0  0  0  0  0  0  0  0  0
    2.6650   -2.5060    0.9103 C   0  0  2  0  0  0  0  0  0  0  0  0
    2.3981    7.0251    7.3837 C   0  0  0  0  0  0  0  0  0  0  0  0
    1.2622    6.3542    9.4306 C   0  0  0  0  0  0  0  0  0  0  0  0
    4.0502    0.8752   10.6127 C   0  0  0  0  0  0  0  0  0  0  0  0
    5.1969    2.9437   11.1910 C   0  0  0  0  0  0  0  0  0  0  0  0
    2.4980   -4.0413    1.1954 C   0  0  1  0  0  0  0  0  0  0  0  0
    3.9261   -2.2095    0.0267 C   0  0  1  0  0  0  0  0  0  0  0  0
    3.2763    6.8148    6.3684 O   0  0  0  0  0  0  0  0  0  0  0  0
    1.7945    8.2967    7.4732 C   0  0  0  0  0  0  0  0  0  0  0  0
    0.6762    7.6315    9.5231 C   0  0  0  0  0  0  0  0  0  0  0  0
    4.6250    0.2440   11.7308 C   0  0  0  0  0  0  0  0  0  0  0  0
    5.7844    2.3043   12.2992 C   0  0  0  0  0  0  0  0  0  0  0  0
    1.2785   -4.4459    2.0745 C   0  0  1  0  0  0  0  0  0  0  0  0
    3.9395   -2.8673   -1.3749 C   0  0  0  0  0  0  0  0  0  0  0  0
    0.9314    8.6100    8.5404 C   0  0  0  0  0  0  0  0  0  0  0  0
    5.5090    0.9499   12.5725 C   0  0  0  0  0  0  0  0  0  0  0  0
    1.1256   -5.9846    2.2137 C   0  0  1  0  0  0  0  0  0  0  0  0
    0.3308    9.8441    8.6051 O   0  0  0  0  0  0  0  0  0  0  0  0
    6.0594    0.3597   13.6803 O   0  0  0  0  0  0  0  0  0  0  0  0
   -0.0474   -6.3989    3.1305 C   0  0  0  0  0  0  0  0  0  0  0  0
    1.0933   10.8345    9.3333 C   0  0  1  0  0  0  0  0  0  0  0  0
    7.2256   -0.4368   13.4051 C   0  0  0  0  0  0  0  0  0  0  0  0
    0.3094   12.1833    9.4622 C   0  0  2  0  0  0  0  0  0  0  0  0
   -1.1541   11.9806    9.9881 C   0  0  1  0  0  0  0  0  0  0  0  0
    0.3336   12.9876    8.1164 C   0  0  1  0  0  0  0  0  0  0  0  0
   -1.2821   11.2206   11.3400 C   0  0  2  0  0  0  0  0  0  0  0  0
   -0.1299   14.4646    8.2234 C   0  0  0  0  0  0  0  0  0  0  0  0
   -2.7360   11.2064   11.8862 C   0  0  1  0  0  0  0  0  0  0  0  0
   -2.8862   10.3919   13.1911 C   0  0  0  0  0  0  0  0  0  0  0  0
    0.7990    2.8846    5.9795 H   0  0  0  0  0  0  0  0  0  0  0  0
    1.0101    1.0927    3.0077 H   0  0  0  0  0  0  0  0  0  0  0  0
    5.0554    1.3036    5.6552 H   0  0  0  0  0  0  0  0  0  0  0  0
    5.0344    0.0735    3.6071 H   0  0  0  0  0  0  0  0  0  0  0  0
    1.7874   -1.7816    2.7678 H   0  0  0  0  0  0  0  0  0  0  0  0
    3.5324   -2.0948    2.8607 H   0  0  0  0  0  0  0  0  0  0  0  0
    1.7797   -2.1674    0.3583 H   0  0  0  0  0  0  0  0  0  0  0  0
    1.0518    5.6609   10.1542 H   0  0  0  0  0  0  0  0  0  0  0  0
    3.4096    0.3401   10.0190 H   0  0  0  0  0  0  0  0  0  0  0  0
    5.4131    3.9299   11.0184 H   0  0  0  0  0  0  0  0  0  0  0  0
    2.3836   -4.5644    0.2418 H   0  0  0  0  0  0  0  0  0  0  0  0
    3.4087   -4.4142    1.6745 H   0  0  0  0  0  0  0  0  0  0  0  0
    3.9983   -1.1295   -0.1433 H   0  0  0  0  0  0  0  0  0  0  0  0
    4.8261   -2.5254    0.5657 H   0  0  0  0  0  0  0  0  0  0  0  0
    3.8160    6.0426    6.6397 H   0  0  0  0  0  0  0  0  0  0  0  0
    1.9883    9.0053    6.7613 H   0  0  0  0  0  0  0  0  0  0  0  0
    0.0533    7.8433   10.3049 H   0  0  0  0  0  0  0  0  0  0  0  0
    4.3912   -0.7297   11.9337 H   0  0  0  0  0  0  0  0  0  0  0  0
    6.4103    2.8295   12.9122 H   0  0  0  0  0  0  0  0  0  0  0  0
    1.3982   -4.0338    3.0785 H   0  0  0  0  0  0  0  0  0  0  0  0
    0.3675   -4.0294    1.6349 H   0  0  0  0  0  0  0  0  0  0  0  0
    4.7842   -2.4828   -1.9507 H   0  0  0  0  0  0  0  0  0  0  0  0
    3.0201   -2.6365   -1.9161 H   0  0  0  0  0  0  0  0  0  0  0  0
    4.0525   -3.9500   -1.3023 H   0  0  0  0  0  0  0  0  0  0  0  0
    0.9670   -6.4244    1.2257 H   0  0  0  0  0  0  0  0  0  0  0  0
    2.0482   -6.3998    2.6294 H   0  0  0  0  0  0  0  0  0  0  0  0
    0.1065   -6.0185    4.1427 H   0  0  0  0  0  0  0  0  0  0  0  0
   -0.9903   -6.0099    2.7424 H   0  0  0  0  0  0  0  0  0  0  0  0
   -0.1111   -7.4881    3.1755 H   0  0  0  0  0  0  0  0  0  0  0  0
    1.3236   10.4706   10.3404 H   0  0  0  0  0  0  0  0  0  0  0  0
    2.0518   11.0118    8.8346 H   0  0  0  0  0  0  0  0  0  0  0  0
    7.6382   -0.7705   14.3582 H   0  0  0  0  0  0  0  0  0  0  0  0
    6.9661   -1.3216   12.8195 H   0  0  0  0  0  0  0  0  0  0  0  0
    7.9976    0.1360   12.8841 H   0  0  0  0  0  0  0  0  0  0  0  0
    0.8473   12.7851   10.2044 H   0  0  0  0  0  0  0  0  0  0  0  0
   -1.6166   12.9621   10.1258 H   0  0  0  0  0  0  0  0  0  0  0  0
   -1.7355   11.4444    9.2309 H   0  0  0  0  0  0  0  0  0  0  0  0
    1.3594   13.0125    7.7328 H   0  0  0  0  0  0  0  0  0  0  0  0
   -0.2900   12.4785    7.3731 H   0  0  0  0  0  0  0  0  0  0  0  0
   -0.6282   11.6910   12.0804 H   0  0  0  0  0  0  0  0  0  0  0  0
   -0.9601   10.1861   11.2013 H   0  0  0  0  0  0  0  0  0  0  0  0
   -1.2005   14.5349    8.4222 H   0  0  0  0  0  0  0  0  0  0  0  0
    0.4124   14.9829    9.0161 H   0  0  0  0  0  0  0  0  0  0  0  0
    0.0677   14.9806    7.2823 H   0  0  0  0  0  0  0  0  0  0  0  0
   -3.0622   12.2324   12.0764 H   0  0  0  0  0  0  0  0  0  0  0  0
   -3.3987   10.7720   11.1328 H   0  0  0  0  0  0  0  0  0  0  0  0
   -3.9263   10.4119   13.5217 H   0  0  0  0  0  0  0  0  0  0  0  0
   -2.2626   10.8120   13.9820 H   0  0  0  0  0  0  0  0  0  0  0  0
   -2.5962    9.3530   13.0234 H   0  0  0  0  0  0  0  0  0  0  0  0
  1  2  1  0  0  0  0 
  2  3  2  0  0  0  0 
  2  4  1  0  0  0  0 
  3  5  1  0  0  0  0 
  3  6  1  0  0  0  0 
  4  7  2  0  0  0  0 
  5  8  2  0  0  0  0 
  5  9  1  0  0  0  0 
  6 10  2  0  0  0  0 
  7 10  1  0  0  0  0 
  7 11  1  0  0  0  0 
  8 12  1  0  0  0  0 
  9 13  2  0  0  0  0 
 11 14  1  0  0  0  0 
 12 15  2  0  0  0  0 
 12 16  1  0  0  0  0 
 13 15  1  0  0  0  0 
 13 17  1  0  0  0  0 
 14 18  1  0  0  0  0 
 16 19  2  0  0  0  0 
 16 20  1  0  0  0  0 
 17 21  2  0  0  0  0 
 17 22  1  0  0  0  0 
 18 23  1  0  0  0  0 
 18 24  1  0  0  0  0 
 19 25  1  0  0  0  0 
 19 26  1  0  0  0  0 
 20 27  2  0  0  0  0 
 21 28  1  0  0  0  0 
 22 29  2  0  0  0  0 
 23 30  1  0  0  0  0 
 24 31  1  0  0  0  0 
 26 32  2  0  0  0  0 
 27 32  1  0  0  0  0 
 28 33  2  0  0  0  0 
 29 33  1  0  0  0  0 
 30 34  1  0  0  0  0 
 32 35  1  0  0  0  0 
 33 36  1  0  0  0  0 
 34 37  1  0  0  0  0 
 35 38  1  0  0  0  0 
 36 39  1  0  0  0  0 
 38 40  1  0  0  0  0 
 40 41  1  0  0  0  0 
 40 42  1  0  0  0  0 
 41 43  1  0  0  0  0 
 42 44  1  0  0  0  0 
 43 45  1  0  0  0  0 
 45 46  1  0  0  0  0 
  1 47  1  0  0  0  0 
  4 48  1  0  0  0  0 
  6 49  1  0  0  0  0 
 10 50  1  0  0  0  0 
 14 51  1  0  0  0  0 
 14 52  1  0  0  0  0 
 18 53  1  0  0  0  0 
 20 54  1  0  0  0  0 
 21 55  1  0  0  0  0 
 22 56  1  0  0  0  0 
 23 57  1  0  0  0  0 
 23 58  1  0  0  0  0 
 24 59  1  0  0  0  0 
 24 60  1  0  0  0  0 
 25 61  1  0  0  0  0 
 26 62  1  0  0  0  0 
 27 63  1  0  0  0  0 
 28 64  1  0  0  0  0 
 29 65  1  0  0  0  0 
 30 66  1  0  0  0  0 
 30 67  1  0  0  0  0 
 31 68  1  0  0  0  0 
 31 69  1  0  0  0  0 
 31 70  1  0  0  0  0 
 34 71  1  0  0  0  0 
 34 72  1  0  0  0  0 
 37 73  1  0  0  0  0 
 37 74  1  0  0  0  0 
 37 75  1  0  0  0  0 
 38 76  1  0  0  0  0 
 38 77  1  0  0  0  0 
 39 78  1  0  0  0  0 
 39 79  1  0  0  0  0 
 39 80  1  0  0  0  0 
 40 81  1  0  0  0  0 
 41 82  1  0  0  0  0 
 41 83  1  0  0  0  0 
 42 84  1  0  0  0  0 
 42 85  1  0  0  0  0 
 43 86  1  0  0  0  0 
 43 87  1  0  0  0  0 
 44 88  1  0  0  0  0 
 44 89  1  0  0  0  0 
 44 90  1  0  0  0  0 
 45 91  1  0  0  0  0 
 45 92  1  0  0  0  0 
 46 93  1  0  0  0  0 
 46 94  1  0  0  0  0 
 46 95  1  0  0  0  0 
M  END
> <cdk:Title>
bemotrizinol

> <Conformer>
1

> <SuperDrugID>
SD002619

$$$$
