butobarbital
  CDK     0628171801

 31 31  0  0  0  0  0  0  0  0999 V2000
   -1.5173    3.5585   -0.6601 C   0  0  2  0  0  0  0  0  0  0  0  0
   -2.4977    3.6189    0.5472 C   0  0  1  0  0  0  0  0  0  0  0  0
   -0.9344    4.9063   -1.2366 C   0  0  2  0  0  0  0  0  0  0  0  0
   -2.9184    2.2002    1.0165 C   0  0  2  0  0  0  0  0  0  0  0  0
   -2.0672    5.8505   -1.7869 C   0  0  2  0  0  0  0  0  0  0  0  0
   -0.0257    4.4934   -2.3674 C   0  0  0  0  0  0  0  0  0  0  0  0
   -0.1326    5.6093   -0.1724 C   0  0  0  0  0  0  0  0  0  0  0  0
   -3.8700    2.2288    2.2311 C   0  0  0  0  0  0  0  0  0  0  0  0
   -1.5931    7.1725   -2.4455 C   0  0  0  0  0  0  0  0  0  0  0  0
   -0.4878    3.9564   -3.4014 O   0  0  0  0  0  0  0  0  0  0  0  0
    1.3244    4.6301   -2.3112 N   0  0  0  0  0  0  0  0  0  0  0  0
   -0.6861    6.1662    0.8040 O   0  0  0  0  0  0  0  0  0  0  0  0
    1.2221    5.6971   -0.2125 N   0  0  0  0  0  0  0  0  0  0  0  0
    1.9377    5.2062   -1.2496 C   0  0  0  0  0  0  0  0  0  0  0  0
    3.1840    5.3021   -1.2333 O   0  0  0  0  0  0  0  0  0  0  0  0
   -2.0432    3.0316   -1.4616 H   0  0  0  0  0  0  0  0  0  0  0  0
   -0.6767    2.9234   -0.3613 H   0  0  0  0  0  0  0  0  0  0  0  0
   -2.0168    4.1206    1.3866 H   0  0  0  0  0  0  0  0  0  0  0  0
   -3.3913    4.1822    0.2688 H   0  0  0  0  0  0  0  0  0  0  0  0
   -2.0254    1.6322    1.2927 H   0  0  0  0  0  0  0  0  0  0  0  0
   -3.4138    1.6745    0.1957 H   0  0  0  0  0  0  0  0  0  0  0  0
   -2.7442    6.1252   -0.9745 H   0  0  0  0  0  0  0  0  0  0  0  0
   -2.6667    5.3087   -2.5242 H   0  0  0  0  0  0  0  0  0  0  0  0
   -4.1202    1.2097    2.5281 H   0  0  0  0  0  0  0  0  0  0  0  0
   -3.3919    2.7295    3.0744 H   0  0  0  0  0  0  0  0  0  0  0  0
   -4.7916    2.7556    1.9801 H   0  0  0  0  0  0  0  0  0  0  0  0
   -2.4572    7.7462   -2.7857 H   0  0  0  0  0  0  0  0  0  0  0  0
   -1.0409    7.7844   -1.7320 H   0  0  0  0  0  0  0  0  0  0  0  0
   -0.9560    6.9724   -3.3075 H   0  0  0  0  0  0  0  0  0  0  0  0
    1.8616    4.3001   -3.0476 H   0  0  0  0  0  0  0  0  0  0  0  0
    1.6896    6.1327    0.5173 H   0  0  0  0  0  0  0  0  0  0  0  0
  1  2  1  0  0  0  0 
  1  3  1  0  0  0  0 
  2  4  1  0  0  0  0 
  3  5  1  0  0  0  0 
  3  6  1  0  0  0  0 
  3  7  1  0  0  0  0 
  4  8  1  0  0  0  0 
  5  9  1  0  0  0  0 
  6 10  2  0  0  0  0 
  6 11  1  0  0  0  0 
  7 12  2  0  0  0  0 
  7 13  1  0  0  0  0 
 11 14  1  0  0  0  0 
 13 14  1  0  0  0  0 
 14 15  2  0  0  0  0 
 16  1  1  0  0  0  0 
 17  1  1  0  0  0  0 
 18  2  1  0  0  0  0 
 19  2  1  0  0  0  0 
 20  4  1  0  0  0  0 
 21  4  1  0  0  0  0 
 22  5  1  0  0  0  0 
 23  5  1  0  0  0  0 
 24  8  1  0  0  0  0 
 25  8  1  0  0  0  0 
 26  8  1  0  0  0  0 
 27  9  1  0  0  0  0 
 28  9  1  0  0  0  0 
 29  9  1  0  0  0  0 
 30 11  1  0  0  0  0 
 31 13  1  0  0  0  0 
M  END
> <cdk:Title>
butobarbital

> <Conformer>
1

> <SuperDrugID>
SD000391

$$$$
