phenibut
  CDK     0628171802

 26 26  0  0  0  0  0  0  0  0999 V2000
   -0.4735   -1.6500   -1.2115 C   0  0  2  0  0  0  0  0  0  0  0  0
    0.0028   -1.2288    0.2158 C   0  0  1  0  0  0  0  0  0  0  0  0
    0.5669    0.1382    0.2542 C   0  0  0  0  0  0  0  0  0  0  0  0
   -0.2046    1.2047   -0.0572 O   0  0  0  0  0  0  0  0  0  0  0  0
    1.7650    0.3355    0.5578 O   0  0  0  0  0  0  0  0  0  0  0  0
   -1.1417   -3.0584   -1.2265 C   0  0  2  0  0  0  0  0  0  0  0  0
   -1.6485   -3.4067   -2.5629 N   0  0  2  0  0  0  0  0  0  0  0  0
    0.6286   -1.5423   -2.2241 C   0  0  0  0  0  0  0  0  0  0  0  0
    1.7949   -2.3427   -2.1407 C   0  0  0  0  0  0  0  0  0  0  0  0
    2.8227   -2.2267   -3.0942 C   0  0  0  0  0  0  0  0  0  0  0  0
    2.7010   -1.3038   -4.1469 C   0  0  0  0  0  0  0  0  0  0  0  0
    1.5531   -0.5000   -4.2485 C   0  0  0  0  0  0  0  0  0  0  0  0
    0.5274   -0.6194   -3.2938 C   0  0  0  0  0  0  0  0  0  0  0  0
   -1.2745   -0.9508   -1.4765 H   0  0  0  0  0  0  0  0  0  0  0  0
   -0.8455   -1.2557    0.9037 H   0  0  0  0  0  0  0  0  0  0  0  0
    0.7440   -1.9415    0.5889 H   0  0  0  0  0  0  0  0  0  0  0  0
    0.1753    2.1077   -0.0434 H   0  0  0  0  0  0  0  0  0  0  0  0
   -1.9872   -3.0703   -0.5334 H   0  0  0  0  0  0  0  0  0  0  0  0
   -0.4338   -3.8284   -0.9125 H   0  0  0  0  0  0  0  0  0  0  0  0
   -2.3909   -2.7408   -2.7877 H   0  0  0  0  0  0  0  0  0  0  0  0
   -2.0858   -4.3285   -2.4955 H   0  0  0  0  0  0  0  0  0  0  0  0
    1.9095   -3.0188   -1.3824 H   0  0  0  0  0  0  0  0  0  0  0  0
    3.6593   -2.8118   -3.0196 H   0  0  0  0  0  0  0  0  0  0  0  0
    3.4463   -1.2173   -4.8402 H   0  0  0  0  0  0  0  0  0  0  0  0
    1.4631    0.1730   -5.0123 H   0  0  0  0  0  0  0  0  0  0  0  0
   -0.2957   -0.0207   -3.3883 H   0  0  0  0  0  0  0  0  0  0  0  0
  1  2  1  0  0  0  0 
  1  6  1  0  0  0  0 
  1  8  1  0  0  0  0 
  2  3  1  0  0  0  0 
  3  4  1  0  0  0  0 
  3  5  2  0  0  0  0 
  6  7  1  0  0  0  0 
  8  9  2  0  0  0  0 
  8 13  1  0  0  0  0 
  9 10  1  0  0  0  0 
 10 11  2  0  0  0  0 
 12 11  1  0  0  0  0 
 13 12  2  0  0  0  0 
  1 14  1  0  0  0  0 
  2 15  1  0  0  0  0 
  2 16  1  0  0  0  0 
  4 17  1  0  0  0  0 
  6 18  1  0  0  0  0 
  6 19  1  0  0  0  0 
  7 20  1  0  0  0  0 
  7 21  1  0  0  0  0 
  9 22  1  0  0  0  0 
 10 23  1  0  0  0  0 
 11 24  1  0  0  0  0 
 12 25  1  0  0  0  0 
 13 26  1  0  0  0  0 
M  END
> <cdk:Title>
phenibut

> <Conformer>
1

> <SuperDrugID>
SD003806

$$$$
