clenbuterol
  CDK     0628171802

 35 35  0  0  0  0  0  0  0  0999 V2000
    0.5823   -0.0637    0.2688 C   0  0  1  0  0  0  0  0  0  0  0  0
   -0.4255    1.1025    0.0970 C   0  0  2  0  0  0  0  0  0  0  0  0
    0.1143   -1.2123   -0.4383 O   0  0  0  0  0  0  0  0  0  0  0  0
    1.9581    0.3119   -0.1813 C   0  0  0  0  0  0  0  0  0  0  0  0
   -0.0030    2.2665    0.9147 N   0  0  1  0  0  0  0  0  0  0  0  0
    2.3208    0.2767   -1.5475 C   0  0  0  0  0  0  0  0  0  0  0  0
    2.9220    0.7523    0.7530 C   0  0  0  0  0  0  0  0  0  0  0  0
   -0.7892    3.5364    0.8961 C   0  0  2  0  0  0  0  0  0  0  0  0
    3.6059    0.6669   -1.9723 C   0  0  0  0  0  0  0  0  0  0  0  0
    4.2060    1.1620    0.3427 C   0  0  0  0  0  0  0  0  0  0  0  0
   -2.2494    3.3286    1.4047 C   0  0  0  0  0  0  0  0  0  0  0  0
   -0.8036    4.1884   -0.5206 C   0  0  0  0  0  0  0  0  0  0  0  0
   -0.0258    4.4703    1.8849 C   0  0  0  0  0  0  0  0  0  0  0  0
    3.9694    0.5703   -3.6277 Cl  0  0  0  0  0  0  0  0  0  0  0  0
    4.5526    1.1280   -1.0280 C   0  0  0  0  0  0  0  0  0  0  0  0
    5.2954    1.6942    1.5304 Cl  0  0  0  0  0  0  0  0  0  0  0  0
    5.7746    1.5414   -1.4315 N   0  0  0  0  0  0  0  0  0  0  0  0
    0.5987   -0.3505    1.3242 H   0  0  0  0  0  0  0  0  0  0  0  0
   -1.4084    0.7616    0.4257 H   0  0  0  0  0  0  0  0  0  0  0  0
   -0.4844    1.3767   -0.9567 H   0  0  0  0  0  0  0  0  0  0  0  0
   -0.7662   -1.4095   -0.0567 H   0  0  0  0  0  0  0  0  0  0  0  0
    0.0267    1.9514    1.8883 H   0  0  0  0  0  0  0  0  0  0  0  0
    1.6411   -0.0393   -2.2428 H   0  0  0  0  0  0  0  0  0  0  0  0
    2.6830    0.7849    1.7471 H   0  0  0  0  0  0  0  0  0  0  0  0
   -2.2507    2.8054    2.3631 H   0  0  0  0  0  0  0  0  0  0  0  0
   -2.8295    2.7417    0.6902 H   0  0  0  0  0  0  0  0  0  0  0  0
   -2.7551    4.2887    1.5331 H   0  0  0  0  0  0  0  0  0  0  0  0
   -1.3941    3.5910   -1.2180 H   0  0  0  0  0  0  0  0  0  0  0  0
   -1.2465    5.1866   -0.4821 H   0  0  0  0  0  0  0  0  0  0  0  0
    0.2124    4.2740   -0.9135 H   0  0  0  0  0  0  0  0  0  0  0  0
   -0.5079    5.4484    1.9597 H   0  0  0  0  0  0  0  0  0  0  0  0
    0.0045    4.0294    2.8849 H   0  0  0  0  0  0  0  0  0  0  0  0
    1.0045    4.6225    1.5522 H   0  0  0  0  0  0  0  0  0  0  0  0
    6.4190    1.8701   -0.7844 H   0  0  0  0  0  0  0  0  0  0  0  0
    6.0138    1.5155   -2.3716 H   0  0  0  0  0  0  0  0  0  0  0  0
  1  2  1  0  0  0  0 
  1  3  1  0  0  0  0 
  1  4  1  0  0  0  0 
  2  5  1  0  0  0  0 
  4  6  2  0  0  0  0 
  4  7  1  0  0  0  0 
  5  8  1  0  0  0  0 
  6  9  1  0  0  0  0 
  7 10  2  0  0  0  0 
  8 11  1  0  0  0  0 
  8 12  1  0  0  0  0 
  8 13  1  0  0  0  0 
  9 14  1  0  0  0  0 
  9 15  2  0  0  0  0 
 10 15  1  0  0  0  0 
 10 16  1  0  0  0  0 
 15 17  1  0  0  0  0 
  1 18  1  0  0  0  0 
  2 19  1  0  0  0  0 
  2 20  1  0  0  0  0 
  3 21  1  0  0  0  0 
  5 22  1  0  0  0  0 
  6 23  1  0  0  0  0 
  7 24  1  0  0  0  0 
 11 25  1  0  0  0  0 
 11 26  1  0  0  0  0 
 11 27  1  0  0  0  0 
 12 28  1  0  0  0  0 
 12 29  1  0  0  0  0 
 12 30  1  0  0  0  0 
 13 31  1  0  0  0  0 
 13 32  1  0  0  0  0 
 13 33  1  0  0  0  0 
 17 34  1  0  0  0  0 
 17 35  1  0  0  0  0 
M  END
> <cdk:Title>
clenbuterol

> <Conformer>
1

> <SuperDrugID>
SD000592

$$$$
