nafcillin
  CDK     0628171801

 51 54  0  0  0  0  0  0  0  0999 V2000
   -1.9900    1.3833    2.0500 C   0  0  2  0  0  0  0  0  0  0  0  0
   -0.6728    2.0760    1.5775 C   0  0  1  0  0  0  0  0  0  0  0  0
   -0.0239    0.8483    2.0376 C   0  0  0  0  0  0  0  0  0  0  0  0
   -1.1832    0.2682    2.3459 N   0  0  0  0  0  0  0  0  0  0  0  0
   -1.6272   -1.0795    2.5209 C   0  0  2  0  0  0  0  0  0  0  0  0
   -3.0538   -1.1218    1.8363 C   0  0  2  0  0  0  0  0  0  0  0  0
   -3.1230    0.4854    0.9465 S   0  0  0  0  0  0  0  0  0  0  0  0
   -0.4688    2.2505    0.1790 N   0  0  0  0  0  0  0  0  0  0  0  0
    1.1589    0.4414    1.9983 O   0  0  0  0  0  0  0  0  0  0  0  0
   -4.2651   -1.1308    2.8211 C   0  0  0  0  0  0  0  0  0  0  0  0
   -3.1890   -2.2640    0.7883 C   0  0  0  0  0  0  0  0  0  0  0  0
   -2.4514    1.7939    2.9525 H   0  0  0  0  0  0  0  0  0  0  0  0
   -1.5433   -1.5409    3.9262 C   0  0  0  0  0  0  0  0  0  0  0  0
   -1.1509   -0.7961    4.8531 O   0  0  0  0  0  0  0  0  0  0  0  0
   -1.8736   -2.8173    4.2311 O   0  0  0  0  0  0  0  0  0  0  0  0
   -1.2906    2.9207   -0.6678 C   0  0  0  0  0  0  0  0  0  0  0  0
   -0.8670    3.1147   -2.0081 C   0  0  0  0  0  0  0  0  0  0  0  0
   -2.3632    3.4301   -0.2631 O   0  0  0  0  0  0  0  0  0  0  0  0
   -0.8746    4.4419   -2.5198 C   0  0  0  0  0  0  0  0  0  0  0  0
   -0.3588    4.7139   -3.7998 C   0  0  0  0  0  0  0  0  0  0  0  0
    0.1853    3.6841   -4.5783 C   0  0  0  0  0  0  0  0  0  0  0  0
    0.1720    2.3527   -4.1127 C   0  0  0  0  0  0  0  0  0  0  0  0
   -0.3820    2.0482   -2.8298 C   0  0  0  0  0  0  0  0  0  0  0  0
    0.7081    1.3263   -4.9248 C   0  0  0  0  0  0  0  0  0  0  0  0
    0.6863   -0.0089   -4.4925 C   0  0  0  0  0  0  0  0  0  0  0  0
    0.0937   -0.3348   -3.2642 C   0  0  0  0  0  0  0  0  0  0  0  0
   -0.4380    0.6793   -2.4474 C   0  0  0  0  0  0  0  0  0  0  0  0
   -1.3915    5.4959   -1.8038 O   0  0  0  0  0  0  0  0  0  0  0  0
   -0.4467    6.1334   -0.9206 C   0  0  1  0  0  0  0  0  0  0  0  0
   -1.2021    7.1514   -0.0457 C   0  0  0  0  0  0  0  0  0  0  0  0
   -0.3999    2.9519    2.1719 H   0  0  0  0  0  0  0  0  0  0  0  0
   -0.9301   -1.7114    1.9614 H   0  0  0  0  0  0  0  0  0  0  0  0
    0.3458    1.8802   -0.1985 H   0  0  0  0  0  0  0  0  0  0  0  0
   -5.2035   -0.9631    2.2865 H   0  0  0  0  0  0  0  0  0  0  0  0
   -4.3411   -2.0921    3.3302 H   0  0  0  0  0  0  0  0  0  0  0  0
   -4.1590   -0.3482    3.5760 H   0  0  0  0  0  0  0  0  0  0  0  0
   -4.1198   -2.1715    0.2243 H   0  0  0  0  0  0  0  0  0  0  0  0
   -3.1829   -3.2351    1.2849 H   0  0  0  0  0  0  0  0  0  0  0  0
   -2.3624   -2.2387    0.0757 H   0  0  0  0  0  0  0  0  0  0  0  0
   -1.8228   -3.1348    5.1573 H   0  0  0  0  0  0  0  0  0  0  0  0
   -0.3741    5.6695   -4.1658 H   0  0  0  0  0  0  0  0  0  0  0  0
    0.5804    3.9148   -5.4951 H   0  0  0  0  0  0  0  0  0  0  0  0
    1.1222    1.5411   -5.8366 H   0  0  0  0  0  0  0  0  0  0  0  0
    1.0886   -0.7446   -5.0792 H   0  0  0  0  0  0  0  0  0  0  0  0
    0.0475   -1.3123   -2.9661 H   0  0  0  0  0  0  0  0  0  0  0  0
   -0.8719    0.3888   -1.5697 H   0  0  0  0  0  0  0  0  0  0  0  0
    0.0417    5.4118   -0.2574 H   0  0  0  0  0  0  0  0  0  0  0  0
    0.3200    6.6551   -1.5002 H   0  0  0  0  0  0  0  0  0  0  0  0
   -0.5084    7.6538    0.6305 H   0  0  0  0  0  0  0  0  0  0  0  0
   -1.9617    6.6421    0.5502 H   0  0  0  0  0  0  0  0  0  0  0  0
   -1.6887    7.9014   -0.6713 H   0  0  0  0  0  0  0  0  0  0  0  0
  1  2  1  0  0  0  0 
  1  4  1  0  0  0  0 
  2  3  1  0  0  0  0 
  3  4  1  0  0  0  0 
  5  6  1  0  0  0  0 
  6  7  1  0  0  0  0 
  4  5  1  0  0  0  0 
  1  7  1  0  0  0  0 
  2  8  1  0  0  0  0 
  3  9  2  0  0  0  0 
  6 10  1  0  0  0  0 
  6 11  1  0  0  0  0 
  1 12  1  0  0  0  0 
  5 13  1  0  0  0  0 
 13 14  2  0  0  0  0 
 13 15  1  0  0  0  0 
  8 16  1  0  0  0  0 
 16 17  1  0  0  0  0 
 16 18  2  0  0  0  0 
 19 20  2  0  0  0  0 
 20 21  1  0  0  0  0 
 21 22  2  0  0  0  0 
 22 23  1  0  0  0  0 
 17 19  1  0  0  0  0 
 17 23  2  0  0  0  0 
 24 25  2  0  0  0  0 
 25 26  1  0  0  0  0 
 26 27  2  0  0  0  0 
 27 23  1  0  0  0  0 
 22 24  1  0  0  0  0 
 19 28  1  0  0  0  0 
 28 29  1  0  0  0  0 
 29 30  1  0  0  0  0 
  2 31  1  0  0  0  0 
  5 32  1  0  0  0  0 
  8 33  1  0  0  0  0 
 10 34  1  0  0  0  0 
 10 35  1  0  0  0  0 
 10 36  1  0  0  0  0 
 11 37  1  0  0  0  0 
 11 38  1  0  0  0  0 
 11 39  1  0  0  0  0 
 15 40  1  0  0  0  0 
 20 41  1  0  0  0  0 
 21 42  1  0  0  0  0 
 24 43  1  0  0  0  0 
 25 44  1  0  0  0  0 
 26 45  1  0  0  0  0 
 27 46  1  0  0  0  0 
 29 47  1  0  0  0  0 
 29 48  1  0  0  0  0 
 30 49  1  0  0  0  0 
 30 50  1  0  0  0  0 
 30 51  1  0  0  0  0 
M  END
> <cdk:Title>
nafcillin

> <Conformer>
1

> <SuperDrugID>
SD001665

$$$$
