oxypertine
  CDK     0628171801

 57 60  0  0  0  0  0  0  0  0999 V2000
   -1.4603  -13.7586    3.2438 C   0  0  1  0  0  0  0  0  0  0  0  0
   -2.0182  -15.0040    3.9811 C   0  0  2  0  0  0  0  0  0  0  0  0
   -2.2855  -12.5438    3.4665 C   0  0  0  0  0  0  0  0  0  0  0  0
   -1.9164  -14.8673    5.4703 N   0  0  1  0  0  0  0  0  0  0  0  0
   -2.1399  -11.6045    4.4877 C   0  0  0  0  0  0  0  0  0  0  0  0
   -3.3653  -12.0939    2.6891 C   0  0  0  0  0  0  0  0  0  0  0  0
   -3.0660  -15.4451    6.2302 C   0  0  1  0  0  0  0  0  0  0  0  0
   -0.6009  -15.3004    6.0432 C   0  0  1  0  0  0  0  0  0  0  0  0
   -3.1251  -10.6366    4.3048 C   0  0  0  0  0  0  0  0  0  0  0  0
   -1.2222  -11.5070    5.5492 C   0  0  0  0  0  0  0  0  0  0  0  0
   -3.8951  -12.7224    1.4670 C   0  0  0  0  0  0  0  0  0  0  0  0
   -3.8533  -10.9604    3.2280 N   0  0  0  0  0  0  0  0  0  0  0  0
   -2.9671  -15.0214    7.7160 C   0  0  1  0  0  0  0  0  0  0  0  0
   -0.5055  -14.9562    7.5515 C   0  0  2  0  0  0  0  0  0  0  0  0
   -3.2394   -9.5404    5.1736 C   0  0  0  0  0  0  0  0  0  0  0  0
   -1.3238  -10.4149    6.4404 C   0  0  0  0  0  0  0  0  0  0  0  0
   -1.6838  -15.4024    8.2646 N   0  0  0  0  0  0  0  0  0  0  0  0
   -2.3509   -9.4505    6.2688 C   0  0  0  0  0  0  0  0  0  0  0  0
   -0.4463  -10.3089    7.4868 O   0  0  0  0  0  0  0  0  0  0  0  0
   -1.5815  -16.1443    9.4263 C   0  0  0  0  0  0  0  0  0  0  0  0
   -2.4838   -8.4210    7.1589 O   0  0  0  0  0  0  0  0  0  0  0  0
    0.7636   -9.6119    7.1366 C   0  0  0  0  0  0  0  0  0  0  0  0
   -2.3160  -17.3424    9.6031 C   0  0  0  0  0  0  0  0  0  0  0  0
   -0.7388  -15.7153   10.4818 C   0  0  0  0  0  0  0  0  0  0  0  0
   -3.3532   -8.7645    8.2543 C   0  0  0  0  0  0  0  0  0  0  0  0
   -2.2165  -18.0806   10.7968 C   0  0  0  0  0  0  0  0  0  0  0  0
   -0.6356  -16.4563   11.6738 C   0  0  0  0  0  0  0  0  0  0  0  0
   -1.3794  -17.6371   11.8346 C   0  0  0  0  0  0  0  0  0  0  0  0
   -0.4338  -13.5641    3.5572 H   0  0  0  0  0  0  0  0  0  0  0  0
   -1.4185  -13.9754    2.1745 H   0  0  0  0  0  0  0  0  0  0  0  0
   -1.4745  -15.8907    3.6419 H   0  0  0  0  0  0  0  0  0  0  0  0
   -3.0559  -15.1391    3.6603 H   0  0  0  0  0  0  0  0  0  0  0  0
   -4.0129  -15.0720    5.8318 H   0  0  0  0  0  0  0  0  0  0  0  0
   -3.0702  -16.5378    6.1522 H   0  0  0  0  0  0  0  0  0  0  0  0
   -0.4709  -16.3808    5.9137 H   0  0  0  0  0  0  0  0  0  0  0  0
    0.2243  -14.8004    5.5303 H   0  0  0  0  0  0  0  0  0  0  0  0
   -0.4890  -12.2075    5.6697 H   0  0  0  0  0  0  0  0  0  0  0  0
   -3.1221  -12.7286    0.6959 H   0  0  0  0  0  0  0  0  0  0  0  0
   -4.7563  -12.1689    1.0872 H   0  0  0  0  0  0  0  0  0  0  0  0
   -4.2014  -13.7474    1.6770 H   0  0  0  0  0  0  0  0  0  0  0  0
   -4.6073  -10.4554    2.8866 H   0  0  0  0  0  0  0  0  0  0  0  0
   -3.0666  -13.9338    7.7814 H   0  0  0  0  0  0  0  0  0  0  0  0
   -3.8091  -15.4481    8.2668 H   0  0  0  0  0  0  0  0  0  0  0  0
   -0.4137  -13.8721    7.6703 H   0  0  0  0  0  0  0  0  0  0  0  0
    0.4111  -15.4093    7.9421 H   0  0  0  0  0  0  0  0  0  0  0  0
   -3.9593   -8.8317    5.0236 H   0  0  0  0  0  0  0  0  0  0  0  0
    1.3973   -9.5642    8.0213 H   0  0  0  0  0  0  0  0  0  0  0  0
    1.3153  -10.1417    6.3562 H   0  0  0  0  0  0  0  0  0  0  0  0
    0.5585   -8.5882    6.8142 H   0  0  0  0  0  0  0  0  0  0  0  0
   -2.9294  -17.6871    8.8615 H   0  0  0  0  0  0  0  0  0  0  0  0
   -0.1988  -14.8507   10.3915 H   0  0  0  0  0  0  0  0  0  0  0  0
   -3.4104   -7.9073    8.9244 H   0  0  0  0  0  0  0  0  0  0  0  0
   -4.3657   -8.9872    7.9056 H   0  0  0  0  0  0  0  0  0  0  0  0
   -2.9673   -9.6148    8.8253 H   0  0  0  0  0  0  0  0  0  0  0  0
   -2.7558  -18.9408   10.9118 H   0  0  0  0  0  0  0  0  0  0  0  0
   -0.0211  -16.1327   12.4248 H   0  0  0  0  0  0  0  0  0  0  0  0
   -1.3091  -18.1734   12.7033 H   0  0  0  0  0  0  0  0  0  0  0  0
  1  2  1  0  0  0  0 
  1  3  1  0  0  0  0 
  2  4  1  0  0  0  0 
  3  5  1  0  0  0  0 
  3  6  2  0  0  0  0 
  4  7  1  0  0  0  0 
  4  8  1  0  0  0  0 
  5  9  1  0  0  0  0 
  5 10  2  0  0  0  0 
  6 11  1  0  0  0  0 
  6 12  1  0  0  0  0 
  7 13  1  0  0  0  0 
  8 14  1  0  0  0  0 
  9 12  1  0  0  0  0 
  9 15  2  0  0  0  0 
 10 16  1  0  0  0  0 
 13 17  1  0  0  0  0 
 14 17  1  0  0  0  0 
 15 18  1  0  0  0  0 
 16 18  2  0  0  0  0 
 16 19  1  0  0  0  0 
 17 20  1  0  0  0  0 
 18 21  1  0  0  0  0 
 19 22  1  0  0  0  0 
 20 23  2  0  0  0  0 
 20 24  1  0  0  0  0 
 21 25  1  0  0  0  0 
 23 26  1  0  0  0  0 
 24 27  2  0  0  0  0 
 26 28  2  0  0  0  0 
 27 28  1  0  0  0  0 
  1 29  1  0  0  0  0 
  1 30  1  0  0  0  0 
  2 31  1  0  0  0  0 
  2 32  1  0  0  0  0 
  7 33  1  0  0  0  0 
  7 34  1  0  0  0  0 
  8 35  1  0  0  0  0 
  8 36  1  0  0  0  0 
 10 37  1  0  0  0  0 
 11 38  1  0  0  0  0 
 11 39  1  0  0  0  0 
 11 40  1  0  0  0  0 
 12 41  1  0  0  0  0 
 13 42  1  0  0  0  0 
 13 43  1  0  0  0  0 
 14 44  1  0  0  0  0 
 14 45  1  0  0  0  0 
 15 46  1  0  0  0  0 
 22 47  1  0  0  0  0 
 22 48  1  0  0  0  0 
 22 49  1  0  0  0  0 
 23 50  1  0  0  0  0 
 24 51  1  0  0  0  0 
 25 52  1  0  0  0  0 
 25 53  1  0  0  0  0 
 25 54  1  0  0  0  0 
 26 55  1  0  0  0  0 
 27 56  1  0  0  0  0 
 28 57  1  0  0  0  0 
M  END
> <cdk:Title>
oxypertine

> <Conformer>
1

> <SuperDrugID>
SD001822

$$$$
