bemetizide
  CDK     0628171801

 41 43  0  0  0  0  0  0  0  0999 V2000
   -3.6251   -4.7126   -3.4048 O   0  0  0  0  0  0  0  0  0  0  0  0
   -3.1310   -3.2096   -3.1463 S   0  0  2  0  0  0  0  0  0  0  0  0
   -4.3323   -2.1695   -3.3619 O   0  0  0  0  0  0  0  0  0  0  0  0
   -1.7410   -2.8063   -4.1541 C   0  0  0  0  0  0  0  0  0  0  0  0
   -2.5278   -3.0924   -1.4975 N   0  0  2  0  0  0  0  0  0  0  0  0
   -0.7140   -2.0397   -3.5637 C   0  0  0  0  0  0  0  0  0  0  0  0
   -1.6261   -3.2673   -5.4800 C   0  0  0  0  0  0  0  0  0  0  0  0
   -1.7759   -1.8308   -1.2831 C   0  0  2  0  0  0  0  0  0  0  0  0
   -0.7670   -1.5694   -2.2801 N   0  0  0  0  0  0  0  0  0  0  0  0
    0.4392   -1.7567   -4.3227 C   0  0  0  0  0  0  0  0  0  0  0  0
   -0.4578   -3.0060   -6.2303 C   0  0  0  0  0  0  0  0  0  0  0  0
   -1.1066   -1.8706    0.1342 C   0  0  2  0  0  0  0  0  0  0  0  0
    0.5822   -2.2462   -5.6379 C   0  0  0  0  0  0  0  0  0  0  0  0
   -0.3044   -3.6480   -7.8790 S   0  0  1  0  0  0  0  0  0  0  0  0
   -2.1307   -2.1577    1.2744 C   0  0  0  0  0  0  0  0  0  0  0  0
   -0.3113   -0.6262    0.4282 C   0  0  0  0  0  0  0  0  0  0  0  0
    2.0376   -1.9033   -6.4420 Cl  0  0  0  0  0  0  0  0  0  0  0  0
   -1.7355   -4.5378   -8.3692 N   0  0  2  0  0  0  0  0  0  0  0  0
   -0.0820   -2.4501   -8.9229 O   0  0  0  0  0  0  0  0  0  0  0  0
    0.9501   -4.6448   -7.9701 O   0  0  0  0  0  0  0  0  0  0  0  0
   -0.9449    0.6356    0.5588 C   0  0  0  0  0  0  0  0  0  0  0  0
    1.0995   -0.6796    0.5649 C   0  0  0  0  0  0  0  0  0  0  0  0
   -0.1978    1.7981    0.8255 C   0  0  0  0  0  0  0  0  0  0  0  0
    1.8473    0.4848    0.8229 C   0  0  0  0  0  0  0  0  0  0  0  0
    1.1990    1.7236    0.9605 C   0  0  0  0  0  0  0  0  0  0  0  0
   -1.8477   -3.8504   -1.3998 H   0  0  0  0  0  0  0  0  0  0  0  0
   -2.3927   -3.8076   -5.8848 H   0  0  0  0  0  0  0  0  0  0  0  0
   -2.4932   -1.0043   -1.3104 H   0  0  0  0  0  0  0  0  0  0  0  0
   -0.0388   -0.9898   -2.0083 H   0  0  0  0  0  0  0  0  0  0  0  0
    1.1881   -1.1966   -3.9036 H   0  0  0  0  0  0  0  0  0  0  0  0
   -0.4271   -2.7318    0.1267 H   0  0  0  0  0  0  0  0  0  0  0  0
   -1.6460   -2.0874    2.2503 H   0  0  0  0  0  0  0  0  0  0  0  0
   -2.5427   -3.1651    1.1824 H   0  0  0  0  0  0  0  0  0  0  0  0
   -2.9588   -1.4474    1.2449 H   0  0  0  0  0  0  0  0  0  0  0  0
   -2.5170   -3.8812   -8.3528 H   0  0  0  0  0  0  0  0  0  0  0  0
   -1.9140   -5.2342   -7.6442 H   0  0  0  0  0  0  0  0  0  0  0  0
   -1.9593    0.7204    0.4605 H   0  0  0  0  0  0  0  0  0  0  0  0
    1.5979   -1.5690    0.4721 H   0  0  0  0  0  0  0  0  0  0  0  0
   -0.6712    2.6982    0.9210 H   0  0  0  0  0  0  0  0  0  0  0  0
    2.8639    0.4310    0.9108 H   0  0  0  0  0  0  0  0  0  0  0  0
    1.7415    2.5682    1.1553 H   0  0  0  0  0  0  0  0  0  0  0  0
  1  2  2  0  0  0  0 
  2  3  2  0  0  0  0 
  2  4  1  0  0  0  0 
  2  5  1  0  0  0  0 
  4  6  2  0  0  0  0 
  4  7  1  0  0  0  0 
  5  8  1  0  0  0  0 
  6  9  1  0  0  0  0 
  6 10  1  0  0  0  0 
  7 11  2  0  0  0  0 
  8  9  1  0  0  0  0 
  8 12  1  0  0  0  0 
 10 13  2  0  0  0  0 
 11 13  1  0  0  0  0 
 11 14  1  0  0  0  0 
 12 15  1  0  0  0  0 
 12 16  1  0  0  0  0 
 13 17  1  0  0  0  0 
 14 18  1  0  0  0  0 
 14 19  2  0  0  0  0 
 14 20  2  0  0  0  0 
 16 21  2  0  0  0  0 
 16 22  1  0  0  0  0 
 21 23  1  0  0  0  0 
 22 24  2  0  0  0  0 
 23 25  2  0  0  0  0 
 24 25  1  0  0  0  0 
  5 26  1  0  0  0  0 
  7 27  1  0  0  0  0 
  8 28  1  0  0  0  0 
  9 29  1  0  0  0  0 
 10 30  1  0  0  0  0 
 12 31  1  0  0  0  0 
 15 32  1  0  0  0  0 
 15 33  1  0  0  0  0 
 15 34  1  0  0  0  0 
 18 35  1  0  0  0  0 
 18 36  1  0  0  0  0 
 21 37  1  0  0  0  0 
 22 38  1  0  0  0  0 
 23 39  1  0  0  0  0 
 24 40  1  0  0  0  0 
 25 41  1  0  0  0  0 
M  END
> <cdk:Title>
bemetizide

> <Conformer>
1

> <SuperDrugID>
SD000249

$$$$
