tetryzoline
  CDK     0628171801

 31 33  0  0  0  0  0  0  0  0999 V2000
   -0.9816    0.9180    1.6663 C   0  0  1  0  0  0  0  0  0  0  0  0
   -2.2355    1.6257    2.0789 C   0  0  0  0  0  0  0  0  0  0  0  0
   -0.9963   -0.6066    1.9965 C   0  0  1  0  0  0  0  0  0  0  0  0
   -0.7031    1.1757    0.2553 C   0  0  0  0  0  0  0  0  0  0  0  0
   -3.4456    0.9198    2.3471 C   0  0  0  0  0  0  0  0  0  0  0  0
   -2.2291    3.0403    2.1659 C   0  0  0  0  0  0  0  0  0  0  0  0
   -2.3349   -1.2677    1.5985 C   0  0  1  0  0  0  0  0  0  0  0  0
   -1.5703    1.1632   -0.6876 N   0  0  0  0  0  0  0  0  0  0  0  0
    0.4806    1.4791   -0.2232 N   0  0  0  0  0  0  0  0  0  0  0  0
   -3.5240   -0.5685    2.3067 C   0  0  2  0  0  0  0  0  0  0  0  0
   -4.6081    1.6485    2.6903 C   0  0  0  0  0  0  0  0  0  0  0  0
   -3.3947    3.7478    2.5039 C   0  0  0  0  0  0  0  0  0  0  0  0
   -1.0336    1.4701   -1.9239 C   0  0  2  0  0  0  0  0  0  0  0  0
    0.4612    1.6810   -1.6173 C   0  0  1  0  0  0  0  0  0  0  0  0
   -4.5850    3.0517    2.7625 C   0  0  0  0  0  0  0  0  0  0  0  0
   -0.1536    1.3341    2.2522 H   0  0  0  0  0  0  0  0  0  0  0  0
   -0.1677   -1.1210    1.5027 H   0  0  0  0  0  0  0  0  0  0  0  0
   -0.8599   -0.7370    3.0746 H   0  0  0  0  0  0  0  0  0  0  0  0
   -1.3719    3.5685    1.9764 H   0  0  0  0  0  0  0  0  0  0  0  0
   -2.4662   -1.2106    0.5154 H   0  0  0  0  0  0  0  0  0  0  0  0
   -2.3183   -2.3262    1.8719 H   0  0  0  0  0  0  0  0  0  0  0  0
    1.2826    1.5507    0.3170 H   0  0  0  0  0  0  0  0  0  0  0  0
   -4.4430   -0.8793    1.8007 H   0  0  0  0  0  0  0  0  0  0  0  0
   -3.5793   -0.9230    3.3398 H   0  0  0  0  0  0  0  0  0  0  0  0
   -5.4871    1.1594    2.8858 H   0  0  0  0  0  0  0  0  0  0  0  0
   -3.3761    4.7695    2.5591 H   0  0  0  0  0  0  0  0  0  0  0  0
   -1.4933    2.3791   -2.3219 H   0  0  0  0  0  0  0  0  0  0  0  0
   -1.1931    0.6400   -2.6161 H   0  0  0  0  0  0  0  0  0  0  0  0
    0.7922    2.6940   -1.8666 H   0  0  0  0  0  0  0  0  0  0  0  0
    1.0826    0.9357   -2.1206 H   0  0  0  0  0  0  0  0  0  0  0  0
   -5.4364    3.5648    3.0013 H   0  0  0  0  0  0  0  0  0  0  0  0
  1  2  1  0  0  0  0 
  1  3  1  0  0  0  0 
  1  4  1  0  0  0  0 
  2  5  2  0  0  0  0 
  2  6  1  0  0  0  0 
  3  7  1  0  0  0  0 
  4  8  2  0  0  0  0 
  4  9  1  0  0  0  0 
  5 10  1  0  0  0  0 
  5 11  1  0  0  0  0 
  6 12  2  0  0  0  0 
  7 10  1  0  0  0  0 
  8 13  1  0  0  0  0 
  9 14  1  0  0  0  0 
 11 15  2  0  0  0  0 
 12 15  1  0  0  0  0 
 13 14  1  0  0  0  0 
 16  1  1  0  0  0  0 
 17  3  1  0  0  0  0 
 18  3  1  0  0  0  0 
 19  6  1  0  0  0  0 
 20  7  1  0  0  0  0 
 21  7  1  0  0  0  0 
 22  9  1  0  0  0  0 
 23 10  1  0  0  0  0 
 24 10  1  0  0  0  0 
 25 11  1  0  0  0  0 
 26 12  1  0  0  0  0 
 27 13  1  0  0  0  0 
 28 13  1  0  0  0  0 
 29 14  1  0  0  0  0 
 30 14  1  0  0  0  0 
 31 15  1  0  0  0  0 
M  END
> <cdk:Title>
tetryzoline

> <Conformer>
1

> <SuperDrugID>
SD003082

$$$$
