balsalazide
  CDK     0628171801

 41 42  0  0  0  0  0  0  0  0999 V2000
   12.4241  -11.4990   -0.9362 O   0  0  0  0  0  0  0  0  0  0  0  0
   12.2318  -10.3155   -0.3075 C   0  0  0  0  0  0  0  0  0  0  0  0
   12.7814  -10.1306    0.8024 O   0  0  0  0  0  0  0  0  0  0  0  0
   11.3848   -9.2713   -0.9183 C   0  0  2  0  0  0  0  0  0  0  0  0
    9.9334   -9.7583   -1.1606 C   0  0  2  0  0  0  0  0  0  0  0  0
    9.0543   -8.6549   -1.3786 N   0  0  0  0  0  0  0  0  0  0  0  0
    7.7177   -8.7435   -1.6468 C   0  0  0  0  0  0  0  0  0  0  0  0
    7.2310   -9.8774   -1.8776 O   0  0  0  0  0  0  0  0  0  0  0  0
    6.8671   -7.5940   -1.5938 C   0  0  0  0  0  0  0  0  0  0  0  0
    5.4545   -7.7194   -1.6660 C   0  0  0  0  0  0  0  0  0  0  0  0
    4.6109   -6.6066   -1.4820 C   0  0  0  0  0  0  0  0  0  0  0  0
    5.1556   -5.3247   -1.2363 C   0  0  0  0  0  0  0  0  0  0  0  0
    6.5571   -5.1770   -1.2269 C   0  0  0  0  0  0  0  0  0  0  0  0
    7.3967   -6.2907   -1.4064 C   0  0  0  0  0  0  0  0  0  0  0  0
    4.4303   -4.2444   -0.9810 N   0  0  0  0  0  0  0  0  0  0  0  0
    3.2066   -4.1718   -0.9198 N   0  0  0  0  0  0  0  0  0  0  0  0
    2.4861   -3.0980   -0.6229 C   0  0  0  0  0  0  0  0  0  0  0  0
    1.0871   -3.2514   -0.5864 C   0  0  0  0  0  0  0  0  0  0  0  0
    0.2632   -2.1722   -0.2294 C   0  0  0  0  0  0  0  0  0  0  0  0
    0.8212   -0.9183    0.0857 C   0  0  0  0  0  0  0  0  0  0  0  0
   -0.0619    0.0624    0.4142 O   0  0  0  0  0  0  0  0  0  0  0  0
    2.2305   -0.7274    0.0558 C   0  0  0  0  0  0  0  0  0  0  0  0
    3.0422   -1.8359   -0.3043 C   0  0  0  0  0  0  0  0  0  0  0  0
    2.8389    0.5179    0.3938 C   0  0  0  0  0  0  0  0  0  0  0  0
    2.1338    1.5866    0.8347 O   0  0  0  0  0  0  0  0  0  0  0  0
    4.0763    0.6976    0.3154 O   0  0  0  0  0  0  0  0  0  0  0  0
   12.9597  -12.2032   -0.5142 H   0  0  0  0  0  0  0  0  0  0  0  0
   11.8291   -8.9747   -1.8695 H   0  0  0  0  0  0  0  0  0  0  0  0
   11.3718   -8.3917   -0.2654 H   0  0  0  0  0  0  0  0  0  0  0  0
    9.5734  -10.2970   -0.2784 H   0  0  0  0  0  0  0  0  0  0  0  0
    9.9078  -10.4308   -2.0218 H   0  0  0  0  0  0  0  0  0  0  0  0
    9.4321   -7.7701   -1.2743 H   0  0  0  0  0  0  0  0  0  0  0  0
    5.0174   -8.6313   -1.8315 H   0  0  0  0  0  0  0  0  0  0  0  0
    3.5966   -6.7432   -1.5102 H   0  0  0  0  0  0  0  0  0  0  0  0
    6.9815   -4.2565   -1.0725 H   0  0  0  0  0  0  0  0  0  0  0  0
    8.4056   -6.1266   -1.3782 H   0  0  0  0  0  0  0  0  0  0  0  0
    0.6548   -4.1528   -0.8114 H   0  0  0  0  0  0  0  0  0  0  0  0
   -0.7513   -2.3042   -0.2004 H   0  0  0  0  0  0  0  0  0  0  0  0
    0.2600    0.8746   -0.0263 H   0  0  0  0  0  0  0  0  0  0  0  0
    4.0593   -1.7341   -0.3242 H   0  0  0  0  0  0  0  0  0  0  0  0
    2.5928    2.4236    1.0632 H   0  0  0  0  0  0  0  0  0  0  0  0
  1  2  1  0  0  0  0 
  2  3  2  0  0  0  0 
  2  4  1  0  0  0  0 
  4  5  1  0  0  0  0 
  5  6  1  0  0  0  0 
  6  7  1  0  0  0  0 
  7  8  2  0  0  0  0 
  7  9  1  0  0  0  0 
  9 10  2  0  0  0  0 
 10 11  1  0  0  0  0 
 11 12  2  0  0  0  0 
 12 13  1  0  0  0  0 
 13 14  2  0  0  0  0 
  9 14  1  0  0  0  0 
 15 12  1  0  0  0  0 
 15 16  2  0  0  0  0 
 16 17  1  0  0  0  0 
 17 18  2  0  0  0  0 
 18 19  1  0  0  0  0 
 19 20  2  0  0  0  0 
 20 21  1  0  0  0  0 
 20 22  1  0  0  0  0 
 22 23  2  0  0  0  0 
 17 23  1  0  0  0  0 
 22 24  1  0  0  0  0 
 24 25  1  0  0  0  0 
 24 26  2  0  0  0  0 
 27  1  1  0  0  0  0 
 28  4  1  0  0  0  0 
 29  4  1  0  0  0  0 
 30  5  1  0  0  0  0 
 31  5  1  0  0  0  0 
 32  6  1  0  0  0  0 
 33 10  1  0  0  0  0 
 34 11  1  0  0  0  0 
 35 13  1  0  0  0  0 
 36 14  1  0  0  0  0 
 37 18  1  0  0  0  0 
 38 19  1  0  0  0  0 
 39 21  1  0  0  0  0 
 40 23  1  0  0  0  0 
 41 25  1  0  0  0  0 
M  END
> <cdk:Title>
balsalazide

> <Conformer>
1

> <SuperDrugID>
SD000237

$$$$
