fulvestrant
  CDK     0628171801

 88 91  0  0  0  0  0  0  0  0999 V2000
   -3.0966   -1.2907    2.5381 C   0  0  2  0  0  0  0  0  0  0  0  0
   -4.4296   -0.6354    2.9952 C   0  0  2  0  0  0  0  0  0  0  0  0
   -1.9536   -0.2649    2.2129 C   0  0  1  0  0  0  0  0  0  0  0  0
   -5.5050   -1.6533    3.4696 C   0  0  2  0  0  0  0  0  0  0  0  0
   -0.5335   -0.8978    2.0376 C   0  0  2  0  0  0  0  0  0  0  0  0
   -2.2170    0.5934    0.9308 C   0  0  2  0  0  0  0  0  0  0  0  0
   -6.8562   -0.9560    3.8040 C   0  0  2  0  0  0  0  0  0  0  0  0
   -0.4819   -1.8569    0.7867 C   0  0  1  0  0  0  0  0  0  0  0  0
    0.0589   -1.6515    3.2773 C   0  0  1  0  0  0  0  0  0  0  0  0
   -2.0116   -0.1421   -0.3516 C   0  0  0  0  0  0  0  0  0  0  0  0
   -7.9543   -2.0507    4.2660 C   0  0  1  0  0  0  0  0  0  0  0  0
   -1.1986   -1.3133   -0.4239 C   0  0  0  0  0  0  0  0  0  0  0  0
    1.0022   -2.3120    0.5501 C   0  0  1  0  0  0  0  0  0  0  0  0
    1.5675   -2.0239    3.0868 C   0  0  1  0  0  0  0  0  0  0  0  0
   -0.0007   -1.0265    4.6882 C   0  0  2  0  0  0  0  0  0  0  0  0
   -2.6672    0.3308   -1.5154 C   0  0  0  0  0  0  0  0  0  0  0  0
   -9.3834   -1.3133    4.4532 C   0  0  1  0  0  0  0  0  0  0  0  0
   -1.1590   -2.0246   -1.6519 C   0  0  0  0  0  0  0  0  0  0  0  0
    1.6591   -2.9484    1.8222 C   0  0  1  0  0  0  0  0  0  0  0  0
    2.5644   -0.8116    2.9214 C   0  0  0  0  0  0  0  0  0  0  0  0
    1.8319   -2.7080    4.4705 C   0  0  2  0  0  0  0  0  0  0  0  0
    1.0558   -1.8296    5.4971 C   0  0  1  0  0  0  0  0  0  0  0  0
   -2.5935   -0.3828   -2.7242 C   0  0  0  0  0  0  0  0  0  0  0  0
  -10.4628   -2.3562    4.8551 C   0  0  2  0  0  0  0  0  0  0  0  0
   -1.8458   -1.5673   -2.7888 C   0  0  0  0  0  0  0  0  0  0  0  0
    3.2156   -2.8406    4.8098 O   0  0  0  0  0  0  0  0  0  0  0  0
   -3.2516    0.0535   -3.8232 O   0  0  0  0  0  0  0  0  0  0  0  0
  -11.8735   -1.7333    5.0482 C   0  0  2  0  0  0  0  0  0  0  0  0
  -12.9199   -2.7706    5.5202 C   0  0  1  0  0  0  0  0  0  0  0  0
  -14.5286   -1.9727    5.8876 S   0  0  2  0  0  0  0  0  0  0  0  0
  -15.6764   -3.3072    6.4016 C   0  0  1  0  0  0  0  0  0  0  0  0
  -15.0810   -1.4804    4.4655 O   0  0  0  0  0  0  0  0  0  0  0  0
  -15.2345   -3.9695    7.7287 C   0  0  2  0  0  0  0  0  0  0  0  0
  -16.2123   -5.0728    8.2210 C   0  0  2  0  0  0  0  0  0  0  0  0
  -15.7195   -5.8038    9.5087 C   0  0  2  0  0  0  0  0  0  0  0  0
  -16.6845   -6.9204   10.0005 C   0  0  2  0  0  0  0  0  0  0  0  0
  -15.5585   -4.8826   10.5215 F   0  0  0  0  0  0  0  0  0  0  0  0
  -14.4831   -6.3693    9.2770 F   0  0  0  0  0  0  0  0  0  0  0  0
  -17.9243   -6.4137   10.3092 F   0  0  0  0  0  0  0  0  0  0  0  0
  -16.1896   -7.5218   11.1347 F   0  0  0  0  0  0  0  0  0  0  0  0
  -16.8474   -7.9016    9.0515 F   0  0  0  0  0  0  0  0  0  0  0  0
    0.1315   -0.0526    1.8421 H   0  0  0  0  0  0  0  0  0  0  0  0
   -1.0422   -2.7650    1.0360 H   0  0  0  0  0  0  0  0  0  0  0  0
   -0.5186   -2.5842    3.3585 H   0  0  0  0  0  0  0  0  0  0  0  0
   -3.2930   -1.9203    1.6672 H   0  0  0  0  0  0  0  0  0  0  0  0
   -2.7683   -1.9452    3.3479 H   0  0  0  0  0  0  0  0  0  0  0  0
   -4.8454   -0.0631    2.1650 H   0  0  0  0  0  0  0  0  0  0  0  0
   -4.2192    0.0554    3.8159 H   0  0  0  0  0  0  0  0  0  0  0  0
   -1.8968    0.4294    3.0571 H   0  0  0  0  0  0  0  0  0  0  0  0
   -5.1375   -2.1776    4.3575 H   0  0  0  0  0  0  0  0  0  0  0  0
   -5.6677   -2.3934    2.6805 H   0  0  0  0  0  0  0  0  0  0  0  0
   -1.5422    1.4558    0.9260 H   0  0  0  0  0  0  0  0  0  0  0  0
   -3.2267    1.0008    0.9720 H   0  0  0  0  0  0  0  0  0  0  0  0
   -7.1350   -0.3694    2.8850 H   0  0  0  0  0  0  0  0  0  0  0  0
   -6.6219   -0.1668    4.5716 H   0  0  0  0  0  0  0  0  0  0  0  0
   -8.0415   -2.8269    3.5022 H   0  0  0  0  0  0  0  0  0  0  0  0
   -7.6417   -2.5032    5.2104 H   0  0  0  0  0  0  0  0  0  0  0  0
    1.0535   -3.0644   -0.2390 H   0  0  0  0  0  0  0  0  0  0  0  0
    1.5878   -1.4567    0.2045 H   0  0  0  0  0  0  0  0  0  0  0  0
   -0.9980   -1.1259    5.1253 H   0  0  0  0  0  0  0  0  0  0  0  0
    0.2560    0.0349    4.6539 H   0  0  0  0  0  0  0  0  0  0  0  0
   -3.2205    1.1924   -1.4843 H   0  0  0  0  0  0  0  0  0  0  0  0
   -9.4051   -0.5167    5.2462 H   0  0  0  0  0  0  0  0  0  0  0  0
   -9.7740   -0.7972    3.5338 H   0  0  0  0  0  0  0  0  0  0  0  0
   -0.6398   -2.9001   -1.7387 H   0  0  0  0  0  0  0  0  0  0  0  0
    1.1533   -3.8984    2.0233 H   0  0  0  0  0  0  0  0  0  0  0  0
    2.7044   -3.1871    1.6061 H   0  0  0  0  0  0  0  0  0  0  0  0
    2.5055   -0.1168    3.7611 H   0  0  0  0  0  0  0  0  0  0  0  0
    3.5903   -1.1803    2.8693 H   0  0  0  0  0  0  0  0  0  0  0  0
    2.3844   -0.2404    2.0125 H   0  0  0  0  0  0  0  0  0  0  0  0
    1.4087   -3.7194    4.4817 H   0  0  0  0  0  0  0  0  0  0  0  0
    1.7359   -1.1416    6.0108 H   0  0  0  0  0  0  0  0  0  0  0  0
    0.5698   -2.4555    6.2533 H   0  0  0  0  0  0  0  0  0  0  0  0
  -10.1547   -2.8365    5.7880 H   0  0  0  0  0  0  0  0  0  0  0  0
  -10.5235   -3.1257    4.0800 H   0  0  0  0  0  0  0  0  0  0  0  0
   -1.8023   -2.0985   -3.6626 H   0  0  0  0  0  0  0  0  0  0  0  0
    3.2252   -3.2435    5.7055 H   0  0  0  0  0  0  0  0  0  0  0  0
   -2.7564    0.8504   -4.1056 H   0  0  0  0  0  0  0  0  0  0  0  0
  -12.2077   -1.2981    4.1025 H   0  0  0  0  0  0  0  0  0  0  0  0
  -11.8126   -0.9326    5.7906 H   0  0  0  0  0  0  0  0  0  0  0  0
  -13.0676   -3.5336    4.7529 H   0  0  0  0  0  0  0  0  0  0  0  0
  -12.5581   -3.2535    6.4288 H   0  0  0  0  0  0  0  0  0  0  0  0
  -16.6682   -2.8667    6.5268 H   0  0  0  0  0  0  0  0  0  0  0  0
  -15.7253   -4.0561    5.6081 H   0  0  0  0  0  0  0  0  0  0  0  0
  -15.1459   -3.1970    8.4977 H   0  0  0  0  0  0  0  0  0  0  0  0
  -14.2517   -4.4207    7.5836 H   0  0  0  0  0  0  0  0  0  0  0  0
  -16.3437   -5.8070    7.4206 H   0  0  0  0  0  0  0  0  0  0  0  0
  -17.1867   -4.6159    8.4160 H   0  0  0  0  0  0  0  0  0  0  0  0
  1  2  1  0  0  0  0 
  2  4  1  0  0  0  0 
  3  1  1  0  0  0  0 
  5  3  1  0  0  0  0 
  3  6  1  0  0  0  0 
  4  7  1  0  0  0  0 
  5  8  1  0  0  0  0 
  9  5  1  0  0  0  0 
  5 42  1  0  0  0  0 
  6 10  1  0  0  0  0 
  7 11  1  0  0  0  0 
  8 12  1  0  0  0  0 
  8 13  1  0  0  0  0 
  8 43  1  0  0  0  0 
 14  9  1  0  0  0  0 
  9 15  1  0  0  0  0 
  9 44  1  0  0  0  0 
 10 12  2  0  0  0  0 
 10 16  1  0  0  0  0 
 11 17  1  0  0  0  0 
 12 18  1  0  0  0  0 
 13 19  1  0  0  0  0 
 14 19  1  0  0  0  0 
 14 20  1  0  0  0  0 
 14 21  1  0  0  0  0 
 15 22  1  0  0  0  0 
 16 23  2  0  0  0  0 
 17 24  1  0  0  0  0 
 18 25  2  0  0  0  0 
 21 22  1  0  0  0  0 
 21 26  1  0  0  0  0 
 23 25  1  0  0  0  0 
 23 27  1  0  0  0  0 
 24 28  1  0  0  0  0 
 28 29  1  0  0  0  0 
 29 30  1  0  0  0  0 
 30 31  1  0  0  0  0 
 30 32  2  0  0  0  0 
 31 33  1  0  0  0  0 
 33 34  1  0  0  0  0 
 34 35  1  0  0  0  0 
 35 36  1  0  0  0  0 
 35 37  1  0  0  0  0 
 35 38  1  0  0  0  0 
 36 39  1  0  0  0  0 
 36 40  1  0  0  0  0 
 36 41  1  0  0  0  0 
  1 45  1  0  0  0  0 
  1 46  1  0  0  0  0 
  2 47  1  0  0  0  0 
  2 48  1  0  0  0  0 
  3 49  1  0  0  0  0 
  4 50  1  0  0  0  0 
  4 51  1  0  0  0  0 
  6 52  1  0  0  0  0 
  6 53  1  0  0  0  0 
  7 54  1  0  0  0  0 
  7 55  1  0  0  0  0 
 11 56  1  0  0  0  0 
 11 57  1  0  0  0  0 
 13 58  1  0  0  0  0 
 13 59  1  0  0  0  0 
 15 60  1  0  0  0  0 
 15 61  1  0  0  0  0 
 16 62  1  0  0  0  0 
 17 63  1  0  0  0  0 
 17 64  1  0  0  0  0 
 18 65  1  0  0  0  0 
 19 66  1  0  0  0  0 
 19 67  1  0  0  0  0 
 20 68  1  0  0  0  0 
 20 69  1  0  0  0  0 
 20 70  1  0  0  0  0 
 21 71  1  0  0  0  0 
 22 72  1  0  0  0  0 
 22 73  1  0  0  0  0 
 24 74  1  0  0  0  0 
 24 75  1  0  0  0  0 
 25 76  1  0  0  0  0 
 26 77  1  0  0  0  0 
 27 78  1  0  0  0  0 
 28 79  1  0  0  0  0 
 28 80  1  0  0  0  0 
 29 81  1  0  0  0  0 
 29 82  1  0  0  0  0 
 31 83  1  0  0  0  0 
 31 84  1  0  0  0  0 
 33 85  1  0  0  0  0 
 33 86  1  0  0  0  0 
 34 87  1  0  0  0  0 
 34 88  1  0  0  0  0 
M  END
> <cdk:Title>
fulvestrant

> <Conformer>
1

> <SuperDrugID>
SD001125

$$$$
