rosiglitazone
  CDK     0628171801

 44 46  0  0  0  0  0  0  0  0999 V2000
    9.3754    5.1719    3.9623 C   0  0  0  0  0  0  0  0  0  0  0  0
   10.0153    4.8636    5.1865 C   0  0  0  0  0  0  0  0  0  0  0  0
   10.1752    5.4559    2.8302 C   0  0  0  0  0  0  0  0  0  0  0  0
   11.4181    4.8758    5.2855 C   0  0  0  0  0  0  0  0  0  0  0  0
   11.5779    5.4714    2.9305 C   0  0  0  0  0  0  0  0  0  0  0  0
   12.2020    5.2192    4.1678 C   0  0  0  0  0  0  0  0  0  0  0  0
   13.5599    5.3352    4.2790 O   0  0  0  0  0  0  0  0  0  0  0  0
   13.9501    6.6468    4.7426 C   0  0  1  0  0  0  0  0  0  0  0  0
   15.4750    6.8088    4.5732 C   0  0  2  0  0  0  0  0  0  0  0  0
   15.9333    8.1327    4.9723 N   0  0  0  0  0  0  0  0  0  0  0  0
   15.6315    9.2338    4.0816 C   0  0  0  0  0  0  0  0  0  0  0  0
   16.6469    8.3433    6.1548 C   0  0  0  0  0  0  0  0  0  0  0  0
   17.1119    9.6144    6.5953 C   0  0  0  0  0  0  0  0  0  0  0  0
   16.9413    7.2805    6.9614 N   0  0  0  0  0  0  0  0  0  0  0  0
   17.8464    9.7307    7.7902 C   0  0  0  0  0  0  0  0  0  0  0  0
   17.6412    7.3480    8.1187 C   0  0  0  0  0  0  0  0  0  0  0  0
   18.1185    8.5900    8.5626 C   0  0  0  0  0  0  0  0  0  0  0  0
    7.8948    5.1845    3.8621 C   0  0  1  0  0  0  0  0  0  0  0  0
    7.4038    3.8646    3.4318 C   0  0  0  0  0  0  0  0  0  0  0  0
    7.0738    2.7578    4.2295 C   0  0  0  0  0  0  0  0  0  0  0  0
    6.6864    1.6343    3.5662 N   0  0  0  0  0  0  0  0  0  0  0  0
    6.6605    1.7052    2.2190 C   0  0  0  0  0  0  0  0  0  0  0  0
    7.1680    3.3250    1.7787 S   0  0  0  0  0  0  0  0  0  0  0  0
    6.3401    0.7891    1.4305 O   0  0  0  0  0  0  0  0  0  0  0  0
    7.1340    2.7824    5.5810 O   0  0  0  0  0  0  0  0  0  0  0  0
    9.4653    4.6311    6.0164 H   0  0  0  0  0  0  0  0  0  0  0  0
    9.7411    5.6585    1.9264 H   0  0  0  0  0  0  0  0  0  0  0  0
   11.8694    4.6497    6.1742 H   0  0  0  0  0  0  0  0  0  0  0  0
   12.1434    5.6803    2.1049 H   0  0  0  0  0  0  0  0  0  0  0  0
   13.4504    7.4337    4.1678 H   0  0  0  0  0  0  0  0  0  0  0  0
   13.6946    6.7690    5.7997 H   0  0  0  0  0  0  0  0  0  0  0  0
   15.7299    6.6285    3.5256 H   0  0  0  0  0  0  0  0  0  0  0  0
   15.9559    6.0037    5.1314 H   0  0  0  0  0  0  0  0  0  0  0  0
   14.9970    9.9587    4.5968 H   0  0  0  0  0  0  0  0  0  0  0  0
   15.1073    8.9282    3.1725 H   0  0  0  0  0  0  0  0  0  0  0  0
   16.5561    9.7190    3.7652 H   0  0  0  0  0  0  0  0  0  0  0  0
   16.9258   10.4666    6.0632 H   0  0  0  0  0  0  0  0  0  0  0  0
   18.1828   10.6466    8.0994 H   0  0  0  0  0  0  0  0  0  0  0  0
   17.8170    6.4974    8.6561 H   0  0  0  0  0  0  0  0  0  0  0  0
   18.6546    8.6600    9.4308 H   0  0  0  0  0  0  0  0  0  0  0  0
    7.4459    5.4490    4.8225 H   0  0  0  0  0  0  0  0  0  0  0  0
    7.5657    5.9437    3.1489 H   0  0  0  0  0  0  0  0  0  0  0  0
    6.4424    0.8224    4.0406 H   0  0  0  0  0  0  0  0  0  0  0  0
    8.0367    2.4669    5.7964 H   0  0  0  0  0  0  0  0  0  0  0  0
  1  2  2  0  0  0  0 
  1  3  1  0  0  0  0 
  2  4  1  0  0  0  0 
  3  5  2  0  0  0  0 
  4  6  2  0  0  0  0 
  5  6  1  0  0  0  0 
  6  7  1  0  0  0  0 
  7  8  1  0  0  0  0 
  8  9  1  0  0  0  0 
  9 10  1  0  0  0  0 
 10 11  1  0  0  0  0 
 10 12  1  0  0  0  0 
 12 13  2  0  0  0  0 
 12 14  1  0  0  0  0 
 13 15  1  0  0  0  0 
 14 16  2  0  0  0  0 
 15 17  2  0  0  0  0 
 16 17  1  0  0  0  0 
  1 18  1  0  0  0  0 
 19 18  1  0  0  0  0 
 20 21  1  0  0  0  0 
 21 22  1  0  0  0  0 
 22 23  1  0  0  0  0 
 19 20  2  0  0  0  0 
 19 23  1  0  0  0  0 
 22 24  2  0  0  0  0 
 20 25  1  0  0  0  0 
 26  2  1  0  0  0  0 
 27  3  1  0  0  0  0 
 28  4  1  0  0  0  0 
 29  5  1  0  0  0  0 
 30  8  1  0  0  0  0 
 31  8  1  0  0  0  0 
 32  9  1  0  0  0  0 
 33  9  1  0  0  0  0 
 34 11  1  0  0  0  0 
 35 11  1  0  0  0  0 
 36 11  1  0  0  0  0 
 37 13  1  0  0  0  0 
 38 15  1  0  0  0  0 
 39 16  1  0  0  0  0 
 40 17  1  0  0  0  0 
 41 18  1  0  0  0  0 
 42 18  1  0  0  0  0 
 43 21  1  0  0  0  0 
 44 25  1  0  0  0  0 
M  END
> <cdk:Title>
rosiglitazone

> <Conformer>
1

> <SuperDrugID>
SD002165

$$$$
