medrogestone
  CDK     0628171801

 57 60  0  0  0  0  0  0  0  0999 V2000
   -5.5603    2.2713    1.1394 C   0  0  0  0  0  0  0  0  0  0  0  0
   -5.8651    1.1290    0.0800 C   0  0  2  0  0  0  0  0  0  0  0  0
   -4.9131    1.1615   -1.1677 C   0  0  2  0  0  0  0  0  0  0  0  0
   -7.2835    1.3957   -0.5976 C   0  0  2  0  0  0  0  0  0  0  0  0
   -5.6462   -0.2554    0.7988 C   0  0  2  0  0  0  0  0  0  0  0  0
   -3.3991    0.9621   -0.8071 C   0  0  1  0  0  0  0  0  0  0  0  0
   -5.3845    2.3927   -1.9692 C   0  0  1  0  0  0  0  0  0  0  0  0
   -8.3529    1.7779    0.3974 C   0  0  0  0  0  0  0  0  0  0  0  0
   -7.9137    0.1705   -1.3655 C   0  0  0  0  0  0  0  0  0  0  0  0
   -6.9001    2.5122   -1.6475 C   0  0  1  0  0  0  0  0  0  0  0  0
   -4.1497   -0.5627    1.1276 C   0  0  2  0  0  0  0  0  0  0  0  0
   -3.2385   -0.4539   -0.1434 C   0  0  2  0  0  0  0  0  0  0  0  0
   -2.4701    1.1492   -1.9144 C   0  0  0  0  0  0  0  0  0  0  0  0
   -9.1882    2.9968    0.3234 C   0  0  0  0  0  0  0  0  0  0  0  0
   -8.5930    0.9869    1.3421 O   0  0  0  0  0  0  0  0  0  0  0  0
   -1.7180   -0.8727   -0.0030 C   0  0  2  0  0  0  0  0  0  0  0  0
   -1.3794    0.3823   -2.1568 C   0  0  0  0  0  0  0  0  0  0  0  0
   -0.9361    0.0612    0.9861 C   0  0  0  0  0  0  0  0  0  0  0  0
   -1.0995   -0.7514   -1.3704 C   0  0  0  0  0  0  0  0  0  0  0  0
   -1.6577   -2.3550    0.5550 C   0  0  1  0  0  0  0  0  0  0  0  0
   -0.5029    0.7958   -3.2678 C   0  0  0  0  0  0  0  0  0  0  0  0
   -0.2968   -1.7413   -1.8463 C   0  0  0  0  0  0  0  0  0  0  0  0
   -0.3126   -3.0591    0.2715 C   0  0  1  0  0  0  0  0  0  0  0  0
    0.0409   -2.8891   -1.1486 C   0  0  0  0  0  0  0  0  0  0  0  0
    0.6692   -3.8056   -1.7300 O   0  0  0  0  0  0  0  0  0  0  0  0
   -4.5473    2.2463    1.5291 H   0  0  0  0  0  0  0  0  0  0  0  0
   -5.7119    3.2686    0.7277 H   0  0  0  0  0  0  0  0  0  0  0  0
   -6.2170    2.1766    2.0046 H   0  0  0  0  0  0  0  0  0  0  0  0
   -5.1400    0.3129   -1.8209 H   0  0  0  0  0  0  0  0  0  0  0  0
   -6.0010   -1.0692    0.1635 H   0  0  0  0  0  0  0  0  0  0  0  0
   -6.2249   -0.3004    1.7235 H   0  0  0  0  0  0  0  0  0  0  0  0
   -3.1112    1.7330   -0.0936 H   0  0  0  0  0  0  0  0  0  0  0  0
   -4.8406    3.2896   -1.6556 H   0  0  0  0  0  0  0  0  0  0  0  0
   -5.2260    2.2477   -3.0422 H   0  0  0  0  0  0  0  0  0  0  0  0
   -7.2613   -0.2254   -2.1413 H   0  0  0  0  0  0  0  0  0  0  0  0
   -8.1605   -0.6527   -0.6910 H   0  0  0  0  0  0  0  0  0  0  0  0
   -8.8418    0.4710   -1.8586 H   0  0  0  0  0  0  0  0  0  0  0  0
   -7.4927    2.4396   -2.5635 H   0  0  0  0  0  0  0  0  0  0  0  0
   -7.0682    3.5129   -1.2483 H   0  0  0  0  0  0  0  0  0  0  0  0
   -4.1080   -1.5745    1.5361 H   0  0  0  0  0  0  0  0  0  0  0  0
   -3.7898    0.1088    1.9084 H   0  0  0  0  0  0  0  0  0  0  0  0
   -3.6628   -1.1795   -0.8508 H   0  0  0  0  0  0  0  0  0  0  0  0
   -2.6493    1.9349   -2.4986 H   0  0  0  0  0  0  0  0  0  0  0  0
  -10.0177    2.9472    1.0314 H   0  0  0  0  0  0  0  0  0  0  0  0
   -9.6050    3.1104   -0.6786 H   0  0  0  0  0  0  0  0  0  0  0  0
   -8.5893    3.8742    0.5706 H   0  0  0  0  0  0  0  0  0  0  0  0
   -1.3450   -0.0084    1.9952 H   0  0  0  0  0  0  0  0  0  0  0  0
   -0.9788    1.1070    0.6827 H   0  0  0  0  0  0  0  0  0  0  0  0
    0.1176   -0.2173    1.0349 H   0  0  0  0  0  0  0  0  0  0  0  0
   -1.8390   -2.3827    1.6336 H   0  0  0  0  0  0  0  0  0  0  0  0
   -2.4358   -2.9679    0.0861 H   0  0  0  0  0  0  0  0  0  0  0  0
   -0.5884    0.0864   -4.0911 H   0  0  0  0  0  0  0  0  0  0  0  0
    0.5345    0.8303   -2.9300 H   0  0  0  0  0  0  0  0  0  0  0  0
   -0.7362    1.7840   -3.6736 H   0  0  0  0  0  0  0  0  0  0  0  0
    0.0891   -1.6781   -2.7571 H   0  0  0  0  0  0  0  0  0  0  0  0
    0.4818   -2.6315    0.8877 H   0  0  0  0  0  0  0  0  0  0  0  0
   -0.4006   -4.1218    0.5215 H   0  0  0  0  0  0  0  0  0  0  0  0
  2  1  1  0  0  0  0 
  2  3  1  0  0  0  0 
  2  4  1  0  0  0  0 
  2  5  1  0  0  0  0 
  3  6  1  0  0  0  0 
  3  7  1  0  0  0  0 
  4  8  1  0  0  0  0 
  4  9  1  0  0  0  0 
  4 10  1  0  0  0  0 
  5 11  1  0  0  0  0 
  6 12  1  0  0  0  0 
  6 13  1  0  0  0  0 
  7 10  1  0  0  0  0 
  8 14  1  0  0  0  0 
  8 15  2  0  0  0  0 
 12 11  1  0  0  0  0 
 12 16  1  0  0  0  0 
 13 17  2  0  0  0  0 
 16 18  1  0  0  0  0 
 16 19  1  0  0  0  0 
 16 20  1  0  0  0  0 
 17 19  1  0  0  0  0 
 17 21  1  0  0  0  0 
 19 22  2  0  0  0  0 
 20 23  1  0  0  0  0 
 22 24  1  0  0  0  0 
 23 24  1  0  0  0  0 
 24 25  2  0  0  0  0 
 26  1  1  0  0  0  0 
 27  1  1  0  0  0  0 
 28  1  1  0  0  0  0 
  3 29  1  0  0  0  0 
 30  5  1  0  0  0  0 
 31  5  1  0  0  0  0 
  6 32  1  0  0  0  0 
 33  7  1  0  0  0  0 
 34  7  1  0  0  0  0 
 35  9  1  0  0  0  0 
 36  9  1  0  0  0  0 
 37  9  1  0  0  0  0 
 38 10  1  0  0  0  0 
 39 10  1  0  0  0  0 
 40 11  1  0  0  0  0 
 41 11  1  0  0  0  0 
 12 42  1  0  0  0  0 
 43 13  1  0  0  0  0 
 44 14  1  0  0  0  0 
 45 14  1  0  0  0  0 
 46 14  1  0  0  0  0 
 47 18  1  0  0  0  0 
 48 18  1  0  0  0  0 
 49 18  1  0  0  0  0 
 50 20  1  0  0  0  0 
 51 20  1  0  0  0  0 
 52 21  1  0  0  0  0 
 53 21  1  0  0  0  0 
 54 21  1  0  0  0  0 
 55 22  1  0  0  0  0 
 56 23  1  0  0  0  0 
 57 23  1  0  0  0  0 
M  END
> <cdk:Title>
medrogestone

> <Conformer>
1

> <SuperDrugID>
SD001467

$$$$
