aminopicoline
  CDK     0628171801

 16 16  0  0  0  0  0  0  0  0999 V2000
    1.3172   -0.8602   -0.1722 C   0  0  0  0  0  0  0  0  0  0  0  0
   -0.0661   -0.3316   -0.2099 C   0  0  0  0  0  0  0  0  0  0  0  0
   -1.1444   -1.0412    0.3684 C   0  0  0  0  0  0  0  0  0  0  0  0
   -2.4410   -0.5021    0.3029 C   0  0  0  0  0  0  0  0  0  0  0  0
   -2.6497    0.6906   -0.3096 N   0  0  0  0  0  0  0  0  0  0  0  0
   -1.6447    1.4068   -0.8719 C   0  0  0  0  0  0  0  0  0  0  0  0
   -1.9281    2.5872   -1.4447 N   0  0  0  0  0  0  0  0  0  0  0  0
   -0.3269    0.9093   -0.8362 C   0  0  0  0  0  0  0  0  0  0  0  0
    1.6778   -1.0228   -1.1896 H   0  0  0  0  0  0  0  0  0  0  0  0
    1.3795   -1.8079    0.3663 H   0  0  0  0  0  0  0  0  0  0  0  0
    1.9739   -0.1445    0.3254 H   0  0  0  0  0  0  0  0  0  0  0  0
   -0.9963   -1.9400    0.8319 H   0  0  0  0  0  0  0  0  0  0  0  0
   -3.2303   -1.0001    0.7177 H   0  0  0  0  0  0  0  0  0  0  0  0
   -2.8442    2.9021   -1.4748 H   0  0  0  0  0  0  0  0  0  0  0  0
   -1.2174    3.1240   -1.8283 H   0  0  0  0  0  0  0  0  0  0  0  0
    0.4353    1.4478   -1.2586 H   0  0  0  0  0  0  0  0  0  0  0  0
  1  2  1  0  0  0  0 
  2  3  2  0  0  0  0 
  3  4  1  0  0  0  0 
  4  5  2  0  0  0  0 
  5  6  1  0  0  0  0 
  6  7  1  0  0  0  0 
  6  8  2  0  0  0  0 
  2  8  1  0  0  0  0 
  1  9  1  0  0  0  0 
  1 10  1  0  0  0  0 
  1 11  1  0  0  0  0 
  3 12  1  0  0  0  0 
  4 13  1  0  0  0  0 
  7 14  1  0  0  0  0 
  7 15  1  0  0  0  0 
  8 16  1  0  0  0  0 
M  END
> <cdk:Title>
aminopicoline

> <Conformer>
1

> <SuperDrugID>
SD000138

$$$$
