sarpogrelate
  CDK     0628171801

 62 63  0  0  0  0  0  0  0  0999 V2000
   -3.9639   -0.9667   -2.8304 C   0  0  1  0  0  0  0  0  0  0  0  0
   -4.7798   -1.7821   -3.7602 C   0  0  0  0  0  0  0  0  0  0  0  0
   -2.4445   -0.8877   -3.1379 C   0  0  1  0  0  0  0  0  0  0  0  0
   -1.7240   -0.0907   -2.1273 C   0  0  0  0  0  0  0  0  0  0  0  0
   -1.0167   -0.7302   -1.1487 O   0  0  0  0  0  0  0  0  0  0  0  0
   -1.8061    1.1599   -2.1556 O   0  0  0  0  0  0  0  0  0  0  0  0
   -0.1752   -0.1434   -0.1370 C   0  0  2  0  0  0  0  0  0  0  0  0
    1.1820   -0.8892   -0.1505 C   0  0  2  0  0  0  0  0  0  0  0  0
    0.0458    0.8989   -0.3774 H   0  0  0  0  0  0  0  0  0  0  0  0
   -0.8936   -0.2092    1.2394 C   0  0  1  0  0  0  0  0  0  0  0  0
    0.9969   -2.2732    0.2170 O   0  0  0  0  0  0  0  0  0  0  0  0
    2.0082   -3.1135   -0.1724 C   0  0  0  0  0  0  0  0  0  0  0  0
    3.2729   -3.0373    0.4521 C   0  0  0  0  0  0  0  0  0  0  0  0
    4.3199   -3.8806    0.0424 C   0  0  0  0  0  0  0  0  0  0  0  0
    4.1004   -4.8276   -0.9715 C   0  0  0  0  0  0  0  0  0  0  0  0
    2.8359   -4.9288   -1.5777 C   0  0  0  0  0  0  0  0  0  0  0  0
    1.7726   -4.0796   -1.1872 C   0  0  0  0  0  0  0  0  0  0  0  0
    0.4291   -4.2353   -1.8171 C   0  0  2  0  0  0  0  0  0  0  0  0
   -0.5441   -5.0069   -0.8829 C   0  0  2  0  0  0  0  0  0  0  0  0
   -1.8807   -5.2352   -1.4958 C   0  0  0  0  0  0  0  0  0  0  0  0
   -2.0219   -6.1091   -2.6007 C   0  0  0  0  0  0  0  0  0  0  0  0
   -3.2806   -6.3287   -3.1884 C   0  0  0  0  0  0  0  0  0  0  0  0
   -4.4195   -5.6837   -2.6741 C   0  0  0  0  0  0  0  0  0  0  0  0
   -4.3054   -4.8336   -1.5560 C   0  0  0  0  0  0  0  0  0  0  0  0
   -3.0386   -4.6030   -0.9821 C   0  0  0  0  0  0  0  0  0  0  0  0
   -5.4172   -4.2275   -1.0368 O   0  0  0  0  0  0  0  0  0  0  0  0
   -6.0308   -4.9942    0.0152 C   0  0  0  0  0  0  0  0  0  0  0  0
   -2.1461    0.6178    1.2768 N   0  0  1  0  0  0  0  0  0  0  0  0
   -3.1315    0.1245    2.2822 C   0  0  0  0  0  0  0  0  0  0  0  0
   -1.8952    2.0865    1.4062 C   0  0  0  0  0  0  0  0  0  0  0  0
   -4.2378   -2.3120   -4.7831 O   0  0  0  0  0  0  0  0  0  0  0  0
   -6.1263   -1.8984   -3.4090 O   0  0  0  0  0  0  0  0  0  0  0  0
   -4.3781    0.0438   -2.8296 H   0  0  0  0  0  0  0  0  0  0  0  0
   -4.0921   -1.3858   -1.8290 H   0  0  0  0  0  0  0  0  0  0  0  0
   -2.0292   -1.8979   -3.1623 H   0  0  0  0  0  0  0  0  0  0  0  0
   -2.2807   -0.4408   -4.1212 H   0  0  0  0  0  0  0  0  0  0  0  0
    1.8663   -0.4128    0.5580 H   0  0  0  0  0  0  0  0  0  0  0  0
    1.6098   -0.7900   -1.1545 H   0  0  0  0  0  0  0  0  0  0  0  0
   -1.1343   -1.2616    1.4195 H   0  0  0  0  0  0  0  0  0  0  0  0
   -0.2102    0.1038    2.0364 H   0  0  0  0  0  0  0  0  0  0  0  0
    3.4345   -2.3655    1.2069 H   0  0  0  0  0  0  0  0  0  0  0  0
    5.2391   -3.8070    0.4835 H   0  0  0  0  0  0  0  0  0  0  0  0
    4.8567   -5.4504   -1.2622 H   0  0  0  0  0  0  0  0  0  0  0  0
    2.6928   -5.6397   -2.2999 H   0  0  0  0  0  0  0  0  0  0  0  0
    0.5176   -4.7738   -2.7660 H   0  0  0  0  0  0  0  0  0  0  0  0
    0.0197   -3.2502   -2.0580 H   0  0  0  0  0  0  0  0  0  0  0  0
   -0.6479   -4.4491    0.0524 H   0  0  0  0  0  0  0  0  0  0  0  0
   -0.1091   -5.9788   -0.6275 H   0  0  0  0  0  0  0  0  0  0  0  0
   -1.2076   -6.6006   -2.9789 H   0  0  0  0  0  0  0  0  0  0  0  0
   -3.3660   -6.9570   -3.9904 H   0  0  0  0  0  0  0  0  0  0  0  0
   -5.3324   -5.8363   -3.1086 H   0  0  0  0  0  0  0  0  0  0  0  0
   -2.9683   -3.9702   -0.1818 H   0  0  0  0  0  0  0  0  0  0  0  0
   -6.8934   -4.4373    0.3766 H   0  0  0  0  0  0  0  0  0  0  0  0
   -6.3797   -5.9640   -0.3464 H   0  0  0  0  0  0  0  0  0  0  0  0
   -5.3488   -5.1432    0.8551 H   0  0  0  0  0  0  0  0  0  0  0  0
   -3.4077   -0.9091    2.0624 H   0  0  0  0  0  0  0  0  0  0  0  0
   -4.0507    0.7135    2.2491 H   0  0  0  0  0  0  0  0  0  0  0  0
   -2.7188    0.1707    3.2929 H   0  0  0  0  0  0  0  0  0  0  0  0
   -1.3495    2.4657    0.5429 H   0  0  0  0  0  0  0  0  0  0  0  0
   -2.8344    2.6410    1.4505 H   0  0  0  0  0  0  0  0  0  0  0  0
   -1.3192    2.3117    2.3071 H   0  0  0  0  0  0  0  0  0  0  0  0
   -6.7412   -2.4214   -3.9629 H   0  0  0  0  0  0  0  0  0  0  0  0
  1  2  1  0  0  0  0 
  1  3  1  0  0  0  0 
  3  4  1  0  0  0  0 
  4  5  1  0  0  0  0 
  4  6  2  0  0  0  0 
  7  5  1  0  0  0  0 
  7  8  1  0  0  0  0 
  7  9  1  0  0  0  0 
  7 10  1  0  0  0  0 
  8 11  1  0  0  0  0 
 11 12  1  0  0  0  0 
 12 13  2  0  0  0  0 
 13 14  1  0  0  0  0 
 14 15  2  0  0  0  0 
 15 16  1  0  0  0  0 
 16 17  2  0  0  0  0 
 17 12  1  0  0  0  0 
 17 18  1  0  0  0  0 
 18 19  1  0  0  0  0 
 19 20  1  0  0  0  0 
 20 21  2  0  0  0  0 
 21 22  1  0  0  0  0 
 22 23  2  0  0  0  0 
 23 24  1  0  0  0  0 
 24 25  2  0  0  0  0 
 25 20  1  0  0  0  0 
 24 26  1  0  0  0  0 
 26 27  1  0  0  0  0 
 10 28  1  0  0  0  0 
 28 29  1  0  0  0  0 
 28 30  1  0  0  0  0 
  2 31  2  0  0  0  0 
  2 32  1  0  0  0  0 
  1 33  1  0  0  0  0 
  1 34  1  0  0  0  0 
  3 35  1  0  0  0  0 
  3 36  1  0  0  0  0 
  8 37  1  0  0  0  0 
  8 38  1  0  0  0  0 
 10 39  1  0  0  0  0 
 10 40  1  0  0  0  0 
 13 41  1  0  0  0  0 
 14 42  1  0  0  0  0 
 15 43  1  0  0  0  0 
 16 44  1  0  0  0  0 
 18 45  1  0  0  0  0 
 18 46  1  0  0  0  0 
 19 47  1  0  0  0  0 
 19 48  1  0  0  0  0 
 21 49  1  0  0  0  0 
 22 50  1  0  0  0  0 
 23 51  1  0  0  0  0 
 25 52  1  0  0  0  0 
 27 53  1  0  0  0  0 
 27 54  1  0  0  0  0 
 27 55  1  0  0  0  0 
 29 56  1  0  0  0  0 
 29 57  1  0  0  0  0 
 29 58  1  0  0  0  0 
 30 59  1  0  0  0  0 
 30 60  1  0  0  0  0 
 30 61  1  0  0  0  0 
 32 62  1  0  0  0  0 
M  END
> <cdk:Title>
sarpogrelate

> <Conformer>
1

> <SuperDrugID>
SD002180

$$$$
