subathizone
  CDK     0628171801

 30 30  0  0  0  0  0  0  0  0999 V2000
    2.2526   -1.1096   -1.0690 S   0  0  2  0  0  0  0  0  0  0  0  0
    1.1101   -1.8929   -2.2757 C   0  0  2  0  0  0  0  0  0  0  0  0
    1.4593    0.0334   -0.2681 O   0  0  0  0  0  0  0  0  0  0  0  0
    3.4471   -0.4153   -1.8866 O   0  0  0  0  0  0  0  0  0  0  0  0
    2.8880   -2.2893    0.0942 C   0  0  0  0  0  0  0  0  0  0  0  0
    1.7727   -3.0609   -3.0346 C   0  0  0  0  0  0  0  0  0  0  0  0
    2.0503   -3.2874    0.6313 C   0  0  0  0  0  0  0  0  0  0  0  0
    4.2368   -2.2342    0.4981 C   0  0  0  0  0  0  0  0  0  0  0  0
    2.5634   -4.2420    1.5277 C   0  0  0  0  0  0  0  0  0  0  0  0
    4.7485   -3.1842    1.4012 C   0  0  0  0  0  0  0  0  0  0  0  0
    3.9287   -4.2215    1.9131 C   0  0  0  0  0  0  0  0  0  0  0  0
    4.4835   -5.1903    2.7498 C   0  0  0  0  0  0  0  0  0  0  0  0
    3.7934   -6.1565    3.2389 N   0  0  0  0  0  0  0  0  0  0  0  0
    4.2522   -7.0713    3.9883 N   0  0  0  0  0  0  0  0  0  0  0  0
    3.5132   -8.0632    4.4588 C   0  0  0  0  0  0  0  0  0  0  0  0
    2.2180   -8.1827    4.2404 N   0  0  0  0  0  0  0  0  0  0  0  0
    4.2800   -9.2439    5.4112 S   0  0  0  0  0  0  0  0  0  0  0  0
    0.7852   -1.1352   -2.9886 H   0  0  0  0  0  0  0  0  0  0  0  0
    0.2272   -2.2506   -1.7460 H   0  0  0  0  0  0  0  0  0  0  0  0
    2.0752   -3.8421   -2.3358 H   0  0  0  0  0  0  0  0  0  0  0  0
    1.0673   -3.4899   -3.7492 H   0  0  0  0  0  0  0  0  0  0  0  0
    2.6505   -2.7085   -3.5784 H   0  0  0  0  0  0  0  0  0  0  0  0
    1.0627   -3.3349    0.3670 H   0  0  0  0  0  0  0  0  0  0  0  0
    4.8586   -1.5088    0.1342 H   0  0  0  0  0  0  0  0  0  0  0  0
    1.9241   -4.9562    1.8904 H   0  0  0  0  0  0  0  0  0  0  0  0
    5.7334   -3.1106    1.6760 H   0  0  0  0  0  0  0  0  0  0  0  0
    5.4549   -5.1423    2.9676 H   0  0  0  0  0  0  0  0  0  0  0  0
    5.1936   -7.0467    4.2264 H   0  0  0  0  0  0  0  0  0  0  0  0
    1.7483   -7.5106    3.7217 H   0  0  0  0  0  0  0  0  0  0  0  0
    1.7291   -8.9410    4.6020 H   0  0  0  0  0  0  0  0  0  0  0  0
  1  2  1  0  0  0  0 
  1  3  2  0  0  0  0 
  1  4  2  0  0  0  0 
  1  5  1  0  0  0  0 
  2  6  1  0  0  0  0 
  5  7  2  0  0  0  0 
  5  8  1  0  0  0  0 
  7  9  1  0  0  0  0 
  8 10  2  0  0  0  0 
  9 11  2  0  0  0  0 
 10 11  1  0  0  0  0 
 12 11  1  0  0  0  0 
 12 13  2  0  0  0  0 
 13 14  1  0  0  0  0 
 14 15  1  0  0  0  0 
 15 16  1  0  0  0  0 
 15 17  2  0  0  0  0 
 18  2  1  0  0  0  0 
 19  2  1  0  0  0  0 
 20  6  1  0  0  0  0 
 21  6  1  0  0  0  0 
 22  6  1  0  0  0  0 
 23  7  1  0  0  0  0 
 24  8  1  0  0  0  0 
 25  9  1  0  0  0  0 
 26 10  1  0  0  0  0 
 27 12  1  0  0  0  0 
 28 14  1  0  0  0  0 
 29 16  1  0  0  0  0 
 30 16  1  0  0  0  0 
M  END
> <cdk:Title>
subathizone

> <Conformer>
1

> <SuperDrugID>
SD003269

$$$$
