thiouracil
  CDK     0628171801

 12 12  0  0  0  0  0  0  0  0999 V2000
   -2.6721   -2.2979    0.0000 O   0  0  0  0  0  0  0  0  0  0  0  0
   -2.0836   -1.1935    0.0000 C   0  0  0  0  0  0  0  0  0  0  0  0
   -0.7240   -1.1529    0.0000 N   0  0  0  0  0  0  0  0  0  0  0  0
   -0.0621    0.0027    0.0000 C   0  0  0  0  0  0  0  0  0  0  0  0
    1.6385   -0.0005    0.0000 S   0  0  0  0  0  0  0  0  0  0  0  0
   -0.7180    1.1615    0.0000 N   0  0  0  0  0  0  0  0  0  0  0  0
   -2.0766    1.2073    0.0000 C   0  0  0  0  0  0  0  0  0  0  0  0
   -2.8132    0.0096    0.0000 C   0  0  0  0  0  0  0  0  0  0  0  0
   -0.2259   -1.9857    0.0000 H   0  0  0  0  0  0  0  0  0  0  0  0
   -0.2173    1.9926    0.0000 H   0  0  0  0  0  0  0  0  0  0  0  0
   -2.5560    2.1093    0.0000 H   0  0  0  0  0  0  0  0  0  0  0  0
   -3.8356    0.0177    0.0000 H   0  0  0  0  0  0  0  0  0  0  0  0
  1  2  2  0  0  0  0 
  2  3  1  0  0  0  0 
  3  4  1  0  0  0  0 
  4  5  2  0  0  0  0 
  4  6  1  0  0  0  0 
  6  7  1  0  0  0  0 
  7  8  2  0  0  0  0 
  2  8  1  0  0  0  0 
  9  3  1  0  0  0  0 
 10  6  1  0  0  0  0 
 11  7  1  0  0  0  0 
 12  8  1  0  0  0  0 
M  END
> <cdk:Title>
thiouracil

> <Conformer>
1

> <SuperDrugID>
SD002374

$$$$
