methazolamide
  CDK     0628171801

 22 22  0  0  0  0  0  0  0  0999 V2000
    1.1648   -1.9084    2.0743 S   0  0  0  0  0  0  0  0  0  0  0  0
    0.2943   -2.7983    3.3102 C   0  0  0  0  0  0  0  0  0  0  0  0
   -0.9938   -2.3547    3.2448 N   0  0  0  0  0  0  0  0  0  0  0  0
   -1.2547   -1.4326    2.3348 N   0  0  0  0  0  0  0  0  0  0  0  0
   -0.2427   -1.0059    1.5470 C   0  0  0  0  0  0  0  0  0  0  0  0
    0.8173   -3.7121    4.0942 N   0  0  0  0  0  0  0  0  0  0  0  0
   -0.3215    0.2055    0.2684 S   0  0  1  0  0  0  0  0  0  0  0  0
    0.3782   -0.4340   -1.2118 N   0  0  2  0  0  0  0  0  0  0  0  0
    1.2783   -3.5292    5.3231 C   0  0  0  0  0  0  0  0  0  0  0  0
    1.2269   -2.4141    5.8982 O   0  0  0  0  0  0  0  0  0  0  0  0
    1.8682   -4.6569    6.0617 C   0  0  0  0  0  0  0  0  0  0  0  0
   -2.0321   -2.8380    4.1028 C   0  0  0  0  0  0  0  0  0  0  0  0
   -1.8442    0.6161   -0.0256 O   0  0  0  0  0  0  0  0  0  0  0  0
    0.5045    1.5139    0.6904 O   0  0  0  0  0  0  0  0  0  0  0  0
    0.2289    0.2727   -1.9333 H   0  0  0  0  0  0  0  0  0  0  0  0
   -0.1741   -1.2497   -1.4824 H   0  0  0  0  0  0  0  0  0  0  0  0
    1.3034   -4.8257    6.9789 H   0  0  0  0  0  0  0  0  0  0  0  0
    1.8543   -5.5773    5.4760 H   0  0  0  0  0  0  0  0  0  0  0  0
    2.9038   -4.4251    6.3165 H   0  0  0  0  0  0  0  0  0  0  0  0
   -1.7497   -2.6951    5.1484 H   0  0  0  0  0  0  0  0  0  0  0  0
   -2.9750   -2.3121    3.9311 H   0  0  0  0  0  0  0  0  0  0  0  0
   -2.1999   -3.9017    3.9240 H   0  0  0  0  0  0  0  0  0  0  0  0
  1  2  1  0  0  0  0 
  1  5  1  0  0  0  0 
  2  3  1  0  0  0  0 
  3  4  1  0  0  0  0 
  4  5  2  0  0  0  0 
  2  6  2  0  0  0  0 
  5  7  1  0  0  0  0 
  7  8  1  0  0  0  0 
  6  9  1  0  0  0  0 
  9 10  2  0  0  0  0 
  9 11  1  0  0  0  0 
  3 12  1  0  0  0  0 
  7 13  2  0  0  0  0 
  7 14  2  0  0  0  0 
 15  8  1  0  0  0  0 
 16  8  1  0  0  0  0 
 17 11  1  0  0  0  0 
 18 11  1  0  0  0  0 
 19 11  1  0  0  0  0 
 20 12  1  0  0  0  0 
 21 12  1  0  0  0  0 
 22 12  1  0  0  0  0 
M  END
> <cdk:Title>
methazolamide

> <Conformer>
1

> <SuperDrugID>
SD001541

$$$$
