retapamulin
  CDK     0628171801

 83 87  0  0  0  0  0  0  0  0999 V2000
   -4.4132    4.1984    7.4452 C   0  0  2  0  0  0  0  0  0  0  0  0
   -4.5953    4.1498    8.9948 C   0  0  2  0  0  0  0  0  0  0  0  0
   -3.6550    5.1647    9.5416 N   0  0  2  0  0  0  0  0  0  0  0  0
   -2.3530    4.4472    9.4834 C   0  0  2  0  0  0  0  0  0  0  0  0
   -1.8890    4.4868    7.9906 C   0  0  1  0  0  0  0  0  0  0  0  0
   -2.9454    3.8940    7.0020 C   0  0  2  0  0  0  0  0  0  0  0  0
   -5.6394    4.3769    9.2341 H   0  0  0  0  0  0  0  0  0  0  0  0
   -1.5879    4.9265   10.1040 H   0  0  0  0  0  0  0  0  0  0  0  0
   -4.1583    2.8085    9.6435 C   0  0  1  0  0  0  0  0  0  0  0  0
   -2.6714    3.0230   10.0041 C   0  0  2  0  0  0  0  0  0  0  0  0
   -4.0295    5.7616   10.8527 C   0  0  0  0  0  0  0  0  0  0  0  0
   -2.8257    2.8069    6.9740 H   0  0  0  0  0  0  0  0  0  0  0  0
   -2.6664    4.5407    5.3165 S   0  0  0  0  0  0  0  0  0  0  0  0
   -1.6310    3.2990    4.4830 C   0  0  2  0  0  0  0  0  0  0  0  0
   -1.3453    3.8307    3.1408 C   0  0  0  0  0  0  0  0  0  0  0  0
   -2.0551    3.3600    2.0694 O   0  0  0  0  0  0  0  0  0  0  0  0
   -0.4669    4.7139    3.0042 O   0  0  0  0  0  0  0  0  0  0  0  0
   -1.9735    3.7565    0.6839 C   0  0  1  0  0  0  0  0  0  0  0  0
   -2.2566    1.2468   -0.1301 C   0  0  1  0  0  0  0  0  0  0  0  0
   -1.3553    2.5647   -0.1968 C   0  0  1  0  0  0  0  0  0  0  0  0
   -3.3011    4.5075    0.3143 C   0  0  2  0  0  0  0  0  0  0  0  0
   -4.7288    4.0767    0.8676 C   0  0  1  0  0  0  0  0  0  0  0  0
   -5.0600    2.5467    0.6082 C   0  0  2  0  0  0  0  0  0  0  0  0
   -4.8029    2.0602   -0.8737 C   0  0  1  0  0  0  0  0  0  0  0  0
   -3.5010    1.1533   -1.1171 C   0  0  2  0  0  0  0  0  0  0  0  0
   -3.8711   -0.3584   -0.9465 C   0  0  2  0  0  0  0  0  0  0  0  0
   -2.5537   -1.1283   -0.7830 C   0  0  1  0  0  0  0  0  0  0  0  0
   -1.6295   -0.0950   -0.3302 C   0  0  0  0  0  0  0  0  0  0  0  0
   -2.9573    1.4103   -2.5797 C   0  0  1  0  0  0  0  0  0  0  0  0
   -1.0291    2.9160   -1.7206 C   0  0  1  0  0  0  0  0  0  0  0  0
   -2.2032    2.7547   -2.7355 C   0  0  2  0  0  0  0  0  0  0  0  0
   -1.2304    4.5595    0.6232 H   0  0  0  0  0  0  0  0  0  0  0  0
    0.0390    2.2906    0.5199 C   0  0  0  0  0  0  0  0  0  0  0  0
   -0.3197    4.2860   -1.9575 C   0  0  0  0  0  0  0  0  0  0  0  0
   -0.3063    2.1679   -2.0702 H   0  0  0  0  0  0  0  0  0  0  0  0
   -0.4473   -0.4240   -0.0825 O   0  0  0  0  0  0  0  0  0  0  0  0
   -2.5715    1.1479    0.9061 H   0  0  0  0  0  0  0  0  0  0  0  0
   -4.6614    2.9623   -1.4580 H   0  0  0  0  0  0  0  0  0  0  0  0
   -6.1101    1.5241   -1.5565 C   0  0  0  0  0  0  0  0  0  0  0  0
   -4.4764    1.9448    1.2927 H   0  0  0  0  0  0  0  0  0  0  0  0
   -6.3888    2.2475    1.0572 O   0  0  0  0  0  0  0  0  0  0  0  0
   -4.8482    4.3488    2.4131 C   0  0  0  0  0  0  0  0  0  0  0  0
   -5.7469    4.9225    0.1865 C   0  0  0  0  0  0  0  0  0  0  0  0
   -5.8514    6.2564    0.2921 C   0  0  0  0  0  0  0  0  0  0  0  0
   -4.7037    5.1991    7.1115 H   0  0  0  0  0  0  0  0  0  0  0  0
   -5.0966    3.4865    6.9728 H   0  0  0  0  0  0  0  0  0  0  0  0
   -1.6993    5.5332    7.7366 H   0  0  0  0  0  0  0  0  0  0  0  0
   -0.9443    3.9470    7.8838 H   0  0  0  0  0  0  0  0  0  0  0  0
   -4.7430    2.6181   10.5477 H   0  0  0  0  0  0  0  0  0  0  0  0
   -4.2887    1.9617    8.9647 H   0  0  0  0  0  0  0  0  0  0  0  0
   -2.5375    2.9825   11.0894 H   0  0  0  0  0  0  0  0  0  0  0  0
   -2.0271    2.2667    9.5483 H   0  0  0  0  0  0  0  0  0  0  0  0
   -4.1569    5.0053   11.6305 H   0  0  0  0  0  0  0  0  0  0  0  0
   -4.9642    6.3142   10.7447 H   0  0  0  0  0  0  0  0  0  0  0  0
   -3.2617    6.4685   11.1702 H   0  0  0  0  0  0  0  0  0  0  0  0
   -2.2640    2.3640    4.3712 H   0  0  0  0  0  0  0  0  0  0  0  0
   -0.6529    3.2139    5.0510 H   0  0  0  0  0  0  0  0  0  0  0  0
   -3.3305    4.6147   -0.7645 H   0  0  0  0  0  0  0  0  0  0  0  0
   -3.1507    5.5365    0.6632 H   0  0  0  0  0  0  0  0  0  0  0  0
   -4.4392   -0.7506   -1.7949 H   0  0  0  0  0  0  0  0  0  0  0  0
   -4.4713   -0.4990   -0.0408 H   0  0  0  0  0  0  0  0  0  0  0  0
   -2.6462   -1.9257   -0.0418 H   0  0  0  0  0  0  0  0  0  0  0  0
   -2.2159   -1.5464   -1.7356 H   0  0  0  0  0  0  0  0  0  0  0  0
   -2.2637    0.6236   -2.8847 H   0  0  0  0  0  0  0  0  0  0  0  0
   -3.7691    1.3793   -3.3087 H   0  0  0  0  0  0  0  0  0  0  0  0
   -2.8930    3.5911   -2.6797 H   0  0  0  0  0  0  0  0  0  0  0  0
   -1.7984    2.7794   -3.7519 H   0  0  0  0  0  0  0  0  0  0  0  0
   -0.1010    1.7413    1.4538 H   0  0  0  0  0  0  0  0  0  0  0  0
    0.7274    1.7156   -0.0988 H   0  0  0  0  0  0  0  0  0  0  0  0
    0.5742    3.2088    0.7711 H   0  0  0  0  0  0  0  0  0  0  0  0
   -1.0037    5.1188   -1.7895 H   0  0  0  0  0  0  0  0  0  0  0  0
    0.5398    4.4046   -1.2974 H   0  0  0  0  0  0  0  0  0  0  0  0
    0.0478    4.3503   -2.9840 H   0  0  0  0  0  0  0  0  0  0  0  0
   -5.9487    1.2930   -2.6103 H   0  0  0  0  0  0  0  0  0  0  0  0
   -6.9053    2.2734   -1.5158 H   0  0  0  0  0  0  0  0  0  0  0  0
   -6.4734    0.6250   -1.0589 H   0  0  0  0  0  0  0  0  0  0  0  0
   -6.3836    2.4092    2.0245 H   0  0  0  0  0  0  0  0  0  0  0  0
   -4.3979    5.3027    2.6869 H   0  0  0  0  0  0  0  0  0  0  0  0
   -4.3590    3.5701    2.9986 H   0  0  0  0  0  0  0  0  0  0  0  0
   -5.8918    4.3704    2.7355 H   0  0  0  0  0  0  0  0  0  0  0  0
   -6.4132    4.4871   -0.4091 H   0  0  0  0  0  0  0  0  0  0  0  0
   -5.2324    6.7815    0.8595 H   0  0  0  0  0  0  0  0  0  0  0  0
   -6.5594    6.7433   -0.2042 H   0  0  0  0  0  0  0  0  0  0  0  0
  1  2  1  0  0  0  0 
  2  3  1  0  0  0  0 
  3  4  1  0  0  0  0 
  4  5  1  0  0  0  0 
  5  6  1  0  0  0  0 
  1  6  1  0  0  0  0 
  2  7  1  0  0  0  0 
  4  8  1  0  0  0  0 
  2  9  1  0  0  0  0 
  4 10  1  0  0  0  0 
  9 10  1  0  0  0  0 
  3 11  1  0  0  0  0 
  6 12  1  0  0  0  0 
  6 13  1  0  0  0  0 
 13 14  1  0  0  0  0 
 14 15  1  0  0  0  0 
 15 16  1  0  0  0  0 
 15 17  2  0  0  0  0 
 18 16  1  0  0  0  0 
 20 18  1  0  0  0  0 
 18 21  1  0  0  0  0 
 19 20  1  0  0  0  0 
 21 22  1  0  0  0  0 
 22 23  1  0  0  0  0 
 23 24  1  0  0  0  0 
 24 25  1  0  0  0  0 
 25 26  1  0  0  0  0 
 19 25  1  0  0  0  0 
 19 28  1  0  0  0  0 
 26 27  1  0  0  0  0 
 27 28  1  0  0  0  0 
 25 29  1  0  0  0  0 
 20 30  1  0  0  0  0 
 30 31  1  0  0  0  0 
 31 29  1  0  0  0  0 
 18 32  1  0  0  0  0 
 20 33  1  0  0  0  0 
 30 34  1  0  0  0  0 
 30 35  1  0  0  0  0 
 28 36  2  0  0  0  0 
 19 37  1  0  0  0  0 
 24 38  1  0  0  0  0 
 24 39  1  0  0  0  0 
 23 40  1  0  0  0  0 
 23 41  1  0  0  0  0 
 22 42  1  0  0  0  0 
 22 43  1  0  0  0  0 
 43 44  2  0  0  0  0 
  1 45  1  0  0  0  0 
  1 46  1  0  0  0  0 
  5 47  1  0  0  0  0 
  5 48  1  0  0  0  0 
  9 49  1  0  0  0  0 
  9 50  1  0  0  0  0 
 10 51  1  0  0  0  0 
 10 52  1  0  0  0  0 
 11 53  1  0  0  0  0 
 11 54  1  0  0  0  0 
 11 55  1  0  0  0  0 
 14 56  1  0  0  0  0 
 14 57  1  0  0  0  0 
 21 58  1  0  0  0  0 
 21 59  1  0  0  0  0 
 26 60  1  0  0  0  0 
 26 61  1  0  0  0  0 
 27 62  1  0  0  0  0 
 27 63  1  0  0  0  0 
 29 64  1  0  0  0  0 
 29 65  1  0  0  0  0 
 31 66  1  0  0  0  0 
 31 67  1  0  0  0  0 
 33 68  1  0  0  0  0 
 33 69  1  0  0  0  0 
 33 70  1  0  0  0  0 
 34 71  1  0  0  0  0 
 34 72  1  0  0  0  0 
 34 73  1  0  0  0  0 
 39 74  1  0  0  0  0 
 39 75  1  0  0  0  0 
 39 76  1  0  0  0  0 
 41 77  1  0  0  0  0 
 42 78  1  0  0  0  0 
 42 79  1  0  0  0  0 
 42 80  1  0  0  0  0 
 43 81  1  0  0  0  0 
 44 82  1  0  0  0  0 
 44 83  1  0  0  0  0 
M  END
> <cdk:Title>
retapamulin

> <Conformer>
1

> <SuperDrugID>
SD002133

$$$$
