ademetionine
  CDK     0628171801

 49 51  0  0  0  0  0  0  0  0999 V2000
   -2.3259    0.9289    0.7218 C   0  0  0  0  0  0  0  0  0  0  0  0
   -1.5691    0.0650   -0.7055 S   0  0  1  0  0  0  0  0  0  0  0  0
   -1.6247    1.2571   -2.0969 C   0  0  1  0  0  0  0  0  0  0  0  0
   -3.0749    1.5052   -2.5970 C   0  0  1  0  0  0  0  0  0  0  0  0
   -3.1483    2.4016   -3.8664 C   0  0  2  0  0  0  0  0  0  0  0  0
   -2.5728    3.7266   -3.5975 N   0  0  1  0  0  0  0  0  0  0  0  0
   -4.5357    2.5812   -4.3489 C   0  0  0  0  0  0  0  0  0  0  0  0
   -5.4596    3.2092   -3.5850 O   0  0  0  0  0  0  0  0  0  0  0  0
   -4.8859    2.1757   -5.4806 O   0  0  0  0  0  0  0  0  0  0  0  0
    0.1905   -0.1324   -0.2265 C   0  0  2  0  0  0  0  0  0  0  0  0
    1.0651   -0.9832   -1.1882 C   0  0  1  0  0  0  0  0  0  0  0  0
    2.3944   -1.0536   -0.6439 O   0  0  0  0  0  0  0  0  0  0  0  0
    2.8769   -2.4100   -0.6620 C   0  0  2  0  0  0  0  0  0  0  0  0
    1.9099   -3.2122   -1.5621 C   0  0  2  0  0  0  0  0  0  0  0  0
    2.3752   -3.2191   -2.9111 O   0  0  0  0  0  0  0  0  0  0  0  0
    0.5920   -2.4384   -1.4072 C   0  0  2  0  0  0  0  0  0  0  0  0
   -0.2594   -2.5636   -2.5433 O   0  0  0  0  0  0  0  0  0  0  0  0
    3.0053   -2.9710    0.6591 N   0  0  0  0  0  0  0  0  0  0  0  0
    2.5071   -2.4943    1.8251 C   0  0  0  0  0  0  0  0  0  0  0  0
    2.8392   -3.2740    2.8723 N   0  0  0  0  0  0  0  0  0  0  0  0
    3.5732   -4.2657    2.3539 C   0  0  0  0  0  0  0  0  0  0  0  0
    3.6795   -4.0902    0.9791 C   0  0  0  0  0  0  0  0  0  0  0  0
    4.3835   -4.9645    0.2144 N   0  0  0  0  0  0  0  0  0  0  0  0
    4.9957   -6.0291    0.8049 C   0  0  0  0  0  0  0  0  0  0  0  0
    4.9032   -6.2176    2.1524 N   0  0  0  0  0  0  0  0  0  0  0  0
    4.2062   -5.3656    2.9541 C   0  0  0  0  0  0  0  0  0  0  0  0
    4.1393   -5.5879    4.2768 N   0  0  0  0  0  0  0  0  0  0  0  0
   -1.8447    1.8979    0.8666 H   0  0  0  0  0  0  0  0  0  0  0  0
   -2.1915    0.3249    1.6204 H   0  0  0  0  0  0  0  0  0  0  0  0
   -3.3923    1.0749    0.5474 H   0  0  0  0  0  0  0  0  0  0  0  0
   -1.1768    2.1950   -1.7624 H   0  0  0  0  0  0  0  0  0  0  0  0
   -1.0200    0.8545   -2.9109 H   0  0  0  0  0  0  0  0  0  0  0  0
   -3.5359    0.5384   -2.8219 H   0  0  0  0  0  0  0  0  0  0  0  0
   -3.6507    1.9734   -1.7940 H   0  0  0  0  0  0  0  0  0  0  0  0
   -2.5520    1.9356   -4.6570 H   0  0  0  0  0  0  0  0  0  0  0  0
   -2.6653    4.2758   -4.4539 H   0  0  0  0  0  0  0  0  0  0  0  0
   -3.1618    4.1724   -2.8904 H   0  0  0  0  0  0  0  0  0  0  0  0
    0.1911   -0.6069    0.7547 H   0  0  0  0  0  0  0  0  0  0  0  0
    0.6312    0.8610   -0.1124 H   0  0  0  0  0  0  0  0  0  0  0  0
    1.1354   -0.4727   -2.1532 H   0  0  0  0  0  0  0  0  0  0  0  0
    3.8756   -2.3834   -1.1105 H   0  0  0  0  0  0  0  0  0  0  0  0
    1.7967   -4.2512   -1.2413 H   0  0  0  0  0  0  0  0  0  0  0  0
    3.2236   -3.7106   -2.8712 H   0  0  0  0  0  0  0  0  0  0  0  0
    0.0585   -2.8117   -0.5286 H   0  0  0  0  0  0  0  0  0  0  0  0
   -1.0065   -1.9548   -2.3625 H   0  0  0  0  0  0  0  0  0  0  0  0
    1.9476   -1.6466    1.9231 H   0  0  0  0  0  0  0  0  0  0  0  0
    5.5280   -6.6897    0.2383 H   0  0  0  0  0  0  0  0  0  0  0  0
    3.6489   -4.9804    4.8544 H   0  0  0  0  0  0  0  0  0  0  0  0
    4.5831   -6.3624    4.6542 H   0  0  0  0  0  0  0  0  0  0  0  0
  1  2  1  0  0  0  0 
  2  3  1  0  0  0  0 
  3  4  1  0  0  0  0 
  4  5  1  0  0  0  0 
  5  6  1  0  0  0  0 
  5  7  1  0  0  0  0 
  7  8  1  0  0  0  0 
  7  9  2  0  0  0  0 
  2 10  1  0  0  0  0 
 11 10  1  0  0  0  0 
 11 12  1  0  0  0  0 
 12 13  1  0  0  0  0 
 13 14  1  0  0  0  0 
 14 15  1  0  0  0  0 
 14 16  1  0  0  0  0 
 11 16  1  0  0  0  0 
 16 17  1  0  0  0  0 
 13 18  1  0  0  0  0 
 18 19  1  0  0  0  0 
 19 20  2  0  0  0  0 
 20 21  1  0  0  0  0 
 21 22  1  0  0  0  0 
 18 22  1  0  0  0  0 
 22 23  2  0  0  0  0 
 23 24  1  0  0  0  0 
 24 25  2  0  0  0  0 
 25 26  1  0  0  0  0 
 21 26  2  0  0  0  0 
 26 27  1  0  0  0  0 
  1 28  1  0  0  0  0 
  1 29  1  0  0  0  0 
  1 30  1  0  0  0  0 
  3 31  1  0  0  0  0 
  3 32  1  0  0  0  0 
  4 33  1  0  0  0  0 
  4 34  1  0  0  0  0 
  5 35  1  0  0  0  0 
  6 36  1  0  0  0  0 
  6 37  1  0  0  0  0 
 10 38  1  0  0  0  0 
 10 39  1  0  0  0  0 
 11 40  1  0  0  0  0 
 13 41  1  0  0  0  0 
 14 42  1  0  0  0  0 
 15 43  1  0  0  0  0 
 16 44  1  0  0  0  0 
 17 45  1  0  0  0  0 
 19 46  1  0  0  0  0 
 24 47  1  0  0  0  0 
 27 48  1  0  0  0  0 
 27 49  1  0  0  0  0 
M  CHG  1   2   1
M  CHG  1   8  -1
M  END
> <cdk:Title>
ademetionine

> <Conformer>
1

> <SuperDrugID>
SD002173

$$$$
