ibutilide
  CDK     0628171801

 62 62  0  0  0  0  0  0  0  0999 V2000
   -1.5866    6.2202   -0.0252 C   0  0  1  0  0  0  0  0  0  0  0  0
   -0.0380    6.2736    0.1207 C   0  0  2  0  0  0  0  0  0  0  0  0
   -1.9359    6.2361   -1.4095 O   0  0  0  0  0  0  0  0  0  0  0  0
   -2.1661    5.0246    0.6526 C   0  0  0  0  0  0  0  0  0  0  0  0
    0.4390    6.4489    1.5898 C   0  0  1  0  0  0  0  0  0  0  0  0
   -2.1004    3.7548    0.0381 C   0  0  0  0  0  0  0  0  0  0  0  0
   -2.7334    5.1170    1.9461 C   0  0  0  0  0  0  0  0  0  0  0  0
    1.9696    6.6729    1.7382 C   0  0  1  0  0  0  0  0  0  0  0  0
   -2.5880    2.6132    0.6925 C   0  0  0  0  0  0  0  0  0  0  0  0
   -3.2065    3.9684    2.6100 C   0  0  0  0  0  0  0  0  0  0  0  0
    2.4940    6.5626    3.1528 N   0  0  2  0  0  0  0  0  0  0  0  0
   -3.1430    2.6994    1.9859 C   0  0  0  0  0  0  0  0  0  0  0  0
    1.9319    7.6333    4.0541 C   0  0  2  0  0  0  0  0  0  0  0  0
    3.9963    6.4734    3.2154 C   0  0  1  0  0  0  0  0  0  0  0  0
   -3.5664    1.5235    2.5273 N   0  0  0  0  0  0  0  0  0  0  0  0
    2.2868    7.5595    5.5689 C   0  0  1  0  0  0  0  0  0  0  0  0
    4.6166    5.2511    2.4995 C   0  0  0  0  0  0  0  0  0  0  0  0
   -4.4767    1.3084    3.9626 S   0  0  2  0  0  0  0  0  0  0  0  0
    1.4623    8.5749    6.4130 C   0  0  2  0  0  0  0  0  0  0  0  0
   -3.3638    1.3511    5.4140 C   0  0  0  0  0  0  0  0  0  0  0  0
   -5.1833   -0.1310    3.8986 O   0  0  0  0  0  0  0  0  0  0  0  0
   -5.6124    2.4352    4.0720 O   0  0  0  0  0  0  0  0  0  0  0  0
    1.8528    8.5614    7.9180 C   0  0  2  0  0  0  0  0  0  0  0  0
    1.1491    9.6920    8.7180 C   0  0  1  0  0  0  0  0  0  0  0  0
    1.5486    9.7125   10.2171 C   0  0  1  0  0  0  0  0  0  0  0  0
    0.8857   10.8827   10.9796 C   0  0  0  0  0  0  0  0  0  0  0  0
   -2.0122    7.1359    0.3928 H   0  0  0  0  0  0  0  0  0  0  0  0
    0.3320    7.1131   -0.4721 H   0  0  0  0  0  0  0  0  0  0  0  0
    0.3976    5.3616   -0.2961 H   0  0  0  0  0  0  0  0  0  0  0  0
   -1.5754    7.0809   -1.7537 H   0  0  0  0  0  0  0  0  0  0  0  0
   -0.0941    7.3074    1.9997 H   0  0  0  0  0  0  0  0  0  0  0  0
    0.1665    5.5610    2.1661 H   0  0  0  0  0  0  0  0  0  0  0  0
   -1.6879    3.6505   -0.8919 H   0  0  0  0  0  0  0  0  0  0  0  0
   -2.7821    6.0198    2.4275 H   0  0  0  0  0  0  0  0  0  0  0  0
    2.4333    5.9134    1.1062 H   0  0  0  0  0  0  0  0  0  0  0  0
    2.2288    7.6498    1.3172 H   0  0  0  0  0  0  0  0  0  0  0  0
   -2.5256    1.7119    0.2116 H   0  0  0  0  0  0  0  0  0  0  0  0
   -3.5788    4.0697    3.5563 H   0  0  0  0  0  0  0  0  0  0  0  0
    0.8446    7.5766    4.0162 H   0  0  0  0  0  0  0  0  0  0  0  0
    2.2280    8.6152    3.6725 H   0  0  0  0  0  0  0  0  0  0  0  0
    4.4488    7.3906    2.8269 H   0  0  0  0  0  0  0  0  0  0  0  0
    4.3135    6.3660    4.2523 H   0  0  0  0  0  0  0  0  0  0  0  0
   -3.3385    0.7149    2.0409 H   0  0  0  0  0  0  0  0  0  0  0  0
    2.1043    6.5435    5.9299 H   0  0  0  0  0  0  0  0  0  0  0  0
    3.3449    7.7917    5.7042 H   0  0  0  0  0  0  0  0  0  0  0  0
    5.6485    5.1060    2.8257 H   0  0  0  0  0  0  0  0  0  0  0  0
    4.0425    4.3529    2.7354 H   0  0  0  0  0  0  0  0  0  0  0  0
    4.6321    5.3991    1.4195 H   0  0  0  0  0  0  0  0  0  0  0  0
    0.3757    8.2453    6.3571 H   0  0  0  0  0  0  0  0  0  0  0  0
    1.7184    9.6081    6.0125 H   0  0  0  0  0  0  0  0  0  0  0  0
   -2.7701    2.2658    5.3999 H   0  0  0  0  0  0  0  0  0  0  0  0
   -3.9519    1.3143    6.3314 H   0  0  0  0  0  0  0  0  0  0  0  0
   -2.6945    0.4904    5.3828 H   0  0  0  0  0  0  0  0  0  0  0  0
    2.9345    8.6867    8.0138 H   0  0  0  0  0  0  0  0  0  0  0  0
    1.5818    7.5945    8.3514 H   0  0  0  0  0  0  0  0  0  0  0  0
    1.4101   10.6568    8.2738 H   0  0  0  0  0  0  0  0  0  0  0  0
    0.0657    9.5659    8.6418 H   0  0  0  0  0  0  0  0  0  0  0  0
    1.2511    8.7721   10.6889 H   0  0  0  0  0  0  0  0  0  0  0  0
    2.6341    9.8094   10.3072 H   0  0  0  0  0  0  0  0  0  0  0  0
    1.1901   10.8666   12.0287 H   0  0  0  0  0  0  0  0  0  0  0  0
    1.1889   11.8377   10.5437 H   0  0  0  0  0  0  0  0  0  0  0  0
   -0.2025   10.7997   10.9303 H   0  0  0  0  0  0  0  0  0  0  0  0
  1  2  1  0  0  0  0 
  1  3  1  0  0  0  0 
  1  4  1  0  0  0  0 
  2  5  1  0  0  0  0 
  4  6  2  0  0  0  0 
  4  7  1  0  0  0  0 
  5  8  1  0  0  0  0 
  6  9  1  0  0  0  0 
  7 10  2  0  0  0  0 
  8 11  1  0  0  0  0 
  9 12  2  0  0  0  0 
 10 12  1  0  0  0  0 
 11 13  1  0  0  0  0 
 11 14  1  0  0  0  0 
 12 15  1  0  0  0  0 
 13 16  1  0  0  0  0 
 14 17  1  0  0  0  0 
 15 18  1  0  0  0  0 
 16 19  1  0  0  0  0 
 18 20  1  0  0  0  0 
 18 21  2  0  0  0  0 
 18 22  2  0  0  0  0 
 19 23  1  0  0  0  0 
 23 24  1  0  0  0  0 
 24 25  1  0  0  0  0 
 25 26  1  0  0  0  0 
  1 27  1  0  0  0  0 
  2 28  1  0  0  0  0 
  2 29  1  0  0  0  0 
  3 30  1  0  0  0  0 
  5 31  1  0  0  0  0 
  5 32  1  0  0  0  0 
  6 33  1  0  0  0  0 
  7 34  1  0  0  0  0 
  8 35  1  0  0  0  0 
  8 36  1  0  0  0  0 
  9 37  1  0  0  0  0 
 10 38  1  0  0  0  0 
 13 39  1  0  0  0  0 
 13 40  1  0  0  0  0 
 14 41  1  0  0  0  0 
 14 42  1  0  0  0  0 
 15 43  1  0  0  0  0 
 16 44  1  0  0  0  0 
 16 45  1  0  0  0  0 
 17 46  1  0  0  0  0 
 17 47  1  0  0  0  0 
 17 48  1  0  0  0  0 
 19 49  1  0  0  0  0 
 19 50  1  0  0  0  0 
 20 51  1  0  0  0  0 
 20 52  1  0  0  0  0 
 20 53  1  0  0  0  0 
 23 54  1  0  0  0  0 
 23 55  1  0  0  0  0 
 24 56  1  0  0  0  0 
 24 57  1  0  0  0  0 
 25 58  1  0  0  0  0 
 25 59  1  0  0  0  0 
 26 60  1  0  0  0  0 
 26 61  1  0  0  0  0 
 26 62  1  0  0  0  0 
M  END
> <cdk:Title>
ibutilide

> <Conformer>
1

> <SuperDrugID>
SD001254

$$$$
