naldemedine
  CDK     0628171802

 76 83  0  0  0  0  0  0  0  0999 V2000
    5.1777    0.5160   -1.6119 O   0  0  0  0  0  0  0  0  0  0  0  0
    4.8919   -0.7668   -2.1837 C   0  0  2  0  0  0  0  0  0  0  0  0
    4.5273   -0.5786   -3.6851 C   0  0  1  0  0  0  0  0  0  0  0  0
    4.3035   -1.8865   -4.2843 C   0  0  0  0  0  0  0  0  0  0  0  0
    3.2364   -1.8781   -5.1625 C   0  0  0  0  0  0  0  0  0  0  0  0
    2.6258   -0.6574   -5.1613 O   0  0  0  0  0  0  0  0  0  0  0  0
    3.1170    0.0153   -3.9662 C   0  0  1  0  0  0  0  0  0  0  0  0
    2.1389   -0.1144   -2.8820 C   0  0  0  0  0  0  0  0  0  0  0  0
    2.3530   -0.7445   -1.6985 C   0  0  0  0  0  0  0  0  0  0  0  0
    3.6689   -1.3411   -1.3767 C   0  0  1  0  0  0  0  0  0  0  0  0
    1.2947   -0.8937   -0.7819 C   0  0  0  0  0  0  0  0  0  0  0  0
    1.4775   -0.7435    0.5665 N   0  0  0  0  0  0  0  0  0  0  0  0
    0.4876   -0.8485    1.6157 C   0  0  2  0  0  0  0  0  0  0  0  0
    1.1995   -0.4894    2.9554 C   0  0  0  0  0  0  0  0  0  0  0  0
   -0.0488   -2.3129    1.7195 C   0  0  0  0  0  0  0  0  0  0  0  0
   -0.6012    0.1505    1.4040 C   0  0  0  0  0  0  0  0  0  0  0  0
   -1.9259   -0.0633    1.4545 N   0  0  0  0  0  0  0  0  0  0  0  0
   -2.5170    1.1244    1.2389 C   0  0  0  0  0  0  0  0  0  0  0  0
   -1.5535    2.0433    1.0489 N   0  0  0  0  0  0  0  0  0  0  0  0
   -0.3930    1.4616    1.1483 O   0  0  0  0  0  0  0  0  0  0  0  0
   -3.9154    1.3724    1.2319 C   0  0  0  0  0  0  0  0  0  0  0  0
   -4.8419    0.3217    1.4467 C   0  0  0  0  0  0  0  0  0  0  0  0
   -6.2275    0.5690    1.4619 C   0  0  0  0  0  0  0  0  0  0  0  0
   -6.7096    1.8745    1.2649 C   0  0  0  0  0  0  0  0  0  0  0  0
   -5.8077    2.9299    1.0444 C   0  0  0  0  0  0  0  0  0  0  0  0
   -4.4226    2.6807    1.0294 C   0  0  0  0  0  0  0  0  0  0  0  0
    0.1448   -1.1633   -1.2081 O   0  0  0  0  0  0  0  0  0  0  0  0
    0.9707    0.4797   -3.1330 O   0  0  0  0  0  0  0  0  0  0  0  0
    2.8766   -3.0326   -5.8934 C   0  0  0  0  0  0  0  0  0  0  0  0
    1.8526   -2.9285   -6.7790 O   0  0  0  0  0  0  0  0  0  0  0  0
    3.5453   -4.2746   -5.7071 C   0  0  0  0  0  0  0  0  0  0  0  0
    4.6096   -4.3767   -4.7289 C   0  0  0  0  0  0  0  0  0  0  0  0
    4.9707   -3.1407   -3.9966 C   0  0  0  0  0  0  0  0  0  0  0  0
    5.9802   -3.0596   -2.8447 C   0  0  1  0  0  0  0  0  0  0  0  0
    6.2101   -1.6414   -2.1842 C   0  0  1  0  0  0  0  0  0  0  0  0
    7.3215   -0.8543   -2.8557 N   0  0  2  0  0  0  0  0  0  0  0  0
    7.0434   -0.4859   -4.2811 C   0  0  2  0  0  0  0  0  0  0  0  0
    5.6571    0.1782   -4.4583 C   0  0  1  0  0  0  0  0  0  0  0  0
    8.7234   -1.3276   -2.5964 C   0  0  1  0  0  0  0  0  0  0  0  0
    9.8222   -0.3108   -3.0193 C   0  0  1  0  0  0  0  0  0  0  0  0
   11.2636   -0.8237   -3.1919 C   0  0  2  0  0  0  0  0  0  0  0  0
   10.4423   -0.4331   -4.4248 C   0  0  1  0  0  0  0  0  0  0  0  0
    5.4808    0.3289   -0.6994 H   0  0  0  0  0  0  0  0  0  0  0  0
    3.2061    1.0845   -4.1789 H   0  0  0  0  0  0  0  0  0  0  0  0
    3.5745   -2.4172   -1.5425 H   0  0  0  0  0  0  0  0  0  0  0  0
    3.8961   -1.2205   -0.3150 H   0  0  0  0  0  0  0  0  0  0  0  0
    2.3751   -0.5224    0.8530 H   0  0  0  0  0  0  0  0  0  0  0  0
    0.4929   -0.5168    3.7894 H   0  0  0  0  0  0  0  0  0  0  0  0
    1.6363    0.5120    2.9107 H   0  0  0  0  0  0  0  0  0  0  0  0
    1.9999   -1.2030    3.1684 H   0  0  0  0  0  0  0  0  0  0  0  0
   -0.7284   -2.4190    2.5704 H   0  0  0  0  0  0  0  0  0  0  0  0
   -0.5895   -2.6053    0.8165 H   0  0  0  0  0  0  0  0  0  0  0  0
    0.7793   -3.0124    1.8591 H   0  0  0  0  0  0  0  0  0  0  0  0
   -4.5193   -0.6359    1.6020 H   0  0  0  0  0  0  0  0  0  0  0  0
   -6.8848   -0.1988    1.6198 H   0  0  0  0  0  0  0  0  0  0  0  0
   -7.7148    2.0568    1.2846 H   0  0  0  0  0  0  0  0  0  0  0  0
   -6.1582    3.8801    0.8982 H   0  0  0  0  0  0  0  0  0  0  0  0
   -3.7911    3.4711    0.8758 H   0  0  0  0  0  0  0  0  0  0  0  0
    0.7137    0.1808   -4.0285 H   0  0  0  0  0  0  0  0  0  0  0  0
    1.9916   -3.6418   -7.4387 H   0  0  0  0  0  0  0  0  0  0  0  0
    3.1748   -5.0718   -6.3231 H   0  0  0  0  0  0  0  0  0  0  0  0
    5.0769   -5.2651   -4.5443 H   0  0  0  0  0  0  0  0  0  0  0  0
    5.6219   -3.7395   -2.0705 H   0  0  0  0  0  0  0  0  0  0  0  0
    6.9227   -3.4739   -3.1994 H   0  0  0  0  0  0  0  0  0  0  0  0
    6.4935   -1.7977   -1.1371 H   0  0  0  0  0  0  0  0  0  0  0  0
    7.1177   -1.3702   -4.9162 H   0  0  0  0  0  0  0  0  0  0  0  0
    7.7799    0.2313   -4.6442 H   0  0  0  0  0  0  0  0  0  0  0  0
    5.4232    0.2461   -5.5269 H   0  0  0  0  0  0  0  0  0  0  0  0
    5.7232    1.1976   -4.0709 H   0  0  0  0  0  0  0  0  0  0  0  0
    8.8455   -1.4709   -1.5230 H   0  0  0  0  0  0  0  0  0  0  0  0
    8.8970   -2.2934   -3.0763 H   0  0  0  0  0  0  0  0  0  0  0  0
    9.7560    0.7115   -2.6351 H   0  0  0  0  0  0  0  0  0  0  0  0
   11.4448   -1.8956   -3.0910 H   0  0  0  0  0  0  0  0  0  0  0  0
   12.0671   -0.1247   -2.9527 H   0  0  0  0  0  0  0  0  0  0  0  0
   10.1282   -1.2722   -5.0485 H   0  0  0  0  0  0  0  0  0  0  0  0
   10.7403    0.5001   -4.9053 H   0  0  0  0  0  0  0  0  0  0  0  0
  2  1  1  0  0  0  0 
  2  3  1  0  0  0  0 
  2 10  1  0  0  0  0 
  2 35  1  0  0  0  0 
  3  4  1  0  0  0  0 
  3  7  1  0  0  0  0 
  3 38  1  0  0  0  0 
  4  5  2  0  0  0  0 
  4 33  1  0  0  0  0 
  5  6  1  0  0  0  0 
  5 29  1  0  0  0  0 
  7  6  1  0  0  0  0 
  7  8  1  0  0  0  0 
  8 28  1  0  0  0  0 
  9  8  2  0  0  0  0 
  9 11  1  0  0  0  0 
 10  9  1  0  0  0  0 
 11 12  1  0  0  0  0 
 11 27  2  0  0  0  0 
 12 13  1  0  0  0  0 
 13 14  1  0  0  0  0 
 13 15  1  0  0  0  0 
 13 16  1  0  0  0  0 
 16 17  2  0  0  0  0 
 16 20  1  0  0  0  0 
 17 18  1  0  0  0  0 
 18 19  2  0  0  0  0 
 18 21  1  0  0  0  0 
 20 19  1  0  0  0  0 
 21 22  2  0  0  0  0 
 21 26  1  0  0  0  0 
 22 23  1  0  0  0  0 
 23 24  2  0  0  0  0 
 25 24  1  0  0  0  0 
 26 25  2  0  0  0  0 
 29 30  1  0  0  0  0 
 29 31  2  0  0  0  0 
 32 31  1  0  0  0  0 
 33 32  2  0  0  0  0 
 34 33  1  0  0  0  0 
 35 34  1  0  0  0  0 
 35 36  1  0  0  0  0 
 36 37  1  0  0  0  0 
 36 39  1  0  0  0  0 
 38 37  1  0  0  0  0 
 39 40  1  0  0  0  0 
 40 41  1  0  0  0  0 
 40 42  1  0  0  0  0 
 41 42  1  0  0  0  0 
 43  1  1  0  0  0  0 
  7 44  1  0  0  0  0 
 45 10  1  0  0  0  0 
 46 10  1  0  0  0  0 
 47 12  1  0  0  0  0 
 48 14  1  0  0  0  0 
 49 14  1  0  0  0  0 
 50 14  1  0  0  0  0 
 51 15  1  0  0  0  0 
 52 15  1  0  0  0  0 
 53 15  1  0  0  0  0 
 54 22  1  0  0  0  0 
 55 23  1  0  0  0  0 
 56 24  1  0  0  0  0 
 57 25  1  0  0  0  0 
 58 26  1  0  0  0  0 
 59 28  1  0  0  0  0 
 60 30  1  0  0  0  0 
 61 31  1  0  0  0  0 
 62 32  1  0  0  0  0 
 63 34  1  0  0  0  0 
 64 34  1  0  0  0  0 
 35 65  1  0  0  0  0 
 66 37  1  0  0  0  0 
 67 37  1  0  0  0  0 
 68 38  1  0  0  0  0 
 69 38  1  0  0  0  0 
 70 39  1  0  0  0  0 
 71 39  1  0  0  0  0 
 72 40  1  0  0  0  0 
 73 41  1  0  0  0  0 
 74 41  1  0  0  0  0 
 75 42  1  0  0  0  0 
 76 42  1  0  0  0  0 
M  END
> <cdk:Title>
naldemedine

> <Conformer>
1

> <SuperDrugID>
SD003946

$$$$
