proxazole
  CDK     0628171801

 46 47  0  0  0  0  0  0  0  0999 V2000
    1.0353   -7.5633   -1.0497 C   0  0  1  0  0  0  0  0  0  0  0  0
    1.3985   -7.2969    0.4462 C   0  0  2  0  0  0  0  0  0  0  0  0
    0.6003   -6.3143   -1.7259 C   0  0  0  0  0  0  0  0  0  0  0  0
    2.1238   -8.2372   -1.8296 C   0  0  0  0  0  0  0  0  0  0  0  0
    1.6924   -8.5753    1.2680 C   0  0  0  0  0  0  0  0  0  0  0  0
    1.2751   -5.1540   -1.7405 N   0  0  0  0  0  0  0  0  0  0  0  0
   -0.5496   -6.1663   -2.4067 N   0  0  0  0  0  0  0  0  0  0  0  0
    3.3735   -7.6076   -2.0560 C   0  0  0  0  0  0  0  0  0  0  0  0
    1.9259   -9.5343   -2.3685 C   0  0  0  0  0  0  0  0  0  0  0  0
    0.5027   -4.3036   -2.4314 C   0  0  0  0  0  0  0  0  0  0  0  0
   -0.6160   -4.9397   -2.8407 O   0  0  0  0  0  0  0  0  0  0  0  0
    4.3810   -8.2424   -2.8054 C   0  0  0  0  0  0  0  0  0  0  0  0
    2.9332  -10.1730   -3.1143 C   0  0  0  0  0  0  0  0  0  0  0  0
    0.8144   -2.8856   -2.6721 C   0  0  2  0  0  0  0  0  0  0  0  0
    4.1593   -9.5235   -3.3386 C   0  0  0  0  0  0  0  0  0  0  0  0
    2.0337   -2.6931   -3.6144 C   0  0  2  0  0  0  0  0  0  0  0  0
    2.4265   -1.2603   -3.8487 N   0  0  1  0  0  0  0  0  0  0  0  0
    2.7620   -0.4542   -2.6255 C   0  0  1  0  0  0  0  0  0  0  0  0
    3.3800   -1.0492   -4.9901 C   0  0  1  0  0  0  0  0  0  0  0  0
    3.9203   -1.0127   -1.7640 C   0  0  0  0  0  0  0  0  0  0  0  0
    2.7313   -1.2714   -6.3765 C   0  0  0  0  0  0  0  0  0  0  0  0
    0.1556   -8.2161   -1.0291 H   0  0  0  0  0  0  0  0  0  0  0  0
    0.5582   -6.7871    0.9265 H   0  0  0  0  0  0  0  0  0  0  0  0
    2.2658   -6.6349    0.5148 H   0  0  0  0  0  0  0  0  0  0  0  0
    0.8640   -9.2813    1.1862 H   0  0  0  0  0  0  0  0  0  0  0  0
    2.6076   -9.0550    0.9141 H   0  0  0  0  0  0  0  0  0  0  0  0
    1.8241   -8.3147    2.3212 H   0  0  0  0  0  0  0  0  0  0  0  0
    3.5613   -6.6761   -1.6811 H   0  0  0  0  0  0  0  0  0  0  0  0
    1.0433  -10.0294   -2.2243 H   0  0  0  0  0  0  0  0  0  0  0  0
    5.2738   -7.7717   -2.9647 H   0  0  0  0  0  0  0  0  0  0  0  0
    2.7744  -11.1082   -3.4960 H   0  0  0  0  0  0  0  0  0  0  0  0
    0.9948   -2.4367   -1.6951 H   0  0  0  0  0  0  0  0  0  0  0  0
   -0.0564   -2.3973   -3.1121 H   0  0  0  0  0  0  0  0  0  0  0  0
    4.8890   -9.9832   -3.8900 H   0  0  0  0  0  0  0  0  0  0  0  0
    1.7523   -3.1477   -4.5663 H   0  0  0  0  0  0  0  0  0  0  0  0
    2.8897   -3.2539   -3.2305 H   0  0  0  0  0  0  0  0  0  0  0  0
    3.0123    0.5694   -2.9132 H   0  0  0  0  0  0  0  0  0  0  0  0
    1.8743   -0.3573   -1.9994 H   0  0  0  0  0  0  0  0  0  0  0  0
    3.7380   -0.0161   -4.9938 H   0  0  0  0  0  0  0  0  0  0  0  0
    4.2568   -1.6939   -4.8837 H   0  0  0  0  0  0  0  0  0  0  0  0
    3.6264   -1.9501   -1.2874 H   0  0  0  0  0  0  0  0  0  0  0  0
    4.8068   -1.1880   -2.3770 H   0  0  0  0  0  0  0  0  0  0  0  0
    4.1754   -0.2969   -0.9797 H   0  0  0  0  0  0  0  0  0  0  0  0
    3.3686   -0.8498   -7.1596 H   0  0  0  0  0  0  0  0  0  0  0  0
    1.7560   -0.7771   -6.4149 H   0  0  0  0  0  0  0  0  0  0  0  0
    2.6045   -2.3372   -6.5797 H   0  0  0  0  0  0  0  0  0  0  0  0
  1  2  1  0  0  0  0 
  1  3  1  0  0  0  0 
  1  4  1  0  0  0  0 
  2  5  1  0  0  0  0 
  3  6  1  0  0  0  0 
  3  7  2  0  0  0  0 
  4  8  2  0  0  0  0 
  4  9  1  0  0  0  0 
  6 10  2  0  0  0  0 
  7 11  1  0  0  0  0 
  8 12  1  0  0  0  0 
  9 13  2  0  0  0  0 
 10 11  1  0  0  0  0 
 10 14  1  0  0  0  0 
 12 15  2  0  0  0  0 
 13 15  1  0  0  0  0 
 14 16  1  0  0  0  0 
 16 17  1  0  0  0  0 
 17 18  1  0  0  0  0 
 17 19  1  0  0  0  0 
 18 20  1  0  0  0  0 
 19 21  1  0  0  0  0 
  1 22  1  0  0  0  0 
  2 23  1  0  0  0  0 
  2 24  1  0  0  0  0 
  5 25  1  0  0  0  0 
  5 26  1  0  0  0  0 
  5 27  1  0  0  0  0 
  8 28  1  0  0  0  0 
  9 29  1  0  0  0  0 
 12 30  1  0  0  0  0 
 13 31  1  0  0  0  0 
 14 32  1  0  0  0  0 
 14 33  1  0  0  0  0 
 15 34  1  0  0  0  0 
 16 35  1  0  0  0  0 
 16 36  1  0  0  0  0 
 18 37  1  0  0  0  0 
 18 38  1  0  0  0  0 
 19 39  1  0  0  0  0 
 19 40  1  0  0  0  0 
 20 41  1  0  0  0  0 
 20 42  1  0  0  0  0 
 20 43  1  0  0  0  0 
 21 44  1  0  0  0  0 
 21 45  1  0  0  0  0 
 21 46  1  0  0  0  0 
M  END
> <cdk:Title>
proxazole

> <Conformer>
1

> <SuperDrugID>
SD002085

$$$$
