fleroxacin
  CDK     0628171801

 44 46  0  0  0  0  0  0  0  0999 V2000
   -1.2351    0.4797    1.1795 C   0  0  2  0  0  0  0  0  0  0  0  0
    0.3076    0.3123    1.1537 C   0  0  2  0  0  0  0  0  0  0  0  0
   -1.6527    1.8771    1.0440 N   0  0  0  0  0  0  0  0  0  0  0  0
    0.8388    0.8154   -0.0093 F   0  0  0  0  0  0  0  0  0  0  0  0
   -1.4574    2.8501    2.0235 C   0  0  0  0  0  0  0  0  0  0  0  0
   -2.2240    2.2155   -0.1616 C   0  0  0  0  0  0  0  0  0  0  0  0
   -1.7145    4.2182    1.6860 C   0  0  0  0  0  0  0  0  0  0  0  0
   -1.0178    2.5905    3.3627 C   0  0  0  0  0  0  0  0  0  0  0  0
   -2.5701    3.5339   -0.5229 C   0  0  0  0  0  0  0  0  0  0  0  0
   -2.2675    4.5410    0.4194 C   0  0  0  0  0  0  0  0  0  0  0  0
   -1.4246    5.2500    2.6127 C   0  0  0  0  0  0  0  0  0  0  0  0
   -0.9054    1.3821    3.8417 F   0  0  0  0  0  0  0  0  0  0  0  0
   -0.7218    3.6258    4.2868 C   0  0  0  0  0  0  0  0  0  0  0  0
   -3.1831    3.7909   -1.7928 C   0  0  0  0  0  0  0  0  0  0  0  0
   -2.5003    5.7414    0.1307 O   0  0  0  0  0  0  0  0  0  0  0  0
   -0.9194    4.9622    3.8857 C   0  0  0  0  0  0  0  0  0  0  0  0
   -0.2572    3.3610    5.5629 N   0  0  0  0  0  0  0  0  0  0  0  0
   -3.3444    2.8172   -2.7239 O   0  0  0  0  0  0  0  0  0  0  0  0
   -3.6193    4.9190   -2.1203 O   0  0  0  0  0  0  0  0  0  0  0  0
   -0.6462    5.9616    4.6851 F   0  0  0  0  0  0  0  0  0  0  0  0
    1.0048    2.6841    5.7851 C   0  0  2  0  0  0  0  0  0  0  0  0
   -1.0068    3.7916    6.7231 C   0  0  1  0  0  0  0  0  0  0  0  0
    0.8745    1.5644    6.8532 C   0  0  2  0  0  0  0  0  0  0  0  0
   -1.1613    2.6449    7.7508 C   0  0  2  0  0  0  0  0  0  0  0  0
    0.1812    2.0773    8.0744 N   0  0  1  0  0  0  0  0  0  0  0  0
    0.1636    1.1062    9.2021 C   0  0  0  0  0  0  0  0  0  0  0  0
   -1.6596    0.0272    2.0749 H   0  0  0  0  0  0  0  0  0  0  0  0
   -1.6143   -0.1598    0.3751 H   0  0  0  0  0  0  0  0  0  0  0  0
    0.5594   -0.7480    1.2140 H   0  0  0  0  0  0  0  0  0  0  0  0
    0.7835    0.8221    1.9911 H   0  0  0  0  0  0  0  0  0  0  0  0
   -2.4029    1.4837   -0.8556 H   0  0  0  0  0  0  0  0  0  0  0  0
   -1.5782    6.2336    2.3718 H   0  0  0  0  0  0  0  0  0  0  0  0
   -3.7802    3.0151   -3.5802 H   0  0  0  0  0  0  0  0  0  0  0  0
    1.7326    3.4187    6.1407 H   0  0  0  0  0  0  0  0  0  0  0  0
    1.4082    2.2500    4.8644 H   0  0  0  0  0  0  0  0  0  0  0  0
   -0.4687    4.6166    7.1975 H   0  0  0  0  0  0  0  0  0  0  0  0
   -2.0048    4.1553    6.4585 H   0  0  0  0  0  0  0  0  0  0  0  0
    1.8802    1.2171    7.1066 H   0  0  0  0  0  0  0  0  0  0  0  0
    0.3224    0.7179    6.4334 H   0  0  0  0  0  0  0  0  0  0  0  0
   -1.8202    1.8728    7.3423 H   0  0  0  0  0  0  0  0  0  0  0  0
   -1.6333    3.0528    8.6490 H   0  0  0  0  0  0  0  0  0  0  0  0
   -0.2458    1.5800   10.0964 H   0  0  0  0  0  0  0  0  0  0  0  0
   -0.4387    0.2270    8.9610 H   0  0  0  0  0  0  0  0  0  0  0  0
    1.1799    0.7849    9.4411 H   0  0  0  0  0  0  0  0  0  0  0  0
  1  2  1  0  0  0  0 
  1  3  1  0  0  0  0 
  2  4  1  0  0  0  0 
  3  5  1  0  0  0  0 
  3  6  1  0  0  0  0 
  5  7  1  0  0  0  0 
  5  8  2  0  0  0  0 
  6  9  2  0  0  0  0 
  7 10  1  0  0  0  0 
  7 11  2  0  0  0  0 
  8 12  1  0  0  0  0 
  8 13  1  0  0  0  0 
  9 10  1  0  0  0  0 
  9 14  1  0  0  0  0 
 10 15  2  0  0  0  0 
 11 16  1  0  0  0  0 
 13 16  2  0  0  0  0 
 13 17  1  0  0  0  0 
 14 18  1  0  0  0  0 
 14 19  2  0  0  0  0 
 16 20  1  0  0  0  0 
 17 21  1  0  0  0  0 
 17 22  1  0  0  0  0 
 21 23  1  0  0  0  0 
 22 24  1  0  0  0  0 
 23 25  1  0  0  0  0 
 24 25  1  0  0  0  0 
 25 26  1  0  0  0  0 
  1 27  1  0  0  0  0 
  1 28  1  0  0  0  0 
  2 29  1  0  0  0  0 
  2 30  1  0  0  0  0 
  6 31  1  0  0  0  0 
 11 32  1  0  0  0  0 
 18 33  1  0  0  0  0 
 21 34  1  0  0  0  0 
 21 35  1  0  0  0  0 
 22 36  1  0  0  0  0 
 22 37  1  0  0  0  0 
 23 38  1  0  0  0  0 
 23 39  1  0  0  0  0 
 24 40  1  0  0  0  0 
 24 41  1  0  0  0  0 
 26 42  1  0  0  0  0 
 26 43  1  0  0  0  0 
 26 44  1  0  0  0  0 
M  END
> <cdk:Title>
fleroxacin

> <Conformer>
1

> <SuperDrugID>
SD001053

$$$$
