umeclidinium
  CDK     0628171802

 66 70  0  0  0  0  0  0  0  0999 V2000
   -0.7565   -1.1010   -0.8583 C   0  0  2  0  0  0  0  0  0  0  0  0
   -1.9164   -0.2875   -0.5831 O   0  0  0  0  0  0  0  0  0  0  0  0
   -0.7734   -2.2069    0.3178 C   0  0  2  0  0  0  0  0  0  0  0  0
   -2.1713   -2.9523    0.3762 C   0  0  2  0  0  0  0  0  0  0  0  0
   -2.2175   -4.0388    1.5070 C   0  0  2  0  0  0  0  0  0  0  0  0
   -0.9665   -4.0124    2.3621 N   0  0  2  0  0  0  0  0  0  0  0  0
   -0.7954   -2.6027    2.8918 C   0  0  1  0  0  0  0  0  0  0  0  0
   -0.5934   -1.5571    1.7475 C   0  0  2  0  0  0  0  0  0  0  0  0
    0.2223   -4.3123    1.4589 C   0  0  1  0  0  0  0  0  0  0  0  0
    0.2608   -3.3966    0.1891 C   0  0  2  0  0  0  0  0  0  0  0  0
   -1.0017   -5.0396    3.4889 C   0  0  1  0  0  0  0  0  0  0  0  0
   -2.1120   -4.9415    4.5746 C   0  0  1  0  0  0  0  0  0  0  0  0
   -1.9023   -5.9611    5.5789 O   0  0  0  0  0  0  0  0  0  0  0  0
   -2.8972   -5.9610    6.6262 C   0  0  2  0  0  0  0  0  0  0  0  0
   -2.5735   -7.0119    7.6251 C   0  0  0  0  0  0  0  0  0  0  0  0
   -3.0353   -8.3426    7.4288 C   0  0  0  0  0  0  0  0  0  0  0  0
   -2.7919   -9.4040    8.3321 C   0  0  0  0  0  0  0  0  0  0  0  0
   -2.0234   -9.1351    9.5212 C   0  0  0  0  0  0  0  0  0  0  0  0
   -1.5467   -7.7501    9.7135 C   0  0  0  0  0  0  0  0  0  0  0  0
   -1.8171   -6.6853    8.7741 C   0  0  0  0  0  0  0  0  0  0  0  0
    0.3562   -0.0554   -0.9308 C   0  0  0  0  0  0  0  0  0  0  0  0
    1.6286   -0.1812   -0.3085 C   0  0  0  0  0  0  0  0  0  0  0  0
    2.5807    0.8544   -0.3260 C   0  0  0  0  0  0  0  0  0  0  0  0
    2.2992    2.0548   -0.9932 C   0  0  0  0  0  0  0  0  0  0  0  0
    1.0791    2.2004   -1.6699 C   0  0  0  0  0  0  0  0  0  0  0  0
    0.1418    1.1504   -1.6618 C   0  0  0  0  0  0  0  0  0  0  0  0
   -0.9265   -1.7287   -2.2290 C   0  0  0  0  0  0  0  0  0  0  0  0
    0.1782   -2.3386   -2.8796 C   0  0  0  0  0  0  0  0  0  0  0  0
    0.0470   -2.9526   -4.1391 C   0  0  0  0  0  0  0  0  0  0  0  0
   -1.1909   -2.9470   -4.8012 C   0  0  0  0  0  0  0  0  0  0  0  0
   -2.2986   -2.3345   -4.1943 C   0  0  0  0  0  0  0  0  0  0  0  0
   -2.1710   -1.7465   -2.9210 C   0  0  0  0  0  0  0  0  0  0  0  0
   -1.6986    0.2412    0.2117 H   0  0  0  0  0  0  0  0  0  0  0  0
   -2.3858   -3.4347   -0.5812 H   0  0  0  0  0  0  0  0  0  0  0  0
   -2.9766   -2.2337    0.5567 H   0  0  0  0  0  0  0  0  0  0  0  0
   -2.3421   -5.0281    1.0519 H   0  0  0  0  0  0  0  0  0  0  0  0
   -3.1091   -3.8603    2.1153 H   0  0  0  0  0  0  0  0  0  0  0  0
   -1.6784   -2.3020    3.4641 H   0  0  0  0  0  0  0  0  0  0  0  0
    0.0575   -2.5509    3.5775 H   0  0  0  0  0  0  0  0  0  0  0  0
   -1.3069   -0.7418    1.8921 H   0  0  0  0  0  0  0  0  0  0  0  0
    0.3981   -1.1239    1.8645 H   0  0  0  0  0  0  0  0  0  0  0  0
    1.1570   -4.1748    2.0141 H   0  0  0  0  0  0  0  0  0  0  0  0
    0.2140   -5.3586    1.1324 H   0  0  0  0  0  0  0  0  0  0  0  0
    1.2816   -3.0597    0.0392 H   0  0  0  0  0  0  0  0  0  0  0  0
    0.0192   -4.0082   -0.6849 H   0  0  0  0  0  0  0  0  0  0  0  0
   -1.0816   -6.0450    3.0603 H   0  0  0  0  0  0  0  0  0  0  0  0
   -0.0475   -5.0043    4.0274 H   0  0  0  0  0  0  0  0  0  0  0  0
   -2.0779   -3.9575    5.0491 H   0  0  0  0  0  0  0  0  0  0  0  0
   -3.0940   -5.0809    4.1138 H   0  0  0  0  0  0  0  0  0  0  0  0
   -3.8905   -6.1514    6.2071 H   0  0  0  0  0  0  0  0  0  0  0  0
   -2.9341   -4.9841    7.1186 H   0  0  0  0  0  0  0  0  0  0  0  0
   -3.5843   -8.5554    6.5903 H   0  0  0  0  0  0  0  0  0  0  0  0
   -3.2195  -10.3475    8.0384 H   0  0  0  0  0  0  0  0  0  0  0  0
   -1.8209   -9.8638   10.2038 H   0  0  0  0  0  0  0  0  0  0  0  0
   -0.9723   -7.4164   10.5544 H   0  0  0  0  0  0  0  0  0  0  0  0
   -1.4745   -5.7358    8.9406 H   0  0  0  0  0  0  0  0  0  0  0  0
    1.9008   -1.0237    0.1839 H   0  0  0  0  0  0  0  0  0  0  0  0
    3.4771    0.7319    0.1513 H   0  0  0  0  0  0  0  0  0  0  0  0
    2.9824    2.8155   -0.9900 H   0  0  0  0  0  0  0  0  0  0  0  0
    0.8708    3.0703   -2.1645 H   0  0  0  0  0  0  0  0  0  0  0  0
   -0.7213    1.2847   -2.1919 H   0  0  0  0  0  0  0  0  0  0  0  0
    1.0989   -2.3415   -2.4352 H   0  0  0  0  0  0  0  0  0  0  0  0
    0.8544   -3.4004   -4.5758 H   0  0  0  0  0  0  0  0  0  0  0  0
   -1.2859   -3.3890   -5.7196 H   0  0  0  0  0  0  0  0  0  0  0  0
   -3.1986   -2.3179   -4.6797 H   0  0  0  0  0  0  0  0  0  0  0  0
   -3.0105   -1.3351   -2.5077 H   0  0  0  0  0  0  0  0  0  0  0  0
  1  2  1  0  0  0  0 
  1  3  1  0  0  0  0 
  1 21  1  0  0  0  0 
  1 27  1  0  0  0  0 
  3  4  1  0  0  0  0 
  3  8  1  0  0  0  0 
  3 10  1  0  0  0  0 
  4  5  1  0  0  0  0 
  5  6  1  0  0  0  0 
  6 11  1  0  0  0  0 
  7  6  1  0  0  0  0 
  8  7  1  0  0  0  0 
  9  6  1  0  0  0  0 
 10  9  1  0  0  0  0 
 11 12  1  0  0  0  0 
 12 13  1  0  0  0  0 
 13 14  1  0  0  0  0 
 14 15  1  0  0  0  0 
 15 16  2  0  0  0  0 
 15 20  1  0  0  0  0 
 16 17  1  0  0  0  0 
 17 18  2  0  0  0  0 
 19 18  1  0  0  0  0 
 20 19  2  0  0  0  0 
 21 22  2  0  0  0  0 
 21 26  1  0  0  0  0 
 22 23  1  0  0  0  0 
 23 24  2  0  0  0  0 
 25 24  1  0  0  0  0 
 26 25  2  0  0  0  0 
 27 28  2  0  0  0  0 
 27 32  1  0  0  0  0 
 28 29  1  0  0  0  0 
 29 30  2  0  0  0  0 
 31 30  1  0  0  0  0 
 32 31  2  0  0  0  0 
  2 33  1  0  0  0  0 
  4 34  1  0  0  0  0 
  4 35  1  0  0  0  0 
  5 36  1  0  0  0  0 
  5 37  1  0  0  0  0 
  7 38  1  0  0  0  0 
  7 39  1  0  0  0  0 
  8 40  1  0  0  0  0 
  8 41  1  0  0  0  0 
  9 42  1  0  0  0  0 
  9 43  1  0  0  0  0 
 10 44  1  0  0  0  0 
 10 45  1  0  0  0  0 
 11 46  1  0  0  0  0 
 11 47  1  0  0  0  0 
 12 48  1  0  0  0  0 
 12 49  1  0  0  0  0 
 14 50  1  0  0  0  0 
 14 51  1  0  0  0  0 
 16 52  1  0  0  0  0 
 17 53  1  0  0  0  0 
 18 54  1  0  0  0  0 
 19 55  1  0  0  0  0 
 20 56  1  0  0  0  0 
 22 57  1  0  0  0  0 
 23 58  1  0  0  0  0 
 24 59  1  0  0  0  0 
 25 60  1  0  0  0  0 
 26 61  1  0  0  0  0 
 28 62  1  0  0  0  0 
 29 63  1  0  0  0  0 
 30 64  1  0  0  0  0 
 31 65  1  0  0  0  0 
 32 66  1  0  0  0  0 
M  CHG  1   6   1
M  END
> <cdk:Title>
umeclidinium

> <Conformer>
1

> <SuperDrugID>
SD003778

$$$$
