tioxolone
  CDK     0628171801

 15 16  0  0  0  0  0  0  0  0999 V2000
   -4.9507   -0.8482    3.5630 O   0  0  0  0  0  0  0  0  0  0  0  0
   -3.7815   -0.5366    3.2493 C   0  0  0  0  0  0  0  0  0  0  0  0
   -2.6715    0.4196    4.2205 S   0  0  0  0  0  0  0  0  0  0  0  0
   -3.1380   -0.8755    2.0958 O   0  0  0  0  0  0  0  0  0  0  0  0
   -1.3653    0.3435    3.0551 C   0  0  0  0  0  0  0  0  0  0  0  0
   -1.8516   -0.4155    1.9760 C   0  0  0  0  0  0  0  0  0  0  0  0
   -0.0739    0.8830    3.0840 C   0  0  0  0  0  0  0  0  0  0  0  0
   -1.0104   -0.6483    0.8721 C   0  0  0  0  0  0  0  0  0  0  0  0
    0.7612    0.6442    1.9735 C   0  0  0  0  0  0  0  0  0  0  0  0
    0.2990   -0.1164    0.8725 C   0  0  0  0  0  0  0  0  0  0  0  0
    1.1083   -0.3415   -0.1916 O   0  0  0  0  0  0  0  0  0  0  0  0
    0.2504    1.4312    3.8843 H   0  0  0  0  0  0  0  0  0  0  0  0
   -1.3503   -1.1988    0.0796 H   0  0  0  0  0  0  0  0  0  0  0  0
    1.7099    1.0273    1.9693 H   0  0  0  0  0  0  0  0  0  0  0  0
    1.9533    0.1096    0.0159 H   0  0  0  0  0  0  0  0  0  0  0  0
  1  2  2  0  0  0  0 
  2  3  1  0  0  0  0 
  2  4  1  0  0  0  0 
  3  5  1  0  0  0  0 
  4  6  1  0  0  0  0 
  5  6  1  0  0  0  0 
  5  7  2  0  0  0  0 
  6  8  2  0  0  0  0 
  7  9  1  0  0  0  0 
  8 10  1  0  0  0  0 
  9 10  2  0  0  0  0 
 10 11  1  0  0  0  0 
  7 12  1  0  0  0  0 
  8 13  1  0  0  0  0 
  9 14  1  0  0  0  0 
 11 15  1  0  0  0  0 
M  END
> <cdk:Title>
tioxolone

> <Conformer>
1

> <SuperDrugID>
SD003092

$$$$
