hopantenic acid
  CDK     0628171801

 35 34  0  0  0  0  0  0  0  0999 V2000
    0.6910    1.7174    1.8542 C   0  0  0  0  0  0  0  0  0  0  0  0
    0.7247    2.5167    0.6019 C   0  0  1  0  0  0  0  0  0  0  0  0
    1.8478    1.2425    2.3877 N   0  0  0  0  0  0  0  0  0  0  0  0
   -0.4120    1.4769    2.3997 O   0  0  0  0  0  0  0  0  0  0  0  0
    1.3637    3.9590    0.7219 C   0  0  1  0  0  0  0  0  0  0  0  0
    1.3750    1.7199   -0.3896 O   0  0  0  0  0  0  0  0  0  0  0  0
    1.9740    0.4719    3.5807 C   0  0  1  0  0  0  0  0  0  0  0  0
    0.6600    4.7859    1.8546 C   0  0  1  0  0  0  0  0  0  0  0  0
    2.9007    3.9045    1.0277 C   0  0  0  0  0  0  0  0  0  0  0  0
    1.1759    4.7194   -0.6368 C   0  0  0  0  0  0  0  0  0  0  0  0
    3.4168    0.5987    4.1298 C   0  0  2  0  0  0  0  0  0  0  0  0
   -0.7474    4.8941    1.6519 O   0  0  0  0  0  0  0  0  0  0  0  0
    3.6701   -0.2832    5.3795 C   0  0  1  0  0  0  0  0  0  0  0  0
    5.0070   -0.0542    5.9628 C   0  0  0  0  0  0  0  0  0  0  0  0
    5.2721    1.0996    6.6184 O   0  0  0  0  0  0  0  0  0  0  0  0
    5.9065   -0.9191    5.8752 O   0  0  0  0  0  0  0  0  0  0  0  0
   -0.3066    2.6318    0.2506 H   0  0  0  0  0  0  0  0  0  0  0  0
    2.6618    1.4337    1.8986 H   0  0  0  0  0  0  0  0  0  0  0  0
    1.2371    2.1928   -1.2374 H   0  0  0  0  0  0  0  0  0  0  0  0
    1.2692    0.8177    4.3428 H   0  0  0  0  0  0  0  0  0  0  0  0
    1.7550   -0.5728    3.3474 H   0  0  0  0  0  0  0  0  0  0  0  0
    0.8226    4.3196    2.8293 H   0  0  0  0  0  0  0  0  0  0  0  0
    1.0708    5.7979    1.9030 H   0  0  0  0  0  0  0  0  0  0  0  0
    3.0969    3.5165    2.0287 H   0  0  0  0  0  0  0  0  0  0  0  0
    3.3451    4.9018    0.9724 H   0  0  0  0  0  0  0  0  0  0  0  0
    3.4220    3.2696    0.3086 H   0  0  0  0  0  0  0  0  0  0  0  0
    0.1212    4.7635   -0.9186 H   0  0  0  0  0  0  0  0  0  0  0  0
    1.5456    5.7458   -0.5674 H   0  0  0  0  0  0  0  0  0  0  0  0
    1.7206    4.2241   -1.4440 H   0  0  0  0  0  0  0  0  0  0  0  0
    3.6027    1.6482    4.3810 H   0  0  0  0  0  0  0  0  0  0  0  0
    4.1258    0.3072    3.3471 H   0  0  0  0  0  0  0  0  0  0  0  0
   -1.0727    5.4242    2.4094 H   0  0  0  0  0  0  0  0  0  0  0  0
    2.9239   -0.0630    6.1457 H   0  0  0  0  0  0  0  0  0  0  0  0
    3.5664   -1.3353    5.0986 H   0  0  0  0  0  0  0  0  0  0  0  0
    6.1559    1.2501    7.0188 H   0  0  0  0  0  0  0  0  0  0  0  0
  2  1  1  0  0  0  0 
  1  3  1  0  0  0  0 
  1  4  2  0  0  0  0 
  2  5  1  0  0  0  0 
  2  6  1  0  0  0  0 
  3  7  1  0  0  0  0 
  5  8  1  0  0  0  0 
  5  9  1  0  0  0  0 
  5 10  1  0  0  0  0 
  7 11  1  0  0  0  0 
  8 12  1  0  0  0  0 
 11 13  1  0  0  0  0 
 13 14  1  0  0  0  0 
 14 15  1  0  0  0  0 
 14 16  2  0  0  0  0 
  2 17  1  0  0  0  0 
  3 18  1  0  0  0  0 
  6 19  1  0  0  0  0 
  7 20  1  0  0  0  0 
  7 21  1  0  0  0  0 
  8 22  1  0  0  0  0 
  8 23  1  0  0  0  0 
  9 24  1  0  0  0  0 
  9 25  1  0  0  0  0 
  9 26  1  0  0  0  0 
 10 27  1  0  0  0  0 
 10 28  1  0  0  0  0 
 10 29  1  0  0  0  0 
 11 30  1  0  0  0  0 
 11 31  1  0  0  0  0 
 12 32  1  0  0  0  0 
 13 33  1  0  0  0  0 
 13 34  1  0  0  0  0 
 15 35  1  0  0  0  0 
M  END
> <cdk:Title>
hopantenic acid

> <Conformer>
1

> <SuperDrugID>
SD002835

$$$$
