duloxetine
  CDK     0628171802

 40 42  0  0  0  0  0  0  0  0999 V2000
    1.4071   -1.6803   -0.7891 O   0  0  0  0  0  0  0  0  0  0  0  0
    2.8381   -1.7238   -1.0415 C   0  0  1  0  0  0  0  0  0  0  0  0
    0.7512   -0.5774   -1.2889 C   0  0  0  0  0  0  0  0  0  0  0  0
    3.4635   -2.8872   -0.2193 C   0  0  1  0  0  0  0  0  0  0  0  0
    3.1560   -1.8818   -2.4827 C   0  0  0  0  0  0  0  0  0  0  0  0
    0.6999    0.6597   -0.5943 C   0  0  0  0  0  0  0  0  0  0  0  0
    0.1044   -0.7062   -2.5356 C   0  0  0  0  0  0  0  0  0  0  0  0
    3.3244   -2.6893    1.3127 C   0  0  1  0  0  0  0  0  0  0  0  0
    2.7012   -2.8831   -3.3536 C   0  0  0  0  0  0  0  0  0  0  0  0
    4.1761   -0.8161   -3.4367 S   0  0  0  0  0  0  0  0  0  0  0  0
    0.0561    1.7795   -1.2028 C   0  0  0  0  0  0  0  0  0  0  0  0
    1.2761    0.8136    0.6888 C   0  0  0  0  0  0  0  0  0  0  0  0
   -0.5521    0.3881   -3.1183 C   0  0  0  0  0  0  0  0  0  0  0  0
    3.9974   -3.7945    2.0329 N   0  0  2  0  0  0  0  0  0  0  0  0
    3.1412   -2.7733   -4.6854 C   0  0  0  0  0  0  0  0  0  0  0  0
    3.9850   -1.6901   -4.9436 C   0  0  0  0  0  0  0  0  0  0  0  0
   -0.5722    1.6284   -2.4594 C   0  0  0  0  0  0  0  0  0  0  0  0
    0.0609    3.0309   -0.5456 C   0  0  0  0  0  0  0  0  0  0  0  0
    1.2475    2.0561    1.3450 C   0  0  0  0  0  0  0  0  0  0  0  0
    3.8854   -3.7219    3.5025 C   0  0  0  0  0  0  0  0  0  0  0  0
    0.6535    3.1663    0.7218 C   0  0  0  0  0  0  0  0  0  0  0  0
    3.3076   -0.7983   -0.6894 H   0  0  0  0  0  0  0  0  0  0  0  0
    2.9858   -3.8316   -0.4998 H   0  0  0  0  0  0  0  0  0  0  0  0
    4.5299   -2.9645   -0.4611 H   0  0  0  0  0  0  0  0  0  0  0  0
    0.1188   -1.5991   -3.0320 H   0  0  0  0  0  0  0  0  0  0  0  0
    3.7789   -1.7362    1.5986 H   0  0  0  0  0  0  0  0  0  0  0  0
    2.2623   -2.6713    1.5766 H   0  0  0  0  0  0  0  0  0  0  0  0
    2.0842   -3.6401   -3.0469 H   0  0  0  0  0  0  0  0  0  0  0  0
    1.7260    0.0274    1.1601 H   0  0  0  0  0  0  0  0  0  0  0  0
   -1.0109    0.2806   -4.0250 H   0  0  0  0  0  0  0  0  0  0  0  0
    4.9932   -3.7316    1.8071 H   0  0  0  0  0  0  0  0  0  0  0  0
    2.8645   -3.4362   -5.4114 H   0  0  0  0  0  0  0  0  0  0  0  0
    4.4058   -1.4458   -5.8405 H   0  0  0  0  0  0  0  0  0  0  0  0
   -1.0562    2.4141   -2.9031 H   0  0  0  0  0  0  0  0  0  0  0  0
   -0.3603    3.8537   -0.9830 H   0  0  0  0  0  0  0  0  0  0  0  0
    1.6646    2.1531    2.2756 H   0  0  0  0  0  0  0  0  0  0  0  0
    4.4113   -4.5775    3.9281 H   0  0  0  0  0  0  0  0  0  0  0  0
    4.3438   -2.8061    3.8833 H   0  0  0  0  0  0  0  0  0  0  0  0
    2.8399   -3.7653    3.8154 H   0  0  0  0  0  0  0  0  0  0  0  0
    0.6555    4.0738    1.1940 H   0  0  0  0  0  0  0  0  0  0  0  0
  2  1  1  0  0  0  0 
  1  3  1  0  0  0  0 
  2  4  1  0  0  0  0 
  2  5  1  0  0  0  0 
  3  6  2  0  0  0  0 
  3  7  1  0  0  0  0 
  4  8  1  0  0  0  0 
  5  9  2  0  0  0  0 
  5 10  1  0  0  0  0 
  6 11  1  0  0  0  0 
  6 12  1  0  0  0  0 
  7 13  2  0  0  0  0 
  8 14  1  0  0  0  0 
  9 15  1  0  0  0  0 
 10 16  1  0  0  0  0 
 11 17  2  0  0  0  0 
 11 18  1  0  0  0  0 
 12 19  2  0  0  0  0 
 13 17  1  0  0  0  0 
 14 20  1  0  0  0  0 
 15 16  2  0  0  0  0 
 18 21  2  0  0  0  0 
 19 21  1  0  0  0  0 
  2 22  1  0  0  0  0 
  4 23  1  0  0  0  0 
  4 24  1  0  0  0  0 
  7 25  1  0  0  0  0 
  8 26  1  0  0  0  0 
  8 27  1  0  0  0  0 
  9 28  1  0  0  0  0 
 12 29  1  0  0  0  0 
 13 30  1  0  0  0  0 
 14 31  1  0  0  0  0 
 15 32  1  0  0  0  0 
 16 33  1  0  0  0  0 
 17 34  1  0  0  0  0 
 18 35  1  0  0  0  0 
 19 36  1  0  0  0  0 
 20 37  1  0  0  0  0 
 20 38  1  0  0  0  0 
 20 39  1  0  0  0  0 
 21 40  1  0  0  0  0 
M  END
> <cdk:Title>
duloxetine

> <Conformer>
1

> <SuperDrugID>
SD000862

$$$$
