fendosal
  CDK     0628171801

 48 52  0  0  0  0  0  0  0  0999 V2000
   -1.2070    1.1909    0.5496 C   0  0  0  0  0  0  0  0  0  0  0  0
   -0.1830    0.3115    0.6908 O   0  0  0  0  0  0  0  0  0  0  0  0
   -2.3234    0.7983    0.9609 O   0  0  0  0  0  0  0  0  0  0  0  0
   -1.0061    2.4783   -0.0282 C   0  0  0  0  0  0  0  0  0  0  0  0
    0.3040    2.8960   -0.3753 C   0  0  0  0  0  0  0  0  0  0  0  0
   -2.0756    3.3807   -0.2716 C   0  0  0  0  0  0  0  0  0  0  0  0
    0.5577    4.1583   -0.9580 C   0  0  0  0  0  0  0  0  0  0  0  0
   -3.3635    3.0918    0.0453 O   0  0  0  0  0  0  0  0  0  0  0  0
   -1.8348    4.6411   -0.8480 C   0  0  0  0  0  0  0  0  0  0  0  0
    1.8419    4.5295   -1.2660 N   0  0  0  0  0  0  0  0  0  0  0  0
   -0.5286    5.0285   -1.1849 C   0  0  0  0  0  0  0  0  0  0  0  0
    2.3127    4.8227   -2.5053 C   0  0  0  0  0  0  0  0  0  0  0  0
    2.8711    4.6202   -0.3838 C   0  0  0  0  0  0  0  0  0  0  0  0
    3.6725    5.1178   -2.4214 C   0  0  0  0  0  0  0  0  0  0  0  0
    1.5782    4.8107   -3.7921 C   0  0  1  0  0  0  0  0  0  0  0  0
    4.0194    4.9775   -1.0828 C   0  0  0  0  0  0  0  0  0  0  0  0
    2.8248    4.4008    1.0150 C   0  0  0  0  0  0  0  0  0  0  0  0
    4.4697    5.4767   -3.5365 C   0  0  0  0  0  0  0  0  0  0  0  0
    2.4276    5.1969   -5.0471 C   0  0  1  0  0  0  0  0  0  0  0  0
    3.6415    3.4172    1.6207 C   0  0  0  0  0  0  0  0  0  0  0  0
    1.9385    5.1497    1.8226 C   0  0  0  0  0  0  0  0  0  0  0  0
    3.8694    5.5213   -4.8253 C   0  0  0  0  0  0  0  0  0  0  0  0
    5.8426    5.7980   -3.4007 C   0  0  0  0  0  0  0  0  0  0  0  0
    3.5577    3.1756    3.0049 C   0  0  0  0  0  0  0  0  0  0  0  0
    1.8605    4.9134    3.2066 C   0  0  0  0  0  0  0  0  0  0  0  0
    4.6571    5.8876   -5.9430 C   0  0  0  0  0  0  0  0  0  0  0  0
    6.6109    6.1594   -4.5201 C   0  0  0  0  0  0  0  0  0  0  0  0
    2.6661    3.9232    3.7971 C   0  0  0  0  0  0  0  0  0  0  0  0
    6.0177    6.2049   -5.7913 C   0  0  0  0  0  0  0  0  0  0  0  0
   -0.3365   -0.5641    1.1029 H   0  0  0  0  0  0  0  0  0  0  0  0
    1.1019    2.2789   -0.2030 H   0  0  0  0  0  0  0  0  0  0  0  0
   -3.4386    3.3033    1.0007 H   0  0  0  0  0  0  0  0  0  0  0  0
   -2.6096    5.2882   -1.0143 H   0  0  0  0  0  0  0  0  0  0  0  0
   -0.3698    5.9572   -1.5795 H   0  0  0  0  0  0  0  0  0  0  0  0
    1.1672    3.8070   -3.9295 H   0  0  0  0  0  0  0  0  0  0  0  0
    0.7362    5.5009   -3.7178 H   0  0  0  0  0  0  0  0  0  0  0  0
    4.9448    5.1165   -0.6704 H   0  0  0  0  0  0  0  0  0  0  0  0
    2.3774    4.3716   -5.7639 H   0  0  0  0  0  0  0  0  0  0  0  0
    1.9616    6.0666   -5.5215 H   0  0  0  0  0  0  0  0  0  0  0  0
    4.2906    2.8592    1.0583 H   0  0  0  0  0  0  0  0  0  0  0  0
    1.3459    5.8756    1.4096 H   0  0  0  0  0  0  0  0  0  0  0  0
    6.3047    5.7778   -2.4898 H   0  0  0  0  0  0  0  0  0  0  0  0
    4.1427    2.4552    3.4351 H   0  0  0  0  0  0  0  0  0  0  0  0
    1.2183    5.4628    3.7837 H   0  0  0  0  0  0  0  0  0  0  0  0
    4.2449    5.9281   -6.8797 H   0  0  0  0  0  0  0  0  0  0  0  0
    7.6011    6.3903   -4.4078 H   0  0  0  0  0  0  0  0  0  0  0  0
    2.6075    3.7497    4.8018 H   0  0  0  0  0  0  0  0  0  0  0  0
    6.5766    6.4694   -6.6052 H   0  0  0  0  0  0  0  0  0  0  0  0
  1  2  1  0  0  0  0 
  1  3  2  0  0  0  0 
  1  4  1  0  0  0  0 
  4  5  2  0  0  0  0 
  4  6  1  0  0  0  0 
  5  7  1  0  0  0  0 
  6  8  1  0  0  0  0 
  6  9  2  0  0  0  0 
  7 10  1  0  0  0  0 
  7 11  2  0  0  0  0 
  9 11  1  0  0  0  0 
 10 12  1  0  0  0  0 
 10 13  1  0  0  0  0 
 12 14  2  0  0  0  0 
 12 15  1  0  0  0  0 
 13 16  2  0  0  0  0 
 13 17  1  0  0  0  0 
 14 16  1  0  0  0  0 
 14 18  1  0  0  0  0 
 15 19  1  0  0  0  0 
 17 20  2  0  0  0  0 
 17 21  1  0  0  0  0 
 18 22  2  0  0  0  0 
 18 23  1  0  0  0  0 
 19 22  1  0  0  0  0 
 20 24  1  0  0  0  0 
 21 25  2  0  0  0  0 
 22 26  1  0  0  0  0 
 23 27  2  0  0  0  0 
 24 28  2  0  0  0  0 
 25 28  1  0  0  0  0 
 26 29  2  0  0  0  0 
 27 29  1  0  0  0  0 
  2 30  1  0  0  0  0 
  5 31  1  0  0  0  0 
  8 32  1  0  0  0  0 
  9 33  1  0  0  0  0 
 11 34  1  0  0  0  0 
 15 35  1  0  0  0  0 
 15 36  1  0  0  0  0 
 16 37  1  0  0  0  0 
 19 38  1  0  0  0  0 
 19 39  1  0  0  0  0 
 20 40  1  0  0  0  0 
 21 41  1  0  0  0  0 
 23 42  1  0  0  0  0 
 24 43  1  0  0  0  0 
 25 44  1  0  0  0  0 
 26 45  1  0  0  0  0 
 27 46  1  0  0  0  0 
 28 47  1  0  0  0  0 
 29 48  1  0  0  0  0 
M  END
> <cdk:Title>
fendosal

> <Conformer>
1

> <SuperDrugID>
SD002790

$$$$
