ethotoin
  CDK     0628171801

 27 28  0  0  0  0  0  0  0  0999 V2000
   -1.9238   -1.1989   -1.7811 O   0  0  0  0  0  0  0  0  0  0  0  0
   -1.1785   -1.8211   -0.9879 C   0  0  0  0  0  0  0  0  0  0  0  0
   -0.7106   -1.2608    0.2924 C   0  0  1  0  0  0  0  0  0  0  0  0
   -0.7046   -3.0789   -1.1731 N   0  0  0  0  0  0  0  0  0  0  0  0
    0.0459   -2.3569    0.7681 N   0  0  0  0  0  0  0  0  0  0  0  0
    0.1404   -0.0385    0.1857 C   0  0  0  0  0  0  0  0  0  0  0  0
   -0.9447   -3.9453   -2.2964 C   0  0  2  0  0  0  0  0  0  0  0  0
    0.0496   -3.3816   -0.0935 C   0  0  0  0  0  0  0  0  0  0  0  0
   -0.0702    1.0565    1.0577 C   0  0  0  0  0  0  0  0  0  0  0  0
    1.1927    0.0472   -0.7600 C   0  0  0  0  0  0  0  0  0  0  0  0
   -1.8441   -5.1433   -1.9191 C   0  0  0  0  0  0  0  0  0  0  0  0
    0.6751   -4.4470    0.1057 O   0  0  0  0  0  0  0  0  0  0  0  0
    0.7377    2.2064    0.9777 C   0  0  0  0  0  0  0  0  0  0  0  0
    1.9912    1.2018   -0.8485 C   0  0  0  0  0  0  0  0  0  0  0  0
    1.7607    2.2834    0.0176 C   0  0  0  0  0  0  0  0  0  0  0  0
   -1.5718   -1.1117    0.9510 H   0  0  0  0  0  0  0  0  0  0  0  0
    0.5100   -2.3626    1.6211 H   0  0  0  0  0  0  0  0  0  0  0  0
    0.0120   -4.3146   -2.6771 H   0  0  0  0  0  0  0  0  0  0  0  0
   -1.4289   -3.4051   -3.1149 H   0  0  0  0  0  0  0  0  0  0  0  0
   -0.8085    1.0229    1.7649 H   0  0  0  0  0  0  0  0  0  0  0  0
    1.3844   -0.7316   -1.3954 H   0  0  0  0  0  0  0  0  0  0  0  0
   -1.9723   -5.7944   -2.7851 H   0  0  0  0  0  0  0  0  0  0  0  0
   -1.3937   -5.7250   -1.1133 H   0  0  0  0  0  0  0  0  0  0  0  0
   -2.8254   -4.7902   -1.5952 H   0  0  0  0  0  0  0  0  0  0  0  0
    0.5825    2.9868    1.6195 H   0  0  0  0  0  0  0  0  0  0  0  0
    2.7400    1.2535   -1.5420 H   0  0  0  0  0  0  0  0  0  0  0  0
    2.3406    3.1232   -0.0471 H   0  0  0  0  0  0  0  0  0  0  0  0
  1  2  2  0  0  0  0 
  3  2  1  0  0  0  0 
  2  4  1  0  0  0  0 
  3  5  1  0  0  0  0 
  3  6  1  0  0  0  0 
  4  7  1  0  0  0  0 
  4  8  1  0  0  0  0 
  5  8  1  0  0  0  0 
  6  9  2  0  0  0  0 
  6 10  1  0  0  0  0 
  7 11  1  0  0  0  0 
  8 12  2  0  0  0  0 
  9 13  1  0  0  0  0 
 10 14  2  0  0  0  0 
 13 15  2  0  0  0  0 
 14 15  1  0  0  0  0 
  3 16  1  0  0  0  0 
  5 17  1  0  0  0  0 
  7 18  1  0  0  0  0 
  7 19  1  0  0  0  0 
  9 20  1  0  0  0  0 
 10 21  1  0  0  0  0 
 11 22  1  0  0  0  0 
 11 23  1  0  0  0  0 
 11 24  1  0  0  0  0 
 13 25  1  0  0  0  0 
 14 26  1  0  0  0  0 
 15 27  1  0  0  0  0 
M  END
> <cdk:Title>
ethotoin

> <Conformer>
1

> <SuperDrugID>
SD000972

$$$$
