ciclosidomine
  CDK     0628171801

 40 42  0  0  0  0  0  0  0  0999 V2000
   -5.0042    0.6457    1.5313 N   0  0  0  0  0  0  0  0  0  0  0  0
   -6.2057    0.0119    1.4730 C   0  0  0  0  0  0  0  0  0  0  0  0
   -3.7741    0.0774    1.5559 C   0  0  0  0  0  0  0  0  0  0  0  0
   -6.2760   -1.2406    1.4740 O   0  0  0  0  0  0  0  0  0  0  0  0
   -7.4565    0.8088    1.3650 C   0  0  2  0  0  0  0  0  0  0  0  0
   -2.5710    0.7596    1.5123 C   0  0  0  0  0  0  0  0  0  0  0  0
   -3.4603   -1.2377    1.5773 O   0  0  0  0  0  0  0  0  0  0  0  0
   -8.4159    0.5408    2.5652 C   0  0  1  0  0  0  0  0  0  0  0  0
   -8.1794    0.5388    0.0083 C   0  0  2  0  0  0  0  0  0  0  0  0
   -1.6076   -0.1707    1.4821 N   0  0  0  0  0  0  0  0  0  0  0  0
   -2.1591   -1.3460    1.5268 N   0  0  0  0  0  0  0  0  0  0  0  0
   -9.7338    1.3504    2.4383 C   0  0  2  0  0  0  0  0  0  0  0  0
   -9.4954    1.3525   -0.1175 C   0  0  2  0  0  0  0  0  0  0  0  0
   -0.2764    0.1104    1.3794 N   0  0  1  0  0  0  0  0  0  0  0  0
  -10.4426    1.0936    1.0824 C   0  0  2  0  0  0  0  0  0  0  0  0
    0.5602   -0.5062    2.4480 C   0  0  1  0  0  0  0  0  0  0  0  0
    0.2475   -0.1442    0.0075 C   0  0  2  0  0  0  0  0  0  0  0  0
    2.0314   -0.0495    2.2875 C   0  0  1  0  0  0  0  0  0  0  0  0
    1.7179    0.3281   -0.0763 C   0  0  2  0  0  0  0  0  0  0  0  0
    2.5132   -0.3025    0.9498 O   0  0  0  0  0  0  0  0  0  0  0  0
   -7.1920    1.8721    1.3861 H   0  0  0  0  0  0  0  0  0  0  0  0
   -2.4463    1.7734    1.4776 H   0  0  0  0  0  0  0  0  0  0  0  0
   -8.6619   -0.5245    2.6210 H   0  0  0  0  0  0  0  0  0  0  0  0
   -7.9207    0.8190    3.5006 H   0  0  0  0  0  0  0  0  0  0  0  0
   -8.4172   -0.5251   -0.0842 H   0  0  0  0  0  0  0  0  0  0  0  0
   -7.5204    0.8078   -0.8223 H   0  0  0  0  0  0  0  0  0  0  0  0
   -9.5105    2.4172    2.5355 H   0  0  0  0  0  0  0  0  0  0  0  0
  -10.4070    1.0756    3.2551 H   0  0  0  0  0  0  0  0  0  0  0  0
  -10.0040    1.0778   -1.0469 H   0  0  0  0  0  0  0  0  0  0  0  0
   -9.2596    2.4205   -0.1720 H   0  0  0  0  0  0  0  0  0  0  0  0
  -11.3148    1.7457    1.0030 H   0  0  0  0  0  0  0  0  0  0  0  0
  -10.7948    0.0589    1.0475 H   0  0  0  0  0  0  0  0  0  0  0  0
    0.1950   -0.2007    3.4313 H   0  0  0  0  0  0  0  0  0  0  0  0
    0.5161   -1.5976    2.3866 H   0  0  0  0  0  0  0  0  0  0  0  0
   -0.3437    0.4094   -0.7277 H   0  0  0  0  0  0  0  0  0  0  0  0
    0.1927   -1.2109   -0.2336 H   0  0  0  0  0  0  0  0  0  0  0  0
    2.1211    1.0146    2.5252 H   0  0  0  0  0  0  0  0  0  0  0  0
    2.6625   -0.6040    2.9846 H   0  0  0  0  0  0  0  0  0  0  0  0
    1.7679    1.4170    0.0195 H   0  0  0  0  0  0  0  0  0  0  0  0
    2.1296    0.0557   -1.0502 H   0  0  0  0  0  0  0  0  0  0  0  0
  1  2  1  0  0  0  0 
  1  3  1  0  0  0  0 
  2  4  2  0  0  0  0 
  2  5  1  0  0  0  0 
  3  6  2  0  0  0  0 
  3  7  1  0  0  0  0 
  5  8  1  0  0  0  0 
  5  9  1  0  0  0  0 
  6 10  1  0  0  0  0 
  7 11  2  0  0  0  0 
  8 12  1  0  0  0  0 
  9 13  1  0  0  0  0 
 10 11  1  0  0  0  0 
 10 14  1  0  0  0  0 
 12 15  1  0  0  0  0 
 13 15  1  0  0  0  0 
 14 16  1  0  0  0  0 
 14 17  1  0  0  0  0 
 16 18  1  0  0  0  0 
 17 19  1  0  0  0  0 
 18 20  1  0  0  0  0 
 19 20  1  0  0  0  0 
  5 21  1  0  0  0  0 
  6 22  1  0  0  0  0 
  8 23  1  0  0  0  0 
  8 24  1  0  0  0  0 
  9 25  1  0  0  0  0 
  9 26  1  0  0  0  0 
 12 27  1  0  0  0  0 
 12 28  1  0  0  0  0 
 13 29  1  0  0  0  0 
 13 30  1  0  0  0  0 
 15 31  1  0  0  0  0 
 15 32  1  0  0  0  0 
 16 33  1  0  0  0  0 
 16 34  1  0  0  0  0 
 17 35  1  0  0  0  0 
 17 36  1  0  0  0  0 
 18 37  1  0  0  0  0 
 18 38  1  0  0  0  0 
 19 39  1  0  0  0  0 
 19 40  1  0  0  0  0 
M  CHG  1   1  -1
M  CHG  1   7   1
M  END
> <cdk:Title>
ciclosidomine

> <Conformer>
1

> <SuperDrugID>
SD003169

$$$$
