zoxazolamine
  CDK     0628171801

 16 17  0  0  0  0  0  0  0  0999 V2000
    1.6053   -0.4199    0.1155 N   0  0  0  0  0  0  0  0  0  0  0  0
    0.5126   -0.5258    0.8865 C   0  0  0  0  0  0  0  0  0  0  0  0
   -0.6559    0.1088    0.6167 O   0  0  0  0  0  0  0  0  0  0  0  0
    0.4406   -1.2684    2.0101 N   0  0  0  0  0  0  0  0  0  0  0  0
   -1.4895   -0.2509    1.6132 C   0  0  0  0  0  0  0  0  0  0  0  0
   -0.8068   -1.1034    2.4735 C   0  0  0  0  0  0  0  0  0  0  0  0
   -2.8274    0.1064    1.8465 C   0  0  0  0  0  0  0  0  0  0  0  0
   -1.4343   -1.6398    3.6104 C   0  0  0  0  0  0  0  0  0  0  0  0
   -3.4752   -0.4272    2.9832 C   0  0  0  0  0  0  0  0  0  0  0  0
   -2.7839   -1.2966    3.8628 C   0  0  0  0  0  0  0  0  0  0  0  0
   -3.5750   -1.9323    5.2178 Cl  0  0  0  0  0  0  0  0  0  0  0  0
    1.5834    0.1264   -0.6868 H   0  0  0  0  0  0  0  0  0  0  0  0
    2.4189   -0.8898    0.3555 H   0  0  0  0  0  0  0  0  0  0  0  0
   -3.3169    0.7378    1.2080 H   0  0  0  0  0  0  0  0  0  0  0  0
   -0.9202   -2.2647    4.2362 H   0  0  0  0  0  0  0  0  0  0  0  0
   -4.4518   -0.1794    3.1633 H   0  0  0  0  0  0  0  0  0  0  0  0
  1  2  1  0  0  0  0 
  2  3  1  0  0  0  0 
  2  4  2  0  0  0  0 
  3  5  1  0  0  0  0 
  4  6  1  0  0  0  0 
  5  6  1  0  0  0  0 
  5  7  2  0  0  0  0 
  6  8  2  0  0  0  0 
  7  9  1  0  0  0  0 
  8 10  1  0  0  0  0 
  9 10  2  0  0  0  0 
 10 11  1  0  0  0  0 
  1 12  1  0  0  0  0 
  1 13  1  0  0  0  0 
  7 14  1  0  0  0  0 
  8 15  1  0  0  0  0 
  9 16  1  0  0  0  0 
M  END
> <cdk:Title>
zoxazolamine

> <Conformer>
1

> <SuperDrugID>
SD002592

$$$$
