imipramine
  CDK     0628171801

 45 47  0  0  0  0  0  0  0  0999 V2000
   -1.5602   -1.2126    0.6800 C   0  0  2  0  0  0  0  0  0  0  0  0
   -0.4777   -0.1781    1.1205 C   0  0  2  0  0  0  0  0  0  0  0  0
   -2.6481   -1.4556    1.6183 N   0  0  0  0  0  0  0  0  0  0  0  0
    0.7139   -0.0752    0.1262 C   0  0  1  0  0  0  0  0  0  0  0  0
   -3.9416   -1.7041    1.1785 C   0  0  0  0  0  0  0  0  0  0  0  0
   -2.3848   -1.5454    2.9652 C   0  0  0  0  0  0  0  0  0  0  0  0
    1.4017   -1.3815   -0.1536 N   0  0  2  0  0  0  0  0  0  0  0  0
   -5.1060   -1.0710    1.7209 C   0  0  0  0  0  0  0  0  0  0  0  0
   -4.1140   -2.6694    0.1505 C   0  0  0  0  0  0  0  0  0  0  0  0
   -2.9101   -0.5826    3.8629 C   0  0  0  0  0  0  0  0  0  0  0  0
   -1.5690   -2.5883    3.4602 C   0  0  0  0  0  0  0  0  0  0  0  0
    2.2350   -1.9001    0.9709 C   0  0  0  0  0  0  0  0  0  0  0  0
    2.1390   -1.4039   -1.4499 C   0  0  0  0  0  0  0  0  0  0  0  0
   -5.1097   -0.0279    2.7986 C   0  0  2  0  0  0  0  0  0  0  0  0
   -6.3814   -1.4355    1.2157 C   0  0  0  0  0  0  0  0  0  0  0  0
   -5.3839   -2.9986   -0.3493 C   0  0  0  0  0  0  0  0  0  0  0  0
   -3.7604    0.5132    3.3354 C   0  0  1  0  0  0  0  0  0  0  0  0
   -2.6177   -0.6852    5.2425 C   0  0  0  0  0  0  0  0  0  0  0  0
   -1.2728   -2.6718    4.8321 C   0  0  0  0  0  0  0  0  0  0  0  0
   -6.5209   -2.3814    0.1875 C   0  0  0  0  0  0  0  0  0  0  0  0
   -1.8005   -1.7228    5.7233 C   0  0  0  0  0  0  0  0  0  0  0  0
   -1.0676   -2.1693    0.4906 H   0  0  0  0  0  0  0  0  0  0  0  0
   -1.9610   -0.8646   -0.2797 H   0  0  0  0  0  0  0  0  0  0  0  0
   -0.0862   -0.4379    2.1050 H   0  0  0  0  0  0  0  0  0  0  0  0
   -0.9453    0.8079    1.2111 H   0  0  0  0  0  0  0  0  0  0  0  0
    0.3092    0.3400   -0.8008 H   0  0  0  0  0  0  0  0  0  0  0  0
    1.4359    0.6520    0.5072 H   0  0  0  0  0  0  0  0  0  0  0  0
   -3.3082   -3.1563   -0.2457 H   0  0  0  0  0  0  0  0  0  0  0  0
   -1.1936   -3.2954    2.8235 H   0  0  0  0  0  0  0  0  0  0  0  0
    3.1020   -1.2579    1.1450 H   0  0  0  0  0  0  0  0  0  0  0  0
    1.6556   -1.9610    1.8912 H   0  0  0  0  0  0  0  0  0  0  0  0
    2.5870   -2.9111    0.7516 H   0  0  0  0  0  0  0  0  0  0  0  0
    2.5056   -2.4100   -1.6676 H   0  0  0  0  0  0  0  0  0  0  0  0
    1.4757   -1.1218   -2.2690 H   0  0  0  0  0  0  0  0  0  0  0  0
    2.9874   -0.7154   -1.4323 H   0  0  0  0  0  0  0  0  0  0  0  0
   -5.6747   -0.4212    3.6496 H   0  0  0  0  0  0  0  0  0  0  0  0
   -5.6639    0.8375    2.4228 H   0  0  0  0  0  0  0  0  0  0  0  0
   -7.2328   -1.0059    1.5899 H   0  0  0  0  0  0  0  0  0  0  0  0
   -5.4824   -3.6894   -1.0994 H   0  0  0  0  0  0  0  0  0  0  0  0
   -3.9709    1.2538    4.1140 H   0  0  0  0  0  0  0  0  0  0  0  0
   -3.2313    1.0419    2.5382 H   0  0  0  0  0  0  0  0  0  0  0  0
   -3.0043   -0.0102    5.9067 H   0  0  0  0  0  0  0  0  0  0  0  0
   -0.6831   -3.4293    5.1822 H   0  0  0  0  0  0  0  0  0  0  0  0
   -7.4482   -2.6188   -0.1736 H   0  0  0  0  0  0  0  0  0  0  0  0
   -1.5925   -1.7886    6.7216 H   0  0  0  0  0  0  0  0  0  0  0  0
  1  2  1  0  0  0  0 
  1  3  1  0  0  0  0 
  2  4  1  0  0  0  0 
  3  5  1  0  0  0  0 
  3  6  1  0  0  0  0 
  4  7  1  0  0  0  0 
  5  8  2  0  0  0  0 
  5  9  1  0  0  0  0 
  6 10  2  0  0  0  0 
  6 11  1  0  0  0  0 
  7 12  1  0  0  0  0 
  7 13  1  0  0  0  0 
  8 14  1  0  0  0  0 
  8 15  1  0  0  0  0 
  9 16  2  0  0  0  0 
 10 17  1  0  0  0  0 
 10 18  1  0  0  0  0 
 11 19  2  0  0  0  0 
 14 17  1  0  0  0  0 
 15 20  2  0  0  0  0 
 16 20  1  0  0  0  0 
 18 21  2  0  0  0  0 
 19 21  1  0  0  0  0 
  1 22  1  0  0  0  0 
  1 23  1  0  0  0  0 
  2 24  1  0  0  0  0 
  2 25  1  0  0  0  0 
  4 26  1  0  0  0  0 
  4 27  1  0  0  0  0 
  9 28  1  0  0  0  0 
 11 29  1  0  0  0  0 
 12 30  1  0  0  0  0 
 12 31  1  0  0  0  0 
 12 32  1  0  0  0  0 
 13 33  1  0  0  0  0 
 13 34  1  0  0  0  0 
 13 35  1  0  0  0  0 
 14 36  1  0  0  0  0 
 14 37  1  0  0  0  0 
 15 38  1  0  0  0  0 
 16 39  1  0  0  0  0 
 17 40  1  0  0  0  0 
 17 41  1  0  0  0  0 
 18 42  1  0  0  0  0 
 19 43  1  0  0  0  0 
 20 44  1  0  0  0  0 
 21 45  1  0  0  0  0 
M  END
> <cdk:Title>
imipramine

> <Conformer>
1

> <SuperDrugID>
SD001266

$$$$
