teriflunomide
  CDK     0628171802

 28 28  0  0  0  0  0  0  0  0999 V2000
   -5.5711   -5.2728   -2.5294 C   0  0  2  0  0  0  0  0  0  0  0  0
   -5.7732   -6.3088   -1.6470 F   0  0  0  0  0  0  0  0  0  0  0  0
   -6.8110   -4.7613   -2.8305 F   0  0  0  0  0  0  0  0  0  0  0  0
   -5.0300   -5.8178   -3.6690 F   0  0  0  0  0  0  0  0  0  0  0  0
   -4.6788   -4.1905   -2.0224 C   0  0  0  0  0  0  0  0  0  0  0  0
   -4.0139   -4.2730   -0.7745 C   0  0  0  0  0  0  0  0  0  0  0  0
   -4.4661   -3.0330   -2.8100 C   0  0  0  0  0  0  0  0  0  0  0  0
   -3.1569   -3.2439   -0.3415 C   0  0  0  0  0  0  0  0  0  0  0  0
   -3.6095   -2.0032   -2.3788 C   0  0  0  0  0  0  0  0  0  0  0  0
   -2.9436   -2.0970   -1.1349 C   0  0  0  0  0  0  0  0  0  0  0  0
   -2.0560   -1.1703   -0.6657 N   0  0  0  0  0  0  0  0  0  0  0  0
   -2.0268    0.1828   -0.8689 C   0  0  0  0  0  0  0  0  0  0  0  0
   -0.8969    0.9864   -0.3219 C   0  0  1  0  0  0  0  0  0  0  0  0
   -2.9417    0.7759   -1.4899 O   0  0  0  0  0  0  0  0  0  0  0  0
   -0.7413    0.9117    1.1622 C   0  0  0  0  0  0  0  0  0  0  0  0
    0.2701    0.6049   -0.9417 C   0  0  0  0  0  0  0  0  0  0  0  0
    0.0864    1.8901    1.9030 C   0  0  0  0  0  0  0  0  0  0  0  0
   -1.3245    0.0240    1.8318 O   0  0  0  0  0  0  0  0  0  0  0  0
    1.2450    0.2900   -1.4616 N   0  0  0  0  0  0  0  0  0  0  0  0
   -4.1367   -5.0887   -0.1694 H   0  0  0  0  0  0  0  0  0  0  0  0
   -4.9301   -2.9363   -3.7177 H   0  0  0  0  0  0  0  0  0  0  0  0
   -2.6844   -3.3389    0.5613 H   0  0  0  0  0  0  0  0  0  0  0  0
   -3.4595   -1.2017   -2.9939 H   0  0  0  0  0  0  0  0  0  0  0  0
   -1.3603   -1.5181   -0.0868 H   0  0  0  0  0  0  0  0  0  0  0  0
   -1.0600    2.0373   -0.5868 H   0  0  0  0  0  0  0  0  0  0  0  0
   -0.2003    2.9077    1.6364 H   0  0  0  0  0  0  0  0  0  0  0  0
    1.1377    1.7412    1.6563 H   0  0  0  0  0  0  0  0  0  0  0  0
   -0.0372    1.7712    2.9811 H   0  0  0  0  0  0  0  0  0  0  0  0
  1  2  1  0  0  0  0 
  1  3  1  0  0  0  0 
  1  4  1  0  0  0  0 
  1  5  1  0  0  0  0 
  5  6  2  0  0  0  0 
  5  7  1  0  0  0  0 
  6  8  1  0  0  0  0 
  7  9  2  0  0  0  0 
  8 10  2  0  0  0  0 
  9 10  1  0  0  0  0 
 10 11  1  0  0  0  0 
 11 12  1  0  0  0  0 
 12 13  1  0  0  0  0 
 12 14  2  0  0  0  0 
 13 15  1  0  0  0  0 
 13 16  1  0  0  0  0 
 15 17  1  0  0  0  0 
 15 18  2  0  0  0  0 
 16 19  3  0  0  0  0 
 20  6  1  0  0  0  0 
 21  7  1  0  0  0  0 
 22  8  1  0  0  0  0 
 23  9  1  0  0  0  0 
 24 11  1  0  0  0  0 
 25 13  1  0  0  0  0 
 26 17  1  0  0  0  0 
 27 17  1  0  0  0  0 
 28 17  1  0  0  0  0 
M  END
> <cdk:Title>
teriflunomide

> <Conformer>
1

> <SuperDrugID>
SD003673

$$$$
