sisomicin
  CDK     0628171801

 68 70  0  0  0  0  0  0  0  0999 V2000
   -1.2364   -3.2617    3.7283 O   0  0  0  0  0  0  0  0  0  0  0  0
   -0.3061   -2.4474    4.4877 C   0  0  2  0  0  0  0  0  0  0  0  0
   -2.6599   -3.0526    3.8997 C   0  0  2  0  0  0  0  0  0  0  0  0
   -0.0563   -1.0741    3.7932 C   0  0  1  0  0  0  0  0  0  0  0  0
    1.0125   -3.2776    4.5865 C   0  0  2  0  0  0  0  0  0  0  0  0
   -3.4397   -4.2719    3.3392 C   0  0  2  0  0  0  0  0  0  0  0  0
   -3.1484   -1.8456    3.2859 O   0  0  0  0  0  0  0  0  0  0  0  0
   -1.1911   -0.2231    3.9424 O   0  0  0  0  0  0  0  0  0  0  0  0
    1.1501   -0.2817    4.3668 C   0  0  2  0  0  0  0  0  0  0  0  0
    0.7864   -4.4840    5.3988 N   0  0  2  0  0  0  0  0  0  0  0  0
    2.1932   -2.4655    5.1896 C   0  0  2  0  0  0  0  0  0  0  0  0
   -2.8417   -5.4388    3.9091 O   0  0  0  0  0  0  0  0  0  0  0  0
   -3.4363   -4.3071    1.7738 C   0  0  1  0  0  0  0  0  0  0  0  0
   -2.9498   -1.7859    1.8615 C   0  0  2  0  0  0  0  0  0  0  0  0
    1.3041    1.0374    3.7778 O   0  0  0  0  0  0  0  0  0  0  0  0
    2.4418   -1.1517    4.3962 C   0  0  2  0  0  0  0  0  0  0  0  0
   -4.4336   -5.2664    1.2240 N   0  0  1  0  0  0  0  0  0  0  0  0
   -3.7480   -2.9027    1.1375 C   0  0  1  0  0  0  0  0  0  0  0  0
    1.5920    1.1693    2.3682 C   0  0  1  0  0  0  0  0  0  0  0  0
    3.5425   -0.3952    5.0105 N   0  0  1  0  0  0  0  0  0  0  0  0
   -4.2174   -6.7125    1.4109 C   0  0  0  0  0  0  0  0  0  0  0  0
   -3.4197   -2.8605   -0.3864 C   0  0  0  0  0  0  0  0  0  0  0  0
   -5.1333   -2.5727    1.3122 O   0  0  0  0  0  0  0  0  0  0  0  0
    0.4691    0.8295    1.5087 O   0  0  0  0  0  0  0  0  0  0  0  0
    1.9798    2.6436    2.0713 C   0  0  2  0  0  0  0  0  0  0  0  0
    0.6318    1.0231    0.1726 C   0  0  0  0  0  0  0  0  0  0  0  0
    0.8733    3.5604    2.4011 N   0  0  2  0  0  0  0  0  0  0  0  0
    2.3274    2.7628    0.5568 C   0  0  2  0  0  0  0  0  0  0  0  0
   -0.1691    0.2077   -0.7280 C   0  0  1  0  0  0  0  0  0  0  0  0
    1.4958    1.9380   -0.3143 C   0  0  0  0  0  0  0  0  0  0  0  0
    0.6658   -0.8244   -1.3578 N   0  0  2  0  0  0  0  0  0  0  0  0
   -2.8878   -2.9927    4.9670 H   0  0  0  0  0  0  0  0  0  0  0  0
    2.4486    0.5351    2.1266 H   0  0  0  0  0  0  0  0  0  0  0  0
   -0.6728   -2.2732    5.5050 H   0  0  0  0  0  0  0  0  0  0  0  0
    0.1191   -1.2804    2.7363 H   0  0  0  0  0  0  0  0  0  0  0  0
    1.3024   -3.6116    3.5849 H   0  0  0  0  0  0  0  0  0  0  0  0
   -4.4729   -4.2126    3.6951 H   0  0  0  0  0  0  0  0  0  0  0  0
   -0.9646    0.6040    3.4679 H   0  0  0  0  0  0  0  0  0  0  0  0
    0.9035   -0.0662    5.4109 H   0  0  0  0  0  0  0  0  0  0  0  0
    1.6634   -5.0088    5.4134 H   0  0  0  0  0  0  0  0  0  0  0  0
    0.1042   -5.0609    4.9017 H   0  0  0  0  0  0  0  0  0  0  0  0
    3.0992   -3.0790    5.1688 H   0  0  0  0  0  0  0  0  0  0  0  0
    1.9779   -2.2270    6.2363 H   0  0  0  0  0  0  0  0  0  0  0  0
   -3.4503   -6.1764    3.7156 H   0  0  0  0  0  0  0  0  0  0  0  0
   -2.4343   -4.6096    1.4494 H   0  0  0  0  0  0  0  0  0  0  0  0
   -1.8892   -1.8566    1.6115 H   0  0  0  0  0  0  0  0  0  0  0  0
   -3.2953   -0.8036    1.5302 H   0  0  0  0  0  0  0  0  0  0  0  0
    2.7444   -1.4149    3.3789 H   0  0  0  0  0  0  0  0  0  0  0  0
   -5.3476   -5.0332    1.6203 H   0  0  0  0  0  0  0  0  0  0  0  0
    4.3565   -1.0135    5.0493 H   0  0  0  0  0  0  0  0  0  0  0  0
    3.7763    0.3642    4.3667 H   0  0  0  0  0  0  0  0  0  0  0  0
   -4.7890   -7.2400    0.6471 H   0  0  0  0  0  0  0  0  0  0  0  0
   -4.5883   -7.0276    2.3863 H   0  0  0  0  0  0  0  0  0  0  0  0
   -3.1645   -6.9829    1.3078 H   0  0  0  0  0  0  0  0  0  0  0  0
   -4.0099   -3.6028   -0.9235 H   0  0  0  0  0  0  0  0  0  0  0  0
   -2.3607   -3.0729   -0.5630 H   0  0  0  0  0  0  0  0  0  0  0  0
   -3.6492   -1.8770   -0.8057 H   0  0  0  0  0  0  0  0  0  0  0  0
   -5.6407   -3.2489    0.8136 H   0  0  0  0  0  0  0  0  0  0  0  0
    2.8445    2.9319    2.6785 H   0  0  0  0  0  0  0  0  0  0  0  0
    1.2336    4.5114    2.2857 H   0  0  0  0  0  0  0  0  0  0  0  0
    0.6594    3.4454    3.3942 H   0  0  0  0  0  0  0  0  0  0  0  0
    3.3669    2.4550    0.4157 H   0  0  0  0  0  0  0  0  0  0  0  0
    2.2493    3.8063    0.2398 H   0  0  0  0  0  0  0  0  0  0  0  0
   -0.9727   -0.2883   -0.1842 H   0  0  0  0  0  0  0  0  0  0  0  0
   -0.6296    0.8297   -1.5022 H   0  0  0  0  0  0  0  0  0  0  0  0
    1.5859    2.0541   -1.2999 H   0  0  0  0  0  0  0  0  0  0  0  0
    0.0730   -1.3522   -2.0005 H   0  0  0  0  0  0  0  0  0  0  0  0
    0.9614   -1.4773   -0.6266 H   0  0  0  0  0  0  0  0  0  0  0  0
  3  1  1  0  0  0  0 
  2  1  1  0  0  0  0 
  4  2  1  0  0  0  0 
  2  5  1  0  0  0  0 
  6  3  1  0  0  0  0 
  3  7  1  0  0  0  0 
  3 32  1  0  0  0  0 
  4  8  1  0  0  0  0 
  9  4  1  0  0  0  0 
  5 10  1  0  0  0  0 
  5 11  1  0  0  0  0 
  6 12  1  0  0  0  0 
 13  6  1  0  0  0  0 
  7 14  1  0  0  0  0 
  9 15  1  0  0  0  0 
  9 16  1  0  0  0  0 
 16 11  1  0  0  0  0 
 13 17  1  0  0  0  0 
 13 18  1  0  0  0  0 
 18 14  1  0  0  0  0 
 19 15  1  0  0  0  0 
 16 20  1  0  0  0  0 
 17 21  1  0  0  0  0 
 18 22  1  0  0  0  0 
 18 23  1  0  0  0  0 
 19 24  1  0  0  0  0 
 25 19  1  0  0  0  0 
 19 33  1  0  0  0  0 
 24 26  1  0  0  0  0 
 25 27  1  0  0  0  0 
 25 28  1  0  0  0  0 
 26 29  1  0  0  0  0 
 26 30  2  0  0  0  0 
 28 30  1  0  0  0  0 
 29 31  1  0  0  0  0 
  2 34  1  0  0  0  0 
  4 35  1  0  0  0  0 
  5 36  1  0  0  0  0 
  6 37  1  0  0  0  0 
  8 38  1  0  0  0  0 
  9 39  1  0  0  0  0 
 10 40  1  0  0  0  0 
 10 41  1  0  0  0  0 
 11 42  1  0  0  0  0 
 11 43  1  0  0  0  0 
 12 44  1  0  0  0  0 
 13 45  1  0  0  0  0 
 14 46  1  0  0  0  0 
 14 47  1  0  0  0  0 
 16 48  1  0  0  0  0 
 17 49  1  0  0  0  0 
 20 50  1  0  0  0  0 
 20 51  1  0  0  0  0 
 21 52  1  0  0  0  0 
 21 53  1  0  0  0  0 
 21 54  1  0  0  0  0 
 22 55  1  0  0  0  0 
 22 56  1  0  0  0  0 
 22 57  1  0  0  0  0 
 23 58  1  0  0  0  0 
 25 59  1  0  0  0  0 
 27 60  1  0  0  0  0 
 27 61  1  0  0  0  0 
 28 62  1  0  0  0  0 
 28 63  1  0  0  0  0 
 29 64  1  0  0  0  0 
 29 65  1  0  0  0  0 
 30 66  1  0  0  0  0 
 31 67  1  0  0  0  0 
 31 68  1  0  0  0  0 
M  END
> <cdk:Title>
sisomicin

> <Conformer>
1

> <SuperDrugID>
SD002199

$$$$
