pipecuronium
  CDK     0628171801

105110  0  0  0  0  0  0  0  0999 V2000
   -2.4013   -8.9277   -2.8360 C   0  0  0  0  0  0  0  0  0  0  0  0
   -1.9630   -7.3465   -3.0244 C   0  0  2  0  0  0  0  0  0  0  0  0
   -3.0877   -6.4005   -3.7494 C   0  0  2  0  0  0  0  0  0  0  0  0
   -0.8686   -7.1661   -4.1573 C   0  0  1  0  0  0  0  0  0  0  0  0
   -1.7868   -6.6147   -1.5680 C   0  0  2  0  0  0  0  0  0  0  0  0
   -4.5078   -6.4174   -3.0260 C   0  0  1  0  0  0  0  0  0  0  0  0
   -3.0761   -6.7074   -5.3002 C   0  0  1  0  0  0  0  0  0  0  0  0
    0.1969   -8.0934   -3.9153 O   0  0  0  0  0  0  0  0  0  0  0  0
   -1.6481   -7.3382   -5.5375 C   0  0  2  0  0  0  0  0  0  0  0  0
   -3.1427   -6.4836   -0.7462 C   0  0  2  0  0  0  0  0  0  0  0  0
   -4.3697   -5.8762   -1.5389 C   0  0  2  0  0  0  0  0  0  0  0  0
   -5.6354   -5.6782   -3.8093 C   0  0  2  0  0  0  0  0  0  0  0  0
    1.1828   -8.0243   -2.9743 C   0  0  0  0  0  0  0  0  0  0  0  0
   -1.6789   -8.7057   -6.2068 N   0  0  0  0  0  0  0  0  0  0  0  0
   -5.7646   -5.9364   -0.7566 C   0  0  2  0  0  0  0  0  0  0  0  0
   -6.9892   -5.7314   -3.0591 C   0  0  1  0  0  0  0  0  0  0  0  0
    1.9073   -6.7808   -2.6554 C   0  0  0  0  0  0  0  0  0  0  0  0
    1.5311   -9.1014   -2.4403 O   0  0  0  0  0  0  0  0  0  0  0  0
   -0.4566   -9.5698   -6.2199 C   0  0  2  0  0  0  0  0  0  0  0  0
   -2.8276   -9.0832   -7.0993 C   0  0  1  0  0  0  0  0  0  0  0  0
   -6.1706   -7.4375   -0.4836 C   0  0  0  0  0  0  0  0  0  0  0  0
   -6.8448   -5.1634   -1.6212 C   0  0  1  0  0  0  0  0  0  0  0  0
   -5.6952   -5.1528    0.6170 C   0  0  2  0  0  0  0  0  0  0  0  0
   -0.3038  -10.5553   -7.4113 C   0  0  2  0  0  0  0  0  0  0  0  0
   -2.5374  -10.0861   -8.2455 C   0  0  1  0  0  0  0  0  0  0  0  0
   -8.2242   -5.0096   -0.9113 C   0  0  2  0  0  0  0  0  0  0  0  0
   -7.0547   -5.0423    1.4127 C   0  0  1  0  0  0  0  0  0  0  0  0
   -1.5880  -11.1972   -7.8761 N   0  0  2  0  0  0  0  0  0  0  0  0
   -8.0729   -4.3024    0.4694 C   0  0  1  0  0  0  0  0  0  0  0  0
   -7.5346   -6.3581    2.0135 N   0  0  1  0  0  0  0  0  0  0  0  0
   -2.1783  -12.1051   -6.8190 C   0  0  0  0  0  0  0  0  0  0  0  0
   -1.3105  -12.0327   -9.1068 C   0  0  0  0  0  0  0  0  0  0  0  0
   -7.6730   -2.9237    0.3385 O   0  0  0  0  0  0  0  0  0  0  0  0
   -6.5922   -6.9978    2.9979 C   0  0  2  0  0  0  0  0  0  0  0  0
   -8.9407   -6.4123    2.5454 C   0  0  1  0  0  0  0  0  0  0  0  0
   -8.4177   -1.8962   -0.1700 C   0  0  0  0  0  0  0  0  0  0  0  0
   -7.0200   -8.4522    3.3299 C   0  0  2  0  0  0  0  0  0  0  0  0
   -9.3709   -7.8546    2.9287 C   0  0  1  0  0  0  0  0  0  0  0  0
   -7.8764   -0.5317   -0.0980 C   0  0  0  0  0  0  0  0  0  0  0  0
   -9.5559   -2.0955   -0.6587 O   0  0  0  0  0  0  0  0  0  0  0  0
   -8.4274   -8.5710    3.8687 N   0  0  1  0  0  0  0  0  0  0  0  0
   -8.8162  -10.0336    3.9186 C   0  0  0  0  0  0  0  0  0  0  0  0
   -8.5219   -8.0148    5.2741 C   0  0  0  0  0  0  0  0  0  0  0  0
   -4.7968   -7.4658   -3.0030 H   0  0  0  0  0  0  0  0  0  0  0  0
   -4.1148   -4.8161   -1.6423 H   0  0  0  0  0  0  0  0  0  0  0  0
   -2.8261   -5.3016   -3.7338 H   0  0  0  0  0  0  0  0  0  0  0  0
   -6.4870   -4.1353   -1.7602 H   0  0  0  0  0  0  0  0  0  0  0  0
   -2.6924   -9.4536   -3.7762 H   0  0  0  0  0  0  0  0  0  0  0  0
   -1.6048   -9.5786   -2.3978 H   0  0  0  0  0  0  0  0  0  0  0  0
   -3.2721   -9.1051   -2.1618 H   0  0  0  0  0  0  0  0  0  0  0  0
   -0.3722   -6.1549   -4.2229 H   0  0  0  0  0  0  0  0  0  0  0  0
   -1.3819   -5.5691   -1.6212 H   0  0  0  0  0  0  0  0  0  0  0  0
   -1.0709   -7.1305   -0.8751 H   0  0  0  0  0  0  0  0  0  0  0  0
   -3.8908   -7.4002   -5.4933 H   0  0  0  0  0  0  0  0  0  0  0  0
   -3.2255   -5.8013   -5.8966 H   0  0  0  0  0  0  0  0  0  0  0  0
   -1.1354   -6.7036   -6.2674 H   0  0  0  0  0  0  0  0  0  0  0  0
   -2.9329   -5.8766    0.1384 H   0  0  0  0  0  0  0  0  0  0  0  0
   -3.3938   -7.4830   -0.3971 H   0  0  0  0  0  0  0  0  0  0  0  0
   -5.7824   -6.1387   -4.7895 H   0  0  0  0  0  0  0  0  0  0  0  0
   -5.3469   -4.6355   -3.9698 H   0  0  0  0  0  0  0  0  0  0  0  0
   -7.7156   -5.1380   -3.6198 H   0  0  0  0  0  0  0  0  0  0  0  0
   -7.3583   -6.7591   -3.0242 H   0  0  0  0  0  0  0  0  0  0  0  0
    2.6748   -6.9599   -1.8995 H   0  0  0  0  0  0  0  0  0  0  0  0
    2.3886   -6.3982   -3.5580 H   0  0  0  0  0  0  0  0  0  0  0  0
    1.2181   -6.0297   -2.2711 H   0  0  0  0  0  0  0  0  0  0  0  0
   -0.4538  -10.1543   -5.2969 H   0  0  0  0  0  0  0  0  0  0  0  0
    0.4359   -8.9397   -6.2246 H   0  0  0  0  0  0  0  0  0  0  0  0
   -3.6080   -9.5124   -6.4655 H   0  0  0  0  0  0  0  0  0  0  0  0
   -3.2408   -8.1899   -7.5746 H   0  0  0  0  0  0  0  0  0  0  0  0
   -7.1919   -7.5343   -0.1353 H   0  0  0  0  0  0  0  0  0  0  0  0
   -5.5333   -7.8845    0.2786 H   0  0  0  0  0  0  0  0  0  0  0  0
   -6.1131   -8.0628   -1.3682 H   0  0  0  0  0  0  0  0  0  0  0  0
   -5.3415   -4.1357    0.4175 H   0  0  0  0  0  0  0  0  0  0  0  0
   -4.9220   -5.5711    1.2529 H   0  0  0  0  0  0  0  0  0  0  0  0
    0.4245  -11.3222   -7.1258 H   0  0  0  0  0  0  0  0  0  0  0  0
    0.1504   -9.9918   -8.2364 H   0  0  0  0  0  0  0  0  0  0  0  0
   -3.4959  -10.4963   -8.5854 H   0  0  0  0  0  0  0  0  0  0  0  0
   -2.1343   -9.5067   -9.0863 H   0  0  0  0  0  0  0  0  0  0  0  0
   -8.6988   -5.9808   -0.7730 H   0  0  0  0  0  0  0  0  0  0  0  0
   -8.8956   -4.4283   -1.5471 H   0  0  0  0  0  0  0  0  0  0  0  0
   -6.8770   -4.3738    2.2619 H   0  0  0  0  0  0  0  0  0  0  0  0
   -9.0492   -4.2453    0.9469 H   0  0  0  0  0  0  0  0  0  0  0  0
   -1.4896  -12.9144   -6.5628 H   0  0  0  0  0  0  0  0  0  0  0  0
   -2.4073  -11.5753   -5.8926 H   0  0  0  0  0  0  0  0  0  0  0  0
   -3.1104  -12.5611   -7.1647 H   0  0  0  0  0  0  0  0  0  0  0  0
   -2.2253  -12.4948   -9.4897 H   0  0  0  0  0  0  0  0  0  0  0  0
   -0.5990  -12.8351   -8.8917 H   0  0  0  0  0  0  0  0  0  0  0  0
   -0.8883  -11.4319   -9.9176 H   0  0  0  0  0  0  0  0  0  0  0  0
   -6.5226   -6.3953    3.9058 H   0  0  0  0  0  0  0  0  0  0  0  0
   -5.5829   -7.0834    2.6055 H   0  0  0  0  0  0  0  0  0  0  0  0
   -9.0512   -5.7412    3.4005 H   0  0  0  0  0  0  0  0  0  0  0  0
   -9.6598   -6.1071    1.7879 H   0  0  0  0  0  0  0  0  0  0  0  0
   -6.2937   -8.8791    4.0304 H   0  0  0  0  0  0  0  0  0  0  0  0
   -6.9240   -9.0205    2.3971 H   0  0  0  0  0  0  0  0  0  0  0  0
  -10.3783   -7.8168    3.3548 H   0  0  0  0  0  0  0  0  0  0  0  0
   -9.4537   -8.4086    1.9859 H   0  0  0  0  0  0  0  0  0  0  0  0
   -8.6090    0.1937   -0.4547 H   0  0  0  0  0  0  0  0  0  0  0  0
   -7.6395   -0.2901    0.9406 H   0  0  0  0  0  0  0  0  0  0  0  0
   -6.9700   -0.4512   -0.7025 H   0  0  0  0  0  0  0  0  0  0  0  0
   -8.7775  -10.4961    2.9269 H   0  0  0  0  0  0  0  0  0  0  0  0
   -8.1494  -10.6077    4.5685 H   0  0  0  0  0  0  0  0  0  0  0  0
   -9.8366  -10.1604    4.2929 H   0  0  0  0  0  0  0  0  0  0  0  0
   -9.5284   -8.1350    5.6818 H   0  0  0  0  0  0  0  0  0  0  0  0
   -8.2938   -6.9494    5.3180 H   0  0  0  0  0  0  0  0  0  0  0  0
   -7.8289   -8.5227    5.9521 H   0  0  0  0  0  0  0  0  0  0  0  0
  2  1  1  0  0  0  0 
  3  2  1  0  0  0  0 
  2  4  1  0  0  0  0 
  2  5  1  0  0  0  0 
  6  3  1  0  0  0  0 
  3  7  1  0  0  0  0 
  3 46  1  0  0  0  0 
  4  8  1  0  0  0  0 
  4  9  1  0  0  0  0 
  5 10  1  0  0  0  0 
 11  6  1  0  0  0  0 
  6 12  1  0  0  0  0 
  6 44  1  0  0  0  0 
  9  7  1  0  0  0  0 
  8 13  1  0  0  0  0 
  9 14  1  0  0  0  0 
 11 10  1  0  0  0  0 
 15 11  1  0  0  0  0 
 11 45  1  0  0  0  0 
 12 16  1  0  0  0  0 
 13 17  1  0  0  0  0 
 13 18  2  0  0  0  0 
 14 19  1  0  0  0  0 
 14 20  1  0  0  0  0 
 15 21  1  0  0  0  0 
 15 22  1  0  0  0  0 
 15 23  1  0  0  0  0 
 22 16  1  0  0  0  0 
 19 24  1  0  0  0  0 
 20 25  1  0  0  0  0 
 22 26  1  0  0  0  0 
 22 47  1  0  0  0  0 
 27 23  1  0  0  0  0 
 24 28  1  0  0  0  0 
 25 28  1  0  0  0  0 
 29 26  1  0  0  0  0 
 29 27  1  0  0  0  0 
 27 30  1  0  0  0  0 
 28 31  1  0  0  0  0 
 28 32  1  0  0  0  0 
 29 33  1  0  0  0  0 
 30 34  1  0  0  0  0 
 30 35  1  0  0  0  0 
 33 36  1  0  0  0  0 
 34 37  1  0  0  0  0 
 35 38  1  0  0  0  0 
 36 39  1  0  0  0  0 
 36 40  2  0  0  0  0 
 37 41  1  0  0  0  0 
 38 41  1  0  0  0  0 
 41 42  1  0  0  0  0 
 41 43  1  0  0  0  0 
  1 48  1  0  0  0  0 
  1 49  1  0  0  0  0 
  1 50  1  0  0  0  0 
  4 51  1  0  0  0  0 
  5 52  1  0  0  0  0 
  5 53  1  0  0  0  0 
  7 54  1  0  0  0  0 
  7 55  1  0  0  0  0 
  9 56  1  0  0  0  0 
 10 57  1  0  0  0  0 
 10 58  1  0  0  0  0 
 12 59  1  0  0  0  0 
 12 60  1  0  0  0  0 
 16 61  1  0  0  0  0 
 16 62  1  0  0  0  0 
 17 63  1  0  0  0  0 
 17 64  1  0  0  0  0 
 17 65  1  0  0  0  0 
 19 66  1  0  0  0  0 
 19 67  1  0  0  0  0 
 20 68  1  0  0  0  0 
 20 69  1  0  0  0  0 
 21 70  1  0  0  0  0 
 21 71  1  0  0  0  0 
 21 72  1  0  0  0  0 
 23 73  1  0  0  0  0 
 23 74  1  0  0  0  0 
 24 75  1  0  0  0  0 
 24 76  1  0  0  0  0 
 25 77  1  0  0  0  0 
 25 78  1  0  0  0  0 
 26 79  1  0  0  0  0 
 26 80  1  0  0  0  0 
 27 81  1  0  0  0  0 
 29 82  1  0  0  0  0 
 31 83  1  0  0  0  0 
 31 84  1  0  0  0  0 
 31 85  1  0  0  0  0 
 32 86  1  0  0  0  0 
 32 87  1  0  0  0  0 
 32 88  1  0  0  0  0 
 34 89  1  0  0  0  0 
 34 90  1  0  0  0  0 
 35 91  1  0  0  0  0 
 35 92  1  0  0  0  0 
 37 93  1  0  0  0  0 
 37 94  1  0  0  0  0 
 38 95  1  0  0  0  0 
 38 96  1  0  0  0  0 
 39 97  1  0  0  0  0 
 39 98  1  0  0  0  0 
 39 99  1  0  0  0  0 
 42100  1  0  0  0  0 
 42101  1  0  0  0  0 
 42102  1  0  0  0  0 
 43103  1  0  0  0  0 
 43104  1  0  0  0  0 
 43105  1  0  0  0  0 
M  CHG  1  28   1
M  CHG  1  41   1
M  END
> <cdk:Title>
pipecuronium

> <Conformer>
1

> <SuperDrugID>
SD001958

$$$$
