adamexine
  CDK     0628171802

 51 54  0  0  0  0  0  0  0  0999 V2000
   -4.6652   -0.0311    3.2836 N   0  0  1  0  0  0  0  0  0  0  0  0
   -3.5692   -0.1816    2.2495 C   0  0  2  0  0  0  0  0  0  0  0  0
   -5.8102   -0.9786    3.0469 C   0  0  0  0  0  0  0  0  0  0  0  0
   -4.2030    0.1308    4.7404 C   0  0  2  0  0  0  0  0  0  0  0  0
   -3.9727   -0.4249    0.8279 C   0  0  0  0  0  0  0  0  0  0  0  0
   -5.3414    0.7658    5.6355 C   0  0  1  0  0  0  0  0  0  0  0  0
   -2.9686    1.1169    4.8680 C   0  0  2  0  0  0  0  0  0  0  0  0
   -3.7803   -1.2403    5.3979 C   0  0  2  0  0  0  0  0  0  0  0  0
   -4.6210    0.5731    0.0509 C   0  0  0  0  0  0  0  0  0  0  0  0
   -3.7272   -1.6903    0.2443 C   0  0  0  0  0  0  0  0  0  0  0  0
   -4.8852    0.9465    7.1218 C   0  0  1  0  0  0  0  0  0  0  0  0
   -2.5003    1.3001    6.3457 C   0  0  1  0  0  0  0  0  0  0  0  0
   -3.3186   -1.0487    6.8797 C   0  0  2  0  0  0  0  0  0  0  0  0
   -4.8936    1.7783    0.6209 N   0  0  0  0  0  0  0  0  0  0  0  0
   -4.9543    0.3111   -1.3017 C   0  0  0  0  0  0  0  0  0  0  0  0
   -4.0971   -1.9574   -1.0836 C   0  0  0  0  0  0  0  0  0  0  0  0
   -4.4933   -0.4451    7.7127 C   0  0  2  0  0  0  0  0  0  0  0  0
   -3.6601    1.9064    7.1884 C   0  0  2  0  0  0  0  0  0  0  0  0
   -2.0895   -0.0883    6.9276 C   0  0  1  0  0  0  0  0  0  0  0  0
   -6.1355    2.2998    0.8058 C   0  0  0  0  0  0  0  0  0  0  0  0
   -5.7088    1.6067   -2.4103 Br  0  0  0  0  0  0  0  0  0  0  0  0
   -4.6928   -0.9518   -1.8595 C   0  0  0  0  0  0  0  0  0  0  0  0
   -3.8114   -3.6486   -1.8018 Br  0  0  0  0  0  0  0  0  0  0  0  0
   -6.2457    3.6274    1.4241 C   0  0  0  0  0  0  0  0  0  0  0  0
   -7.1775    1.6825    0.4769 O   0  0  0  0  0  0  0  0  0  0  0  0
   -2.8852   -0.9651    2.5775 H   0  0  0  0  0  0  0  0  0  0  0  0
   -2.9829    0.7362    2.2209 H   0  0  0  0  0  0  0  0  0  0  0  0
   -6.6405   -0.8124    3.7261 H   0  0  0  0  0  0  0  0  0  0  0  0
   -6.2330   -0.8442    2.0511 H   0  0  0  0  0  0  0  0  0  0  0  0
   -5.4856   -2.0167    3.1378 H   0  0  0  0  0  0  0  0  0  0  0  0
   -5.6440    1.7314    5.2186 H   0  0  0  0  0  0  0  0  0  0  0  0
   -6.2319    0.1369    5.6513 H   0  0  0  0  0  0  0  0  0  0  0  0
   -3.2276    2.0911    4.4415 H   0  0  0  0  0  0  0  0  0  0  0  0
   -2.1062    0.7409    4.3128 H   0  0  0  0  0  0  0  0  0  0  0  0
   -2.9716   -1.7039    4.8280 H   0  0  0  0  0  0  0  0  0  0  0  0
   -4.6171   -1.9427    5.3854 H   0  0  0  0  0  0  0  0  0  0  0  0
   -3.2862   -2.4348    0.7897 H   0  0  0  0  0  0  0  0  0  0  0  0
   -5.7066    1.3700    7.7061 H   0  0  0  0  0  0  0  0  0  0  0  0
   -1.6401    1.9755    6.3770 H   0  0  0  0  0  0  0  0  0  0  0  0
   -3.0367   -2.0177    7.3015 H   0  0  0  0  0  0  0  0  0  0  0  0
   -4.1415    2.2869    0.9655 H   0  0  0  0  0  0  0  0  0  0  0  0
   -5.3543   -1.1196    7.6892 H   0  0  0  0  0  0  0  0  0  0  0  0
   -4.1944   -0.3387    8.7588 H   0  0  0  0  0  0  0  0  0  0  0  0
   -3.3417    2.0386    8.2266 H   0  0  0  0  0  0  0  0  0  0  0  0
   -3.9312    2.8940    6.8040 H   0  0  0  0  0  0  0  0  0  0  0  0
   -1.2625   -0.5097    6.3475 H   0  0  0  0  0  0  0  0  0  0  0  0
   -1.7389    0.0226    7.9579 H   0  0  0  0  0  0  0  0  0  0  0  0
   -4.9307   -1.1378   -2.8333 H   0  0  0  0  0  0  0  0  0  0  0  0
   -7.2918    3.9134    1.5554 H   0  0  0  0  0  0  0  0  0  0  0  0
   -5.7563    3.6226    2.4010 H   0  0  0  0  0  0  0  0  0  0  0  0
   -5.7569    4.3631    0.7817 H   0  0  0  0  0  0  0  0  0  0  0  0
  1  2  1  0  0  0  0 
  1  3  1  0  0  0  0 
  1  4  1  0  0  0  0 
  2  5  1  0  0  0  0 
  4  6  1  0  0  0  0 
  4  7  1  0  0  0  0 
  4  8  1  0  0  0  0 
  5  9  2  0  0  0  0 
  5 10  1  0  0  0  0 
  6 11  1  0  0  0  0 
  7 12  1  0  0  0  0 
  8 13  1  0  0  0  0 
  9 14  1  0  0  0  0 
  9 15  1  0  0  0  0 
 10 16  2  0  0  0  0 
 11 17  1  0  0  0  0 
 11 18  1  0  0  0  0 
 12 18  1  0  0  0  0 
 12 19  1  0  0  0  0 
 13 17  1  0  0  0  0 
 13 19  1  0  0  0  0 
 14 20  1  0  0  0  0 
 15 21  1  0  0  0  0 
 15 22  2  0  0  0  0 
 16 22  1  0  0  0  0 
 16 23  1  0  0  0  0 
 20 24  1  0  0  0  0 
 20 25  2  0  0  0  0 
  2 26  1  0  0  0  0 
  2 27  1  0  0  0  0 
  3 28  1  0  0  0  0 
  3 29  1  0  0  0  0 
  3 30  1  0  0  0  0 
  6 31  1  0  0  0  0 
  6 32  1  0  0  0  0 
  7 33  1  0  0  0  0 
  7 34  1  0  0  0  0 
  8 35  1  0  0  0  0 
  8 36  1  0  0  0  0 
 10 37  1  0  0  0  0 
 11 38  1  0  0  0  0 
 12 39  1  0  0  0  0 
 13 40  1  0  0  0  0 
 14 41  1  0  0  0  0 
 17 42  1  0  0  0  0 
 17 43  1  0  0  0  0 
 18 44  1  0  0  0  0 
 18 45  1  0  0  0  0 
 19 46  1  0  0  0  0 
 19 47  1  0  0  0  0 
 22 48  1  0  0  0  0 
 24 49  1  0  0  0  0 
 24 50  1  0  0  0  0 
 24 51  1  0  0  0  0 
M  END
> <cdk:Title>
adamexine

> <Conformer>
1

> <SuperDrugID>
SD000061

$$$$
