levocabastine
  CDK     0628171801

 60 63  0  0  0  0  0  0  0  0999 V2000
   -0.7501    4.3719    0.7552 C   0  0  2  0  0  0  0  0  0  0  0  0
   -0.1904    2.9862    1.1912 C   0  0  2  0  0  0  0  0  0  0  0  0
    0.0068    2.0060   -0.0338 C   0  0  1  0  0  0  0  0  0  0  0  0
    0.9836    2.7744   -1.0106 C   0  0  1  0  0  0  0  0  0  0  0  0
    0.4032    4.1499   -1.4459 C   0  0  2  0  0  0  0  0  0  0  0  0
    0.2330    5.1159   -0.2189 C   0  0  2  0  0  0  0  0  0  0  0  0
    0.6594    0.8781    0.4265 C   0  0  0  0  0  0  0  0  0  0  0  0
   -1.2776    1.4796   -0.6786 C   0  0  0  0  0  0  0  0  0  0  0  0
    1.5397    5.5948    0.4182 N   0  0  2  0  0  0  0  0  0  0  0  0
    2.6529    7.0133    2.3035 C   0  0  2  0  0  0  0  0  0  0  0  0
    1.3387    6.4633    1.6343 C   0  0  2  0  0  0  0  0  0  0  0  0
    2.4886    6.2385   -0.5560 C   0  0  2  0  0  0  0  0  0  0  0  0
    3.8203    6.7098    0.0818 C   0  0  2  0  0  0  0  0  0  0  0  0
    3.6392    7.7163    1.2741 C   0  0  1  0  0  0  0  0  0  0  0  0
    3.3337    5.9078    3.1817 C   0  0  0  0  0  0  0  0  0  0  0  0
    2.3206    7.7705    3.0230 H   0  0  0  0  0  0  0  0  0  0  0  0
    3.0997    8.9961    0.6933 C   0  0  0  0  0  0  0  0  0  0  0  0
    1.9801    9.4703    0.9892 O   0  0  0  0  0  0  0  0  0  0  0  0
    3.8560    9.7395   -0.1529 O   0  0  0  0  0  0  0  0  0  0  0  0
    4.9377    8.1277    1.9615 C   0  0  0  0  0  0  0  0  0  0  0  0
    4.9058    9.1212    2.9805 C   0  0  0  0  0  0  0  0  0  0  0  0
    6.2119    7.5729    1.6532 C   0  0  0  0  0  0  0  0  0  0  0  0
    7.3763    7.9827    2.3297 C   0  0  0  0  0  0  0  0  0  0  0  0
    7.3085    8.9762    3.3189 C   0  0  0  0  0  0  0  0  0  0  0  0
    6.0700    9.5509    3.6407 C   0  0  0  0  0  0  0  0  0  0  0  0
   -3.6728    0.8368   -0.5427 C   0  0  0  0  0  0  0  0  0  0  0  0
   -3.6752    0.4471   -1.8905 C   0  0  0  0  0  0  0  0  0  0  0  0
   -2.4879    0.5363   -2.6322 C   0  0  0  0  0  0  0  0  0  0  0  0
   -1.3145    1.0307   -2.0313 C   0  0  0  0  0  0  0  0  0  0  0  0
   -2.4955    1.3359    0.0474 C   0  0  0  0  0  0  0  0  0  0  0  0
   -4.7689   -0.0030   -2.4448 F   0  0  0  0  0  0  0  0  0  0  0  0
    1.2028   -0.0596    0.8080 N   0  0  0  0  0  0  0  0  0  0  0  0
   -0.2943    6.0024   -0.5882 H   0  0  0  0  0  0  0  0  0  0  0  0
   -0.9754    4.9744    1.6338 H   0  0  0  0  0  0  0  0  0  0  0  0
   -1.7134    4.2261    0.2590 H   0  0  0  0  0  0  0  0  0  0  0  0
   -0.8374    2.5606    1.9594 H   0  0  0  0  0  0  0  0  0  0  0  0
    0.7669    3.1651    1.6935 H   0  0  0  0  0  0  0  0  0  0  0  0
    1.9474    2.9583   -0.5219 H   0  0  0  0  0  0  0  0  0  0  0  0
    1.2255    2.1886   -1.8978 H   0  0  0  0  0  0  0  0  0  0  0  0
   -0.5674    3.9899   -1.9250 H   0  0  0  0  0  0  0  0  0  0  0  0
    1.0302    4.5861   -2.2215 H   0  0  0  0  0  0  0  0  0  0  0  0
    0.8743    5.8074    2.4368 H   0  0  0  0  0  0  0  0  0  0  0  0
    0.7216    7.3594    1.2980 H   0  0  0  0  0  0  0  0  0  0  0  0
    2.0070    7.0765   -1.0722 H   0  0  0  0  0  0  0  0  0  0  0  0
    2.7910    5.5121   -1.3101 H   0  0  0  0  0  0  0  0  0  0  0  0
    4.4433    7.1536   -0.7030 H   0  0  0  0  0  0  0  0  0  0  0  0
    4.3358    5.8095    0.4257 H   0  0  0  0  0  0  0  0  0  0  0  0
    4.1931    6.3044    3.7254 H   0  0  0  0  0  0  0  0  0  0  0  0
    2.6400    5.5329    3.9368 H   0  0  0  0  0  0  0  0  0  0  0  0
    3.6613    5.0646    2.5724 H   0  0  0  0  0  0  0  0  0  0  0  0
    3.5202   10.5938   -0.4961 H   0  0  0  0  0  0  0  0  0  0  0  0
    4.0197    9.5551    3.2474 H   0  0  0  0  0  0  0  0  0  0  0  0
    6.3234    6.8605    0.9306 H   0  0  0  0  0  0  0  0  0  0  0  0
    8.2776    7.5581    2.1016 H   0  0  0  0  0  0  0  0  0  0  0  0
    8.1565    9.2805    3.8034 H   0  0  0  0  0  0  0  0  0  0  0  0
    6.0120   10.2837    4.3514 H   0  0  0  0  0  0  0  0  0  0  0  0
   -4.5267    0.7536    0.0157 H   0  0  0  0  0  0  0  0  0  0  0  0
   -2.4740    0.2344   -3.6101 H   0  0  0  0  0  0  0  0  0  0  0  0
   -0.4812    1.0407   -2.6149 H   0  0  0  0  0  0  0  0  0  0  0  0
   -2.5536    1.5796    1.0331 H   0  0  0  0  0  0  0  0  0  0  0  0
  1  2  1  0  0  0  0 
  2  3  1  0  0  0  0 
  3  4  1  0  0  0  0 
  4  5  1  0  0  0  0 
  5  6  1  0  0  0  0 
  1  6  1  0  0  0  0 
  3  7  1  0  0  0  0 
  3  8  1  0  0  0  0 
  6  9  1  0  0  0  0 
 11  9  1  0  0  0  0 
  9 12  1  0  0  0  0 
 10 11  1  0  0  0  0 
 12 13  1  0  0  0  0 
 13 14  1  0  0  0  0 
 10 14  1  0  0  0  0 
 10 15  1  0  0  0  0 
 10 16  1  0  0  0  0 
 14 17  1  0  0  0  0 
 17 18  2  0  0  0  0 
 17 19  1  0  0  0  0 
 14 20  1  0  0  0  0 
 21 20  2  0  0  0  0 
 20 22  1  0  0  0  0 
 22 23  2  0  0  0  0 
 23 24  1  0  0  0  0 
 24 25  2  0  0  0  0 
 21 25  1  0  0  0  0 
 29  8  2  0  0  0  0 
  8 30  1  0  0  0  0 
 26 27  1  0  0  0  0 
 27 28  2  0  0  0  0 
 28 29  1  0  0  0  0 
 26 30  2  0  0  0  0 
 27 31  1  0  0  0  0 
  7 32  3  0  0  0  0 
  6 33  1  0  0  0  0 
  1 34  1  0  0  0  0 
  1 35  1  0  0  0  0 
  2 36  1  0  0  0  0 
  2 37  1  0  0  0  0 
  4 38  1  0  0  0  0 
  4 39  1  0  0  0  0 
  5 40  1  0  0  0  0 
  5 41  1  0  0  0  0 
 11 42  1  0  0  0  0 
 11 43  1  0  0  0  0 
 12 44  1  0  0  0  0 
 12 45  1  0  0  0  0 
 13 46  1  0  0  0  0 
 13 47  1  0  0  0  0 
 15 48  1  0  0  0  0 
 15 49  1  0  0  0  0 
 15 50  1  0  0  0  0 
 19 51  1  0  0  0  0 
 21 52  1  0  0  0  0 
 22 53  1  0  0  0  0 
 23 54  1  0  0  0  0 
 24 55  1  0  0  0  0 
 25 56  1  0  0  0  0 
 26 57  1  0  0  0  0 
 28 58  1  0  0  0  0 
 29 59  1  0  0  0  0 
 30 60  1  0  0  0  0 
M  END
> <cdk:Title>
levocabastine

> <Conformer>
1

> <SuperDrugID>
SD001381

$$$$
