lumacaftor
  CDK     0628171802

 51 55  0  0  0  0  0  0  0  0999 V2000
    5.5448   -4.3179    2.6347 C   0  0  0  0  0  0  0  0  0  0  0  0
    4.5016   -4.1022    1.7156 C   0  0  0  0  0  0  0  0  0  0  0  0
    4.2302   -5.0243    0.7177 C   0  0  0  0  0  0  0  0  0  0  0  0
    4.9924   -6.1971    0.5932 C   0  0  0  0  0  0  0  0  0  0  0  0
    6.0347   -6.4313    1.5147 C   0  0  0  0  0  0  0  0  0  0  0  0
    6.3126   -5.5076    2.5548 C   0  0  0  0  0  0  0  0  0  0  0  0
    3.2065   -4.6332   -0.0661 O   0  0  0  0  0  0  0  0  0  0  0  0
    2.8374   -3.3703    0.5222 C   0  0  1  0  0  0  0  0  0  0  0  0
    3.6702   -3.0428    1.6534 O   0  0  0  0  0  0  0  0  0  0  0  0
    2.9550   -2.3819   -0.4253 F   0  0  0  0  0  0  0  0  0  0  0  0
    1.5211   -3.4193    0.9180 F   0  0  0  0  0  0  0  0  0  0  0  0
    7.4237   -5.7724    3.5087 C   0  0  1  0  0  0  0  0  0  0  0  0
    8.7802   -5.3749    3.0838 C   0  0  0  0  0  0  0  0  0  0  0  0
    7.1245   -5.6286    5.0202 C   0  0  2  0  0  0  0  0  0  0  0  0
    7.3000   -7.0212    4.4142 C   0  0  1  0  0  0  0  0  0  0  0  0
    9.1307   -4.0669    3.2064 N   0  0  0  0  0  0  0  0  0  0  0  0
    9.5381   -6.2456    2.5953 O   0  0  0  0  0  0  0  0  0  0  0  0
   10.3201   -3.4849    2.8882 C   0  0  0  0  0  0  0  0  0  0  0  0
   10.4211   -2.0843    2.9459 C   0  0  0  0  0  0  0  0  0  0  0  0
   11.6523   -1.4652    2.6702 C   0  0  0  0  0  0  0  0  0  0  0  0
   12.7979   -2.2277    2.3375 C   0  0  0  0  0  0  0  0  0  0  0  0
   12.6394   -3.6405    2.2486 C   0  0  0  0  0  0  0  0  0  0  0  0
   11.4251   -4.1886    2.5305 N   0  0  0  0  0  0  0  0  0  0  0  0
   14.1016   -1.5378    2.1408 C   0  0  0  0  0  0  0  0  0  0  0  0
   13.6486   -4.5688    1.8895 C   0  0  0  0  0  0  0  0  0  0  0  0
   14.3113   -4.4976    0.6425 C   0  0  0  0  0  0  0  0  0  0  0  0
   15.2721   -5.4663    0.2555 C   0  0  0  0  0  0  0  0  0  0  0  0
   15.5512   -6.5266    1.1512 C   0  0  0  0  0  0  0  0  0  0  0  0
   14.8974   -6.6133    2.3913 C   0  0  0  0  0  0  0  0  0  0  0  0
   13.9589   -5.6370    2.7609 C   0  0  0  0  0  0  0  0  0  0  0  0
   15.9364   -5.3905   -0.9981 C   0  0  0  0  0  0  0  0  0  0  0  0
   16.8786   -6.2951   -1.3607 O   0  0  0  0  0  0  0  0  0  0  0  0
   15.6862   -4.4884   -1.8303 O   0  0  0  0  0  0  0  0  0  0  0  0
    5.7394   -3.6120    3.3483 H   0  0  0  0  0  0  0  0  0  0  0  0
    4.7961   -6.8634   -0.1572 H   0  0  0  0  0  0  0  0  0  0  0  0
    6.5960   -7.2801    1.4191 H   0  0  0  0  0  0  0  0  0  0  0  0
    6.1018   -5.4003    5.3242 H   0  0  0  0  0  0  0  0  0  0  0  0
    7.9428   -5.3155    5.6722 H   0  0  0  0  0  0  0  0  0  0  0  0
    6.3773   -7.6025    4.3550 H   0  0  0  0  0  0  0  0  0  0  0  0
    8.2186   -7.5257    4.7249 H   0  0  0  0  0  0  0  0  0  0  0  0
    8.4473   -3.4765    3.5617 H   0  0  0  0  0  0  0  0  0  0  0  0
    9.6078   -1.5139    3.1913 H   0  0  0  0  0  0  0  0  0  0  0  0
   11.7020   -0.4450    2.7244 H   0  0  0  0  0  0  0  0  0  0  0  0
   14.4710   -1.6840    1.1271 H   0  0  0  0  0  0  0  0  0  0  0  0
   14.8332   -1.9265    2.8509 H   0  0  0  0  0  0  0  0  0  0  0  0
   14.0273   -0.4604    2.3052 H   0  0  0  0  0  0  0  0  0  0  0  0
   14.0740   -3.7369    0.0016 H   0  0  0  0  0  0  0  0  0  0  0  0
   16.2350   -7.2508    0.9132 H   0  0  0  0  0  0  0  0  0  0  0  0
   15.1037   -7.3893    3.0252 H   0  0  0  0  0  0  0  0  0  0  0  0
   13.5007   -5.7169    3.6728 H   0  0  0  0  0  0  0  0  0  0  0  0
   17.3124   -6.2331   -2.2377 H   0  0  0  0  0  0  0  0  0  0  0  0
  1  2  2  0  0  0  0 
  1  6  1  0  0  0  0 
  2  3  1  0  0  0  0 
  3  4  2  0  0  0  0 
  4  5  1  0  0  0  0 
  5  6  2  0  0  0  0 
  7  8  1  0  0  0  0 
  8  9  1  0  0  0  0 
  2  9  1  0  0  0  0 
  3  7  1  0  0  0  0 
  8 10  1  0  0  0  0 
  8 11  1  0  0  0  0 
  6 12  1  0  0  0  0 
 12 13  1  0  0  0  0 
 14 15  1  0  0  0  0 
 12 14  1  0  0  0  0 
 15 12  1  0  0  0  0 
 13 16  1  0  0  0  0 
 13 17  2  0  0  0  0 
 16 18  1  0  0  0  0 
 19 20  1  0  0  0  0 
 20 21  2  0  0  0  0 
 21 22  1  0  0  0  0 
 22 23  2  0  0  0  0 
 18 19  2  0  0  0  0 
 18 23  1  0  0  0  0 
 21 24  1  0  0  0  0 
 22 25  1  0  0  0  0 
 26 27  1  0  0  0  0 
 27 28  2  0  0  0  0 
 28 29  1  0  0  0  0 
 29 30  2  0  0  0  0 
 25 26  2  0  0  0  0 
 25 30  1  0  0  0  0 
 27 31  1  0  0  0  0 
 31 32  1  0  0  0  0 
 31 33  2  0  0  0  0 
  1 34  1  0  0  0  0 
  4 35  1  0  0  0  0 
  5 36  1  0  0  0  0 
 14 37  1  0  0  0  0 
 14 38  1  0  0  0  0 
 15 39  1  0  0  0  0 
 15 40  1  0  0  0  0 
 16 41  1  0  0  0  0 
 19 42  1  0  0  0  0 
 20 43  1  0  0  0  0 
 24 44  1  0  0  0  0 
 24 45  1  0  0  0  0 
 24 46  1  0  0  0  0 
 26 47  1  0  0  0  0 
 28 48  1  0  0  0  0 
 29 49  1  0  0  0  0 
 30 50  1  0  0  0  0 
 32 51  1  0  0  0  0 
M  END
> <cdk:Title>
lumacaftor

> <Conformer>
1

> <SuperDrugID>
SD003873

$$$$
