altropane
  CDK     0628171801

 44 46  0  0  0  0  0  0  0  0999 V2000
   -0.5197    0.9489    1.0080 C   0  0  0  0  0  0  0  0  0  0  0  0
    0.2211    0.2155    0.1236 O   0  0  0  0  0  0  0  0  0  0  0  0
   -0.1452    2.0937    1.3536 O   0  0  0  0  0  0  0  0  0  0  0  0
   -1.7412    0.3384    1.6003 C   0  0  2  0  0  0  0  0  0  0  0  0
    1.4537    0.6035   -0.4950 C   0  0  0  0  0  0  0  0  0  0  0  0
   -3.0040    1.2589    1.4102 C   0  0  2  0  0  0  0  0  0  0  0  0
   -1.5680   -0.1072    3.1064 C   0  0  2  0  0  0  0  0  0  0  0  0
   -2.8776    2.4172    2.3452 N   0  0  1  0  0  0  0  0  0  0  0  0
   -4.3290    0.5633    1.8300 C   0  0  1  0  0  0  0  0  0  0  0  0
   -2.0169    0.9916    4.1355 C   0  0  2  0  0  0  0  0  0  0  0  0
   -0.2331   -0.7494    3.3950 C   0  0  0  0  0  0  0  0  0  0  0  0
   -3.5953    3.6827    1.9808 C   0  0  2  0  0  0  0  0  0  0  0  0
   -3.2589    1.8053    3.6465 C   0  0  2  0  0  0  0  0  0  0  0  0
   -4.5066    0.9449    3.3160 C   0  0  1  0  0  0  0  0  0  0  0  0
   -0.0859   -2.1587    3.3167 C   0  0  0  0  0  0  0  0  0  0  0  0
    0.9233    0.0135    3.7016 C   0  0  0  0  0  0  0  0  0  0  0  0
   -2.9715    4.3447    0.8507 C   0  0  0  0  0  0  0  0  0  0  0  0
    1.1559   -2.7793    3.5490 C   0  0  0  0  0  0  0  0  0  0  0  0
    2.1644   -0.6041    3.9434 C   0  0  0  0  0  0  0  0  0  0  0  0
   -1.7717    4.9363    0.9193 C   0  0  0  0  0  0  0  0  0  0  0  0
    2.2840   -2.0024    3.8697 C   0  0  0  0  0  0  0  0  0  0  0  0
   -0.9596    5.8164   -0.7106 I   0  0  0  0  0  0  0  0  0  0  0  0
    3.4342   -2.5756    4.0985 F   0  0  0  0  0  0  0  0  0  0  0  0
   -1.9292   -0.5744    1.0221 H   0  0  0  0  0  0  0  0  0  0  0  0
    2.2161    0.7987    0.2624 H   0  0  0  0  0  0  0  0  0  0  0  0
    1.7971   -0.2110   -1.1340 H   0  0  0  0  0  0  0  0  0  0  0  0
    1.3099    1.4971   -1.1049 H   0  0  0  0  0  0  0  0  0  0  0  0
   -3.0688    1.5725    0.3628 H   0  0  0  0  0  0  0  0  0  0  0  0
   -2.3175   -0.8958    3.2521 H   0  0  0  0  0  0  0  0  0  0  0  0
   -5.1655    0.9447    1.2379 H   0  0  0  0  0  0  0  0  0  0  0  0
   -4.2845   -0.5208    1.6975 H   0  0  0  0  0  0  0  0  0  0  0  0
   -1.2164    1.7131    4.3037 H   0  0  0  0  0  0  0  0  0  0  0  0
   -2.2400    0.5227    5.0994 H   0  0  0  0  0  0  0  0  0  0  0  0
   -3.5844    4.3760    2.8290 H   0  0  0  0  0  0  0  0  0  0  0  0
   -4.6447    3.4819    1.7445 H   0  0  0  0  0  0  0  0  0  0  0  0
   -3.5008    2.5567    4.4072 H   0  0  0  0  0  0  0  0  0  0  0  0
   -5.4151    1.5422    3.4421 H   0  0  0  0  0  0  0  0  0  0  0  0
   -4.5816    0.0658    3.9593 H   0  0  0  0  0  0  0  0  0  0  0  0
   -0.8858   -2.7486    3.0741 H   0  0  0  0  0  0  0  0  0  0  0  0
    0.8817    1.0329    3.7464 H   0  0  0  0  0  0  0  0  0  0  0  0
   -3.4545    4.3485   -0.0166 H   0  0  0  0  0  0  0  0  0  0  0  0
    1.2337   -3.7971    3.4754 H   0  0  0  0  0  0  0  0  0  0  0  0
    2.9794   -0.0293    4.1738 H   0  0  0  0  0  0  0  0  0  0  0  0
   -1.2582    4.9545    1.7692 H   0  0  0  0  0  0  0  0  0  0  0  0
  1  2  1  0  0  0  0 
  1  3  2  0  0  0  0 
  2  5  1  0  0  0  0 
  4  1  1  0  0  0  0 
  4  6  1  0  0  0  0 
  7  4  1  0  0  0  0 
  6  8  1  0  0  0  0 
  6  9  1  0  0  0  0 
  7 10  1  0  0  0  0 
  7 11  1  0  0  0  0 
  8 12  1  0  0  0  0 
  9 14  1  0  0  0  0 
 13 10  1  0  0  0  0 
 11 15  2  0  0  0  0 
 11 16  1  0  0  0  0 
 12 17  1  0  0  0  0 
 13  8  1  0  0  0  0 
 13 14  1  0  0  0  0 
 15 18  1  0  0  0  0 
 16 19  2  0  0  0  0 
 17 20  2  0  0  0  0 
 18 21  2  0  0  0  0 
 19 21  1  0  0  0  0 
 20 22  1  0  0  0  0 
 21 23  1  0  0  0  0 
  4 24  1  0  0  0  0 
  5 25  1  0  0  0  0 
  5 26  1  0  0  0  0 
  5 27  1  0  0  0  0 
  6 28  1  0  0  0  0 
  7 29  1  0  0  0  0 
  9 30  1  0  0  0  0 
  9 31  1  0  0  0  0 
 10 32  1  0  0  0  0 
 10 33  1  0  0  0  0 
 12 34  1  0  0  0  0 
 12 35  1  0  0  0  0 
 13 36  1  0  0  0  0 
 14 37  1  0  0  0  0 
 14 38  1  0  0  0  0 
 15 39  1  0  0  0  0 
 16 40  1  0  0  0  0 
 17 41  1  0  0  0  0 
 18 42  1  0  0  0  0 
 19 43  1  0  0  0  0 
 20 44  1  0  0  0  0 
M  END
> <cdk:Title>
altropane

> <Conformer>
1

> <SuperDrugID>
SD002843

$$$$
