levamlodipine
  CDK     0628171801

 53 54  0  0  0  0  0  0  0  0999 V2000
   -3.4871    2.4772    2.0314 C   0  0  0  0  0  0  0  0  0  0  0  0
   -2.5401    1.6147    2.5171 O   0  0  0  0  0  0  0  0  0  0  0  0
   -4.2894    2.9714    2.8628 O   0  0  0  0  0  0  0  0  0  0  0  0
   -3.5656    2.8382    0.6689 C   0  0  0  0  0  0  0  0  0  0  0  0
   -2.3763    1.1858    3.8756 C   0  0  1  0  0  0  0  0  0  0  0  0
   -4.2862    4.0930    0.3100 C   0  0  2  0  0  0  0  0  0  0  0  0
   -3.0289    2.1090   -0.3449 C   0  0  0  0  0  0  0  0  0  0  0  0
   -1.2130    0.1840    3.9772 C   0  0  0  0  0  0  0  0  0  0  0  0
   -4.4949    4.3834   -1.1347 C   0  0  0  0  0  0  0  0  0  0  0  0
   -3.6486    5.2833    0.9909 C   0  0  0  0  0  0  0  0  0  0  0  0
   -2.2768    0.8619   -0.2177 C   0  0  2  0  0  0  0  0  0  0  0  0
   -3.1535    2.5336   -1.6092 N   0  0  0  0  0  0  0  0  0  0  0  0
   -5.3407    5.4575   -1.4916 C   0  0  0  0  0  0  0  0  0  0  0  0
   -3.8838    3.5710   -2.0360 C   0  0  0  0  0  0  0  0  0  0  0  0
   -2.2973    5.6911    0.7785 C   0  0  0  0  0  0  0  0  0  0  0  0
   -4.4270    6.0344    1.9125 C   0  0  0  0  0  0  0  0  0  0  0  0
   -0.9265    1.1949    0.1576 O   0  0  0  0  0  0  0  0  0  0  0  0
   -5.2752    6.0826   -2.7071 O   0  0  0  0  0  0  0  0  0  0  0  0
   -6.1899    5.8882   -0.6731 O   0  0  0  0  0  0  0  0  0  0  0  0
   -3.9701    3.7015   -3.4877 C   0  0  0  0  0  0  0  0  0  0  0  0
   -1.2253    4.9158   -0.2846 Cl  0  0  0  0  0  0  0  0  0  0  0  0
   -1.7657    6.7933    1.4809 C   0  0  0  0  0  0  0  0  0  0  0  0
   -3.8981    7.1479    2.5879 C   0  0  0  0  0  0  0  0  0  0  0  0
   -0.0377    0.0682    0.2770 C   0  0  1  0  0  0  0  0  0  0  0  0
   -6.1201    7.1402   -3.1687 C   0  0  0  0  0  0  0  0  0  0  0  0
   -2.5640    7.5247    2.3739 C   0  0  0  0  0  0  0  0  0  0  0  0
    1.3727    0.5907    0.6101 C   0  0  2  0  0  0  0  0  0  0  0  0
    2.2979   -0.5218    0.8366 N   0  0  2  0  0  0  0  0  0  0  0  0
   -2.1677    2.0504    4.5085 H   0  0  0  0  0  0  0  0  0  0  0  0
   -3.2917    0.7042    4.2258 H   0  0  0  0  0  0  0  0  0  0  0  0
   -5.3016    3.9290    0.6914 H   0  0  0  0  0  0  0  0  0  0  0  0
   -1.0703   -0.1210    5.0159 H   0  0  0  0  0  0  0  0  0  0  0  0
   -1.4313   -0.7024    3.3785 H   0  0  0  0  0  0  0  0  0  0  0  0
   -0.2923    0.6441    3.6144 H   0  0  0  0  0  0  0  0  0  0  0  0
   -2.2617    0.3130   -1.1666 H   0  0  0  0  0  0  0  0  0  0  0  0
   -2.7461    0.1944    0.5082 H   0  0  0  0  0  0  0  0  0  0  0  0
   -2.6847    2.0208   -2.2872 H   0  0  0  0  0  0  0  0  0  0  0  0
   -5.3975    5.7751    2.1088 H   0  0  0  0  0  0  0  0  0  0  0  0
   -3.4610    2.8893   -4.0129 H   0  0  0  0  0  0  0  0  0  0  0  0
   -5.0152    3.6830   -3.8001 H   0  0  0  0  0  0  0  0  0  0  0  0
   -3.5059    4.6350   -3.8117 H   0  0  0  0  0  0  0  0  0  0  0  0
   -0.7899    7.0739    1.3492 H   0  0  0  0  0  0  0  0  0  0  0  0
   -4.4809    7.6805    3.2392 H   0  0  0  0  0  0  0  0  0  0  0  0
   -0.3813   -0.5938    1.0770 H   0  0  0  0  0  0  0  0  0  0  0  0
    0.0058   -0.4928   -0.6629 H   0  0  0  0  0  0  0  0  0  0  0  0
   -6.0487    7.9980   -2.4983 H   0  0  0  0  0  0  0  0  0  0  0  0
   -5.7984    7.4406   -4.1655 H   0  0  0  0  0  0  0  0  0  0  0  0
   -7.1565    6.7996   -3.2153 H   0  0  0  0  0  0  0  0  0  0  0  0
   -2.1713    8.3288    2.8698 H   0  0  0  0  0  0  0  0  0  0  0  0
    1.3408    1.2109    1.5064 H   0  0  0  0  0  0  0  0  0  0  0  0
    1.7486    1.1921   -0.2182 H   0  0  0  0  0  0  0  0  0  0  0  0
    3.2220   -0.1147    0.9999 H   0  0  0  0  0  0  0  0  0  0  0  0
    2.3567   -1.0408   -0.0430 H   0  0  0  0  0  0  0  0  0  0  0  0
  1  2  1  0  0  0  0 
  1  3  2  0  0  0  0 
  1  4  1  0  0  0  0 
  2  5  1  0  0  0  0 
  6  4  1  0  0  0  0 
  4  7  2  0  0  0  0 
  5  8  1  0  0  0  0 
  6  9  1  0  0  0  0 
  6 10  1  0  0  0  0 
  7 11  1  0  0  0  0 
  7 12  1  0  0  0  0 
  9 13  1  0  0  0  0 
  9 14  2  0  0  0  0 
 10 15  2  0  0  0  0 
 10 16  1  0  0  0  0 
 11 17  1  0  0  0  0 
 12 14  1  0  0  0  0 
 13 18  1  0  0  0  0 
 13 19  2  0  0  0  0 
 14 20  1  0  0  0  0 
 15 21  1  0  0  0  0 
 15 22  1  0  0  0  0 
 16 23  2  0  0  0  0 
 17 24  1  0  0  0  0 
 18 25  1  0  0  0  0 
 22 26  2  0  0  0  0 
 23 26  1  0  0  0  0 
 24 27  1  0  0  0  0 
 27 28  1  0  0  0  0 
 29  5  1  0  0  0  0 
 30  5  1  0  0  0  0 
  6 31  1  0  0  0  0 
 32  8  1  0  0  0  0 
 33  8  1  0  0  0  0 
 34  8  1  0  0  0  0 
 35 11  1  0  0  0  0 
 36 11  1  0  0  0  0 
 37 12  1  0  0  0  0 
 38 16  1  0  0  0  0 
 39 20  1  0  0  0  0 
 40 20  1  0  0  0  0 
 41 20  1  0  0  0  0 
 42 22  1  0  0  0  0 
 43 23  1  0  0  0  0 
 44 24  1  0  0  0  0 
 45 24  1  0  0  0  0 
 46 25  1  0  0  0  0 
 47 25  1  0  0  0  0 
 48 25  1  0  0  0  0 
 49 26  1  0  0  0  0 
 50 27  1  0  0  0  0 
 51 27  1  0  0  0  0 
 52 28  1  0  0  0  0 
 53 28  1  0  0  0  0 
M  END
> <cdk:Title>
levamlodipine

> <Conformer>
1

> <SuperDrugID>
SD003352

$$$$
