brivudine
  CDK     0628171801

 32 33  0  0  0  0  0  0  0  0999 V2000
   -5.8112    1.2544   -0.0962 O   0  0  0  0  0  0  0  0  0  0  0  0
   -4.5601    1.1849   -0.0662 C   0  0  0  0  0  0  0  0  0  0  0  0
   -3.8831   -0.0037    0.0387 N   0  0  0  0  0  0  0  0  0  0  0  0
   -3.8935    2.3601   -0.1458 N   0  0  0  0  0  0  0  0  0  0  0  0
   -4.6058   -1.2616    0.1685 C   0  0  2  0  0  0  0  0  0  0  0  0
   -2.5118    0.0240    0.0032 C   0  0  0  0  0  0  0  0  0  0  0  0
   -2.5414    2.4133   -0.1315 C   0  0  0  0  0  0  0  0  0  0  0  0
   -3.8276   -2.2944    0.8126 O   0  0  0  0  0  0  0  0  0  0  0  0
   -5.0639   -1.8105   -1.2040 C   0  0  1  0  0  0  0  0  0  0  0  0
   -1.7664    1.2276   -0.0668 C   0  0  0  0  0  0  0  0  0  0  0  0
   -2.0301    3.5564   -0.1763 O   0  0  0  0  0  0  0  0  0  0  0  0
   -3.8178   -3.4605   -0.0228 C   0  0  1  0  0  0  0  0  0  0  0  0
   -4.0807   -2.9546   -1.4556 C   0  0  1  0  0  0  0  0  0  0  0  0
   -0.3609    1.2814   -0.0731 C   0  0  0  0  0  0  0  0  0  0  0  0
   -2.5011   -4.2586    0.1395 C   0  0  1  0  0  0  0  0  0  0  0  0
   -4.6243   -3.9621   -2.3036 O   0  0  0  0  0  0  0  0  0  0  0  0
    0.5001    0.2599    0.0563 C   0  0  0  0  0  0  0  0  0  0  0  0
   -1.3683   -3.4846   -0.2456 O   0  0  0  0  0  0  0  0  0  0  0  0
    2.3101    0.5497    0.0439 Br  0  0  0  0  0  0  0  0  0  0  0  0
   -4.4006    3.1863   -0.2099 H   0  0  0  0  0  0  0  0  0  0  0  0
   -5.4807   -1.1166    0.8128 H   0  0  0  0  0  0  0  0  0  0  0  0
   -2.0084   -0.8598    0.0250 H   0  0  0  0  0  0  0  0  0  0  0  0
   -6.0844   -2.1988   -1.1320 H   0  0  0  0  0  0  0  0  0  0  0  0
   -5.0262   -1.0648   -2.0022 H   0  0  0  0  0  0  0  0  0  0  0  0
   -4.6473   -4.1026    0.2971 H   0  0  0  0  0  0  0  0  0  0  0  0
   -3.1693   -2.5535   -1.9056 H   0  0  0  0  0  0  0  0  0  0  0  0
    0.0631    2.1721   -0.1778 H   0  0  0  0  0  0  0  0  0  0  0  0
   -2.3797   -4.5571    1.1844 H   0  0  0  0  0  0  0  0  0  0  0  0
   -2.5359   -5.1581   -0.4777 H   0  0  0  0  0  0  0  0  0  0  0  0
   -3.8943   -4.6035   -2.4308 H   0  0  0  0  0  0  0  0  0  0  0  0
    0.1971   -0.6741    0.1681 H   0  0  0  0  0  0  0  0  0  0  0  0
   -0.6004   -4.0850   -0.1484 H   0  0  0  0  0  0  0  0  0  0  0  0
  1  2  2  0  0  0  0 
  2  3  1  0  0  0  0 
  2  4  1  0  0  0  0 
  3  6  1  0  0  0  0 
  4  7  1  0  0  0  0 
  5  3  1  0  0  0  0 
  5  8  1  0  0  0  0 
  5  9  1  0  0  0  0 
  6 10  2  0  0  0  0 
  7 10  1  0  0  0  0 
  7 11  2  0  0  0  0 
 12  8  1  0  0  0  0 
 13  9  1  0  0  0  0 
 10 14  1  0  0  0  0 
 12 13  1  0  0  0  0 
 12 15  1  0  0  0  0 
 13 16  1  0  0  0  0 
 14 17  2  0  0  0  0 
 15 18  1  0  0  0  0 
 17 19  1  0  0  0  0 
 20  4  1  0  0  0  0 
  5 21  1  0  0  0  0 
 22  6  1  0  0  0  0 
 23  9  1  0  0  0  0 
 24  9  1  0  0  0  0 
 12 25  1  0  0  0  0 
 13 26  1  0  0  0  0 
 27 14  1  0  0  0  0 
 28 15  1  0  0  0  0 
 29 15  1  0  0  0  0 
 30 16  1  0  0  0  0 
 31 17  1  0  0  0  0 
 32 18  1  0  0  0  0 
M  END
> <cdk:Title>
brivudine

> <Conformer>
1

> <SuperDrugID>
SD000339

$$$$
