methoserpidine
  CDK     0628171801

 84 89  0  0  0  0  0  0  0  0999 V2000
   -2.2287    0.3022    3.0679 C   0  0  0  0  0  0  0  0  0  0  0  0
   -0.9411    0.7591    3.1130 O   0  0  0  0  0  0  0  0  0  0  0  0
   -2.9957    0.4958    4.0415 O   0  0  0  0  0  0  0  0  0  0  0  0
   -2.7474   -0.4289    1.8769 C   0  0  1  0  0  0  0  0  0  0  0  0
   -0.3368    1.5178    4.1610 C   0  0  0  0  0  0  0  0  0  0  0  0
   -3.9669    0.3289    1.2296 C   0  0  1  0  0  0  0  0  0  0  0  0
   -1.6364   -0.7779    0.8211 C   0  0  1  0  0  0  0  0  0  0  0  0
   -3.6685    1.8047    0.8065 C   0  0  1  0  0  0  0  0  0  0  0  0
   -4.5357   -0.4919    0.0265 C   0  0  1  0  0  0  0  0  0  0  0  0
   -0.4835   -1.4515    1.3926 O   0  0  0  0  0  0  0  0  0  0  0  0
   -2.1847   -1.4751   -0.4752 C   0  0  1  0  0  0  0  0  0  0  0  0
   -4.8077    2.4909   -0.0111 C   0  0  2  0  0  0  0  0  0  0  0  0
   -5.7696    0.2276   -0.5868 C   0  0  1  0  0  0  0  0  0  0  0  0
   -3.4417   -0.7702   -1.0480 C   0  0  2  0  0  0  0  0  0  0  0  0
   -0.6205   -2.7900    1.9034 C   0  0  0  0  0  0  0  0  0  0  0  0
   -1.2093   -1.4307   -1.5336 O   0  0  0  0  0  0  0  0  0  0  0  0
   -5.8513    3.1983    0.7768 C   0  0  0  0  0  0  0  0  0  0  0  0
   -5.4146    1.5986   -1.0634 N   0  0  1  0  0  0  0  0  0  0  0  0
    0.0239   -2.0074   -1.5062 C   0  0  0  0  0  0  0  0  0  0  0  0
   -7.1447    3.4048    0.2860 C   0  0  0  0  0  0  0  0  0  0  0  0
   -5.7154    3.8586    1.9414 N   0  0  0  0  0  0  0  0  0  0  0  0
   -6.4905    2.2817   -1.8552 C   0  0  1  0  0  0  0  0  0  0  0  0
    0.0983   -3.2551   -1.5979 O   0  0  0  0  0  0  0  0  0  0  0  0
    1.1629   -1.1856   -1.2871 C   0  0  0  0  0  0  0  0  0  0  0  0
   -7.7754    4.2600    1.1863 C   0  0  0  0  0  0  0  0  0  0  0  0
   -7.6559    2.8216   -0.9740 C   0  0  2  0  0  0  0  0  0  0  0  0
   -6.8526    4.5232    2.1984 C   0  0  0  0  0  0  0  0  0  0  0  0
    1.0592    0.2261   -1.3475 C   0  0  0  0  0  0  0  0  0  0  0  0
    2.3973   -1.7487   -0.8927 C   0  0  0  0  0  0  0  0  0  0  0  0
   -9.0497    4.8589    1.1929 C   0  0  0  0  0  0  0  0  0  0  0  0
   -7.1613    5.3998    3.2524 C   0  0  0  0  0  0  0  0  0  0  0  0
    2.1118    1.0547   -0.9098 C   0  0  0  0  0  0  0  0  0  0  0  0
    3.4649   -0.9322   -0.4660 C   0  0  0  0  0  0  0  0  0  0  0  0
   -9.3735    5.7487    2.2447 C   0  0  0  0  0  0  0  0  0  0  0  0
   -8.4261    6.0252    3.2590 C   0  0  0  0  0  0  0  0  0  0  0  0
    1.9554    2.4166   -0.9213 O   0  0  0  0  0  0  0  0  0  0  0  0
    3.3223    0.4742   -0.4688 C   0  0  0  0  0  0  0  0  0  0  0  0
    4.6317   -1.5105   -0.0438 O   0  0  0  0  0  0  0  0  0  0  0  0
  -10.5859    6.3807    2.2627 O   0  0  0  0  0  0  0  0  0  0  0  0
    1.3300    2.9375    0.2670 C   0  0  0  0  0  0  0  0  0  0  0  0
    4.3260    1.2651    0.0274 O   0  0  0  0  0  0  0  0  0  0  0  0
    4.5879   -1.9494    1.3273 C   0  0  0  0  0  0  0  0  0  0  0  0
  -11.6355    5.5888    2.8469 C   0  0  0  0  0  0  0  0  0  0  0  0
    5.2809    1.7060   -0.9518 C   0  0  0  0  0  0  0  0  0  0  0  0
   -4.3121    3.3007   -0.5564 H   0  0  0  0  0  0  0  0  0  0  0  0
   -4.7584    0.3725    1.9876 H   0  0  0  0  0  0  0  0  0  0  0  0
   -4.8831   -1.4593    0.4060 H   0  0  0  0  0  0  0  0  0  0  0  0
   -3.1310   -1.3827    2.2527 H   0  0  0  0  0  0  0  0  0  0  0  0
   -0.4134    0.9860    5.1096 H   0  0  0  0  0  0  0  0  0  0  0  0
    0.7162    1.6630    3.9237 H   0  0  0  0  0  0  0  0  0  0  0  0
   -0.8175    2.4928    4.2484 H   0  0  0  0  0  0  0  0  0  0  0  0
   -1.2184    0.1763    0.4928 H   0  0  0  0  0  0  0  0  0  0  0  0
   -3.4317    2.4024    1.6893 H   0  0  0  0  0  0  0  0  0  0  0  0
   -2.7732    1.8217    0.1831 H   0  0  0  0  0  0  0  0  0  0  0  0
   -2.4587   -2.5110   -0.2637 H   0  0  0  0  0  0  0  0  0  0  0  0
   -6.1395   -0.3743   -1.4218 H   0  0  0  0  0  0  0  0  0  0  0  0
   -6.5690    0.2743    0.1579 H   0  0  0  0  0  0  0  0  0  0  0  0
   -3.1372    0.1687   -1.5200 H   0  0  0  0  0  0  0  0  0  0  0  0
   -3.8657   -1.4048   -1.8330 H   0  0  0  0  0  0  0  0  0  0  0  0
    0.3557   -3.1076    2.2693 H   0  0  0  0  0  0  0  0  0  0  0  0
   -0.9236   -3.4919    1.1283 H   0  0  0  0  0  0  0  0  0  0  0  0
   -1.3249   -2.8352    2.7330 H   0  0  0  0  0  0  0  0  0  0  0  0
   -4.9135    3.8801    2.4856 H   0  0  0  0  0  0  0  0  0  0  0  0
   -6.0326    3.1238   -2.3831 H   0  0  0  0  0  0  0  0  0  0  0  0
   -6.8840    1.6145   -2.6251 H   0  0  0  0  0  0  0  0  0  0  0  0
   -8.2092    3.5739   -1.5392 H   0  0  0  0  0  0  0  0  0  0  0  0
   -8.3417    2.0088   -0.7273 H   0  0  0  0  0  0  0  0  0  0  0  0
    0.1975    0.6693   -1.6806 H   0  0  0  0  0  0  0  0  0  0  0  0
    2.5198   -2.7644   -0.8732 H   0  0  0  0  0  0  0  0  0  0  0  0
   -9.7193    4.6666    0.4462 H   0  0  0  0  0  0  0  0  0  0  0  0
   -6.4786    5.5919    3.9877 H   0  0  0  0  0  0  0  0  0  0  0  0
   -8.6555    6.6861    4.0044 H   0  0  0  0  0  0  0  0  0  0  0  0
    1.3010    4.0233    0.1793 H   0  0  0  0  0  0  0  0  0  0  0  0
    0.3027    2.5809    0.3718 H   0  0  0  0  0  0  0  0  0  0  0  0
    1.8965    2.6875    1.1670 H   0  0  0  0  0  0  0  0  0  0  0  0
    5.5527   -2.3966    1.5693 H   0  0  0  0  0  0  0  0  0  0  0  0
    4.4191   -1.1117    2.0088 H   0  0  0  0  0  0  0  0  0  0  0  0
    3.8160   -2.7080    1.4843 H   0  0  0  0  0  0  0  0  0  0  0  0
  -12.5558    6.1746    2.8227 H   0  0  0  0  0  0  0  0  0  0  0  0
  -11.8049    4.6696    2.2794 H   0  0  0  0  0  0  0  0  0  0  0  0
  -11.4177    5.3405    3.8894 H   0  0  0  0  0  0  0  0  0  0  0  0
    6.0434    2.2867   -0.4331 H   0  0  0  0  0  0  0  0  0  0  0  0
    5.7734    0.8651   -1.4441 H   0  0  0  0  0  0  0  0  0  0  0  0
    4.8162    2.3493   -1.7012 H   0  0  0  0  0  0  0  0  0  0  0  0
  1  2  1  0  0  0  0 
  1  3  2  0  0  0  0 
  2  5  1  0  0  0  0 
  4  1  1  0  0  0  0 
  4  6  1  0  0  0  0 
  7  4  1  0  0  0  0 
  6  8  1  0  0  0  0 
  6  9  1  0  0  0  0 
  6 46  1  0  0  0  0 
  7 10  1  0  0  0  0 
 11  7  1  0  0  0  0 
 12  8  1  0  0  0  0 
  9 13  1  0  0  0  0 
  9 14  1  0  0  0  0 
  9 47  1  0  0  0  0 
 10 15  1  0  0  0  0 
 11 14  1  0  0  0  0 
 11 16  1  0  0  0  0 
 12 17  1  0  0  0  0 
 12 18  1  0  0  0  0 
 12 45  1  0  0  0  0 
 13 18  1  0  0  0  0 
 16 19  1  0  0  0  0 
 17 20  2  0  0  0  0 
 17 21  1  0  0  0  0 
 18 22  1  0  0  0  0 
 19 23  2  0  0  0  0 
 19 24  1  0  0  0  0 
 20 25  1  0  0  0  0 
 20 26  1  0  0  0  0 
 21 27  1  0  0  0  0 
 22 26  1  0  0  0  0 
 24 28  2  0  0  0  0 
 24 29  1  0  0  0  0 
 25 27  1  0  0  0  0 
 25 30  2  0  0  0  0 
 27 31  2  0  0  0  0 
 28 32  1  0  0  0  0 
 29 33  2  0  0  0  0 
 30 34  1  0  0  0  0 
 31 35  1  0  0  0  0 
 32 36  1  0  0  0  0 
 32 37  2  0  0  0  0 
 33 37  1  0  0  0  0 
 33 38  1  0  0  0  0 
 34 35  2  0  0  0  0 
 34 39  1  0  0  0  0 
 36 40  1  0  0  0  0 
 37 41  1  0  0  0  0 
 38 42  1  0  0  0  0 
 39 43  1  0  0  0  0 
 41 44  1  0  0  0  0 
  4 48  1  0  0  0  0 
  5 49  1  0  0  0  0 
  5 50  1  0  0  0  0 
  5 51  1  0  0  0  0 
  7 52  1  0  0  0  0 
  8 53  1  0  0  0  0 
  8 54  1  0  0  0  0 
 11 55  1  0  0  0  0 
 13 56  1  0  0  0  0 
 13 57  1  0  0  0  0 
 14 58  1  0  0  0  0 
 14 59  1  0  0  0  0 
 15 60  1  0  0  0  0 
 15 61  1  0  0  0  0 
 15 62  1  0  0  0  0 
 21 63  1  0  0  0  0 
 22 64  1  0  0  0  0 
 22 65  1  0  0  0  0 
 26 66  1  0  0  0  0 
 26 67  1  0  0  0  0 
 28 68  1  0  0  0  0 
 29 69  1  0  0  0  0 
 30 70  1  0  0  0  0 
 31 71  1  0  0  0  0 
 35 72  1  0  0  0  0 
 40 73  1  0  0  0  0 
 40 74  1  0  0  0  0 
 40 75  1  0  0  0  0 
 42 76  1  0  0  0  0 
 42 77  1  0  0  0  0 
 42 78  1  0  0  0  0 
 43 79  1  0  0  0  0 
 43 80  1  0  0  0  0 
 43 81  1  0  0  0  0 
 44 82  1  0  0  0  0 
 44 83  1  0  0  0  0 
 44 84  1  0  0  0  0 
M  END
> <cdk:Title>
methoserpidine

> <Conformer>
1

> <SuperDrugID>
SD001550

$$$$
