acitazanolast
  CDK     0628171802

 24 25  0  0  0  0  0  0  0  0999 V2000
   -0.5586    0.7353   -0.8353 N   0  0  0  0  0  0  0  0  0  0  0  0
   -1.4280    0.1395   -1.7052 C   0  0  0  0  0  0  0  0  0  0  0  0
    0.8036    0.8796   -0.8936 C   0  0  0  0  0  0  0  0  0  0  0  0
   -2.7970    0.1201   -1.3769 C   0  0  0  0  0  0  0  0  0  0  0  0
   -1.0616   -0.4117   -2.7704 O   0  0  0  0  0  0  0  0  0  0  0  0
    1.4411    1.2625    0.3106 C   0  0  0  0  0  0  0  0  0  0  0  0
    1.6065    0.6866   -2.0424 C   0  0  0  0  0  0  0  0  0  0  0  0
   -3.2525    0.7017   -0.2416 O   0  0  0  0  0  0  0  0  0  0  0  0
   -3.6383   -0.4378   -2.1178 O   0  0  0  0  0  0  0  0  0  0  0  0
    2.8484    1.3867    0.4049 C   0  0  0  0  0  0  0  0  0  0  0  0
    3.0037    0.8112   -1.9712 C   0  0  0  0  0  0  0  0  0  0  0  0
    3.6204    1.1486   -0.7557 C   0  0  0  0  0  0  0  0  0  0  0  0
    3.4777    1.7304    1.6305 C   0  0  0  0  0  0  0  0  0  0  0  0
    2.8971    2.0255    2.7999 N   0  0  0  0  0  0  0  0  0  0  0  0
    4.7971    1.8172    1.8557 N   0  0  0  0  0  0  0  0  0  0  0  0
    3.8110    2.2731    3.6755 N   0  0  0  0  0  0  0  0  0  0  0  0
    4.9613    2.1451    3.0966 N   0  0  0  0  0  0  0  0  0  0  0  0
   -0.9692    1.0917   -0.0310 H   0  0  0  0  0  0  0  0  0  0  0  0
    0.8640    1.4452    1.1364 H   0  0  0  0  0  0  0  0  0  0  0  0
    1.1938    0.4654   -2.9467 H   0  0  0  0  0  0  0  0  0  0  0  0
   -4.2071    0.6826   -0.0221 H   0  0  0  0  0  0  0  0  0  0  0  0
    3.5738    0.6553   -2.8053 H   0  0  0  0  0  0  0  0  0  0  0  0
    4.6402    1.2212   -0.7318 H   0  0  0  0  0  0  0  0  0  0  0  0
    1.9432    2.0521    2.9704 H   0  0  0  0  0  0  0  0  0  0  0  0
  1  2  1  0  0  0  0 
  1  3  1  0  0  0  0 
  2  4  1  0  0  0  0 
  2  5  2  0  0  0  0 
  3  6  2  0  0  0  0 
  3  7  1  0  0  0  0 
  4  8  1  0  0  0  0 
  4  9  2  0  0  0  0 
  6 10  1  0  0  0  0 
  7 11  2  0  0  0  0 
 10 12  2  0  0  0  0 
 10 13  1  0  0  0  0 
 11 12  1  0  0  0  0 
 13 14  1  0  0  0  0 
 13 15  2  0  0  0  0 
 14 16  1  0  0  0  0 
 15 17  1  0  0  0  0 
 16 17  2  0  0  0  0 
 18  1  1  0  0  0  0 
 19  6  1  0  0  0  0 
 20  7  1  0  0  0  0 
 21  8  1  0  0  0  0 
 22 11  1  0  0  0  0 
 23 12  1  0  0  0  0 
 24 14  1  0  0  0  0 
M  END
> <cdk:Title>
acitazanolast

> <Conformer>
1

> <SuperDrugID>
SD000053

$$$$
