dibromol
  CDK     0628171801

 17 17  0  0  0  0  0  0  0  0999 V2000
   -0.8172   -0.2176    0.0425 S   0  0  2  0  0  0  0  0  0  0  0  0
    0.0064   -0.5898    1.3666 O   0  0  0  0  0  0  0  0  0  0  0  0
    0.0590   -0.6109   -1.2415 O   0  0  0  0  0  0  0  0  0  0  0  0
   -1.0472    1.4782    0.0250 O   0  0  0  0  0  0  0  0  0  0  0  0
   -2.3637   -1.0735    0.0158 C   0  0  0  0  0  0  0  0  0  0  0  0
   -3.5905   -0.3799   -0.0076 C   0  0  0  0  0  0  0  0  0  0  0  0
   -2.3654   -2.4822    0.0159 C   0  0  0  0  0  0  0  0  0  0  0  0
   -4.8070   -1.0869   -0.0555 C   0  0  0  0  0  0  0  0  0  0  0  0
   -3.5774   -3.1954   -0.0328 C   0  0  0  0  0  0  0  0  0  0  0  0
   -6.4104   -0.1377   -0.0715 Br  0  0  0  0  0  0  0  0  0  0  0  0
   -4.8031   -2.4975   -0.0906 C   0  0  0  0  0  0  0  0  0  0  0  0
   -3.5311   -5.0591   -0.0088 Br  0  0  0  0  0  0  0  0  0  0  0  0
   -5.9754   -3.1721   -0.1832 O   0  0  0  0  0  0  0  0  0  0  0  0
   -1.2101    1.6979   -0.9155 H   0  0  0  0  0  0  0  0  0  0  0  0
   -3.6060    0.6412    0.0077 H   0  0  0  0  0  0  0  0  0  0  0  0
   -1.4837   -2.9991    0.0500 H   0  0  0  0  0  0  0  0  0  0  0  0
   -5.7559   -4.0100   -0.6392 H   0  0  0  0  0  0  0  0  0  0  0  0
  1  2  2  0  0  0  0 
  1  3  2  0  0  0  0 
  1  4  1  0  0  0  0 
  1  5  1  0  0  0  0 
  5  6  2  0  0  0  0 
  5  7  1  0  0  0  0 
  6  8  1  0  0  0  0 
  7  9  2  0  0  0  0 
  8 10  1  0  0  0  0 
  8 11  2  0  0  0  0 
  9 11  1  0  0  0  0 
  9 12  1  0  0  0  0 
 11 13  1  0  0  0  0 
  4 14  1  0  0  0  0 
  6 15  1  0  0  0  0 
  7 16  1  0  0  0  0 
 13 17  1  0  0  0  0 
M  END
> <cdk:Title>
dibromol

> <Conformer>
1

> <SuperDrugID>
SD002719

$$$$
