isosorbide mononitrate
  CDK     0628171801

 22 23  0  0  0  0  0  0  0  0999 V2000
    0.4025    1.4049   -0.5285 O   0  0  0  0  0  0  0  0  0  0  0  0
    1.0693    0.3105   -0.5302 N   0  0  0  0  0  0  0  0  0  0  0  0
   -0.9548    1.2494   -0.0640 C   0  0  1  0  0  0  0  0  0  0  0  0
    0.8653   -0.5823   -1.4091 O   0  0  0  0  0  0  0  0  0  0  0  0
    1.9273    0.1524    0.2441 O   0  0  0  0  0  0  0  0  0  0  0  0
   -1.0732    0.9331    1.4357 C   0  0  2  0  0  0  0  0  0  0  0  0
   -1.7502    2.5673   -0.1917 C   0  0  1  0  0  0  0  0  0  0  0  0
   -2.3769    1.6243    1.8213 C   0  0  2  0  0  0  0  0  0  0  0  0
   -0.0510    1.5592    2.2226 O   0  0  0  0  0  0  0  0  0  0  0  0
   -2.4079    2.8325    1.0536 O   0  0  0  0  0  0  0  0  0  0  0  0
   -2.1823    1.8874    3.3188 C   0  0  2  0  0  0  0  0  0  0  0  0
   -0.6473    1.9897    3.4546 C   0  0  2  0  0  0  0  0  0  0  0  0
   -2.6897    0.7963    4.0863 O   0  0  0  0  0  0  0  0  0  0  0  0
   -1.1008   -0.1437    1.6321 H   0  0  0  0  0  0  0  0  0  0  0  0
   -3.2609    1.0133    1.6119 H   0  0  0  0  0  0  0  0  0  0  0  0
   -1.4770    0.4766   -0.6404 H   0  0  0  0  0  0  0  0  0  0  0  0
   -1.0888    3.4058   -0.4175 H   0  0  0  0  0  0  0  0  0  0  0  0
   -2.4965    2.4932   -0.9852 H   0  0  0  0  0  0  0  0  0  0  0  0
   -2.6862    2.8079    3.6282 H   0  0  0  0  0  0  0  0  0  0  0  0
   -0.3531    3.0258    3.6376 H   0  0  0  0  0  0  0  0  0  0  0  0
   -0.2755    1.3729    4.2777 H   0  0  0  0  0  0  0  0  0  0  0  0
   -2.4216    0.9870    5.0087 H   0  0  0  0  0  0  0  0  0  0  0  0
  1  2  1  0  0  0  0 
  2  4  1  0  0  0  0 
  2  5  2  0  0  0  0 
  3  1  1  0  0  0  0 
  6  3  1  0  0  0  0 
  3  7  1  0  0  0  0 
  8  6  1  0  0  0  0 
  6  9  1  0  0  0  0 
  6 14  1  0  0  0  0 
  7 10  1  0  0  0  0 
  8 10  1  0  0  0  0 
 11  8  1  0  0  0  0 
  8 15  1  0  0  0  0 
  9 12  1  0  0  0  0 
 11 12  1  0  0  0  0 
 11 13  1  0  0  0  0 
  3 16  1  0  0  0  0 
  7 17  1  0  0  0  0 
  7 18  1  0  0  0  0 
 11 19  1  0  0  0  0 
 12 20  1  0  0  0  0 
 12 21  1  0  0  0  0 
 13 22  1  0  0  0  0 
M  CHG  1   2   1
M  CHG  1   4  -1
M  END
> <cdk:Title>
isosorbide mononitrate

> <Conformer>
1

> <SuperDrugID>
SD001333

$$$$
