piretanide
  CDK     0628171801

 43 45  0  0  0  0  0  0  0  0999 V2000
   -0.5409   -0.4778   -0.0327 O   0  0  0  0  0  0  0  0  0  0  0  0
   -0.6995   -1.3216    1.0370 C   0  0  0  0  0  0  0  0  0  0  0  0
    0.3826    0.5481    0.0414 C   0  0  0  0  0  0  0  0  0  0  0  0
    0.0463   -2.5263    1.1025 C   0  0  0  0  0  0  0  0  0  0  0  0
   -1.6215   -0.9992    2.0606 C   0  0  0  0  0  0  0  0  0  0  0  0
    0.2391    1.5600   -0.9333 C   0  0  0  0  0  0  0  0  0  0  0  0
    1.4513    0.6522    0.9688 C   0  0  0  0  0  0  0  0  0  0  0  0
   -0.1227   -3.3692    2.2255 C   0  0  0  0  0  0  0  0  0  0  0  0
    0.9333   -2.8870    0.1123 N   0  0  0  0  0  0  0  0  0  0  0  0
   -2.6570    0.4387    1.9705 S   0  0  2  0  0  0  0  0  0  0  0  0
   -1.7318   -1.8393    3.1881 C   0  0  0  0  0  0  0  0  0  0  0  0
    1.1337    2.6453   -0.9898 C   0  0  0  0  0  0  0  0  0  0  0  0
    2.3399    1.7435    0.9218 C   0  0  0  0  0  0  0  0  0  0  0  0
   -0.9863   -3.0364    3.2926 C   0  0  0  0  0  0  0  0  0  0  0  0
    0.5966   -2.9665   -1.2775 C   0  0  1  0  0  0  0  0  0  0  0  0
    2.2959   -3.2324    0.3839 C   0  0  1  0  0  0  0  0  0  0  0  0
   -1.8974    1.7670    2.8313 N   0  0  2  0  0  0  0  0  0  0  0  0
   -4.0799    0.1566    2.6575 O   0  0  0  0  0  0  0  0  0  0  0  0
   -2.9116    0.9029    0.4559 O   0  0  0  0  0  0  0  0  0  0  0  0
    2.1822    2.7391   -0.0583 C   0  0  0  0  0  0  0  0  0  0  0  0
   -1.0945   -3.8900    4.4271 C   0  0  0  0  0  0  0  0  0  0  0  0
    1.7711   -3.7283   -1.9139 C   0  0  1  0  0  0  0  0  0  0  0  0
    2.9526   -3.3817   -0.9969 C   0  0  1  0  0  0  0  0  0  0  0  0
   -0.3034   -4.9836    4.5761 O   0  0  0  0  0  0  0  0  0  0  0  0
   -1.9160   -3.6743    5.3475 O   0  0  0  0  0  0  0  0  0  0  0  0
   -0.5239    1.5085   -1.6127 H   0  0  0  0  0  0  0  0  0  0  0  0
    1.5944   -0.0622    1.6838 H   0  0  0  0  0  0  0  0  0  0  0  0
    0.3974   -4.2480    2.2595 H   0  0  0  0  0  0  0  0  0  0  0  0
   -2.3694   -1.5733    3.9419 H   0  0  0  0  0  0  0  0  0  0  0  0
    1.0230    3.3633   -1.7098 H   0  0  0  0  0  0  0  0  0  0  0  0
    3.1044    1.8130    1.5979 H   0  0  0  0  0  0  0  0  0  0  0  0
   -0.3437   -3.5007   -1.4399 H   0  0  0  0  0  0  0  0  0  0  0  0
    0.5322   -1.9721   -1.7259 H   0  0  0  0  0  0  0  0  0  0  0  0
    2.7945   -2.4523    0.9657 H   0  0  0  0  0  0  0  0  0  0  0  0
    2.3567   -4.1804    0.9249 H   0  0  0  0  0  0  0  0  0  0  0  0
   -2.4786    2.5914    2.6612 H   0  0  0  0  0  0  0  0  0  0  0  0
   -1.0000    1.9396    2.3739 H   0  0  0  0  0  0  0  0  0  0  0  0
    2.8308    3.5289   -0.0970 H   0  0  0  0  0  0  0  0  0  0  0  0
    1.5751   -4.8057   -1.8937 H   0  0  0  0  0  0  0  0  0  0  0  0
    1.9538   -3.4144   -2.9455 H   0  0  0  0  0  0  0  0  0  0  0  0
    3.4018   -2.4328   -1.3021 H   0  0  0  0  0  0  0  0  0  0  0  0
    3.7156   -4.1625   -1.0043 H   0  0  0  0  0  0  0  0  0  0  0  0
   -0.3771   -5.5553    5.3705 H   0  0  0  0  0  0  0  0  0  0  0  0
  1  2  1  0  0  0  0 
  1  3  1  0  0  0  0 
  2  4  2  0  0  0  0 
  2  5  1  0  0  0  0 
  3  6  2  0  0  0  0 
  3  7  1  0  0  0  0 
  4  8  1  0  0  0  0 
  4  9  1  0  0  0  0 
  5 10  1  0  0  0  0 
  5 11  2  0  0  0  0 
  6 12  1  0  0  0  0 
  7 13  2  0  0  0  0 
  8 14  2  0  0  0  0 
  9 15  1  0  0  0  0 
  9 16  1  0  0  0  0 
 10 17  1  0  0  0  0 
 10 18  2  0  0  0  0 
 10 19  2  0  0  0  0 
 11 14  1  0  0  0  0 
 12 20  2  0  0  0  0 
 13 20  1  0  0  0  0 
 14 21  1  0  0  0  0 
 15 22  1  0  0  0  0 
 16 23  1  0  0  0  0 
 21 24  1  0  0  0  0 
 21 25  2  0  0  0  0 
 22 23  1  0  0  0  0 
  6 26  1  0  0  0  0 
  7 27  1  0  0  0  0 
  8 28  1  0  0  0  0 
 11 29  1  0  0  0  0 
 12 30  1  0  0  0  0 
 13 31  1  0  0  0  0 
 15 32  1  0  0  0  0 
 15 33  1  0  0  0  0 
 16 34  1  0  0  0  0 
 16 35  1  0  0  0  0 
 17 36  1  0  0  0  0 
 17 37  1  0  0  0  0 
 20 38  1  0  0  0  0 
 22 39  1  0  0  0  0 
 22 40  1  0  0  0  0 
 23 41  1  0  0  0  0 
 23 42  1  0  0  0  0 
 24 43  1  0  0  0  0 
M  END
> <cdk:Title>
piretanide

> <Conformer>
1

> <SuperDrugID>
SD001976

$$$$
