phosphocreatine
  CDK     0628171801

 23 22  0  0  0  0  0  0  0  0999 V2000
   -0.4375    0.0637    2.1978 C   0  0  0  0  0  0  0  0  0  0  0  0
   -0.8968    0.9109    3.1565 N   0  0  0  0  0  0  0  0  0  0  0  0
   -0.9040    0.1582    0.9431 N   0  0  0  0  0  0  0  0  0  0  0  0
    0.4364   -0.8253    2.5104 N   0  0  0  0  0  0  0  0  0  0  0  0
   -1.2669    2.2832    2.8478 C   0  0  1  0  0  0  0  0  0  0  0  0
   -1.0644    0.4475    4.5227 C   0  0  0  0  0  0  0  0  0  0  0  0
   -0.3254   -0.5637   -0.3608 P   0  0  1  0  0  0  0  0  0  0  0  0
   -2.7078    2.5301    3.0554 C   0  0  0  0  0  0  0  0  0  0  0  0
   -0.2583   -2.0227   -0.2027 O   0  0  0  0  0  0  0  0  0  0  0  0
   -1.2519   -0.2107   -1.6002 O   0  0  0  0  0  0  0  0  0  0  0  0
    1.1231    0.0124   -0.6657 O   0  0  0  0  0  0  0  0  0  0  0  0
   -3.6231    1.8070    2.3724 O   0  0  0  0  0  0  0  0  0  0  0  0
   -3.1093    3.3966    3.8644 O   0  0  0  0  0  0  0  0  0  0  0  0
   -1.6566    0.7531    0.8024 H   0  0  0  0  0  0  0  0  0  0  0  0
    0.7660   -1.4246    1.8732 H   0  0  0  0  0  0  0  0  0  0  0  0
   -0.6749    2.9556    3.4741 H   0  0  0  0  0  0  0  0  0  0  0  0
   -1.0389    2.5621    1.8169 H   0  0  0  0  0  0  0  0  0  0  0  0
   -0.2292   -0.1721    4.8598 H   0  0  0  0  0  0  0  0  0  0  0  0
   -1.1449    1.2734    5.2333 H   0  0  0  0  0  0  0  0  0  0  0  0
   -1.9818   -0.1419    4.5872 H   0  0  0  0  0  0  0  0  0  0  0  0
   -0.8390   -0.6867   -2.3502 H   0  0  0  0  0  0  0  0  0  0  0  0
    1.4010   -0.4435   -1.4880 H   0  0  0  0  0  0  0  0  0  0  0  0
   -4.5797    1.9509    2.5291 H   0  0  0  0  0  0  0  0  0  0  0  0
  1  2  1  0  0  0  0 
  1  3  1  0  0  0  0 
  1  4  2  0  0  0  0 
  2  5  1  0  0  0  0 
  2  6  1  0  0  0  0 
  3  7  1  0  0  0  0 
  5  8  1  0  0  0  0 
  7  9  2  0  0  0  0 
  7 10  1  0  0  0  0 
  7 11  1  0  0  0  0 
  8 12  1  0  0  0  0 
  8 13  2  0  0  0  0 
 14  3  1  0  0  0  0 
 15  4  1  0  0  0  0 
 16  5  1  0  0  0  0 
 17  5  1  0  0  0  0 
 18  6  1  0  0  0  0 
 19  6  1  0  0  0  0 
 20  6  1  0  0  0  0 
 21 10  1  0  0  0  0 
 22 11  1  0  0  0  0 
 23 12  1  0  0  0  0 
M  END
> <cdk:Title>
phosphocreatine

> <Conformer>
1

> <SuperDrugID>
SD002986

$$$$
