diprophylline
  CDK     0628171802

 32 33  0  0  0  0  0  0  0  0999 V2000
    1.3115   -0.3489   -1.2800 C   0  0  1  0  0  0  0  0  0  0  0  0
    0.5179   -1.6460   -0.9480 C   0  0  1  0  0  0  0  0  0  0  0  0
    2.3288   -0.0490   -0.3036 N   0  0  0  0  0  0  0  0  0  0  0  0
   -0.3352   -1.5368    0.3396 C   0  0  2  0  0  0  0  0  0  0  0  0
   -0.3559   -1.9477   -2.0330 O   0  0  0  0  0  0  0  0  0  0  0  0
    2.3268    0.8403    0.7181 C   0  0  0  0  0  0  0  0  0  0  0  0
    3.5259   -0.6715   -0.2500 C   0  0  0  0  0  0  0  0  0  0  0  0
    0.4763   -1.5720    1.5077 O   0  0  0  0  0  0  0  0  0  0  0  0
    3.5378    0.7200    1.3926 C   0  0  0  0  0  0  0  0  0  0  0  0
    1.3914    1.7796    1.1927 C   0  0  0  0  0  0  0  0  0  0  0  0
    4.2713   -0.2164    0.7692 N   0  0  0  0  0  0  0  0  0  0  0  0
    3.8404    1.4609    2.4978 N   0  0  0  0  0  0  0  0  0  0  0  0
    0.3035    1.9000    0.5832 O   0  0  0  0  0  0  0  0  0  0  0  0
    1.6895    2.5366    2.3049 N   0  0  0  0  0  0  0  0  0  0  0  0
    5.1060    1.3014    3.1778 C   0  0  0  0  0  0  0  0  0  0  0  0
    2.8989    2.3577    2.9507 C   0  0  0  0  0  0  0  0  0  0  0  0
    0.7562    3.5240    2.8136 C   0  0  0  0  0  0  0  0  0  0  0  0
    3.1528    3.0274    3.9853 O   0  0  0  0  0  0  0  0  0  0  0  0
    1.7929   -0.4671   -2.2567 H   0  0  0  0  0  0  0  0  0  0  0  0
    0.6094    0.4785   -1.3963 H   0  0  0  0  0  0  0  0  0  0  0  0
    1.2109   -2.4857   -0.8505 H   0  0  0  0  0  0  0  0  0  0  0  0
   -1.0361   -2.3716    0.3924 H   0  0  0  0  0  0  0  0  0  0  0  0
   -0.9127   -0.6111    0.3355 H   0  0  0  0  0  0  0  0  0  0  0  0
    0.2362   -2.1074   -2.7967 H   0  0  0  0  0  0  0  0  0  0  0  0
    3.8373   -1.3993   -0.8974 H   0  0  0  0  0  0  0  0  0  0  0  0
   -0.1492   -1.4311    2.2500 H   0  0  0  0  0  0  0  0  0  0  0  0
    4.9346    0.9421    4.1943 H   0  0  0  0  0  0  0  0  0  0  0  0
    5.7797    0.5948    2.6900 H   0  0  0  0  0  0  0  0  0  0  0  0
    5.6241    2.2614    3.2306 H   0  0  0  0  0  0  0  0  0  0  0  0
   -0.1607    3.6165    2.2278 H   0  0  0  0  0  0  0  0  0  0  0  0
    1.2327    4.5077    2.8276 H   0  0  0  0  0  0  0  0  0  0  0  0
    0.4617    3.2638    3.8322 H   0  0  0  0  0  0  0  0  0  0  0  0
  2  1  1  0  0  0  0 
  1  3  1  0  0  0  0 
  2  4  1  0  0  0  0 
  2  5  1  0  0  0  0 
  3  6  1  0  0  0  0 
  3  7  1  0  0  0  0 
  4  8  1  0  0  0  0 
  6  9  2  0  0  0  0 
  6 10  1  0  0  0  0 
  7 11  2  0  0  0  0 
  9 11  1  0  0  0  0 
  9 12  1  0  0  0  0 
 10 13  2  0  0  0  0 
 10 14  1  0  0  0  0 
 12 15  1  0  0  0  0 
 12 16  1  0  0  0  0 
 14 16  1  0  0  0  0 
 14 17  1  0  0  0  0 
 16 18  2  0  0  0  0 
  1 19  1  0  0  0  0 
  1 20  1  0  0  0  0 
  2 21  1  0  0  0  0 
  4 22  1  0  0  0  0 
  4 23  1  0  0  0  0 
  5 24  1  0  0  0  0 
  7 25  1  0  0  0  0 
  8 26  1  0  0  0  0 
 15 27  1  0  0  0  0 
 15 28  1  0  0  0  0 
 15 29  1  0  0  0  0 
 17 30  1  0  0  0  0 
 17 31  1  0  0  0  0 
 17 32  1  0  0  0  0 
M  END
> <cdk:Title>
diprophylline

> <Conformer>
1

> <SuperDrugID>
SD000866

$$$$
