linezolid
  CDK     0628171801

 44 46  0  0  0  0  0  0  0  0999 V2000
    7.1205    0.0088   -0.6669 O   0  0  0  0  0  0  0  0  0  0  0  0
    6.8128    0.1783   -1.8680 C   0  0  0  0  0  0  0  0  0  0  0  0
    6.2995   -0.7337   -2.7405 N   0  0  0  0  0  0  0  0  0  0  0  0
    7.0160    1.3777   -2.4394 O   0  0  0  0  0  0  0  0  0  0  0  0
    6.1695   -0.0897   -4.0172 C   0  0  1  0  0  0  0  0  0  0  0  0
    5.9594   -2.0627   -2.4832 C   0  0  0  0  0  0  0  0  0  0  0  0
    6.6891    1.3597   -3.8197 C   0  0  2  0  0  0  0  0  0  0  0  0
    5.8601   -3.0192   -3.5302 C   0  0  0  0  0  0  0  0  0  0  0  0
    5.6940   -2.5338   -1.1711 C   0  0  0  0  0  0  0  0  0  0  0  0
    7.9296    1.7178   -4.6816 C   0  0  2  0  0  0  0  0  0  0  0  0
    5.5887   -4.3779   -3.2772 C   0  0  0  0  0  0  0  0  0  0  0  0
    5.4475   -3.8911   -0.9100 C   0  0  0  0  0  0  0  0  0  0  0  0
    8.4683    3.0057   -4.3784 N   0  0  0  0  0  0  0  0  0  0  0  0
    5.5041   -5.1988   -4.2915 F   0  0  0  0  0  0  0  0  0  0  0  0
    5.4136   -4.8400   -1.9524 C   0  0  0  0  0  0  0  0  0  0  0  0
    7.9383    4.1992   -4.7606 C   0  0  0  0  0  0  0  0  0  0  0  0
    5.2503   -6.1773   -1.6611 N   0  0  0  0  0  0  0  0  0  0  0  0
    8.5930    5.4431   -4.3195 C   0  0  0  0  0  0  0  0  0  0  0  0
    6.9099    4.2622   -5.4760 O   0  0  0  0  0  0  0  0  0  0  0  0
    4.1534   -6.6632   -0.8520 C   0  0  1  0  0  0  0  0  0  0  0  0
    6.2404   -7.1481   -2.0708 C   0  0  2  0  0  0  0  0  0  0  0  0
    4.7255   -7.4116    0.3805 C   0  0  1  0  0  0  0  0  0  0  0  0
    6.7703   -7.8840   -0.8142 C   0  0  2  0  0  0  0  0  0  0  0  0
    5.6821   -8.4128   -0.0272 O   0  0  0  0  0  0  0  0  0  0  0  0
    6.7558   -0.6053   -4.7839 H   0  0  0  0  0  0  0  0  0  0  0  0
    5.1208   -0.0832   -4.3256 H   0  0  0  0  0  0  0  0  0  0  0  0
    5.8897    2.0807   -4.0065 H   0  0  0  0  0  0  0  0  0  0  0  0
    5.9962   -2.7401   -4.5039 H   0  0  0  0  0  0  0  0  0  0  0  0
    5.6747   -1.8999   -0.3725 H   0  0  0  0  0  0  0  0  0  0  0  0
    7.6732    1.6601   -5.7437 H   0  0  0  0  0  0  0  0  0  0  0  0
    8.7199    0.9852   -4.4908 H   0  0  0  0  0  0  0  0  0  0  0  0
    5.3051   -4.1880    0.0569 H   0  0  0  0  0  0  0  0  0  0  0  0
    9.2757    3.0287   -3.8425 H   0  0  0  0  0  0  0  0  0  0  0  0
    8.0911    6.3223   -4.7299 H   0  0  0  0  0  0  0  0  0  0  0  0
    8.5622    5.5049   -3.2300 H   0  0  0  0  0  0  0  0  0  0  0  0
    9.6361    5.4559   -4.6439 H   0  0  0  0  0  0  0  0  0  0  0  0
    3.4864   -5.8654   -0.5137 H   0  0  0  0  0  0  0  0  0  0  0  0
    3.5546   -7.3598   -1.4444 H   0  0  0  0  0  0  0  0  0  0  0  0
    7.0918   -6.6953   -2.5907 H   0  0  0  0  0  0  0  0  0  0  0  0
    5.7769   -7.8693   -2.7501 H   0  0  0  0  0  0  0  0  0  0  0  0
    5.1959   -6.7014    1.0670 H   0  0  0  0  0  0  0  0  0  0  0  0
    3.9151   -7.9069    0.9189 H   0  0  0  0  0  0  0  0  0  0  0  0
    7.3710   -7.1982   -0.2097 H   0  0  0  0  0  0  0  0  0  0  0  0
    7.4121   -8.7102   -1.1231 H   0  0  0  0  0  0  0  0  0  0  0  0
  1  2  2  0  0  0  0 
  2  3  1  0  0  0  0 
  2  4  1  0  0  0  0 
  3  5  1  0  0  0  0 
  3  6  1  0  0  0  0 
  7  4  1  0  0  0  0 
  7  5  1  0  0  0  0 
  6  8  2  0  0  0  0 
  6  9  1  0  0  0  0 
  7 10  1  0  0  0  0 
  8 11  1  0  0  0  0 
  9 12  2  0  0  0  0 
 10 13  1  0  0  0  0 
 11 14  1  0  0  0  0 
 11 15  2  0  0  0  0 
 12 15  1  0  0  0  0 
 13 16  1  0  0  0  0 
 15 17  1  0  0  0  0 
 16 18  1  0  0  0  0 
 16 19  2  0  0  0  0 
 17 20  1  0  0  0  0 
 17 21  1  0  0  0  0 
 20 22  1  0  0  0  0 
 21 23  1  0  0  0  0 
 22 24  1  0  0  0  0 
 23 24  1  0  0  0  0 
  5 25  1  0  0  0  0 
  5 26  1  0  0  0  0 
  7 27  1  0  0  0  0 
  8 28  1  0  0  0  0 
  9 29  1  0  0  0  0 
 10 30  1  0  0  0  0 
 10 31  1  0  0  0  0 
 12 32  1  0  0  0  0 
 13 33  1  0  0  0  0 
 18 34  1  0  0  0  0 
 18 35  1  0  0  0  0 
 18 36  1  0  0  0  0 
 20 37  1  0  0  0  0 
 20 38  1  0  0  0  0 
 21 39  1  0  0  0  0 
 21 40  1  0  0  0  0 
 22 41  1  0  0  0  0 
 22 42  1  0  0  0  0 
 23 43  1  0  0  0  0 
 23 44  1  0  0  0  0 
M  END
> <cdk:Title>
linezolid

> <Conformer>
1

> <SuperDrugID>
SD001399

$$$$
