clorindione
  CDK     0628171801

 27 29  0  0  0  0  0  0  0  0999 V2000
    1.7787    4.4071    2.1694 O   0  0  0  0  0  0  0  0  0  0  0  0
    1.6521    4.6580    0.9492 C   0  0  0  0  0  0  0  0  0  0  0  0
    2.0441    3.7367   -0.1395 C   0  0  2  0  0  0  0  0  0  0  0  0
    1.1295    5.8402    0.4272 C   0  0  0  0  0  0  0  0  0  0  0  0
    1.7008    4.5368   -1.3354 C   0  0  0  0  0  0  0  0  0  0  0  0
    1.3248    2.4263   -0.0855 C   0  0  0  0  0  0  0  0  0  0  0  0
    1.1590    5.7664   -0.9641 C   0  0  0  0  0  0  0  0  0  0  0  0
    0.6215    6.9789    1.0809 C   0  0  0  0  0  0  0  0  0  0  0  0
    1.8783    4.1581   -2.5157 O   0  0  0  0  0  0  0  0  0  0  0  0
   -0.0916    2.3609   -0.1125 C   0  0  0  0  0  0  0  0  0  0  0  0
    2.0502    1.2121   -0.0057 C   0  0  0  0  0  0  0  0  0  0  0  0
    0.6815    6.8289   -1.7551 C   0  0  0  0  0  0  0  0  0  0  0  0
    0.1490    8.0536    0.2986 C   0  0  0  0  0  0  0  0  0  0  0  0
   -0.7595    1.1236   -0.0608 C   0  0  0  0  0  0  0  0  0  0  0  0
    1.3821   -0.0262    0.0461 C   0  0  0  0  0  0  0  0  0  0  0  0
    0.1789    7.9789   -1.1111 C   0  0  0  0  0  0  0  0  0  0  0  0
   -0.0249   -0.0744    0.0189 C   0  0  0  0  0  0  0  0  0  0  0  0
   -0.8281   -1.5643    0.0818 Cl  0  0  0  0  0  0  0  0  0  0  0  0
    3.1313    3.6067   -0.1091 H   0  0  0  0  0  0  0  0  0  0  0  0
    0.5911    7.0291    2.1007 H   0  0  0  0  0  0  0  0  0  0  0  0
   -0.6473    3.2184   -0.1702 H   0  0  0  0  0  0  0  0  0  0  0  0
    3.0738    1.2207    0.0153 H   0  0  0  0  0  0  0  0  0  0  0  0
    0.6941    6.7715   -2.7748 H   0  0  0  0  0  0  0  0  0  0  0  0
   -0.2179    8.8918    0.7552 H   0  0  0  0  0  0  0  0  0  0  0  0
   -1.7813    1.1006   -0.0816 H   0  0  0  0  0  0  0  0  0  0  0  0
    1.9264   -0.8903    0.1035 H   0  0  0  0  0  0  0  0  0  0  0  0
   -0.1668    8.7638   -1.6682 H   0  0  0  0  0  0  0  0  0  0  0  0
  1  2  2  0  0  0  0 
  2  3  1  0  0  0  0 
  2  4  1  0  0  0  0 
  3  5  1  0  0  0  0 
  3  6  1  0  0  0  0 
  4  7  2  0  0  0  0 
  4  8  1  0  0  0  0 
  5  7  1  0  0  0  0 
  5  9  2  0  0  0  0 
  6 10  2  0  0  0  0 
  6 11  1  0  0  0  0 
  7 12  1  0  0  0  0 
  8 13  2  0  0  0  0 
 10 14  1  0  0  0  0 
 11 15  2  0  0  0  0 
 12 16  2  0  0  0  0 
 13 16  1  0  0  0  0 
 14 17  2  0  0  0  0 
 15 17  1  0  0  0  0 
 17 18  1  0  0  0  0 
  3 19  1  0  0  0  0 
  8 20  1  0  0  0  0 
 10 21  1  0  0  0  0 
 11 22  1  0  0  0  0 
 12 23  1  0  0  0  0 
 13 24  1  0  0  0  0 
 14 25  1  0  0  0  0 
 15 26  1  0  0  0  0 
 16 27  1  0  0  0  0 
M  END
> <cdk:Title>
clorindione

> <Conformer>
1

> <SuperDrugID>
SD002698

$$$$
