vesnarinone
  CDK     0628171801

 54 57  0  0  0  0  0  0  0  0999 V2000
    3.3876    1.3664    3.6940 C   0  0  0  0  0  0  0  0  0  0  0  0
    2.9326    2.5181    3.4766 O   0  0  0  0  0  0  0  0  0  0  0  0
    4.1998    1.1387    4.8078 N   0  0  0  0  0  0  0  0  0  0  0  0
    3.0213    0.4246    2.6909 C   0  0  0  0  0  0  0  0  0  0  0  0
    4.7108   -0.1858    5.1430 C   0  0  1  0  0  0  0  0  0  0  0  0
    4.6624    2.2815    5.5882 C   0  0  1  0  0  0  0  0  0  0  0  0
    3.9872   -0.3499    2.0068 C   0  0  0  0  0  0  0  0  0  0  0  0
    1.6684    0.3157    2.2878 C   0  0  0  0  0  0  0  0  0  0  0  0
    5.0447   -0.4046    6.6465 C   0  0  1  0  0  0  0  0  0  0  0  0
    4.9445    1.9824    7.0803 C   0  0  2  0  0  0  0  0  0  0  0  0
    3.6185   -1.1903    0.9330 C   0  0  0  0  0  0  0  0  0  0  0  0
    1.2979   -0.5045    1.2069 C   0  0  0  0  0  0  0  0  0  0  0  0
    5.7059    0.7644    7.1745 N   0  0  0  0  0  0  0  0  0  0  0  0
    4.5647   -1.9512    0.2991 O   0  0  0  0  0  0  0  0  0  0  0  0
    2.2698   -1.2599    0.5198 C   0  0  0  0  0  0  0  0  0  0  0  0
    7.0020    0.7640    7.6550 C   0  0  0  0  0  0  0  0  0  0  0  0
    5.2800   -1.2400   -0.7265 C   0  0  0  0  0  0  0  0  0  0  0  0
    1.9335   -2.0008   -0.5860 O   0  0  0  0  0  0  0  0  0  0  0  0
    8.0619    0.2197    6.8915 C   0  0  0  0  0  0  0  0  0  0  0  0
    7.3135    1.3550    8.9010 C   0  0  0  0  0  0  0  0  0  0  0  0
    1.2554   -3.2359   -0.3017 C   0  0  0  0  0  0  0  0  0  0  0  0
    9.4058    0.3096    7.3268 C   0  0  0  0  0  0  0  0  0  0  0  0
    8.6444    1.4427    9.3495 C   0  0  0  0  0  0  0  0  0  0  0  0
    9.6979    0.9317    8.5651 C   0  0  0  0  0  0  0  0  0  0  0  0
   10.4984   -0.2602    6.4940 C   0  0  2  0  0  0  0  0  0  0  0  0
   10.9780    1.0382    9.0199 N   0  0  0  0  0  0  0  0  0  0  0  0
   11.9556    0.0370    6.9663 C   0  0  2  0  0  0  0  0  0  0  0  0
   12.0638    0.6247    8.3193 C   0  0  0  0  0  0  0  0  0  0  0  0
   13.1950    0.7741    8.8342 O   0  0  0  0  0  0  0  0  0  0  0  0
    4.0016   -0.9689    4.8533 H   0  0  0  0  0  0  0  0  0  0  0  0
    5.6319   -0.3357    4.5754 H   0  0  0  0  0  0  0  0  0  0  0  0
    5.5863    2.6430    5.1249 H   0  0  0  0  0  0  0  0  0  0  0  0
    3.9470    3.1102    5.5780 H   0  0  0  0  0  0  0  0  0  0  0  0
    4.9749   -0.2865    2.2616 H   0  0  0  0  0  0  0  0  0  0  0  0
    0.9395    0.8500    2.7710 H   0  0  0  0  0  0  0  0  0  0  0  0
    4.1131   -0.5721    7.1976 H   0  0  0  0  0  0  0  0  0  0  0  0
    5.6430   -1.3142    6.7601 H   0  0  0  0  0  0  0  0  0  0  0  0
    4.0001    1.8718    7.6231 H   0  0  0  0  0  0  0  0  0  0  0  0
    5.4656    2.8430    7.5089 H   0  0  0  0  0  0  0  0  0  0  0  0
    0.3188   -0.5399    0.9141 H   0  0  0  0  0  0  0  0  0  0  0  0
    5.9697   -1.9395   -1.1993 H   0  0  0  0  0  0  0  0  0  0  0  0
    4.6057   -0.8484   -1.4945 H   0  0  0  0  0  0  0  0  0  0  0  0
    5.8647   -0.4179   -0.3033 H   0  0  0  0  0  0  0  0  0  0  0  0
    7.8586   -0.2309    5.9951 H   0  0  0  0  0  0  0  0  0  0  0  0
    6.5644    1.7312    9.4881 H   0  0  0  0  0  0  0  0  0  0  0  0
    1.0934   -3.7578   -1.2460 H   0  0  0  0  0  0  0  0  0  0  0  0
    1.8514   -3.8822    0.3457 H   0  0  0  0  0  0  0  0  0  0  0  0
    0.2806   -3.0573    0.1563 H   0  0  0  0  0  0  0  0  0  0  0  0
    8.8391    1.8869   10.2501 H   0  0  0  0  0  0  0  0  0  0  0  0
   10.3888    0.1092    5.4701 H   0  0  0  0  0  0  0  0  0  0  0  0
   10.3531   -1.3430    6.4640 H   0  0  0  0  0  0  0  0  0  0  0  0
   11.1252    1.4398    9.8912 H   0  0  0  0  0  0  0  0  0  0  0  0
   12.4331    0.7263    6.2641 H   0  0  0  0  0  0  0  0  0  0  0  0
   12.5292   -0.8926    6.9486 H   0  0  0  0  0  0  0  0  0  0  0  0
  1  2  2  0  0  0  0 
  1  3  1  0  0  0  0 
  1  4  1  0  0  0  0 
  3  5  1  0  0  0  0 
  3  6  1  0  0  0  0 
  4  7  2  0  0  0  0 
  4  8  1  0  0  0  0 
  5  9  1  0  0  0  0 
  6 10  1  0  0  0  0 
  7 11  1  0  0  0  0 
  8 12  2  0  0  0  0 
  9 13  1  0  0  0  0 
 10 13  1  0  0  0  0 
 11 14  1  0  0  0  0 
 11 15  2  0  0  0  0 
 12 15  1  0  0  0  0 
 13 16  1  0  0  0  0 
 14 17  1  0  0  0  0 
 15 18  1  0  0  0  0 
 16 19  2  0  0  0  0 
 16 20  1  0  0  0  0 
 18 21  1  0  0  0  0 
 19 22  1  0  0  0  0 
 20 23  2  0  0  0  0 
 22 24  2  0  0  0  0 
 22 25  1  0  0  0  0 
 23 24  1  0  0  0  0 
 24 26  1  0  0  0  0 
 25 27  1  0  0  0  0 
 26 28  1  0  0  0  0 
 27 28  1  0  0  0  0 
 28 29  2  0  0  0  0 
  5 30  1  0  0  0  0 
  5 31  1  0  0  0  0 
  6 32  1  0  0  0  0 
  6 33  1  0  0  0  0 
  7 34  1  0  0  0  0 
  8 35  1  0  0  0  0 
  9 36  1  0  0  0  0 
  9 37  1  0  0  0  0 
 10 38  1  0  0  0  0 
 10 39  1  0  0  0  0 
 12 40  1  0  0  0  0 
 17 41  1  0  0  0  0 
 17 42  1  0  0  0  0 
 17 43  1  0  0  0  0 
 19 44  1  0  0  0  0 
 20 45  1  0  0  0  0 
 21 46  1  0  0  0  0 
 21 47  1  0  0  0  0 
 21 48  1  0  0  0  0 
 23 49  1  0  0  0  0 
 25 50  1  0  0  0  0 
 25 51  1  0  0  0  0 
 26 52  1  0  0  0  0 
 27 53  1  0  0  0  0 
 27 54  1  0  0  0  0 
M  END
> <cdk:Title>
vesnarinone

> <Conformer>
1

> <SuperDrugID>
SD002541

$$$$
