sevoflurane
  CDK     0628171801

 15 14  0  0  0  0  0  0  0  0999 V2000
   -0.4208    0.5693    1.1890 C   0  0  2  0  0  0  0  0  0  0  0  0
   -0.1252    1.6481    2.2758 C   0  0  2  0  0  0  0  0  0  0  0  0
   -1.1310   -0.7107    1.7219 C   0  0  2  0  0  0  0  0  0  0  0  0
    0.8126    0.1253    0.5688 O   0  0  0  0  0  0  0  0  0  0  0  0
    0.3770    2.7889    1.7028 F   0  0  0  0  0  0  0  0  0  0  0  0
    0.7923    1.2099    3.1986 F   0  0  0  0  0  0  0  0  0  0  0  0
   -1.2607    2.0263    2.9482 F   0  0  0  0  0  0  0  0  0  0  0  0
   -1.3454   -1.5874    0.6840 F   0  0  0  0  0  0  0  0  0  0  0  0
   -2.3638   -0.4315    2.2616 F   0  0  0  0  0  0  0  0  0  0  0  0
   -0.3782   -1.3630    2.6699 F   0  0  0  0  0  0  0  0  0  0  0  0
    1.2050    0.7851   -0.6478 C   0  0  1  0  0  0  0  0  0  0  0  0
    2.3617    0.1981   -1.0928 F   0  0  0  0  0  0  0  0  0  0  0  0
   -1.1002    1.0139    0.4516 H   0  0  0  0  0  0  0  0  0  0  0  0
    0.4433    0.6677   -1.4215 H   0  0  0  0  0  0  0  0  0  0  0  0
    1.4002    1.8455   -0.4865 H   0  0  0  0  0  0  0  0  0  0  0  0
  1  2  1  0  0  0  0 
  1  3  1  0  0  0  0 
  1  4  1  0  0  0  0 
  2  5  1  0  0  0  0 
  2  6  1  0  0  0  0 
  2  7  1  0  0  0  0 
  3  8  1  0  0  0  0 
  3  9  1  0  0  0  0 
  3 10  1  0  0  0  0 
  4 11  1  0  0  0  0 
 11 12  1  0  0  0  0 
  1 13  1  0  0  0  0 
 11 14  1  0  0  0  0 
 11 15  1  0  0  0  0 
M  END
> <cdk:Title>
sevoflurane

> <Conformer>
1

> <SuperDrugID>
SD002193

$$$$
