zaleplon
  CDK     0628171801

 38 40  0  0  0  0  0  0  0  0999 V2000
    0.0620    3.0952    0.2231 C   0  0  0  0  0  0  0  0  0  0  0  0
    0.7940    1.9265   -0.0761 C   0  0  0  0  0  0  0  0  0  0  0  0
    1.5974    1.3500    0.9336 C   0  0  0  0  0  0  0  0  0  0  0  0
    1.6544    1.9194    2.2177 C   0  0  0  0  0  0  0  0  0  0  0  0
    0.9192    3.0820    2.5065 C   0  0  0  0  0  0  0  0  0  0  0  0
    0.1398    3.6913    1.4998 C   0  0  0  0  0  0  0  0  0  0  0  0
    0.7121    1.3558   -1.3283 N   0  0  0  0  0  0  0  0  0  0  0  0
   -0.5344    4.9054    1.7380 C   0  0  0  0  0  0  0  0  0  0  0  0
   -1.6180    4.9751    2.6438 C   0  0  0  0  0  0  0  0  0  0  0  0
   -2.2741    6.2108    2.8124 C   0  0  0  0  0  0  0  0  0  0  0  0
   -1.8591    7.3122    2.1311 N   0  0  0  0  0  0  0  0  0  0  0  0
   -0.8052    7.2152    1.2829 C   0  0  0  0  0  0  0  0  0  0  0  0
   -0.1608    6.0459    1.0854 N   0  0  0  0  0  0  0  0  0  0  0  0
    0.8131    6.2078    0.2380 N   0  0  0  0  0  0  0  0  0  0  0  0
    0.8385    7.4959   -0.1489 C   0  0  0  0  0  0  0  0  0  0  0  0
   -0.1873    8.1754    0.4972 C   0  0  0  0  0  0  0  0  0  0  0  0
   -0.4947    9.4317    0.3895 C   0  0  0  0  0  0  0  0  0  0  0  0
    1.2593    1.9910   -2.4405 C   0  0  0  0  0  0  0  0  0  0  0  0
    1.9720    3.2927   -2.3922 C   0  0  0  0  0  0  0  0  0  0  0  0
    1.1653    1.4676   -3.5774 O   0  0  0  0  0  0  0  0  0  0  0  0
    0.0273    0.0788   -1.4435 C   0  0  1  0  0  0  0  0  0  0  0  0
    0.9874   -1.1074   -1.6922 C   0  0  0  0  0  0  0  0  0  0  0  0
   -0.7676   10.5428    0.2931 N   0  0  0  0  0  0  0  0  0  0  0  0
   -0.5283    3.5131   -0.5015 H   0  0  0  0  0  0  0  0  0  0  0  0
    2.1451    0.5118    0.7384 H   0  0  0  0  0  0  0  0  0  0  0  0
    2.2356    1.4906    2.9415 H   0  0  0  0  0  0  0  0  0  0  0  0
    0.9677    3.4829    3.4478 H   0  0  0  0  0  0  0  0  0  0  0  0
   -1.9323    4.1513    3.1625 H   0  0  0  0  0  0  0  0  0  0  0  0
   -3.0684    6.2847    3.4500 H   0  0  0  0  0  0  0  0  0  0  0  0
    1.5078    7.8973   -0.8082 H   0  0  0  0  0  0  0  0  0  0  0  0
    1.2676    4.0828   -2.1359 H   0  0  0  0  0  0  0  0  0  0  0  0
    2.7652    3.2635   -1.6423 H   0  0  0  0  0  0  0  0  0  0  0  0
    2.4210    3.5433   -3.3550 H   0  0  0  0  0  0  0  0  0  0  0  0
   -0.5497   -0.1475   -0.5396 H   0  0  0  0  0  0  0  0  0  0  0  0
   -0.7021    0.1236   -2.2574 H   0  0  0  0  0  0  0  0  0  0  0  0
    1.7460   -1.1549   -0.9112 H   0  0  0  0  0  0  0  0  0  0  0  0
    0.4244   -2.0424   -1.6858 H   0  0  0  0  0  0  0  0  0  0  0  0
    1.4859   -1.0096   -2.6576 H   0  0  0  0  0  0  0  0  0  0  0  0
  1  2  2  0  0  0  0 
  2  3  1  0  0  0  0 
  3  4  2  0  0  0  0 
  4  5  1  0  0  0  0 
  5  6  2  0  0  0  0 
  1  6  1  0  0  0  0 
  2  7  1  0  0  0  0 
  6  8  1  0  0  0  0 
  9 10  1  0  0  0  0 
 10 11  2  0  0  0  0 
 11 12  1  0  0  0  0 
 12 13  1  0  0  0  0 
  8  9  2  0  0  0  0 
  8 13  1  0  0  0  0 
 14 15  2  0  0  0  0 
 15 16  1  0  0  0  0 
 12 16  2  0  0  0  0 
 13 14  1  0  0  0  0 
 16 17  1  0  0  0  0 
  7 18  1  0  0  0  0 
 18 19  1  0  0  0  0 
 18 20  2  0  0  0  0 
  7 21  1  0  0  0  0 
 21 22  1  0  0  0  0 
 17 23  3  0  0  0  0 
  1 24  1  0  0  0  0 
  3 25  1  0  0  0  0 
  4 26  1  0  0  0  0 
  5 27  1  0  0  0  0 
  9 28  1  0  0  0  0 
 10 29  1  0  0  0  0 
 15 30  1  0  0  0  0 
 19 31  1  0  0  0  0 
 19 32  1  0  0  0  0 
 19 33  1  0  0  0  0 
 21 34  1  0  0  0  0 
 21 35  1  0  0  0  0 
 22 36  1  0  0  0  0 
 22 37  1  0  0  0  0 
 22 38  1  0  0  0  0 
M  END
> <cdk:Title>
zaleplon

> <Conformer>
1

> <SuperDrugID>
SD002574

$$$$
