pipobroman
  CDK     0628171801

 32 32  0  0  0  0  0  0  0  0999 V2000
  -22.9138   -0.1419   -1.7685 C   0  0  0  0  0  0  0  0  0  0  0  0
  -22.2073   -1.4506   -1.6401 C   0  0  1  0  0  0  0  0  0  0  0  0
  -23.3848    0.1359   -2.8993 O   0  0  0  0  0  0  0  0  0  0  0  0
  -23.0567    0.7750   -0.7278 N   0  0  0  0  0  0  0  0  0  0  0  0
  -21.9723   -2.2286   -2.9614 C   0  0  1  0  0  0  0  0  0  0  0  0
  -22.5993    0.5321    0.6314 C   0  0  2  0  0  0  0  0  0  0  0  0
  -23.6700    2.0789   -0.9307 C   0  0  1  0  0  0  0  0  0  0  0  0
  -21.0216   -3.8749   -2.6307 Br  0  0  0  0  0  0  0  0  0  0  0  0
  -23.7423    0.7840    1.6546 C   0  0  2  0  0  0  0  0  0  0  0  0
  -24.8149    2.3184    0.0918 C   0  0  2  0  0  0  0  0  0  0  0  0
  -24.3347    2.0950    1.4481 N   0  0  0  0  0  0  0  0  0  0  0  0
  -24.4326    3.0753    2.4361 C   0  0  0  0  0  0  0  0  0  0  0  0
  -24.0402    2.9161    3.8644 C   0  0  2  0  0  0  0  0  0  0  0  0
  -24.8897    4.2087    2.1481 O   0  0  0  0  0  0  0  0  0  0  0  0
  -25.0601    2.0799    4.6733 C   0  0  2  0  0  0  0  0  0  0  0  0
  -24.5337    1.9946    6.5285 Br  0  0  0  0  0  0  0  0  0  0  0  0
  -21.2220   -1.2615   -1.2083 H   0  0  0  0  0  0  0  0  0  0  0  0
  -22.7706   -2.0857   -0.9508 H   0  0  0  0  0  0  0  0  0  0  0  0
  -22.9210   -2.4672   -3.4478 H   0  0  0  0  0  0  0  0  0  0  0  0
  -21.3706   -1.6227   -3.6420 H   0  0  0  0  0  0  0  0  0  0  0  0
  -21.7715    1.2158    0.8458 H   0  0  0  0  0  0  0  0  0  0  0  0
  -22.2227   -0.4790    0.7985 H   0  0  0  0  0  0  0  0  0  0  0  0
  -22.9043    2.8473   -0.7900 H   0  0  0  0  0  0  0  0  0  0  0  0
  -24.0758    2.2215   -1.9356 H   0  0  0  0  0  0  0  0  0  0  0  0
  -23.3308    0.6348    2.6513 H   0  0  0  0  0  0  0  0  0  0  0  0
  -24.5165    0.0234    1.5195 H   0  0  0  0  0  0  0  0  0  0  0  0
  -25.6320    1.6180   -0.1130 H   0  0  0  0  0  0  0  0  0  0  0  0
  -25.2222    3.3213   -0.0732 H   0  0  0  0  0  0  0  0  0  0  0  0
  -23.9605    3.8978    4.3434 H   0  0  0  0  0  0  0  0  0  0  0  0
  -23.0493    2.4686    3.9296 H   0  0  0  0  0  0  0  0  0  0  0  0
  -25.1186    1.0587    4.2944 H   0  0  0  0  0  0  0  0  0  0  0  0
  -26.0551    2.5313    4.6168 H   0  0  0  0  0  0  0  0  0  0  0  0
  1  2  1  0  0  0  0 
  1  3  2  0  0  0  0 
  1  4  1  0  0  0  0 
  2  5  1  0  0  0  0 
  4  6  1  0  0  0  0 
  4  7  1  0  0  0  0 
  5  8  1  0  0  0  0 
  6  9  1  0  0  0  0 
  7 10  1  0  0  0  0 
  9 11  1  0  0  0  0 
 10 11  1  0  0  0  0 
 11 12  1  0  0  0  0 
 12 13  1  0  0  0  0 
 12 14  2  0  0  0  0 
 13 15  1  0  0  0  0 
 15 16  1  0  0  0  0 
  2 17  1  0  0  0  0 
  2 18  1  0  0  0  0 
  5 19  1  0  0  0  0 
  5 20  1  0  0  0  0 
  6 21  1  0  0  0  0 
  6 22  1  0  0  0  0 
  7 23  1  0  0  0  0 
  7 24  1  0  0  0  0 
  9 25  1  0  0  0  0 
  9 26  1  0  0  0  0 
 10 27  1  0  0  0  0 
 10 28  1  0  0  0  0 
 13 29  1  0  0  0  0 
 13 30  1  0  0  0  0 
 15 31  1  0  0  0  0 
 15 32  1  0  0  0  0 
M  END
> <cdk:Title>
pipobroman

> <Conformer>
1

> <SuperDrugID>
SD001967

$$$$
