pioglitazone
  CDK     0628171801

 45 47  0  0  0  0  0  0  0  0999 V2000
    7.3152    3.5977   -6.8841 C   0  0  1  0  0  0  0  0  0  0  0  0
    8.7295    3.9994   -6.9417 C   0  0  0  0  0  0  0  0  0  0  0  0
    7.2105    2.1223   -7.0211 C   0  0  0  0  0  0  0  0  0  0  0  0
    9.4925    4.3366   -8.0700 C   0  0  0  0  0  0  0  0  0  0  0  0
    9.8494    4.0869   -5.5928 S   0  0  0  0  0  0  0  0  0  0  0  0
    7.0619    1.5256   -8.2953 C   0  0  0  0  0  0  0  0  0  0  0  0
    7.2990    1.2845   -5.8843 C   0  0  0  0  0  0  0  0  0  0  0  0
    8.9840    4.3456   -9.3230 O   0  0  0  0  0  0  0  0  0  0  0  0
   10.7986    4.6419   -7.8438 N   0  0  0  0  0  0  0  0  0  0  0  0
   11.2231    4.5810   -6.5639 C   0  0  0  0  0  0  0  0  0  0  0  0
    6.9898    0.1271   -8.4276 C   0  0  0  0  0  0  0  0  0  0  0  0
    7.2253   -0.1134   -6.0171 C   0  0  0  0  0  0  0  0  0  0  0  0
   12.3733    4.8311   -6.1439 O   0  0  0  0  0  0  0  0  0  0  0  0
    7.0399   -0.6947   -7.2851 C   0  0  0  0  0  0  0  0  0  0  0  0
    6.9137   -2.0492   -7.4016 O   0  0  0  0  0  0  0  0  0  0  0  0
    5.5383   -2.4829   -7.3164 C   0  0  1  0  0  0  0  0  0  0  0  0
    5.4724   -4.0169   -7.4804 C   0  0  1  0  0  0  0  0  0  0  0  0
    5.9998   -4.4320   -8.8001 C   0  0  0  0  0  0  0  0  0  0  0  0
    5.1824   -4.4818   -9.9494 C   0  0  0  0  0  0  0  0  0  0  0  0
    7.3213   -4.7316   -8.9215 N   0  0  0  0  0  0  0  0  0  0  0  0
    5.7528   -4.8532  -11.1809 C   0  0  0  0  0  0  0  0  0  0  0  0
    7.9028   -5.0766  -10.0980 C   0  0  0  0  0  0  0  0  0  0  0  0
    7.1301   -5.1566  -11.2784 C   0  0  0  0  0  0  0  0  0  0  0  0
    7.7436   -5.5318  -12.5790 C   0  0  1  0  0  0  0  0  0  0  0  0
    8.2386   -4.2920  -13.3543 C   0  0  0  0  0  0  0  0  0  0  0  0
    6.8920    3.9332   -5.9354 H   0  0  0  0  0  0  0  0  0  0  0  0
    6.7547    4.1085   -7.6715 H   0  0  0  0  0  0  0  0  0  0  0  0
    7.0091    2.1076   -9.1350 H   0  0  0  0  0  0  0  0  0  0  0  0
    7.4209    1.6884   -4.9524 H   0  0  0  0  0  0  0  0  0  0  0  0
    9.1533    3.4420   -9.6652 H   0  0  0  0  0  0  0  0  0  0  0  0
   11.3947    4.8859   -8.5693 H   0  0  0  0  0  0  0  0  0  0  0  0
    6.8950   -0.2924   -9.3546 H   0  0  0  0  0  0  0  0  0  0  0  0
    7.3008   -0.7091   -5.1904 H   0  0  0  0  0  0  0  0  0  0  0  0
    5.1121   -2.2199   -6.3422 H   0  0  0  0  0  0  0  0  0  0  0  0
    4.9287   -2.0149   -8.0976 H   0  0  0  0  0  0  0  0  0  0  0  0
    6.0571   -4.4824   -6.6829 H   0  0  0  0  0  0  0  0  0  0  0  0
    4.4387   -4.3563   -7.3613 H   0  0  0  0  0  0  0  0  0  0  0  0
    4.1879   -4.2417   -9.8978 H   0  0  0  0  0  0  0  0  0  0  0  0
    5.1578   -4.8928  -12.0112 H   0  0  0  0  0  0  0  0  0  0  0  0
    8.9073   -5.2673  -10.1130 H   0  0  0  0  0  0  0  0  0  0  0  0
    8.5855   -6.2109  -12.4177 H   0  0  0  0  0  0  0  0  0  0  0  0
    7.0169   -6.0680  -13.1953 H   0  0  0  0  0  0  0  0  0  0  0  0
    8.6693   -4.5997  -14.3092 H   0  0  0  0  0  0  0  0  0  0  0  0
    9.0048   -3.7660  -12.7803 H   0  0  0  0  0  0  0  0  0  0  0  0
    7.4089   -3.6094  -13.5518 H   0  0  0  0  0  0  0  0  0  0  0  0
  2  1  1  0  0  0  0 
  1  3  1  0  0  0  0 
  2  4  2  0  0  0  0 
  2  5  1  0  0  0  0 
  3  6  2  0  0  0  0 
  3  7  1  0  0  0  0 
  4  8  1  0  0  0  0 
  4  9  1  0  0  0  0 
  5 10  1  0  0  0  0 
  6 11  1  0  0  0  0 
  7 12  2  0  0  0  0 
  9 10  1  0  0  0  0 
 10 13  2  0  0  0  0 
 11 14  2  0  0  0  0 
 12 14  1  0  0  0  0 
 14 15  1  0  0  0  0 
 15 16  1  0  0  0  0 
 16 17  1  0  0  0  0 
 17 18  1  0  0  0  0 
 18 19  2  0  0  0  0 
 18 20  1  0  0  0  0 
 19 21  1  0  0  0  0 
 20 22  2  0  0  0  0 
 21 23  2  0  0  0  0 
 22 23  1  0  0  0  0 
 23 24  1  0  0  0  0 
 24 25  1  0  0  0  0 
 26  1  1  0  0  0  0 
 27  1  1  0  0  0  0 
 28  6  1  0  0  0  0 
 29  7  1  0  0  0  0 
 30  8  1  0  0  0  0 
 31  9  1  0  0  0  0 
 32 11  1  0  0  0  0 
 33 12  1  0  0  0  0 
 34 16  1  0  0  0  0 
 35 16  1  0  0  0  0 
 36 17  1  0  0  0  0 
 37 17  1  0  0  0  0 
 38 19  1  0  0  0  0 
 39 21  1  0  0  0  0 
 40 22  1  0  0  0  0 
 41 24  1  0  0  0  0 
 42 24  1  0  0  0  0 
 43 25  1  0  0  0  0 
 44 25  1  0  0  0  0 
 45 25  1  0  0  0  0 
M  END
> <cdk:Title>
pioglitazone

> <Conformer>
1

> <SuperDrugID>
SD001954

$$$$
