imiquimod
  CDK     0628171801

 34 36  0  0  0  0  0  0  0  0999 V2000
    3.2042   -1.5526   -1.2774 C   0  0  1  0  0  0  0  0  0  0  0  0
    3.9003   -2.7273   -0.5148 C   0  0  2  0  0  0  0  0  0  0  0  0
    2.2220   -0.8721   -0.4715 N   0  0  0  0  0  0  0  0  0  0  0  0
    4.8085   -2.2092    0.6390 C   0  0  0  0  0  0  0  0  0  0  0  0
    4.7075   -3.6219   -1.4948 C   0  0  0  0  0  0  0  0  0  0  0  0
    0.9407   -1.2153   -0.1609 C   0  0  0  0  0  0  0  0  0  0  0  0
    2.4755    0.3078    0.1424 C   0  0  0  0  0  0  0  0  0  0  0  0
    0.0667   -2.2942   -0.4901 C   0  0  0  0  0  0  0  0  0  0  0  0
    0.4806   -0.1877    0.6726 C   0  0  0  0  0  0  0  0  0  0  0  0
    1.4263    0.7395    0.8520 N   0  0  0  0  0  0  0  0  0  0  0  0
   -1.2541   -2.2500    0.0609 C   0  0  0  0  0  0  0  0  0  0  0  0
    0.3932   -3.3966   -1.3178 C   0  0  0  0  0  0  0  0  0  0  0  0
   -0.8190   -0.1983    1.2002 C   0  0  0  0  0  0  0  0  0  0  0  0
   -1.6365   -1.2268    0.8708 N   0  0  0  0  0  0  0  0  0  0  0  0
   -2.1987   -3.2534   -0.2292 C   0  0  0  0  0  0  0  0  0  0  0  0
   -0.5542   -4.3970   -1.6064 C   0  0  0  0  0  0  0  0  0  0  0  0
   -1.2674    0.7795    2.0012 N   0  0  0  0  0  0  0  0  0  0  0  0
   -1.8508   -4.3218   -1.0706 C   0  0  0  0  0  0  0  0  0  0  0  0
    3.9807   -0.8500   -1.6033 H   0  0  0  0  0  0  0  0  0  0  0  0
    2.7351   -1.8880   -2.2025 H   0  0  0  0  0  0  0  0  0  0  0  0
    3.1336   -3.3606   -0.0579 H   0  0  0  0  0  0  0  0  0  0  0  0
    4.2113   -1.7028    1.3989 H   0  0  0  0  0  0  0  0  0  0  0  0
    5.3280   -3.0374    1.1266 H   0  0  0  0  0  0  0  0  0  0  0  0
    5.5547   -1.5091    0.2589 H   0  0  0  0  0  0  0  0  0  0  0  0
    5.1989   -4.4362   -0.9584 H   0  0  0  0  0  0  0  0  0  0  0  0
    4.0412   -4.0647   -2.2374 H   0  0  0  0  0  0  0  0  0  0  0  0
    5.4681   -3.0359   -2.0135 H   0  0  0  0  0  0  0  0  0  0  0  0
    3.3573    0.8218    0.0877 H   0  0  0  0  0  0  0  0  0  0  0  0
    1.3156   -3.5020   -1.7269 H   0  0  0  0  0  0  0  0  0  0  0  0
   -3.1434   -3.2080    0.1641 H   0  0  0  0  0  0  0  0  0  0  0  0
   -0.2992   -5.1790   -2.2137 H   0  0  0  0  0  0  0  0  0  0  0  0
   -2.1764    0.7505    2.3381 H   0  0  0  0  0  0  0  0  0  0  0  0
   -0.6829    1.5174    2.2403 H   0  0  0  0  0  0  0  0  0  0  0  0
   -2.5408   -5.0439   -1.2924 H   0  0  0  0  0  0  0  0  0  0  0  0
  1  2  1  0  0  0  0 
  1  3  1  0  0  0  0 
  2  4  1  0  0  0  0 
  2  5  1  0  0  0  0 
  3  6  1  0  0  0  0 
  3  7  1  0  0  0  0 
  6  8  1  0  0  0  0 
  6  9  2  0  0  0  0 
  7 10  2  0  0  0  0 
  8 11  1  0  0  0  0 
  8 12  2  0  0  0  0 
  9 10  1  0  0  0  0 
  9 13  1  0  0  0  0 
 11 14  1  0  0  0  0 
 11 15  2  0  0  0  0 
 12 16  1  0  0  0  0 
 13 14  2  0  0  0  0 
 13 17  1  0  0  0  0 
 15 18  1  0  0  0  0 
 16 18  2  0  0  0  0 
  1 19  1  0  0  0  0 
  1 20  1  0  0  0  0 
  2 21  1  0  0  0  0 
  4 22  1  0  0  0  0 
  4 23  1  0  0  0  0 
  4 24  1  0  0  0  0 
  5 25  1  0  0  0  0 
  5 26  1  0  0  0  0 
  5 27  1  0  0  0  0 
  7 28  1  0  0  0  0 
 12 29  1  0  0  0  0 
 15 30  1  0  0  0  0 
 16 31  1  0  0  0  0 
 17 32  1  0  0  0  0 
 17 33  1  0  0  0  0 
 18 34  1  0  0  0  0 
M  END
> <cdk:Title>
imiquimod

> <Conformer>
1

> <SuperDrugID>
SD001267

$$$$
