apronal
  CDK     0628171801

 29 28  0  0  0  0  0  0  0  0999 V2000
   -0.3243   -0.8633    0.4864 C   0  0  1  0  0  0  0  0  0  0  0  0
   -0.1608   -1.8255    1.6195 C   0  0  0  0  0  0  0  0  0  0  0  0
   -1.3234   -1.4627   -0.5619 C   0  0  2  0  0  0  0  0  0  0  0  0
   -0.6950    0.5841    0.9945 C   0  0  1  0  0  0  0  0  0  0  0  0
   -1.1513   -1.9711    2.5518 N   0  0  0  0  0  0  0  0  0  0  0  0
    0.9127   -2.4699    1.6981 O   0  0  0  0  0  0  0  0  0  0  0  0
   -0.8858   -2.7329   -1.1276 C   0  0  0  0  0  0  0  0  0  0  0  0
    0.3212    1.1086    2.0585 C   0  0  0  0  0  0  0  0  0  0  0  0
   -0.8209    1.6312   -0.1551 C   0  0  0  0  0  0  0  0  0  0  0  0
   -1.1299   -2.7694    3.6535 C   0  0  0  0  0  0  0  0  0  0  0  0
    0.1252   -2.8427   -1.9992 C   0  0  0  0  0  0  0  0  0  0  0  0
   -2.1625   -2.7222    4.5078 N   0  0  0  0  0  0  0  0  0  0  0  0
   -0.1875   -3.5467    3.9296 O   0  0  0  0  0  0  0  0  0  0  0  0
    0.6426   -0.7663   -0.0208 H   0  0  0  0  0  0  0  0  0  0  0  0
   -1.4717   -0.7726   -1.3952 H   0  0  0  0  0  0  0  0  0  0  0  0
   -2.3007   -1.6018   -0.0899 H   0  0  0  0  0  0  0  0  0  0  0  0
   -1.6748    0.5391    1.4823 H   0  0  0  0  0  0  0  0  0  0  0  0
   -1.9482   -1.4308    2.4265 H   0  0  0  0  0  0  0  0  0  0  0  0
   -1.3477   -3.5643   -0.8371 H   0  0  0  0  0  0  0  0  0  0  0  0
    0.3548    0.4510    2.9289 H   0  0  0  0  0  0  0  0  0  0  0  0
    1.3268    1.1724    1.6357 H   0  0  0  0  0  0  0  0  0  0  0  0
    0.0307    2.0978    2.4184 H   0  0  0  0  0  0  0  0  0  0  0  0
    0.0688    1.6239   -0.7898 H   0  0  0  0  0  0  0  0  0  0  0  0
   -1.6959    1.4244   -0.7727 H   0  0  0  0  0  0  0  0  0  0  0  0
   -0.9510    2.6386    0.2467 H   0  0  0  0  0  0  0  0  0  0  0  0
    0.6243   -2.0439   -2.3138 H   0  0  0  0  0  0  0  0  0  0  0  0
    0.3897   -3.7336   -2.3451 H   0  0  0  0  0  0  0  0  0  0  0  0
   -2.1621   -3.2853    5.2961 H   0  0  0  0  0  0  0  0  0  0  0  0
   -2.9098   -2.1270    4.3422 H   0  0  0  0  0  0  0  0  0  0  0  0
  1  2  1  0  0  0  0 
  1  3  1  0  0  0  0 
  1  4  1  0  0  0  0 
  2  5  1  0  0  0  0 
  2  6  2  0  0  0  0 
  3  7  1  0  0  0  0 
  4  8  1  0  0  0  0 
  4  9  1  0  0  0  0 
  5 10  1  0  0  0  0 
  7 11  2  0  0  0  0 
 10 12  1  0  0  0  0 
 10 13  2  0  0  0  0 
  1 14  1  0  0  0  0 
  3 15  1  0  0  0  0 
  3 16  1  0  0  0  0 
  4 17  1  0  0  0  0 
  5 18  1  0  0  0  0 
  7 19  1  0  0  0  0 
  8 20  1  0  0  0  0 
  8 21  1  0  0  0  0 
  8 22  1  0  0  0  0 
  9 23  1  0  0  0  0 
  9 24  1  0  0  0  0 
  9 25  1  0  0  0  0 
 11 26  1  0  0  0  0 
 11 27  1  0  0  0  0 
 12 28  1  0  0  0  0 
 12 29  1  0  0  0  0 
M  END
> <cdk:Title>
apronal

> <Conformer>
1

> <SuperDrugID>
SD003146

$$$$
