pentacynium chloride
  CDK     0628171801

 70 72  0  0  0  0  0  0  0  0999 V2000
   -0.8291    2.2950    6.3720 C   0  0  1  0  0  0  0  0  0  0  0  0
   -0.8890    1.1943    5.2291 C   0  0  1  0  0  0  0  0  0  0  0  0
   -1.7645    1.9176    7.3234 C   0  0  0  0  0  0  0  0  0  0  0  0
    0.5955    2.3683    6.9121 C   0  0  0  0  0  0  0  0  0  0  0  0
   -1.3181    3.6784    5.9370 C   0  0  0  0  0  0  0  0  0  0  0  0
   -0.3341   -0.2274    5.5725 C   0  0  2  0  0  0  0  0  0  0  0  0
   -2.5443    1.6018    8.1062 N   0  0  0  0  0  0  0  0  0  0  0  0
    1.6487    2.7546    6.0376 C   0  0  0  0  0  0  0  0  0  0  0  0
    0.9506    2.1262    8.2721 C   0  0  0  0  0  0  0  0  0  0  0  0
   -0.7974    4.8796    6.5090 C   0  0  0  0  0  0  0  0  0  0  0  0
   -2.3600    3.8502    4.9816 C   0  0  0  0  0  0  0  0  0  0  0  0
   -0.3310   -1.1825    4.3431 C   0  0  2  0  0  0  0  0  0  0  0  0
    2.9717    2.9046    6.4877 C   0  0  0  0  0  0  0  0  0  0  0  0
    2.2706    2.2853    8.7280 C   0  0  0  0  0  0  0  0  0  0  0  0
   -1.2494    6.1553    6.1252 C   0  0  0  0  0  0  0  0  0  0  0  0
   -2.8271    5.1238    4.6019 C   0  0  0  0  0  0  0  0  0  0  0  0
    0.1811   -2.6223    4.6677 C   0  0  1  0  0  0  0  0  0  0  0  0
    3.2817    2.6769    7.8377 C   0  0  0  0  0  0  0  0  0  0  0  0
   -2.2669    6.2779    5.1689 C   0  0  0  0  0  0  0  0  0  0  0  0
    0.2853   -3.6275    3.5242 N   0  0  1  0  0  0  0  0  0  0  0  0
    0.9491   -4.9534    3.9988 C   0  0  1  0  0  0  0  0  0  0  0  0
   -1.0692   -3.9226    2.9267 C   0  0  0  0  0  0  0  0  0  0  0  0
    1.1788   -3.0964    2.4194 C   0  0  0  0  0  0  0  0  0  0  0  0
    0.2265   -5.8049    5.1023 C   0  0  1  0  0  0  0  0  0  0  0  0
    0.8728   -7.1212    5.5533 N   0  0  1  0  0  0  0  0  0  0  0  0
    2.2738   -6.8472    6.0665 C   0  0  0  0  0  0  0  0  0  0  0  0
    0.0195   -7.6976    6.6773 C   0  0  1  0  0  0  0  0  0  0  0  0
    0.9040   -8.1343    4.4186 C   0  0  2  0  0  0  0  0  0  0  0  0
    0.3500   -9.1655    7.0668 C   0  0  1  0  0  0  0  0  0  0  0  0
    1.2323   -9.5868    4.8633 C   0  0  2  0  0  0  0  0  0  0  0  0
    0.3451  -10.0210    5.9096 O   0  0  0  0  0  0  0  0  0  0  0  0
   -1.9212    1.0368    4.9029 H   0  0  0  0  0  0  0  0  0  0  0  0
   -0.3488    1.5704    4.3568 H   0  0  0  0  0  0  0  0  0  0  0  0
   -0.9467   -0.6654    6.3640 H   0  0  0  0  0  0  0  0  0  0  0  0
    0.6884   -0.1457    5.9458 H   0  0  0  0  0  0  0  0  0  0  0  0
    1.4570    2.9467    5.0505 H   0  0  0  0  0  0  0  0  0  0  0  0
    0.2496    1.8433    8.9597 H   0  0  0  0  0  0  0  0  0  0  0  0
   -0.0749    4.8500    7.2309 H   0  0  0  0  0  0  0  0  0  0  0  0
   -2.8145    3.0486    4.5488 H   0  0  0  0  0  0  0  0  0  0  0  0
    0.3070   -0.7290    3.5822 H   0  0  0  0  0  0  0  0  0  0  0  0
   -1.3461   -1.2417    3.9468 H   0  0  0  0  0  0  0  0  0  0  0  0
    3.7072    3.1844    5.8358 H   0  0  0  0  0  0  0  0  0  0  0  0
    2.4957    2.1186    9.7119 H   0  0  0  0  0  0  0  0  0  0  0  0
   -0.8418    6.9939    6.5466 H   0  0  0  0  0  0  0  0  0  0  0  0
   -3.5802    5.2106    3.9148 H   0  0  0  0  0  0  0  0  0  0  0  0
    1.1620   -2.5149    5.1424 H   0  0  0  0  0  0  0  0  0  0  0  0
   -0.4908   -3.0144    5.4357 H   0  0  0  0  0  0  0  0  0  0  0  0
    4.2416    2.7921    8.1680 H   0  0  0  0  0  0  0  0  0  0  0  0
   -2.6055    7.2038    4.8929 H   0  0  0  0  0  0  0  0  0  0  0  0
    1.1786   -5.6733    3.1737 H   0  0  0  0  0  0  0  0  0  0  0  0
    1.9220   -4.6809    4.4126 H   0  0  0  0  0  0  0  0  0  0  0  0
   -1.4736   -3.0629    2.3865 H   0  0  0  0  0  0  0  0  0  0  0  0
   -1.0202   -4.7555    2.2201 H   0  0  0  0  0  0  0  0  0  0  0  0
   -1.7983   -4.1808    3.6959 H   0  0  0  0  0  0  0  0  0  0  0  0
    0.7365   -2.2481    1.8936 H   0  0  0  0  0  0  0  0  0  0  0  0
    2.1440   -2.7680    2.8149 H   0  0  0  0  0  0  0  0  0  0  0  0
    1.3770   -3.8548    1.6554 H   0  0  0  0  0  0  0  0  0  0  0  0
    0.1003   -5.1634    5.9789 H   0  0  0  0  0  0  0  0  0  0  0  0
   -0.7804   -6.0192    4.7339 H   0  0  0  0  0  0  0  0  0  0  0  0
    2.9475   -6.5500    5.2615 H   0  0  0  0  0  0  0  0  0  0  0  0
    2.2720   -6.0448    6.8102 H   0  0  0  0  0  0  0  0  0  0  0  0
    2.7350   -7.7193    6.5305 H   0  0  0  0  0  0  0  0  0  0  0  0
    0.0970   -7.0822    7.5787 H   0  0  0  0  0  0  0  0  0  0  0  0
   -1.0382   -7.6965    6.3902 H   0  0  0  0  0  0  0  0  0  0  0  0
    1.6357   -7.8582    3.6553 H   0  0  0  0  0  0  0  0  0  0  0  0
   -0.0719   -8.1710    3.9233 H   0  0  0  0  0  0  0  0  0  0  0  0
    1.3093   -9.2275    7.5846 H   0  0  0  0  0  0  0  0  0  0  0  0
   -0.4148   -9.5321    7.7561 H   0  0  0  0  0  0  0  0  0  0  0  0
    2.2742   -9.6681    5.1840 H   0  0  0  0  0  0  0  0  0  0  0  0
    1.0993  -10.2605    4.0138 H   0  0  0  0  0  0  0  0  0  0  0  0
  1  2  1  0  0  0  0 
  1  3  1  0  0  0  0 
  1  4  1  0  0  0  0 
  1  5  1  0  0  0  0 
  2  6  1  0  0  0  0 
  3  7  3  0  0  0  0 
  4  8  2  0  0  0  0 
  4  9  1  0  0  0  0 
  5 10  2  0  0  0  0 
  5 11  1  0  0  0  0 
  6 12  1  0  0  0  0 
  8 13  1  0  0  0  0 
  9 14  2  0  0  0  0 
 10 15  1  0  0  0  0 
 11 16  2  0  0  0  0 
 12 17  1  0  0  0  0 
 13 18  2  0  0  0  0 
 14 18  1  0  0  0  0 
 15 19  2  0  0  0  0 
 16 19  1  0  0  0  0 
 17 20  1  0  0  0  0 
 20 21  1  0  0  0  0 
 20 22  1  0  0  0  0 
 20 23  1  0  0  0  0 
 21 24  1  0  0  0  0 
 24 25  1  0  0  0  0 
 25 26  1  0  0  0  0 
 25 27  1  0  0  0  0 
 25 28  1  0  0  0  0 
 27 29  1  0  0  0  0 
 28 30  1  0  0  0  0 
 29 31  1  0  0  0  0 
 30 31  1  0  0  0  0 
  2 32  1  0  0  0  0 
  2 33  1  0  0  0  0 
  6 34  1  0  0  0  0 
  6 35  1  0  0  0  0 
  8 36  1  0  0  0  0 
  9 37  1  0  0  0  0 
 10 38  1  0  0  0  0 
 11 39  1  0  0  0  0 
 12 40  1  0  0  0  0 
 12 41  1  0  0  0  0 
 13 42  1  0  0  0  0 
 14 43  1  0  0  0  0 
 15 44  1  0  0  0  0 
 16 45  1  0  0  0  0 
 17 46  1  0  0  0  0 
 17 47  1  0  0  0  0 
 18 48  1  0  0  0  0 
 19 49  1  0  0  0  0 
 21 50  1  0  0  0  0 
 21 51  1  0  0  0  0 
 22 52  1  0  0  0  0 
 22 53  1  0  0  0  0 
 22 54  1  0  0  0  0 
 23 55  1  0  0  0  0 
 23 56  1  0  0  0  0 
 23 57  1  0  0  0  0 
 24 58  1  0  0  0  0 
 24 59  1  0  0  0  0 
 26 60  1  0  0  0  0 
 26 61  1  0  0  0  0 
 26 62  1  0  0  0  0 
 27 63  1  0  0  0  0 
 27 64  1  0  0  0  0 
 28 65  1  0  0  0  0 
 28 66  1  0  0  0  0 
 29 67  1  0  0  0  0 
 29 68  1  0  0  0  0 
 30 69  1  0  0  0  0 
 30 70  1  0  0  0  0 
M  CHG  1  20   1
M  CHG  1  25   1
M  END
> <cdk:Title>
pentacynium chloride

> <Conformer>
1

> <SuperDrugID>
SD003245

$$$$
