bufeniode
  CDK     0628171801

 47 48  0  0  0  0  0  0  0  0999 V2000
   -0.3454   -0.1843    4.6260 C   0  0  1  0  0  0  0  0  0  0  0  0
   -1.0180    0.9099    3.7317 C   0  0  2  0  0  0  0  0  0  0  0  0
    0.9235   -0.5498    4.0804 O   0  0  0  0  0  0  0  0  0  0  0  0
   -0.2591    0.2189    6.0656 C   0  0  0  0  0  0  0  0  0  0  0  0
   -1.1936    0.4816    2.3176 N   0  0  1  0  0  0  0  0  0  0  0  0
   -0.2021    2.2317    3.6670 C   0  0  0  0  0  0  0  0  0  0  0  0
   -1.4054    0.1233    6.8910 C   0  0  0  0  0  0  0  0  0  0  0  0
    0.9327    0.7263    6.6380 C   0  0  0  0  0  0  0  0  0  0  0  0
   -2.0745   -0.6602    1.9479 C   0  0  2  0  0  0  0  0  0  0  0  0
   -1.3647    0.5106    8.2428 C   0  0  0  0  0  0  0  0  0  0  0  0
    0.9779    1.1257    7.9866 C   0  0  0  0  0  0  0  0  0  0  0  0
   -2.0445   -0.8310    0.3944 C   0  0  2  0  0  0  0  0  0  0  0  0
   -3.5349   -0.4695    2.4465 C   0  0  0  0  0  0  0  0  0  0  0  0
   -3.0668    0.3489    9.3823 I   0  0  0  0  0  0  0  0  0  0  0  0
   -0.1697    1.0089    8.7958 C   0  0  0  0  0  0  0  0  0  0  0  0
    2.7239    1.9083    8.7354 I   0  0  0  0  0  0  0  0  0  0  0  0
   -0.6578   -1.1464   -0.2443 C   0  0  2  0  0  0  0  0  0  0  0  0
   -0.1296    1.3809   10.0977 O   0  0  0  0  0  0  0  0  0  0  0  0
    0.3940   -0.0982   -0.0966 C   0  0  0  0  0  0  0  0  0  0  0  0
    1.6021   -0.3775    0.5887 C   0  0  0  0  0  0  0  0  0  0  0  0
    0.2161    1.1957   -0.6458 C   0  0  0  0  0  0  0  0  0  0  0  0
    2.5888    0.6140    0.7474 C   0  0  0  0  0  0  0  0  0  0  0  0
    1.2073    2.1857   -0.4986 C   0  0  0  0  0  0  0  0  0  0  0  0
    2.3915    1.8950    0.2023 C   0  0  0  0  0  0  0  0  0  0  0  0
   -0.9422   -1.0977    4.5832 H   0  0  0  0  0  0  0  0  0  0  0  0
   -1.9966    1.1656    4.1489 H   0  0  0  0  0  0  0  0  0  0  0  0
    0.7186   -0.9017    3.1874 H   0  0  0  0  0  0  0  0  0  0  0  0
   -1.5225    1.2963    1.7945 H   0  0  0  0  0  0  0  0  0  0  0  0
   -0.7380    2.9726    3.0661 H   0  0  0  0  0  0  0  0  0  0  0  0
   -0.0572    2.6551    4.6632 H   0  0  0  0  0  0  0  0  0  0  0  0
    0.7764    2.0593    3.2110 H   0  0  0  0  0  0  0  0  0  0  0  0
   -2.2849   -0.2286    6.5081 H   0  0  0  0  0  0  0  0  0  0  0  0
    1.7767    0.8233    6.0729 H   0  0  0  0  0  0  0  0  0  0  0  0
   -1.6844   -1.5818    2.3861 H   0  0  0  0  0  0  0  0  0  0  0  0
   -2.4698    0.0572   -0.0805 H   0  0  0  0  0  0  0  0  0  0  0  0
   -2.6973   -1.6688    0.1317 H   0  0  0  0  0  0  0  0  0  0  0  0
   -3.9345    0.4847    2.0995 H   0  0  0  0  0  0  0  0  0  0  0  0
   -3.5738   -0.4920    3.5358 H   0  0  0  0  0  0  0  0  0  0  0  0
   -4.1775   -1.2735    2.0783 H   0  0  0  0  0  0  0  0  0  0  0  0
   -0.8009   -1.3092   -1.3157 H   0  0  0  0  0  0  0  0  0  0  0  0
   -0.3114   -2.0973    0.1686 H   0  0  0  0  0  0  0  0  0  0  0  0
    0.2979    0.6278   10.5571 H   0  0  0  0  0  0  0  0  0  0  0  0
    1.7775   -1.3071    0.9809 H   0  0  0  0  0  0  0  0  0  0  0  0
   -0.6347    1.4275   -1.1622 H   0  0  0  0  0  0  0  0  0  0  0  0
    3.4551    0.4008    1.2487 H   0  0  0  0  0  0  0  0  0  0  0  0
    1.0682    3.1144   -0.9061 H   0  0  0  0  0  0  0  0  0  0  0  0
    3.1115    2.6140    0.3136 H   0  0  0  0  0  0  0  0  0  0  0  0
  1  2  1  0  0  0  0 
  1  3  1  0  0  0  0 
  1  4  1  0  0  0  0 
  2  5  1  0  0  0  0 
  2  6  1  0  0  0  0 
  4  7  2  0  0  0  0 
  4  8  1  0  0  0  0 
  5  9  1  0  0  0  0 
  7 10  1  0  0  0  0 
  8 11  2  0  0  0  0 
  9 12  1  0  0  0  0 
  9 13  1  0  0  0  0 
 10 14  1  0  0  0  0 
 10 15  2  0  0  0  0 
 11 15  1  0  0  0  0 
 11 16  1  0  0  0  0 
 12 17  1  0  0  0  0 
 15 18  1  0  0  0  0 
 17 19  1  0  0  0  0 
 19 20  2  0  0  0  0 
 19 21  1  0  0  0  0 
 20 22  1  0  0  0  0 
 21 23  2  0  0  0  0 
 22 24  2  0  0  0  0 
 23 24  1  0  0  0  0 
  1 25  1  0  0  0  0 
  2 26  1  0  0  0  0 
  3 27  1  0  0  0  0 
  5 28  1  0  0  0  0 
  6 29  1  0  0  0  0 
  6 30  1  0  0  0  0 
  6 31  1  0  0  0  0 
  7 32  1  0  0  0  0 
  8 33  1  0  0  0  0 
  9 34  1  0  0  0  0 
 12 35  1  0  0  0  0 
 12 36  1  0  0  0  0 
 13 37  1  0  0  0  0 
 13 38  1  0  0  0  0 
 13 39  1  0  0  0  0 
 17 40  1  0  0  0  0 
 17 41  1  0  0  0  0 
 18 42  1  0  0  0  0 
 20 43  1  0  0  0  0 
 21 44  1  0  0  0  0 
 22 45  1  0  0  0  0 
 23 46  1  0  0  0  0 
 24 47  1  0  0  0  0 
M  END
> <cdk:Title>
bufeniode

> <Conformer>
1

> <SuperDrugID>
SD002644

$$$$
