sulfanilamide
  CDK     0628171801

 19 19  0  0  0  0  0  0  0  0999 V2000
    1.0065   -3.0142    4.7285 N   0  0  0  0  0  0  0  0  0  0  0  0
    0.5899   -2.3205    3.6517 C   0  0  0  0  0  0  0  0  0  0  0  0
   -0.7152   -1.7925    3.6064 C   0  0  0  0  0  0  0  0  0  0  0  0
   -1.1480   -1.0724    2.4769 C   0  0  0  0  0  0  0  0  0  0  0  0
   -0.2791   -0.8679    1.3830 C   0  0  0  0  0  0  0  0  0  0  0  0
    1.0249   -1.4015    1.4322 C   0  0  0  0  0  0  0  0  0  0  0  0
    1.4592   -2.1220    2.5613 C   0  0  0  0  0  0  0  0  0  0  0  0
   -0.7924    0.0661   -0.0324 S   0  0  2  0  0  0  0  0  0  0  0  0
   -0.2868   -0.7405   -1.5108 N   0  0  2  0  0  0  0  0  0  0  0  0
   -0.1106    1.5182   -0.0021 O   0  0  0  0  0  0  0  0  0  0  0  0
   -2.3857    0.2445   -0.0788 O   0  0  0  0  0  0  0  0  0  0  0  0
    0.4110   -3.1442    5.4837 H   0  0  0  0  0  0  0  0  0  0  0  0
    1.9027   -3.3880    4.7521 H   0  0  0  0  0  0  0  0  0  0  0  0
   -1.3521   -1.9284    4.3966 H   0  0  0  0  0  0  0  0  0  0  0  0
   -2.0988   -0.6965    2.4661 H   0  0  0  0  0  0  0  0  0  0  0  0
    1.6700   -1.2652    0.6505 H   0  0  0  0  0  0  0  0  0  0  0  0
    2.4119   -2.4952    2.5850 H   0  0  0  0  0  0  0  0  0  0  0  0
   -0.6022   -0.1590   -2.2906 H   0  0  0  0  0  0  0  0  0  0  0  0
   -0.8119   -1.6162   -1.5642 H   0  0  0  0  0  0  0  0  0  0  0  0
  1  2  1  0  0  0  0 
  2  3  2  0  0  0  0 
  3  4  1  0  0  0  0 
  4  5  2  0  0  0  0 
  5  6  1  0  0  0  0 
  6  7  2  0  0  0  0 
  2  7  1  0  0  0  0 
  5  8  1  0  0  0  0 
  8  9  1  0  0  0  0 
  8 10  2  0  0  0  0 
  8 11  2  0  0  0  0 
  1 12  1  0  0  0  0 
  1 13  1  0  0  0  0 
  3 14  1  0  0  0  0 
  4 15  1  0  0  0  0 
  6 16  1  0  0  0  0 
  7 17  1  0  0  0  0 
  9 18  1  0  0  0  0 
  9 19  1  0  0  0  0 
M  END
> <cdk:Title>
sulfanilamide

> <Conformer>
1

> <SuperDrugID>
SD002267

$$$$
