loxoprofen
  CDK     0628171801

 36 37  0  0  0  0  0  0  0  0999 V2000
    1.8152   -0.5408    3.5795 C   0  0  0  0  0  0  0  0  0  0  0  0
    2.5678    0.2302    4.6995 C   0  0  2  0  0  0  0  0  0  0  0  0
    1.7171    0.4203    5.9041 C   0  0  0  0  0  0  0  0  0  0  0  0
    2.0306   -0.1876    7.0735 O   0  0  0  0  0  0  0  0  0  0  0  0
    0.6861    1.1313    5.8851 O   0  0  0  0  0  0  0  0  0  0  0  0
    3.1485    1.5229    4.2068 C   0  0  0  0  0  0  0  0  0  0  0  0
    4.5495    1.7318    4.1844 C   0  0  0  0  0  0  0  0  0  0  0  0
    5.0999    2.9350    3.7033 C   0  0  0  0  0  0  0  0  0  0  0  0
    4.2638    3.9810    3.2524 C   0  0  0  0  0  0  0  0  0  0  0  0
    4.8263    5.2559    2.7255 C   0  0  2  0  0  0  0  0  0  0  0  0
    4.5319    5.4529    1.2065 C   0  0  2  0  0  0  0  0  0  0  0  0
    5.2091    4.3998    0.2937 C   0  0  1  0  0  0  0  0  0  0  0  0
    5.4578    5.1305   -1.0391 C   0  0  2  0  0  0  0  0  0  0  0  0
    5.7096    6.5952   -0.6375 C   0  0  1  0  0  0  0  0  0  0  0  0
    5.0346    6.7226    0.6557 C   0  0  0  0  0  0  0  0  0  0  0  0
    4.8766    7.8319    1.2168 O   0  0  0  0  0  0  0  0  0  0  0  0
    2.8652    3.7909    3.2999 C   0  0  0  0  0  0  0  0  0  0  0  0
    2.3197    2.5738    3.7437 C   0  0  0  0  0  0  0  0  0  0  0  0
    0.9557    0.0213    3.2097 H   0  0  0  0  0  0  0  0  0  0  0  0
    2.4894   -0.7341    2.7420 H   0  0  0  0  0  0  0  0  0  0  0  0
    1.4593   -1.5036    3.9533 H   0  0  0  0  0  0  0  0  0  0  0  0
    3.3848   -0.4320    5.0036 H   0  0  0  0  0  0  0  0  0  0  0  0
    1.4657   -0.0515    7.8648 H   0  0  0  0  0  0  0  0  0  0  0  0
    5.1895    1.0066    4.5161 H   0  0  0  0  0  0  0  0  0  0  0  0
    6.1184    3.0388    3.6825 H   0  0  0  0  0  0  0  0  0  0  0  0
    5.9084    5.3045    2.8843 H   0  0  0  0  0  0  0  0  0  0  0  0
    4.3881    6.0815    3.2941 H   0  0  0  0  0  0  0  0  0  0  0  0
    3.4515    5.4349    1.0358 H   0  0  0  0  0  0  0  0  0  0  0  0
    6.1680    4.0742    0.7075 H   0  0  0  0  0  0  0  0  0  0  0  0
    4.5744    3.5224    0.1579 H   0  0  0  0  0  0  0  0  0  0  0  0
    4.5692    5.0609   -1.6728 H   0  0  0  0  0  0  0  0  0  0  0  0
    6.3100    4.7104   -1.5780 H   0  0  0  0  0  0  0  0  0  0  0  0
    6.7792    6.7876   -0.5180 H   0  0  0  0  0  0  0  0  0  0  0  0
    5.2858    7.2844   -1.3719 H   0  0  0  0  0  0  0  0  0  0  0  0
    2.2332    4.5406    3.0097 H   0  0  0  0  0  0  0  0  0  0  0  0
    1.3039    2.4629    3.7262 H   0  0  0  0  0  0  0  0  0  0  0  0
  2  1  1  0  0  0  0 
  2  3  1  0  0  0  0 
  3  4  1  0  0  0  0 
  3  5  2  0  0  0  0 
  2  6  1  0  0  0  0 
  6  7  2  0  0  0  0 
  7  8  1  0  0  0  0 
  8  9  2  0  0  0  0 
  9 10  1  0  0  0  0 
 10 11  1  0  0  0  0 
 11 12  1  0  0  0  0 
 12 13  1  0  0  0  0 
 13 14  1  0  0  0  0 
 14 15  1  0  0  0  0 
 11 15  1  0  0  0  0 
 15 16  2  0  0  0  0 
  9 17  1  0  0  0  0 
 17 18  2  0  0  0  0 
  6 18  1  0  0  0  0 
  1 19  1  0  0  0  0 
  1 20  1  0  0  0  0 
  1 21  1  0  0  0  0 
  2 22  1  0  0  0  0 
  4 23  1  0  0  0  0 
  7 24  1  0  0  0  0 
  8 25  1  0  0  0  0 
 10 26  1  0  0  0  0 
 10 27  1  0  0  0  0 
 11 28  1  0  0  0  0 
 12 29  1  0  0  0  0 
 12 30  1  0  0  0  0 
 13 31  1  0  0  0  0 
 13 32  1  0  0  0  0 
 14 33  1  0  0  0  0 
 14 34  1  0  0  0  0 
 17 35  1  0  0  0  0 
 18 36  1  0  0  0  0 
M  END
> <cdk:Title>
loxoprofen

> <Conformer>
1

> <SuperDrugID>
SD001429

$$$$
