dibutylsuccinate
  CDK     0628171801

 38 37  0  0  0  0  0  0  0  0999 V2000
   -5.6564    0.9975   -1.2916 C   0  0  0  0  0  0  0  0  0  0  0  0
   -4.5076    0.3592   -0.6279 C   0  0  2  0  0  0  0  0  0  0  0  0
   -5.9935    0.5932   -2.5501 O   0  0  0  0  0  0  0  0  0  0  0  0
   -6.2885    1.9065   -0.7018 O   0  0  0  0  0  0  0  0  0  0  0  0
   -3.3215    1.3438   -0.4361 C   0  0  2  0  0  0  0  0  0  0  0  0
   -7.0826    1.0898   -3.3333 C   0  0  2  0  0  0  0  0  0  0  0  0
   -2.1248    0.6383    0.0550 C   0  0  0  0  0  0  0  0  0  0  0  0
   -7.0241    0.4940   -4.7587 C   0  0  1  0  0  0  0  0  0  0  0  0
   -1.5890   -0.3063   -0.7662 O   0  0  0  0  0  0  0  0  0  0  0  0
   -1.6400    0.8951    1.1826 O   0  0  0  0  0  0  0  0  0  0  0  0
   -5.7916    0.9974   -5.5590 C   0  0  1  0  0  0  0  0  0  0  0  0
   -0.4737   -1.1724   -0.5445 C   0  0  1  0  0  0  0  0  0  0  0  0
   -5.7050    0.3998   -6.9809 C   0  0  0  0  0  0  0  0  0  0  0  0
    0.5668   -0.9966   -1.6851 C   0  0  1  0  0  0  0  0  0  0  0  0
    1.0934   -2.3463   -2.2447 C   0  0  1  0  0  0  0  0  0  0  0  0
    2.2901   -2.1712   -3.2046 C   0  0  0  0  0  0  0  0  0  0  0  0
   -4.1874   -0.4946   -1.2343 H   0  0  0  0  0  0  0  0  0  0  0  0
   -4.8281   -0.0262    0.3435 H   0  0  0  0  0  0  0  0  0  0  0  0
   -3.6046    2.1396    0.2602 H   0  0  0  0  0  0  0  0  0  0  0  0
   -3.0668    1.8093   -1.3925 H   0  0  0  0  0  0  0  0  0  0  0  0
   -7.0310    2.1804   -3.3901 H   0  0  0  0  0  0  0  0  0  0  0  0
   -8.0221    0.8087   -2.8515 H   0  0  0  0  0  0  0  0  0  0  0  0
   -7.0015   -0.5972   -4.6879 H   0  0  0  0  0  0  0  0  0  0  0  0
   -7.9375    0.7782   -5.2876 H   0  0  0  0  0  0  0  0  0  0  0  0
   -5.8395    2.0870   -5.6428 H   0  0  0  0  0  0  0  0  0  0  0  0
   -4.8739    0.7411   -5.0217 H   0  0  0  0  0  0  0  0  0  0  0  0
   -0.0024   -0.9941    0.4277 H   0  0  0  0  0  0  0  0  0  0  0  0
   -0.8809   -2.1853   -0.5357 H   0  0  0  0  0  0  0  0  0  0  0  0
   -4.8298    0.8024   -7.4956 H   0  0  0  0  0  0  0  0  0  0  0  0
   -5.6101   -0.6869   -6.9305 H   0  0  0  0  0  0  0  0  0  0  0  0
   -6.5962    0.6545   -7.5584 H   0  0  0  0  0  0  0  0  0  0  0  0
    0.1199   -0.4380   -2.5140 H   0  0  0  0  0  0  0  0  0  0  0  0
    1.4007   -0.3989   -1.3044 H   0  0  0  0  0  0  0  0  0  0  0  0
    1.4048   -2.9894   -1.4171 H   0  0  0  0  0  0  0  0  0  0  0  0
    0.2815   -2.8510   -2.7792 H   0  0  0  0  0  0  0  0  0  0  0  0
    2.0342   -1.4966   -4.0251 H   0  0  0  0  0  0  0  0  0  0  0  0
    2.5690   -3.1407   -3.6212 H   0  0  0  0  0  0  0  0  0  0  0  0
    3.1472   -1.7652   -2.6632 H   0  0  0  0  0  0  0  0  0  0  0  0
  1  2  1  0  0  0  0 
  1  3  1  0  0  0  0 
  1  4  2  0  0  0  0 
  2  5  1  0  0  0  0 
  3  6  1  0  0  0  0 
  5  7  1  0  0  0  0 
  6  8  1  0  0  0  0 
  7  9  1  0  0  0  0 
  7 10  2  0  0  0  0 
  8 11  1  0  0  0  0 
  9 12  1  0  0  0  0 
 11 13  1  0  0  0  0 
 12 14  1  0  0  0  0 
 14 15  1  0  0  0  0 
 15 16  1  0  0  0  0 
  2 17  1  0  0  0  0 
  2 18  1  0  0  0  0 
  5 19  1  0  0  0  0 
  5 20  1  0  0  0  0 
  6 21  1  0  0  0  0 
  6 22  1  0  0  0  0 
  8 23  1  0  0  0  0 
  8 24  1  0  0  0  0 
 11 25  1  0  0  0  0 
 11 26  1  0  0  0  0 
 12 27  1  0  0  0  0 
 12 28  1  0  0  0  0 
 13 29  1  0  0  0  0 
 13 30  1  0  0  0  0 
 13 31  1  0  0  0  0 
 14 32  1  0  0  0  0 
 14 33  1  0  0  0  0 
 15 34  1  0  0  0  0 
 15 35  1  0  0  0  0 
 16 36  1  0  0  0  0 
 16 37  1  0  0  0  0 
 16 38  1  0  0  0  0 
M  END
> <cdk:Title>
dibutylsuccinate

> <Conformer>
1

> <SuperDrugID>
SD003555

$$$$
