ribociclib
  CDK     0628171802

 62 66  0  0  0  0  0  0  0  0999 V2000
   -2.2470   -6.8063   -3.3215 C   0  0  0  0  0  0  0  0  0  0  0  0
   -1.6900   -5.6454   -3.7669 N   0  0  0  0  0  0  0  0  0  0  0  0
   -1.6641   -4.5088   -3.0115 C   0  0  0  0  0  0  0  0  0  0  0  0
   -2.2329   -4.5295   -1.7732 N   0  0  0  0  0  0  0  0  0  0  0  0
   -2.7996   -5.6520   -1.2723 C   0  0  0  0  0  0  0  0  0  0  0  0
   -2.8136   -6.8112   -2.0374 C   0  0  0  0  0  0  0  0  0  0  0  0
   -3.3904   -5.8712   -0.0743 N   0  0  0  0  0  0  0  0  0  0  0  0
   -3.7908   -7.1760   -0.0763 C   0  0  0  0  0  0  0  0  0  0  0  0
   -3.4441   -7.7848   -1.2864 C   0  0  0  0  0  0  0  0  0  0  0  0
   -3.5634   -4.8899    0.9863 C   0  0  2  0  0  0  0  0  0  0  0  0
   -4.4691   -7.8618    0.9516 C   0  0  0  0  0  0  0  0  0  0  0  0
   -4.4462   -3.6735    0.6128 C   0  0  2  0  0  0  0  0  0  0  0  0
   -4.0538   -2.5430    1.5916 C   0  0  1  0  0  0  0  0  0  0  0  0
   -2.6982   -2.9432    2.2162 C   0  0  2  0  0  0  0  0  0  0  0  0
   -2.2569   -4.2366    1.5006 C   0  0  2  0  0  0  0  0  0  0  0  0
   -3.8739   -8.3538    2.1055 N   0  0  0  0  0  0  0  0  0  0  0  0
   -5.6975   -7.9938    0.7381 O   0  0  0  0  0  0  0  0  0  0  0  0
   -4.6714   -8.9871    3.1361 C   0  0  0  0  0  0  0  0  0  0  0  0
   -2.4549   -8.2450    2.3672 C   0  0  0  0  0  0  0  0  0  0  0  0
   -1.0185   -3.4151   -3.4973 N   0  0  0  0  0  0  0  0  0  0  0  0
   -0.6755   -2.3045   -2.7807 C   0  0  0  0  0  0  0  0  0  0  0  0
   -1.3266   -1.9444   -1.6390 N   0  0  0  0  0  0  0  0  0  0  0  0
   -0.9461   -0.9154   -0.8449 C   0  0  0  0  0  0  0  0  0  0  0  0
    0.1949   -0.1591   -1.1784 C   0  0  0  0  0  0  0  0  0  0  0  0
    0.8642   -0.4614   -2.3847 C   0  0  0  0  0  0  0  0  0  0  0  0
    0.4255   -1.5264   -3.1960 C   0  0  0  0  0  0  0  0  0  0  0  0
    0.6571    0.8149   -0.3369 N   0  0  0  0  0  0  0  0  0  0  0  0
    1.2526    0.4604    0.9316 C   0  0  2  0  0  0  0  0  0  0  0  0
    0.5965    1.2629    2.0817 C   0  0  2  0  0  0  0  0  0  0  0  0
    0.5705    2.7085    1.7596 N   0  0  1  0  0  0  0  0  0  0  0  0
   -0.0967    3.0084    0.4714 C   0  0  1  0  0  0  0  0  0  0  0  0
    0.5517    2.2108   -0.6892 C   0  0  2  0  0  0  0  0  0  0  0  0
   -2.2382   -7.6458   -3.9036 H   0  0  0  0  0  0  0  0  0  0  0  0
   -3.6214   -8.7531   -1.5670 H   0  0  0  0  0  0  0  0  0  0  0  0
   -4.0365   -5.3649    1.8519 H   0  0  0  0  0  0  0  0  0  0  0  0
   -5.5093   -3.9181    0.6985 H   0  0  0  0  0  0  0  0  0  0  0  0
   -4.2508   -3.3469   -0.4107 H   0  0  0  0  0  0  0  0  0  0  0  0
   -3.9780   -1.5861    1.0667 H   0  0  0  0  0  0  0  0  0  0  0  0
   -4.8076   -2.4436    2.3771 H   0  0  0  0  0  0  0  0  0  0  0  0
   -2.8185   -3.1345    3.2871 H   0  0  0  0  0  0  0  0  0  0  0  0
   -1.9543   -2.1506    2.0933 H   0  0  0  0  0  0  0  0  0  0  0  0
   -1.5887   -3.9740    0.6794 H   0  0  0  0  0  0  0  0  0  0  0  0
   -1.7190   -4.9009    2.1803 H   0  0  0  0  0  0  0  0  0  0  0  0
   -4.9400   -8.2345    3.8829 H   0  0  0  0  0  0  0  0  0  0  0  0
   -5.5884   -9.4379    2.7504 H   0  0  0  0  0  0  0  0  0  0  0  0
   -4.1211   -9.7894    3.6356 H   0  0  0  0  0  0  0  0  0  0  0  0
   -1.9209   -7.6015    1.6701 H   0  0  0  0  0  0  0  0  0  0  0  0
   -2.2879   -7.8440    3.3681 H   0  0  0  0  0  0  0  0  0  0  0  0
   -1.9996   -9.2332    2.3088 H   0  0  0  0  0  0  0  0  0  0  0  0
   -0.6919   -3.4709   -4.4090 H   0  0  0  0  0  0  0  0  0  0  0  0
   -1.4865   -0.7068   -0.0042 H   0  0  0  0  0  0  0  0  0  0  0  0
    1.6862    0.0786   -2.6658 H   0  0  0  0  0  0  0  0  0  0  0  0
    0.9234   -1.7446   -4.0639 H   0  0  0  0  0  0  0  0  0  0  0  0
    2.3181    0.6985    0.8917 H   0  0  0  0  0  0  0  0  0  0  0  0
    1.1635   -0.6077    1.1531 H   0  0  0  0  0  0  0  0  0  0  0  0
    1.1699    1.1219    3.0001 H   0  0  0  0  0  0  0  0  0  0  0  0
   -0.4217    0.9040    2.2568 H   0  0  0  0  0  0  0  0  0  0  0  0
    0.0384    3.1787    2.4964 H   0  0  0  0  0  0  0  0  0  0  0  0
   -1.1613    2.7666    0.5443 H   0  0  0  0  0  0  0  0  0  0  0  0
   -0.0041    4.0791    0.2759 H   0  0  0  0  0  0  0  0  0  0  0  0
   -0.0448    2.3677   -1.5939 H   0  0  0  0  0  0  0  0  0  0  0  0
    1.5547    2.6019   -0.8777 H   0  0  0  0  0  0  0  0  0  0  0  0
  1  2  1  0  0  0  0 
  1  6  2  0  0  0  0 
  2  3  2  0  0  0  0 
  3  4  1  0  0  0  0 
  4  5  2  0  0  0  0 
  5  6  1  0  0  0  0 
  7  8  1  0  0  0  0 
  8  9  2  0  0  0  0 
  5  7  1  0  0  0  0 
  6  9  1  0  0  0  0 
  7 10  1  0  0  0  0 
  8 11  1  0  0  0  0 
 12 13  1  0  0  0  0 
 13 14  1  0  0  0  0 
 14 15  1  0  0  0  0 
 10 12  1  0  0  0  0 
 10 15  1  0  0  0  0 
 11 16  1  0  0  0  0 
 11 17  2  0  0  0  0 
 16 18  1  0  0  0  0 
 16 19  1  0  0  0  0 
  3 20  1  0  0  0  0 
 20 21  1  0  0  0  0 
 22 23  1  0  0  0  0 
 23 24  2  0  0  0  0 
 24 25  1  0  0  0  0 
 25 26  2  0  0  0  0 
 21 22  2  0  0  0  0 
 21 26  1  0  0  0  0 
 24 27  1  0  0  0  0 
 28 29  1  0  0  0  0 
 29 30  1  0  0  0  0 
 30 31  1  0  0  0  0 
 31 32  1  0  0  0  0 
 27 28  1  0  0  0  0 
 27 32  1  0  0  0  0 
  1 33  1  0  0  0  0 
  9 34  1  0  0  0  0 
 10 35  1  0  0  0  0 
 12 36  1  0  0  0  0 
 12 37  1  0  0  0  0 
 13 38  1  0  0  0  0 
 13 39  1  0  0  0  0 
 14 40  1  0  0  0  0 
 14 41  1  0  0  0  0 
 15 42  1  0  0  0  0 
 15 43  1  0  0  0  0 
 18 44  1  0  0  0  0 
 18 45  1  0  0  0  0 
 18 46  1  0  0  0  0 
 19 47  1  0  0  0  0 
 19 48  1  0  0  0  0 
 19 49  1  0  0  0  0 
 20 50  1  0  0  0  0 
 23 51  1  0  0  0  0 
 25 52  1  0  0  0  0 
 26 53  1  0  0  0  0 
 28 54  1  0  0  0  0 
 28 55  1  0  0  0  0 
 29 56  1  0  0  0  0 
 29 57  1  0  0  0  0 
 30 58  1  0  0  0  0 
 31 59  1  0  0  0  0 
 31 60  1  0  0  0  0 
 32 61  1  0  0  0  0 
 32 62  1  0  0  0  0 
M  END
> <cdk:Title>
ribociclib

> <Conformer>
1

> <SuperDrugID>
SD003945

$$$$
