ethyl dibunate
  CDK     0628171801

 52 53  0  0  0  0  0  0  0  0999 V2000
   -2.0350    1.1893   -0.0157 S   0  0  1  0  0  0  0  0  0  0  0  0
   -0.3224    1.2127    0.1958 O   0  0  0  0  0  0  0  0  0  0  0  0
   -2.3191    0.4480   -1.4100 O   0  0  0  0  0  0  0  0  0  0  0  0
   -2.6805    0.3315    1.1751 O   0  0  0  0  0  0  0  0  0  0  0  0
   -2.7281    2.8327   -0.0170 C   0  0  0  0  0  0  0  0  0  0  0  0
    0.2484   -0.1067    0.1096 C   0  0  1  0  0  0  0  0  0  0  0  0
   -3.9942    3.1448   -0.5885 C   0  0  0  0  0  0  0  0  0  0  0  0
   -1.9700    3.8647    0.5810 C   0  0  0  0  0  0  0  0  0  0  0  0
    1.7845   -0.0230    0.0812 C   0  0  0  0  0  0  0  0  0  0  0  0
   -4.4322    4.4972   -0.6217 C   0  0  0  0  0  0  0  0  0  0  0  0
   -4.8622    2.1670   -1.1257 C   0  0  0  0  0  0  0  0  0  0  0  0
   -2.3933    5.2206    0.6068 C   0  0  0  0  0  0  0  0  0  0  0  0
   -3.6344    5.4989   -0.0240 C   0  0  0  0  0  0  0  0  0  0  0  0
   -5.6622    4.8342   -1.2449 C   0  0  0  0  0  0  0  0  0  0  0  0
   -6.0785    2.5163   -1.7343 C   0  0  0  0  0  0  0  0  0  0  0  0
   -1.5987    6.3501    1.2600 C   0  0  2  0  0  0  0  0  0  0  0  0
   -6.5138    3.8614   -1.8352 C   0  0  0  0  0  0  0  0  0  0  0  0
   -0.2453    5.8926    1.9143 C   0  0  0  0  0  0  0  0  0  0  0  0
   -2.4518    7.0084    2.4006 C   0  0  0  0  0  0  0  0  0  0  0  0
   -1.2375    7.4420    0.1930 C   0  0  0  0  0  0  0  0  0  0  0  0
   -7.8232    4.2662   -2.5089 C   0  0  1  0  0  0  0  0  0  0  0  0
   -8.7777    4.9012   -1.4424 C   0  0  0  0  0  0  0  0  0  0  0  0
   -7.5538    5.3094   -3.6488 C   0  0  0  0  0  0  0  0  0  0  0  0
   -8.6077    3.0784   -3.1789 C   0  0  0  0  0  0  0  0  0  0  0  0
   -0.0575   -0.7042    0.9732 H   0  0  0  0  0  0  0  0  0  0  0  0
   -0.0645   -0.6173   -0.8060 H   0  0  0  0  0  0  0  0  0  0  0  0
   -1.0839    3.6036    1.0098 H   0  0  0  0  0  0  0  0  0  0  0  0
    2.2054   -1.0295    0.0461 H   0  0  0  0  0  0  0  0  0  0  0  0
    2.1136    0.5244   -0.8039 H   0  0  0  0  0  0  0  0  0  0  0  0
    2.1566    0.4839    0.9721 H   0  0  0  0  0  0  0  0  0  0  0  0
   -4.6395    1.1738   -1.0758 H   0  0  0  0  0  0  0  0  0  0  0  0
   -3.9786    6.4621   -0.0483 H   0  0  0  0  0  0  0  0  0  0  0  0
   -5.9445    5.8176   -1.2663 H   0  0  0  0  0  0  0  0  0  0  0  0
   -6.6413    1.7477   -2.0986 H   0  0  0  0  0  0  0  0  0  0  0  0
    0.2827    6.7342    2.3712 H   0  0  0  0  0  0  0  0  0  0  0  0
   -0.4219    5.1511    2.6991 H   0  0  0  0  0  0  0  0  0  0  0  0
    0.4212    5.4545    1.1657 H   0  0  0  0  0  0  0  0  0  0  0  0
   -1.8898    7.7993    2.9060 H   0  0  0  0  0  0  0  0  0  0  0  0
   -2.7379    6.2623    3.1481 H   0  0  0  0  0  0  0  0  0  0  0  0
   -3.3643    7.4633    2.0091 H   0  0  0  0  0  0  0  0  0  0  0  0
   -0.6355    8.2405    0.6355 H   0  0  0  0  0  0  0  0  0  0  0  0
   -2.1316    7.9093   -0.2238 H   0  0  0  0  0  0  0  0  0  0  0  0
   -0.6675    7.0028   -0.6305 H   0  0  0  0  0  0  0  0  0  0  0  0
   -9.7461    5.1597   -1.8803 H   0  0  0  0  0  0  0  0  0  0  0  0
   -8.3554    5.8173   -1.0265 H   0  0  0  0  0  0  0  0  0  0  0  0
   -8.9539    4.2034   -0.6197 H   0  0  0  0  0  0  0  0  0  0  0  0
   -8.4802    5.5799   -4.1646 H   0  0  0  0  0  0  0  0  0  0  0  0
   -6.8609    4.9015   -4.3893 H   0  0  0  0  0  0  0  0  0  0  0  0
   -7.1272    6.2335   -3.2572 H   0  0  0  0  0  0  0  0  0  0  0  0
   -9.5319    3.4232   -3.6523 H   0  0  0  0  0  0  0  0  0  0  0  0
   -8.0007    2.5987   -3.9525 H   0  0  0  0  0  0  0  0  0  0  0  0
   -8.8869    2.3220   -2.4406 H   0  0  0  0  0  0  0  0  0  0  0  0
  1  2  1  0  0  0  0 
  1  3  2  0  0  0  0 
  1  4  2  0  0  0  0 
  1  5  1  0  0  0  0 
  2  6  1  0  0  0  0 
  5  7  2  0  0  0  0 
  5  8  1  0  0  0  0 
  6  9  1  0  0  0  0 
  7 10  1  0  0  0  0 
  7 11  1  0  0  0  0 
  8 12  2  0  0  0  0 
 10 13  2  0  0  0  0 
 10 14  1  0  0  0  0 
 11 15  2  0  0  0  0 
 12 13  1  0  0  0  0 
 12 16  1  0  0  0  0 
 14 17  2  0  0  0  0 
 15 17  1  0  0  0  0 
 16 18  1  0  0  0  0 
 16 19  1  0  0  0  0 
 16 20  1  0  0  0  0 
 17 21  1  0  0  0  0 
 21 22  1  0  0  0  0 
 21 23  1  0  0  0  0 
 21 24  1  0  0  0  0 
  6 25  1  0  0  0  0 
  6 26  1  0  0  0  0 
  8 27  1  0  0  0  0 
  9 28  1  0  0  0  0 
  9 29  1  0  0  0  0 
  9 30  1  0  0  0  0 
 11 31  1  0  0  0  0 
 13 32  1  0  0  0  0 
 14 33  1  0  0  0  0 
 15 34  1  0  0  0  0 
 18 35  1  0  0  0  0 
 18 36  1  0  0  0  0 
 18 37  1  0  0  0  0 
 19 38  1  0  0  0  0 
 19 39  1  0  0  0  0 
 19 40  1  0  0  0  0 
 20 41  1  0  0  0  0 
 20 42  1  0  0  0  0 
 20 43  1  0  0  0  0 
 22 44  1  0  0  0  0 
 22 45  1  0  0  0  0 
 22 46  1  0  0  0  0 
 23 47  1  0  0  0  0 
 23 48  1  0  0  0  0 
 23 49  1  0  0  0  0 
 24 50  1  0  0  0  0 
 24 51  1  0  0  0  0 
 24 52  1  0  0  0  0 
M  END
> <cdk:Title>
ethyl dibunate

> <Conformer>
1

> <SuperDrugID>
SD002767

$$$$
