isotretinoin
  CDK     0628171801

 50 50  0  0  0  0  0  0  0  0999 V2000
    1.6899   -5.2220    1.5071 C   0  0  0  0  0  0  0  0  0  0  0  0
    1.8130   -4.2514    0.4206 C   0  0  0  0  0  0  0  0  0  0  0  0
    0.7545   -3.4370    0.1680 C   0  0  0  0  0  0  0  0  0  0  0  0
    0.6721   -2.1846    0.6500 C   0  0  0  0  0  0  0  0  0  0  0  0
   -0.3845   -1.3501    0.3858 C   0  0  0  0  0  0  0  0  0  0  0  0
   -1.4942   -1.4048    1.1810 C   0  0  0  0  0  0  0  0  0  0  0  0
   -1.6473   -2.4050    2.2509 C   0  0  0  0  0  0  0  0  0  0  0  0
   -2.6348   -0.4950    1.0001 C   0  0  2  0  0  0  0  0  0  0  0  0
   -2.3606    0.7615    0.1453 C   0  0  2  0  0  0  0  0  0  0  0  0
   -1.5670    0.3552   -1.1093 C   0  0  2  0  0  0  0  0  0  0  0  0
   -0.2220   -0.3840   -0.7523 C   0  0  2  0  0  0  0  0  0  0  0  0
    0.2371   -1.1028   -2.0735 C   0  0  0  0  0  0  0  0  0  0  0  0
    0.8724    0.6819   -0.3855 C   0  0  0  0  0  0  0  0  0  0  0  0
    2.9166   -4.1398   -0.3537 C   0  0  0  0  0  0  0  0  0  0  0  0
    4.0572   -4.8567   -0.1973 C   0  0  0  0  0  0  0  0  0  0  0  0
    4.7169   -5.4015   -1.2341 C   0  0  0  0  0  0  0  0  0  0  0  0
    5.8935   -6.0699   -1.0839 C   0  0  0  0  0  0  0  0  0  0  0  0
    7.0848   -5.3322   -1.5028 C   0  0  0  0  0  0  0  0  0  0  0  0
    5.9910   -7.3150   -0.5599 C   0  0  0  0  0  0  0  0  0  0  0  0
    4.9667   -8.1386   -0.1158 C   0  0  0  0  0  0  0  0  0  0  0  0
    3.6620   -7.9909   -0.4475 O   0  0  0  0  0  0  0  0  0  0  0  0
    5.2380   -9.1065    0.6307 O   0  0  0  0  0  0  0  0  0  0  0  0
    0.7217   -5.1695    2.0151 H   0  0  0  0  0  0  0  0  0  0  0  0
    1.7984   -6.2324    1.1072 H   0  0  0  0  0  0  0  0  0  0  0  0
    2.4650   -5.0513    2.2578 H   0  0  0  0  0  0  0  0  0  0  0  0
    0.0219   -3.7996   -0.4001 H   0  0  0  0  0  0  0  0  0  0  0  0
    1.3977   -1.8269    1.2342 H   0  0  0  0  0  0  0  0  0  0  0  0
   -1.7306   -3.3992    1.8085 H   0  0  0  0  0  0  0  0  0  0  0  0
   -2.5375   -2.2438    2.8611 H   0  0  0  0  0  0  0  0  0  0  0  0
   -0.7927   -2.3887    2.9292 H   0  0  0  0  0  0  0  0  0  0  0  0
   -2.9902   -0.1340    1.9706 H   0  0  0  0  0  0  0  0  0  0  0  0
   -3.4480   -1.0659    0.5409 H   0  0  0  0  0  0  0  0  0  0  0  0
   -1.7981    1.4965    0.7254 H   0  0  0  0  0  0  0  0  0  0  0  0
   -3.3102    1.2205   -0.1437 H   0  0  0  0  0  0  0  0  0  0  0  0
   -1.3787    1.2474   -1.7137 H   0  0  0  0  0  0  0  0  0  0  0  0
   -2.2144   -0.3003   -1.7017 H   0  0  0  0  0  0  0  0  0  0  0  0
    1.2421   -1.5169   -1.9746 H   0  0  0  0  0  0  0  0  0  0  0  0
    0.2560   -0.4044   -2.9141 H   0  0  0  0  0  0  0  0  0  0  0  0
   -0.4431   -1.9196   -2.3272 H   0  0  0  0  0  0  0  0  0  0  0  0
    0.9667    1.4364   -1.1712 H   0  0  0  0  0  0  0  0  0  0  0  0
    0.6276    1.1931    0.5473 H   0  0  0  0  0  0  0  0  0  0  0  0
    1.8544    0.2176   -0.2643 H   0  0  0  0  0  0  0  0  0  0  0  0
    2.9177   -3.4797   -1.1016 H   0  0  0  0  0  0  0  0  0  0  0  0
    4.4218   -4.9675    0.7243 H   0  0  0  0  0  0  0  0  0  0  0  0
    4.3603   -5.3034   -2.1599 H   0  0  0  0  0  0  0  0  0  0  0  0
    7.1679   -4.4034   -0.9316 H   0  0  0  0  0  0  0  0  0  0  0  0
    8.0123   -5.8893   -1.3533 H   0  0  0  0  0  0  0  0  0  0  0  0
    7.0173   -5.0849   -2.5645 H   0  0  0  0  0  0  0  0  0  0  0  0
    6.9052   -7.6957   -0.4637 H   0  0  0  0  0  0  0  0  0  0  0  0
    3.3772   -7.3206   -1.1011 H   0  0  0  0  0  0  0  0  0  0  0  0
  1  2  1  0  0  0  0 
  2  3  1  0  0  0  0 
  3  4  2  0  0  0  0 
  4  5  1  0  0  0  0 
  5  6  2  0  0  0  0 
  6  7  1  0  0  0  0 
  6  8  1  0  0  0  0 
  8  9  1  0  0  0  0 
  9 10  1  0  0  0  0 
 10 11  1  0  0  0  0 
  5 11  1  0  0  0  0 
 11 12  1  0  0  0  0 
 11 13  1  0  0  0  0 
  2 14  2  0  0  0  0 
 14 15  1  0  0  0  0 
 15 16  2  0  0  0  0 
 16 17  1  0  0  0  0 
 17 18  1  0  0  0  0 
 17 19  2  0  0  0  0 
 19 20  1  0  0  0  0 
 20 21  1  0  0  0  0 
 20 22  2  0  0  0  0 
  1 23  1  0  0  0  0 
  1 24  1  0  0  0  0 
  1 25  1  0  0  0  0 
  3 26  1  0  0  0  0 
  4 27  1  0  0  0  0 
  7 28  1  0  0  0  0 
  7 29  1  0  0  0  0 
  7 30  1  0  0  0  0 
  8 31  1  0  0  0  0 
  8 32  1  0  0  0  0 
  9 33  1  0  0  0  0 
  9 34  1  0  0  0  0 
 10 35  1  0  0  0  0 
 10 36  1  0  0  0  0 
 12 37  1  0  0  0  0 
 12 38  1  0  0  0  0 
 12 39  1  0  0  0  0 
 13 40  1  0  0  0  0 
 13 41  1  0  0  0  0 
 13 42  1  0  0  0  0 
 14 43  1  0  0  0  0 
 15 44  1  0  0  0  0 
 16 45  1  0  0  0  0 
 18 46  1  0  0  0  0 
 18 47  1  0  0  0  0 
 18 48  1  0  0  0  0 
 19 49  1  0  0  0  0 
 21 50  1  0  0  0  0 
M  END
> <cdk:Title>
isotretinoin

> <Conformer>
1

> <SuperDrugID>
SD001335

$$$$
