rimazolium
  CDK     0628171801

 37 38  0  0  0  0  0  0  0  0999 V2000
   -0.3830    3.7272    0.0675 O   0  0  0  0  0  0  0  0  0  0  0  0
   -1.6289    3.8830    0.0271 C   0  0  0  0  0  0  0  0  0  0  0  0
   -2.1605    5.1565   -0.0343 N   0  0  0  0  0  0  0  0  0  0  0  0
   -2.4430    2.7275    0.0554 C   0  0  0  0  0  0  0  0  0  0  0  0
   -3.5392    5.3210   -0.0496 C   0  0  0  0  0  0  0  0  0  0  0  0
   -1.2372    6.2993   -0.0801 C   0  0  1  0  0  0  0  0  0  0  0  0
   -1.9318    1.3888    0.0788 C   0  0  0  0  0  0  0  0  0  0  0  0
   -3.8315    2.9611    0.0558 C   0  0  0  0  0  0  0  0  0  0  0  0
   -4.3716    4.2157    0.0183 N   0  0  0  0  0  0  0  0  0  0  0  0
   -4.1542    6.6935   -0.1081 C   0  0  1  0  0  0  0  0  0  0  0  0
   -0.5686    6.4254   -1.4849 C   0  0  0  0  0  0  0  0  0  0  0  0
   -1.8715    7.6423    0.3796 C   0  0  1  0  0  0  0  0  0  0  0  0
   -0.5879    1.1363    0.0432 O   0  0  0  0  0  0  0  0  0  0  0  0
   -2.7073    0.4028    0.1263 O   0  0  0  0  0  0  0  0  0  0  0  0
   -5.8215    4.3261    0.0496 C   0  0  0  0  0  0  0  0  0  0  0  0
   -3.1908    7.8713   -0.3707 C   0  0  1  0  0  0  0  0  0  0  0  0
    0.0514   -0.1447    0.0174 C   0  0  1  0  0  0  0  0  0  0  0  0
    1.5777    0.0429    0.0008 C   0  0  0  0  0  0  0  0  0  0  0  0
   -0.4278    6.1361    0.6419 H   0  0  0  0  0  0  0  0  0  0  0  0
   -4.4550    2.1497    0.0862 H   0  0  0  0  0  0  0  0  0  0  0  0
   -4.9056    6.7293   -0.9010 H   0  0  0  0  0  0  0  0  0  0  0  0
   -4.6586    6.8812    0.8440 H   0  0  0  0  0  0  0  0  0  0  0  0
    0.0532    5.5565   -1.6986 H   0  0  0  0  0  0  0  0  0  0  0  0
    0.0733    7.3075   -1.5284 H   0  0  0  0  0  0  0  0  0  0  0  0
   -1.3220    6.5007   -2.2712 H   0  0  0  0  0  0  0  0  0  0  0  0
   -2.0717    7.6015    1.4551 H   0  0  0  0  0  0  0  0  0  0  0  0
   -1.1922    8.4818    0.2025 H   0  0  0  0  0  0  0  0  0  0  0  0
   -6.1340    4.9599    0.8804 H   0  0  0  0  0  0  0  0  0  0  0  0
   -6.3407    3.3735    0.1834 H   0  0  0  0  0  0  0  0  0  0  0  0
   -6.1831    4.7571   -0.8866 H   0  0  0  0  0  0  0  0  0  0  0  0
   -2.9971    7.9653   -1.4420 H   0  0  0  0  0  0  0  0  0  0  0  0
   -3.6469    8.8086   -0.0408 H   0  0  0  0  0  0  0  0  0  0  0  0
   -0.2344   -0.7194    0.9017 H   0  0  0  0  0  0  0  0  0  0  0  0
   -0.2600   -0.6896   -0.8771 H   0  0  0  0  0  0  0  0  0  0  0  0
    2.0699   -0.9306   -0.0152 H   0  0  0  0  0  0  0  0  0  0  0  0
    1.8770    0.6065   -0.8847 H   0  0  0  0  0  0  0  0  0  0  0  0
    1.8979    0.5869    0.8912 H   0  0  0  0  0  0  0  0  0  0  0  0
  1  2  2  0  0  0  0 
  2  3  1  0  0  0  0 
  2  4  1  0  0  0  0 
  3  5  1  0  0  0  0 
  6  3  1  0  0  0  0 
  4  7  1  0  0  0  0 
  4  8  2  0  0  0  0 
  5  9  2  0  0  0  0 
  5 10  1  0  0  0  0 
  6 11  1  0  0  0  0 
  6 12  1  0  0  0  0 
  7 13  1  0  0  0  0 
  7 14  2  0  0  0  0 
  8  9  1  0  0  0  0 
  9 15  1  0  0  0  0 
 10 16  1  0  0  0  0 
 12 16  1  0  0  0  0 
 13 17  1  0  0  0  0 
 17 18  1  0  0  0  0 
  6 19  1  0  0  0  0 
  8 20  1  0  0  0  0 
 10 21  1  0  0  0  0 
 10 22  1  0  0  0  0 
 11 23  1  0  0  0  0 
 11 24  1  0  0  0  0 
 11 25  1  0  0  0  0 
 12 26  1  0  0  0  0 
 12 27  1  0  0  0  0 
 15 28  1  0  0  0  0 
 15 29  1  0  0  0  0 
 15 30  1  0  0  0  0 
 16 31  1  0  0  0  0 
 16 32  1  0  0  0  0 
 17 33  1  0  0  0  0 
 17 34  1  0  0  0  0 
 18 35  1  0  0  0  0 
 18 36  1  0  0  0  0 
 18 37  1  0  0  0  0 
M  CHG  1   9   1
M  END
> <cdk:Title>
rimazolium

> <Conformer>
1

> <SuperDrugID>
SD003333

$$$$
