alitretinoin
  CDK     0628171801

 50 50  0  0  0  0  0  0  0  0999 V2000
    5.8346    7.9131    2.5500 C   0  0  1  0  0  0  0  0  0  0  0  0
    6.5397    8.7336    3.6930 C   0  0  1  0  0  0  0  0  0  0  0  0
    5.5266    9.2303    4.7430 C   0  0  2  0  0  0  0  0  0  0  0  0
    4.7499    8.0268    5.3273 C   0  0  2  0  0  0  0  0  0  0  0  0
    4.4207    6.9350    4.3991 C   0  0  0  0  0  0  0  0  0  0  0  0
    4.8989    6.8885    3.1194 C   0  0  0  0  0  0  0  0  0  0  0  0
    3.5486    5.8860    4.9611 C   0  0  0  0  0  0  0  0  0  0  0  0
    4.5200    5.8454    2.3147 C   0  0  0  0  0  0  0  0  0  0  0  0
    5.0474    8.8940    1.6097 C   0  0  0  0  0  0  0  0  0  0  0  0
    6.9919    7.2629    1.7050 C   0  0  0  0  0  0  0  0  0  0  0  0
    3.4363    5.8751    1.5203 C   0  0  0  0  0  0  0  0  0  0  0  0
    3.0208    4.7983    0.7872 C   0  0  0  0  0  0  0  0  0  0  0  0
    1.8005    4.2345    0.9716 C   0  0  0  0  0  0  0  0  0  0  0  0
    3.9176    4.2383   -0.2282 C   0  0  0  0  0  0  0  0  0  0  0  0
    0.8379    4.6435    1.8566 C   0  0  0  0  0  0  0  0  0  0  0  0
   -0.4096    4.1424    1.8939 C   0  0  0  0  0  0  0  0  0  0  0  0
   -1.3599    4.6054    2.7571 C   0  0  0  0  0  0  0  0  0  0  0  0
   -1.6631    3.8602    3.8461 C   0  0  0  0  0  0  0  0  0  0  0  0
   -1.9953    5.8847    2.4370 C   0  0  0  0  0  0  0  0  0  0  0  0
   -2.5778    4.1475    4.8503 C   0  0  0  0  0  0  0  0  0  0  0  0
   -2.7229    3.2721    5.8725 O   0  0  0  0  0  0  0  0  0  0  0  0
   -3.2875    5.1778    4.8958 O   0  0  0  0  0  0  0  0  0  0  0  0
    7.2767    8.1077    4.2103 H   0  0  0  0  0  0  0  0  0  0  0  0
    7.0773    9.5933    3.2820 H   0  0  0  0  0  0  0  0  0  0  0  0
    4.8314    9.9407    4.2895 H   0  0  0  0  0  0  0  0  0  0  0  0
    6.0511    9.7564    5.5457 H   0  0  0  0  0  0  0  0  0  0  0  0
    3.8267    8.4164    5.7680 H   0  0  0  0  0  0  0  0  0  0  0  0
    5.3489    7.6018    6.1383 H   0  0  0  0  0  0  0  0  0  0  0  0
    2.5854    5.8802    4.4478 H   0  0  0  0  0  0  0  0  0  0  0  0
    3.3513    6.0183    6.0286 H   0  0  0  0  0  0  0  0  0  0  0  0
    4.0192    4.9074    4.8463 H   0  0  0  0  0  0  0  0  0  0  0  0
    5.0735    5.0177    2.3589 H   0  0  0  0  0  0  0  0  0  0  0  0
    4.1850    9.3286    2.1200 H   0  0  0  0  0  0  0  0  0  0  0  0
    5.6879    9.7140    1.2728 H   0  0  0  0  0  0  0  0  0  0  0  0
    4.6793    8.3815    0.7179 H   0  0  0  0  0  0  0  0  0  0  0  0
    6.6073    6.8175    0.7835 H   0  0  0  0  0  0  0  0  0  0  0  0
    7.4925    6.4775    2.2775 H   0  0  0  0  0  0  0  0  0  0  0  0
    7.7428    8.0049    1.4191 H   0  0  0  0  0  0  0  0  0  0  0  0
    2.8811    6.7013    1.4815 H   0  0  0  0  0  0  0  0  0  0  0  0
    1.5785    3.4418    0.4075 H   0  0  0  0  0  0  0  0  0  0  0  0
    4.1256    3.1901   -0.0033 H   0  0  0  0  0  0  0  0  0  0  0  0
    4.8755    4.7617   -0.2829 H   0  0  0  0  0  0  0  0  0  0  0  0
    3.4567    4.2994   -1.2170 H   0  0  0  0  0  0  0  0  0  0  0  0
    1.0606    5.3602    2.5100 H   0  0  0  0  0  0  0  0  0  0  0  0
   -0.6764    3.4129    1.2707 H   0  0  0  0  0  0  0  0  0  0  0  0
   -1.1784    2.9958    3.9698 H   0  0  0  0  0  0  0  0  0  0  0  0
   -3.0679    5.7412    2.2952 H   0  0  0  0  0  0  0  0  0  0  0  0
   -1.6045    6.3393    1.5222 H   0  0  0  0  0  0  0  0  0  0  0  0
   -1.8316    6.5996    3.2451 H   0  0  0  0  0  0  0  0  0  0  0  0
   -3.3580    3.4603    6.5944 H   0  0  0  0  0  0  0  0  0  0  0  0
  1  2  1  0  0  0  0 
  1  6  1  0  0  0  0 
  2  3  1  0  0  0  0 
  3  4  1  0  0  0  0 
  4  5  1  0  0  0  0 
  5  6  2  0  0  0  0 
  5  7  1  0  0  0  0 
  6  8  1  0  0  0  0 
  1  9  1  0  0  0  0 
  1 10  1  0  0  0  0 
  8 11  2  0  0  0  0 
 11 12  1  0  0  0  0 
 12 13  2  0  0  0  0 
 12 14  1  0  0  0  0 
 13 15  1  0  0  0  0 
 15 16  2  0  0  0  0 
 16 17  1  0  0  0  0 
 17 18  2  0  0  0  0 
 17 19  1  0  0  0  0 
 18 20  1  0  0  0  0 
 20 21  1  0  0  0  0 
 20 22  2  0  0  0  0 
  2 23  1  0  0  0  0 
  2 24  1  0  0  0  0 
  3 25  1  0  0  0  0 
  3 26  1  0  0  0  0 
  4 27  1  0  0  0  0 
  4 28  1  0  0  0  0 
  7 29  1  0  0  0  0 
  7 30  1  0  0  0  0 
  7 31  1  0  0  0  0 
  8 32  1  0  0  0  0 
  9 33  1  0  0  0  0 
  9 34  1  0  0  0  0 
  9 35  1  0  0  0  0 
 10 36  1  0  0  0  0 
 10 37  1  0  0  0  0 
 10 38  1  0  0  0  0 
 11 39  1  0  0  0  0 
 13 40  1  0  0  0  0 
 14 41  1  0  0  0  0 
 14 42  1  0  0  0  0 
 14 43  1  0  0  0  0 
 15 44  1  0  0  0  0 
 16 45  1  0  0  0  0 
 18 46  1  0  0  0  0 
 19 47  1  0  0  0  0 
 19 48  1  0  0  0  0 
 19 49  1  0  0  0  0 
 21 50  1  0  0  0  0 
M  END
> <cdk:Title>
alitretinoin

> <Conformer>
1

> <SuperDrugID>
SD003286

$$$$
