dantrolene
  CDK     0628171802

 33 35  0  0  0  0  0  0  0  0999 V2000
   -3.4046   -0.3004    2.6410 C   0  0  0  0  0  0  0  0  0  0  0  0
   -2.5303   -0.9630    1.9729 N   0  0  0  0  0  0  0  0  0  0  0  0
   -4.7010   -0.7484    2.7151 C   0  0  0  0  0  0  0  0  0  0  0  0
   -1.3101   -0.6289    1.8450 N   0  0  0  0  0  0  0  0  0  0  0  0
   -5.1560   -1.8890    2.1453 O   0  0  0  0  0  0  0  0  0  0  0  0
   -5.7644   -0.1462    3.3820 C   0  0  0  0  0  0  0  0  0  0  0  0
   -0.8055    0.1348    0.8598 C   0  0  0  0  0  0  0  0  0  0  0  0
   -0.2938   -0.9749    2.6606 C   0  0  0  0  0  0  0  0  0  0  0  0
   -6.4746   -2.0493    2.4245 C   0  0  0  0  0  0  0  0  0  0  0  0
   -6.8750   -0.9549    3.1949 C   0  0  0  0  0  0  0  0  0  0  0  0
    0.5567    0.2736    1.0956 C   0  0  0  0  0  0  0  0  0  0  0  0
   -0.3695   -1.6981    3.6795 O   0  0  0  0  0  0  0  0  0  0  0  0
    0.8363   -0.4085    2.2120 N   0  0  0  0  0  0  0  0  0  0  0  0
   -7.2353   -3.1669    1.9903 C   0  0  0  0  0  0  0  0  0  0  0  0
    1.4466    0.9687    0.3543 O   0  0  0  0  0  0  0  0  0  0  0  0
   -6.5988   -4.1982    1.2626 C   0  0  0  0  0  0  0  0  0  0  0  0
   -8.6131   -3.3116    2.2741 C   0  0  0  0  0  0  0  0  0  0  0  0
   -7.3077   -5.3385    0.8476 C   0  0  0  0  0  0  0  0  0  0  0  0
   -9.3197   -4.4536    1.8559 C   0  0  0  0  0  0  0  0  0  0  0  0
   -8.6863   -5.4981    1.1377 C   0  0  0  0  0  0  0  0  0  0  0  0
   -9.3668   -6.5937    0.7557 N   0  0  0  0  0  0  0  0  0  0  0  0
  -10.5953   -6.7697    1.0266 O   0  0  0  0  0  0  0  0  0  0  0  0
   -8.8793   -7.4705    0.1570 O   0  0  0  0  0  0  0  0  0  0  0  0
   -3.1474    0.5376    3.1127 H   0  0  0  0  0  0  0  0  0  0  0  0
   -5.7406    0.7255    3.9154 H   0  0  0  0  0  0  0  0  0  0  0  0
   -1.3278    0.5456    0.0816 H   0  0  0  0  0  0  0  0  0  0  0  0
   -7.8090   -0.7677    3.5643 H   0  0  0  0  0  0  0  0  0  0  0  0
    1.7105   -0.4783    2.6256 H   0  0  0  0  0  0  0  0  0  0  0  0
    0.9428    1.2742   -0.4265 H   0  0  0  0  0  0  0  0  0  0  0  0
   -5.6044   -4.1386    1.0300 H   0  0  0  0  0  0  0  0  0  0  0  0
   -9.1243   -2.5944    2.7930 H   0  0  0  0  0  0  0  0  0  0  0  0
   -6.7985   -6.0602    0.3309 H   0  0  0  0  0  0  0  0  0  0  0  0
  -10.3122   -4.5132    2.0906 H   0  0  0  0  0  0  0  0  0  0  0  0
  1  2  2  0  0  0  0 
  1  3  1  0  0  0  0 
  2  4  1  0  0  0  0 
  3  5  1  0  0  0  0 
  3  6  2  0  0  0  0 
  4  7  1  0  0  0  0 
  4  8  1  0  0  0  0 
  5  9  1  0  0  0  0 
  6 10  1  0  0  0  0 
  7 11  2  0  0  0  0 
  8 12  2  0  0  0  0 
  8 13  1  0  0  0  0 
  9 10  2  0  0  0  0 
  9 14  1  0  0  0  0 
 11 13  1  0  0  0  0 
 11 15  1  0  0  0  0 
 14 16  2  0  0  0  0 
 14 17  1  0  0  0  0 
 16 18  1  0  0  0  0 
 17 19  2  0  0  0  0 
 18 20  2  0  0  0  0 
 19 20  1  0  0  0  0 
 20 21  1  0  0  0  0 
 21 22  1  0  0  0  0 
 21 23  2  0  0  0  0 
 24  1  1  0  0  0  0 
 25  6  1  0  0  0  0 
 26  7  1  0  0  0  0 
 27 10  1  0  0  0  0 
 28 13  1  0  0  0  0 
 29 15  1  0  0  0  0 
 30 16  1  0  0  0  0 
 31 17  1  0  0  0  0 
 32 18  1  0  0  0  0 
 33 19  1  0  0  0  0 
M  CHG  1  21   1
M  CHG  1  22  -1
M  END
> <cdk:Title>
dantrolene

> <Conformer>
1

> <SuperDrugID>
SD000687

$$$$
