pholcodine
  CDK     0628171801

 59 64  0  0  0  0  0  0  0  0999 V2000
   -7.7764   -0.8442   -2.4525 O   0  0  0  0  0  0  0  0  0  0  0  0
   -7.9472   -2.0298   -1.6753 C   0  0  2  0  0  0  0  0  0  0  0  0
   -7.1332   -1.9397   -0.3337 C   0  0  1  0  0  0  0  0  0  0  0  0
   -7.6601   -3.1896   -2.5105 C   0  0  0  0  0  0  0  0  0  0  0  0
   -6.4855   -3.2935    0.1222 C   0  0  2  0  0  0  0  0  0  0  0  0
   -6.0614   -0.9694   -0.4278 O   0  0  0  0  0  0  0  0  0  0  0  0
   -7.2449   -4.3683   -2.0175 C   0  0  0  0  0  0  0  0  0  0  0  0
   -5.1349   -3.0444   -0.3815 C   0  0  0  0  0  0  0  0  0  0  0  0
   -7.0341   -4.5760   -0.5869 C   0  0  1  0  0  0  0  0  0  0  0  0
   -6.4939   -3.5016    1.6772 C   0  0  1  0  0  0  0  0  0  0  0  0
   -4.9465   -1.7014   -0.6577 C   0  0  0  0  0  0  0  0  0  0  0  0
   -4.1763   -4.0193   -0.7147 C   0  0  0  0  0  0  0  0  0  0  0  0
   -6.0411   -5.7420   -0.2178 C   0  0  1  0  0  0  0  0  0  0  0  0
   -5.7977   -4.8178    2.1268 C   0  0  1  0  0  0  0  0  0  0  0  0
   -3.7188   -1.2479   -1.1693 C   0  0  0  0  0  0  0  0  0  0  0  0
   -4.5550   -5.4584   -0.6739 C   0  0  2  0  0  0  0  0  0  0  0  0
   -2.9211   -3.5685   -1.1827 C   0  0  0  0  0  0  0  0  0  0  0  0
   -6.1650   -5.9838    1.2622 N   0  0  2  0  0  0  0  0  0  0  0  0
   -3.5414    0.0585   -1.5282 O   0  0  0  0  0  0  0  0  0  0  0  0
   -2.6898   -2.1912   -1.3933 C   0  0  0  0  0  0  0  0  0  0  0  0
   -5.6124   -7.2802    1.7483 C   0  0  0  0  0  0  0  0  0  0  0  0
   -3.4126    0.9973   -0.4424 C   0  0  1  0  0  0  0  0  0  0  0  0
   -2.1348    0.8028    0.4155 C   0  0  2  0  0  0  0  0  0  0  0  0
   -0.8951    0.4820   -0.3618 N   0  0  1  0  0  0  0  0  0  0  0  0
   -0.5362    1.4527   -1.4423 C   0  0  1  0  0  0  0  0  0  0  0  0
    0.2731    0.1890    0.5261 C   0  0  2  0  0  0  0  0  0  0  0  0
    0.6874    0.9283   -2.2324 C   0  0  1  0  0  0  0  0  0  0  0  0
    1.4748   -0.2974   -0.3190 C   0  0  2  0  0  0  0  0  0  0  0  0
    1.7947    0.6567   -1.3511 O   0  0  0  0  0  0  0  0  0  0  0  0
   -8.0201   -4.8110   -0.1733 H   0  0  0  0  0  0  0  0  0  0  0  0
   -7.8145   -1.5698    0.4380 H   0  0  0  0  0  0  0  0  0  0  0  0
   -6.3929   -6.6410   -0.7347 H   0  0  0  0  0  0  0  0  0  0  0  0
   -6.8314   -0.8490   -2.7175 H   0  0  0  0  0  0  0  0  0  0  0  0
   -9.0113   -2.0807   -1.4311 H   0  0  0  0  0  0  0  0  0  0  0  0
   -7.7992   -3.1162   -3.4906 H   0  0  0  0  0  0  0  0  0  0  0  0
   -7.0884   -5.1243   -2.6451 H   0  0  0  0  0  0  0  0  0  0  0  0
   -6.0146   -2.6560    2.1826 H   0  0  0  0  0  0  0  0  0  0  0  0
   -7.5331   -3.5349    2.0202 H   0  0  0  0  0  0  0  0  0  0  0  0
   -4.7142   -4.6710    2.1203 H   0  0  0  0  0  0  0  0  0  0  0  0
   -6.0930   -5.0229    3.1609 H   0  0  0  0  0  0  0  0  0  0  0  0
   -3.8435   -5.9809   -0.0314 H   0  0  0  0  0  0  0  0  0  0  0  0
   -4.4257   -5.8579   -1.6850 H   0  0  0  0  0  0  0  0  0  0  0  0
   -2.1867   -4.2418   -1.4087 H   0  0  0  0  0  0  0  0  0  0  0  0
   -1.7833   -1.8820   -1.7468 H   0  0  0  0  0  0  0  0  0  0  0  0
   -5.9297   -8.1065    1.1102 H   0  0  0  0  0  0  0  0  0  0  0  0
   -4.5226   -7.2622    1.7769 H   0  0  0  0  0  0  0  0  0  0  0  0
   -5.9764   -7.4850    2.7552 H   0  0  0  0  0  0  0  0  0  0  0  0
   -3.3783    1.9896   -0.8924 H   0  0  0  0  0  0  0  0  0  0  0  0
   -4.2976    0.9898    0.1985 H   0  0  0  0  0  0  0  0  0  0  0  0
   -2.3385   -0.0303    1.0947 H   0  0  0  0  0  0  0  0  0  0  0  0
   -1.9848    1.6966    1.0291 H   0  0  0  0  0  0  0  0  0  0  0  0
   -1.3570    1.5690   -2.1524 H   0  0  0  0  0  0  0  0  0  0  0  0
   -0.3085    2.4330   -1.0130 H   0  0  0  0  0  0  0  0  0  0  0  0
    0.0194   -0.5954    1.2452 H   0  0  0  0  0  0  0  0  0  0  0  0
    0.5630    1.0898    1.0786 H   0  0  0  0  0  0  0  0  0  0  0  0
    0.4173    0.0227   -2.7840 H   0  0  0  0  0  0  0  0  0  0  0  0
    1.0002    1.6800   -2.9584 H   0  0  0  0  0  0  0  0  0  0  0  0
    1.2528   -1.2740   -0.7614 H   0  0  0  0  0  0  0  0  0  0  0  0
    2.3487   -0.4089    0.3253 H   0  0  0  0  0  0  0  0  0  0  0  0
  2  1  1  0  0  0  0 
  3  2  1  0  0  0  0 
  2  4  1  0  0  0  0 
  5  3  1  0  0  0  0 
  3  6  1  0  0  0  0 
  3 31  1  0  0  0  0 
  4  7  2  0  0  0  0 
  5  8  1  0  0  0  0 
  9  5  1  0  0  0  0 
  5 10  1  0  0  0  0 
  6 11  1  0  0  0  0 
  9  7  1  0  0  0  0 
  8 11  2  0  0  0  0 
  8 12  1  0  0  0  0 
 13  9  1  0  0  0  0 
  9 30  1  0  0  0  0 
 10 14  1  0  0  0  0 
 11 15  1  0  0  0  0 
 12 16  1  0  0  0  0 
 12 17  2  0  0  0  0 
 13 16  1  0  0  0  0 
 13 18  1  0  0  0  0 
 13 32  1  0  0  0  0 
 14 18  1  0  0  0  0 
 15 19  1  0  0  0  0 
 15 20  2  0  0  0  0 
 17 20  1  0  0  0  0 
 18 21  1  0  0  0  0 
 19 22  1  0  0  0  0 
 22 23  1  0  0  0  0 
 23 24  1  0  0  0  0 
 24 25  1  0  0  0  0 
 24 26  1  0  0  0  0 
 25 27  1  0  0  0  0 
 26 28  1  0  0  0  0 
 27 29  1  0  0  0  0 
 28 29  1  0  0  0  0 
  1 33  1  0  0  0  0 
  2 34  1  0  0  0  0 
  4 35  1  0  0  0  0 
  7 36  1  0  0  0  0 
 10 37  1  0  0  0  0 
 10 38  1  0  0  0  0 
 14 39  1  0  0  0  0 
 14 40  1  0  0  0  0 
 16 41  1  0  0  0  0 
 16 42  1  0  0  0  0 
 17 43  1  0  0  0  0 
 20 44  1  0  0  0  0 
 21 45  1  0  0  0  0 
 21 46  1  0  0  0  0 
 21 47  1  0  0  0  0 
 22 48  1  0  0  0  0 
 22 49  1  0  0  0  0 
 23 50  1  0  0  0  0 
 23 51  1  0  0  0  0 
 25 52  1  0  0  0  0 
 25 53  1  0  0  0  0 
 26 54  1  0  0  0  0 
 26 55  1  0  0  0  0 
 27 56  1  0  0  0  0 
 27 57  1  0  0  0  0 
 28 58  1  0  0  0  0 
 28 59  1  0  0  0  0 
M  END
> <cdk:Title>
pholcodine

> <Conformer>
1

> <SuperDrugID>
SD001933

$$$$
