zoledronic acid
  CDK     0628171801

 26 26  0  0  0  0  0  0  0  0999 V2000
   -1.7654    3.0276    0.7733 C   0  0  1  0  0  0  0  0  0  0  0  0
   -3.0398    4.0168    0.1544 P   0  0  1  0  0  0  0  0  0  0  0  0
   -2.3830    1.8916    1.9152 P   0  0  1  0  0  0  0  0  0  0  0  0
   -1.0032    2.3335   -0.4104 C   0  0  2  0  0  0  0  0  0  0  0  0
   -0.8716    3.8828    1.4853 O   0  0  0  0  0  0  0  0  0  0  0  0
   -4.0748    3.2229   -0.5231 O   0  0  0  0  0  0  0  0  0  0  0  0
   -3.7153    4.8684    1.3146 O   0  0  0  0  0  0  0  0  0  0  0  0
   -2.4408    5.0659   -0.8812 O   0  0  0  0  0  0  0  0  0  0  0  0
   -3.2688    0.9062    1.2801 O   0  0  0  0  0  0  0  0  0  0  0  0
   -1.1867    1.1223    2.6259 O   0  0  0  0  0  0  0  0  0  0  0  0
   -3.1774    2.6404    3.0712 O   0  0  0  0  0  0  0  0  0  0  0  0
    0.0843    1.4670   -0.0401 N   0  0  0  0  0  0  0  0  0  0  0  0
    0.1418    0.1344   -0.2241 C   0  0  0  0  0  0  0  0  0  0  0  0
    1.2528    1.8269    0.5317 C   0  0  0  0  0  0  0  0  0  0  0  0
    1.3661   -0.3006    0.2611 C   0  0  0  0  0  0  0  0  0  0  0  0
    2.0426    0.7580    0.7267 N   0  0  0  0  0  0  0  0  0  0  0  0
   -0.5829    3.0925   -1.0778 H   0  0  0  0  0  0  0  0  0  0  0  0
   -1.7210    1.7605   -1.0081 H   0  0  0  0  0  0  0  0  0  0  0  0
   -0.5261    4.5149    0.8213 H   0  0  0  0  0  0  0  0  0  0  0  0
   -3.0212    5.4984    1.5956 H   0  0  0  0  0  0  0  0  0  0  0  0
   -1.7491    5.5380   -0.3744 H   0  0  0  0  0  0  0  0  0  0  0  0
   -0.6595    1.8231    3.0627 H   0  0  0  0  0  0  0  0  0  0  0  0
   -2.5154    3.2357    3.4822 H   0  0  0  0  0  0  0  0  0  0  0  0
   -0.5806   -0.4590   -0.6429 H   0  0  0  0  0  0  0  0  0  0  0  0
    1.5186    2.7800    0.7865 H   0  0  0  0  0  0  0  0  0  0  0  0
    1.7012   -1.2638    0.2607 H   0  0  0  0  0  0  0  0  0  0  0  0
  1  2  1  0  0  0  0 
  1  3  1  0  0  0  0 
  1  4  1  0  0  0  0 
  1  5  1  0  0  0  0 
  2  6  2  0  0  0  0 
  2  7  1  0  0  0  0 
  2  8  1  0  0  0  0 
  3  9  2  0  0  0  0 
  3 10  1  0  0  0  0 
  3 11  1  0  0  0  0 
  4 12  1  0  0  0  0 
 12 13  1  0  0  0  0 
 12 14  1  0  0  0  0 
 13 15  2  0  0  0  0 
 14 16  2  0  0  0  0 
 15 16  1  0  0  0  0 
  4 17  1  0  0  0  0 
  4 18  1  0  0  0  0 
  5 19  1  0  0  0  0 
  7 20  1  0  0  0  0 
  8 21  1  0  0  0  0 
 10 22  1  0  0  0  0 
 11 23  1  0  0  0  0 
 13 24  1  0  0  0  0 
 14 25  1  0  0  0  0 
 15 26  1  0  0  0  0 
M  END
> <cdk:Title>
zoledronic acid

> <Conformer>
1

> <SuperDrugID>
SD002584

$$$$
