doxefazepam
  CDK     0628171802

 38 40  0  0  0  0  0  0  0  0999 V2000
   -1.2262    1.0293    0.8856 C   0  0  1  0  0  0  0  0  0  0  0  0
   -1.1958    1.1262   -0.6666 C   0  0  2  0  0  0  0  0  0  0  0  0
   -0.6234    2.1697    1.5693 N   0  0  0  0  0  0  0  0  0  0  0  0
   -1.4102    2.4553   -1.1338 O   0  0  0  0  0  0  0  0  0  0  0  0
   -1.3942    2.9188    2.4577 C   0  0  0  0  0  0  0  0  0  0  0  0
    0.6978    2.5129    1.3046 C   0  0  0  0  0  0  0  0  0  0  0  0
   -1.5191    4.3391    2.3732 C   0  0  0  0  0  0  0  0  0  0  0  0
   -2.0847    2.2422    3.4949 C   0  0  0  0  0  0  0  0  0  0  0  0
    1.4537    1.7063    0.7096 O   0  0  0  0  0  0  0  0  0  0  0  0
    1.2517    3.8519    1.6314 C   0  0  1  0  0  0  0  0  0  0  0  0
   -0.8239    5.0758    1.4032 C   0  0  0  0  0  0  0  0  0  0  0  0
   -2.3473    5.0218    3.3025 C   0  0  0  0  0  0  0  0  0  0  0  0
   -2.9056    2.9311    4.4020 C   0  0  0  0  0  0  0  0  0  0  0  0
    2.5399    4.0607    1.0531 O   0  0  0  0  0  0  0  0  0  0  0  0
    0.4075    4.8312    1.1075 N   0  0  0  0  0  0  0  0  0  0  0  0
   -1.4417    6.0994    0.6892 C   0  0  0  0  0  0  0  0  0  0  0  0
   -3.0462    4.3243    4.3037 C   0  0  0  0  0  0  0  0  0  0  0  0
   -0.9412    7.4266    0.6962 C   0  0  0  0  0  0  0  0  0  0  0  0
   -2.6105    5.8184   -0.0598 C   0  0  0  0  0  0  0  0  0  0  0  0
   -4.0411    5.1547    5.3937 Cl  0  0  0  0  0  0  0  0  0  0  0  0
    0.1096    7.7561    1.4012 F   0  0  0  0  0  0  0  0  0  0  0  0
   -1.5897    8.4357   -0.0421 C   0  0  0  0  0  0  0  0  0  0  0  0
   -3.2607    6.8310   -0.7871 C   0  0  0  0  0  0  0  0  0  0  0  0
   -2.7501    8.1396   -0.7785 C   0  0  0  0  0  0  0  0  0  0  0  0
   -2.2800    0.9135    1.1582 H   0  0  0  0  0  0  0  0  0  0  0  0
   -0.7210    0.1107    1.1987 H   0  0  0  0  0  0  0  0  0  0  0  0
   -1.9732    0.4893   -1.0911 H   0  0  0  0  0  0  0  0  0  0  0  0
   -0.2405    0.7725   -1.0568 H   0  0  0  0  0  0  0  0  0  0  0  0
   -0.5888    2.9421   -0.9055 H   0  0  0  0  0  0  0  0  0  0  0  0
   -1.9953    1.2281    3.5957 H   0  0  0  0  0  0  0  0  0  0  0  0
    1.3411    3.9628    2.7140 H   0  0  0  0  0  0  0  0  0  0  0  0
   -2.4354    6.0421    3.2646 H   0  0  0  0  0  0  0  0  0  0  0  0
   -3.3965    2.4092    5.1327 H   0  0  0  0  0  0  0  0  0  0  0  0
    2.7506    5.0034    1.2226 H   0  0  0  0  0  0  0  0  0  0  0  0
   -3.0002    4.8726   -0.0848 H   0  0  0  0  0  0  0  0  0  0  0  0
   -1.2210    9.3896   -0.0415 H   0  0  0  0  0  0  0  0  0  0  0  0
   -4.1066    6.6150   -1.3185 H   0  0  0  0  0  0  0  0  0  0  0  0
   -3.2227    8.8744   -1.3083 H   0  0  0  0  0  0  0  0  0  0  0  0
  1  2  1  0  0  0  0 
  1  3  1  0  0  0  0 
  2  4  1  0  0  0  0 
  3  5  1  0  0  0  0 
  3  6  1  0  0  0  0 
  5  7  2  0  0  0  0 
  5  8  1  0  0  0  0 
  6  9  2  0  0  0  0 
 10  6  1  0  0  0  0 
  7 11  1  0  0  0  0 
  7 12  1  0  0  0  0 
  8 13  2  0  0  0  0 
 10 14  1  0  0  0  0 
 10 15  1  0  0  0  0 
 11 15  2  0  0  0  0 
 11 16  1  0  0  0  0 
 12 17  2  0  0  0  0 
 13 17  1  0  0  0  0 
 16 18  2  0  0  0  0 
 16 19  1  0  0  0  0 
 17 20  1  0  0  0  0 
 18 21  1  0  0  0  0 
 18 22  1  0  0  0  0 
 19 23  2  0  0  0  0 
 22 24  2  0  0  0  0 
 23 24  1  0  0  0  0 
  1 25  1  0  0  0  0 
  1 26  1  0  0  0  0 
  2 27  1  0  0  0  0 
  2 28  1  0  0  0  0 
  4 29  1  0  0  0  0 
  8 30  1  0  0  0  0 
 10 31  1  0  0  0  0 
 12 32  1  0  0  0  0 
 13 33  1  0  0  0  0 
 14 34  1  0  0  0  0 
 19 35  1  0  0  0  0 
 22 36  1  0  0  0  0 
 23 37  1  0  0  0  0 
 24 38  1  0  0  0  0 
M  END
> <cdk:Title>
doxefazepam

> <Conformer>
1

> <SuperDrugID>
SD000847

$$$$
