mirodenafil
  CDK     0628171802

 76 79  0  0  0  0  0  0  0  0999 V2000
   -5.5225    1.0442   -1.0197 C   0  0  0  0  0  0  0  0  0  0  0  0
   -4.5531    1.0097   -1.9262 N   0  0  0  0  0  0  0  0  0  0  0  0
   -3.8618   -0.0246   -2.2754 C   0  0  0  0  0  0  0  0  0  0  0  0
   -4.1186   -1.1980   -1.6800 N   0  0  0  0  0  0  0  0  0  0  0  0
   -4.9794   -1.3758   -0.5510 C   0  0  2  0  0  0  0  0  0  0  0  0
   -5.9067   -0.1626   -0.2311 C   0  0  1  0  0  0  0  0  0  0  0  0
   -4.2283   -1.5356    0.6752 C   0  0  0  0  0  0  0  0  0  0  0  0
   -4.7429   -0.7584    1.6259 C   0  0  0  0  0  0  0  0  0  0  0  0
   -5.7331    0.0005    1.1854 N   0  0  0  0  0  0  0  0  0  0  0  0
   -2.8324    0.0753   -3.2344 C   0  0  0  0  0  0  0  0  0  0  0  0
   -1.7888   -0.8918   -3.2582 C   0  0  0  0  0  0  0  0  0  0  0  0
   -0.6902   -0.8058   -4.1378 C   0  0  0  0  0  0  0  0  0  0  0  0
   -0.6315    0.2699   -5.0403 C   0  0  0  0  0  0  0  0  0  0  0  0
   -1.6539    1.2320   -5.0654 C   0  0  0  0  0  0  0  0  0  0  0  0
   -2.7593    1.1323   -4.1894 C   0  0  0  0  0  0  0  0  0  0  0  0
    0.5760   -2.0552   -4.1195 S   0  0  2  0  0  0  0  0  0  0  0  0
    1.5825   -2.0066   -2.6499 N   0  0  1  0  0  0  0  0  0  0  0  0
    0.7716   -2.1816   -1.4108 C   0  0  1  0  0  0  0  0  0  0  0  0
    1.6324   -2.2701   -0.1276 C   0  0  1  0  0  0  0  0  0  0  0  0
    2.7145   -3.2940   -0.2631 N   0  0  1  0  0  0  0  0  0  0  0  0
    3.5710   -2.9952   -1.4514 C   0  0  2  0  0  0  0  0  0  0  0  0
    2.7154   -2.9760   -2.7431 C   0  0  1  0  0  0  0  0  0  0  0  0
    3.5373   -3.5068    1.0054 C   0  0  1  0  0  0  0  0  0  0  0  0
    2.6971   -4.2112    2.0984 C   0  0  1  0  0  0  0  0  0  0  0  0
    3.5206   -4.6405    3.1755 O   0  0  0  0  0  0  0  0  0  0  0  0
   -3.7266    2.1048   -4.2712 O   0  0  0  0  0  0  0  0  0  0  0  0
   -4.6753    1.9712   -5.3529 C   0  0  1  0  0  0  0  0  0  0  0  0
   -5.6301    0.7545   -5.2264 C   0  0  2  0  0  0  0  0  0  0  0  0
   -6.1296    2.1260   -0.8642 O   0  0  0  0  0  0  0  0  0  0  0  0
   -6.5721    0.8039    2.0456 C   0  0  2  0  0  0  0  0  0  0  0  0
   -5.7847    1.7529    2.9828 C   0  0  0  0  0  0  0  0  0  0  0  0
   -3.0718   -2.4046    0.8778 C   0  0  2  0  0  0  0  0  0  0  0  0
   -3.3763   -3.6677    1.7261 C   0  0  2  0  0  0  0  0  0  0  0  0
   -2.1095   -4.5151    1.9887 C   0  0  0  0  0  0  0  0  0  0  0  0
   -6.6456    0.6864   -6.3886 C   0  0  0  0  0  0  0  0  0  0  0  0
    1.5391   -1.8819   -5.3921 O   0  0  0  0  0  0  0  0  0  0  0  0
   -0.1100   -3.5037   -4.2190 O   0  0  0  0  0  0  0  0  0  0  0  0
   -3.6749   -1.9900   -2.0191 H   0  0  0  0  0  0  0  0  0  0  0  0
   -5.5822   -2.2737   -0.7193 H   0  0  0  0  0  0  0  0  0  0  0  0
   -6.9469   -0.4238   -0.4567 H   0  0  0  0  0  0  0  0  0  0  0  0
   -4.4023   -0.7451    2.5591 H   0  0  0  0  0  0  0  0  0  0  0  0
   -1.8083   -1.6825   -2.6141 H   0  0  0  0  0  0  0  0  0  0  0  0
    0.1533    0.3559   -5.6899 H   0  0  0  0  0  0  0  0  0  0  0  0
   -1.5907    2.0067   -5.7310 H   0  0  0  0  0  0  0  0  0  0  0  0
    0.1190   -1.3155   -1.2915 H   0  0  0  0  0  0  0  0  0  0  0  0
    0.1510   -3.0813   -1.4818 H   0  0  0  0  0  0  0  0  0  0  0  0
    2.0597   -1.2873    0.0952 H   0  0  0  0  0  0  0  0  0  0  0  0
    0.9548   -2.5304    0.6864 H   0  0  0  0  0  0  0  0  0  0  0  0
    4.3382   -3.7657   -1.5682 H   0  0  0  0  0  0  0  0  0  0  0  0
    4.0805   -2.0334   -1.3314 H   0  0  0  0  0  0  0  0  0  0  0  0
    2.3430   -3.9887   -2.9292 H   0  0  0  0  0  0  0  0  0  0  0  0
    3.3668   -2.6955   -3.5759 H   0  0  0  0  0  0  0  0  0  0  0  0
    4.3205   -4.2844    0.7353 H   0  0  0  0  0  0  0  0  0  0  0  0
    3.9426   -2.5328    1.4916 H   0  0  0  0  0  0  0  0  0  0  0  0
    1.9476   -3.5355    2.5090 H   0  0  0  0  0  0  0  0  0  0  0  0
    2.1960   -5.0848    1.6789 H   0  0  0  0  0  0  0  0  0  0  0  0
    2.9000   -5.0617    3.8083 H   0  0  0  0  0  0  0  0  0  0  0  0
   -5.2826    2.8787   -5.3276 H   0  0  0  0  0  0  0  0  0  0  0  0
   -4.1667    1.9497   -6.3221 H   0  0  0  0  0  0  0  0  0  0  0  0
   -6.1733    0.8176   -4.2805 H   0  0  0  0  0  0  0  0  0  0  0  0
   -5.0511   -0.1706   -5.2195 H   0  0  0  0  0  0  0  0  0  0  0  0
   -7.1916    0.1418    2.6580 H   0  0  0  0  0  0  0  0  0  0  0  0
   -7.2561    1.4111    1.4473 H   0  0  0  0  0  0  0  0  0  0  0  0
   -6.4668    2.4587    3.4605 H   0  0  0  0  0  0  0  0  0  0  0  0
   -5.2815    1.1850    3.7684 H   0  0  0  0  0  0  0  0  0  0  0  0
   -5.0354    2.3110    2.4168 H   0  0  0  0  0  0  0  0  0  0  0  0
   -2.2874   -1.8224    1.3710 H   0  0  0  0  0  0  0  0  0  0  0  0
   -2.6694   -2.7244   -0.0858 H   0  0  0  0  0  0  0  0  0  0  0  0
   -4.1136   -4.2863    1.2073 H   0  0  0  0  0  0  0  0  0  0  0  0
   -3.7989   -3.3766    2.6913 H   0  0  0  0  0  0  0  0  0  0  0  0
   -1.3699   -3.9359    2.5452 H   0  0  0  0  0  0  0  0  0  0  0  0
   -2.3694   -5.3977    2.5754 H   0  0  0  0  0  0  0  0  0  0  0  0
   -1.6643   -4.8419    1.0473 H   0  0  0  0  0  0  0  0  0  0  0  0
   -7.3174   -0.1606   -6.2448 H   0  0  0  0  0  0  0  0  0  0  0  0
   -6.1233    0.5577   -7.3378 H   0  0  0  0  0  0  0  0  0  0  0  0
   -7.2422    1.5994   -6.4332 H   0  0  0  0  0  0  0  0  0  0  0  0
  1  2  1  0  0  0  0 
  1  6  1  0  0  0  0 
  2  3  2  0  0  0  0 
  3  4  1  0  0  0  0 
  4  5  1  0  0  0  0 
  5  6  1  0  0  0  0 
  7  8  2  0  0  0  0 
  8  9  1  0  0  0  0 
  5  7  1  0  0  0  0 
  6  9  1  0  0  0  0 
  3 10  1  0  0  0  0 
 11 12  1  0  0  0  0 
 12 13  2  0  0  0  0 
 13 14  1  0  0  0  0 
 14 15  2  0  0  0  0 
 10 11  2  0  0  0  0 
 10 15  1  0  0  0  0 
 12 16  1  0  0  0  0 
 16 17  1  0  0  0  0 
 18 19  1  0  0  0  0 
 19 20  1  0  0  0  0 
 20 21  1  0  0  0  0 
 21 22  1  0  0  0  0 
 17 18  1  0  0  0  0 
 17 22  1  0  0  0  0 
 20 23  1  0  0  0  0 
 23 24  1  0  0  0  0 
 24 25  1  0  0  0  0 
 15 26  1  0  0  0  0 
 26 27  1  0  0  0  0 
 27 28  1  0  0  0  0 
  1 29  2  0  0  0  0 
  9 30  1  0  0  0  0 
 30 31  1  0  0  0  0 
  7 32  1  0  0  0  0 
 32 33  1  0  0  0  0 
 33 34  1  0  0  0  0 
 28 35  1  0  0  0  0 
 16 36  2  0  0  0  0 
 16 37  2  0  0  0  0 
 38  4  1  0  0  0  0 
 39  5  1  0  0  0  0 
 40  6  1  0  0  0  0 
 41  8  1  0  0  0  0 
 42 11  1  0  0  0  0 
 43 13  1  0  0  0  0 
 44 14  1  0  0  0  0 
 45 18  1  0  0  0  0 
 46 18  1  0  0  0  0 
 47 19  1  0  0  0  0 
 48 19  1  0  0  0  0 
 49 21  1  0  0  0  0 
 50 21  1  0  0  0  0 
 51 22  1  0  0  0  0 
 52 22  1  0  0  0  0 
 53 23  1  0  0  0  0 
 54 23  1  0  0  0  0 
 55 24  1  0  0  0  0 
 56 24  1  0  0  0  0 
 57 25  1  0  0  0  0 
 58 27  1  0  0  0  0 
 59 27  1  0  0  0  0 
 60 28  1  0  0  0  0 
 61 28  1  0  0  0  0 
 62 30  1  0  0  0  0 
 63 30  1  0  0  0  0 
 64 31  1  0  0  0  0 
 65 31  1  0  0  0  0 
 66 31  1  0  0  0  0 
 67 32  1  0  0  0  0 
 68 32  1  0  0  0  0 
 69 33  1  0  0  0  0 
 70 33  1  0  0  0  0 
 71 34  1  0  0  0  0 
 72 34  1  0  0  0  0 
 73 34  1  0  0  0  0 
 74 35  1  0  0  0  0 
 75 35  1  0  0  0  0 
 76 35  1  0  0  0  0 
M  END
> <cdk:Title>
mirodenafil

> <Conformer>
1

> <SuperDrugID>
SD003870

$$$$
