arbekacin
  CDK     0628171801

 82 84  0  0  0  0  0  0  0  0999 V2000
   -1.6491    2.0380   -2.7499 O   0  0  0  0  0  0  0  0  0  0  0  0
   -1.6542    0.5911   -2.7059 C   0  0  1  0  0  0  0  0  0  0  0  0
   -0.7086    2.8127   -1.9776 C   0  0  1  0  0  0  0  0  0  0  0  0
   -2.1728   -0.0020   -1.3581 C   0  0  2  0  0  0  0  0  0  0  0  0
   -2.5995    0.2031   -3.8901 C   0  0  1  0  0  0  0  0  0  0  0  0
    0.6760    2.4196   -2.1446 O   0  0  0  0  0  0  0  0  0  0  0  0
   -0.9063    4.3126   -2.3451 C   0  0  2  0  0  0  0  0  0  0  0  0
   -1.2512    0.2058   -0.2760 N   0  0  0  0  0  0  0  0  0  0  0  0
   -2.4222   -1.5371   -1.4801 C   0  0  2  0  0  0  0  0  0  0  0  0
   -1.9843    0.6260   -5.1070 O   0  0  0  0  0  0  0  0  0  0  0  0
   -2.9433   -1.3146   -3.9748 C   0  0  1  0  0  0  0  0  0  0  0  0
    1.2510    2.6415   -3.4551 C   0  0  2  0  0  0  0  0  0  0  0  0
   -2.2915    4.6638   -2.2911 O   0  0  0  0  0  0  0  0  0  0  0  0
   -0.3345    4.6075   -3.7628 C   0  0  2  0  0  0  0  0  0  0  0  0
   -1.5890    0.2134    1.0470 C   0  0  0  0  0  0  0  0  0  0  0  0
   -3.4354   -1.8703   -2.6029 C   0  0  1  0  0  0  0  0  0  0  0  0
   -3.7900   -1.6546   -5.1075 O   0  0  0  0  0  0  0  0  0  0  0  0
    2.7094    2.1186   -3.4378 C   0  0  1  0  0  0  0  0  0  0  0  0
    1.1433    4.1429   -3.8628 C   0  0  2  0  0  0  0  0  0  0  0  0
   -0.4304    6.0372   -4.0890 N   0  0  1  0  0  0  0  0  0  0  0  0
   -0.5510    0.2497    2.1029 C   0  0  2  0  0  0  0  0  0  0  0  0
   -2.7897    0.1458    1.4027 O   0  0  0  0  0  0  0  0  0  0  0  0
   -3.6406   -3.3268   -2.6747 N   0  0  2  0  0  0  0  0  0  0  0  0
   -5.1905   -1.2835   -5.1232 C   0  0  1  0  0  0  0  0  0  0  0  0
    3.5076    2.8066   -2.4785 O   0  0  0  0  0  0  0  0  0  0  0  0
    1.6374    4.3374   -5.1883 O   0  0  0  0  0  0  0  0  0  0  0  0
    0.2581    1.5781    2.1296 C   0  0  1  0  0  0  0  0  0  0  0  0
    0.3068   -0.8727    1.9077 O   0  0  0  0  0  0  0  0  0  0  0  0
   -5.4158    0.1082   -5.4354 O   0  0  0  0  0  0  0  0  0  0  0  0
   -5.9906   -2.2316   -6.2012 C   0  0  2  0  0  0  0  0  0  0  0  0
    1.1994    1.6706    3.3582 C   0  0  2  0  0  0  0  0  0  0  0  0
   -5.1573    0.5074   -6.8037 C   0  0  2  0  0  0  0  0  0  0  0  0
   -5.6285   -3.6831   -6.1605 N   0  0  1  0  0  0  0  0  0  0  0  0
   -5.8402   -1.7809   -7.7068 C   0  0  1  0  0  0  0  0  0  0  0  0
    1.8219    2.9940    3.4721 N   0  0  1  0  0  0  0  0  0  0  0  0
   -5.3695    2.0384   -6.9119 C   0  0  1  0  0  0  0  0  0  0  0  0
   -6.0731   -0.2556   -7.8024 C   0  0  2  0  0  0  0  0  0  0  0  0
   -4.4569    2.7677   -6.0248 N   0  0  1  0  0  0  0  0  0  0  0  0
   -0.9548    2.6996   -0.9201 H   0  0  0  0  0  0  0  0  0  0  0  0
   -5.6644   -1.4813   -4.1634 H   0  0  0  0  0  0  0  0  0  0  0  0
   -0.6522    0.2011   -2.9082 H   0  0  0  0  0  0  0  0  0  0  0  0
   -3.1206    0.4960   -1.1314 H   0  0  0  0  0  0  0  0  0  0  0  0
   -3.5316    0.7604   -3.7723 H   0  0  0  0  0  0  0  0  0  0  0  0
   -0.3788    4.9319   -1.6108 H   0  0  0  0  0  0  0  0  0  0  0  0
   -0.3108    0.2874   -0.4983 H   0  0  0  0  0  0  0  0  0  0  0  0
   -2.8160   -1.9224   -0.5356 H   0  0  0  0  0  0  0  0  0  0  0  0
   -1.4769   -2.0526   -1.6793 H   0  0  0  0  0  0  0  0  0  0  0  0
   -2.6494    0.4540   -5.8014 H   0  0  0  0  0  0  0  0  0  0  0  0
   -2.0006   -1.8249   -4.1948 H   0  0  0  0  0  0  0  0  0  0  0  0
    0.7082    2.0338   -4.1871 H   0  0  0  0  0  0  0  0  0  0  0  0
   -2.5894    4.3832   -1.3994 H   0  0  0  0  0  0  0  0  0  0  0  0
   -0.9258    4.0702   -4.5105 H   0  0  0  0  0  0  0  0  0  0  0  0
   -4.3880   -1.4104   -2.3289 H   0  0  0  0  0  0  0  0  0  0  0  0
    2.7042    1.0560   -3.1835 H   0  0  0  0  0  0  0  0  0  0  0  0
    3.1674    2.2286   -4.4240 H   0  0  0  0  0  0  0  0  0  0  0  0
    1.7532    4.7508   -3.1864 H   0  0  0  0  0  0  0  0  0  0  0  0
   -1.4225    6.2845   -4.0893 H   0  0  0  0  0  0  0  0  0  0  0  0
    0.0092    6.5474   -3.3200 H   0  0  0  0  0  0  0  0  0  0  0  0
   -1.0325    0.1250    3.0793 H   0  0  0  0  0  0  0  0  0  0  0  0
   -4.3616   -3.5016   -3.3790 H   0  0  0  0  0  0  0  0  0  0  0  0
   -4.0335   -3.6135   -1.7755 H   0  0  0  0  0  0  0  0  0  0  0  0
    4.3798    2.3612   -2.5179 H   0  0  0  0  0  0  0  0  0  0  0  0
    1.5957    5.3061   -5.3395 H   0  0  0  0  0  0  0  0  0  0  0  0
    0.8568    1.6627    1.2182 H   0  0  0  0  0  0  0  0  0  0  0  0
   -0.4348    2.4247    2.1644 H   0  0  0  0  0  0  0  0  0  0  0  0
    0.9186   -0.8662    2.6732 H   0  0  0  0  0  0  0  0  0  0  0  0
   -7.1012   -2.2526   -6.0371 H   0  0  0  0  0  0  0  0  0  0  0  0
    1.9918    0.9248    3.2767 H   0  0  0  0  0  0  0  0  0  0  0  0
    0.6385    1.4873    4.2764 H   0  0  0  0  0  0  0  0  0  0  0  0
   -4.1185    0.2890   -7.0660 H   0  0  0  0  0  0  0  0  0  0  0  0
   -5.8869   -4.0286   -5.2339 H   0  0  0  0  0  0  0  0  0  0  0  0
   -6.2300   -4.1650   -6.8322 H   0  0  0  0  0  0  0  0  0  0  0  0
   -4.8312   -2.0120   -8.0598 H   0  0  0  0  0  0  0  0  0  0  0  0
   -6.5592   -2.3049   -8.3421 H   0  0  0  0  0  0  0  0  0  0  0  0
    2.4122    2.9750    4.3082 H   0  0  0  0  0  0  0  0  0  0  0  0
    2.4482    3.1028    2.6725 H   0  0  0  0  0  0  0  0  0  0  0  0
   -5.1812    2.3689   -7.9355 H   0  0  0  0  0  0  0  0  0  0  0  0
   -6.3969    2.3005   -6.6475 H   0  0  0  0  0  0  0  0  0  0  0  0
   -5.8607    0.0685   -8.8243 H   0  0  0  0  0  0  0  0  0  0  0  0
   -7.1217   -0.0323   -7.5850 H   0  0  0  0  0  0  0  0  0  0  0  0
   -4.7018    3.7571   -6.0994 H   0  0  0  0  0  0  0  0  0  0  0  0
   -4.6721    2.4821   -5.0669 H   0  0  0  0  0  0  0  0  0  0  0  0
  3  1  1  0  0  0  0 
  2  1  1  0  0  0  0 
  2  4  1  0  0  0  0 
  5  2  1  0  0  0  0 
  3  6  1  0  0  0  0 
  7  3  1  0  0  0  0 
  3 39  1  0  0  0  0 
  4  8  1  0  0  0  0 
  4  9  1  0  0  0  0 
  5 10  1  0  0  0  0 
 11  5  1  0  0  0  0 
 12  6  1  0  0  0  0 
  7 13  1  0  0  0  0 
 14  7  1  0  0  0  0 
  8 15  1  0  0  0  0 
 16  9  1  0  0  0  0 
 16 11  1  0  0  0  0 
 11 17  1  0  0  0  0 
 12 18  1  0  0  0  0 
 19 12  1  0  0  0  0 
 19 14  1  0  0  0  0 
 14 20  1  0  0  0  0 
 21 15  1  0  0  0  0 
 15 22  2  0  0  0  0 
 16 23  1  0  0  0  0 
 24 17  1  0  0  0  0 
 18 25  1  0  0  0  0 
 19 26  1  0  0  0  0 
 21 27  1  0  0  0  0 
 21 28  1  0  0  0  0 
 24 29  1  0  0  0  0 
 30 24  1  0  0  0  0 
 24 40  1  0  0  0  0 
 27 31  1  0  0  0  0 
 32 29  1  0  0  0  0 
 30 33  1  0  0  0  0 
 30 34  1  0  0  0  0 
 31 35  1  0  0  0  0 
 32 36  1  0  0  0  0 
 32 37  1  0  0  0  0 
 34 37  1  0  0  0  0 
 36 38  1  0  0  0  0 
  2 41  1  0  0  0  0 
  4 42  1  0  0  0  0 
  5 43  1  0  0  0  0 
  7 44  1  0  0  0  0 
  8 45  1  0  0  0  0 
  9 46  1  0  0  0  0 
  9 47  1  0  0  0  0 
 10 48  1  0  0  0  0 
 11 49  1  0  0  0  0 
 12 50  1  0  0  0  0 
 13 51  1  0  0  0  0 
 14 52  1  0  0  0  0 
 16 53  1  0  0  0  0 
 18 54  1  0  0  0  0 
 18 55  1  0  0  0  0 
 19 56  1  0  0  0  0 
 20 57  1  0  0  0  0 
 20 58  1  0  0  0  0 
 21 59  1  0  0  0  0 
 23 60  1  0  0  0  0 
 23 61  1  0  0  0  0 
 25 62  1  0  0  0  0 
 26 63  1  0  0  0  0 
 27 64  1  0  0  0  0 
 27 65  1  0  0  0  0 
 28 66  1  0  0  0  0 
 30 67  1  0  0  0  0 
 31 68  1  0  0  0  0 
 31 69  1  0  0  0  0 
 32 70  1  0  0  0  0 
 33 71  1  0  0  0  0 
 33 72  1  0  0  0  0 
 34 73  1  0  0  0  0 
 34 74  1  0  0  0  0 
 35 75  1  0  0  0  0 
 35 76  1  0  0  0  0 
 36 77  1  0  0  0  0 
 36 78  1  0  0  0  0 
 37 79  1  0  0  0  0 
 37 80  1  0  0  0  0 
 38 81  1  0  0  0  0 
 38 82  1  0  0  0  0 
M  END
> <cdk:Title>
arbekacin

> <Conformer>
1

> <SuperDrugID>
SD000196

$$$$
