phenicarbazide
  CDK     0628171801

 20 20  0  0  0  0  0  0  0  0999 V2000
    2.0243   -1.8229    1.9706 N   0  0  0  0  0  0  0  0  0  0  0  0
    0.7532   -1.4403    1.7764 C   0  0  0  0  0  0  0  0  0  0  0  0
   -0.0178   -1.3612    2.7604 O   0  0  0  0  0  0  0  0  0  0  0  0
    0.3490   -1.1589    0.5193 N   0  0  0  0  0  0  0  0  0  0  0  0
   -0.9141   -0.7771    0.2191 N   0  0  2  0  0  0  0  0  0  0  0  0
   -1.5016   -1.7093   -0.6541 C   0  0  0  0  0  0  0  0  0  0  0  0
   -1.8753   -2.9894   -0.1901 C   0  0  0  0  0  0  0  0  0  0  0  0
   -2.4455   -3.9276   -1.0703 C   0  0  0  0  0  0  0  0  0  0  0  0
   -2.6514   -3.5854   -2.4187 C   0  0  0  0  0  0  0  0  0  0  0  0
   -2.2968   -2.3050   -2.8836 C   0  0  0  0  0  0  0  0  0  0  0  0
   -1.7262   -1.3671   -2.0034 C   0  0  0  0  0  0  0  0  0  0  0  0
    2.6285   -1.8880    1.2161 H   0  0  0  0  0  0  0  0  0  0  0  0
    2.3393   -2.0340    2.8637 H   0  0  0  0  0  0  0  0  0  0  0  0
    0.9916   -1.2409   -0.2023 H   0  0  0  0  0  0  0  0  0  0  0  0
   -0.8609    0.1392   -0.2332 H   0  0  0  0  0  0  0  0  0  0  0  0
   -1.7305   -3.2422    0.7904 H   0  0  0  0  0  0  0  0  0  0  0  0
   -2.7070   -4.8563   -0.7277 H   0  0  0  0  0  0  0  0  0  0  0  0
   -3.0614   -4.2667   -3.0603 H   0  0  0  0  0  0  0  0  0  0  0  0
   -2.4529   -2.0596   -3.8632 H   0  0  0  0  0  0  0  0  0  0  0  0
   -1.4704   -0.4393   -2.3510 H   0  0  0  0  0  0  0  0  0  0  0  0
  1  2  1  0  0  0  0 
  2  3  2  0  0  0  0 
  2  4  1  0  0  0  0 
  4  5  1  0  0  0  0 
  5  6  1  0  0  0  0 
  6  7  2  0  0  0  0 
  7  8  1  0  0  0  0 
  8  9  2  0  0  0  0 
  9 10  1  0  0  0  0 
 10 11  2  0  0  0  0 
  6 11  1  0  0  0  0 
 12  1  1  0  0  0  0 
 13  1  1  0  0  0  0 
 14  4  1  0  0  0  0 
 15  5  1  0  0  0  0 
 16  7  1  0  0  0  0 
 17  8  1  0  0  0  0 
 18  9  1  0  0  0  0 
 19 10  1  0  0  0  0 
 20 11  1  0  0  0  0 
M  END
> <cdk:Title>
phenicarbazide

> <Conformer>
1

> <SuperDrugID>
SD001908

$$$$
