secretin porcine
  CDK     0628171802

435436  0  0  0  0  0  0  0  0999 V2000
   -3.6944   19.9718   -4.7439 N   0  0  1  0  0  0  0  0  0  0  0  0
   -2.6380   21.1292   -7.1922 N   0  0  0  0  0  0  0  0  0  0  0  0
   -3.3187   24.0133   -7.9458 N   0  0  0  0  0  0  0  0  0  0  0  0
   -6.3492   23.9689   -7.6012 N   0  0  0  0  0  0  0  0  0  0  0  0
   -8.5232   23.8009   -5.6665 N   0  0  0  0  0  0  0  0  0  0  0  0
  -11.3098   24.3492   -5.0686 N   0  0  0  0  0  0  0  0  0  0  0  0
  -14.2057   24.1006   -3.4799 N   0  0  0  0  0  0  0  0  0  0  0  0
  -16.6551   24.8037   -2.0177 N   0  0  0  0  0  0  0  0  0  0  0  0
  -19.8243   24.0800   -1.1291 N   0  0  0  0  0  0  0  0  0  0  0  0
  -21.9933   22.4544    0.3953 N   0  0  0  0  0  0  0  0  0  0  0  0
  -21.3200   19.5910   -0.1749 N   0  0  0  0  0  0  0  0  0  0  0  0
  -19.2327   17.1661    0.0586 N   0  0  0  0  0  0  0  0  0  0  0  0
  -18.4559   14.4409   -0.2740 N   0  0  0  0  0  0  0  0  0  0  0  0
  -16.5322   12.2767   -1.1483 N   0  0  0  0  0  0  0  0  0  0  0  0
  -15.3885    9.5754   -1.2750 N   0  0  0  0  0  0  0  0  0  0  0  0
  -13.9506    6.9048   -2.4845 N   0  0  0  0  0  0  0  0  0  0  0  0
  -12.3966    4.5480   -1.9182 N   0  0  0  0  0  0  0  0  0  0  0  0
   -9.9718    2.3679   -3.0123 N   0  0  0  0  0  0  0  0  0  0  0  0
   -8.3352    0.3929   -1.7325 N   0  0  0  0  0  0  0  0  0  0  0  0
   -7.0687   -2.3334   -1.3755 N   0  0  0  0  0  0  0  0  0  0  0  0
   -4.9301   -3.9265   -0.0522 N   0  0  0  0  0  0  0  0  0  0  0  0
   -3.6813   -6.3724    0.9231 N   0  0  0  0  0  0  0  0  0  0  0  0
   -1.2932   -8.1806    1.2254 N   0  0  0  0  0  0  0  0  0  0  0  0
    0.3832  -10.6758    2.5975 N   0  0  0  0  0  0  0  0  0  0  0  0
    2.1653  -13.1804    4.3011 N   0  0  0  0  0  0  0  0  0  0  0  0
    3.7208  -15.3648    2.5460 N   0  0  0  0  0  0  0  0  0  0  0  0
    7.0163  -14.6226    2.1191 N   0  0  0  0  0  0  0  0  0  0  0  0
   10.4465  -13.6054    1.4591 N   0  0  0  0  0  0  0  0  0  0  0  0
   -2.4332   19.8564   -6.7518 C   0  0  0  0  0  0  0  0  0  0  0  0
   -1.9515   18.1825   -4.8727 C   0  0  1  0  0  0  0  0  0  0  0  0
   -2.0162   17.9488   -3.4161 C   0  0  0  0  0  0  0  0  0  0  0  0
   -2.6225   16.8812   -2.7615 C   0  0  0  0  0  0  0  0  0  0  0  0
   -2.4742   17.0401   -1.4379 N   0  0  0  0  0  0  0  0  0  0  0  0
   -1.7906   18.1846   -1.2696 C   0  0  0  0  0  0  0  0  0  0  0  0
   -1.5083   18.7344   -2.4585 N   0  0  0  0  0  0  0  0  0  0  0  0
   -2.3701   19.6251   -5.2875 C   0  0  2  0  0  0  0  0  0  0  0  0
   -2.3453   18.9050   -7.5648 O   0  0  0  0  0  0  0  0  0  0  0  0
   -2.7996   23.0006   -8.7019 C   0  0  0  0  0  0  0  0  0  0  0  0
   -4.4013   21.0744   -8.9173 C   0  0  1  0  0  0  0  0  0  0  0  0
   -4.7919   21.5566  -10.2011 O   0  0  0  0  0  0  0  0  0  0  0  0
   -2.9666   21.5277   -8.5291 C   0  0  2  0  0  0  0  0  0  0  0  0
   -2.1182   23.3958   -9.6759 O   0  0  0  0  0  0  0  0  0  0  0  0
   -5.3598   24.6392   -6.9442 C   0  0  0  0  0  0  0  0  0  0  0  0
   -3.1542   24.5863   -5.6136 C   0  0  2  0  0  0  0  0  0  0  0  0
   -3.7420   24.5259   -4.2613 C   0  0  0  0  0  0  0  0  0  0  0  0
   -4.0292   25.6636   -3.5870 O   0  0  0  0  0  0  0  0  0  0  0  0
   -3.9739   23.4251   -3.7116 O   0  0  0  0  0  0  0  0  0  0  0  0
   -4.0580   23.9575   -6.7206 C   0  0  2  0  0  0  0  0  0  0  0  0
   -5.5500   25.8038   -6.5201 O   0  0  0  0  0  0  0  0  0  0  0  0
   -8.6109   23.6625   -7.0180 C   0  0  0  0  0  0  0  0  0  0  0  0
   -7.6756   24.4273   -7.8638 C   0  0  1  0  0  0  0  0  0  0  0  0
   -9.4511   22.9012   -7.5535 O   0  0  0  0  0  0  0  0  0  0  0  0
  -10.3751   23.9101   -4.1766 C   0  0  0  0  0  0  0  0  0  0  0  0
   -8.9378   21.7888   -2.6008 O   0  0  0  0  0  0  0  0  0  0  0  0
   -9.2564   23.0683   -4.6745 C   0  0  2  0  0  0  0  0  0  0  0  0
   -7.3696   23.6159   -2.9123 C   0  0  0  0  0  0  0  0  0  0  0  0
   -8.2482   22.5373   -3.6015 C   0  0  1  0  0  0  0  0  0  0  0  0
  -10.4840   24.1906   -2.9593 O   0  0  0  0  0  0  0  0  0  0  0  0
  -13.6274   24.3530   -4.6934 C   0  0  0  0  0  0  0  0  0  0  0  0
  -12.4951   26.3192   -5.8776 C   0  0  1  0  0  0  0  0  0  0  0  0
  -13.4350   27.4249   -5.5427 C   0  0  0  0  0  0  0  0  0  0  0  0
  -13.0943   28.3717   -4.5458 C   0  0  0  0  0  0  0  0  0  0  0  0
  -13.9580   29.4402   -4.2428 C   0  0  0  0  0  0  0  0  0  0  0  0
  -15.1788   29.5722   -4.9277 C   0  0  0  0  0  0  0  0  0  0  0  0
  -15.5389   28.6328   -5.9103 C   0  0  0  0  0  0  0  0  0  0  0  0
  -14.6733   27.5654   -6.2140 C   0  0  0  0  0  0  0  0  0  0  0  0
  -12.4187   25.2115   -4.7809 C   0  0  2  0  0  0  0  0  0  0  0  0
  -14.0678   23.8142   -5.7378 O   0  0  0  0  0  0  0  0  0  0  0  0
  -16.0449   23.5821   -2.0273 C   0  0  0  0  0  0  0  0  0  0  0  0
  -15.8126   20.7755   -2.9977 O   0  0  0  0  0  0  0  0  0  0  0  0
  -15.2810   23.1782   -3.2405 C   0  0  2  0  0  0  0  0  0  0  0  0
  -13.5631   21.4001   -2.3313 C   0  0  0  0  0  0  0  0  0  0  0  0
  -14.7581   21.7001   -3.2698 C   0  0  1  0  0  0  0  0  0  0  0  0
  -16.2001   22.7932   -1.0647 O   0  0  0  0  0  0  0  0  0  0  0  0
  -18.9657   24.9711   -1.7074 C   0  0  0  0  0  0  0  0  0  0  0  0
  -17.4523   26.7539   -0.7541 C   0  0  2  0  0  0  0  0  0  0  0  0
  -18.4798   27.2141    0.1205 O   0  0  0  0  0  0  0  0  0  0  0  0
  -17.6488   25.2519   -1.0822 C   0  0  2  0  0  0  0  0  0  0  0  0
  -19.2449   25.5215   -2.8009 O   0  0  0  0  0  0  0  0  0  0  0  0
  -22.0735   23.2632   -0.7029 C   0  0  0  0  0  0  0  0  0  0  0  0
  -20.6864   22.3817   -2.6709 C   0  0  1  0  0  0  0  0  0  0  0  0
  -21.9042   21.8165   -3.4532 C   0  0  1  0  0  0  0  0  0  0  0  0
  -21.5039   20.8348   -4.4807 C   0  0  0  0  0  0  0  0  0  0  0  0
  -21.9081   19.5472   -4.4068 O   0  0  0  0  0  0  0  0  0  0  0  0
  -20.7857   21.1776   -5.4474 O   0  0  0  0  0  0  0  0  0  0  0  0
  -21.0294   23.5742   -1.7257 C   0  0  2  0  0  0  0  0  0  0  0  0
  -23.1983   23.7976   -0.8429 O   0  0  0  0  0  0  0  0  0  0  0  0
  -21.2439   20.2967    0.9886 C   0  0  0  0  0  0  0  0  0  0  0  0
  -19.1210   22.2975    4.4674 C   0  0  0  0  0  0  0  0  0  0  0  0
  -20.4851   22.3832    2.2916 C   0  0  2  0  0  0  0  0  0  0  0  0
  -20.8723   21.7346    0.9213 C   0  0  2  0  0  0  0  0  0  0  0  0
  -17.8829   22.2598    2.2362 C   0  0  0  0  0  0  0  0  0  0  0  0
  -19.1836   21.8432    2.9806 C   0  0  1  0  0  0  0  0  0  0  0  0
  -21.4437   19.7319    2.0912 O   0  0  0  0  0  0  0  0  0  0  0  0
  -20.1112   17.7274   -0.8135 C   0  0  0  0  0  0  0  0  0  0  0  0
  -22.6073   17.7614   -1.2159 C   0  0  1  0  0  0  0  0  0  0  0  0
  -22.6670   16.3442   -1.3563 O   0  0  0  0  0  0  0  0  0  0  0  0
  -21.4278   18.1677   -0.3004 C   0  0  2  0  0  0  0  0  0  0  0  0
  -19.7984   17.9519   -2.0083 O   0  0  0  0  0  0  0  0  0  0  0  0
  -17.6995   15.4229    0.2925 C   0  0  0  0  0  0  0  0  0  0  0  0
  -16.9767   17.9047    0.4330 C   0  0  1  0  0  0  0  0  0  0  0  0
  -15.4783   17.8275    0.0342 C   0  0  1  0  0  0  0  0  0  0  0  0
  -14.6278   18.9067    0.7503 C   0  0  1  0  0  0  0  0  0  0  0  0
  -13.2805   18.7234    0.4507 N   0  0  0  0  0  0  0  0  0  0  0  0
  -12.2707   19.4033    0.8606 C   0  0  0  0  0  0  0  0  0  0  0  0
  -12.3631   20.4437    1.6682 N   0  0  0  0  0  0  0  0  0  0  0  0
  -11.0828   19.0265    0.4537 N   0  0  0  0  0  0  0  0  0  0  0  0
  -17.8753   16.8063   -0.2154 C   0  0  2  0  0  0  0  0  0  0  0  0
  -16.8987   15.1663    1.2229 O   0  0  0  0  0  0  0  0  0  0  0  0
  -17.8909   12.3310   -1.0700 C   0  0  0  0  0  0  0  0  0  0  0  0
  -19.4918   10.8932    2.2748 C   0  0  0  0  0  0  0  0  0  0  0  0
  -19.9603   12.6762    0.4299 C   0  0  1  0  0  0  0  0  0  0  0  0
  -18.4855   13.0532    0.0815 C   0  0  2  0  0  0  0  0  0  0  0  0
  -21.7267   10.9225    1.0426 C   0  0  0  0  0  0  0  0  0  0  0  0
  -20.2028   11.2125    0.9278 C   0  0  2  0  0  0  0  0  0  0  0  0
  -18.6173   11.8540   -1.9750 O   0  0  0  0  0  0  0  0  0  0  0  0
  -14.8382   10.7405   -1.7229 C   0  0  0  0  0  0  0  0  0  0  0  0
  -15.0613   13.0340   -2.8899 C   0  0  2  0  0  0  0  0  0  0  0  0
  -14.3471   12.7594   -4.2430 C   0  0  1  0  0  0  0  0  0  0  0  0
  -13.7708   14.0571   -4.8663 C   0  0  1  0  0  0  0  0  0  0  0  0
  -13.1969   13.7972   -6.1108 N   0  0  0  0  0  0  0  0  0  0  0  0
  -12.6351   14.6236   -6.9196 C   0  0  0  0  0  0  0  0  0  0  0  0
  -12.5096   15.9159   -6.6793 N   0  0  0  0  0  0  0  0  0  0  0  0
  -12.1606   14.1545   -8.0507 N   0  0  0  0  0  0  0  0  0  0  0  0
  -15.7488   11.7897   -2.2460 C   0  0  2  0  0  0  0  0  0  0  0  0
  -13.5976   10.9232   -1.6865 O   0  0  0  0  0  0  0  0  0  0  0  0
  -14.9263    7.2847   -1.6121 C   0  0  0  0  0  0  0  0  0  0  0  0
  -15.1612    8.2304    0.7418 C   0  0  1  0  0  0  0  0  0  0  0  0
  -14.4530    7.1273    1.4242 C   0  0  0  0  0  0  0  0  0  0  0  0
  -15.1112    6.0171    1.8327 O   0  0  0  0  0  0  0  0  0  0  0  0
  -13.2219    7.1983    1.6388 O   0  0  0  0  0  0  0  0  0  0  0  0
  -14.6873    8.4527   -0.7254 C   0  0  2  0  0  0  0  0  0  0  0  0
  -16.0236    6.6782   -1.5614 O   0  0  0  0  0  0  0  0  0  0  0  0
  -12.6744    5.0568   -3.1531 C   0  0  0  0  0  0  0  0  0  0  0  0
  -14.2334    6.2302   -4.8110 C   0  0  2  0  0  0  0  0  0  0  0  0
  -14.3145    5.1146   -5.6957 O   0  0  0  0  0  0  0  0  0  0  0  0
  -13.9660    5.7626   -3.3535 C   0  0  2  0  0  0  0  0  0  0  0  0
  -11.8431    4.9459   -4.0871 O   0  0  0  0  0  0  0  0  0  0  0  0
  -11.0314    2.5847   -2.1853 C   0  0  0  0  0  0  0  0  0  0  0  0
  -11.1189    3.7830    0.0122 C   0  0  0  0  0  0  0  0  0  0  0  0
  -11.1748    3.9076   -1.5314 C   0  0  2  0  0  0  0  0  0  0  0  0
  -11.8830    1.6920   -1.9579 O   0  0  0  0  0  0  0  0  0  0  0  0
   -8.3470    0.6962   -3.0634 C   0  0  0  0  0  0  0  0  0  0  0  0
   -9.6331    1.3842   -5.2033 C   0  0  2  0  0  0  0  0  0  0  0  0
   -9.5875    0.0802   -6.0486 C   0  0  1  0  0  0  0  0  0  0  0  0
   -9.7292    0.3473   -7.5685 C   0  0  1  0  0  0  0  0  0  0  0  0
   -9.6924   -0.8521   -8.2780 N   0  0  0  0  0  0  0  0  0  0  0  0
   -9.8127   -1.0353   -9.5444 C   0  0  0  0  0  0  0  0  0  0  0  0
  -10.0054   -0.0604  -10.4132 N   0  0  0  0  0  0  0  0  0  0  0  0
   -9.7378   -2.2661   -9.9954 N   0  0  0  0  0  0  0  0  0  0  0  0
   -9.6333    1.1367   -3.6627 C   0  0  2  0  0  0  0  0  0  0  0  0
   -7.2988    0.6335   -3.7490 O   0  0  0  0  0  0  0  0  0  0  0  0
   -7.3643   -1.3426   -0.4882 C   0  0  0  0  0  0  0  0  0  0  0  0
   -4.5104    1.2475    0.5004 C   0  0  0  0  0  0  0  0  0  0  0  0
   -7.0966    1.1206    0.2205 C   0  0  1  0  0  0  0  0  0  0  0  0
   -7.1954    0.0650   -0.9282 C   0  0  2  0  0  0  0  0  0  0  0  0
   -6.0526    1.9076    2.4277 C   0  0  0  0  0  0  0  0  0  0  0  0
   -5.8767    0.9785    1.1932 C   0  0  2  0  0  0  0  0  0  0  0  0
   -7.7718   -1.6109    0.6676 O   0  0  0  0  0  0  0  0  0  0  0  0
   -5.6877   -4.1860   -1.1535 C   0  0  0  0  0  0  0  0  0  0  0  0
   -8.0384   -4.4204   -2.1791 C   0  0  1  0  0  0  0  0  0  0  0  0
   -8.2548   -5.9390   -1.9227 C   0  0  1  0  0  0  0  0  0  0  0  0
   -9.1998   -6.5411   -2.8855 C   0  0  0  0  0  0  0  0  0  0  0  0
  -10.4845   -6.1426   -2.9244 N   0  0  0  0  0  0  0  0  0  0  0  0
   -8.8283   -7.4364   -3.6779 O   0  0  0  0  0  0  0  0  0  0  0  0
   -7.1035   -3.7462   -1.1318 C   0  0  2  0  0  0  0  0  0  0  0  0
   -5.1917   -4.7144   -2.1774 O   0  0  0  0  0  0  0  0  0  0  0  0
   -3.2473   -5.0923    1.1234 C   0  0  0  0  0  0  0  0  0  0  0  0
   -2.9425   -2.6491    0.3197 C   0  0  2  0  0  0  0  0  0  0  0  0
   -1.3958   -2.5304    0.2463 C   0  0  1  0  0  0  0  0  0  0  0  0
   -0.9283   -1.0566    0.3469 C   0  0  1  0  0  0  0  0  0  0  0  0
    0.4581   -0.9814    0.2361 N   0  0  0  0  0  0  0  0  0  0  0  0
    1.1974    0.0690    0.2235 C   0  0  0  0  0  0  0  0  0  0  0  0
    0.7242    1.2968    0.3178 N   0  0  0  0  0  0  0  0  0  0  0  0
    2.4933   -0.0957    0.1010 N   0  0  0  0  0  0  0  0  0  0  0  0
   -3.5110   -4.0809    0.0692 C   0  0  2  0  0  0  0  0  0  0  0  0
   -2.6430   -4.7774    2.1765 O   0  0  0  0  0  0  0  0  0  0  0  0
   -2.6267   -8.4571    1.2197 C   0  0  0  0  0  0  0  0  0  0  0  0
   -6.4216   -9.8026    3.3521 C   0  0  0  0  0  0  0  0  0  0  0  0
   -4.9651   -8.0246    2.1975 C   0  0  2  0  0  0  0  0  0  0  0  0
   -3.5484   -7.4711    1.8360 C   0  0  2  0  0  0  0  0  0  0  0  0
   -4.5142   -8.7263    4.6700 C   0  0  0  0  0  0  0  0  0  0  0  0
   -5.0014   -9.1761    3.2627 C   0  0  1  0  0  0  0  0  0  0  0  0
   -3.0601   -9.5310    0.7369 O   0  0  0  0  0  0  0  0  0  0  0  0
    0.4765   -9.4140    2.0942 C   0  0  0  0  0  0  0  0  0  0  0  0
    1.4210  -10.5536   -1.5085 C   0  0  0  0  0  0  0  0  0  0  0  0
    0.6608   -8.4065   -0.2446 C   0  0  1  0  0  0  0  0  0  0  0  0
   -0.2383   -9.0725    0.8411 C   0  0  2  0  0  0  0  0  0  0  0  0
    2.8246   -8.4222   -1.6351 C   0  0  0  0  0  0  0  0  0  0  0  0
    1.8661   -9.2692   -0.7510 C   0  0  2  0  0  0  0  0  0  0  0  0
    1.1142   -8.5224    2.7042 O   0  0  0  0  0  0  0  0  0  0  0  0
    1.0236  -12.5953    3.8420 C   0  0  0  0  0  0  0  0  0  0  0  0
   -0.0524  -10.6590    5.0211 C   0  0  2  0  0  0  0  0  0  0  0  0
    0.5141  -10.9223    6.4465 C   0  0  1  0  0  0  0  0  0  0  0  0
   -0.4315  -10.5462    7.5194 C   0  0  0  0  0  0  0  0  0  0  0  0
   -0.8047   -9.2661    7.7051 N   0  0  0  0  0  0  0  0  0  0  0  0
   -0.8969  -11.4135    8.2933 O   0  0  0  0  0  0  0  0  0  0  0  0
    0.8929  -11.1175    3.8648 C   0  0  2  0  0  0  0  0  0  0  0  0
    0.0528  -13.2857    3.4469 O   0  0  0  0  0  0  0  0  0  0  0  0
    3.6714  -14.9706    3.8502 C   0  0  0  0  0  0  0  0  0  0  0  0
    2.3865  -14.5818    4.4510 C   0  0  1  0  0  0  0  0  0  0  0  0
    4.6989  -14.9598    4.5689 O   0  0  0  0  0  0  0  0  0  0  0  0
    5.7814  -14.6930    1.5471 C   0  0  0  0  0  0  0  0  0  0  0  0
    5.1446  -18.0064   -1.4864 C   0  0  0  0  0  0  0  0  0  0  0  0
    4.4885  -16.6644    0.6074 C   0  0  2  0  0  0  0  0  0  0  0  0
    4.8927  -15.8376    1.8702 C   0  0  2  0  0  0  0  0  0  0  0  0
    6.3473  -18.4909    0.7051 C   0  0  0  0  0  0  0  0  0  0  0  0
    5.6521  -17.3923   -0.1498 C   0  0  1  0  0  0  0  0  0  0  0  0
    5.3767  -13.8026    0.7611 O   0  0  0  0  0  0  0  0  0  0  0  0
    9.3716  -14.2064    2.0003 C   0  0  0  0  0  0  0  0  0  0  0  0
    8.6175  -11.1244    2.4364 C   0  0  0  0  0  0  0  0  0  0  0  0
    8.0122  -13.6097    1.8863 C   0  0  2  0  0  0  0  0  0  0  0  0
    7.9359  -12.7026    4.3355 C   0  0  0  0  0  0  0  0  0  0  0  0
    7.7720  -12.3726    2.8239 C   0  0  1  0  0  0  0  0  0  0  0  0
    9.5730  -15.2970    2.5831 O   0  0  0  0  0  0  0  0  0  0  0  0
   -4.3520   19.2615   -5.0721 H   0  0  0  0  0  0  0  0  0  0  0  0
   -3.6493   19.8938   -3.7255 H   0  0  0  0  0  0  0  0  0  0  0  0
   -2.6092   21.8256   -6.5199 H   0  0  0  0  0  0  0  0  0  0  0  0
   -3.1362   24.9093   -8.2723 H   0  0  0  0  0  0  0  0  0  0  0  0
   -6.1457   23.0743   -7.9087 H   0  0  0  0  0  0  0  0  0  0  0  0
   -7.8795   24.4495   -5.3423 H   0  0  0  0  0  0  0  0  0  0  0  0
  -11.2115   24.0581   -5.9894 H   0  0  0  0  0  0  0  0  0  0  0  0
  -13.8238   24.5419   -2.7049 H   0  0  0  0  0  0  0  0  0  0  0  0
  -16.4563   25.3987   -2.7582 H   0  0  0  0  0  0  0  0  0  0  0  0
  -19.5614   23.7151   -0.2714 H   0  0  0  0  0  0  0  0  0  0  0  0
  -22.8129   22.3707    0.9106 H   0  0  0  0  0  0  0  0  0  0  0  0
  -21.2277   20.0937   -0.9981 H   0  0  0  0  0  0  0  0  0  0  0  0
  -19.5465   17.0209    0.9658 H   0  0  0  0  0  0  0  0  0  0  0  0
  -19.0511   14.7126   -0.9909 H   0  0  0  0  0  0  0  0  0  0  0  0
  -16.0415   12.6371   -0.3933 H   0  0  0  0  0  0  0  0  0  0  0  0
  -16.3540    9.4998   -1.3333 H   0  0  0  0  0  0  0  0  0  0  0  0
  -13.1528    7.4576   -2.5076 H   0  0  0  0  0  0  0  0  0  0  0  0
  -13.0857    4.6372   -1.2405 H   0  0  0  0  0  0  0  0  0  0  0  0
   -9.3777    3.1194   -3.1663 H   0  0  0  0  0  0  0  0  0  0  0  0
   -9.1886    0.4264   -1.2715 H   0  0  0  0  0  0  0  0  0  0  0  0
   -6.7820   -2.0533   -2.2593 H   0  0  0  0  0  0  0  0  0  0  0  0
   -5.3927   -3.5585    0.7177 H   0  0  0  0  0  0  0  0  0  0  0  0
   -4.1296   -6.5589    0.0826 H   0  0  0  0  0  0  0  0  0  0  0  0
   -1.0304   -7.3094    1.5642 H   0  0  0  0  0  0  0  0  0  0  0  0
   -0.1204  -11.3180    2.0722 H   0  0  0  0  0  0  0  0  0  0  0  0
    2.8827  -12.5907    4.5832 H   0  0  0  0  0  0  0  0  0  0  0  0
    2.8950  -15.3313    2.0399 H   0  0  0  0  0  0  0  0  0  0  0  0
    7.2434  -15.3245    2.7500 H   0  0  0  0  0  0  0  0  0  0  0  0
   11.3237  -14.0107    1.5419 H   0  0  0  0  0  0  0  0  0  0  0  0
   10.3479  -12.7684    0.9816 H   0  0  0  0  0  0  0  0  0  0  0  0
   -0.9219   18.0053   -5.1922 H   0  0  0  0  0  0  0  0  0  0  0  0
   -2.5899   17.4533   -5.3797 H   0  0  0  0  0  0  0  0  0  0  0  0
   -3.1026   16.0999   -3.2101 H   0  0  0  0  0  0  0  0  0  0  0  0
   -1.5276   18.5793   -0.3668 H   0  0  0  0  0  0  0  0  0  0  0  0
   -1.0295   19.5664   -2.6000 H   0  0  0  0  0  0  0  0  0  0  0  0
   -1.6443   20.3242   -4.8641 H   0  0  0  0  0  0  0  0  0  0  0  0
   -5.1232   21.4200   -8.1795 H   0  0  0  0  0  0  0  0  0  0  0  0
   -4.4496   19.9850   -8.9483 H   0  0  0  0  0  0  0  0  0  0  0  0
   -5.7035   21.2122  -10.3324 H   0  0  0  0  0  0  0  0  0  0  0  0
   -2.2720   21.0213   -9.2107 H   0  0  0  0  0  0  0  0  0  0  0  0
   -2.1961   24.0592   -5.5760 H   0  0  0  0  0  0  0  0  0  0  0  0
   -2.9385   25.6285   -5.8663 H   0  0  0  0  0  0  0  0  0  0  0  0
   -3.8345   26.5350   -3.9918 H   0  0  0  0  0  0  0  0  0  0  0  0
   -4.2785   22.9347   -6.4146 H   0  0  0  0  0  0  0  0  0  0  0  0
   -7.8030   25.4950   -7.6750 H   0  0  0  0  0  0  0  0  0  0  0  0
   -7.8790   24.2514   -8.9223 H   0  0  0  0  0  0  0  0  0  0  0  0
   -9.4028   21.0783   -3.0920 H   0  0  0  0  0  0  0  0  0  0  0  0
   -9.7200   22.1822   -5.1219 H   0  0  0  0  0  0  0  0  0  0  0  0
   -6.7727   24.1573   -3.6465 H   0  0  0  0  0  0  0  0  0  0  0  0
   -7.9787   24.3345   -2.3667 H   0  0  0  0  0  0  0  0  0  0  0  0
   -6.6866   23.1429   -2.2050 H   0  0  0  0  0  0  0  0  0  0  0  0
   -7.5675   21.8357   -4.0931 H   0  0  0  0  0  0  0  0  0  0  0  0
  -12.7621   25.8636   -6.8361 H   0  0  0  0  0  0  0  0  0  0  0  0
  -11.5032   26.7607   -6.0212 H   0  0  0  0  0  0  0  0  0  0  0  0
  -12.2094   28.2931   -4.0367 H   0  0  0  0  0  0  0  0  0  0  0  0
  -13.6957   30.1218   -3.5263 H   0  0  0  0  0  0  0  0  0  0  0  0
  -15.8039   30.3509   -4.7111 H   0  0  0  0  0  0  0  0  0  0  0  0
  -16.4291   28.7258   -6.4063 H   0  0  0  0  0  0  0  0  0  0  0  0
  -14.9549   26.8908   -6.9292 H   0  0  0  0  0  0  0  0  0  0  0  0
  -12.2626   25.7113   -3.8199 H   0  0  0  0  0  0  0  0  0  0  0  0
  -16.4981   20.9646   -3.6731 H   0  0  0  0  0  0  0  0  0  0  0  0
  -16.0010   23.2661   -4.0602 H   0  0  0  0  0  0  0  0  0  0  0  0
  -13.2523   20.3601   -2.4521 H   0  0  0  0  0  0  0  0  0  0  0  0
  -13.8337   21.5653   -1.2900 H   0  0  0  0  0  0  0  0  0  0  0  0
  -12.7125   22.0382   -2.5741 H   0  0  0  0  0  0  0  0  0  0  0  0
  -14.4209   21.4802   -4.2857 H   0  0  0  0  0  0  0  0  0  0  0  0
  -16.4911   26.9012   -0.2564 H   0  0  0  0  0  0  0  0  0  0  0  0
  -17.4636   27.3582   -1.6647 H   0  0  0  0  0  0  0  0  0  0  0  0
  -18.3024   28.1713    0.2431 H   0  0  0  0  0  0  0  0  0  0  0  0
  -17.5702   24.7088   -0.1350 H   0  0  0  0  0  0  0  0  0  0  0  0
  -20.2119   21.5736   -2.1099 H   0  0  0  0  0  0  0  0  0  0  0  0
  -19.9524   22.7391   -3.3995 H   0  0  0  0  0  0  0  0  0  0  0  0
  -22.5939   21.3438   -2.7494 H   0  0  0  0  0  0  0  0  0  0  0  0
  -22.4387   22.6297   -3.9509 H   0  0  0  0  0  0  0  0  0  0  0  0
  -21.6346   18.9021   -5.0922 H   0  0  0  0  0  0  0  0  0  0  0  0
  -21.4399   24.3624   -2.3681 H   0  0  0  0  0  0  0  0  0  0  0  0
  -19.1108   23.3872    4.5417 H   0  0  0  0  0  0  0  0  0  0  0  0
  -18.2235   21.9073    4.9523 H   0  0  0  0  0  0  0  0  0  0  0  0
  -19.9873   21.9208    5.0158 H   0  0  0  0  0  0  0  0  0  0  0  0
  -21.3321   22.2504    2.9733 H   0  0  0  0  0  0  0  0  0  0  0  0
  -20.3665   23.4620    2.1473 H   0  0  0  0  0  0  0  0  0  0  0  0
  -20.0091   21.8127    0.2638 H   0  0  0  0  0  0  0  0  0  0  0  0
  -17.8026   23.3469    2.1747 H   0  0  0  0  0  0  0  0  0  0  0  0
  -17.8659   21.8494    1.2271 H   0  0  0  0  0  0  0  0  0  0  0  0
  -17.0035   21.8768    2.7586 H   0  0  0  0  0  0  0  0  0  0  0  0
  -19.2139   20.7506    2.9892 H   0  0  0  0  0  0  0  0  0  0  0  0
  -22.5024   18.2093   -2.2039 H   0  0  0  0  0  0  0  0  0  0  0  0
  -23.5460   18.1071   -0.7801 H   0  0  0  0  0  0  0  0  0  0  0  0
  -23.4052   16.1793   -1.9799 H   0  0  0  0  0  0  0  0  0  0  0  0
  -21.6109   17.6968    0.6716 H   0  0  0  0  0  0  0  0  0  0  0  0
  -17.0706   17.8507    1.5225 H   0  0  0  0  0  0  0  0  0  0  0  0
  -17.3463   18.8887    0.1234 H   0  0  0  0  0  0  0  0  0  0  0  0
  -15.0844   16.8395    0.2834 H   0  0  0  0  0  0  0  0  0  0  0  0
  -15.3870   17.9653   -1.0474 H   0  0  0  0  0  0  0  0  0  0  0  0
  -14.9479   19.9013    0.4251 H   0  0  0  0  0  0  0  0  0  0  0  0
  -14.7689   18.8274    1.8330 H   0  0  0  0  0  0  0  0  0  0  0  0
  -11.5635   20.9203    1.9462 H   0  0  0  0  0  0  0  0  0  0  0  0
  -13.2309   20.7365    1.9893 H   0  0  0  0  0  0  0  0  0  0  0  0
  -10.2981   19.5172    0.7403 H   0  0  0  0  0  0  0  0  0  0  0  0
  -10.9867   18.2582   -0.1318 H   0  0  0  0  0  0  0  0  0  0  0  0
  -17.6741   16.7942   -1.2920 H   0  0  0  0  0  0  0  0  0  0  0  0
  -19.7539    9.8901    2.6186 H   0  0  0  0  0  0  0  0  0  0  0  0
  -18.4082   10.9213    2.1550 H   0  0  0  0  0  0  0  0  0  0  0  0
  -19.7801   11.6102    3.0469 H   0  0  0  0  0  0  0  0  0  0  0  0
  -20.3182   13.3643    1.2019 H   0  0  0  0  0  0  0  0  0  0  0  0
  -20.5748   12.8550   -0.4588 H   0  0  0  0  0  0  0  0  0  0  0  0
  -17.8693   12.8660    0.9653 H   0  0  0  0  0  0  0  0  0  0  0  0
  -22.2152   11.0687    0.0768 H   0  0  0  0  0  0  0  0  0  0  0  0
  -21.8987    9.8889    1.3509 H   0  0  0  0  0  0  0  0  0  0  0  0
  -22.1945   11.5860    1.7738 H   0  0  0  0  0  0  0  0  0  0  0  0
  -19.8053   10.5248    0.1765 H   0  0  0  0  0  0  0  0  0  0  0  0
  -15.8325   13.7903   -3.0693 H   0  0  0  0  0  0  0  0  0  0  0  0
  -14.3435   13.4622   -2.1834 H   0  0  0  0  0  0  0  0  0  0  0  0
  -13.5303   12.0496   -4.0907 H   0  0  0  0  0  0  0  0  0  0  0  0
  -15.0606   12.3107   -4.9407 H   0  0  0  0  0  0  0  0  0  0  0  0
  -14.5737   14.7913   -4.9854 H   0  0  0  0  0  0  0  0  0  0  0  0
  -13.0130   14.4713   -4.1946 H   0  0  0  0  0  0  0  0  0  0  0  0
  -12.0828   16.4947   -7.3323 H   0  0  0  0  0  0  0  0  0  0  0  0
  -12.8441   16.2925   -5.8501 H   0  0  0  0  0  0  0  0  0  0  0  0
  -11.7365   14.7543   -8.6851 H   0  0  0  0  0  0  0  0  0  0  0  0
  -12.2310   13.2082   -8.2557 H   0  0  0  0  0  0  0  0  0  0  0  0
  -16.3795   11.3246   -3.0102 H   0  0  0  0  0  0  0  0  0  0  0  0
  -16.2382    8.0374    0.7540 H   0  0  0  0  0  0  0  0  0  0  0  0
  -14.9925    9.1443    1.3181 H   0  0  0  0  0  0  0  0  0  0  0  0
  -16.0767    5.9306    1.6896 H   0  0  0  0  0  0  0  0  0  0  0  0
  -13.6108    8.6523   -0.6926 H   0  0  0  0  0  0  0  0  0  0  0  0
  -15.1820    6.7694   -4.8625 H   0  0  0  0  0  0  0  0  0  0  0  0
  -13.4392    6.8994   -5.1518 H   0  0  0  0  0  0  0  0  0  0  0  0
  -14.4807    5.5010   -6.5824 H   0  0  0  0  0  0  0  0  0  0  0  0
  -14.7663    5.0661   -3.0835 H   0  0  0  0  0  0  0  0  0  0  0  0
  -10.1825    3.3135    0.3229 H   0  0  0  0  0  0  0  0  0  0  0  0
  -11.9519    3.1855    0.3911 H   0  0  0  0  0  0  0  0  0  0  0  0
  -11.1702    4.7755    0.4653 H   0  0  0  0  0  0  0  0  0  0  0  0
  -10.3397    4.5559   -1.8213 H   0  0  0  0  0  0  0  0  0  0  0  0
  -10.5505    1.9213   -5.4651 H   0  0  0  0  0  0  0  0  0  0  0  0
   -8.7906    2.0277   -5.4736 H   0  0  0  0  0  0  0  0  0  0  0  0
   -8.6460   -0.4433   -5.8621 H   0  0  0  0  0  0  0  0  0  0  0  0
  -10.4064   -0.5740   -5.7351 H   0  0  0  0  0  0  0  0  0  0  0  0
  -10.6821    0.8504   -7.7587 H   0  0  0  0  0  0  0  0  0  0  0  0
   -8.9140    0.9937   -7.9063 H   0  0  0  0  0  0  0  0  0  0  0  0
  -10.1003   -0.2641  -11.3574 H   0  0  0  0  0  0  0  0  0  0  0  0
  -10.0540    0.8616  -10.1136 H   0  0  0  0  0  0  0  0  0  0  0  0
   -9.8256   -2.4424  -10.9456 H   0  0  0  0  0  0  0  0  0  0  0  0
   -9.5897   -3.0026   -9.3808 H   0  0  0  0  0  0  0  0  0  0  0  0
  -10.3783    0.3634   -3.4507 H   0  0  0  0  0  0  0  0  0  0  0  0
   -3.6947    1.1892    1.2240 H   0  0  0  0  0  0  0  0  0  0  0  0
   -4.3156    0.5019   -0.2702 H   0  0  0  0  0  0  0  0  0  0  0  0
   -4.4971    2.2380    0.0410 H   0  0  0  0  0  0  0  0  0  0  0  0
   -7.0598    2.1194   -0.2270 H   0  0  0  0  0  0  0  0  0  0  0  0
   -8.0230    1.0717    0.8021 H   0  0  0  0  0  0  0  0  0  0  0  0
   -6.2753    0.1298   -1.5148 H   0  0  0  0  0  0  0  0  0  0  0  0
   -6.9708    1.6569    2.9635 H   0  0  0  0  0  0  0  0  0  0  0  0
   -5.2183    1.7872    3.1219 H   0  0  0  0  0  0  0  0  0  0  0  0
   -6.1028    2.9545    2.1210 H   0  0  0  0  0  0  0  0  0  0  0  0
   -5.8506   -0.0450    1.5753 H   0  0  0  0  0  0  0  0  0  0  0  0
   -7.6369   -4.2730   -3.1870 H   0  0  0  0  0  0  0  0  0  0  0  0
   -9.0093   -3.9157   -2.1378 H   0  0  0  0  0  0  0  0  0  0  0  0
   -7.2938   -6.4561   -1.9831 H   0  0  0  0  0  0  0  0  0  0  0  0
   -8.6479   -6.0917   -0.9142 H   0  0  0  0  0  0  0  0  0  0  0  0
  -11.1012   -6.5405   -3.5587 H   0  0  0  0  0  0  0  0  0  0  0  0
  -10.7960   -5.4542   -2.3156 H   0  0  0  0  0  0  0  0  0  0  0  0
   -7.5147   -3.9707   -0.1422 H   0  0  0  0  0  0  0  0  0  0  0  0
   -3.3567   -1.9855   -0.4464 H   0  0  0  0  0  0  0  0  0  0  0  0
   -3.2853   -2.2798    1.2914 H   0  0  0  0  0  0  0  0  0  0  0  0
   -0.9402   -3.1061    1.0564 H   0  0  0  0  0  0  0  0  0  0  0  0
   -1.0476   -2.9446   -0.7043 H   0  0  0  0  0  0  0  0  0  0  0  0
   -1.3878   -0.4745   -0.4591 H   0  0  0  0  0  0  0  0  0  0  0  0
   -1.2414   -0.6369    1.3075 H   0  0  0  0  0  0  0  0  0  0  0  0
    1.3292    2.0542    0.2781 H   0  0  0  0  0  0  0  0  0  0  0  0
   -0.2290    1.4468    0.4241 H   0  0  0  0  0  0  0  0  0  0  0  0
    2.8655   -0.9887    0.0244 H   0  0  0  0  0  0  0  0  0  0  0  0
    3.0823    0.6750    0.0832 H   0  0  0  0  0  0  0  0  0  0  0  0
   -3.0717   -4.4531   -0.8612 H   0  0  0  0  0  0  0  0  0  0  0  0
   -7.1522   -9.0631    3.6865 H   0  0  0  0  0  0  0  0  0  0  0  0
   -6.4274  -10.6404    4.0531 H   0  0  0  0  0  0  0  0  0  0  0  0
   -6.7304  -10.1831    2.3759 H   0  0  0  0  0  0  0  0  0  0  0  0
   -5.4334   -8.3781    1.2735 H   0  0  0  0  0  0  0  0  0  0  0  0
   -5.5787   -7.1972    2.5665 H   0  0  0  0  0  0  0  0  0  0  0  0
   -3.0872   -7.1350    2.7675 H   0  0  0  0  0  0  0  0  0  0  0  0
   -5.1089   -7.8857    5.0337 H   0  0  0  0  0  0  0  0  0  0  0  0
   -3.4657   -8.4287    4.6402 H   0  0  0  0  0  0  0  0  0  0  0  0
   -4.5954   -9.5472    5.3859 H   0  0  0  0  0  0  0  0  0  0  0  0
   -4.3346   -9.9783    2.9375 H   0  0  0  0  0  0  0  0  0  0  0  0
    2.2900  -11.1126   -1.8614 H   0  0  0  0  0  0  0  0  0  0  0  0
    0.8577  -11.2159   -0.8511 H   0  0  0  0  0  0  0  0  0  0  0  0
    0.7974  -10.2997   -2.3684 H   0  0  0  0  0  0  0  0  0  0  0  0
    0.0326   -8.1509   -1.1032 H   0  0  0  0  0  0  0  0  0  0  0  0
    1.0412   -7.4617    0.1581 H   0  0  0  0  0  0  0  0  0  0  0  0
   -0.6560   -9.9874    0.4139 H   0  0  0  0  0  0  0  0  0  0  0  0
    3.1897   -7.5568   -1.0783 H   0  0  0  0  0  0  0  0  0  0  0  0
    3.6915   -9.0148   -1.9349 H   0  0  0  0  0  0  0  0  0  0  0  0
    2.3157   -8.0697   -2.5347 H   0  0  0  0  0  0  0  0  0  0  0  0
    2.4479   -9.5884    0.1178 H   0  0  0  0  0  0  0  0  0  0  0  0
   -0.2329   -9.5859    4.9210 H   0  0  0  0  0  0  0  0  0  0  0  0
   -1.0237  -11.1534    4.9196 H   0  0  0  0  0  0  0  0  0  0  0  0
    0.7671  -11.9805    6.5477 H   0  0  0  0  0  0  0  0  0  0  0  0
    1.4352  -10.3523    6.5847 H   0  0  0  0  0  0  0  0  0  0  0  0
   -1.4180   -9.0372    8.4215 H   0  0  0  0  0  0  0  0  0  0  0  0
   -0.4606   -8.5679    7.1266 H   0  0  0  0  0  0  0  0  0  0  0  0
    1.8822  -10.6749    4.0245 H   0  0  0  0  0  0  0  0  0  0  0  0
    2.4014  -14.7992    5.5210 H   0  0  0  0  0  0  0  0  0  0  0  0
    1.5902  -15.1833    4.0103 H   0  0  0  0  0  0  0  0  0  0  0  0
    4.3844  -18.7675   -1.3001 H   0  0  0  0  0  0  0  0  0  0  0  0
    5.9683  -18.4683   -2.0342 H   0  0  0  0  0  0  0  0  0  0  0  0
    4.7134  -17.2329   -2.1242 H   0  0  0  0  0  0  0  0  0  0  0  0
    3.9828  -15.9894   -0.0902 H   0  0  0  0  0  0  0  0  0  0  0  0
    3.7526  -17.4185    0.9029 H   0  0  0  0  0  0  0  0  0  0  0  0
    5.3978  -16.5179    2.5592 H   0  0  0  0  0  0  0  0  0  0  0  0
    5.6261  -19.2455    1.0251 H   0  0  0  0  0  0  0  0  0  0  0  0
    6.8165  -18.0587    1.5876 H   0  0  0  0  0  0  0  0  0  0  0  0
    7.1354  -18.9834    0.1326 H   0  0  0  0  0  0  0  0  0  0  0  0
    6.4118  -16.6504   -0.4124 H   0  0  0  0  0  0  0  0  0  0  0  0
    9.6750  -11.2774    2.6558 H   0  0  0  0  0  0  0  0  0  0  0  0
    8.2801  -10.2480    2.9942 H   0  0  0  0  0  0  0  0  0  0  0  0
    8.5101  -10.9036    1.3730 H   0  0  0  0  0  0  0  0  0  0  0  0
    7.9095  -13.2799    0.8475 H   0  0  0  0  0  0  0  0  0  0  0  0
    8.9719  -12.9500    4.5723 H   0  0  0  0  0  0  0  0  0  0  0  0
    7.3064  -13.5487    4.6143 H   0  0  0  0  0  0  0  0  0  0  0  0
    7.6390  -11.8476    4.9467 H   0  0  0  0  0  0  0  0  0  0  0  0
    6.7290  -12.0690    2.6872 H   0  0  0  0  0  0  0  0  0  0  0  0
 29  2  1  0  0  0  0 
 38  3  1  0  0  0  0 
 43  4  1  0  0  0  0 
 50  5  1  0  0  0  0 
 53  6  1  0  0  0  0 
 59  7  1  0  0  0  0 
 69  8  1  0  0  0  0 
 75  9  1  0  0  0  0 
 80 10  1  0  0  0  0 
 88 11  1  0  0  0  0 
 95 12  1  0  0  0  0 
100 13  1  0  0  0  0 
110 14  1  0  0  0  0 
117 15  1  0  0  0  0 
127 16  1  0  0  0  0 
134 17  1  0  0  0  0 
139 18  1  0  0  0  0 
143 19  1  0  0  0  0 
153 20  1  0  0  0  0 
160 21  1  0  0  0  0 
168 22  1  0  0  0  0 
178 23  1  0  0  0  0 
185 24  1  0  0  0  0 
192 25  1  0  0  0  0 
200 26  1  0  0  0  0 
203 27  1  0  0  0  0 
210 28  1  0  0  0  0 
 36  1  1  0  0  0  0 
 36 30  1  0  0  0  0 
 30 31  1  0  0  0  0 
 31 32  2  0  0  0  0 
 32 33  1  0  0  0  0 
 33 34  2  0  0  0  0 
 34 35  1  0  0  0  0 
 31 35  1  0  0  0  0 
 36 29  1  0  0  0  0 
 29 37  2  0  0  0  0 
 41  2  1  0  0  0  0 
 41 39  1  0  0  0  0 
 39 40  1  0  0  0  0 
 41 38  1  0  0  0  0 
 38 42  2  0  0  0  0 
 48  3  1  0  0  0  0 
 48 44  1  0  0  0  0 
 44 45  1  0  0  0  0 
 45 46  1  0  0  0  0 
 45 47  2  0  0  0  0 
 48 43  1  0  0  0  0 
 43 49  2  0  0  0  0 
  4 51  1  0  0  0  0 
 51 50  1  0  0  0  0 
 50 52  2  0  0  0  0 
 57 56  1  0  0  0  0 
 57 54  1  0  0  0  0 
 55 57  1  0  0  0  0 
 55  5  1  0  0  0  0 
 55 53  1  0  0  0  0 
 53 58  2  0  0  0  0 
 67  6  1  0  0  0  0 
 67 60  1  0  0  0  0 
 60 61  1  0  0  0  0 
 61 62  2  0  0  0  0 
 62 63  1  0  0  0  0 
 63 64  2  0  0  0  0 
 64 65  1  0  0  0  0 
 65 66  2  0  0  0  0 
 61 66  1  0  0  0  0 
 67 59  1  0  0  0  0 
 59 68  2  0  0  0  0 
 73 72  1  0  0  0  0 
 73 70  1  0  0  0  0 
 71 73  1  0  0  0  0 
 71  7  1  0  0  0  0 
 71 69  1  0  0  0  0 
 69 74  2  0  0  0  0 
 78  8  1  0  0  0  0 
 78 76  1  0  0  0  0 
 76 77  1  0  0  0  0 
 78 75  1  0  0  0  0 
 75 79  2  0  0  0  0 
 86  9  1  0  0  0  0 
 86 81  1  0  0  0  0 
 81 82  1  0  0  0  0 
 82 83  1  0  0  0  0 
 83 84  1  0  0  0  0 
 83 85  2  0  0  0  0 
 86 80  1  0  0  0  0 
 80 87  2  0  0  0  0 
 92 93  1  0  0  0  0 
 93 89  1  0  0  0  0 
 93 90  1  0  0  0  0 
 91 90  1  0  0  0  0 
 91 10  1  0  0  0  0 
 91 88  1  0  0  0  0 
 88 94  2  0  0  0  0 
 98 11  1  0  0  0  0 
 98 96  1  0  0  0  0 
 96 97  1  0  0  0  0 
 98 95  1  0  0  0  0 
 95 99  2  0  0  0  0 
108 12  1  0  0  0  0 
108101  1  0  0  0  0 
101102  1  0  0  0  0 
102103  1  0  0  0  0 
103104  1  0  0  0  0 
104105  2  0  0  0  0 
105106  1  0  0  0  0 
105107  1  0  0  0  0 
108100  1  0  0  0  0 
100109  2  0  0  0  0 
114115  1  0  0  0  0 
115111  1  0  0  0  0 
115112  1  0  0  0  0 
113112  1  0  0  0  0 
113 13  1  0  0  0  0 
113110  1  0  0  0  0 
110116  2  0  0  0  0 
125 14  1  0  0  0  0 
125118  1  0  0  0  0 
118119  1  0  0  0  0 
119120  1  0  0  0  0 
120121  1  0  0  0  0 
121122  2  0  0  0  0 
122123  1  0  0  0  0 
122124  1  0  0  0  0 
125117  1  0  0  0  0 
117126  2  0  0  0  0 
132 15  1  0  0  0  0 
132128  1  0  0  0  0 
128129  1  0  0  0  0 
129130  1  0  0  0  0 
129131  2  0  0  0  0 
132127  1  0  0  0  0 
127133  2  0  0  0  0 
137 16  1  0  0  0  0 
137135  1  0  0  0  0 
135136  1  0  0  0  0 
137134  1  0  0  0  0 
134138  2  0  0  0  0 
141140  1  0  0  0  0 
141 17  1  0  0  0  0 
141139  1  0  0  0  0 
139142  2  0  0  0  0 
151 18  1  0  0  0  0 
151144  1  0  0  0  0 
144145  1  0  0  0  0 
145146  1  0  0  0  0 
146147  1  0  0  0  0 
147148  2  0  0  0  0 
148149  1  0  0  0  0 
148150  1  0  0  0  0 
151143  1  0  0  0  0 
143152  2  0  0  0  0 
157158  1  0  0  0  0 
158154  1  0  0  0  0 
158155  1  0  0  0  0 
156155  1  0  0  0  0 
156 19  1  0  0  0  0 
156153  1  0  0  0  0 
153159  2  0  0  0  0 
166 20  1  0  0  0  0 
166161  1  0  0  0  0 
161162  1  0  0  0  0 
162163  1  0  0  0  0 
163164  1  0  0  0  0 
163165  2  0  0  0  0 
166160  1  0  0  0  0 
160167  2  0  0  0  0 
176 21  1  0  0  0  0 
176169  1  0  0  0  0 
169170  1  0  0  0  0 
170171  1  0  0  0  0 
171172  1  0  0  0  0 
172173  2  0  0  0  0 
173174  1  0  0  0  0 
173175  1  0  0  0  0 
176168  1  0  0  0  0 
168177  2  0  0  0  0 
182183  1  0  0  0  0 
183179  1  0  0  0  0 
183180  1  0  0  0  0 
181180  1  0  0  0  0 
181 22  1  0  0  0  0 
181178  1  0  0  0  0 
178184  2  0  0  0  0 
189190  1  0  0  0  0 
190186  1  0  0  0  0 
190187  1  0  0  0  0 
188187  1  0  0  0  0 
188 23  1  0  0  0  0 
188185  1  0  0  0  0 
185191  2  0  0  0  0 
198 24  1  0  0  0  0 
198193  1  0  0  0  0 
193194  1  0  0  0  0 
194195  1  0  0  0  0 
195196  1  0  0  0  0 
195197  2  0  0  0  0 
198192  1  0  0  0  0 
192199  2  0  0  0  0 
 25201  1  0  0  0  0 
201200  1  0  0  0  0 
200202  2  0  0  0  0 
207208  1  0  0  0  0 
208204  1  0  0  0  0 
208205  1  0  0  0  0 
206205  1  0  0  0  0 
206 26  1  0  0  0  0 
206203  1  0  0  0  0 
203209  2  0  0  0  0 
213214  1  0  0  0  0 
214211  1  0  0  0  0 
212214  1  0  0  0  0 
212 27  1  0  0  0  0 
212210  1  0  0  0  0 
210215  2  0  0  0  0 
216  1  1  0  0  0  0 
217  1  1  0  0  0  0 
218  2  1  0  0  0  0 
219  3  1  0  0  0  0 
220  4  1  0  0  0  0 
221  5  1  0  0  0  0 
222  6  1  0  0  0  0 
223  7  1  0  0  0  0 
224  8  1  0  0  0  0 
225  9  1  0  0  0  0 
226 10  1  0  0  0  0 
227 11  1  0  0  0  0 
228 12  1  0  0  0  0 
229 13  1  0  0  0  0 
230 14  1  0  0  0  0 
231 15  1  0  0  0  0 
232 16  1  0  0  0  0 
233 17  1  0  0  0  0 
234 18  1  0  0  0  0 
235 19  1  0  0  0  0 
236 20  1  0  0  0  0 
237 21  1  0  0  0  0 
238 22  1  0  0  0  0 
239 23  1  0  0  0  0 
240 24  1  0  0  0  0 
241 25  1  0  0  0  0 
242 26  1  0  0  0  0 
243 27  1  0  0  0  0 
244 28  1  0  0  0  0 
245 28  1  0  0  0  0 
246 30  1  0  0  0  0 
247 30  1  0  0  0  0 
248 32  1  0  0  0  0 
249 34  1  0  0  0  0 
250 35  1  0  0  0  0 
 36251  1  0  0  0  0 
252 39  1  0  0  0  0 
253 39  1  0  0  0  0 
254 40  1  0  0  0  0 
 41255  1  0  0  0  0 
256 44  1  0  0  0  0 
257 44  1  0  0  0  0 
258 46  1  0  0  0  0 
 48259  1  0  0  0  0 
260 51  1  0  0  0  0 
261 51  1  0  0  0  0 
262 54  1  0  0  0  0 
 55263  1  0  0  0  0 
264 56  1  0  0  0  0 
265 56  1  0  0  0  0 
266 56  1  0  0  0  0 
 57267  1  0  0  0  0 
268 60  1  0  0  0  0 
269 60  1  0  0  0  0 
270 62  1  0  0  0  0 
271 63  1  0  0  0  0 
272 64  1  0  0  0  0 
273 65  1  0  0  0  0 
274 66  1  0  0  0  0 
 67275  1  0  0  0  0 
276 70  1  0  0  0  0 
 71277  1  0  0  0  0 
278 72  1  0  0  0  0 
279 72  1  0  0  0  0 
280 72  1  0  0  0  0 
 73281  1  0  0  0  0 
282 76  1  0  0  0  0 
283 76  1  0  0  0  0 
284 77  1  0  0  0  0 
 78285  1  0  0  0  0 
286 81  1  0  0  0  0 
287 81  1  0  0  0  0 
288 82  1  0  0  0  0 
289 82  1  0  0  0  0 
290 84  1  0  0  0  0 
 86291  1  0  0  0  0 
292 89  1  0  0  0  0 
293 89  1  0  0  0  0 
294 89  1  0  0  0  0 
295 90  1  0  0  0  0 
296 90  1  0  0  0  0 
 91297  1  0  0  0  0 
298 92  1  0  0  0  0 
299 92  1  0  0  0  0 
300 92  1  0  0  0  0 
301 93  1  0  0  0  0 
302 96  1  0  0  0  0 
303 96  1  0  0  0  0 
304 97  1  0  0  0  0 
 98305  1  0  0  0  0 
306101  1  0  0  0  0 
307101  1  0  0  0  0 
308102  1  0  0  0  0 
309102  1  0  0  0  0 
310103  1  0  0  0  0 
311103  1  0  0  0  0 
312106  1  0  0  0  0 
313106  1  0  0  0  0 
314107  1  0  0  0  0 
315107  1  0  0  0  0 
108316  1  0  0  0  0 
317111  1  0  0  0  0 
318111  1  0  0  0  0 
319111  1  0  0  0  0 
320112  1  0  0  0  0 
321112  1  0  0  0  0 
113322  1  0  0  0  0 
323114  1  0  0  0  0 
324114  1  0  0  0  0 
325114  1  0  0  0  0 
326115  1  0  0  0  0 
327118  1  0  0  0  0 
328118  1  0  0  0  0 
329119  1  0  0  0  0 
330119  1  0  0  0  0 
331120  1  0  0  0  0 
332120  1  0  0  0  0 
333123  1  0  0  0  0 
334123  1  0  0  0  0 
335124  1  0  0  0  0 
336124  1  0  0  0  0 
125337  1  0  0  0  0 
338128  1  0  0  0  0 
339128  1  0  0  0  0 
340130  1  0  0  0  0 
132341  1  0  0  0  0 
342135  1  0  0  0  0 
343135  1  0  0  0  0 
344136  1  0  0  0  0 
137345  1  0  0  0  0 
346140  1  0  0  0  0 
347140  1  0  0  0  0 
348140  1  0  0  0  0 
141349  1  0  0  0  0 
350144  1  0  0  0  0 
351144  1  0  0  0  0 
352145  1  0  0  0  0 
353145  1  0  0  0  0 
354146  1  0  0  0  0 
355146  1  0  0  0  0 
356149  1  0  0  0  0 
357149  1  0  0  0  0 
358150  1  0  0  0  0 
359150  1  0  0  0  0 
151360  1  0  0  0  0 
361154  1  0  0  0  0 
362154  1  0  0  0  0 
363154  1  0  0  0  0 
364155  1  0  0  0  0 
365155  1  0  0  0  0 
156366  1  0  0  0  0 
367157  1  0  0  0  0 
368157  1  0  0  0  0 
369157  1  0  0  0  0 
370158  1  0  0  0  0 
371161  1  0  0  0  0 
372161  1  0  0  0  0 
373162  1  0  0  0  0 
374162  1  0  0  0  0 
375164  1  0  0  0  0 
376164  1  0  0  0  0 
166377  1  0  0  0  0 
378169  1  0  0  0  0 
379169  1  0  0  0  0 
380170  1  0  0  0  0 
381170  1  0  0  0  0 
382171  1  0  0  0  0 
383171  1  0  0  0  0 
384174  1  0  0  0  0 
385174  1  0  0  0  0 
386175  1  0  0  0  0 
387175  1  0  0  0  0 
176388  1  0  0  0  0 
389179  1  0  0  0  0 
390179  1  0  0  0  0 
391179  1  0  0  0  0 
392180  1  0  0  0  0 
393180  1  0  0  0  0 
181394  1  0  0  0  0 
395182  1  0  0  0  0 
396182  1  0  0  0  0 
397182  1  0  0  0  0 
398183  1  0  0  0  0 
399186  1  0  0  0  0 
400186  1  0  0  0  0 
401186  1  0  0  0  0 
402187  1  0  0  0  0 
403187  1  0  0  0  0 
188404  1  0  0  0  0 
405189  1  0  0  0  0 
406189  1  0  0  0  0 
407189  1  0  0  0  0 
408190  1  0  0  0  0 
409193  1  0  0  0  0 
410193  1  0  0  0  0 
411194  1  0  0  0  0 
412194  1  0  0  0  0 
413196  1  0  0  0  0 
414196  1  0  0  0  0 
198415  1  0  0  0  0 
416201  1  0  0  0  0 
417201  1  0  0  0  0 
418204  1  0  0  0  0 
419204  1  0  0  0  0 
420204  1  0  0  0  0 
421205  1  0  0  0  0 
422205  1  0  0  0  0 
206423  1  0  0  0  0 
424207  1  0  0  0  0 
425207  1  0  0  0  0 
426207  1  0  0  0  0 
427208  1  0  0  0  0 
428211  1  0  0  0  0 
429211  1  0  0  0  0 
430211  1  0  0  0  0 
212431  1  0  0  0  0 
432213  1  0  0  0  0 
433213  1  0  0  0  0 
434213  1  0  0  0  0 
435214  1  0  0  0  0 
M  END
> <cdk:Title>
secretin porcine

> <Conformer>
1

> <SuperDrugID>
SD003934

$$$$
