vanitiolide
  CDK     0628171801

 32 33  0  0  0  0  0  0  0  0999 V2000
   -1.8259    1.4954   -0.2321 C   0  0  0  0  0  0  0  0  0  0  0  0
   -2.6473    0.0552    0.1787 S   0  0  0  0  0  0  0  0  0  0  0  0
   -2.5908    2.6254   -0.4898 C   0  0  0  0  0  0  0  0  0  0  0  0
   -0.4745    1.5297   -0.2828 N   0  0  0  0  0  0  0  0  0  0  0  0
   -2.3543    3.8205    0.2295 C   0  0  0  0  0  0  0  0  0  0  0  0
   -3.6054    2.6094   -1.4746 C   0  0  0  0  0  0  0  0  0  0  0  0
    0.2400    2.1448   -1.3865 C   0  0  2  0  0  0  0  0  0  0  0  0
    0.3363    0.9814    0.7825 C   0  0  1  0  0  0  0  0  0  0  0  0
   -3.1075    4.9840   -0.0371 C   0  0  0  0  0  0  0  0  0  0  0  0
   -4.3579    3.7654   -1.7431 C   0  0  0  0  0  0  0  0  0  0  0  0
    1.2572    3.1830   -0.8453 C   0  0  1  0  0  0  0  0  0  0  0  0
    1.3388    2.0531    1.2812 C   0  0  1  0  0  0  0  0  0  0  0  0
   -2.9021    6.1330    0.6811 O   0  0  0  0  0  0  0  0  0  0  0  0
   -4.1141    4.9531   -1.0263 C   0  0  0  0  0  0  0  0  0  0  0  0
    2.0908    2.6062    0.1820 O   0  0  0  0  0  0  0  0  0  0  0  0
   -1.7540    6.8821    0.2470 C   0  0  0  0  0  0  0  0  0  0  0  0
   -4.8454    6.0691   -1.2783 O   0  0  0  0  0  0  0  0  0  0  0  0
   -1.6367    3.8520    0.9610 H   0  0  0  0  0  0  0  0  0  0  0  0
   -3.8005    1.7575   -2.0086 H   0  0  0  0  0  0  0  0  0  0  0  0
   -0.4195    2.6369   -2.1049 H   0  0  0  0  0  0  0  0  0  0  0  0
    0.7798    1.3698   -1.9344 H   0  0  0  0  0  0  0  0  0  0  0  0
   -0.2534    0.6435    1.6384 H   0  0  0  0  0  0  0  0  0  0  0  0
    0.8857    0.1180    0.3999 H   0  0  0  0  0  0  0  0  0  0  0  0
   -5.0844    3.7357   -2.4619 H   0  0  0  0  0  0  0  0  0  0  0  0
    1.9058    3.5213   -1.6554 H   0  0  0  0  0  0  0  0  0  0  0  0
    0.7308    4.0582   -0.4536 H   0  0  0  0  0  0  0  0  0  0  0  0
    0.8082    2.8466    1.8146 H   0  0  0  0  0  0  0  0  0  0  0  0
    2.0431    1.5988    1.9792 H   0  0  0  0  0  0  0  0  0  0  0  0
   -1.7661    7.8421    0.7625 H   0  0  0  0  0  0  0  0  0  0  0  0
   -0.8299    6.3638    0.5103 H   0  0  0  0  0  0  0  0  0  0  0  0
   -1.7726    7.0732   -0.8293 H   0  0  0  0  0  0  0  0  0  0  0  0
   -5.5713    5.7901   -1.8744 H   0  0  0  0  0  0  0  0  0  0  0  0
  1  2  2  0  0  0  0 
  1  3  1  0  0  0  0 
  1  4  1  0  0  0  0 
  3  5  2  0  0  0  0 
  3  6  1  0  0  0  0 
  4  7  1  0  0  0  0 
  4  8  1  0  0  0  0 
  5  9  1  0  0  0  0 
  6 10  2  0  0  0  0 
  7 11  1  0  0  0  0 
  8 12  1  0  0  0  0 
  9 13  1  0  0  0  0 
  9 14  2  0  0  0  0 
 10 14  1  0  0  0  0 
 11 15  1  0  0  0  0 
 12 15  1  0  0  0  0 
 13 16  1  0  0  0  0 
 14 17  1  0  0  0  0 
  5 18  1  0  0  0  0 
  6 19  1  0  0  0  0 
  7 20  1  0  0  0  0 
  7 21  1  0  0  0  0 
  8 22  1  0  0  0  0 
  8 23  1  0  0  0  0 
 10 24  1  0  0  0  0 
 11 25  1  0  0  0  0 
 11 26  1  0  0  0  0 
 12 27  1  0  0  0  0 
 12 28  1  0  0  0  0 
 16 29  1  0  0  0  0 
 16 30  1  0  0  0  0 
 16 31  1  0  0  0  0 
 17 32  1  0  0  0  0 
M  END
> <cdk:Title>
vanitiolide

> <Conformer>
1

> <SuperDrugID>
SD003281

$$$$
