tonzonium
  CDK     0628171802

 92 93  0  0  0  0  0  0  0  0999 V2000
    3.0814   -1.4410   -1.3699 N   0  0  0  0  0  0  0  0  0  0  0  0
    2.0313   -0.4284   -1.3216 C   0  0  1  0  0  0  0  0  0  0  0  0
    3.1427   -2.4666   -2.4031 C   0  0  1  0  0  0  0  0  0  0  0  0
    4.0089   -1.4902   -0.3383 C   0  0  0  0  0  0  0  0  0  0  0  0
    1.1171   -0.3364   -2.4952 C   0  0  0  0  0  0  0  0  0  0  0  0
    2.5440   -3.8150   -1.8977 C   0  0  1  0  0  0  0  0  0  0  0  0
    5.2161   -2.1064   -0.5045 N   0  0  0  0  0  0  0  0  0  0  0  0
    3.7530   -0.9409    0.8848 N   0  0  0  0  0  0  0  0  0  0  0  0
    1.5021    0.3862   -3.6495 C   0  0  0  0  0  0  0  0  0  0  0  0
   -0.1135   -1.0340   -2.5073 C   0  0  0  0  0  0  0  0  0  0  0  0
    2.4801   -4.9767   -2.8815 N   0  0  1  0  0  0  0  0  0  0  0  0
    6.1479   -2.1941    0.4747 C   0  0  0  0  0  0  0  0  0  0  0  0
    4.6366   -0.9982    1.9141 C   0  0  0  0  0  0  0  0  0  0  0  0
    0.6789    0.4060   -4.7891 C   0  0  0  0  0  0  0  0  0  0  0  0
   -0.9385   -1.0073   -3.6454 C   0  0  0  0  0  0  0  0  0  0  0  0
    3.8891   -5.3029   -3.4096 C   0  0  2  0  0  0  0  0  0  0  0  0
    1.9262   -6.1773   -2.1472 C   0  0  0  0  0  0  0  0  0  0  0  0
    1.5379   -4.6577   -4.0208 C   0  0  0  0  0  0  0  0  0  0  0  0
    5.8765   -1.6351    1.7329 C   0  0  0  0  0  0  0  0  0  0  0  0
   -0.5453   -0.2893   -4.7925 C   0  0  0  0  0  0  0  0  0  0  0  0
    4.1592   -6.5559   -4.3131 C   0  0  2  0  0  0  0  0  0  0  0  0
   -1.3524   -0.2355   -5.8968 O   0  0  0  0  0  0  0  0  0  0  0  0
    5.7238   -6.6322   -4.8157 C   0  0  2  0  0  0  0  0  0  0  0  0
   -1.1771   -1.3538   -6.7830 C   0  0  0  0  0  0  0  0  0  0  0  0
    6.0325   -7.7901   -5.8420 C   0  0  2  0  0  0  0  0  0  0  0  0
    7.5170   -7.9118   -6.2775 C   0  0  1  0  0  0  0  0  0  0  0  0
    7.6989   -9.0919   -7.2674 C   0  0  2  0  0  0  0  0  0  0  0  0
    9.1577   -9.3093   -7.7437 C   0  0  2  0  0  0  0  0  0  0  0  0
    9.2357  -10.5205   -8.7118 C   0  0  1  0  0  0  0  0  0  0  0  0
   10.6668  -10.8030   -9.2271 C   0  0  1  0  0  0  0  0  0  0  0  0
   10.7141  -12.0192  -10.1919 C   0  0  1  0  0  0  0  0  0  0  0  0
   12.1533  -12.2890  -10.7011 C   0  0  1  0  0  0  0  0  0  0  0  0
   12.2540  -13.4949  -11.6712 C   0  0  2  0  0  0  0  0  0  0  0  0
   13.7110  -13.7291  -12.1578 C   0  0  1  0  0  0  0  0  0  0  0  0
   13.8310  -14.9318  -13.1299 C   0  0  1  0  0  0  0  0  0  0  0  0
   15.2827  -15.1752  -13.6226 C   0  0  2  0  0  0  0  0  0  0  0  0
   15.3735  -16.3776  -14.5884 C   0  0  0  0  0  0  0  0  0  0  0  0
    1.4267   -0.5979   -0.4256 H   0  0  0  0  0  0  0  0  0  0  0  0
    2.5013    0.5503   -1.1825 H   0  0  0  0  0  0  0  0  0  0  0  0
    2.6199   -2.1678   -3.3063 H   0  0  0  0  0  0  0  0  0  0  0  0
    4.1782   -2.6011   -2.7178 H   0  0  0  0  0  0  0  0  0  0  0  0
    3.1325   -4.1137   -1.0218 H   0  0  0  0  0  0  0  0  0  0  0  0
    1.5361   -3.5932   -1.5259 H   0  0  0  0  0  0  0  0  0  0  0  0
    2.3920    0.8898   -3.6730 H   0  0  0  0  0  0  0  0  0  0  0  0
   -0.4111   -1.5751   -1.6924 H   0  0  0  0  0  0  0  0  0  0  0  0
    7.0369   -2.6643    0.2881 H   0  0  0  0  0  0  0  0  0  0  0  0
    4.3960   -0.5790    2.8142 H   0  0  0  0  0  0  0  0  0  0  0  0
    0.9760    0.9216   -5.6197 H   0  0  0  0  0  0  0  0  0  0  0  0
   -1.8228   -1.5190   -3.6408 H   0  0  0  0  0  0  0  0  0  0  0  0
    4.5717   -5.3959   -2.5564 H   0  0  0  0  0  0  0  0  0  0  0  0
    4.2433   -4.4576   -4.0047 H   0  0  0  0  0  0  0  0  0  0  0  0
    1.7922   -7.0338   -2.8138 H   0  0  0  0  0  0  0  0  0  0  0  0
    2.5918   -6.4936   -1.3395 H   0  0  0  0  0  0  0  0  0  0  0  0
    0.9485   -5.9618   -1.7042 H   0  0  0  0  0  0  0  0  0  0  0  0
    1.9276   -3.8689   -4.6661 H   0  0  0  0  0  0  0  0  0  0  0  0
    1.3646   -5.5285   -4.6584 H   0  0  0  0  0  0  0  0  0  0  0  0
    0.5624   -4.3253   -3.6522 H   0  0  0  0  0  0  0  0  0  0  0  0
    6.5584   -1.6927    2.4909 H   0  0  0  0  0  0  0  0  0  0  0  0
    3.5162   -6.5160   -5.1936 H   0  0  0  0  0  0  0  0  0  0  0  0
    3.9399   -7.4684   -3.7563 H   0  0  0  0  0  0  0  0  0  0  0  0
    6.4578   -6.7790   -3.9791 H   0  0  0  0  0  0  0  0  0  0  0  0
    6.0836   -5.6979   -5.3227 H   0  0  0  0  0  0  0  0  0  0  0  0
   -1.8136   -1.1934   -7.6539 H   0  0  0  0  0  0  0  0  0  0  0  0
   -0.1420   -1.4375   -7.1264 H   0  0  0  0  0  0  0  0  0  0  0  0
   -1.4833   -2.2868   -6.3026 H   0  0  0  0  0  0  0  0  0  0  0  0
    5.4124   -7.6244   -6.7280 H   0  0  0  0  0  0  0  0  0  0  0  0
    5.7180   -8.7319   -5.3839 H   0  0  0  0  0  0  0  0  0  0  0  0
    7.8336   -6.9805   -6.7556 H   0  0  0  0  0  0  0  0  0  0  0  0
    8.1412   -8.0770   -5.3950 H   0  0  0  0  0  0  0  0  0  0  0  0
    7.0696   -8.9123   -8.1448 H   0  0  0  0  0  0  0  0  0  0  0  0
    7.3523  -10.0101   -6.7830 H   0  0  0  0  0  0  0  0  0  0  0  0
    9.8004   -9.4916   -6.8772 H   0  0  0  0  0  0  0  0  0  0  0  0
    9.5120   -8.4085   -8.2534 H   0  0  0  0  0  0  0  0  0  0  0  0
    8.8677  -11.4116   -8.1943 H   0  0  0  0  0  0  0  0  0  0  0  0
    8.5842  -10.3304   -9.5700 H   0  0  0  0  0  0  0  0  0  0  0  0
   11.0375   -9.9152   -9.7476 H   0  0  0  0  0  0  0  0  0  0  0  0
   11.3194  -10.9970   -8.3708 H   0  0  0  0  0  0  0  0  0  0  0  0
   10.3421  -12.9065   -9.6705 H   0  0  0  0  0  0  0  0  0  0  0  0
   10.0580  -11.8264  -11.0460 H   0  0  0  0  0  0  0  0  0  0  0  0
   12.5158  -11.3939  -11.2136 H   0  0  0  0  0  0  0  0  0  0  0  0
   12.7995  -12.4757   -9.8392 H   0  0  0  0  0  0  0  0  0  0  0  0
   11.6113  -13.3130  -12.5373 H   0  0  0  0  0  0  0  0  0  0  0  0
   11.8961  -14.3948  -11.1631 H   0  0  0  0  0  0  0  0  0  0  0  0
   14.0676  -12.8272  -12.6638 H   0  0  0  0  0  0  0  0  0  0  0  0
   14.3523  -13.9092  -11.2900 H   0  0  0  0  0  0  0  0  0  0  0  0
   13.4740  -15.8326  -12.6225 H   0  0  0  0  0  0  0  0  0  0  0  0
   13.1891  -14.7503  -13.9967 H   0  0  0  0  0  0  0  0  0  0  0  0
   15.9340  -15.3641  -12.7646 H   0  0  0  0  0  0  0  0  0  0  0  0
   15.6493  -14.2828  -14.1375 H   0  0  0  0  0  0  0  0  0  0  0  0
   16.4054  -16.5185  -14.9132 H   0  0  0  0  0  0  0  0  0  0  0  0
   15.0373  -17.2891  -14.0906 H   0  0  0  0  0  0  0  0  0  0  0  0
   14.7517  -16.2039  -15.4685 H   0  0  0  0  0  0  0  0  0  0  0  0
  1  2  1  0  0  0  0 
  1  3  1  0  0  0  0 
  1  4  1  0  0  0  0 
  2  5  1  0  0  0  0 
  3  6  1  0  0  0  0 
  4  7  2  0  0  0  0 
  4  8  1  0  0  0  0 
  5  9  2  0  0  0  0 
  5 10  1  0  0  0  0 
  6 11  1  0  0  0  0 
  7 12  1  0  0  0  0 
  8 13  2  0  0  0  0 
  9 14  1  0  0  0  0 
 10 15  2  0  0  0  0 
 11 16  1  0  0  0  0 
 11 17  1  0  0  0  0 
 11 18  1  0  0  0  0 
 12 19  2  0  0  0  0 
 13 19  1  0  0  0  0 
 14 20  2  0  0  0  0 
 15 20  1  0  0  0  0 
 16 21  1  0  0  0  0 
 20 22  1  0  0  0  0 
 21 23  1  0  0  0  0 
 22 24  1  0  0  0  0 
 23 25  1  0  0  0  0 
 25 26  1  0  0  0  0 
 26 27  1  0  0  0  0 
 27 28  1  0  0  0  0 
 28 29  1  0  0  0  0 
 29 30  1  0  0  0  0 
 30 31  1  0  0  0  0 
 31 32  1  0  0  0  0 
 32 33  1  0  0  0  0 
 33 34  1  0  0  0  0 
 34 35  1  0  0  0  0 
 35 36  1  0  0  0  0 
 36 37  1  0  0  0  0 
  2 38  1  0  0  0  0 
  2 39  1  0  0  0  0 
  3 40  1  0  0  0  0 
  3 41  1  0  0  0  0 
  6 42  1  0  0  0  0 
  6 43  1  0  0  0  0 
  9 44  1  0  0  0  0 
 10 45  1  0  0  0  0 
 12 46  1  0  0  0  0 
 13 47  1  0  0  0  0 
 14 48  1  0  0  0  0 
 15 49  1  0  0  0  0 
 16 50  1  0  0  0  0 
 16 51  1  0  0  0  0 
 17 52  1  0  0  0  0 
 17 53  1  0  0  0  0 
 17 54  1  0  0  0  0 
 18 55  1  0  0  0  0 
 18 56  1  0  0  0  0 
 18 57  1  0  0  0  0 
 19 58  1  0  0  0  0 
 21 59  1  0  0  0  0 
 21 60  1  0  0  0  0 
 23 61  1  0  0  0  0 
 23 62  1  0  0  0  0 
 24 63  1  0  0  0  0 
 24 64  1  0  0  0  0 
 24 65  1  0  0  0  0 
 25 66  1  0  0  0  0 
 25 67  1  0  0  0  0 
 26 68  1  0  0  0  0 
 26 69  1  0  0  0  0 
 27 70  1  0  0  0  0 
 27 71  1  0  0  0  0 
 28 72  1  0  0  0  0 
 28 73  1  0  0  0  0 
 29 74  1  0  0  0  0 
 29 75  1  0  0  0  0 
 30 76  1  0  0  0  0 
 30 77  1  0  0  0  0 
 31 78  1  0  0  0  0 
 31 79  1  0  0  0  0 
 32 80  1  0  0  0  0 
 32 81  1  0  0  0  0 
 33 82  1  0  0  0  0 
 33 83  1  0  0  0  0 
 34 84  1  0  0  0  0 
 34 85  1  0  0  0  0 
 35 86  1  0  0  0  0 
 35 87  1  0  0  0  0 
 36 88  1  0  0  0  0 
 36 89  1  0  0  0  0 
 37 90  1  0  0  0  0 
 37 91  1  0  0  0  0 
 37 92  1  0  0  0  0 
M  CHG  1  11   1
M  END
> <cdk:Title>
tonzonium

> <Conformer>
1

> <SuperDrugID>
SD003650

$$$$
