tocofersolan
  CDK     0628171801

 81 82  0  0  0  0  0  0  0  0999 V2000
   -1.9907   -1.3664   -3.4679 C   0  0  0  0  0  0  0  0  0  0  0  0
   -1.5597   -1.0572   -2.0685 C   0  0  0  0  0  0  0  0  0  0  0  0
   -2.2094   -0.0321   -1.3264 C   0  0  0  0  0  0  0  0  0  0  0  0
   -0.4841   -1.7845   -1.4776 C   0  0  0  0  0  0  0  0  0  0  0  0
   -1.8053    0.2647    0.0033 C   0  0  0  0  0  0  0  0  0  0  0  0
   -3.2596    0.6398   -1.9336 O   0  0  0  0  0  0  0  0  0  0  0  0
    0.1972   -2.8851   -2.2263 C   0  0  0  0  0  0  0  0  0  0  0  0
   -0.0679   -1.4545   -0.1636 C   0  0  0  0  0  0  0  0  0  0  0  0
   -2.5239    1.3396    0.7557 C   0  0  1  0  0  0  0  0  0  0  0  0
   -0.7115   -0.4388    0.5851 C   0  0  0  0  0  0  0  0  0  0  0  0
   -3.6943    1.9372   -1.4574 C   0  0  1  0  0  0  0  0  0  0  0  0
    0.9735   -2.1224    0.3986 O   0  0  0  0  0  0  0  0  0  0  0  0
   -3.8323    1.8340    0.0961 C   0  0  1  0  0  0  0  0  0  0  0  0
   -0.2396   -0.1058    1.9629 C   0  0  0  0  0  0  0  0  0  0  0  0
   -2.7151    3.1071   -1.8675 C   0  0  1  0  0  0  0  0  0  0  0  0
   -5.1154    2.1491   -2.0654 C   0  0  0  0  0  0  0  0  0  0  0  0
   -2.5967    3.5348   -3.3641 C   0  0  2  0  0  0  0  0  0  0  0  0
   -1.9150    2.4870   -4.2876 C   0  0  2  0  0  0  0  0  0  0  0  0
   -1.9381    2.7972   -5.8244 C   0  0  1  0  0  0  0  0  0  0  0  0
   -1.1135    4.0787   -6.1904 C   0  0  2  0  0  0  0  0  0  0  0  0
   -1.4895    1.5309   -6.6183 C   0  0  0  0  0  0  0  0  0  0  0  0
   -1.0484    4.4062   -7.7109 C   0  0  2  0  0  0  0  0  0  0  0  0
   -0.4938    5.8253   -8.0264 C   0  0  1  0  0  0  0  0  0  0  0  0
   -0.3763    6.1720   -9.5524 C   0  0  1  0  0  0  0  0  0  0  0  0
   -1.7827    6.2650  -10.2367 C   0  0  1  0  0  0  0  0  0  0  0  0
    0.4479    7.4795   -9.7319 C   0  0  0  0  0  0  0  0  0  0  0  0
   -1.8089    6.5238  -11.7706 C   0  0  2  0  0  0  0  0  0  0  0  0
   -3.2592    6.4667  -12.3434 C   0  0  2  0  0  0  0  0  0  0  0  0
   -3.4048    6.5627  -13.9000 C   0  0  1  0  0  0  0  0  0  0  0  0
   -4.9702    6.3318  -14.2581 C   0  0  0  0  0  0  0  0  0  0  0  0
   -2.7781    7.9109  -14.4455 C   0  0  0  0  0  0  0  0  0  0  0  0
   -2.2164   -2.4277   -3.5736 H   0  0  0  0  0  0  0  0  0  0  0  0
   -1.1889   -1.1050   -4.1611 H   0  0  0  0  0  0  0  0  0  0  0  0
   -2.8853   -0.8316   -3.7806 H   0  0  0  0  0  0  0  0  0  0  0  0
    1.0166   -3.3496   -1.6799 H   0  0  0  0  0  0  0  0  0  0  0  0
   -0.5162   -3.6778   -2.4593 H   0  0  0  0  0  0  0  0  0  0  0  0
    0.6160   -2.4990   -3.1558 H   0  0  0  0  0  0  0  0  0  0  0  0
   -2.7933    0.9800    1.7514 H   0  0  0  0  0  0  0  0  0  0  0  0
   -1.8472    2.1885    0.8750 H   0  0  0  0  0  0  0  0  0  0  0  0
    1.7292   -1.9759   -0.2082 H   0  0  0  0  0  0  0  0  0  0  0  0
   -4.6125    1.1084    0.3444 H   0  0  0  0  0  0  0  0  0  0  0  0
   -4.1275    2.7936    0.5279 H   0  0  0  0  0  0  0  0  0  0  0  0
   -1.0395   -0.2798    2.6838 H   0  0  0  0  0  0  0  0  0  0  0  0
    0.0595    0.9435    2.0061 H   0  0  0  0  0  0  0  0  0  0  0  0
    0.6146   -0.6956    2.2939 H   0  0  0  0  0  0  0  0  0  0  0  0
   -3.0290    4.0018   -1.3224 H   0  0  0  0  0  0  0  0  0  0  0  0
   -1.7059    2.8710   -1.5217 H   0  0  0  0  0  0  0  0  0  0  0  0
   -5.5265    3.1085   -1.7466 H   0  0  0  0  0  0  0  0  0  0  0  0
   -5.7975    1.3581   -1.7466 H   0  0  0  0  0  0  0  0  0  0  0  0
   -5.0869    2.1217   -3.1555 H   0  0  0  0  0  0  0  0  0  0  0  0
   -1.9969    4.4486   -3.3899 H   0  0  0  0  0  0  0  0  0  0  0  0
   -3.5805    3.7913   -3.7577 H   0  0  0  0  0  0  0  0  0  0  0  0
   -2.4373    1.5445   -4.1402 H   0  0  0  0  0  0  0  0  0  0  0  0
   -0.8806    2.3494   -3.9587 H   0  0  0  0  0  0  0  0  0  0  0  0
   -2.9800    2.9818   -6.1044 H   0  0  0  0  0  0  0  0  0  0  0  0
   -0.0965    3.9769   -5.8047 H   0  0  0  0  0  0  0  0  0  0  0  0
   -1.5728    4.9353   -5.6895 H   0  0  0  0  0  0  0  0  0  0  0  0
   -0.4441    1.2942   -6.4142 H   0  0  0  0  0  0  0  0  0  0  0  0
   -1.6129    1.6770   -7.6917 H   0  0  0  0  0  0  0  0  0  0  0  0
   -2.0986    0.6662   -6.3464 H   0  0  0  0  0  0  0  0  0  0  0  0
   -2.0604    4.3079   -8.1034 H   0  0  0  0  0  0  0  0  0  0  0  0
   -0.4100    3.6750   -8.2141 H   0  0  0  0  0  0  0  0  0  0  0  0
   -1.1325    6.5696   -7.5449 H   0  0  0  0  0  0  0  0  0  0  0  0
    0.4953    5.8950   -7.5635 H   0  0  0  0  0  0  0  0  0  0  0  0
    0.1875    5.3689  -10.0371 H   0  0  0  0  0  0  0  0  0  0  0  0
   -2.2992    5.3184  -10.0807 H   0  0  0  0  0  0  0  0  0  0  0  0
   -2.3671    7.0473   -9.7432 H   0  0  0  0  0  0  0  0  0  0  0  0
    1.4039    7.4109   -9.2094 H   0  0  0  0  0  0  0  0  0  0  0  0
    0.6694    7.6604  -10.7838 H   0  0  0  0  0  0  0  0  0  0  0  0
   -0.0997    8.3367   -9.3367 H   0  0  0  0  0  0  0  0  0  0  0  0
   -1.1915    5.7741  -12.2730 H   0  0  0  0  0  0  0  0  0  0  0  0
   -1.3896    7.5113  -11.9662 H   0  0  0  0  0  0  0  0  0  0  0  0
   -3.8474    7.2663  -11.8833 H   0  0  0  0  0  0  0  0  0  0  0  0
   -3.6988    5.5143  -12.0295 H   0  0  0  0  0  0  0  0  0  0  0  0
   -2.7208    5.7640  -14.3069 H   0  0  0  0  0  0  0  0  0  0  0  0
   -5.5856    7.1123  -13.8046 H   0  0  0  0  0  0  0  0  0  0  0  0
   -5.1024    6.3689  -15.3404 H   0  0  0  0  0  0  0  0  0  0  0  0
   -5.3061    5.3552  -13.9046 H   0  0  0  0  0  0  0  0  0  0  0  0
   -3.2489    8.7692  -13.9635 H   0  0  0  0  0  0  0  0  0  0  0  0
   -2.9517    7.9795  -15.5204 H   0  0  0  0  0  0  0  0  0  0  0  0
   -1.7013    7.9446  -14.2757 H   0  0  0  0  0  0  0  0  0  0  0  0
  1  2  1  0  0  0  0 
  2  3  2  0  0  0  0 
  2  4  1  0  0  0  0 
  3  5  1  0  0  0  0 
  3  6  1  0  0  0  0 
  4  7  1  0  0  0  0 
  4  8  2  0  0  0  0 
  5  9  1  0  0  0  0 
  5 10  2  0  0  0  0 
 11  6  1  0  0  0  0 
  8 10  1  0  0  0  0 
  8 12  1  0  0  0  0 
  9 13  1  0  0  0  0 
 10 14  1  0  0  0  0 
 11 13  1  0  0  0  0 
 11 15  1  0  0  0  0 
 11 16  1  0  0  0  0 
 15 17  1  0  0  0  0 
 17 18  1  0  0  0  0 
 19 18  1  0  0  0  0 
 19 20  1  0  0  0  0 
 19 21  1  0  0  0  0 
 20 22  1  0  0  0  0 
 22 23  1  0  0  0  0 
 24 23  1  0  0  0  0 
 24 25  1  0  0  0  0 
 24 26  1  0  0  0  0 
 25 27  1  0  0  0  0 
 27 28  1  0  0  0  0 
 28 29  1  0  0  0  0 
 29 30  1  0  0  0  0 
 29 31  1  0  0  0  0 
  1 32  1  0  0  0  0 
  1 33  1  0  0  0  0 
  1 34  1  0  0  0  0 
  7 35  1  0  0  0  0 
  7 36  1  0  0  0  0 
  7 37  1  0  0  0  0 
  9 38  1  0  0  0  0 
  9 39  1  0  0  0  0 
 12 40  1  0  0  0  0 
 13 41  1  0  0  0  0 
 13 42  1  0  0  0  0 
 14 43  1  0  0  0  0 
 14 44  1  0  0  0  0 
 14 45  1  0  0  0  0 
 15 46  1  0  0  0  0 
 15 47  1  0  0  0  0 
 16 48  1  0  0  0  0 
 16 49  1  0  0  0  0 
 16 50  1  0  0  0  0 
 17 51  1  0  0  0  0 
 17 52  1  0  0  0  0 
 18 53  1  0  0  0  0 
 18 54  1  0  0  0  0 
 19 55  1  0  0  0  0 
 20 56  1  0  0  0  0 
 20 57  1  0  0  0  0 
 21 58  1  0  0  0  0 
 21 59  1  0  0  0  0 
 21 60  1  0  0  0  0 
 22 61  1  0  0  0  0 
 22 62  1  0  0  0  0 
 23 63  1  0  0  0  0 
 23 64  1  0  0  0  0 
 24 65  1  0  0  0  0 
 25 66  1  0  0  0  0 
 25 67  1  0  0  0  0 
 26 68  1  0  0  0  0 
 26 69  1  0  0  0  0 
 26 70  1  0  0  0  0 
 27 71  1  0  0  0  0 
 27 72  1  0  0  0  0 
 28 73  1  0  0  0  0 
 28 74  1  0  0  0  0 
 29 75  1  0  0  0  0 
 30 76  1  0  0  0  0 
 30 77  1  0  0  0  0 
 30 78  1  0  0  0  0 
 31 79  1  0  0  0  0 
 31 80  1  0  0  0  0 
 31 81  1  0  0  0  0 
M  END
> <cdk:Title>
tocofersolan

> <Conformer>
1

> <SuperDrugID>
SD003472

$$$$
