tacrine
  CDK     0628171801

 29 31  0  0  0  0  0  0  0  0999 V2000
    1.6396    0.3559    0.3137 N   0  0  0  0  0  0  0  0  0  0  0  0
    0.4937   -0.0541    0.9108 C   0  0  0  0  0  0  0  0  0  0  0  0
   -0.7562    0.4348    0.4377 C   0  0  0  0  0  0  0  0  0  0  0  0
    0.5443   -0.9620    2.0047 C   0  0  0  0  0  0  0  0  0  0  0  0
   -1.9355    0.0241    1.1163 C   0  0  0  0  0  0  0  0  0  0  0  0
   -0.8384    1.3708   -0.7284 C   0  0  1  0  0  0  0  0  0  0  0  0
   -0.6811   -1.3313    2.6232 C   0  0  0  0  0  0  0  0  0  0  0  0
    1.7424   -1.5192    2.5199 C   0  0  0  0  0  0  0  0  0  0  0  0
   -1.8489   -0.8345    2.1597 N   0  0  0  0  0  0  0  0  0  0  0  0
   -3.2960    0.4724    0.7374 C   0  0  1  0  0  0  0  0  0  0  0  0
   -2.2692    1.6178   -1.2782 C   0  0  1  0  0  0  0  0  0  0  0  0
   -0.7085   -2.2131    3.7210 C   0  0  0  0  0  0  0  0  0  0  0  0
    1.7133   -2.4061    3.6150 C   0  0  0  0  0  0  0  0  0  0  0  0
   -3.2992    1.7493   -0.1344 C   0  0  2  0  0  0  0  0  0  0  0  0
    0.4903   -2.7524    4.2150 C   0  0  0  0  0  0  0  0  0  0  0  0
    1.6119    1.0131   -0.3981 H   0  0  0  0  0  0  0  0  0  0  0  0
    2.4949    0.0000    0.5946 H   0  0  0  0  0  0  0  0  0  0  0  0
   -0.4079    2.3291   -0.4260 H   0  0  0  0  0  0  0  0  0  0  0  0
   -0.2415    0.9804   -1.5575 H   0  0  0  0  0  0  0  0  0  0  0  0
    2.6499   -1.2873    2.1112 H   0  0  0  0  0  0  0  0  0  0  0  0
   -3.7791   -0.3431    0.1924 H   0  0  0  0  0  0  0  0  0  0  0  0
   -3.8852    0.6757    1.6366 H   0  0  0  0  0  0  0  0  0  0  0  0
   -2.2799    2.5246   -1.8876 H   0  0  0  0  0  0  0  0  0  0  0  0
   -2.5612    0.7811   -1.9194 H   0  0  0  0  0  0  0  0  0  0  0  0
   -1.5971   -2.4631    4.1625 H   0  0  0  0  0  0  0  0  0  0  0  0
    2.5829   -2.8034    3.9770 H   0  0  0  0  0  0  0  0  0  0  0  0
   -3.0523    2.6166    0.4864 H   0  0  0  0  0  0  0  0  0  0  0  0
   -4.2982    1.9008   -0.5521 H   0  0  0  0  0  0  0  0  0  0  0  0
    0.4699   -3.3966    5.0107 H   0  0  0  0  0  0  0  0  0  0  0  0
  1  2  1  0  0  0  0 
  2  3  1  0  0  0  0 
  2  4  2  0  0  0  0 
  3  5  2  0  0  0  0 
  3  6  1  0  0  0  0 
  4  7  1  0  0  0  0 
  4  8  1  0  0  0  0 
  5  9  1  0  0  0  0 
  5 10  1  0  0  0  0 
  6 11  1  0  0  0  0 
  7  9  2  0  0  0  0 
  7 12  1  0  0  0  0 
  8 13  2  0  0  0  0 
 10 14  1  0  0  0  0 
 11 14  1  0  0  0  0 
 12 15  2  0  0  0  0 
 13 15  1  0  0  0  0 
  1 16  1  0  0  0  0 
  1 17  1  0  0  0  0 
  6 18  1  0  0  0  0 
  6 19  1  0  0  0  0 
  8 20  1  0  0  0  0 
 10 21  1  0  0  0  0 
 10 22  1  0  0  0  0 
 11 23  1  0  0  0  0 
 11 24  1  0  0  0  0 
 12 25  1  0  0  0  0 
 13 26  1  0  0  0  0 
 14 27  1  0  0  0  0 
 14 28  1  0  0  0  0 
 15 29  1  0  0  0  0 
M  END
> <cdk:Title>
tacrine

> <Conformer>
1

> <SuperDrugID>
SD002295

$$$$
