isopromethazine
  CDK     0628171801

 40 42  0  0  0  0  0  0  0  0999 V2000
   -4.1795    5.0120   -2.6220 C   0  0  0  0  0  0  0  0  0  0  0  0
   -3.4667    4.6355   -1.2839 C   0  0  2  0  0  0  0  0  0  0  0  0
   -2.2303    5.5674   -1.0360 C   0  0  1  0  0  0  0  0  0  0  0  0
   -1.3597    5.1549    0.1129 N   0  0  1  0  0  0  0  0  0  0  0  0
    0.0163    5.7257    0.0200 C   0  0  0  0  0  0  0  0  0  0  0  0
   -1.9682    5.3718    1.4566 C   0  0  0  0  0  0  0  0  0  0  0  0
   -3.1839    3.2004   -1.1204 N   0  0  0  0  0  0  0  0  0  0  0  0
   -1.9860    2.6465   -1.5795 C   0  0  0  0  0  0  0  0  0  0  0  0
   -1.4848    2.9033   -2.8803 C   0  0  0  0  0  0  0  0  0  0  0  0
   -0.2329    2.4121   -3.2918 C   0  0  0  0  0  0  0  0  0  0  0  0
    0.5328    1.6197   -2.4221 C   0  0  0  0  0  0  0  0  0  0  0  0
    0.0478    1.3187   -1.1392 C   0  0  0  0  0  0  0  0  0  0  0  0
   -1.1981    1.8270   -0.7258 C   0  0  0  0  0  0  0  0  0  0  0  0
   -1.8004    1.4152    0.8746 S   0  0  0  0  0  0  0  0  0  0  0  0
   -3.5395    1.5549    0.6628 C   0  0  0  0  0  0  0  0  0  0  0  0
   -4.0454    2.4160   -0.3461 C   0  0  0  0  0  0  0  0  0  0  0  0
   -5.4520    2.4552   -0.5223 C   0  0  0  0  0  0  0  0  0  0  0  0
   -6.3134    1.6978    0.2935 C   0  0  0  0  0  0  0  0  0  0  0  0
   -5.7853    0.8689    1.2973 C   0  0  0  0  0  0  0  0  0  0  0  0
   -4.3953    0.7948    1.4825 C   0  0  0  0  0  0  0  0  0  0  0  0
   -4.7814    5.9121   -2.4738 H   0  0  0  0  0  0  0  0  0  0  0  0
   -4.8400    4.2164   -2.9680 H   0  0  0  0  0  0  0  0  0  0  0  0
   -3.4702    5.2258   -3.4219 H   0  0  0  0  0  0  0  0  0  0  0  0
   -4.1777    4.9265   -0.5025 H   0  0  0  0  0  0  0  0  0  0  0  0
   -1.6324    5.5623   -1.9514 H   0  0  0  0  0  0  0  0  0  0  0  0
   -2.5690    6.5986   -0.8933 H   0  0  0  0  0  0  0  0  0  0  0  0
   -0.0069    6.8183    0.0528 H   0  0  0  0  0  0  0  0  0  0  0  0
    0.4943    5.4133   -0.9115 H   0  0  0  0  0  0  0  0  0  0  0  0
    0.6399    5.3616    0.8381 H   0  0  0  0  0  0  0  0  0  0  0  0
   -1.3121    4.9705    2.2323 H   0  0  0  0  0  0  0  0  0  0  0  0
   -2.9232    4.8513    1.5438 H   0  0  0  0  0  0  0  0  0  0  0  0
   -2.1269    6.4364    1.6465 H   0  0  0  0  0  0  0  0  0  0  0  0
   -2.0264    3.4527   -3.5460 H   0  0  0  0  0  0  0  0  0  0  0  0
    0.1201    2.6330   -4.2250 H   0  0  0  0  0  0  0  0  0  0  0  0
    1.4388    1.2579   -2.7232 H   0  0  0  0  0  0  0  0  0  0  0  0
    0.6019    0.7310   -0.5123 H   0  0  0  0  0  0  0  0  0  0  0  0
   -5.8696    3.0402   -1.2459 H   0  0  0  0  0  0  0  0  0  0  0  0
   -7.3254    1.7503    0.1561 H   0  0  0  0  0  0  0  0  0  0  0  0
   -6.4114    0.3180    1.8902 H   0  0  0  0  0  0  0  0  0  0  0  0
   -4.0138    0.1854    2.2107 H   0  0  0  0  0  0  0  0  0  0  0  0
  2  1  1  0  0  0  0 
  2  3  1  0  0  0  0 
  3  4  1  0  0  0  0 
  4  5  1  0  0  0  0 
  4  6  1  0  0  0  0 
  2  7  1  0  0  0  0 
  7  8  1  0  0  0  0 
  8  9  2  0  0  0  0 
  9 10  1  0  0  0  0 
 10 11  2  0  0  0  0 
 11 12  1  0  0  0  0 
 12 13  2  0  0  0  0 
  8 13  1  0  0  0  0 
 13 14  1  0  0  0  0 
 14 15  1  0  0  0  0 
 15 16  2  0  0  0  0 
  7 16  1  0  0  0  0 
 16 17  1  0  0  0  0 
 17 18  2  0  0  0  0 
 18 19  1  0  0  0  0 
 19 20  2  0  0  0  0 
 15 20  1  0  0  0  0 
  1 21  1  0  0  0  0 
  1 22  1  0  0  0  0 
  1 23  1  0  0  0  0 
  2 24  1  0  0  0  0 
  3 25  1  0  0  0  0 
  3 26  1  0  0  0  0 
  5 27  1  0  0  0  0 
  5 28  1  0  0  0  0 
  5 29  1  0  0  0  0 
  6 30  1  0  0  0  0 
  6 31  1  0  0  0  0 
  6 32  1  0  0  0  0 
  9 33  1  0  0  0  0 
 10 34  1  0  0  0  0 
 11 35  1  0  0  0  0 
 12 36  1  0  0  0  0 
 17 37  1  0  0  0  0 
 18 38  1  0  0  0  0 
 19 39  1  0  0  0  0 
 20 40  1  0  0  0  0 
M  END
> <cdk:Title>
isopromethazine

> <Conformer>
1

> <SuperDrugID>
SD003212

$$$$
