niaprazine
  CDK     0628171801

 51 53  0  0  0  0  0  0  0  0999 V2000
    0.0118   -3.2813   -3.5398 C   0  0  2  0  0  0  0  0  0  0  0  0
   -0.3674   -3.6430   -2.0742 C   0  0  2  0  0  0  0  0  0  0  0  0
   -1.0193   -3.6350   -4.5741 N   0  0  1  0  0  0  0  0  0  0  0  0
    0.6408   -3.1051   -1.0119 C   0  0  1  0  0  0  0  0  0  0  0  0
   -0.6613   -3.0672   -5.9190 C   0  0  2  0  0  0  0  0  0  0  0  0
   -1.3544   -5.0983   -4.6343 C   0  0  1  0  0  0  0  0  0  0  0  0
    0.5001   -1.6845   -0.8611 N   0  0  0  0  0  0  0  0  0  0  0  0
    0.4432   -3.7703    0.3735 C   0  0  0  0  0  0  0  0  0  0  0  0
   -1.6981   -3.4315   -7.0090 C   0  0  2  0  0  0  0  0  0  0  0  0
   -2.3733   -5.4202   -5.7557 C   0  0  2  0  0  0  0  0  0  0  0  0
    1.4741   -0.8108   -0.4651 C   0  0  0  0  0  0  0  0  0  0  0  0
   -1.8993   -4.8586   -6.9936 N   0  0  0  0  0  0  0  0  0  0  0  0
    2.6126   -1.2540   -0.1771 O   0  0  0  0  0  0  0  0  0  0  0  0
    1.2215    0.5886   -0.3683 C   0  0  0  0  0  0  0  0  0  0  0  0
   -1.5604   -5.6386   -8.0728 C   0  0  0  0  0  0  0  0  0  0  0  0
    2.0830    1.4530    0.3556 C   0  0  0  0  0  0  0  0  0  0  0  0
    0.1024    1.1843   -1.0017 C   0  0  0  0  0  0  0  0  0  0  0  0
   -0.6247   -6.6902   -7.9353 C   0  0  0  0  0  0  0  0  0  0  0  0
   -2.1099   -5.3843   -9.3497 C   0  0  0  0  0  0  0  0  0  0  0  0
    1.8335    2.8365    0.4197 C   0  0  0  0  0  0  0  0  0  0  0  0
   -0.1183    2.5198   -0.9175 N   0  0  0  0  0  0  0  0  0  0  0  0
   -0.2278   -7.4495   -9.0501 C   0  0  0  0  0  0  0  0  0  0  0  0
   -1.7057   -6.1367  -10.4673 C   0  0  0  0  0  0  0  0  0  0  0  0
    0.7047    3.3544   -0.2372 C   0  0  0  0  0  0  0  0  0  0  0  0
   -0.7581   -7.1654  -10.3208 C   0  0  0  0  0  0  0  0  0  0  0  0
   -0.3680   -7.8506  -11.3591 F   0  0  0  0  0  0  0  0  0  0  0  0
    0.9577   -3.7750   -3.7880 H   0  0  0  0  0  0  0  0  0  0  0  0
    0.1886   -2.2023   -3.5739 H   0  0  0  0  0  0  0  0  0  0  0  0
   -0.3914   -4.7323   -1.9936 H   0  0  0  0  0  0  0  0  0  0  0  0
   -1.3721   -3.2670   -1.8618 H   0  0  0  0  0  0  0  0  0  0  0  0
    1.6490   -3.3511   -1.3620 H   0  0  0  0  0  0  0  0  0  0  0  0
    0.3180   -3.4397   -6.2366 H   0  0  0  0  0  0  0  0  0  0  0  0
   -0.6039   -1.9763   -5.8587 H   0  0  0  0  0  0  0  0  0  0  0  0
   -0.4455   -5.6879   -4.7936 H   0  0  0  0  0  0  0  0  0  0  0  0
   -1.8066   -5.4183   -3.6944 H   0  0  0  0  0  0  0  0  0  0  0  0
   -0.3814   -1.3168   -1.0283 H   0  0  0  0  0  0  0  0  0  0  0  0
    1.2390   -3.4578    1.0513 H   0  0  0  0  0  0  0  0  0  0  0  0
    0.4820   -4.8564    0.2858 H   0  0  0  0  0  0  0  0  0  0  0  0
   -0.5173   -3.4840    0.8054 H   0  0  0  0  0  0  0  0  0  0  0  0
   -1.3330   -3.0687   -7.9731 H   0  0  0  0  0  0  0  0  0  0  0  0
   -2.6440   -2.9241   -6.8066 H   0  0  0  0  0  0  0  0  0  0  0  0
   -3.3428   -4.9796   -5.5065 H   0  0  0  0  0  0  0  0  0  0  0  0
   -2.5157   -6.5023   -5.8182 H   0  0  0  0  0  0  0  0  0  0  0  0
    2.9023    1.0812    0.8433 H   0  0  0  0  0  0  0  0  0  0  0  0
   -0.5610    0.6301   -1.5453 H   0  0  0  0  0  0  0  0  0  0  0  0
   -0.2156   -6.9032   -7.0247 H   0  0  0  0  0  0  0  0  0  0  0  0
   -2.8072   -4.6473   -9.4720 H   0  0  0  0  0  0  0  0  0  0  0  0
    2.4646    3.4536    0.9363 H   0  0  0  0  0  0  0  0  0  0  0  0
    0.4517   -8.2023   -8.9320 H   0  0  0  0  0  0  0  0  0  0  0  0
   -2.1006   -5.9314  -11.3866 H   0  0  0  0  0  0  0  0  0  0  0  0
    0.4974    4.3532   -0.2028 H   0  0  0  0  0  0  0  0  0  0  0  0
  1  2  1  0  0  0  0 
  1  3  1  0  0  0  0 
  4  2  1  0  0  0  0 
  3  5  1  0  0  0  0 
  3  6  1  0  0  0  0 
  4  7  1  0  0  0  0 
  4  8  1  0  0  0  0 
  5  9  1  0  0  0  0 
  6 10  1  0  0  0  0 
  7 11  1  0  0  0  0 
  9 12  1  0  0  0  0 
 10 12  1  0  0  0  0 
 11 13  2  0  0  0  0 
 11 14  1  0  0  0  0 
 12 15  1  0  0  0  0 
 14 16  2  0  0  0  0 
 14 17  1  0  0  0  0 
 15 18  2  0  0  0  0 
 15 19  1  0  0  0  0 
 16 20  1  0  0  0  0 
 17 21  2  0  0  0  0 
 18 22  1  0  0  0  0 
 19 23  2  0  0  0  0 
 20 24  2  0  0  0  0 
 21 24  1  0  0  0  0 
 22 25  2  0  0  0  0 
 23 25  1  0  0  0  0 
 25 26  1  0  0  0  0 
  1 27  1  0  0  0  0 
  1 28  1  0  0  0  0 
  2 29  1  0  0  0  0 
  2 30  1  0  0  0  0 
  4 31  1  0  0  0  0 
  5 32  1  0  0  0  0 
  5 33  1  0  0  0  0 
  6 34  1  0  0  0  0 
  6 35  1  0  0  0  0 
  7 36  1  0  0  0  0 
  8 37  1  0  0  0  0 
  8 38  1  0  0  0  0 
  8 39  1  0  0  0  0 
  9 40  1  0  0  0  0 
  9 41  1  0  0  0  0 
 10 42  1  0  0  0  0 
 10 43  1  0  0  0  0 
 16 44  1  0  0  0  0 
 17 45  1  0  0  0  0 
 18 46  1  0  0  0  0 
 19 47  1  0  0  0  0 
 20 48  1  0  0  0  0 
 22 49  1  0  0  0  0 
 23 50  1  0  0  0  0 
 24 51  1  0  0  0  0 
M  END
> <cdk:Title>
niaprazine

> <Conformer>
1

> <SuperDrugID>
SD001703

$$$$
