eplerenone
  CDK     0628171801

 60 65  0  0  0  0  0  0  0  0999 V2000
   -5.2334    1.0070   -0.2295 C   0  0  0  0  0  0  0  0  0  0  0  0
   -4.2693    1.7518    0.7594 C   0  0  1  0  0  0  0  0  0  0  0  0
   -3.6046    0.6494    1.6857 C   0  0  2  0  0  0  0  0  0  0  0  0
   -3.1988    2.4488   -0.0294 C   0  0  0  0  0  0  0  0  0  0  0  0
   -5.1356    2.7930    1.5815 C   0  0  1  0  0  0  0  0  0  0  0  0
   -2.5064   -0.2580    1.0356 C   0  0  2  0  0  0  0  0  0  0  0  0
   -4.3347    0.0963    2.9175 C   0  0  2  0  0  0  0  0  0  0  0  0
   -3.2849    1.0750    3.0156 O   0  0  0  0  0  0  0  0  0  0  0  0
   -2.0753    1.6753   -0.6136 C   0  0  2  0  0  0  0  0  0  0  0  0
   -3.2510    3.7806   -0.2821 C   0  0  0  0  0  0  0  0  0  0  0  0
   -5.4851    4.0740    0.7863 C   0  0  1  0  0  0  0  0  0  0  0  0
   -1.9693   -1.3734    2.0001 C   0  0  1  0  0  0  0  0  0  0  0  0
   -1.4210    0.6511    0.3721 C   0  0  1  0  0  0  0  0  0  0  0  0
   -3.9058   -1.2144    3.6425 C   0  0  2  0  0  0  0  0  0  0  0  0
   -4.2764    4.6130    0.1357 C   0  0  0  0  0  0  0  0  0  0  0  0
   -3.0979   -2.1902    2.7106 C   0  0  1  0  0  0  0  0  0  0  0  0
   -1.0273   -2.4377    1.3803 C   0  0  1  0  0  0  0  0  0  0  0  0
   -0.5000    1.2846    1.3554 C   0  0  0  0  0  0  0  0  0  0  0  0
   -4.1968    5.8465   -0.0726 O   0  0  0  0  0  0  0  0  0  0  0  0
   -4.1598   -2.8158    1.7157 C   0  0  0  0  0  0  0  0  0  0  0  0
   -2.2238   -3.3363    3.3699 C   0  0  1  0  0  0  0  0  0  0  0  0
   -1.2396   -3.7215    2.2180 C   0  0  2  0  0  0  0  0  0  0  0  0
    0.6929    0.6731    1.6305 O   0  0  0  0  0  0  0  0  0  0  0  0
   -0.8221    2.3412    1.9508 O   0  0  0  0  0  0  0  0  0  0  0  0
   -1.4423   -3.0318    4.7073 C   0  0  2  0  0  0  0  0  0  0  0  0
   -3.0129   -4.4755    3.7228 O   0  0  0  0  0  0  0  0  0  0  0  0
    1.6693    1.1180    2.5751 C   0  0  0  0  0  0  0  0  0  0  0  0
   -1.9425   -4.0492    5.7552 C   0  0  2  0  0  0  0  0  0  0  0  0
   -2.8866   -4.8618    5.0028 C   0  0  0  0  0  0  0  0  0  0  0  0
   -3.5202   -5.8255    5.4869 O   0  0  0  0  0  0  0  0  0  0  0  0
   -6.0105    0.4720    0.3231 H   0  0  0  0  0  0  0  0  0  0  0  0
   -4.7121    0.2765   -0.8488 H   0  0  0  0  0  0  0  0  0  0  0  0
   -5.7225    1.7064   -0.9103 H   0  0  0  0  0  0  0  0  0  0  0  0
   -6.0714    2.3465    1.9265 H   0  0  0  0  0  0  0  0  0  0  0  0
   -4.5875    3.1182    2.4696 H   0  0  0  0  0  0  0  0  0  0  0  0
   -2.9817   -0.7925    0.2112 H   0  0  0  0  0  0  0  0  0  0  0  0
   -5.2833    0.5408    3.2138 H   0  0  0  0  0  0  0  0  0  0  0  0
   -1.2268    2.3748   -0.9251 H   0  0  0  0  0  0  0  0  0  0  0  0
   -2.5413    1.0619   -1.4534 H   0  0  0  0  0  0  0  0  0  0  0  0
   -2.5242    4.2102   -0.8112 H   0  0  0  0  0  0  0  0  0  0  0  0
   -6.2327    3.8592    0.0200 H   0  0  0  0  0  0  0  0  0  0  0  0
   -5.9117    4.8171    1.4653 H   0  0  0  0  0  0  0  0  0  0  0  0
   -1.3912   -0.8623    2.7803 H   0  0  0  0  0  0  0  0  0  0  0  0
   -0.7978    0.0023   -0.2526 H   0  0  0  0  0  0  0  0  0  0  0  0
   -4.8023   -1.7139    4.0168 H   0  0  0  0  0  0  0  0  0  0  0  0
   -3.3422   -0.9210    4.5235 H   0  0  0  0  0  0  0  0  0  0  0  0
   -1.2824   -2.6281    0.3340 H   0  0  0  0  0  0  0  0  0  0  0  0
    0.0143   -2.1052    1.4275 H   0  0  0  0  0  0  0  0  0  0  0  0
   -3.7037   -3.4502    0.9581 H   0  0  0  0  0  0  0  0  0  0  0  0
   -4.8844   -3.4221    2.2629 H   0  0  0  0  0  0  0  0  0  0  0  0
   -4.7284   -2.0515    1.1879 H   0  0  0  0  0  0  0  0  0  0  0  0
   -0.2853   -4.1178    2.5736 H   0  0  0  0  0  0  0  0  0  0  0  0
   -1.6817   -4.4989    1.5877 H   0  0  0  0  0  0  0  0  0  0  0  0
   -1.5880   -2.0236    5.0793 H   0  0  0  0  0  0  0  0  0  0  0  0
   -0.3607   -3.1455    4.5986 H   0  0  0  0  0  0  0  0  0  0  0  0
    1.2226    1.2020    3.5658 H   0  0  0  0  0  0  0  0  0  0  0  0
    2.4829    0.3950    2.6159 H   0  0  0  0  0  0  0  0  0  0  0  0
    2.0670    2.0861    2.2716 H   0  0  0  0  0  0  0  0  0  0  0  0
   -2.4487   -3.5577    6.5897 H   0  0  0  0  0  0  0  0  0  0  0  0
   -1.1251   -4.6706    6.1324 H   0  0  0  0  0  0  0  0  0  0  0  0
  2  1  1  0  0  0  0 
  3  2  1  0  0  0  0 
  2  4  1  0  0  0  0 
  2  5  1  0  0  0  0 
  3  6  1  0  0  0  0 
  3  7  1  0  0  0  0 
  3  8  1  0  0  0  0 
  4  9  1  0  0  0  0 
  4 10  2  0  0  0  0 
  5 11  1  0  0  0  0 
  6 12  1  0  0  0  0 
  6 13  1  0  0  0  0 
  7  8  1  0  0  0  0 
  7 14  1  0  0  0  0 
 13  9  1  0  0  0  0 
 10 15  1  0  0  0  0 
 11 15  1  0  0  0  0 
 12 16  1  0  0  0  0 
 12 17  1  0  0  0  0 
 13 18  1  0  0  0  0 
 16 14  1  0  0  0  0 
 15 19  2  0  0  0  0 
 16 20  1  0  0  0  0 
 16 21  1  0  0  0  0 
 17 22  1  0  0  0  0 
 18 23  1  0  0  0  0 
 18 24  2  0  0  0  0 
 21 22  1  0  0  0  0 
 21 25  1  0  0  0  0 
 21 26  1  0  0  0  0 
 23 27  1  0  0  0  0 
 25 28  1  0  0  0  0 
 26 29  1  0  0  0  0 
 28 29  1  0  0  0  0 
 29 30  2  0  0  0  0 
 31  1  1  0  0  0  0 
 32  1  1  0  0  0  0 
 33  1  1  0  0  0  0 
 34  5  1  0  0  0  0 
 35  5  1  0  0  0  0 
  6 36  1  0  0  0  0 
  7 37  1  0  0  0  0 
 38  9  1  0  0  0  0 
 39  9  1  0  0  0  0 
 40 10  1  0  0  0  0 
 41 11  1  0  0  0  0 
 42 11  1  0  0  0  0 
 12 43  1  0  0  0  0 
 13 44  1  0  0  0  0 
 45 14  1  0  0  0  0 
 46 14  1  0  0  0  0 
 47 17  1  0  0  0  0 
 48 17  1  0  0  0  0 
 49 20  1  0  0  0  0 
 50 20  1  0  0  0  0 
 51 20  1  0  0  0  0 
 52 22  1  0  0  0  0 
 53 22  1  0  0  0  0 
 54 25  1  0  0  0  0 
 55 25  1  0  0  0  0 
 56 27  1  0  0  0  0 
 57 27  1  0  0  0  0 
 58 27  1  0  0  0  0 
 59 28  1  0  0  0  0 
 60 28  1  0  0  0  0 
M  END
> <cdk:Title>
eplerenone

> <Conformer>
1

> <SuperDrugID>
SD000919

$$$$
