talinolol
  CDK     0628171801

 59 60  0  0  0  0  0  0  0  0999 V2000
   -5.0033    2.0292    0.8597 O   0  0  0  0  0  0  0  0  0  0  0  0
   -5.8211    1.5944   -0.2487 C   0  0  1  0  0  0  0  0  0  0  0  0
   -3.8602    1.2887    1.0230 C   0  0  0  0  0  0  0  0  0  0  0  0
   -7.0351    2.5404   -0.4468 C   0  0  2  0  0  0  0  0  0  0  0  0
   -3.8466    0.1860    1.8994 C   0  0  0  0  0  0  0  0  0  0  0  0
   -2.6757    1.6390    0.3456 C   0  0  0  0  0  0  0  0  0  0  0  0
   -8.0189    2.5579    0.7517 C   0  0  2  0  0  0  0  0  0  0  0  0
   -7.7445    2.1582   -1.6264 O   0  0  0  0  0  0  0  0  0  0  0  0
   -2.6705   -0.5683    2.0718 C   0  0  0  0  0  0  0  0  0  0  0  0
   -1.5042    0.8780    0.5123 C   0  0  0  0  0  0  0  0  0  0  0  0
   -9.1032    3.5418    0.5144 N   0  0  1  0  0  0  0  0  0  0  0  0
   -1.4802   -0.2444    1.3805 C   0  0  0  0  0  0  0  0  0  0  0  0
  -10.0729    3.8566    1.6089 C   0  0  2  0  0  0  0  0  0  0  0  0
   -0.4082   -1.0795    1.5920 N   0  0  0  0  0  0  0  0  0  0  0  0
   -9.3728    4.5519    2.8193 C   0  0  0  0  0  0  0  0  0  0  0  0
  -10.8528    2.5955    2.0970 C   0  0  0  0  0  0  0  0  0  0  0  0
  -11.0779    4.8552    0.9592 C   0  0  0  0  0  0  0  0  0  0  0  0
    0.8981   -0.9587    1.2016 C   0  0  0  0  0  0  0  0  0  0  0  0
    1.8431   -1.9135    1.4197 N   0  0  0  0  0  0  0  0  0  0  0  0
    1.3397    0.0533    0.6145 O   0  0  0  0  0  0  0  0  0  0  0  0
    1.6989   -3.2163    2.0053 C   0  0  2  0  0  0  0  0  0  0  0  0
    2.6298   -3.2957    3.2522 C   0  0  1  0  0  0  0  0  0  0  0  0
    2.0851   -4.2748    0.9281 C   0  0  2  0  0  0  0  0  0  0  0  0
    2.8049   -4.7359    3.8030 C   0  0  2  0  0  0  0  0  0  0  0  0
    2.2615   -5.7037    1.5071 C   0  0  2  0  0  0  0  0  0  0  0  0
    3.2587   -5.7162    2.6926 C   0  0  2  0  0  0  0  0  0  0  0  0
   -5.2334    1.6139   -1.1721 H   0  0  0  0  0  0  0  0  0  0  0  0
   -6.1787    0.5724   -0.0854 H   0  0  0  0  0  0  0  0  0  0  0  0
   -6.6552    3.5539   -0.6014 H   0  0  0  0  0  0  0  0  0  0  0  0
   -4.6943   -0.0697    2.4109 H   0  0  0  0  0  0  0  0  0  0  0  0
   -2.6647    2.4483   -0.2787 H   0  0  0  0  0  0  0  0  0  0  0  0
   -7.4676    2.8239    1.6534 H   0  0  0  0  0  0  0  0  0  0  0  0
   -8.4535    1.5643    0.8783 H   0  0  0  0  0  0  0  0  0  0  0  0
   -7.0855    2.2080   -2.3512 H   0  0  0  0  0  0  0  0  0  0  0  0
   -2.6916   -1.3679    2.7119 H   0  0  0  0  0  0  0  0  0  0  0  0
   -0.6862    1.1578   -0.0257 H   0  0  0  0  0  0  0  0  0  0  0  0
   -8.6542    4.4241    0.2567 H   0  0  0  0  0  0  0  0  0  0  0  0
   -0.6125   -1.8758    2.1034 H   0  0  0  0  0  0  0  0  0  0  0  0
   -8.7697    5.3980    2.4831 H   0  0  0  0  0  0  0  0  0  0  0  0
   -8.7217    3.8559    3.3508 H   0  0  0  0  0  0  0  0  0  0  0  0
  -10.1132    4.9195    3.5338 H   0  0  0  0  0  0  0  0  0  0  0  0
  -10.1800    1.8772    2.5685 H   0  0  0  0  0  0  0  0  0  0  0  0
  -11.6103    2.8746    2.8341 H   0  0  0  0  0  0  0  0  0  0  0  0
  -11.3524    2.1007    1.2616 H   0  0  0  0  0  0  0  0  0  0  0  0
  -11.8376    5.1706    1.6787 H   0  0  0  0  0  0  0  0  0  0  0  0
  -10.5568    5.7464    0.5993 H   0  0  0  0  0  0  0  0  0  0  0  0
  -11.5839    4.3916    0.1080 H   0  0  0  0  0  0  0  0  0  0  0  0
    2.7430   -1.6896    1.1306 H   0  0  0  0  0  0  0  0  0  0  0  0
    0.6716   -3.4110    2.3260 H   0  0  0  0  0  0  0  0  0  0  0  0
    3.6208   -2.9101    2.9936 H   0  0  0  0  0  0  0  0  0  0  0  0
    2.2217   -2.6633    4.0462 H   0  0  0  0  0  0  0  0  0  0  0  0
    3.0228   -3.9835    0.4443 H   0  0  0  0  0  0  0  0  0  0  0  0
    1.3095   -4.3030    0.1586 H   0  0  0  0  0  0  0  0  0  0  0  0
    1.8614   -5.0866    4.2321 H   0  0  0  0  0  0  0  0  0  0  0  0
    3.5529   -4.7252    4.5997 H   0  0  0  0  0  0  0  0  0  0  0  0
    2.6327   -6.3654    0.7201 H   0  0  0  0  0  0  0  0  0  0  0  0
    1.2950   -6.0905    1.8435 H   0  0  0  0  0  0  0  0  0  0  0  0
    3.3263   -6.7262    3.1053 H   0  0  0  0  0  0  0  0  0  0  0  0
    4.2542   -5.4317    2.3368 H   0  0  0  0  0  0  0  0  0  0  0  0
  1  2  1  0  0  0  0 
  1  3  1  0  0  0  0 
  4  2  1  0  0  0  0 
  3  5  2  0  0  0  0 
  3  6  1  0  0  0  0 
  4  7  1  0  0  0  0 
  4  8  1  0  0  0  0 
  5  9  1  0  0  0  0 
  6 10  2  0  0  0  0 
  7 11  1  0  0  0  0 
  9 12  2  0  0  0  0 
 10 12  1  0  0  0  0 
 11 13  1  0  0  0  0 
 12 14  1  0  0  0  0 
 13 15  1  0  0  0  0 
 13 16  1  0  0  0  0 
 13 17  1  0  0  0  0 
 14 18  1  0  0  0  0 
 18 19  1  0  0  0  0 
 18 20  2  0  0  0  0 
 19 21  1  0  0  0  0 
 21 22  1  0  0  0  0 
 21 23  1  0  0  0  0 
 22 24  1  0  0  0  0 
 23 25  1  0  0  0  0 
 24 26  1  0  0  0  0 
 25 26  1  0  0  0  0 
  2 27  1  0  0  0  0 
  2 28  1  0  0  0  0 
  4 29  1  0  0  0  0 
  5 30  1  0  0  0  0 
  6 31  1  0  0  0  0 
  7 32  1  0  0  0  0 
  7 33  1  0  0  0  0 
  8 34  1  0  0  0  0 
  9 35  1  0  0  0  0 
 10 36  1  0  0  0  0 
 11 37  1  0  0  0  0 
 14 38  1  0  0  0  0 
 15 39  1  0  0  0  0 
 15 40  1  0  0  0  0 
 15 41  1  0  0  0  0 
 16 42  1  0  0  0  0 
 16 43  1  0  0  0  0 
 16 44  1  0  0  0  0 
 17 45  1  0  0  0  0 
 17 46  1  0  0  0  0 
 17 47  1  0  0  0  0 
 19 48  1  0  0  0  0 
 21 49  1  0  0  0  0 
 22 50  1  0  0  0  0 
 22 51  1  0  0  0  0 
 23 52  1  0  0  0  0 
 23 53  1  0  0  0  0 
 24 54  1  0  0  0  0 
 24 55  1  0  0  0  0 
 25 56  1  0  0  0  0 
 25 57  1  0  0  0  0 
 26 58  1  0  0  0  0 
 26 59  1  0  0  0  0 
M  END
> <cdk:Title>
talinolol

> <Conformer>
1

> <SuperDrugID>
SD002301

$$$$
