amantadine
  CDK     0628171801

 28 30  0  0  0  0  0  0  0  0999 V2000
    3.2874    0.6722    2.2740 N   0  0  1  0  0  0  0  0  0  0  0  0
    4.2130    0.9220    3.3916 C   0  0  2  0  0  0  0  0  0  0  0  0
    4.7612    2.3877    3.3233 C   0  0  1  0  0  0  0  0  0  0  0  0
    5.7432    2.6345    4.5145 C   0  0  1  0  0  0  0  0  0  0  0  0
    4.9874    2.4219    5.8655 C   0  0  2  0  0  0  0  0  0  0  0  0
    4.4437    0.9588    5.9393 C   0  0  2  0  0  0  0  0  0  0  0  0
    5.6363   -0.0461    5.8470 C   0  0  1  0  0  0  0  0  0  0  0  0
    6.3930    0.1659    4.4970 C   0  0  2  0  0  0  0  0  0  0  0  0
    6.9367    1.6298    4.4248 C   0  0  1  0  0  0  0  0  0  0  0  0
    5.4116   -0.0822    3.3070 C   0  0  1  0  0  0  0  0  0  0  0  0
    3.4613    0.7103    4.7491 C   0  0  2  0  0  0  0  0  0  0  0  0
    2.5484    1.3772    2.3252 H   0  0  0  0  0  0  0  0  0  0  0  0
    3.8020    0.8438    1.4074 H   0  0  0  0  0  0  0  0  0  0  0  0
    5.2783    2.5543    2.3734 H   0  0  0  0  0  0  0  0  0  0  0  0
    3.9357    3.1051    3.3670 H   0  0  0  0  0  0  0  0  0  0  0  0
    6.1246    3.6582    4.4651 H   0  0  0  0  0  0  0  0  0  0  0  0
    4.1605    3.1326    5.9477 H   0  0  0  0  0  0  0  0  0  0  0  0
    5.6612    2.6108    6.7054 H   0  0  0  0  0  0  0  0  0  0  0  0
    3.9165    0.8098    6.8863 H   0  0  0  0  0  0  0  0  0  0  0  0
    6.3189    0.1026    6.6882 H   0  0  0  0  0  0  0  0  0  0  0  0
    5.2659   -1.0733    5.9120 H   0  0  0  0  0  0  0  0  0  0  0  0
    7.2295   -0.5376    4.4343 H   0  0  0  0  0  0  0  0  0  0  0  0
    7.4851    1.7792    3.4908 H   0  0  0  0  0  0  0  0  0  0  0  0
    7.6396    1.8093    5.2433 H   0  0  0  0  0  0  0  0  0  0  0  0
    5.0446   -1.1125    3.3402 H   0  0  0  0  0  0  0  0  0  0  0  0
    5.9411    0.0441    2.3579 H   0  0  0  0  0  0  0  0  0  0  0  0
    3.0602   -0.3068    4.8032 H   0  0  0  0  0  0  0  0  0  0  0  0
    2.6110    1.3961    4.8225 H   0  0  0  0  0  0  0  0  0  0  0  0
  1  2  1  0  0  0  0 
  2  3  1  0  0  0  0 
  3  4  1  0  0  0  0 
  4  5  1  0  0  0  0 
  5  6  1  0  0  0  0 
  2 11  1  0  0  0  0 
  7  8  1  0  0  0  0 
  8  9  1  0  0  0  0 
  6 11  1  0  0  0  0 
  8 10  1  0  0  0  0 
  2 10  1  0  0  0  0 
  4  9  1  0  0  0  0 
  6  7  1  0  0  0  0 
  1 12  1  0  0  0  0 
  1 13  1  0  0  0  0 
  3 14  1  0  0  0  0 
  3 15  1  0  0  0  0 
  4 16  1  0  0  0  0 
  5 17  1  0  0  0  0 
  5 18  1  0  0  0  0 
  6 19  1  0  0  0  0 
  7 20  1  0  0  0  0 
  7 21  1  0  0  0  0 
  8 22  1  0  0  0  0 
  9 23  1  0  0  0  0 
  9 24  1  0  0  0  0 
 10 25  1  0  0  0  0 
 10 26  1  0  0  0  0 
 11 27  1  0  0  0  0 
 11 28  1  0  0  0  0 
M  END
> <cdk:Title>
amantadine

> <Conformer>
1

> <SuperDrugID>
SD000113

$$$$
