emylcamate
  CDK     0628171801

 25 24  0  0  0  0  0  0  0  0999 V2000
   -0.7589   -2.7719    2.5196 C   0  0  0  0  0  0  0  0  0  0  0  0
    0.5739   -2.5536    1.7594 C   0  0  1  0  0  0  0  0  0  0  0  0
    0.4592   -2.3611    0.2039 C   0  0  1  0  0  0  0  0  0  0  0  0
    1.8684   -2.0244   -0.3877 C   0  0  0  0  0  0  0  0  0  0  0  0
   -0.1185   -3.6566   -0.4694 C   0  0  1  0  0  0  0  0  0  0  0  0
   -0.2382   -3.6254   -2.0131 C   0  0  0  0  0  0  0  0  0  0  0  0
   -0.4674   -1.2937   -0.1076 O   0  0  0  0  0  0  0  0  0  0  0  0
   -0.4185    0.0399    0.1943 C   0  0  0  0  0  0  0  0  0  0  0  0
   -1.4363    0.8208   -0.1965 N   0  0  0  0  0  0  0  0  0  0  0  0
    0.5308    0.5648    0.8173 O   0  0  0  0  0  0  0  0  0  0  0  0
   -1.4707   -1.9761    2.2912 H   0  0  0  0  0  0  0  0  0  0  0  0
   -1.2047   -3.7338    2.2620 H   0  0  0  0  0  0  0  0  0  0  0  0
   -0.5719   -2.7663    3.5953 H   0  0  0  0  0  0  0  0  0  0  0  0
    1.0450   -1.6695    2.1942 H   0  0  0  0  0  0  0  0  0  0  0  0
    1.2309   -3.4019    1.9733 H   0  0  0  0  0  0  0  0  0  0  0  0
    1.7837   -1.6874   -1.4223 H   0  0  0  0  0  0  0  0  0  0  0  0
    2.5221   -2.8982   -0.3604 H   0  0  0  0  0  0  0  0  0  0  0  0
    2.3538   -1.2247    0.1740 H   0  0  0  0  0  0  0  0  0  0  0  0
    0.4959   -4.5201   -0.1980 H   0  0  0  0  0  0  0  0  0  0  0  0
   -1.1243   -3.8421   -0.0874 H   0  0  0  0  0  0  0  0  0  0  0  0
   -0.8104   -4.4888   -2.3575 H   0  0  0  0  0  0  0  0  0  0  0  0
    0.7476   -3.6660   -2.4786 H   0  0  0  0  0  0  0  0  0  0  0  0
   -0.7509   -2.7207   -2.3422 H   0  0  0  0  0  0  0  0  0  0  0  0
   -2.1851    0.4347   -0.6777 H   0  0  0  0  0  0  0  0  0  0  0  0
   -1.4225    1.7712    0.0003 H   0  0  0  0  0  0  0  0  0  0  0  0
  1  2  1  0  0  0  0 
  2  3  1  0  0  0  0 
  3  4  1  0  0  0  0 
  3  5  1  0  0  0  0 
  5  6  1  0  0  0  0 
  3  7  1  0  0  0  0 
  7  8  1  0  0  0  0 
  8  9  1  0  0  0  0 
  8 10  2  0  0  0  0 
 11  1  1  0  0  0  0 
 12  1  1  0  0  0  0 
 13  1  1  0  0  0  0 
 14  2  1  0  0  0  0 
 15  2  1  0  0  0  0 
 16  4  1  0  0  0  0 
 17  4  1  0  0  0  0 
 18  4  1  0  0  0  0 
 19  5  1  0  0  0  0 
 20  5  1  0  0  0  0 
 21  6  1  0  0  0  0 
 22  6  1  0  0  0  0 
 23  6  1  0  0  0  0 
 24  9  1  0  0  0  0 
 25  9  1  0  0  0  0 
M  END
> <cdk:Title>
emylcamate

> <Conformer>
1

> <SuperDrugID>
SD000892

$$$$
