fasudil
  CDK     0628171801

 37 39  0  0  0  0  0  0  0  0999 V2000
   -3.4512   -4.2971   -3.8978 N   0  0  0  0  0  0  0  0  0  0  0  0
   -3.9480   -5.2766   -3.1051 C   0  0  0  0  0  0  0  0  0  0  0  0
   -3.6021   -5.3250   -1.7351 C   0  0  0  0  0  0  0  0  0  0  0  0
   -2.7046   -4.3463   -1.2045 C   0  0  0  0  0  0  0  0  0  0  0  0
   -2.2468   -3.3262   -2.0758 C   0  0  0  0  0  0  0  0  0  0  0  0
   -2.6279   -3.3307   -3.4278 C   0  0  0  0  0  0  0  0  0  0  0  0
   -4.1308   -6.3275   -0.8943 C   0  0  0  0  0  0  0  0  0  0  0  0
   -3.7884   -6.3567    0.4665 C   0  0  0  0  0  0  0  0  0  0  0  0
   -2.8820   -5.4181    0.9878 C   0  0  0  0  0  0  0  0  0  0  0  0
   -2.3012   -4.4329    0.1600 C   0  0  0  0  0  0  0  0  0  0  0  0
   -1.0390   -3.3898    0.8638 S   0  0  1  0  0  0  0  0  0  0  0  0
   -1.6308   -1.7203    1.0084 N   0  0  2  0  0  0  0  0  0  0  0  0
   -0.5603   -0.6818    1.0977 C   0  0  2  0  0  0  0  0  0  0  0  0
   -0.9761    0.5561    0.2610 C   0  0  2  0  0  0  0  0  0  0  0  0
   -2.0512    1.4541    0.9224 C   0  0  1  0  0  0  0  0  0  0  0  0
   -3.3084    0.7593    1.2834 N   0  0  2  0  0  0  0  0  0  0  0  0
   -3.2185   -0.2004    2.4045 C   0  0  1  0  0  0  0  0  0  0  0  0
   -2.7666   -1.6209    1.9750 C   0  0  2  0  0  0  0  0  0  0  0  0
   -0.5919   -3.9041    2.3160 O   0  0  0  0  0  0  0  0  0  0  0  0
    0.2561   -3.4345   -0.0849 O   0  0  0  0  0  0  0  0  0  0  0  0
   -4.5703   -5.9740   -3.5225 H   0  0  0  0  0  0  0  0  0  0  0  0
   -1.6409   -2.5720   -1.7493 H   0  0  0  0  0  0  0  0  0  0  0  0
   -2.2846   -2.6081   -4.0621 H   0  0  0  0  0  0  0  0  0  0  0  0
   -4.7686   -7.0399   -1.2632 H   0  0  0  0  0  0  0  0  0  0  0  0
   -4.1917   -7.0714    1.0784 H   0  0  0  0  0  0  0  0  0  0  0  0
   -2.6435   -5.4677    1.9812 H   0  0  0  0  0  0  0  0  0  0  0  0
    0.3796   -1.0423    0.6725 H   0  0  0  0  0  0  0  0  0  0  0  0
   -0.3448   -0.4011    2.1334 H   0  0  0  0  0  0  0  0  0  0  0  0
   -1.3428    0.2181   -0.7131 H   0  0  0  0  0  0  0  0  0  0  0  0
   -0.0924    1.1744    0.0775 H   0  0  0  0  0  0  0  0  0  0  0  0
   -1.6294    1.9520    1.8003 H   0  0  0  0  0  0  0  0  0  0  0  0
   -2.3195    2.2371    0.2108 H   0  0  0  0  0  0  0  0  0  0  0  0
   -3.6568    0.2645    0.4600 H   0  0  0  0  0  0  0  0  0  0  0  0
   -2.5551    0.1801    3.1865 H   0  0  0  0  0  0  0  0  0  0  0  0
   -4.2127   -0.2732    2.8500 H   0  0  0  0  0  0  0  0  0  0  0  0
   -2.5269   -2.1657    2.8923 H   0  0  0  0  0  0  0  0  0  0  0  0
   -3.6224   -2.1176    1.5096 H   0  0  0  0  0  0  0  0  0  0  0  0
  1  2  1  0  0  0  0 
  2  3  2  0  0  0  0 
  3  4  1  0  0  0  0 
  4  5  2  0  0  0  0 
  5  6  1  0  0  0  0 
  1  6  2  0  0  0  0 
  7  8  2  0  0  0  0 
  8  9  1  0  0  0  0 
  9 10  2  0  0  0  0 
  3  7  1  0  0  0  0 
  4 10  1  0  0  0  0 
 10 11  1  0  0  0  0 
 11 12  1  0  0  0  0 
 13 14  1  0  0  0  0 
 14 15  1  0  0  0  0 
 15 16  1  0  0  0  0 
 16 17  1  0  0  0  0 
 17 18  1  0  0  0  0 
 12 13  1  0  0  0  0 
 18 12  1  0  0  0  0 
 11 19  2  0  0  0  0 
 11 20  2  0  0  0  0 
  2 21  1  0  0  0  0 
  5 22  1  0  0  0  0 
  6 23  1  0  0  0  0 
  7 24  1  0  0  0  0 
  8 25  1  0  0  0  0 
  9 26  1  0  0  0  0 
 13 27  1  0  0  0  0 
 13 28  1  0  0  0  0 
 14 29  1  0  0  0  0 
 14 30  1  0  0  0  0 
 15 31  1  0  0  0  0 
 15 32  1  0  0  0  0 
 16 33  1  0  0  0  0 
 17 34  1  0  0  0  0 
 17 35  1  0  0  0  0 
 18 36  1  0  0  0  0 
 18 37  1  0  0  0  0 
M  END
> <cdk:Title>
fasudil

> <Conformer>
1

> <SuperDrugID>
SD001011

$$$$
