normethadone
  CDK     0628171801

 47 48  0  0  0  0  0  0  0  0999 V2000
   -0.7425    4.3212   -0.8968 C   0  0  1  0  0  0  0  0  0  0  0  0
    0.7572    4.1013   -0.4214 C   0  0  2  0  0  0  0  0  0  0  0  0
   -1.4499    2.9741   -0.8670 C   0  0  0  0  0  0  0  0  0  0  0  0
   -1.3547    5.3060    0.1010 C   0  0  0  0  0  0  0  0  0  0  0  0
   -0.9113    4.7731   -2.3503 C   0  0  0  0  0  0  0  0  0  0  0  0
    1.6333    5.3591   -0.1161 C   0  0  1  0  0  0  0  0  0  0  0  0
   -0.9692    1.7541   -1.5721 C   0  0  2  0  0  0  0  0  0  0  0  0
   -2.5618    2.8435   -0.2951 O   0  0  0  0  0  0  0  0  0  0  0  0
   -1.6733    6.6523   -0.2313 C   0  0  0  0  0  0  0  0  0  0  0  0
   -1.5770    4.9189    1.4548 C   0  0  0  0  0  0  0  0  0  0  0  0
    0.1643    5.0894   -3.2260 C   0  0  0  0  0  0  0  0  0  0  0  0
   -2.2233    4.8908   -2.8997 C   0  0  0  0  0  0  0  0  0  0  0  0
    3.1019    5.0520   -0.1939 N   0  0  1  0  0  0  0  0  0  0  0  0
   -0.5979    0.6145   -0.5967 C   0  0  0  0  0  0  0  0  0  0  0  0
   -2.2301    7.5373    0.7096 C   0  0  0  0  0  0  0  0  0  0  0  0
   -2.1349    5.7984    2.3994 C   0  0  0  0  0  0  0  0  0  0  0  0
   -0.0551    5.5095   -4.5528 C   0  0  0  0  0  0  0  0  0  0  0  0
   -2.4482    5.2751   -4.2326 C   0  0  0  0  0  0  0  0  0  0  0  0
    3.9508    6.2475   -0.4685 C   0  0  0  0  0  0  0  0  0  0  0  0
    3.6250    4.2428    0.9494 C   0  0  0  0  0  0  0  0  0  0  0  0
   -2.4666    7.1088    2.0265 C   0  0  0  0  0  0  0  0  0  0  0  0
   -1.3608    5.6001   -5.0583 C   0  0  0  0  0  0  0  0  0  0  0  0
    1.2906    3.5080   -1.1665 H   0  0  0  0  0  0  0  0  0  0  0  0
    0.7534    3.5006    0.4917 H   0  0  0  0  0  0  0  0  0  0  0  0
    1.3764    6.1383   -0.8370 H   0  0  0  0  0  0  0  0  0  0  0  0
    1.3863    5.7549    0.8738 H   0  0  0  0  0  0  0  0  0  0  0  0
   -0.1008    1.9734   -2.1954 H   0  0  0  0  0  0  0  0  0  0  0  0
   -1.7591    1.4056   -2.2434 H   0  0  0  0  0  0  0  0  0  0  0  0
   -1.4904    7.0217   -1.1665 H   0  0  0  0  0  0  0  0  0  0  0  0
   -1.3320    3.9785    1.7711 H   0  0  0  0  0  0  0  0  0  0  0  0
    1.1345    5.0226   -2.9218 H   0  0  0  0  0  0  0  0  0  0  0  0
   -3.0417    4.6874   -2.3200 H   0  0  0  0  0  0  0  0  0  0  0  0
   -0.2408   -0.2512   -1.1576 H   0  0  0  0  0  0  0  0  0  0  0  0
    0.1942    0.9399    0.0801 H   0  0  0  0  0  0  0  0  0  0  0  0
   -1.4665    0.3106   -0.0094 H   0  0  0  0  0  0  0  0  0  0  0  0
   -2.4573    8.4966    0.4371 H   0  0  0  0  0  0  0  0  0  0  0  0
   -2.2979    5.4845    3.3595 H   0  0  0  0  0  0  0  0  0  0  0  0
    0.7392    5.7498   -5.1521 H   0  0  0  0  0  0  0  0  0  0  0  0
   -3.4025    5.3236   -4.6001 H   0  0  0  0  0  0  0  0  0  0  0  0
    4.9896    5.9500   -0.6271 H   0  0  0  0  0  0  0  0  0  0  0  0
    3.6173    6.7484   -1.3796 H   0  0  0  0  0  0  0  0  0  0  0  0
    3.9094    6.9588    0.3598 H   0  0  0  0  0  0  0  0  0  0  0  0
    3.5941    4.8101    1.8829 H   0  0  0  0  0  0  0  0  0  0  0  0
    3.0499    3.3267    1.0836 H   0  0  0  0  0  0  0  0  0  0  0  0
    4.6570    3.9416    0.7610 H   0  0  0  0  0  0  0  0  0  0  0  0
   -2.8716    7.7508    2.7115 H   0  0  0  0  0  0  0  0  0  0  0  0
   -1.5215    5.9037   -6.0210 H   0  0  0  0  0  0  0  0  0  0  0  0
  1  2  1  0  0  0  0 
  1  3  1  0  0  0  0 
  1  4  1  0  0  0  0 
  1  5  1  0  0  0  0 
  2  6  1  0  0  0  0 
  3  7  1  0  0  0  0 
  3  8  2  0  0  0  0 
  4  9  2  0  0  0  0 
  4 10  1  0  0  0  0 
  5 11  2  0  0  0  0 
  5 12  1  0  0  0  0 
  6 13  1  0  0  0  0 
  7 14  1  0  0  0  0 
  9 15  1  0  0  0  0 
 10 16  2  0  0  0  0 
 11 17  1  0  0  0  0 
 12 18  2  0  0  0  0 
 13 19  1  0  0  0  0 
 13 20  1  0  0  0  0 
 15 21  2  0  0  0  0 
 16 21  1  0  0  0  0 
 17 22  2  0  0  0  0 
 18 22  1  0  0  0  0 
  2 23  1  0  0  0  0 
  2 24  1  0  0  0  0 
  6 25  1  0  0  0  0 
  6 26  1  0  0  0  0 
  7 27  1  0  0  0  0 
  7 28  1  0  0  0  0 
  9 29  1  0  0  0  0 
 10 30  1  0  0  0  0 
 11 31  1  0  0  0  0 
 12 32  1  0  0  0  0 
 14 33  1  0  0  0  0 
 14 34  1  0  0  0  0 
 14 35  1  0  0  0  0 
 15 36  1  0  0  0  0 
 16 37  1  0  0  0  0 
 17 38  1  0  0  0  0 
 18 39  1  0  0  0  0 
 19 40  1  0  0  0  0 
 19 41  1  0  0  0  0 
 19 42  1  0  0  0  0 
 20 43  1  0  0  0  0 
 20 44  1  0  0  0  0 
 20 45  1  0  0  0  0 
 21 46  1  0  0  0  0 
 22 47  1  0  0  0  0 
M  END
> <cdk:Title>
normethadone

> <Conformer>
1

> <SuperDrugID>
SD001761

$$$$
