fenipentol
  CDK     0628171801

 28 28  0  0  0  0  0  0  0  0999 V2000
   -0.2687   -1.7502    4.9799 C   0  0  0  0  0  0  0  0  0  0  0  0
   -1.3011   -1.6444    3.8380 C   0  0  2  0  0  0  0  0  0  0  0  0
   -0.6588   -1.3579    2.4558 C   0  0  1  0  0  0  0  0  0  0  0  0
   -1.7229   -1.1908    1.3339 C   0  0  2  0  0  0  0  0  0  0  0  0
   -1.1098   -1.0598   -0.0900 C   0  0  1  0  0  0  0  0  0  0  0  0
   -2.1376   -1.1206   -1.0799 O   0  0  0  0  0  0  0  0  0  0  0  0
   -0.3281    0.1961   -0.2877 C   0  0  0  0  0  0  0  0  0  0  0  0
   -0.9787    1.4517   -0.3731 C   0  0  0  0  0  0  0  0  0  0  0  0
   -0.2446    2.6325   -0.5932 C   0  0  0  0  0  0  0  0  0  0  0  0
    1.1559    2.5770   -0.7079 C   0  0  0  0  0  0  0  0  0  0  0  0
    1.8202    1.3422   -0.6032 C   0  0  0  0  0  0  0  0  0  0  0  0
    1.0828    0.1609   -0.3996 C   0  0  0  0  0  0  0  0  0  0  0  0
   -0.7852   -1.9417    5.9209 H   0  0  0  0  0  0  0  0  0  0  0  0
    0.2937   -0.8207    5.0767 H   0  0  0  0  0  0  0  0  0  0  0  0
    0.4281   -2.5683    4.7936 H   0  0  0  0  0  0  0  0  0  0  0  0
   -2.0092   -0.8493    4.0821 H   0  0  0  0  0  0  0  0  0  0  0  0
   -1.8567   -2.5834    3.7866 H   0  0  0  0  0  0  0  0  0  0  0  0
   -0.0587   -0.4468    2.5234 H   0  0  0  0  0  0  0  0  0  0  0  0
    0.0103   -2.1847    2.2007 H   0  0  0  0  0  0  0  0  0  0  0  0
   -2.3490   -0.3204    1.5508 H   0  0  0  0  0  0  0  0  0  0  0  0
   -2.3743   -2.0692    1.3444 H   0  0  0  0  0  0  0  0  0  0  0  0
   -0.4775   -1.9369   -0.2611 H   0  0  0  0  0  0  0  0  0  0  0  0
   -2.5989   -1.9715   -0.9252 H   0  0  0  0  0  0  0  0  0  0  0  0
   -1.9963    1.5125   -0.2858 H   0  0  0  0  0  0  0  0  0  0  0  0
   -0.7296    3.5301   -0.6729 H   0  0  0  0  0  0  0  0  0  0  0  0
    1.6900    3.4326   -0.8703 H   0  0  0  0  0  0  0  0  0  0  0  0
    2.8390    1.3018   -0.6823 H   0  0  0  0  0  0  0  0  0  0  0  0
    1.5851   -0.7271   -0.3314 H   0  0  0  0  0  0  0  0  0  0  0  0
  1  2  1  0  0  0  0 
  2  3  1  0  0  0  0 
  3  4  1  0  0  0  0 
  5  4  1  0  0  0  0 
  5  6  1  0  0  0  0 
  5  7  1  0  0  0  0 
  7  8  2  0  0  0  0 
  8  9  1  0  0  0  0 
  9 10  2  0  0  0  0 
 10 11  1  0  0  0  0 
 11 12  2  0  0  0  0 
  7 12  1  0  0  0  0 
  1 13  1  0  0  0  0 
  1 14  1  0  0  0  0 
  1 15  1  0  0  0  0 
  2 16  1  0  0  0  0 
  2 17  1  0  0  0  0 
  3 18  1  0  0  0  0 
  3 19  1  0  0  0  0 
  4 20  1  0  0  0  0 
  4 21  1  0  0  0  0 
  5 22  1  0  0  0  0 
  6 23  1  0  0  0  0 
  8 24  1  0  0  0  0 
  9 25  1  0  0  0  0 
 10 26  1  0  0  0  0 
 11 27  1  0  0  0  0 
 12 28  1  0  0  0  0 
M  END
> <cdk:Title>
fenipentol

> <Conformer>
1

> <SuperDrugID>
SD001028

$$$$
