estradiol valerate
  CDK     0628171801

 58 61  0  0  0  0  0  0  0  0999 V2000
   -5.5244   -0.0872    6.3449 C   0  0  0  0  0  0  0  0  0  0  0  0
   -4.9033    1.2921    5.8982 C   0  0  1  0  0  0  0  0  0  0  0  0
   -3.3489    1.3987    6.0018 C   0  0  2  0  0  0  0  0  0  0  0  0
   -5.2921    1.5830    4.4137 C   0  0  2  0  0  0  0  0  0  0  0  0
   -5.3015    2.4086    6.9133 C   0  0  1  0  0  0  0  0  0  0  0  0
   -2.6084    0.3435    5.1154 C   0  0  1  0  0  0  0  0  0  0  0  0
   -3.0889    1.4627    7.5261 C   0  0  1  0  0  0  0  0  0  0  0  0
   -4.5805    0.6136    3.4216 C   0  0  2  0  0  0  0  0  0  0  0  0
   -6.7040    2.3980    7.2287 O   0  0  0  0  0  0  0  0  0  0  0  0
   -4.3334    2.1899    8.1095 C   0  0  2  0  0  0  0  0  0  0  0  0
   -3.0206    0.5193    3.6037 C   0  0  2  0  0  0  0  0  0  0  0  0
   -1.0613    0.4660    5.2122 C   0  0  1  0  0  0  0  0  0  0  0  0
   -2.3017   -0.4713    2.7206 C   0  0  0  0  0  0  0  0  0  0  0  0
   -0.3639   -0.6440    4.3878 C   0  0  2  0  0  0  0  0  0  0  0  0
   -1.0168   -0.9781    3.0892 C   0  0  0  0  0  0  0  0  0  0  0  0
   -2.8477   -0.8882    1.4783 C   0  0  0  0  0  0  0  0  0  0  0  0
   -0.3342   -1.8660    2.2215 C   0  0  0  0  0  0  0  0  0  0  0  0
   -2.1704   -1.7861    0.6382 C   0  0  0  0  0  0  0  0  0  0  0  0
   -0.9088   -2.2753    1.0059 C   0  0  0  0  0  0  0  0  0  0  0  0
   -0.2456   -3.1396    0.1976 O   0  0  0  0  0  0  0  0  0  0  0  0
   -2.8788   -0.6618    5.4550 H   0  0  0  0  0  0  0  0  0  0  0  0
   -2.6401    1.4918    3.2754 H   0  0  0  0  0  0  0  0  0  0  0  0
   -3.0285    2.3777    5.6118 H   0  0  0  0  0  0  0  0  0  0  0  0
   -7.3775    3.2353    8.0720 C   0  0  0  0  0  0  0  0  0  0  0  0
   -6.7664    4.0899    8.7559 O   0  0  0  0  0  0  0  0  0  0  0  0
   -8.8505    3.1530    8.1510 C   0  0  2  0  0  0  0  0  0  0  0  0
   -9.3804    1.7511    8.5541 C   0  0  2  0  0  0  0  0  0  0  0  0
  -10.9327    1.7141    8.6027 C   0  0  2  0  0  0  0  0  0  0  0  0
  -11.5047    0.3216    8.9557 C   0  0  0  0  0  0  0  0  0  0  0  0
   -5.3255   -0.3090    7.3940 H   0  0  0  0  0  0  0  0  0  0  0  0
   -6.6082   -0.0722    6.2103 H   0  0  0  0  0  0  0  0  0  0  0  0
   -5.1377   -0.9204    5.7621 H   0  0  0  0  0  0  0  0  0  0  0  0
   -5.0196    2.6096    4.1491 H   0  0  0  0  0  0  0  0  0  0  0  0
   -6.3747    1.4971    4.2857 H   0  0  0  0  0  0  0  0  0  0  0  0
   -5.0827    3.3943    6.4797 H   0  0  0  0  0  0  0  0  0  0  0  0
   -2.9957    0.4537    7.9388 H   0  0  0  0  0  0  0  0  0  0  0  0
   -2.1737    2.0202    7.7476 H   0  0  0  0  0  0  0  0  0  0  0  0
   -4.8090    0.9819    2.4181 H   0  0  0  0  0  0  0  0  0  0  0  0
   -5.0178   -0.3836    3.5063 H   0  0  0  0  0  0  0  0  0  0  0  0
   -4.8023    1.5755    8.8841 H   0  0  0  0  0  0  0  0  0  0  0  0
   -4.0555    3.1505    8.5520 H   0  0  0  0  0  0  0  0  0  0  0  0
   -0.7418    1.4436    4.8368 H   0  0  0  0  0  0  0  0  0  0  0  0
   -0.7380    0.3885    6.2526 H   0  0  0  0  0  0  0  0  0  0  0  0
   -0.3481   -1.5576    4.9881 H   0  0  0  0  0  0  0  0  0  0  0  0
    0.6748   -0.3404    4.2195 H   0  0  0  0  0  0  0  0  0  0  0  0
   -3.7508   -0.5440    1.1565 H   0  0  0  0  0  0  0  0  0  0  0  0
    0.5896   -2.2269    2.4752 H   0  0  0  0  0  0  0  0  0  0  0  0
   -2.5960   -2.0819   -0.2444 H   0  0  0  0  0  0  0  0  0  0  0  0
   -0.7898   -3.2071   -0.6156 H   0  0  0  0  0  0  0  0  0  0  0  0
   -9.2466    3.4196    7.1673 H   0  0  0  0  0  0  0  0  0  0  0  0
   -9.2215    3.8919    8.8674 H   0  0  0  0  0  0  0  0  0  0  0  0
   -8.9850    1.4854    9.5384 H   0  0  0  0  0  0  0  0  0  0  0  0
   -9.0285    1.0098    7.8310 H   0  0  0  0  0  0  0  0  0  0  0  0
  -11.3307    2.0101    7.6285 H   0  0  0  0  0  0  0  0  0  0  0  0
  -11.2878    2.4328    9.3467 H   0  0  0  0  0  0  0  0  0  0  0  0
  -12.5955    0.3677    9.0050 H   0  0  0  0  0  0  0  0  0  0  0  0
  -11.1289   -0.0120    9.9252 H   0  0  0  0  0  0  0  0  0  0  0  0
  -11.2236   -0.4086    8.1939 H   0  0  0  0  0  0  0  0  0  0  0  0
  2  1  1  0  0  0  0 
  3  2  1  0  0  0  0 
  2  4  1  0  0  0  0 
  2  5  1  0  0  0  0 
  6  3  1  0  0  0  0 
  3  7  1  0  0  0  0 
  3 23  1  0  0  0  0 
  4  8  1  0  0  0  0 
  5  9  1  0  0  0  0 
  5 10  1  0  0  0  0 
 11  6  1  0  0  0  0 
  6 12  1  0  0  0  0 
  6 21  1  0  0  0  0 
  7 10  1  0  0  0  0 
 11  8  1  0  0  0  0 
 11 13  1  0  0  0  0 
 11 22  1  0  0  0  0 
 12 14  1  0  0  0  0 
 13 15  2  0  0  0  0 
 13 16  1  0  0  0  0 
 14 15  1  0  0  0  0 
 15 17  1  0  0  0  0 
 16 18  2  0  0  0  0 
 17 19  2  0  0  0  0 
 18 19  1  0  0  0  0 
 19 20  1  0  0  0  0 
  9 24  1  0  0  0  0 
 24 25  2  0  0  0  0 
 24 26  1  0  0  0  0 
 26 27  1  0  0  0  0 
 27 28  1  0  0  0  0 
 28 29  1  0  0  0  0 
  1 30  1  0  0  0  0 
  1 31  1  0  0  0  0 
  1 32  1  0  0  0  0 
  4 33  1  0  0  0  0 
  4 34  1  0  0  0  0 
  5 35  1  0  0  0  0 
  7 36  1  0  0  0  0 
  7 37  1  0  0  0  0 
  8 38  1  0  0  0  0 
  8 39  1  0  0  0  0 
 10 40  1  0  0  0  0 
 10 41  1  0  0  0  0 
 12 42  1  0  0  0  0 
 12 43  1  0  0  0  0 
 14 44  1  0  0  0  0 
 14 45  1  0  0  0  0 
 16 46  1  0  0  0  0 
 17 47  1  0  0  0  0 
 18 48  1  0  0  0  0 
 20 49  1  0  0  0  0 
 26 50  1  0  0  0  0 
 26 51  1  0  0  0  0 
 27 52  1  0  0  0  0 
 27 53  1  0  0  0  0 
 28 54  1  0  0  0  0 
 28 55  1  0  0  0  0 
 29 56  1  0  0  0  0 
 29 57  1  0  0  0  0 
 29 58  1  0  0  0  0 
M  END
> <cdk:Title>
estradiol valerate

> <Conformer>
1

> <SuperDrugID>
SD000949

$$$$
