dantron
  CDK     0628171801

 26 28  0  0  0  0  0  0  0  0999 V2000
    3.1578    1.8168    0.8393 O   0  0  0  0  0  0  0  0  0  0  0  0
    2.4302    1.4728    1.8019 C   0  0  0  0  0  0  0  0  0  0  0  0
    2.8088    1.8409    3.1367 C   0  0  0  0  0  0  0  0  0  0  0  0
    1.2330    0.7223    1.5443 C   0  0  0  0  0  0  0  0  0  0  0  0
    1.9712    1.4486    4.2229 C   0  0  0  0  0  0  0  0  0  0  0  0
    3.9918    2.5827    3.4221 C   0  0  0  0  0  0  0  0  0  0  0  0
    0.4122    0.3379    2.6470 C   0  0  0  0  0  0  0  0  0  0  0  0
    0.8361    0.3336    0.2313 C   0  0  0  0  0  0  0  0  0  0  0  0
    0.7811    0.7013    3.9760 C   0  0  0  0  0  0  0  0  0  0  0  0
    2.3317    1.8051    5.5465 C   0  0  0  0  0  0  0  0  0  0  0  0
    4.8680    2.9888    2.4670 O   0  0  0  0  0  0  0  0  0  0  0  0
    4.3230    2.9316    4.7426 C   0  0  0  0  0  0  0  0  0  0  0  0
   -0.7685   -0.4132    2.4134 C   0  0  0  0  0  0  0  0  0  0  0  0
    1.5711    0.6301   -0.8751 O   0  0  0  0  0  0  0  0  0  0  0  0
   -0.3483   -0.3996    0.0256 C   0  0  0  0  0  0  0  0  0  0  0  0
    0.0532    0.3535    4.9405 O   0  0  0  0  0  0  0  0  0  0  0  0
    3.4966    2.5416    5.8036 C   0  0  0  0  0  0  0  0  0  0  0  0
   -1.1446   -0.7786    1.1135 C   0  0  0  0  0  0  0  0  0  0  0  0
    1.7516    1.5338    6.3441 H   0  0  0  0  0  0  0  0  0  0  0  0
    5.2431    2.1595    2.1020 H   0  0  0  0  0  0  0  0  0  0  0  0
    5.1731    3.4668    4.9370 H   0  0  0  0  0  0  0  0  0  0  0  0
   -1.3740   -0.7070    3.1855 H   0  0  0  0  0  0  0  0  0  0  0  0
    1.3670   -0.0756   -1.5258 H   0  0  0  0  0  0  0  0  0  0  0  0
   -0.6326   -0.6644   -0.9201 H   0  0  0  0  0  0  0  0  0  0  0  0
    3.7423    2.7942    6.7633 H   0  0  0  0  0  0  0  0  0  0  0  0
   -1.9976   -1.3204    0.9587 H   0  0  0  0  0  0  0  0  0  0  0  0
  1  2  2  0  0  0  0 
  2  3  1  0  0  0  0 
  2  4  1  0  0  0  0 
  3  5  2  0  0  0  0 
  3  6  1  0  0  0  0 
  4  7  2  0  0  0  0 
  4  8  1  0  0  0  0 
  5  9  1  0  0  0  0 
  5 10  1  0  0  0  0 
  6 11  1  0  0  0  0 
  6 12  2  0  0  0  0 
  7  9  1  0  0  0  0 
  7 13  1  0  0  0  0 
  8 14  1  0  0  0  0 
  8 15  2  0  0  0  0 
  9 16  2  0  0  0  0 
 10 17  2  0  0  0  0 
 12 17  1  0  0  0  0 
 13 18  2  0  0  0  0 
 15 18  1  0  0  0  0 
 10 19  1  0  0  0  0 
 11 20  1  0  0  0  0 
 12 21  1  0  0  0  0 
 13 22  1  0  0  0  0 
 14 23  1  0  0  0  0 
 15 24  1  0  0  0  0 
 17 25  1  0  0  0  0 
 18 26  1  0  0  0  0 
M  END
> <cdk:Title>
dantron

> <Conformer>
1

> <SuperDrugID>
SD002709

$$$$
