norethindrone acetate
  CDK     0628171801

 53 56  0  0  0  0  0  0  0  0999 V2000
   -6.3321    0.2812   -7.0326 O   0  0  0  0  0  0  0  0  0  0  0  0
   -6.8730    0.2848   -8.2904 C   0  0  0  0  0  0  0  0  0  0  0  0
   -5.0367    0.7342   -6.5803 C   0  0  2  0  0  0  0  0  0  0  0  0
   -8.2051   -0.2954   -8.4885 C   0  0  0  0  0  0  0  0  0  0  0  0
   -6.2680    0.7749   -9.2728 O   0  0  0  0  0  0  0  0  0  0  0  0
   -4.1024   -0.0679   -7.2253 C   0  0  0  0  0  0  0  0  0  0  0  0
   -4.9428    0.6909   -5.0004 C   0  0  2  0  0  0  0  0  0  0  0  0
   -4.7560    2.2479   -6.8852 C   0  0  2  0  0  0  0  0  0  0  0  0
   -3.3043   -0.7530   -7.7901 C   0  0  0  0  0  0  0  0  0  0  0  0
   -6.2894    1.2411   -4.3733 C   0  0  0  0  0  0  0  0  0  0  0  0
   -3.6949    1.6096   -4.7692 C   0  0  1  0  0  0  0  0  0  0  0  0
   -4.6472   -0.6980   -4.3281 C   0  0  2  0  0  0  0  0  0  0  0  0
   -3.9623    2.8287   -5.6802 C   0  0  1  0  0  0  0  0  0  0  0  0
   -3.3302    1.8181   -3.2623 C   0  0  1  0  0  0  0  0  0  0  0  0
   -4.2197   -0.5779   -2.8316 C   0  0  2  0  0  0  0  0  0  0  0  0
   -3.0340    0.4213   -2.5976 C   0  0  2  0  0  0  0  0  0  0  0  0
   -2.1016    2.7547   -3.0661 C   0  0  1  0  0  0  0  0  0  0  0  0
   -2.6273    0.5693   -1.0798 C   0  0  2  0  0  0  0  0  0  0  0  0
   -1.7447    2.8896   -1.5638 C   0  0  2  0  0  0  0  0  0  0  0  0
   -1.5621    1.5909   -0.9007 C   0  0  0  0  0  0  0  0  0  0  0  0
   -2.2549   -0.8248   -0.4572 C   0  0  1  0  0  0  0  0  0  0  0  0
   -0.4768    1.3750   -0.1241 C   0  0  0  0  0  0  0  0  0  0  0  0
   -1.4369   -0.7009    0.8478 C   0  0  1  0  0  0  0  0  0  0  0  0
   -0.3064    0.2265    0.6314 C   0  0  0  0  0  0  0  0  0  0  0  0
    0.8011   -0.0169    1.1645 O   0  0  0  0  0  0  0  0  0  0  0  0
   -8.1632   -1.0646   -9.2602 H   0  0  0  0  0  0  0  0  0  0  0  0
   -8.5724   -0.7452   -7.5627 H   0  0  0  0  0  0  0  0  0  0  0  0
   -8.8927    0.4913   -8.8015 H   0  0  0  0  0  0  0  0  0  0  0  0
   -5.6995    2.7910   -6.9839 H   0  0  0  0  0  0  0  0  0  0  0  0
   -4.2033    2.4033   -7.8187 H   0  0  0  0  0  0  0  0  0  0  0  0
   -2.6913   -1.2813   -8.2304 H   0  0  0  0  0  0  0  0  0  0  0  0
   -6.2335    1.3629   -3.2935 H   0  0  0  0  0  0  0  0  0  0  0  0
   -7.1123    0.5497   -4.5731 H   0  0  0  0  0  0  0  0  0  0  0  0
   -6.5717    2.2102   -4.7825 H   0  0  0  0  0  0  0  0  0  0  0  0
   -2.8102    1.1223   -5.2035 H   0  0  0  0  0  0  0  0  0  0  0  0
   -3.8396   -1.2102   -4.8562 H   0  0  0  0  0  0  0  0  0  0  0  0
   -5.5289   -1.3423   -4.3968 H   0  0  0  0  0  0  0  0  0  0  0  0
   -3.0267    3.2870   -6.0122 H   0  0  0  0  0  0  0  0  0  0  0  0
   -4.5518    3.5841   -5.1538 H   0  0  0  0  0  0  0  0  0  0  0  0
   -4.1769    2.2875   -2.7550 H   0  0  0  0  0  0  0  0  0  0  0  0
   -3.9304   -1.5782   -2.5038 H   0  0  0  0  0  0  0  0  0  0  0  0
   -5.0724   -0.2830   -2.2161 H   0  0  0  0  0  0  0  0  0  0  0  0
   -2.1666   -0.0066   -3.1157 H   0  0  0  0  0  0  0  0  0  0  0  0
   -1.2364    2.3675   -3.6147 H   0  0  0  0  0  0  0  0  0  0  0  0
   -2.3282    3.7506   -3.4584 H   0  0  0  0  0  0  0  0  0  0  0  0
   -3.5002    0.9419   -0.5334 H   0  0  0  0  0  0  0  0  0  0  0  0
   -2.5631    3.4092   -1.0565 H   0  0  0  0  0  0  0  0  0  0  0  0
   -0.8627    3.5341   -1.4823 H   0  0  0  0  0  0  0  0  0  0  0  0
   -3.1628   -1.3946   -0.2401 H   0  0  0  0  0  0  0  0  0  0  0  0
   -1.6553   -1.4017   -1.1686 H   0  0  0  0  0  0  0  0  0  0  0  0
    0.2343    2.0689   -0.0660 H   0  0  0  0  0  0  0  0  0  0  0  0
   -2.0721   -0.3077    1.6461 H   0  0  0  0  0  0  0  0  0  0  0  0
   -1.0797   -1.6886    1.1550 H   0  0  0  0  0  0  0  0  0  0  0  0
  1  2  1  0  0  0  0 
  3  1  1  0  0  0  0 
  2  4  1  0  0  0  0 
  2  5  2  0  0  0  0 
  3  6  1  0  0  0  0 
  7  3  1  0  0  0  0 
  3  8  1  0  0  0  0 
  6  9  3  0  0  0  0 
  7 10  1  0  0  0  0 
  7 11  1  0  0  0  0 
  7 12  1  0  0  0  0 
  8 13  1  0  0  0  0 
 11 13  1  0  0  0  0 
 11 14  1  0  0  0  0 
 12 15  1  0  0  0  0 
 14 16  1  0  0  0  0 
 14 17  1  0  0  0  0 
 16 15  1  0  0  0  0 
 16 18  1  0  0  0  0 
 17 19  1  0  0  0  0 
 18 20  1  0  0  0  0 
 18 21  1  0  0  0  0 
 19 20  1  0  0  0  0 
 20 22  2  0  0  0  0 
 21 23  1  0  0  0  0 
 22 24  1  0  0  0  0 
 23 24  1  0  0  0  0 
 24 25  2  0  0  0  0 
 26  4  1  0  0  0  0 
 27  4  1  0  0  0  0 
 28  4  1  0  0  0  0 
 29  8  1  0  0  0  0 
 30  8  1  0  0  0  0 
 31  9  1  0  0  0  0 
 32 10  1  0  0  0  0 
 33 10  1  0  0  0  0 
 34 10  1  0  0  0  0 
 11 35  1  0  0  0  0 
 36 12  1  0  0  0  0 
 37 12  1  0  0  0  0 
 38 13  1  0  0  0  0 
 39 13  1  0  0  0  0 
 14 40  1  0  0  0  0 
 41 15  1  0  0  0  0 
 42 15  1  0  0  0  0 
 16 43  1  0  0  0  0 
 44 17  1  0  0  0  0 
 45 17  1  0  0  0  0 
 18 46  1  0  0  0  0 
 47 19  1  0  0  0  0 
 48 19  1  0  0  0  0 
 49 21  1  0  0  0  0 
 50 21  1  0  0  0  0 
 51 22  1  0  0  0  0 
 52 23  1  0  0  0  0 
 53 23  1  0  0  0  0 
M  END
> <cdk:Title>
norethindrone acetate

> <Conformer>
1

> <SuperDrugID>
SD001755

$$$$
