canfosfamide
  CDK     0628171801

 87 87  0  0  0  0  0  0  0  0999 V2000
   -1.2995    0.8456    1.2108 P   0  0  2  0  0  0  0  0  0  0  0  0
   -1.6470    2.4642    1.0088 N   0  0  1  0  0  0  0  0  0  0  0  0
   -1.4840    0.1078   -0.2806 N   0  0  2  0  0  0  0  0  0  0  0  0
   -2.3532    0.2459    2.2641 O   0  0  0  0  0  0  0  0  0  0  0  0
    0.0772    0.5983    1.6554 O   0  0  0  0  0  0  0  0  0  0  0  0
   -3.0891    2.7135    0.6473 C   0  0  2  0  0  0  0  0  0  0  0  0
   -1.0672    3.4985    1.9378 C   0  0  2  0  0  0  0  0  0  0  0  0
   -1.3013   -1.3876   -0.2838 C   0  0  2  0  0  0  0  0  0  0  0  0
   -0.6505    0.7836   -1.3494 C   0  0  1  0  0  0  0  0  0  0  0  0
   -2.0868    0.5134    3.6613 C   0  0  1  0  0  0  0  0  0  0  0  0
   -3.3108    4.0521   -0.1035 C   0  0  1  0  0  0  0  0  0  0  0  0
    0.4167    3.3611    2.3597 C   0  0  1  0  0  0  0  0  0  0  0  0
   -2.3575   -2.1929    0.5144 C   0  0  1  0  0  0  0  0  0  0  0  0
   -1.1346    0.5101   -2.7990 C   0  0  1  0  0  0  0  0  0  0  0  0
   -3.2579    0.0239    4.5415 C   0  0  1  0  0  0  0  0  0  0  0  0
   -4.9092    4.1585   -0.8358 Cl  0  0  0  0  0  0  0  0  0  0  0  0
    1.0132    4.8337    3.1163 Cl  0  0  0  0  0  0  0  0  0  0  0  0
   -2.3483   -3.9022    0.0895 Cl  0  0  0  0  0  0  0  0  0  0  0  0
   -0.4283    1.6425   -3.9501 Cl  0  0  0  0  0  0  0  0  0  0  0  0
   -3.1021    0.6001    6.2804 S   0  0  2  0  0  0  0  0  0  0  0  0
   -4.1684   -0.4226    7.3667 C   0  0  1  0  0  0  0  0  0  0  0  0
   -3.5618    2.1328    6.3681 O   0  0  0  0  0  0  0  0  0  0  0  0
   -1.5802    0.4731    6.7716 O   0  0  0  0  0  0  0  0  0  0  0  0
   -3.9983   -0.0991    8.8771 C   0  0  1  0  0  0  0  0  0  0  0  0
   -4.4617    1.2563    9.2597 C   0  0  0  0  0  0  0  0  0  0  0  0
   -4.7848   -1.0137    9.6448 N   0  0  0  0  0  0  0  0  0  0  0  0
   -5.7940    1.5523    9.1954 N   0  0  0  0  0  0  0  0  0  0  0  0
   -3.6325    2.0827    9.7100 O   0  0  0  0  0  0  0  0  0  0  0  0
   -4.3833   -2.1781   10.2098 C   0  0  0  0  0  0  0  0  0  0  0  0
   -6.4314    2.6817    9.8001 C   0  0  1  0  0  0  0  0  0  0  0  0
   -5.4012   -2.9952   10.9008 C   0  0  1  0  0  0  0  0  0  0  0  0
   -3.1969   -2.5754   10.1403 O   0  0  0  0  0  0  0  0  0  0  0  0
   -7.5058    3.1914    8.9125 C   0  0  0  0  0  0  0  0  0  0  0  0
   -6.8868    2.2288   11.1554 C   0  0  0  0  0  0  0  0  0  0  0  0
   -6.6170   -3.3053    9.9782 C   0  0  2  0  0  0  0  0  0  0  0  0
   -8.7961    3.3063    9.3111 O   0  0  0  0  0  0  0  0  0  0  0  0
   -7.2293    3.5556    7.7464 O   0  0  0  0  0  0  0  0  0  0  0  0
   -6.3241    2.7774   12.3356 C   0  0  0  0  0  0  0  0  0  0  0  0
   -7.8581    1.2048   11.2962 C   0  0  0  0  0  0  0  0  0  0  0  0
   -7.6807   -4.2387   10.6234 C   0  0  1  0  0  0  0  0  0  0  0  0
   -6.7349    2.3363   13.6087 C   0  0  0  0  0  0  0  0  0  0  0  0
   -8.2844    0.7763   12.5670 C   0  0  0  0  0  0  0  0  0  0  0  0
   -8.9183   -4.3874    9.8208 C   0  0  0  0  0  0  0  0  0  0  0  0
   -7.1060   -5.5732   10.8461 N   0  0  1  0  0  0  0  0  0  0  0  0
   -7.7241    1.3461   13.7230 C   0  0  0  0  0  0  0  0  0  0  0  0
   -9.0653   -3.8208    8.5969 O   0  0  0  0  0  0  0  0  0  0  0  0
   -9.8816   -5.0453   10.2766 O   0  0  0  0  0  0  0  0  0  0  0  0
   -3.6999    2.7043    1.5556 H   0  0  0  0  0  0  0  0  0  0  0  0
   -3.4725    1.9215   -0.0054 H   0  0  0  0  0  0  0  0  0  0  0  0
   -1.6881    3.6030    2.8323 H   0  0  0  0  0  0  0  0  0  0  0  0
   -1.1092    4.4512    1.4083 H   0  0  0  0  0  0  0  0  0  0  0  0
   -0.2970   -1.6495    0.0650 H   0  0  0  0  0  0  0  0  0  0  0  0
   -1.3809   -1.7480   -1.3106 H   0  0  0  0  0  0  0  0  0  0  0  0
   -0.6787    1.8718   -1.2361 H   0  0  0  0  0  0  0  0  0  0  0  0
    0.4002    0.4813   -1.2651 H   0  0  0  0  0  0  0  0  0  0  0  0
   -1.1775   -0.0056    3.9805 H   0  0  0  0  0  0  0  0  0  0  0  0
   -1.9629    1.5797    3.8455 H   0  0  0  0  0  0  0  0  0  0  0  0
   -3.2168    4.8881    0.5923 H   0  0  0  0  0  0  0  0  0  0  0  0
   -2.5605    4.1552   -0.8913 H   0  0  0  0  0  0  0  0  0  0  0  0
    0.5335    2.5618    3.0909 H   0  0  0  0  0  0  0  0  0  0  0  0
    1.0403    3.1543    1.4878 H   0  0  0  0  0  0  0  0  0  0  0  0
   -2.1450   -2.1339    1.5810 H   0  0  0  0  0  0  0  0  0  0  0  0
   -3.3555   -1.7954    0.3158 H   0  0  0  0  0  0  0  0  0  0  0  0
   -0.8499   -0.4911   -3.1267 H   0  0  0  0  0  0  0  0  0  0  0  0
   -2.2209    0.6017   -2.8502 H   0  0  0  0  0  0  0  0  0  0  0  0
   -4.2002    0.4046    4.1424 H   0  0  0  0  0  0  0  0  0  0  0  0
   -3.2938   -1.0669    4.5306 H   0  0  0  0  0  0  0  0  0  0  0  0
   -5.2081   -0.2948    7.0574 H   0  0  0  0  0  0  0  0  0  0  0  0
   -3.8879   -1.4647    7.1940 H   0  0  0  0  0  0  0  0  0  0  0  0
   -2.9400   -0.2067    9.1375 H   0  0  0  0  0  0  0  0  0  0  0  0
   -5.7221   -0.7901    9.7536 H   0  0  0  0  0  0  0  0  0  0  0  0
   -6.3736    0.8919    8.7821 H   0  0  0  0  0  0  0  0  0  0  0  0
   -5.7154    3.5046    9.8960 H   0  0  0  0  0  0  0  0  0  0  0  0
   -4.9442   -3.9254   11.2465 H   0  0  0  0  0  0  0  0  0  0  0  0
   -5.7427   -2.4431   11.7796 H   0  0  0  0  0  0  0  0  0  0  0  0
   -6.2595   -3.7579    9.0471 H   0  0  0  0  0  0  0  0  0  0  0  0
   -7.1067   -2.3595    9.7233 H   0  0  0  0  0  0  0  0  0  0  0  0
   -9.4739    3.6482    8.6912 H   0  0  0  0  0  0  0  0  0  0  0  0
   -5.6014    3.4979   12.2795 H   0  0  0  0  0  0  0  0  0  0  0  0
   -8.2638    0.7600   10.4693 H   0  0  0  0  0  0  0  0  0  0  0  0
   -7.9674   -3.8222   11.5929 H   0  0  0  0  0  0  0  0  0  0  0  0
   -6.3129    2.7343   14.4519 H   0  0  0  0  0  0  0  0  0  0  0  0
   -8.9985    0.0493   12.6490 H   0  0  0  0  0  0  0  0  0  0  0  0
   -6.7614   -5.9023    9.9411 H   0  0  0  0  0  0  0  0  0  0  0  0
   -6.2873   -5.4485   11.4449 H   0  0  0  0  0  0  0  0  0  0  0  0
   -8.0333    1.0394   14.6476 H   0  0  0  0  0  0  0  0  0  0  0  0
   -9.9026   -3.9272    8.0975 H   0  0  0  0  0  0  0  0  0  0  0  0
  1  2  1  0  0  0  0 
  1  3  1  0  0  0  0 
  1  4  1  0  0  0  0 
  1  5  2  0  0  0  0 
  2  6  1  0  0  0  0 
  2  7  1  0  0  0  0 
  3  8  1  0  0  0  0 
  3  9  1  0  0  0  0 
  4 10  1  0  0  0  0 
  6 11  1  0  0  0  0 
  7 12  1  0  0  0  0 
  8 13  1  0  0  0  0 
  9 14  1  0  0  0  0 
 10 15  1  0  0  0  0 
 11 16  1  0  0  0  0 
 12 17  1  0  0  0  0 
 13 18  1  0  0  0  0 
 14 19  1  0  0  0  0 
 15 20  1  0  0  0  0 
 20 21  1  0  0  0  0 
 20 22  2  0  0  0  0 
 20 23  2  0  0  0  0 
 24 21  1  0  0  0  0 
 24 25  1  0  0  0  0 
 24 26  1  0  0  0  0 
 25 27  1  0  0  0  0 
 25 28  2  0  0  0  0 
 26 29  1  0  0  0  0 
 29 31  1  0  0  0  0 
 29 32  2  0  0  0  0 
 30 27  1  0  0  0  0 
 30 33  1  0  0  0  0 
 30 34  1  0  0  0  0 
 31 35  1  0  0  0  0 
 33 36  1  0  0  0  0 
 33 37  2  0  0  0  0 
 34 38  2  0  0  0  0 
 34 39  1  0  0  0  0 
 40 35  1  0  0  0  0 
 38 41  1  0  0  0  0 
 39 42  2  0  0  0  0 
 40 43  1  0  0  0  0 
 40 44  1  0  0  0  0 
 41 45  2  0  0  0  0 
 42 45  1  0  0  0  0 
 43 46  1  0  0  0  0 
 43 47  2  0  0  0  0 
  6 48  1  0  0  0  0 
  6 49  1  0  0  0  0 
  7 50  1  0  0  0  0 
  7 51  1  0  0  0  0 
  8 52  1  0  0  0  0 
  8 53  1  0  0  0  0 
  9 54  1  0  0  0  0 
  9 55  1  0  0  0  0 
 10 56  1  0  0  0  0 
 10 57  1  0  0  0  0 
 11 58  1  0  0  0  0 
 11 59  1  0  0  0  0 
 12 60  1  0  0  0  0 
 12 61  1  0  0  0  0 
 13 62  1  0  0  0  0 
 13 63  1  0  0  0  0 
 14 64  1  0  0  0  0 
 14 65  1  0  0  0  0 
 15 66  1  0  0  0  0 
 15 67  1  0  0  0  0 
 21 68  1  0  0  0  0 
 21 69  1  0  0  0  0 
 24 70  1  0  0  0  0 
 26 71  1  0  0  0  0 
 27 72  1  0  0  0  0 
 30 73  1  0  0  0  0 
 31 74  1  0  0  0  0 
 31 75  1  0  0  0  0 
 35 76  1  0  0  0  0 
 35 77  1  0  0  0  0 
 36 78  1  0  0  0  0 
 38 79  1  0  0  0  0 
 39 80  1  0  0  0  0 
 40 81  1  0  0  0  0 
 41 82  1  0  0  0  0 
 42 83  1  0  0  0  0 
 44 84  1  0  0  0  0 
 44 85  1  0  0  0  0 
 45 86  1  0  0  0  0 
 46 87  1  0  0  0  0 
M  END
> <cdk:Title>
canfosfamide

> <Conformer>
1

> <SuperDrugID>
SD002659

$$$$
