meproscillarin
  CDK     0628171801

 83 88  0  0  0  0  0  0  0  0999 V2000
   28.3018   11.0276   40.7921 O   0  0  0  0  0  0  0  0  0  0  0  0
   28.8468    9.8015   41.3021 C   0  0  1  0  0  0  0  0  0  0  0  0
   28.4378    8.6761   40.2705 C   0  0  1  0  0  0  0  0  0  0  0  0
   30.3943    9.9709   41.5147 C   0  0  1  0  0  0  0  0  0  0  0  0
   28.2788    9.6286   42.7441 C   0  0  2  0  0  0  0  0  0  0  0  0
   29.1148    7.2645   40.5048 C   0  0  1  0  0  0  0  0  0  0  0  0
   26.8887    8.5382   40.1247 C   0  0  1  0  0  0  0  0  0  0  0  0
   31.1140   10.6996   40.3230 C   0  0  0  0  0  0  0  0  0  0  0  0
   30.4840   10.7795   42.8734 C   0  0  2  0  0  0  0  0  0  0  0  0
   31.0521    8.5427   41.6891 C   0  0  2  0  0  0  0  0  0  0  0  0
   29.3211   10.2036   43.7337 C   0  0  1  0  0  0  0  0  0  0  0  0
   28.6342    6.1419   39.4620 C   0  0  2  0  0  0  0  0  0  0  0  0
   30.6631    7.4974   40.6074 C   0  0  1  0  0  0  0  0  0  0  0  0
   26.4988    7.4752   39.0720 C   0  0  2  0  0  0  0  0  0  0  0  0
   30.4874   12.2919   42.7923 C   0  0  0  0  0  0  0  0  0  0  0  0
   29.2212    6.4203   38.0264 C   0  0  0  0  0  0  0  0  0  0  0  0
   27.1343    6.1976   39.4261 C   0  0  0  0  0  0  0  0  0  0  0  0
   29.1424    4.6778   39.8275 C   0  0  1  0  0  0  0  0  0  0  0  0
   31.7143   13.0007   42.7514 C   0  0  0  0  0  0  0  0  0  0  0  0
   29.3123   13.0830   42.7603 C   0  0  0  0  0  0  0  0  0  0  0  0
   26.3317    5.1721   39.7991 C   0  0  0  0  0  0  0  0  0  0  0  0
   28.2231    3.9530   40.8384 C   0  0  2  0  0  0  0  0  0  0  0  0
   31.7668   14.4049   42.6858 C   0  0  0  0  0  0  0  0  0  0  0  0
   29.3816   14.4449   42.7022 O   0  0  0  0  0  0  0  0  0  0  0  0
   26.7798    3.8697   40.2755 C   0  0  2  0  0  0  0  0  0  0  0  0
   30.5619   15.1242   42.6673 C   0  0  0  0  0  0  0  0  0  0  0  0
   26.7127    2.8376   39.2532 O   0  0  0  0  0  0  0  0  0  0  0  0
   30.5525   16.3732   42.6242 O   0  0  0  0  0  0  0  0  0  0  0  0
   25.4312    2.5822   38.6273 C   0  0  1  0  0  0  0  0  0  0  0  0
   25.5620    1.3808   37.6547 C   0  0  2  0  0  0  0  0  0  0  0  0
   24.4207    2.2884   39.6199 O   0  0  0  0  0  0  0  0  0  0  0  0
   26.5479    1.6502   36.6568 O   0  0  0  0  0  0  0  0  0  0  0  0
   24.1881    1.0696   36.9942 C   0  0  2  0  0  0  0  0  0  0  0  0
   23.0864    2.0344   39.1197 C   0  0  2  0  0  0  0  0  0  0  0  0
   23.8437    2.1021   36.0688 O   0  0  0  0  0  0  0  0  0  0  0  0
   23.0616    0.8827   38.0565 C   0  0  2  0  0  0  0  0  0  0  0  0
   22.3571    3.3302   38.6748 C   0  0  0  0  0  0  0  0  0  0  0  0
   23.2582   -0.4269   38.6465 O   0  0  0  0  0  0  0  0  0  0  0  0
   22.1460   -1.0002   39.3628 C   0  0  0  0  0  0  0  0  0  0  0  0
   28.7855    9.0383   39.2988 H   0  0  0  0  0  0  0  0  0  0  0  0
   28.7938    6.9108   41.4903 H   0  0  0  0  0  0  0  0  0  0  0  0
   25.1553    3.4689   38.0488 H   0  0  0  0  0  0  0  0  0  0  0  0
   28.6773   11.1326   39.8942 H   0  0  0  0  0  0  0  0  0  0  0  0
   28.1049    8.5758   42.9785 H   0  0  0  0  0  0  0  0  0  0  0  0
   27.3216   10.1485   42.8511 H   0  0  0  0  0  0  0  0  0  0  0  0
   26.4458    8.2595   41.0855 H   0  0  0  0  0  0  0  0  0  0  0  0
   26.4526    9.4950   39.8238 H   0  0  0  0  0  0  0  0  0  0  0  0
   32.1884   10.7724   40.5110 H   0  0  0  0  0  0  0  0  0  0  0  0
   30.7325   11.7112   40.1760 H   0  0  0  0  0  0  0  0  0  0  0  0
   30.9661   10.1606   39.3872 H   0  0  0  0  0  0  0  0  0  0  0  0
   31.4164   10.5045   43.3821 H   0  0  0  0  0  0  0  0  0  0  0  0
   30.7731    8.1085   42.6533 H   0  0  0  0  0  0  0  0  0  0  0  0
   32.1433    8.6382   41.7040 H   0  0  0  0  0  0  0  0  0  0  0  0
   28.8702   10.9440   44.3988 H   0  0  0  0  0  0  0  0  0  0  0  0
   29.6950    9.3996   44.3750 H   0  0  0  0  0  0  0  0  0  0  0  0
   31.1713    6.5739   40.8776 H   0  0  0  0  0  0  0  0  0  0  0  0
   31.0650    7.8170   39.6458 H   0  0  0  0  0  0  0  0  0  0  0  0
   26.8052    7.7963   38.0756 H   0  0  0  0  0  0  0  0  0  0  0  0
   25.4060    7.4226   39.0435 H   0  0  0  0  0  0  0  0  0  0  0  0
   28.7677    5.7573   37.2848 H   0  0  0  0  0  0  0  0  0  0  0  0
   29.0552    7.4418   37.6901 H   0  0  0  0  0  0  0  0  0  0  0  0
   30.2994    6.2470   38.0049 H   0  0  0  0  0  0  0  0  0  0  0  0
   29.0716    4.0304   38.8897 H   0  0  0  0  0  0  0  0  0  0  0  0
   30.1652    4.7313   40.3130 H   0  0  0  0  0  0  0  0  0  0  0  0
   32.5983   12.4888   42.7657 H   0  0  0  0  0  0  0  0  0  0  0  0
   28.3844   12.6641   42.7884 H   0  0  0  0  0  0  0  0  0  0  0  0
   25.3438    5.2931   39.7735 H   0  0  0  0  0  0  0  0  0  0  0  0
   28.2233    4.4907   41.7904 H   0  0  0  0  0  0  0  0  0  0  0  0
   28.6031    2.9449   41.0272 H   0  0  0  0  0  0  0  0  0  0  0  0
   32.6649   14.8896   42.6552 H   0  0  0  0  0  0  0  0  0  0  0  0
   26.1388    3.5681   41.1112 H   0  0  0  0  0  0  0  0  0  0  0  0
   25.8913    0.5033   38.2206 H   0  0  0  0  0  0  0  0  0  0  0  0
   26.6148    0.8218   36.1349 H   0  0  0  0  0  0  0  0  0  0  0  0
   24.2786    0.1499   36.4089 H   0  0  0  0  0  0  0  0  0  0  0  0
   22.5256    1.6978   39.9907 H   0  0  0  0  0  0  0  0  0  0  0  0
   22.9970    1.8178   35.6629 H   0  0  0  0  0  0  0  0  0  0  0  0
   22.1012    0.8857   37.5280 H   0  0  0  0  0  0  0  0  0  0  0  0
   22.4072    4.0758   39.4701 H   0  0  0  0  0  0  0  0  0  0  0  0
   21.3057    3.1152   38.4737 H   0  0  0  0  0  0  0  0  0  0  0  0
   22.7997    3.7556   37.7760 H   0  0  0  0  0  0  0  0  0  0  0  0
   22.3494   -2.0604   39.5032 H   0  0  0  0  0  0  0  0  0  0  0  0
   21.2055   -0.9035   38.8163 H   0  0  0  0  0  0  0  0  0  0  0  0
   22.0421   -0.5509   40.3501 H   0  0  0  0  0  0  0  0  0  0  0  0
  2  1  1  0  0  0  0 
  3  2  1  0  0  0  0 
  2  4  1  0  0  0  0 
  2  5  1  0  0  0  0 
  6  3  1  0  0  0  0 
  3  7  1  0  0  0  0 
  3 40  1  0  0  0  0 
  4  8  1  0  0  0  0 
  4  9  1  0  0  0  0 
  4 10  1  0  0  0  0 
  5 11  1  0  0  0  0 
 12  6  1  0  0  0  0 
  6 13  1  0  0  0  0 
  6 41  1  0  0  0  0 
  7 14  1  0  0  0  0 
  9 11  1  0  0  0  0 
  9 15  1  0  0  0  0 
 10 13  1  0  0  0  0 
 12 16  1  0  0  0  0 
 12 17  1  0  0  0  0 
 12 18  1  0  0  0  0 
 14 17  1  0  0  0  0 
 15 19  1  0  0  0  0 
 15 20  2  0  0  0  0 
 17 21  2  0  0  0  0 
 18 22  1  0  0  0  0 
 19 23  2  0  0  0  0 
 20 24  1  0  0  0  0 
 25 21  1  0  0  0  0 
 25 22  1  0  0  0  0 
 23 26  1  0  0  0  0 
 24 26  1  0  0  0  0 
 25 27  1  0  0  0  0 
 26 28  2  0  0  0  0 
 29 27  1  0  0  0  0 
 30 29  1  0  0  0  0 
 29 31  1  0  0  0  0 
 29 42  1  0  0  0  0 
 30 32  1  0  0  0  0 
 30 33  1  0  0  0  0 
 34 31  1  0  0  0  0 
 33 35  1  0  0  0  0 
 33 36  1  0  0  0  0 
 36 34  1  0  0  0  0 
 34 37  1  0  0  0  0 
 36 38  1  0  0  0  0 
 38 39  1  0  0  0  0 
  1 43  1  0  0  0  0 
  5 44  1  0  0  0  0 
  5 45  1  0  0  0  0 
  7 46  1  0  0  0  0 
  7 47  1  0  0  0  0 
  8 48  1  0  0  0  0 
  8 49  1  0  0  0  0 
  8 50  1  0  0  0  0 
  9 51  1  0  0  0  0 
 10 52  1  0  0  0  0 
 10 53  1  0  0  0  0 
 11 54  1  0  0  0  0 
 11 55  1  0  0  0  0 
 13 56  1  0  0  0  0 
 13 57  1  0  0  0  0 
 14 58  1  0  0  0  0 
 14 59  1  0  0  0  0 
 16 60  1  0  0  0  0 
 16 61  1  0  0  0  0 
 16 62  1  0  0  0  0 
 18 63  1  0  0  0  0 
 18 64  1  0  0  0  0 
 19 65  1  0  0  0  0 
 20 66  1  0  0  0  0 
 21 67  1  0  0  0  0 
 22 68  1  0  0  0  0 
 22 69  1  0  0  0  0 
 23 70  1  0  0  0  0 
 25 71  1  0  0  0  0 
 30 72  1  0  0  0  0 
 32 73  1  0  0  0  0 
 33 74  1  0  0  0  0 
 34 75  1  0  0  0  0 
 35 76  1  0  0  0  0 
 36 77  1  0  0  0  0 
 37 78  1  0  0  0  0 
 37 79  1  0  0  0  0 
 37 80  1  0  0  0  0 
 39 81  1  0  0  0  0 
 39 82  1  0  0  0  0 
 39 83  1  0  0  0  0 
M  END
> <cdk:Title>
meproscillarin

> <Conformer>
1

> <SuperDrugID>
SD001508

$$$$
