ethacridine
  CDK     0628171801

 34 36  0  0  0  0  0  0  0  0999 V2000
    1.7966    2.0268   -5.2038 N   0  0  0  0  0  0  0  0  0  0  0  0
    2.7933    2.7156   -4.5910 C   0  0  0  0  0  0  0  0  0  0  0  0
    2.8853    2.7270   -3.1706 C   0  0  0  0  0  0  0  0  0  0  0  0
    3.7456    3.4300   -5.3707 C   0  0  0  0  0  0  0  0  0  0  0  0
    3.9271    3.4851   -2.5673 C   0  0  0  0  0  0  0  0  0  0  0  0
    1.9977    2.0235   -2.3177 C   0  0  0  0  0  0  0  0  0  0  0  0
    4.7494    4.1751   -4.6927 C   0  0  0  0  0  0  0  0  0  0  0  0
    3.7551    3.4459   -6.7897 C   0  0  0  0  0  0  0  0  0  0  0  0
    4.7975    4.1769   -3.3398 N   0  0  0  0  0  0  0  0  0  0  0  0
    4.0746    3.5305   -1.1666 C   0  0  0  0  0  0  0  0  0  0  0  0
    2.1590    2.0426   -0.9172 C   0  0  0  0  0  0  0  0  0  0  0  0
    5.7082    4.9198   -5.4043 C   0  0  0  0  0  0  0  0  0  0  0  0
    4.7198    4.1821   -7.5009 C   0  0  0  0  0  0  0  0  0  0  0  0
    3.1952    2.8053   -0.3448 C   0  0  0  0  0  0  0  0  0  0  0  0
    1.2919    1.3452   -0.1184 O   0  0  0  0  0  0  0  0  0  0  0  0
    5.6944    4.9289   -6.8120 C   0  0  0  0  0  0  0  0  0  0  0  0
    1.7148   -0.0128    0.1158 C   0  0  1  0  0  0  0  0  0  0  0  0
    6.6106    5.6533   -7.4848 N   0  0  0  0  0  0  0  0  0  0  0  0
    0.6528   -0.7524    0.9511 C   0  0  0  0  0  0  0  0  0  0  0  0
    1.7333    2.0102   -6.1703 H   0  0  0  0  0  0  0  0  0  0  0  0
    1.1320    1.5499   -4.6844 H   0  0  0  0  0  0  0  0  0  0  0  0
    1.2202    1.4843   -2.7007 H   0  0  0  0  0  0  0  0  0  0  0  0
    3.0623    2.9221   -7.3275 H   0  0  0  0  0  0  0  0  0  0  0  0
    4.8209    4.0868   -0.7391 H   0  0  0  0  0  0  0  0  0  0  0  0
    6.4177    5.4566   -4.8992 H   0  0  0  0  0  0  0  0  0  0  0  0
    4.7064    4.1709   -8.5240 H   0  0  0  0  0  0  0  0  0  0  0  0
    3.3136    2.8295    0.6712 H   0  0  0  0  0  0  0  0  0  0  0  0
    1.8432   -0.5525   -0.8288 H   0  0  0  0  0  0  0  0  0  0  0  0
    2.6609   -0.0278    0.6659 H   0  0  0  0  0  0  0  0  0  0  0  0
    6.6041    5.6746   -8.4547 H   0  0  0  0  0  0  0  0  0  0  0  0
    7.2751    6.1647   -6.9967 H   0  0  0  0  0  0  0  0  0  0  0  0
    0.5026   -0.2469    1.9061 H   0  0  0  0  0  0  0  0  0  0  0  0
    0.9780   -1.7767    1.1449 H   0  0  0  0  0  0  0  0  0  0  0  0
   -0.2966   -0.7838    0.4139 H   0  0  0  0  0  0  0  0  0  0  0  0
  1  2  1  0  0  0  0 
  2  3  1  0  0  0  0 
  2  4  2  0  0  0  0 
  3  5  1  0  0  0  0 
  3  6  2  0  0  0  0 
  4  7  1  0  0  0  0 
  4  8  1  0  0  0  0 
  5  9  1  0  0  0  0 
  5 10  2  0  0  0  0 
  6 11  1  0  0  0  0 
  7  9  2  0  0  0  0 
  7 12  1  0  0  0  0 
  8 13  2  0  0  0  0 
 10 14  1  0  0  0  0 
 11 14  2  0  0  0  0 
 11 15  1  0  0  0  0 
 12 16  2  0  0  0  0 
 13 16  1  0  0  0  0 
 15 17  1  0  0  0  0 
 16 18  1  0  0  0  0 
 17 19  1  0  0  0  0 
  1 20  1  0  0  0  0 
  1 21  1  0  0  0  0 
  6 22  1  0  0  0  0 
  8 23  1  0  0  0  0 
 10 24  1  0  0  0  0 
 12 25  1  0  0  0  0 
 13 26  1  0  0  0  0 
 14 27  1  0  0  0  0 
 17 28  1  0  0  0  0 
 17 29  1  0  0  0  0 
 18 30  1  0  0  0  0 
 18 31  1  0  0  0  0 
 19 32  1  0  0  0  0 
 19 33  1  0  0  0  0 
 19 34  1  0  0  0  0 
M  END
> <cdk:Title>
ethacridine

> <Conformer>
1

> <SuperDrugID>
SD002765

$$$$
