nefiracetam
  CDK     0628171801

 36 37  0  0  0  0  0  0  0  0999 V2000
   -0.0364    0.5467   -0.1192 N   0  0  0  0  0  0  0  0  0  0  0  0
   -0.9732    1.5400   -0.0777 C   0  0  0  0  0  0  0  0  0  0  0  0
   -0.2878   -0.7342   -0.5179 C   0  0  0  0  0  0  0  0  0  0  0  0
   -0.6223    2.9196    0.3262 C   0  0  1  0  0  0  0  0  0  0  0  0
   -2.1722    1.3073   -0.3668 O   0  0  0  0  0  0  0  0  0  0  0  0
   -0.4664   -1.0363   -1.8981 C   0  0  0  0  0  0  0  0  0  0  0  0
   -0.3574   -1.7647    0.4600 C   0  0  0  0  0  0  0  0  0  0  0  0
    0.7924    3.1902    0.3404 N   0  0  0  0  0  0  0  0  0  0  0  0
   -0.2869    0.0013   -2.9490 C   0  0  0  0  0  0  0  0  0  0  0  0
   -0.7929   -2.3605   -2.2707 C   0  0  0  0  0  0  0  0  0  0  0  0
   -0.0992   -1.4851    1.8976 C   0  0  0  0  0  0  0  0  0  0  0  0
   -0.6774   -3.0783    0.0475 C   0  0  0  0  0  0  0  0  0  0  0  0
    1.5616    3.3017   -0.7682 C   0  0  0  0  0  0  0  0  0  0  0  0
    1.5533    3.3473    1.5339 C   0  0  2  0  0  0  0  0  0  0  0  0
   -0.9069   -3.3713   -1.3043 C   0  0  0  0  0  0  0  0  0  0  0  0
    1.1411    3.1862   -1.9429 O   0  0  0  0  0  0  0  0  0  0  0  0
    2.9658    3.5647   -0.4721 C   0  0  2  0  0  0  0  0  0  0  0  0
    2.9839    3.6969    1.0642 C   0  0  2  0  0  0  0  0  0  0  0  0
    0.8642    0.7551    0.1774 H   0  0  0  0  0  0  0  0  0  0  0  0
   -1.0960    3.6241   -0.3639 H   0  0  0  0  0  0  0  0  0  0  0  0
   -1.0583    3.1014    1.3129 H   0  0  0  0  0  0  0  0  0  0  0  0
   -0.4018   -0.4009   -3.9572 H   0  0  0  0  0  0  0  0  0  0  0  0
   -1.0212    0.7975   -2.8277 H   0  0  0  0  0  0  0  0  0  0  0  0
    0.7151    0.4290   -2.8721 H   0  0  0  0  0  0  0  0  0  0  0  0
   -0.9462   -2.6045   -3.2517 H   0  0  0  0  0  0  0  0  0  0  0  0
    0.9244   -1.1272    2.0221 H   0  0  0  0  0  0  0  0  0  0  0  0
   -0.2238   -2.3709    2.5236 H   0  0  0  0  0  0  0  0  0  0  0  0
   -0.7873   -0.7202    2.2610 H   0  0  0  0  0  0  0  0  0  0  0  0
   -0.7455   -3.8374    0.7302 H   0  0  0  0  0  0  0  0  0  0  0  0
    1.5491    2.4155    2.1072 H   0  0  0  0  0  0  0  0  0  0  0  0
    1.1422    4.1524    2.1510 H   0  0  0  0  0  0  0  0  0  0  0  0
   -1.1529   -4.3240   -1.5863 H   0  0  0  0  0  0  0  0  0  0  0  0
    3.2944    4.4891   -0.9566 H   0  0  0  0  0  0  0  0  0  0  0  0
    3.5844    2.7283   -0.8093 H   0  0  0  0  0  0  0  0  0  0  0  0
    3.7188    3.0169    1.5045 H   0  0  0  0  0  0  0  0  0  0  0  0
    3.2378    4.7221    1.3512 H   0  0  0  0  0  0  0  0  0  0  0  0
  1  2  1  0  0  0  0 
  1  3  1  0  0  0  0 
  2  4  1  0  0  0  0 
  2  5  2  0  0  0  0 
  3  6  2  0  0  0  0 
  3  7  1  0  0  0  0 
  4  8  1  0  0  0  0 
  6  9  1  0  0  0  0 
  6 10  1  0  0  0  0 
  7 11  1  0  0  0  0 
  7 12  2  0  0  0  0 
  8 13  1  0  0  0  0 
  8 14  1  0  0  0  0 
 10 15  2  0  0  0  0 
 12 15  1  0  0  0  0 
 13 16  2  0  0  0  0 
 13 17  1  0  0  0  0 
 14 18  1  0  0  0  0 
 17 18  1  0  0  0  0 
  1 19  1  0  0  0  0 
  4 20  1  0  0  0  0 
  4 21  1  0  0  0  0 
  9 22  1  0  0  0  0 
  9 23  1  0  0  0  0 
  9 24  1  0  0  0  0 
 10 25  1  0  0  0  0 
 11 26  1  0  0  0  0 
 11 27  1  0  0  0  0 
 11 28  1  0  0  0  0 
 12 29  1  0  0  0  0 
 14 30  1  0  0  0  0 
 14 31  1  0  0  0  0 
 15 32  1  0  0  0  0 
 17 33  1  0  0  0  0 
 17 34  1  0  0  0  0 
 18 35  1  0  0  0  0 
 18 36  1  0  0  0  0 
M  END
> <cdk:Title>
nefiracetam

> <Conformer>
1

> <SuperDrugID>
SD002907

$$$$
