cabazitaxel
  CDK     0628171801

117122  0  0  0  0  0  0  0  0999 V2000
   -3.6059    5.6458   -4.3486 C   0  0  1  0  0  0  0  0  0  0  0  0
   -3.4023    6.4110   -5.6928 C   0  0  1  0  0  0  0  0  0  0  0  0
   -4.7016    7.0825   -6.2637 C   0  0  1  0  0  0  0  0  0  0  0  0
   -4.1807    8.1522   -7.0779 O   0  0  0  0  0  0  0  0  0  0  0  0
   -5.5459    6.1344   -7.2524 C   0  0  1  0  0  0  0  0  0  0  0  0
   -4.5405    5.8844   -8.2724 O   0  0  0  0  0  0  0  0  0  0  0  0
   -4.2725    6.5107   -9.4664 C   0  0  0  0  0  0  0  0  0  0  0  0
   -5.0485    7.4083   -9.8716 O   0  0  0  0  0  0  0  0  0  0  0  0
   -3.1166    6.1391  -10.2107 C   0  0  0  0  0  0  0  0  0  0  0  0
   -2.7295    6.8244  -11.3907 C   0  0  0  0  0  0  0  0  0  0  0  0
   -1.5754    6.4484  -12.1064 C   0  0  0  0  0  0  0  0  0  0  0  0
   -0.7818    5.3808  -11.6548 C   0  0  0  0  0  0  0  0  0  0  0  0
   -1.1380    4.6987  -10.4813 C   0  0  0  0  0  0  0  0  0  0  0  0
   -2.2903    5.0770   -9.7689 C   0  0  0  0  0  0  0  0  0  0  0  0
   -6.2781    4.7391   -6.8587 C   0  0  1  0  0  0  0  0  0  0  0  0
   -7.7231    4.7161   -6.1061 C   0  0  2  0  0  0  0  0  0  0  0  0
   -8.7673    5.6540   -6.8106 C   0  0  0  0  0  0  0  0  0  0  0  0
   -7.6733    5.0648   -4.6045 C   0  0  0  0  0  0  0  0  0  0  0  0
   -7.9567    4.1987   -3.7358 O   0  0  0  0  0  0  0  0  0  0  0  0
   -7.3312    6.3645   -3.9507 C   0  0  2  0  0  0  0  0  0  0  0  0
   -8.3705    7.2965   -4.3404 O   0  0  0  0  0  0  0  0  0  0  0  0
   -9.0422    8.0303   -3.2943 C   0  0  0  0  0  0  0  0  0  0  0  0
   -5.9047    6.6305   -4.2158 C   0  0  0  0  0  0  0  0  0  0  0  0
   -4.9565    5.7398   -3.7523 C   0  0  0  0  0  0  0  0  0  0  0  0
   -5.1640    4.7517   -2.6738 C   0  0  0  0  0  0  0  0  0  0  0  0
   -5.4710    7.7775   -5.0705 C   0  0  2  0  0  0  0  0  0  0  0  0
   -6.5195    8.8214   -5.6401 C   0  0  0  0  0  0  0  0  0  0  0  0
   -4.5801    8.7411   -4.1756 C   0  0  0  0  0  0  0  0  0  0  0  0
   -8.3499    3.2414   -6.1524 C   0  0  2  0  0  0  0  0  0  0  0  0
   -8.5758    2.6459   -7.5555 C   0  0  2  0  0  0  0  0  0  0  0  0
   -7.3018    2.6899   -8.4067 C   0  0  1  0  0  0  0  0  0  0  0  0
   -7.5828    3.2401   -9.7025 O   0  0  0  0  0  0  0  0  0  0  0  0
   -6.6961    4.3395   -9.4865 C   0  0  2  0  0  0  0  0  0  0  0  0
   -6.2102    3.7593   -8.1328 C   0  0  1  0  0  0  0  0  0  0  0  0
   -4.9140    3.0896   -8.1923 O   0  0  0  0  0  0  0  0  0  0  0  0
   -4.3491    2.2839   -9.1637 C   0  0  0  0  0  0  0  0  0  0  0  0
   -3.0754    1.5956   -8.9214 C   0  0  0  0  0  0  0  0  0  0  0  0
   -4.8852    2.0945  -10.2803 O   0  0  0  0  0  0  0  0  0  0  0  0
   -9.6563    3.2145   -5.5030 O   0  0  0  0  0  0  0  0  0  0  0  0
  -10.0448    2.0057   -4.8223 C   0  0  0  0  0  0  0  0  0  0  0  0
   -3.2200    4.2812   -4.6310 O   0  0  0  0  0  0  0  0  0  0  0  0
   -2.2613    3.5221   -4.0113 C   0  0  0  0  0  0  0  0  0  0  0  0
   -1.7939    3.8364   -2.8914 O   0  0  0  0  0  0  0  0  0  0  0  0
   -1.7517    2.3209   -4.7037 C   0  0  2  0  0  0  0  0  0  0  0  0
   -2.0603    1.1757   -3.9118 O   0  0  0  0  0  0  0  0  0  0  0  0
   -0.2189    2.3762   -5.0240 C   0  0  1  0  0  0  0  0  0  0  0  0
    0.0755    1.3570   -5.9938 N   0  0  0  0  0  0  0  0  0  0  0  0
    1.2817    1.1040   -6.5627 C   0  0  0  0  0  0  0  0  0  0  0  0
    1.3268    0.1700   -7.3938 O   0  0  0  0  0  0  0  0  0  0  0  0
    2.3890    1.8516   -6.2550 O   0  0  0  0  0  0  0  0  0  0  0  0
    3.7383    1.7902   -6.7670 C   0  0  1  0  0  0  0  0  0  0  0  0
    4.5205    2.9150   -6.0266 C   0  0  0  0  0  0  0  0  0  0  0  0
    4.3758    0.4064   -6.4443 C   0  0  0  0  0  0  0  0  0  0  0  0
    3.7614    2.0790   -8.2970 C   0  0  0  0  0  0  0  0  0  0  0  0
    0.2421    3.7306   -5.4821 C   0  0  0  0  0  0  0  0  0  0  0  0
    1.1397    4.5021   -4.7028 C   0  0  0  0  0  0  0  0  0  0  0  0
    1.5762    5.7659   -5.1419 C   0  0  0  0  0  0  0  0  0  0  0  0
    1.1004    6.2888   -6.3562 C   0  0  0  0  0  0  0  0  0  0  0  0
    0.2085    5.5393   -7.1398 C   0  0  0  0  0  0  0  0  0  0  0  0
   -0.2142    4.2688   -6.7077 C   0  0  0  0  0  0  0  0  0  0  0  0
   -2.9050    6.0549   -3.6111 H   0  0  0  0  0  0  0  0  0  0  0  0
   -2.6466    7.1835   -5.5091 H   0  0  0  0  0  0  0  0  0  0  0  0
   -2.9430    5.7664   -6.4436 H   0  0  0  0  0  0  0  0  0  0  0  0
   -4.9547    8.5327   -7.5428 H   0  0  0  0  0  0  0  0  0  0  0  0
   -6.3090    6.7593   -7.7132 H   0  0  0  0  0  0  0  0  0  0  0  0
   -3.2787    7.6144  -11.7392 H   0  0  0  0  0  0  0  0  0  0  0  0
   -1.3086    6.9559  -12.9522 H   0  0  0  0  0  0  0  0  0  0  0  0
    0.0544    5.1039  -12.1742 H   0  0  0  0  0  0  0  0  0  0  0  0
   -0.5547    3.9318  -10.1406 H   0  0  0  0  0  0  0  0  0  0  0  0
   -2.5136    4.5670   -8.9141 H   0  0  0  0  0  0  0  0  0  0  0  0
   -5.6045    4.2724   -6.1405 H   0  0  0  0  0  0  0  0  0  0  0  0
   -8.4472    6.6803   -6.8319 H   0  0  0  0  0  0  0  0  0  0  0  0
   -8.9413    5.3728   -7.8448 H   0  0  0  0  0  0  0  0  0  0  0  0
   -9.7314    5.6337   -6.2994 H   0  0  0  0  0  0  0  0  0  0  0  0
   -7.4129    6.2745   -2.8639 H   0  0  0  0  0  0  0  0  0  0  0  0
   -9.7846    8.6882   -3.7454 H   0  0  0  0  0  0  0  0  0  0  0  0
   -8.3300    8.6380   -2.7323 H   0  0  0  0  0  0  0  0  0  0  0  0
   -9.5553    7.3484   -2.6129 H   0  0  0  0  0  0  0  0  0  0  0  0
   -5.3790    3.7709   -3.1013 H   0  0  0  0  0  0  0  0  0  0  0  0
   -4.2693    4.6598   -2.0547 H   0  0  0  0  0  0  0  0  0  0  0  0
   -5.9518    5.0064   -1.9725 H   0  0  0  0  0  0  0  0  0  0  0  0
   -6.0352    9.6203   -6.2059 H   0  0  0  0  0  0  0  0  0  0  0  0
   -7.0686    9.3252   -4.8444 H   0  0  0  0  0  0  0  0  0  0  0  0
   -7.2343    8.3808   -6.3157 H   0  0  0  0  0  0  0  0  0  0  0  0
   -3.7738    8.2418   -3.6463 H   0  0  0  0  0  0  0  0  0  0  0  0
   -4.1150    9.5244   -4.7806 H   0  0  0  0  0  0  0  0  0  0  0  0
   -5.1835    9.2290   -3.4043 H   0  0  0  0  0  0  0  0  0  0  0  0
   -7.6479    2.5701   -5.6363 H   0  0  0  0  0  0  0  0  0  0  0  0
   -9.3999    3.1546   -8.0587 H   0  0  0  0  0  0  0  0  0  0  0  0
   -8.8762    1.5988   -7.4631 H   0  0  0  0  0  0  0  0  0  0  0  0
   -6.8974    1.6773   -8.5064 H   0  0  0  0  0  0  0  0  0  0  0  0
   -7.2445    5.2788   -9.4173 H   0  0  0  0  0  0  0  0  0  0  0  0
   -5.9316    4.3985  -10.2610 H   0  0  0  0  0  0  0  0  0  0  0  0
   -2.3313    1.9215   -9.6477 H   0  0  0  0  0  0  0  0  0  0  0  0
   -2.7104    1.8068   -7.9191 H   0  0  0  0  0  0  0  0  0  0  0  0
   -3.2167    0.5172   -9.0218 H   0  0  0  0  0  0  0  0  0  0  0  0
  -11.0276    2.1666   -4.3764 H   0  0  0  0  0  0  0  0  0  0  0  0
   -9.3409    1.7686   -4.0222 H   0  0  0  0  0  0  0  0  0  0  0  0
  -10.1170    1.1605   -5.5076 H   0  0  0  0  0  0  0  0  0  0  0  0
   -2.3064    2.2192   -5.6353 H   0  0  0  0  0  0  0  0  0  0  0  0
   -1.7671    0.4068   -4.4478 H   0  0  0  0  0  0  0  0  0  0  0  0
    0.3127    2.1011   -4.1068 H   0  0  0  0  0  0  0  0  0  0  0  0
   -0.6588    0.7869   -6.2669 H   0  0  0  0  0  0  0  0  0  0  0  0
    4.0616    3.8883   -6.2145 H   0  0  0  0  0  0  0  0  0  0  0  0
    5.5590    2.9571   -6.3626 H   0  0  0  0  0  0  0  0  0  0  0  0
    4.5164    2.7461   -4.9484 H   0  0  0  0  0  0  0  0  0  0  0  0
    5.4286    0.3800   -6.7287 H   0  0  0  0  0  0  0  0  0  0  0  0
    4.3041    0.1941   -5.3772 H   0  0  0  0  0  0  0  0  0  0  0  0
    3.8639   -0.3930   -6.9786 H   0  0  0  0  0  0  0  0  0  0  0  0
    3.1908    1.3327   -8.8460 H   0  0  0  0  0  0  0  0  0  0  0  0
    3.3279    3.0571   -8.5073 H   0  0  0  0  0  0  0  0  0  0  0  0
    4.7839    2.0656   -8.6774 H   0  0  0  0  0  0  0  0  0  0  0  0
    1.4823    4.1510   -3.8059 H   0  0  0  0  0  0  0  0  0  0  0  0
    2.2395    6.3043   -4.5793 H   0  0  0  0  0  0  0  0  0  0  0  0
    1.4010    7.2134   -6.6691 H   0  0  0  0  0  0  0  0  0  0  0  0
   -0.1297    5.9216   -8.0241 H   0  0  0  0  0  0  0  0  0  0  0  0
   -0.8588    3.7325   -7.2905 H   0  0  0  0  0  0  0  0  0  0  0  0
  1  2  1  0  0  0  0 
  3  2  1  0  0  0  0 
  3  4  1  0  0  0  0 
  5  3  1  0  0  0  0 
  5  6  1  0  0  0  0 
  6  7  1  0  0  0  0 
  7  8  2  0  0  0  0 
  7  9  1  0  0  0  0 
  9 10  2  0  0  0  0 
 10 11  1  0  0  0  0 
 11 12  2  0  0  0  0 
 12 13  1  0  0  0  0 
 13 14  2  0  0  0  0 
  9 14  1  0  0  0  0 
 15  5  1  0  0  0  0 
 15 16  1  0  0  0  0 
 16 17  1  0  0  0  0 
 16 18  1  0  0  0  0 
 18 19  2  0  0  0  0 
 20 18  1  0  0  0  0 
 20 21  1  0  0  0  0 
 21 22  1  0  0  0  0 
 20 23  1  0  0  0  0 
 23 24  2  0  0  0  0 
  1 24  1  0  0  0  0 
 24 25  1  0  0  0  0 
 23 26  1  0  0  0  0 
  3 26  1  0  0  0  0 
 26 27  1  0  0  0  0 
 26 28  1  0  0  0  0 
 16 29  1  0  0  0  0 
 29 30  1  0  0  0  0 
 31 30  1  0  0  0  0 
 31 32  1  0  0  0  0 
 32 33  1  0  0  0  0 
 34 33  1  0  0  0  0 
 15 34  1  0  0  0  0 
 34 31  1  0  0  0  0 
 34 35  1  0  0  0  0 
 35 36  1  0  0  0  0 
 36 37  1  0  0  0  0 
 36 38  2  0  0  0  0 
 29 39  1  0  0  0  0 
 39 40  1  0  0  0  0 
  1 41  1  0  0  0  0 
 41 42  1  0  0  0  0 
 42 43  2  0  0  0  0 
 44 42  1  0  0  0  0 
 44 45  1  0  0  0  0 
 44 46  1  0  0  0  0 
 46 47  1  0  0  0  0 
 47 48  1  0  0  0  0 
 48 49  2  0  0  0  0 
 48 50  1  0  0  0  0 
 50 51  1  0  0  0  0 
 51 52  1  0  0  0  0 
 51 53  1  0  0  0  0 
 51 54  1  0  0  0  0 
 46 55  1  0  0  0  0 
 55 56  2  0  0  0  0 
 56 57  1  0  0  0  0 
 57 58  2  0  0  0  0 
 58 59  1  0  0  0  0 
 59 60  2  0  0  0  0 
 55 60  1  0  0  0  0 
  1 61  1  0  0  0  0 
 62  2  1  0  0  0  0 
 63  2  1  0  0  0  0 
 64  4  1  0  0  0  0 
  5 65  1  0  0  0  0 
 66 10  1  0  0  0  0 
 67 11  1  0  0  0  0 
 68 12  1  0  0  0  0 
 69 13  1  0  0  0  0 
 70 14  1  0  0  0  0 
 15 71  1  0  0  0  0 
 72 17  1  0  0  0  0 
 73 17  1  0  0  0  0 
 74 17  1  0  0  0  0 
 20 75  1  0  0  0  0 
 76 22  1  0  0  0  0 
 77 22  1  0  0  0  0 
 78 22  1  0  0  0  0 
 79 25  1  0  0  0  0 
 80 25  1  0  0  0  0 
 81 25  1  0  0  0  0 
 82 27  1  0  0  0  0 
 83 27  1  0  0  0  0 
 84 27  1  0  0  0  0 
 85 28  1  0  0  0  0 
 86 28  1  0  0  0  0 
 87 28  1  0  0  0  0 
 29 88  1  0  0  0  0 
 89 30  1  0  0  0  0 
 90 30  1  0  0  0  0 
 31 91  1  0  0  0  0 
 92 33  1  0  0  0  0 
 93 33  1  0  0  0  0 
 94 37  1  0  0  0  0 
 95 37  1  0  0  0  0 
 96 37  1  0  0  0  0 
 97 40  1  0  0  0  0 
 98 40  1  0  0  0  0 
 99 40  1  0  0  0  0 
 44100  1  0  0  0  0 
101 45  1  0  0  0  0 
 46102  1  0  0  0  0 
103 47  1  0  0  0  0 
104 52  1  0  0  0  0 
105 52  1  0  0  0  0 
106 52  1  0  0  0  0 
107 53  1  0  0  0  0 
108 53  1  0  0  0  0 
109 53  1  0  0  0  0 
110 54  1  0  0  0  0 
111 54  1  0  0  0  0 
112 54  1  0  0  0  0 
113 56  1  0  0  0  0 
114 57  1  0  0  0  0 
115 58  1  0  0  0  0 
116 59  1  0  0  0  0 
117 60  1  0  0  0  0 
M  END
> <cdk:Title>
cabazitaxel

> <Conformer>
1

> <SuperDrugID>
SD003388

$$$$
