cefuroxime axetil
  CDK     0628171802

 57 59  0  0  0  0  0  0  0  0999 V2000
   -2.7688    2.9923    0.4881 C   0  0  0  0  0  0  0  0  0  0  0  0
   -2.7615    4.0638   -0.3295 N   0  0  0  0  0  0  0  0  0  0  0  0
   -3.7561    5.0291   -0.6449 C   0  0  2  0  0  0  0  0  0  0  0  0
   -5.3527    4.1616   -0.7499 S   0  0  0  0  0  0  0  0  0  0  0  0
   -5.2421    3.1429    0.7635 C   0  0  1  0  0  0  0  0  0  0  0  0
   -3.9288    2.5186    1.0243 C   0  0  0  0  0  0  0  0  0  0  0  0
   -2.9289    5.3412   -1.9321 C   0  0  1  0  0  0  0  0  0  0  0  0
   -1.9421    4.4598   -1.3117 C   0  0  0  0  0  0  0  0  0  0  0  0
   -1.5547    2.3438    0.6425 C   0  0  0  0  0  0  0  0  0  0  0  0
   -1.3281    1.2323   -0.1179 O   0  0  0  0  0  0  0  0  0  0  0  0
   -0.6897    2.8206    1.4125 O   0  0  0  0  0  0  0  0  0  0  0  0
   -3.9644    1.3110    1.8562 C   0  0  1  0  0  0  0  0  0  0  0  0
   -4.0872    0.1945    0.9691 O   0  0  0  0  0  0  0  0  0  0  0  0
   -4.1589   -1.1173    1.3156 C   0  0  0  0  0  0  0  0  0  0  0  0
   -4.3163   -2.0269    0.3424 N   0  0  0  0  0  0  0  0  0  0  0  0
   -4.0879   -1.5003    2.5054 O   0  0  0  0  0  0  0  0  0  0  0  0
   -0.8021    4.0949   -1.6772 O   0  0  0  0  0  0  0  0  0  0  0  0
   -3.4571    4.7229   -3.1063 N   0  0  0  0  0  0  0  0  0  0  0  0
   -2.7904    4.5005   -4.2682 C   0  0  0  0  0  0  0  0  0  0  0  0
   -3.2770    3.5480   -5.1561 C   0  0  0  0  0  0  0  0  0  0  0  0
   -1.7145    5.0965   -4.5143 O   0  0  0  0  0  0  0  0  0  0  0  0
   -3.7272    2.3115   -4.6903 C   0  0  0  0  0  0  0  0  0  0  0  0
   -3.3318    3.7557   -6.4228 N   0  0  0  0  0  0  0  0  0  0  0  0
   -2.9951    4.8108   -7.0604 O   0  0  0  0  0  0  0  0  0  0  0  0
   -4.0375    5.1296   -7.9935 C   0  0  0  0  0  0  0  0  0  0  0  0
   -3.7742    1.9416   -3.3815 O   0  0  0  0  0  0  0  0  0  0  0  0
   -4.2574    0.6816   -3.2912 C   0  0  0  0  0  0  0  0  0  0  0  0
   -4.5224    0.2125   -4.5689 C   0  0  0  0  0  0  0  0  0  0  0  0
   -4.1927    1.2317   -5.4480 C   0  0  0  0  0  0  0  0  0  0  0  0
   -0.1217    0.4611   -0.2415 C   0  0  2  0  0  0  0  0  0  0  0  0
    0.3110    0.4850   -1.7212 C   0  0  0  0  0  0  0  0  0  0  0  0
   -0.3672   -0.8965    0.1475 O   0  0  0  0  0  0  0  0  0  0  0  0
   -0.6180   -1.3357    1.4139 C   0  0  0  0  0  0  0  0  0  0  0  0
   -0.6133   -0.5411    2.3836 O   0  0  0  0  0  0  0  0  0  0  0  0
   -0.8711   -2.7626    1.6550 C   0  0  0  0  0  0  0  0  0  0  0  0
   -3.7751    5.8502    0.0793 H   0  0  0  0  0  0  0  0  0  0  0  0
   -5.5035    3.7741    1.6150 H   0  0  0  0  0  0  0  0  0  0  0  0
   -6.0221    2.3836    0.6577 H   0  0  0  0  0  0  0  0  0  0  0  0
   -2.5942    6.3756   -2.0364 H   0  0  0  0  0  0  0  0  0  0  0  0
   -3.0646    1.2108    2.4663 H   0  0  0  0  0  0  0  0  0  0  0  0
   -4.8162    1.3243    2.5441 H   0  0  0  0  0  0  0  0  0  0  0  0
   -4.3742   -2.9716    0.5596 H   0  0  0  0  0  0  0  0  0  0  0  0
   -4.3788   -1.7383   -0.5823 H   0  0  0  0  0  0  0  0  0  0  0  0
   -4.3470    4.3421   -3.0360 H   0  0  0  0  0  0  0  0  0  0  0  0
   -3.7056    5.9724   -8.5984 H   0  0  0  0  0  0  0  0  0  0  0  0
   -4.2553    4.2934   -8.6653 H   0  0  0  0  0  0  0  0  0  0  0  0
   -4.9516    5.4233   -7.4683 H   0  0  0  0  0  0  0  0  0  0  0  0
   -4.3971    0.1653   -2.4201 H   0  0  0  0  0  0  0  0  0  0  0  0
   -4.8921   -0.7057   -4.8171 H   0  0  0  0  0  0  0  0  0  0  0  0
   -4.2737    1.1859   -6.4675 H   0  0  0  0  0  0  0  0  0  0  0  0
    0.6930    0.8699    0.3658 H   0  0  0  0  0  0  0  0  0  0  0  0
    0.5088    1.5100   -2.0397 H   0  0  0  0  0  0  0  0  0  0  0  0
   -0.4734    0.0664   -2.3534 H   0  0  0  0  0  0  0  0  0  0  0  0
    1.2197   -0.1049   -1.8544 H   0  0  0  0  0  0  0  0  0  0  0  0
   -0.9674   -3.3089    0.7152 H   0  0  0  0  0  0  0  0  0  0  0  0
   -0.0436   -3.1873    2.2240 H   0  0  0  0  0  0  0  0  0  0  0  0
   -1.7906   -2.8874    2.2256 H   0  0  0  0  0  0  0  0  0  0  0  0
  1  2  1  0  0  0  0 
  3  2  1  0  0  0  0 
  3  4  1  0  0  0  0 
  4  5  1  0  0  0  0 
  5  6  1  0  0  0  0 
  1  6  2  0  0  0  0 
  7  8  1  0  0  0  0 
  8  2  1  0  0  0  0 
  3  7  1  0  0  0  0 
  1  9  1  0  0  0  0 
  9 10  1  0  0  0  0 
  9 11  2  0  0  0  0 
  6 12  1  0  0  0  0 
 12 13  1  0  0  0  0 
 13 14  1  0  0  0  0 
 14 15  1  0  0  0  0 
 14 16  2  0  0  0  0 
  8 17  2  0  0  0  0 
  7 18  1  0  0  0  0 
 18 19  1  0  0  0  0 
 19 20  1  0  0  0  0 
 19 21  2  0  0  0  0 
 20 22  1  0  0  0  0 
 20 23  2  0  0  0  0 
 23 24  1  0  0  0  0 
 24 25  1  0  0  0  0 
 26 27  1  0  0  0  0 
 27 28  2  0  0  0  0 
 28 29  1  0  0  0  0 
 22 26  1  0  0  0  0 
 22 29  2  0  0  0  0 
 10 30  1  0  0  0  0 
 30 31  1  0  0  0  0 
 30 32  1  0  0  0  0 
 32 33  1  0  0  0  0 
 33 34  2  0  0  0  0 
 33 35  1  0  0  0  0 
  3 36  1  0  0  0  0 
 37  5  1  0  0  0  0 
 38  5  1  0  0  0  0 
  7 39  1  0  0  0  0 
 40 12  1  0  0  0  0 
 41 12  1  0  0  0  0 
 42 15  1  0  0  0  0 
 43 15  1  0  0  0  0 
 44 18  1  0  0  0  0 
 45 25  1  0  0  0  0 
 46 25  1  0  0  0  0 
 47 25  1  0  0  0  0 
 48 27  1  0  0  0  0 
 49 28  1  0  0  0  0 
 50 29  1  0  0  0  0 
 51 30  1  0  0  0  0 
 52 31  1  0  0  0  0 
 53 31  1  0  0  0  0 
 54 31  1  0  0  0  0 
 55 35  1  0  0  0  0 
 56 35  1  0  0  0  0 
 57 35  1  0  0  0  0 
M  END
> <cdk:Title>
cefuroxime axetil

> <Conformer>
1

> <SuperDrugID>
SD000493

$$$$
