flufenamic acid
  CDK     0628171801

 30 31  0  0  0  0  0  0  0  0999 V2000
    3.4357   -0.0585   -0.0015 N   0  0  0  0  0  0  0  0  0  0  0  0
    4.0201   -1.2824    0.2124 C   0  0  0  0  0  0  0  0  0  0  0  0
    2.2065    0.1840   -0.5359 C   0  0  0  0  0  0  0  0  0  0  0  0
    5.3588   -1.5121   -0.2390 C   0  0  0  0  0  0  0  0  0  0  0  0
    3.3356   -2.3298    0.8795 C   0  0  0  0  0  0  0  0  0  0  0  0
    0.9836   -0.1176    0.1060 C   0  0  0  0  0  0  0  0  0  0  0  0
    2.1755    0.8035   -1.8019 C   0  0  0  0  0  0  0  0  0  0  0  0
    6.1190   -0.5610   -0.9915 C   0  0  0  0  0  0  0  0  0  0  0  0
    5.9649   -2.7664    0.0386 C   0  0  0  0  0  0  0  0  0  0  0  0
    3.9505   -3.5681    1.1214 C   0  0  0  0  0  0  0  0  0  0  0  0
   -0.2607    0.0885   -0.5408 C   0  0  0  0  0  0  0  0  0  0  0  0
    0.9528    1.0478   -2.4492 C   0  0  0  0  0  0  0  0  0  0  0  0
    7.4043   -0.7962   -1.3565 O   0  0  0  0  0  0  0  0  0  0  0  0
    5.6566    0.5278   -1.3988 O   0  0  0  0  0  0  0  0  0  0  0  0
    5.2699   -3.7839    0.7070 C   0  0  0  0  0  0  0  0  0  0  0  0
   -1.5594   -0.2939    0.0854 C   0  0  2  0  0  0  0  0  0  0  0  0
   -0.2524    0.6813   -1.8277 C   0  0  0  0  0  0  0  0  0  0  0  0
   -2.1915   -1.2399   -0.6857 F   0  0  0  0  0  0  0  0  0  0  0  0
   -2.3780    0.8046    0.1865 F   0  0  0  0  0  0  0  0  0  0  0  0
   -1.4505   -0.8325    1.3469 F   0  0  0  0  0  0  0  0  0  0  0  0
    4.0182    0.7138    0.0704 H   0  0  0  0  0  0  0  0  0  0  0  0
    2.3848   -2.2121    1.2185 H   0  0  0  0  0  0  0  0  0  0  0  0
    1.0008   -0.4804    1.0572 H   0  0  0  0  0  0  0  0  0  0  0  0
    3.0428    1.0750   -2.2693 H   0  0  0  0  0  0  0  0  0  0  0  0
    6.9246   -2.9676   -0.2531 H   0  0  0  0  0  0  0  0  0  0  0  0
    3.4392   -4.3117    1.6007 H   0  0  0  0  0  0  0  0  0  0  0  0
    0.9417    1.4866   -3.3743 H   0  0  0  0  0  0  0  0  0  0  0  0
    7.8939   -0.1401   -1.8968 H   0  0  0  0  0  0  0  0  0  0  0  0
    5.7246   -4.6814    0.8896 H   0  0  0  0  0  0  0  0  0  0  0  0
   -1.1315    0.8582   -2.3208 H   0  0  0  0  0  0  0  0  0  0  0  0
  1  2  1  0  0  0  0 
  1  3  1  0  0  0  0 
  2  4  2  0  0  0  0 
  2  5  1  0  0  0  0 
  3  6  2  0  0  0  0 
  3  7  1  0  0  0  0 
  4  8  1  0  0  0  0 
  4  9  1  0  0  0  0 
  5 10  2  0  0  0  0 
  6 11  1  0  0  0  0 
  7 12  2  0  0  0  0 
  8 13  1  0  0  0  0 
  8 14  2  0  0  0  0 
  9 15  2  0  0  0  0 
 10 15  1  0  0  0  0 
 11 16  1  0  0  0  0 
 11 17  2  0  0  0  0 
 12 17  1  0  0  0  0 
 16 18  1  0  0  0  0 
 16 19  1  0  0  0  0 
 16 20  1  0  0  0  0 
  1 21  1  0  0  0  0 
  5 22  1  0  0  0  0 
  6 23  1  0  0  0  0 
  7 24  1  0  0  0  0 
  9 25  1  0  0  0  0 
 10 26  1  0  0  0  0 
 12 27  1  0  0  0  0 
 13 28  1  0  0  0  0 
 15 29  1  0  0  0  0 
 17 30  1  0  0  0  0 
M  END
> <cdk:Title>
flufenamic acid

> <Conformer>
1

> <SuperDrugID>
SD001067

$$$$
