temsirolimus
  CDK     0628171801

160163  0  0  0  0  0  0  0  0999 V2000
  -24.6350   11.0808   38.0018 C   0  0  1  0  0  0  0  0  0  0  0  0
  -25.8962   11.6345   37.2297 C   0  0  1  0  0  0  0  0  0  0  0  0
  -27.0687   10.6150   37.3386 C   0  0  1  0  0  0  0  0  0  0  0  0
  -27.3814   10.2644   38.8117 C   0  0  1  0  0  0  0  0  0  0  0  0
  -26.1147    9.8064   39.5933 C   0  0  2  0  0  0  0  0  0  0  0  0
  -25.0204   10.7411   39.3667 O   0  0  0  0  0  0  0  0  0  0  0  0
  -23.8146   10.0050   37.3260 C   0  0  0  0  0  0  0  0  0  0  0  0
  -22.8050    9.2409   38.0050 C   0  0  0  0  0  0  0  0  0  0  0  0
  -22.1904    8.0088   37.6829 N   0  0  0  0  0  0  0  0  0  0  0  0
  -22.4482    9.7870   39.0776 O   0  0  0  0  0  0  0  0  0  0  0  0
  -23.9158    9.9236   36.0840 O   0  0  0  0  0  0  0  0  0  0  0  0
  -23.7179   12.1745   38.1082 O   0  0  0  0  0  0  0  0  0  0  0  0
  -22.5135    7.0467   36.6125 C   0  0  1  0  0  0  0  0  0  0  0  0
  -23.0695    5.7521   37.2954 C   0  0  1  0  0  0  0  0  0  0  0  0
  -22.0343    5.1374   38.2717 C   0  0  2  0  0  0  0  0  0  0  0  0
  -21.5023    6.1982   39.2665 C   0  0  2  0  0  0  0  0  0  0  0  0
  -21.0941    7.5064   38.5382 C   0  0  2  0  0  0  0  0  0  0  0  0
  -21.5484    6.7655   36.1757 H   0  0  0  0  0  0  0  0  0  0  0  0
  -23.3065    7.3479   35.3859 C   0  0  0  0  0  0  0  0  0  0  0  0
  -22.6384    7.4800   34.1889 O   0  0  0  0  0  0  0  0  0  0  0  0
  -22.9875    6.8774   32.9192 C   0  0  1  0  0  0  0  0  0  0  0  0
  -23.3038    7.9616   31.8416 C   0  0  2  0  0  0  0  0  0  0  0  0
  -24.5912    8.6810   32.0137 C   0  0  0  0  0  0  0  0  0  0  0  0
  -25.5692    8.8023   30.8900 C   0  0  1  0  0  0  0  0  0  0  0  0
  -23.8913    6.2687   33.0419 H   0  0  0  0  0  0  0  0  0  0  0  0
  -21.8249    5.8863   32.5063 C   0  0  1  0  0  0  0  0  0  0  0  0
  -20.5857    6.6076   31.8552 C   0  0  2  0  0  0  0  0  0  0  0  0
  -19.2294    5.8443   31.6999 C   0  0  2  0  0  0  0  0  0  0  0  0
  -18.1615    6.7400   30.9921 C   0  0  1  0  0  0  0  0  0  0  0  0
  -16.7665    6.0676   30.9546 C   0  0  2  0  0  0  0  0  0  0  0  0
  -16.7913    4.6124   30.3909 C   0  0  2  0  0  0  0  0  0  0  0  0
  -17.9401    3.7459   30.9887 C   0  0  1  0  0  0  0  0  0  0  0  0
  -19.3067    4.4912   30.9252 C   0  0  1  0  0  0  0  0  0  0  0  0
  -18.8682    5.6476   32.7139 H   0  0  0  0  0  0  0  0  0  0  0  0
  -15.5471    3.9911   30.7516 O   0  0  0  0  0  0  0  0  0  0  0  0
  -16.8969    4.6367   29.3023 H   0  0  0  0  0  0  0  0  0  0  0  0
  -17.6918    3.5569   32.0411 H   0  0  0  0  0  0  0  0  0  0  0  0
  -18.0037    2.5035   30.2496 O   0  0  0  0  0  0  0  0  0  0  0  0
  -18.4396    1.3484   30.9890 C   0  0  0  0  0  0  0  0  0  0  0  0
  -26.3306   13.0636   37.6975 C   0  0  0  0  0  0  0  0  0  0  0  0
  -25.6591   11.7435   36.1669 H   0  0  0  0  0  0  0  0  0  0  0  0
  -21.4558    4.9475   33.6999 C   0  0  0  0  0  0  0  0  0  0  0  0
  -22.2375    5.2348   31.7331 H   0  0  0  0  0  0  0  0  0  0  0  0
  -25.6742    8.3198   39.3924 C   0  0  2  0  0  0  0  0  0  0  0  0
  -26.5603    7.1987   40.0376 C   0  0  1  0  0  0  0  0  0  0  0  0
  -27.8842    6.9930   39.4043 C   0  0  0  0  0  0  0  0  0  0  0  0
  -27.9499    6.6865   38.0828 C   0  0  0  0  0  0  0  0  0  0  0  0
  -29.0726    6.4966   37.3184 C   0  0  0  0  0  0  0  0  0  0  0  0
  -29.0287    6.3584   35.9797 C   0  0  0  0  0  0  0  0  0  0  0  0
  -30.1349    6.2324   35.2104 C   0  0  0  0  0  0  0  0  0  0  0  0
  -30.5037    7.1888   34.3394 C   0  0  0  0  0  0  0  0  0  0  0  0
  -31.6930    7.1253   33.4864 C   0  0  2  0  0  0  0  0  0  0  0  0
  -31.3201    7.3222   31.9780 C   0  0  1  0  0  0  0  0  0  0  0  0
  -32.7135    8.2013   33.9522 C   0  0  0  0  0  0  0  0  0  0  0  0
  -32.1972    6.1617   33.5989 H   0  0  0  0  0  0  0  0  0  0  0  0
  -30.6103    6.0998   31.2901 C   0  0  2  0  0  0  0  0  0  0  0  0
  -29.7635    6.5057   30.1176 C   0  0  0  0  0  0  0  0  0  0  0  0
  -26.1747    7.5202   30.4999 C   0  0  0  0  0  0  0  0  0  0  0  0
  -26.6146    9.9472   31.0377 C   0  0  0  0  0  0  0  0  0  0  0  0
  -24.9622    9.1285   30.0358 H   0  0  0  0  0  0  0  0  0  0  0  0
  -26.9334    6.6683   31.2353 C   0  0  0  0  0  0  0  0  0  0  0  0
  -27.4492    5.4428   30.5790 C   0  0  2  0  0  0  0  0  0  0  0  0
  -27.2810    6.9555   32.6271 C   0  0  0  0  0  0  0  0  0  0  0  0
  -28.6181    5.7150   29.5689 C   0  0  1  0  0  0  0  0  0  0  0  0
  -27.8047    4.3922   31.4830 O   0  0  0  0  0  0  0  0  0  0  0  0
  -26.6171    5.0088   30.0176 H   0  0  0  0  0  0  0  0  0  0  0  0
  -26.3498    9.9024   40.6567 H   0  0  0  0  0  0  0  0  0  0  0  0
  -29.0940    7.0959   40.2316 C   0  0  0  0  0  0  0  0  0  0  0  0
  -26.6808    7.4708   41.0916 H   0  0  0  0  0  0  0  0  0  0  0  0
  -25.8645    5.9304   39.9322 O   0  0  0  0  0  0  0  0  0  0  0  0
  -30.0382    7.5751   29.5189 O   0  0  0  0  0  0  0  0  0  0  0  0
  -28.1925    6.3001   28.7444 H   0  0  0  0  0  0  0  0  0  0  0  0
  -29.1771    4.5072   29.0022 O   0  0  0  0  0  0  0  0  0  0  0  0
  -28.3785    3.8138   28.0269 C   0  0  0  0  0  0  0  0  0  0  0  0
  -25.1139    5.4746   41.0715 C   0  0  0  0  0  0  0  0  0  0  0  0
  -29.9602    5.6444   32.0358 H   0  0  0  0  0  0  0  0  0  0  0  0
  -31.6425    5.0115   30.8715 C   0  0  0  0  0  0  0  0  0  0  0  0
  -14.2973    4.2838   30.2850 C   0  0  0  0  0  0  0  0  0  0  0  0
  -14.1868    4.8646   29.1780 O   0  0  0  0  0  0  0  0  0  0  0  0
  -13.0816    3.9037   31.0750 C   0  0  1  0  0  0  0  0  0  0  0  0
  -13.4950    3.4885   32.5647 C   0  0  2  0  0  0  0  0  0  0  0  0
  -12.3099    2.7981   30.2300 C   0  0  0  0  0  0  0  0  0  0  0  0
  -12.1528    5.1642   31.1979 C   0  0  1  0  0  0  0  0  0  0  0  0
  -14.1823    2.2400   32.5765 O   0  0  0  0  0  0  0  0  0  0  0  0
  -12.8069    6.2872   31.7940 O   0  0  0  0  0  0  0  0  0  0  0  0
  -24.5604    7.3412   35.4067 O   0  0  0  0  0  0  0  0  0  0  0  0
  -24.7984    9.2674   33.1030 O   0  0  0  0  0  0  0  0  0  0  0  0
  -27.9734   11.0198   36.8761 H   0  0  0  0  0  0  0  0  0  0  0  0
  -26.8132    9.6996   36.7973 H   0  0  0  0  0  0  0  0  0  0  0  0
  -27.7940   11.1461   39.3061 H   0  0  0  0  0  0  0  0  0  0  0  0
  -28.1648    9.5144   38.8393 H   0  0  0  0  0  0  0  0  0  0  0  0
  -22.9770   11.8607   38.6653 H   0  0  0  0  0  0  0  0  0  0  0  0
  -23.9747    6.0023   37.8539 H   0  0  0  0  0  0  0  0  0  0  0  0
  -23.3346    4.9912   36.5546 H   0  0  0  0  0  0  0  0  0  0  0  0
  -21.2005    4.7204   37.7006 H   0  0  0  0  0  0  0  0  0  0  0  0
  -22.4929    4.3132   38.8198 H   0  0  0  0  0  0  0  0  0  0  0  0
  -20.6401    5.7900   39.8024 H   0  0  0  0  0  0  0  0  0  0  0  0
  -22.2781    6.4285   40.0025 H   0  0  0  0  0  0  0  0  0  0  0  0
  -20.7587    8.2035   39.3083 H   0  0  0  0  0  0  0  0  0  0  0  0
  -20.2047    7.3124   37.9292 H   0  0  0  0  0  0  0  0  0  0  0  0
  -23.2915    7.4799   30.8585 H   0  0  0  0  0  0  0  0  0  0  0  0
  -22.5144    8.7164   31.8490 H   0  0  0  0  0  0  0  0  0  0  0  0
  -20.3743    7.4983   32.4514 H   0  0  0  0  0  0  0  0  0  0  0  0
  -20.8783    6.9502   30.8588 H   0  0  0  0  0  0  0  0  0  0  0  0
  -18.4749    6.9539   29.9653 H   0  0  0  0  0  0  0  0  0  0  0  0
  -18.0675    7.6969   31.5142 H   0  0  0  0  0  0  0  0  0  0  0  0
  -16.3609    6.0536   31.9725 H   0  0  0  0  0  0  0  0  0  0  0  0
  -16.0968    6.6807   30.3424 H   0  0  0  0  0  0  0  0  0  0  0  0
  -20.0727    3.8513   31.3526 H   0  0  0  0  0  0  0  0  0  0  0  0
  -19.5902    4.6668   29.8833 H   0  0  0  0  0  0  0  0  0  0  0  0
  -18.5212    0.5072   30.3003 H   0  0  0  0  0  0  0  0  0  0  0  0
  -19.4128    1.5072   31.4546 H   0  0  0  0  0  0  0  0  0  0  0  0
  -17.7104    1.0938   31.7587 H   0  0  0  0  0  0  0  0  0  0  0  0
  -26.4070   13.1230   38.7838 H   0  0  0  0  0  0  0  0  0  0  0  0
  -25.5988   13.8039   37.3677 H   0  0  0  0  0  0  0  0  0  0  0  0
  -27.2937   13.3452   37.2676 H   0  0  0  0  0  0  0  0  0  0  0  0
  -20.8063    5.4672   34.4036 H   0  0  0  0  0  0  0  0  0  0  0  0
  -22.3507    4.6118   34.2264 H   0  0  0  0  0  0  0  0  0  0  0  0
  -20.9411    4.0478   33.3718 H   0  0  0  0  0  0  0  0  0  0  0  0
  -24.6859    8.2261   39.8480 H   0  0  0  0  0  0  0  0  0  0  0  0
  -25.5479    8.1240   38.3284 H   0  0  0  0  0  0  0  0  0  0  0  0
  -27.0826    6.6016   37.6024 H   0  0  0  0  0  0  0  0  0  0  0  0
  -29.9640    6.4766   37.7592 H   0  0  0  0  0  0  0  0  0  0  0  0
  -28.1521    6.3671   35.5094 H   0  0  0  0  0  0  0  0  0  0  0  0
  -30.6810    5.4067   35.3078 H   0  0  0  0  0  0  0  0  0  0  0  0
  -29.9433    8.0111   34.2607 H   0  0  0  0  0  0  0  0  0  0  0  0
  -32.2240    7.5584   31.4076 H   0  0  0  0  0  0  0  0  0  0  0  0
  -30.6781    8.2078   31.9089 H   0  0  0  0  0  0  0  0  0  0  0  0
  -33.6267    8.1463   33.3547 H   0  0  0  0  0  0  0  0  0  0  0  0
  -32.2939    9.2055   33.8483 H   0  0  0  0  0  0  0  0  0  0  0  0
  -32.9882    8.0401   34.9984 H   0  0  0  0  0  0  0  0  0  0  0  0
  -26.0053    7.2599   29.5514 H   0  0  0  0  0  0  0  0  0  0  0  0
  -26.1121   10.9162   30.9937 H   0  0  0  0  0  0  0  0  0  0  0  0
  -27.3443    9.9113   30.2250 H   0  0  0  0  0  0  0  0  0  0  0  0
  -27.1481    9.8949   31.9850 H   0  0  0  0  0  0  0  0  0  0  0  0
  -27.8782    7.8634   32.6899 H   0  0  0  0  0  0  0  0  0  0  0  0
  -27.8637    6.1655   33.0901 H   0  0  0  0  0  0  0  0  0  0  0  0
  -26.3872    7.0667   33.2351 H   0  0  0  0  0  0  0  0  0  0  0  0
  -28.0027    3.6163   30.9172 H   0  0  0  0  0  0  0  0  0  0  0  0
  -28.8939    7.4413   41.2468 H   0  0  0  0  0  0  0  0  0  0  0  0
  -29.5684    6.1165   40.3112 H   0  0  0  0  0  0  0  0  0  0  0  0
  -29.8030    7.8005   39.7925 H   0  0  0  0  0  0  0  0  0  0  0  0
  -28.9636    2.9848   27.6316 H   0  0  0  0  0  0  0  0  0  0  0  0
  -27.4765    3.4064   28.4801 H   0  0  0  0  0  0  0  0  0  0  0  0
  -28.1085    4.4677   27.1959 H   0  0  0  0  0  0  0  0  0  0  0  0
  -24.4966    4.6391   40.7436 H   0  0  0  0  0  0  0  0  0  0  0  0
  -25.7877    5.1211   41.8537 H   0  0  0  0  0  0  0  0  0  0  0  0
  -24.4613    6.2508   41.4741 H   0  0  0  0  0  0  0  0  0  0  0  0
  -31.1404    4.0854   30.5864 H   0  0  0  0  0  0  0  0  0  0  0  0
  -32.2489    5.3565   30.0296 H   0  0  0  0  0  0  0  0  0  0  0  0
  -32.3143    4.7683   31.6962 H   0  0  0  0  0  0  0  0  0  0  0  0
  -14.1372    4.2442   33.0250 H   0  0  0  0  0  0  0  0  0  0  0  0
  -12.6060    3.3754   33.1899 H   0  0  0  0  0  0  0  0  0  0  0  0
  -11.4085    2.4833   30.7591 H   0  0  0  0  0  0  0  0  0  0  0  0
  -12.9451    1.9196   30.0955 H   0  0  0  0  0  0  0  0  0  0  0  0
  -12.0209    3.1664   29.2432 H   0  0  0  0  0  0  0  0  0  0  0  0
  -11.2778    4.9294   31.8086 H   0  0  0  0  0  0  0  0  0  0  0  0
  -11.7856    5.4822   30.2187 H   0  0  0  0  0  0  0  0  0  0  0  0
  -14.3481    2.0491   33.5244 H   0  0  0  0  0  0  0  0  0  0  0  0
  -13.5599    6.4982   31.2008 H   0  0  0  0  0  0  0  0  0  0  0  0
  1  2  1  0  0  0  0 
  2  3  1  0  0  0  0 
  3  4  1  0  0  0  0 
  4  5  1  0  0  0  0 
  5  6  1  0  0  0  0 
  6  1  1  0  0  0  0 
  7  1  1  0  0  0  0 
  8  7  1  0  0  0  0 
  8  9  1  0  0  0  0 
  8 10  2  0  0  0  0 
  7 11  2  0  0  0  0 
  1 12  1  0  0  0  0 
  9 13  1  0  0  0  0 
 13 14  1  0  0  0  0 
 14 15  1  0  0  0  0 
 15 16  1  0  0  0  0 
 16 17  1  0  0  0  0 
 17  9  1  0  0  0  0 
 13 18  1  0  0  0  0 
 19 13  1  0  0  0  0 
 20 19  1  0  0  0  0 
 21 20  1  0  0  0  0 
 22 21  1  0  0  0  0 
 23 22  1  0  0  0  0 
 24 23  1  0  0  0  0 
 21 25  1  0  0  0  0 
 27 26  1  0  0  0  0 
 28 27  1  0  0  0  0 
 28 29  1  0  0  0  0 
 29 30  1  0  0  0  0 
 30 31  1  0  0  0  0 
 31 32  1  0  0  0  0 
 32 33  1  0  0  0  0 
 33 28  1  0  0  0  0 
 28 34  1  0  0  0  0 
 31 35  1  0  0  0  0 
 31 36  1  0  0  0  0 
 32 37  1  0  0  0  0 
 32 38  1  0  0  0  0 
 38 39  1  0  0  0  0 
  2 40  1  0  0  0  0 
  2 41  1  0  0  0  0 
 26 42  1  0  0  0  0 
 26 43  1  0  0  0  0 
  5 44  1  0  0  0  0 
 44 45  1  0  0  0  0 
 45 46  1  0  0  0  0 
 46 47  2  0  0  0  0 
 47 48  1  0  0  0  0 
 48 49  2  0  0  0  0 
 49 50  1  0  0  0  0 
 50 51  2  0  0  0  0 
 51 52  1  0  0  0  0 
 52 53  1  0  0  0  0 
 52 54  1  0  0  0  0 
 52 55  1  0  0  0  0 
 53 56  1  0  0  0  0 
 56 57  1  0  0  0  0 
 24 58  1  0  0  0  0 
 24 59  1  0  0  0  0 
 24 60  1  0  0  0  0 
 58 61  2  0  0  0  0 
 61 62  1  0  0  0  0 
 61 63  1  0  0  0  0 
 62 64  1  0  0  0  0 
 62 65  1  0  0  0  0 
 62 66  1  0  0  0  0 
 64 57  1  0  0  0  0 
  5 67  1  0  0  0  0 
 46 68  1  0  0  0  0 
 45 69  1  0  0  0  0 
 45 70  1  0  0  0  0 
 57 71  2  0  0  0  0 
 64 72  1  0  0  0  0 
 64 73  1  0  0  0  0 
 73 74  1  0  0  0  0 
 70 75  1  0  0  0  0 
 56 76  1  0  0  0  0 
 56 77  1  0  0  0  0 
 35 78  1  0  0  0  0 
 78 79  2  0  0  0  0 
 78 80  1  0  0  0  0 
 80 81  1  0  0  0  0 
 80 82  1  0  0  0  0 
 80 83  1  0  0  0  0 
 81 84  1  0  0  0  0 
 83 85  1  0  0  0  0 
 19 86  2  0  0  0  0 
 23 87  2  0  0  0  0 
 21 26  1  0  0  0  0 
  3 88  1  0  0  0  0 
  3 89  1  0  0  0  0 
  4 90  1  0  0  0  0 
  4 91  1  0  0  0  0 
 12 92  1  0  0  0  0 
 14 93  1  0  0  0  0 
 14 94  1  0  0  0  0 
 15 95  1  0  0  0  0 
 15 96  1  0  0  0  0 
 16 97  1  0  0  0  0 
 16 98  1  0  0  0  0 
 17 99  1  0  0  0  0 
 17100  1  0  0  0  0 
 22101  1  0  0  0  0 
 22102  1  0  0  0  0 
 27103  1  0  0  0  0 
 27104  1  0  0  0  0 
 29105  1  0  0  0  0 
 29106  1  0  0  0  0 
 30107  1  0  0  0  0 
 30108  1  0  0  0  0 
 33109  1  0  0  0  0 
 33110  1  0  0  0  0 
 39111  1  0  0  0  0 
 39112  1  0  0  0  0 
 39113  1  0  0  0  0 
 40114  1  0  0  0  0 
 40115  1  0  0  0  0 
 40116  1  0  0  0  0 
 42117  1  0  0  0  0 
 42118  1  0  0  0  0 
 42119  1  0  0  0  0 
 44120  1  0  0  0  0 
 44121  1  0  0  0  0 
 47122  1  0  0  0  0 
 48123  1  0  0  0  0 
 49124  1  0  0  0  0 
 50125  1  0  0  0  0 
 51126  1  0  0  0  0 
 53127  1  0  0  0  0 
 53128  1  0  0  0  0 
 54129  1  0  0  0  0 
 54130  1  0  0  0  0 
 54131  1  0  0  0  0 
 58132  1  0  0  0  0 
 59133  1  0  0  0  0 
 59134  1  0  0  0  0 
 59135  1  0  0  0  0 
 63136  1  0  0  0  0 
 63137  1  0  0  0  0 
 63138  1  0  0  0  0 
 65139  1  0  0  0  0 
 68140  1  0  0  0  0 
 68141  1  0  0  0  0 
 68142  1  0  0  0  0 
 74143  1  0  0  0  0 
 74144  1  0  0  0  0 
 74145  1  0  0  0  0 
 75146  1  0  0  0  0 
 75147  1  0  0  0  0 
 75148  1  0  0  0  0 
 77149  1  0  0  0  0 
 77150  1  0  0  0  0 
 77151  1  0  0  0  0 
 81152  1  0  0  0  0 
 81153  1  0  0  0  0 
 82154  1  0  0  0  0 
 82155  1  0  0  0  0 
 82156  1  0  0  0  0 
 83157  1  0  0  0  0 
 83158  1  0  0  0  0 
 84159  1  0  0  0  0 
 85160  1  0  0  0  0 
M  END
> <cdk:Title>
temsirolimus

> <Conformer>
1

> <SuperDrugID>
SD003393

$$$$
