trifluridine
  CDK     0628171801

 31 32  0  0  0  0  0  0  0  0999 V2000
    4.1863   -4.2992    0.5608 O   0  0  0  0  0  0  0  0  0  0  0  0
    5.3170   -3.7866    0.3910 C   0  0  0  0  0  0  0  0  0  0  0  0
    5.5202   -2.4593    0.0950 N   0  0  0  0  0  0  0  0  0  0  0  0
    6.3623   -4.6405    0.5083 N   0  0  0  0  0  0  0  0  0  0  0  0
    4.4320   -1.4933   -0.0004 C   0  0  2  0  0  0  0  0  0  0  0  0
    6.8074   -2.0341   -0.1336 C   0  0  0  0  0  0  0  0  0  0  0  0
    7.6387   -4.2407    0.3057 C   0  0  0  0  0  0  0  0  0  0  0  0
    3.2570   -1.8629    0.7504 O   0  0  0  0  0  0  0  0  0  0  0  0
    3.9829   -1.2378   -1.4620 C   0  0  1  0  0  0  0  0  0  0  0  0
    7.9235   -2.9022   -0.0488 C   0  0  0  0  0  0  0  0  0  0  0  0
    8.5389   -5.1016    0.4392 O   0  0  0  0  0  0  0  0  0  0  0  0
    2.0962   -1.5759   -0.0400 C   0  0  1  0  0  0  0  0  0  0  0  0
    2.5542   -1.7905   -1.4948 C   0  0  1  0  0  0  0  0  0  0  0  0
    9.3244   -2.4561   -0.3130 C   0  0  2  0  0  0  0  0  0  0  0  0
    0.9001   -2.4632    0.3787 C   0  0  2  0  0  0  0  0  0  0  0  0
    1.7258   -1.1156   -2.4379 O   0  0  0  0  0  0  0  0  0  0  0  0
   10.0857   -2.6094    0.8207 F   0  0  0  0  0  0  0  0  0  0  0  0
    9.4481   -1.1413   -0.6971 F   0  0  0  0  0  0  0  0  0  0  0  0
    9.8792   -3.2107   -1.3200 F   0  0  0  0  0  0  0  0  0  0  0  0
    0.5441   -2.2103    1.7324 O   0  0  0  0  0  0  0  0  0  0  0  0
    6.1919   -5.5679    0.7395 H   0  0  0  0  0  0  0  0  0  0  0  0
    4.7592   -0.5446    0.4401 H   0  0  0  0  0  0  0  0  0  0  0  0
    6.9714   -1.0521   -0.3724 H   0  0  0  0  0  0  0  0  0  0  0  0
    3.9782   -0.1637   -1.6743 H   0  0  0  0  0  0  0  0  0  0  0  0
    4.6149   -1.7388   -2.2003 H   0  0  0  0  0  0  0  0  0  0  0  0
    1.8180   -0.5271    0.1116 H   0  0  0  0  0  0  0  0  0  0  0  0
    2.5835   -2.8569   -1.7386 H   0  0  0  0  0  0  0  0  0  0  0  0
    1.1549   -3.5203    0.2764 H   0  0  0  0  0  0  0  0  0  0  0  0
    0.0328   -2.2441   -0.2482 H   0  0  0  0  0  0  0  0  0  0  0  0
    0.8544   -1.5580   -2.3638 H   0  0  0  0  0  0  0  0  0  0  0  0
   -0.2248   -2.7936    1.9039 H   0  0  0  0  0  0  0  0  0  0  0  0
  1  2  2  0  0  0  0 
  2  3  1  0  0  0  0 
  2  4  1  0  0  0  0 
  3  6  1  0  0  0  0 
  4  7  1  0  0  0  0 
  5  3  1  0  0  0  0 
  5  8  1  0  0  0  0 
  5  9  1  0  0  0  0 
  6 10  2  0  0  0  0 
  7 10  1  0  0  0  0 
  7 11  2  0  0  0  0 
 12  8  1  0  0  0  0 
 13  9  1  0  0  0  0 
 10 14  1  0  0  0  0 
 12 13  1  0  0  0  0 
 12 15  1  0  0  0  0 
 13 16  1  0  0  0  0 
 14 17  1  0  0  0  0 
 14 18  1  0  0  0  0 
 14 19  1  0  0  0  0 
 15 20  1  0  0  0  0 
 21  4  1  0  0  0  0 
  5 22  1  0  0  0  0 
 23  6  1  0  0  0  0 
 24  9  1  0  0  0  0 
 25  9  1  0  0  0  0 
 12 26  1  0  0  0  0 
 13 27  1  0  0  0  0 
 28 15  1  0  0  0  0 
 29 15  1  0  0  0  0 
 30 16  1  0  0  0  0 
 31 20  1  0  0  0  0 
M  END
> <cdk:Title>
trifluridine

> <Conformer>
1

> <SuperDrugID>
SD002473

$$$$
