teneligliptin
  CDK     0628171802

 60 64  0  0  0  0  0  0  0  0999 V2000
   -6.1742    0.0555   -3.2078 C   0  0  2  0  0  0  0  0  0  0  0  0
   -6.4307   -0.2279   -4.7171 C   0  0  2  0  0  0  0  0  0  0  0  0
   -5.6763   -1.3019   -5.3519 N   0  0  0  0  0  0  0  0  0  0  0  0
   -4.5850   -1.9347   -4.6440 C   0  0  1  0  0  0  0  0  0  0  0  0
   -4.5012   -1.6800   -3.1228 C   0  0  2  0  0  0  0  0  0  0  0  0
   -4.7583   -0.2367   -2.8357 N   0  0  2  0  0  0  0  0  0  0  0  0
   -4.3270    0.1857   -1.4554 C   0  0  1  0  0  0  0  0  0  0  0  0
   -5.9402   -1.6344   -6.6896 C   0  0  0  0  0  0  0  0  0  0  0  0
   -6.9572   -1.0740   -7.4710 C   0  0  0  0  0  0  0  0  0  0  0  0
   -6.9400   -1.6865   -8.7108 C   0  0  0  0  0  0  0  0  0  0  0  0
   -5.9365   -2.5677   -8.6937 N   0  0  0  0  0  0  0  0  0  0  0  0
   -5.3439   -2.5285   -7.5373 N   0  0  0  0  0  0  0  0  0  0  0  0
   -4.2674   -3.3401   -7.3500 C   0  0  0  0  0  0  0  0  0  0  0  0
   -4.4608   -4.7205   -7.1165 C   0  0  0  0  0  0  0  0  0  0  0  0
   -3.3577   -5.5669   -6.9030 C   0  0  0  0  0  0  0  0  0  0  0  0
   -2.0510   -5.0475   -6.9502 C   0  0  0  0  0  0  0  0  0  0  0  0
   -1.8464   -3.6812   -7.2158 C   0  0  0  0  0  0  0  0  0  0  0  0
   -2.9499   -2.8309   -7.4188 C   0  0  0  0  0  0  0  0  0  0  0  0
   -7.8492   -1.4427   -9.8380 C   0  0  0  0  0  0  0  0  0  0  0  0
   -2.7945    0.1143   -1.2604 C   0  0  2  0  0  0  0  0  0  0  0  0
   -2.4267    1.1630   -0.1808 C   0  0  2  0  0  0  0  0  0  0  0  0
   -3.6672    1.9385    0.0456 N   0  0  1  0  0  0  0  0  0  0  0  0
   -4.5694    1.6630   -1.0835 C   0  0  1  0  0  0  0  0  0  0  0  0
   -1.2485    2.0132   -0.5352 C   0  0  0  0  0  0  0  0  0  0  0  0
   -1.4616    3.2440   -0.6698 O   0  0  0  0  0  0  0  0  0  0  0  0
    0.0432    1.5304   -0.7125 N   0  0  0  0  0  0  0  0  0  0  0  0
    1.1219    2.4326   -1.0271 C   0  0  2  0  0  0  0  0  0  0  0  0
    2.5333    1.3613   -1.4374 S   0  0  0  0  0  0  0  0  0  0  0  0
    1.9168   -0.1076   -0.5724 C   0  0  2  0  0  0  0  0  0  0  0  0
    0.3903    0.1237   -0.6055 C   0  0  1  0  0  0  0  0  0  0  0  0
   -4.8198   -0.4398   -0.7016 H   0  0  0  0  0  0  0  0  0  0  0  0
   -2.2009    0.6611    0.7641 H   0  0  0  0  0  0  0  0  0  0  0  0
   -6.8558   -0.5446   -2.5951 H   0  0  0  0  0  0  0  0  0  0  0  0
   -6.4197    1.1033   -3.0228 H   0  0  0  0  0  0  0  0  0  0  0  0
   -6.2078    0.6926   -5.2668 H   0  0  0  0  0  0  0  0  0  0  0  0
   -7.5020   -0.4288   -4.8191 H   0  0  0  0  0  0  0  0  0  0  0  0
   -4.6432   -3.0185   -4.7600 H   0  0  0  0  0  0  0  0  0  0  0  0
   -3.6498   -1.5797   -5.0859 H   0  0  0  0  0  0  0  0  0  0  0  0
   -3.5047   -1.9877   -2.7990 H   0  0  0  0  0  0  0  0  0  0  0  0
   -5.2213   -2.3211   -2.5999 H   0  0  0  0  0  0  0  0  0  0  0  0
   -7.6165   -0.3450   -7.1962 H   0  0  0  0  0  0  0  0  0  0  0  0
   -5.4060   -5.1138   -7.0994 H   0  0  0  0  0  0  0  0  0  0  0  0
   -3.5063   -6.5597   -6.7111 H   0  0  0  0  0  0  0  0  0  0  0  0
   -1.2504   -5.6627   -6.7923 H   0  0  0  0  0  0  0  0  0  0  0  0
   -0.8956   -3.3061   -7.2632 H   0  0  0  0  0  0  0  0  0  0  0  0
   -2.7893   -1.8403   -7.6141 H   0  0  0  0  0  0  0  0  0  0  0  0
   -8.3101   -0.4584   -9.7512 H   0  0  0  0  0  0  0  0  0  0  0  0
   -7.3013   -1.4918  -10.7799 H   0  0  0  0  0  0  0  0  0  0  0  0
   -8.6316   -2.2021   -9.8397 H   0  0  0  0  0  0  0  0  0  0  0  0
   -2.3009    0.3459   -2.2100 H   0  0  0  0  0  0  0  0  0  0  0  0
   -2.4913   -0.8867   -0.9430 H   0  0  0  0  0  0  0  0  0  0  0  0
   -4.1153    1.5278    0.8692 H   0  0  0  0  0  0  0  0  0  0  0  0
   -4.3288    2.3285   -1.9182 H   0  0  0  0  0  0  0  0  0  0  0  0
   -5.6041    1.8330   -0.7785 H   0  0  0  0  0  0  0  0  0  0  0  0
    1.3692    3.0359   -0.1518 H   0  0  0  0  0  0  0  0  0  0  0  0
    0.8965    3.0803   -1.8777 H   0  0  0  0  0  0  0  0  0  0  0  0
    2.2925   -0.1031    0.4525 H   0  0  0  0  0  0  0  0  0  0  0  0
    2.2183   -1.0257   -1.0816 H   0  0  0  0  0  0  0  0  0  0  0  0
   -0.0333   -0.3169    0.2999 H   0  0  0  0  0  0  0  0  0  0  0  0
   -0.0111   -0.4063   -1.4728 H   0  0  0  0  0  0  0  0  0  0  0  0
  1  2  1  0  0  0  0 
  1  6  1  0  0  0  0 
  2  3  1  0  0  0  0 
  3  4  1  0  0  0  0 
  4  5  1  0  0  0  0 
  5  6  1  0  0  0  0 
  7  6  1  0  0  0  0 
  3  8  1  0  0  0  0 
  9 10  1  0  0  0  0 
 10 11  2  0  0  0  0 
 11 12  1  0  0  0  0 
  8  9  2  0  0  0  0 
  8 12  1  0  0  0  0 
 12 13  1  0  0  0  0 
 14 15  1  0  0  0  0 
 15 16  2  0  0  0  0 
 16 17  1  0  0  0  0 
 17 18  2  0  0  0  0 
 13 14  2  0  0  0  0 
 13 18  1  0  0  0  0 
 10 19  1  0  0  0  0 
 20 21  1  0  0  0  0 
 21 22  1  0  0  0  0 
 22 23  1  0  0  0  0 
  7 20  1  0  0  0  0 
  7 23  1  0  0  0  0 
 21 24  1  0  0  0  0 
 24 25  2  0  0  0  0 
 24 26  1  0  0  0  0 
 27 28  1  0  0  0  0 
 28 29  1  0  0  0  0 
 29 30  1  0  0  0  0 
 26 27  1  0  0  0  0 
 26 30  1  0  0  0  0 
  7 31  1  0  0  0  0 
 21 32  1  0  0  0  0 
  1 33  1  0  0  0  0 
  1 34  1  0  0  0  0 
  2 35  1  0  0  0  0 
  2 36  1  0  0  0  0 
  4 37  1  0  0  0  0 
  4 38  1  0  0  0  0 
  5 39  1  0  0  0  0 
  5 40  1  0  0  0  0 
  9 41  1  0  0  0  0 
 14 42  1  0  0  0  0 
 15 43  1  0  0  0  0 
 16 44  1  0  0  0  0 
 17 45  1  0  0  0  0 
 18 46  1  0  0  0  0 
 19 47  1  0  0  0  0 
 19 48  1  0  0  0  0 
 19 49  1  0  0  0  0 
 20 50  1  0  0  0  0 
 20 51  1  0  0  0  0 
 22 52  1  0  0  0  0 
 23 53  1  0  0  0  0 
 23 54  1  0  0  0  0 
 27 55  1  0  0  0  0 
 27 56  1  0  0  0  0 
 29 57  1  0  0  0  0 
 29 58  1  0  0  0  0 
 30 59  1  0  0  0  0 
 30 60  1  0  0  0  0 
M  END
> <cdk:Title>
teneligliptin

> <Conformer>
1

> <SuperDrugID>
SD003833

$$$$
