cetrimonium
  CDK     0628171801

 62 61  0  0  0  0  0  0  0  0999 V2000
   -3.2729    6.1496   -8.2565 C   0  0  2  0  0  0  0  0  0  0  0  0
   -3.3596    4.6178   -8.4996 C   0  0  2  0  0  0  0  0  0  0  0  0
   -4.2452    6.9313   -9.1812 C   0  0  1  0  0  0  0  0  0  0  0  0
   -2.4064    3.7913   -7.5991 C   0  0  2  0  0  0  0  0  0  0  0  0
   -4.1934    8.4741   -8.9730 C   0  0  1  0  0  0  0  0  0  0  0  0
   -2.5341    2.2698   -7.8836 C   0  0  2  0  0  0  0  0  0  0  0  0
   -5.1033    9.3475   -9.8240 N   0  0  2  0  0  0  0  0  0  0  0  0
   -1.5986    1.4008   -7.0056 C   0  0  1  0  0  0  0  0  0  0  0  0
   -4.8680   10.7932   -9.4362 C   0  0  0  0  0  0  0  0  0  0  0  0
   -6.5587    9.0225   -9.5791 C   0  0  0  0  0  0  0  0  0  0  0  0
   -4.7891    9.1946  -11.2944 C   0  0  0  0  0  0  0  0  0  0  0  0
   -1.7578   -0.1124   -7.3218 C   0  0  1  0  0  0  0  0  0  0  0  0
   -0.8197   -0.9781   -6.4408 C   0  0  2  0  0  0  0  0  0  0  0  0
   -0.9508   -2.4973   -6.7285 C   0  0  1  0  0  0  0  0  0  0  0  0
   -0.0041   -3.3455   -5.8368 C   0  0  2  0  0  0  0  0  0  0  0  0
   -0.1204   -4.8678   -6.1096 C   0  0  2  0  0  0  0  0  0  0  0  0
    0.8289   -5.7094   -5.2147 C   0  0  2  0  0  0  0  0  0  0  0  0
    0.7038   -7.2293   -5.4962 C   0  0  1  0  0  0  0  0  0  0  0  0
    1.6459   -8.0846   -4.6101 C   0  0  1  0  0  0  0  0  0  0  0  0
    1.5140   -9.5970   -4.8979 C   0  0  0  0  0  0  0  0  0  0  0  0
   -2.2488    6.4872   -8.4390 H   0  0  0  0  0  0  0  0  0  0  0  0
   -3.5150    6.3641   -7.2118 H   0  0  0  0  0  0  0  0  0  0  0  0
   -3.1203    4.4099   -9.5466 H   0  0  0  0  0  0  0  0  0  0  0  0
   -4.3865    4.2867   -8.3194 H   0  0  0  0  0  0  0  0  0  0  0  0
   -3.9890    6.6953  -10.2154 H   0  0  0  0  0  0  0  0  0  0  0  0
   -5.2571    6.5720   -8.9863 H   0  0  0  0  0  0  0  0  0  0  0  0
   -2.6493    3.9863   -6.5500 H   0  0  0  0  0  0  0  0  0  0  0  0
   -1.3759    4.1102   -7.7842 H   0  0  0  0  0  0  0  0  0  0  0  0
   -4.4075    8.6560   -7.9147 H   0  0  0  0  0  0  0  0  0  0  0  0
   -3.1534    8.7780   -9.1302 H   0  0  0  0  0  0  0  0  0  0  0  0
   -2.3000    2.0879   -8.9372 H   0  0  0  0  0  0  0  0  0  0  0  0
   -3.5700    1.9643   -7.7062 H   0  0  0  0  0  0  0  0  0  0  0  0
   -0.5621    1.7038   -7.1816 H   0  0  0  0  0  0  0  0  0  0  0  0
   -1.8311    1.5803   -5.9517 H   0  0  0  0  0  0  0  0  0  0  0  0
   -5.4980   11.4759  -10.0176 H   0  0  0  0  0  0  0  0  0  0  0  0
   -5.0938   10.9616   -8.3766 H   0  0  0  0  0  0  0  0  0  0  0  0
   -3.8249   11.0851   -9.6064 H   0  0  0  0  0  0  0  0  0  0  0  0
   -6.8230    8.0249   -9.9389 H   0  0  0  0  0  0  0  0  0  0  0  0
   -7.2203    9.7326  -10.0837 H   0  0  0  0  0  0  0  0  0  0  0  0
   -6.7995    9.0566   -8.5139 H   0  0  0  0  0  0  0  0  0  0  0  0
   -5.0404    8.1983  -11.6666 H   0  0  0  0  0  0  0  0  0  0  0  0
   -3.7267    9.3555  -11.4923 H   0  0  0  0  0  0  0  0  0  0  0  0
   -5.3446    9.9151  -11.9018 H   0  0  0  0  0  0  0  0  0  0  0  0
   -2.8248   -0.3956   -7.0528 H   0  0  0  0  0  0  0  0  0  0  0  0
   -1.4340   -0.2604   -8.4007 H   0  0  0  0  0  0  0  0  0  0  0  0
   -1.0521   -0.7974   -5.3873 H   0  0  0  0  0  0  0  0  0  0  0  0
    0.2162   -0.6740   -6.6166 H   0  0  0  0  0  0  0  0  0  0  0  0
   -1.9843   -2.8083   -6.5501 H   0  0  0  0  0  0  0  0  0  0  0  0
   -0.7153   -2.6849   -7.7802 H   0  0  0  0  0  0  0  0  0  0  0  0
   -0.2406   -3.1546   -4.7862 H   0  0  0  0  0  0  0  0  0  0  0  0
    1.0281   -3.0312   -6.0159 H   0  0  0  0  0  0  0  0  0  0  0  0
    0.1175   -5.0595   -7.1599 H   0  0  0  0  0  0  0  0  0  0  0  0
   -1.1522   -5.1830   -5.9292 H   0  0  0  0  0  0  0  0  0  0  0  0
    0.5920   -5.5197   -4.1637 H   0  0  0  0  0  0  0  0  0  0  0  0
    1.8615   -5.3962   -5.3942 H   0  0  0  0  0  0  0  0  0  0  0  0
   -0.3295   -7.5402   -5.3173 H   0  0  0  0  0  0  0  0  0  0  0  0
    0.9399   -7.4168   -6.5477 H   0  0  0  0  0  0  0  0  0  0  0  0
    2.6833   -7.7860   -4.7855 H   0  0  0  0  0  0  0  0  0  0  0  0
    1.4144   -7.9094   -3.5556 H   0  0  0  0  0  0  0  0  0  0  0  0
    2.1941  -10.1578   -4.2526 H   0  0  0  0  0  0  0  0  0  0  0  0
    0.4929   -9.9342   -4.7039 H   0  0  0  0  0  0  0  0  0  0  0  0
    1.7674   -9.8102   -5.9392 H   0  0  0  0  0  0  0  0  0  0  0  0
  1  2  1  0  0  0  0 
  1  3  1  0  0  0  0 
  2  4  1  0  0  0  0 
  3  5  1  0  0  0  0 
  4  6  1  0  0  0  0 
  5  7  1  0  0  0  0 
  6  8  1  0  0  0  0 
  7  9  1  0  0  0  0 
  7 10  1  0  0  0  0 
  7 11  1  0  0  0  0 
  8 12  1  0  0  0  0 
 12 13  1  0  0  0  0 
 13 14  1  0  0  0  0 
 14 15  1  0  0  0  0 
 15 16  1  0  0  0  0 
 16 17  1  0  0  0  0 
 17 18  1  0  0  0  0 
 18 19  1  0  0  0  0 
 19 20  1  0  0  0  0 
  1 21  1  0  0  0  0 
  1 22  1  0  0  0  0 
  2 23  1  0  0  0  0 
  2 24  1  0  0  0  0 
  3 25  1  0  0  0  0 
  3 26  1  0  0  0  0 
  4 27  1  0  0  0  0 
  4 28  1  0  0  0  0 
  5 29  1  0  0  0  0 
  5 30  1  0  0  0  0 
  6 31  1  0  0  0  0 
  6 32  1  0  0  0  0 
  8 33  1  0  0  0  0 
  8 34  1  0  0  0  0 
  9 35  1  0  0  0  0 
  9 36  1  0  0  0  0 
  9 37  1  0  0  0  0 
 10 38  1  0  0  0  0 
 10 39  1  0  0  0  0 
 10 40  1  0  0  0  0 
 11 41  1  0  0  0  0 
 11 42  1  0  0  0  0 
 11 43  1  0  0  0  0 
 12 44  1  0  0  0  0 
 12 45  1  0  0  0  0 
 13 46  1  0  0  0  0 
 13 47  1  0  0  0  0 
 14 48  1  0  0  0  0 
 14 49  1  0  0  0  0 
 15 50  1  0  0  0  0 
 15 51  1  0  0  0  0 
 16 52  1  0  0  0  0 
 16 53  1  0  0  0  0 
 17 54  1  0  0  0  0 
 17 55  1  0  0  0  0 
 18 56  1  0  0  0  0 
 18 57  1  0  0  0  0 
 19 58  1  0  0  0  0 
 19 59  1  0  0  0  0 
 20 60  1  0  0  0  0 
 20 61  1  0  0  0  0 
 20 62  1  0  0  0  0 
M  CHG  1   7   1
M  END
> <cdk:Title>
cetrimonium

> <Conformer>
1

> <SuperDrugID>
SD002677

$$$$
