hydroxyethylpromethazine
  CDK     0628171801

 48 50  0  0  0  0  0  0  0  0999 V2000
   -0.6466    1.0309   -3.1234 C   0  0  1  0  0  0  0  0  0  0  0  0
   -1.5137    1.1995   -1.8143 C   0  0  1  0  0  0  0  0  0  0  0  0
   -1.2787    0.3513   -4.2537 N   0  0  0  0  0  0  0  0  0  0  0  0
   -0.8340    1.9481   -0.6404 N   0  0  2  0  0  0  0  0  0  0  0  0
   -2.9278    1.7492   -2.2159 C   0  0  0  0  0  0  0  0  0  0  0  0
   -1.3157    0.9737   -5.5046 C   0  0  0  0  0  0  0  0  0  0  0  0
   -1.8603   -0.9118   -4.0919 C   0  0  0  0  0  0  0  0  0  0  0  0
    0.5722    1.4252   -0.3276 C   0  0  2  0  0  0  0  0  0  0  0  0
   -1.6700    1.8283    0.6264 C   0  0  0  0  0  0  0  0  0  0  0  0
   -0.6825    3.4323   -0.9348 C   0  0  0  0  0  0  0  0  0  0  0  0
   -2.4725    0.9014   -6.3227 C   0  0  0  0  0  0  0  0  0  0  0  0
   -0.1962    1.6778   -6.0241 C   0  0  0  0  0  0  0  0  0  0  0  0
   -3.0940   -1.2258   -4.7215 C   0  0  0  0  0  0  0  0  0  0  0  0
   -1.2641   -1.9266   -3.2989 C   0  0  0  0  0  0  0  0  0  0  0  0
    0.7371   -0.0596    0.0989 C   0  0  1  0  0  0  0  0  0  0  0  0
   -3.8529   -0.0307   -5.7645 S   0  0  0  0  0  0  0  0  0  0  0  0
   -2.5232    1.5208   -7.5855 C   0  0  0  0  0  0  0  0  0  0  0  0
   -0.2399    2.2987   -7.2852 C   0  0  0  0  0  0  0  0  0  0  0  0
   -3.7174   -2.4766   -4.5484 C   0  0  0  0  0  0  0  0  0  0  0  0
   -1.8837   -3.1770   -3.1158 C   0  0  0  0  0  0  0  0  0  0  0  0
    2.1074   -0.3383    0.3740 O   0  0  0  0  0  0  0  0  0  0  0  0
   -1.4038    2.2182   -8.0669 C   0  0  0  0  0  0  0  0  0  0  0  0
   -3.1126   -3.4511   -3.7395 C   0  0  0  0  0  0  0  0  0  0  0  0
   -0.3279    2.0333   -3.4067 H   0  0  0  0  0  0  0  0  0  0  0  0
    0.2666    0.4794   -2.9043 H   0  0  0  0  0  0  0  0  0  0  0  0
   -1.7052    0.1815   -1.4666 H   0  0  0  0  0  0  0  0  0  0  0  0
   -3.4364    1.0631   -2.8894 H   0  0  0  0  0  0  0  0  0  0  0  0
   -2.8538    2.7123   -2.7215 H   0  0  0  0  0  0  0  0  0  0  0  0
   -3.5811    1.8531   -1.3527 H   0  0  0  0  0  0  0  0  0  0  0  0
    1.0162    2.0155    0.4828 H   0  0  0  0  0  0  0  0  0  0  0  0
    1.2343    1.5882   -1.1826 H   0  0  0  0  0  0  0  0  0  0  0  0
   -1.9589    0.7929    0.8231 H   0  0  0  0  0  0  0  0  0  0  0  0
   -1.1355    2.1922    1.5084 H   0  0  0  0  0  0  0  0  0  0  0  0
   -2.5921    2.4085    0.5789 H   0  0  0  0  0  0  0  0  0  0  0  0
   -1.6403    3.9186   -1.1283 H   0  0  0  0  0  0  0  0  0  0  0  0
   -0.2329    3.9674   -0.0921 H   0  0  0  0  0  0  0  0  0  0  0  0
   -0.0407    3.6162   -1.7996 H   0  0  0  0  0  0  0  0  0  0  0  0
    0.6762    1.7339   -5.4923 H   0  0  0  0  0  0  0  0  0  0  0  0
   -0.3627   -1.7714   -2.8478 H   0  0  0  0  0  0  0  0  0  0  0  0
    0.1679   -0.2663    1.0055 H   0  0  0  0  0  0  0  0  0  0  0  0
    0.4039   -0.7342   -0.6890 H   0  0  0  0  0  0  0  0  0  0  0  0
   -3.3642    1.4529   -8.1662 H   0  0  0  0  0  0  0  0  0  0  0  0
    0.5772    2.7966   -7.6397 H   0  0  0  0  0  0  0  0  0  0  0  0
   -4.6043   -2.6888   -5.0103 H   0  0  0  0  0  0  0  0  0  0  0  0
   -1.4398   -3.8888   -2.5327 H   0  0  0  0  0  0  0  0  0  0  0  0
    2.1186   -1.2682    0.6855 H   0  0  0  0  0  0  0  0  0  0  0  0
   -1.4346    2.6576   -8.9897 H   0  0  0  0  0  0  0  0  0  0  0  0
   -3.5614   -4.3624   -3.6101 H   0  0  0  0  0  0  0  0  0  0  0  0
  1  2  1  0  0  0  0 
  1  3  1  0  0  0  0 
  2  4  1  0  0  0  0 
  2  5  1  0  0  0  0 
  3  6  1  0  0  0  0 
  3  7  1  0  0  0  0 
  4  8  1  0  0  0  0 
  4  9  1  0  0  0  0 
  4 10  1  0  0  0  0 
  6 11  2  0  0  0  0 
  6 12  1  0  0  0  0 
  7 13  2  0  0  0  0 
  7 14  1  0  0  0  0 
  8 15  1  0  0  0  0 
 11 16  1  0  0  0  0 
 11 17  1  0  0  0  0 
 12 18  2  0  0  0  0 
 13 16  1  0  0  0  0 
 13 19  1  0  0  0  0 
 14 20  2  0  0  0  0 
 15 21  1  0  0  0  0 
 17 22  2  0  0  0  0 
 18 22  1  0  0  0  0 
 19 23  2  0  0  0  0 
 20 23  1  0  0  0  0 
  1 24  1  0  0  0  0 
  1 25  1  0  0  0  0 
  2 26  1  0  0  0  0 
  5 27  1  0  0  0  0 
  5 28  1  0  0  0  0 
  5 29  1  0  0  0  0 
  8 30  1  0  0  0  0 
  8 31  1  0  0  0  0 
  9 32  1  0  0  0  0 
  9 33  1  0  0  0  0 
  9 34  1  0  0  0  0 
 10 35  1  0  0  0  0 
 10 36  1  0  0  0  0 
 10 37  1  0  0  0  0 
 12 38  1  0  0  0  0 
 14 39  1  0  0  0  0 
 15 40  1  0  0  0  0 
 15 41  1  0  0  0  0 
 17 42  1  0  0  0  0 
 18 43  1  0  0  0  0 
 19 44  1  0  0  0  0 
 20 45  1  0  0  0  0 
 21 46  1  0  0  0  0 
 22 47  1  0  0  0  0 
 23 48  1  0  0  0  0 
M  CHG  1   4   1
M  END
> <cdk:Title>
hydroxyethylpromethazine

> <Conformer>
1

> <SuperDrugID>
SD003628

$$$$
