fabomotizole
  CDK     0628171801

 42 44  0  0  0  0  0  0  0  0999 V2000
   -2.1072   -1.7668   -0.5197 S   0  0  0  0  0  0  0  0  0  0  0  0
   -2.8844   -0.3913    0.3977 C   0  0  1  0  0  0  0  0  0  0  0  0
   -1.5944   -2.8880    0.7168 C   0  0  0  0  0  0  0  0  0  0  0  0
   -1.9177    0.3773    1.3412 C   0  0  2  0  0  0  0  0  0  0  0  0
   -2.3959   -3.7526    1.3625 N   0  0  0  0  0  0  0  0  0  0  0  0
   -0.3299   -2.9593    1.1738 N   0  0  0  0  0  0  0  0  0  0  0  0
   -1.4493   -0.3639    2.5617 N   0  0  1  0  0  0  0  0  0  0  0  0
   -1.6425   -4.3851    2.2653 C   0  0  0  0  0  0  0  0  0  0  0  0
   -0.3491   -3.8852    2.1412 C   0  0  0  0  0  0  0  0  0  0  0  0
   -0.2631    0.2875    3.2054 C   0  0  1  0  0  0  0  0  0  0  0  0
   -2.5229   -0.6543    3.5669 C   0  0  2  0  0  0  0  0  0  0  0  0
   -1.9645   -5.3606    3.2214 C   0  0  0  0  0  0  0  0  0  0  0  0
    0.6884   -4.3396    2.9695 C   0  0  0  0  0  0  0  0  0  0  0  0
    0.2380   -0.5398    4.4139 C   0  0  1  0  0  0  0  0  0  0  0  0
   -1.9658   -1.4347    4.7830 C   0  0  2  0  0  0  0  0  0  0  0  0
   -0.9315   -5.8295    4.0674 C   0  0  0  0  0  0  0  0  0  0  0  0
    0.3875   -5.3247    3.9339 C   0  0  0  0  0  0  0  0  0  0  0  0
   -0.8270   -0.7648    5.3577 O   0  0  0  0  0  0  0  0  0  0  0  0
   -1.1997   -6.7840    5.0077 O   0  0  0  0  0  0  0  0  0  0  0  0
   -1.5904   -6.2261    6.2779 C   0  0  1  0  0  0  0  0  0  0  0  0
   -1.8227   -7.3745    7.2758 C   0  0  0  0  0  0  0  0  0  0  0  0
   -3.2476    0.3052   -0.3598 H   0  0  0  0  0  0  0  0  0  0  0  0
   -3.7546   -0.7623    0.9400 H   0  0  0  0  0  0  0  0  0  0  0  0
   -2.4058    1.3045    1.6537 H   0  0  0  0  0  0  0  0  0  0  0  0
   -1.0552    0.6627    0.7315 H   0  0  0  0  0  0  0  0  0  0  0  0
   -3.3461   -3.8829    1.2129 H   0  0  0  0  0  0  0  0  0  0  0  0
    0.5581    0.3747    2.4898 H   0  0  0  0  0  0  0  0  0  0  0  0
   -0.5249    1.2923    3.5484 H   0  0  0  0  0  0  0  0  0  0  0  0
   -3.3102   -1.2653    3.1266 H   0  0  0  0  0  0  0  0  0  0  0  0
   -2.9695    0.2791    3.9205 H   0  0  0  0  0  0  0  0  0  0  0  0
   -2.9227   -5.7118    3.3057 H   0  0  0  0  0  0  0  0  0  0  0  0
    1.6353   -3.9621    2.8762 H   0  0  0  0  0  0  0  0  0  0  0  0
    0.6556   -1.4915    4.0752 H   0  0  0  0  0  0  0  0  0  0  0  0
    1.0305    0.0082    4.9252 H   0  0  0  0  0  0  0  0  0  0  0  0
   -1.6951   -2.4509    4.4898 H   0  0  0  0  0  0  0  0  0  0  0  0
   -2.7419   -1.5093    5.5464 H   0  0  0  0  0  0  0  0  0  0  0  0
    1.1311   -5.6732    4.5441 H   0  0  0  0  0  0  0  0  0  0  0  0
   -0.8090   -5.5706    6.6784 H   0  0  0  0  0  0  0  0  0  0  0  0
   -2.5200   -5.6555    6.1800 H   0  0  0  0  0  0  0  0  0  0  0  0
   -0.8968   -7.9323    7.4290 H   0  0  0  0  0  0  0  0  0  0  0  0
   -2.1547   -6.9720    8.2347 H   0  0  0  0  0  0  0  0  0  0  0  0
   -2.5873   -8.0539    6.8947 H   0  0  0  0  0  0  0  0  0  0  0  0
  1  2  1  0  0  0  0 
  1  3  1  0  0  0  0 
  2  4  1  0  0  0  0 
  3  5  1  0  0  0  0 
  3  6  2  0  0  0  0 
  4  7  1  0  0  0  0 
  5  8  1  0  0  0  0 
  6  9  1  0  0  0  0 
  7 10  1  0  0  0  0 
  7 11  1  0  0  0  0 
  8  9  1  0  0  0  0 
  8 12  2  0  0  0  0 
  9 13  2  0  0  0  0 
 10 14  1  0  0  0  0 
 11 15  1  0  0  0  0 
 12 16  1  0  0  0  0 
 13 17  1  0  0  0  0 
 14 18  1  0  0  0  0 
 15 18  1  0  0  0  0 
 16 17  2  0  0  0  0 
 16 19  1  0  0  0  0 
 19 20  1  0  0  0  0 
 20 21  1  0  0  0  0 
 22  2  1  0  0  0  0 
 23  2  1  0  0  0  0 
 24  4  1  0  0  0  0 
 25  4  1  0  0  0  0 
 26  5  1  0  0  0  0 
 27 10  1  0  0  0  0 
 28 10  1  0  0  0  0 
 29 11  1  0  0  0  0 
 30 11  1  0  0  0  0 
 31 12  1  0  0  0  0 
 32 13  1  0  0  0  0 
 33 14  1  0  0  0  0 
 34 14  1  0  0  0  0 
 35 15  1  0  0  0  0 
 36 15  1  0  0  0  0 
 37 17  1  0  0  0  0 
 38 20  1  0  0  0  0 
 39 20  1  0  0  0  0 
 40 21  1  0  0  0  0 
 41 21  1  0  0  0  0 
 42 21  1  0  0  0  0 
M  END
> <cdk:Title>
fabomotizole

> <Conformer>
1

> <SuperDrugID>
SD003351

$$$$
