fenoldopam
  CDK     0628171801

 37 39  0  0  0  0  0  0  0  0999 V2000
   -0.1132    7.2381   -4.2017 Cl  0  0  0  0  0  0  0  0  0  0  0  0
    0.1564    6.4497   -2.7151 C   0  0  0  0  0  0  0  0  0  0  0  0
    0.9459    5.2628   -2.5925 C   0  0  0  0  0  0  0  0  0  0  0  0
   -0.4491    7.0319   -1.5763 C   0  0  0  0  0  0  0  0  0  0  0  0
    1.1522    4.6996   -1.2918 C   0  0  0  0  0  0  0  0  0  0  0  0
    1.5533    4.5998   -3.7956 C   0  0  2  0  0  0  0  0  0  0  0  0
   -1.2255    8.1497   -1.6453 O   0  0  0  0  0  0  0  0  0  0  0  0
   -0.2624    6.4571   -0.3108 C   0  0  0  0  0  0  0  0  0  0  0  0
    1.9744    3.4564   -1.0323 C   0  0  2  0  0  0  0  0  0  0  0  0
    0.5464    5.3241   -0.1744 C   0  0  0  0  0  0  0  0  0  0  0  0
    3.1017    4.5990   -3.7904 C   0  0  2  0  0  0  0  0  0  0  0  0
   -0.8438    6.9735    0.8041 O   0  0  0  0  0  0  0  0  0  0  0  0
    3.4528    3.7227   -1.4652 C   0  0  1  0  0  0  0  0  0  0  0  0
    1.3348    2.1768   -1.5182 C   0  0  0  0  0  0  0  0  0  0  0  0
    3.6917    3.5698   -2.9145 N   0  0  2  0  0  0  0  0  0  0  0  0
    2.1015    1.0590   -1.9419 C   0  0  0  0  0  0  0  0  0  0  0  0
   -0.0779    2.0248   -1.5131 C   0  0  0  0  0  0  0  0  0  0  0  0
    1.4899   -0.1303   -2.3761 C   0  0  0  0  0  0  0  0  0  0  0  0
   -0.6928    0.8386   -1.9508 C   0  0  0  0  0  0  0  0  0  0  0  0
    0.0888   -0.2429   -2.3889 C   0  0  0  0  0  0  0  0  0  0  0  0
   -0.5180   -1.3827   -2.8058 O   0  0  0  0  0  0  0  0  0  0  0  0
    1.2513    5.0813   -4.7220 H   0  0  0  0  0  0  0  0  0  0  0  0
    1.1839    3.5765   -3.8773 H   0  0  0  0  0  0  0  0  0  0  0  0
   -1.0051    8.5962   -2.4877 H   0  0  0  0  0  0  0  0  0  0  0  0
    2.0463    3.2942    0.0493 H   0  0  0  0  0  0  0  0  0  0  0  0
    0.6775    4.9452    0.7688 H   0  0  0  0  0  0  0  0  0  0  0  0
    3.4876    5.5870   -3.5323 H   0  0  0  0  0  0  0  0  0  0  0  0
    3.4526    4.3684   -4.7991 H   0  0  0  0  0  0  0  0  0  0  0  0
   -1.5804    7.5364    0.4886 H   0  0  0  0  0  0  0  0  0  0  0  0
    3.7829    4.7130   -1.1384 H   0  0  0  0  0  0  0  0  0  0  0  0
    4.1043    3.0064   -0.9606 H   0  0  0  0  0  0  0  0  0  0  0  0
    4.7038    3.6105   -3.0562 H   0  0  0  0  0  0  0  0  0  0  0  0
    3.1229    1.0845   -1.9350 H   0  0  0  0  0  0  0  0  0  0  0  0
   -0.6864    2.7807   -1.1887 H   0  0  0  0  0  0  0  0  0  0  0  0
    2.0685   -0.9164   -2.6806 H   0  0  0  0  0  0  0  0  0  0  0  0
   -1.7130    0.7647   -1.9456 H   0  0  0  0  0  0  0  0  0  0  0  0
    0.2062   -1.9895   -3.0646 H   0  0  0  0  0  0  0  0  0  0  0  0
  1  2  1  0  0  0  0 
  2  3  2  0  0  0  0 
  2  4  1  0  0  0  0 
  3  5  1  0  0  0  0 
  3  6  1  0  0  0  0 
  4  7  1  0  0  0  0 
  4  8  2  0  0  0  0 
  9  5  1  0  0  0  0 
  5 10  2  0  0  0  0 
  6 11  1  0  0  0  0 
  8 10  1  0  0  0  0 
  8 12  1  0  0  0  0 
  9 13  1  0  0  0  0 
  9 14  1  0  0  0  0 
 11 15  1  0  0  0  0 
 13 15  1  0  0  0  0 
 14 16  2  0  0  0  0 
 14 17  1  0  0  0  0 
 16 18  1  0  0  0  0 
 17 19  2  0  0  0  0 
 18 20  2  0  0  0  0 
 19 20  1  0  0  0  0 
 20 21  1  0  0  0  0 
  6 22  1  0  0  0  0 
  6 23  1  0  0  0  0 
  7 24  1  0  0  0  0 
  9 25  1  0  0  0  0 
 10 26  1  0  0  0  0 
 11 27  1  0  0  0  0 
 11 28  1  0  0  0  0 
 12 29  1  0  0  0  0 
 13 30  1  0  0  0  0 
 13 31  1  0  0  0  0 
 15 32  1  0  0  0  0 
 16 33  1  0  0  0  0 
 17 34  1  0  0  0  0 
 18 35  1  0  0  0  0 
 19 36  1  0  0  0  0 
 21 37  1  0  0  0  0 
M  END
> <cdk:Title>
fenoldopam

> <Conformer>
1

> <SuperDrugID>
SD001030

$$$$
