terizidone
  CDK     0628171801

 36 38  0  0  0  0  0  0  0  0999 V2000
    7.3944   -3.3247    1.1076 N   0  0  0  0  0  0  0  0  0  0  0  0
    7.2641   -1.9756    1.5482 C   0  0  2  0  0  0  0  0  0  0  0  0
    8.4507   -4.1321    1.3756 C   0  0  0  0  0  0  0  0  0  0  0  0
    5.9560   -1.4121    1.1340 C   0  0  0  0  0  0  0  0  0  0  0  0
    8.6462   -5.3938    0.8374 C   0  0  0  0  0  0  0  0  0  0  0  0
    9.5476   -3.9306    2.2083 C   0  0  0  0  0  0  0  0  0  0  0  0
    5.0255   -0.9405    2.0886 C   0  0  0  0  0  0  0  0  0  0  0  0
    5.6277   -1.3197   -0.2381 C   0  0  0  0  0  0  0  0  0  0  0  0
    7.9014   -5.9826    0.0235 O   0  0  0  0  0  0  0  0  0  0  0  0
    9.7875   -5.8808    1.3427 N   0  0  0  0  0  0  0  0  0  0  0  0
   10.3407   -5.0262    2.1601 O   0  0  0  0  0  0  0  0  0  0  0  0
    3.8066   -0.3713    1.6802 C   0  0  0  0  0  0  0  0  0  0  0  0
    4.4042   -0.7590   -0.6453 C   0  0  0  0  0  0  0  0  0  0  0  0
    3.4839   -0.2669    0.3086 C   0  0  0  0  0  0  0  0  0  0  0  0
    2.2142    0.3760   -0.1034 C   0  0  1  0  0  0  0  0  0  0  0  0
    1.0886   -0.3327    0.4069 N   0  0  0  0  0  0  0  0  0  0  0  0
   -0.2023    0.0345    0.2149 C   0  0  0  0  0  0  0  0  0  0  0  0
   -0.7437    1.1422   -0.4300 C   0  0  0  0  0  0  0  0  0  0  0  0
   -1.3030   -0.6858    0.6569 C   0  0  0  0  0  0  0  0  0  0  0  0
   -0.1327    2.0831   -0.9842 O   0  0  0  0  0  0  0  0  0  0  0  0
   -2.0774    1.0361   -0.3599 N   0  0  0  0  0  0  0  0  0  0  0  0
   -2.4330   -0.0423    0.2845 O   0  0  0  0  0  0  0  0  0  0  0  0
    6.6910   -3.6843    0.5444 H   0  0  0  0  0  0  0  0  0  0  0  0
    8.0533   -1.3698    1.0993 H   0  0  0  0  0  0  0  0  0  0  0  0
    7.3836   -1.9319    2.6332 H   0  0  0  0  0  0  0  0  0  0  0  0
    9.7317   -3.0996    2.7709 H   0  0  0  0  0  0  0  0  0  0  0  0
    5.2301   -0.9958    3.0889 H   0  0  0  0  0  0  0  0  0  0  0  0
    6.2826   -1.6537   -0.9506 H   0  0  0  0  0  0  0  0  0  0  0  0
   10.1518   -6.7538    1.1295 H   0  0  0  0  0  0  0  0  0  0  0  0
    3.1577   -0.0223    2.3921 H   0  0  0  0  0  0  0  0  0  0  0  0
    4.1979   -0.7009   -1.6461 H   0  0  0  0  0  0  0  0  0  0  0  0
    2.2090    1.3976    0.2817 H   0  0  0  0  0  0  0  0  0  0  0  0
    2.1373    0.4258   -1.1922 H   0  0  0  0  0  0  0  0  0  0  0  0
    1.2554   -1.1339    0.9293 H   0  0  0  0  0  0  0  0  0  0  0  0
   -1.2728   -1.5639    1.1777 H   0  0  0  0  0  0  0  0  0  0  0  0
   -2.6962    1.6784   -0.7424 H   0  0  0  0  0  0  0  0  0  0  0  0
  1  2  1  0  0  0  0 
  1  3  1  0  0  0  0 
  2  4  1  0  0  0  0 
  3  5  1  0  0  0  0 
  3  6  2  0  0  0  0 
  4  7  2  0  0  0  0 
  4  8  1  0  0  0  0 
  5  9  2  0  0  0  0 
  5 10  1  0  0  0  0 
  6 11  1  0  0  0  0 
  7 12  1  0  0  0  0 
  8 13  2  0  0  0  0 
 10 11  1  0  0  0  0 
 12 14  2  0  0  0  0 
 13 14  1  0  0  0  0 
 14 15  1  0  0  0  0 
 15 16  1  0  0  0  0 
 16 17  1  0  0  0  0 
 17 18  1  0  0  0  0 
 17 19  2  0  0  0  0 
 18 20  2  0  0  0  0 
 18 21  1  0  0  0  0 
 19 22  1  0  0  0  0 
 21 22  1  0  0  0  0 
 23  1  1  0  0  0  0 
 24  2  1  0  0  0  0 
 25  2  1  0  0  0  0 
 26  6  1  0  0  0  0 
 27  7  1  0  0  0  0 
 28  8  1  0  0  0  0 
 29 10  1  0  0  0  0 
 30 12  1  0  0  0  0 
 31 13  1  0  0  0  0 
 32 15  1  0  0  0  0 
 33 15  1  0  0  0  0 
 34 16  1  0  0  0  0 
 35 19  1  0  0  0  0 
 36 21  1  0  0  0  0 
M  END
> <cdk:Title>
terizidone

> <Conformer>
1

> <SuperDrugID>
SD002341

$$$$
