dicloxacillin
  CDK     0628171802

 47 50  0  0  0  0  0  0  0  0999 V2000
   -2.0895    1.5758   -4.3213 C   0  0  0  0  0  0  0  0  0  0  0  0
   -2.2103    2.5149   -5.2882 O   0  0  0  0  0  0  0  0  0  0  0  0
   -0.9822    1.0049   -4.1964 O   0  0  0  0  0  0  0  0  0  0  0  0
   -3.2422    1.2516   -3.4432 C   0  0  2  0  0  0  0  0  0  0  0  0
   -2.8647    1.3889   -2.0796 N   0  0  0  0  0  0  0  0  0  0  0  0
   -3.8040   -0.2250   -3.4664 C   0  0  2  0  0  0  0  0  0  0  0  0
   -2.1858    0.4194   -1.3137 C   0  0  2  0  0  0  0  0  0  0  0  0
   -3.2558    2.1438   -1.0554 C   0  0  0  0  0  0  0  0  0  0  0  0
   -3.0868   -1.0225   -1.9670 S   0  0  0  0  0  0  0  0  0  0  0  0
   -2.6506    1.2446   -0.0737 C   0  0  1  0  0  0  0  0  0  0  0  0
   -3.9774    3.1611   -0.9565 O   0  0  0  0  0  0  0  0  0  0  0  0
   -3.5968    0.6175    0.7899 N   0  0  0  0  0  0  0  0  0  0  0  0
   -3.2760   -0.2913    1.7510 C   0  0  0  0  0  0  0  0  0  0  0  0
   -2.0964   -0.7058    1.8485 O   0  0  0  0  0  0  0  0  0  0  0  0
   -4.2516   -0.7569    2.6680 C   0  0  0  0  0  0  0  0  0  0  0  0
   -5.4390   -0.1307    3.0711 C   0  0  0  0  0  0  0  0  0  0  0  0
   -4.2441   -1.9630    3.3760 C   0  0  0  0  0  0  0  0  0  0  0  0
   -6.0515   -0.9287    3.9629 N   0  0  0  0  0  0  0  0  0  0  0  0
   -5.9883    1.1145    2.6690 C   0  0  0  0  0  0  0  0  0  0  0  0
   -3.2632   -3.0592    3.3239 C   0  0  0  0  0  0  0  0  0  0  0  0
   -5.3527   -2.0119    4.1460 O   0  0  0  0  0  0  0  0  0  0  0  0
   -5.2914    2.3396    2.8751 C   0  0  0  0  0  0  0  0  0  0  0  0
   -7.2746    1.1481    2.0606 C   0  0  0  0  0  0  0  0  0  0  0  0
   -3.7711    2.4342    3.6313 Cl  0  0  0  0  0  0  0  0  0  0  0  0
   -5.8730    3.5592    2.4708 C   0  0  0  0  0  0  0  0  0  0  0  0
   -8.1896   -0.2499    1.7391 Cl  0  0  0  0  0  0  0  0  0  0  0  0
   -7.8463    2.3782    1.6792 C   0  0  0  0  0  0  0  0  0  0  0  0
   -7.1497    3.5795    1.8865 C   0  0  0  0  0  0  0  0  0  0  0  0
   -1.1090    0.4188   -1.5085 H   0  0  0  0  0  0  0  0  0  0  0  0
   -3.4222   -1.0609   -4.7218 C   0  0  0  0  0  0  0  0  0  0  0  0
   -5.3553   -0.2266   -3.2953 C   0  0  0  0  0  0  0  0  0  0  0  0
   -1.4435    2.7346   -5.8569 H   0  0  0  0  0  0  0  0  0  0  0  0
   -4.0379    1.9680   -3.6750 H   0  0  0  0  0  0  0  0  0  0  0  0
   -1.8265    1.7295    0.4564 H   0  0  0  0  0  0  0  0  0  0  0  0
   -4.5274    0.8736    0.6948 H   0  0  0  0  0  0  0  0  0  0  0  0
   -3.5924   -3.8836    3.9581 H   0  0  0  0  0  0  0  0  0  0  0  0
   -3.1770   -3.4246    2.2993 H   0  0  0  0  0  0  0  0  0  0  0  0
   -2.2899   -2.7116    3.6747 H   0  0  0  0  0  0  0  0  0  0  0  0
   -5.3759    4.4447    2.6073 H   0  0  0  0  0  0  0  0  0  0  0  0
   -8.7754    2.4101    1.2493 H   0  0  0  0  0  0  0  0  0  0  0  0
   -7.5733    4.4704    1.6136 H   0  0  0  0  0  0  0  0  0  0  0  0
   -3.8815   -2.0512   -4.6889 H   0  0  0  0  0  0  0  0  0  0  0  0
   -3.7631   -0.5499   -5.6225 H   0  0  0  0  0  0  0  0  0  0  0  0
   -2.3427   -1.2000   -4.7881 H   0  0  0  0  0  0  0  0  0  0  0  0
   -5.7472   -1.2462   -3.2471 H   0  0  0  0  0  0  0  0  0  0  0  0
   -5.8249    0.2790   -4.1416 H   0  0  0  0  0  0  0  0  0  0  0  0
   -5.6511    0.2950   -2.3817 H   0  0  0  0  0  0  0  0  0  0  0  0
  1  2  1  0  0  0  0 
  1  3  2  0  0  0  0 
  4  1  1  0  0  0  0 
  4  5  1  0  0  0  0 
  4  6  1  0  0  0  0 
  7  5  1  0  0  0  0 
  5  8  1  0  0  0  0 
  6  9  1  0  0  0  0 
  7  9  1  0  0  0  0 
 10  7  1  0  0  0  0 
  7 29  1  0  0  0  0 
 10  8  1  0  0  0  0 
  8 11  2  0  0  0  0 
 10 12  1  0  0  0  0 
 12 13  1  0  0  0  0 
 13 14  2  0  0  0  0 
 13 15  1  0  0  0  0 
 15 16  1  0  0  0  0 
 15 17  2  0  0  0  0 
 16 18  2  0  0  0  0 
 16 19  1  0  0  0  0 
 17 20  1  0  0  0  0 
 17 21  1  0  0  0  0 
 18 21  1  0  0  0  0 
 19 22  2  0  0  0  0 
 19 23  1  0  0  0  0 
 22 24  1  0  0  0  0 
 22 25  1  0  0  0  0 
 23 26  1  0  0  0  0 
 23 27  2  0  0  0  0 
 25 28  2  0  0  0  0 
 27 28  1  0  0  0  0 
  6 30  1  0  0  0  0 
  6 31  1  0  0  0  0 
  2 32  1  0  0  0  0 
  4 33  1  0  0  0  0 
 10 34  1  0  0  0  0 
 12 35  1  0  0  0  0 
 20 36  1  0  0  0  0 
 20 37  1  0  0  0  0 
 20 38  1  0  0  0  0 
 25 39  1  0  0  0  0 
 27 40  1  0  0  0  0 
 28 41  1  0  0  0  0 
 30 42  1  0  0  0  0 
 30 43  1  0  0  0  0 
 30 44  1  0  0  0  0 
 31 45  1  0  0  0  0 
 31 46  1  0  0  0  0 
 31 47  1  0  0  0  0 
M  END
> <cdk:Title>
dicloxacillin

> <Conformer>
1

> <SuperDrugID>
SD000769

$$$$
