hydrocortisone aceponate
  CDK     0628171801

 69 72  0  0  0  0  0  0  0  0999 V2000
    3.6912   -2.9835   -3.5974 C   0  0  0  0  0  0  0  0  0  0  0  0
    4.1935   -3.9089   -2.5565 C   0  0  2  0  0  0  0  0  0  0  0  0
    4.2593   -3.0525   -4.7132 O   0  0  0  0  0  0  0  0  0  0  0  0
    2.5715   -2.0035   -3.3756 C   0  0  2  0  0  0  0  0  0  0  0  0
    4.1261   -3.3758   -1.2255 O   0  0  0  0  0  0  0  0  0  0  0  0
    3.0440   -1.0377   -2.3987 O   0  0  0  0  0  0  0  0  0  0  0  0
    1.1886   -2.6093   -2.8782 C   0  0  2  0  0  0  0  0  0  0  0  0
    2.1180   -1.2208   -4.6656 C   0  0  2  0  0  0  0  0  0  0  0  0
    4.2809   -4.1072   -0.0791 C   0  0  0  0  0  0  0  0  0  0  0  0
    4.0841   -0.1465   -2.4409 C   0  0  0  0  0  0  0  0  0  0  0  0
    0.7737   -3.8488   -3.7716 C   0  0  0  0  0  0  0  0  0  0  0  0
    0.2706   -1.3552   -3.0826 C   0  0  1  0  0  0  0  0  0  0  0  0
    1.0912   -3.0000   -1.3524 C   0  0  2  0  0  0  0  0  0  0  0  0
    0.6224   -0.8517   -4.4971 C   0  0  1  0  0  0  0  0  0  0  0  0
    4.1516   -3.4489    1.2307 C   0  0  0  0  0  0  0  0  0  0  0  0
    4.4960   -5.3427   -0.1291 O   0  0  0  0  0  0  0  0  0  0  0  0
    4.2540    0.7943   -1.3173 C   0  0  1  0  0  0  0  0  0  0  0  0
    4.8708   -0.1025   -3.4151 O   0  0  0  0  0  0  0  0  0  0  0  0
   -1.2321   -1.5673   -2.6905 C   0  0  1  0  0  0  0  0  0  0  0  0
   -0.3747   -3.1855   -0.8361 C   0  0  1  0  0  0  0  0  0  0  0  0
    4.6957    0.0853   -0.0247 C   0  0  0  0  0  0  0  0  0  0  0  0
   -1.3291   -1.9753   -1.1726 C   0  0  2  0  0  0  0  0  0  0  0  0
   -2.0625   -0.2746   -2.9375 C   0  0  1  0  0  0  0  0  0  0  0  0
   -0.8828   -4.4366   -1.2933 O   0  0  0  0  0  0  0  0  0  0  0  0
   -2.8239   -2.0563   -0.6072 C   0  0  2  0  0  0  0  0  0  0  0  0
   -3.5204   -0.4306   -2.4567 C   0  0  2  0  0  0  0  0  0  0  0  0
   -3.6034   -3.3288   -1.1003 C   0  0  0  0  0  0  0  0  0  0  0  0
   -3.6171   -0.8663   -1.0552 C   0  0  0  0  0  0  0  0  0  0  0  0
   -2.7475   -2.0954    0.9739 C   0  0  1  0  0  0  0  0  0  0  0  0
   -4.4793   -0.2181   -0.2350 C   0  0  0  0  0  0  0  0  0  0  0  0
   -4.0921   -1.7844    1.6750 C   0  0  1  0  0  0  0  0  0  0  0  0
   -4.7450   -0.6091    1.0658 C   0  0  0  0  0  0  0  0  0  0  0  0
   -5.6057    0.0115    1.7347 O   0  0  0  0  0  0  0  0  0  0  0  0
    5.2363   -4.1697   -2.7562 H   0  0  0  0  0  0  0  0  0  0  0  0
    3.6018   -4.8238   -2.6172 H   0  0  0  0  0  0  0  0  0  0  0  0
    2.2220   -1.8369   -5.5617 H   0  0  0  0  0  0  0  0  0  0  0  0
    2.7116   -0.3207   -4.8280 H   0  0  0  0  0  0  0  0  0  0  0  0
   -0.2750   -4.1103   -3.6651 H   0  0  0  0  0  0  0  0  0  0  0  0
    1.3544   -4.7298   -3.5002 H   0  0  0  0  0  0  0  0  0  0  0  0
    0.9349   -3.6735   -4.8340 H   0  0  0  0  0  0  0  0  0  0  0  0
    0.6175   -0.5534   -2.4132 H   0  0  0  0  0  0  0  0  0  0  0  0
    1.5144   -2.1373   -0.7415 H   0  0  0  0  0  0  0  0  0  0  0  0
    1.5952   -4.0101   -1.2153 H   0  0  0  0  0  0  0  0  0  0  0  0
    0.4724    0.2280   -4.5814 H   0  0  0  0  0  0  0  0  0  0  0  0
    0.0063   -1.3499   -5.2502 H   0  0  0  0  0  0  0  0  0  0  0  0
    3.1883   -2.9379    1.2918 H   0  0  0  0  0  0  0  0  0  0  0  0
    4.9534   -2.7192    1.3593 H   0  0  0  0  0  0  0  0  0  0  0  0
    4.2091   -4.1754    2.0458 H   0  0  0  0  0  0  0  0  0  0  0  0
    4.9954    1.5583   -1.5679 H   0  0  0  0  0  0  0  0  0  0  0  0
    3.3036    1.3010   -1.1307 H   0  0  0  0  0  0  0  0  0  0  0  0
   -1.6610   -2.3548   -3.3110 H   0  0  0  0  0  0  0  0  0  0  0  0
   -0.3014   -3.2788    0.2499 H   0  0  0  0  0  0  0  0  0  0  0  0
    4.7434    0.8149    0.7860 H   0  0  0  0  0  0  0  0  0  0  0  0
    3.9791   -0.6901    0.2490 H   0  0  0  0  0  0  0  0  0  0  0  0
    5.6828   -0.3635   -0.1572 H   0  0  0  0  0  0  0  0  0  0  0  0
   -0.8770   -1.1296   -0.6397 H   0  0  0  0  0  0  0  0  0  0  0  0
   -1.6069    0.5751   -2.4187 H   0  0  0  0  0  0  0  0  0  0  0  0
   -2.0762   -0.0446   -4.0065 H   0  0  0  0  0  0  0  0  0  0  0  0
   -0.2745   -5.1128   -0.9268 H   0  0  0  0  0  0  0  0  0  0  0  0
   -4.0234   -1.1694   -3.0858 H   0  0  0  0  0  0  0  0  0  0  0  0
   -4.0226    0.5254   -2.6396 H   0  0  0  0  0  0  0  0  0  0  0  0
   -3.5030   -3.4637   -2.1778 H   0  0  0  0  0  0  0  0  0  0  0  0
   -3.2438   -4.2363   -0.6136 H   0  0  0  0  0  0  0  0  0  0  0  0
   -4.6707   -3.2581   -0.8724 H   0  0  0  0  0  0  0  0  0  0  0  0
   -2.3963   -3.0678    1.3289 H   0  0  0  0  0  0  0  0  0  0  0  0
   -2.0294   -1.3501    1.3328 H   0  0  0  0  0  0  0  0  0  0  0  0
   -4.9811    0.5726   -0.5736 H   0  0  0  0  0  0  0  0  0  0  0  0
   -4.7633   -2.6432    1.5968 H   0  0  0  0  0  0  0  0  0  0  0  0
   -3.9057   -1.5966    2.7370 H   0  0  0  0  0  0  0  0  0  0  0  0
  1  2  1  0  0  0  0 
  1  3  2  0  0  0  0 
  4  1  1  0  0  0  0 
  2  5  1  0  0  0  0 
  4  6  1  0  0  0  0 
  7  4  1  0  0  0  0 
  4  8  1  0  0  0  0 
  5  9  1  0  0  0  0 
  6 10  1  0  0  0  0 
  7 11  1  0  0  0  0 
 12  7  1  0  0  0  0 
  7 13  1  0  0  0  0 
  8 14  1  0  0  0  0 
  9 15  1  0  0  0  0 
  9 16  2  0  0  0  0 
 10 17  1  0  0  0  0 
 10 18  2  0  0  0  0 
 12 14  1  0  0  0  0 
 19 12  1  0  0  0  0 
 20 13  1  0  0  0  0 
 17 21  1  0  0  0  0 
 22 19  1  0  0  0  0 
 19 23  1  0  0  0  0 
 22 20  1  0  0  0  0 
 20 24  1  0  0  0  0 
 22 25  1  0  0  0  0 
 23 26  1  0  0  0  0 
 25 27  1  0  0  0  0 
 25 28  1  0  0  0  0 
 25 29  1  0  0  0  0 
 26 28  1  0  0  0  0 
 28 30  2  0  0  0  0 
 29 31  1  0  0  0  0 
 30 32  1  0  0  0  0 
 31 32  1  0  0  0  0 
 32 33  2  0  0  0  0 
 34  2  1  0  0  0  0 
 35  2  1  0  0  0  0 
 36  8  1  0  0  0  0 
 37  8  1  0  0  0  0 
 38 11  1  0  0  0  0 
 39 11  1  0  0  0  0 
 40 11  1  0  0  0  0 
 12 41  1  0  0  0  0 
 42 13  1  0  0  0  0 
 43 13  1  0  0  0  0 
 44 14  1  0  0  0  0 
 45 14  1  0  0  0  0 
 46 15  1  0  0  0  0 
 47 15  1  0  0  0  0 
 48 15  1  0  0  0  0 
 49 17  1  0  0  0  0 
 50 17  1  0  0  0  0 
 19 51  1  0  0  0  0 
 20 52  1  0  0  0  0 
 53 21  1  0  0  0  0 
 54 21  1  0  0  0  0 
 55 21  1  0  0  0  0 
 22 56  1  0  0  0  0 
 57 23  1  0  0  0  0 
 58 23  1  0  0  0  0 
 59 24  1  0  0  0  0 
 60 26  1  0  0  0  0 
 61 26  1  0  0  0  0 
 62 27  1  0  0  0  0 
 63 27  1  0  0  0  0 
 64 27  1  0  0  0  0 
 65 29  1  0  0  0  0 
 66 29  1  0  0  0  0 
 67 30  1  0  0  0  0 
 68 31  1  0  0  0  0 
 69 31  1  0  0  0  0 
M  END
> <cdk:Title>
hydrocortisone aceponate

> <Conformer>
1

> <SuperDrugID>
SD001235

$$$$
