pipotiazine palmitate
  CDK     0628171801

112115  0  0  0  0  0  0  0  0999 V2000
   -2.5802   -3.1929    3.8389 C   0  0  0  0  0  0  0  0  0  0  0  0
   -1.8885   -2.1207    4.6013 N   0  0  2  0  0  0  0  0  0  0  0  0
   -1.4955   -2.5519    5.9692 C   0  0  0  0  0  0  0  0  0  0  0  0
   -2.8153   -0.6067    4.6123 S   0  0  2  0  0  0  0  0  0  0  0  0
   -1.9624    0.5018    5.3992 O   0  0  0  0  0  0  0  0  0  0  0  0
   -4.2103   -0.8385    5.3692 O   0  0  0  0  0  0  0  0  0  0  0  0
   -3.0633   -0.0771    2.9382 C   0  0  0  0  0  0  0  0  0  0  0  0
   -4.3484   -0.0432    2.3637 C   0  0  0  0  0  0  0  0  0  0  0  0
   -4.5044    0.2902    1.0072 C   0  0  0  0  0  0  0  0  0  0  0  0
   -3.3727    0.5707    0.2160 C   0  0  0  0  0  0  0  0  0  0  0  0
   -3.5893    0.9864   -1.4813 S   0  0  0  0  0  0  0  0  0  0  0  0
   -2.1187    1.8735   -1.8598 C   0  0  0  0  0  0  0  0  0  0  0  0
   -2.1188    2.7864   -2.9340 C   0  0  0  0  0  0  0  0  0  0  0  0
   -0.9617    3.5274   -3.2259 C   0  0  0  0  0  0  0  0  0  0  0  0
    0.1867    3.3706   -2.4335 C   0  0  0  0  0  0  0  0  0  0  0  0
    0.1852    2.4510   -1.3670 C   0  0  0  0  0  0  0  0  0  0  0  0
   -0.9584    1.6608   -1.0714 C   0  0  0  0  0  0  0  0  0  0  0  0
   -0.9484    0.7058   -0.0534 N   0  0  0  0  0  0  0  0  0  0  0  0
    0.2107   -0.1659    0.1152 C   0  0  1  0  0  0  0  0  0  0  0  0
   -0.0805   -1.6959    0.2017 C   0  0  2  0  0  0  0  0  0  0  0  0
   -0.8003   -2.3217   -1.0271 C   0  0  1  0  0  0  0  0  0  0  0  0
   -0.1868   -2.0946   -2.3795 N   0  0  2  0  0  0  0  0  0  0  0  0
   -1.0353   -2.6959   -3.4614 C   0  0  2  0  0  0  0  0  0  0  0  0
   -0.5269   -2.3554   -4.8853 C   0  0  1  0  0  0  0  0  0  0  0  0
    0.9861   -2.6737   -5.1014 C   0  0  1  0  0  0  0  0  0  0  0  0
    1.4476   -2.1052   -6.4863 C   0  0  1  0  0  0  0  0  0  0  0  0
    2.8368   -2.5367   -7.0216 C   0  0  1  0  0  0  0  0  0  0  0  0
    2.7923   -3.8288   -7.6447 O   0  0  0  0  0  0  0  0  0  0  0  0
    1.8106   -2.1048   -3.9036 C   0  0  1  0  0  0  0  0  0  0  0  0
    1.2397   -2.5301   -2.5250 C   0  0  2  0  0  0  0  0  0  0  0  0
   -2.0646    0.5330    0.7641 C   0  0  0  0  0  0  0  0  0  0  0  0
   -1.9443    0.2579    2.1506 C   0  0  0  0  0  0  0  0  0  0  0  0
    3.7887   -4.3648   -8.4150 C   0  0  0  0  0  0  0  0  0  0  0  0
    4.8363   -3.7210   -8.6655 O   0  0  0  0  0  0  0  0  0  0  0  0
    3.6265   -5.7235   -8.9646 C   0  0  2  0  0  0  0  0  0  0  0  0
    3.4801   -6.7711   -7.8320 C   0  0  1  0  0  0  0  0  0  0  0  0
    3.5615   -8.2438   -8.3155 C   0  0  2  0  0  0  0  0  0  0  0  0
    3.4269   -9.2090   -7.1055 C   0  0  2  0  0  0  0  0  0  0  0  0
    3.5027  -10.7119   -7.4697 C   0  0  2  0  0  0  0  0  0  0  0  0
    3.3228  -11.6047   -6.2080 C   0  0  1  0  0  0  0  0  0  0  0  0
    3.2501  -13.1120   -6.5510 C   0  0  1  0  0  0  0  0  0  0  0  0
    2.9666  -14.0052   -5.3130 C   0  0  1  0  0  0  0  0  0  0  0  0
    2.7924  -15.4896   -5.7226 C   0  0  2  0  0  0  0  0  0  0  0  0
    2.5110  -16.4374   -4.5301 C   0  0  1  0  0  0  0  0  0  0  0  0
    2.3884  -17.9095   -5.0011 C   0  0  2  0  0  0  0  0  0  0  0  0
    2.1612  -18.9008   -3.8331 C   0  0  2  0  0  0  0  0  0  0  0  0
    2.1032  -20.3696   -4.3303 C   0  0  1  0  0  0  0  0  0  0  0  0
    1.9008  -21.3843   -3.1749 C   0  0  1  0  0  0  0  0  0  0  0  0
    1.8548  -22.8491   -3.6660 C   0  0  0  0  0  0  0  0  0  0  0  0
   -3.4981   -3.5063    4.3425 H   0  0  0  0  0  0  0  0  0  0  0  0
   -1.9229   -4.0576    3.7368 H   0  0  0  0  0  0  0  0  0  0  0  0
   -2.8296   -2.8587    2.8310 H   0  0  0  0  0  0  0  0  0  0  0  0
   -2.3687   -2.7902    6.5824 H   0  0  0  0  0  0  0  0  0  0  0  0
   -0.9178   -1.7728    6.4700 H   0  0  0  0  0  0  0  0  0  0  0  0
   -0.8600   -3.4376    5.9084 H   0  0  0  0  0  0  0  0  0  0  0  0
   -5.1755   -0.2690    2.9224 H   0  0  0  0  0  0  0  0  0  0  0  0
   -5.4440    0.3118    0.6012 H   0  0  0  0  0  0  0  0  0  0  0  0
   -2.9564    2.9155   -3.5077 H   0  0  0  0  0  0  0  0  0  0  0  0
   -0.9584    4.1834   -4.0113 H   0  0  0  0  0  0  0  0  0  0  0  0
    1.0229    3.9258   -2.6359 H   0  0  0  0  0  0  0  0  0  0  0  0
    1.0352    2.3645   -0.8052 H   0  0  0  0  0  0  0  0  0  0  0  0
    0.9261   -0.0385   -0.7001 H   0  0  0  0  0  0  0  0  0  0  0  0
    0.7392    0.1385    1.0218 H   0  0  0  0  0  0  0  0  0  0  0  0
   -0.6821   -1.9065    1.0870 H   0  0  0  0  0  0  0  0  0  0  0  0
    0.8622   -2.2194    0.3626 H   0  0  0  0  0  0  0  0  0  0  0  0
   -0.8947   -3.3991   -0.8556 H   0  0  0  0  0  0  0  0  0  0  0  0
   -1.8158   -1.9157   -1.0378 H   0  0  0  0  0  0  0  0  0  0  0  0
   -2.0617   -2.3223   -3.3857 H   0  0  0  0  0  0  0  0  0  0  0  0
   -1.0731   -3.7853   -3.3522 H   0  0  0  0  0  0  0  0  0  0  0  0
   -1.1210   -2.9248   -5.6073 H   0  0  0  0  0  0  0  0  0  0  0  0
   -0.7123   -1.2940   -5.0681 H   0  0  0  0  0  0  0  0  0  0  0  0
    1.0990   -3.7631   -5.1142 H   0  0  0  0  0  0  0  0  0  0  0  0
    0.7144   -2.3836   -7.2500 H   0  0  0  0  0  0  0  0  0  0  0  0
    1.4411   -1.0136   -6.4232 H   0  0  0  0  0  0  0  0  0  0  0  0
    3.1433   -1.8015   -7.7733 H   0  0  0  0  0  0  0  0  0  0  0  0
    3.5841   -2.5353   -6.2282 H   0  0  0  0  0  0  0  0  0  0  0  0
    2.8478   -2.4438   -3.9625 H   0  0  0  0  0  0  0  0  0  0  0  0
    1.8106   -1.0110   -3.9421 H   0  0  0  0  0  0  0  0  0  0  0  0
    1.3383   -3.6138   -2.3995 H   0  0  0  0  0  0  0  0  0  0  0  0
    1.8624   -2.0524   -1.7663 H   0  0  0  0  0  0  0  0  0  0  0  0
   -1.0247    0.2729    2.5923 H   0  0  0  0  0  0  0  0  0  0  0  0
    4.4921   -5.9752   -9.5836 H   0  0  0  0  0  0  0  0  0  0  0  0
    2.7406   -5.7393   -9.6044 H   0  0  0  0  0  0  0  0  0  0  0  0
    4.2735   -6.6090   -7.0958 H   0  0  0  0  0  0  0  0  0  0  0  0
    2.5159   -6.6183   -7.3355 H   0  0  0  0  0  0  0  0  0  0  0  0
    4.5174   -8.4117   -8.8217 H   0  0  0  0  0  0  0  0  0  0  0  0
    2.7571   -8.4386   -9.0311 H   0  0  0  0  0  0  0  0  0  0  0  0
    2.4622   -9.0205   -6.6245 H   0  0  0  0  0  0  0  0  0  0  0  0
    4.2184   -8.9911   -6.3812 H   0  0  0  0  0  0  0  0  0  0  0  0
    4.4743  -10.9244   -7.9267 H   0  0  0  0  0  0  0  0  0  0  0  0
    2.7198  -10.9388   -8.2007 H   0  0  0  0  0  0  0  0  0  0  0  0
    4.1618  -11.4342   -5.5262 H   0  0  0  0  0  0  0  0  0  0  0  0
    2.4016  -11.3191   -5.6909 H   0  0  0  0  0  0  0  0  0  0  0  0
    2.4514  -13.2601   -7.2827 H   0  0  0  0  0  0  0  0  0  0  0  0
    4.1956  -13.4181   -7.0076 H   0  0  0  0  0  0  0  0  0  0  0  0
    3.7926  -13.9164   -4.6010 H   0  0  0  0  0  0  0  0  0  0  0  0
    2.0532  -13.6601   -4.8208 H   0  0  0  0  0  0  0  0  0  0  0  0
    3.7032  -15.8209   -6.2291 H   0  0  0  0  0  0  0  0  0  0  0  0
    1.9628  -15.5634   -6.4316 H   0  0  0  0  0  0  0  0  0  0  0  0
    3.3271  -16.3552   -3.8078 H   0  0  0  0  0  0  0  0  0  0  0  0
    1.5824  -16.1371   -4.0369 H   0  0  0  0  0  0  0  0  0  0  0  0
    3.3048  -18.1902   -5.5280 H   0  0  0  0  0  0  0  0  0  0  0  0
    1.5536  -17.9927   -5.7030 H   0  0  0  0  0  0  0  0  0  0  0  0
    1.2233  -18.6528   -3.3281 H   0  0  0  0  0  0  0  0  0  0  0  0
    2.9770  -18.7992   -3.1117 H   0  0  0  0  0  0  0  0  0  0  0  0
    1.2806  -20.4718   -5.0446 H   0  0  0  0  0  0  0  0  0  0  0  0
    3.0369  -20.6062   -4.8497 H   0  0  0  0  0  0  0  0  0  0  0  0
    2.7203  -21.2836   -2.4578 H   0  0  0  0  0  0  0  0  0  0  0  0
    0.9643  -21.1602   -2.6564 H   0  0  0  0  0  0  0  0  0  0  0  0
    1.7117  -23.5194   -2.8157 H   0  0  0  0  0  0  0  0  0  0  0  0
    1.0273  -22.9908   -4.3646 H   0  0  0  0  0  0  0  0  0  0  0  0
    2.7904  -23.1135   -4.1640 H   0  0  0  0  0  0  0  0  0  0  0  0
  1  2  1  0  0  0  0 
  2  3  1  0  0  0  0 
  2  4  1  0  0  0  0 
  4  5  2  0  0  0  0 
  4  6  2  0  0  0  0 
  4  7  1  0  0  0  0 
  7  8  2  0  0  0  0 
  8  9  1  0  0  0  0 
  9 10  2  0  0  0  0 
 10 11  1  0  0  0  0 
 11 12  1  0  0  0  0 
 12 13  2  0  0  0  0 
 13 14  1  0  0  0  0 
 14 15  2  0  0  0  0 
 15 16  1  0  0  0  0 
 16 17  2  0  0  0  0 
 12 17  1  0  0  0  0 
 17 18  1  0  0  0  0 
 18 19  1  0  0  0  0 
 19 20  1  0  0  0  0 
 20 21  1  0  0  0  0 
 21 22  1  0  0  0  0 
 22 23  1  0  0  0  0 
 23 24  1  0  0  0  0 
 24 25  1  0  0  0  0 
 25 26  1  0  0  0  0 
 26 27  1  0  0  0  0 
 27 28  1  0  0  0  0 
 25 29  1  0  0  0  0 
 29 30  1  0  0  0  0 
 22 30  1  0  0  0  0 
 18 31  1  0  0  0  0 
 10 31  1  0  0  0  0 
 31 32  2  0  0  0  0 
  7 32  1  0  0  0  0 
 28 33  1  0  0  0  0 
 33 34  2  0  0  0  0 
 35 36  1  0  0  0  0 
 36 37  1  0  0  0  0 
 37 38  1  0  0  0  0 
 38 39  1  0  0  0  0 
 39 40  1  0  0  0  0 
 40 41  1  0  0  0  0 
 41 42  1  0  0  0  0 
 42 43  1  0  0  0  0 
 43 44  1  0  0  0  0 
 44 45  1  0  0  0  0 
 45 46  1  0  0  0  0 
 46 47  1  0  0  0  0 
 47 48  1  0  0  0  0 
 33 35  1  0  0  0  0 
 48 49  1  0  0  0  0 
  1 50  1  0  0  0  0 
  1 51  1  0  0  0  0 
  1 52  1  0  0  0  0 
  3 53  1  0  0  0  0 
  3 54  1  0  0  0  0 
  3 55  1  0  0  0  0 
  8 56  1  0  0  0  0 
  9 57  1  0  0  0  0 
 13 58  1  0  0  0  0 
 14 59  1  0  0  0  0 
 15 60  1  0  0  0  0 
 16 61  1  0  0  0  0 
 19 62  1  0  0  0  0 
 19 63  1  0  0  0  0 
 20 64  1  0  0  0  0 
 20 65  1  0  0  0  0 
 21 66  1  0  0  0  0 
 21 67  1  0  0  0  0 
 23 68  1  0  0  0  0 
 23 69  1  0  0  0  0 
 24 70  1  0  0  0  0 
 24 71  1  0  0  0  0 
 25 72  1  0  0  0  0 
 26 73  1  0  0  0  0 
 26 74  1  0  0  0  0 
 27 75  1  0  0  0  0 
 27 76  1  0  0  0  0 
 29 77  1  0  0  0  0 
 29 78  1  0  0  0  0 
 30 79  1  0  0  0  0 
 30 80  1  0  0  0  0 
 32 81  1  0  0  0  0 
 35 82  1  0  0  0  0 
 35 83  1  0  0  0  0 
 36 84  1  0  0  0  0 
 36 85  1  0  0  0  0 
 37 86  1  0  0  0  0 
 37 87  1  0  0  0  0 
 38 88  1  0  0  0  0 
 38 89  1  0  0  0  0 
 39 90  1  0  0  0  0 
 39 91  1  0  0  0  0 
 40 92  1  0  0  0  0 
 40 93  1  0  0  0  0 
 41 94  1  0  0  0  0 
 41 95  1  0  0  0  0 
 42 96  1  0  0  0  0 
 42 97  1  0  0  0  0 
 43 98  1  0  0  0  0 
 43 99  1  0  0  0  0 
 44100  1  0  0  0  0 
 44101  1  0  0  0  0 
 45102  1  0  0  0  0 
 45103  1  0  0  0  0 
 46104  1  0  0  0  0 
 46105  1  0  0  0  0 
 47106  1  0  0  0  0 
 47107  1  0  0  0  0 
 48108  1  0  0  0  0 
 48109  1  0  0  0  0 
 49110  1  0  0  0  0 
 49111  1  0  0  0  0 
 49112  1  0  0  0  0 
M  END
> <cdk:Title>
pipotiazine palmitate

> <Conformer>
1

> <SuperDrugID>
SD001968

$$$$
