roflumilast
  CDK     0628171801

 40 42  0  0  0  0  0  0  0  0999 V2000
    5.5179    0.1895   -3.8552 O   0  0  0  0  0  0  0  0  0  0  0  0
    5.7345    1.6095   -3.9538 C   0  0  1  0  0  0  0  0  0  0  0  0
    5.1408   -0.2084   -2.6004 C   0  0  0  0  0  0  0  0  0  0  0  0
    6.1748    1.9361   -5.3984 C   0  0  1  0  0  0  0  0  0  0  0  0
    6.1155   -0.6049   -1.6583 C   0  0  0  0  0  0  0  0  0  0  0  0
    3.7733   -0.2490   -2.2554 C   0  0  0  0  0  0  0  0  0  0  0  0
    7.0395    3.1888   -5.6181 C   0  0  2  0  0  0  0  0  0  0  0  0
    7.6623    1.7931   -5.7598 C   0  0  1  0  0  0  0  0  0  0  0  0
    7.4495   -0.5505   -1.9641 O   0  0  0  0  0  0  0  0  0  0  0  0
    5.7137   -1.0185   -0.3745 C   0  0  0  0  0  0  0  0  0  0  0  0
    3.3591   -0.6809   -0.9715 C   0  0  0  0  0  0  0  0  0  0  0  0
    7.9686   -1.7748   -2.5131 C   0  0  2  0  0  0  0  0  0  0  0  0
    4.3516   -1.0615   -0.0372 C   0  0  0  0  0  0  0  0  0  0  0  0
    1.9905   -0.7353   -0.6062 C   0  0  0  0  0  0  0  0  0  0  0  0
    7.9506   -2.8042   -1.6010 F   0  0  0  0  0  0  0  0  0  0  0  0
    9.2753   -1.5562   -2.8651 F   0  0  0  0  0  0  0  0  0  0  0  0
    1.0970    0.1567   -1.1223 N   0  0  0  0  0  0  0  0  0  0  0  0
    1.6107   -1.6215    0.1985 O   0  0  0  0  0  0  0  0  0  0  0  0
   -0.2270    0.2424   -0.8101 C   0  0  0  0  0  0  0  0  0  0  0  0
   -0.6879    0.4758    0.5132 C   0  0  0  0  0  0  0  0  0  0  0  0
   -1.1718    0.1270   -1.8592 C   0  0  0  0  0  0  0  0  0  0  0  0
    0.3516    0.7163    1.8333 Cl  0  0  0  0  0  0  0  0  0  0  0  0
   -2.0743    0.5536    0.7483 C   0  0  0  0  0  0  0  0  0  0  0  0
   -0.7059   -0.1418   -3.4696 Cl  0  0  0  0  0  0  0  0  0  0  0  0
   -2.5445    0.2266   -1.5588 C   0  0  0  0  0  0  0  0  0  0  0  0
   -2.9475    0.4315   -0.2810 N   0  0  0  0  0  0  0  0  0  0  0  0
    4.8094    2.1568   -3.7565 H   0  0  0  0  0  0  0  0  0  0  0  0
    6.4948    1.9376   -3.2365 H   0  0  0  0  0  0  0  0  0  0  0  0
    5.4805    1.7135   -6.2130 H   0  0  0  0  0  0  0  0  0  0  0  0
    3.0832    0.0317   -2.9568 H   0  0  0  0  0  0  0  0  0  0  0  0
    7.3345    3.7474   -4.7273 H   0  0  0  0  0  0  0  0  0  0  0  0
    6.8812    3.7277   -6.5547 H   0  0  0  0  0  0  0  0  0  0  0  0
    8.3379    1.4941   -4.9559 H   0  0  0  0  0  0  0  0  0  0  0  0
    7.8849    1.4854   -6.7839 H   0  0  0  0  0  0  0  0  0  0  0  0
    6.4130   -1.2942    0.3187 H   0  0  0  0  0  0  0  0  0  0  0  0
    7.4246   -2.0727   -3.4124 H   0  0  0  0  0  0  0  0  0  0  0  0
    4.0936   -1.3664    0.9051 H   0  0  0  0  0  0  0  0  0  0  0  0
    1.4187    0.7660   -1.8039 H   0  0  0  0  0  0  0  0  0  0  0  0
   -2.4395    0.7120    1.6900 H   0  0  0  0  0  0  0  0  0  0  0  0
   -3.2498    0.1480   -2.2941 H   0  0  0  0  0  0  0  0  0  0  0  0
  1  2  1  0  0  0  0 
  1  3  1  0  0  0  0 
  2  4  1  0  0  0  0 
  3  5  2  0  0  0  0 
  3  6  1  0  0  0  0 
  4  7  1  0  0  0  0 
  4  8  1  0  0  0  0 
  5  9  1  0  0  0  0 
  5 10  1  0  0  0  0 
  6 11  2  0  0  0  0 
  7  8  1  0  0  0  0 
  9 12  1  0  0  0  0 
 10 13  2  0  0  0  0 
 11 13  1  0  0  0  0 
 11 14  1  0  0  0  0 
 12 15  1  0  0  0  0 
 12 16  1  0  0  0  0 
 14 17  1  0  0  0  0 
 14 18  2  0  0  0  0 
 17 19  1  0  0  0  0 
 19 20  2  0  0  0  0 
 19 21  1  0  0  0  0 
 20 22  1  0  0  0  0 
 20 23  1  0  0  0  0 
 21 24  1  0  0  0  0 
 21 25  2  0  0  0  0 
 23 26  2  0  0  0  0 
 25 26  1  0  0  0  0 
  2 27  1  0  0  0  0 
  2 28  1  0  0  0  0 
  4 29  1  0  0  0  0 
  6 30  1  0  0  0  0 
  7 31  1  0  0  0  0 
  7 32  1  0  0  0  0 
  8 33  1  0  0  0  0 
  8 34  1  0  0  0  0 
 10 35  1  0  0  0  0 
 12 36  1  0  0  0  0 
 13 37  1  0  0  0  0 
 17 38  1  0  0  0  0 
 23 39  1  0  0  0  0 
 25 40  1  0  0  0  0 
M  END
> <cdk:Title>
roflumilast

> <Conformer>
1

> <SuperDrugID>
SD003038

$$$$
