tenoxicam
  CDK     0628171801

 33 35  0  0  0  0  0  0  0  0999 V2000
    2.3920    5.4440    2.6864 C   0  0  0  0  0  0  0  0  0  0  0  0
    2.9485    5.9164    1.3868 N   0  0  1  0  0  0  0  0  0  0  0  0
    1.9788    6.0340    0.2357 C   0  0  2  0  0  0  0  0  0  0  0  0
    1.1499    4.8005    0.0831 C   0  0  0  0  0  0  0  0  0  0  0  0
   -0.0948    4.9095    0.1824 O   0  0  0  0  0  0  0  0  0  0  0  0
    1.7534    3.5869   -0.0984 N   0  0  0  0  0  0  0  0  0  0  0  0
    1.1659    2.3515   -0.1103 C   0  0  0  0  0  0  0  0  0  0  0  0
    1.9954    1.2090   -0.1346 C   0  0  0  0  0  0  0  0  0  0  0  0
    1.4165   -0.0723   -0.0675 C   0  0  0  0  0  0  0  0  0  0  0  0
    0.0203   -0.2121    0.0062 C   0  0  0  0  0  0  0  0  0  0  0  0
   -0.7760    0.9463    0.0052 C   0  0  0  0  0  0  0  0  0  0  0  0
   -0.1845    2.1680   -0.0519 N   0  0  0  0  0  0  0  0  0  0  0  0
    2.6588    6.4163   -1.0484 C   0  0  0  0  0  0  0  0  0  0  0  0
    2.3137    5.9143   -2.1444 O   0  0  0  0  0  0  0  0  0  0  0  0
    3.6692    7.4026   -1.0807 C   0  0  0  0  0  0  0  0  0  0  0  0
    4.2882    7.9856    0.0293 C   0  0  0  0  0  0  0  0  0  0  0  0
    5.2784    8.9476   -0.2325 C   0  0  0  0  0  0  0  0  0  0  0  0
    5.5073    9.1835   -1.5907 C   0  0  0  0  0  0  0  0  0  0  0  0
    4.4222    8.1362   -2.4873 S   0  0  0  0  0  0  0  0  0  0  0  0
    3.8106    7.4510    1.6347 S   0  0  2  0  0  0  0  0  0  0  0  0
    5.0958    7.2211    2.5646 O   0  0  0  0  0  0  0  0  0  0  0  0
    2.8256    8.5252    2.3027 O   0  0  0  0  0  0  0  0  0  0  0  0
    1.5803    6.0923    3.0224 H   0  0  0  0  0  0  0  0  0  0  0  0
    3.1702    5.4207    3.4521 H   0  0  0  0  0  0  0  0  0  0  0  0
    2.0128    4.4258    2.5962 H   0  0  0  0  0  0  0  0  0  0  0  0
    1.3018    6.8665    0.4657 H   0  0  0  0  0  0  0  0  0  0  0  0
    2.7197    3.6032   -0.1815 H   0  0  0  0  0  0  0  0  0  0  0  0
    3.0131    1.3020   -0.1870 H   0  0  0  0  0  0  0  0  0  0  0  0
    2.0120   -0.9027   -0.0686 H   0  0  0  0  0  0  0  0  0  0  0  0
   -0.4067   -1.1400    0.0597 H   0  0  0  0  0  0  0  0  0  0  0  0
   -1.7937    0.8732    0.0599 H   0  0  0  0  0  0  0  0  0  0  0  0
    5.7924    9.4292    0.5085 H   0  0  0  0  0  0  0  0  0  0  0  0
    6.1794    9.8410   -1.9898 H   0  0  0  0  0  0  0  0  0  0  0  0
  1  2  1  0  0  0  0 
  2  3  1  0  0  0  0 
  3  4  1  0  0  0  0 
  4  5  2  0  0  0  0 
  4  6  1  0  0  0  0 
  6  7  1  0  0  0  0 
  7  8  2  0  0  0  0 
  8  9  1  0  0  0  0 
  9 10  2  0  0  0  0 
 10 11  1  0  0  0  0 
 11 12  2  0  0  0  0 
  7 12  1  0  0  0  0 
  3 13  1  0  0  0  0 
 13 14  2  0  0  0  0 
 13 15  1  0  0  0  0 
 15 16  2  0  0  0  0 
 16 17  1  0  0  0  0 
 17 18  2  0  0  0  0 
 18 19  1  0  0  0  0 
 15 19  1  0  0  0  0 
 16 20  1  0  0  0  0 
  2 20  1  0  0  0  0 
 20 21  2  0  0  0  0 
 20 22  2  0  0  0  0 
 23  1  1  0  0  0  0 
 24  1  1  0  0  0  0 
 25  1  1  0  0  0  0 
 26  3  1  0  0  0  0 
 27  6  1  0  0  0  0 
 28  8  1  0  0  0  0 
 29  9  1  0  0  0  0 
 30 10  1  0  0  0  0 
 31 11  1  0  0  0  0 
 32 17  1  0  0  0  0 
 33 18  1  0  0  0  0 
M  END
> <cdk:Title>
tenoxicam

> <Conformer>
1

> <SuperDrugID>
SD002334

$$$$
