acenocoumarol
  CDK     0628171802

 39 41  0  0  0  0  0  0  0  0999 V2000
   -1.6025   -3.1065   -0.6298 C   0  0  0  0  0  0  0  0  0  0  0  0
   -0.6721   -1.9419   -0.8399 C   0  0  2  0  0  0  0  0  0  0  0  0
    0.6855   -2.4249   -1.3027 C   0  0  0  0  0  0  0  0  0  0  0  0
    0.9555   -2.6068   -2.6890 C   0  0  0  0  0  0  0  0  0  0  0  0
   -0.0140   -2.3408   -3.6041 O   0  0  0  0  0  0  0  0  0  0  0  0
    2.2118   -3.0678   -3.1561 C   0  0  0  0  0  0  0  0  0  0  0  0
    3.2151   -3.3536   -2.1971 C   0  0  0  0  0  0  0  0  0  0  0  0
    2.9441   -3.1835   -0.8760 O   0  0  0  0  0  0  0  0  0  0  0  0
    1.7428   -2.7439   -0.4097 C   0  0  0  0  0  0  0  0  0  0  0  0
    1.6630   -2.6566    0.8348 O   0  0  0  0  0  0  0  0  0  0  0  0
    4.4832   -3.8157   -2.5959 C   0  0  0  0  0  0  0  0  0  0  0  0
    4.7674   -3.9983   -3.9602 C   0  0  0  0  0  0  0  0  0  0  0  0
    3.7805   -3.7234   -4.9240 C   0  0  0  0  0  0  0  0  0  0  0  0
    2.5102   -3.2610   -4.5256 C   0  0  0  0  0  0  0  0  0  0  0  0
   -2.2025   -5.2053    0.5063 C   0  0  0  0  0  0  0  0  0  0  0  0
   -1.3418   -4.1053    0.3376 C   0  0  0  0  0  0  0  0  0  0  0  0
   -2.7774   -3.2493   -1.4056 C   0  0  0  0  0  0  0  0  0  0  0  0
   -3.6450   -4.3432   -1.2290 C   0  0  0  0  0  0  0  0  0  0  0  0
   -3.3807   -5.3502   -0.2684 C   0  0  0  0  0  0  0  0  0  0  0  0
   -4.2163   -6.3928   -0.1013 N   0  0  0  0  0  0  0  0  0  0  0  0
   -4.0249   -7.2414    0.6791 O   0  0  0  0  0  0  0  0  0  0  0  0
   -5.2839   -6.5334   -0.7772 O   0  0  0  0  0  0  0  0  0  0  0  0
   -0.6999   -0.9445    0.3689 C   0  0  2  0  0  0  0  0  0  0  0  0
    0.2051    0.2138    0.2061 C   0  0  0  0  0  0  0  0  0  0  0  0
    0.0062    1.1109   -0.7879 O   0  0  0  0  0  0  0  0  0  0  0  0
    1.1670    0.3949    0.9876 O   0  0  0  0  0  0  0  0  0  0  0  0
   -1.0816   -1.3308   -1.6529 H   0  0  0  0  0  0  0  0  0  0  0  0
   -0.4728   -3.1961   -3.7383 H   0  0  0  0  0  0  0  0  0  0  0  0
    5.1995   -4.0214   -1.8953 H   0  0  0  0  0  0  0  0  0  0  0  0
    5.6887   -4.3316   -4.2519 H   0  0  0  0  0  0  0  0  0  0  0  0
    3.9855   -3.8596   -5.9156 H   0  0  0  0  0  0  0  0  0  0  0  0
    1.8119   -3.0701   -5.2472 H   0  0  0  0  0  0  0  0  0  0  0  0
   -1.9575   -5.9071    1.2084 H   0  0  0  0  0  0  0  0  0  0  0  0
   -0.5157   -4.0449    0.9315 H   0  0  0  0  0  0  0  0  0  0  0  0
   -3.0153   -2.5514   -2.1135 H   0  0  0  0  0  0  0  0  0  0  0  0
   -4.4793   -4.3952   -1.8178 H   0  0  0  0  0  0  0  0  0  0  0  0
   -0.4732   -1.4631    1.3034 H   0  0  0  0  0  0  0  0  0  0  0  0
   -1.7127   -0.5456    0.4784 H   0  0  0  0  0  0  0  0  0  0  0  0
    0.6036    1.8822   -0.8798 H   0  0  0  0  0  0  0  0  0  0  0  0
  2  1  1  0  0  0  0 
  2  3  1  0  0  0  0 
  3  4  2  0  0  0  0 
  4  5  1  0  0  0  0 
  4  6  1  0  0  0  0 
  6  7  1  0  0  0  0 
  7  8  1  0  0  0  0 
  8  9  1  0  0  0  0 
  3  9  1  0  0  0  0 
  9 10  2  0  0  0  0 
  7 11  2  0  0  0  0 
 11 12  1  0  0  0  0 
 12 13  2  0  0  0  0 
 13 14  1  0  0  0  0 
  6 14  2  0  0  0  0 
 16  1  2  0  0  0  0 
  1 17  1  0  0  0  0 
 15 16  1  0  0  0  0 
 17 18  2  0  0  0  0 
 18 19  1  0  0  0  0 
 15 19  2  0  0  0  0 
 19 20  1  0  0  0  0 
 20 21  2  0  0  0  0 
 20 22  1  0  0  0  0 
  2 23  1  0  0  0  0 
 23 24  1  0  0  0  0 
 24 25  1  0  0  0  0 
 24 26  2  0  0  0  0 
  2 27  1  0  0  0  0 
  5 28  1  0  0  0  0 
 11 29  1  0  0  0  0 
 12 30  1  0  0  0  0 
 13 31  1  0  0  0  0 
 14 32  1  0  0  0  0 
 15 33  1  0  0  0  0 
 16 34  1  0  0  0  0 
 17 35  1  0  0  0  0 
 18 36  1  0  0  0  0 
 23 37  1  0  0  0  0 
 23 38  1  0  0  0  0 
 25 39  1  0  0  0  0 
M  CHG  1  20   1
M  CHG  1  22  -1
M  END
> <cdk:Title>
acenocoumarol

> <Conformer>
1

> <SuperDrugID>
SD000025

$$$$
