emetine
  CDK     0628171801

 75 79  0  0  0  0  0  0  0  0999 V2000
    2.9085    7.2257    1.9199 C   0  0  2  0  0  0  0  0  0  0  0  0
    1.6449    6.5606    2.5898 C   0  0  1  0  0  0  0  0  0  0  0  0
    3.0165    7.2145    0.3524 C   0  0  2  0  0  0  0  0  0  0  0  0
    1.5584    5.0789    2.0847 C   0  0  1  0  0  0  0  0  0  0  0  0
    1.6501    6.6628    4.1707 C   0  0  1  0  0  0  0  0  0  0  0  0
    4.2856    7.8283   -0.1851 C   0  0  0  0  0  0  0  0  0  0  0  0
    1.7898    7.8851   -0.1598 N   0  0  1  0  0  0  0  0  0  0  0  0
    0.5745    4.1514    2.8503 C   0  0  1  0  0  0  0  0  0  0  0  0
    1.2921    8.0715    4.7768 C   0  0  1  0  0  0  0  0  0  0  0  0
    0.6604    5.6358    4.8208 C   0  0  1  0  0  0  0  0  0  0  0  0
    4.2540    8.7712   -1.2531 C   0  0  0  0  0  0  0  0  0  0  0  0
    5.5500    7.4457    0.3281 C   0  0  0  0  0  0  0  0  0  0  0  0
    1.8162    8.1920   -1.6004 C   0  0  1  0  0  0  0  0  0  0  0  0
    0.7067    2.7019    2.3468 C   0  0  0  0  0  0  0  0  0  0  0  0
    0.8070    4.2413    4.3280 N   0  0  2  0  0  0  0  0  0  0  0  0
    2.3161    9.2210    4.6191 C   0  0  0  0  0  0  0  0  0  0  0  0
    5.4591    9.3378   -1.7311 C   0  0  0  0  0  0  0  0  0  0  0  0
    2.9717    9.1773   -1.8889 C   0  0  2  0  0  0  0  0  0  0  0  0
    6.7436    8.0463   -0.1204 C   0  0  0  0  0  0  0  0  0  0  0  0
    1.3091    1.6167    3.0768 C   0  0  0  0  0  0  0  0  0  0  0  0
    0.2315    2.4013    1.0506 C   0  0  0  0  0  0  0  0  0  0  0  0
    1.9896    3.4959    4.8651 C   0  0  1  0  0  0  0  0  0  0  0  0
    6.7013    8.9801   -1.1755 C   0  0  0  0  0  0  0  0  0  0  0  0
    7.9409    7.7096    0.4577 O   0  0  0  0  0  0  0  0  0  0  0  0
    1.4704    0.2978    2.5199 C   0  0  0  0  0  0  0  0  0  0  0  0
    1.8308    1.9518    4.5387 C   0  0  2  0  0  0  0  0  0  0  0  0
    0.3699    1.1215    0.4809 C   0  0  0  0  0  0  0  0  0  0  0  0
    7.8506    9.5711   -1.6329 O   0  0  0  0  0  0  0  0  0  0  0  0
    8.2197    8.4800    1.6432 C   0  0  0  0  0  0  0  0  0  0  0  0
    1.0250    0.0944    1.1974 C   0  0  0  0  0  0  0  0  0  0  0  0
   -0.0809    0.9003   -0.7950 O   0  0  0  0  0  0  0  0  0  0  0  0
    8.5185    8.8259   -2.6690 C   0  0  0  0  0  0  0  0  0  0  0  0
    1.2338   -1.1200    0.5991 O   0  0  0  0  0  0  0  0  0  0  0  0
   -1.4374    0.4156   -0.8492 C   0  0  0  0  0  0  0  0  0  0  0  0
    2.4854   -1.1652   -0.1157 C   0  0  0  0  0  0  0  0  0  0  0  0
   -0.4534    4.4717    2.6564 H   0  0  0  0  0  0  0  0  0  0  0  0
    3.0165    6.1819   -0.0052 H   0  0  0  0  0  0  0  0  0  0  0  0
    3.7790    6.7248    2.3456 H   0  0  0  0  0  0  0  0  0  0  0  0
    2.9762    8.2640    2.2148 H   0  0  0  0  0  0  0  0  0  0  0  0
    0.7447    7.0753    2.2396 H   0  0  0  0  0  0  0  0  0  0  0  0
    1.2499    5.0892    1.0362 H   0  0  0  0  0  0  0  0  0  0  0  0
    2.5534    4.6233    2.1267 H   0  0  0  0  0  0  0  0  0  0  0  0
    2.6507    6.3951    4.5221 H   0  0  0  0  0  0  0  0  0  0  0  0
    1.0006    7.2569    0.0031 H   0  0  0  0  0  0  0  0  0  0  0  0
    0.3274    8.4038    4.3830 H   0  0  0  0  0  0  0  0  0  0  0  0
    1.1649    7.9532    5.8579 H   0  0  0  0  0  0  0  0  0  0  0  0
    0.7806    5.6378    5.9086 H   0  0  0  0  0  0  0  0  0  0  0  0
   -0.3713    5.9483    4.6315 H   0  0  0  0  0  0  0  0  0  0  0  0
    5.6199    6.7246    1.0485 H   0  0  0  0  0  0  0  0  0  0  0  0
    1.9380    7.2708   -2.1789 H   0  0  0  0  0  0  0  0  0  0  0  0
    0.8647    8.6475   -1.8849 H   0  0  0  0  0  0  0  0  0  0  0  0
    2.1756    9.9582    5.4141 H   0  0  0  0  0  0  0  0  0  0  0  0
    3.3372    8.8416    4.6801 H   0  0  0  0  0  0  0  0  0  0  0  0
    2.1674    9.7430    3.6737 H   0  0  0  0  0  0  0  0  0  0  0  0
    5.4420   10.0162   -2.4952 H   0  0  0  0  0  0  0  0  0  0  0  0
    3.0900    9.2405   -2.9735 H   0  0  0  0  0  0  0  0  0  0  0  0
    2.7005   10.1707   -1.5204 H   0  0  0  0  0  0  0  0  0  0  0  0
   -0.2160    3.1342    0.4947 H   0  0  0  0  0  0  0  0  0  0  0  0
    2.9120    3.8653    4.4101 H   0  0  0  0  0  0  0  0  0  0  0  0
    2.0738    3.6240    5.9474 H   0  0  0  0  0  0  0  0  0  0  0  0
    1.9158   -0.5547    2.9987 H   0  0  0  0  0  0  0  0  0  0  0  0
    2.8410    1.5173    4.7976 H   0  0  0  0  0  0  0  0  0  0  0  0
    1.1719    1.5629    5.3713 H   0  0  0  0  0  0  0  0  0  0  0  0
    9.1886    8.1669    2.0313 H   0  0  0  0  0  0  0  0  0  0  0  0
    8.2716    9.5500    1.4259 H   0  0  0  0  0  0  0  0  0  0  0  0
    7.4709    8.3025    2.4192 H   0  0  0  0  0  0  0  0  0  0  0  0
    9.3999    9.3912   -2.9756 H   0  0  0  0  0  0  0  0  0  0  0  0
    8.8519    7.8491   -2.3093 H   0  0  0  0  0  0  0  0  0  0  0  0
    7.8786    8.6939   -3.5454 H   0  0  0  0  0  0  0  0  0  0  0  0
   -1.7110    0.2652   -1.8940 H   0  0  0  0  0  0  0  0  0  0  0  0
   -1.5399   -0.5417   -0.3320 H   0  0  0  0  0  0  0  0  0  0  0  0
   -2.1349    1.1388   -0.4185 H   0  0  0  0  0  0  0  0  0  0  0  0
    2.5838   -2.1481   -0.5750 H   0  0  0  0  0  0  0  0  0  0  0  0
    2.5228   -0.4164   -0.9115 H   0  0  0  0  0  0  0  0  0  0  0  0
    3.3333   -1.0199    0.5584 H   0  0  0  0  0  0  0  0  0  0  0  0
  3  1  1  0  0  0  0 
  2  1  1  0  0  0  0 
  2  4  1  0  0  0  0 
  5  2  1  0  0  0  0 
  3  6  1  0  0  0  0 
  3  7  1  0  0  0  0 
  3 37  1  0  0  0  0 
  8  4  1  0  0  0  0 
  5  9  1  0  0  0  0 
  5 10  1  0  0  0  0 
  6 11  2  0  0  0  0 
  6 12  1  0  0  0  0 
  7 13  1  0  0  0  0 
  8 14  1  0  0  0  0 
  8 15  1  0  0  0  0 
  8 36  1  0  0  0  0 
  9 16  1  0  0  0  0 
 10 15  1  0  0  0  0 
 11 17  1  0  0  0  0 
 11 18  1  0  0  0  0 
 12 19  2  0  0  0  0 
 13 18  1  0  0  0  0 
 14 20  2  0  0  0  0 
 14 21  1  0  0  0  0 
 15 22  1  0  0  0  0 
 17 23  2  0  0  0  0 
 19 23  1  0  0  0  0 
 19 24  1  0  0  0  0 
 20 25  1  0  0  0  0 
 20 26  1  0  0  0  0 
 21 27  2  0  0  0  0 
 22 26  1  0  0  0  0 
 23 28  1  0  0  0  0 
 24 29  1  0  0  0  0 
 25 30  2  0  0  0  0 
 27 30  1  0  0  0  0 
 27 31  1  0  0  0  0 
 28 32  1  0  0  0  0 
 30 33  1  0  0  0  0 
 31 34  1  0  0  0  0 
 33 35  1  0  0  0  0 
  1 38  1  0  0  0  0 
  1 39  1  0  0  0  0 
  2 40  1  0  0  0  0 
  4 41  1  0  0  0  0 
  4 42  1  0  0  0  0 
  5 43  1  0  0  0  0 
  7 44  1  0  0  0  0 
  9 45  1  0  0  0  0 
  9 46  1  0  0  0  0 
 10 47  1  0  0  0  0 
 10 48  1  0  0  0  0 
 12 49  1  0  0  0  0 
 13 50  1  0  0  0  0 
 13 51  1  0  0  0  0 
 16 52  1  0  0  0  0 
 16 53  1  0  0  0  0 
 16 54  1  0  0  0  0 
 17 55  1  0  0  0  0 
 18 56  1  0  0  0  0 
 18 57  1  0  0  0  0 
 21 58  1  0  0  0  0 
 22 59  1  0  0  0  0 
 22 60  1  0  0  0  0 
 25 61  1  0  0  0  0 
 26 62  1  0  0  0  0 
 26 63  1  0  0  0  0 
 29 64  1  0  0  0  0 
 29 65  1  0  0  0  0 
 29 66  1  0  0  0  0 
 32 67  1  0  0  0  0 
 32 68  1  0  0  0  0 
 32 69  1  0  0  0  0 
 34 70  1  0  0  0  0 
 34 71  1  0  0  0  0 
 34 72  1  0  0  0  0 
 35 73  1  0  0  0  0 
 35 74  1  0  0  0  0 
 35 75  1  0  0  0  0 
M  END
> <cdk:Title>
emetine

> <Conformer>
1

> <SuperDrugID>
SD000889

$$$$
