dibromsalan
  Mrv0541 09131710093D              41.00117

 27 28  0  0  0  0            999 V2000
    3.8439    0.6526    3.2904 O   0  0  0  0  0  0  0  0  0  0  0  0
    4.2699    0.6036    2.0026 C   0  0  0  0  0  0  0  0  0  0  0  0
    5.6604    0.7358    1.8165 C   0  0  0  0  0  0  0  0  0  0  0  0
    6.2148    0.6773    0.5299 C   0  0  0  0  0  0  0  0  0  0  0  0
    5.3793    0.4835   -0.5805 C   0  0  0  0  0  0  0  0  0  0  0  0
    6.1134    0.3864   -2.2875 Br  0  0  0  0  0  0  0  0  0  0  0  0
    3.9883    0.3629   -0.3997 C   0  0  0  0  0  0  0  0  0  0  0  0
    3.3945    0.4228    0.8903 C   0  0  0  0  0  0  0  0  0  0  0  0
    1.9711    0.3225    1.0362 C   0  0  0  0  0  0  0  0  0  0  0  0
    1.4331    0.7177    2.0968 O   0  0  0  0  0  0  0  0  0  0  0  0
    1.1934   -0.2138    0.0406 N   0  0  0  0  0  0  0  0  0  0  0  0
   -0.1706   -0.3220   -0.0562 C   0  0  0  0  0  0  0  0  0  0  0  0
   -0.6610   -1.3094   -0.9407 C   0  0  0  0  0  0  0  0  0  0  0  0
   -2.0434   -1.5015   -1.1236 C   0  0  0  0  0  0  0  0  0  0  0  0
   -2.9640   -0.6966   -0.4317 C   0  0  0  0  0  0  0  0  0  0  0  0
   -4.7936   -0.9597   -0.6635 Br  0  0  0  0  0  0  0  0  0  0  0  0
   -2.4946    0.3078    0.4326 C   0  0  0  0  0  0  0  0  0  0  0  0
   -1.1110    0.4980    0.6157 C   0  0  0  0  0  0  0  0  0  0  0  0
    3.1131    0.0053    3.3503 H   0  0  0  0  0  0  0  0  0  0  0  0
    6.2775    0.8723    2.6203 H   0  0  0  0  0  0  0  0  0  0  0  0
    7.2257    0.7736    0.4043 H   0  0  0  0  0  0  0  0  0  0  0  0
    3.4123    0.2421   -1.2343 H   0  0  0  0  0  0  0  0  0  0  0  0
    1.6759   -0.5961   -0.7082 H   0  0  0  0  0  0  0  0  0  0  0  0
   -0.0106   -1.9048   -1.4594 H   0  0  0  0  0  0  0  0  0  0  0  0
   -2.3798   -2.2262   -1.7631 H   0  0  0  0  0  0  0  0  0  0  0  0
   -3.1577    0.9079    0.9283 H   0  0  0  0  0  0  0  0  0  0  0  0
   -0.8076    1.2500    1.2316 H   0  0  0  0  0  0  0  0  0  0  0  0
  1  2  1  0  0  0  0
  2  3  2  0  0  0  0
  3  4  1  0  0  0  0
  4  5  2  0  0  0  0
  5  6  1  0  0  0  0
  5  7  1  0  0  0  0
  7  8  2  0  0  0  0
  8  9  1  0  0  0  0
  9 10  2  0  0  0  0
  9 11  1  0  0  0  0
 11 12  1  0  0  0  0
 12 13  2  0  0  0  0
 13 14  1  0  0  0  0
 14 15  2  0  0  0  0
 15 16  1  0  0  0  0
 15 17  1  0  0  0  0
 17 18  2  0  0  0  0
  8  2  1  0  0  0  0
 18 12  1  0  0  0  0
  1 19  1  0  0  0  0
  3 20  1  0  0  0  0
  4 21  1  0  0  0  0
  7 22  1  0  0  0  0
 11 23  1  0  0  0  0
 13 24  1  0  0  0  0
 14 25  1  0  0  0  0
 17 26  1  0  0  0  0
 18 27  1  0  0  0  0
M  END
>  <SuperDrugID>
SD006020

>  <_MOLCOUNT>
1

$$$$
