clocortolone pivalate
  CDK     0628171802

 70 73  0  0  0  0  0  0  0  0999 V2000
   -2.6602    1.6880   -3.6599 Cl  0  0  0  0  0  0  0  0  0  0  0  0
   -4.1213    0.6931   -3.9514 C   0  0  2  0  0  0  0  0  0  0  0  0
   -4.0453    0.0861   -5.4187 C   0  0  2  0  0  0  0  0  0  0  0  0
   -5.3840    1.6831   -3.8086 C   0  0  2  0  0  0  0  0  0  0  0  0
   -4.0194   -0.4799   -2.8830 C   0  0  1  0  0  0  0  0  0  0  0  0
   -2.8328   -0.8944   -5.5758 C   0  0  1  0  0  0  0  0  0  0  0  0
   -4.0590    1.2025   -6.5052 C   0  0  2  0  0  0  0  0  0  0  0  0
   -6.8082    1.0061   -3.8747 C   0  0  0  0  0  0  0  0  0  0  0  0
   -5.3340    2.6797   -4.9394 C   0  0  0  0  0  0  0  0  0  0  0  0
   -5.3817    2.3374   -2.4735 C   0  0  0  0  0  0  0  0  0  0  0  0
   -5.2491   -1.1850   -2.7366 O   0  0  0  0  0  0  0  0  0  0  0  0
   -2.8790   -1.5299   -3.1528 C   0  0  1  0  0  0  0  0  0  0  0  0
   -2.8883   -2.1216   -4.6078 C   0  0  1  0  0  0  0  0  0  0  0  0
   -2.5082   -1.5195   -6.9463 C   0  0  1  0  0  0  0  0  0  0  0  0
   -5.2552    2.1708   -6.3243 C   0  0  1  0  0  0  0  0  0  0  0  0
   -5.3517    4.0106   -4.6885 C   0  0  0  0  0  0  0  0  0  0  0  0
   -5.3970    3.6688   -2.3064 C   0  0  0  0  0  0  0  0  0  0  0  0
   -4.1451   -3.0579   -4.7986 C   0  0  0  0  0  0  0  0  0  0  0  0
   -1.5636   -2.8613   -5.0466 C   0  0  2  0  0  0  0  0  0  0  0  0
   -1.4810   -2.6424   -6.6041 C   0  0  2  0  0  0  0  0  0  0  0  0
   -5.1549    3.1339   -7.3105 F   0  0  0  0  0  0  0  0  0  0  0  0
   -5.3989    4.5135   -3.3986 C   0  0  0  0  0  0  0  0  0  0  0  0
   -1.3846   -4.3000   -4.6665 C   0  0  0  0  0  0  0  0  0  0  0  0
   -0.0428   -2.3081   -7.0956 C   0  0  0  0  0  0  0  0  0  0  0  0
   -5.4326    5.7537   -3.2167 O   0  0  0  0  0  0  0  0  0  0  0  0
   -0.2304   -4.7998   -3.8885 C   0  0  2  0  0  0  0  0  0  0  0  0
   -2.1867   -5.1631   -5.0953 O   0  0  0  0  0  0  0  0  0  0  0  0
   -0.3326   -4.4106   -2.5149 O   0  0  0  0  0  0  0  0  0  0  0  0
    0.3202   -4.9893   -1.4571 C   0  0  0  0  0  0  0  0  0  0  0  0
    0.2434   -4.3352   -0.1089 C   0  0  1  0  0  0  0  0  0  0  0  0
    0.9579   -6.0555   -1.6410 O   0  0  0  0  0  0  0  0  0  0  0  0
    1.2613   -5.0330    0.9066 C   0  0  0  0  0  0  0  0  0  0  0  0
    0.8175   -2.8678   -0.3363 C   0  0  0  0  0  0  0  0  0  0  0  0
   -1.3119   -4.4109    0.3475 C   0  0  0  0  0  0  0  0  0  0  0  0
   -4.9497   -0.4890   -5.6047 H   0  0  0  0  0  0  0  0  0  0  0  0
   -3.8280   -0.0514   -1.8929 H   0  0  0  0  0  0  0  0  0  0  0  0
   -1.9406   -0.2969   -5.3471 H   0  0  0  0  0  0  0  0  0  0  0  0
   -4.1390    0.7487   -7.4969 H   0  0  0  0  0  0  0  0  0  0  0  0
   -3.1223    1.7654   -6.4832 H   0  0  0  0  0  0  0  0  0  0  0  0
   -7.5906    1.7617   -4.0037 H   0  0  0  0  0  0  0  0  0  0  0  0
   -7.0603    0.4603   -2.9625 H   0  0  0  0  0  0  0  0  0  0  0  0
   -6.8954    0.3035   -4.7017 H   0  0  0  0  0  0  0  0  0  0  0  0
   -5.3843    1.7725   -1.6553 H   0  0  0  0  0  0  0  0  0  0  0  0
   -5.0855   -1.8508   -2.0358 H   0  0  0  0  0  0  0  0  0  0  0  0
   -1.9204   -1.0408   -2.9600 H   0  0  0  0  0  0  0  0  0  0  0  0
   -2.9483   -2.3418   -2.4246 H   0  0  0  0  0  0  0  0  0  0  0  0
   -3.4105   -1.9404   -7.3999 H   0  0  0  0  0  0  0  0  0  0  0  0
   -2.0999   -0.7720   -7.6334 H   0  0  0  0  0  0  0  0  0  0  0  0
   -6.1768    1.6298   -6.5506 H   0  0  0  0  0  0  0  0  0  0  0  0
   -5.3331    4.6678   -5.4353 H   0  0  0  0  0  0  0  0  0  0  0  0
   -5.4106    4.0492   -1.3874 H   0  0  0  0  0  0  0  0  0  0  0  0
   -5.0908   -2.5282   -4.7636 H   0  0  0  0  0  0  0  0  0  0  0  0
   -4.1222   -3.5798   -5.7541 H   0  0  0  0  0  0  0  0  0  0  0  0
   -4.1743   -3.8104   -4.0088 H   0  0  0  0  0  0  0  0  0  0  0  0
   -0.7311   -2.3153   -4.5872 H   0  0  0  0  0  0  0  0  0  0  0  0
   -1.7974   -3.5476   -7.1365 H   0  0  0  0  0  0  0  0  0  0  0  0
   -0.0298   -2.1927   -8.1811 H   0  0  0  0  0  0  0  0  0  0  0  0
    0.6413   -3.1149   -6.8282 H   0  0  0  0  0  0  0  0  0  0  0  0
    0.3176   -1.3789   -6.6479 H   0  0  0  0  0  0  0  0  0  0  0  0
    0.6952   -4.3789   -4.2844 H   0  0  0  0  0  0  0  0  0  0  0  0
   -0.1631   -5.8898   -3.9755 H   0  0  0  0  0  0  0  0  0  0  0  0
    1.2413   -4.5115    1.8669 H   0  0  0  0  0  0  0  0  0  0  0  0
    2.2869   -5.0218    0.5255 H   0  0  0  0  0  0  0  0  0  0  0  0
    0.9686   -6.0713    1.0843 H   0  0  0  0  0  0  0  0  0  0  0  0
    0.9725   -2.3656    0.6189 H   0  0  0  0  0  0  0  0  0  0  0  0
    1.7696   -2.8889   -0.8770 H   0  0  0  0  0  0  0  0  0  0  0  0
    0.1022   -2.2737   -0.9097 H   0  0  0  0  0  0  0  0  0  0  0  0
   -1.4175   -3.9779    1.3442 H   0  0  0  0  0  0  0  0  0  0  0  0
   -1.9519   -3.8499   -0.3373 H   0  0  0  0  0  0  0  0  0  0  0  0
   -1.6565   -5.4469    0.3917 H   0  0  0  0  0  0  0  0  0  0  0  0
  2  1  1  0  0  0  0 
  2  3  1  0  0  0  0 
  2  4  1  0  0  0  0 
  2  5  1  0  0  0  0 
  3  6  1  0  0  0  0 
  3  7  1  0  0  0  0 
  4  8  1  0  0  0  0 
  4  9  1  0  0  0  0 
  4 10  1  0  0  0  0 
  5 11  1  0  0  0  0 
  5 12  1  0  0  0  0 
  6 13  1  0  0  0  0 
  6 14  1  0  0  0  0 
 15  7  1  0  0  0  0 
 15  9  1  0  0  0  0 
  9 16  2  0  0  0  0 
 10 17  2  0  0  0  0 
 13 12  1  0  0  0  0 
 13 18  1  0  0  0  0 
 13 19  1  0  0  0  0 
 20 14  1  0  0  0  0 
 15 21  1  0  0  0  0 
 16 22  1  0  0  0  0 
 17 22  1  0  0  0  0 
 19 20  1  0  0  0  0 
 19 23  1  0  0  0  0 
 20 24  1  0  0  0  0 
 22 25  2  0  0  0  0 
 23 26  1  0  0  0  0 
 23 27  2  0  0  0  0 
 26 28  1  0  0  0  0 
 28 29  1  0  0  0  0 
 29 30  1  0  0  0  0 
 29 31  2  0  0  0  0 
 30 32  1  0  0  0  0 
 30 33  1  0  0  0  0 
 30 34  1  0  0  0  0 
  3 35  1  0  0  0  0 
  5 36  1  0  0  0  0 
  6 37  1  0  0  0  0 
 38  7  1  0  0  0  0 
 39  7  1  0  0  0  0 
 40  8  1  0  0  0  0 
 41  8  1  0  0  0  0 
 42  8  1  0  0  0  0 
 43 10  1  0  0  0  0 
 44 11  1  0  0  0  0 
 45 12  1  0  0  0  0 
 46 12  1  0  0  0  0 
 47 14  1  0  0  0  0 
 48 14  1  0  0  0  0 
 15 49  1  0  0  0  0 
 50 16  1  0  0  0  0 
 51 17  1  0  0  0  0 
 52 18  1  0  0  0  0 
 53 18  1  0  0  0  0 
 54 18  1  0  0  0  0 
 19 55  1  0  0  0  0 
 20 56  1  0  0  0  0 
 57 24  1  0  0  0  0 
 58 24  1  0  0  0  0 
 59 24  1  0  0  0  0 
 60 26  1  0  0  0  0 
 61 26  1  0  0  0  0 
 62 32  1  0  0  0  0 
 63 32  1  0  0  0  0 
 64 32  1  0  0  0  0 
 65 33  1  0  0  0  0 
 66 33  1  0  0  0  0 
 67 33  1  0  0  0  0 
 68 34  1  0  0  0  0 
 69 34  1  0  0  0  0 
 70 34  1  0  0  0  0 
M  END
> <cdk:Title>
clocortolone pivalate

> <Conformer>
1

> <SuperDrugID>
SD003651

$$$$
