indomethacin
  CDK     0628171801

 41 43  0  0  0  0  0  0  0  0999 V2000
    0.3035   -0.2858   -0.3611 C   0  0  0  0  0  0  0  0  0  0  0  0
    0.5276    0.4193    0.6520 O   0  0  0  0  0  0  0  0  0  0  0  0
   -0.6623    0.0789   -1.2972 N   0  0  0  0  0  0  0  0  0  0  0  0
    1.1525   -1.4124   -0.4391 C   0  0  0  0  0  0  0  0  0  0  0  0
   -1.1927   -0.6970   -2.2884 C   0  0  0  0  0  0  0  0  0  0  0  0
   -1.2650    1.3088   -1.3842 C   0  0  0  0  0  0  0  0  0  0  0  0
    1.1736   -2.3589    0.6103 C   0  0  0  0  0  0  0  0  0  0  0  0
    2.0116   -1.5989   -1.5471 C   0  0  0  0  0  0  0  0  0  0  0  0
   -2.0727    0.0753   -3.0530 C   0  0  0  0  0  0  0  0  0  0  0  0
   -1.0322   -2.0661   -2.6173 C   0  0  0  0  0  0  0  0  0  0  0  0
   -1.0269    2.4670   -0.4827 C   0  0  0  0  0  0  0  0  0  0  0  0
   -2.1546    1.3361   -2.4721 C   0  0  0  0  0  0  0  0  0  0  0  0
    2.0408   -3.4634    0.5598 C   0  0  0  0  0  0  0  0  0  0  0  0
    2.8669   -2.7143   -1.6066 C   0  0  0  0  0  0  0  0  0  0  0  0
   -2.7208   -0.4410   -4.1930 C   0  0  0  0  0  0  0  0  0  0  0  0
   -1.6881   -2.6031   -3.7440 C   0  0  0  0  0  0  0  0  0  0  0  0
   -3.0392    2.4539   -2.9045 C   0  0  1  0  0  0  0  0  0  0  0  0
    2.8909   -3.6425   -0.5482 C   0  0  0  0  0  0  0  0  0  0  0  0
   -2.5220   -1.7910   -4.5441 C   0  0  0  0  0  0  0  0  0  0  0  0
   -2.2811    3.5896   -3.4615 C   0  0  0  0  0  0  0  0  0  0  0  0
    3.9440   -4.9652   -0.6047 Cl  0  0  0  0  0  0  0  0  0  0  0  0
   -3.1013   -2.2785   -5.6857 O   0  0  0  0  0  0  0  0  0  0  0  0
   -1.4618    3.4177   -4.5242 O   0  0  0  0  0  0  0  0  0  0  0  0
   -2.3859    4.7352   -2.9680 O   0  0  0  0  0  0  0  0  0  0  0  0
   -4.3039   -3.0318   -5.4583 C   0  0  0  0  0  0  0  0  0  0  0  0
    0.5550   -2.2506    1.4181 H   0  0  0  0  0  0  0  0  0  0  0  0
    2.0202   -0.9268   -2.3177 H   0  0  0  0  0  0  0  0  0  0  0  0
   -0.4612   -2.6918   -2.0519 H   0  0  0  0  0  0  0  0  0  0  0  0
    0.0245    2.7570   -0.5247 H   0  0  0  0  0  0  0  0  0  0  0  0
   -1.2863    2.1899    0.5385 H   0  0  0  0  0  0  0  0  0  0  0  0
   -1.6265    3.3389   -0.7351 H   0  0  0  0  0  0  0  0  0  0  0  0
    2.0506   -4.1297    1.3349 H   0  0  0  0  0  0  0  0  0  0  0  0
    3.4740   -2.8400   -2.4195 H   0  0  0  0  0  0  0  0  0  0  0  0
   -3.3253    0.1484   -4.7672 H   0  0  0  0  0  0  0  0  0  0  0  0
   -1.5527   -3.5874   -3.9871 H   0  0  0  0  0  0  0  0  0  0  0  0
   -3.7439    2.1271   -3.6662 H   0  0  0  0  0  0  0  0  0  0  0  0
   -3.6417    2.7749   -2.0511 H   0  0  0  0  0  0  0  0  0  0  0  0
   -0.9557    4.1810   -4.8745 H   0  0  0  0  0  0  0  0  0  0  0  0
   -4.6749   -3.3596   -6.4287 H   0  0  0  0  0  0  0  0  0  0  0  0
   -4.1117   -3.9196   -4.8527 H   0  0  0  0  0  0  0  0  0  0  0  0
   -5.0776   -2.4243   -4.9849 H   0  0  0  0  0  0  0  0  0  0  0  0
  1  2  2  0  0  0  0 
  1  3  1  0  0  0  0 
  1  4  1  0  0  0  0 
  3  5  1  0  0  0  0 
  3  6  1  0  0  0  0 
  4  7  2  0  0  0  0 
  4  8  1  0  0  0  0 
  5  9  1  0  0  0  0 
  5 10  2  0  0  0  0 
  6 11  1  0  0  0  0 
  6 12  2  0  0  0  0 
  7 13  1  0  0  0  0 
  8 14  2  0  0  0  0 
  9 12  1  0  0  0  0 
  9 15  2  0  0  0  0 
 10 16  1  0  0  0  0 
 12 17  1  0  0  0  0 
 13 18  2  0  0  0  0 
 14 18  1  0  0  0  0 
 15 19  1  0  0  0  0 
 16 19  2  0  0  0  0 
 17 20  1  0  0  0  0 
 18 21  1  0  0  0  0 
 19 22  1  0  0  0  0 
 20 23  1  0  0  0  0 
 20 24  2  0  0  0  0 
 22 25  1  0  0  0  0 
  7 26  1  0  0  0  0 
  8 27  1  0  0  0  0 
 10 28  1  0  0  0  0 
 11 29  1  0  0  0  0 
 11 30  1  0  0  0  0 
 11 31  1  0  0  0  0 
 13 32  1  0  0  0  0 
 14 33  1  0  0  0  0 
 15 34  1  0  0  0  0 
 16 35  1  0  0  0  0 
 17 36  1  0  0  0  0 
 17 37  1  0  0  0  0 
 23 38  1  0  0  0  0 
 25 39  1  0  0  0  0 
 25 40  1  0  0  0  0 
 25 41  1  0  0  0  0 
M  END
> <cdk:Title>
indomethacin

> <Conformer>
1

> <SuperDrugID>
SD001277

$$$$
