desaspidin
  CDK     0628171801

 62 63  0  0  0  0  0  0  0  0999 V2000
   -0.3534    6.7633    0.4723 C   0  0  1  0  0  0  0  0  0  0  0  0
   -1.7157    6.8587    1.0924 C   0  0  0  0  0  0  0  0  0  0  0  0
   -0.3262    5.8299   -0.6742 C   0  0  0  0  0  0  0  0  0  0  0  0
   -2.4515    8.0657    1.0274 C   0  0  0  0  0  0  0  0  0  0  0  0
   -2.2933    5.7382    1.7535 C   0  0  0  0  0  0  0  0  0  0  0  0
    0.3560    4.6044   -0.5990 C   0  0  0  0  0  0  0  0  0  0  0  0
   -0.9441    6.1411   -1.8381 C   0  0  0  0  0  0  0  0  0  0  0  0
   -1.9489    9.1955    0.4346 O   0  0  0  0  0  0  0  0  0  0  0  0
   -3.7518    8.1176    1.5494 C   0  0  0  0  0  0  0  0  0  0  0  0
   -1.5194    4.6285    1.8456 O   0  0  0  0  0  0  0  0  0  0  0  0
   -3.6149    5.7673    2.2977 C   0  0  0  0  0  0  0  0  0  0  0  0
    1.2688    4.4840    0.2540 O   0  0  0  0  0  0  0  0  0  0  0  0
    0.1139    3.5525   -1.5023 C   0  0  0  0  0  0  0  0  0  0  0  0
   -1.5249    7.3344   -1.9676 O   0  0  0  0  0  0  0  0  0  0  0  0
   -0.9804    5.2254   -3.0025 C   0  0  1  0  0  0  0  0  0  0  0  0
   -1.4077   10.1420    1.3744 C   0  0  0  0  0  0  0  0  0  0  0  0
   -4.3242    6.9981    2.1714 C   0  0  0  0  0  0  0  0  0  0  0  0
   -4.2353    4.6248    2.9392 C   0  0  0  0  0  0  0  0  0  0  0  0
    0.5391    2.2372   -1.2170 C   0  0  0  0  0  0  0  0  0  0  0  0
   -0.5160    3.8573   -2.6646 C   0  0  0  0  0  0  0  0  0  0  0  0
   -5.5852    7.1963    2.6322 O   0  0  0  0  0  0  0  0  0  0  0  0
   -3.6114    3.2759    3.0956 C   0  0  1  0  0  0  0  0  0  0  0  0
   -5.3922    4.7359    3.4129 O   0  0  0  0  0  0  0  0  0  0  0  0
    0.4785    1.6342    0.1473 C   0  0  1  0  0  0  0  0  0  0  0  0
    1.0235    1.5443   -2.1445 O   0  0  0  0  0  0  0  0  0  0  0  0
   -0.7292    2.9053   -3.5756 O   0  0  0  0  0  0  0  0  0  0  0  0
   -4.4713    2.1812    3.7924 C   0  0  1  0  0  0  0  0  0  0  0  0
    0.6128    0.0848    0.2358 C   0  0  2  0  0  0  0  0  0  0  0  0
   -3.7502    0.8181    3.8941 C   0  0  0  0  0  0  0  0  0  0  0  0
   -0.6660   -0.6776   -0.1803 C   0  0  0  0  0  0  0  0  0  0  0  0
   -2.4441    5.1607   -3.5637 C   0  0  0  0  0  0  0  0  0  0  0  0
   -0.0214    5.7982   -4.0941 C   0  0  0  0  0  0  0  0  0  0  0  0
    0.0144    7.7318    0.1238 H   0  0  0  0  0  0  0  0  0  0  0  0
    0.3388    6.4787    1.2688 H   0  0  0  0  0  0  0  0  0  0  0  0
   -4.2865    8.9881    1.4774 H   0  0  0  0  0  0  0  0  0  0  0  0
   -1.0251    4.7404    2.6851 H   0  0  0  0  0  0  0  0  0  0  0  0
   -0.8899    7.8638   -2.4938 H   0  0  0  0  0  0  0  0  0  0  0  0
   -1.0612   11.0066    0.8098 H   0  0  0  0  0  0  0  0  0  0  0  0
   -2.1652   10.4822    2.0847 H   0  0  0  0  0  0  0  0  0  0  0  0
   -0.5592    9.7240    1.9215 H   0  0  0  0  0  0  0  0  0  0  0  0
   -5.5507    6.9535    3.5807 H   0  0  0  0  0  0  0  0  0  0  0  0
   -3.3540    2.9032    2.1005 H   0  0  0  0  0  0  0  0  0  0  0  0
   -2.6951    3.3904    3.6809 H   0  0  0  0  0  0  0  0  0  0  0  0
    1.2977    2.0519    0.7330 H   0  0  0  0  0  0  0  0  0  0  0  0
   -0.4559    1.9341    0.6321 H   0  0  0  0  0  0  0  0  0  0  0  0
   -0.0360    3.0524   -4.2531 H   0  0  0  0  0  0  0  0  0  0  0  0
   -4.7280    2.5107    4.8041 H   0  0  0  0  0  0  0  0  0  0  0  0
   -5.3992    2.0395    3.2298 H   0  0  0  0  0  0  0  0  0  0  0  0
    0.8422   -0.1848    1.2702 H   0  0  0  0  0  0  0  0  0  0  0  0
    1.4545   -0.2589   -0.3737 H   0  0  0  0  0  0  0  0  0  0  0  0
   -4.3893    0.0971    4.4086 H   0  0  0  0  0  0  0  0  0  0  0  0
   -3.5247    0.4351    2.8963 H   0  0  0  0  0  0  0  0  0  0  0  0
   -2.8200    0.9223    4.4571 H   0  0  0  0  0  0  0  0  0  0  0  0
   -0.5076   -1.7516   -0.0605 H   0  0  0  0  0  0  0  0  0  0  0  0
   -1.5035   -0.3754    0.4542 H   0  0  0  0  0  0  0  0  0  0  0  0
   -0.9181   -0.4774   -1.2237 H   0  0  0  0  0  0  0  0  0  0  0  0
   -3.1321    4.7692   -2.8118 H   0  0  0  0  0  0  0  0  0  0  0  0
   -2.7966    6.1493   -3.8639 H   0  0  0  0  0  0  0  0  0  0  0  0
   -2.5053    4.5208   -4.4466 H   0  0  0  0  0  0  0  0  0  0  0  0
   -0.3169    6.8086   -4.3864 H   0  0  0  0  0  0  0  0  0  0  0  0
   -0.0293    5.1766   -4.9930 H   0  0  0  0  0  0  0  0  0  0  0  0
    1.0064    5.8416   -3.7221 H   0  0  0  0  0  0  0  0  0  0  0  0
  1  2  1  0  0  0  0 
  1  3  1  0  0  0  0 
  2  4  2  0  0  0  0 
  2  5  1  0  0  0  0 
  3  6  1  0  0  0  0 
  3  7  2  0  0  0  0 
  4  8  1  0  0  0  0 
  4  9  1  0  0  0  0 
  5 10  1  0  0  0  0 
  5 11  2  0  0  0  0 
  6 12  2  0  0  0  0 
  6 13  1  0  0  0  0 
  7 14  1  0  0  0  0 
  7 15  1  0  0  0  0 
  8 16  1  0  0  0  0 
  9 17  2  0  0  0  0 
 11 17  1  0  0  0  0 
 11 18  1  0  0  0  0 
 13 19  1  0  0  0  0 
 13 20  2  0  0  0  0 
 15 20  1  0  0  0  0 
 17 21  1  0  0  0  0 
 18 22  1  0  0  0  0 
 18 23  2  0  0  0  0 
 19 24  1  0  0  0  0 
 19 25  2  0  0  0  0 
 20 26  1  0  0  0  0 
 22 27  1  0  0  0  0 
 24 28  1  0  0  0  0 
 27 29  1  0  0  0  0 
 28 30  1  0  0  0  0 
 15 31  1  0  0  0  0 
 15 32  1  0  0  0  0 
 33  1  1  0  0  0  0 
 34  1  1  0  0  0  0 
 35  9  1  0  0  0  0 
 36 10  1  0  0  0  0 
 37 14  1  0  0  0  0 
 38 16  1  0  0  0  0 
 39 16  1  0  0  0  0 
 40 16  1  0  0  0  0 
 41 21  1  0  0  0  0 
 42 22  1  0  0  0  0 
 43 22  1  0  0  0  0 
 44 24  1  0  0  0  0 
 45 24  1  0  0  0  0 
 46 26  1  0  0  0  0 
 47 27  1  0  0  0  0 
 48 27  1  0  0  0  0 
 49 28  1  0  0  0  0 
 50 28  1  0  0  0  0 
 51 29  1  0  0  0  0 
 52 29  1  0  0  0  0 
 53 29  1  0  0  0  0 
 54 30  1  0  0  0  0 
 55 30  1  0  0  0  0 
 56 30  1  0  0  0  0 
 57 31  1  0  0  0  0 
 58 31  1  0  0  0  0 
 59 31  1  0  0  0  0 
 60 32  1  0  0  0  0 
 61 32  1  0  0  0  0 
 62 32  1  0  0  0  0 
M  END
> <cdk:Title>
desaspidin

> <Conformer>
1

> <SuperDrugID>
SD003530

$$$$
