phenindione
  CDK     0628171801

 27 29  0  0  0  0  0  0  0  0999 V2000
   -0.2152   -2.2572    2.0958 O   0  0  0  0  0  0  0  0  0  0  0  0
   -1.0733   -1.9022    1.2542 C   0  0  0  0  0  0  0  0  0  0  0  0
   -0.9904   -0.6716    0.4385 C   0  0  2  0  0  0  0  0  0  0  0  0
   -2.2320   -2.6132    0.9442 C   0  0  0  0  0  0  0  0  0  0  0  0
   -2.2361   -0.7544   -0.3541 C   0  0  0  0  0  0  0  0  0  0  0  0
    0.2370   -0.6207   -0.4127 C   0  0  0  0  0  0  0  0  0  0  0  0
   -2.9394   -1.9152   -0.0342 C   0  0  0  0  0  0  0  0  0  0  0  0
   -2.7155   -3.8338    1.4535 C   0  0  0  0  0  0  0  0  0  0  0  0
   -2.5979    0.0956   -1.2010 O   0  0  0  0  0  0  0  0  0  0  0  0
    0.5275   -1.6424   -1.3524 C   0  0  0  0  0  0  0  0  0  0  0  0
    1.1435    0.4598   -0.2968 C   0  0  0  0  0  0  0  0  0  0  0  0
   -4.1564   -2.4117   -0.5396 C   0  0  0  0  0  0  0  0  0  0  0  0
   -3.9410   -4.3344    0.9645 C   0  0  0  0  0  0  0  0  0  0  0  0
    1.6860   -1.5841   -2.1478 C   0  0  0  0  0  0  0  0  0  0  0  0
    2.3020    0.5161   -1.0935 C   0  0  0  0  0  0  0  0  0  0  0  0
   -4.6577   -3.6272   -0.0267 C   0  0  0  0  0  0  0  0  0  0  0  0
    2.5747   -0.5047   -2.0190 C   0  0  0  0  0  0  0  0  0  0  0  0
   -1.0666    0.1890    1.1083 H   0  0  0  0  0  0  0  0  0  0  0  0
   -2.1932   -4.3484    2.1648 H   0  0  0  0  0  0  0  0  0  0  0  0
   -0.1062   -2.4385   -1.4634 H   0  0  0  0  0  0  0  0  0  0  0  0
    0.9661    1.2155    0.3703 H   0  0  0  0  0  0  0  0  0  0  0  0
   -4.6702   -1.9035   -1.2618 H   0  0  0  0  0  0  0  0  0  0  0  0
   -4.3122   -5.2148    1.3290 H   0  0  0  0  0  0  0  0  0  0  0  0
    1.8824   -2.3270   -2.8203 H   0  0  0  0  0  0  0  0  0  0  0  0
    2.9477    1.3007   -1.0001 H   0  0  0  0  0  0  0  0  0  0  0  0
   -5.5444   -3.9987   -0.3754 H   0  0  0  0  0  0  0  0  0  0  0  0
    3.4172   -0.4630   -2.5975 H   0  0  0  0  0  0  0  0  0  0  0  0
  1  2  2  0  0  0  0 
  2  3  1  0  0  0  0 
  2  4  1  0  0  0  0 
  3  5  1  0  0  0  0 
  3  6  1  0  0  0  0 
  4  7  2  0  0  0  0 
  4  8  1  0  0  0  0 
  5  7  1  0  0  0  0 
  5  9  2  0  0  0  0 
  6 10  2  0  0  0  0 
  6 11  1  0  0  0  0 
  7 12  1  0  0  0  0 
  8 13  2  0  0  0  0 
 10 14  1  0  0  0  0 
 11 15  2  0  0  0  0 
 12 16  2  0  0  0  0 
 13 16  1  0  0  0  0 
 14 17  2  0  0  0  0 
 15 17  1  0  0  0  0 
  3 18  1  0  0  0  0 
  8 19  1  0  0  0  0 
 10 20  1  0  0  0  0 
 11 21  1  0  0  0  0 
 12 22  1  0  0  0  0 
 13 23  1  0  0  0  0 
 14 24  1  0  0  0  0 
 15 25  1  0  0  0  0 
 16 26  1  0  0  0  0 
 17 27  1  0  0  0  0 
M  END
> <cdk:Title>
phenindione

> <Conformer>
1

> <SuperDrugID>
SD001910

$$$$
