bupropion
  CDK     0628171801

 34 34  0  0  0  0  0  0  0  0999 V2000
    3.0270   -0.8683    0.7135 C   0  0  0  0  0  0  0  0  0  0  0  0
    2.1974    0.0296   -0.1429 C   0  0  2  0  0  0  0  0  0  0  0  0
    4.2675   -0.7663    0.5474 O   0  0  0  0  0  0  0  0  0  0  0  0
    2.5287   -1.8529    1.6295 C   0  0  0  0  0  0  0  0  0  0  0  0
    2.4383   -0.2532   -1.5873 N   0  0  1  0  0  0  0  0  0  0  0  0
    2.5469    1.5186    0.1261 C   0  0  0  0  0  0  0  0  0  0  0  0
    1.2190   -1.8109    2.1764 C   0  0  0  0  0  0  0  0  0  0  0  0
    3.3518   -2.9504    1.9954 C   0  0  0  0  0  0  0  0  0  0  0  0
    1.7828   -1.4033   -2.2942 C   0  0  2  0  0  0  0  0  0  0  0  0
    0.7423   -2.8385    3.0157 C   0  0  0  0  0  0  0  0  0  0  0  0
    2.8866   -3.9699    2.8438 C   0  0  0  0  0  0  0  0  0  0  0  0
    0.2259   -1.2761   -2.2893 C   0  0  0  0  0  0  0  0  0  0  0  0
    2.2073   -2.7925   -1.7199 C   0  0  0  0  0  0  0  0  0  0  0  0
    2.2996   -1.2987   -3.7643 C   0  0  0  0  0  0  0  0  0  0  0  0
   -0.8382   -2.7888    3.6205 Cl  0  0  0  0  0  0  0  0  0  0  0  0
    1.5789   -3.9190    3.3497 C   0  0  0  0  0  0  0  0  0  0  0  0
    1.1347   -0.0701    0.0643 H   0  0  0  0  0  0  0  0  0  0  0  0
    2.1603    0.5894   -2.0971 H   0  0  0  0  0  0  0  0  0  0  0  0
    2.4036    1.7640    1.1815 H   0  0  0  0  0  0  0  0  0  0  0  0
    3.5844    1.7305   -0.1449 H   0  0  0  0  0  0  0  0  0  0  0  0
    1.9018    2.1718   -0.4653 H   0  0  0  0  0  0  0  0  0  0  0  0
    0.5909   -1.0315    1.9774 H   0  0  0  0  0  0  0  0  0  0  0  0
    4.3058   -3.0315    1.6364 H   0  0  0  0  0  0  0  0  0  0  0  0
    3.4984   -4.7535    3.0846 H   0  0  0  0  0  0  0  0  0  0  0  0
   -0.0814   -0.2838   -2.6259 H   0  0  0  0  0  0  0  0  0  0  0  0
   -0.1779   -1.4370   -1.2881 H   0  0  0  0  0  0  0  0  0  0  0  0
   -0.2275   -2.0196   -2.9494 H   0  0  0  0  0  0  0  0  0  0  0  0
    3.2929   -2.8503   -1.6090 H   0  0  0  0  0  0  0  0  0  0  0  0
    1.7487   -2.9683   -0.7481 H   0  0  0  0  0  0  0  0  0  0  0  0
    1.8871   -3.6039   -2.3780 H   0  0  0  0  0  0  0  0  0  0  0  0
    1.8748   -2.0862   -4.3932 H   0  0  0  0  0  0  0  0  0  0  0  0
    2.0291   -0.3345   -4.2027 H   0  0  0  0  0  0  0  0  0  0  0  0
    3.3887   -1.3899   -3.7976 H   0  0  0  0  0  0  0  0  0  0  0  0
    1.2438   -4.6694    3.9592 H   0  0  0  0  0  0  0  0  0  0  0  0
  2  1  1  0  0  0  0 
  1  3  2  0  0  0  0 
  1  4  1  0  0  0  0 
  2  5  1  0  0  0  0 
  2  6  1  0  0  0  0 
  4  7  2  0  0  0  0 
  4  8  1  0  0  0  0 
  5  9  1  0  0  0  0 
  7 10  1  0  0  0  0 
  8 11  2  0  0  0  0 
  9 12  1  0  0  0  0 
  9 13  1  0  0  0  0 
  9 14  1  0  0  0  0 
 10 15  1  0  0  0  0 
 10 16  2  0  0  0  0 
 11 16  1  0  0  0  0 
 17  2  1  0  0  0  0 
 18  5  1  0  0  0  0 
 19  6  1  0  0  0  0 
 20  6  1  0  0  0  0 
 21  6  1  0  0  0  0 
 22  7  1  0  0  0  0 
 23  8  1  0  0  0  0 
 24 11  1  0  0  0  0 
 25 12  1  0  0  0  0 
 26 12  1  0  0  0  0 
 27 12  1  0  0  0  0 
 28 13  1  0  0  0  0 
 29 13  1  0  0  0  0 
 30 13  1  0  0  0  0 
 31 14  1  0  0  0  0 
 32 14  1  0  0  0  0 
 33 14  1  0  0  0  0 
 34 16  1  0  0  0  0 
M  END
> <cdk:Title>
bupropion

> <Conformer>
1

> <SuperDrugID>
SD000377

$$$$
