cinolazepam
  CDK     0628171802

 38 40  0  0  0  0  0  0  0  0999 V2000
   -0.8487    1.2258   -0.6216 C   0  0  1  0  0  0  0  0  0  0  0  0
   -0.6134   -0.1153   -1.3783 C   0  0  2  0  0  0  0  0  0  0  0  0
   -0.3609    2.4383   -1.2744 N   0  0  0  0  0  0  0  0  0  0  0  0
   -0.8049   -0.0463   -2.7337 C   0  0  0  0  0  0  0  0  0  0  0  0
   -1.2242    3.5202   -1.4121 C   0  0  0  0  0  0  0  0  0  0  0  0
    0.9442    2.5160   -1.7462 C   0  0  0  0  0  0  0  0  0  0  0  0
   -0.9498    0.0102   -3.8712 N   0  0  0  0  0  0  0  0  0  0  0  0
   -1.4493    4.1901   -2.6541 C   0  0  0  0  0  0  0  0  0  0  0  0
   -1.8928    3.9945   -0.2562 C   0  0  0  0  0  0  0  0  0  0  0  0
    1.8014    1.6666   -1.4005 O   0  0  0  0  0  0  0  0  0  0  0  0
    1.3760    3.5538   -2.7184 C   0  0  1  0  0  0  0  0  0  0  0  0
   -0.7620    3.8295   -3.8221 C   0  0  0  0  0  0  0  0  0  0  0  0
   -2.3601    5.2756   -2.6984 C   0  0  0  0  0  0  0  0  0  0  0  0
   -2.7939    5.0684   -0.3187 C   0  0  0  0  0  0  0  0  0  0  0  0
    2.6770    3.2986   -3.2416 O   0  0  0  0  0  0  0  0  0  0  0  0
    0.5007    3.5611   -3.8063 N   0  0  0  0  0  0  0  0  0  0  0  0
   -1.4161    3.7330   -5.0506 C   0  0  0  0  0  0  0  0  0  0  0  0
   -3.0380    5.7052   -1.5446 C   0  0  0  0  0  0  0  0  0  0  0  0
   -1.0190    4.4967   -6.1804 C   0  0  0  0  0  0  0  0  0  0  0  0
   -2.5273    2.8613   -5.1791 C   0  0  0  0  0  0  0  0  0  0  0  0
   -4.1340    6.9927   -1.6341 Cl  0  0  0  0  0  0  0  0  0  0  0  0
   -0.0358    5.3577   -6.1116 F   0  0  0  0  0  0  0  0  0  0  0  0
   -1.7008    4.3618   -7.4073 C   0  0  0  0  0  0  0  0  0  0  0  0
   -3.2118    2.7387   -6.4016 C   0  0  0  0  0  0  0  0  0  0  0  0
   -2.7947    3.4840   -7.5177 C   0  0  0  0  0  0  0  0  0  0  0  0
   -1.9291    1.2866   -0.4459 H   0  0  0  0  0  0  0  0  0  0  0  0
   -0.3797    1.1512    0.3637 H   0  0  0  0  0  0  0  0  0  0  0  0
   -1.2857   -0.8772   -0.9780 H   0  0  0  0  0  0  0  0  0  0  0  0
    0.4051   -0.4618   -1.2034 H   0  0  0  0  0  0  0  0  0  0  0  0
   -1.7247    3.5563    0.6531 H   0  0  0  0  0  0  0  0  0  0  0  0
    1.3962    4.5341   -2.2353 H   0  0  0  0  0  0  0  0  0  0  0  0
   -2.5232    5.7756   -3.5775 H   0  0  0  0  0  0  0  0  0  0  0  0
   -3.2675    5.3822    0.5324 H   0  0  0  0  0  0  0  0  0  0  0  0
    2.8180    3.9918   -3.9202 H   0  0  0  0  0  0  0  0  0  0  0  0
   -2.8477    2.3044   -4.3814 H   0  0  0  0  0  0  0  0  0  0  0  0
   -1.4067    4.9051   -8.2230 H   0  0  0  0  0  0  0  0  0  0  0  0
   -4.0118    2.1052   -6.4791 H   0  0  0  0  0  0  0  0  0  0  0  0
   -3.2896    3.3895   -8.4082 H   0  0  0  0  0  0  0  0  0  0  0  0
  1  2  1  0  0  0  0 
  1  3  1  0  0  0  0 
  2  4  1  0  0  0  0 
  3  5  1  0  0  0  0 
  3  6  1  0  0  0  0 
  4  7  3  0  0  0  0 
  5  8  2  0  0  0  0 
  5  9  1  0  0  0  0 
  6 10  2  0  0  0  0 
 11  6  1  0  0  0  0 
  8 12  1  0  0  0  0 
  8 13  1  0  0  0  0 
  9 14  2  0  0  0  0 
 11 15  1  0  0  0  0 
 11 16  1  0  0  0  0 
 12 16  2  0  0  0  0 
 12 17  1  0  0  0  0 
 13 18  2  0  0  0  0 
 14 18  1  0  0  0  0 
 17 19  2  0  0  0  0 
 17 20  1  0  0  0  0 
 18 21  1  0  0  0  0 
 19 22  1  0  0  0  0 
 19 23  1  0  0  0  0 
 20 24  2  0  0  0  0 
 23 25  2  0  0  0  0 
 24 25  1  0  0  0  0 
  1 26  1  0  0  0  0 
  1 27  1  0  0  0  0 
  2 28  1  0  0  0  0 
  2 29  1  0  0  0  0 
  9 30  1  0  0  0  0 
 11 31  1  0  0  0  0 
 13 32  1  0  0  0  0 
 14 33  1  0  0  0  0 
 15 34  1  0  0  0  0 
 20 35  1  0  0  0  0 
 23 36  1  0  0  0  0 
 24 37  1  0  0  0  0 
 25 38  1  0  0  0  0 
M  END
> <cdk:Title>
cinolazepam

> <Conformer>
1

> <SuperDrugID>
SD000576

$$$$
