streptozocin
  CDK     0628171801

 33 33  0  0  0  0  0  0  0  0999 V2000
   -1.0536    0.1270    3.3623 C   0  0  1  0  0  0  0  0  0  0  0  0
   -0.7295    1.4094    4.1815 C   0  0  2  0  0  0  0  0  0  0  0  0
   -0.4830    0.2351    2.0485 N   0  0  0  0  0  0  0  0  0  0  0  0
   -0.4682   -1.1238    4.0786 C   0  0  2  0  0  0  0  0  0  0  0  0
   -1.1278    1.2461    5.6728 C   0  0  1  0  0  0  0  0  0  0  0  0
   -1.4113    2.5344    3.6308 O   0  0  0  0  0  0  0  0  0  0  0  0
   -1.1521    0.4334    0.8713 C   0  0  0  0  0  0  0  0  0  0  0  0
   -0.9721   -2.3085    3.4704 O   0  0  0  0  0  0  0  0  0  0  0  0
   -0.4585   -0.0351    6.2602 C   0  0  1  0  0  0  0  0  0  0  0  0
   -0.7382    2.4158    6.3922 O   0  0  0  0  0  0  0  0  0  0  0  0
   -0.4693    0.5172   -0.3259 N   0  0  0  0  0  0  0  0  0  0  0  0
   -2.4022    0.5451    0.8866 O   0  0  0  0  0  0  0  0  0  0  0  0
   -0.8535   -0.2971    7.7373 C   0  0  1  0  0  0  0  0  0  0  0  0
   -0.8472   -1.1846    5.4711 O   0  0  0  0  0  0  0  0  0  0  0  0
    0.8006    0.4091   -0.3476 N   0  0  0  0  0  0  0  0  0  0  0  0
   -1.1439    0.7491   -1.5778 C   0  0  0  0  0  0  0  0  0  0  0  0
   -0.2218   -1.4781    8.2223 O   0  0  0  0  0  0  0  0  0  0  0  0
    1.3278   -0.6234   -0.4882 O   0  0  0  0  0  0  0  0  0  0  0  0
   -2.1415    0.0089    3.3191 H   0  0  0  0  0  0  0  0  0  0  0  0
    0.3438    1.6150    4.1276 H   0  0  0  0  0  0  0  0  0  0  0  0
    0.4838    0.1633    1.9950 H   0  0  0  0  0  0  0  0  0  0  0  0
    0.6228   -1.1387    3.9899 H   0  0  0  0  0  0  0  0  0  0  0  0
   -2.2171    1.1538    5.7429 H   0  0  0  0  0  0  0  0  0  0  0  0
   -1.1048    2.5873    2.7020 H   0  0  0  0  0  0  0  0  0  0  0  0
   -0.6175   -3.0443    4.0154 H   0  0  0  0  0  0  0  0  0  0  0  0
    0.6329    0.0815    6.2290 H   0  0  0  0  0  0  0  0  0  0  0  0
   -1.1540    2.3127    7.2737 H   0  0  0  0  0  0  0  0  0  0  0  0
   -0.5360    0.5355    8.3690 H   0  0  0  0  0  0  0  0  0  0  0  0
   -1.9358   -0.4158    7.8265 H   0  0  0  0  0  0  0  0  0  0  0  0
   -0.4529    0.7565   -2.4257 H   0  0  0  0  0  0  0  0  0  0  0  0
   -1.6509    1.7155   -1.5488 H   0  0  0  0  0  0  0  0  0  0  0  0
   -1.8841   -0.0330   -1.7580 H   0  0  0  0  0  0  0  0  0  0  0  0
   -0.4980   -1.5458    9.1612 H   0  0  0  0  0  0  0  0  0  0  0  0
  1  2  1  0  0  0  0 
  1  3  1  0  0  0  0 
  1  4  1  0  0  0  0 
  2  5  1  0  0  0  0 
  2  6  1  0  0  0  0 
  3  7  1  0  0  0  0 
  4  8  1  0  0  0  0 
  5  9  1  0  0  0  0 
  5 10  1  0  0  0  0 
  7 11  1  0  0  0  0 
  7 12  2  0  0  0  0 
  9 13  1  0  0  0  0 
  9 14  1  0  0  0  0 
 11 15  1  0  0  0  0 
 11 16  1  0  0  0  0 
 13 17  1  0  0  0  0 
 15 18  2  0  0  0  0 
 14  4  1  0  0  0  0 
  1 19  1  0  0  0  0 
  2 20  1  0  0  0  0 
 21  3  1  0  0  0  0 
 22  4  1  0  0  0  0 
  5 23  1  0  0  0  0 
 24  6  1  0  0  0  0 
 25  8  1  0  0  0  0 
  9 26  1  0  0  0  0 
 27 10  1  0  0  0  0 
 28 13  1  0  0  0  0 
 29 13  1  0  0  0  0 
 30 16  1  0  0  0  0 
 31 16  1  0  0  0  0 
 32 16  1  0  0  0  0 
 33 17  1  0  0  0  0 
M  END
> <cdk:Title>
streptozocin

> <Conformer>
1

> <SuperDrugID>
SD002231

$$$$
