gestodene
  CDK     0628171801

 49 52  0  0  0  0  0  0  0  0999 V2000
   -6.4791   -1.1013    4.1964 C   0  0  2  0  0  0  0  0  0  0  0  0
   -7.0829   -2.5310    4.1371 C   0  0  0  0  0  0  0  0  0  0  0  0
   -5.1241   -0.8398    5.0024 C   0  0  2  0  0  0  0  0  0  0  0  0
   -3.9200   -1.7795    4.6566 C   0  0  2  0  0  0  0  0  0  0  0  0
   -5.3186   -1.2203    6.5300 C   0  0  1  0  0  0  0  0  0  0  0  0
   -4.6140    0.6131    4.6455 C   0  0  2  0  0  0  0  0  0  0  0  0
   -3.5939   -1.8038    3.1318 C   0  0  1  0  0  0  0  0  0  0  0  0
   -4.2079   -2.9459    5.4399 C   0  0  0  0  0  0  0  0  0  0  0  0
   -4.5413   -0.5286    7.4367 C   0  0  0  0  0  0  0  0  0  0  0  0
   -6.6601   -1.1111    7.0142 O   0  0  0  0  0  0  0  0  0  0  0  0
   -4.9206   -2.6154    6.5186 C   0  0  0  0  0  0  0  0  0  0  0  0
   -4.0902    0.7513    3.1708 C   0  0  2  0  0  0  0  0  0  0  0  0
   -3.0824   -0.3717    2.7187 C   0  0  2  0  0  0  0  0  0  0  0  0
   -2.5506   -2.8866    2.7461 C   0  0  1  0  0  0  0  0  0  0  0  0
   -3.8748    0.0787    8.2200 C   0  0  0  0  0  0  0  0  0  0  0  0
   -2.6856   -0.3237    1.1910 C   0  0  2  0  0  0  0  0  0  0  0  0
   -2.2246   -2.8161    1.2372 C   0  0  2  0  0  0  0  0  0  0  0  0
   -1.8048   -1.4710    0.8298 C   0  0  0  0  0  0  0  0  0  0  0  0
   -2.0646    1.0715    0.8158 C   0  0  1  0  0  0  0  0  0  0  0  0
   -0.6563   -1.3113    0.1346 C   0  0  0  0  0  0  0  0  0  0  0  0
   -1.2370    1.0109   -0.4889 C   0  0  1  0  0  0  0  0  0  0  0  0
   -0.2574   -0.0901   -0.3750 C   0  0  0  0  0  0  0  0  0  0  0  0
    0.9273    0.0781   -0.7488 O   0  0  0  0  0  0  0  0  0  0  0  0
   -7.2530   -0.4459    4.6072 H   0  0  0  0  0  0  0  0  0  0  0  0
   -6.3729   -0.8032    3.1554 H   0  0  0  0  0  0  0  0  0  0  0  0
   -7.9998   -2.5117    3.5446 H   0  0  0  0  0  0  0  0  0  0  0  0
   -7.3480   -2.8949    5.1271 H   0  0  0  0  0  0  0  0  0  0  0  0
   -6.3932   -3.2364    3.6711 H   0  0  0  0  0  0  0  0  0  0  0  0
   -3.0032   -1.4042    5.1358 H   0  0  0  0  0  0  0  0  0  0  0  0
   -3.7869    0.9001    5.3033 H   0  0  0  0  0  0  0  0  0  0  0  0
   -5.4121    1.3428    4.8140 H   0  0  0  0  0  0  0  0  0  0  0  0
   -4.4982   -2.0274    2.5650 H   0  0  0  0  0  0  0  0  0  0  0  0
   -3.8710   -3.8576    5.2497 H   0  0  0  0  0  0  0  0  0  0  0  0
   -6.8751   -0.1547    6.9896 H   0  0  0  0  0  0  0  0  0  0  0  0
   -5.1662   -3.2697    7.2250 H   0  0  0  0  0  0  0  0  0  0  0  0
   -3.6049    1.7278    3.0874 H   0  0  0  0  0  0  0  0  0  0  0  0
   -4.9355    0.7701    2.4829 H   0  0  0  0  0  0  0  0  0  0  0  0
   -2.1587   -0.1850    3.2794 H   0  0  0  0  0  0  0  0  0  0  0  0
   -1.6338   -2.7544    3.3276 H   0  0  0  0  0  0  0  0  0  0  0  0
   -2.9545   -3.8787    2.9615 H   0  0  0  0  0  0  0  0  0  0  0  0
   -3.3600    0.5462    8.8255 H   0  0  0  0  0  0  0  0  0  0  0  0
   -3.5990   -0.4391    0.5968 H   0  0  0  0  0  0  0  0  0  0  0  0
   -3.1179   -3.0771    0.6639 H   0  0  0  0  0  0  0  0  0  0  0  0
   -1.4759   -3.5851    1.0216 H   0  0  0  0  0  0  0  0  0  0  0  0
   -2.8578    1.8132    0.6935 H   0  0  0  0  0  0  0  0  0  0  0  0
   -1.4041    1.4202    1.6172 H   0  0  0  0  0  0  0  0  0  0  0  0
   -0.0614   -2.0905   -0.0361 H   0  0  0  0  0  0  0  0  0  0  0  0
   -1.9029    0.8125   -1.3340 H   0  0  0  0  0  0  0  0  0  0  0  0
   -0.7379    1.9676   -0.6626 H   0  0  0  0  0  0  0  0  0  0  0  0
  1  2  1  0  0  0  0 
  3  1  1  0  0  0  0 
  3  4  1  0  0  0  0 
  3  5  1  0  0  0  0 
  3  6  1  0  0  0  0 
  4  7  1  0  0  0  0 
  4  8  1  0  0  0  0 
  5  9  1  0  0  0  0 
  5 10  1  0  0  0  0 
  5 11  1  0  0  0  0 
  6 12  1  0  0  0  0 
  7 13  1  0  0  0  0 
  7 14  1  0  0  0  0 
  8 11  2  0  0  0  0 
  9 15  3  0  0  0  0 
 13 12  1  0  0  0  0 
 13 16  1  0  0  0  0 
 14 17  1  0  0  0  0 
 16 18  1  0  0  0  0 
 16 19  1  0  0  0  0 
 17 18  1  0  0  0  0 
 18 20  2  0  0  0  0 
 19 21  1  0  0  0  0 
 20 22  1  0  0  0  0 
 21 22  1  0  0  0  0 
 22 23  2  0  0  0  0 
 24  1  1  0  0  0  0 
 25  1  1  0  0  0  0 
 26  2  1  0  0  0  0 
 27  2  1  0  0  0  0 
 28  2  1  0  0  0  0 
  4 29  1  0  0  0  0 
 30  6  1  0  0  0  0 
 31  6  1  0  0  0  0 
  7 32  1  0  0  0  0 
 33  8  1  0  0  0  0 
 34 10  1  0  0  0  0 
 35 11  1  0  0  0  0 
 36 12  1  0  0  0  0 
 37 12  1  0  0  0  0 
 13 38  1  0  0  0  0 
 39 14  1  0  0  0  0 
 40 14  1  0  0  0  0 
 41 15  1  0  0  0  0 
 16 42  1  0  0  0  0 
 43 17  1  0  0  0  0 
 44 17  1  0  0  0  0 
 45 19  1  0  0  0  0 
 46 19  1  0  0  0  0 
 47 20  1  0  0  0  0 
 48 21  1  0  0  0  0 
 49 21  1  0  0  0  0 
M  END
> <cdk:Title>
gestodene

> <Conformer>
1

> <SuperDrugID>
SD001149

$$$$
