enprostil
  CDK     0628171801

 57 58  0  0  0  0  0  0  0  0999 V2000
    2.8840   -1.9108    1.5239 C   0  0  0  0  0  0  0  0  0  0  0  0
    1.4580   -2.0313    1.5510 O   0  0  0  0  0  0  0  0  0  0  0  0
    0.5567   -1.0106    1.6667 C   0  0  0  0  0  0  0  0  0  0  0  0
    0.9390    0.1785    1.7788 O   0  0  0  0  0  0  0  0  0  0  0  0
   -0.8898   -1.3120    1.6693 C   0  0  2  0  0  0  0  0  0  0  0  0
   -1.5423   -0.9676    3.0352 C   0  0  2  0  0  0  0  0  0  0  0  0
   -2.9516   -1.3060    3.1061 C   0  0  0  0  0  0  0  0  0  0  0  0
   -3.3394   -2.4757    3.3970 C   0  0  2  0  0  0  0  0  0  0  0  0
   -3.7053   -3.6456    3.7146 C   0  0  0  0  0  0  0  0  0  0  0  0
   -3.8536   -4.0647    5.1009 C   0  0  1  0  0  0  0  0  0  0  0  0
   -2.5908   -4.8120    5.6479 C   0  0  1  0  0  0  0  0  0  0  0  0
   -2.6982   -5.2490    7.1484 C   0  0  2  0  0  0  0  0  0  0  0  0
   -1.4052   -5.2452    7.8515 C   0  0  0  0  0  0  0  0  0  0  0  0
   -1.2928   -5.3748    9.1863 C   0  0  0  0  0  0  0  0  0  0  0  0
   -0.0213   -5.4523    9.8996 C   0  0  2  0  0  0  0  0  0  0  0  0
    0.8655   -4.4153    9.4785 O   0  0  0  0  0  0  0  0  0  0  0  0
    0.6607   -6.8389    9.7606 C   0  0  2  0  0  0  0  0  0  0  0  0
    1.0160   -7.0872    8.3845 O   0  0  0  0  0  0  0  0  0  0  0  0
    1.5652   -8.3179    8.1567 C   0  0  0  0  0  0  0  0  0  0  0  0
    2.9665   -8.4649    8.1145 C   0  0  0  0  0  0  0  0  0  0  0  0
    3.5380   -9.7249    7.8566 C   0  0  0  0  0  0  0  0  0  0  0  0
    2.7111  -10.8407    7.6322 C   0  0  0  0  0  0  0  0  0  0  0  0
    1.3120  -10.6966    7.6647 C   0  0  0  0  0  0  0  0  0  0  0  0
    0.7393   -9.4367    7.9206 C   0  0  0  0  0  0  0  0  0  0  0  0
   -3.2852   -6.6887    7.0685 C   0  0  1  0  0  0  0  0  0  0  0  0
   -4.7128   -6.6460    7.0332 O   0  0  0  0  0  0  0  0  0  0  0  0
   -2.7169   -7.2840    5.7597 C   0  0  1  0  0  0  0  0  0  0  0  0
   -2.3523   -6.1027    4.9745 C   0  0  0  0  0  0  0  0  0  0  0  0
   -1.8442   -6.1936    3.8318 O   0  0  0  0  0  0  0  0  0  0  0  0
    3.1953   -1.2812    0.6894 H   0  0  0  0  0  0  0  0  0  0  0  0
    3.3176   -2.9018    1.3951 H   0  0  0  0  0  0  0  0  0  0  0  0
    3.2522   -1.4824    2.4575 H   0  0  0  0  0  0  0  0  0  0  0  0
   -1.0349   -2.3737    1.4528 H   0  0  0  0  0  0  0  0  0  0  0  0
   -1.3700   -0.7419    0.8694 H   0  0  0  0  0  0  0  0  0  0  0  0
   -1.4444    0.1062    3.2172 H   0  0  0  0  0  0  0  0  0  0  0  0
   -0.9974   -1.4813    3.8354 H   0  0  0  0  0  0  0  0  0  0  0  0
   -3.6376   -0.6096    2.9309 H   0  0  0  0  0  0  0  0  0  0  0  0
   -3.8616   -4.3001    2.9858 H   0  0  0  0  0  0  0  0  0  0  0  0
   -4.0472   -3.1955    5.7394 H   0  0  0  0  0  0  0  0  0  0  0  0
   -4.7363   -4.7059    5.1733 H   0  0  0  0  0  0  0  0  0  0  0  0
   -1.7237   -4.1583    5.5067 H   0  0  0  0  0  0  0  0  0  0  0  0
   -3.3828   -4.5842    7.6882 H   0  0  0  0  0  0  0  0  0  0  0  0
   -0.5695   -5.1735    7.3160 H   0  0  0  0  0  0  0  0  0  0  0  0
   -2.1241   -5.4480    9.7269 H   0  0  0  0  0  0  0  0  0  0  0  0
   -0.2141   -5.2874   10.9652 H   0  0  0  0  0  0  0  0  0  0  0  0
    1.6680   -4.5236   10.0344 H   0  0  0  0  0  0  0  0  0  0  0  0
   -0.0248   -7.6080   10.1324 H   0  0  0  0  0  0  0  0  0  0  0  0
    1.5595   -6.8545   10.3858 H   0  0  0  0  0  0  0  0  0  0  0  0
    3.5716   -7.6558    8.2693 H   0  0  0  0  0  0  0  0  0  0  0  0
    4.5540   -9.8293    7.8292 H   0  0  0  0  0  0  0  0  0  0  0  0
    3.1266  -11.7553    7.4438 H   0  0  0  0  0  0  0  0  0  0  0  0
    0.7120  -11.5069    7.4996 H   0  0  0  0  0  0  0  0  0  0  0  0
   -0.2777   -9.3355    7.9345 H   0  0  0  0  0  0  0  0  0  0  0  0
   -2.9999   -7.3050    7.9257 H   0  0  0  0  0  0  0  0  0  0  0  0
   -4.9940   -7.5847    6.9974 H   0  0  0  0  0  0  0  0  0  0  0  0
   -1.8222   -7.8797    5.9588 H   0  0  0  0  0  0  0  0  0  0  0  0
   -3.4562   -7.8928    5.2318 H   0  0  0  0  0  0  0  0  0  0  0  0
  1  2  1  0  0  0  0 
  2  3  1  0  0  0  0 
  3  4  2  0  0  0  0 
  3  5  1  0  0  0  0 
  5  6  1  0  0  0  0 
  6  7  1  0  0  0  0 
  7  8  2  0  0  0  0 
  8  9  2  0  0  0  0 
  9 10  1  0  0  0  0 
 11 10  1  0  0  0  0 
 11 12  1  0  0  0  0 
 12 13  1  0  0  0  0 
 13 14  2  0  0  0  0 
 14 15  1  0  0  0  0 
 15 16  1  0  0  0  0 
 15 17  1  0  0  0  0 
 17 18  1  0  0  0  0 
 18 19  1  0  0  0  0 
 19 20  2  0  0  0  0 
 20 21  1  0  0  0  0 
 21 22  2  0  0  0  0 
 22 23  1  0  0  0  0 
 23 24  2  0  0  0  0 
 19 24  1  0  0  0  0 
 12 25  1  0  0  0  0 
 25 26  1  0  0  0  0 
 25 27  1  0  0  0  0 
 27 28  1  0  0  0  0 
 11 28  1  0  0  0  0 
 28 29  2  0  0  0  0 
  1 30  1  0  0  0  0 
  1 31  1  0  0  0  0 
  1 32  1  0  0  0  0 
  5 33  1  0  0  0  0 
  5 34  1  0  0  0  0 
  6 35  1  0  0  0  0 
  6 36  1  0  0  0  0 
  7 37  1  0  0  0  0 
  9 38  1  0  0  0  0 
 10 39  1  0  0  0  0 
 10 40  1  0  0  0  0 
 11 41  1  0  0  0  0 
 12 42  1  0  0  0  0 
 13 43  1  0  0  0  0 
 14 44  1  0  0  0  0 
 15 45  1  0  0  0  0 
 16 46  1  0  0  0  0 
 17 47  1  0  0  0  0 
 17 48  1  0  0  0  0 
 20 49  1  0  0  0  0 
 21 50  1  0  0  0  0 
 22 51  1  0  0  0  0 
 23 52  1  0  0  0  0 
 24 53  1  0  0  0  0 
 25 54  1  0  0  0  0 
 26 55  1  0  0  0  0 
 27 56  1  0  0  0  0 
 27 57  1  0  0  0  0 
M  END
> <cdk:Title>
enprostil

> <Conformer>
1

> <SuperDrugID>
SD000903

$$$$
