ethylene dichloride
  Mrv0541 09131710103D               1.41756

  8  7  0  0  0  0            999 V2000
   -0.8963   -1.5342   -0.0977 Cl  0  0  0  0  0  0  0  0  0  0  0  0
    0.0766   -0.0822   -0.3145 C   0  0  1  0  0  0  0  0  0  0  0  0
   -0.8196    1.1716   -0.4044 C   0  0  1  0  0  0  0  0  0  0  0  0
    0.1533    2.6236   -0.6212 Cl  0  0  0  0  0  0  0  0  0  0  0  0
    0.7603    0.0035    0.5318 H   0  0  0  0  0  0  0  0  0  0  0  0
    0.6616   -0.1933   -1.2290 H   0  0  0  0  0  0  0  0  0  0  0  0
   -1.5033    1.0859   -1.2507 H   0  0  0  0  0  0  0  0  0  0  0  0
   -1.4046    1.2827    0.5102 H   0  0  0  0  0  0  0  0  0  0  0  0
  1  2  1  0  0  0  0
  2  3  1  0  0  0  0
  3  4  1  0  0  0  0
  2  5  1  0  0  0  0
  2  6  1  0  0  0  0
  3  7  1  0  0  0  0
  3  8  1  0  0  0  0
M  END
>  <SuperDrugID>
SD006024

>  <_MOLCOUNT>
1

$$$$
