penthienate
  CDK     0628171801

 53 54  0  0  0  0  0  0  0  0999 V2000
    3.1260    0.4379    0.4070 C   0  0  2  0  0  0  0  0  0  0  0  0
    1.6999    0.2554    0.0064 C   0  0  0  0  0  0  0  0  0  0  0  0
    3.4696    1.8191    0.2072 O   0  0  0  0  0  0  0  0  0  0  0  0
    4.0838   -0.4471   -0.4701 C   0  0  2  0  0  0  0  0  0  0  0  0
    3.2731    0.1316    1.8602 C   0  0  0  0  0  0  0  0  0  0  0  0
    1.0891   -0.9767    0.0660 O   0  0  0  0  0  0  0  0  0  0  0  0
    1.0384    1.2449   -0.3957 O   0  0  0  0  0  0  0  0  0  0  0  0
    5.5914   -0.3184   -0.1292 C   0  0  2  0  0  0  0  0  0  0  0  0
    4.0455   -0.1596   -1.9904 C   0  0  2  0  0  0  0  0  0  0  0  0
    3.1591   -1.1153    2.4987 C   0  0  0  0  0  0  0  0  0  0  0  0
    3.6292    1.2839    3.1399 S   0  0  0  0  0  0  0  0  0  0  0  0
   -0.2805   -1.2151   -0.3079 C   0  0  1  0  0  0  0  0  0  0  0  0
    6.3637   -0.7620   -1.3893 C   0  0  2  0  0  0  0  0  0  0  0  0
    5.3470   -0.7650   -2.5520 C   0  0  2  0  0  0  0  0  0  0  0  0
    3.3499   -1.1207    3.8923 C   0  0  0  0  0  0  0  0  0  0  0  0
    3.6254    0.1261    4.4519 C   0  0  0  0  0  0  0  0  0  0  0  0
   -0.7868   -2.6665   -0.0327 C   0  0  2  0  0  0  0  0  0  0  0  0
   -0.6586   -3.7337   -1.1177 N   0  0  2  0  0  0  0  0  0  0  0  0
   -1.1362   -5.0853   -0.5733 C   0  0  1  0  0  0  0  0  0  0  0  0
    0.7777   -3.8530   -1.6230 C   0  0  2  0  0  0  0  0  0  0  0  0
   -1.5133   -3.3678   -2.3189 C   0  0  0  0  0  0  0  0  0  0  0  0
   -2.6497   -5.2900   -0.2607 C   0  0  0  0  0  0  0  0  0  0  0  0
    1.8787   -4.3051   -0.6309 C   0  0  0  0  0  0  0  0  0  0  0  0
    4.3829    1.9253    0.5441 H   0  0  0  0  0  0  0  0  0  0  0  0
    3.8069   -1.4989   -0.3332 H   0  0  0  0  0  0  0  0  0  0  0  0
    5.8488   -0.9359    0.7365 H   0  0  0  0  0  0  0  0  0  0  0  0
    5.8558    0.7164    0.1001 H   0  0  0  0  0  0  0  0  0  0  0  0
    4.0367    0.9156   -2.1834 H   0  0  0  0  0  0  0  0  0  0  0  0
    3.1638   -0.6051   -2.4587 H   0  0  0  0  0  0  0  0  0  0  0  0
    2.9543   -1.9746    1.9894 H   0  0  0  0  0  0  0  0  0  0  0  0
   -0.9056   -0.5203    0.2634 H   0  0  0  0  0  0  0  0  0  0  0  0
   -0.3945   -0.9576   -1.3574 H   0  0  0  0  0  0  0  0  0  0  0  0
    6.7782   -1.7621   -1.2430 H   0  0  0  0  0  0  0  0  0  0  0  0
    7.1893   -0.0744   -1.5952 H   0  0  0  0  0  0  0  0  0  0  0  0
    5.7121   -0.1819   -3.4019 H   0  0  0  0  0  0  0  0  0  0  0  0
    5.1676   -1.7900   -2.8871 H   0  0  0  0  0  0  0  0  0  0  0  0
    3.2951   -1.9725    4.4554 H   0  0  0  0  0  0  0  0  0  0  0  0
    3.7949    0.3289    5.4358 H   0  0  0  0  0  0  0  0  0  0  0  0
   -1.8468   -2.5593    0.2129 H   0  0  0  0  0  0  0  0  0  0  0  0
   -0.3123   -3.0053    0.8938 H   0  0  0  0  0  0  0  0  0  0  0  0
   -0.8755   -5.8800   -1.2796 H   0  0  0  0  0  0  0  0  0  0  0  0
   -0.6050   -5.3174    0.3551 H   0  0  0  0  0  0  0  0  0  0  0  0
    1.1114   -2.8952   -2.0345 H   0  0  0  0  0  0  0  0  0  0  0  0
    0.8174   -4.5614   -2.4597 H   0  0  0  0  0  0  0  0  0  0  0  0
   -1.1263   -2.5007   -2.8591 H   0  0  0  0  0  0  0  0  0  0  0  0
   -2.5402   -3.1259   -2.0313 H   0  0  0  0  0  0  0  0  0  0  0  0
   -1.5564   -4.1889   -3.0428 H   0  0  0  0  0  0  0  0  0  0  0  0
   -2.7971   -6.2464    0.2474 H   0  0  0  0  0  0  0  0  0  0  0  0
   -3.2425   -5.3096   -1.1783 H   0  0  0  0  0  0  0  0  0  0  0  0
   -3.0336   -4.5076    0.3919 H   0  0  0  0  0  0  0  0  0  0  0  0
    2.8470   -4.2880   -1.1350 H   0  0  0  0  0  0  0  0  0  0  0  0
    1.6972   -5.3241   -0.2907 H   0  0  0  0  0  0  0  0  0  0  0  0
    1.9282   -3.6407    0.2303 H   0  0  0  0  0  0  0  0  0  0  0  0
  1  2  1  0  0  0  0 
  1  3  1  0  0  0  0 
  1  4  1  0  0  0  0 
  1  5  1  0  0  0  0 
  2  6  1  0  0  0  0 
  2  7  2  0  0  0  0 
  4  8  1  0  0  0  0 
  4  9  1  0  0  0  0 
  5 10  2  0  0  0  0 
  5 11  1  0  0  0  0 
  6 12  1  0  0  0  0 
  8 13  1  0  0  0  0 
  9 14  1  0  0  0  0 
 10 15  1  0  0  0  0 
 11 16  1  0  0  0  0 
 12 17  1  0  0  0  0 
 13 14  1  0  0  0  0 
 15 16  2  0  0  0  0 
 17 18  1  0  0  0  0 
 18 19  1  0  0  0  0 
 18 20  1  0  0  0  0 
 18 21  1  0  0  0  0 
 19 22  1  0  0  0  0 
 20 23  1  0  0  0  0 
  3 24  1  0  0  0  0 
  4 25  1  0  0  0  0 
  8 26  1  0  0  0  0 
  8 27  1  0  0  0  0 
  9 28  1  0  0  0  0 
  9 29  1  0  0  0  0 
 10 30  1  0  0  0  0 
 12 31  1  0  0  0  0 
 12 32  1  0  0  0  0 
 13 33  1  0  0  0  0 
 13 34  1  0  0  0  0 
 14 35  1  0  0  0  0 
 14 36  1  0  0  0  0 
 15 37  1  0  0  0  0 
 16 38  1  0  0  0  0 
 17 39  1  0  0  0  0 
 17 40  1  0  0  0  0 
 19 41  1  0  0  0  0 
 19 42  1  0  0  0  0 
 20 43  1  0  0  0  0 
 20 44  1  0  0  0  0 
 21 45  1  0  0  0  0 
 21 46  1  0  0  0  0 
 21 47  1  0  0  0  0 
 22 48  1  0  0  0  0 
 22 49  1  0  0  0  0 
 22 50  1  0  0  0  0 
 23 51  1  0  0  0  0 
 23 52  1  0  0  0  0 
 23 53  1  0  0  0  0 
M  CHG  1  18   1
M  END
> <cdk:Title>
penthienate

> <Conformer>
1

> <SuperDrugID>
SD001876

$$$$
