pitavastatin
  CDK     0628171801

 55 58  0  0  0  0  0  0  0  0999 V2000
    2.3770    0.7212    1.6212 C   0  0  0  0  0  0  0  0  0  0  0  0
    2.2409    1.7679    2.4534 C   0  0  0  0  0  0  0  0  0  0  0  0
    2.4134    0.7985    0.2285 C   0  0  0  0  0  0  0  0  0  0  0  0
    2.1881    1.6330    3.9039 C   0  0  2  0  0  0  0  0  0  0  0  0
    1.4857    0.0449   -0.5583 C   0  0  0  0  0  0  0  0  0  0  0  0
    3.3735    1.6043   -0.4459 C   0  0  0  0  0  0  0  0  0  0  0  0
    0.8174    2.0624    4.5002 C   0  0  2  0  0  0  0  0  0  0  0  0
    3.2244    2.4445    4.4505 O   0  0  0  0  0  0  0  0  0  0  0  0
    1.5919    0.0464   -1.9808 C   0  0  0  0  0  0  0  0  0  0  0  0
    0.4081   -0.6583    0.0599 C   0  0  0  0  0  0  0  0  0  0  0  0
    3.3940    1.6226   -1.8002 N   0  0  0  0  0  0  0  0  0  0  0  0
    4.3736    2.4732    0.2215 C   0  0  1  0  0  0  0  0  0  0  0  0
   -0.4083    1.2811    3.9420 C   0  0  2  0  0  0  0  0  0  0  0  0
    2.5688    0.8869   -2.5777 C   0  0  0  0  0  0  0  0  0  0  0  0
    0.7792   -0.7359   -2.8445 C   0  0  0  0  0  0  0  0  0  0  0  0
    0.6147   -1.8932    0.7151 C   0  0  0  0  0  0  0  0  0  0  0  0
   -0.8988   -0.1188    0.0075 C   0  0  0  0  0  0  0  0  0  0  0  0
    5.4045    1.8407    1.1740 C   0  0  2  0  0  0  0  0  0  0  0  0
    5.8462    2.3313   -0.2062 C   0  0  1  0  0  0  0  0  0  0  0  0
   -1.7430    1.7781    4.5607 C   0  0  1  0  0  0  0  0  0  0  0  0
   -0.2676   -0.1199    4.1896 O   0  0  0  0  0  0  0  0  0  0  0  0
    2.6964    0.9707   -3.9784 C   0  0  0  0  0  0  0  0  0  0  0  0
    0.9103   -0.6555   -4.2425 C   0  0  0  0  0  0  0  0  0  0  0  0
   -0.4649   -2.5758    1.3049 C   0  0  0  0  0  0  0  0  0  0  0  0
   -1.9825   -0.8132    0.5740 C   0  0  0  0  0  0  0  0  0  0  0  0
   -2.9257    1.2246    3.8783 C   0  0  0  0  0  0  0  0  0  0  0  0
    1.8634    0.2050   -4.8107 C   0  0  0  0  0  0  0  0  0  0  0  0
   -1.7653   -2.0435    1.2205 C   0  0  0  0  0  0  0  0  0  0  0  0
   -3.7642    0.3828    4.5230 O   0  0  0  0  0  0  0  0  0  0  0  0
   -3.1716    1.5312    2.6898 O   0  0  0  0  0  0  0  0  0  0  0  0
   -2.7712   -2.6923    1.7370 F   0  0  0  0  0  0  0  0  0  0  0  0
    2.4354   -0.1886    2.0135 H   0  0  0  0  0  0  0  0  0  0  0  0
    2.1561    2.6828    2.0726 H   0  0  0  0  0  0  0  0  0  0  0  0
    2.3943    0.6071    4.2225 H   0  0  0  0  0  0  0  0  0  0  0  0
    0.6766    3.1318    4.3169 H   0  0  0  0  0  0  0  0  0  0  0  0
    0.8549    1.9176    5.5830 H   0  0  0  0  0  0  0  0  0  0  0  0
    3.1496    2.3341    5.4211 H   0  0  0  0  0  0  0  0  0  0  0  0
    4.0713    3.4881    0.4868 H   0  0  0  0  0  0  0  0  0  0  0  0
   -0.4543    1.4356    2.8622 H   0  0  0  0  0  0  0  0  0  0  0  0
    0.0794   -1.3796   -2.4716 H   0  0  0  0  0  0  0  0  0  0  0  0
    1.5530   -2.2998    0.7698 H   0  0  0  0  0  0  0  0  0  0  0  0
   -1.0702    0.7831   -0.4456 H   0  0  0  0  0  0  0  0  0  0  0  0
    5.3797    0.7553    1.2917 H   0  0  0  0  0  0  0  0  0  0  0  0
    5.7423    2.4598    2.0077 H   0  0  0  0  0  0  0  0  0  0  0  0
    6.0987    1.5358   -0.9108 H   0  0  0  0  0  0  0  0  0  0  0  0
    6.4391    3.2472   -0.2048 H   0  0  0  0  0  0  0  0  0  0  0  0
   -1.7712    1.5079    5.6194 H   0  0  0  0  0  0  0  0  0  0  0  0
   -1.8016    2.8664    4.4908 H   0  0  0  0  0  0  0  0  0  0  0  0
    0.5375   -0.3933    3.7020 H   0  0  0  0  0  0  0  0  0  0  0  0
    3.3970    1.5860   -4.3976 H   0  0  0  0  0  0  0  0  0  0  0  0
    0.3124   -1.2243   -4.8479 H   0  0  0  0  0  0  0  0  0  0  0  0
   -0.3024   -3.4628    1.7864 H   0  0  0  0  0  0  0  0  0  0  0  0
   -2.9252   -0.4212    0.5117 H   0  0  0  0  0  0  0  0  0  0  0  0
    1.9536    0.2719   -5.8274 H   0  0  0  0  0  0  0  0  0  0  0  0
   -4.5531    0.0262    4.0644 H   0  0  0  0  0  0  0  0  0  0  0  0
  1  2  2  0  0  0  0 
  1  3  1  0  0  0  0 
  4  2  1  0  0  0  0 
  3  5  1  0  0  0  0 
  3  6  2  0  0  0  0 
  4  7  1  0  0  0  0 
  4  8  1  0  0  0  0 
  5  9  2  0  0  0  0 
  5 10  1  0  0  0  0 
  6 11  1  0  0  0  0 
  6 12  1  0  0  0  0 
 13  7  1  0  0  0  0 
  9 14  1  0  0  0  0 
  9 15  1  0  0  0  0 
 10 16  2  0  0  0  0 
 10 17  1  0  0  0  0 
 11 14  2  0  0  0  0 
 12 18  1  0  0  0  0 
 12 19  1  0  0  0  0 
 13 20  1  0  0  0  0 
 13 21  1  0  0  0  0 
 14 22  1  0  0  0  0 
 15 23  2  0  0  0  0 
 16 24  1  0  0  0  0 
 17 25  2  0  0  0  0 
 18 19  1  0  0  0  0 
 20 26  1  0  0  0  0 
 22 27  2  0  0  0  0 
 23 27  1  0  0  0  0 
 24 28  2  0  0  0  0 
 25 28  1  0  0  0  0 
 26 29  1  0  0  0  0 
 26 30  2  0  0  0  0 
 28 31  1  0  0  0  0 
  1 32  1  0  0  0  0 
  2 33  1  0  0  0  0 
  4 34  1  0  0  0  0 
  7 35  1  0  0  0  0 
  7 36  1  0  0  0  0 
  8 37  1  0  0  0  0 
 12 38  1  0  0  0  0 
 13 39  1  0  0  0  0 
 15 40  1  0  0  0  0 
 16 41  1  0  0  0  0 
 17 42  1  0  0  0  0 
 18 43  1  0  0  0  0 
 18 44  1  0  0  0  0 
 19 45  1  0  0  0  0 
 19 46  1  0  0  0  0 
 20 47  1  0  0  0  0 
 20 48  1  0  0  0  0 
 21 49  1  0  0  0  0 
 22 50  1  0  0  0  0 
 23 51  1  0  0  0  0 
 24 52  1  0  0  0  0 
 25 53  1  0  0  0  0 
 27 54  1  0  0  0  0 
 29 55  1  0  0  0  0 
M  END
> <cdk:Title>
pitavastatin

> <Conformer>
1

> <SuperDrugID>
SD001987

$$$$
