acetaminosalol
  CDK     0628171802

 33 34  0  0  0  0  0  0  0  0999 V2000
  -11.7674   -4.1839   -1.1149 C   0  0  0  0  0  0  0  0  0  0  0  0
  -10.8174   -4.4324   -2.0730 O   0  0  0  0  0  0  0  0  0  0  0  0
  -11.4564   -3.6754   -0.0115 O   0  0  0  0  0  0  0  0  0  0  0  0
  -13.1123   -4.5623   -1.3475 C   0  0  0  0  0  0  0  0  0  0  0  0
   -9.4889   -4.0911   -2.1353 C   0  0  0  0  0  0  0  0  0  0  0  0
  -13.9075   -5.1737   -0.3397 C   0  0  0  0  0  0  0  0  0  0  0  0
  -13.7002   -4.3122   -2.6117 C   0  0  0  0  0  0  0  0  0  0  0  0
   -8.9167   -3.0011   -1.4435 C   0  0  0  0  0  0  0  0  0  0  0  0
   -8.6602   -4.8745   -2.9643 C   0  0  0  0  0  0  0  0  0  0  0  0
  -13.4231   -5.4743    0.8941 O   0  0  0  0  0  0  0  0  0  0  0  0
  -15.2517   -5.5074   -0.5979 C   0  0  0  0  0  0  0  0  0  0  0  0
  -15.0430   -4.6521   -2.8641 C   0  0  0  0  0  0  0  0  0  0  0  0
   -7.5384   -2.7323   -1.5399 C   0  0  0  0  0  0  0  0  0  0  0  0
   -7.2825   -4.5996   -3.0696 C   0  0  0  0  0  0  0  0  0  0  0  0
  -15.8181   -5.2522   -1.8581 C   0  0  0  0  0  0  0  0  0  0  0  0
   -6.7003   -3.5393   -2.3440 C   0  0  0  0  0  0  0  0  0  0  0  0
   -5.3579   -3.3295   -2.4954 N   0  0  0  0  0  0  0  0  0  0  0  0
   -4.4740   -2.8657   -1.5695 C   0  0  0  0  0  0  0  0  0  0  0  0
   -3.0752   -2.6564   -1.9754 C   0  0  0  0  0  0  0  0  0  0  0  0
   -4.7973   -2.6347   -0.3805 O   0  0  0  0  0  0  0  0  0  0  0  0
  -13.1647   -3.8616   -3.3585 H   0  0  0  0  0  0  0  0  0  0  0  0
   -9.5000   -2.3838   -0.8782 H   0  0  0  0  0  0  0  0  0  0  0  0
   -9.0550   -5.6581   -3.4910 H   0  0  0  0  0  0  0  0  0  0  0  0
  -12.4632   -5.6335    0.7756 H   0  0  0  0  0  0  0  0  0  0  0  0
  -15.8220   -5.9402    0.1335 H   0  0  0  0  0  0  0  0  0  0  0  0
  -15.4600   -4.4567   -3.7768 H   0  0  0  0  0  0  0  0  0  0  0  0
   -7.1603   -1.9302   -1.0319 H   0  0  0  0  0  0  0  0  0  0  0  0
   -6.7028   -5.1870   -3.6755 H   0  0  0  0  0  0  0  0  0  0  0  0
  -16.7943   -5.4988   -2.0393 H   0  0  0  0  0  0  0  0  0  0  0  0
   -4.9824   -3.5640   -3.3577 H   0  0  0  0  0  0  0  0  0  0  0  0
   -3.0290   -1.8765   -2.7367 H   0  0  0  0  0  0  0  0  0  0  0  0
   -2.6577   -3.5770   -2.3847 H   0  0  0  0  0  0  0  0  0  0  0  0
   -2.4667   -2.3484   -1.1227 H   0  0  0  0  0  0  0  0  0  0  0  0
  1  2  1  0  0  0  0 
  1  3  2  0  0  0  0 
  1  4  1  0  0  0  0 
  2  5  1  0  0  0  0 
  4  6  2  0  0  0  0 
  4  7  1  0  0  0  0 
  5  8  2  0  0  0  0 
  5  9  1  0  0  0  0 
  6 10  1  0  0  0  0 
  6 11  1  0  0  0  0 
  7 12  2  0  0  0  0 
  8 13  1  0  0  0  0 
  9 14  2  0  0  0  0 
 11 15  2  0  0  0  0 
 12 15  1  0  0  0  0 
 13 16  2  0  0  0  0 
 14 16  1  0  0  0  0 
 16 17  1  0  0  0  0 
 17 18  1  0  0  0  0 
 18 19  1  0  0  0  0 
 18 20  2  0  0  0  0 
  7 21  1  0  0  0  0 
  8 22  1  0  0  0  0 
  9 23  1  0  0  0  0 
 10 24  1  0  0  0  0 
 11 25  1  0  0  0  0 
 12 26  1  0  0  0  0 
 13 27  1  0  0  0  0 
 14 28  1  0  0  0  0 
 15 29  1  0  0  0  0 
 17 30  1  0  0  0  0 
 19 31  1  0  0  0  0 
 19 32  1  0  0  0  0 
 19 33  1  0  0  0  0 
M  END
> <cdk:Title>
acetaminosalol

> <Conformer>
1

> <SuperDrugID>
SD000030

$$$$
