ceritinib
  CDK     0628171802

 74 77  0  0  0  0  0  0  0  0999 V2000
   -6.5209   -0.4717    4.3950 N   0  0  0  0  0  0  0  0  0  0  0  0
   -5.9698   -1.2536    5.3803 C   0  0  0  0  0  0  0  0  0  0  0  0
   -6.6265   -1.2681    6.6280 C   0  0  0  0  0  0  0  0  0  0  0  0
   -7.7593   -0.5112    6.8129 O   0  0  0  0  0  0  0  0  0  0  0  0
   -7.6725    0.6159    7.7155 C   0  0  1  0  0  0  0  0  0  0  0  0
   -6.8187    1.7859    7.1560 C   0  0  0  0  0  0  0  0  0  0  0  0
   -9.1354    1.0587    7.9677 C   0  0  0  0  0  0  0  0  0  0  0  0
   -6.1846   -2.1335    7.6452 C   0  0  0  0  0  0  0  0  0  0  0  0
   -5.1015   -3.0275    7.4603 C   0  0  0  0  0  0  0  0  0  0  0  0
   -4.3749   -2.9471    6.2330 C   0  0  0  0  0  0  0  0  0  0  0  0
   -4.8368   -2.0825    5.2100 C   0  0  0  0  0  0  0  0  0  0  0  0
   -3.1411   -3.7488    5.9806 C   0  0  0  0  0  0  0  0  0  0  0  0
   -4.7923   -4.0220    8.5530 C   0  0  2  0  0  0  0  0  0  0  0  0
   -6.0096   -4.9420    8.8970 C   0  0  2  0  0  0  0  0  0  0  0  0
   -5.6679   -5.9226   10.0496 C   0  0  2  0  0  0  0  0  0  0  0  0
   -5.1591   -5.1997   11.2379 N   0  0  1  0  0  0  0  0  0  0  0  0
   -3.9588   -4.3771   10.9553 C   0  0  2  0  0  0  0  0  0  0  0  0
   -4.2259   -3.3387    9.8351 C   0  0  1  0  0  0  0  0  0  0  0  0
   -5.9648   -0.0254    3.2396 C   0  0  0  0  0  0  0  0  0  0  0  0
   -4.6269    0.0389    3.0258 N   0  0  0  0  0  0  0  0  0  0  0  0
   -4.0663    0.5022    1.8778 C   0  0  0  0  0  0  0  0  0  0  0  0
   -2.7114    0.5256    1.7070 N   0  0  0  0  0  0  0  0  0  0  0  0
   -1.7261    0.3021    2.6348 C   0  0  0  0  0  0  0  0  0  0  0  0
   -0.5072   -0.3073    2.2273 C   0  0  0  0  0  0  0  0  0  0  0  0
   -0.2209   -0.9160    0.5779 S   0  0  2  0  0  0  0  0  0  0  0  0
   -0.9157   -2.6169    0.4186 C   0  0  1  0  0  0  0  0  0  0  0  0
   -0.7208   -3.1593   -1.0192 C   0  0  0  0  0  0  0  0  0  0  0  0
   -0.3056   -3.5739    1.4756 C   0  0  0  0  0  0  0  0  0  0  0  0
    1.3555   -0.9657    0.2761 O   0  0  0  0  0  0  0  0  0  0  0  0
   -0.8843    0.0380   -0.5294 O   0  0  0  0  0  0  0  0  0  0  0  0
    0.5187   -0.5164    3.1776 C   0  0  0  0  0  0  0  0  0  0  0  0
    0.3387   -0.1639    4.5246 C   0  0  0  0  0  0  0  0  0  0  0  0
   -0.8633    0.4286    4.9358 C   0  0  0  0  0  0  0  0  0  0  0  0
   -1.8742    0.6836    3.9944 C   0  0  0  0  0  0  0  0  0  0  0  0
   -4.9299    0.9368    0.8443 C   0  0  0  0  0  0  0  0  0  0  0  0
   -6.3196    0.8740    1.0717 C   0  0  0  0  0  0  0  0  0  0  0  0
   -6.7911    0.4026    2.2527 N   0  0  0  0  0  0  0  0  0  0  0  0
   -4.3540    1.5300   -0.6351 Cl  0  0  0  0  0  0  0  0  0  0  0  0
   -7.4426   -0.2019    4.5381 H   0  0  0  0  0  0  0  0  0  0  0  0
   -7.2512    0.3074    8.6799 H   0  0  0  0  0  0  0  0  0  0  0  0
   -5.7801    1.4750    7.0373 H   0  0  0  0  0  0  0  0  0  0  0  0
   -7.2010    2.1126    6.1877 H   0  0  0  0  0  0  0  0  0  0  0  0
   -6.8435    2.6331    7.8461 H   0  0  0  0  0  0  0  0  0  0  0  0
   -9.6000    1.3820    7.0323 H   0  0  0  0  0  0  0  0  0  0  0  0
   -9.7086    0.2207    8.3704 H   0  0  0  0  0  0  0  0  0  0  0  0
   -9.1748    1.8804    8.6870 H   0  0  0  0  0  0  0  0  0  0  0  0
   -6.6914   -2.1188    8.5294 H   0  0  0  0  0  0  0  0  0  0  0  0
   -4.3502   -2.0879    4.3144 H   0  0  0  0  0  0  0  0  0  0  0  0
   -3.3824   -4.8138    5.9570 H   0  0  0  0  0  0  0  0  0  0  0  0
   -2.4148   -3.5648    6.7756 H   0  0  0  0  0  0  0  0  0  0  0  0
   -2.6526   -3.5017    5.0364 H   0  0  0  0  0  0  0  0  0  0  0  0
   -4.0156   -4.7101    8.2161 H   0  0  0  0  0  0  0  0  0  0  0  0
   -6.3042   -5.5158    8.0124 H   0  0  0  0  0  0  0  0  0  0  0  0
   -6.8698   -4.3462    9.2130 H   0  0  0  0  0  0  0  0  0  0  0  0
   -4.9276   -6.6581    9.7208 H   0  0  0  0  0  0  0  0  0  0  0  0
   -6.5700   -6.4631   10.3429 H   0  0  0  0  0  0  0  0  0  0  0  0
   -5.8988   -4.5607   11.5381 H   0  0  0  0  0  0  0  0  0  0  0  0
   -3.1267   -5.0271   10.6729 H   0  0  0  0  0  0  0  0  0  0  0  0
   -3.6761   -3.8563   11.8714 H   0  0  0  0  0  0  0  0  0  0  0  0
   -3.2912   -2.8236    9.5953 H   0  0  0  0  0  0  0  0  0  0  0  0
   -4.9305   -2.5960   10.2151 H   0  0  0  0  0  0  0  0  0  0  0  0
   -2.4104    0.7002    0.8053 H   0  0  0  0  0  0  0  0  0  0  0  0
   -1.9893   -2.5530    0.6112 H   0  0  0  0  0  0  0  0  0  0  0  0
   -1.1736   -4.1491   -1.1167 H   0  0  0  0  0  0  0  0  0  0  0  0
    0.3415   -3.2360   -1.2628 H   0  0  0  0  0  0  0  0  0  0  0  0
   -1.2005   -2.4944   -1.7393 H   0  0  0  0  0  0  0  0  0  0  0  0
   -0.7141   -4.5805    1.3634 H   0  0  0  0  0  0  0  0  0  0  0  0
   -0.5450   -3.2292    2.4826 H   0  0  0  0  0  0  0  0  0  0  0  0
    0.7805   -3.6265    1.3714 H   0  0  0  0  0  0  0  0  0  0  0  0
    1.4039   -0.9482    2.9057 H   0  0  0  0  0  0  0  0  0  0  0  0
    1.0836   -0.3385    5.2047 H   0  0  0  0  0  0  0  0  0  0  0  0
   -1.0005    0.6761    5.9180 H   0  0  0  0  0  0  0  0  0  0  0  0
   -2.7168    1.1611    4.3193 H   0  0  0  0  0  0  0  0  0  0  0  0
   -6.9888    1.1750    0.3596 H   0  0  0  0  0  0  0  0  0  0  0  0
  1  2  1  0  0  0  0 
  1 19  1  0  0  0  0 
  2  3  2  0  0  0  0 
  2 11  1  0  0  0  0 
  3  4  1  0  0  0  0 
  3  8  1  0  0  0  0 
  4  5  1  0  0  0  0 
  5  6  1  0  0  0  0 
  5  7  1  0  0  0  0 
  8  9  2  0  0  0  0 
  9 13  1  0  0  0  0 
 10  9  1  0  0  0  0 
 10 12  1  0  0  0  0 
 11 10  2  0  0  0  0 
 13 14  1  0  0  0  0 
 13 18  1  0  0  0  0 
 14 15  1  0  0  0  0 
 15 16  1  0  0  0  0 
 17 16  1  0  0  0  0 
 18 17  1  0  0  0  0 
 19 20  2  0  0  0  0 
 19 37  1  0  0  0  0 
 20 21  1  0  0  0  0 
 21 22  1  0  0  0  0 
 21 35  2  0  0  0  0 
 22 23  1  0  0  0  0 
 23 24  2  0  0  0  0 
 23 34  1  0  0  0  0 
 24 25  1  0  0  0  0 
 24 31  1  0  0  0  0 
 25 26  1  0  0  0  0 
 25 29  2  0  0  0  0 
 25 30  2  0  0  0  0 
 26 27  1  0  0  0  0 
 26 28  1  0  0  0  0 
 31 32  2  0  0  0  0 
 33 32  1  0  0  0  0 
 34 33  2  0  0  0  0 
 35 38  1  0  0  0  0 
 36 35  1  0  0  0  0 
 37 36  2  0  0  0  0 
  1 39  1  0  0  0  0 
  5 40  1  0  0  0  0 
  6 41  1  0  0  0  0 
  6 42  1  0  0  0  0 
  6 43  1  0  0  0  0 
  7 44  1  0  0  0  0 
  7 45  1  0  0  0  0 
  7 46  1  0  0  0  0 
  8 47  1  0  0  0  0 
 11 48  1  0  0  0  0 
 12 49  1  0  0  0  0 
 12 50  1  0  0  0  0 
 12 51  1  0  0  0  0 
 13 52  1  0  0  0  0 
 14 53  1  0  0  0  0 
 14 54  1  0  0  0  0 
 15 55  1  0  0  0  0 
 15 56  1  0  0  0  0 
 16 57  1  0  0  0  0 
 17 58  1  0  0  0  0 
 17 59  1  0  0  0  0 
 18 60  1  0  0  0  0 
 18 61  1  0  0  0  0 
 22 62  1  0  0  0  0 
 26 63  1  0  0  0  0 
 27 64  1  0  0  0  0 
 27 65  1  0  0  0  0 
 27 66  1  0  0  0  0 
 28 67  1  0  0  0  0 
 28 68  1  0  0  0  0 
 28 69  1  0  0  0  0 
 31 70  1  0  0  0  0 
 32 71  1  0  0  0  0 
 33 72  1  0  0  0  0 
 34 73  1  0  0  0  0 
 36 74  1  0  0  0  0 
M  END
> <cdk:Title>
ceritinib

> <Conformer>
1

> <SuperDrugID>
SD003809

$$$$
