peplomycin
  CDK     0628171801

190196  0  0  0  0  0  0  0  0999 V2000
    7.7688   -1.1114   -5.5785 C   0  0  1  0  0  0  0  0  0  0  0  0
    8.4335   -0.3593   -4.3691 C   0  0  2  0  0  0  0  0  0  0  0  0
    6.9005   -2.1769   -5.1166 O   0  0  0  0  0  0  0  0  0  0  0  0
    7.2767   -0.1859   -6.6455 C   0  0  0  0  0  0  0  0  0  0  0  0
    9.6121   -1.0670   -3.9434 N   0  0  0  0  0  0  0  0  0  0  0  0
    7.5041    0.0185   -3.2632 C   0  0  0  0  0  0  0  0  0  0  0  0
    5.5361   -2.3243   -5.5588 C   0  0  1  0  0  0  0  0  0  0  0  0
    7.8464    0.0175   -7.9022 C   0  0  0  0  0  0  0  0  0  0  0  0
    6.2164    0.6298   -6.6007 N   0  0  0  0  0  0  0  0  0  0  0  0
   10.8641   -0.5265   -3.8036 C   0  0  0  0  0  0  0  0  0  0  0  0
    7.1405   -0.6516   -2.1266 N   0  0  0  0  0  0  0  0  0  0  0  0
    6.9436    1.1324   -3.3705 O   0  0  0  0  0  0  0  0  0  0  0  0
    5.1460   -3.8347   -5.4436 C   0  0  1  0  0  0  0  0  0  0  0  0
    4.7236   -1.4293   -4.7627 O   0  0  0  0  0  0  0  0  0  0  0  0
    7.1258    0.9174   -8.5871 N   0  0  0  0  0  0  0  0  0  0  0  0
    6.1260    1.2809   -7.7699 C   0  0  0  0  0  0  0  0  0  0  0  0
   10.9762    0.7126   -3.6553 O   0  0  0  0  0  0  0  0  0  0  0  0
   12.0150   -1.3472   -3.9691 C   0  0  0  0  0  0  0  0  0  0  0  0
    7.3446   -2.0180   -1.7479 C   0  0  1  0  0  0  0  0  0  0  0  0
    5.5997   -4.5233   -4.2417 O   0  0  0  0  0  0  0  0  0  0  0  0
    3.6017   -3.9963   -5.5401 C   0  0  1  0  0  0  0  0  0  0  0  0
    3.2867   -1.5380   -4.8876 C   0  0  2  0  0  0  0  0  0  0  0  0
   11.7737   -2.5187   -4.6095 N   0  0  0  0  0  0  0  0  0  0  0  0
   13.3682   -1.0082   -3.6590 C   0  0  0  0  0  0  0  0  0  0  0  0
    8.1053   -2.1719   -0.3843 C   0  0  2  0  0  0  0  0  0  0  0  0
    5.9180   -2.6472   -1.6596 C   0  0  0  0  0  0  0  0  0  0  0  0
    6.8995   -5.1812   -4.2136 C   0  0  2  0  0  0  0  0  0  0  0  0
    3.2199   -5.3371   -5.2343 O   0  0  0  0  0  0  0  0  0  0  0  0
    2.8377   -3.0045   -4.6254 C   0  0  1  0  0  0  0  0  0  0  0  0
    2.7392   -0.8991   -6.1964 C   0  0  1  0  0  0  0  0  0  0  0  0
   12.7362   -3.3577   -5.0523 C   0  0  0  0  0  0  0  0  0  0  0  0
   13.7248    0.2577   -2.9581 C   0  0  0  0  0  0  0  0  0  0  0  0
   14.3696   -1.9195   -4.0959 C   0  0  0  0  0  0  0  0  0  0  0  0
    9.6055   -1.7133   -0.3837 C   0  0  1  0  0  0  0  0  0  0  0  0
    8.0562   -3.5572   -0.0474 O   0  0  0  0  0  0  0  0  0  0  0  0
    7.1035   -6.3689   -5.1984 C   0  0  1  0  0  0  0  0  0  0  0  0
    7.1787   -5.6572   -2.8726 O   0  0  0  0  0  0  0  0  0  0  0  0
    1.4314   -3.1610   -4.8047 O   0  0  0  0  0  0  0  0  0  0  0  0
    3.0703    0.4840   -6.2513 O   0  0  0  0  0  0  0  0  0  0  0  0
   12.3716   -4.5404   -5.8740 C   0  0  1  0  0  0  0  0  0  0  0  0
   14.0254   -3.0371   -4.7843 N   0  0  0  0  0  0  0  0  0  0  0  0
   15.6940   -1.7357   -3.9128 N   0  0  0  0  0  0  0  0  0  0  0  0
    9.8399   -0.2464   -0.2497 C   0  0  0  0  0  0  0  0  0  0  0  0
   10.4796   -2.4129    0.7057 C   0  0  0  0  0  0  0  0  0  0  0  0
    8.4636   -6.7947   -5.1309 O   0  0  0  0  0  0  0  0  0  0  0  0
    6.1647   -7.5496   -4.8345 C   0  0  1  0  0  0  0  0  0  0  0  0
    6.3683   -6.7597   -2.3831 C   0  0  1  0  0  0  0  0  0  0  0  0
   11.8914   -5.6715   -5.0472 N   0  0  1  0  0  0  0  0  0  0  0  0
   11.2580   -4.1855   -6.9090 C   0  0  1  0  0  0  0  0  0  0  0  0
    9.0311    0.6199    0.4439 N   0  0  0  0  0  0  0  0  0  0  0  0
   10.9260    0.1648   -0.7186 O   0  0  0  0  0  0  0  0  0  0  0  0
    6.4026   -8.6751   -5.6970 O   0  0  0  0  0  0  0  0  0  0  0  0
    6.3757   -7.9803   -3.3588 C   0  0  1  0  0  0  0  0  0  0  0  0
    6.9048   -7.1772   -0.9855 C   0  0  1  0  0  0  0  0  0  0  0  0
   12.8430   -6.2619   -4.0829 C   0  0  1  0  0  0  0  0  0  0  0  0
   10.9714   -5.2658   -7.8780 C   0  0  0  0  0  0  0  0  0  0  0  0
    9.3705    1.9865    0.7604 C   0  0  2  0  0  0  0  0  0  0  0  0
    6.0863   -8.7660   -7.0202 C   0  0  0  0  0  0  0  0  0  0  0  0
    5.3640   -8.9190   -2.9904 O   0  0  0  0  0  0  0  0  0  0  0  0
    6.8273   -6.1128   -0.0447 O   0  0  0  0  0  0  0  0  0  0  0  0
   12.4030   -7.7077   -3.7371 C   0  0  1  0  0  0  0  0  0  0  0  0
   11.8843   -5.6497   -8.7882 N   0  0  0  0  0  0  0  0  0  0  0  0
    9.8575   -5.8379   -7.8887 O   0  0  0  0  0  0  0  0  0  0  0  0
    8.4274    2.5402    1.7690 C   0  0  0  0  0  0  0  0  0  0  0  0
    9.5297    2.9220   -0.4899 C   0  0  1  0  0  0  0  0  0  0  0  0
    6.4552   -9.8551   -7.7089 N   0  0  0  0  0  0  0  0  0  0  0  0
    5.4457   -7.8689   -7.6127 O   0  0  0  0  0  0  0  0  0  0  0  0
   13.2654   -8.2939   -2.6887 C   0  0  0  0  0  0  0  0  0  0  0  0
   11.0042   -7.7605   -3.2874 N   0  0  1  0  0  0  0  0  0  0  0  0
    7.0940    2.5350    1.5123 N   0  0  0  0  0  0  0  0  0  0  0  0
    8.8682    3.0387    2.8330 O   0  0  0  0  0  0  0  0  0  0  0  0
    8.2237    3.3762   -1.1879 C   0  0  0  0  0  0  0  0  0  0  0  0
   10.2750    4.0755   -0.0972 O   0  0  0  0  0  0  0  0  0  0  0  0
   13.2620   -7.8074   -1.4333 N   0  0  0  0  0  0  0  0  0  0  0  0
   14.0221   -9.2555   -2.9497 O   0  0  0  0  0  0  0  0  0  0  0  0
    6.0874    3.1635    2.3034 C   0  0  2  0  0  0  0  0  0  0  0  0
    4.7328    3.0565    1.5627 C   0  0  2  0  0  0  0  0  0  0  0  0
    3.6466    3.7839    2.2369 C   0  0  0  0  0  0  0  0  0  0  0  0
    3.1114    4.9655    1.8527 N   0  0  0  0  0  0  0  0  0  0  0  0
    2.7515    3.2614    3.6534 S   0  0  0  0  0  0  0  0  0  0  0  0
    2.0740    5.4521    2.5909 C   0  0  0  0  0  0  0  0  0  0  0  0
    1.6858    4.6519    3.6768 C   0  0  0  0  0  0  0  0  0  0  0  0
    1.4570    6.6675    2.2538 C   0  0  0  0  0  0  0  0  0  0  0  0
    1.8785    7.5495    1.3161 N   0  0  0  0  0  0  0  0  0  0  0  0
   -0.0105    7.3451    2.9402 S   0  0  0  0  0  0  0  0  0  0  0  0
    1.1350    8.6777    1.1163 C   0  0  0  0  0  0  0  0  0  0  0  0
   -0.0061    8.7752    1.9311 C   0  0  0  0  0  0  0  0  0  0  0  0
    1.4986    9.6606    0.1669 C   0  0  0  0  0  0  0  0  0  0  0  0
    2.6745    9.5744   -0.5229 N   0  0  0  0  0  0  0  0  0  0  0  0
    0.7282   10.6315   -0.0340 O   0  0  0  0  0  0  0  0  0  0  0  0
    3.1125   10.5484   -1.4746 C   0  0  1  0  0  0  0  0  0  0  0  0
    4.5274   10.2524   -2.0349 C   0  0  1  0  0  0  0  0  0  0  0  0
    5.0292   11.4090   -2.9354 C   0  0  2  0  0  0  0  0  0  0  0  0
    6.3585   11.1118   -3.5212 N   0  0  2  0  0  0  0  0  0  0  0  0
    7.0306   12.2513   -4.2057 C   0  0  1  0  0  0  0  0  0  0  0  0
    8.4598   11.8245   -4.6250 C   0  0  0  0  0  0  0  0  0  0  0  0
    6.2429   12.7786   -5.3666 C   0  0  0  0  0  0  0  0  0  0  0  0
    5.8883   11.9398   -6.4521 C   0  0  0  0  0  0  0  0  0  0  0  0
    5.8093   14.1274   -5.3927 C   0  0  0  0  0  0  0  0  0  0  0  0
    5.1205   12.4319   -7.5245 C   0  0  0  0  0  0  0  0  0  0  0  0
    5.0413   14.6201   -6.4641 C   0  0  0  0  0  0  0  0  0  0  0  0
    4.6951   13.7716   -7.5296 C   0  0  0  0  0  0  0  0  0  0  0  0
    8.5712   -1.6698   -6.0700 H   0  0  0  0  0  0  0  0  0  0  0  0
    8.7945    0.5937   -4.7765 H   0  0  0  0  0  0  0  0  0  0  0  0
    9.5416   -2.0305   -3.8712 H   0  0  0  0  0  0  0  0  0  0  0  0
    5.4372   -2.0510   -6.6126 H   0  0  0  0  0  0  0  0  0  0  0  0
    8.6865   -0.4427   -8.2583 H   0  0  0  0  0  0  0  0  0  0  0  0
    5.6086    0.7230   -5.8542 H   0  0  0  0  0  0  0  0  0  0  0  0
    6.6068   -0.1337   -1.5015 H   0  0  0  0  0  0  0  0  0  0  0  0
    5.5516   -4.3271   -6.3276 H   0  0  0  0  0  0  0  0  0  0  0  0
    5.4013    1.9556   -8.0071 H   0  0  0  0  0  0  0  0  0  0  0  0
    7.8936   -2.5552   -2.5242 H   0  0  0  0  0  0  0  0  0  0  0  0
    3.2951   -3.8186   -6.5736 H   0  0  0  0  0  0  0  0  0  0  0  0
    2.8715   -0.9388   -4.0726 H   0  0  0  0  0  0  0  0  0  0  0  0
    7.5568   -1.6479    0.4019 H   0  0  0  0  0  0  0  0  0  0  0  0
    5.9657   -3.7249   -1.4910 H   0  0  0  0  0  0  0  0  0  0  0  0
    5.3341   -2.2029   -0.8475 H   0  0  0  0  0  0  0  0  0  0  0  0
    5.3731   -2.4883   -2.5877 H   0  0  0  0  0  0  0  0  0  0  0  0
    7.6673   -4.4389   -4.4319 H   0  0  0  0  0  0  0  0  0  0  0  0
    3.4580   -5.4603   -4.2911 H   0  0  0  0  0  0  0  0  0  0  0  0
    3.0540   -3.2492   -3.5821 H   0  0  0  0  0  0  0  0  0  0  0  0
    3.1440   -1.3916   -7.0809 H   0  0  0  0  0  0  0  0  0  0  0  0
    1.6500   -0.9764   -6.2310 H   0  0  0  0  0  0  0  0  0  0  0  0
   14.7759    0.3235   -2.6794 H   0  0  0  0  0  0  0  0  0  0  0  0
   13.5051    1.1029   -3.6125 H   0  0  0  0  0  0  0  0  0  0  0  0
   13.1507    0.3572   -2.0379 H   0  0  0  0  0  0  0  0  0  0  0  0
   10.0282   -2.0417   -1.3388 H   0  0  0  0  0  0  0  0  0  0  0  0
    8.5159   -4.0005   -0.7910 H   0  0  0  0  0  0  0  0  0  0  0  0
    6.9356   -6.0548   -6.2279 H   0  0  0  0  0  0  0  0  0  0  0  0
    1.0179   -2.5276   -4.1812 H   0  0  0  0  0  0  0  0  0  0  0  0
    2.6505    0.8100   -7.0758 H   0  0  0  0  0  0  0  0  0  0  0  0
   13.2552   -4.8665   -6.4306 H   0  0  0  0  0  0  0  0  0  0  0  0
   16.0273   -0.9576   -3.4438 H   0  0  0  0  0  0  0  0  0  0  0  0
   16.3240   -2.3836   -4.2629 H   0  0  0  0  0  0  0  0  0  0  0  0
   11.5210   -2.0817    0.6436 H   0  0  0  0  0  0  0  0  0  0  0  0
   10.4889   -3.4970    0.5724 H   0  0  0  0  0  0  0  0  0  0  0  0
   10.1011   -2.1877    1.7053 H   0  0  0  0  0  0  0  0  0  0  0  0
    8.5333   -7.5279   -5.7769 H   0  0  0  0  0  0  0  0  0  0  0  0
    5.1271   -7.2323   -4.9552 H   0  0  0  0  0  0  0  0  0  0  0  0
    5.3376   -6.4143   -2.2534 H   0  0  0  0  0  0  0  0  0  0  0  0
   11.0858   -5.3435   -4.5112 H   0  0  0  0  0  0  0  0  0  0  0  0
   10.3363   -3.9521   -6.3650 H   0  0  0  0  0  0  0  0  0  0  0  0
   11.5405   -3.2904   -7.4731 H   0  0  0  0  0  0  0  0  0  0  0  0
    8.1882    0.2825    0.7861 H   0  0  0  0  0  0  0  0  0  0  0  0
    7.3381   -8.4939   -3.2809 H   0  0  0  0  0  0  0  0  0  0  0  0
    6.3204   -8.0124   -0.5930 H   0  0  0  0  0  0  0  0  0  0  0  0
    7.9500   -7.4894   -1.0594 H   0  0  0  0  0  0  0  0  0  0  0  0
   13.8540   -6.2935   -4.5026 H   0  0  0  0  0  0  0  0  0  0  0  0
   12.8564   -5.6379   -3.1855 H   0  0  0  0  0  0  0  0  0  0  0  0
   10.3539    1.9439    1.2436 H   0  0  0  0  0  0  0  0  0  0  0  0
    4.5140   -8.4452   -3.1126 H   0  0  0  0  0  0  0  0  0  0  0  0
    7.2107   -6.4827    0.7789 H   0  0  0  0  0  0  0  0  0  0  0  0
   12.4693   -8.3132   -4.6477 H   0  0  0  0  0  0  0  0  0  0  0  0
   11.6709   -6.3555   -9.4196 H   0  0  0  0  0  0  0  0  0  0  0  0
   12.7555   -5.2233   -8.8173 H   0  0  0  0  0  0  0  0  0  0  0  0
   10.1324    2.4161   -1.2461 H   0  0  0  0  0  0  0  0  0  0  0  0
    6.9458  -10.5661   -7.2684 H   0  0  0  0  0  0  0  0  0  0  0  0
    6.2358   -9.9307   -8.6515 H   0  0  0  0  0  0  0  0  0  0  0  0
   10.4266   -7.4789   -4.0819 H   0  0  0  0  0  0  0  0  0  0  0  0
   10.7879   -8.7426   -3.1028 H   0  0  0  0  0  0  0  0  0  0  0  0
    6.8039    2.0888    0.7016 H   0  0  0  0  0  0  0  0  0  0  0  0
    8.4464    3.7965   -2.1706 H   0  0  0  0  0  0  0  0  0  0  0  0
    7.5467    2.5329   -1.3150 H   0  0  0  0  0  0  0  0  0  0  0  0
    7.7227    4.1429   -0.5959 H   0  0  0  0  0  0  0  0  0  0  0  0
   10.5812    4.4840   -0.9331 H   0  0  0  0  0  0  0  0  0  0  0  0
   13.8342   -8.1994   -0.7578 H   0  0  0  0  0  0  0  0  0  0  0  0
   12.6845   -7.0646   -1.2012 H   0  0  0  0  0  0  0  0  0  0  0  0
    6.3433    4.2194    2.4365 H   0  0  0  0  0  0  0  0  0  0  0  0
    6.0275    2.6825    3.2840 H   0  0  0  0  0  0  0  0  0  0  0  0
    4.4426    2.0070    1.4698 H   0  0  0  0  0  0  0  0  0  0  0  0
    4.8457    3.4645    0.5544 H   0  0  0  0  0  0  0  0  0  0  0  0
    0.9433    4.8309    4.3535 H   0  0  0  0  0  0  0  0  0  0  0  0
   -0.7014    9.5235    1.9470 H   0  0  0  0  0  0  0  0  0  0  0  0
    3.2493    8.8108   -0.3544 H   0  0  0  0  0  0  0  0  0  0  0  0
    2.4002   10.5782   -2.3041 H   0  0  0  0  0  0  0  0  0  0  0  0
    3.1221   11.5290   -0.9897 H   0  0  0  0  0  0  0  0  0  0  0  0
    5.2270   10.1193   -1.2050 H   0  0  0  0  0  0  0  0  0  0  0  0
    4.5007    9.3247   -2.6131 H   0  0  0  0  0  0  0  0  0  0  0  0
    5.0893   12.3206   -2.3340 H   0  0  0  0  0  0  0  0  0  0  0  0
    4.3107   11.5704   -3.7429 H   0  0  0  0  0  0  0  0  0  0  0  0
    6.2323   10.3647   -4.2077 H   0  0  0  0  0  0  0  0  0  0  0  0
    7.1674   13.0395   -3.4574 H   0  0  0  0  0  0  0  0  0  0  0  0
    8.9746   12.6520   -5.1191 H   0  0  0  0  0  0  0  0  0  0  0  0
    8.4326   10.9711   -5.3052 H   0  0  0  0  0  0  0  0  0  0  0  0
    9.0381   11.5421   -3.7425 H   0  0  0  0  0  0  0  0  0  0  0  0
    6.1813   10.9602   -6.4669 H   0  0  0  0  0  0  0  0  0  0  0  0
    6.0448   14.7639   -4.6274 H   0  0  0  0  0  0  0  0  0  0  0  0
    4.8693   11.8143   -8.2997 H   0  0  0  0  0  0  0  0  0  0  0  0
    4.7330   15.5951   -6.4667 H   0  0  0  0  0  0  0  0  0  0  0  0
    4.1338   14.1284   -8.3063 H   0  0  0  0  0  0  0  0  0  0  0  0
  1  2  1  0  0  0  0 
  1  3  1  0  0  0  0 
  1  4  1  0  0  0  0 
  2  5  1  0  0  0  0 
  2  6  1  0  0  0  0 
  4  8  2  0  0  0  0 
  4  9  1  0  0  0  0 
  5 10  1  0  0  0  0 
  6 11  1  0  0  0  0 
  6 12  2  0  0  0  0 
  7  3  1  0  0  0  0 
 13  7  1  0  0  0  0 
  7 14  1  0  0  0  0 
  8 15  1  0  0  0  0 
  9 16  1  0  0  0  0 
 10 17  2  0  0  0  0 
 10 18  1  0  0  0  0 
 19 11  1  0  0  0  0 
 13 20  1  0  0  0  0 
 13 21  1  0  0  0  0 
 22 14  1  0  0  0  0 
 15 16  2  0  0  0  0 
 18 23  2  0  0  0  0 
 18 24  1  0  0  0  0 
 25 19  1  0  0  0  0 
 19 26  1  0  0  0  0 
 27 20  1  0  0  0  0 
 21 28  1  0  0  0  0 
 21 29  1  0  0  0  0 
 29 22  1  0  0  0  0 
 22 30  1  0  0  0  0 
 23 31  1  0  0  0  0 
 24 32  1  0  0  0  0 
 24 33  2  0  0  0  0 
 25 34  1  0  0  0  0 
 25 35  1  0  0  0  0 
 36 27  1  0  0  0  0 
 27 37  1  0  0  0  0 
 29 38  1  0  0  0  0 
 30 39  1  0  0  0  0 
 31 41  2  0  0  0  0 
 33 41  1  0  0  0  0 
 33 42  1  0  0  0  0 
 34 43  1  0  0  0  0 
 34 44  1  0  0  0  0 
 36 45  1  0  0  0  0 
 36 46  1  0  0  0  0 
 47 37  1  0  0  0  0 
 40 31  1  0  0  0  0 
 40 48  1  0  0  0  0 
 40 49  1  0  0  0  0 
 43 50  1  0  0  0  0 
 43 51  2  0  0  0  0 
 46 52  1  0  0  0  0 
 46 53  1  0  0  0  0 
 53 47  1  0  0  0  0 
 47 54  1  0  0  0  0 
 48 55  1  0  0  0  0 
 49 56  1  0  0  0  0 
 57 50  1  0  0  0  0 
 52 58  1  0  0  0  0 
 53 59  1  0  0  0  0 
 54 60  1  0  0  0  0 
 61 55  1  0  0  0  0 
 56 62  1  0  0  0  0 
 56 63  2  0  0  0  0 
 57 64  1  0  0  0  0 
 57 65  1  0  0  0  0 
 58 66  1  0  0  0  0 
 58 67  2  0  0  0  0 
 61 68  1  0  0  0  0 
 61 69  1  0  0  0  0 
 64 70  1  0  0  0  0 
 64 71  2  0  0  0  0 
 65 72  1  0  0  0  0 
 65 73  1  0  0  0  0 
 68 74  1  0  0  0  0 
 68 75  2  0  0  0  0 
 70 76  1  0  0  0  0 
 76 77  1  0  0  0  0 
 77 78  1  0  0  0  0 
 78 79  2  0  0  0  0 
 78 80  1  0  0  0  0 
 79 81  1  0  0  0  0 
 80 82  1  0  0  0  0 
 81 82  2  0  0  0  0 
 81 83  1  0  0  0  0 
 83 84  2  0  0  0  0 
 83 85  1  0  0  0  0 
 84 86  1  0  0  0  0 
 85 87  1  0  0  0  0 
 86 87  2  0  0  0  0 
 86 88  1  0  0  0  0 
 88 89  1  0  0  0  0 
 88 90  2  0  0  0  0 
 89 91  1  0  0  0  0 
 91 92  1  0  0  0  0 
 92 93  1  0  0  0  0 
 93 94  1  0  0  0  0 
 95 94  1  0  0  0  0 
 95 96  1  0  0  0  0 
 95 97  1  0  0  0  0 
 97 98  2  0  0  0  0 
 97 99  1  0  0  0  0 
 98100  1  0  0  0  0 
 99101  2  0  0  0  0 
100102  2  0  0  0  0 
101102  1  0  0  0  0 
  1103  1  0  0  0  0 
  2104  1  0  0  0  0 
105  5  1  0  0  0  0 
  7106  1  0  0  0  0 
107  8  1  0  0  0  0 
108  9  1  0  0  0  0 
109 11  1  0  0  0  0 
 13110  1  0  0  0  0 
111 16  1  0  0  0  0 
 19112  1  0  0  0  0 
 21113  1  0  0  0  0 
 22114  1  0  0  0  0 
 25115  1  0  0  0  0 
116 26  1  0  0  0  0 
117 26  1  0  0  0  0 
118 26  1  0  0  0  0 
 27119  1  0  0  0  0 
120 28  1  0  0  0  0 
 29121  1  0  0  0  0 
122 30  1  0  0  0  0 
123 30  1  0  0  0  0 
124 32  1  0  0  0  0 
125 32  1  0  0  0  0 
126 32  1  0  0  0  0 
 34127  1  0  0  0  0 
128 35  1  0  0  0  0 
 36129  1  0  0  0  0 
130 38  1  0  0  0  0 
131 39  1  0  0  0  0 
 40132  1  0  0  0  0 
133 42  1  0  0  0  0 
134 42  1  0  0  0  0 
135 44  1  0  0  0  0 
136 44  1  0  0  0  0 
137 44  1  0  0  0  0 
138 45  1  0  0  0  0 
 46139  1  0  0  0  0 
 47140  1  0  0  0  0 
141 48  1  0  0  0  0 
142 49  1  0  0  0  0 
143 49  1  0  0  0  0 
144 50  1  0  0  0  0 
 53145  1  0  0  0  0 
146 54  1  0  0  0  0 
147 54  1  0  0  0  0 
148 55  1  0  0  0  0 
149 55  1  0  0  0  0 
 57150  1  0  0  0  0 
151 59  1  0  0  0  0 
152 60  1  0  0  0  0 
 61153  1  0  0  0  0 
154 62  1  0  0  0  0 
155 62  1  0  0  0  0 
 65156  1  0  0  0  0 
157 66  1  0  0  0  0 
158 66  1  0  0  0  0 
159 69  1  0  0  0  0 
160 69  1  0  0  0  0 
161 70  1  0  0  0  0 
162 72  1  0  0  0  0 
163 72  1  0  0  0  0 
164 72  1  0  0  0  0 
165 73  1  0  0  0  0 
166 74  1  0  0  0  0 
167 74  1  0  0  0  0 
168 76  1  0  0  0  0 
169 76  1  0  0  0  0 
170 77  1  0  0  0  0 
171 77  1  0  0  0  0 
172 82  1  0  0  0  0 
173 87  1  0  0  0  0 
174 89  1  0  0  0  0 
175 91  1  0  0  0  0 
176 91  1  0  0  0  0 
177 92  1  0  0  0  0 
178 92  1  0  0  0  0 
179 93  1  0  0  0  0 
180 93  1  0  0  0  0 
181 94  1  0  0  0  0 
 95182  1  0  0  0  0 
183 96  1  0  0  0  0 
184 96  1  0  0  0  0 
185 96  1  0  0  0  0 
186 98  1  0  0  0  0 
187 99  1  0  0  0  0 
188100  1  0  0  0  0 
189101  1  0  0  0  0 
190102  1  0  0  0  0 
M  END
> <cdk:Title>
peplomycin

> <Conformer>
1

> <SuperDrugID>
SD002601

$$$$
