methylthiouracil
  CDK     0628171801

 15 15  0  0  0  0  0  0  0  0999 V2000
    1.4123   -0.4491    0.2082 C   0  0  0  0  0  0  0  0  0  0  0  0
    0.0032   -0.0574    0.0174 C   0  0  0  0  0  0  0  0  0  0  0  0
   -1.0489   -0.9049    0.4264 C   0  0  0  0  0  0  0  0  0  0  0  0
   -2.3706   -0.4720    0.2158 C   0  0  0  0  0  0  0  0  0  0  0  0
   -3.3390   -1.1863    0.5604 O   0  0  0  0  0  0  0  0  0  0  0  0
   -2.6021    0.7322   -0.3670 N   0  0  0  0  0  0  0  0  0  0  0  0
   -1.5774    1.5341   -0.7540 C   0  0  0  0  0  0  0  0  0  0  0  0
   -1.9026    3.0639   -1.4943 S   0  0  0  0  0  0  0  0  0  0  0  0
   -0.2936    1.1381   -0.5612 N   0  0  0  0  0  0  0  0  0  0  0  0
    1.6115   -1.3772   -0.3321 H   0  0  0  0  0  0  0  0  0  0  0  0
    2.0913    0.3224   -0.1643 H   0  0  0  0  0  0  0  0  0  0  0  0
    1.6100   -0.6014    1.2716 H   0  0  0  0  0  0  0  0  0  0  0  0
   -0.8587   -1.8102    0.8645 H   0  0  0  0  0  0  0  0  0  0  0  0
   -3.5167    1.0257   -0.5098 H   0  0  0  0  0  0  0  0  0  0  0  0
    0.4302    1.7225   -0.8432 H   0  0  0  0  0  0  0  0  0  0  0  0
  1  2  1  0  0  0  0 
  2  3  2  0  0  0  0 
  3  4  1  0  0  0  0 
  4  5  2  0  0  0  0 
  4  6  1  0  0  0  0 
  6  7  1  0  0  0  0 
  7  8  2  0  0  0  0 
  7  9  1  0  0  0  0 
  2  9  1  0  0  0  0 
 10  1  1  0  0  0  0 
 11  1  1  0  0  0  0 
 12  1  1  0  0  0  0 
 13  3  1  0  0  0  0 
 14  6  1  0  0  0  0 
 15  9  1  0  0  0  0 
M  END
> <cdk:Title>
methylthiouracil

> <Conformer>
1

> <SuperDrugID>
SD001573

$$$$
