(S)-nicardipine
  CDK     0628171802

 64 66  0  0  0  0  0  0  0  0999 V2000
   -0.5501    1.7013   -4.7634 C   0  0  0  0  0  0  0  0  0  0  0  0
   -0.0772    0.6661   -4.0013 O   0  0  0  0  0  0  0  0  0  0  0  0
   -1.7008    1.5646   -5.2470 O   0  0  0  0  0  0  0  0  0  0  0  0
    0.1679    2.8962   -4.9864 C   0  0  0  0  0  0  0  0  0  0  0  0
   -0.7643   -0.5595   -3.7012 C   0  0  1  0  0  0  0  0  0  0  0  0
   -0.5815    4.0818   -5.4889 C   0  0  2  0  0  0  0  0  0  0  0  0
    1.4959    3.0473   -4.7493 C   0  0  0  0  0  0  0  0  0  0  0  0
    0.1010   -1.4420   -2.7703 C   0  0  1  0  0  0  0  0  0  0  0  0
    0.2167    5.2664   -5.9042 C   0  0  0  0  0  0  0  0  0  0  0  0
   -1.5699    4.5317   -4.4454 C   0  0  0  0  0  0  0  0  0  0  0  0
    2.3983    1.9747   -4.2119 C   0  0  0  0  0  0  0  0  0  0  0  0
    2.0962    4.2196   -5.0002 N   0  0  0  0  0  0  0  0  0  0  0  0
   -0.3973   -2.8554   -2.6589 N   0  0  2  0  0  0  0  0  0  0  0  0
   -0.4416    6.3099   -6.5856 C   0  0  0  0  0  0  0  0  0  0  0  0
    1.5409    5.2811   -5.6016 C   0  0  0  0  0  0  0  0  0  0  0  0
   -2.9517    4.6321   -4.7392 C   0  0  0  0  0  0  0  0  0  0  0  0
   -1.1348    4.8816   -3.1454 C   0  0  0  0  0  0  0  0  0  0  0  0
   -1.6361   -2.9935   -1.8217 C   0  0  2  0  0  0  0  0  0  0  0  0
    0.6865   -3.8024   -2.2474 C   0  0  0  0  0  0  0  0  0  0  0  0
   -0.0230    7.6096   -6.5233 O   0  0  0  0  0  0  0  0  0  0  0  0
   -1.4656    6.0656   -7.2686 O   0  0  0  0  0  0  0  0  0  0  0  0
    2.4603    6.3760   -5.8891 C   0  0  0  0  0  0  0  0  0  0  0  0
   -3.9011    5.0680   -3.7787 C   0  0  0  0  0  0  0  0  0  0  0  0
   -2.0544    5.2777   -2.1643 C   0  0  0  0  0  0  0  0  0  0  0  0
   -2.3158   -4.3100   -1.9749 C   0  0  0  0  0  0  0  0  0  0  0  0
   -0.5954    8.7311   -7.2049 C   0  0  0  0  0  0  0  0  0  0  0  0
   -5.2030    5.2017   -4.0982 N   0  0  0  0  0  0  0  0  0  0  0  0
   -3.4215    5.3659   -2.4768 C   0  0  0  0  0  0  0  0  0  0  0  0
   -2.8595   -4.6946   -3.2234 C   0  0  0  0  0  0  0  0  0  0  0  0
   -2.4382   -5.2033   -0.8837 C   0  0  0  0  0  0  0  0  0  0  0  0
   -6.0304    5.4454   -3.3094 O   0  0  0  0  0  0  0  0  0  0  0  0
   -5.6319    5.0880   -5.2912 O   0  0  0  0  0  0  0  0  0  0  0  0
   -3.4957   -5.9411   -3.3787 C   0  0  0  0  0  0  0  0  0  0  0  0
   -3.0731   -6.4490   -1.0376 C   0  0  0  0  0  0  0  0  0  0  0  0
   -3.6066   -6.8158   -2.2840 C   0  0  0  0  0  0  0  0  0  0  0  0
   -1.7076   -0.3112   -3.2114 H   0  0  0  0  0  0  0  0  0  0  0  0
   -0.9754   -1.0921   -4.6333 H   0  0  0  0  0  0  0  0  0  0  0  0
   -1.0970    3.7356   -6.3955 H   0  0  0  0  0  0  0  0  0  0  0  0
    1.1113   -1.4349   -3.1906 H   0  0  0  0  0  0  0  0  0  0  0  0
    0.1553   -0.9724   -1.7822 H   0  0  0  0  0  0  0  0  0  0  0  0
    2.4453    0.9682   -4.7293 H   0  0  0  0  0  0  0  0  0  0  0  0
    3.4316    2.3270   -4.1756 H   0  0  0  0  0  0  0  0  0  0  0  0
    2.1098    1.7924   -3.1756 H   0  0  0  0  0  0  0  0  0  0  0  0
    3.0279    4.2999   -4.7374 H   0  0  0  0  0  0  0  0  0  0  0  0
   -3.2690    4.3857   -5.6794 H   0  0  0  0  0  0  0  0  0  0  0  0
   -0.1407    4.8470   -2.9035 H   0  0  0  0  0  0  0  0  0  0  0  0
   -2.3744   -2.2406   -2.1038 H   0  0  0  0  0  0  0  0  0  0  0  0
   -1.3859   -2.8033   -0.7732 H   0  0  0  0  0  0  0  0  0  0  0  0
    1.5238   -3.7496   -2.9457 H   0  0  0  0  0  0  0  0  0  0  0  0
    0.3389   -4.8371   -2.2566 H   0  0  0  0  0  0  0  0  0  0  0  0
    1.0548   -3.5699   -1.2453 H   0  0  0  0  0  0  0  0  0  0  0  0
    3.5004    6.1145   -5.6774 H   0  0  0  0  0  0  0  0  0  0  0  0
    2.4046    6.6534   -6.9429 H   0  0  0  0  0  0  0  0  0  0  0  0
    2.2087    7.2385   -5.2702 H   0  0  0  0  0  0  0  0  0  0  0  0
   -1.7274    5.5118   -1.2242 H   0  0  0  0  0  0  0  0  0  0  0  0
   -0.5380    8.5884   -8.2857 H   0  0  0  0  0  0  0  0  0  0  0  0
   -0.0404    9.6315   -6.9394 H   0  0  0  0  0  0  0  0  0  0  0  0
   -1.6385    8.8565   -6.9107 H   0  0  0  0  0  0  0  0  0  0  0  0
   -4.0655    5.6644   -1.7399 H   0  0  0  0  0  0  0  0  0  0  0  0
   -2.7961   -4.0674   -4.0286 H   0  0  0  0  0  0  0  0  0  0  0  0
   -2.0687   -4.9531    0.0348 H   0  0  0  0  0  0  0  0  0  0  0  0
   -3.8790   -6.2124   -4.2871 H   0  0  0  0  0  0  0  0  0  0  0  0
   -3.1545   -7.0860   -0.2429 H   0  0  0  0  0  0  0  0  0  0  0  0
   -4.0796   -7.7141   -2.3931 H   0  0  0  0  0  0  0  0  0  0  0  0
  1  2  1  0  0  0  0 
  1  3  2  0  0  0  0 
  1  4  1  0  0  0  0 
  2  5  1  0  0  0  0 
  6  4  1  0  0  0  0 
  4  7  2  0  0  0  0 
  5  8  1  0  0  0  0 
  6  9  1  0  0  0  0 
  6 10  1  0  0  0  0 
  7 11  1  0  0  0  0 
  7 12  1  0  0  0  0 
  8 13  1  0  0  0  0 
  9 14  1  0  0  0  0 
  9 15  2  0  0  0  0 
 10 16  2  0  0  0  0 
 10 17  1  0  0  0  0 
 12 15  1  0  0  0  0 
 13 18  1  0  0  0  0 
 13 19  1  0  0  0  0 
 14 20  1  0  0  0  0 
 14 21  2  0  0  0  0 
 15 22  1  0  0  0  0 
 16 23  1  0  0  0  0 
 17 24  2  0  0  0  0 
 18 25  1  0  0  0  0 
 20 26  1  0  0  0  0 
 23 27  1  0  0  0  0 
 23 28  2  0  0  0  0 
 24 28  1  0  0  0  0 
 25 29  2  0  0  0  0 
 25 30  1  0  0  0  0 
 27 31  2  0  0  0  0 
 27 32  1  0  0  0  0 
 29 33  1  0  0  0  0 
 30 34  2  0  0  0  0 
 33 35  2  0  0  0  0 
 34 35  1  0  0  0  0 
 36  5  1  0  0  0  0 
 37  5  1  0  0  0  0 
  6 38  1  0  0  0  0 
 39  8  1  0  0  0  0 
 40  8  1  0  0  0  0 
 41 11  1  0  0  0  0 
 42 11  1  0  0  0  0 
 43 11  1  0  0  0  0 
 44 12  1  0  0  0  0 
 45 16  1  0  0  0  0 
 46 17  1  0  0  0  0 
 47 18  1  0  0  0  0 
 48 18  1  0  0  0  0 
 49 19  1  0  0  0  0 
 50 19  1  0  0  0  0 
 51 19  1  0  0  0  0 
 52 22  1  0  0  0  0 
 53 22  1  0  0  0  0 
 54 22  1  0  0  0  0 
 55 24  1  0  0  0  0 
 56 26  1  0  0  0  0 
 57 26  1  0  0  0  0 
 58 26  1  0  0  0  0 
 59 28  1  0  0  0  0 
 60 29  1  0  0  0  0 
 61 30  1  0  0  0  0 
 62 33  1  0  0  0  0 
 63 34  1  0  0  0  0 
 64 35  1  0  0  0  0 
M  CHG  1  27   1
M  CHG  1  32  -1
M  END
> <cdk:Title>
(S)-nicardipine

> <Conformer>
1

> <SuperDrugID>
SD000002

$$$$
