fepradinol
  CDK     0628171801

 34 34  0  0  0  0  0  0  0  0999 V2000
   -0.4185   -0.9578    0.0516 C   0  0  1  0  0  0  0  0  0  0  0  0
   -0.2097   -0.7527    1.5768 C   0  0  2  0  0  0  0  0  0  0  0  0
    0.8243   -0.7652   -0.6262 O   0  0  0  0  0  0  0  0  0  0  0  0
   -0.9940   -2.2968   -0.2736 C   0  0  0  0  0  0  0  0  0  0  0  0
   -1.4986   -0.8467    2.3083 N   0  0  1  0  0  0  0  0  0  0  0  0
   -0.1698   -3.4418   -0.3919 C   0  0  0  0  0  0  0  0  0  0  0  0
   -2.3916   -2.4532   -0.4503 C   0  0  0  0  0  0  0  0  0  0  0  0
   -1.5212   -0.7394    3.8015 C   0  0  1  0  0  0  0  0  0  0  0  0
   -0.7240   -4.7045   -0.6794 C   0  0  0  0  0  0  0  0  0  0  0  0
   -2.9484   -3.7157   -0.7265 C   0  0  0  0  0  0  0  0  0  0  0  0
   -0.7219   -1.9019    4.4754 C   0  0  1  0  0  0  0  0  0  0  0  0
   -0.9734    0.6388    4.2890 C   0  0  0  0  0  0  0  0  0  0  0  0
   -3.0282   -0.8542    4.1884 C   0  0  0  0  0  0  0  0  0  0  0  0
   -2.1142   -4.8430   -0.8308 C   0  0  0  0  0  0  0  0  0  0  0  0
   -1.1048   -3.1766    3.9644 O   0  0  0  0  0  0  0  0  0  0  0  0
   -1.0849   -0.1714   -0.3142 H   0  0  0  0  0  0  0  0  0  0  0  0
    0.2221    0.2391    1.7370 H   0  0  0  0  0  0  0  0  0  0  0  0
    0.4991   -1.4994    1.9412 H   0  0  0  0  0  0  0  0  0  0  0  0
    1.1268    0.1297   -0.3657 H   0  0  0  0  0  0  0  0  0  0  0  0
   -2.0996   -0.1031    1.9430 H   0  0  0  0  0  0  0  0  0  0  0  0
    0.8429   -3.3659   -0.2679 H   0  0  0  0  0  0  0  0  0  0  0  0
   -3.0164   -1.6478   -0.3678 H   0  0  0  0  0  0  0  0  0  0  0  0
   -0.1159   -5.5216   -0.7774 H   0  0  0  0  0  0  0  0  0  0  0  0
   -3.9590   -3.8163   -0.8504 H   0  0  0  0  0  0  0  0  0  0  0  0
    0.3502   -1.7789    4.3035 H   0  0  0  0  0  0  0  0  0  0  0  0
   -0.8864   -1.9013    5.5575 H   0  0  0  0  0  0  0  0  0  0  0  0
   -1.1281    0.7604    5.3647 H   0  0  0  0  0  0  0  0  0  0  0  0
    0.0982    0.7228    4.0961 H   0  0  0  0  0  0  0  0  0  0  0  0
   -1.4790    1.4572    3.7719 H   0  0  0  0  0  0  0  0  0  0  0  0
   -3.4437   -1.8045    3.8456 H   0  0  0  0  0  0  0  0  0  0  0  0
   -3.1635   -0.7942    5.2710 H   0  0  0  0  0  0  0  0  0  0  0  0
   -3.6064   -0.0494    3.7285 H   0  0  0  0  0  0  0  0  0  0  0  0
   -2.5197   -5.7631   -1.0165 H   0  0  0  0  0  0  0  0  0  0  0  0
   -0.5685   -3.8211    4.4723 H   0  0  0  0  0  0  0  0  0  0  0  0
  1  2  1  0  0  0  0 
  1  3  1  0  0  0  0 
  1  4  1  0  0  0  0 
  2  5  1  0  0  0  0 
  4  6  2  0  0  0  0 
  4  7  1  0  0  0  0 
  5  8  1  0  0  0  0 
  6  9  1  0  0  0  0 
  7 10  2  0  0  0  0 
  8 11  1  0  0  0  0 
  8 12  1  0  0  0  0 
  8 13  1  0  0  0  0 
  9 14  2  0  0  0  0 
 10 14  1  0  0  0  0 
 11 15  1  0  0  0  0 
  1 16  1  0  0  0  0 
  2 17  1  0  0  0  0 
  2 18  1  0  0  0  0 
  3 19  1  0  0  0  0 
  5 20  1  0  0  0  0 
  6 21  1  0  0  0  0 
  7 22  1  0  0  0  0 
  9 23  1  0  0  0  0 
 10 24  1  0  0  0  0 
 11 25  1  0  0  0  0 
 11 26  1  0  0  0  0 
 12 27  1  0  0  0  0 
 12 28  1  0  0  0  0 
 12 29  1  0  0  0  0 
 13 30  1  0  0  0  0 
 13 31  1  0  0  0  0 
 13 32  1  0  0  0  0 
 14 33  1  0  0  0  0 
 15 34  1  0  0  0  0 
M  END
> <cdk:Title>
fepradinol

> <Conformer>
1

> <SuperDrugID>
SD001045

$$$$
