beraprost
  CDK     0628171801

 59 61  0  0  0  0  0  0  0  0999 V2000
   -8.6243    4.9466    5.4102 C   0  0  0  0  0  0  0  0  0  0  0  0
   -7.3838    4.4075    5.0020 C   0  0  0  0  0  0  0  0  0  0  0  0
   -7.0090    4.4044    3.6590 C   0  0  0  0  0  0  0  0  0  0  0  0
   -7.8602    4.9234    2.6660 C   0  0  0  0  0  0  0  0  0  0  0  0
   -9.1037    5.4607    3.0531 C   0  0  0  0  0  0  0  0  0  0  0  0
   -9.4769    5.4816    4.4127 C   0  0  0  0  0  0  0  0  0  0  0  0
   -6.4524    3.8519    5.8235 O   0  0  0  0  0  0  0  0  0  0  0  0
   -5.4570    3.2921    4.9439 C   0  0  2  0  0  0  0  0  0  0  0  0
   -5.6835    3.8048    3.5045 C   0  0  1  0  0  0  0  0  0  0  0  0
   -9.0365    4.9187    6.8391 C   0  0  1  0  0  0  0  0  0  0  0  0
   -9.5968    3.5273    7.2341 C   0  0  2  0  0  0  0  0  0  0  0  0
  -10.0509    3.4640    8.7143 C   0  0  2  0  0  0  0  0  0  0  0  0
  -10.5195    2.1159    9.0822 C   0  0  0  0  0  0  0  0  0  0  0  0
   -9.6533    1.0754    9.1182 O   0  0  0  0  0  0  0  0  0  0  0  0
  -11.7215    1.9013    9.3608 O   0  0  0  0  0  0  0  0  0  0  0  0
   -5.5460    1.7536    4.8589 C   0  0  2  0  0  0  0  0  0  0  0  0
   -5.0293    1.4230    3.4470 C   0  0  2  0  0  0  0  0  0  0  0  0
   -5.5909    2.5638    2.5593 C   0  0  2  0  0  0  0  0  0  0  0  0
   -5.4671    0.1386    3.0068 O   0  0  0  0  0  0  0  0  0  0  0  0
   -4.4605    3.5786    5.2947 H   0  0  0  0  0  0  0  0  0  0  0  0
   -4.9594    4.5890    3.2616 H   0  0  0  0  0  0  0  0  0  0  0  0
   -4.7704    2.7747    1.3690 C   0  0  0  0  0  0  0  0  0  0  0  0
   -4.8776    2.0148    0.2660 C   0  0  0  0  0  0  0  0  0  0  0  0
   -4.0256    2.1773   -0.9046 C   0  0  1  0  0  0  0  0  0  0  0  0
   -4.1625    3.5296   -1.3476 O   0  0  0  0  0  0  0  0  0  0  0  0
   -2.5264    1.7753   -0.6633 C   0  0  1  0  0  0  0  0  0  0  0  0
   -2.3953    0.2756   -0.2207 C   0  0  2  0  0  0  0  0  0  0  0  0
   -1.6678    2.0851   -1.9301 C   0  0  0  0  0  0  0  0  0  0  0  0
   -1.1138   -0.1227    0.0638 C   0  0  0  0  0  0  0  0  0  0  0  0
    0.0108   -0.4619    0.2861 C   0  0  0  0  0  0  0  0  0  0  0  0
    1.3008   -0.8390    0.5189 C   0  0  0  0  0  0  0  0  0  0  0  0
   -7.5890    4.9036    1.6803 H   0  0  0  0  0  0  0  0  0  0  0  0
   -9.7409    5.8305    2.3456 H   0  0  0  0  0  0  0  0  0  0  0  0
  -10.3827    5.8806    4.6701 H   0  0  0  0  0  0  0  0  0  0  0  0
   -8.1789    5.1637    7.4724 H   0  0  0  0  0  0  0  0  0  0  0  0
   -9.8006    5.6781    7.0294 H   0  0  0  0  0  0  0  0  0  0  0  0
   -8.8212    2.7734    7.0646 H   0  0  0  0  0  0  0  0  0  0  0  0
  -10.4503    3.2912    6.5883 H   0  0  0  0  0  0  0  0  0  0  0  0
  -10.8558    4.1895    8.8754 H   0  0  0  0  0  0  0  0  0  0  0  0
   -9.2133    3.7257    9.3671 H   0  0  0  0  0  0  0  0  0  0  0  0
   -9.9707    0.1835    9.3733 H   0  0  0  0  0  0  0  0  0  0  0  0
   -6.5841    1.4235    4.9650 H   0  0  0  0  0  0  0  0  0  0  0  0
   -4.9404    1.2706    5.6299 H   0  0  0  0  0  0  0  0  0  0  0  0
   -3.9320    1.4302    3.4571 H   0  0  0  0  0  0  0  0  0  0  0  0
   -6.6056    2.2856    2.2448 H   0  0  0  0  0  0  0  0  0  0  0  0
   -5.0898   -0.4983    3.6504 H   0  0  0  0  0  0  0  0  0  0  0  0
   -4.0845    3.4952    1.3835 H   0  0  0  0  0  0  0  0  0  0  0  0
   -5.5568    1.2886    0.2480 H   0  0  0  0  0  0  0  0  0  0  0  0
   -4.4266    1.5514   -1.7069 H   0  0  0  0  0  0  0  0  0  0  0  0
   -3.7188    3.5655   -2.2198 H   0  0  0  0  0  0  0  0  0  0  0  0
   -2.1323    2.4014    0.1454 H   0  0  0  0  0  0  0  0  0  0  0  0
   -2.7867   -0.3752   -1.0059 H   0  0  0  0  0  0  0  0  0  0  0  0
   -2.9834    0.0975    0.6821 H   0  0  0  0  0  0  0  0  0  0  0  0
   -1.7089    3.1481   -2.1733 H   0  0  0  0  0  0  0  0  0  0  0  0
   -0.6195    1.8363   -1.7617 H   0  0  0  0  0  0  0  0  0  0  0  0
   -2.0308    1.5115   -2.7854 H   0  0  0  0  0  0  0  0  0  0  0  0
    1.6768   -1.3990   -0.3378 H   0  0  0  0  0  0  0  0  0  0  0  0
    1.9137    0.0503    0.6650 H   0  0  0  0  0  0  0  0  0  0  0  0
    1.3538   -1.4659    1.4094 H   0  0  0  0  0  0  0  0  0  0  0  0
  1  2  2  0  0  0  0 
  1  6  1  0  0  0  0 
  2  3  1  0  0  0  0 
  3  4  2  0  0  0  0 
  4  5  1  0  0  0  0 
  5  6  2  0  0  0  0 
  9  3  1  0  0  0  0 
  7  8  1  0  0  0  0 
  8  9  1  0  0  0  0 
  2  7  1  0  0  0  0 
  1 10  1  0  0  0  0 
 10 11  1  0  0  0  0 
 11 12  1  0  0  0  0 
 12 13  1  0  0  0  0 
 13 14  1  0  0  0  0 
 13 15  2  0  0  0  0 
  8 16  1  0  0  0  0 
 16 17  1  0  0  0  0 
 17 18  1  0  0  0  0 
  9 18  1  0  0  0  0 
 17 19  1  0  0  0  0 
  8 20  1  0  0  0  0 
  9 21  1  0  0  0  0 
 18 22  1  0  0  0  0 
 22 23  2  0  0  0  0 
 24 23  1  0  0  0  0 
 24 25  1  0  0  0  0 
 26 24  1  0  0  0  0 
 26 27  1  0  0  0  0 
 26 28  1  0  0  0  0 
 27 29  1  0  0  0  0 
 29 30  3  0  0  0  0 
 30 31  1  0  0  0  0 
  4 32  1  0  0  0  0 
  5 33  1  0  0  0  0 
  6 34  1  0  0  0  0 
 10 35  1  0  0  0  0 
 10 36  1  0  0  0  0 
 11 37  1  0  0  0  0 
 11 38  1  0  0  0  0 
 12 39  1  0  0  0  0 
 12 40  1  0  0  0  0 
 14 41  1  0  0  0  0 
 16 42  1  0  0  0  0 
 16 43  1  0  0  0  0 
 17 44  1  0  0  0  0 
 18 45  1  0  0  0  0 
 19 46  1  0  0  0  0 
 22 47  1  0  0  0  0 
 23 48  1  0  0  0  0 
 24 49  1  0  0  0  0 
 25 50  1  0  0  0  0 
 26 51  1  0  0  0  0 
 27 52  1  0  0  0  0 
 27 53  1  0  0  0  0 
 28 54  1  0  0  0  0 
 28 55  1  0  0  0  0 
 28 56  1  0  0  0  0 
 31 57  1  0  0  0  0 
 31 58  1  0  0  0  0 
 31 59  1  0  0  0  0 
M  END
> <cdk:Title>
beraprost

> <Conformer>
1

> <SuperDrugID>
SD000289

$$$$
