captodiame
  CDK     0628171802

 53 54  0  0  0  0  0  0  0  0999 V2000
   -2.2656   -1.1815   -1.4911 C   0  0  1  0  0  0  0  0  0  0  0  0
   -0.4485   -0.9962   -1.5233 S   0  0  0  0  0  0  0  0  0  0  0  0
   -2.7949   -1.8509   -2.7233 C   0  0  0  0  0  0  0  0  0  0  0  0
   -2.7430   -1.8802   -0.2581 C   0  0  0  0  0  0  0  0  0  0  0  0
   -0.0182   -0.0632   -0.0215 C   0  0  2  0  0  0  0  0  0  0  0  0
   -2.1124   -2.9131   -3.3717 C   0  0  0  0  0  0  0  0  0  0  0  0
   -4.0373   -1.4405   -3.2687 C   0  0  0  0  0  0  0  0  0  0  0  0
   -3.6125   -1.2247    0.6505 C   0  0  0  0  0  0  0  0  0  0  0  0
   -2.3502   -3.2099    0.0363 C   0  0  0  0  0  0  0  0  0  0  0  0
    1.5141   -0.1014    0.1978 C   0  0  1  0  0  0  0  0  0  0  0  0
   -2.6290   -3.5135   -4.5345 C   0  0  0  0  0  0  0  0  0  0  0  0
   -4.5629   -2.0449   -4.4270 C   0  0  0  0  0  0  0  0  0  0  0  0
   -4.0873   -1.8822    1.7999 C   0  0  0  0  0  0  0  0  0  0  0  0
   -2.8240   -3.8672    1.1860 C   0  0  0  0  0  0  0  0  0  0  0  0
    2.1086   -1.4789    0.1440 N   0  0  2  0  0  0  0  0  0  0  0  0
   -3.8534   -3.0798   -5.0697 C   0  0  0  0  0  0  0  0  0  0  0  0
   -3.6967   -3.2050    2.0659 C   0  0  0  0  0  0  0  0  0  0  0  0
    1.6873   -2.3675    1.2657 C   0  0  0  0  0  0  0  0  0  0  0  0
    3.5879   -1.4728   -0.0393 C   0  0  0  0  0  0  0  0  0  0  0  0
   -4.4646   -3.8121   -6.5466 S   0  0  0  0  0  0  0  0  0  0  0  0
   -5.2938   -5.3421   -5.9956 C   0  0  2  0  0  0  0  0  0  0  0  0
   -5.8206   -6.1511   -7.2080 C   0  0  1  0  0  0  0  0  0  0  0  0
   -6.6213   -7.4125   -6.7854 C   0  0  1  0  0  0  0  0  0  0  0  0
   -7.1667   -8.2203   -7.9860 C   0  0  0  0  0  0  0  0  0  0  0  0
   -2.6220   -0.1471   -1.4916 H   0  0  0  0  0  0  0  0  0  0  0  0
   -0.5338   -0.4835    0.8434 H   0  0  0  0  0  0  0  0  0  0  0  0
   -0.3537    0.9681   -0.1434 H   0  0  0  0  0  0  0  0  0  0  0  0
   -1.2240   -3.2641   -3.0088 H   0  0  0  0  0  0  0  0  0  0  0  0
   -4.5731   -0.6920   -2.8216 H   0  0  0  0  0  0  0  0  0  0  0  0
   -3.9078   -0.2604    0.4845 H   0  0  0  0  0  0  0  0  0  0  0  0
   -1.7117   -3.7126   -0.5825 H   0  0  0  0  0  0  0  0  0  0  0  0
    1.9509    0.5155   -0.5908 H   0  0  0  0  0  0  0  0  0  0  0  0
    1.7509    0.3757    1.1539 H   0  0  0  0  0  0  0  0  0  0  0  0
   -2.1024   -4.2659   -4.9873 H   0  0  0  0  0  0  0  0  0  0  0  0
   -5.4616   -1.7241   -4.7973 H   0  0  0  0  0  0  0  0  0  0  0  0
   -4.7183   -1.3965    2.4412 H   0  0  0  0  0  0  0  0  0  0  0  0
   -2.5334   -4.8273    1.3806 H   0  0  0  0  0  0  0  0  0  0  0  0
   -4.0450   -3.6848    2.8992 H   0  0  0  0  0  0  0  0  0  0  0  0
    0.6105   -2.5457    1.2325 H   0  0  0  0  0  0  0  0  0  0  0  0
    2.1668   -3.3456    1.1895 H   0  0  0  0  0  0  0  0  0  0  0  0
    1.9451   -1.9230    2.2304 H   0  0  0  0  0  0  0  0  0  0  0  0
    3.8598   -0.9242   -0.9425 H   0  0  0  0  0  0  0  0  0  0  0  0
    3.9622   -2.4910   -0.1587 H   0  0  0  0  0  0  0  0  0  0  0  0
    4.0869   -1.0139    0.8170 H   0  0  0  0  0  0  0  0  0  0  0  0
   -6.1227   -5.0628   -5.3433 H   0  0  0  0  0  0  0  0  0  0  0  0
   -4.5866   -5.9464   -5.4241 H   0  0  0  0  0  0  0  0  0  0  0  0
   -6.4671   -5.5064   -7.8099 H   0  0  0  0  0  0  0  0  0  0  0  0
   -4.9717   -6.4553   -7.8275 H   0  0  0  0  0  0  0  0  0  0  0  0
   -5.9784   -8.0673   -6.1903 H   0  0  0  0  0  0  0  0  0  0  0  0
   -7.4673   -7.1091   -6.1622 H   0  0  0  0  0  0  0  0  0  0  0  0
   -7.8342   -7.6040   -8.5926 H   0  0  0  0  0  0  0  0  0  0  0  0
   -6.3464   -8.5780   -8.6123 H   0  0  0  0  0  0  0  0  0  0  0  0
   -7.7274   -9.0834   -7.6214 H   0  0  0  0  0  0  0  0  0  0  0  0
  1  2  1  0  0  0  0 
  1  3  1  0  0  0  0 
  1  4  1  0  0  0  0 
  2  5  1  0  0  0  0 
  3  6  2  0  0  0  0 
  3  7  1  0  0  0  0 
  4  8  2  0  0  0  0 
  4  9  1  0  0  0  0 
  5 10  1  0  0  0  0 
  6 11  1  0  0  0  0 
  7 12  2  0  0  0  0 
  8 13  1  0  0  0  0 
  9 14  2  0  0  0  0 
 10 15  1  0  0  0  0 
 11 16  2  0  0  0  0 
 12 16  1  0  0  0  0 
 13 17  2  0  0  0  0 
 14 17  1  0  0  0  0 
 15 18  1  0  0  0  0 
 15 19  1  0  0  0  0 
 16 20  1  0  0  0  0 
 20 21  1  0  0  0  0 
 21 22  1  0  0  0  0 
 22 23  1  0  0  0  0 
 23 24  1  0  0  0  0 
  1 25  1  0  0  0  0 
  5 26  1  0  0  0  0 
  5 27  1  0  0  0  0 
  6 28  1  0  0  0  0 
  7 29  1  0  0  0  0 
  8 30  1  0  0  0  0 
  9 31  1  0  0  0  0 
 10 32  1  0  0  0  0 
 10 33  1  0  0  0  0 
 11 34  1  0  0  0  0 
 12 35  1  0  0  0  0 
 13 36  1  0  0  0  0 
 14 37  1  0  0  0  0 
 17 38  1  0  0  0  0 
 18 39  1  0  0  0  0 
 18 40  1  0  0  0  0 
 18 41  1  0  0  0  0 
 19 42  1  0  0  0  0 
 19 43  1  0  0  0  0 
 19 44  1  0  0  0  0 
 21 45  1  0  0  0  0 
 21 46  1  0  0  0  0 
 22 47  1  0  0  0  0 
 22 48  1  0  0  0  0 
 23 49  1  0  0  0  0 
 23 50  1  0  0  0  0 
 24 51  1  0  0  0  0 
 24 52  1  0  0  0  0 
 24 53  1  0  0  0  0 
M  END
> <cdk:Title>
captodiame

> <Conformer>
1

> <SuperDrugID>
SD000417

$$$$
