alatrofloxacin
  CDK     0628171801

 65 69  0  0  0  0  0  0  0  0999 V2000
  -10.7515   -3.9611   -5.5193 O   0  0  0  0  0  0  0  0  0  0  0  0
   -9.5040   -3.8550   -5.5997 C   0  0  0  0  0  0  0  0  0  0  0  0
   -8.8074   -3.2095   -4.5502 C   0  0  0  0  0  0  0  0  0  0  0  0
   -8.8094   -4.3816   -6.7202 C   0  0  0  0  0  0  0  0  0  0  0  0
   -7.4021   -3.0687   -4.6658 C   0  0  0  0  0  0  0  0  0  0  0  0
   -9.4369   -2.6969   -3.3901 C   0  0  0  0  0  0  0  0  0  0  0  0
   -9.4517   -5.0892   -7.7827 C   0  0  0  0  0  0  0  0  0  0  0  0
   -7.4072   -4.1904   -6.7568 C   0  0  0  0  0  0  0  0  0  0  0  0
   -6.7282   -3.5423   -5.7606 N   0  0  0  0  0  0  0  0  0  0  0  0
   -6.7384   -2.4575   -3.6520 N   0  0  0  0  0  0  0  0  0  0  0  0
   -8.6902   -2.0718   -2.3705 C   0  0  0  0  0  0  0  0  0  0  0  0
   -8.7536   -5.6101   -8.8216 O   0  0  0  0  0  0  0  0  0  0  0  0
  -10.6881   -5.2848   -7.8228 O   0  0  0  0  0  0  0  0  0  0  0  0
   -5.3629   -3.3738   -5.8870 C   0  0  0  0  0  0  0  0  0  0  0  0
   -7.2876   -1.9576   -2.5162 C   0  0  0  0  0  0  0  0  0  0  0  0
   -9.3197   -1.6118   -1.3229 F   0  0  0  0  0  0  0  0  0  0  0  0
   -4.4792   -4.4817   -5.8684 C   0  0  0  0  0  0  0  0  0  0  0  0
   -4.8212   -2.0746   -6.0440 C   0  0  0  0  0  0  0  0  0  0  0  0
   -6.4186   -1.3982   -1.6052 N   0  0  0  0  0  0  0  0  0  0  0  0
   -4.9310   -5.6973   -5.7032 F   0  0  0  0  0  0  0  0  0  0  0  0
   -3.0920   -4.2902   -6.0216 C   0  0  0  0  0  0  0  0  0  0  0  0
   -3.4349   -1.8850   -6.1919 C   0  0  0  0  0  0  0  0  0  0  0  0
   -5.2017   -0.7611   -2.0131 C   0  0  1  0  0  0  0  0  0  0  0  0
   -6.5895   -1.4043   -0.1817 C   0  0  2  0  0  0  0  0  0  0  0  0
   -2.5696   -2.9938   -6.1852 C   0  0  0  0  0  0  0  0  0  0  0  0
   -4.3566   -0.6485   -0.7464 C   0  0  1  0  0  0  0  0  0  0  0  0
   -5.2007   -1.1256    0.4319 C   0  0  2  0  0  0  0  0  0  0  0  0
   -1.2841   -2.8215   -6.3312 F   0  0  0  0  0  0  0  0  0  0  0  0
   -3.9668   -1.9425   -0.0086 C   0  0  2  0  0  0  0  0  0  0  0  0
   -2.6802   -1.7529    0.5691 N   0  0  0  0  0  0  0  0  0  0  0  0
   -1.5252   -2.1864   -0.0194 C   0  0  0  0  0  0  0  0  0  0  0  0
   -0.2094   -1.6725    0.4346 C   0  0  1  0  0  0  0  0  0  0  0  0
   -1.5582   -2.9487   -1.0164 O   0  0  0  0  0  0  0  0  0  0  0  0
   -0.2585   -0.2547    0.2251 N   0  0  0  0  0  0  0  0  0  0  0  0
    0.1105   -2.0237    1.9077 C   0  0  0  0  0  0  0  0  0  0  0  0
    0.6371    0.5096   -0.4617 C   0  0  0  0  0  0  0  0  0  0  0  0
    0.2424    1.8956   -0.8164 C   0  0  2  0  0  0  0  0  0  0  0  0
    1.7516    0.0526   -0.8126 O   0  0  0  0  0  0  0  0  0  0  0  0
   -0.7966    1.9047   -1.9657 C   0  0  0  0  0  0  0  0  0  0  0  0
    1.3900    2.7285   -1.2101 N   0  0  1  0  0  0  0  0  0  0  0  0
   -3.8001    0.2708   -0.5432 H   0  0  0  0  0  0  0  0  0  0  0  0
   -5.1098   -0.4891    1.3159 H   0  0  0  0  0  0  0  0  0  0  0  0
  -10.4496   -2.7797   -3.2777 H   0  0  0  0  0  0  0  0  0  0  0  0
   -6.8791   -4.5470   -7.5604 H   0  0  0  0  0  0  0  0  0  0  0  0
   -9.2196   -6.1036   -9.5285 H   0  0  0  0  0  0  0  0  0  0  0  0
   -5.4390   -1.2589   -6.0548 H   0  0  0  0  0  0  0  0  0  0  0  0
   -2.4610   -5.0955   -6.0126 H   0  0  0  0  0  0  0  0  0  0  0  0
   -3.0586   -0.9407   -6.3087 H   0  0  0  0  0  0  0  0  0  0  0  0
   -4.6313   -1.3440   -2.7403 H   0  0  0  0  0  0  0  0  0  0  0  0
   -5.4130    0.2271   -2.4272 H   0  0  0  0  0  0  0  0  0  0  0  0
   -6.9607   -2.3684    0.1746 H   0  0  0  0  0  0  0  0  0  0  0  0
   -7.2846   -0.6169    0.1201 H   0  0  0  0  0  0  0  0  0  0  0  0
   -4.1673   -2.8640   -0.5640 H   0  0  0  0  0  0  0  0  0  0  0  0
   -2.6201   -1.2204    1.3779 H   0  0  0  0  0  0  0  0  0  0  0  0
    0.5776   -2.1232   -0.1817 H   0  0  0  0  0  0  0  0  0  0  0  0
   -1.0487    0.2006    0.5583 H   0  0  0  0  0  0  0  0  0  0  0  0
    1.1119   -1.6636    2.1571 H   0  0  0  0  0  0  0  0  0  0  0  0
   -0.6074   -1.5647    2.5912 H   0  0  0  0  0  0  0  0  0  0  0  0
    0.0907   -3.1074    2.0513 H   0  0  0  0  0  0  0  0  0  0  0  0
   -0.2062    2.3678    0.0618 H   0  0  0  0  0  0  0  0  0  0  0  0
   -1.6606    1.2860   -1.7164 H   0  0  0  0  0  0  0  0  0  0  0  0
   -0.3567    1.5278   -2.8919 H   0  0  0  0  0  0  0  0  0  0  0  0
   -1.1472    2.9229   -2.1415 H   0  0  0  0  0  0  0  0  0  0  0  0
    2.0579    2.7156   -0.4357 H   0  0  0  0  0  0  0  0  0  0  0  0
    1.8372    2.2749   -2.0107 H   0  0  0  0  0  0  0  0  0  0  0  0
  1  2  2  0  0  0  0 
  2  3  1  0  0  0  0 
  2  4  1  0  0  0  0 
  3  5  1  0  0  0  0 
  3  6  2  0  0  0  0 
  4  7  1  0  0  0  0 
  4  8  2  0  0  0  0 
  5  9  1  0  0  0  0 
  5 10  2  0  0  0  0 
  6 11  1  0  0  0  0 
  7 12  1  0  0  0  0 
  7 13  2  0  0  0  0 
  8  9  1  0  0  0  0 
  9 14  1  0  0  0  0 
 10 15  1  0  0  0  0 
 11 15  2  0  0  0  0 
 11 16  1  0  0  0  0 
 14 17  2  0  0  0  0 
 14 18  1  0  0  0  0 
 15 19  1  0  0  0  0 
 17 20  1  0  0  0  0 
 17 21  1  0  0  0  0 
 18 22  2  0  0  0  0 
 19 23  1  0  0  0  0 
 19 24  1  0  0  0  0 
 21 25  2  0  0  0  0 
 22 25  1  0  0  0  0 
 26 23  1  0  0  0  0 
 27 24  1  0  0  0  0 
 25 28  1  0  0  0  0 
 26 27  1  0  0  0  0 
 29 26  1  0  0  0  0 
 26 41  1  0  0  0  0 
 29 27  1  0  0  0  0 
 27 42  1  0  0  0  0 
 29 30  1  0  0  0  0 
 30 31  1  0  0  0  0 
 32 31  1  0  0  0  0 
 31 33  2  0  0  0  0 
 32 34  1  0  0  0  0 
 32 35  1  0  0  0  0 
 34 36  1  0  0  0  0 
 37 36  1  0  0  0  0 
 36 38  2  0  0  0  0 
 37 39  1  0  0  0  0 
 37 40  1  0  0  0  0 
  6 43  1  0  0  0  0 
  8 44  1  0  0  0  0 
 12 45  1  0  0  0  0 
 18 46  1  0  0  0  0 
 21 47  1  0  0  0  0 
 22 48  1  0  0  0  0 
 23 49  1  0  0  0  0 
 23 50  1  0  0  0  0 
 24 51  1  0  0  0  0 
 24 52  1  0  0  0  0 
 29 53  1  0  0  0  0 
 30 54  1  0  0  0  0 
 32 55  1  0  0  0  0 
 34 56  1  0  0  0  0 
 35 57  1  0  0  0  0 
 35 58  1  0  0  0  0 
 35 59  1  0  0  0  0 
 37 60  1  0  0  0  0 
 39 61  1  0  0  0  0 
 39 62  1  0  0  0  0 
 39 63  1  0  0  0  0 
 40 64  1  0  0  0  0 
 40 65  1  0  0  0  0 
M  END
> <cdk:Title>
alatrofloxacin

> <Conformer>
1

> <SuperDrugID>
SD000076

$$$$
