penciclovir
  CDK     0628171801

 33 34  0  0  0  0  0  0  0  0999 V2000
    0.3086   -0.6247   -0.0796 C   0  0  1  0  0  0  0  0  0  0  0  0
   -0.2260    0.0132   -1.3921 C   0  0  1  0  0  0  0  0  0  0  0  0
    1.6490   -0.2031    0.2143 N   0  0  0  0  0  0  0  0  0  0  0  0
   -1.6957   -0.3510   -1.7986 C   0  0  1  0  0  0  0  0  0  0  0  0
    2.0213    0.9006    0.8823 C   0  0  0  0  0  0  0  0  0  0  0  0
    2.7931   -0.8533   -0.0971 C   0  0  0  0  0  0  0  0  0  0  0  0
   -1.9058   -1.8678   -2.0725 C   0  0  2  0  0  0  0  0  0  0  0  0
   -2.7640    0.1732   -0.7966 C   0  0  2  0  0  0  0  0  0  0  0  0
    3.4063    0.8801    0.9953 C   0  0  0  0  0  0  0  0  0  0  0  0
    1.2885    1.9075    1.4175 N   0  0  0  0  0  0  0  0  0  0  0  0
    3.8795   -0.2123    0.3797 N   0  0  0  0  0  0  0  0  0  0  0  0
   -0.9587   -2.3584   -3.0156 O   0  0  0  0  0  0  0  0  0  0  0  0
   -2.6219    1.5719   -0.5720 O   0  0  0  0  0  0  0  0  0  0  0  0
    4.0466    1.9130    1.7005 C   0  0  0  0  0  0  0  0  0  0  0  0
    1.9167    2.9144    2.0825 C   0  0  0  0  0  0  0  0  0  0  0  0
    5.2870    1.9160    1.8663 O   0  0  0  0  0  0  0  0  0  0  0  0
    3.2753    2.9092    2.2223 N   0  0  0  0  0  0  0  0  0  0  0  0
    1.1848    3.9122    2.5984 N   0  0  0  0  0  0  0  0  0  0  0  0
   -0.3426   -0.3618    0.7580 H   0  0  0  0  0  0  0  0  0  0  0  0
    0.2887   -1.7137   -0.1683 H   0  0  0  0  0  0  0  0  0  0  0  0
   -0.1491    1.1001   -1.3068 H   0  0  0  0  0  0  0  0  0  0  0  0
    0.4407   -0.2787   -2.2077 H   0  0  0  0  0  0  0  0  0  0  0  0
   -1.8913    0.1602   -2.7474 H   0  0  0  0  0  0  0  0  0  0  0  0
    2.8380   -1.7326   -0.6164 H   0  0  0  0  0  0  0  0  0  0  0  0
   -2.9045   -2.0445   -2.4794 H   0  0  0  0  0  0  0  0  0  0  0  0
   -1.8148   -2.4395   -1.1475 H   0  0  0  0  0  0  0  0  0  0  0  0
   -2.6838   -0.3494    0.1577 H   0  0  0  0  0  0  0  0  0  0  0  0
   -3.7685    0.0001   -1.1904 H   0  0  0  0  0  0  0  0  0  0  0  0
   -1.1201   -3.3238   -3.0569 H   0  0  0  0  0  0  0  0  0  0  0  0
   -3.2966    1.7879    0.1048 H   0  0  0  0  0  0  0  0  0  0  0  0
    3.7016    3.6303    2.7102 H   0  0  0  0  0  0  0  0  0  0  0  0
    0.2207    3.9149    2.4866 H   0  0  0  0  0  0  0  0  0  0  0  0
    1.6170    4.6373    3.0748 H   0  0  0  0  0  0  0  0  0  0  0  0
  1  2  1  0  0  0  0 
  1  3  1  0  0  0  0 
  2  4  1  0  0  0  0 
  3  5  1  0  0  0  0 
  3  6  1  0  0  0  0 
  4  7  1  0  0  0  0 
  4  8  1  0  0  0  0 
  5  9  2  0  0  0  0 
  5 10  1  0  0  0  0 
  6 11  2  0  0  0  0 
  7 12  1  0  0  0  0 
  8 13  1  0  0  0  0 
  9 11  1  0  0  0  0 
  9 14  1  0  0  0  0 
 10 15  2  0  0  0  0 
 14 16  2  0  0  0  0 
 14 17  1  0  0  0  0 
 15 17  1  0  0  0  0 
 15 18  1  0  0  0  0 
 19  1  1  0  0  0  0 
 20  1  1  0  0  0  0 
 21  2  1  0  0  0  0 
 22  2  1  0  0  0  0 
 23  4  1  0  0  0  0 
 24  6  1  0  0  0  0 
 25  7  1  0  0  0  0 
 26  7  1  0  0  0  0 
 27  8  1  0  0  0  0 
 28  8  1  0  0  0  0 
 29 12  1  0  0  0  0 
 30 13  1  0  0  0  0 
 31 17  1  0  0  0  0 
 32 18  1  0  0  0  0 
 33 18  1  0  0  0  0 
M  END
> <cdk:Title>
penciclovir

> <Conformer>
1

> <SuperDrugID>
SD001864

$$$$
