flutazolam
  CDK     0628171801

 44 47  0  0  0  0  0  0  0  0999 V2000
   -1.0329    3.5597   -5.3901 F   0  0  0  0  0  0  0  0  0  0  0  0
   -0.4109    4.6967   -5.2186 C   0  0  0  0  0  0  0  0  0  0  0  0
   -0.3974    5.3775   -3.9664 C   0  0  0  0  0  0  0  0  0  0  0  0
    0.2420    5.2316   -6.3467 C   0  0  0  0  0  0  0  0  0  0  0  0
   -1.0610    4.8049   -2.7326 C   0  0  1  0  0  0  0  0  0  0  0  0
    0.2383    6.6483   -3.9283 C   0  0  0  0  0  0  0  0  0  0  0  0
    0.8887    6.4741   -6.2655 C   0  0  0  0  0  0  0  0  0  0  0  0
   -0.3933    5.2127   -1.4331 C   0  0  0  0  0  0  0  0  0  0  0  0
   -2.5234    4.9726   -2.8516 N   0  0  0  0  0  0  0  0  0  0  0  0
   -0.9869    3.3564   -2.7764 O   0  0  0  0  0  0  0  0  0  0  0  0
    0.8773    7.1896   -5.0586 C   0  0  0  0  0  0  0  0  0  0  0  0
   -0.8952    6.1134   -0.4252 C   0  0  0  0  0  0  0  0  0  0  0  0
    0.8791    4.5984   -1.2357 C   0  0  0  0  0  0  0  0  0  0  0  0
   -3.1401    6.2863   -2.6492 C   0  0  1  0  0  0  0  0  0  0  0  0
   -3.2455    3.7621   -2.4278 C   0  0  2  0  0  0  0  0  0  0  0  0
   -2.1043    2.8130   -2.0704 C   0  0  1  0  0  0  0  0  0  0  0  0
   -2.0116    6.9782   -0.5081 N   0  0  0  0  0  0  0  0  0  0  0  0
   -0.1723    6.1341    0.8076 C   0  0  0  0  0  0  0  0  0  0  0  0
    1.5989    4.7210   -0.0409 C   0  0  0  0  0  0  0  0  0  0  0  0
   -3.1529    6.7283   -1.2453 C   0  0  0  0  0  0  0  0  0  0  0  0
   -1.9815    8.3033    0.1313 C   0  0  1  0  0  0  0  0  0  0  0  0
    1.0504    5.4746    0.9984 C   0  0  0  0  0  0  0  0  0  0  0  0
    3.0958    3.9511    0.1570 Cl  0  0  0  0  0  0  0  0  0  0  0  0
   -4.2836    7.0307   -0.7905 O   0  0  0  0  0  0  0  0  0  0  0  0
   -2.8058    8.4574    1.4400 C   0  0  1  0  0  0  0  0  0  0  0  0
   -2.4306    9.6447    2.1295 O   0  0  0  0  0  0  0  0  0  0  0  0
    0.2445    4.7216   -7.2339 H   0  0  0  0  0  0  0  0  0  0  0  0
    0.2383    7.2054   -3.0711 H   0  0  0  0  0  0  0  0  0  0  0  0
    1.3609    6.8604   -7.0860 H   0  0  0  0  0  0  0  0  0  0  0  0
    1.3322    8.1044   -5.0034 H   0  0  0  0  0  0  0  0  0  0  0  0
    1.2946    4.0232   -1.9749 H   0  0  0  0  0  0  0  0  0  0  0  0
   -2.6058    7.0386   -3.2320 H   0  0  0  0  0  0  0  0  0  0  0  0
   -4.1546    6.2464   -3.0603 H   0  0  0  0  0  0  0  0  0  0  0  0
   -3.8170    3.3801   -3.2765 H   0  0  0  0  0  0  0  0  0  0  0  0
   -3.9112    3.9257   -1.5768 H   0  0  0  0  0  0  0  0  0  0  0  0
   -2.3077    1.7894   -2.3921 H   0  0  0  0  0  0  0  0  0  0  0  0
   -1.9128    2.8188   -0.9940 H   0  0  0  0  0  0  0  0  0  0  0  0
   -0.5235    6.6512    1.6127 H   0  0  0  0  0  0  0  0  0  0  0  0
   -0.9515    8.6027    0.3403 H   0  0  0  0  0  0  0  0  0  0  0  0
   -2.3327    9.0636   -0.5749 H   0  0  0  0  0  0  0  0  0  0  0  0
    1.5434    5.5557    1.8912 H   0  0  0  0  0  0  0  0  0  0  0  0
   -3.8701    8.5352    1.2225 H   0  0  0  0  0  0  0  0  0  0  0  0
   -2.6480    7.6094    2.1057 H   0  0  0  0  0  0  0  0  0  0  0  0
   -2.5974   10.3667    1.4875 H   0  0  0  0  0  0  0  0  0  0  0  0
  1  2  1  0  0  0  0 
  2  3  2  0  0  0  0 
  2  4  1  0  0  0  0 
  5  3  1  0  0  0  0 
  3  6  1  0  0  0  0 
  4  7  2  0  0  0  0 
  5  8  1  0  0  0  0 
  5  9  1  0  0  0  0 
  5 10  1  0  0  0  0 
  6 11  2  0  0  0  0 
  7 11  1  0  0  0  0 
  8 12  2  0  0  0  0 
  8 13  1  0  0  0  0 
  9 14  1  0  0  0  0 
  9 15  1  0  0  0  0 
 10 16  1  0  0  0  0 
 12 17  1  0  0  0  0 
 12 18  1  0  0  0  0 
 13 19  2  0  0  0  0 
 14 20  1  0  0  0  0 
 15 16  1  0  0  0  0 
 17 20  1  0  0  0  0 
 17 21  1  0  0  0  0 
 18 22  2  0  0  0  0 
 19 22  1  0  0  0  0 
 19 23  1  0  0  0  0 
 20 24  2  0  0  0  0 
 21 25  1  0  0  0  0 
 25 26  1  0  0  0  0 
  4 27  1  0  0  0  0 
  6 28  1  0  0  0  0 
  7 29  1  0  0  0  0 
 11 30  1  0  0  0  0 
 13 31  1  0  0  0  0 
 14 32  1  0  0  0  0 
 14 33  1  0  0  0  0 
 15 34  1  0  0  0  0 
 15 35  1  0  0  0  0 
 16 36  1  0  0  0  0 
 16 37  1  0  0  0  0 
 18 38  1  0  0  0  0 
 21 39  1  0  0  0  0 
 21 40  1  0  0  0  0 
 22 41  1  0  0  0  0 
 25 42  1  0  0  0  0 
 25 43  1  0  0  0  0 
 26 44  1  0  0  0  0 
M  END
> <cdk:Title>
flutazolam

> <Conformer>
1

> <SuperDrugID>
SD001097

$$$$
