mefloquine
  CDK     0628171801

 42 44  0  0  0  0  0  0  0  0999 V2000
    7.2197    4.8750   -4.3363 C   0  0  2  0  0  0  0  0  0  0  0  0
    6.0164    4.5835   -3.4944 C   0  0  0  0  0  0  0  0  0  0  0  0
    5.1766    3.4634   -3.7521 C   0  0  0  0  0  0  0  0  0  0  0  0
    5.6788    5.4260   -2.4102 C   0  0  0  0  0  0  0  0  0  0  0  0
    4.0024    3.1996   -2.9823 C   0  0  0  0  0  0  0  0  0  0  0  0
    5.4951    2.6214   -4.7677 N   0  0  0  0  0  0  0  0  0  0  0  0
    4.5469    5.1753   -1.6241 C   0  0  0  0  0  0  0  0  0  0  0  0
    3.1811    2.0811   -3.3344 C   0  0  0  0  0  0  0  0  0  0  0  0
    3.7219    4.0777   -1.9068 C   0  0  0  0  0  0  0  0  0  0  0  0
    4.7697    1.5410   -5.1367 C   0  0  0  0  0  0  0  0  0  0  0  0
    1.9202    1.6858   -2.6144 C   0  0  2  0  0  0  0  0  0  0  0  0
    3.5860    1.2701   -4.4242 C   0  0  0  0  0  0  0  0  0  0  0  0
    5.2201    0.6859   -6.2595 C   0  0  1  0  0  0  0  0  0  0  0  0
    1.0528    2.8133   -2.4852 O   0  0  0  0  0  0  0  0  0  0  0  0
    2.2114    0.9594   -1.2610 C   0  0  1  0  0  0  0  0  0  0  0  0
    0.9166    0.6253   -0.4577 C   0  0  1  0  0  0  0  0  0  0  0  0
    2.9613   -0.2924   -1.5624 N   0  0  1  0  0  0  0  0  0  0  0  0
    1.2330   -0.2240    0.8015 C   0  0  2  0  0  0  0  0  0  0  0  0
    3.3111   -1.1131   -0.3817 C   0  0  2  0  0  0  0  0  0  0  0  0
    2.0542   -1.4874    0.4416 C   0  0  1  0  0  0  0  0  0  0  0  0
    2.8416    1.5992   -0.6357 H   0  0  0  0  0  0  0  0  0  0  0  0
    6.4373    1.0742   -6.7690 F   0  0  0  0  0  0  0  0  0  0  0  0
    5.3483   -0.6186   -5.8470 F   0  0  0  0  0  0  0  0  0  0  0  0
    4.3039    0.7429   -7.2813 F   0  0  0  0  0  0  0  0  0  0  0  0
    6.8728    4.9478   -5.6632 F   0  0  0  0  0  0  0  0  0  0  0  0
    8.1557    3.8840   -4.1763 F   0  0  0  0  0  0  0  0  0  0  0  0
    7.8482    6.0658   -4.0570 F   0  0  0  0  0  0  0  0  0  0  0  0
    6.2533    6.2374   -2.1713 H   0  0  0  0  0  0  0  0  0  0  0  0
    4.3210    5.7955   -0.8435 H   0  0  0  0  0  0  0  0  0  0  0  0
    2.9140    3.9406   -1.3027 H   0  0  0  0  0  0  0  0  0  0  0  0
    1.3420    0.9872   -3.2283 H   0  0  0  0  0  0  0  0  0  0  0  0
    3.0249    0.4603   -4.7003 H   0  0  0  0  0  0  0  0  0  0  0  0
    0.1894    2.4459   -2.2020 H   0  0  0  0  0  0  0  0  0  0  0  0
    0.4225    1.5484   -0.1429 H   0  0  0  0  0  0  0  0  0  0  0  0
    0.2216    0.0704   -1.0949 H   0  0  0  0  0  0  0  0  0  0  0  0
    2.3529   -0.8656   -2.1506 H   0  0  0  0  0  0  0  0  0  0  0  0
    0.2988   -0.5265    1.2818 H   0  0  0  0  0  0  0  0  0  0  0  0
    1.7947    0.3810    1.5191 H   0  0  0  0  0  0  0  0  0  0  0  0
    4.0230   -0.5696    0.2437 H   0  0  0  0  0  0  0  0  0  0  0  0
    3.7968   -2.0272   -0.7302 H   0  0  0  0  0  0  0  0  0  0  0  0
    2.3541   -2.0059    1.3560 H   0  0  0  0  0  0  0  0  0  0  0  0
    1.4311   -2.1698   -0.1438 H   0  0  0  0  0  0  0  0  0  0  0  0
  1  2  1  0  0  0  0 
  2  3  2  0  0  0  0 
  2  4  1  0  0  0  0 
  3  5  1  0  0  0  0 
  3  6  1  0  0  0  0 
  4  7  2  0  0  0  0 
  5  8  1  0  0  0  0 
  5  9  2  0  0  0  0 
  6 10  2  0  0  0  0 
  7  9  1  0  0  0  0 
 11  8  1  0  0  0  0 
  8 12  2  0  0  0  0 
 10 12  1  0  0  0  0 
 10 13  1  0  0  0  0 
 11 14  1  0  0  0  0 
 11 15  1  0  0  0  0 
 15 16  1  0  0  0  0 
 15 17  1  0  0  0  0 
 15 21  1  0  0  0  0 
 16 18  1  0  0  0  0 
 17 19  1  0  0  0  0 
 18 20  1  0  0  0  0 
 19 20  1  0  0  0  0 
 13 22  1  0  0  0  0 
 13 23  1  0  0  0  0 
 13 24  1  0  0  0  0 
  1 25  1  0  0  0  0 
  1 26  1  0  0  0  0 
  1 27  1  0  0  0  0 
  4 28  1  0  0  0  0 
  7 29  1  0  0  0  0 
  9 30  1  0  0  0  0 
 11 31  1  0  0  0  0 
 12 32  1  0  0  0  0 
 14 33  1  0  0  0  0 
 16 34  1  0  0  0  0 
 16 35  1  0  0  0  0 
 17 36  1  0  0  0  0 
 18 37  1  0  0  0  0 
 18 38  1  0  0  0  0 
 19 39  1  0  0  0  0 
 19 40  1  0  0  0  0 
 20 41  1  0  0  0  0 
 20 42  1  0  0  0  0 
M  END
> <cdk:Title>
mefloquine

> <Conformer>
1

> <SuperDrugID>
SD001474

$$$$
