metaraminol
  CDK     0628171801

 25 25  0  0  0  0  0  0  0  0999 V2000
    0.1677   -1.1877    0.3883 C   0  0  2  0  0  0  0  0  0  0  0  0
   -0.6002   -2.5249    0.6264 C   0  0  2  0  0  0  0  0  0  0  0  0
    1.1676   -1.3565   -0.6205 O   0  0  0  0  0  0  0  0  0  0  0  0
    0.7330   -0.5772    1.6312 C   0  0  0  0  0  0  0  0  0  0  0  0
    0.2988   -3.7093    1.0687 C   0  0  0  0  0  0  0  0  0  0  0  0
   -1.3089   -2.9009   -0.6072 N   0  0  2  0  0  0  0  0  0  0  0  0
    2.1005   -0.7183    1.9712 C   0  0  0  0  0  0  0  0  0  0  0  0
   -0.0922    0.1919    2.4891 C   0  0  0  0  0  0  0  0  0  0  0  0
    2.6409   -0.0752    3.1035 C   0  0  0  0  0  0  0  0  0  0  0  0
    0.4396    0.8237    3.6301 C   0  0  0  0  0  0  0  0  0  0  0  0
    3.9614   -0.1826    3.3944 O   0  0  0  0  0  0  0  0  0  0  0  0
    1.8053    0.6926    3.9339 C   0  0  0  0  0  0  0  0  0  0  0  0
   -0.5334   -0.4599   -0.0308 H   0  0  0  0  0  0  0  0  0  0  0  0
   -1.3671   -2.3624    1.3886 H   0  0  0  0  0  0  0  0  0  0  0  0
    0.6780   -1.6272   -1.4239 H   0  0  0  0  0  0  0  0  0  0  0  0
   -0.2945   -4.6207    1.1711 H   0  0  0  0  0  0  0  0  0  0  0  0
    1.0838   -3.8935    0.3325 H   0  0  0  0  0  0  0  0  0  0  0  0
    0.7626   -3.4947    2.0320 H   0  0  0  0  0  0  0  0  0  0  0  0
   -1.8750   -3.7267   -0.3987 H   0  0  0  0  0  0  0  0  0  0  0  0
   -0.6000   -3.1898   -1.2849 H   0  0  0  0  0  0  0  0  0  0  0  0
    2.7201   -1.2903    1.3943 H   0  0  0  0  0  0  0  0  0  0  0  0
   -1.0887    0.3040    2.2846 H   0  0  0  0  0  0  0  0  0  0  0  0
   -0.1656    1.3824    4.2378 H   0  0  0  0  0  0  0  0  0  0  0  0
    4.3686   -0.6267    2.6202 H   0  0  0  0  0  0  0  0  0  0  0  0
    2.1894    1.1593    4.7596 H   0  0  0  0  0  0  0  0  0  0  0  0
  2  1  1  0  0  0  0 
  1  3  1  0  0  0  0 
  1  4  1  0  0  0  0 
  2  5  1  0  0  0  0 
  2  6  1  0  0  0  0 
  4  7  2  0  0  0  0 
  4  8  1  0  0  0  0 
  7  9  1  0  0  0  0 
  8 10  2  0  0  0  0 
  9 11  1  0  0  0  0 
  9 12  2  0  0  0  0 
 10 12  1  0  0  0  0 
  1 13  1  0  0  0  0 
  2 14  1  0  0  0  0 
  3 15  1  0  0  0  0 
  5 16  1  0  0  0  0 
  5 17  1  0  0  0  0 
  5 18  1  0  0  0  0 
  6 19  1  0  0  0  0 
  6 20  1  0  0  0  0 
  7 21  1  0  0  0  0 
  8 22  1  0  0  0  0 
 10 23  1  0  0  0  0 
 11 24  1  0  0  0  0 
 12 25  1  0  0  0  0 
M  END
> <cdk:Title>
metaraminol

> <Conformer>
1

> <SuperDrugID>
SD001522

$$$$
