pentigetide
  CDK     0628171801

 77 77  0  0  0  0  0  0  0  0999 V2000
   -9.5261   -3.7661   -9.0846 N   0  0  2  0  0  0  0  0  0  0  0  0
   -7.6963   -4.6389   -6.9639 N   0  0  0  0  0  0  0  0  0  0  0  0
   -6.6343   -2.9592   -4.9721 N   0  0  0  0  0  0  0  0  0  0  0  0
   -7.1499   -3.6547   -2.0331 N   0  0  0  0  0  0  0  0  0  0  0  0
   -4.8643   -4.2258    0.4633 N   0  0  0  0  0  0  0  0  0  0  0  0
   -3.5054   -5.4304    2.7774 O   0  0  0  0  0  0  0  0  0  0  0  0
   -8.4390   -5.4472   -7.7820 C   0  0  0  0  0  0  0  0  0  0  0  0
  -10.6557   -6.0113   -9.0412 C   0  0  1  0  0  0  0  0  0  0  0  0
  -12.0827   -5.6811   -9.4097 C   0  0  0  0  0  0  0  0  0  0  0  0
  -13.1211   -6.4738   -9.0098 O   0  0  0  0  0  0  0  0  0  0  0  0
  -12.3304   -4.6639  -10.0940 O   0  0  0  0  0  0  0  0  0  0  0  0
   -9.7613   -4.9567   -8.2483 C   0  0  2  0  0  0  0  0  0  0  0  0
   -7.9977   -6.5599   -8.1584 O   0  0  0  0  0  0  0  0  0  0  0  0
   -5.9946   -4.1183   -5.3015 C   0  0  0  0  0  0  0  0  0  0  0  0
   -5.3786   -4.4434   -7.6953 C   0  0  2  0  0  0  0  0  0  0  0  0
   -4.0151   -4.6330   -7.3337 O   0  0  0  0  0  0  0  0  0  0  0  0
   -6.3366   -4.8626   -6.5468 C   0  0  2  0  0  0  0  0  0  0  0  0
   -5.0634   -4.5538   -4.5816 O   0  0  0  0  0  0  0  0  0  0  0  0
   -6.2805   -2.6917   -2.5325 C   0  0  0  0  0  0  0  0  0  0  0  0
   -7.2587   -0.8357   -3.9590 C   0  0  1  0  0  0  0  0  0  0  0  0
   -6.8045    0.3298   -3.1698 C   0  0  0  0  0  0  0  0  0  0  0  0
   -6.7696    0.2874   -1.8177 O   0  0  0  0  0  0  0  0  0  0  0  0
   -6.4557    1.3895   -3.7376 O   0  0  0  0  0  0  0  0  0  0  0  0
   -6.3090   -2.0690   -3.8931 C   0  0  2  0  0  0  0  0  0  0  0  0
   -5.3726   -2.2538   -1.7843 O   0  0  0  0  0  0  0  0  0  0  0  0
   -5.6815   -4.8020   -0.4666 C   0  0  0  0  0  0  0  0  0  0  0  0
   -7.0314   -4.2175   -0.7060 C   0  0  2  0  0  0  0  0  0  0  0  0
   -8.1954   -5.2313   -0.5730 C   0  0  2  0  0  0  0  0  0  0  0  0
   -9.1828   -4.7794   -1.6576 C   0  0  2  0  0  0  0  0  0  0  0  0
   -8.2669   -4.1964   -2.7439 C   0  0  1  0  0  0  0  0  0  0  0  0
   -5.2783   -5.7361   -1.2008 O   0  0  0  0  0  0  0  0  0  0  0  0
   -3.0969   -5.4663    1.4887 C   0  0  0  0  0  0  0  0  0  0  0  0
   -2.8044   -3.0006    0.9277 C   0  0  2  0  0  0  0  0  0  0  0  0
   -1.2803   -2.8922    0.6331 C   0  0  2  0  0  0  0  0  0  0  0  0
   -0.7159   -1.4536    0.7989 C   0  0  2  0  0  0  0  0  0  0  0  0
    0.5561   -1.3664    0.2339 N   0  0  0  0  0  0  0  0  0  0  0  0
    1.3034   -0.3346    0.0625 C   0  0  0  0  0  0  0  0  0  0  0  0
    0.9640    0.8933    0.4133 N   0  0  0  0  0  0  0  0  0  0  0  0
    2.4686   -0.5193   -0.5119 N   0  0  0  0  0  0  0  0  0  0  0  0
   -3.4385   -4.3787    0.5449 C   0  0  2  0  0  0  0  0  0  0  0  0
   -2.4266   -6.4549    1.1142 O   0  0  0  0  0  0  0  0  0  0  0  0
  -10.4353   -3.4320   -9.4096 H   0  0  0  0  0  0  0  0  0  0  0  0
   -9.0051   -4.0673   -9.9119 H   0  0  0  0  0  0  0  0  0  0  0  0
   -8.1139   -3.8100   -6.6802 H   0  0  0  0  0  0  0  0  0  0  0  0
   -7.3533   -2.6772   -5.5575 H   0  0  0  0  0  0  0  0  0  0  0  0
   -5.2731   -3.5887    1.0712 H   0  0  0  0  0  0  0  0  0  0  0  0
   -4.0505   -4.6824    3.0968 H   0  0  0  0  0  0  0  0  0  0  0  0
  -10.6866   -6.9299   -8.4483 H   0  0  0  0  0  0  0  0  0  0  0  0
  -10.1454   -6.2615   -9.9749 H   0  0  0  0  0  0  0  0  0  0  0  0
  -12.9978   -7.3195   -8.5077 H   0  0  0  0  0  0  0  0  0  0  0  0
  -10.3365   -4.6407   -7.3741 H   0  0  0  0  0  0  0  0  0  0  0  0
   -5.5754   -5.0449   -8.5855 H   0  0  0  0  0  0  0  0  0  0  0  0
   -5.5226   -3.3906   -7.9521 H   0  0  0  0  0  0  0  0  0  0  0  0
   -3.5105   -4.2957   -8.1016 H   0  0  0  0  0  0  0  0  0  0  0  0
   -6.1988   -5.9318   -6.3523 H   0  0  0  0  0  0  0  0  0  0  0  0
   -8.2627   -1.1051   -3.6256 H   0  0  0  0  0  0  0  0  0  0  0  0
   -7.3389   -0.5285   -5.0072 H   0  0  0  0  0  0  0  0  0  0  0  0
   -6.4452    1.0579   -1.3050 H   0  0  0  0  0  0  0  0  0  0  0  0
   -5.3043   -1.6956   -4.1281 H   0  0  0  0  0  0  0  0  0  0  0  0
   -7.2162   -3.4077    0.0093 H   0  0  0  0  0  0  0  0  0  0  0  0
   -8.6525   -5.1982    0.4203 H   0  0  0  0  0  0  0  0  0  0  0  0
   -7.8739   -6.2570   -0.7808 H   0  0  0  0  0  0  0  0  0  0  0  0
   -9.8519   -4.0041   -1.2695 H   0  0  0  0  0  0  0  0  0  0  0  0
   -9.7765   -5.6130   -2.0381 H   0  0  0  0  0  0  0  0  0  0  0  0
   -8.8073   -3.4452   -3.3214 H   0  0  0  0  0  0  0  0  0  0  0  0
   -7.9309   -4.9953   -3.4092 H   0  0  0  0  0  0  0  0  0  0  0  0
   -3.3103   -2.2217    0.3482 H   0  0  0  0  0  0  0  0  0  0  0  0
   -2.9827   -2.7854    1.9854 H   0  0  0  0  0  0  0  0  0  0  0  0
   -1.1032   -3.2145   -0.3972 H   0  0  0  0  0  0  0  0  0  0  0  0
   -0.7392   -3.5722    1.2959 H   0  0  0  0  0  0  0  0  0  0  0  0
   -0.6633   -1.1905    1.8584 H   0  0  0  0  0  0  0  0  0  0  0  0
   -1.3737   -0.7434    0.2917 H   0  0  0  0  0  0  0  0  0  0  0  0
    0.1168    1.0634    0.8585 H   0  0  0  0  0  0  0  0  0  0  0  0
    1.5606    1.6361    0.2206 H   0  0  0  0  0  0  0  0  0  0  0  0
    3.0686    0.2292   -0.6585 H   0  0  0  0  0  0  0  0  0  0  0  0
    2.7278   -1.4086   -0.7960 H   0  0  0  0  0  0  0  0  0  0  0  0
   -3.0608   -4.6449   -0.4488 H   0  0  0  0  0  0  0  0  0  0  0  0
  7  2  1  0  0  0  0 
 14  3  1  0  0  0  0 
 19  4  1  0  0  0  0 
 26  5  1  0  0  0  0 
 32  6  1  0  0  0  0 
 12  1  1  0  0  0  0 
 12  8  1  0  0  0  0 
  8  9  1  0  0  0  0 
  9 10  1  0  0  0  0 
  9 11  2  0  0  0  0 
 12  7  1  0  0  0  0 
  7 13  2  0  0  0  0 
 17  2  1  0  0  0  0 
 17 15  1  0  0  0  0 
 15 16  1  0  0  0  0 
 17 14  1  0  0  0  0 
 14 18  2  0  0  0  0 
 24  3  1  0  0  0  0 
 24 20  1  0  0  0  0 
 20 21  1  0  0  0  0 
 21 22  1  0  0  0  0 
 21 23  2  0  0  0  0 
 24 19  1  0  0  0  0 
 19 25  2  0  0  0  0 
 31 26  2  0  0  0  0 
 27 26  1  0  0  0  0 
 27 28  1  0  0  0  0 
 28 29  1  0  0  0  0 
 29 30  1  0  0  0  0 
 30  4  1  0  0  0  0 
 27  4  1  0  0  0  0 
 40  5  1  0  0  0  0 
 40 33  1  0  0  0  0 
 33 34  1  0  0  0  0 
 34 35  1  0  0  0  0 
 35 36  1  0  0  0  0 
 36 37  2  0  0  0  0 
 37 38  1  0  0  0  0 
 37 39  1  0  0  0  0 
 40 32  1  0  0  0  0 
 32 41  2  0  0  0  0 
 42  1  1  0  0  0  0 
 43  1  1  0  0  0  0 
 44  2  1  0  0  0  0 
 45  3  1  0  0  0  0 
 46  5  1  0  0  0  0 
 47  6  1  0  0  0  0 
 48  8  1  0  0  0  0 
 49  8  1  0  0  0  0 
 50 10  1  0  0  0  0 
 12 51  1  0  0  0  0 
 52 15  1  0  0  0  0 
 53 15  1  0  0  0  0 
 54 16  1  0  0  0  0 
 17 55  1  0  0  0  0 
 56 20  1  0  0  0  0 
 57 20  1  0  0  0  0 
 58 22  1  0  0  0  0 
 24 59  1  0  0  0  0 
 27 60  1  0  0  0  0 
 61 28  1  0  0  0  0 
 62 28  1  0  0  0  0 
 63 29  1  0  0  0  0 
 64 29  1  0  0  0  0 
 65 30  1  0  0  0  0 
 66 30  1  0  0  0  0 
 67 33  1  0  0  0  0 
 68 33  1  0  0  0  0 
 69 34  1  0  0  0  0 
 70 34  1  0  0  0  0 
 71 35  1  0  0  0  0 
 72 35  1  0  0  0  0 
 73 38  1  0  0  0  0 
 74 38  1  0  0  0  0 
 75 39  1  0  0  0  0 
 76 39  1  0  0  0  0 
 40 77  1  0  0  0  0 
M  END
> <cdk:Title>
pentigetide

> <Conformer>
1

> <SuperDrugID>
SD002950

$$$$
