delamanid
  CDK     0628171802

 63 67  0  0  0  0  0  0  0  0999 V2000
   -3.6720    3.0374  -25.6604 C   0  0  1  0  0  0  0  0  0  0  0  0
   -3.5088    4.4679  -25.7113 O   0  0  0  0  0  0  0  0  0  0  0  0
   -3.0993    5.0130  -24.5260 C   0  0  0  0  0  0  0  0  0  0  0  0
   -4.0391    5.6460  -23.6952 C   0  0  0  0  0  0  0  0  0  0  0  0
   -3.6322    6.2457  -22.4925 C   0  0  0  0  0  0  0  0  0  0  0  0
   -2.2794    6.2026  -22.0745 C   0  0  0  0  0  0  0  0  0  0  0  0
   -1.3117    5.5688  -22.8952 C   0  0  0  0  0  0  0  0  0  0  0  0
   -1.7455    4.9843  -24.1419 C   0  0  0  0  0  0  0  0  0  0  0  0
   -1.9076    6.7746  -20.8756 N   0  0  0  0  0  0  0  0  0  0  0  0
   -0.8265    7.7333  -20.7921 C   0  0  2  0  0  0  0  0  0  0  0  0
   -1.3418    9.0712  -20.2019 C   0  0  1  0  0  0  0  0  0  0  0  0
   -2.1223    8.8759  -18.8710 C   0  0  2  0  0  0  0  0  0  0  0  0
   -3.1990    7.7542  -19.0298 C   0  0  1  0  0  0  0  0  0  0  0  0
   -2.5978    6.4650  -19.6438 C   0  0  2  0  0  0  0  0  0  0  0  0
   -2.6700   10.1711  -18.5130 O   0  0  0  0  0  0  0  0  0  0  0  0
   -3.3041   10.2110  -17.2984 C   0  0  0  0  0  0  0  0  0  0  0  0
   -4.7131   10.2004  -17.2625 C   0  0  0  0  0  0  0  0  0  0  0  0
   -5.3911   10.1467  -16.0301 C   0  0  0  0  0  0  0  0  0  0  0  0
   -4.6639   10.1051  -14.8216 C   0  0  0  0  0  0  0  0  0  0  0  0
   -3.2567   10.2037  -14.8549 C   0  0  0  0  0  0  0  0  0  0  0  0
   -2.5795   10.2597  -16.0881 C   0  0  0  0  0  0  0  0  0  0  0  0
   -5.3133    9.9886  -13.6191 O   0  0  0  0  0  0  0  0  0  0  0  0
   -5.6225    8.6296  -13.2393 C   0  0  2  0  0  0  0  0  0  0  0  0
   -6.2158    8.6766  -12.0051 F   0  0  0  0  0  0  0  0  0  0  0  0
   -4.5050    7.8332  -13.1272 F   0  0  0  0  0  0  0  0  0  0  0  0
   -6.5184    8.0311  -14.0932 F   0  0  0  0  0  0  0  0  0  0  0  0
   -4.1075    2.4882  -27.0528 C   0  0  1  0  0  0  0  0  0  0  0  0
   -3.0994    2.9266  -28.1562 C   0  0  0  0  0  0  0  0  0  0  0  0
   -4.2627    0.9228  -27.0104 C   0  0  2  0  0  0  0  0  0  0  0  0
   -5.6248    0.8235  -27.3021 N   0  0  0  0  0  0  0  0  0  0  0  0
   -6.2034    1.9846  -27.5073 C   0  0  0  0  0  0  0  0  0  0  0  0
   -5.4006    3.0664  -27.3907 O   0  0  0  0  0  0  0  0  0  0  0  0
   -7.5053    1.8216  -27.7899 N   0  0  0  0  0  0  0  0  0  0  0  0
   -7.7319    0.4859  -27.7422 C   0  0  0  0  0  0  0  0  0  0  0  0
   -6.5250   -0.1534  -27.4297 C   0  0  0  0  0  0  0  0  0  0  0  0
   -8.9020   -0.1034  -27.9513 N   0  0  0  0  0  0  0  0  0  0  0  0
   -9.0673   -1.3531  -27.7827 O   0  0  0  0  0  0  0  0  0  0  0  0
   -9.8317    0.5129  -28.2948 O   0  0  0  0  0  0  0  0  0  0  0  0
   -2.7280    2.5590  -25.3748 H   0  0  0  0  0  0  0  0  0  0  0  0
   -4.4365    2.7804  -24.9182 H   0  0  0  0  0  0  0  0  0  0  0  0
   -5.0241    5.6744  -23.9701 H   0  0  0  0  0  0  0  0  0  0  0  0
   -4.3365    6.7227  -21.9235 H   0  0  0  0  0  0  0  0  0  0  0  0
   -0.3067    5.5684  -22.5099 H   0  0  0  0  0  0  0  0  0  0  0  0
   -1.0538    4.5361  -24.7462 H   0  0  0  0  0  0  0  0  0  0  0  0
   -0.3800    7.9464  -21.7689 H   0  0  0  0  0  0  0  0  0  0  0  0
   -0.0364    7.3337  -20.1489 H   0  0  0  0  0  0  0  0  0  0  0  0
   -0.4935    9.7376  -20.0264 H   0  0  0  0  0  0  0  0  0  0  0  0
   -1.9897    9.5507  -20.9413 H   0  0  0  0  0  0  0  0  0  0  0  0
   -1.3978    8.5584  -18.1102 H   0  0  0  0  0  0  0  0  0  0  0  0
   -3.6209    7.5045  -18.0534 H   0  0  0  0  0  0  0  0  0  0  0  0
   -4.0129    8.1104  -19.6678 H   0  0  0  0  0  0  0  0  0  0  0  0
   -1.8896    6.0203  -18.9396 H   0  0  0  0  0  0  0  0  0  0  0  0
   -3.3959    5.7315  -19.7812 H   0  0  0  0  0  0  0  0  0  0  0  0
   -5.2449   10.2192  -18.1358 H   0  0  0  0  0  0  0  0  0  0  0  0
   -6.4142   10.1270  -16.0136 H   0  0  0  0  0  0  0  0  0  0  0  0
   -2.7223   10.2247  -13.9819 H   0  0  0  0  0  0  0  0  0  0  0  0
   -1.5590   10.3235  -16.1019 H   0  0  0  0  0  0  0  0  0  0  0  0
   -3.4131    2.5441  -29.1293 H   0  0  0  0  0  0  0  0  0  0  0  0
   -3.0434    4.0154  -28.2252 H   0  0  0  0  0  0  0  0  0  0  0  0
   -2.1024    2.5403  -27.9354 H   0  0  0  0  0  0  0  0  0  0  0  0
   -4.0550    0.4872  -26.0288 H   0  0  0  0  0  0  0  0  0  0  0  0
   -3.6744    0.4063  -27.7737 H   0  0  0  0  0  0  0  0  0  0  0  0
   -6.3574   -1.1566  -27.3184 H   0  0  0  0  0  0  0  0  0  0  0  0
  1  2  1  0  0  0  0 
 27  1  1  0  0  0  0 
  2  3  1  0  0  0  0 
  3  4  2  0  0  0  0 
  3  8  1  0  0  0  0 
  4  5  1  0  0  0  0 
  5  6  2  0  0  0  0 
  6  9  1  0  0  0  0 
  7  6  1  0  0  0  0 
  8  7  2  0  0  0  0 
  9 10  1  0  0  0  0 
  9 14  1  0  0  0  0 
 10 11  1  0  0  0  0 
 11 12  1  0  0  0  0 
 12 15  1  0  0  0  0 
 13 12  1  0  0  0  0 
 14 13  1  0  0  0  0 
 15 16  1  0  0  0  0 
 16 17  2  0  0  0  0 
 16 21  1  0  0  0  0 
 17 18  1  0  0  0  0 
 18 19  2  0  0  0  0 
 19 22  1  0  0  0  0 
 20 19  1  0  0  0  0 
 21 20  2  0  0  0  0 
 22 23  1  0  0  0  0 
 23 24  1  0  0  0  0 
 23 25  1  0  0  0  0 
 23 26  1  0  0  0  0 
 27 28  1  0  0  0  0 
 27 29  1  0  0  0  0 
 27 32  1  0  0  0  0 
 29 30  1  0  0  0  0 
 30 31  1  0  0  0  0 
 30 35  1  0  0  0  0 
 31 33  2  0  0  0  0 
 32 31  1  0  0  0  0 
 33 34  1  0  0  0  0 
 34 36  1  0  0  0  0 
 35 34  2  0  0  0  0 
 36 37  1  0  0  0  0 
 36 38  2  0  0  0  0 
  1 39  1  0  0  0  0 
  1 40  1  0  0  0  0 
  4 41  1  0  0  0  0 
  5 42  1  0  0  0  0 
  7 43  1  0  0  0  0 
  8 44  1  0  0  0  0 
 10 45  1  0  0  0  0 
 10 46  1  0  0  0  0 
 11 47  1  0  0  0  0 
 11 48  1  0  0  0  0 
 12 49  1  0  0  0  0 
 13 50  1  0  0  0  0 
 13 51  1  0  0  0  0 
 14 52  1  0  0  0  0 
 14 53  1  0  0  0  0 
 17 54  1  0  0  0  0 
 18 55  1  0  0  0  0 
 20 56  1  0  0  0  0 
 21 57  1  0  0  0  0 
 28 58  1  0  0  0  0 
 28 59  1  0  0  0  0 
 28 60  1  0  0  0  0 
 29 61  1  0  0  0  0 
 29 62  1  0  0  0  0 
 35 63  1  0  0  0  0 
M  CHG  1  36   1
M  CHG  1  37  -1
M  END
> <cdk:Title>
delamanid

> <Conformer>
1

> <SuperDrugID>
SD003781

$$$$
