gemigliptin
  CDK     0628171802

 52 54  0  0  0  0  0  0  0  0999 V2000
   -1.5591   -4.9505    2.4010 C   0  0  2  0  0  0  0  0  0  0  0  0
   -0.8918   -4.3134    3.4184 F   0  0  0  0  0  0  0  0  0  0  0  0
   -2.5991   -5.6331    2.9908 F   0  0  0  0  0  0  0  0  0  0  0  0
   -0.7398   -5.9024    1.8500 F   0  0  0  0  0  0  0  0  0  0  0  0
   -2.0130   -3.9605    1.3829 C   0  0  0  0  0  0  0  0  0  0  0  0
   -1.1427   -3.1491    0.5973 C   0  0  0  0  0  0  0  0  0  0  0  0
   -1.7481   -2.1819   -0.2531 C   0  0  0  0  0  0  0  0  0  0  0  0
   -0.9289   -1.2155   -1.0321 C   0  0  2  0  0  0  0  0  0  0  0  0
    0.3675   -1.0380   -0.4017 N   0  0  0  0  0  0  0  0  0  0  0  0
    1.1090   -2.2816   -0.2869 C   0  0  1  0  0  0  0  0  0  0  0  0
    0.3503   -3.2370    0.6788 C   0  0  2  0  0  0  0  0  0  0  0  0
    0.8495    0.1677    0.1093 C   0  0  0  0  0  0  0  0  0  0  0  0
    0.1215    1.4717    0.1388 C   0  0  2  0  0  0  0  0  0  0  0  0
   -1.1044    1.5387    1.0965 C   0  0  1  0  0  0  0  0  0  0  0  0
   -0.7734    1.2736    2.5985 C   0  0  2  0  0  0  0  0  0  0  0  0
   -1.9910    1.0038    3.3422 N   0  0  0  0  0  0  0  0  0  0  0  0
   -2.6184    2.0703    4.0986 C   0  0  1  0  0  0  0  0  0  0  0  0
   -4.1684    1.9978    4.0589 C   0  0  1  0  0  0  0  0  0  0  0  0
   -4.7153    2.9893    4.8424 F   0  0  0  0  0  0  0  0  0  0  0  0
   -4.6187    2.1977    2.7706 F   0  0  0  0  0  0  0  0  0  0  0  0
   -4.6122    0.6069    4.5782 C   0  0  1  0  0  0  0  0  0  0  0  0
   -3.9396   -0.5539    3.7957 C   0  0  1  0  0  0  0  0  0  0  0  0
   -2.5749   -0.2539    3.2953 C   0  0  0  0  0  0  0  0  0  0  0  0
   -1.9773   -1.2132    2.7559 O   0  0  0  0  0  0  0  0  0  0  0  0
   -1.7295    2.8647    0.9452 N   0  0  1  0  0  0  0  0  0  0  0  0
    1.9981    0.2068    0.6160 O   0  0  0  0  0  0  0  0  0  0  0  0
   -3.1013   -2.1059   -0.3365 N   0  0  0  0  0  0  0  0  0  0  0  0
   -3.9210   -2.8996    0.3956 C   0  0  0  0  0  0  0  0  0  0  0  0
   -3.3553   -3.7983    1.2358 N   0  0  0  0  0  0  0  0  0  0  0  0
   -5.3873   -2.7985    0.2776 C   0  0  2  0  0  0  0  0  0  0  0  0
   -5.7993   -3.5308   -0.8078 F   0  0  0  0  0  0  0  0  0  0  0  0
   -5.7813   -1.4926    0.1133 F   0  0  0  0  0  0  0  0  0  0  0  0
   -6.0293   -3.2739    1.3979 F   0  0  0  0  0  0  0  0  0  0  0  0
   -1.4757   -0.2830   -1.1629 H   0  0  0  0  0  0  0  0  0  0  0  0
   -0.7945   -1.6134   -2.0421 H   0  0  0  0  0  0  0  0  0  0  0  0
    1.1956   -2.7507   -1.2728 H   0  0  0  0  0  0  0  0  0  0  0  0
    2.1340   -2.1553    0.0719 H   0  0  0  0  0  0  0  0  0  0  0  0
    0.6785   -4.2589    0.4707 H   0  0  0  0  0  0  0  0  0  0  0  0
    0.6489   -2.9850    1.6989 H   0  0  0  0  0  0  0  0  0  0  0  0
   -0.1912    1.7125   -0.8803 H   0  0  0  0  0  0  0  0  0  0  0  0
    0.8057    2.2720    0.4439 H   0  0  0  0  0  0  0  0  0  0  0  0
   -1.8442    0.8087    0.7701 H   0  0  0  0  0  0  0  0  0  0  0  0
   -0.2376    2.1318    3.0139 H   0  0  0  0  0  0  0  0  0  0  0  0
   -0.0882    0.4263    2.6934 H   0  0  0  0  0  0  0  0  0  0  0  0
   -2.2762    1.9918    5.1344 H   0  0  0  0  0  0  0  0  0  0  0  0
   -2.3164    3.0589    3.7408 H   0  0  0  0  0  0  0  0  0  0  0  0
   -4.3474    0.5266    5.6380 H   0  0  0  0  0  0  0  0  0  0  0  0
   -5.6994    0.5090    4.5013 H   0  0  0  0  0  0  0  0  0  0  0  0
   -3.9085   -1.4387    4.4367 H   0  0  0  0  0  0  0  0  0  0  0  0
   -4.5552   -0.7963    2.9245 H   0  0  0  0  0  0  0  0  0  0  0  0
   -2.5355    2.9034    1.5711 H   0  0  0  0  0  0  0  0  0  0  0  0
   -1.0565    3.5550    1.2858 H   0  0  0  0  0  0  0  0  0  0  0  0
  1  2  1  0  0  0  0 
  1  3  1  0  0  0  0 
  1  4  1  0  0  0  0 
  1  5  1  0  0  0  0 
  5  6  2  0  0  0  0 
  5 29  1  0  0  0  0 
  6  7  1  0  0  0  0 
  6 11  1  0  0  0  0 
  7  8  1  0  0  0  0 
  7 27  2  0  0  0  0 
  8  9  1  0  0  0  0 
  9 12  1  0  0  0  0 
 10  9  1  0  0  0  0 
 11 10  1  0  0  0  0 
 12 13  1  0  0  0  0 
 12 26  2  0  0  0  0 
 14 13  1  0  0  0  0 
 14 15  1  0  0  0  0 
 14 25  1  0  0  0  0 
 15 16  1  0  0  0  0 
 16 17  1  0  0  0  0 
 16 23  1  0  0  0  0 
 17 18  1  0  0  0  0 
 18 19  1  0  0  0  0 
 18 20  1  0  0  0  0 
 18 21  1  0  0  0  0 
 22 21  1  0  0  0  0 
 23 22  1  0  0  0  0 
 23 24  2  0  0  0  0 
 28 27  1  0  0  0  0 
 28 30  1  0  0  0  0 
 29 28  2  0  0  0  0 
 30 31  1  0  0  0  0 
 30 32  1  0  0  0  0 
 30 33  1  0  0  0  0 
  8 34  1  0  0  0  0 
  8 35  1  0  0  0  0 
 10 36  1  0  0  0  0 
 10 37  1  0  0  0  0 
 11 38  1  0  0  0  0 
 11 39  1  0  0  0  0 
 13 40  1  0  0  0  0 
 13 41  1  0  0  0  0 
 14 42  1  0  0  0  0 
 15 43  1  0  0  0  0 
 15 44  1  0  0  0  0 
 17 45  1  0  0  0  0 
 17 46  1  0  0  0  0 
 21 47  1  0  0  0  0 
 21 48  1  0  0  0  0 
 22 49  1  0  0  0  0 
 22 50  1  0  0  0  0 
 25 51  1  0  0  0  0 
 25 52  1  0  0  0  0 
M  END
> <cdk:Title>
gemigliptin

> <Conformer>
1

> <SuperDrugID>
SD003794

$$$$
