chloroxine
  CDK     0628171802

 18 19  0  0  0  0  0  0  0  0999 V2000
    0.8704   -0.5337   -0.1159 O   0  0  0  0  0  0  0  0  0  0  0  0
    0.2765    0.2876    0.7941 C   0  0  0  0  0  0  0  0  0  0  0  0
    0.9003    0.5840    2.0287 C   0  0  0  0  0  0  0  0  0  0  0  0
   -0.9841    0.8459    0.4989 C   0  0  0  0  0  0  0  0  0  0  0  0
    0.2657    1.4446    2.9730 C   0  0  0  0  0  0  0  0  0  0  0  0
    2.1158    0.0442    2.3240 N   0  0  0  0  0  0  0  0  0  0  0  0
   -1.7669    0.5188   -0.9684 Cl  0  0  0  0  0  0  0  0  0  0  0  0
   -1.6112    1.6969    1.4267 C   0  0  0  0  0  0  0  0  0  0  0  0
   -1.0003    2.0009    2.6578 C   0  0  0  0  0  0  0  0  0  0  0  0
    0.9431    1.7003    4.1898 C   0  0  0  0  0  0  0  0  0  0  0  0
    2.7732    0.2828    3.4877 C   0  0  0  0  0  0  0  0  0  0  0  0
   -1.8469    3.0364    3.7044 Cl  0  0  0  0  0  0  0  0  0  0  0  0
    2.1952    1.1224    4.4517 C   0  0  0  0  0  0  0  0  0  0  0  0
    1.8363   -0.4362    0.0189 H   0  0  0  0  0  0  0  0  0  0  0  0
   -2.5240    2.0997    1.2020 H   0  0  0  0  0  0  0  0  0  0  0  0
    0.5385    2.3078    4.9045 H   0  0  0  0  0  0  0  0  0  0  0  0
    3.6839   -0.1455    3.6645 H   0  0  0  0  0  0  0  0  0  0  0  0
    2.6741    1.3142    5.3331 H   0  0  0  0  0  0  0  0  0  0  0  0
  1  2  1  0  0  0  0 
  2  3  2  0  0  0  0 
  2  4  1  0  0  0  0 
  3  5  1  0  0  0  0 
  3  6  1  0  0  0  0 
  4  7  1  0  0  0  0 
  4  8  2  0  0  0  0 
  5  9  2  0  0  0  0 
  5 10  1  0  0  0  0 
  6 11  2  0  0  0  0 
  8  9  1  0  0  0  0 
  9 12  1  0  0  0  0 
 10 13  2  0  0  0  0 
 11 13  1  0  0  0  0 
  1 14  1  0  0  0  0 
  8 15  1  0  0  0  0 
 10 16  1  0  0  0  0 
 11 17  1  0  0  0  0 
 13 18  1  0  0  0  0 
M  END
> <cdk:Title>
chloroxine

> <Conformer>
1

> <SuperDrugID>
SD000533

$$$$
