prednival
  CDK     0628171801

 68 71  0  0  0  0  0  0  0  0999 V2000
    1.3394    1.8671    0.9705 O   0  0  0  0  0  0  0  0  0  0  0  0
    2.4757    1.3533    0.4053 C   0  0  0  0  0  0  0  0  0  0  0  0
   -0.0518    1.4514    0.9534 C   0  0  1  0  0  0  0  0  0  0  0  0
    3.6722    1.2374    1.2634 C   0  0  2  0  0  0  0  0  0  0  0  0
    2.5133    0.9631   -0.7854 O   0  0  0  0  0  0  0  0  0  0  0  0
   -0.3291    1.3763    2.4332 C   0  0  0  0  0  0  0  0  0  0  0  0
   -1.0046    2.4222    0.1404 C   0  0  2  0  0  0  0  0  0  0  0  0
   -0.2559    0.0912    0.1874 C   0  0  2  0  0  0  0  0  0  0  0  0
    3.5717    0.0327    2.2532 C   0  0  2  0  0  0  0  0  0  0  0  0
   -0.1001    2.5197    3.3595 C   0  0  2  0  0  0  0  0  0  0  0  0
   -0.7243    0.3012    2.9446 O   0  0  0  0  0  0  0  0  0  0  0  0
   -2.5105    2.1722    0.5618 C   0  0  0  0  0  0  0  0  0  0  0  0
   -0.6696    1.9849   -1.3235 C   0  0  1  0  0  0  0  0  0  0  0  0
   -0.6946    3.9605    0.2064 C   0  0  2  0  0  0  0  0  0  0  0  0
   -0.6414    0.4393   -1.2733 C   0  0  1  0  0  0  0  0  0  0  0  0
    3.9620    0.4373    3.7978 C   0  0  2  0  0  0  0  0  0  0  0  0
   -0.0439    2.1245    4.7284 O   0  0  0  0  0  0  0  0  0  0  0  0
   -1.5463    2.6878   -2.4129 C   0  0  1  0  0  0  0  0  0  0  0  0
   -1.4844    4.8145   -0.8415 C   0  0  1  0  0  0  0  0  0  0  0  0
    3.9139   -0.7185    4.8656 C   0  0  0  0  0  0  0  0  0  0  0  0
   -1.4108    4.2610   -2.3191 C   0  0  2  0  0  0  0  0  0  0  0  0
   -1.1825    2.2195   -3.8566 C   0  0  1  0  0  0  0  0  0  0  0  0
   -2.8209    5.0203   -0.3941 O   0  0  0  0  0  0  0  0  0  0  0  0
   -2.2963    5.0000   -3.4249 C   0  0  2  0  0  0  0  0  0  0  0  0
   -2.0372    2.9438   -4.9266 C   0  0  2  0  0  0  0  0  0  0  0  0
   -3.8522    4.8595   -3.2245 C   0  0  0  0  0  0  0  0  0  0  0  0
   -1.9443    4.4007   -4.7574 C   0  0  0  0  0  0  0  0  0  0  0  0
   -2.0302    6.4600   -3.3830 C   0  0  0  0  0  0  0  0  0  0  0  0
   -1.5003    5.1659   -5.7806 C   0  0  0  0  0  0  0  0  0  0  0  0
   -1.5716    7.1574   -4.4343 C   0  0  0  0  0  0  0  0  0  0  0  0
   -1.3196    6.5309   -5.6387 C   0  0  0  0  0  0  0  0  0  0  0  0
   -0.9035    7.2061   -6.6087 O   0  0  0  0  0  0  0  0  0  0  0  0
    3.7955    2.1799    1.8010 H   0  0  0  0  0  0  0  0  0  0  0  0
    4.5642    1.1115    0.6435 H   0  0  0  0  0  0  0  0  0  0  0  0
   -1.0692   -0.4956    0.6176 H   0  0  0  0  0  0  0  0  0  0  0  0
    0.6245   -0.5507    0.2295 H   0  0  0  0  0  0  0  0  0  0  0  0
    4.2506   -0.7609    1.9280 H   0  0  0  0  0  0  0  0  0  0  0  0
    2.5610   -0.3876    2.2753 H   0  0  0  0  0  0  0  0  0  0  0  0
   -0.9039    3.2489    3.2611 H   0  0  0  0  0  0  0  0  0  0  0  0
    0.8485    3.0133    3.1377 H   0  0  0  0  0  0  0  0  0  0  0  0
   -3.2253    2.6385   -0.1079 H   0  0  0  0  0  0  0  0  0  0  0  0
   -2.7693    1.1158    0.5798 H   0  0  0  0  0  0  0  0  0  0  0  0
   -2.7005    2.5727    1.5582 H   0  0  0  0  0  0  0  0  0  0  0  0
    0.3597    2.2914   -1.5478 H   0  0  0  0  0  0  0  0  0  0  0  0
    0.3732    4.1233    0.0356 H   0  0  0  0  0  0  0  0  0  0  0  0
   -0.9077    4.3507    1.2012 H   0  0  0  0  0  0  0  0  0  0  0  0
    0.0903    0.0375   -1.9816 H   0  0  0  0  0  0  0  0  0  0  0  0
   -1.6250    0.0255   -1.5173 H   0  0  0  0  0  0  0  0  0  0  0  0
    3.2936    1.2259    4.2373 H   0  0  0  0  0  0  0  0  0  0  0  0
    4.9925    0.8678    3.9055 H   0  0  0  0  0  0  0  0  0  0  0  0
   -0.9078    1.7039    4.9131 H   0  0  0  0  0  0  0  0  0  0  0  0
   -2.5807    2.3930   -2.2457 H   0  0  0  0  0  0  0  0  0  0  0  0
   -1.0291    5.8089   -0.8265 H   0  0  0  0  0  0  0  0  0  0  0  0
    4.1706   -0.3373    5.8561 H   0  0  0  0  0  0  0  0  0  0  0  0
    4.6221   -1.5057    4.6057 H   0  0  0  0  0  0  0  0  0  0  0  0
    2.9112   -1.1477    4.9101 H   0  0  0  0  0  0  0  0  0  0  0  0
   -0.3690    4.4696   -2.5981 H   0  0  0  0  0  0  0  0  0  0  0  0
   -0.1241    2.4150   -4.0571 H   0  0  0  0  0  0  0  0  0  0  0  0
   -1.3443    1.1438   -3.9564 H   0  0  0  0  0  0  0  0  0  0  0  0
   -2.7407    5.4703    0.4730 H   0  0  0  0  0  0  0  0  0  0  0  0
   -3.0784    2.6285   -4.8391 H   0  0  0  0  0  0  0  0  0  0  0  0
   -1.6976    2.6081   -5.9120 H   0  0  0  0  0  0  0  0  0  0  0  0
   -4.2186    5.4437   -2.3801 H   0  0  0  0  0  0  0  0  0  0  0  0
   -4.1580    3.8293   -3.0530 H   0  0  0  0  0  0  0  0  0  0  0  0
   -4.3908    5.2153   -4.1064 H   0  0  0  0  0  0  0  0  0  0  0  0
   -2.2146    6.9654   -2.5457 H   0  0  0  0  0  0  0  0  0  0  0  0
   -1.2811    4.7539   -6.6586 H   0  0  0  0  0  0  0  0  0  0  0  0
   -1.4176    8.1361   -4.3439 H   0  0  0  0  0  0  0  0  0  0  0  0
  1  2  1  0  0  0  0 
  2  4  1  0  0  0  0 
  2  5  2  0  0  0  0 
  3  1  1  0  0  0  0 
  3  6  1  0  0  0  0 
  7  3  1  0  0  0  0 
  3  8  1  0  0  0  0 
  4  9  1  0  0  0  0 
  6 10  1  0  0  0  0 
  6 11  2  0  0  0  0 
  7 12  1  0  0  0  0 
 13  7  1  0  0  0  0 
  7 14  1  0  0  0  0 
  8 15  1  0  0  0  0 
  9 16  1  0  0  0  0 
 10 17  1  0  0  0  0 
 13 15  1  0  0  0  0 
 18 13  1  0  0  0  0 
 19 14  1  0  0  0  0 
 16 20  1  0  0  0  0 
 21 18  1  0  0  0  0 
 18 22  1  0  0  0  0 
 21 19  1  0  0  0  0 
 19 23  1  0  0  0  0 
 21 24  1  0  0  0  0 
 22 25  1  0  0  0  0 
 24 26  1  0  0  0  0 
 24 27  1  0  0  0  0 
 24 28  1  0  0  0  0 
 25 27  1  0  0  0  0 
 27 29  2  0  0  0  0 
 28 30  2  0  0  0  0 
 29 31  1  0  0  0  0 
 30 31  1  0  0  0  0 
 31 32  2  0  0  0  0 
 33  4  1  0  0  0  0 
 34  4  1  0  0  0  0 
 35  8  1  0  0  0  0 
 36  8  1  0  0  0  0 
 37  9  1  0  0  0  0 
 38  9  1  0  0  0  0 
 39 10  1  0  0  0  0 
 40 10  1  0  0  0  0 
 41 12  1  0  0  0  0 
 42 12  1  0  0  0  0 
 43 12  1  0  0  0  0 
 13 44  1  0  0  0  0 
 45 14  1  0  0  0  0 
 46 14  1  0  0  0  0 
 47 15  1  0  0  0  0 
 48 15  1  0  0  0  0 
 49 16  1  0  0  0  0 
 50 16  1  0  0  0  0 
 51 17  1  0  0  0  0 
 18 52  1  0  0  0  0 
 19 53  1  0  0  0  0 
 54 20  1  0  0  0  0 
 55 20  1  0  0  0  0 
 56 20  1  0  0  0  0 
 21 57  1  0  0  0  0 
 58 22  1  0  0  0  0 
 59 22  1  0  0  0  0 
 60 23  1  0  0  0  0 
 61 25  1  0  0  0  0 
 62 25  1  0  0  0  0 
 63 26  1  0  0  0  0 
 64 26  1  0  0  0  0 
 65 26  1  0  0  0  0 
 66 28  1  0  0  0  0 
 67 29  1  0  0  0  0 
 68 30  1  0  0  0  0 
M  END
> <cdk:Title>
prednival

> <Conformer>
1

> <SuperDrugID>
SD003007

$$$$
