isosorbide dinitrate
  CDK     0628171801

 24 25  0  0  0  0  0  0  0  0999 V2000
    3.0320   -7.1268    0.9385 O   0  0  0  0  0  0  0  0  0  0  0  0
    2.5702   -6.8050    2.0742 N   0  0  0  0  0  0  0  0  0  0  0  0
    2.5440   -7.6042    2.9221 O   0  0  0  0  0  0  0  0  0  0  0  0
    2.1949   -5.6034    2.3040 O   0  0  0  0  0  0  0  0  0  0  0  0
    0.7896   -5.3894    2.0508 C   0  0  2  0  0  0  0  0  0  0  0  0
    0.3831   -5.4245    0.5665 C   0  0  1  0  0  0  0  0  0  0  0  0
   -0.8035   -4.6321    0.4529 O   0  0  0  0  0  0  0  0  0  0  0  0
   -0.7749   -3.6311    1.4858 C   0  0  2  0  0  0  0  0  0  0  0  0
   -0.4168   -2.2240    0.9626 C   0  0  2  0  0  0  0  0  0  0  0  0
    1.1054   -2.1755    1.1779 C   0  0  1  0  0  0  0  0  0  0  0  0
    1.3925   -2.9824    2.3239 O   0  0  0  0  0  0  0  0  0  0  0  0
    0.3582   -3.9726    2.4643 C   0  0  2  0  0  0  0  0  0  0  0  0
   -1.0271   -1.1665    1.7403 O   0  0  0  0  0  0  0  0  0  0  0  0
   -2.2674   -0.9764    1.4820 N   0  0  0  0  0  0  0  0  0  0  0  0
   -2.6456   -0.4605    0.3853 O   0  0  0  0  0  0  0  0  0  0  0  0
   -3.0659   -1.2096    2.2982 O   0  0  0  0  0  0  0  0  0  0  0  0
    0.1810   -6.1134    2.6091 H   0  0  0  0  0  0  0  0  0  0  0  0
    1.1690   -5.0000   -0.0636 H   0  0  0  0  0  0  0  0  0  0  0  0
    0.1845   -6.4480    0.2393 H   0  0  0  0  0  0  0  0  0  0  0  0
   -1.7446   -3.6403    1.9891 H   0  0  0  0  0  0  0  0  0  0  0  0
   -0.6417   -2.1165   -0.1058 H   0  0  0  0  0  0  0  0  0  0  0  0
    1.6346   -2.5741    0.3088 H   0  0  0  0  0  0  0  0  0  0  0  0
    1.4564   -1.1549    1.3458 H   0  0  0  0  0  0  0  0  0  0  0  0
    0.0071   -3.9637    3.5003 H   0  0  0  0  0  0  0  0  0  0  0  0
  1  2  1  0  0  0  0 
  2  3  2  0  0  0  0 
  2  4  1  0  0  0  0 
  5  4  1  0  0  0  0 
  5  6  1  0  0  0  0 
  6  7  1  0  0  0  0 
  8  7  1  0  0  0  0 
  8  9  1  0  0  0  0 
  9 10  1  0  0  0  0 
 10 11  1  0  0  0  0 
 12 11  1  0  0  0  0 
  5 12  1  0  0  0  0 
  8 12  1  0  0  0  0 
  9 13  1  0  0  0  0 
 13 14  1  0  0  0  0 
 14 15  1  0  0  0  0 
 14 16  2  0  0  0  0 
  5 17  1  0  0  0  0 
  6 18  1  0  0  0  0 
  6 19  1  0  0  0  0 
  8 20  1  0  0  0  0 
  9 21  1  0  0  0  0 
 10 22  1  0  0  0  0 
 10 23  1  0  0  0  0 
 12 24  1  0  0  0  0 
M  CHG  1   1  -1
M  CHG  1   2   1
M  CHG  1  14   1
M  CHG  1  15  -1
M  END
> <cdk:Title>
isosorbide dinitrate

> <Conformer>
1

> <SuperDrugID>
SD001332

$$$$
