lorcainide
  CDK     0628171801

 53 55  0  0  0  0  0  0  0  0999 V2000
   -1.2493   -0.6761   -5.7238 N   0  0  0  0  0  0  0  0  0  0  0  0
   -1.6631   -1.6111   -4.7781 C   0  0  0  0  0  0  0  0  0  0  0  0
   -0.2026    0.3167   -5.4762 C   0  0  2  0  0  0  0  0  0  0  0  0
   -1.8580   -0.6010   -6.9540 C   0  0  0  0  0  0  0  0  0  0  0  0
   -2.6021   -2.7428   -5.0255 C   0  0  2  0  0  0  0  0  0  0  0  0
   -1.2424   -1.5435   -3.5976 O   0  0  0  0  0  0  0  0  0  0  0  0
    1.1636   -0.2864   -5.0248 C   0  0  2  0  0  0  0  0  0  0  0  0
   -0.6636    1.4489   -4.5115 C   0  0  1  0  0  0  0  0  0  0  0  0
   -1.2876   -1.2204   -8.0881 C   0  0  0  0  0  0  0  0  0  0  0  0
   -3.0200    0.1881   -7.1102 C   0  0  0  0  0  0  0  0  0  0  0  0
   -1.9603   -4.0669   -4.7783 C   0  0  0  0  0  0  0  0  0  0  0  0
    2.2357    0.8238   -4.8573 C   0  0  1  0  0  0  0  0  0  0  0  0
    0.4396    2.5297   -4.3623 C   0  0  1  0  0  0  0  0  0  0  0  0
   -1.8558   -1.0288   -9.3618 C   0  0  0  0  0  0  0  0  0  0  0  0
   -3.5829    0.3870   -8.3830 C   0  0  0  0  0  0  0  0  0  0  0  0
   -2.4078   -4.9226   -3.7413 C   0  0  0  0  0  0  0  0  0  0  0  0
   -0.8789   -4.4978   -5.5855 C   0  0  0  0  0  0  0  0  0  0  0  0
    1.7670    1.9497   -3.9867 N   0  0  0  0  0  0  0  0  0  0  0  0
   -2.9961   -0.2148   -9.5134 C   0  0  0  0  0  0  0  0  0  0  0  0
   -1.7943   -6.1709   -3.5198 C   0  0  0  0  0  0  0  0  0  0  0  0
   -0.2658   -5.7444   -5.3643 C   0  0  0  0  0  0  0  0  0  0  0  0
    2.2238    2.0446   -2.5582 C   0  0  2  0  0  0  0  0  0  0  0  0
   -3.6495    0.0526  -11.0514 Cl  0  0  0  0  0  0  0  0  0  0  0  0
   -0.7228   -6.5808   -4.3319 C   0  0  0  0  0  0  0  0  0  0  0  0
    3.7210    2.4430   -2.5015 C   0  0  0  0  0  0  0  0  0  0  0  0
    1.9314    0.7786   -1.7112 C   0  0  0  0  0  0  0  0  0  0  0  0
    0.0291    0.8344   -6.4190 H   0  0  0  0  0  0  0  0  0  0  0  0
   -2.9827   -2.7458   -6.0477 H   0  0  0  0  0  0  0  0  0  0  0  0
   -3.4685   -2.5975   -4.3762 H   0  0  0  0  0  0  0  0  0  0  0  0
    1.5070   -1.0111   -5.7684 H   0  0  0  0  0  0  0  0  0  0  0  0
    1.0647   -0.8115   -4.0759 H   0  0  0  0  0  0  0  0  0  0  0  0
   -1.5648    1.9208   -4.9128 H   0  0  0  0  0  0  0  0  0  0  0  0
   -0.9078    1.0436   -3.5277 H   0  0  0  0  0  0  0  0  0  0  0  0
   -0.4470   -1.7958   -7.9962 H   0  0  0  0  0  0  0  0  0  0  0  0
   -3.4476    0.6394   -6.2987 H   0  0  0  0  0  0  0  0  0  0  0  0
    3.1537    0.3758   -4.4735 H   0  0  0  0  0  0  0  0  0  0  0  0
    2.4763    1.2337   -5.8419 H   0  0  0  0  0  0  0  0  0  0  0  0
    0.5611    3.0460   -5.3181 H   0  0  0  0  0  0  0  0  0  0  0  0
    0.1082    3.2839   -3.6451 H   0  0  0  0  0  0  0  0  0  0  0  0
   -1.4276   -1.4759  -10.1760 H   0  0  0  0  0  0  0  0  0  0  0  0
   -4.4106    0.9804   -8.4780 H   0  0  0  0  0  0  0  0  0  0  0  0
   -3.1820   -4.6414   -3.1362 H   0  0  0  0  0  0  0  0  0  0  0  0
   -0.5273   -3.9027   -6.3392 H   0  0  0  0  0  0  0  0  0  0  0  0
   -2.1262   -6.7800   -2.7683 H   0  0  0  0  0  0  0  0  0  0  0  0
    0.5126   -6.0431   -5.9555 H   0  0  0  0  0  0  0  0  0  0  0  0
    1.6898    2.8663   -2.0698 H   0  0  0  0  0  0  0  0  0  0  0  0
   -0.2768   -7.4875   -4.1751 H   0  0  0  0  0  0  0  0  0  0  0  0
    4.0034    2.7141   -1.4830 H   0  0  0  0  0  0  0  0  0  0  0  0
    3.9004    3.3056   -3.1455 H   0  0  0  0  0  0  0  0  0  0  0  0
    4.3592    1.6215   -2.8297 H   0  0  0  0  0  0  0  0  0  0  0  0
    2.1987    0.9585   -0.6675 H   0  0  0  0  0  0  0  0  0  0  0  0
    0.8682    0.5364   -1.7555 H   0  0  0  0  0  0  0  0  0  0  0  0
    2.5051   -0.0779   -2.0702 H   0  0  0  0  0  0  0  0  0  0  0  0
  1  2  1  0  0  0  0 
  1  3  1  0  0  0  0 
  1  4  1  0  0  0  0 
  2  5  1  0  0  0  0 
  2  6  2  0  0  0  0 
  3  7  1  0  0  0  0 
  3  8  1  0  0  0  0 
  4  9  2  0  0  0  0 
  4 10  1  0  0  0  0 
  5 11  1  0  0  0  0 
  7 12  1  0  0  0  0 
  8 13  1  0  0  0  0 
  9 14  1  0  0  0  0 
 10 15  2  0  0  0  0 
 11 16  2  0  0  0  0 
 11 17  1  0  0  0  0 
 12 18  1  0  0  0  0 
 13 18  1  0  0  0  0 
 14 19  2  0  0  0  0 
 15 19  1  0  0  0  0 
 16 20  1  0  0  0  0 
 17 21  2  0  0  0  0 
 18 22  1  0  0  0  0 
 19 23  1  0  0  0  0 
 20 24  2  0  0  0  0 
 21 24  1  0  0  0  0 
 22 25  1  0  0  0  0 
 22 26  1  0  0  0  0 
  3 27  1  0  0  0  0 
  5 28  1  0  0  0  0 
  5 29  1  0  0  0  0 
  7 30  1  0  0  0  0 
  7 31  1  0  0  0  0 
  8 32  1  0  0  0  0 
  8 33  1  0  0  0  0 
  9 34  1  0  0  0  0 
 10 35  1  0  0  0  0 
 12 36  1  0  0  0  0 
 12 37  1  0  0  0  0 
 13 38  1  0  0  0  0 
 13 39  1  0  0  0  0 
 14 40  1  0  0  0  0 
 15 41  1  0  0  0  0 
 16 42  1  0  0  0  0 
 17 43  1  0  0  0  0 
 20 44  1  0  0  0  0 
 21 45  1  0  0  0  0 
 22 46  1  0  0  0  0 
 24 47  1  0  0  0  0 
 25 48  1  0  0  0  0 
 25 49  1  0  0  0  0 
 25 50  1  0  0  0  0 
 26 51  1  0  0  0  0 
 26 52  1  0  0  0  0 
 26 53  1  0  0  0  0 
M  END
> <cdk:Title>
lorcainide

> <Conformer>
1

> <SuperDrugID>
SD001421

$$$$
