mitotane
  CDK     0628171801

 28 29  0  0  0  0  0  0  0  0999 V2000
  -42.5719  -11.4980  -35.3085 C   0  0  1  0  0  0  0  0  0  0  0  0
  -41.4296  -11.1961  -34.2802 C   0  0  1  0  0  0  0  0  0  0  0  0
  -42.2394  -11.2939  -36.7683 C   0  0  0  0  0  0  0  0  0  0  0  0
  -43.1497  -12.8706  -35.1101 C   0  0  0  0  0  0  0  0  0  0  0  0
  -40.7541   -9.5787  -34.4629 Cl  0  0  0  0  0  0  0  0  0  0  0  0
  -41.9953  -11.2858  -32.6112 Cl  0  0  0  0  0  0  0  0  0  0  0  0
  -43.2103  -10.8283  -37.7050 C   0  0  0  0  0  0  0  0  0  0  0  0
  -40.9462  -11.6056  -37.2694 C   0  0  0  0  0  0  0  0  0  0  0  0
  -44.4812  -13.0462  -34.6557 C   0  0  0  0  0  0  0  0  0  0  0  0
  -42.3776  -14.0327  -35.3590 C   0  0  0  0  0  0  0  0  0  0  0  0
  -44.8148  -10.4599  -37.2780 Cl  0  0  0  0  0  0  0  0  0  0  0  0
  -42.8767  -10.6692  -39.0664 C   0  0  0  0  0  0  0  0  0  0  0  0
  -40.6219  -11.4559  -38.6269 C   0  0  0  0  0  0  0  0  0  0  0  0
  -45.0192  -14.3316  -34.4601 C   0  0  0  0  0  0  0  0  0  0  0  0
  -42.9144  -15.3183  -35.1729 C   0  0  0  0  0  0  0  0  0  0  0  0
  -41.5862  -10.9807  -39.5256 C   0  0  0  0  0  0  0  0  0  0  0  0
  -44.2352  -15.4717  -34.7150 C   0  0  0  0  0  0  0  0  0  0  0  0
  -44.8757  -17.0183  -34.4711 Cl  0  0  0  0  0  0  0  0  0  0  0  0
  -43.3282  -10.7537  -35.0450 H   0  0  0  0  0  0  0  0  0  0  0  0
  -40.6132  -11.9131  -34.3779 H   0  0  0  0  0  0  0  0  0  0  0  0
  -40.2156  -11.9590  -36.6530 H   0  0  0  0  0  0  0  0  0  0  0  0
  -45.0741  -12.2361  -34.4585 H   0  0  0  0  0  0  0  0  0  0  0  0
  -41.4111  -13.9545  -35.6795 H   0  0  0  0  0  0  0  0  0  0  0  0
  -43.5710  -10.3308  -39.7385 H   0  0  0  0  0  0  0  0  0  0  0  0
  -39.6844  -11.6977  -38.9571 H   0  0  0  0  0  0  0  0  0  0  0  0
  -45.9829  -14.4302  -34.1320 H   0  0  0  0  0  0  0  0  0  0  0  0
  -42.3355  -16.1376  -35.3732 H   0  0  0  0  0  0  0  0  0  0  0  0
  -41.3471  -10.8651  -40.5111 H   0  0  0  0  0  0  0  0  0  0  0  0
  1  2  1  0  0  0  0 
  1  3  1  0  0  0  0 
  1  4  1  0  0  0  0 
  2  5  1  0  0  0  0 
  2  6  1  0  0  0  0 
  3  7  2  0  0  0  0 
  3  8  1  0  0  0  0 
  4  9  2  0  0  0  0 
  4 10  1  0  0  0  0 
  7 11  1  0  0  0  0 
  7 12  1  0  0  0  0 
  8 13  2  0  0  0  0 
  9 14  1  0  0  0  0 
 10 15  2  0  0  0  0 
 12 16  2  0  0  0  0 
 13 16  1  0  0  0  0 
 14 17  2  0  0  0  0 
 15 17  1  0  0  0  0 
 17 18  1  0  0  0  0 
  1 19  1  0  0  0  0 
  2 20  1  0  0  0  0 
  8 21  1  0  0  0  0 
  9 22  1  0  0  0  0 
 10 23  1  0  0  0  0 
 12 24  1  0  0  0  0 
 13 25  1  0  0  0  0 
 14 26  1  0  0  0  0 
 15 27  1  0  0  0  0 
 16 28  1  0  0  0  0 
M  END
> <cdk:Title>
mitotane

> <Conformer>
1

> <SuperDrugID>
SD001619

$$$$
