hexylresorcinol
  CDK     0628171801

 32 32  0  0  0  0  0  0  0  0999 V2000
    0.8748   -0.6652    1.7927 C   0  0  1  0  0  0  0  0  0  0  0  0
    0.9650   -0.2951    3.3022 C   0  0  1  0  0  0  0  0  0  0  0  0
    2.0422   -0.2384    0.9659 C   0  0  0  0  0  0  0  0  0  0  0  0
    2.1317   -0.9467    4.0978 C   0  0  2  0  0  0  0  0  0  0  0  0
    3.0615   -1.1442    0.5668 C   0  0  0  0  0  0  0  0  0  0  0  0
    2.1270    1.1064    0.5308 C   0  0  0  0  0  0  0  0  0  0  0  0
    2.0104   -2.4871    4.2664 C   0  0  1  0  0  0  0  0  0  0  0  0
    3.0421   -2.4469    0.9543 O   0  0  0  0  0  0  0  0  0  0  0  0
    4.1196   -0.7061   -0.2562 C   0  0  0  0  0  0  0  0  0  0  0  0
    3.1830    1.5357   -0.2931 C   0  0  0  0  0  0  0  0  0  0  0  0
    3.2680   -3.1339    4.9037 C   0  0  1  0  0  0  0  0  0  0  0  0
    4.1800    0.6299   -0.6932 C   0  0  0  0  0  0  0  0  0  0  0  0
    3.1420   -4.6692    5.0266 C   0  0  0  0  0  0  0  0  0  0  0  0
    5.1857    1.0572   -1.4963 O   0  0  0  0  0  0  0  0  0  0  0  0
    0.7043   -1.7377    1.6885 H   0  0  0  0  0  0  0  0  0  0  0  0
   -0.0217   -0.1891    1.3861 H   0  0  0  0  0  0  0  0  0  0  0  0
    1.0515    0.7915    3.3893 H   0  0  0  0  0  0  0  0  0  0  0  0
    0.0229   -0.5769    3.7822 H   0  0  0  0  0  0  0  0  0  0  0  0
    2.1469   -0.5006    5.0977 H   0  0  0  0  0  0  0  0  0  0  0  0
    3.0772   -0.6951    3.6108 H   0  0  0  0  0  0  0  0  0  0  0  0
    1.4097    1.7830    0.8045 H   0  0  0  0  0  0  0  0  0  0  0  0
    1.1412   -2.7035    4.8915 H   0  0  0  0  0  0  0  0  0  0  0  0
    1.8414   -2.9541    3.2971 H   0  0  0  0  0  0  0  0  0  0  0  0
    3.9468   -2.7949    0.7966 H   0  0  0  0  0  0  0  0  0  0  0  0
    4.8465   -1.3647   -0.5469 H   0  0  0  0  0  0  0  0  0  0  0  0
    3.2202    2.5095   -0.6036 H   0  0  0  0  0  0  0  0  0  0  0  0
    4.1435   -2.9045    4.2899 H   0  0  0  0  0  0  0  0  0  0  0  0
    3.4269   -2.7134    5.8997 H   0  0  0  0  0  0  0  0  0  0  0  0
    4.0561   -5.0810    5.4562 H   0  0  0  0  0  0  0  0  0  0  0  0
    2.3034   -4.9304    5.6743 H   0  0  0  0  0  0  0  0  0  0  0  0
    2.9856   -5.1195    4.0444 H   0  0  0  0  0  0  0  0  0  0  0  0
    5.7488    0.2712   -1.6535 H   0  0  0  0  0  0  0  0  0  0  0  0
  1  2  1  0  0  0  0 
  1  3  1  0  0  0  0 
  2  4  1  0  0  0  0 
  3  5  2  0  0  0  0 
  3  6  1  0  0  0  0 
  4  7  1  0  0  0  0 
  5  8  1  0  0  0  0 
  5  9  1  0  0  0  0 
  6 10  2  0  0  0  0 
  7 11  1  0  0  0  0 
  9 12  2  0  0  0  0 
 10 12  1  0  0  0  0 
 11 13  1  0  0  0  0 
 12 14  1  0  0  0  0 
  1 15  1  0  0  0  0 
  1 16  1  0  0  0  0 
  2 17  1  0  0  0  0 
  2 18  1  0  0  0  0 
  4 19  1  0  0  0  0 
  4 20  1  0  0  0  0 
  6 21  1  0  0  0  0 
  7 22  1  0  0  0  0 
  7 23  1  0  0  0  0 
  8 24  1  0  0  0  0 
  9 25  1  0  0  0  0 
 10 26  1  0  0  0  0 
 11 27  1  0  0  0  0 
 11 28  1  0  0  0  0 
 13 29  1  0  0  0  0 
 13 30  1  0  0  0  0 
 13 31  1  0  0  0  0 
 14 32  1  0  0  0  0 
M  END
> <cdk:Title>
hexylresorcinol

> <Conformer>
1

> <SuperDrugID>
SD001220

$$$$
