uredepa
  CDK     0628171801

 28 29  0  0  0  0  0  0  0  0999 V2000
    0.1646    2.5575    1.9565 P   0  0  1  0  0  0  0  0  0  0  0  0
    1.4804    3.3887    1.6960 N   0  0  0  0  0  0  0  0  0  0  0  0
    0.3595    1.6544    3.1048 O   0  0  0  0  0  0  0  0  0  0  0  0
   -1.0831    3.6209    2.2203 N   0  0  2  0  0  0  0  0  0  0  0  0
   -0.1870    1.7126    0.5720 N   0  0  2  0  0  0  0  0  0  0  0  0
    1.6724    4.3688    0.8855 C   0  0  0  0  0  0  0  0  0  0  0  0
   -1.3145    4.0185    3.6293 C   0  0  1  0  0  0  0  0  0  0  0  0
   -2.2788    3.0865    2.9081 C   0  0  1  0  0  0  0  0  0  0  0  0
   -1.0225    0.5009    0.7240 C   0  0  1  0  0  0  0  0  0  0  0  0
    0.4709    0.3899    0.4480 C   0  0  1  0  0  0  0  0  0  0  0  0
    2.9000    4.9174    0.8892 O   0  0  0  0  0  0  0  0  0  0  0  0
    0.7098    4.8933    0.1194 O   0  0  0  0  0  0  0  0  0  0  0  0
    3.4873    5.1365   -0.4134 C   0  0  2  0  0  0  0  0  0  0  0  0
    4.8927    5.7519   -0.2685 C   0  0  0  0  0  0  0  0  0  0  0  0
   -0.7591    3.5434    4.4434 H   0  0  0  0  0  0  0  0  0  0  0  0
   -1.7032    5.0258    3.7838 H   0  0  0  0  0  0  0  0  0  0  0  0
   -3.2265    3.5427    2.6172 H   0  0  0  0  0  0  0  0  0  0  0  0
   -2.2800    2.0546    3.2617 H   0  0  0  0  0  0  0  0  0  0  0  0
   -1.3349    0.1754    1.7181 H   0  0  0  0  0  0  0  0  0  0  0  0
   -1.6619    0.2640   -0.1270 H   0  0  0  0  0  0  0  0  0  0  0  0
    0.7108    0.0590   -0.5637 H   0  0  0  0  0  0  0  0  0  0  0  0
    1.0428   -0.0297    1.2793 H   0  0  0  0  0  0  0  0  0  0  0  0
    0.0560    4.1787   -0.0317 H   0  0  0  0  0  0  0  0  0  0  0  0
    2.8770    5.8315   -0.9996 H   0  0  0  0  0  0  0  0  0  0  0  0
    3.5744    4.1923   -0.9603 H   0  0  0  0  0  0  0  0  0  0  0  0
    5.2928    5.9875   -1.2559 H   0  0  0  0  0  0  0  0  0  0  0  0
    4.8422    6.6712    0.3172 H   0  0  0  0  0  0  0  0  0  0  0  0
    5.5671    5.0487    0.2225 H   0  0  0  0  0  0  0  0  0  0  0  0
  2  1  1  0  0  0  0 
  1  3  2  0  0  0  0 
  1  4  1  0  0  0  0 
  1  5  1  0  0  0  0 
  2  6  2  0  0  0  0 
  4  7  1  0  0  0  0 
  4  8  1  0  0  0  0 
  5  9  1  0  0  0  0 
  5 10  1  0  0  0  0 
  6 11  1  0  0  0  0 
  6 12  1  0  0  0  0 
  7  8  1  0  0  0  0 
  9 10  1  0  0  0  0 
 11 13  1  0  0  0  0 
 13 14  1  0  0  0  0 
 15  7  1  0  0  0  0 
 16  7  1  0  0  0  0 
 17  8  1  0  0  0  0 
 18  8  1  0  0  0  0 
 19  9  1  0  0  0  0 
 20  9  1  0  0  0  0 
 21 10  1  0  0  0  0 
 22 10  1  0  0  0  0 
 23 12  1  0  0  0  0 
 24 13  1  0  0  0  0 
 25 13  1  0  0  0  0 
 26 14  1  0  0  0  0 
 27 14  1  0  0  0  0 
 28 14  1  0  0  0  0 
M  END
> <cdk:Title>
uredepa

> <Conformer>
1

> <SuperDrugID>
SD003118

$$$$
