norvinisterone
  CDK     0628171801

 50 53  0  0  0  0  0  0  0  0999 V2000
   -5.4917   -1.6895    5.3698 C   0  0  0  0  0  0  0  0  0  0  0  0
   -4.2770   -0.7272    5.6904 C   0  0  2  0  0  0  0  0  0  0  0  0
   -2.8638   -1.3336    5.3849 C   0  0  2  0  0  0  0  0  0  0  0  0
   -4.1791   -0.5321    7.2610 C   0  0  1  0  0  0  0  0  0  0  0  0
   -4.4252    0.5601    4.7995 C   0  0  2  0  0  0  0  0  0  0  0  0
   -2.6659   -1.7207    3.8804 C   0  0  1  0  0  0  0  0  0  0  0  0
   -2.6747   -2.4054    6.4781 C   0  0  1  0  0  0  0  0  0  0  0  0
   -3.5150    0.7215    7.6644 C   0  0  0  0  0  0  0  0  0  0  0  0
   -5.4572   -0.5821    7.9169 O   0  0  0  0  0  0  0  0  0  0  0  0
   -3.3704   -1.7982    7.7244 C   0  0  1  0  0  0  0  0  0  0  0  0
   -4.1672    0.3046    3.2842 C   0  0  2  0  0  0  0  0  0  0  0  0
   -2.8142   -0.4327    2.9882 C   0  0  2  0  0  0  0  0  0  0  0  0
   -1.2935   -2.3926    3.5905 C   0  0  1  0  0  0  0  0  0  0  0  0
   -4.1477    1.8928    7.8241 C   0  0  0  0  0  0  0  0  0  0  0  0
   -2.5929   -0.7379    1.4554 C   0  0  2  0  0  0  0  0  0  0  0  0
   -1.1768   -2.7541    2.0892 C   0  0  2  0  0  0  0  0  0  0  0  0
   -1.4016   -1.5967    1.2111 C   0  0  0  0  0  0  0  0  0  0  0  0
   -2.5495    0.5964    0.6242 C   0  0  1  0  0  0  0  0  0  0  0  0
   -0.5521   -1.3667    0.1821 C   0  0  0  0  0  0  0  0  0  0  0  0
   -2.0270    0.3702   -0.8110 C   0  0  1  0  0  0  0  0  0  0  0  0
   -0.7437   -0.3576   -0.7492 C   0  0  0  0  0  0  0  0  0  0  0  0
    0.1690   -0.0709   -1.5588 O   0  0  0  0  0  0  0  0  0  0  0  0
   -5.4704   -2.5931    5.9807 H   0  0  0  0  0  0  0  0  0  0  0  0
   -6.4397   -1.1859    5.5751 H   0  0  0  0  0  0  0  0  0  0  0  0
   -5.5207   -2.0056    4.3293 H   0  0  0  0  0  0  0  0  0  0  0  0
   -2.0974   -0.5748    5.5976 H   0  0  0  0  0  0  0  0  0  0  0  0
   -3.7060    1.3201    5.1095 H   0  0  0  0  0  0  0  0  0  0  0  0
   -5.4221    0.9908    4.9245 H   0  0  0  0  0  0  0  0  0  0  0  0
   -3.4309   -2.4469    3.5978 H   0  0  0  0  0  0  0  0  0  0  0  0
   -3.1536   -3.3430    6.1790 H   0  0  0  0  0  0  0  0  0  0  0  0
   -1.6169   -2.6011    6.6782 H   0  0  0  0  0  0  0  0  0  0  0  0
   -2.5285    0.7198    7.7955 H   0  0  0  0  0  0  0  0  0  0  0  0
   -5.2520   -0.6048    8.8749 H   0  0  0  0  0  0  0  0  0  0  0  0
   -2.6293   -1.5571    8.4940 H   0  0  0  0  0  0  0  0  0  0  0  0
   -4.0332   -2.5555    8.1549 H   0  0  0  0  0  0  0  0  0  0  0  0
   -4.1596    1.2831    2.7983 H   0  0  0  0  0  0  0  0  0  0  0  0
   -4.9989   -0.2626    2.8594 H   0  0  0  0  0  0  0  0  0  0  0  0
   -2.0135    0.2535    3.2916 H   0  0  0  0  0  0  0  0  0  0  0  0
   -0.4734   -1.7240    3.8727 H   0  0  0  0  0  0  0  0  0  0  0  0
   -1.1960   -3.3113    4.1761 H   0  0  0  0  0  0  0  0  0  0  0  0
   -5.1268    1.9737    7.6825 H   0  0  0  0  0  0  0  0  0  0  0  0
   -3.6381    2.7063    8.0737 H   0  0  0  0  0  0  0  0  0  0  0  0
   -3.4564   -1.3102    1.1021 H   0  0  0  0  0  0  0  0  0  0  0  0
   -1.9254   -3.5140    1.8459 H   0  0  0  0  0  0  0  0  0  0  0  0
   -0.1967   -3.2170    1.9357 H   0  0  0  0  0  0  0  0  0  0  0  0
   -3.5430    1.0424    0.5548 H   0  0  0  0  0  0  0  0  0  0  0  0
   -1.8907    1.3199    1.1146 H   0  0  0  0  0  0  0  0  0  0  0  0
    0.2504   -1.9444    0.0663 H   0  0  0  0  0  0  0  0  0  0  0  0
   -2.7467   -0.2321   -1.3702 H   0  0  0  0  0  0  0  0  0  0  0  0
   -1.9121    1.3296   -1.3233 H   0  0  0  0  0  0  0  0  0  0  0  0
  2  1  1  0  0  0  0 
  2  3  1  0  0  0  0 
  2  4  1  0  0  0  0 
  2  5  1  0  0  0  0 
  3  6  1  0  0  0  0 
  3  7  1  0  0  0  0 
  4  8  1  0  0  0  0 
  4  9  1  0  0  0  0 
  4 10  1  0  0  0  0 
  5 11  1  0  0  0  0 
  6 12  1  0  0  0  0 
  6 13  1  0  0  0  0 
  7 10  1  0  0  0  0 
  8 14  2  0  0  0  0 
 12 11  1  0  0  0  0 
 12 15  1  0  0  0  0 
 13 16  1  0  0  0  0 
 15 17  1  0  0  0  0 
 15 18  1  0  0  0  0 
 16 17  1  0  0  0  0 
 17 19  2  0  0  0  0 
 18 20  1  0  0  0  0 
 19 21  1  0  0  0  0 
 20 21  1  0  0  0  0 
 21 22  2  0  0  0  0 
 23  1  1  0  0  0  0 
 24  1  1  0  0  0  0 
 25  1  1  0  0  0  0 
  3 26  1  0  0  0  0 
 27  5  1  0  0  0  0 
 28  5  1  0  0  0  0 
  6 29  1  0  0  0  0 
 30  7  1  0  0  0  0 
 31  7  1  0  0  0  0 
 32  8  1  0  0  0  0 
 33  9  1  0  0  0  0 
 34 10  1  0  0  0  0 
 35 10  1  0  0  0  0 
 36 11  1  0  0  0  0 
 37 11  1  0  0  0  0 
 12 38  1  0  0  0  0 
 39 13  1  0  0  0  0 
 40 13  1  0  0  0  0 
 41 14  1  0  0  0  0 
 42 14  1  0  0  0  0 
 15 43  1  0  0  0  0 
 44 16  1  0  0  0  0 
 45 16  1  0  0  0  0 
 46 18  1  0  0  0  0 
 47 18  1  0  0  0  0 
 48 19  1  0  0  0  0 
 49 20  1  0  0  0  0 
 50 20  1  0  0  0  0 
M  END
> <cdk:Title>
norvinisterone

> <Conformer>
1

> <SuperDrugID>
SD002918

$$$$
