levodropropizine
  CDK     0628171801

 37 38  0  0  0  0  0  0  0  0999 V2000
   -8.3484   -2.9566    5.8878 C   0  0  1  0  0  0  0  0  0  0  0  0
   -9.7461   -2.5181    5.3629 C   0  0  1  0  0  0  0  0  0  0  0  0
   -7.1731   -2.3245    5.1940 N   0  0  1  0  0  0  0  0  0  0  0  0
  -10.9105   -3.1646    6.1529 C   0  0  2  0  0  0  0  0  0  0  0  0
   -9.8698   -1.0998    5.4650 O   0  0  0  0  0  0  0  0  0  0  0  0
   -5.9033   -2.5425    5.9660 C   0  0  2  0  0  0  0  0  0  0  0  0
   -7.0499   -2.7081    3.7474 C   0  0  1  0  0  0  0  0  0  0  0  0
  -10.9532   -4.5747    5.9600 O   0  0  0  0  0  0  0  0  0  0  0  0
   -4.6631   -1.9559    5.2487 C   0  0  2  0  0  0  0  0  0  0  0  0
   -5.7710   -2.1463    3.0771 C   0  0  2  0  0  0  0  0  0  0  0  0
   -4.6267   -2.4644    3.8981 N   0  0  0  0  0  0  0  0  0  0  0  0
   -3.5970   -3.2619    3.4374 C   0  0  0  0  0  0  0  0  0  0  0  0
   -3.1580   -4.3833    4.1844 C   0  0  0  0  0  0  0  0  0  0  0  0
   -2.9660   -2.9937    2.1981 C   0  0  0  0  0  0  0  0  0  0  0  0
   -2.1245   -5.2098    3.7089 C   0  0  0  0  0  0  0  0  0  0  0  0
   -1.9308   -3.8190    1.7216 C   0  0  0  0  0  0  0  0  0  0  0  0
   -1.5152   -4.9310    2.4741 C   0  0  0  0  0  0  0  0  0  0  0  0
   -8.3155   -2.6928    6.9493 H   0  0  0  0  0  0  0  0  0  0  0  0
   -8.2678   -4.0457    5.8234 H   0  0  0  0  0  0  0  0  0  0  0  0
   -9.8628   -2.7974    4.3122 H   0  0  0  0  0  0  0  0  0  0  0  0
  -11.8598   -2.7456    5.8157 H   0  0  0  0  0  0  0  0  0  0  0  0
  -10.8033   -2.9573    7.2185 H   0  0  0  0  0  0  0  0  0  0  0  0
   -9.1872   -0.7333    4.8637 H   0  0  0  0  0  0  0  0  0  0  0  0
   -5.7368   -3.6125    6.1249 H   0  0  0  0  0  0  0  0  0  0  0  0
   -5.9811   -2.0614    6.9445 H   0  0  0  0  0  0  0  0  0  0  0  0
   -7.0482   -3.7979    3.6449 H   0  0  0  0  0  0  0  0  0  0  0  0
   -7.9010   -2.3153    3.1885 H   0  0  0  0  0  0  0  0  0  0  0  0
  -11.6810   -4.8875    6.5384 H   0  0  0  0  0  0  0  0  0  0  0  0
   -3.7618   -2.2043    5.8176 H   0  0  0  0  0  0  0  0  0  0  0  0
   -4.7317   -0.8648    5.2225 H   0  0  0  0  0  0  0  0  0  0  0  0
   -5.8551   -1.0608    2.9689 H   0  0  0  0  0  0  0  0  0  0  0  0
   -5.6992   -2.5715    2.0719 H   0  0  0  0  0  0  0  0  0  0  0  0
   -3.5945   -4.6127    5.0803 H   0  0  0  0  0  0  0  0  0  0  0  0
   -3.2565   -2.1882    1.6382 H   0  0  0  0  0  0  0  0  0  0  0  0
   -1.8184   -6.0151    4.2601 H   0  0  0  0  0  0  0  0  0  0  0  0
   -1.4802   -3.6095    0.8292 H   0  0  0  0  0  0  0  0  0  0  0  0
   -0.7694   -5.5360    2.1245 H   0  0  0  0  0  0  0  0  0  0  0  0
  2  1  1  0  0  0  0 
  1  3  1  0  0  0  0 
  2  4  1  0  0  0  0 
  2  5  1  0  0  0  0 
  3  6  1  0  0  0  0 
  3  7  1  0  0  0  0 
  4  8  1  0  0  0  0 
  6  9  1  0  0  0  0 
  7 10  1  0  0  0  0 
  9 11  1  0  0  0  0 
 10 11  1  0  0  0  0 
 11 12  1  0  0  0  0 
 12 13  2  0  0  0  0 
 12 14  1  0  0  0  0 
 13 15  1  0  0  0  0 
 14 16  2  0  0  0  0 
 15 17  2  0  0  0  0 
 16 17  1  0  0  0  0 
  1 18  1  0  0  0  0 
  1 19  1  0  0  0  0 
  2 20  1  0  0  0  0 
  4 21  1  0  0  0  0 
  4 22  1  0  0  0  0 
  5 23  1  0  0  0  0 
  6 24  1  0  0  0  0 
  6 25  1  0  0  0  0 
  7 26  1  0  0  0  0 
  7 27  1  0  0  0  0 
  8 28  1  0  0  0  0 
  9 29  1  0  0  0  0 
  9 30  1  0  0  0  0 
 10 31  1  0  0  0  0 
 10 32  1  0  0  0  0 
 13 33  1  0  0  0  0 
 14 34  1  0  0  0  0 
 15 35  1  0  0  0  0 
 16 36  1  0  0  0  0 
 17 37  1  0  0  0  0 
M  END
> <cdk:Title>
levodropropizine

> <Conformer>
1

> <SuperDrugID>
SD001384

$$$$
