clebopride
  CDK     0628171802

 50 52  0  0  0  0  0  0  0  0999 V2000
    2.3513   -1.4578    1.1949 C   0  0  0  0  0  0  0  0  0  0  0  0
    3.6335   -1.8464    1.4471 N   0  0  0  0  0  0  0  0  0  0  0  0
    1.5105   -2.3004    0.7969 O   0  0  0  0  0  0  0  0  0  0  0  0
    1.9672   -0.1013    1.3723 C   0  0  0  0  0  0  0  0  0  0  0  0
    4.1797   -3.1576    1.2519 C   0  0  2  0  0  0  0  0  0  0  0  0
    0.9814    0.5040    0.5475 C   0  0  0  0  0  0  0  0  0  0  0  0
    2.5658    0.6802    2.3929 C   0  0  0  0  0  0  0  0  0  0  0  0
    5.5098   -3.2681    2.0517 C   0  0  2  0  0  0  0  0  0  0  0  0
    4.3819   -3.4474   -0.2678 C   0  0  1  0  0  0  0  0  0  0  0  0
    0.4099   -0.1545   -0.5145 O   0  0  0  0  0  0  0  0  0  0  0  0
    0.5464    1.8171    0.8185 C   0  0  0  0  0  0  0  0  0  0  0  0
    2.1587    2.0067    2.6338 C   0  0  0  0  0  0  0  0  0  0  0  0
    6.2874   -4.5656    1.7013 C   0  0  1  0  0  0  0  0  0  0  0  0
    5.2317   -4.7234   -0.5198 C   0  0  1  0  0  0  0  0  0  0  0  0
    1.1003    0.0696   -1.7598 C   0  0  0  0  0  0  0  0  0  0  0  0
    1.1262    2.5725    1.8539 C   0  0  0  0  0  0  0  0  0  0  0  0
    2.9221    2.8821    3.8712 Cl  0  0  0  0  0  0  0  0  0  0  0  0
    6.5309   -4.7144    0.2284 N   0  0  1  0  0  0  0  0  0  0  0  0
    0.6704    3.8239    2.0706 N   0  0  0  0  0  0  0  0  0  0  0  0
    7.5599   -3.7966   -0.3705 C   0  0  2  0  0  0  0  0  0  0  0  0
    8.9286   -3.9775    0.1856 C   0  0  0  0  0  0  0  0  0  0  0  0
    9.7856   -4.9809   -0.3253 C   0  0  0  0  0  0  0  0  0  0  0  0
    9.4077   -3.1409    1.2238 C   0  0  0  0  0  0  0  0  0  0  0  0
   11.0950   -5.1274    0.1705 C   0  0  0  0  0  0  0  0  0  0  0  0
   10.7089   -3.3024    1.7341 C   0  0  0  0  0  0  0  0  0  0  0  0
   11.5562   -4.2897    1.2009 C   0  0  0  0  0  0  0  0  0  0  0  0
    4.2464   -1.1609    1.7556 H   0  0  0  0  0  0  0  0  0  0  0  0
    3.4877   -3.8997    1.6614 H   0  0  0  0  0  0  0  0  0  0  0  0
    3.2975    0.2813    2.9856 H   0  0  0  0  0  0  0  0  0  0  0  0
    5.2924   -3.2588    3.1245 H   0  0  0  0  0  0  0  0  0  0  0  0
    6.1434   -2.4045    1.8365 H   0  0  0  0  0  0  0  0  0  0  0  0
    3.4090   -3.5774   -0.7504 H   0  0  0  0  0  0  0  0  0  0  0  0
    4.8738   -2.5927   -0.7429 H   0  0  0  0  0  0  0  0  0  0  0  0
   -0.1984    2.2219    0.2468 H   0  0  0  0  0  0  0  0  0  0  0  0
    7.2262   -4.5854    2.2566 H   0  0  0  0  0  0  0  0  0  0  0  0
    5.7116   -5.4278    2.0510 H   0  0  0  0  0  0  0  0  0  0  0  0
    4.6525   -5.5999   -0.2176 H   0  0  0  0  0  0  0  0  0  0  0  0
    5.4106   -4.8287   -1.5936 H   0  0  0  0  0  0  0  0  0  0  0  0
    0.6009   -0.5101   -2.5367 H   0  0  0  0  0  0  0  0  0  0  0  0
    1.0713    1.1232   -2.0530 H   0  0  0  0  0  0  0  0  0  0  0  0
    2.1401   -0.2633   -1.7099 H   0  0  0  0  0  0  0  0  0  0  0  0
    1.0441    4.3671    2.7815 H   0  0  0  0  0  0  0  0  0  0  0  0
   -0.0329    4.1857    1.5071 H   0  0  0  0  0  0  0  0  0  0  0  0
    7.2560   -2.7521   -0.2651 H   0  0  0  0  0  0  0  0  0  0  0  0
    7.6198   -3.9775   -1.4479 H   0  0  0  0  0  0  0  0  0  0  0  0
    9.4656   -5.6050   -1.0706 H   0  0  0  0  0  0  0  0  0  0  0  0
    8.8088   -2.4108    1.6193 H   0  0  0  0  0  0  0  0  0  0  0  0
   11.7115   -5.8430   -0.2202 H   0  0  0  0  0  0  0  0  0  0  0  0
   11.0376   -2.7013    2.4928 H   0  0  0  0  0  0  0  0  0  0  0  0
   12.5051   -4.3985    1.5639 H   0  0  0  0  0  0  0  0  0  0  0  0
  1  2  1  0  0  0  0 
  1  3  2  0  0  0  0 
  1  4  1  0  0  0  0 
  2  5  1  0  0  0  0 
  4  6  2  0  0  0  0 
  4  7  1  0  0  0  0 
  5  8  1  0  0  0  0 
  5  9  1  0  0  0  0 
  6 10  1  0  0  0  0 
  6 11  1  0  0  0  0 
  7 12  2  0  0  0  0 
  8 13  1  0  0  0  0 
  9 14  1  0  0  0  0 
 10 15  1  0  0  0  0 
 11 16  2  0  0  0  0 
 12 16  1  0  0  0  0 
 12 17  1  0  0  0  0 
 13 18  1  0  0  0  0 
 14 18  1  0  0  0  0 
 16 19  1  0  0  0  0 
 18 20  1  0  0  0  0 
 20 21  1  0  0  0  0 
 21 22  2  0  0  0  0 
 21 23  1  0  0  0  0 
 22 24  1  0  0  0  0 
 23 25  2  0  0  0  0 
 24 26  2  0  0  0  0 
 25 26  1  0  0  0  0 
  2 27  1  0  0  0  0 
  5 28  1  0  0  0  0 
  7 29  1  0  0  0  0 
  8 30  1  0  0  0  0 
  8 31  1  0  0  0  0 
  9 32  1  0  0  0  0 
  9 33  1  0  0  0  0 
 11 34  1  0  0  0  0 
 13 35  1  0  0  0  0 
 13 36  1  0  0  0  0 
 14 37  1  0  0  0  0 
 14 38  1  0  0  0  0 
 15 39  1  0  0  0  0 
 15 40  1  0  0  0  0 
 15 41  1  0  0  0  0 
 19 42  1  0  0  0  0 
 19 43  1  0  0  0  0 
 20 44  1  0  0  0  0 
 20 45  1  0  0  0  0 
 22 46  1  0  0  0  0 
 23 47  1  0  0  0  0 
 24 48  1  0  0  0  0 
 25 49  1  0  0  0  0 
 26 50  1  0  0  0  0 
M  END
> <cdk:Title>
clebopride

> <Conformer>
1

> <SuperDrugID>
SD000589

$$$$
