detajmium
  CDK     0628171802

 75 80  0  0  0  0  0  0  0  0999 V2000
  -10.5211   -3.9266    2.8906 O   0  0  0  0  0  0  0  0  0  0  0  0
  -11.4794   -3.3677    1.9900 C   0  0  1  0  0  0  0  0  0  0  0  0
  -10.9567   -3.2517    0.5219 C   0  0  2  0  0  0  0  0  0  0  0  0
  -11.8783   -2.3144   -0.3470 C   0  0  2  0  0  0  0  0  0  0  0  0
  -13.3691   -2.8664   -0.4548 C   0  0  1  0  0  0  0  0  0  0  0  0
  -13.4859   -4.4010   -0.6318 N   0  0  1  0  0  0  0  0  0  0  0  0
  -12.5158   -5.0129    0.4044 C   0  0  2  0  0  0  0  0  0  0  0  0
  -12.6988   -4.3508    1.8273 C   0  0  2  0  0  0  0  0  0  0  0  0
  -14.1146   -3.6642    1.8511 C   0  0  1  0  0  0  0  0  0  0  0  0
  -14.1273   -2.4431    0.8716 C   0  0  2  0  0  0  0  0  0  0  0  0
  -15.2053   -4.6570    1.3137 C   0  0  1  0  0  0  0  0  0  0  0  0
  -14.8808   -4.9007   -0.2176 C   0  0  1  0  0  0  0  0  0  0  0  0
  -15.9135   -4.2490   -0.9644 O   0  0  0  0  0  0  0  0  0  0  0  0
  -15.3998   -5.9866    2.1157 C   0  0  1  0  0  0  0  0  0  0  0  0
  -15.7895   -5.7937    3.5993 C   0  0  0  0  0  0  0  0  0  0  0  0
  -11.0320   -4.7341    0.0961 C   0  0  1  0  0  0  0  0  0  0  0  0
  -12.6418   -6.1010    0.4717 H   0  0  0  0  0  0  0  0  0  0  0  0
  -13.1276   -4.8775   -2.0469 C   0  0  2  0  0  0  0  0  0  0  0  0
  -14.1503   -4.8989   -3.2364 C   0  0  2  0  0  0  0  0  0  0  0  0
  -13.5936   -5.5913   -4.5349 C   0  0  2  0  0  0  0  0  0  0  0  0
  -13.9936   -7.0706   -4.6900 N   0  0  1  0  0  0  0  0  0  0  0  0
  -13.7395   -7.5732   -6.0830 C   0  0  2  0  0  0  0  0  0  0  0  0
  -12.2530   -7.8076   -6.4476 C   0  0  0  0  0  0  0  0  0  0  0  0
  -13.6231   -7.9975   -3.5663 C   0  0  2  0  0  0  0  0  0  0  0  0
  -14.1209   -9.4579   -3.6801 C   0  0  0  0  0  0  0  0  0  0  0  0
  -14.5163   -3.5524   -3.5504 O   0  0  0  0  0  0  0  0  0  0  0  0
  -13.8767   -2.3493   -1.2664 H   0  0  0  0  0  0  0  0  0  0  0  0
  -11.0524   -1.9853   -1.4803 N   0  0  0  0  0  0  0  0  0  0  0  0
   -9.7439   -2.0629   -1.0961 C   0  0  0  0  0  0  0  0  0  0  0  0
   -9.6300   -2.7380    0.1297 C   0  0  0  0  0  0  0  0  0  0  0  0
   -8.3678   -2.9449    0.7224 C   0  0  0  0  0  0  0  0  0  0  0  0
   -7.2193   -2.4360    0.0817 C   0  0  0  0  0  0  0  0  0  0  0  0
   -7.3310   -1.7432   -1.1416 C   0  0  0  0  0  0  0  0  0  0  0  0
   -8.5931   -1.5566   -1.7388 C   0  0  0  0  0  0  0  0  0  0  0  0
  -11.4942   -1.4953   -2.7573 C   0  0  0  0  0  0  0  0  0  0  0  0
  -11.9309   -1.3338    0.1475 H   0  0  0  0  0  0  0  0  0  0  0  0
   -9.8263   -3.2421    2.9825 H   0  0  0  0  0  0  0  0  0  0  0  0
  -11.7674   -2.3985    2.4034 H   0  0  0  0  0  0  0  0  0  0  0  0
  -12.6575   -5.1160    2.6100 H   0  0  0  0  0  0  0  0  0  0  0  0
  -14.3615   -3.3268    2.8616 H   0  0  0  0  0  0  0  0  0  0  0  0
  -15.1528   -2.1466    0.6307 H   0  0  0  0  0  0  0  0  0  0  0  0
  -13.7055   -1.5684    1.3713 H   0  0  0  0  0  0  0  0  0  0  0  0
  -16.1717   -4.1443    1.4031 H   0  0  0  0  0  0  0  0  0  0  0  0
  -14.9728   -5.9667   -0.4482 H   0  0  0  0  0  0  0  0  0  0  0  0
  -16.7505   -4.6504   -0.6488 H   0  0  0  0  0  0  0  0  0  0  0  0
  -16.2064   -6.5524    1.6396 H   0  0  0  0  0  0  0  0  0  0  0  0
  -14.5021   -6.6056    2.0650 H   0  0  0  0  0  0  0  0  0  0  0  0
  -16.0510   -6.7580    4.0397 H   0  0  0  0  0  0  0  0  0  0  0  0
  -16.6520   -5.1299    3.6853 H   0  0  0  0  0  0  0  0  0  0  0  0
  -14.9555   -5.3726    4.1624 H   0  0  0  0  0  0  0  0  0  0  0  0
  -10.7439   -4.9068   -0.9412 H   0  0  0  0  0  0  0  0  0  0  0  0
  -10.3802   -5.3729    0.7063 H   0  0  0  0  0  0  0  0  0  0  0  0
  -12.7533   -5.8974   -1.9615 H   0  0  0  0  0  0  0  0  0  0  0  0
  -12.2895   -4.2869   -2.4188 H   0  0  0  0  0  0  0  0  0  0  0  0
  -15.0609   -5.4274   -2.9542 H   0  0  0  0  0  0  0  0  0  0  0  0
  -12.4592   -5.5918   -4.4540 H   0  0  0  0  0  0  0  0  0  0  0  0
  -14.0132   -4.9349   -5.4045 H   0  0  0  0  0  0  0  0  0  0  0  0
  -14.1550   -6.8614   -6.8018 H   0  0  0  0  0  0  0  0  0  0  0  0
  -14.2878   -8.5045   -6.2451 H   0  0  0  0  0  0  0  0  0  0  0  0
  -12.1808   -8.1882   -7.4677 H   0  0  0  0  0  0  0  0  0  0  0  0
  -11.7996   -8.5368   -5.7761 H   0  0  0  0  0  0  0  0  0  0  0  0
  -11.6868   -6.8771   -6.3920 H   0  0  0  0  0  0  0  0  0  0  0  0
  -14.0818   -7.6200   -2.6528 H   0  0  0  0  0  0  0  0  0  0  0  0
  -12.5395   -8.0012   -3.4243 H   0  0  0  0  0  0  0  0  0  0  0  0
  -13.9641   -9.9771   -2.7315 H   0  0  0  0  0  0  0  0  0  0  0  0
  -13.5742   -9.9985   -4.4536 H   0  0  0  0  0  0  0  0  0  0  0  0
  -15.1858   -9.4707   -3.9142 H   0  0  0  0  0  0  0  0  0  0  0  0
  -14.9801   -3.2111   -2.7594 H   0  0  0  0  0  0  0  0  0  0  0  0
   -8.2726   -3.4691    1.5929 H   0  0  0  0  0  0  0  0  0  0  0  0
   -6.2981   -2.5776    0.5026 H   0  0  0  0  0  0  0  0  0  0  0  0
   -6.4921   -1.3771   -1.5992 H   0  0  0  0  0  0  0  0  0  0  0  0
   -8.6655   -1.0548   -2.6251 H   0  0  0  0  0  0  0  0  0  0  0  0
  -11.1458   -2.1634   -3.5478 H   0  0  0  0  0  0  0  0  0  0  0  0
  -12.5762   -1.4211   -2.8292 H   0  0  0  0  0  0  0  0  0  0  0  0
  -11.0927   -0.4961   -2.9353 H   0  0  0  0  0  0  0  0  0  0  0  0
  2  1  1  0  0  0  0 
  3  2  1  0  0  0  0 
  2  8  1  0  0  0  0 
  4  3  1  0  0  0  0 
  3 16  1  0  0  0  0 
  3 30  1  0  0  0  0 
  5  4  1  0  0  0  0 
  4 28  1  0  0  0  0 
  4 36  1  0  0  0  0 
  5  6  1  0  0  0  0 
  5 10  1  0  0  0  0 
  5 27  1  0  0  0  0 
 12  6  1  0  0  0  0 
  7  6  1  0  0  0  0 
  7 17  1  0  0  0  0 
  8  7  1  0  0  0  0 
  9  8  1  0  0  0  0 
  9 10  1  0  0  0  0 
 11  9  1  0  0  0  0 
 12 11  1  0  0  0  0 
 11 14  1  0  0  0  0 
 12 13  1  0  0  0  0 
 14 15  1  0  0  0  0 
  7 16  1  0  0  0  0 
 19 18  1  0  0  0  0 
 19 20  1  0  0  0  0 
 19 26  1  0  0  0  0 
 20 21  1  0  0  0  0 
 21 22  1  0  0  0  0 
 21 24  1  0  0  0  0 
 22 23  1  0  0  0  0 
 24 25  1  0  0  0  0 
 28 29  1  0  0  0  0 
 28 35  1  0  0  0  0 
 29 34  2  0  0  0  0 
 30 29  1  0  0  0  0 
 30 31  2  0  0  0  0 
 31 32  1  0  0  0  0 
 32 33  2  0  0  0  0 
 34 33  1  0  0  0  0 
  6 18  1  0  0  0  0 
  1 37  1  0  0  0  0 
  2 38  1  0  0  0  0 
  8 39  1  0  0  0  0 
  9 40  1  0  0  0  0 
 10 41  1  0  0  0  0 
 10 42  1  0  0  0  0 
 11 43  1  0  0  0  0 
 12 44  1  0  0  0  0 
 13 45  1  0  0  0  0 
 14 46  1  0  0  0  0 
 14 47  1  0  0  0  0 
 15 48  1  0  0  0  0 
 15 49  1  0  0  0  0 
 15 50  1  0  0  0  0 
 16 51  1  0  0  0  0 
 16 52  1  0  0  0  0 
 18 53  1  0  0  0  0 
 18 54  1  0  0  0  0 
 19 55  1  0  0  0  0 
 20 56  1  0  0  0  0 
 20 57  1  0  0  0  0 
 22 58  1  0  0  0  0 
 22 59  1  0  0  0  0 
 23 60  1  0  0  0  0 
 23 61  1  0  0  0  0 
 23 62  1  0  0  0  0 
 24 63  1  0  0  0  0 
 24 64  1  0  0  0  0 
 25 65  1  0  0  0  0 
 25 66  1  0  0  0  0 
 25 67  1  0  0  0  0 
 26 68  1  0  0  0  0 
 31 69  1  0  0  0  0 
 32 70  1  0  0  0  0 
 33 71  1  0  0  0  0 
 34 72  1  0  0  0  0 
 35 73  1  0  0  0  0 
 35 74  1  0  0  0  0 
 35 75  1  0  0  0  0 
M  CHG  1   6   1
M  END
> <cdk:Title>
detajmium

> <Conformer>
1

> <SuperDrugID>
SD000727

$$$$
