eritoran
  CDK     0628171801

215216  0  0  0  0  0  0  0  0999 V2000
   -3.9894    3.0403    3.3850 O   0  0  0  0  0  0  0  0  0  0  0  0
   -3.6107    4.2645    4.0390 C   0  0  2  0  0  0  0  0  0  0  0  0
   -3.3995    2.7227    2.0979 C   0  0  2  0  0  0  0  0  0  0  0  0
   -4.5635    4.5240    5.2302 C   0  0  2  0  0  0  0  0  0  0  0  0
   -4.2133    1.4965    1.5836 C   0  0  1  0  0  0  0  0  0  0  0  0
   -1.8529    2.4587    2.1615 C   0  0  2  0  0  0  0  0  0  0  0  0
   -4.2307    5.7883    6.0896 C   0  0  1  0  0  0  0  0  0  0  0  0
   -5.5664    1.9038    1.3286 N   0  0  0  0  0  0  0  0  0  0  0  0
   -3.5868    0.9413    0.2782 C   0  0  2  0  0  0  0  0  0  0  0  0
   -1.2624    3.7828    2.2519 O   0  0  0  0  0  0  0  0  0  0  0  0
   -1.3398    1.6736    0.9006 C   0  0  2  0  0  0  0  0  0  0  0  0
   -2.8100    5.8067    6.7368 C   0  0  2  0  0  0  0  0  0  0  0  0
   -4.2967    7.0099    5.3149 O   0  0  0  0  0  0  0  0  0  0  0  0
   -6.6780    1.7535    2.1042 C   0  0  0  0  0  0  0  0  0  0  0  0
   -4.3125   -0.2390   -0.1226 O   0  0  0  0  0  0  0  0  0  0  0  0
   -2.2182    0.5841    0.5431 O   0  0  0  0  0  0  0  0  0  0  0  0
    0.1318    4.0303    2.9946 P   0  0  2  0  0  0  0  0  0  0  0  0
    0.0408    0.9896    1.0983 C   0  0  1  0  0  0  0  0  0  0  0  0
   -2.4766    4.6305    7.6970 C   0  0  2  0  0  0  0  0  0  0  0  0
   -5.6000    7.5078    4.9674 C   0  0  0  0  0  0  0  0  0  0  0  0
   -6.7980    1.0685    3.4191 C   0  0  1  0  0  0  0  0  0  0  0  0
   -7.7094    2.2883    1.6374 O   0  0  0  0  0  0  0  0  0  0  0  0
   -3.9312   -0.8176   -1.3915 C   0  0  2  0  0  0  0  0  0  0  0  0
    1.2316    4.0673    2.0248 O   0  0  0  0  0  0  0  0  0  0  0  0
    0.4000    2.9404    4.1101 O   0  0  0  0  0  0  0  0  0  0  0  0
    0.0375    5.4432    3.7118 O   0  0  0  0  0  0  0  0  0  0  0  0
    0.4112    0.2827   -0.1029 O   0  0  0  0  0  0  0  0  0  0  0  0
   -1.0154    4.6781    8.2289 C   0  0  2  0  0  0  0  0  0  0  0  0
   -7.7895   -0.1267    3.3645 C   0  0  1  0  0  0  0  0  0  0  0  0
   -4.8034   -2.0746   -1.6347 C   0  0  2  0  0  0  0  0  0  0  0  0
    1.6290   -0.4747    0.0055 C   0  0  0  0  0  0  0  0  0  0  0  0
   -0.6721    3.4722    9.1472 C   0  0  1  0  0  0  0  0  0  0  0  0
   -8.0582   -0.7799    4.7479 C   0  0  2  0  0  0  0  0  0  0  0  0
   -4.5272   -2.8003   -2.9865 C   0  0  1  0  0  0  0  0  0  0  0  0
   -6.1821   -1.6473   -1.6025 O   0  0  0  0  0  0  0  0  0  0  0  0
    0.8369    3.4035    9.5098 C   0  0  2  0  0  0  0  0  0  0  0  0
   -9.1737   -1.8599    4.6847 C   0  0  2  0  0  0  0  0  0  0  0  0
   -3.1778   -3.2630   -3.0499 O   0  0  0  0  0  0  0  0  0  0  0  0
   -5.4862   -4.0155   -3.1858 C   0  0  2  0  0  0  0  0  0  0  0  0
   -7.1261   -2.7345   -1.6118 C   0  0  2  0  0  0  0  0  0  0  0  0
    1.1791    2.2080   10.4384 C   0  0  2  0  0  0  0  0  0  0  0  0
   -9.3426   -2.6571    6.0080 C   0  0  1  0  0  0  0  0  0  0  0  0
   -5.2565   -4.4821   -4.5407 O   0  0  0  0  0  0  0  0  0  0  0  0
   -6.9739   -3.5960   -2.9051 C   0  0  2  0  0  0  0  0  0  0  0  0
   -8.4763   -2.2206   -1.5901 O   0  0  0  0  0  0  0  0  0  0  0  0
    2.6937    2.0886   10.7231 C   0  0  0  0  0  0  0  0  0  0  0  0
  -10.4444   -3.7459    5.8904 C   0  0  2  0  0  0  0  0  0  0  0  0
   -5.7826   -5.7688   -4.9218 C   0  0  2  0  0  0  0  0  0  0  0  0
   -7.9479   -4.6528   -2.8385 N   0  0  0  0  0  0  0  0  0  0  0  0
   -8.9573   -1.5519   -0.2250 P   0  0  2  0  0  0  0  0  0  0  0  0
  -10.5450   -4.6819    7.1260 C   0  0  1  0  0  0  0  0  0  0  0  0
   -5.2816   -6.1057   -6.3510 C   0  0  2  0  0  0  0  0  0  0  0  0
   -7.9589   -5.7013   -1.9654 C   0  0  0  0  0  0  0  0  0  0  0  0
   -8.1928   -0.3343    0.0586 O   0  0  0  0  0  0  0  0  0  0  0  0
   -8.8142   -2.5971    0.9555 O   0  0  0  0  0  0  0  0  0  0  0  0
  -10.4955   -1.2079   -0.3802 O   0  0  0  0  0  0  0  0  0  0  0  0
  -11.6091   -5.7958    6.9143 C   0  0  2  0  0  0  0  0  0  0  0  0
   -5.9857   -7.3442   -6.9691 C   0  0  2  0  0  0  0  0  0  0  0  0
   -9.2016   -6.4742   -1.7677 C   0  0  1  0  0  0  0  0  0  0  0  0
   -6.9636   -5.9797   -1.2544 O   0  0  0  0  0  0  0  0  0  0  0  0
  -11.6975   -6.8036    8.0927 C   0  0  2  0  0  0  0  0  0  0  0  0
   -5.5343   -7.6594   -8.4260 C   0  0  1  0  0  0  0  0  0  0  0  0
   -9.6270   -7.2394   -2.9612 C   0  0  0  0  0  0  0  0  0  0  0  0
  -12.6176   -7.9014    7.8135 C   0  0  0  0  0  0  0  0  0  0  0  0
   -6.3453   -8.8286   -9.0456 C   0  0  2  0  0  0  0  0  0  0  0  0
   -9.4850   -8.7124   -3.0582 C   0  0  1  0  0  0  0  0  0  0  0  0
  -10.1109   -6.6074   -3.9298 O   0  0  0  0  0  0  0  0  0  0  0  0
  -12.3071   -9.0735    7.2277 C   0  0  0  0  0  0  0  0  0  0  0  0
   -5.9454   -9.1832  -10.5058 C   0  0  2  0  0  0  0  0  0  0  0  0
  -10.3868   -9.4901   -2.0571 C   0  0  1  0  0  0  0  0  0  0  0  0
  -10.9789   -9.4593    6.7655 C   0  0  1  0  0  0  0  0  0  0  0  0
   -6.8176  -10.3393  -11.0700 C   0  0  1  0  0  0  0  0  0  0  0  0
  -10.2737  -11.0269   -2.2347 C   0  0  2  0  0  0  0  0  0  0  0  0
  -10.9381  -10.8082    5.9913 C   0  0  1  0  0  0  0  0  0  0  0  0
   -6.4515  -10.7508  -12.5215 C   0  0  2  0  0  0  0  0  0  0  0  0
  -10.9970  -11.8307   -1.1209 C   0  0  1  0  0  0  0  0  0  0  0  0
   -9.5110  -11.1496    5.4856 C   0  0  1  0  0  0  0  0  0  0  0  0
   -7.3347  -11.9185  -13.0416 C   0  0  2  0  0  0  0  0  0  0  0  0
  -10.8527  -13.3639   -1.3217 C   0  0  1  0  0  0  0  0  0  0  0  0
   -9.4298  -12.5036    4.7313 C   0  0  1  0  0  0  0  0  0  0  0  0
   -6.9780  -12.3527  -14.4801 C   0  0  0  0  0  0  0  0  0  0  0  0
  -11.5246  -14.1852   -0.1903 C   0  0  1  0  0  0  0  0  0  0  0  0
   -7.9996  -12.7846    4.1988 C   0  0  2  0  0  0  0  0  0  0  0  0
  -11.4215  -15.7188   -0.4148 C   0  0  2  0  0  0  0  0  0  0  0  0
   -7.8847  -14.1317    3.4517 C   0  0  0  0  0  0  0  0  0  0  0  0
  -12.1679  -16.5291    0.6799 C   0  0  2  0  0  0  0  0  0  0  0  0
  -12.1328  -18.0623    0.4325 C   0  0  1  0  0  0  0  0  0  0  0  0
  -12.9334  -18.8545    1.5014 C   0  0  1  0  0  0  0  0  0  0  0  0
  -12.9258  -20.3806    1.2598 C   0  0  0  0  0  0  0  0  0  0  0  0
   -3.6528    5.1118    3.3496 H   0  0  0  0  0  0  0  0  0  0  0  0
   -2.5985    4.1500    4.4187 H   0  0  0  0  0  0  0  0  0  0  0  0
   -3.5864    3.5488    1.4007 H   0  0  0  0  0  0  0  0  0  0  0  0
   -4.5721    3.6425    5.8754 H   0  0  0  0  0  0  0  0  0  0  0  0
   -5.5764    4.6239    4.8342 H   0  0  0  0  0  0  0  0  0  0  0  0
   -4.1683    0.6967    2.3255 H   0  0  0  0  0  0  0  0  0  0  0  0
   -1.6761    1.8587    3.0598 H   0  0  0  0  0  0  0  0  0  0  0  0
   -4.9544    5.8356    6.9115 H   0  0  0  0  0  0  0  0  0  0  0  0
   -5.7057    2.3763    0.4932 H   0  0  0  0  0  0  0  0  0  0  0  0
   -3.6501    1.6933   -0.5166 H   0  0  0  0  0  0  0  0  0  0  0  0
   -1.2653    2.3633    0.0521 H   0  0  0  0  0  0  0  0  0  0  0  0
   -2.7159    6.7371    7.3054 H   0  0  0  0  0  0  0  0  0  0  0  0
   -2.0609    5.8455    5.9437 H   0  0  0  0  0  0  0  0  0  0  0  0
    0.8093    1.7296    1.3090 H   0  0  0  0  0  0  0  0  0  0  0  0
   -0.0246    0.2935    1.9414 H   0  0  0  0  0  0  0  0  0  0  0  0
   -2.6096    3.6848    7.1679 H   0  0  0  0  0  0  0  0  0  0  0  0
   -3.1725    4.6557    8.5407 H   0  0  0  0  0  0  0  0  0  0  0  0
   -5.4712    8.5004    4.5346 H   0  0  0  0  0  0  0  0  0  0  0  0
   -6.2432    7.6000    5.8440 H   0  0  0  0  0  0  0  0  0  0  0  0
   -6.0825    6.8685    4.2271 H   0  0  0  0  0  0  0  0  0  0  0  0
   -5.8358    0.7103    3.7828 H   0  0  0  0  0  0  0  0  0  0  0  0
   -7.1605    1.8033    4.1408 H   0  0  0  0  0  0  0  0  0  0  0  0
   -2.8747   -1.1007   -1.3783 H   0  0  0  0  0  0  0  0  0  0  0  0
   -4.0942   -0.0981   -2.1992 H   0  0  0  0  0  0  0  0  0  0  0  0
   -0.3354    3.0495    4.7484 H   0  0  0  0  0  0  0  0  0  0  0  0
   -0.6826    5.3482    4.3685 H   0  0  0  0  0  0  0  0  0  0  0  0
   -0.8619    5.6047    8.7899 H   0  0  0  0  0  0  0  0  0  0  0  0
   -0.3300    4.6818    7.3758 H   0  0  0  0  0  0  0  0  0  0  0  0
   -8.7434    0.2123    2.9479 H   0  0  0  0  0  0  0  0  0  0  0  0
   -7.3735   -0.8853    2.6969 H   0  0  0  0  0  0  0  0  0  0  0  0
   -4.6018   -2.7660   -0.8073 H   0  0  0  0  0  0  0  0  0  0  0  0
    2.4767    0.1721    0.2401 H   0  0  0  0  0  0  0  0  0  0  0  0
    1.8218   -0.9583   -0.9528 H   0  0  0  0  0  0  0  0  0  0  0  0
    1.5408   -1.2507    0.7690 H   0  0  0  0  0  0  0  0  0  0  0  0
   -1.2603    3.5494   10.0664 H   0  0  0  0  0  0  0  0  0  0  0  0
   -0.9522    2.5436    8.6402 H   0  0  0  0  0  0  0  0  0  0  0  0
   -8.3568   -0.0068    5.4615 H   0  0  0  0  0  0  0  0  0  0  0  0
   -7.1309   -1.2363    5.1051 H   0  0  0  0  0  0  0  0  0  0  0  0
   -4.6773   -2.0888   -3.8032 H   0  0  0  0  0  0  0  0  0  0  0  0
    1.1316    4.3329   10.0063 H   0  0  0  0  0  0  0  0  0  0  0  0
    1.4175    3.3091    8.5873 H   0  0  0  0  0  0  0  0  0  0  0  0
   -8.9410   -2.5630    3.8799 H   0  0  0  0  0  0  0  0  0  0  0  0
  -10.1230   -1.3736    4.4417 H   0  0  0  0  0  0  0  0  0  0  0  0
   -2.6242   -2.4535   -3.0336 H   0  0  0  0  0  0  0  0  0  0  0  0
   -5.1692   -4.7832   -2.4765 H   0  0  0  0  0  0  0  0  0  0  0  0
   -6.9455   -3.3715   -0.7376 H   0  0  0  0  0  0  0  0  0  0  0  0
    0.8411    1.2770    9.9753 H   0  0  0  0  0  0  0  0  0  0  0  0
    0.6512    2.3260   11.3886 H   0  0  0  0  0  0  0  0  0  0  0  0
   -8.3903   -3.1336    6.2570 H   0  0  0  0  0  0  0  0  0  0  0  0
   -9.6045   -1.9690    6.8167 H   0  0  0  0  0  0  0  0  0  0  0  0
   -7.2760   -2.9664   -3.7473 H   0  0  0  0  0  0  0  0  0  0  0  0
    3.0661    2.9986   11.1977 H   0  0  0  0  0  0  0  0  0  0  0  0
    3.2430    1.9225    9.7939 H   0  0  0  0  0  0  0  0  0  0  0  0
    2.8806    1.2454   11.3914 H   0  0  0  0  0  0  0  0  0  0  0  0
  -10.2364   -4.3607    5.0100 H   0  0  0  0  0  0  0  0  0  0  0  0
  -11.4103   -3.2549    5.7390 H   0  0  0  0  0  0  0  0  0  0  0  0
   -6.8735   -5.7291   -4.9351 H   0  0  0  0  0  0  0  0  0  0  0  0
   -5.4551   -6.5450   -4.2207 H   0  0  0  0  0  0  0  0  0  0  0  0
   -8.7294   -4.5537   -3.4066 H   0  0  0  0  0  0  0  0  0  0  0  0
   -9.5702   -5.1472    7.3013 H   0  0  0  0  0  0  0  0  0  0  0  0
  -10.8053   -4.0910    8.0090 H   0  0  0  0  0  0  0  0  0  0  0  0
   -4.2030   -6.2798   -6.3186 H   0  0  0  0  0  0  0  0  0  0  0  0
   -5.4614   -5.2411   -6.9955 H   0  0  0  0  0  0  0  0  0  0  0  0
   -9.3732   -3.3563    0.6900 H   0  0  0  0  0  0  0  0  0  0  0  0
  -10.9229   -2.0659   -0.5884 H   0  0  0  0  0  0  0  0  0  0  0  0
  -11.3619   -6.3402    5.9984 H   0  0  0  0  0  0  0  0  0  0  0  0
  -12.5882   -5.3266    6.7759 H   0  0  0  0  0  0  0  0  0  0  0  0
   -7.0646   -7.1645   -6.9661 H   0  0  0  0  0  0  0  0  0  0  0  0
   -5.7866   -8.2143   -6.3375 H   0  0  0  0  0  0  0  0  0  0  0  0
   -9.0668   -7.1476   -0.9199 H   0  0  0  0  0  0  0  0  0  0  0  0
  -10.0002   -5.7820   -1.4875 H   0  0  0  0  0  0  0  0  0  0  0  0
  -12.0524   -6.2744    8.9817 H   0  0  0  0  0  0  0  0  0  0  0  0
  -10.7027   -7.1869    8.3316 H   0  0  0  0  0  0  0  0  0  0  0  0
   -5.6711   -6.7717   -9.0495 H   0  0  0  0  0  0  0  0  0  0  0  0
   -4.4721   -7.9192   -8.4266 H   0  0  0  0  0  0  0  0  0  0  0  0
  -13.5693   -7.7622    8.0731 H   0  0  0  0  0  0  0  0  0  0  0  0
   -7.4053   -8.5594   -9.0310 H   0  0  0  0  0  0  0  0  0  0  0  0
   -6.2118   -9.7143   -8.4183 H   0  0  0  0  0  0  0  0  0  0  0  0
   -9.7326   -9.0343   -4.0736 H   0  0  0  0  0  0  0  0  0  0  0  0
   -8.4373   -8.9636   -2.8812 H   0  0  0  0  0  0  0  0  0  0  0  0
  -13.0477   -9.7292    7.1107 H   0  0  0  0  0  0  0  0  0  0  0  0
   -4.8933   -9.4818  -10.5325 H   0  0  0  0  0  0  0  0  0  0  0  0
   -6.0653   -8.2999  -11.1402 H   0  0  0  0  0  0  0  0  0  0  0  0
  -10.1000   -9.2388   -1.0334 H   0  0  0  0  0  0  0  0  0  0  0  0
  -11.4296   -9.1921   -2.1996 H   0  0  0  0  0  0  0  0  0  0  0  0
  -10.5942   -8.6778    6.1055 H   0  0  0  0  0  0  0  0  0  0  0  0
  -10.3167   -9.5350    7.6325 H   0  0  0  0  0  0  0  0  0  0  0  0
   -6.7056  -11.2127  -10.4211 H   0  0  0  0  0  0  0  0  0  0  0  0
   -7.8668  -10.0305  -11.0471 H   0  0  0  0  0  0  0  0  0  0  0  0
   -9.2171  -11.3078   -2.2327 H   0  0  0  0  0  0  0  0  0  0  0  0
  -10.6983  -11.2983   -3.2051 H   0  0  0  0  0  0  0  0  0  0  0  0
  -11.2882  -11.6113    6.6467 H   0  0  0  0  0  0  0  0  0  0  0  0
  -11.6123  -10.7492    5.1314 H   0  0  0  0  0  0  0  0  0  0  0  0
   -5.4016  -11.0557  -12.5512 H   0  0  0  0  0  0  0  0  0  0  0  0
   -6.5765   -9.8871  -13.1806 H   0  0  0  0  0  0  0  0  0  0  0  0
  -10.5749  -11.5559   -0.1498 H   0  0  0  0  0  0  0  0  0  0  0  0
  -12.0580  -11.5661   -1.1178 H   0  0  0  0  0  0  0  0  0  0  0  0
   -9.1772  -10.3524    4.8152 H   0  0  0  0  0  0  0  0  0  0  0  0
   -8.8304  -11.1826    6.3410 H   0  0  0  0  0  0  0  0  0  0  0  0
   -8.3853  -11.6155  -13.0226 H   0  0  0  0  0  0  0  0  0  0  0  0
   -7.2193  -12.7828  -12.3811 H   0  0  0  0  0  0  0  0  0  0  0  0
  -11.3064  -13.6377   -2.2783 H   0  0  0  0  0  0  0  0  0  0  0  0
   -9.7908  -13.6221   -1.3627 H   0  0  0  0  0  0  0  0  0  0  0  0
   -9.7236  -13.3103    5.4088 H   0  0  0  0  0  0  0  0  0  0  0  0
  -10.1273  -12.4915    3.8889 H   0  0  0  0  0  0  0  0  0  0  0  0
   -5.9409  -12.6890  -14.5296 H   0  0  0  0  0  0  0  0  0  0  0  0
   -7.1174  -11.5216  -15.1738 H   0  0  0  0  0  0  0  0  0  0  0  0
   -7.6261  -13.1756  -14.7882 H   0  0  0  0  0  0  0  0  0  0  0  0
  -11.0501  -13.9340    0.7627 H   0  0  0  0  0  0  0  0  0  0  0  0
  -12.5798  -13.9035   -0.1320 H   0  0  0  0  0  0  0  0  0  0  0  0
   -7.2959  -12.7902    5.0359 H   0  0  0  0  0  0  0  0  0  0  0  0
   -7.7062  -11.9841    3.5143 H   0  0  0  0  0  0  0  0  0  0  0  0
  -10.3672  -16.0108   -0.4191 H   0  0  0  0  0  0  0  0  0  0  0  0
  -11.8476  -15.9654   -1.3918 H   0  0  0  0  0  0  0  0  0  0  0  0
   -6.8610  -14.2687    3.0960 H   0  0  0  0  0  0  0  0  0  0  0  0
   -8.1352  -14.9596    4.1180 H   0  0  0  0  0  0  0  0  0  0  0  0
   -8.5570  -14.1502    2.5915 H   0  0  0  0  0  0  0  0  0  0  0  0
  -13.2113  -16.2019    0.7106 H   0  0  0  0  0  0  0  0  0  0  0  0
  -11.7148  -16.3138    1.6521 H   0  0  0  0  0  0  0  0  0  0  0  0
  -12.5555  -18.2730   -0.5539 H   0  0  0  0  0  0  0  0  0  0  0  0
  -11.0928  -18.4012    0.4386 H   0  0  0  0  0  0  0  0  0  0  0  0
  -12.5098  -18.6579    2.4899 H   0  0  0  0  0  0  0  0  0  0  0  0
  -13.9718  -18.5120    1.5016 H   0  0  0  0  0  0  0  0  0  0  0  0
  -13.5058  -20.8788    2.0396 H   0  0  0  0  0  0  0  0  0  0  0  0
  -13.3719  -20.6167    0.2915 H   0  0  0  0  0  0  0  0  0  0  0  0
  -11.9048  -20.7662    1.2857 H   0  0  0  0  0  0  0  0  0  0  0  0
  1  2  1  0  0  0  0 
  2  4  1  0  0  0  0 
  3  1  1  0  0  0  0 
  3  5  1  0  0  0  0 
  6  3  1  0  0  0  0 
  7  4  1  0  0  0  0 
  5  8  1  0  0  0  0 
  5  9  1  0  0  0  0 
  6 10  1  0  0  0  0 
 11  6  1  0  0  0  0 
  7 12  1  0  0  0  0 
  7 13  1  0  0  0  0 
  8 14  1  0  0  0  0 
  9 15  1  0  0  0  0 
  9 16  1  0  0  0  0 
 10 17  1  0  0  0  0 
 11 16  1  0  0  0  0 
 11 18  1  0  0  0  0 
 12 19  1  0  0  0  0 
 13 20  1  0  0  0  0 
 14 21  1  0  0  0  0 
 14 22  2  0  0  0  0 
 15 23  1  0  0  0  0 
 17 24  2  0  0  0  0 
 17 25  1  0  0  0  0 
 17 26  1  0  0  0  0 
 18 27  1  0  0  0  0 
 19 28  1  0  0  0  0 
 21 29  1  0  0  0  0 
 27 31  1  0  0  0  0 
 28 32  1  0  0  0  0 
 29 33  1  0  0  0  0 
 30 23  1  0  0  0  0 
 30 34  1  0  0  0  0 
 30 35  1  0  0  0  0 
 32 36  1  0  0  0  0 
 33 37  1  0  0  0  0 
 34 38  1  0  0  0  0 
 34 39  1  0  0  0  0 
 40 35  1  0  0  0  0 
 36 41  1  0  0  0  0 
 37 42  1  0  0  0  0 
 39 43  1  0  0  0  0 
 39 44  1  0  0  0  0 
 44 40  1  0  0  0  0 
 40 45  1  0  0  0  0 
 41 46  1  0  0  0  0 
 42 47  1  0  0  0  0 
 43 48  1  0  0  0  0 
 44 49  1  0  0  0  0 
 45 50  1  0  0  0  0 
 47 51  1  0  0  0  0 
 48 52  1  0  0  0  0 
 49 53  1  0  0  0  0 
 50 54  2  0  0  0  0 
 50 55  1  0  0  0  0 
 50 56  1  0  0  0  0 
 51 57  1  0  0  0  0 
 52 58  1  0  0  0  0 
 53 59  1  0  0  0  0 
 53 60  2  0  0  0  0 
 57 61  1  0  0  0  0 
 58 62  1  0  0  0  0 
 59 63  1  0  0  0  0 
 61 64  1  0  0  0  0 
 62 65  1  0  0  0  0 
 63 66  1  0  0  0  0 
 63 67  2  0  0  0  0 
 64 68  2  0  0  0  0 
 65 69  1  0  0  0  0 
 66 70  1  0  0  0  0 
 68 71  1  0  0  0  0 
 69 72  1  0  0  0  0 
 70 73  1  0  0  0  0 
 71 74  1  0  0  0  0 
 72 75  1  0  0  0  0 
 73 76  1  0  0  0  0 
 74 77  1  0  0  0  0 
 75 78  1  0  0  0  0 
 76 79  1  0  0  0  0 
 77 80  1  0  0  0  0 
 78 81  1  0  0  0  0 
 79 82  1  0  0  0  0 
 80 83  1  0  0  0  0 
 82 84  1  0  0  0  0 
 83 85  1  0  0  0  0 
 84 86  1  0  0  0  0 
 86 87  1  0  0  0  0 
 87 88  1  0  0  0  0 
 88 89  1  0  0  0  0 
  2 90  1  0  0  0  0 
  2 91  1  0  0  0  0 
  3 92  1  0  0  0  0 
  4 93  1  0  0  0  0 
  4 94  1  0  0  0  0 
  5 95  1  0  0  0  0 
  6 96  1  0  0  0  0 
  7 97  1  0  0  0  0 
  8 98  1  0  0  0  0 
  9 99  1  0  0  0  0 
 11100  1  0  0  0  0 
 12101  1  0  0  0  0 
 12102  1  0  0  0  0 
 18103  1  0  0  0  0 
 18104  1  0  0  0  0 
 19105  1  0  0  0  0 
 19106  1  0  0  0  0 
 20107  1  0  0  0  0 
 20108  1  0  0  0  0 
 20109  1  0  0  0  0 
 21110  1  0  0  0  0 
 21111  1  0  0  0  0 
 23112  1  0  0  0  0 
 23113  1  0  0  0  0 
 25114  1  0  0  0  0 
 26115  1  0  0  0  0 
 28116  1  0  0  0  0 
 28117  1  0  0  0  0 
 29118  1  0  0  0  0 
 29119  1  0  0  0  0 
 30120  1  0  0  0  0 
 31121  1  0  0  0  0 
 31122  1  0  0  0  0 
 31123  1  0  0  0  0 
 32124  1  0  0  0  0 
 32125  1  0  0  0  0 
 33126  1  0  0  0  0 
 33127  1  0  0  0  0 
 34128  1  0  0  0  0 
 36129  1  0  0  0  0 
 36130  1  0  0  0  0 
 37131  1  0  0  0  0 
 37132  1  0  0  0  0 
 38133  1  0  0  0  0 
 39134  1  0  0  0  0 
 40135  1  0  0  0  0 
 41136  1  0  0  0  0 
 41137  1  0  0  0  0 
 42138  1  0  0  0  0 
 42139  1  0  0  0  0 
 44140  1  0  0  0  0 
 46141  1  0  0  0  0 
 46142  1  0  0  0  0 
 46143  1  0  0  0  0 
 47144  1  0  0  0  0 
 47145  1  0  0  0  0 
 48146  1  0  0  0  0 
 48147  1  0  0  0  0 
 49148  1  0  0  0  0 
 51149  1  0  0  0  0 
 51150  1  0  0  0  0 
 52151  1  0  0  0  0 
 52152  1  0  0  0  0 
 55153  1  0  0  0  0 
 56154  1  0  0  0  0 
 57155  1  0  0  0  0 
 57156  1  0  0  0  0 
 58157  1  0  0  0  0 
 58158  1  0  0  0  0 
 59159  1  0  0  0  0 
 59160  1  0  0  0  0 
 61161  1  0  0  0  0 
 61162  1  0  0  0  0 
 62163  1  0  0  0  0 
 62164  1  0  0  0  0 
 64165  1  0  0  0  0 
 65166  1  0  0  0  0 
 65167  1  0  0  0  0 
 66168  1  0  0  0  0 
 66169  1  0  0  0  0 
 68170  1  0  0  0  0 
 69171  1  0  0  0  0 
 69172  1  0  0  0  0 
 70173  1  0  0  0  0 
 70174  1  0  0  0  0 
 71175  1  0  0  0  0 
 71176  1  0  0  0  0 
 72177  1  0  0  0  0 
 72178  1  0  0  0  0 
 73179  1  0  0  0  0 
 73180  1  0  0  0  0 
 74181  1  0  0  0  0 
 74182  1  0  0  0  0 
 75183  1  0  0  0  0 
 75184  1  0  0  0  0 
 76185  1  0  0  0  0 
 76186  1  0  0  0  0 
 77187  1  0  0  0  0 
 77188  1  0  0  0  0 
 78189  1  0  0  0  0 
 78190  1  0  0  0  0 
 79191  1  0  0  0  0 
 79192  1  0  0  0  0 
 80193  1  0  0  0  0 
 80194  1  0  0  0  0 
 81195  1  0  0  0  0 
 81196  1  0  0  0  0 
 81197  1  0  0  0  0 
 82198  1  0  0  0  0 
 82199  1  0  0  0  0 
 83200  1  0  0  0  0 
 83201  1  0  0  0  0 
 84202  1  0  0  0  0 
 84203  1  0  0  0  0 
 85204  1  0  0  0  0 
 85205  1  0  0  0  0 
 85206  1  0  0  0  0 
 86207  1  0  0  0  0 
 86208  1  0  0  0  0 
 87209  1  0  0  0  0 
 87210  1  0  0  0  0 
 88211  1  0  0  0  0 
 88212  1  0  0  0  0 
 89213  1  0  0  0  0 
 89214  1  0  0  0  0 
 89215  1  0  0  0  0 
M  END
> <cdk:Title>
eritoran

> <Conformer>
1

> <SuperDrugID>
SD000930

$$$$
