edaravone
  CDK     0628171801

 23 24  0  0  0  0  0  0  0  0999 V2000
   -0.9338   -1.9522   -1.0470 N   0  0  0  0  0  0  0  0  0  0  0  0
   -1.0680   -1.0133   -0.1593 N   0  0  0  0  0  0  0  0  0  0  0  0
   -1.7002   -1.5139    0.9252 C   0  0  0  0  0  0  0  0  0  0  0  0
   -1.9592   -2.8512    0.6682 C   0  0  0  0  0  0  0  0  0  0  0  0
   -1.4522   -3.1073   -0.5997 C   0  0  0  0  0  0  0  0  0  0  0  0
   -0.6322    0.2621   -0.3245 C   0  0  0  0  0  0  0  0  0  0  0  0
   -1.4741   -4.3926   -1.3141 C   0  0  0  0  0  0  0  0  0  0  0  0
   -2.0225   -0.9064    1.9736 O   0  0  0  0  0  0  0  0  0  0  0  0
   -0.6839    2.3842   -1.5368 C   0  0  0  0  0  0  0  0  0  0  0  0
    0.2409    2.9278   -0.6253 C   0  0  0  0  0  0  0  0  0  0  0  0
    0.7327    2.1435    0.4342 C   0  0  0  0  0  0  0  0  0  0  0  0
    0.2967    0.8156    0.5853 C   0  0  0  0  0  0  0  0  0  0  0  0
   -1.1146    1.0520   -1.3923 C   0  0  0  0  0  0  0  0  0  0  0  0
   -0.5037   -1.8434   -1.9086 H   0  0  0  0  0  0  0  0  0  0  0  0
   -2.4288   -3.5115    1.2897 H   0  0  0  0  0  0  0  0  0  0  0  0
   -0.9405   -5.1456   -0.7322 H   0  0  0  0  0  0  0  0  0  0  0  0
   -0.9959   -4.3036   -2.2910 H   0  0  0  0  0  0  0  0  0  0  0  0
   -2.5062   -4.7158   -1.4578 H   0  0  0  0  0  0  0  0  0  0  0  0
   -1.0491    2.9579   -2.3011 H   0  0  0  0  0  0  0  0  0  0  0  0
    0.5525    3.8944   -0.7290 H   0  0  0  0  0  0  0  0  0  0  0  0
    1.4033    2.5362    1.1001 H   0  0  0  0  0  0  0  0  0  0  0  0
    0.6630    0.2540    1.3591 H   0  0  0  0  0  0  0  0  0  0  0  0
   -1.7938    0.6695   -2.0568 H   0  0  0  0  0  0  0  0  0  0  0  0
  1  2  1  0  0  0  0 
  1  5  1  0  0  0  0 
  2  3  1  0  0  0  0 
  3  4  1  0  0  0  0 
  4  5  2  0  0  0  0 
  2  6  1  0  0  0  0 
  5  7  1  0  0  0  0 
  3  8  2  0  0  0  0 
 12  6  2  0  0  0  0 
  6 13  1  0  0  0  0 
  9 10  1  0  0  0  0 
  9 13  2  0  0  0  0 
 10 11  2  0  0  0  0 
 11 12  1  0  0  0  0 
 14  1  1  0  0  0  0 
 15  4  1  0  0  0  0 
 16  7  1  0  0  0  0 
 17  7  1  0  0  0  0 
 18  7  1  0  0  0  0 
 19  9  1  0  0  0  0 
 20 10  1  0  0  0  0 
 21 11  1  0  0  0  0 
 22 12  1  0  0  0  0 
 23 13  1  0  0  0  0 
M  END
> <cdk:Title>
edaravone

> <Conformer>
1

> <SuperDrugID>
SD003389

$$$$
