octacaine
  CDK     0628171801

 39 39  0  0  0  0  0  0  0  0999 V2000
    4.9150    0.5171   -3.5761 N   0  0  0  0  0  0  0  0  0  0  0  0
    4.5648   -0.7130   -4.0519 C   0  0  0  0  0  0  0  0  0  0  0  0
    6.0439    1.2677   -3.7886 C   0  0  0  0  0  0  0  0  0  0  0  0
    3.2276   -1.2637   -3.7204 C   0  0  2  0  0  0  0  0  0  0  0  0
    5.3212   -1.4164   -4.7633 O   0  0  0  0  0  0  0  0  0  0  0  0
    7.0675    0.9866   -4.7311 C   0  0  0  0  0  0  0  0  0  0  0  0
    6.1640    2.4369   -3.0037 C   0  0  0  0  0  0  0  0  0  0  0  0
    2.1166   -0.9195   -4.7831 C   0  0  1  0  0  0  0  0  0  0  0  0
    8.1839    1.8347   -4.8659 C   0  0  0  0  0  0  0  0  0  0  0  0
    7.2702    3.2968   -3.1506 C   0  0  0  0  0  0  0  0  0  0  0  0
    0.7941   -1.6728   -4.6993 N   0  0  1  0  0  0  0  0  0  0  0  0
    1.8114    0.6118   -4.7403 C   0  0  0  0  0  0  0  0  0  0  0  0
    8.2805    2.9957   -4.0802 C   0  0  0  0  0  0  0  0  0  0  0  0
   -0.0284   -1.6202   -5.9679 C   0  0  2  0  0  0  0  0  0  0  0  0
    0.8142   -3.0114   -4.0123 C   0  0  2  0  0  0  0  0  0  0  0  0
   -1.4117   -0.9772   -5.7237 C   0  0  0  0  0  0  0  0  0  0  0  0
   -0.5307   -3.7474   -3.8014 C   0  0  0  0  0  0  0  0  0  0  0  0
    4.2506    0.9288   -3.0006 H   0  0  0  0  0  0  0  0  0  0  0  0
    2.9213   -0.9214   -2.7274 H   0  0  0  0  0  0  0  0  0  0  0  0
    3.3569   -2.3450   -3.6412 H   0  0  0  0  0  0  0  0  0  0  0  0
    7.0187    0.1735   -5.3416 H   0  0  0  0  0  0  0  0  0  0  0  0
    5.4421    2.6746   -2.3148 H   0  0  0  0  0  0  0  0  0  0  0  0
    2.5615   -1.1470   -5.7597 H   0  0  0  0  0  0  0  0  0  0  0  0
    8.9226    1.6091   -5.5392 H   0  0  0  0  0  0  0  0  0  0  0  0
    7.3402    4.1422   -2.5808 H   0  0  0  0  0  0  0  0  0  0  0  0
    2.6947    1.1979   -4.9956 H   0  0  0  0  0  0  0  0  0  0  0  0
    1.4744    0.9091   -3.7448 H   0  0  0  0  0  0  0  0  0  0  0  0
    1.0367    0.8854   -5.4550 H   0  0  0  0  0  0  0  0  0  0  0  0
    9.0815    3.6228   -4.1893 H   0  0  0  0  0  0  0  0  0  0  0  0
   -0.1741   -2.6119   -6.3990 H   0  0  0  0  0  0  0  0  0  0  0  0
    0.4610   -1.0385   -6.7546 H   0  0  0  0  0  0  0  0  0  0  0  0
    1.2111   -2.8758   -3.0038 H   0  0  0  0  0  0  0  0  0  0  0  0
    1.4831   -3.6779   -4.5616 H   0  0  0  0  0  0  0  0  0  0  0  0
   -2.0090   -1.5812   -5.0435 H   0  0  0  0  0  0  0  0  0  0  0  0
   -1.2996    0.0173   -5.2934 H   0  0  0  0  0  0  0  0  0  0  0  0
   -1.9539   -0.8893   -6.6672 H   0  0  0  0  0  0  0  0  0  0  0  0
   -0.3491   -4.6792   -3.2617 H   0  0  0  0  0  0  0  0  0  0  0  0
   -0.9990   -4.0050   -4.7510 H   0  0  0  0  0  0  0  0  0  0  0  0
   -1.2130   -3.1332   -3.2114 H   0  0  0  0  0  0  0  0  0  0  0  0
  1  2  1  0  0  0  0 
  1  3  1  0  0  0  0 
  2  4  1  0  0  0  0 
  2  5  2  0  0  0  0 
  3  6  2  0  0  0  0 
  3  7  1  0  0  0  0 
  8  4  1  0  0  0  0 
  6  9  1  0  0  0  0 
  7 10  2  0  0  0  0 
  8 11  1  0  0  0  0 
  8 12  1  0  0  0  0 
  9 13  2  0  0  0  0 
 10 13  1  0  0  0  0 
 11 14  1  0  0  0  0 
 11 15  1  0  0  0  0 
 14 16  1  0  0  0  0 
 15 17  1  0  0  0  0 
  1 18  1  0  0  0  0 
  4 19  1  0  0  0  0 
  4 20  1  0  0  0  0 
  6 21  1  0  0  0  0 
  7 22  1  0  0  0  0 
  8 23  1  0  0  0  0 
  9 24  1  0  0  0  0 
 10 25  1  0  0  0  0 
 12 26  1  0  0  0  0 
 12 27  1  0  0  0  0 
 12 28  1  0  0  0  0 
 13 29  1  0  0  0  0 
 14 30  1  0  0  0  0 
 14 31  1  0  0  0  0 
 15 32  1  0  0  0  0 
 15 33  1  0  0  0  0 
 16 34  1  0  0  0  0 
 16 35  1  0  0  0  0 
 16 36  1  0  0  0  0 
 17 37  1  0  0  0  0 
 17 38  1  0  0  0  0 
 17 39  1  0  0  0  0 
M  END
> <cdk:Title>
octacaine

> <Conformer>
1

> <SuperDrugID>
SD002921

$$$$
