timolol
  CDK     0628171801

 45 46  0  0  0  0  0  0  0  0999 V2000
   -1.4464    0.5681    2.2131 O   0  0  0  0  0  0  0  0  0  0  0  0
   -1.5681    1.9133    2.7164 C   0  0  2  0  0  0  0  0  0  0  0  0
   -2.4401    0.2471    1.3283 C   0  0  0  0  0  0  0  0  0  0  0  0
   -0.3894    2.2238    3.6740 C   0  0  2  0  0  0  0  0  0  0  0  0
   -2.3485    0.4099   -0.0703 C   0  0  0  0  0  0  0  0  0  0  0  0
   -3.6054   -0.2591    1.7665 N   0  0  0  0  0  0  0  0  0  0  0  0
   -0.4466    3.6808    4.1999 C   0  0  2  0  0  0  0  0  0  0  0  0
    0.8543    2.0124    3.0042 O   0  0  0  0  0  0  0  0  0  0  0  0
   -3.4788    0.0562   -0.7123 N   0  0  0  0  0  0  0  0  0  0  0  0
   -1.2435    0.8744   -0.7536 N   0  0  0  0  0  0  0  0  0  0  0  0
   -4.6092   -0.4998    0.4222 S   0  0  0  0  0  0  0  0  0  0  0  0
    0.7040    3.9590    5.0910 N   0  0  1  0  0  0  0  0  0  0  0  0
   -1.3778    1.7581   -1.8936 C   0  0  1  0  0  0  0  0  0  0  0  0
    0.0976    0.4586   -0.4046 C   0  0  2  0  0  0  0  0  0  0  0  0
    0.8266    5.2998    5.7404 C   0  0  2  0  0  0  0  0  0  0  0  0
   -0.6438    1.1474   -3.1130 C   0  0  1  0  0  0  0  0  0  0  0  0
    0.8463   -0.0618   -1.6591 C   0  0  2  0  0  0  0  0  0  0  0  0
   -0.3856    5.5964    6.6798 C   0  0  0  0  0  0  0  0  0  0  0  0
    1.0012    6.4330    4.6797 C   0  0  0  0  0  0  0  0  0  0  0  0
    2.1260    5.2051    6.5971 C   0  0  0  0  0  0  0  0  0  0  0  0
    0.7261    0.8529   -2.7699 O   0  0  0  0  0  0  0  0  0  0  0  0
   -2.5109    2.0286    3.2625 H   0  0  0  0  0  0  0  0  0  0  0  0
   -1.5536    2.6324    1.8905 H   0  0  0  0  0  0  0  0  0  0  0  0
   -0.4346    1.5370    4.5243 H   0  0  0  0  0  0  0  0  0  0  0  0
   -1.3850    3.8236    4.7398 H   0  0  0  0  0  0  0  0  0  0  0  0
   -0.4264    4.3642    3.3498 H   0  0  0  0  0  0  0  0  0  0  0  0
    0.8713    1.0564    2.7917 H   0  0  0  0  0  0  0  0  0  0  0  0
    0.6794    3.2637    5.8394 H   0  0  0  0  0  0  0  0  0  0  0  0
   -2.4180    1.9588   -2.1648 H   0  0  0  0  0  0  0  0  0  0  0  0
   -0.9148    2.7180   -1.6500 H   0  0  0  0  0  0  0  0  0  0  0  0
    0.1106   -0.3415    0.3408 H   0  0  0  0  0  0  0  0  0  0  0  0
    0.6366    1.3137    0.0108 H   0  0  0  0  0  0  0  0  0  0  0  0
   -1.1563    0.2420   -3.4496 H   0  0  0  0  0  0  0  0  0  0  0  0
   -0.6487    1.8612   -3.9373 H   0  0  0  0  0  0  0  0  0  0  0  0
    0.4596   -1.0431   -1.9456 H   0  0  0  0  0  0  0  0  0  0  0  0
    1.9054   -0.1763   -1.4215 H   0  0  0  0  0  0  0  0  0  0  0  0
   -0.2009    6.4822    7.2931 H   0  0  0  0  0  0  0  0  0  0  0  0
   -1.2952    5.7757    6.1040 H   0  0  0  0  0  0  0  0  0  0  0  0
   -0.5683    4.7507    7.3467 H   0  0  0  0  0  0  0  0  0  0  0  0
    1.7973    6.1769    3.9769 H   0  0  0  0  0  0  0  0  0  0  0  0
    1.2592    7.3812    5.1594 H   0  0  0  0  0  0  0  0  0  0  0  0
    0.0819    6.5857    4.1114 H   0  0  0  0  0  0  0  0  0  0  0  0
    2.9895    4.9865    5.9648 H   0  0  0  0  0  0  0  0  0  0  0  0
    2.0424    4.4086    7.3403 H   0  0  0  0  0  0  0  0  0  0  0  0
    2.3210    6.1419    7.1252 H   0  0  0  0  0  0  0  0  0  0  0  0
  1  2  1  0  0  0  0 
  1  3  1  0  0  0  0 
  4  2  1  0  0  0  0 
  3  5  1  0  0  0  0 
  3  6  2  0  0  0  0 
  4  7  1  0  0  0  0 
  4  8  1  0  0  0  0 
  5  9  2  0  0  0  0 
  5 10  1  0  0  0  0 
  6 11  1  0  0  0  0 
  7 12  1  0  0  0  0 
  9 11  1  0  0  0  0 
 10 13  1  0  0  0  0 
 10 14  1  0  0  0  0 
 12 15  1  0  0  0  0 
 13 16  1  0  0  0  0 
 14 17  1  0  0  0  0 
 15 18  1  0  0  0  0 
 15 19  1  0  0  0  0 
 15 20  1  0  0  0  0 
 16 21  1  0  0  0  0 
 17 21  1  0  0  0  0 
  2 22  1  0  0  0  0 
  2 23  1  0  0  0  0 
  4 24  1  0  0  0  0 
  7 25  1  0  0  0  0 
  7 26  1  0  0  0  0 
  8 27  1  0  0  0  0 
 12 28  1  0  0  0  0 
 13 29  1  0  0  0  0 
 13 30  1  0  0  0  0 
 14 31  1  0  0  0  0 
 14 32  1  0  0  0  0 
 16 33  1  0  0  0  0 
 16 34  1  0  0  0  0 
 17 35  1  0  0  0  0 
 17 36  1  0  0  0  0 
 18 37  1  0  0  0  0 
 18 38  1  0  0  0  0 
 18 39  1  0  0  0  0 
 19 40  1  0  0  0  0 
 19 41  1  0  0  0  0 
 19 42  1  0  0  0  0 
 20 43  1  0  0  0  0 
 20 44  1  0  0  0  0 
 20 45  1  0  0  0  0 
M  END
> <cdk:Title>
timolol

> <Conformer>
1

> <SuperDrugID>
SD003343

$$$$
