zalcitabine
  CDK     0628171801

 28 29  0  0  0  0  0  0  0  0999 V2000
    4.7659   -4.0000   -1.0534 O   0  0  0  0  0  0  0  0  0  0  0  0
    4.2627   -4.5928   -2.0351 C   0  0  0  0  0  0  0  0  0  0  0  0
    2.9739   -4.3929   -2.4750 N   0  0  0  0  0  0  0  0  0  0  0  0
    5.0775   -5.4789   -2.6594 N   0  0  0  0  0  0  0  0  0  0  0  0
    2.0614   -3.4573   -1.8349 C   0  0  2  0  0  0  0  0  0  0  0  0
    2.5213   -5.1397   -3.5363 C   0  0  0  0  0  0  0  0  0  0  0  0
    4.6680   -6.2132   -3.7180 C   0  0  0  0  0  0  0  0  0  0  0  0
    2.7255   -2.3214   -1.2393 O   0  0  0  0  0  0  0  0  0  0  0  0
    1.2168   -4.1403   -0.7306 C   0  0  1  0  0  0  0  0  0  0  0  0
    3.3522   -6.0690   -4.1856 C   0  0  0  0  0  0  0  0  0  0  0  0
    5.5317   -7.0663   -4.2965 N   0  0  0  0  0  0  0  0  0  0  0  0
    2.1260   -2.0697    0.0399 C   0  0  1  0  0  0  0  0  0  0  0  0
    1.6924   -3.4555    0.5529 C   0  0  1  0  0  0  0  0  0  0  0  0
    3.1099   -1.3529    0.9977 C   0  0  2  0  0  0  0  0  0  0  0  0
    3.4706   -0.0736    0.4885 O   0  0  0  0  0  0  0  0  0  0  0  0
    1.3811   -3.0292   -2.5805 H   0  0  0  0  0  0  0  0  0  0  0  0
    1.5590   -5.0391   -3.8779 H   0  0  0  0  0  0  0  0  0  0  0  0
    0.1506   -3.9413   -0.8851 H   0  0  0  0  0  0  0  0  0  0  0  0
    1.3689   -5.2223   -0.6806 H   0  0  0  0  0  0  0  0  0  0  0  0
    3.0045   -6.6227   -4.9720 H   0  0  0  0  0  0  0  0  0  0  0  0
    6.4333   -7.1533   -3.9464 H   0  0  0  0  0  0  0  0  0  0  0  0
    5.2583   -7.5953   -5.0636 H   0  0  0  0  0  0  0  0  0  0  0  0
    1.2425   -1.4340   -0.1023 H   0  0  0  0  0  0  0  0  0  0  0  0
    0.8967   -3.3910    1.2997 H   0  0  0  0  0  0  0  0  0  0  0  0
    2.5436   -4.0035    0.9688 H   0  0  0  0  0  0  0  0  0  0  0  0
    4.0182   -1.9454    1.1213 H   0  0  0  0  0  0  0  0  0  0  0  0
    2.6428   -1.2200    1.9755 H   0  0  0  0  0  0  0  0  0  0  0  0
    4.0886    0.2981    1.1555 H   0  0  0  0  0  0  0  0  0  0  0  0
  1  2  2  0  0  0  0 
  2  3  1  0  0  0  0 
  2  4  1  0  0  0  0 
  3  6  1  0  0  0  0 
  4  7  2  0  0  0  0 
  5  3  1  0  0  0  0 
  5  8  1  0  0  0  0 
  5  9  1  0  0  0  0 
  6 10  2  0  0  0  0 
  7 10  1  0  0  0  0 
  7 11  1  0  0  0  0 
 12  8  1  0  0  0  0 
  9 13  1  0  0  0  0 
 12 13  1  0  0  0  0 
 12 14  1  0  0  0  0 
 14 15  1  0  0  0  0 
  5 16  1  0  0  0  0 
  6 17  1  0  0  0  0 
  9 18  1  0  0  0  0 
  9 19  1  0  0  0  0 
 10 20  1  0  0  0  0 
 11 21  1  0  0  0  0 
 11 22  1  0  0  0  0 
 12 23  1  0  0  0  0 
 13 24  1  0  0  0  0 
 13 25  1  0  0  0  0 
 14 26  1  0  0  0  0 
 14 27  1  0  0  0  0 
 15 28  1  0  0  0  0 
M  END
> <cdk:Title>
zalcitabine

> <Conformer>
1

> <SuperDrugID>
SD002573

$$$$
