sulfaphenazole
  CDK     0628171801

 36 38  0  0  0  0  0  0  0  0999 V2000
   -0.2771   -2.1123   -2.3498 N   0  0  0  0  0  0  0  0  0  0  0  0
    1.1874   -2.2003   -3.2396 S   0  0  1  0  0  0  0  0  0  0  0  0
   -1.5060   -1.9903   -2.9131 C   0  0  0  0  0  0  0  0  0  0  0  0
    1.2050   -1.0156   -4.3223 O   0  0  0  0  0  0  0  0  0  0  0  0
    2.4071   -1.9715   -2.2209 O   0  0  0  0  0  0  0  0  0  0  0  0
    1.3741   -3.7853   -4.0074 C   0  0  0  0  0  0  0  0  0  0  0  0
   -2.6221   -1.5567   -2.2845 N   0  0  0  0  0  0  0  0  0  0  0  0
   -1.8753   -2.2588   -4.2258 C   0  0  0  0  0  0  0  0  0  0  0  0
    1.0455   -4.9501   -3.2846 C   0  0  0  0  0  0  0  0  0  0  0  0
    1.8876   -3.9020   -5.3165 C   0  0  0  0  0  0  0  0  0  0  0  0
   -3.6299   -1.5240   -3.1066 N   0  0  0  0  0  0  0  0  0  0  0  0
   -2.7188   -1.1779   -0.9810 C   0  0  0  0  0  0  0  0  0  0  0  0
   -3.2212   -1.9508   -4.3119 C   0  0  0  0  0  0  0  0  0  0  0  0
    1.2504   -6.2203   -3.8538 C   0  0  0  0  0  0  0  0  0  0  0  0
    2.0928   -5.1729   -5.8869 C   0  0  0  0  0  0  0  0  0  0  0  0
   -2.5457   -2.1297    0.0478 C   0  0  0  0  0  0  0  0  0  0  0  0
   -2.9940    0.1660   -0.6378 C   0  0  0  0  0  0  0  0  0  0  0  0
    1.7862   -6.3359   -5.1519 C   0  0  0  0  0  0  0  0  0  0  0  0
   -2.6503   -1.7468    1.3977 C   0  0  0  0  0  0  0  0  0  0  0  0
   -3.0877    0.5501    0.7141 C   0  0  0  0  0  0  0  0  0  0  0  0
    2.0248   -7.5538   -5.6754 N   0  0  0  0  0  0  0  0  0  0  0  0
   -2.9125   -0.4056    1.7319 C   0  0  0  0  0  0  0  0  0  0  0  0
   -0.2164   -2.1092   -1.3828 H   0  0  0  0  0  0  0  0  0  0  0  0
   -1.2839   -2.6115   -4.9798 H   0  0  0  0  0  0  0  0  0  0  0  0
    0.6644   -4.8812   -2.3385 H   0  0  0  0  0  0  0  0  0  0  0  0
    2.1236   -3.0680   -5.8585 H   0  0  0  0  0  0  0  0  0  0  0  0
   -3.8031   -2.0303   -5.1474 H   0  0  0  0  0  0  0  0  0  0  0  0
    1.0164   -7.0575   -3.3135 H   0  0  0  0  0  0  0  0  0  0  0  0
    2.4748   -5.2461   -6.8343 H   0  0  0  0  0  0  0  0  0  0  0  0
   -2.3514   -3.1065   -0.1840 H   0  0  0  0  0  0  0  0  0  0  0  0
   -3.1190    0.8716   -1.3677 H   0  0  0  0  0  0  0  0  0  0  0  0
   -2.5375   -2.4451    2.1351 H   0  0  0  0  0  0  0  0  0  0  0  0
   -3.2832    1.5231    0.9594 H   0  0  0  0  0  0  0  0  0  0  0  0
    2.4068   -7.6382   -6.5622 H   0  0  0  0  0  0  0  0  0  0  0  0
    1.8253   -8.3511   -5.1617 H   0  0  0  0  0  0  0  0  0  0  0  0
   -2.9756   -0.1275    2.7142 H   0  0  0  0  0  0  0  0  0  0  0  0
  1  2  1  0  0  0  0 
  1  3  1  0  0  0  0 
  2  4  2  0  0  0  0 
  2  5  2  0  0  0  0 
  2  6  1  0  0  0  0 
  3  7  1  0  0  0  0 
  3  8  2  0  0  0  0 
  6  9  2  0  0  0  0 
  6 10  1  0  0  0  0 
  7 11  1  0  0  0  0 
  7 12  1  0  0  0  0 
  8 13  1  0  0  0  0 
  9 14  1  0  0  0  0 
 10 15  2  0  0  0  0 
 11 13  2  0  0  0  0 
 12 16  2  0  0  0  0 
 12 17  1  0  0  0  0 
 14 18  2  0  0  0  0 
 15 18  1  0  0  0  0 
 16 19  1  0  0  0  0 
 17 20  2  0  0  0  0 
 18 21  1  0  0  0  0 
 19 22  2  0  0  0  0 
 20 22  1  0  0  0  0 
  1 23  1  0  0  0  0 
  8 24  1  0  0  0  0 
  9 25  1  0  0  0  0 
 10 26  1  0  0  0  0 
 13 27  1  0  0  0  0 
 14 28  1  0  0  0  0 
 15 29  1  0  0  0  0 
 16 30  1  0  0  0  0 
 17 31  1  0  0  0  0 
 19 32  1  0  0  0  0 
 20 33  1  0  0  0  0 
 21 34  1  0  0  0  0 
 21 35  1  0  0  0  0 
 22 36  1  0  0  0  0 
M  END
> <cdk:Title>
sulfaphenazole

> <Conformer>
1

> <SuperDrugID>
SD002269

$$$$
