sofosbuvir
  CDK     0628171802

 65 67  0  0  0  0  0  0  0  0999 V2000
    4.8713   -2.1743   -2.8447 C   0  0  0  0  0  0  0  0  0  0  0  0
    3.9034   -1.7411   -1.7086 C   0  0  2  0  0  0  0  0  0  0  0  0
    3.1301   -0.7100   -2.2173 F   0  0  0  0  0  0  0  0  0  0  0  0
    4.5685   -1.2662   -0.3770 C   0  0  1  0  0  0  0  0  0  0  0  0
    2.9693   -2.8717   -1.2286 C   0  0  2  0  0  0  0  0  0  0  0  0
    3.6756   -1.6269    0.6924 O   0  0  0  0  0  0  0  0  0  0  0  0
    5.9156   -1.7735   -0.1096 N   0  0  0  0  0  0  0  0  0  0  0  0
    1.8349   -3.0657   -2.0748 O   0  0  0  0  0  0  0  0  0  0  0  0
    2.5714   -2.3894    0.1838 C   0  0  2  0  0  0  0  0  0  0  0  0
    7.0262   -0.9632   -0.2085 C   0  0  0  0  0  0  0  0  0  0  0  0
    6.1093   -3.0895    0.2393 C   0  0  0  0  0  0  0  0  0  0  0  0
    2.2378   -3.5287    1.1765 C   0  0  1  0  0  0  0  0  0  0  0  0
    6.9708    0.2446   -0.5381 O   0  0  0  0  0  0  0  0  0  0  0  0
    8.2719   -1.4437    0.0434 N   0  0  0  0  0  0  0  0  0  0  0  0
    7.3879   -3.6049    0.5058 C   0  0  0  0  0  0  0  0  0  0  0  0
    1.6720   -2.9607    2.3686 O   0  0  0  0  0  0  0  0  0  0  0  0
    8.4791   -2.7314    0.4068 C   0  0  0  0  0  0  0  0  0  0  0  0
    1.7369   -3.7886    3.7388 P   0  0  2  0  0  0  0  0  0  0  0  0
    9.6411   -3.1301    0.6441 O   0  0  0  0  0  0  0  0  0  0  0  0
    3.2298   -3.8086    4.3095 O   0  0  0  0  0  0  0  0  0  0  0  0
    1.1939   -5.3432    3.6301 N   0  0  1  0  0  0  0  0  0  0  0  0
    0.8608   -3.0935    4.6970 O   0  0  0  0  0  0  0  0  0  0  0  0
    3.7393   -2.6023    4.7022 C   0  0  0  0  0  0  0  0  0  0  0  0
    1.8951   -6.4227    2.8727 C   0  0  2  0  0  0  0  0  0  0  0  0
    3.4876   -2.0997    5.9984 C   0  0  0  0  0  0  0  0  0  0  0  0
    4.6109   -1.8951    3.8489 C   0  0  0  0  0  0  0  0  0  0  0  0
    1.0405   -7.6388    2.9687 C   0  0  0  0  0  0  0  0  0  0  0  0
    3.3584   -6.6846    3.3372 C   0  0  0  0  0  0  0  0  0  0  0  0
    4.0926   -0.9028    6.4277 C   0  0  0  0  0  0  0  0  0  0  0  0
    5.2124   -0.6956    4.2745 C   0  0  0  0  0  0  0  0  0  0  0  0
    1.6072   -8.8825    3.0777 O   0  0  0  0  0  0  0  0  0  0  0  0
   -0.2066   -7.5274    2.8872 O   0  0  0  0  0  0  0  0  0  0  0  0
    4.9566   -0.2012    5.5667 C   0  0  0  0  0  0  0  0  0  0  0  0
    1.0003  -10.1846    3.1801 C   0  0  2  0  0  0  0  0  0  0  0  0
    0.0972  -10.5147    1.9626 C   0  0  0  0  0  0  0  0  0  0  0  0
    0.2816  -10.3678    4.5430 C   0  0  0  0  0  0  0  0  0  0  0  0
    5.5046   -1.3346   -3.1415 H   0  0  0  0  0  0  0  0  0  0  0  0
    5.5125   -2.9996   -2.5302 H   0  0  0  0  0  0  0  0  0  0  0  0
    4.3017   -2.5043   -3.7166 H   0  0  0  0  0  0  0  0  0  0  0  0
    4.5742   -0.1697   -0.3690 H   0  0  0  0  0  0  0  0  0  0  0  0
    3.5119   -3.8197   -1.1760 H   0  0  0  0  0  0  0  0  0  0  0  0
    1.3119   -3.7711   -1.6390 H   0  0  0  0  0  0  0  0  0  0  0  0
    1.7084   -1.7199    0.1004 H   0  0  0  0  0  0  0  0  0  0  0  0
    5.3257   -3.7380    0.3119 H   0  0  0  0  0  0  0  0  0  0  0  0
    1.4987   -4.1908    0.7180 H   0  0  0  0  0  0  0  0  0  0  0  0
    3.1547   -4.0882    1.3806 H   0  0  0  0  0  0  0  0  0  0  0  0
    9.0356   -0.8513   -0.0409 H   0  0  0  0  0  0  0  0  0  0  0  0
    7.5129   -4.5886    0.7587 H   0  0  0  0  0  0  0  0  0  0  0  0
    1.1161   -5.6748    4.5951 H   0  0  0  0  0  0  0  0  0  0  0  0
    1.9198   -6.1826    1.8117 H   0  0  0  0  0  0  0  0  0  0  0  0
    2.8722   -2.6102    6.6369 H   0  0  0  0  0  0  0  0  0  0  0  0
    4.8200   -2.2627    2.9216 H   0  0  0  0  0  0  0  0  0  0  0  0
    3.7779   -7.5532    2.8246 H   0  0  0  0  0  0  0  0  0  0  0  0
    3.3982   -6.8571    4.4162 H   0  0  0  0  0  0  0  0  0  0  0  0
    3.9982   -5.8387    3.0872 H   0  0  0  0  0  0  0  0  0  0  0  0
    3.9111   -0.5477    7.3690 H   0  0  0  0  0  0  0  0  0  0  0  0
    5.8416   -0.1884    3.6467 H   0  0  0  0  0  0  0  0  0  0  0  0
    5.4022    0.6639    5.8804 H   0  0  0  0  0  0  0  0  0  0  0  0
    1.8343  -10.8900    3.1541 H   0  0  0  0  0  0  0  0  0  0  0  0
   -0.9007   -9.9897    2.0882 H   0  0  0  0  0  0  0  0  0  0  0  0
    0.6880  -10.3056    1.0156 H   0  0  0  0  0  0  0  0  0  0  0  0
   -0.1081  -11.5896    1.9658 H   0  0  0  0  0  0  0  0  0  0  0  0
   -0.5115   -9.6277    4.6612 H   0  0  0  0  0  0  0  0  0  0  0  0
    0.9972  -10.2506    5.3596 H   0  0  0  0  0  0  0  0  0  0  0  0
   -0.1602  -11.3635    4.6206 H   0  0  0  0  0  0  0  0  0  0  0  0
  2  1  1  0  0  0  0 
  2  3  1  0  0  0  0 
  2  4  1  0  0  0  0 
  2  5  1  0  0  0  0 
  4  6  1  0  0  0  0 
  4  7  1  0  0  0  0 
  5  8  1  0  0  0  0 
  5  9  1  0  0  0  0 
  9  6  1  0  0  0  0 
  7 10  1  0  0  0  0 
  7 11  1  0  0  0  0 
  9 12  1  0  0  0  0 
 10 13  2  0  0  0  0 
 10 14  1  0  0  0  0 
 11 15  2  0  0  0  0 
 12 16  1  0  0  0  0 
 14 17  1  0  0  0  0 
 15 17  1  0  0  0  0 
 18 16  1  0  0  0  0 
 17 19  2  0  0  0  0 
 18 20  1  0  0  0  0 
 18 21  1  0  0  0  0 
 18 22  2  0  0  0  0 
 20 23  1  0  0  0  0 
 24 21  1  0  0  0  0 
 23 25  2  0  0  0  0 
 23 26  1  0  0  0  0 
 24 27  1  0  0  0  0 
 24 28  1  0  0  0  0 
 25 29  1  0  0  0  0 
 26 30  2  0  0  0  0 
 27 31  1  0  0  0  0 
 27 32  2  0  0  0  0 
 29 33  2  0  0  0  0 
 30 33  1  0  0  0  0 
 31 34  1  0  0  0  0 
 34 35  1  0  0  0  0 
 34 36  1  0  0  0  0 
 37  1  1  0  0  0  0 
 38  1  1  0  0  0  0 
 39  1  1  0  0  0  0 
  4 40  1  0  0  0  0 
  5 41  1  0  0  0  0 
 42  8  1  0  0  0  0 
  9 43  1  0  0  0  0 
 44 11  1  0  0  0  0 
 45 12  1  0  0  0  0 
 46 12  1  0  0  0  0 
 47 14  1  0  0  0  0 
 48 15  1  0  0  0  0 
 49 21  1  0  0  0  0 
 24 50  1  0  0  0  0 
 51 25  1  0  0  0  0 
 52 26  1  0  0  0  0 
 53 28  1  0  0  0  0 
 54 28  1  0  0  0  0 
 55 28  1  0  0  0  0 
 56 29  1  0  0  0  0 
 57 30  1  0  0  0  0 
 58 33  1  0  0  0  0 
 59 34  1  0  0  0  0 
 60 35  1  0  0  0  0 
 61 35  1  0  0  0  0 
 62 35  1  0  0  0  0 
 63 36  1  0  0  0  0 
 64 36  1  0  0  0  0 
 65 36  1  0  0  0  0 
M  END
> <cdk:Title>
sofosbuvir

> <Conformer>
1

> <SuperDrugID>
SD003773

$$$$
