etofylline nicotinate
  CDK     0628171801

 39 41  0  0  0  0  0  0  0  0999 V2000
    0.7480   -5.8350    6.3057 C   0  0  2  0  0  0  0  0  0  0  0  0
   -0.0007   -5.6888    7.6586 C   0  0  1  0  0  0  0  0  0  0  0  0
    1.7611   -4.8376    6.0799 N   0  0  0  0  0  0  0  0  0  0  0  0
   -1.3792   -5.3286    7.4652 O   0  0  0  0  0  0  0  0  0  0  0  0
    2.9318   -4.6550    6.7325 C   0  0  0  0  0  0  0  0  0  0  0  0
    1.7284   -3.8972    5.1114 C   0  0  0  0  0  0  0  0  0  0  0  0
   -2.3151   -5.1821    8.4579 C   0  0  0  0  0  0  0  0  0  0  0  0
    3.6133   -3.6137    6.1143 C   0  0  0  0  0  0  0  0  0  0  0  0
    3.5372   -5.2883    7.8319 C   0  0  0  0  0  0  0  0  0  0  0  0
    2.8450   -3.1525    5.1151 N   0  0  0  0  0  0  0  0  0  0  0  0
   -1.9686   -5.3907    9.6460 O   0  0  0  0  0  0  0  0  0  0  0  0
   -3.6549   -4.8068    8.1612 C   0  0  0  0  0  0  0  0  0  0  0  0
    4.8527   -3.2087    6.5143 N   0  0  0  0  0  0  0  0  0  0  0  0
    2.9300   -6.2350    8.3873 O   0  0  0  0  0  0  0  0  0  0  0  0
    4.7705   -4.8586    8.2717 N   0  0  0  0  0  0  0  0  0  0  0  0
   -4.6107   -4.5902    9.1873 C   0  0  0  0  0  0  0  0  0  0  0  0
   -4.0962   -4.6437    6.8251 C   0  0  0  0  0  0  0  0  0  0  0  0
    5.5484   -2.1574    5.8059 C   0  0  0  0  0  0  0  0  0  0  0  0
    5.4214   -3.8411    7.5984 C   0  0  0  0  0  0  0  0  0  0  0  0
    5.3514   -5.4991    9.4361 C   0  0  0  0  0  0  0  0  0  0  0  0
   -5.9380   -4.2437    8.8792 C   0  0  0  0  0  0  0  0  0  0  0  0
   -5.3862   -4.3102    6.5576 N   0  0  0  0  0  0  0  0  0  0  0  0
    6.5677   -3.4791    7.9664 O   0  0  0  0  0  0  0  0  0  0  0  0
   -6.3089   -4.1119    7.5317 C   0  0  0  0  0  0  0  0  0  0  0  0
    0.0144   -5.8202    5.4925 H   0  0  0  0  0  0  0  0  0  0  0  0
    1.2267   -6.8161    6.2578 H   0  0  0  0  0  0  0  0  0  0  0  0
    0.0408   -6.6432    8.1908 H   0  0  0  0  0  0  0  0  0  0  0  0
    0.4728   -4.9303    8.2878 H   0  0  0  0  0  0  0  0  0  0  0  0
    0.9644   -3.7595    4.4469 H   0  0  0  0  0  0  0  0  0  0  0  0
   -4.3552   -4.6843   10.1737 H   0  0  0  0  0  0  0  0  0  0  0  0
   -3.4587   -4.7750    6.0360 H   0  0  0  0  0  0  0  0  0  0  0  0
    5.7526   -1.3245    6.4818 H   0  0  0  0  0  0  0  0  0  0  0  0
    4.9914   -1.7610    4.9543 H   0  0  0  0  0  0  0  0  0  0  0  0
    6.4958   -2.5405    5.4212 H   0  0  0  0  0  0  0  0  0  0  0  0
    5.4886   -6.5642    9.2389 H   0  0  0  0  0  0  0  0  0  0  0  0
    6.3225   -5.0987    9.7316 H   0  0  0  0  0  0  0  0  0  0  0  0
    4.6845   -5.3819   10.2941 H   0  0  0  0  0  0  0  0  0  0  0  0
   -6.6197   -4.0915    9.6261 H   0  0  0  0  0  0  0  0  0  0  0  0
   -7.2687   -3.8688    7.2823 H   0  0  0  0  0  0  0  0  0  0  0  0
  1  2  1  0  0  0  0 
  1  3  1  0  0  0  0 
  2  4  1  0  0  0  0 
  3  5  1  0  0  0  0 
  3  6  1  0  0  0  0 
  4  7  1  0  0  0  0 
  5  8  2  0  0  0  0 
  5  9  1  0  0  0  0 
  6 10  2  0  0  0  0 
  7 11  2  0  0  0  0 
  7 12  1  0  0  0  0 
  8 10  1  0  0  0  0 
  8 13  1  0  0  0  0 
  9 14  2  0  0  0  0 
  9 15  1  0  0  0  0 
 12 16  2  0  0  0  0 
 12 17  1  0  0  0  0 
 13 18  1  0  0  0  0 
 13 19  1  0  0  0  0 
 15 19  1  0  0  0  0 
 15 20  1  0  0  0  0 
 16 21  1  0  0  0  0 
 17 22  2  0  0  0  0 
 19 23  2  0  0  0  0 
 21 24  2  0  0  0  0 
 22 24  1  0  0  0  0 
  1 25  1  0  0  0  0 
  1 26  1  0  0  0  0 
  2 27  1  0  0  0  0 
  2 28  1  0  0  0  0 
  6 29  1  0  0  0  0 
 16 30  1  0  0  0  0 
 17 31  1  0  0  0  0 
 18 32  1  0  0  0  0 
 18 33  1  0  0  0  0 
 18 34  1  0  0  0  0 
 20 35  1  0  0  0  0 
 20 36  1  0  0  0  0 
 20 37  1  0  0  0  0 
 21 38  1  0  0  0  0 
 24 39  1  0  0  0  0 
M  END
> <cdk:Title>
etofylline nicotinate

> <Conformer>
1

> <SuperDrugID>
SD002780

$$$$
