nicofibrate
  CDK     0628171801

 37 38  0  0  0  0  0  0  0  0999 V2000
    3.0911   -3.6391   -2.1512 O   0  0  0  0  0  0  0  0  0  0  0  0
    3.7694   -4.0854   -0.9336 C   0  0  2  0  0  0  0  0  0  0  0  0
    3.3506   -4.2458   -3.3613 C   0  0  0  0  0  0  0  0  0  0  0  0
    3.4306   -5.4761   -0.4952 C   0  0  0  0  0  0  0  0  0  0  0  0
    3.2359   -3.1035    0.1535 C   0  0  0  0  0  0  0  0  0  0  0  0
    5.3197   -3.9246   -1.0300 C   0  0  0  0  0  0  0  0  0  0  0  0
    2.4107   -5.1483   -3.9024 C   0  0  0  0  0  0  0  0  0  0  0  0
    4.5012   -3.9381   -4.1213 C   0  0  0  0  0  0  0  0  0  0  0  0
    2.5283   -6.2330   -1.1807 O   0  0  0  0  0  0  0  0  0  0  0  0
    3.9708   -5.9545    0.5321 O   0  0  0  0  0  0  0  0  0  0  0  0
    2.6699   -5.8295   -5.1053 C   0  0  0  0  0  0  0  0  0  0  0  0
    4.7697   -4.6171   -5.3245 C   0  0  0  0  0  0  0  0  0  0  0  0
    2.1178   -7.5769   -0.8909 C   0  0  2  0  0  0  0  0  0  0  0  0
    3.8637   -5.5794   -5.8109 C   0  0  0  0  0  0  0  0  0  0  0  0
    1.1419   -7.9999   -1.9232 C   0  0  0  0  0  0  0  0  0  0  0  0
    4.2037   -6.4209   -7.2395 Cl  0  0  0  0  0  0  0  0  0  0  0  0
   -0.1205   -7.3680   -2.0234 C   0  0  0  0  0  0  0  0  0  0  0  0
    1.4400   -9.0246   -2.8516 C   0  0  0  0  0  0  0  0  0  0  0  0
   -1.0307   -7.7462   -3.0277 C   0  0  0  0  0  0  0  0  0  0  0  0
    0.5408   -9.3729   -3.8075 N   0  0  0  0  0  0  0  0  0  0  0  0
   -0.6690   -8.7684   -3.9239 C   0  0  0  0  0  0  0  0  0  0  0  0
    2.1539   -3.1988    0.2700 H   0  0  0  0  0  0  0  0  0  0  0  0
    3.4535   -2.0694   -0.1232 H   0  0  0  0  0  0  0  0  0  0  0  0
    3.6985   -3.2931    1.1242 H   0  0  0  0  0  0  0  0  0  0  0  0
    5.7445   -4.6652   -1.7104 H   0  0  0  0  0  0  0  0  0  0  0  0
    5.5775   -2.9256   -1.3891 H   0  0  0  0  0  0  0  0  0  0  0  0
    5.7902   -4.0646   -0.0549 H   0  0  0  0  0  0  0  0  0  0  0  0
    1.5297   -5.3169   -3.4149 H   0  0  0  0  0  0  0  0  0  0  0  0
    5.1555   -3.2222   -3.8004 H   0  0  0  0  0  0  0  0  0  0  0  0
    1.9877   -6.5063   -5.4570 H   0  0  0  0  0  0  0  0  0  0  0  0
    5.6293   -4.4104   -5.8393 H   0  0  0  0  0  0  0  0  0  0  0  0
    1.6537   -7.6229    0.0993 H   0  0  0  0  0  0  0  0  0  0  0  0
    2.9984   -8.2278   -0.8874 H   0  0  0  0  0  0  0  0  0  0  0  0
   -0.3803   -6.6235   -1.3693 H   0  0  0  0  0  0  0  0  0  0  0  0
    2.3368   -9.5132   -2.8212 H   0  0  0  0  0  0  0  0  0  0  0  0
   -1.9406   -7.2833   -3.1070 H   0  0  0  0  0  0  0  0  0  0  0  0
   -1.3102   -9.0595   -4.6637 H   0  0  0  0  0  0  0  0  0  0  0  0
  1  2  1  0  0  0  0 
  1  3  1  0  0  0  0 
  2  4  1  0  0  0  0 
  2  5  1  0  0  0  0 
  2  6  1  0  0  0  0 
  3  7  2  0  0  0  0 
  3  8  1  0  0  0  0 
  4  9  1  0  0  0  0 
  4 10  2  0  0  0  0 
  7 11  1  0  0  0  0 
  8 12  2  0  0  0  0 
  9 13  1  0  0  0  0 
 11 14  2  0  0  0  0 
 12 14  1  0  0  0  0 
 13 15  1  0  0  0  0 
 14 16  1  0  0  0  0 
 15 17  2  0  0  0  0 
 15 18  1  0  0  0  0 
 17 19  1  0  0  0  0 
 18 20  2  0  0  0  0 
 19 21  2  0  0  0  0 
 20 21  1  0  0  0  0 
  5 22  1  0  0  0  0 
  5 23  1  0  0  0  0 
  5 24  1  0  0  0  0 
  6 25  1  0  0  0  0 
  6 26  1  0  0  0  0 
  6 27  1  0  0  0  0 
  7 28  1  0  0  0  0 
  8 29  1  0  0  0  0 
 11 30  1  0  0  0  0 
 12 31  1  0  0  0  0 
 13 32  1  0  0  0  0 
 13 33  1  0  0  0  0 
 17 34  1  0  0  0  0 
 18 35  1  0  0  0  0 
 19 36  1  0  0  0  0 
 21 37  1  0  0  0  0 
M  END
> <cdk:Title>
nicofibrate

> <Conformer>
1

> <SuperDrugID>
SD001710

$$$$
