carfilzomib
  CDK     0628171801

109112  0  0  0  0  0  0  0  0999 V2000
   -0.6955    2.2420    0.8309 C   0  0  0  0  0  0  0  0  0  0  0  0
   -1.0837    0.8958    0.3086 C   0  0  1  0  0  0  0  0  0  0  0  0
   -1.4571    2.8144    1.6460 O   0  0  0  0  0  0  0  0  0  0  0  0
    0.5839    2.9312    0.5320 C   0  0  1  0  0  0  0  0  0  0  0  0
   -1.9390    1.0303   -0.8367 N   0  0  0  0  0  0  0  0  0  0  0  0
    0.1031   -0.1184    0.2137 C   0  0  1  0  0  0  0  0  0  0  0  0
    1.7281    2.8608    1.5709 C   0  0  0  0  0  0  0  0  0  0  0  0
    0.9033    3.3665   -0.8878 C   0  0  1  0  0  0  0  0  0  0  0  0
    0.3932    4.2843    0.0826 O   0  0  0  0  0  0  0  0  0  0  0  0
   -1.6172    1.0818   -2.1638 C   0  0  0  0  0  0  0  0  0  0  0  0
   -0.1843   -1.5375   -0.3905 C   0  0  1  0  0  0  0  0  0  0  0  0
   -2.6400    1.3311   -3.2244 C   0  0  2  0  0  0  0  0  0  0  0  0
   -0.4324    0.9309   -2.5454 O   0  0  0  0  0  0  0  0  0  0  0  0
    1.0111   -2.4923   -0.1087 C   0  0  0  0  0  0  0  0  0  0  0  0
   -1.5212   -2.1891    0.0624 C   0  0  0  0  0  0  0  0  0  0  0  0
   -2.5389    2.7820   -3.7897 C   0  0  2  0  0  0  0  0  0  0  0  0
   -3.9780    0.9295   -2.8807 N   0  0  0  0  0  0  0  0  0  0  0  0
   -3.3987    3.0217   -4.9855 C   0  0  0  0  0  0  0  0  0  0  0  0
   -4.8047    1.4280   -1.9116 C   0  0  0  0  0  0  0  0  0  0  0  0
   -3.0916    2.4012   -6.2203 C   0  0  0  0  0  0  0  0  0  0  0  0
   -4.5196    3.8843   -4.9266 C   0  0  0  0  0  0  0  0  0  0  0  0
   -6.0883    0.7445   -1.5687 C   0  0  1  0  0  0  0  0  0  0  0  0
   -4.4808    2.4582   -1.2731 O   0  0  0  0  0  0  0  0  0  0  0  0
   -3.8853    2.6297   -7.3600 C   0  0  0  0  0  0  0  0  0  0  0  0
   -5.3006    4.1312   -6.0714 C   0  0  0  0  0  0  0  0  0  0  0  0
   -7.0682    1.1403   -2.5404 N   0  0  0  0  0  0  0  0  0  0  0  0
   -5.8813   -0.7850   -1.2752 C   0  0  1  0  0  0  0  0  0  0  0  0
   -4.9889    3.4970   -7.2862 C   0  0  0  0  0  0  0  0  0  0  0  0
   -8.4200    0.9138   -2.5951 C   0  0  0  0  0  0  0  0  0  0  0  0
   -5.5541   -1.7954   -2.4346 C   0  0  1  0  0  0  0  0  0  0  0  0
   -9.2508    0.0206   -1.7244 C   0  0  2  0  0  0  0  0  0  0  0  0
   -8.9823    1.5341   -3.5277 O   0  0  0  0  0  0  0  0  0  0  0  0
   -5.6094   -3.2605   -1.9131 C   0  0  0  0  0  0  0  0  0  0  0  0
   -6.4344   -1.6735   -3.7100 C   0  0  0  0  0  0  0  0  0  0  0  0
  -10.5866   -0.4397   -2.3979 C   0  0  1  0  0  0  0  0  0  0  0  0
   -9.4368    0.5332   -0.3972 N   0  0  0  0  0  0  0  0  0  0  0  0
  -11.3759   -1.5211   -1.6035 C   0  0  2  0  0  0  0  0  0  0  0  0
  -10.1750    1.6203   -0.0353 C   0  0  0  0  0  0  0  0  0  0  0  0
  -12.4884   -2.0781   -2.4208 C   0  0  0  0  0  0  0  0  0  0  0  0
  -10.3564    1.9080    1.4031 C   0  0  1  0  0  0  0  0  0  0  0  0
  -10.7169    2.3602   -0.8908 O   0  0  0  0  0  0  0  0  0  0  0  0
  -13.8149   -1.6097   -2.2685 C   0  0  0  0  0  0  0  0  0  0  0  0
  -12.2250   -3.0665   -3.4000 C   0  0  0  0  0  0  0  0  0  0  0  0
  -11.0827    0.7868    2.0769 N   0  0  1  0  0  0  0  0  0  0  0  0
  -14.8498   -2.1147   -3.0776 C   0  0  0  0  0  0  0  0  0  0  0  0
  -13.2613   -3.5752   -4.2041 C   0  0  0  0  0  0  0  0  0  0  0  0
  -10.5751    0.4735    3.4833 C   0  0  1  0  0  0  0  0  0  0  0  0
  -12.5868    0.7731    1.7828 C   0  0  2  0  0  0  0  0  0  0  0  0
  -14.5747   -3.1013   -4.0409 C   0  0  0  0  0  0  0  0  0  0  0  0
  -11.4351   -0.8091    4.0202 C   0  0  1  0  0  0  0  0  0  0  0  0
  -13.1929   -0.5281    2.3586 C   0  0  2  0  0  0  0  0  0  0  0  0
  -12.8736   -0.7170    3.7538 O   0  0  0  0  0  0  0  0  0  0  0  0
   -1.7525    0.4711    1.0638 H   0  0  0  0  0  0  0  0  0  0  0  0
   -2.8803    1.1176   -0.6303 H   0  0  0  0  0  0  0  0  0  0  0  0
    0.8991    0.3299   -0.3861 H   0  0  0  0  0  0  0  0  0  0  0  0
    0.5084   -0.2389    1.2244 H   0  0  0  0  0  0  0  0  0  0  0  0
    2.5654    3.5011    1.2857 H   0  0  0  0  0  0  0  0  0  0  0  0
    1.3697    3.1879    2.5492 H   0  0  0  0  0  0  0  0  0  0  0  0
    2.0902    1.8366    1.6547 H   0  0  0  0  0  0  0  0  0  0  0  0
    1.9452    3.5546   -1.1500 H   0  0  0  0  0  0  0  0  0  0  0  0
    0.1787    3.2251   -1.6845 H   0  0  0  0  0  0  0  0  0  0  0  0
   -0.2460   -1.4370   -1.4776 H   0  0  0  0  0  0  0  0  0  0  0  0
   -2.3845    0.6507   -4.0429 H   0  0  0  0  0  0  0  0  0  0  0  0
    1.9553   -2.0164   -0.3816 H   0  0  0  0  0  0  0  0  0  0  0  0
    0.9138   -3.4081   -0.6956 H   0  0  0  0  0  0  0  0  0  0  0  0
    1.0498   -2.7589    0.9500 H   0  0  0  0  0  0  0  0  0  0  0  0
   -2.3756   -1.6105   -0.2934 H   0  0  0  0  0  0  0  0  0  0  0  0
   -1.6131   -3.1924   -0.3579 H   0  0  0  0  0  0  0  0  0  0  0  0
   -1.5721   -2.2576    1.1501 H   0  0  0  0  0  0  0  0  0  0  0  0
   -1.5046    2.9939   -4.0802 H   0  0  0  0  0  0  0  0  0  0  0  0
   -2.7815    3.4848   -2.9891 H   0  0  0  0  0  0  0  0  0  0  0  0
   -4.3250    0.1838   -3.3890 H   0  0  0  0  0  0  0  0  0  0  0  0
   -2.2791    1.7842   -6.2998 H   0  0  0  0  0  0  0  0  0  0  0  0
   -4.7721    4.3431   -4.0488 H   0  0  0  0  0  0  0  0  0  0  0  0
   -6.4385    1.1854   -0.6279 H   0  0  0  0  0  0  0  0  0  0  0  0
   -3.6548    2.1695   -8.2426 H   0  0  0  0  0  0  0  0  0  0  0  0
   -6.0917    4.7750   -6.0217 H   0  0  0  0  0  0  0  0  0  0  0  0
   -6.7242    1.6966   -3.2599 H   0  0  0  0  0  0  0  0  0  0  0  0
   -5.0609   -0.8587   -0.5539 H   0  0  0  0  0  0  0  0  0  0  0  0
   -6.7506   -1.1429   -0.7302 H   0  0  0  0  0  0  0  0  0  0  0  0
   -5.5615    3.6686   -8.1145 H   0  0  0  0  0  0  0  0  0  0  0  0
   -4.5177   -1.6382   -2.7428 H   0  0  0  0  0  0  0  0  0  0  0  0
   -8.7037   -0.9093   -1.6136 H   0  0  0  0  0  0  0  0  0  0  0  0
   -4.9453   -3.3903   -1.0553 H   0  0  0  0  0  0  0  0  0  0  0  0
   -5.2894   -3.9596   -2.6910 H   0  0  0  0  0  0  0  0  0  0  0  0
   -6.6272   -3.5202   -1.6123 H   0  0  0  0  0  0  0  0  0  0  0  0
   -6.2758   -0.7132   -4.1987 H   0  0  0  0  0  0  0  0  0  0  0  0
   -6.1703   -2.4490   -4.4318 H   0  0  0  0  0  0  0  0  0  0  0  0
   -7.4913   -1.7848   -3.4698 H   0  0  0  0  0  0  0  0  0  0  0  0
  -11.2410    0.4225   -2.5588 H   0  0  0  0  0  0  0  0  0  0  0  0
  -10.3357   -0.8465   -3.3850 H   0  0  0  0  0  0  0  0  0  0  0  0
   -9.0164    0.0335    0.3218 H   0  0  0  0  0  0  0  0  0  0  0  0
  -11.7649   -1.0753   -0.6855 H   0  0  0  0  0  0  0  0  0  0  0  0
  -10.7079   -2.3329   -1.3003 H   0  0  0  0  0  0  0  0  0  0  0  0
   -9.3602    2.0570    1.8276 H   0  0  0  0  0  0  0  0  0  0  0  0
  -10.9047    2.8438    1.5456 H   0  0  0  0  0  0  0  0  0  0  0  0
  -14.0345   -0.8908   -1.5745 H   0  0  0  0  0  0  0  0  0  0  0  0
  -11.2733   -3.4184   -3.5359 H   0  0  0  0  0  0  0  0  0  0  0  0
  -15.8023   -1.7612   -2.9677 H   0  0  0  0  0  0  0  0  0  0  0  0
  -13.0578   -4.2873   -4.9087 H   0  0  0  0  0  0  0  0  0  0  0  0
   -9.5108    0.2297    3.4821 H   0  0  0  0  0  0  0  0  0  0  0  0
  -10.7542    1.3269    4.1403 H   0  0  0  0  0  0  0  0  0  0  0  0
  -12.7866    0.8211    0.7103 H   0  0  0  0  0  0  0  0  0  0  0  0
  -13.0566    1.6326    2.2662 H   0  0  0  0  0  0  0  0  0  0  0  0
  -15.3278   -3.4690   -4.6246 H   0  0  0  0  0  0  0  0  0  0  0  0
  -11.1190   -1.7979    3.5949 H   0  0  0  0  0  0  0  0  0  0  0  0
  -11.3774   -0.9773    5.1266 H   0  0  0  0  0  0  0  0  0  0  0  0
  -12.8515   -1.3874    1.7764 H   0  0  0  0  0  0  0  0  0  0  0  0
  -14.2794   -0.4831    2.2679 H   0  0  0  0  0  0  0  0  0  0  0  0
  2  1  1  0  0  0  0 
  1  3  2  0  0  0  0 
  4  1  1  0  0  0  0 
  2  5  1  0  0  0  0 
  2  6  1  0  0  0  0 
  4  7  1  0  0  0  0 
  4  8  1  0  0  0  0 
  4  9  1  0  0  0  0 
  5 10  1  0  0  0  0 
  6 11  1  0  0  0  0 
  8  9  1  0  0  0  0 
 12 10  1  0  0  0  0 
 10 13  2  0  0  0  0 
 11 14  1  0  0  0  0 
 11 15  1  0  0  0  0 
 12 16  1  0  0  0  0 
 12 17  1  0  0  0  0 
 16 18  1  0  0  0  0 
 17 19  1  0  0  0  0 
 18 20  2  0  0  0  0 
 18 21  1  0  0  0  0 
 22 19  1  0  0  0  0 
 19 23  2  0  0  0  0 
 20 24  1  0  0  0  0 
 21 25  2  0  0  0  0 
 22 26  1  0  0  0  0 
 22 27  1  0  0  0  0 
 24 28  2  0  0  0  0 
 25 28  1  0  0  0  0 
 26 29  1  0  0  0  0 
 27 30  1  0  0  0  0 
 31 29  1  0  0  0  0 
 29 32  2  0  0  0  0 
 30 33  1  0  0  0  0 
 30 34  1  0  0  0  0 
 31 35  1  0  0  0  0 
 31 36  1  0  0  0  0 
 35 37  1  0  0  0  0 
 36 38  1  0  0  0  0 
 37 39  1  0  0  0  0 
 38 40  1  0  0  0  0 
 38 41  2  0  0  0  0 
 39 42  2  0  0  0  0 
 39 43  1  0  0  0  0 
 40 44  1  0  0  0  0 
 42 45  1  0  0  0  0 
 43 46  2  0  0  0  0 
 44 47  1  0  0  0  0 
 44 48  1  0  0  0  0 
 45 49  2  0  0  0  0 
 46 49  1  0  0  0  0 
 47 50  1  0  0  0  0 
 48 51  1  0  0  0  0 
 50 52  1  0  0  0  0 
 51 52  1  0  0  0  0 
  2 53  1  0  0  0  0 
  5 54  1  0  0  0  0 
  6 55  1  0  0  0  0 
  6 56  1  0  0  0  0 
  7 57  1  0  0  0  0 
  7 58  1  0  0  0  0 
  7 59  1  0  0  0  0 
  8 60  1  0  0  0  0 
  8 61  1  0  0  0  0 
 11 62  1  0  0  0  0 
 12 63  1  0  0  0  0 
 14 64  1  0  0  0  0 
 14 65  1  0  0  0  0 
 14 66  1  0  0  0  0 
 15 67  1  0  0  0  0 
 15 68  1  0  0  0  0 
 15 69  1  0  0  0  0 
 16 70  1  0  0  0  0 
 16 71  1  0  0  0  0 
 17 72  1  0  0  0  0 
 20 73  1  0  0  0  0 
 21 74  1  0  0  0  0 
 22 75  1  0  0  0  0 
 24 76  1  0  0  0  0 
 25 77  1  0  0  0  0 
 26 78  1  0  0  0  0 
 27 79  1  0  0  0  0 
 27 80  1  0  0  0  0 
 28 81  1  0  0  0  0 
 30 82  1  0  0  0  0 
 31 83  1  0  0  0  0 
 33 84  1  0  0  0  0 
 33 85  1  0  0  0  0 
 33 86  1  0  0  0  0 
 34 87  1  0  0  0  0 
 34 88  1  0  0  0  0 
 34 89  1  0  0  0  0 
 35 90  1  0  0  0  0 
 35 91  1  0  0  0  0 
 36 92  1  0  0  0  0 
 37 93  1  0  0  0  0 
 37 94  1  0  0  0  0 
 40 95  1  0  0  0  0 
 40 96  1  0  0  0  0 
 42 97  1  0  0  0  0 
 43 98  1  0  0  0  0 
 45 99  1  0  0  0  0 
 46100  1  0  0  0  0 
 47101  1  0  0  0  0 
 47102  1  0  0  0  0 
 48103  1  0  0  0  0 
 48104  1  0  0  0  0 
 49105  1  0  0  0  0 
 50106  1  0  0  0  0 
 50107  1  0  0  0  0 
 51108  1  0  0  0  0 
 51109  1  0  0  0  0 
M  END
> <cdk:Title>
carfilzomib

> <Conformer>
1

> <SuperDrugID>
SD003590

$$$$
