bezafibrate
  CDK     0628171801

 45 46  0  0  0  0  0  0  0  0999 V2000
    1.0166    0.0776   -0.0250 C   0  0  0  0  0  0  0  0  0  0  0  0
   -0.2754   -0.1692    0.3503 N   0  0  0  0  0  0  0  0  0  0  0  0
    1.6947   -0.8738   -0.4854 O   0  0  0  0  0  0  0  0  0  0  0  0
    1.6286    1.3591    0.1159 C   0  0  0  0  0  0  0  0  0  0  0  0
   -0.8933   -1.4606    0.3029 C   0  0  2  0  0  0  0  0  0  0  0  0
    0.8694    2.5455    0.2833 C   0  0  0  0  0  0  0  0  0  0  0  0
    3.0437    1.4821    0.1112 C   0  0  0  0  0  0  0  0  0  0  0  0
   -2.3616   -1.4159    0.7895 C   0  0  2  0  0  0  0  0  0  0  0  0
    1.4989    3.7936    0.4665 C   0  0  0  0  0  0  0  0  0  0  0  0
    3.6746    2.7255    0.2941 C   0  0  0  0  0  0  0  0  0  0  0  0
   -2.9992   -2.7643    0.7765 C   0  0  0  0  0  0  0  0  0  0  0  0
    2.9031    3.8865    0.4804 C   0  0  0  0  0  0  0  0  0  0  0  0
   -3.5940   -3.2727   -0.4033 C   0  0  0  0  0  0  0  0  0  0  0  0
   -3.0286   -3.5657    1.9427 C   0  0  0  0  0  0  0  0  0  0  0  0
    3.6646    5.3793    0.7293 Cl  0  0  0  0  0  0  0  0  0  0  0  0
   -4.2374   -4.5245   -0.4046 C   0  0  0  0  0  0  0  0  0  0  0  0
   -3.6695   -4.8185    1.9401 C   0  0  0  0  0  0  0  0  0  0  0  0
   -4.3065   -5.2940    0.7752 C   0  0  0  0  0  0  0  0  0  0  0  0
   -4.9301   -6.5192    0.7733 O   0  0  0  0  0  0  0  0  0  0  0  0
   -6.3474   -6.6061    1.1109 C   0  0  2  0  0  0  0  0  0  0  0  0
   -6.7016   -8.0541    1.0294 C   0  0  0  0  0  0  0  0  0  0  0  0
   -5.7852   -8.9955    0.6991 O   0  0  0  0  0  0  0  0  0  0  0  0
   -7.8647   -8.4574    1.2654 O   0  0  0  0  0  0  0  0  0  0  0  0
   -7.2285   -5.8242    0.0871 C   0  0  0  0  0  0  0  0  0  0  0  0
   -6.6241   -6.1128    2.5657 C   0  0  0  0  0  0  0  0  0  0  0  0
   -0.8045    0.5685    0.6930 H   0  0  0  0  0  0  0  0  0  0  0  0
   -0.3305   -2.1413    0.9470 H   0  0  0  0  0  0  0  0  0  0  0  0
   -0.8597   -1.8447   -0.7207 H   0  0  0  0  0  0  0  0  0  0  0  0
   -0.1533    2.5185    0.2702 H   0  0  0  0  0  0  0  0  0  0  0  0
    3.6382    0.6595   -0.0148 H   0  0  0  0  0  0  0  0  0  0  0  0
   -2.9313   -0.7344    0.1520 H   0  0  0  0  0  0  0  0  0  0  0  0
   -2.3892   -0.9936    1.7989 H   0  0  0  0  0  0  0  0  0  0  0  0
    0.9301    4.6353    0.5908 H   0  0  0  0  0  0  0  0  0  0  0  0
    4.6965    2.7762    0.2949 H   0  0  0  0  0  0  0  0  0  0  0  0
   -3.5674   -2.7290   -1.2698 H   0  0  0  0  0  0  0  0  0  0  0  0
   -2.5836   -3.2390    2.8042 H   0  0  0  0  0  0  0  0  0  0  0  0
   -4.6604   -4.8748   -1.2678 H   0  0  0  0  0  0  0  0  0  0  0  0
   -3.6749   -5.3848    2.7921 H   0  0  0  0  0  0  0  0  0  0  0  0
   -6.0424   -9.9400    0.6546 H   0  0  0  0  0  0  0  0  0  0  0  0
   -8.2927   -6.0031    0.2571 H   0  0  0  0  0  0  0  0  0  0  0  0
   -7.0606   -4.7496    0.1742 H   0  0  0  0  0  0  0  0  0  0  0  0
   -6.9821   -6.1283   -0.9323 H   0  0  0  0  0  0  0  0  0  0  0  0
   -7.6566   -6.3072    2.8646 H   0  0  0  0  0  0  0  0  0  0  0  0
   -6.4584   -5.0373    2.6470 H   0  0  0  0  0  0  0  0  0  0  0  0
   -5.9569   -6.6168    3.2680 H   0  0  0  0  0  0  0  0  0  0  0  0
  1  2  1  0  0  0  0 
  1  3  2  0  0  0  0 
  1  4  1  0  0  0  0 
  2  5  1  0  0  0  0 
  4  6  2  0  0  0  0 
  4  7  1  0  0  0  0 
  5  8  1  0  0  0  0 
  6  9  1  0  0  0  0 
  7 10  2  0  0  0  0 
  8 11  1  0  0  0  0 
  9 12  2  0  0  0  0 
 10 12  1  0  0  0  0 
 11 13  2  0  0  0  0 
 11 14  1  0  0  0  0 
 12 15  1  0  0  0  0 
 13 16  1  0  0  0  0 
 14 17  2  0  0  0  0 
 16 18  2  0  0  0  0 
 17 18  1  0  0  0  0 
 18 19  1  0  0  0  0 
 19 20  1  0  0  0  0 
 20 21  1  0  0  0  0 
 21 22  1  0  0  0  0 
 21 23  2  0  0  0  0 
 20 24  1  0  0  0  0 
 20 25  1  0  0  0  0 
  2 26  1  0  0  0  0 
  5 27  1  0  0  0  0 
  5 28  1  0  0  0  0 
  6 29  1  0  0  0  0 
  7 30  1  0  0  0  0 
  8 31  1  0  0  0  0 
  8 32  1  0  0  0  0 
  9 33  1  0  0  0  0 
 10 34  1  0  0  0  0 
 13 35  1  0  0  0  0 
 14 36  1  0  0  0  0 
 16 37  1  0  0  0  0 
 17 38  1  0  0  0  0 
 22 39  1  0  0  0  0 
 24 40  1  0  0  0  0 
 24 41  1  0  0  0  0 
 24 42  1  0  0  0  0 
 25 43  1  0  0  0  0 
 25 44  1  0  0  0  0 
 25 45  1  0  0  0  0 
M  END
> <cdk:Title>
bezafibrate

> <Conformer>
1

> <SuperDrugID>
SD000307

$$$$
