bufuralol
  CDK     0628171801

 42 43  0  0  0  0  0  0  0  0999 V2000
   -0.8932   -2.5575   -6.1913 C   0  0  2  0  0  0  0  0  0  0  0  0
   -0.1168   -1.5522   -7.0695 C   0  0  0  0  0  0  0  0  0  0  0  0
   -1.9997   -1.8914   -5.4564 C   0  0  0  0  0  0  0  0  0  0  0  0
   -1.8013   -1.3350   -4.1746 C   0  0  0  0  0  0  0  0  0  0  0  0
   -3.2919   -1.7628   -6.0279 C   0  0  0  0  0  0  0  0  0  0  0  0
   -2.8357   -0.7023   -3.4869 C   0  0  0  0  0  0  0  0  0  0  0  0
   -0.6770   -1.2986   -3.4215 O   0  0  0  0  0  0  0  0  0  0  0  0
   -4.3353   -1.1068   -5.3346 C   0  0  0  0  0  0  0  0  0  0  0  0
   -2.3222   -0.2883   -2.2689 C   0  0  0  0  0  0  0  0  0  0  0  0
   -4.1160   -0.5726   -4.0486 C   0  0  0  0  0  0  0  0  0  0  0  0
   -0.9786   -0.6667   -2.2575 C   0  0  0  0  0  0  0  0  0  0  0  0
   -0.0042   -0.4120   -1.1777 C   0  0  2  0  0  0  0  0  0  0  0  0
    0.8316    0.8714   -1.4254 C   0  0  1  0  0  0  0  0  0  0  0  0
    0.8660   -1.5383   -1.0878 O   0  0  0  0  0  0  0  0  0  0  0  0
   -0.0434    2.0675   -1.5193 N   0  0  2  0  0  0  0  0  0  0  0  0
    0.5532    3.4137   -1.7823 C   0  0  2  0  0  0  0  0  0  0  0  0
    1.2681    3.4675   -3.1697 C   0  0  0  0  0  0  0  0  0  0  0  0
    1.5410    3.8436   -0.6517 C   0  0  0  0  0  0  0  0  0  0  0  0
   -0.6600    4.3957   -1.8010 C   0  0  0  0  0  0  0  0  0  0  0  0
   -0.1997   -3.0284   -5.4895 H   0  0  0  0  0  0  0  0  0  0  0  0
   -1.2881   -3.3528   -6.8299 H   0  0  0  0  0  0  0  0  0  0  0  0
    0.6897   -2.0626   -7.5988 H   0  0  0  0  0  0  0  0  0  0  0  0
    0.3192   -0.7650   -6.4518 H   0  0  0  0  0  0  0  0  0  0  0  0
   -0.7816   -1.0996   -7.8075 H   0  0  0  0  0  0  0  0  0  0  0  0
   -3.4807   -2.1386   -6.9619 H   0  0  0  0  0  0  0  0  0  0  0  0
   -5.2556   -1.0152   -5.7721 H   0  0  0  0  0  0  0  0  0  0  0  0
   -2.8247    0.2064   -1.5311 H   0  0  0  0  0  0  0  0  0  0  0  0
   -4.8686   -0.1012   -3.5435 H   0  0  0  0  0  0  0  0  0  0  0  0
   -0.5313   -0.3212   -0.2231 H   0  0  0  0  0  0  0  0  0  0  0  0
    1.5233    0.9944   -0.5893 H   0  0  0  0  0  0  0  0  0  0  0  0
    1.4125    0.7462   -2.3425 H   0  0  0  0  0  0  0  0  0  0  0  0
    1.4976   -1.3136   -0.3733 H   0  0  0  0  0  0  0  0  0  0  0  0
   -0.5505    2.1312   -0.6337 H   0  0  0  0  0  0  0  0  0  0  0  0
    0.6033    3.1139   -3.9607 H   0  0  0  0  0  0  0  0  0  0  0  0
    2.1633    2.8430   -3.1753 H   0  0  0  0  0  0  0  0  0  0  0  0
    1.5746    4.4892   -3.4103 H   0  0  0  0  0  0  0  0  0  0  0  0
    2.4403    3.2232   -0.6620 H   0  0  0  0  0  0  0  0  0  0  0  0
    1.8496    4.8851   -0.7814 H   0  0  0  0  0  0  0  0  0  0  0  0
    1.0691    3.7440    0.3286 H   0  0  0  0  0  0  0  0  0  0  0  0
   -0.3323    5.4223   -1.9848 H   0  0  0  0  0  0  0  0  0  0  0  0
   -1.3699    4.1198   -2.5856 H   0  0  0  0  0  0  0  0  0  0  0  0
   -1.1883    4.3749   -0.8442 H   0  0  0  0  0  0  0  0  0  0  0  0
  1  2  1  0  0  0  0 
  1  3  1  0  0  0  0 
  3  4  2  0  0  0  0 
  3  5  1  0  0  0  0 
  4  6  1  0  0  0  0 
  4  7  1  0  0  0  0 
  5  8  2  0  0  0  0 
  6  9  1  0  0  0  0 
  6 10  2  0  0  0  0 
  7 11  1  0  0  0  0 
  8 10  1  0  0  0  0 
  9 11  2  0  0  0  0 
 12 11  1  0  0  0  0 
 12 13  1  0  0  0  0 
 12 14  1  0  0  0  0 
 13 15  1  0  0  0  0 
 15 16  1  0  0  0  0 
 16 17  1  0  0  0  0 
 16 18  1  0  0  0  0 
 16 19  1  0  0  0  0 
  1 20  1  0  0  0  0 
  1 21  1  0  0  0  0 
  2 22  1  0  0  0  0 
  2 23  1  0  0  0  0 
  2 24  1  0  0  0  0 
  5 25  1  0  0  0  0 
  8 26  1  0  0  0  0 
  9 27  1  0  0  0  0 
 10 28  1  0  0  0  0 
 12 29  1  0  0  0  0 
 13 30  1  0  0  0  0 
 13 31  1  0  0  0  0 
 14 32  1  0  0  0  0 
 15 33  1  0  0  0  0 
 17 34  1  0  0  0  0 
 17 35  1  0  0  0  0 
 17 36  1  0  0  0  0 
 18 37  1  0  0  0  0 
 18 38  1  0  0  0  0 
 18 39  1  0  0  0  0 
 19 40  1  0  0  0  0 
 19 41  1  0  0  0  0 
 19 42  1  0  0  0  0 
M  END
> <cdk:Title>
bufuralol

> <Conformer>
1

> <SuperDrugID>
SD000366

$$$$
