carbuterol
  CDK     0628171802

 40 40  0  0  0  0  0  0  0  0999 V2000
    4.4760    7.6724   -2.6636 C   0  0  1  0  0  0  0  0  0  0  0  0
    3.6956    8.8347   -1.9930 C   0  0  2  0  0  0  0  0  0  0  0  0
    5.7949    7.5665   -2.1250 O   0  0  0  0  0  0  0  0  0  0  0  0
    3.7686    6.3643   -2.5143 C   0  0  0  0  0  0  0  0  0  0  0  0
    4.4155   10.1199   -2.1835 N   0  0  1  0  0  0  0  0  0  0  0  0
    3.7898    5.6575   -1.2874 C   0  0  0  0  0  0  0  0  0  0  0  0
    3.0457    5.8052   -3.5911 C   0  0  0  0  0  0  0  0  0  0  0  0
    3.7318   11.4104   -1.8563 C   0  0  2  0  0  0  0  0  0  0  0  0
    3.1012    4.4316   -1.1129 C   0  0  0  0  0  0  0  0  0  0  0  0
    2.3654    4.5852   -3.4455 C   0  0  0  0  0  0  0  0  0  0  0  0
    3.0778   11.4046   -0.4389 C   0  0  0  0  0  0  0  0  0  0  0  0
    2.6669   11.7524   -2.9449 C   0  0  0  0  0  0  0  0  0  0  0  0
    4.8479   12.5003   -1.8873 C   0  0  0  0  0  0  0  0  0  0  0  0
    3.1004    3.7084    0.0532 N   0  0  0  0  0  0  0  0  0  0  0  0
    2.3913    3.9020   -2.2149 C   0  0  0  0  0  0  0  0  0  0  0  0
    3.2769    4.1420    1.3309 C   0  0  0  0  0  0  0  0  0  0  0  0
    1.7151    2.7299   -2.1064 O   0  0  0  0  0  0  0  0  0  0  0  0
    3.2478    3.2421    2.3259 N   0  0  0  0  0  0  0  0  0  0  0  0
    3.4377    5.3392    1.6575 O   0  0  0  0  0  0  0  0  0  0  0  0
    4.5913    7.9191   -3.7229 H   0  0  0  0  0  0  0  0  0  0  0  0
    3.5931    8.6368   -0.9235 H   0  0  0  0  0  0  0  0  0  0  0  0
    2.6958    8.8879   -2.4295 H   0  0  0  0  0  0  0  0  0  0  0  0
    6.2267    8.4234   -2.3216 H   0  0  0  0  0  0  0  0  0  0  0  0
    5.2599   10.0649   -1.6059 H   0  0  0  0  0  0  0  0  0  0  0  0
    4.3336    6.0415   -0.5170 H   0  0  0  0  0  0  0  0  0  0  0  0
    2.9999    6.2878   -4.4904 H   0  0  0  0  0  0  0  0  0  0  0  0
    1.8479    4.1965   -4.2391 H   0  0  0  0  0  0  0  0  0  0  0  0
    2.6949   12.3942   -0.1798 H   0  0  0  0  0  0  0  0  0  0  0  0
    2.2414   10.7056   -0.3961 H   0  0  0  0  0  0  0  0  0  0  0  0
    3.8065   11.1107    0.3184 H   0  0  0  0  0  0  0  0  0  0  0  0
    3.1162   11.7265   -3.9399 H   0  0  0  0  0  0  0  0  0  0  0  0
    2.2513   12.7502   -2.7843 H   0  0  0  0  0  0  0  0  0  0  0  0
    1.8385   11.0426   -2.9274 H   0  0  0  0  0  0  0  0  0  0  0  0
    5.3311   12.5321   -2.8666 H   0  0  0  0  0  0  0  0  0  0  0  0
    5.6152   12.2896   -1.1382 H   0  0  0  0  0  0  0  0  0  0  0  0
    4.4337   13.4907   -1.6798 H   0  0  0  0  0  0  0  0  0  0  0  0
    2.9262    2.7576   -0.0379 H   0  0  0  0  0  0  0  0  0  0  0  0
    1.1020    2.7091   -2.8731 H   0  0  0  0  0  0  0  0  0  0  0  0
    3.3629    3.5350    3.2435 H   0  0  0  0  0  0  0  0  0  0  0  0
    3.1065    2.3018    2.1330 H   0  0  0  0  0  0  0  0  0  0  0  0
  1  2  1  0  0  0  0 
  1  3  1  0  0  0  0 
  1  4  1  0  0  0  0 
  2  5  1  0  0  0  0 
  4  6  2  0  0  0  0 
  4  7  1  0  0  0  0 
  5  8  1  0  0  0  0 
  6  9  1  0  0  0  0 
  7 10  2  0  0  0  0 
  8 11  1  0  0  0  0 
  8 12  1  0  0  0  0 
  8 13  1  0  0  0  0 
  9 14  1  0  0  0  0 
  9 15  2  0  0  0  0 
 10 15  1  0  0  0  0 
 14 16  1  0  0  0  0 
 15 17  1  0  0  0  0 
 16 18  1  0  0  0  0 
 16 19  2  0  0  0  0 
  1 20  1  0  0  0  0 
  2 21  1  0  0  0  0 
  2 22  1  0  0  0  0 
  3 23  1  0  0  0  0 
  5 24  1  0  0  0  0 
  6 25  1  0  0  0  0 
  7 26  1  0  0  0  0 
 10 27  1  0  0  0  0 
 11 28  1  0  0  0  0 
 11 29  1  0  0  0  0 
 11 30  1  0  0  0  0 
 12 31  1  0  0  0  0 
 12 32  1  0  0  0  0 
 12 33  1  0  0  0  0 
 13 34  1  0  0  0  0 
 13 35  1  0  0  0  0 
 13 36  1  0  0  0  0 
 14 37  1  0  0  0  0 
 17 38  1  0  0  0  0 
 18 39  1  0  0  0  0 
 18 40  1  0  0  0  0 
M  END
> <cdk:Title>
carbuterol

> <Conformer>
1

> <SuperDrugID>
SD000436

$$$$
