lesinurad
  CDK     0628171802

 38 41  0  0  0  0  0  0  0  0999 V2000
   -5.4224   -1.4863   -1.6190 C   0  0  0  0  0  0  0  0  0  0  0  0
   -5.8211   -2.8507   -1.8087 C   0  0  0  0  0  0  0  0  0  0  0  0
   -4.8317   -3.8623   -1.9850 C   0  0  0  0  0  0  0  0  0  0  0  0
   -3.4698   -3.5006   -1.9475 C   0  0  0  0  0  0  0  0  0  0  0  0
   -3.0846   -2.1679   -1.7761 C   0  0  0  0  0  0  0  0  0  0  0  0
   -4.0396   -1.1497   -1.5969 C   0  0  0  0  0  0  0  0  0  0  0  0
   -7.7860   -0.8298   -1.4458 C   0  0  0  0  0  0  0  0  0  0  0  0
   -8.1765   -2.1637   -1.6176 C   0  0  0  0  0  0  0  0  0  0  0  0
   -7.2050   -3.1618   -1.7881 C   0  0  0  0  0  0  0  0  0  0  0  0
   -6.4221   -0.4976   -1.4356 C   0  0  0  0  0  0  0  0  0  0  0  0
   -3.5539    0.1171   -1.4076 N   0  0  0  0  0  0  0  0  0  0  0  0
   -5.1484   -5.3107   -2.1451 C   0  0  1  0  0  0  0  0  0  0  0  0
   -5.9100   -5.7822   -3.4000 C   0  0  2  0  0  0  0  0  0  0  0  0
   -4.4265   -6.1198   -3.2440 C   0  0  1  0  0  0  0  0  0  0  0  0
   -2.8454    0.5770   -0.3573 C   0  0  0  0  0  0  0  0  0  0  0  0
   -2.5052    1.8532   -0.5896 N   0  0  0  0  0  0  0  0  0  0  0  0
   -2.9757    2.1972   -1.7444 N   0  0  0  0  0  0  0  0  0  0  0  0
   -3.6247    1.1468   -2.2678 C   0  0  0  0  0  0  0  0  0  0  0  0
   -4.4491    1.1651   -3.9361 Br  0  0  0  0  0  0  0  0  0  0  0  0
   -2.3917   -0.2947    1.0986 S   0  0  0  0  0  0  0  0  0  0  0  0
   -0.6387   -0.7233    0.8270 C   0  0  1  0  0  0  0  0  0  0  0  0
   -0.1236   -1.5320    1.9395 C   0  0  0  0  0  0  0  0  0  0  0  0
   -0.7019   -2.7165    2.2477 O   0  0  0  0  0  0  0  0  0  0  0  0
    0.8674   -1.1535    2.6033 O   0  0  0  0  0  0  0  0  0  0  0  0
   -2.7365   -4.2072   -2.0417 H   0  0  0  0  0  0  0  0  0  0  0  0
   -2.0883   -1.9428   -1.7883 H   0  0  0  0  0  0  0  0  0  0  0  0
   -8.4910   -0.0991   -1.3197 H   0  0  0  0  0  0  0  0  0  0  0  0
   -9.1672   -2.4114   -1.6127 H   0  0  0  0  0  0  0  0  0  0  0  0
   -7.5343   -4.1228   -1.8875 H   0  0  0  0  0  0  0  0  0  0  0  0
   -6.1738    0.4837   -1.2878 H   0  0  0  0  0  0  0  0  0  0  0  0
   -5.3890   -5.8765   -1.2427 H   0  0  0  0  0  0  0  0  0  0  0  0
   -6.1419   -5.0262   -4.1528 H   0  0  0  0  0  0  0  0  0  0  0  0
   -6.6040   -6.6140   -3.2500 H   0  0  0  0  0  0  0  0  0  0  0  0
   -3.7699   -5.5820   -3.9305 H   0  0  0  0  0  0  0  0  0  0  0  0
   -4.1987   -7.1594   -3.0003 H   0  0  0  0  0  0  0  0  0  0  0  0
   -0.5399   -1.3011   -0.0899 H   0  0  0  0  0  0  0  0  0  0  0  0
   -0.0633    0.1967    0.7131 H   0  0  0  0  0  0  0  0  0  0  0  0
   -0.3549   -3.2578    2.9875 H   0  0  0  0  0  0  0  0  0  0  0  0
  1  2  1  0  0  0  0 
  1  6  2  0  0  0  0 
  2  3  2  0  0  0  0 
  3  4  1  0  0  0  0 
  4  5  2  0  0  0  0 
  5  6  1  0  0  0  0 
  7  8  1  0  0  0  0 
  8  9  2  0  0  0  0 
  7 10  2  0  0  0  0 
  1 10  1  0  0  0  0 
  9  2  1  0  0  0  0 
  6 11  1  0  0  0  0 
  3 12  1  0  0  0  0 
 13 14  1  0  0  0  0 
 12 13  1  0  0  0  0 
 14 12  1  0  0  0  0 
 15 16  2  0  0  0  0 
 16 17  1  0  0  0  0 
 17 18  2  0  0  0  0 
 11 15  1  0  0  0  0 
 11 18  1  0  0  0  0 
 18 19  1  0  0  0  0 
 15 20  1  0  0  0  0 
 20 21  1  0  0  0  0 
 21 22  1  0  0  0  0 
 22 23  1  0  0  0  0 
 22 24  2  0  0  0  0 
  4 25  1  0  0  0  0 
  5 26  1  0  0  0  0 
  7 27  1  0  0  0  0 
  8 28  1  0  0  0  0 
  9 29  1  0  0  0  0 
 10 30  1  0  0  0  0 
 12 31  1  0  0  0  0 
 13 32  1  0  0  0  0 
 13 33  1  0  0  0  0 
 14 34  1  0  0  0  0 
 14 35  1  0  0  0  0 
 21 36  1  0  0  0  0 
 21 37  1  0  0  0  0 
 23 38  1  0  0  0  0 
M  END
> <cdk:Title>
lesinurad

> <Conformer>
1

> <SuperDrugID>
SD003899

$$$$
