fenalcomine
  CDK     0628171801

 50 51  0  0  0  0  0  0  0  0999 V2000
   -4.0234   -6.5305   -6.5912 C   0  0  1  0  0  0  0  0  0  0  0  0
   -2.8333   -7.5167   -6.4104 C   0  0  1  0  0  0  0  0  0  0  0  0
   -5.2687   -7.1563   -6.2749 O   0  0  0  0  0  0  0  0  0  0  0  0
   -3.8187   -5.3032   -5.7641 C   0  0  0  0  0  0  0  0  0  0  0  0
   -2.9322   -8.7936   -7.2765 C   0  0  0  0  0  0  0  0  0  0  0  0
   -4.2393   -5.2455   -4.4123 C   0  0  0  0  0  0  0  0  0  0  0  0
   -3.1521   -4.1776   -6.3072 C   0  0  0  0  0  0  0  0  0  0  0  0
   -3.9911   -4.1048   -3.6259 C   0  0  0  0  0  0  0  0  0  0  0  0
   -2.8940   -3.0389   -5.5192 C   0  0  0  0  0  0  0  0  0  0  0  0
   -3.3012   -3.0041   -4.1703 C   0  0  0  0  0  0  0  0  0  0  0  0
   -3.0483   -1.9039   -3.3965 O   0  0  0  0  0  0  0  0  0  0  0  0
   -1.8064   -1.9883   -2.6673 C   0  0  1  0  0  0  0  0  0  0  0  0
   -1.6163   -0.6828   -1.8677 C   0  0  2  0  0  0  0  0  0  0  0  0
   -0.2803   -0.6700   -1.2294 N   0  0  1  0  0  0  0  0  0  0  0  0
    0.0330    0.4814   -0.3389 C   0  0  1  0  0  0  0  0  0  0  0  0
    1.3680    0.1854    0.4091 C   0  0  2  0  0  0  0  0  0  0  0  0
    0.1301    1.8120   -1.1376 C   0  0  0  0  0  0  0  0  0  0  0  0
    1.3114   -1.0261    1.2790 C   0  0  0  0  0  0  0  0  0  0  0  0
    0.8302   -0.9420    2.6085 C   0  0  0  0  0  0  0  0  0  0  0  0
    1.7330   -2.2885    0.7932 C   0  0  0  0  0  0  0  0  0  0  0  0
    0.7810   -2.0847    3.4318 C   0  0  0  0  0  0  0  0  0  0  0  0
    1.6766   -3.4327    1.6126 C   0  0  0  0  0  0  0  0  0  0  0  0
    1.2009   -3.3310    2.9326 C   0  0  0  0  0  0  0  0  0  0  0  0
   -4.0863   -6.2502   -7.6465 H   0  0  0  0  0  0  0  0  0  0  0  0
   -1.9055   -7.0034   -6.6797 H   0  0  0  0  0  0  0  0  0  0  0  0
   -2.7586   -7.8163   -5.3613 H   0  0  0  0  0  0  0  0  0  0  0  0
   -5.3731   -7.8769   -6.9309 H   0  0  0  0  0  0  0  0  0  0  0  0
   -3.7895   -9.3956   -6.9704 H   0  0  0  0  0  0  0  0  0  0  0  0
   -2.0290   -9.3962   -7.1548 H   0  0  0  0  0  0  0  0  0  0  0  0
   -3.0351   -8.5319   -8.3318 H   0  0  0  0  0  0  0  0  0  0  0  0
   -4.7276   -6.0377   -3.9870 H   0  0  0  0  0  0  0  0  0  0  0  0
   -2.8398   -4.1857   -7.2821 H   0  0  0  0  0  0  0  0  0  0  0  0
   -4.3046   -4.0770   -2.6523 H   0  0  0  0  0  0  0  0  0  0  0  0
   -2.4024   -2.2389   -5.9269 H   0  0  0  0  0  0  0  0  0  0  0  0
   -1.8149   -2.8337   -1.9725 H   0  0  0  0  0  0  0  0  0  0  0  0
   -0.9646   -2.1082   -3.3576 H   0  0  0  0  0  0  0  0  0  0  0  0
   -2.4020   -0.5999   -1.1116 H   0  0  0  0  0  0  0  0  0  0  0  0
   -1.7033    0.1569   -2.5590 H   0  0  0  0  0  0  0  0  0  0  0  0
   -0.2356   -1.5108   -0.6493 H   0  0  0  0  0  0  0  0  0  0  0  0
   -0.7592    0.5884    0.4093 H   0  0  0  0  0  0  0  0  0  0  0  0
    1.6370    1.0471    1.0270 H   0  0  0  0  0  0  0  0  0  0  0  0
    2.1697    0.0771   -0.3267 H   0  0  0  0  0  0  0  0  0  0  0  0
    0.4965    2.6218   -0.5056 H   0  0  0  0  0  0  0  0  0  0  0  0
   -0.8505    2.1087   -1.5094 H   0  0  0  0  0  0  0  0  0  0  0  0
    0.8045    1.6987   -1.9877 H   0  0  0  0  0  0  0  0  0  0  0  0
    0.5117   -0.0462    2.9867 H   0  0  0  0  0  0  0  0  0  0  0  0
    2.0760   -2.3843   -0.1662 H   0  0  0  0  0  0  0  0  0  0  0  0
    0.4392   -2.0118    4.3938 H   0  0  0  0  0  0  0  0  0  0  0  0
    1.9803   -4.3404    1.2501 H   0  0  0  0  0  0  0  0  0  0  0  0
    1.1605   -4.1629    3.5288 H   0  0  0  0  0  0  0  0  0  0  0  0
  1  2  1  0  0  0  0 
  1  3  1  0  0  0  0 
  1  4  1  0  0  0  0 
  2  5  1  0  0  0  0 
  4  6  2  0  0  0  0 
  4  7  1  0  0  0  0 
  6  8  1  0  0  0  0 
  7  9  2  0  0  0  0 
  8 10  2  0  0  0  0 
  9 10  1  0  0  0  0 
 10 11  1  0  0  0  0 
 11 12  1  0  0  0  0 
 12 13  1  0  0  0  0 
 13 14  1  0  0  0  0 
 14 15  1  0  0  0  0 
 15 16  1  0  0  0  0 
 15 17  1  0  0  0  0 
 16 18  1  0  0  0  0 
 18 19  2  0  0  0  0 
 18 20  1  0  0  0  0 
 19 21  1  0  0  0  0 
 20 22  2  0  0  0  0 
 21 23  2  0  0  0  0 
 22 23  1  0  0  0  0 
  1 24  1  0  0  0  0 
  2 25  1  0  0  0  0 
  2 26  1  0  0  0  0 
  3 27  1  0  0  0  0 
  5 28  1  0  0  0  0 
  5 29  1  0  0  0  0 
  5 30  1  0  0  0  0 
  6 31  1  0  0  0  0 
  7 32  1  0  0  0  0 
  8 33  1  0  0  0  0 
  9 34  1  0  0  0  0 
 12 35  1  0  0  0  0 
 12 36  1  0  0  0  0 
 13 37  1  0  0  0  0 
 13 38  1  0  0  0  0 
 14 39  1  0  0  0  0 
 15 40  1  0  0  0  0 
 16 41  1  0  0  0  0 
 16 42  1  0  0  0  0 
 17 43  1  0  0  0  0 
 17 44  1  0  0  0  0 
 17 45  1  0  0  0  0 
 19 46  1  0  0  0  0 
 20 47  1  0  0  0  0 
 21 48  1  0  0  0  0 
 22 49  1  0  0  0  0 
 23 50  1  0  0  0  0 
M  END
> <cdk:Title>
fenalcomine

> <Conformer>
1

> <SuperDrugID>
SD001021

$$$$
