clanobutin
  CDK     0628171801

 42 43  0  0  0  0  0  0  0  0999 V2000
    0.1828   -0.5078   -4.3002 N   0  0  0  0  0  0  0  0  0  0  0  0
   -0.1559    0.8339   -4.1375 C   0  0  0  0  0  0  0  0  0  0  0  0
    1.1785   -1.1000   -3.4139 C   0  0  1  0  0  0  0  0  0  0  0  0
   -0.3745   -1.2888   -5.3077 C   0  0  0  0  0  0  0  0  0  0  0  0
    0.5612    1.5898   -3.4347 O   0  0  0  0  0  0  0  0  0  0  0  0
   -1.3106    1.4548   -4.6808 C   0  0  0  0  0  0  0  0  0  0  0  0
    0.6392   -1.2631   -1.9618 C   0  0  1  0  0  0  0  0  0  0  0  0
   -0.9170   -2.5670   -5.0258 C   0  0  0  0  0  0  0  0  0  0  0  0
   -0.3770   -0.8495   -6.6564 C   0  0  0  0  0  0  0  0  0  0  0  0
   -2.5913    0.8946   -4.4669 C   0  0  0  0  0  0  0  0  0  0  0  0
   -1.2114    2.6716   -5.3955 C   0  0  0  0  0  0  0  0  0  0  0  0
    1.6219   -1.9977   -1.0126 C   0  0  2  0  0  0  0  0  0  0  0  0
   -1.4164   -3.3875   -6.0529 C   0  0  0  0  0  0  0  0  0  0  0  0
   -0.8881   -1.6644   -7.6841 C   0  0  0  0  0  0  0  0  0  0  0  0
   -3.7481    1.5596   -4.9111 C   0  0  0  0  0  0  0  0  0  0  0  0
   -2.3672    3.3347   -5.8468 C   0  0  0  0  0  0  0  0  0  0  0  0
    1.0601   -2.1836    0.3413 C   0  0  0  0  0  0  0  0  0  0  0  0
   -1.4045   -2.9404   -7.3894 C   0  0  0  0  0  0  0  0  0  0  0  0
   -3.6397    2.7877   -5.5917 C   0  0  0  0  0  0  0  0  0  0  0  0
    0.6952   -1.1130    1.0862 O   0  0  0  0  0  0  0  0  0  0  0  0
    0.9190   -3.3276    0.8298 O   0  0  0  0  0  0  0  0  0  0  0  0
   -1.8422   -3.7428   -8.4096 O   0  0  0  0  0  0  0  0  0  0  0  0
   -5.0364    3.6050   -6.0901 Cl  0  0  0  0  0  0  0  0  0  0  0  0
   -3.2755   -3.7950   -8.5215 C   0  0  0  0  0  0  0  0  0  0  0  0
    1.4957   -2.0846   -3.7728 H   0  0  0  0  0  0  0  0  0  0  0  0
    2.0798   -0.4780   -3.4072 H   0  0  0  0  0  0  0  0  0  0  0  0
    0.4277   -0.2736   -1.5477 H   0  0  0  0  0  0  0  0  0  0  0  0
   -0.2995   -1.8244   -1.9962 H   0  0  0  0  0  0  0  0  0  0  0  0
   -0.9460   -2.9143   -4.0653 H   0  0  0  0  0  0  0  0  0  0  0  0
    0.0063    0.0675   -6.9015 H   0  0  0  0  0  0  0  0  0  0  0  0
   -2.6970    0.0102   -3.9632 H   0  0  0  0  0  0  0  0  0  0  0  0
   -0.2956    3.0849   -5.5899 H   0  0  0  0  0  0  0  0  0  0  0  0
    2.5431   -1.4166   -0.9234 H   0  0  0  0  0  0  0  0  0  0  0  0
    1.8687   -2.9754   -1.4404 H   0  0  0  0  0  0  0  0  0  0  0  0
   -1.7840   -4.3138   -5.8242 H   0  0  0  0  0  0  0  0  0  0  0  0
   -0.8741   -1.3310   -8.6507 H   0  0  0  0  0  0  0  0  0  0  0  0
   -4.6662    1.1466   -4.7235 H   0  0  0  0  0  0  0  0  0  0  0  0
   -2.2751    4.2170   -6.3560 H   0  0  0  0  0  0  0  0  0  0  0  0
    0.3097   -1.2384    1.9788 H   0  0  0  0  0  0  0  0  0  0  0  0
   -3.5263   -4.4177   -9.3819 H   0  0  0  0  0  0  0  0  0  0  0  0
   -3.7251   -4.2459   -7.6325 H   0  0  0  0  0  0  0  0  0  0  0  0
   -3.7030   -2.8009   -8.6815 H   0  0  0  0  0  0  0  0  0  0  0  0
  1  2  1  0  0  0  0 
  1  3  1  0  0  0  0 
  1  4  1  0  0  0  0 
  2  5  2  0  0  0  0 
  2  6  1  0  0  0  0 
  3  7  1  0  0  0  0 
  4  8  2  0  0  0  0 
  4  9  1  0  0  0  0 
  6 10  2  0  0  0  0 
  6 11  1  0  0  0  0 
  7 12  1  0  0  0  0 
  8 13  1  0  0  0  0 
  9 14  2  0  0  0  0 
 10 15  1  0  0  0  0 
 11 16  2  0  0  0  0 
 12 17  1  0  0  0  0 
 13 18  2  0  0  0  0 
 14 18  1  0  0  0  0 
 15 19  2  0  0  0  0 
 16 19  1  0  0  0  0 
 17 20  1  0  0  0  0 
 17 21  2  0  0  0  0 
 18 22  1  0  0  0  0 
 19 23  1  0  0  0  0 
 22 24  1  0  0  0  0 
  3 25  1  0  0  0  0 
  3 26  1  0  0  0  0 
  7 27  1  0  0  0  0 
  7 28  1  0  0  0  0 
  8 29  1  0  0  0  0 
  9 30  1  0  0  0  0 
 10 31  1  0  0  0  0 
 11 32  1  0  0  0  0 
 12 33  1  0  0  0  0 
 12 34  1  0  0  0  0 
 13 35  1  0  0  0  0 
 14 36  1  0  0  0  0 
 15 37  1  0  0  0  0 
 16 38  1  0  0  0  0 
 20 39  1  0  0  0  0 
 24 40  1  0  0  0  0 
 24 41  1  0  0  0  0 
 24 42  1  0  0  0  0 
M  END
> <cdk:Title>
clanobutin

> <Conformer>
1

> <SuperDrugID>
SD002693

$$$$
