valpromide
  CDK     0628171801

 27 26  0  0  0  0  0  0  0  0999 V2000
    2.7480    0.2333   -0.2492 C   0  0  0  0  0  0  0  0  0  0  0  0
    2.2368   -0.1068   -1.6670 C   0  0  2  0  0  0  0  0  0  0  0  0
    1.6421   -1.5412   -1.7617 C   0  0  1  0  0  0  0  0  0  0  0  0
    1.1510   -1.9760   -3.1827 C   0  0  2  0  0  0  0  0  0  0  0  0
   -0.0060   -1.0847   -3.7486 C   0  0  2  0  0  0  0  0  0  0  0  0
   -0.4975   -1.4799   -5.1698 C   0  0  2  0  0  0  0  0  0  0  0  0
   -1.6255   -0.5582   -5.6912 C   0  0  0  0  0  0  0  0  0  0  0  0
    0.7822   -3.4173   -3.1475 C   0  0  0  0  0  0  0  0  0  0  0  0
   -0.2444   -3.8697   -2.3998 N   0  0  0  0  0  0  0  0  0  0  0  0
    1.4316   -4.2573   -3.8128 O   0  0  0  0  0  0  0  0  0  0  0  0
    3.1246    1.2577   -0.2276 H   0  0  0  0  0  0  0  0  0  0  0  0
    1.9337    0.1499    0.4734 H   0  0  0  0  0  0  0  0  0  0  0  0
    3.5545   -0.4435    0.0412 H   0  0  0  0  0  0  0  0  0  0  0  0
    3.0641   -0.0107   -2.3764 H   0  0  0  0  0  0  0  0  0  0  0  0
    1.4721    0.6287   -1.9265 H   0  0  0  0  0  0  0  0  0  0  0  0
    2.4223   -2.2410   -1.4403 H   0  0  0  0  0  0  0  0  0  0  0  0
    0.8148   -1.6196   -1.0492 H   0  0  0  0  0  0  0  0  0  0  0  0
    2.0004   -1.8633   -3.8651 H   0  0  0  0  0  0  0  0  0  0  0  0
    0.3506   -0.0547   -3.8162 H   0  0  0  0  0  0  0  0  0  0  0  0
   -0.8546   -1.0965   -3.0577 H   0  0  0  0  0  0  0  0  0  0  0  0
   -0.8744   -2.5064   -5.1592 H   0  0  0  0  0  0  0  0  0  0  0  0
    0.3432   -1.4301   -5.8666 H   0  0  0  0  0  0  0  0  0  0  0  0
   -1.9193   -0.8643   -6.6986 H   0  0  0  0  0  0  0  0  0  0  0  0
   -1.2878    0.4805   -5.7273 H   0  0  0  0  0  0  0  0  0  0  0  0
   -2.4984   -0.6277   -5.0366 H   0  0  0  0  0  0  0  0  0  0  0  0
   -0.4497   -4.8184   -2.3769 H   0  0  0  0  0  0  0  0  0  0  0  0
   -0.7778   -3.2487   -1.8801 H   0  0  0  0  0  0  0  0  0  0  0  0
  1  2  1  0  0  0  0 
  2  3  1  0  0  0  0 
  3  4  1  0  0  0  0 
  4  5  1  0  0  0  0 
  5  6  1  0  0  0  0 
  6  7  1  0  0  0  0 
  4  8  1  0  0  0  0 
  8  9  1  0  0  0  0 
  8 10  2  0  0  0  0 
  1 11  1  0  0  0  0 
  1 12  1  0  0  0  0 
  1 13  1  0  0  0  0 
  2 14  1  0  0  0  0 
  2 15  1  0  0  0  0 
  3 16  1  0  0  0  0 
  3 17  1  0  0  0  0 
  4 18  1  0  0  0  0 
  5 19  1  0  0  0  0 
  5 20  1  0  0  0  0 
  6 21  1  0  0  0  0 
  6 22  1  0  0  0  0 
  7 23  1  0  0  0  0 
  7 24  1  0  0  0  0 
  7 25  1  0  0  0  0 
  9 26  1  0  0  0  0 
  9 27  1  0  0  0  0 
M  END
> <cdk:Title>
valpromide

> <Conformer>
1

> <SuperDrugID>
SD002529

$$$$
