cobimetinib
  CDK     0628171802

 51 54  0  0  0  0  0  0  0  0999 V2000
    7.7113   -3.6534   -5.0601 C   0  0  0  0  0  0  0  0  0  0  0  0
    6.8924   -3.4130   -6.1774 C   0  0  0  0  0  0  0  0  0  0  0  0
    5.7640   -2.5833   -6.0518 C   0  0  0  0  0  0  0  0  0  0  0  0
    5.4543   -1.9904   -4.8128 C   0  0  0  0  0  0  0  0  0  0  0  0
    6.2820   -2.2115   -3.6867 C   0  0  0  0  0  0  0  0  0  0  0  0
    7.4009   -3.0662   -3.8206 C   0  0  0  0  0  0  0  0  0  0  0  0
    7.3269   -4.2969   -7.9792 I   0  0  0  0  0  0  0  0  0  0  0  0
    5.9439   -1.6174   -2.5045 N   0  0  0  0  0  0  0  0  0  0  0  0
    6.7510   -1.2162   -1.4701 C   0  0  0  0  0  0  0  0  0  0  0  0
    8.0493   -0.6370   -1.6052 C   0  0  0  0  0  0  0  0  0  0  0  0
    8.7839   -0.3131   -0.4379 C   0  0  0  0  0  0  0  0  0  0  0  0
    8.2404   -0.5100    0.8409 C   0  0  0  0  0  0  0  0  0  0  0  0
    6.9492   -1.0382    0.9764 C   0  0  0  0  0  0  0  0  0  0  0  0
    6.2103   -1.3896   -0.1706 C   0  0  0  0  0  0  0  0  0  0  0  0
    8.6742   -0.3534   -2.8446 C   0  0  0  0  0  0  0  0  0  0  0  0
    4.3914   -1.2327   -4.7359 F   0  0  0  0  0  0  0  0  0  0  0  0
    5.0166   -1.9008   -0.0041 F   0  0  0  0  0  0  0  0  0  0  0  0
    6.4543   -1.2053    2.1732 F   0  0  0  0  0  0  0  0  0  0  0  0
    9.7815   -0.8991   -3.0676 O   0  0  0  0  0  0  0  0  0  0  0  0
    8.1852    0.5088   -3.7857 N   0  0  0  0  0  0  0  0  0  0  0  0
    8.7737    0.8959   -5.0153 C   0  0  2  0  0  0  0  0  0  0  0  0
    7.5781    1.8679   -5.1875 C   0  0  1  0  0  0  0  0  0  0  0  0
    7.0182    1.3168   -3.8459 C   0  0  1  0  0  0  0  0  0  0  0  0
    7.9790    3.2341   -5.0333 O   0  0  0  0  0  0  0  0  0  0  0  0
    6.7234    1.6319   -6.4761 C   0  0  1  0  0  0  0  0  0  0  0  0
    5.4709    2.4258   -6.3786 N   0  0  1  0  0  0  0  0  0  0  0  0
    4.5831    2.3140   -7.5603 C   0  0  2  0  0  0  0  0  0  0  0  0
    5.3140    2.7644   -8.8490 C   0  0  2  0  0  0  0  0  0  0  0  0
    6.6273    1.9659   -9.0405 C   0  0  1  0  0  0  0  0  0  0  0  0
    7.5112    2.0210   -7.7687 C   0  0  1  0  0  0  0  0  0  0  0  0
    6.4556    0.5713   -6.5358 H   0  0  0  0  0  0  0  0  0  0  0  0
    8.5286   -4.2603   -5.1449 H   0  0  0  0  0  0  0  0  0  0  0  0
    5.1658   -2.4139   -6.8635 H   0  0  0  0  0  0  0  0  0  0  0  0
    7.9905   -3.2762   -3.0129 H   0  0  0  0  0  0  0  0  0  0  0  0
    4.9932   -1.4791   -2.3675 H   0  0  0  0  0  0  0  0  0  0  0  0
    9.7273    0.0819   -0.5078 H   0  0  0  0  0  0  0  0  0  0  0  0
    8.7869   -0.2643    1.6703 H   0  0  0  0  0  0  0  0  0  0  0  0
    8.8128    0.0677   -5.7292 H   0  0  0  0  0  0  0  0  0  0  0  0
    9.7388    1.3944   -4.8944 H   0  0  0  0  0  0  0  0  0  0  0  0
    6.0957    0.7453   -3.9481 H   0  0  0  0  0  0  0  0  0  0  0  0
    6.9721    2.0575   -3.0413 H   0  0  0  0  0  0  0  0  0  0  0  0
    8.5831    3.4078   -5.7844 H   0  0  0  0  0  0  0  0  0  0  0  0
    4.9474    2.0754   -5.5733 H   0  0  0  0  0  0  0  0  0  0  0  0
    3.7135    2.9518   -7.3972 H   0  0  0  0  0  0  0  0  0  0  0  0
    4.2276    1.2855   -7.6681 H   0  0  0  0  0  0  0  0  0  0  0  0
    5.5403    3.8329   -8.7810 H   0  0  0  0  0  0  0  0  0  0  0  0
    4.6633    2.6133   -9.7136 H   0  0  0  0  0  0  0  0  0  0  0  0
    6.3908    0.9246   -9.2759 H   0  0  0  0  0  0  0  0  0  0  0  0
    7.1830    2.3842   -9.8844 H   0  0  0  0  0  0  0  0  0  0  0  0
    7.8945    3.0404   -7.6739 H   0  0  0  0  0  0  0  0  0  0  0  0
    8.3646    1.3499   -7.9042 H   0  0  0  0  0  0  0  0  0  0  0  0
  1  2  2  0  0  0  0 
  1  6  1  0  0  0  0 
  2  3  1  0  0  0  0 
  3  4  2  0  0  0  0 
  4  5  1  0  0  0  0 
  5  6  2  0  0  0  0 
  2  7  1  0  0  0  0 
  5  8  1  0  0  0  0 
  8  9  1  0  0  0  0 
 10 11  1  0  0  0  0 
 11 12  2  0  0  0  0 
 12 13  1  0  0  0  0 
 13 14  2  0  0  0  0 
  9 10  2  0  0  0  0 
  9 14  1  0  0  0  0 
 10 15  1  0  0  0  0 
  4 16  1  0  0  0  0 
 14 17  1  0  0  0  0 
 13 18  1  0  0  0  0 
 15 19  2  0  0  0  0 
 15 20  1  0  0  0  0 
 21 22  1  0  0  0  0 
 22 23  1  0  0  0  0 
 20 21  1  0  0  0  0 
 23 20  1  0  0  0  0 
 22 24  1  0  0  0  0 
 25 22  1  0  0  0  0 
 26 27  1  0  0  0  0 
 27 28  1  0  0  0  0 
 28 29  1  0  0  0  0 
 29 30  1  0  0  0  0 
 25 26  1  0  0  0  0 
 25 30  1  0  0  0  0 
 25 31  1  0  0  0  0 
  1 32  1  0  0  0  0 
  3 33  1  0  0  0  0 
  6 34  1  0  0  0  0 
  8 35  1  0  0  0  0 
 11 36  1  0  0  0  0 
 12 37  1  0  0  0  0 
 21 38  1  0  0  0  0 
 21 39  1  0  0  0  0 
 23 40  1  0  0  0  0 
 23 41  1  0  0  0  0 
 24 42  1  0  0  0  0 
 26 43  1  0  0  0  0 
 27 44  1  0  0  0  0 
 27 45  1  0  0  0  0 
 28 46  1  0  0  0  0 
 28 47  1  0  0  0  0 
 29 48  1  0  0  0  0 
 29 49  1  0  0  0  0 
 30 50  1  0  0  0  0 
 30 51  1  0  0  0  0 
M  END
> <cdk:Title>
cobimetinib

> <Conformer>
1

> <SuperDrugID>
SD003884

$$$$
