levomilnacipran
  CDK     0628171802

 40 41  0  0  0  0  0  0  0  0999 V2000
   -0.7852   -1.4918   -0.9941 C   0  0  0  0  0  0  0  0  0  0  0  0
   -1.4784   -0.3916   -1.5100 N   0  0  0  0  0  0  0  0  0  0  0  0
   -1.6159    0.8339   -0.7384 C   0  0  2  0  0  0  0  0  0  0  0  0
   -0.5453    1.8767   -1.1383 C   0  0  0  0  0  0  0  0  0  0  0  0
   -1.9994   -0.4128   -2.8778 C   0  0  2  0  0  0  0  0  0  0  0  0
   -3.4749    0.0256   -3.0393 C   0  0  0  0  0  0  0  0  0  0  0  0
   -0.4928   -2.4488   -1.7514 O   0  0  0  0  0  0  0  0  0  0  0  0
   -0.2304   -1.6177    0.3918 C   0  0  2  0  0  0  0  0  0  0  0  0
   -0.3188   -2.9994    1.1117 C   0  0  1  0  0  0  0  0  0  0  0  0
   -1.2176   -1.8438    1.5664 C   0  0  2  0  0  0  0  0  0  0  0  0
   -1.0407   -4.2332    0.5132 C   0  0  2  0  0  0  0  0  0  0  0  0
   -1.5085   -5.1045    1.5938 N   0  0  1  0  0  0  0  0  0  0  0  0
    1.0386   -0.8783    0.6512 C   0  0  0  0  0  0  0  0  0  0  0  0
    2.2386   -1.3307    0.0546 C   0  0  0  0  0  0  0  0  0  0  0  0
    3.4388   -0.6156    0.2227 C   0  0  0  0  0  0  0  0  0  0  0  0
    3.4559    0.5624    0.9894 C   0  0  0  0  0  0  0  0  0  0  0  0
    2.2743    1.0178    1.5994 C   0  0  0  0  0  0  0  0  0  0  0  0
    1.0764    0.2974    1.4408 C   0  0  0  0  0  0  0  0  0  0  0  0
   -1.5474    0.6525    0.3314 H   0  0  0  0  0  0  0  0  0  0  0  0
   -2.5987    1.2872   -0.8600 H   0  0  0  0  0  0  0  0  0  0  0  0
   -0.5189    2.6883   -0.4087 H   0  0  0  0  0  0  0  0  0  0  0  0
   -0.7711    2.3044   -2.1166 H   0  0  0  0  0  0  0  0  0  0  0  0
    0.4412    1.4131   -1.1857 H   0  0  0  0  0  0  0  0  0  0  0  0
   -1.9451   -1.4103   -3.3221 H   0  0  0  0  0  0  0  0  0  0  0  0
   -1.3769    0.2293   -3.5057 H   0  0  0  0  0  0  0  0  0  0  0  0
   -3.8417   -0.2556   -4.0274 H   0  0  0  0  0  0  0  0  0  0  0  0
   -3.5692    1.1092   -2.9430 H   0  0  0  0  0  0  0  0  0  0  0  0
   -4.0959   -0.4591   -2.2845 H   0  0  0  0  0  0  0  0  0  0  0  0
    0.4906   -3.2152    1.8159 H   0  0  0  0  0  0  0  0  0  0  0  0
   -2.2741   -1.9208    1.3081 H   0  0  0  0  0  0  0  0  0  0  0  0
   -0.9550   -1.4277    2.5401 H   0  0  0  0  0  0  0  0  0  0  0  0
   -0.3347   -4.7918   -0.1034 H   0  0  0  0  0  0  0  0  0  0  0  0
   -1.8999   -3.9555   -0.1003 H   0  0  0  0  0  0  0  0  0  0  0  0
   -1.9407   -5.9208    1.1554 H   0  0  0  0  0  0  0  0  0  0  0  0
   -0.6753   -5.4371    2.0834 H   0  0  0  0  0  0  0  0  0  0  0  0
    2.2413   -2.1784   -0.5186 H   0  0  0  0  0  0  0  0  0  0  0  0
    4.2979   -0.9511   -0.2168 H   0  0  0  0  0  0  0  0  0  0  0  0
    4.3248    1.0885    1.1004 H   0  0  0  0  0  0  0  0  0  0  0  0
    2.2839    1.8785    2.1515 H   0  0  0  0  0  0  0  0  0  0  0  0
    0.2321    0.6498    1.8982 H   0  0  0  0  0  0  0  0  0  0  0  0
  1  2  1  0  0  0  0 
  1  7  2  0  0  0  0 
  2  3  1  0  0  0  0 
  2  5  1  0  0  0  0 
  3  4  1  0  0  0  0 
  5  6  1  0  0  0  0 
  8  1  1  0  0  0  0 
  9  8  1  0  0  0  0 
  8 10  1  0  0  0  0 
  8 13  1  0  0  0  0 
  9 10  1  0  0  0  0 
  9 11  1  0  0  0  0 
 11 12  1  0  0  0  0 
 13 14  2  0  0  0  0 
 13 18  1  0  0  0  0 
 14 15  1  0  0  0  0 
 15 16  2  0  0  0  0 
 17 16  1  0  0  0  0 
 18 17  2  0  0  0  0 
  3 19  1  0  0  0  0 
  3 20  1  0  0  0  0 
  4 21  1  0  0  0  0 
  4 22  1  0  0  0  0 
  4 23  1  0  0  0  0 
  5 24  1  0  0  0  0 
  5 25  1  0  0  0  0 
  6 26  1  0  0  0  0 
  6 27  1  0  0  0  0 
  6 28  1  0  0  0  0 
  9 29  1  0  0  0  0 
 10 30  1  0  0  0  0 
 10 31  1  0  0  0  0 
 11 32  1  0  0  0  0 
 11 33  1  0  0  0  0 
 12 34  1  0  0  0  0 
 12 35  1  0  0  0  0 
 14 36  1  0  0  0  0 
 15 37  1  0  0  0  0 
 16 38  1  0  0  0  0 
 17 39  1  0  0  0  0 
 18 40  1  0  0  0  0 
M  END
> <cdk:Title>
levomilnacipran

> <Conformer>
1

> <SuperDrugID>
SD003807

$$$$
