bambuterol
  CDK     0628171801

 55 55  0  0  0  0  0  0  0  0999 V2000
   -2.8973    6.6441   -0.5253 C   0  0  1  0  0  0  0  0  0  0  0  0
   -2.4038    8.0687   -0.1709 C   0  0  2  0  0  0  0  0  0  0  0  0
   -4.2941    6.6611   -0.8205 O   0  0  0  0  0  0  0  0  0  0  0  0
   -2.1027    6.1016   -1.6669 C   0  0  0  0  0  0  0  0  0  0  0  0
   -3.1417    8.6028    0.9975 N   0  0  1  0  0  0  0  0  0  0  0  0
   -2.3986    6.4608   -3.0011 C   0  0  0  0  0  0  0  0  0  0  0  0
   -0.9783    5.2785   -1.4296 C   0  0  0  0  0  0  0  0  0  0  0  0
   -2.7247    9.9138    1.5835 C   0  0  2  0  0  0  0  0  0  0  0  0
   -1.5875    6.0444   -4.0732 C   0  0  0  0  0  0  0  0  0  0  0  0
   -0.1595    4.8331   -2.4917 C   0  0  0  0  0  0  0  0  0  0  0  0
   -2.7793   11.0742    0.5393 C   0  0  0  0  0  0  0  0  0  0  0  0
   -1.3020    9.8126    2.2166 C   0  0  0  0  0  0  0  0  0  0  0  0
   -3.7621   10.1913    2.7125 C   0  0  0  0  0  0  0  0  0  0  0  0
   -1.9766    6.4745   -5.3108 O   0  0  0  0  0  0  0  0  0  0  0  0
   -0.4684    5.2288   -3.8077 C   0  0  0  0  0  0  0  0  0  0  0  0
    0.9551    4.0537   -2.3251 O   0  0  0  0  0  0  0  0  0  0  0  0
   -1.3302    6.6355   -6.5068 C   0  0  0  0  0  0  0  0  0  0  0  0
    1.3040    3.1553   -1.3503 C   0  0  0  0  0  0  0  0  0  0  0  0
   -2.0564    7.0207   -7.6189 N   0  0  0  0  0  0  0  0  0  0  0  0
   -0.0838    6.4975   -6.5623 O   0  0  0  0  0  0  0  0  0  0  0  0
    2.5630    2.5900   -1.3596 N   0  0  0  0  0  0  0  0  0  0  0  0
    0.4444    2.8129   -0.5039 O   0  0  0  0  0  0  0  0  0  0  0  0
   -1.3808    7.3866   -8.8433 C   0  0  0  0  0  0  0  0  0  0  0  0
   -3.5015    7.0864   -7.5941 C   0  0  0  0  0  0  0  0  0  0  0  0
    3.5284    3.0140   -2.3459 C   0  0  0  0  0  0  0  0  0  0  0  0
    2.9620    1.5714   -0.4190 C   0  0  0  0  0  0  0  0  0  0  0  0
   -2.7752    6.0071    0.3559 H   0  0  0  0  0  0  0  0  0  0  0  0
   -2.5541    8.7293   -1.0293 H   0  0  0  0  0  0  0  0  0  0  0  0
   -1.3351    8.0198    0.0552 H   0  0  0  0  0  0  0  0  0  0  0  0
   -4.7227    6.9702    0.0054 H   0  0  0  0  0  0  0  0  0  0  0  0
   -4.1191    8.6936    0.7083 H   0  0  0  0  0  0  0  0  0  0  0  0
   -3.2101    7.0534   -3.1980 H   0  0  0  0  0  0  0  0  0  0  0  0
   -0.7361    5.0306   -0.4693 H   0  0  0  0  0  0  0  0  0  0  0  0
   -3.7504   11.1023    0.0409 H   0  0  0  0  0  0  0  0  0  0  0  0
   -2.0084   10.9554   -0.2235 H   0  0  0  0  0  0  0  0  0  0  0  0
   -2.6134   12.0376    1.0246 H   0  0  0  0  0  0  0  0  0  0  0  0
   -0.5326    9.7135    1.4484 H   0  0  0  0  0  0  0  0  0  0  0  0
   -1.0752   10.7090    2.7972 H   0  0  0  0  0  0  0  0  0  0  0  0
   -1.2406    8.9447    2.8779 H   0  0  0  0  0  0  0  0  0  0  0  0
   -3.5472   11.1369    3.2141 H   0  0  0  0  0  0  0  0  0  0  0  0
   -4.7737   10.2437    2.3034 H   0  0  0  0  0  0  0  0  0  0  0  0
   -3.7397    9.3960    3.4607 H   0  0  0  0  0  0  0  0  0  0  0  0
    0.1200    4.9027   -4.5725 H   0  0  0  0  0  0  0  0  0  0  0  0
   -0.8045    6.5428   -9.2290 H   0  0  0  0  0  0  0  0  0  0  0  0
   -0.7025    8.2223   -8.6562 H   0  0  0  0  0  0  0  0  0  0  0  0
   -2.0737    7.7016   -9.6272 H   0  0  0  0  0  0  0  0  0  0  0  0
   -3.8194    8.1252   -7.7010 H   0  0  0  0  0  0  0  0  0  0  0  0
   -3.9168    6.5042   -8.4200 H   0  0  0  0  0  0  0  0  0  0  0  0
   -3.9480    6.6937   -6.6778 H   0  0  0  0  0  0  0  0  0  0  0  0
    3.1419    2.8388   -3.3526 H   0  0  0  0  0  0  0  0  0  0  0  0
    3.7456    4.0786   -2.2259 H   0  0  0  0  0  0  0  0  0  0  0  0
    4.4770    2.4771   -2.2630 H   0  0  0  0  0  0  0  0  0  0  0  0
    3.1993    0.6561   -0.9661 H   0  0  0  0  0  0  0  0  0  0  0  0
    2.1942    1.3273    0.3193 H   0  0  0  0  0  0  0  0  0  0  0  0
    3.8530    1.8988    0.1230 H   0  0  0  0  0  0  0  0  0  0  0  0
  1  2  1  0  0  0  0 
  1  3  1  0  0  0  0 
  1  4  1  0  0  0  0 
  2  5  1  0  0  0  0 
  4  6  2  0  0  0  0 
  4  7  1  0  0  0  0 
  5  8  1  0  0  0  0 
  6  9  1  0  0  0  0 
  7 10  2  0  0  0  0 
  8 11  1  0  0  0  0 
  8 12  1  0  0  0  0 
  8 13  1  0  0  0  0 
  9 14  1  0  0  0  0 
  9 15  2  0  0  0  0 
 10 15  1  0  0  0  0 
 10 16  1  0  0  0  0 
 14 17  1  0  0  0  0 
 16 18  1  0  0  0  0 
 17 19  1  0  0  0  0 
 17 20  2  0  0  0  0 
 18 21  1  0  0  0  0 
 18 22  2  0  0  0  0 
 19 23  1  0  0  0  0 
 19 24  1  0  0  0  0 
 21 25  1  0  0  0  0 
 21 26  1  0  0  0  0 
  1 27  1  0  0  0  0 
  2 28  1  0  0  0  0 
  2 29  1  0  0  0  0 
  3 30  1  0  0  0  0 
  5 31  1  0  0  0  0 
  6 32  1  0  0  0  0 
  7 33  1  0  0  0  0 
 11 34  1  0  0  0  0 
 11 35  1  0  0  0  0 
 11 36  1  0  0  0  0 
 12 37  1  0  0  0  0 
 12 38  1  0  0  0  0 
 12 39  1  0  0  0  0 
 13 40  1  0  0  0  0 
 13 41  1  0  0  0  0 
 13 42  1  0  0  0  0 
 15 43  1  0  0  0  0 
 23 44  1  0  0  0  0 
 23 45  1  0  0  0  0 
 23 46  1  0  0  0  0 
 24 47  1  0  0  0  0 
 24 48  1  0  0  0  0 
 24 49  1  0  0  0  0 
 25 50  1  0  0  0  0 
 25 51  1  0  0  0  0 
 25 52  1  0  0  0  0 
 26 53  1  0  0  0  0 
 26 54  1  0  0  0  0 
 26 55  1  0  0  0  0 
M  END
> <cdk:Title>
bambuterol

> <Conformer>
1

> <SuperDrugID>
SD000238

$$$$
