diazoxide
  CDK     0628171802

 21 22  0  0  0  0  0  0  0  0999 V2000
   -3.2331   -1.6984    0.2684 C   0  0  0  0  0  0  0  0  0  0  0  0
   -4.6205   -1.4799    0.3735 C   0  0  0  0  0  0  0  0  0  0  0  0
   -5.1950   -0.3049   -0.1515 C   0  0  0  0  0  0  0  0  0  0  0  0
   -4.3794    0.6505   -0.7890 C   0  0  0  0  0  0  0  0  0  0  0  0
   -2.9915    0.4348   -0.8760 C   0  0  0  0  0  0  0  0  0  0  0  0
   -2.4033   -0.7409   -0.3535 C   0  0  0  0  0  0  0  0  0  0  0  0
   -1.0910   -0.9760   -0.4201 N   0  0  0  0  0  0  0  0  0  0  0  0
   -1.9047    1.6019   -1.6354 S   0  0  1  0  0  0  0  0  0  0  0  0
   -0.3312    0.9405   -1.4758 N   0  0  0  0  0  0  0  0  0  0  0  0
   -0.1386   -0.2529   -0.9116 C   0  0  0  0  0  0  0  0  0  0  0  0
   -6.8615   -0.0378   -0.0160 Cl  0  0  0  0  0  0  0  0  0  0  0  0
    1.2156   -0.7566   -0.8477 C   0  0  0  0  0  0  0  0  0  0  0  0
   -2.2491    1.7723   -3.1923 O   0  0  0  0  0  0  0  0  0  0  0  0
   -1.9633    3.0249   -0.8983 O   0  0  0  0  0  0  0  0  0  0  0  0
   -2.8296   -2.5602    0.6477 H   0  0  0  0  0  0  0  0  0  0  0  0
   -5.2077   -2.1820    0.8312 H   0  0  0  0  0  0  0  0  0  0  0  0
   -4.7898    1.4989   -1.1854 H   0  0  0  0  0  0  0  0  0  0  0  0
    0.4294    1.4452   -1.8042 H   0  0  0  0  0  0  0  0  0  0  0  0
    1.2716   -1.7271   -0.3466 H   0  0  0  0  0  0  0  0  0  0  0  0
    1.6176   -0.8719   -1.8563 H   0  0  0  0  0  0  0  0  0  0  0  0
    1.8460   -0.0531   -0.2997 H   0  0  0  0  0  0  0  0  0  0  0  0
  1  2  2  0  0  0  0 
  2  3  1  0  0  0  0 
  3  4  2  0  0  0  0 
  4  5  1  0  0  0  0 
  1  6  1  0  0  0  0 
  7  6  1  0  0  0  0 
  6  5  2  0  0  0  0 
  5  8  1  0  0  0  0 
  8  9  1  0  0  0  0 
  9 10  1  0  0  0  0 
  7 10  2  0  0  0  0 
  3 11  1  0  0  0  0 
 10 12  1  0  0  0  0 
  8 13  2  0  0  0  0 
  8 14  2  0  0  0  0 
 15  1  1  0  0  0  0 
 16  2  1  0  0  0  0 
 17  4  1  0  0  0  0 
 18  9  1  0  0  0  0 
 19 12  1  0  0  0  0 
 20 12  1  0  0  0  0 
 21 12  1  0  0  0  0 
M  END
> <cdk:Title>
diazoxide

> <Conformer>
1

> <SuperDrugID>
SD000757

$$$$
