nicotinyl methylamide
  CDK     0628171802

 18 18  0  0  0  0  0  0  0  0999 V2000
   -1.8615    0.1191    0.5056 C   0  0  0  0  0  0  0  0  0  0  0  0
   -3.1121    0.4662    1.0744 C   0  0  0  0  0  0  0  0  0  0  0  0
   -4.2585   -0.1235    0.6453 N   0  0  0  0  0  0  0  0  0  0  0  0
   -4.2805   -1.0544   -0.3395 C   0  0  0  0  0  0  0  0  0  0  0  0
   -3.0814   -1.4325   -0.9615 C   0  0  0  0  0  0  0  0  0  0  0  0
   -1.8780   -0.8399   -0.5384 C   0  0  0  0  0  0  0  0  0  0  0  0
   -0.6466    0.6952    0.9694 C   0  0  0  0  0  0  0  0  0  0  0  0
    0.5451    0.0696    0.7539 N   0  0  0  0  0  0  0  0  0  0  0  0
   -0.6662    1.7807    1.5990 O   0  0  0  0  0  0  0  0  0  0  0  0
    1.8130    0.5294    1.2015 C   0  0  0  0  0  0  0  0  0  0  0  0
   -3.1776    1.1552    1.8272 H   0  0  0  0  0  0  0  0  0  0  0  0
   -5.1676   -1.4729   -0.6260 H   0  0  0  0  0  0  0  0  0  0  0  0
   -3.0817   -2.1255   -1.7113 H   0  0  0  0  0  0  0  0  0  0  0  0
   -1.0162   -1.1194   -1.0107 H   0  0  0  0  0  0  0  0  0  0  0  0
    0.5306   -0.7670    0.2645 H   0  0  0  0  0  0  0  0  0  0  0  0
    2.5763   -0.1713    0.8613 H   0  0  0  0  0  0  0  0  0  0  0  0
    2.0302    1.5149    0.7883 H   0  0  0  0  0  0  0  0  0  0  0  0
    1.8347    0.5733    2.2912 H   0  0  0  0  0  0  0  0  0  0  0  0
  1  2  2  0  0  0  0 
  2  3  1  0  0  0  0 
  3  4  2  0  0  0  0 
  4  5  1  0  0  0  0 
  5  6  2  0  0  0  0 
  1  6  1  0  0  0  0 
  1  7  1  0  0  0  0 
  7  8  1  0  0  0  0 
  7  9  2  0  0  0  0 
  8 10  1  0  0  0  0 
  2 11  1  0  0  0  0 
  4 12  1  0  0  0  0 
  5 13  1  0  0  0  0 
  6 14  1  0  0  0  0 
  8 15  1  0  0  0  0 
 10 16  1  0  0  0  0 
 10 17  1  0  0  0  0 
 10 18  1  0  0  0  0 
M  END
> <cdk:Title>
nicotinyl methylamide

> <Conformer>
1

> <SuperDrugID>
SD003805

$$$$
