urethane
  Mrv0541 09131710093D               6.73505

 13 12  0  0  0  0            999 V2000
    0.0934    1.2172   -1.7813 C   0  0  0  0  0  0  0  0  0  0  0  0
    1.0460    0.6826   -0.6965 C   0  0  1  0  0  0  0  0  0  0  0  0
    1.0131    1.5501    0.4462 O   0  0  0  0  0  0  0  0  0  0  0  0
    2.0609    2.2008    1.0261 C   0  0  0  0  0  0  0  0  0  0  0  0
    3.2431    2.0665    0.6336 O   0  0  0  0  0  0  0  0  0  0  0  0
    1.8167    3.0187    2.0599 N   0  0  0  0  0  0  0  0  0  0  0  0
    0.3956    2.2212   -2.0846 H   0  0  0  0  0  0  0  0  0  0  0  0
    0.1198    0.5643   -2.6553 H   0  0  0  0  0  0  0  0  0  0  0  0
   -0.9276    1.2551   -1.3977 H   0  0  0  0  0  0  0  0  0  0  0  0
    0.7189   -0.3115   -0.3857 H   0  0  0  0  0  0  0  0  0  0  0  0
    2.0521    0.5985   -1.1152 H   0  0  0  0  0  0  0  0  0  0  0  0
    0.9113    3.1296    2.3891 H   0  0  0  0  0  0  0  0  0  0  0  0
    2.5450    3.5009    2.4806 H   0  0  0  0  0  0  0  0  0  0  0  0
  1  2  1  0  0  0  0
  2  3  1  0  0  0  0
  3  4  1  0  0  0  0
  4  5  2  0  0  0  0
  4  6  1  0  0  0  0
  1  7  1  0  0  0  0
  1  8  1  0  0  0  0
  1  9  1  0  0  0  0
  2 10  1  0  0  0  0
  2 11  1  0  0  0  0
  6 12  1  0  0  0  0
  6 13  1  0  0  0  0
M  END
>  <SuperDrugID>
SD006035

>  <_MOLCOUNT>
1

$$$$
