doxapram
  CDK     0628171802

 58 61  0  0  0  0  0  0  0  0999 V2000
   -2.2272    2.0411    1.0775 C   0  0  2  0  0  0  0  0  0  0  0  0
   -2.3400    0.5791    0.5440 C   0  0  2  0  0  0  0  0  0  0  0  0
   -3.3351    2.4602    2.1141 C   0  0  1  0  0  0  0  0  0  0  0  0
   -1.0522   -0.0305    0.0602 N   0  0  1  0  0  0  0  0  0  0  0  0
   -3.2120    3.8784    2.8196 C   0  0  1  0  0  0  0  0  0  0  0  0
   -4.7596    2.4894    1.5001 C   0  0  2  0  0  0  0  0  0  0  0  0
   -1.1949   -1.5028   -0.1944 C   0  0  1  0  0  0  0  0  0  0  0  0
   -0.4334    0.6824   -1.1033 C   0  0  2  0  0  0  0  0  0  0  0  0
   -4.1222    4.6283    1.8916 C   0  0  0  0  0  0  0  0  0  0  0  0
   -3.8280    3.9607    4.2278 C   0  0  0  0  0  0  0  0  0  0  0  0
   -1.7770    4.3934    2.8212 C   0  0  0  0  0  0  0  0  0  0  0  0
   -4.9999    3.8567    1.2009 N   0  0  0  0  0  0  0  0  0  0  0  0
    0.1248   -2.1332   -0.7031 C   0  0  1  0  0  0  0  0  0  0  0  0
    0.8654   -0.0228   -1.5714 C   0  0  2  0  0  0  0  0  0  0  0  0
   -4.0831    5.8780    1.7889 O   0  0  0  0  0  0  0  0  0  0  0  0
   -4.3230    5.1896    4.7537 C   0  0  0  0  0  0  0  0  0  0  0  0
   -3.8949    2.8495    5.1215 C   0  0  0  0  0  0  0  0  0  0  0  0
   -0.9050    4.1580    3.9196 C   0  0  0  0  0  0  0  0  0  0  0  0
   -1.2131    5.0694    1.7009 C   0  0  0  0  0  0  0  0  0  0  0  0
   -6.0655    4.2534    0.2992 C   0  0  2  0  0  0  0  0  0  0  0  0
    0.6230   -1.4154   -1.8459 O   0  0  0  0  0  0  0  0  0  0  0  0
   -4.9400    5.2806    6.0159 C   0  0  0  0  0  0  0  0  0  0  0  0
   -4.5106    2.9286    6.3836 C   0  0  0  0  0  0  0  0  0  0  0  0
    0.4269    4.6128    3.9222 C   0  0  0  0  0  0  0  0  0  0  0  0
    0.1160    5.5272    1.6974 C   0  0  0  0  0  0  0  0  0  0  0  0
   -6.3672    5.7601    0.1066 C   0  0  0  0  0  0  0  0  0  0  0  0
   -5.0549    4.1417    6.8246 C   0  0  0  0  0  0  0  0  0  0  0  0
    0.9351    5.3074    2.8143 C   0  0  0  0  0  0  0  0  0  0  0  0
   -2.2454    2.7297    0.2295 H   0  0  0  0  0  0  0  0  0  0  0  0
   -1.2494    2.1206    1.5564 H   0  0  0  0  0  0  0  0  0  0  0  0
   -3.0772    0.5553   -0.2619 H   0  0  0  0  0  0  0  0  0  0  0  0
   -2.7272   -0.0468    1.3530 H   0  0  0  0  0  0  0  0  0  0  0  0
   -3.3036    1.6547    2.8372 H   0  0  0  0  0  0  0  0  0  0  0  0
   -5.4943    2.1548    2.2364 H   0  0  0  0  0  0  0  0  0  0  0  0
   -4.8514    1.8619    0.6132 H   0  0  0  0  0  0  0  0  0  0  0  0
   -1.4766   -2.0151    0.7287 H   0  0  0  0  0  0  0  0  0  0  0  0
   -1.9768   -1.6837   -0.9387 H   0  0  0  0  0  0  0  0  0  0  0  0
   -0.1717    1.7038   -0.8212 H   0  0  0  0  0  0  0  0  0  0  0  0
   -1.1381    0.7261   -1.9388 H   0  0  0  0  0  0  0  0  0  0  0  0
    0.8768   -2.1489    0.0908 H   0  0  0  0  0  0  0  0  0  0  0  0
   -0.0598   -3.1649   -1.0072 H   0  0  0  0  0  0  0  0  0  0  0  0
    1.6501    0.0805   -0.8156 H   0  0  0  0  0  0  0  0  0  0  0  0
    1.2255    0.4441   -2.4894 H   0  0  0  0  0  0  0  0  0  0  0  0
   -4.2479    6.0522    4.2203 H   0  0  0  0  0  0  0  0  0  0  0  0
   -3.4731    1.9504    4.9006 H   0  0  0  0  0  0  0  0  0  0  0  0
   -1.2284    3.6441    4.7395 H   0  0  0  0  0  0  0  0  0  0  0  0
   -1.7619    5.2252    0.8544 H   0  0  0  0  0  0  0  0  0  0  0  0
   -6.9934    3.7939    0.6504 H   0  0  0  0  0  0  0  0  0  0  0  0
   -5.8571    3.8398   -0.6914 H   0  0  0  0  0  0  0  0  0  0  0  0
   -5.3018    6.1774    6.3475 H   0  0  0  0  0  0  0  0  0  0  0  0
   -4.5575    2.1004    6.9842 H   0  0  0  0  0  0  0  0  0  0  0  0
    1.0271    4.4377    4.7302 H   0  0  0  0  0  0  0  0  0  0  0  0
    0.4869    6.0156    0.8802 H   0  0  0  0  0  0  0  0  0  0  0  0
   -7.2029    5.8911   -0.5843 H   0  0  0  0  0  0  0  0  0  0  0  0
   -6.6389    6.2176    1.0598 H   0  0  0  0  0  0  0  0  0  0  0  0
   -5.5027    6.2776   -0.3103 H   0  0  0  0  0  0  0  0  0  0  0  0
   -5.5202    4.1958    7.7329 H   0  0  0  0  0  0  0  0  0  0  0  0
    1.9003    5.6478    2.8176 H   0  0  0  0  0  0  0  0  0  0  0  0
  1  2  1  0  0  0  0 
  3  1  1  0  0  0  0 
  2  4  1  0  0  0  0 
  3  5  1  0  0  0  0 
  3  6  1  0  0  0  0 
  4  7  1  0  0  0  0 
  4  8  1  0  0  0  0 
  5  9  1  0  0  0  0 
  5 10  1  0  0  0  0 
  5 11  1  0  0  0  0 
  6 12  1  0  0  0  0 
  7 13  1  0  0  0  0 
  8 14  1  0  0  0  0 
  9 12  1  0  0  0  0 
  9 15  2  0  0  0  0 
 10 16  2  0  0  0  0 
 10 17  1  0  0  0  0 
 11 18  2  0  0  0  0 
 11 19  1  0  0  0  0 
 12 20  1  0  0  0  0 
 13 21  1  0  0  0  0 
 14 21  1  0  0  0  0 
 16 22  1  0  0  0  0 
 17 23  2  0  0  0  0 
 18 24  1  0  0  0  0 
 19 25  2  0  0  0  0 
 20 26  1  0  0  0  0 
 22 27  2  0  0  0  0 
 23 27  1  0  0  0  0 
 24 28  2  0  0  0  0 
 25 28  1  0  0  0  0 
  1 29  1  0  0  0  0 
  1 30  1  0  0  0  0 
  2 31  1  0  0  0  0 
  2 32  1  0  0  0  0 
  3 33  1  0  0  0  0 
  6 34  1  0  0  0  0 
  6 35  1  0  0  0  0 
  7 36  1  0  0  0  0 
  7 37  1  0  0  0  0 
  8 38  1  0  0  0  0 
  8 39  1  0  0  0  0 
 13 40  1  0  0  0  0 
 13 41  1  0  0  0  0 
 14 42  1  0  0  0  0 
 14 43  1  0  0  0  0 
 16 44  1  0  0  0  0 
 17 45  1  0  0  0  0 
 18 46  1  0  0  0  0 
 19 47  1  0  0  0  0 
 20 48  1  0  0  0  0 
 20 49  1  0  0  0  0 
 22 50  1  0  0  0  0 
 23 51  1  0  0  0  0 
 24 52  1  0  0  0  0 
 25 53  1  0  0  0  0 
 26 54  1  0  0  0  0 
 26 55  1  0  0  0  0 
 26 56  1  0  0  0  0 
 27 57  1  0  0  0  0 
 28 58  1  0  0  0  0 
M  END
> <cdk:Title>
doxapram

> <Conformer>
1

> <SuperDrugID>
SD000845

$$$$
