doxycycline
  CDK     0628171802

 56 59  0  0  0  0  0  0  0  0999 V2000
    5.1530   -3.4534   -1.5720 C   0  0  0  0  0  0  0  0  0  0  0  0
    3.6230   -3.1322   -1.5873 C   0  0  2  0  0  0  0  0  0  0  0  0
    2.8129   -4.2526   -0.8198 C   0  0  1  0  0  0  0  0  0  0  0  0
    2.8792   -4.2138    0.7434 C   0  0  2  0  0  0  0  0  0  0  0  0
    2.8252   -5.5578    1.2380 O   0  0  0  0  0  0  0  0  0  0  0  0
    1.7482   -3.3730    1.4282 C   0  0  1  0  0  0  0  0  0  0  0  0
    2.1251   -1.8452    1.6366 C   0  0  2  0  0  0  0  0  0  0  0  0
    1.8163   -1.2857    3.0220 N   0  0  1  0  0  0  0  0  0  0  0  0
    2.5481   -1.9443    4.1607 C   0  0  0  0  0  0  0  0  0  0  0  0
    1.9927    0.2031    3.1447 C   0  0  0  0  0  0  0  0  0  0  0  0
    1.3987   -1.0841    0.5783 C   0  0  0  0  0  0  0  0  0  0  0  0
    2.0406   -0.3222   -0.1839 O   0  0  0  0  0  0  0  0  0  0  0  0
    0.0098   -1.1984    0.4955 C   0  0  0  0  0  0  0  0  0  0  0  0
   -0.7789   -0.0739    0.1915 C   0  0  0  0  0  0  0  0  0  0  0  0
   -0.3050    1.1871    0.1600 N   0  0  0  0  0  0  0  0  0  0  0  0
   -1.9937   -0.1613   -0.1002 O   0  0  0  0  0  0  0  0  0  0  0  0
   -0.5135   -2.4278    0.7304 C   0  0  0  0  0  0  0  0  0  0  0  0
   -1.8361   -2.5972    0.8051 O   0  0  0  0  0  0  0  0  0  0  0  0
    0.3201   -3.6497    0.7879 C   0  0  2  0  0  0  0  0  0  0  0  0
   -0.3403   -4.6505    1.5770 O   0  0  0  0  0  0  0  0  0  0  0  0
    0.3291   -4.1750   -0.5898 C   0  0  0  0  0  0  0  0  0  0  0  0
   -0.8595   -4.4096   -1.1637 O   0  0  0  0  0  0  0  0  0  0  0  0
    1.4445   -4.3631   -1.3295 C   0  0  0  0  0  0  0  0  0  0  0  0
    1.3750   -4.5913   -2.7007 C   0  0  0  0  0  0  0  0  0  0  0  0
    0.6894   -5.5452   -3.1408 O   0  0  0  0  0  0  0  0  0  0  0  0
    2.0748   -3.6883   -3.5542 C   0  0  0  0  0  0  0  0  0  0  0  0
    1.7013   -3.5022   -4.9125 C   0  0  0  0  0  0  0  0  0  0  0  0
    0.6911   -4.1933   -5.5024 O   0  0  0  0  0  0  0  0  0  0  0  0
    2.3579   -2.5443   -5.7051 C   0  0  0  0  0  0  0  0  0  0  0  0
    3.3542   -1.7307   -5.1460 C   0  0  0  0  0  0  0  0  0  0  0  0
    3.7294   -1.8998   -3.8050 C   0  0  0  0  0  0  0  0  0  0  0  0
    3.1405   -2.9090   -3.0044 C   0  0  0  0  0  0  0  0  0  0  0  0
    5.3618   -4.3365   -2.1809 H   0  0  0  0  0  0  0  0  0  0  0  0
    5.7373   -2.6194   -1.9625 H   0  0  0  0  0  0  0  0  0  0  0  0
    5.5091   -3.6461   -0.5591 H   0  0  0  0  0  0  0  0  0  0  0  0
    3.4877   -2.1937   -1.0545 H   0  0  0  0  0  0  0  0  0  0  0  0
    3.2917   -5.2013   -1.0982 H   0  0  0  0  0  0  0  0  0  0  0  0
    3.8559   -3.8485    1.0618 H   0  0  0  0  0  0  0  0  0  0  0  0
    1.9679   -5.9155    0.9278 H   0  0  0  0  0  0  0  0  0  0  0  0
    1.6931   -3.7935    2.4262 H   0  0  0  0  0  0  0  0  0  0  0  0
    3.2015   -1.7001    1.4845 H   0  0  0  0  0  0  0  0  0  0  0  0
    2.2290   -2.9714    4.3224 H   0  0  0  0  0  0  0  0  0  0  0  0
    2.3501   -1.4399    5.1096 H   0  0  0  0  0  0  0  0  0  0  0  0
    3.6274   -1.9385    3.9922 H   0  0  0  0  0  0  0  0  0  0  0  0
    1.3855    0.7436    2.4219 H   0  0  0  0  0  0  0  0  0  0  0  0
    1.6678    0.5590    4.1255 H   0  0  0  0  0  0  0  0  0  0  0  0
    3.0371    0.4877    2.9978 H   0  0  0  0  0  0  0  0  0  0  0  0
   -0.8982    1.9147   -0.0784 H   0  0  0  0  0  0  0  0  0  0  0  0
    0.6227    1.3716    0.3666 H   0  0  0  0  0  0  0  0  0  0  0  0
   -1.9999   -3.0228    1.6723 H   0  0  0  0  0  0  0  0  0  0  0  0
   -0.4610   -4.2383    2.4601 H   0  0  0  0  0  0  0  0  0  0  0  0
   -1.3719   -4.9224   -0.5042 H   0  0  0  0  0  0  0  0  0  0  0  0
    0.0042   -4.3065   -4.8105 H   0  0  0  0  0  0  0  0  0  0  0  0
    2.0972   -2.4225   -6.6872 H   0  0  0  0  0  0  0  0  0  0  0  0
    3.8072   -1.0138   -5.7154 H   0  0  0  0  0  0  0  0  0  0  0  0
    4.4423   -1.2778   -3.4171 H   0  0  0  0  0  0  0  0  0  0  0  0
  2  1  1  0  0  0  0 
  3  2  1  0  0  0  0 
  4  3  1  0  0  0  0 
  4  5  1  0  0  0  0 
  6  4  1  0  0  0  0 
  6  7  1  0  0  0  0 
  7  8  1  0  0  0  0 
  8  9  1  0  0  0  0 
  8 10  1  0  0  0  0 
  7 11  1  0  0  0  0 
 11 12  2  0  0  0  0 
 11 13  1  0  0  0  0 
 13 14  1  0  0  0  0 
 14 15  1  0  0  0  0 
 14 16  2  0  0  0  0 
 13 17  2  0  0  0  0 
 17 18  1  0  0  0  0 
 19 17  1  0  0  0  0 
  6 19  1  0  0  0  0 
 19 20  1  0  0  0  0 
 19 21  1  0  0  0  0 
 21 22  1  0  0  0  0 
 21 23  2  0  0  0  0 
  3 23  1  0  0  0  0 
 23 24  1  0  0  0  0 
 24 25  2  0  0  0  0 
 24 26  1  0  0  0  0 
 26 27  2  0  0  0  0 
 27 28  1  0  0  0  0 
 27 29  1  0  0  0  0 
 29 30  2  0  0  0  0 
 30 31  1  0  0  0  0 
 31 32  2  0  0  0  0 
  2 32  1  0  0  0  0 
 26 32  1  0  0  0  0 
 33  1  1  0  0  0  0 
 34  1  1  0  0  0  0 
 35  1  1  0  0  0  0 
  2 36  1  0  0  0  0 
  3 37  1  0  0  0  0 
  4 38  1  0  0  0  0 
 39  5  1  0  0  0  0 
  6 40  1  0  0  0  0 
  7 41  1  0  0  0  0 
 42  9  1  0  0  0  0 
 43  9  1  0  0  0  0 
 44  9  1  0  0  0  0 
 45 10  1  0  0  0  0 
 46 10  1  0  0  0  0 
 47 10  1  0  0  0  0 
 48 15  1  0  0  0  0 
 49 15  1  0  0  0  0 
 50 18  1  0  0  0  0 
 51 20  1  0  0  0  0 
 52 22  1  0  0  0  0 
 53 28  1  0  0  0  0 
 54 29  1  0  0  0  0 
 55 30  1  0  0  0  0 
 56 31  1  0  0  0  0 
M  END
> <cdk:Title>
doxycycline

> <Conformer>
1

> <SuperDrugID>
SD000853

$$$$
