linoleic acid
  CDK     0628171801

 52 51  0  0  0  0  0  0  0  0999 V2000
    1.4832    0.0771    2.9632 C   0  0  1  0  0  0  0  0  0  0  0  0
    2.8626   -0.6335    2.9035 C   0  0  2  0  0  0  0  0  0  0  0  0
    0.3094   -0.9242    2.7956 C   0  0  2  0  0  0  0  0  0  0  0  0
    4.0003    0.2663    3.0375 C   0  0  0  0  0  0  0  0  0  0  0  0
   -1.0751   -0.2292    2.8222 C   0  0  1  0  0  0  0  0  0  0  0  0
    5.2910   -0.1166    3.0341 C   0  0  0  0  0  0  0  0  0  0  0  0
   -2.2509   -1.2276    2.6504 C   0  0  2  0  0  0  0  0  0  0  0  0
    5.7761   -1.4859    2.9207 C   0  0  2  0  0  0  0  0  0  0  0  0
   -3.6274   -0.5123    2.6752 C   0  0  2  0  0  0  0  0  0  0  0  0
    5.6366   -2.2399    4.1635 C   0  0  0  0  0  0  0  0  0  0  0  0
   -4.8215   -1.4861    2.4925 C   0  0  2  0  0  0  0  0  0  0  0  0
    5.1517   -3.4894    4.3037 C   0  0  0  0  0  0  0  0  0  0  0  0
   -6.1157   -0.7790    2.5417 C   0  0  0  0  0  0  0  0  0  0  0  0
    4.6750   -4.3399    3.2201 C   0  0  1  0  0  0  0  0  0  0  0  0
   -6.9987   -1.0255    3.5370 O   0  0  0  0  0  0  0  0  0  0  0  0
   -6.4158    0.0661    1.6675 O   0  0  0  0  0  0  0  0  0  0  0  0
    4.3242   -5.8031    3.6280 C   0  0  2  0  0  0  0  0  0  0  0  0
    3.8614   -6.6472    2.4049 C   0  0  1  0  0  0  0  0  0  0  0  0
    3.4863   -8.1160    2.7412 C   0  0  2  0  0  0  0  0  0  0  0  0
    3.0340   -8.9110    1.4924 C   0  0  0  0  0  0  0  0  0  0  0  0
    1.3845    0.5896    3.9244 H   0  0  0  0  0  0  0  0  0  0  0  0
    1.4313    0.8307    2.1716 H   0  0  0  0  0  0  0  0  0  0  0  0
    2.9415   -1.1532    1.9445 H   0  0  0  0  0  0  0  0  0  0  0  0
    2.9029   -1.3752    3.7051 H   0  0  0  0  0  0  0  0  0  0  0  0
    0.3517   -1.6634    3.6003 H   0  0  0  0  0  0  0  0  0  0  0  0
    0.4236   -1.4484    1.8432 H   0  0  0  0  0  0  0  0  0  0  0  0
    3.8208    1.2410    3.1283 H   0  0  0  0  0  0  0  0  0  0  0  0
   -1.1905    0.2959    3.7739 H   0  0  0  0  0  0  0  0  0  0  0  0
   -1.1166    0.5093    2.0171 H   0  0  0  0  0  0  0  0  0  0  0  0
    5.9794    0.5984    3.1188 H   0  0  0  0  0  0  0  0  0  0  0  0
   -2.2165   -1.9660    3.4564 H   0  0  0  0  0  0  0  0  0  0  0  0
   -2.1408   -1.7552    1.6988 H   0  0  0  0  0  0  0  0  0  0  0  0
    6.8404   -1.4600    2.6779 H   0  0  0  0  0  0  0  0  0  0  0  0
    5.2839   -1.9673    2.0755 H   0  0  0  0  0  0  0  0  0  0  0  0
   -3.6495    0.2344    1.8754 H   0  0  0  0  0  0  0  0  0  0  0  0
   -3.7376    0.0083    3.6316 H   0  0  0  0  0  0  0  0  0  0  0  0
    5.9460   -1.7830    4.9938 H   0  0  0  0  0  0  0  0  0  0  0  0
   -4.7936   -2.2414    3.2829 H   0  0  0  0  0  0  0  0  0  0  0  0
   -4.7400   -2.0002    1.5310 H   0  0  0  0  0  0  0  0  0  0  0  0
    5.1156   -3.8587    5.2267 H   0  0  0  0  0  0  0  0  0  0  0  0
    3.7828   -3.8752    2.7917 H   0  0  0  0  0  0  0  0  0  0  0  0
    5.4518   -4.3841    2.4505 H   0  0  0  0  0  0  0  0  0  0  0  0
   -7.8510   -0.5432    3.5672 H   0  0  0  0  0  0  0  0  0  0  0  0
    3.5319   -5.7908    4.3830 H   0  0  0  0  0  0  0  0  0  0  0  0
    5.2071   -6.2714    4.0729 H   0  0  0  0  0  0  0  0  0  0  0  0
    2.9911   -6.1602    1.9573 H   0  0  0  0  0  0  0  0  0  0  0  0
    4.6640   -6.6566    1.6619 H   0  0  0  0  0  0  0  0  0  0  0  0
    2.6750   -8.1270    3.4729 H   0  0  0  0  0  0  0  0  0  0  0  0
    4.3493   -8.6211    3.1816 H   0  0  0  0  0  0  0  0  0  0  0  0
    2.7804   -9.9348    1.7724 H   0  0  0  0  0  0  0  0  0  0  0  0
    2.1540   -8.4490    1.0414 H   0  0  0  0  0  0  0  0  0  0  0  0
    3.8335   -8.9443    0.7503 H   0  0  0  0  0  0  0  0  0  0  0  0
  1  2  1  0  0  0  0 
  1  3  1  0  0  0  0 
  2  4  1  0  0  0  0 
  3  5  1  0  0  0  0 
  4  6  2  0  0  0  0 
  5  7  1  0  0  0  0 
  6  8  1  0  0  0  0 
  7  9  1  0  0  0  0 
  8 10  1  0  0  0  0 
  9 11  1  0  0  0  0 
 10 12  2  0  0  0  0 
 11 13  1  0  0  0  0 
 12 14  1  0  0  0  0 
 13 15  1  0  0  0  0 
 13 16  2  0  0  0  0 
 14 17  1  0  0  0  0 
 17 18  1  0  0  0  0 
 18 19  1  0  0  0  0 
 19 20  1  0  0  0  0 
  1 21  1  0  0  0  0 
  1 22  1  0  0  0  0 
  2 23  1  0  0  0  0 
  2 24  1  0  0  0  0 
  3 25  1  0  0  0  0 
  3 26  1  0  0  0  0 
  4 27  1  0  0  0  0 
  5 28  1  0  0  0  0 
  5 29  1  0  0  0  0 
  6 30  1  0  0  0  0 
  7 31  1  0  0  0  0 
  7 32  1  0  0  0  0 
  8 33  1  0  0  0  0 
  8 34  1  0  0  0  0 
  9 35  1  0  0  0  0 
  9 36  1  0  0  0  0 
 10 37  1  0  0  0  0 
 11 38  1  0  0  0  0 
 11 39  1  0  0  0  0 
 12 40  1  0  0  0  0 
 14 41  1  0  0  0  0 
 14 42  1  0  0  0  0 
 15 43  1  0  0  0  0 
 17 44  1  0  0  0  0 
 17 45  1  0  0  0  0 
 18 46  1  0  0  0  0 
 18 47  1  0  0  0  0 
 19 48  1  0  0  0  0 
 19 49  1  0  0  0  0 
 20 50  1  0  0  0  0 
 20 51  1  0  0  0  0 
 20 52  1  0  0  0  0 
M  END
> <cdk:Title>
linoleic acid

> <Conformer>
1

> <SuperDrugID>
SD002869

$$$$
