nifurprazine
  CDK     0628171801

 25 26  0  0  0  0  0  0  0  0999 V2000
   -3.8292    3.5073   -1.7471 C   0  0  0  0  0  0  0  0  0  0  0  0
   -2.6714    2.9898   -2.2027 C   0  0  0  0  0  0  0  0  0  0  0  0
   -4.6394    4.3528   -2.4836 C   0  0  0  0  0  0  0  0  0  0  0  0
   -1.8258    2.1640   -1.4645 C   0  0  0  0  0  0  0  0  0  0  0  0
   -4.3886    4.7906   -3.7430 O   0  0  0  0  0  0  0  0  0  0  0  0
   -5.8460    4.9117   -2.0618 C   0  0  0  0  0  0  0  0  0  0  0  0
   -0.6095    1.6694   -1.9958 C   0  0  0  0  0  0  0  0  0  0  0  0
   -2.1272    1.8050   -0.1844 N   0  0  0  0  0  0  0  0  0  0  0  0
   -5.4015    5.6013   -4.1443 C   0  0  0  0  0  0  0  0  0  0  0  0
   -6.3248    5.6897   -3.1034 C   0  0  0  0  0  0  0  0  0  0  0  0
    0.2310    0.8758   -1.1935 C   0  0  0  0  0  0  0  0  0  0  0  0
   -1.3543    1.0610    0.5641 N   0  0  0  0  0  0  0  0  0  0  0  0
   -5.4687    6.1928   -5.3268 N   0  0  0  0  0  0  0  0  0  0  0  0
   -0.1660    0.5812    0.1235 C   0  0  0  0  0  0  0  0  0  0  0  0
   -6.4437    6.9377   -5.6507 O   0  0  0  0  0  0  0  0  0  0  0  0
   -4.6221    6.0380   -6.1146 O   0  0  0  0  0  0  0  0  0  0  0  0
    0.5967   -0.1484    0.9557 N   0  0  0  0  0  0  0  0  0  0  0  0
   -4.1343    3.2843   -0.8279 H   0  0  0  0  0  0  0  0  0  0  0  0
   -2.3837    3.2212   -3.1271 H   0  0  0  0  0  0  0  0  0  0  0  0
   -6.3050    4.7747   -1.1579 H   0  0  0  0  0  0  0  0  0  0  0  0
   -0.3254    1.8800   -2.9572 H   0  0  0  0  0  0  0  0  0  0  0  0
   -7.1943    6.2258   -3.1038 H   0  0  0  0  0  0  0  0  0  0  0  0
    1.1168    0.5248   -1.5656 H   0  0  0  0  0  0  0  0  0  0  0  0
    1.4567   -0.4857    0.6634 H   0  0  0  0  0  0  0  0  0  0  0  0
    0.2918   -0.3280    1.8595 H   0  0  0  0  0  0  0  0  0  0  0  0
  1  2  2  0  0  0  0 
  1  3  1  0  0  0  0 
  2  4  1  0  0  0  0 
  3  5  1  0  0  0  0 
  3  6  2  0  0  0  0 
  4  7  2  0  0  0  0 
  4  8  1  0  0  0  0 
  5  9  1  0  0  0  0 
  6 10  1  0  0  0  0 
  7 11  1  0  0  0  0 
  8 12  2  0  0  0  0 
  9 10  2  0  0  0  0 
  9 13  1  0  0  0  0 
 11 14  2  0  0  0  0 
 12 14  1  0  0  0  0 
 13 15  1  0  0  0  0 
 13 16  2  0  0  0  0 
 14 17  1  0  0  0  0 
  1 18  1  0  0  0  0 
  2 19  1  0  0  0  0 
  6 20  1  0  0  0  0 
  7 21  1  0  0  0  0 
 10 22  1  0  0  0  0 
 11 23  1  0  0  0  0 
 17 24  1  0  0  0  0 
 17 25  1  0  0  0  0 
M  CHG  1  13   1
M  CHG  1  15  -1
M  END
> <cdk:Title>
nifurprazine

> <Conformer>
1

> <SuperDrugID>
SD003238

$$$$
