lobeglitazone
  CDK     0628171802

 58 61  0  0  0  0  0  0  0  0999 V2000
   -2.1538    2.1390   -7.1307 C   0  0  0  0  0  0  0  0  0  0  0  0
   -0.8358    1.7828   -7.4846 C   0  0  0  0  0  0  0  0  0  0  0  0
   -0.4860    0.4208   -7.5832 C   0  0  0  0  0  0  0  0  0  0  0  0
   -1.4346   -0.5757   -7.2923 C   0  0  0  0  0  0  0  0  0  0  0  0
   -2.7385   -0.2222   -6.8847 C   0  0  0  0  0  0  0  0  0  0  0  0
   -3.1023    1.1413   -6.8365 C   0  0  0  0  0  0  0  0  0  0  0  0
    0.0971    2.7490   -7.7463 O   0  0  0  0  0  0  0  0  0  0  0  0
    0.8114    3.1532   -6.5637 C   0  0  0  0  0  0  0  0  0  0  0  0
   -3.6392   -1.2038   -6.5663 O   0  0  0  0  0  0  0  0  0  0  0  0
   -3.6675   -1.4413   -5.2175 C   0  0  0  0  0  0  0  0  0  0  0  0
   -2.7130   -2.2703   -4.5904 C   0  0  0  0  0  0  0  0  0  0  0  0
   -2.7648   -2.4574   -3.1870 C   0  0  0  0  0  0  0  0  0  0  0  0
   -3.7859   -1.8408   -2.5201 N   0  0  0  0  0  0  0  0  0  0  0  0
   -4.7210   -1.0717   -3.1352 C   0  0  0  0  0  0  0  0  0  0  0  0
   -4.6502   -0.8744   -4.4731 N   0  0  0  0  0  0  0  0  0  0  0  0
   -1.8177   -3.1996   -2.4827 N   0  0  0  0  0  0  0  0  0  0  0  0
   -1.4433   -2.8006   -1.1361 C   0  0  2  0  0  0  0  0  0  0  0  0
   -1.1143   -4.2991   -3.1100 C   0  0  0  0  0  0  0  0  0  0  0  0
   -0.5943   -1.5087   -1.1563 C   0  0  2  0  0  0  0  0  0  0  0  0
   -0.2878   -1.0912    0.1918 O   0  0  0  0  0  0  0  0  0  0  0  0
    0.3329    0.1295    0.2110 C   0  0  0  0  0  0  0  0  0  0  0  0
    1.7376    0.2180    0.1650 C   0  0  0  0  0  0  0  0  0  0  0  0
    2.3654    1.4752    0.1026 C   0  0  0  0  0  0  0  0  0  0  0  0
    1.5999    2.6656    0.1046 C   0  0  0  0  0  0  0  0  0  0  0  0
    0.1913    2.5677    0.1949 C   0  0  0  0  0  0  0  0  0  0  0  0
   -0.4353    1.3100    0.2566 C   0  0  0  0  0  0  0  0  0  0  0  0
    2.2639    3.9870   -0.0256 C   0  0  2  0  0  0  0  0  0  0  0  0
    2.4883    4.2785   -1.4536 C   0  0  0  0  0  0  0  0  0  0  0  0
    1.6366    4.9414   -2.3517 C   0  0  0  0  0  0  0  0  0  0  0  0
    2.0713    5.0355   -3.6377 N   0  0  0  0  0  0  0  0  0  0  0  0
    3.2648    4.4732   -3.9166 C   0  0  0  0  0  0  0  0  0  0  0  0
    3.8677    3.7862   -2.4199 S   0  0  0  0  0  0  0  0  0  0  0  0
    0.4390    5.4466   -1.9823 O   0  0  0  0  0  0  0  0  0  0  0  0
    3.8317    4.4410   -5.0303 O   0  0  0  0  0  0  0  0  0  0  0  0
   -2.4192    3.1252   -7.0807 H   0  0  0  0  0  0  0  0  0  0  0  0
    0.4618    0.1547   -7.8603 H   0  0  0  0  0  0  0  0  0  0  0  0
   -1.1709   -1.5598   -7.3684 H   0  0  0  0  0  0  0  0  0  0  0  0
   -4.0539    1.4091   -6.5785 H   0  0  0  0  0  0  0  0  0  0  0  0
    1.5579    3.8917   -6.8528 H   0  0  0  0  0  0  0  0  0  0  0  0
    0.1420    3.6146   -5.8335 H   0  0  0  0  0  0  0  0  0  0  0  0
    1.3310    2.3117   -6.0978 H   0  0  0  0  0  0  0  0  0  0  0  0
   -1.9842   -2.7065   -5.1537 H   0  0  0  0  0  0  0  0  0  0  0  0
   -5.4736   -0.6404   -2.5979 H   0  0  0  0  0  0  0  0  0  0  0  0
   -0.8638   -3.5729   -0.6235 H   0  0  0  0  0  0  0  0  0  0  0  0
   -2.3341   -2.6414   -0.5230 H   0  0  0  0  0  0  0  0  0  0  0  0
   -0.6063   -4.9480   -2.3938 H   0  0  0  0  0  0  0  0  0  0  0  0
   -1.8084   -4.9287   -3.6703 H   0  0  0  0  0  0  0  0  0  0  0  0
   -0.3555   -3.9119   -3.7927 H   0  0  0  0  0  0  0  0  0  0  0  0
   -1.1626   -0.7325   -1.6844 H   0  0  0  0  0  0  0  0  0  0  0  0
    0.3290   -1.7073   -1.7121 H   0  0  0  0  0  0  0  0  0  0  0  0
    2.3044   -0.6322    0.1608 H   0  0  0  0  0  0  0  0  0  0  0  0
    3.3855    1.5191    0.0428 H   0  0  0  0  0  0  0  0  0  0  0  0
   -0.3867    3.4118    0.2007 H   0  0  0  0  0  0  0  0  0  0  0  0
   -1.4541    1.2542    0.3172 H   0  0  0  0  0  0  0  0  0  0  0  0
    3.2216    3.9900    0.5010 H   0  0  0  0  0  0  0  0  0  0  0  0
    1.6567    4.7794    0.4218 H   0  0  0  0  0  0  0  0  0  0  0  0
    1.5458    5.4786   -4.3227 H   0  0  0  0  0  0  0  0  0  0  0  0
   -0.2089    4.7575   -2.2417 H   0  0  0  0  0  0  0  0  0  0  0  0
  1  2  2  0  0  0  0 
  1  6  1  0  0  0  0 
  2  3  1  0  0  0  0 
  3  4  2  0  0  0  0 
  4  5  1  0  0  0  0 
  5  6  2  0  0  0  0 
  2  7  1  0  0  0  0 
  7  8  1  0  0  0  0 
  5  9  1  0  0  0  0 
  9 10  1  0  0  0  0 
 11 12  1  0  0  0  0 
 12 13  2  0  0  0  0 
 13 14  1  0  0  0  0 
 14 15  2  0  0  0  0 
 10 11  2  0  0  0  0 
 10 15  1  0  0  0  0 
 12 16  1  0  0  0  0 
 16 17  1  0  0  0  0 
 16 18  1  0  0  0  0 
 17 19  1  0  0  0  0 
 19 20  1  0  0  0  0 
 20 21  1  0  0  0  0 
 22 23  1  0  0  0  0 
 23 24  2  0  0  0  0 
 24 25  1  0  0  0  0 
 25 26  2  0  0  0  0 
 21 22  2  0  0  0  0 
 21 26  1  0  0  0  0 
 24 27  1  0  0  0  0 
 28 27  1  0  0  0  0 
 29 30  1  0  0  0  0 
 30 31  1  0  0  0  0 
 31 32  1  0  0  0  0 
 28 29  2  0  0  0  0 
 28 32  1  0  0  0  0 
 29 33  1  0  0  0  0 
 31 34  2  0  0  0  0 
 35  1  1  0  0  0  0 
 36  3  1  0  0  0  0 
 37  4  1  0  0  0  0 
 38  6  1  0  0  0  0 
 39  8  1  0  0  0  0 
 40  8  1  0  0  0  0 
 41  8  1  0  0  0  0 
 42 11  1  0  0  0  0 
 43 14  1  0  0  0  0 
 44 17  1  0  0  0  0 
 45 17  1  0  0  0  0 
 46 18  1  0  0  0  0 
 47 18  1  0  0  0  0 
 48 18  1  0  0  0  0 
 49 19  1  0  0  0  0 
 50 19  1  0  0  0  0 
 51 22  1  0  0  0  0 
 52 23  1  0  0  0  0 
 53 25  1  0  0  0  0 
 54 26  1  0  0  0  0 
 55 27  1  0  0  0  0 
 56 27  1  0  0  0  0 
 57 30  1  0  0  0  0 
 58 33  1  0  0  0  0 
M  END
> <cdk:Title>
lobeglitazone

> <Conformer>
1

> <SuperDrugID>
SD003901

$$$$
