flutropium
  CDK     0628171801

 58 61  0  0  0  0  0  0  0  0999 V2000
    0.0452    5.7454   -5.7379 C   0  0  1  0  0  0  0  0  0  0  0  0
    0.6167    4.6434   -4.9091 C   0  0  0  0  0  0  0  0  0  0  0  0
   -0.2294    6.7062   -4.7048 O   0  0  0  0  0  0  0  0  0  0  0  0
    0.9480    6.3309   -6.7999 C   0  0  0  0  0  0  0  0  0  0  0  0
   -1.2350    5.2816   -6.3984 C   0  0  0  0  0  0  0  0  0  0  0  0
   -0.2190    4.1438   -3.9467 O   0  0  0  0  0  0  0  0  0  0  0  0
    1.7503    4.1509   -5.1142 O   0  0  0  0  0  0  0  0  0  0  0  0
    1.5378    5.5025   -7.7917 C   0  0  0  0  0  0  0  0  0  0  0  0
    1.1978    7.7277   -6.8952 C   0  0  0  0  0  0  0  0  0  0  0  0
   -2.3587    6.1403   -6.5070 C   0  0  0  0  0  0  0  0  0  0  0  0
   -1.3618    3.9764   -6.9524 C   0  0  0  0  0  0  0  0  0  0  0  0
   -0.2467    2.8921   -3.2460 C   0  0  1  0  0  0  0  0  0  0  0  0
    2.3135    6.0384   -8.8357 C   0  0  0  0  0  0  0  0  0  0  0  0
    1.9845    8.2667   -7.9310 C   0  0  0  0  0  0  0  0  0  0  0  0
   -3.5519    5.7121   -7.1173 C   0  0  0  0  0  0  0  0  0  0  0  0
   -2.5550    3.5416   -7.5538 C   0  0  0  0  0  0  0  0  0  0  0  0
    1.0378    2.6038   -2.3932 C   0  0  1  0  0  0  0  0  0  0  0  0
   -1.5868    2.8965   -2.4247 C   0  0  2  0  0  0  0  0  0  0  0  0
    2.5392    7.4219   -8.9057 C   0  0  0  0  0  0  0  0  0  0  0  0
   -3.6548    4.4095   -7.6321 C   0  0  0  0  0  0  0  0  0  0  0  0
    0.8907    2.9933   -0.8798 C   0  0  2  0  0  0  0  0  0  0  0  0
   -1.3753    3.2640   -0.9112 C   0  0  1  0  0  0  0  0  0  0  0  0
   -0.3368    2.3901   -0.2255 N   0  0  1  0  0  0  0  0  0  0  0  0
    0.7040    4.5374   -0.7578 C   0  0  1  0  0  0  0  0  0  0  0  0
   -0.8293    4.7274   -0.8189 C   0  0  2  0  0  0  0  0  0  0  0  0
   -0.5402    0.8853   -0.4459 C   0  0  1  0  0  0  0  0  0  0  0  0
   -0.3417    2.6066    1.2859 C   0  0  0  0  0  0  0  0  0  0  0  0
    0.5117   -0.0865    0.1589 C   0  0  1  0  0  0  0  0  0  0  0  0
    0.2786   -1.3744   -0.2650 F   0  0  0  0  0  0  0  0  0  0  0  0
   -0.6562    7.4721   -5.1370 H   0  0  0  0  0  0  0  0  0  0  0  0
    1.4006    4.4912   -7.7697 H   0  0  0  0  0  0  0  0  0  0  0  0
    0.7961    8.3830   -6.2216 H   0  0  0  0  0  0  0  0  0  0  0  0
   -2.3240    7.0927   -6.1426 H   0  0  0  0  0  0  0  0  0  0  0  0
   -0.5834    3.3157   -6.9168 H   0  0  0  0  0  0  0  0  0  0  0  0
   -0.3241    2.1229   -4.0211 H   0  0  0  0  0  0  0  0  0  0  0  0
    2.7098    5.4206   -9.5489 H   0  0  0  0  0  0  0  0  0  0  0  0
    2.1473    9.2762   -7.9815 H   0  0  0  0  0  0  0  0  0  0  0  0
   -4.3464    6.3505   -7.1877 H   0  0  0  0  0  0  0  0  0  0  0  0
   -2.6234    2.5944   -7.9340 H   0  0  0  0  0  0  0  0  0  0  0  0
    1.2820    1.5408   -2.4628 H   0  0  0  0  0  0  0  0  0  0  0  0
    1.8998    3.1223   -2.8129 H   0  0  0  0  0  0  0  0  0  0  0  0
   -2.0761    1.9242   -2.5045 H   0  0  0  0  0  0  0  0  0  0  0  0
   -2.3028    3.5989   -2.8674 H   0  0  0  0  0  0  0  0  0  0  0  0
    3.1036    7.8121   -9.6641 H   0  0  0  0  0  0  0  0  0  0  0  0
   -4.5252    4.0929   -8.0637 H   0  0  0  0  0  0  0  0  0  0  0  0
    1.8091    2.6912   -0.3635 H   0  0  0  0  0  0  0  0  0  0  0  0
   -2.3458    3.1961   -0.4049 H   0  0  0  0  0  0  0  0  0  0  0  0
    1.0969    4.8922    0.1990 H   0  0  0  0  0  0  0  0  0  0  0  0
    1.2154    5.0926   -1.5500 H   0  0  0  0  0  0  0  0  0  0  0  0
   -1.1957    5.2229    0.0844 H   0  0  0  0  0  0  0  0  0  0  0  0
   -1.1162    5.3528   -1.6704 H   0  0  0  0  0  0  0  0  0  0  0  0
   -1.5233    0.5948   -0.0602 H   0  0  0  0  0  0  0  0  0  0  0  0
   -0.5698    0.6310   -1.5036 H   0  0  0  0  0  0  0  0  0  0  0  0
    0.5676    2.2117    1.7425 H   0  0  0  0  0  0  0  0  0  0  0  0
   -0.3942    3.6504    1.5902 H   0  0  0  0  0  0  0  0  0  0  0  0
   -1.1954    2.1173    1.7605 H   0  0  0  0  0  0  0  0  0  0  0  0
    1.5176    0.1963   -0.1528 H   0  0  0  0  0  0  0  0  0  0  0  0
    0.4608   -0.0847    1.2480 H   0  0  0  0  0  0  0  0  0  0  0  0
  1  2  1  0  0  0  0 
  1  3  1  0  0  0  0 
  1  4  1  0  0  0  0 
  1  5  1  0  0  0  0 
  2  6  1  0  0  0  0 
  2  7  2  0  0  0  0 
  4  8  2  0  0  0  0 
  4  9  1  0  0  0  0 
  5 10  2  0  0  0  0 
  5 11  1  0  0  0  0 
  8 13  1  0  0  0  0 
  9 14  2  0  0  0  0 
 10 15  1  0  0  0  0 
 11 16  2  0  0  0  0 
 12  6  1  0  0  0  0 
 12 17  1  0  0  0  0 
 12 18  1  0  0  0  0 
 13 19  2  0  0  0  0 
 14 19  1  0  0  0  0 
 15 20  2  0  0  0  0 
 16 20  1  0  0  0  0 
 21 17  1  0  0  0  0 
 22 18  1  0  0  0  0 
 21 23  1  0  0  0  0 
 21 24  1  0  0  0  0 
 22 23  1  0  0  0  0 
 22 25  1  0  0  0  0 
 23 26  1  0  0  0  0 
 23 27  1  0  0  0  0 
 24 25  1  0  0  0  0 
 26 28  1  0  0  0  0 
 28 29  1  0  0  0  0 
  3 30  1  0  0  0  0 
  8 31  1  0  0  0  0 
  9 32  1  0  0  0  0 
 10 33  1  0  0  0  0 
 11 34  1  0  0  0  0 
 12 35  1  0  0  0  0 
 13 36  1  0  0  0  0 
 14 37  1  0  0  0  0 
 15 38  1  0  0  0  0 
 16 39  1  0  0  0  0 
 17 40  1  0  0  0  0 
 17 41  1  0  0  0  0 
 18 42  1  0  0  0  0 
 18 43  1  0  0  0  0 
 19 44  1  0  0  0  0 
 20 45  1  0  0  0  0 
 21 46  1  0  0  0  0 
 22 47  1  0  0  0  0 
 24 48  1  0  0  0  0 
 24 49  1  0  0  0  0 
 25 50  1  0  0  0  0 
 25 51  1  0  0  0  0 
 26 52  1  0  0  0  0 
 26 53  1  0  0  0  0 
 27 54  1  0  0  0  0 
 27 55  1  0  0  0  0 
 27 56  1  0  0  0  0 
 28 57  1  0  0  0  0 
 28 58  1  0  0  0  0 
M  CHG  1  23   1
M  END
> <cdk:Title>
flutropium

> <Conformer>
1

> <SuperDrugID>
SD001101

$$$$
