chromocarb
  CDK     0628171802

 20 21  0  0  0  0  0  0  0  0999 V2000
    0.1274   -4.6998   -0.9643 O   0  0  0  0  0  0  0  0  0  0  0  0
    0.9319   -3.7499   -0.8131 C   0  0  0  0  0  0  0  0  0  0  0  0
    2.3266   -3.9430   -0.9471 C   0  0  0  0  0  0  0  0  0  0  0  0
    0.4098   -2.4769   -0.5108 C   0  0  0  0  0  0  0  0  0  0  0  0
    3.1716   -2.8161   -0.7703 C   0  0  0  0  0  0  0  0  0  0  0  0
    2.9139   -5.1957   -1.2471 C   0  0  0  0  0  0  0  0  0  0  0  0
    1.2845   -1.3852   -0.3308 C   0  0  0  0  0  0  0  0  0  0  0  0
    2.6266   -1.6015   -0.4716 O   0  0  0  0  0  0  0  0  0  0  0  0
    4.5662   -2.9387   -0.9020 C   0  0  0  0  0  0  0  0  0  0  0  0
    4.3113   -5.3171   -1.3701 C   0  0  0  0  0  0  0  0  0  0  0  0
    0.8406   -0.0856   -0.0161 C   0  0  0  0  0  0  0  0  0  0  0  0
    5.1360   -4.1898   -1.1990 C   0  0  0  0  0  0  0  0  0  0  0  0
   -0.4717    0.2052    0.1585 O   0  0  0  0  0  0  0  0  0  0  0  0
    1.6665    0.8461    0.1149 O   0  0  0  0  0  0  0  0  0  0  0  0
   -0.6023   -2.3527   -0.4255 H   0  0  0  0  0  0  0  0  0  0  0  0
    2.3328   -6.0267   -1.3834 H   0  0  0  0  0  0  0  0  0  0  0  0
    5.1658   -2.1190   -0.7783 H   0  0  0  0  0  0  0  0  0  0  0  0
    4.7272   -6.2268   -1.5874 H   0  0  0  0  0  0  0  0  0  0  0  0
    6.1497   -4.2787   -1.2932 H   0  0  0  0  0  0  0  0  0  0  0  0
   -0.7482    1.1195    0.3820 H   0  0  0  0  0  0  0  0  0  0  0  0
  1  2  2  0  0  0  0 
  2  3  1  0  0  0  0 
  2  4  1  0  0  0  0 
  3  5  1  0  0  0  0 
  3  6  2  0  0  0  0 
  4  7  2  0  0  0  0 
  5  8  1  0  0  0  0 
  5  9  2  0  0  0  0 
  6 10  1  0  0  0  0 
  7  8  1  0  0  0  0 
  7 11  1  0  0  0  0 
  9 12  1  0  0  0  0 
 10 12  2  0  0  0  0 
 11 13  1  0  0  0  0 
 11 14  2  0  0  0  0 
  4 15  1  0  0  0  0 
  6 16  1  0  0  0  0 
  9 17  1  0  0  0  0 
 10 18  1  0  0  0  0 
 12 19  1  0  0  0  0 
 13 20  1  0  0  0  0 
M  END
> <cdk:Title>
chromocarb

> <Conformer>
1

> <SuperDrugID>
SD000549

$$$$
