metirosine
  CDK     0628171801

 27 27  0  0  0  0  0  0  0  0999 V2000
    0.4968    0.6957    0.3217 C   0  0  1  0  0  0  0  0  0  0  0  0
   -0.2486    1.9035    0.9945 C   0  0  2  0  0  0  0  0  0  0  0  0
   -0.1172    0.1699   -0.9364 C   0  0  0  0  0  0  0  0  0  0  0  0
   -0.2210    3.1453    0.1679 C   0  0  0  0  0  0  0  0  0  0  0  0
    0.3851    2.2201    2.3815 C   0  0  0  0  0  0  0  0  0  0  0  0
   -1.6582    1.5529    1.2626 N   0  0  1  0  0  0  0  0  0  0  0  0
   -1.2836   -0.6332   -0.8853 C   0  0  0  0  0  0  0  0  0  0  0  0
    0.4624    0.4257   -2.2030 C   0  0  0  0  0  0  0  0  0  0  0  0
    0.7192    3.3580   -0.7858 O   0  0  0  0  0  0  0  0  0  0  0  0
   -1.0416    4.0697    0.3668 O   0  0  0  0  0  0  0  0  0  0  0  0
   -1.8583   -1.1530   -2.0588 C   0  0  0  0  0  0  0  0  0  0  0  0
   -0.1057   -0.1005   -3.3787 C   0  0  0  0  0  0  0  0  0  0  0  0
   -1.2623   -0.9016   -3.3068 C   0  0  0  0  0  0  0  0  0  0  0  0
   -1.7993   -1.4470   -4.4251 O   0  0  0  0  0  0  0  0  0  0  0  0
    1.5337    0.9887    0.1288 H   0  0  0  0  0  0  0  0  0  0  0  0
    0.5561   -0.1365    1.0290 H   0  0  0  0  0  0  0  0  0  0  0  0
    0.3451    1.3408    3.0298 H   0  0  0  0  0  0  0  0  0  0  0  0
    1.4310    2.5195    2.2733 H   0  0  0  0  0  0  0  0  0  0  0  0
   -0.1560    3.0292    2.8806 H   0  0  0  0  0  0  0  0  0  0  0  0
   -2.1215    1.4007    0.3639 H   0  0  0  0  0  0  0  0  0  0  0  0
   -1.6620    0.6610    1.7608 H   0  0  0  0  0  0  0  0  0  0  0  0
   -1.7218   -0.8548    0.0119 H   0  0  0  0  0  0  0  0  0  0  0  0
    1.3077    0.9970   -2.2821 H   0  0  0  0  0  0  0  0  0  0  0  0
    0.7307    4.1996   -1.2885 H   0  0  0  0  0  0  0  0  0  0  0  0
   -2.7054   -1.7241   -2.0009 H   0  0  0  0  0  0  0  0  0  0  0  0
    0.3249    0.0974   -4.2850 H   0  0  0  0  0  0  0  0  0  0  0  0
   -1.0392   -1.5956   -5.0261 H   0  0  0  0  0  0  0  0  0  0  0  0
  2  1  1  0  0  0  0 
  1  3  1  0  0  0  0 
  2  4  1  0  0  0  0 
  2  5  1  0  0  0  0 
  2  6  1  0  0  0  0 
  3  7  2  0  0  0  0 
  3  8  1  0  0  0  0 
  4  9  1  0  0  0  0 
  4 10  2  0  0  0  0 
  7 11  1  0  0  0  0 
  8 12  2  0  0  0  0 
 11 13  2  0  0  0  0 
 12 13  1  0  0  0  0 
 13 14  1  0  0  0  0 
  1 15  1  0  0  0  0 
  1 16  1  0  0  0  0 
  5 17  1  0  0  0  0 
  5 18  1  0  0  0  0 
  5 19  1  0  0  0  0 
  6 20  1  0  0  0  0 
  6 21  1  0  0  0  0 
  7 22  1  0  0  0  0 
  8 23  1  0  0  0  0 
  9 24  1  0  0  0  0 
 11 25  1  0  0  0  0 
 12 26  1  0  0  0  0 
 14 27  1  0  0  0  0 
M  END
> <cdk:Title>
metirosine

> <Conformer>
1

> <SuperDrugID>
SD001592

$$$$
