tulobuterol
  CDK     0628171801

 33 33  0  0  0  0  0  0  0  0999 V2000
    0.0461    0.8753    0.3782 C   0  0  1  0  0  0  0  0  0  0  0  0
   -0.0241   -0.6479    0.6580 C   0  0  2  0  0  0  0  0  0  0  0  0
    0.2332    1.5716    1.6135 O   0  0  0  0  0  0  0  0  0  0  0  0
    1.1215    1.2248   -0.6071 C   0  0  0  0  0  0  0  0  0  0  0  0
   -0.3092   -1.4017   -0.5895 N   0  0  1  0  0  0  0  0  0  0  0  0
    0.8658    1.4087   -1.9972 C   0  0  0  0  0  0  0  0  0  0  0  0
    2.4590    1.3536   -0.1533 C   0  0  0  0  0  0  0  0  0  0  0  0
   -0.3962   -2.8927   -0.5687 C   0  0  2  0  0  0  0  0  0  0  0  0
   -0.6801    1.2609   -2.6843 Cl  0  0  0  0  0  0  0  0  0  0  0  0
    1.9243    1.7137   -2.8798 C   0  0  0  0  0  0  0  0  0  0  0  0
    3.5032    1.6717   -1.0383 C   0  0  0  0  0  0  0  0  0  0  0  0
   -1.5576   -3.3931    0.3443 C   0  0  0  0  0  0  0  0  0  0  0  0
    0.9508   -3.5444   -0.1318 C   0  0  0  0  0  0  0  0  0  0  0  0
   -0.6992   -3.2843   -2.0483 C   0  0  0  0  0  0  0  0  0  0  0  0
    3.2378    1.8441   -2.4039 C   0  0  0  0  0  0  0  0  0  0  0  0
   -0.9329    1.2011    0.0192 H   0  0  0  0  0  0  0  0  0  0  0  0
   -0.8225   -0.8287    1.3828 H   0  0  0  0  0  0  0  0  0  0  0  0
    0.9216   -0.9752    1.0959 H   0  0  0  0  0  0  0  0  0  0  0  0
   -0.5190    1.2968    2.1804 H   0  0  0  0  0  0  0  0  0  0  0  0
   -1.2020   -1.0537   -0.9483 H   0  0  0  0  0  0  0  0  0  0  0  0
    2.6879    1.2181    0.8333 H   0  0  0  0  0  0  0  0  0  0  0  0
    1.7472    1.8347   -3.8807 H   0  0  0  0  0  0  0  0  0  0  0  0
    4.4563    1.7764   -0.6865 H   0  0  0  0  0  0  0  0  0  0  0  0
   -2.4905   -2.8883    0.0861 H   0  0  0  0  0  0  0  0  0  0  0  0
   -1.3380   -3.1955    1.3946 H   0  0  0  0  0  0  0  0  0  0  0  0
   -1.7044   -4.4699    0.2322 H   0  0  0  0  0  0  0  0  0  0  0  0
    1.1540   -3.3460    0.9213 H   0  0  0  0  0  0  0  0  0  0  0  0
    0.9187   -4.6278   -0.2656 H   0  0  0  0  0  0  0  0  0  0  0  0
    1.7759   -3.1461   -0.7243 H   0  0  0  0  0  0  0  0  0  0  0  0
   -0.7868   -4.3678   -2.1618 H   0  0  0  0  0  0  0  0  0  0  0  0
   -1.6366   -2.8312   -2.3839 H   0  0  0  0  0  0  0  0  0  0  0  0
    0.0987   -2.9360   -2.7102 H   0  0  0  0  0  0  0  0  0  0  0  0
    4.0012    2.0575   -3.0509 H   0  0  0  0  0  0  0  0  0  0  0  0
  1  2  1  0  0  0  0 
  1  3  1  0  0  0  0 
  1  4  1  0  0  0  0 
  2  5  1  0  0  0  0 
  4  6  2  0  0  0  0 
  4  7  1  0  0  0  0 
  5  8  1  0  0  0  0 
  6  9  1  0  0  0  0 
  6 10  1  0  0  0  0 
  7 11  2  0  0  0  0 
  8 12  1  0  0  0  0 
  8 13  1  0  0  0  0 
  8 14  1  0  0  0  0 
 10 15  2  0  0  0  0 
 11 15  1  0  0  0  0 
  1 16  1  0  0  0  0 
  2 17  1  0  0  0  0 
  2 18  1  0  0  0  0 
  3 19  1  0  0  0  0 
  5 20  1  0  0  0  0 
  7 21  1  0  0  0  0 
 10 22  1  0  0  0  0 
 11 23  1  0  0  0  0 
 12 24  1  0  0  0  0 
 12 25  1  0  0  0  0 
 12 26  1  0  0  0  0 
 13 27  1  0  0  0  0 
 13 28  1  0  0  0  0 
 13 29  1  0  0  0  0 
 14 30  1  0  0  0  0 
 14 31  1  0  0  0  0 
 14 32  1  0  0  0  0 
 15 33  1  0  0  0  0 
M  END
> <cdk:Title>
tulobuterol

> <Conformer>
1

> <SuperDrugID>
SD002511

$$$$
