levallorphan
  CDK     0628171801

 46 49  0  0  0  0  0  0  0  0999 V2000
    2.9361   -4.4995    0.0988 C   0  0  2  0  0  0  0  0  0  0  0  0
    2.7734   -5.9007   -0.2604 C   0  0  0  0  0  0  0  0  0  0  0  0
    2.6121   -4.2336    1.5379 N   0  0  2  0  0  0  0  0  0  0  0  0
    3.6937   -6.6165   -0.9194 C   0  0  0  0  0  0  0  0  0  0  0  0
    2.2332   -2.8108    1.8769 C   0  0  1  0  0  0  0  0  0  0  0  0
    3.5133   -4.8962    2.5357 C   0  0  2  0  0  0  0  0  0  0  0  0
    1.5004   -2.8110    3.2521 C   0  0  1  0  0  0  0  0  0  0  0  0
    3.4308   -1.8054    1.8968 C   0  0  1  0  0  0  0  0  0  0  0  0
    2.9494   -4.7686    3.9796 C   0  0  2  0  0  0  0  0  0  0  0  0
    2.5220   -3.3009    4.3523 C   0  0  1  0  0  0  0  0  0  0  0  0
    0.8102   -1.4475    3.5981 C   0  0  1  0  0  0  0  0  0  0  0  0
    4.1839   -1.7273    3.1850 C   0  0  0  0  0  0  0  0  0  0  0  0
    3.7827   -2.4479    4.3517 C   0  0  0  0  0  0  0  0  0  0  0  0
    1.7351   -3.3167    5.7232 C   0  0  2  0  0  0  0  0  0  0  0  0
    0.1276   -1.4781    4.9878 C   0  0  2  0  0  0  0  0  0  0  0  0
    5.3419   -0.9136    3.2202 C   0  0  0  0  0  0  0  0  0  0  0  0
    4.6436   -2.4014    5.4815 C   0  0  0  0  0  0  0  0  0  0  0  0
    1.1111   -1.9433    6.0880 C   0  0  1  0  0  0  0  0  0  0  0  0
    6.1360   -0.8393    4.3747 C   0  0  0  0  0  0  0  0  0  0  0  0
    5.7995   -1.6005    5.5042 C   0  0  0  0  0  0  0  0  0  0  0  0
    6.5981   -1.5603    6.6016 O   0  0  0  0  0  0  0  0  0  0  0  0
    0.6834   -3.5405    3.1755 H   0  0  0  0  0  0  0  0  0  0  0  0
    1.5113   -2.4637    1.1291 H   0  0  0  0  0  0  0  0  0  0  0  0
    2.2439   -3.9495   -0.5431 H   0  0  0  0  0  0  0  0  0  0  0  0
    3.9441   -4.1376   -0.1265 H   0  0  0  0  0  0  0  0  0  0  0  0
    1.9292   -6.3579    0.0040 H   0  0  0  0  0  0  0  0  0  0  0  0
    4.5526   -6.2132   -1.2103 H   0  0  0  0  0  0  0  0  0  0  0  0
    3.5249   -7.5737   -1.1288 H   0  0  0  0  0  0  0  0  0  0  0  0
    4.5165   -4.4642    2.4808 H   0  0  0  0  0  0  0  0  0  0  0  0
    3.6127   -5.9614    2.3139 H   0  0  0  0  0  0  0  0  0  0  0  0
    4.1237   -2.0682    1.0959 H   0  0  0  0  0  0  0  0  0  0  0  0
    3.0544   -0.8040    1.6691 H   0  0  0  0  0  0  0  0  0  0  0  0
    3.6928   -5.1472    4.6869 H   0  0  0  0  0  0  0  0  0  0  0  0
    2.0802   -5.4314    4.0474 H   0  0  0  0  0  0  0  0  0  0  0  0
    1.5342   -0.6311    3.5947 H   0  0  0  0  0  0  0  0  0  0  0  0
    0.0540   -1.2188    2.8409 H   0  0  0  0  0  0  0  0  0  0  0  0
    2.3622   -3.6527    6.5494 H   0  0  0  0  0  0  0  0  0  0  0  0
    0.9192   -4.0446    5.6673 H   0  0  0  0  0  0  0  0  0  0  0  0
   -0.7278   -2.1584    4.9585 H   0  0  0  0  0  0  0  0  0  0  0  0
   -0.2492   -0.4811    5.2328 H   0  0  0  0  0  0  0  0  0  0  0  0
    5.6224   -0.3744    2.3976 H   0  0  0  0  0  0  0  0  0  0  0  0
    4.4463   -2.9597    6.3109 H   0  0  0  0  0  0  0  0  0  0  0  0
    0.5747   -2.0276    7.0360 H   0  0  0  0  0  0  0  0  0  0  0  0
    1.8976   -1.1958    6.2191 H   0  0  0  0  0  0  0  0  0  0  0  0
    6.9666   -0.2431    4.3856 H   0  0  0  0  0  0  0  0  0  0  0  0
    6.2435   -2.2332    7.2199 H   0  0  0  0  0  0  0  0  0  0  0  0
  1  2  1  0  0  0  0 
  1  3  1  0  0  0  0 
  2  4  2  0  0  0  0 
  5  3  1  0  0  0  0 
  3  6  1  0  0  0  0 
  7  5  1  0  0  0  0 
  5  8  1  0  0  0  0 
  5 23  1  0  0  0  0 
  6  9  1  0  0  0  0 
 10  7  1  0  0  0  0 
  7 11  1  0  0  0  0 
  7 22  1  0  0  0  0 
  8 12  1  0  0  0  0 
 10  9  1  0  0  0  0 
 10 13  1  0  0  0  0 
 10 14  1  0  0  0  0 
 11 15  1  0  0  0  0 
 12 13  2  0  0  0  0 
 12 16  1  0  0  0  0 
 13 17  1  0  0  0  0 
 14 18  1  0  0  0  0 
 15 18  1  0  0  0  0 
 16 19  2  0  0  0  0 
 17 20  2  0  0  0  0 
 19 20  1  0  0  0  0 
 20 21  1  0  0  0  0 
  1 24  1  0  0  0  0 
  1 25  1  0  0  0  0 
  2 26  1  0  0  0  0 
  4 27  1  0  0  0  0 
  4 28  1  0  0  0  0 
  6 29  1  0  0  0  0 
  6 30  1  0  0  0  0 
  8 31  1  0  0  0  0 
  8 32  1  0  0  0  0 
  9 33  1  0  0  0  0 
  9 34  1  0  0  0  0 
 11 35  1  0  0  0  0 
 11 36  1  0  0  0  0 
 14 37  1  0  0  0  0 
 14 38  1  0  0  0  0 
 15 39  1  0  0  0  0 
 15 40  1  0  0  0  0 
 16 41  1  0  0  0  0 
 17 42  1  0  0  0  0 
 18 43  1  0  0  0  0 
 18 44  1  0  0  0  0 
 19 45  1  0  0  0  0 
 21 46  1  0  0  0  0 
M  END
> <cdk:Title>
levallorphan

> <Conformer>
1

> <SuperDrugID>
SD001377

$$$$
