phentermine
  CDK     0628171801

 26 26  0  0  0  0  0  0  0  0999 V2000
    2.9219    5.9777   -3.5495 C   0  0  0  0  0  0  0  0  0  0  0  0
    2.3550    5.0323   -2.4459 C   0  0  2  0  0  0  0  0  0  0  0  0
    0.8676    5.4016   -2.1603 C   0  0  0  0  0  0  0  0  0  0  0  0
    3.1340    5.2741   -1.2151 N   0  0  1  0  0  0  0  0  0  0  0  0
    2.5254    3.5364   -2.8906 C   0  0  1  0  0  0  0  0  0  0  0  0
    1.9482    2.5044   -1.9754 C   0  0  0  0  0  0  0  0  0  0  0  0
    0.7802    1.7875   -2.3363 C   0  0  0  0  0  0  0  0  0  0  0  0
    0.2265    0.8254   -1.4724 C   0  0  0  0  0  0  0  0  0  0  0  0
    0.8451    0.5437   -0.2417 C   0  0  0  0  0  0  0  0  0  0  0  0
    2.0145    1.2328    0.1251 C   0  0  0  0  0  0  0  0  0  0  0  0
    2.5561    2.2104   -0.7313 C   0  0  0  0  0  0  0  0  0  0  0  0
    2.3593    5.8639   -4.4793 H   0  0  0  0  0  0  0  0  0  0  0  0
    2.8581    7.0224   -3.2374 H   0  0  0  0  0  0  0  0  0  0  0  0
    3.9700    5.7472   -3.7528 H   0  0  0  0  0  0  0  0  0  0  0  0
    0.7803    6.4532   -1.8751 H   0  0  0  0  0  0  0  0  0  0  0  0
    0.4666    4.8003   -1.3425 H   0  0  0  0  0  0  0  0  0  0  0  0
    0.2522    5.2346   -3.0470 H   0  0  0  0  0  0  0  0  0  0  0  0
    4.1156    5.0870   -1.4341 H   0  0  0  0  0  0  0  0  0  0  0  0
    3.0592    6.2690   -0.9891 H   0  0  0  0  0  0  0  0  0  0  0  0
    2.0803    3.4277   -3.8843 H   0  0  0  0  0  0  0  0  0  0  0  0
    3.5898    3.3203   -3.0153 H   0  0  0  0  0  0  0  0  0  0  0  0
    0.3228    1.9605   -3.2344 H   0  0  0  0  0  0  0  0  0  0  0  0
   -0.6274    0.3306   -1.7383 H   0  0  0  0  0  0  0  0  0  0  0  0
    0.4465   -0.1589    0.3838 H   0  0  0  0  0  0  0  0  0  0  0  0
    2.4694    1.0237    1.0167 H   0  0  0  0  0  0  0  0  0  0  0  0
    3.4072    2.6972   -0.4392 H   0  0  0  0  0  0  0  0  0  0  0  0
  1  2  1  0  0  0  0 
  2  3  1  0  0  0  0 
  2  4  1  0  0  0  0 
  2  5  1  0  0  0  0 
  5  6  1  0  0  0  0 
  6  7  2  0  0  0  0 
  7  8  1  0  0  0  0 
  8  9  2  0  0  0  0 
  9 10  1  0  0  0  0 
 10 11  2  0  0  0  0 
  6 11  1  0  0  0  0 
  1 12  1  0  0  0  0 
  1 13  1  0  0  0  0 
  1 14  1  0  0  0  0 
  3 15  1  0  0  0  0 
  3 16  1  0  0  0  0 
  3 17  1  0  0  0  0 
  4 18  1  0  0  0  0 
  4 19  1  0  0  0  0 
  5 20  1  0  0  0  0 
  5 21  1  0  0  0  0 
  7 22  1  0  0  0  0 
  8 23  1  0  0  0  0 
  9 24  1  0  0  0  0 
 10 25  1  0  0  0  0 
 11 26  1  0  0  0  0 
M  END
> <cdk:Title>
phentermine

> <Conformer>
1

> <SuperDrugID>
SD001920

$$$$
