anecortave
  CDK     0628171801

 58 61  0  0  0  0  0  0  0  0999 V2000
   -2.9365   -4.4658    0.1511 C   0  0  0  0  0  0  0  0  0  0  0  0
   -3.3557   -2.9467    0.0465 C   0  0  2  0  0  0  0  0  0  0  0  0
   -4.7295   -2.7053   -0.6472 C   0  0  2  0  0  0  0  0  0  0  0  0
   -2.4213   -2.1437   -0.9354 C   0  0  2  0  0  0  0  0  0  0  0  0
   -3.5307   -2.3943    1.4998 C   0  0  1  0  0  0  0  0  0  0  0  0
   -5.8936   -3.4687    0.0600 C   0  0  1  0  0  0  0  0  0  0  0  0
   -4.4619   -2.9253   -2.1545 C   0  0  1  0  0  0  0  0  0  0  0  0
   -0.9470   -2.3405   -0.7419 C   0  0  0  0  0  0  0  0  0  0  0  0
   -2.6881   -0.7326   -0.8509 O   0  0  0  0  0  0  0  0  0  0  0  0
   -2.9613   -2.5716   -2.3405 C   0  0  1  0  0  0  0  0  0  0  0  0
   -4.7488   -2.8778    2.1607 C   0  0  0  0  0  0  0  0  0  0  0  0
   -5.8721   -3.3526    1.5492 C   0  0  0  0  0  0  0  0  0  0  0  0
   -7.2584   -2.9988   -0.5154 C   0  0  2  0  0  0  0  0  0  0  0  0
   -0.1259   -1.4564    0.1184 C   0  0  2  0  0  0  0  0  0  0  0  0
   -0.3630   -3.3069   -1.2879 O   0  0  0  0  0  0  0  0  0  0  0  0
   -7.0726   -3.8537    2.3280 C   0  0  2  0  0  0  0  0  0  0  0  0
   -8.4020   -3.7984    0.1328 C   0  0  1  0  0  0  0  0  0  0  0  0
   -0.0695   -0.1473   -0.4648 O   0  0  0  0  0  0  0  0  0  0  0  0
   -6.8579   -5.3936    2.5377 C   0  0  0  0  0  0  0  0  0  0  0  0
   -8.3726   -3.6502    1.5939 C   0  0  0  0  0  0  0  0  0  0  0  0
   -7.2025   -3.1726    3.7546 C   0  0  1  0  0  0  0  0  0  0  0  0
    0.9967    0.4895   -1.0279 C   0  0  0  0  0  0  0  0  0  0  0  0
   -9.5438   -3.3722    2.2172 C   0  0  0  0  0  0  0  0  0  0  0  0
   -8.5355   -3.4454    4.4953 C   0  0  1  0  0  0  0  0  0  0  0  0
    0.7848    1.8341   -1.5779 C   0  0  0  0  0  0  0  0  0  0  0  0
    2.1233   -0.0538   -1.1057 O   0  0  0  0  0  0  0  0  0  0  0  0
   -9.6842   -3.2856    3.5891 C   0  0  0  0  0  0  0  0  0  0  0  0
  -10.8230   -3.1192    4.0858 O   0  0  0  0  0  0  0  0  0  0  0  0
   -1.9371   -4.5590    0.5796 H   0  0  0  0  0  0  0  0  0  0  0  0
   -2.9336   -4.9609   -0.8185 H   0  0  0  0  0  0  0  0  0  0  0  0
   -3.6056   -5.0305    0.7994 H   0  0  0  0  0  0  0  0  0  0  0  0
   -4.9873   -1.6408   -0.5468 H   0  0  0  0  0  0  0  0  0  0  0  0
   -2.6555   -2.6663    2.0983 H   0  0  0  0  0  0  0  0  0  0  0  0
   -3.5827   -1.3041    1.5002 H   0  0  0  0  0  0  0  0  0  0  0  0
   -5.7840   -4.5275   -0.1928 H   0  0  0  0  0  0  0  0  0  0  0  0
   -4.6584   -3.9625   -2.4414 H   0  0  0  0  0  0  0  0  0  0  0  0
   -5.0982   -2.2717   -2.7593 H   0  0  0  0  0  0  0  0  0  0  0  0
   -2.4161   -0.4618    0.0508 H   0  0  0  0  0  0  0  0  0  0  0  0
   -2.8360   -1.7737   -3.0783 H   0  0  0  0  0  0  0  0  0  0  0  0
   -2.4395   -3.4540   -2.7213 H   0  0  0  0  0  0  0  0  0  0  0  0
   -4.7056   -2.8373    3.1471 H   0  0  0  0  0  0  0  0  0  0  0  0
   -7.2896   -3.1620   -1.5969 H   0  0  0  0  0  0  0  0  0  0  0  0
   -7.4045   -1.9284   -0.3302 H   0  0  0  0  0  0  0  0  0  0  0  0
    0.8780   -1.8667    0.2579 H   0  0  0  0  0  0  0  0  0  0  0  0
   -0.5854   -1.3763    1.1041 H   0  0  0  0  0  0  0  0  0  0  0  0
   -9.3388   -3.4625   -0.3254 H   0  0  0  0  0  0  0  0  0  0  0  0
   -8.2917   -4.8574   -0.1166 H   0  0  0  0  0  0  0  0  0  0  0  0
   -6.7268   -5.9180    1.5884 H   0  0  0  0  0  0  0  0  0  0  0  0
   -5.9671   -5.5793    3.1439 H   0  0  0  0  0  0  0  0  0  0  0  0
   -7.7086   -5.8513    3.0471 H   0  0  0  0  0  0  0  0  0  0  0  0
   -6.4037   -3.4953    4.4263 H   0  0  0  0  0  0  0  0  0  0  0  0
   -7.1169   -2.0880    3.6309 H   0  0  0  0  0  0  0  0  0  0  0  0
  -10.3707   -3.2343    1.6780 H   0  0  0  0  0  0  0  0  0  0  0  0
   -8.5503   -4.4597    4.9009 H   0  0  0  0  0  0  0  0  0  0  0  0
   -8.6265   -2.7491    5.3332 H   0  0  0  0  0  0  0  0  0  0  0  0
    0.4790    2.5074   -0.7767 H   0  0  0  0  0  0  0  0  0  0  0  0
    1.6946    2.2236   -2.0376 H   0  0  0  0  0  0  0  0  0  0  0  0
   -0.0010    1.7946   -2.3337 H   0  0  0  0  0  0  0  0  0  0  0  0
  2  1  1  0  0  0  0 
  2  3  1  0  0  0  0 
  2  4  1  0  0  0  0 
  2  5  1  0  0  0  0 
  3  6  1  0  0  0  0 
  3  7  1  0  0  0  0 
  4  8  1  0  0  0  0 
  4  9  1  0  0  0  0 
  4 10  1  0  0  0  0 
  5 11  1  0  0  0  0 
  6 12  1  0  0  0  0 
  6 13  1  0  0  0  0 
  7 10  1  0  0  0  0 
  8 14  1  0  0  0  0 
  8 15  2  0  0  0  0 
 11 12  2  0  0  0  0 
 16 12  1  0  0  0  0 
 13 17  1  0  0  0  0 
 14 18  1  0  0  0  0 
 16 19  1  0  0  0  0 
 16 20  1  0  0  0  0 
 16 21  1  0  0  0  0 
 17 20  1  0  0  0  0 
 18 22  1  0  0  0  0 
 20 23  2  0  0  0  0 
 21 24  1  0  0  0  0 
 22 25  1  0  0  0  0 
 22 26  2  0  0  0  0 
 23 27  1  0  0  0  0 
 24 27  1  0  0  0  0 
 27 28  2  0  0  0  0 
 29  1  1  0  0  0  0 
 30  1  1  0  0  0  0 
 31  1  1  0  0  0  0 
  3 32  1  0  0  0  0 
 33  5  1  0  0  0  0 
 34  5  1  0  0  0  0 
  6 35  1  0  0  0  0 
 36  7  1  0  0  0  0 
 37  7  1  0  0  0  0 
 38  9  1  0  0  0  0 
 39 10  1  0  0  0  0 
 40 10  1  0  0  0  0 
 41 11  1  0  0  0  0 
 42 13  1  0  0  0  0 
 43 13  1  0  0  0  0 
 44 14  1  0  0  0  0 
 45 14  1  0  0  0  0 
 46 17  1  0  0  0  0 
 47 17  1  0  0  0  0 
 48 19  1  0  0  0  0 
 49 19  1  0  0  0  0 
 50 19  1  0  0  0  0 
 51 21  1  0  0  0  0 
 52 21  1  0  0  0  0 
 53 23  1  0  0  0  0 
 54 24  1  0  0  0  0 
 55 24  1  0  0  0  0 
 56 25  1  0  0  0  0 
 57 25  1  0  0  0  0 
 58 25  1  0  0  0  0 
M  END
> <cdk:Title>
anecortave

> <Conformer>
1

> <SuperDrugID>
SD000179

$$$$
