bendroflumethiazide
  CDK     0628171801

 41 43  0  0  0  0  0  0  0  0999 V2000
    0.5390   -2.3508   -1.6200 O   0  0  0  0  0  0  0  0  0  0  0  0
   -1.0043   -1.9203   -1.5770 S   0  0  2  0  0  0  0  0  0  0  0  0
   -1.3069   -1.0151   -0.2888 O   0  0  0  0  0  0  0  0  0  0  0  0
   -2.0724   -3.3218   -1.6285 C   0  0  0  0  0  0  0  0  0  0  0  0
   -1.3872   -1.0110   -3.0357 N   0  0  2  0  0  0  0  0  0  0  0  0
   -3.2725   -3.1957   -2.3518 C   0  0  0  0  0  0  0  0  0  0  0  0
   -1.7352   -4.5325   -1.0003 C   0  0  0  0  0  0  0  0  0  0  0  0
   -2.8543   -0.8485   -3.1923 C   0  0  2  0  0  0  0  0  0  0  0  0
   -4.1441   -4.3018   -2.3953 C   0  0  0  0  0  0  0  0  0  0  0  0
   -3.6344   -2.0491   -3.0148 N   0  0  0  0  0  0  0  0  0  0  0  0
   -2.5958   -5.6527   -1.0665 C   0  0  0  0  0  0  0  0  0  0  0  0
   -3.1418   -0.2802   -4.6138 C   0  0  1  0  0  0  0  0  0  0  0  0
   -3.8451   -5.5360   -1.7550 C   0  0  0  0  0  0  0  0  0  0  0  0
   -2.0022   -7.1586   -0.3181 S   0  0  1  0  0  0  0  0  0  0  0  0
   -2.4394    1.0036   -4.9043 C   0  0  0  0  0  0  0  0  0  0  0  0
   -4.8474   -6.6518   -1.8182 C   0  0  1  0  0  0  0  0  0  0  0  0
   -0.6012   -6.8786    0.7111 N   0  0  2  0  0  0  0  0  0  0  0  0
   -3.1035   -7.8660    0.6065 O   0  0  0  0  0  0  0  0  0  0  0  0
   -1.5518   -8.1965   -1.4557 O   0  0  0  0  0  0  0  0  0  0  0  0
   -3.0347    2.2460   -4.5818 C   0  0  0  0  0  0  0  0  0  0  0  0
   -1.1612    1.0078   -5.5139 C   0  0  0  0  0  0  0  0  0  0  0  0
   -5.9653   -6.3979   -2.5802 F   0  0  0  0  0  0  0  0  0  0  0  0
   -4.2934   -7.7879   -2.3543 F   0  0  0  0  0  0  0  0  0  0  0  0
   -5.3404   -6.9167   -0.5647 F   0  0  0  0  0  0  0  0  0  0  0  0
   -2.3778    3.4575   -4.8698 C   0  0  0  0  0  0  0  0  0  0  0  0
   -0.4994    2.2173   -5.7978 C   0  0  0  0  0  0  0  0  0  0  0  0
   -1.1101    3.4422   -5.4776 C   0  0  0  0  0  0  0  0  0  0  0  0
   -1.0772   -1.5925   -3.8186 H   0  0  0  0  0  0  0  0  0  0  0  0
   -0.8433   -4.5861   -0.5048 H   0  0  0  0  0  0  0  0  0  0  0  0
   -3.2016   -0.1194   -2.4545 H   0  0  0  0  0  0  0  0  0  0  0  0
   -5.0162   -4.1916   -2.9151 H   0  0  0  0  0  0  0  0  0  0  0  0
   -4.5252   -2.0378   -3.4015 H   0  0  0  0  0  0  0  0  0  0  0  0
   -2.8560   -1.0270   -5.3602 H   0  0  0  0  0  0  0  0  0  0  0  0
   -4.2189   -0.1332   -4.7343 H   0  0  0  0  0  0  0  0  0  0  0  0
   -0.8967   -6.2323    1.4453 H   0  0  0  0  0  0  0  0  0  0  0  0
    0.0951   -6.3902    0.1454 H   0  0  0  0  0  0  0  0  0  0  0  0
   -3.9546    2.2739   -4.1374 H   0  0  0  0  0  0  0  0  0  0  0  0
   -0.7032    0.1259   -5.7542 H   0  0  0  0  0  0  0  0  0  0  0  0
   -2.8223    4.3493   -4.6410 H   0  0  0  0  0  0  0  0  0  0  0  0
    0.4229    2.2069   -6.2402 H   0  0  0  0  0  0  0  0  0  0  0  0
   -0.6336    4.3194   -5.6877 H   0  0  0  0  0  0  0  0  0  0  0  0
  1  2  2  0  0  0  0 
  2  3  2  0  0  0  0 
  2  4  1  0  0  0  0 
  2  5  1  0  0  0  0 
  4  6  2  0  0  0  0 
  4  7  1  0  0  0  0 
  8  5  1  0  0  0  0 
  6  9  1  0  0  0  0 
  6 10  1  0  0  0  0 
  7 11  2  0  0  0  0 
  8 10  1  0  0  0  0 
  8 12  1  0  0  0  0 
  9 13  2  0  0  0  0 
 11 13  1  0  0  0  0 
 11 14  1  0  0  0  0 
 12 15  1  0  0  0  0 
 13 16  1  0  0  0  0 
 14 17  1  0  0  0  0 
 14 18  2  0  0  0  0 
 14 19  2  0  0  0  0 
 15 20  2  0  0  0  0 
 15 21  1  0  0  0  0 
 16 22  1  0  0  0  0 
 16 23  1  0  0  0  0 
 16 24  1  0  0  0  0 
 20 25  1  0  0  0  0 
 21 26  2  0  0  0  0 
 25 27  2  0  0  0  0 
 26 27  1  0  0  0  0 
  5 28  1  0  0  0  0 
  7 29  1  0  0  0  0 
  8 30  1  0  0  0  0 
  9 31  1  0  0  0  0 
 10 32  1  0  0  0  0 
 12 33  1  0  0  0  0 
 12 34  1  0  0  0  0 
 17 35  1  0  0  0  0 
 17 36  1  0  0  0  0 
 20 37  1  0  0  0  0 
 21 38  1  0  0  0  0 
 25 39  1  0  0  0  0 
 26 40  1  0  0  0  0 
 27 41  1  0  0  0  0 
M  END
> <cdk:Title>
bendroflumethiazide

> <Conformer>
1

> <SuperDrugID>
SD000256

$$$$
