phenylacetic acid
  CDK     0628171802

 18 18  0  0  0  0  0  0  0  0999 V2000
   -1.1254    1.1979   -0.9712 C   0  0  2  0  0  0  0  0  0  0  0  0
   -2.5010    1.2959   -1.4900 C   0  0  0  0  0  0  0  0  0  0  0  0
   -1.0283    0.2230    0.1480 C   0  0  0  0  0  0  0  0  0  0  0  0
   -3.1705    2.4695   -1.4362 O   0  0  0  0  0  0  0  0  0  0  0  0
   -3.0686    0.3000   -1.9945 O   0  0  0  0  0  0  0  0  0  0  0  0
   -0.4753   -1.0647   -0.0501 C   0  0  0  0  0  0  0  0  0  0  0  0
   -1.4935    0.5680    1.4398 C   0  0  0  0  0  0  0  0  0  0  0  0
   -0.3799   -1.9777    1.0163 C   0  0  0  0  0  0  0  0  0  0  0  0
   -1.3924   -0.3421    2.5077 C   0  0  0  0  0  0  0  0  0  0  0  0
   -0.8334   -1.6141    2.2969 C   0  0  0  0  0  0  0  0  0  0  0  0
   -0.7903    2.1781   -0.6224 H   0  0  0  0  0  0  0  0  0  0  0  0
   -0.4679    0.9196   -1.7988 H   0  0  0  0  0  0  0  0  0  0  0  0
   -4.0804    2.5354   -1.7929 H   0  0  0  0  0  0  0  0  0  0  0  0
   -0.1435   -1.3500   -0.9741 H   0  0  0  0  0  0  0  0  0  0  0  0
   -1.9073    1.4873    1.6111 H   0  0  0  0  0  0  0  0  0  0  0  0
    0.0174   -2.9068    0.8615 H   0  0  0  0  0  0  0  0  0  0  0  0
   -1.7257   -0.0784    3.4375 H   0  0  0  0  0  0  0  0  0  0  0  0
   -0.7559   -2.2741    3.0742 H   0  0  0  0  0  0  0  0  0  0  0  0
  1  2  1  0  0  0  0 
  1  3  1  0  0  0  0 
  2  4  1  0  0  0  0 
  2  5  2  0  0  0  0 
  3  6  2  0  0  0  0 
  3  7  1  0  0  0  0 
  6  8  1  0  0  0  0 
  7  9  2  0  0  0  0 
  8 10  2  0  0  0  0 
  9 10  1  0  0  0  0 
  1 11  1  0  0  0  0 
  1 12  1  0  0  0  0 
  4 13  1  0  0  0  0 
  6 14  1  0  0  0  0 
  7 15  1  0  0  0  0 
  8 16  1  0  0  0  0 
  9 17  1  0  0  0  0 
 10 18  1  0  0  0  0 
M  END
> <cdk:Title>
phenylacetic acid

> <Conformer>
1

> <SuperDrugID>
SD003667

$$$$
