glycine
  CDK     0628171801

 10  9  0  0  0  0  0  0  0  0999 V2000
    1.3136    0.0020    0.2400 N   0  0  1  0  0  0  0  0  0  0  0  0
    0.4405    0.9320    0.9629 C   0  0  2  0  0  0  0  0  0  0  0  0
   -0.6058    1.4423    0.0639 C   0  0  0  0  0  0  0  0  0  0  0  0
   -0.7196    2.7670   -0.1808 O   0  0  0  0  0  0  0  0  0  0  0  0
   -1.4076    0.6542   -0.4869 O   0  0  0  0  0  0  0  0  0  0  0  0
    1.7660    0.5350   -0.5056 H   0  0  0  0  0  0  0  0  0  0  0  0
    2.0510   -0.2872    0.8867 H   0  0  0  0  0  0  0  0  0  0  0  0
    1.0486    1.7507    1.3520 H   0  0  0  0  0  0  0  0  0  0  0  0
   -0.0186    0.4112    1.8058 H   0  0  0  0  0  0  0  0  0  0  0  0
   -1.4173    3.0983   -0.7855 H   0  0  0  0  0  0  0  0  0  0  0  0
  1  2  1  0  0  0  0 
  2  3  1  0  0  0  0 
  3  4  1  0  0  0  0 
  3  5  2  0  0  0  0 
  1  6  1  0  0  0  0 
  1  7  1  0  0  0  0 
  2  8  1  0  0  0  0 
  2  9  1  0  0  0  0 
  4 10  1  0  0  0  0 
M  END
> <cdk:Title>
glycine

> <Conformer>
1

> <SuperDrugID>
SD001173

$$$$
