mycophenolic acid
  CDK     0628171801

 43 44  0  0  0  0  0  0  0  0999 V2000
   -3.7014    1.6989    2.9371 C   0  0  0  0  0  0  0  0  0  0  0  0
   -2.8222    1.5537    1.7467 C   0  0  0  0  0  0  0  0  0  0  0  0
   -3.0269    2.3931    0.6285 C   0  0  0  0  0  0  0  0  0  0  0  0
   -1.7589    0.6040    1.6798 C   0  0  0  0  0  0  0  0  0  0  0  0
   -2.2644    2.2537   -0.5257 C   0  0  0  0  0  0  0  0  0  0  0  0
   -3.9989    3.4845    0.4418 C   0  0  1  0  0  0  0  0  0  0  0  0
   -1.4842   -0.1770    2.7766 O   0  0  0  0  0  0  0  0  0  0  0  0
   -0.9847    0.4423    0.4877 C   0  0  0  0  0  0  0  0  0  0  0  0
   -1.2669    1.2703   -0.6312 C   0  0  0  0  0  0  0  0  0  0  0  0
   -2.6930    3.2140   -1.4332 C   0  0  0  0  0  0  0  0  0  0  0  0
   -3.6976    3.9348   -0.8834 O   0  0  0  0  0  0  0  0  0  0  0  0
   -0.5851    0.4514    3.7092 C   0  0  0  0  0  0  0  0  0  0  0  0
    0.1174   -0.5674    0.3763 C   0  0  2  0  0  0  0  0  0  0  0  0
   -0.6042    1.1254   -1.8062 O   0  0  0  0  0  0  0  0  0  0  0  0
   -2.2287    3.4154   -2.5774 O   0  0  0  0  0  0  0  0  0  0  0  0
    1.4254    0.0868    0.3539 C   0  0  0  0  0  0  0  0  0  0  0  0
    2.3483    0.1687   -0.6368 C   0  0  0  0  0  0  0  0  0  0  0  0
    3.5818    0.9371   -0.3844 C   0  0  2  0  0  0  0  0  0  0  0  0
    2.2147   -0.4163   -1.9726 C   0  0  0  0  0  0  0  0  0  0  0  0
    3.3554    2.4723   -0.4952 C   0  0  1  0  0  0  0  0  0  0  0  0
    4.6122    3.2438   -0.4130 C   0  0  0  0  0  0  0  0  0  0  0  0
    5.4126    3.1542    0.6735 O   0  0  0  0  0  0  0  0  0  0  0  0
    4.9664    3.9999   -1.3457 O   0  0  0  0  0  0  0  0  0  0  0  0
   -4.7466    1.7780    2.6337 H   0  0  0  0  0  0  0  0  0  0  0  0
   -3.6312    0.8460    3.6127 H   0  0  0  0  0  0  0  0  0  0  0  0
   -3.4237    2.6014    3.4836 H   0  0  0  0  0  0  0  0  0  0  0  0
   -5.0249    3.1163    0.4925 H   0  0  0  0  0  0  0  0  0  0  0  0
   -3.8460    4.2906    1.1631 H   0  0  0  0  0  0  0  0  0  0  0  0
   -0.4245   -0.2334    4.5403 H   0  0  0  0  0  0  0  0  0  0  0  0
    0.3823    0.6604    3.2527 H   0  0  0  0  0  0  0  0  0  0  0  0
   -1.0018    1.3783    4.1080 H   0  0  0  0  0  0  0  0  0  0  0  0
   -0.0729   -1.1949   -0.4911 H   0  0  0  0  0  0  0  0  0  0  0  0
    0.1154   -1.2551    1.2267 H   0  0  0  0  0  0  0  0  0  0  0  0
   -1.3040    1.1556   -2.4918 H   0  0  0  0  0  0  0  0  0  0  0  0
    1.6504    0.5430    1.2096 H   0  0  0  0  0  0  0  0  0  0  0  0
    4.3705    0.6456   -1.0869 H   0  0  0  0  0  0  0  0  0  0  0  0
    3.9689    0.7016    0.6129 H   0  0  0  0  0  0  0  0  0  0  0  0
    2.2291    0.3818   -2.7176 H   0  0  0  0  0  0  0  0  0  0  0  0
    1.3125   -1.0000   -2.1358 H   0  0  0  0  0  0  0  0  0  0  0  0
    3.0599   -1.0793   -2.1650 H   0  0  0  0  0  0  0  0  0  0  0  0
    2.8606    2.7015   -1.4433 H   0  0  0  0  0  0  0  0  0  0  0  0
    2.6966    2.8039    0.3104 H   0  0  0  0  0  0  0  0  0  0  0  0
    6.2570    3.6538    0.7077 H   0  0  0  0  0  0  0  0  0  0  0  0
  1  2  1  0  0  0  0 
  2  3  2  0  0  0  0 
  2  4  1  0  0  0  0 
  3  5  1  0  0  0  0 
  3  6  1  0  0  0  0 
  4  7  1  0  0  0  0 
  4  8  2  0  0  0  0 
  5  9  2  0  0  0  0 
  5 10  1  0  0  0  0 
  6 11  1  0  0  0  0 
  7 12  1  0  0  0  0 
  8  9  1  0  0  0  0 
  8 13  1  0  0  0  0 
  9 14  1  0  0  0  0 
 10 11  1  0  0  0  0 
 10 15  2  0  0  0  0 
 13 16  1  0  0  0  0 
 16 17  2  0  0  0  0 
 17 18  1  0  0  0  0 
 17 19  1  0  0  0  0 
 18 20  1  0  0  0  0 
 20 21  1  0  0  0  0 
 21 22  1  0  0  0  0 
 21 23  2  0  0  0  0 
  1 24  1  0  0  0  0 
  1 25  1  0  0  0  0 
  1 26  1  0  0  0  0 
  6 27  1  0  0  0  0 
  6 28  1  0  0  0  0 
 12 29  1  0  0  0  0 
 12 30  1  0  0  0  0 
 12 31  1  0  0  0  0 
 13 32  1  0  0  0  0 
 13 33  1  0  0  0  0 
 14 34  1  0  0  0  0 
 16 35  1  0  0  0  0 
 18 36  1  0  0  0  0 
 18 37  1  0  0  0  0 
 19 38  1  0  0  0  0 
 19 39  1  0  0  0  0 
 19 40  1  0  0  0  0 
 20 41  1  0  0  0  0 
 20 42  1  0  0  0  0 
 22 43  1  0  0  0  0 
M  END
> <cdk:Title>
mycophenolic acid

> <Conformer>
1

> <SuperDrugID>
SD001656

$$$$
