voglibose
  CDK     0628171801

 39 39  0  0  0  0  0  0  0  0999 V2000
    0.6799    0.1464   -0.7415 N   0  0  2  0  0  0  0  0  0  0  0  0
    0.9944    0.8553   -2.0125 C   0  0  2  0  0  0  0  0  0  0  0  0
    0.9793   -1.3050   -0.5969 C   0  0  1  0  0  0  0  0  0  0  0  0
    0.8101    2.3713   -1.7545 C   0  0  1  0  0  0  0  0  0  0  0  0
    0.1476    0.3720   -3.2240 C   0  0  1  0  0  0  0  0  0  0  0  0
    2.4851   -1.6894   -0.7571 C   0  0  2  0  0  0  0  0  0  0  0  0
    0.4716   -1.7852    0.7982 C   0  0  2  0  0  0  0  0  0  0  0  0
    1.6873    2.8178   -0.7245 O   0  0  0  0  0  0  0  0  0  0  0  0
   -1.2503    0.4490   -2.9629 O   0  0  0  0  0  0  0  0  0  0  0  0
    3.4018   -1.1143    0.3732 C   0  0  1  0  0  0  0  0  0  0  0  0
   -0.8854   -1.3932    1.0068 O   0  0  0  0  0  0  0  0  0  0  0  0
    1.3503   -1.2554    1.9673 C   0  0  2  0  0  0  0  0  0  0  0  0
    4.8854   -1.5502    0.1687 C   0  0  2  0  0  0  0  0  0  0  0  0
    3.3744    0.3161    0.3150 O   0  0  0  0  0  0  0  0  0  0  0  0
    2.8581   -1.5864    1.7647 C   0  0  2  0  0  0  0  0  0  0  0  0
    0.8945   -1.8348    3.1907 O   0  0  0  0  0  0  0  0  0  0  0  0
    5.4250   -1.0375   -1.0466 O   0  0  0  0  0  0  0  0  0  0  0  0
    3.6126   -1.0008    2.8271 O   0  0  0  0  0  0  0  0  0  0  0  0
   -0.3222    0.2670   -0.5776 H   0  0  0  0  0  0  0  0  0  0  0  0
    2.0466    0.7123   -2.2684 H   0  0  0  0  0  0  0  0  0  0  0  0
    0.4026   -1.8453   -1.3518 H   0  0  0  0  0  0  0  0  0  0  0  0
    1.0383    2.9403   -2.6597 H   0  0  0  0  0  0  0  0  0  0  0  0
   -0.2192    2.5851   -1.4547 H   0  0  0  0  0  0  0  0  0  0  0  0
    0.3710    0.9820   -4.1025 H   0  0  0  0  0  0  0  0  0  0  0  0
    0.3948   -0.6605   -3.4723 H   0  0  0  0  0  0  0  0  0  0  0  0
    2.8416   -1.3688   -1.7371 H   0  0  0  0  0  0  0  0  0  0  0  0
    2.5544   -2.7819   -0.7457 H   0  0  0  0  0  0  0  0  0  0  0  0
    0.4873   -2.8784    0.8200 H   0  0  0  0  0  0  0  0  0  0  0  0
    1.4977    3.7747   -0.6389 H   0  0  0  0  0  0  0  0  0  0  0  0
   -1.6736    0.1404   -3.7905 H   0  0  0  0  0  0  0  0  0  0  0  0
   -1.3876   -1.7955    0.2671 H   0  0  0  0  0  0  0  0  0  0  0  0
    1.2257   -0.1722    2.0471 H   0  0  0  0  0  0  0  0  0  0  0  0
    4.9675   -2.6387    0.1496 H   0  0  0  0  0  0  0  0  0  0  0  0
    5.5077   -1.1761    0.9847 H   0  0  0  0  0  0  0  0  0  0  0  0
    3.9647    0.6225    1.0367 H   0  0  0  0  0  0  0  0  0  0  0  0
    2.9883   -2.6695    1.8421 H   0  0  0  0  0  0  0  0  0  0  0  0
    1.4630   -1.4474    3.8900 H   0  0  0  0  0  0  0  0  0  0  0  0
    6.3532   -1.3532   -1.0598 H   0  0  0  0  0  0  0  0  0  0  0  0
    3.2798   -1.4238    3.6473 H   0  0  0  0  0  0  0  0  0  0  0  0
  1  2  1  0  0  0  0 
  2  4  1  0  0  0  0 
  2  5  1  0  0  0  0 
  3  1  1  0  0  0  0 
  3  6  1  0  0  0  0 
  7  3  1  0  0  0  0 
  4  8  1  0  0  0  0 
  5  9  1  0  0  0  0 
 10  6  1  0  0  0  0 
  7 11  1  0  0  0  0 
 12  7  1  0  0  0  0 
 10 13  1  0  0  0  0 
 10 14  1  0  0  0  0 
 15 10  1  0  0  0  0 
 15 12  1  0  0  0  0 
 12 16  1  0  0  0  0 
 13 17  1  0  0  0  0 
 15 18  1  0  0  0  0 
  1 19  1  0  0  0  0 
  2 20  1  0  0  0  0 
  3 21  1  0  0  0  0 
  4 22  1  0  0  0  0 
  4 23  1  0  0  0  0 
  5 24  1  0  0  0  0 
  5 25  1  0  0  0  0 
  6 26  1  0  0  0  0 
  6 27  1  0  0  0  0 
  7 28  1  0  0  0  0 
  8 29  1  0  0  0  0 
  9 30  1  0  0  0  0 
 11 31  1  0  0  0  0 
 12 32  1  0  0  0  0 
 13 33  1  0  0  0  0 
 13 34  1  0  0  0  0 
 14 35  1  0  0  0  0 
 15 36  1  0  0  0  0 
 16 37  1  0  0  0  0 
 17 38  1  0  0  0  0 
 18 39  1  0  0  0  0 
M  END
> <cdk:Title>
voglibose

> <Conformer>
1

> <SuperDrugID>
SD002563

$$$$
