estramustine
  CDK     0628171801

 60 63  0  0  0  0  0  0  0  0999 V2000
   -7.1104    2.3945   -1.0800 C   0  0  0  0  0  0  0  0  0  0  0  0
   -7.7920    1.2233   -0.2680 C   0  0  1  0  0  0  0  0  0  0  0  0
   -7.4118   -0.2294   -0.7050 C   0  0  2  0  0  0  0  0  0  0  0  0
   -7.4262    1.3551    1.2479 C   0  0  2  0  0  0  0  0  0  0  0  0
   -9.3188    1.1949   -0.5984 C   0  0  1  0  0  0  0  0  0  0  0  0
   -5.8823   -0.4895   -0.5606 C   0  0  1  0  0  0  0  0  0  0  0  0
   -8.1084   -0.4058   -2.0745 C   0  0  1  0  0  0  0  0  0  0  0  0
   -5.9231    1.0403    1.5249 C   0  0  2  0  0  0  0  0  0  0  0  0
   -9.9217    2.4880   -0.6635 O   0  0  0  0  0  0  0  0  0  0  0  0
   -9.4106    0.4318   -1.9511 C   0  0  2  0  0  0  0  0  0  0  0  0
   -5.4371   -0.3400    0.9468 C   0  0  2  0  0  0  0  0  0  0  0  0
   -5.4039   -1.8671   -1.0852 C   0  0  1  0  0  0  0  0  0  0  0  0
   -3.9580   -0.5951    1.1039 C   0  0  0  0  0  0  0  0  0  0  0  0
   -3.8518   -1.8812   -1.1053 C   0  0  2  0  0  0  0  0  0  0  0  0
   -3.2046   -1.2346    0.0741 C   0  0  0  0  0  0  0  0  0  0  0  0
   -3.2677   -0.2192    2.2848 C   0  0  0  0  0  0  0  0  0  0  0  0
   -1.7926   -1.2409    0.1413 C   0  0  0  0  0  0  0  0  0  0  0  0
   -1.8642   -0.2595    2.3515 C   0  0  0  0  0  0  0  0  0  0  0  0
   -1.1143   -0.6771    1.2408 C   0  0  0  0  0  0  0  0  0  0  0  0
    0.2424   -0.4907    1.2853 O   0  0  0  0  0  0  0  0  0  0  0  0
    1.1089   -0.1556    0.2710 C   0  0  0  0  0  0  0  0  0  0  0  0
    2.4683   -0.0492    0.5087 N   0  0  0  0  0  0  0  0  0  0  0  0
    0.6353    0.1124   -0.8618 O   0  0  0  0  0  0  0  0  0  0  0  0
    3.3860    0.3584   -0.5434 C   0  0  1  0  0  0  0  0  0  0  0  0
    3.0008   -0.3476    1.8260 C   0  0  2  0  0  0  0  0  0  0  0  0
    3.5833    1.8938   -0.5733 C   0  0  1  0  0  0  0  0  0  0  0  0
    3.1551   -1.8733    2.0386 C   0  0  2  0  0  0  0  0  0  0  0  0
    4.8171    2.3291   -1.7962 Cl  0  0  0  0  0  0  0  0  0  0  0  0
    3.7670   -2.2368    3.6486 Cl  0  0  0  0  0  0  0  0  0  0  0  0
   -5.3643    0.2566   -1.1682 H   0  0  0  0  0  0  0  0  0  0  0  0
   -5.9406   -1.1169    1.5333 H   0  0  0  0  0  0  0  0  0  0  0  0
   -7.8973   -0.9549   -0.0348 H   0  0  0  0  0  0  0  0  0  0  0  0
   -7.3879    2.3811   -2.1354 H   0  0  0  0  0  0  0  0  0  0  0  0
   -7.4184    3.3575   -0.6687 H   0  0  0  0  0  0  0  0  0  0  0  0
   -6.0252    2.3700   -1.0345 H   0  0  0  0  0  0  0  0  0  0  0  0
   -8.0346    0.6640    1.8378 H   0  0  0  0  0  0  0  0  0  0  0  0
   -7.6501    2.3610    1.6068 H   0  0  0  0  0  0  0  0  0  0  0  0
   -9.8624    0.6267    0.1650 H   0  0  0  0  0  0  0  0  0  0  0  0
   -7.4784   -0.0263   -2.8852 H   0  0  0  0  0  0  0  0  0  0  0  0
   -8.3306   -1.4596   -2.2695 H   0  0  0  0  0  0  0  0  0  0  0  0
   -5.7966    1.0529    2.6090 H   0  0  0  0  0  0  0  0  0  0  0  0
   -5.2976    1.8424    1.1270 H   0  0  0  0  0  0  0  0  0  0  0  0
  -10.8676    2.3230   -0.8602 H   0  0  0  0  0  0  0  0  0  0  0  0
   -9.4776    1.1326   -2.7893 H   0  0  0  0  0  0  0  0  0  0  0  0
  -10.2981   -0.2074   -1.9727 H   0  0  0  0  0  0  0  0  0  0  0  0
   -5.7840   -2.6658   -0.4411 H   0  0  0  0  0  0  0  0  0  0  0  0
   -5.7744   -2.0478   -2.0969 H   0  0  0  0  0  0  0  0  0  0  0  0
   -3.5163   -1.3543   -2.0034 H   0  0  0  0  0  0  0  0  0  0  0  0
   -3.5156   -2.9195   -1.1785 H   0  0  0  0  0  0  0  0  0  0  0  0
   -3.7752    0.1161    3.1055 H   0  0  0  0  0  0  0  0  0  0  0  0
   -1.2497   -1.6534   -0.6206 H   0  0  0  0  0  0  0  0  0  0  0  0
   -1.3841    0.0536    3.1987 H   0  0  0  0  0  0  0  0  0  0  0  0
    4.3563   -0.1278   -0.4036 H   0  0  0  0  0  0  0  0  0  0  0  0
    3.0336    0.0399   -1.5294 H   0  0  0  0  0  0  0  0  0  0  0  0
    2.3518    0.0684    2.6031 H   0  0  0  0  0  0  0  0  0  0  0  0
    3.9786    0.1231    1.9694 H   0  0  0  0  0  0  0  0  0  0  0  0
    2.5843    2.3724   -0.7070 H   0  0  0  0  0  0  0  0  0  0  0  0
    3.9724    2.2216    0.3926 H   0  0  0  0  0  0  0  0  0  0  0  0
    3.8486   -2.2833    1.3027 H   0  0  0  0  0  0  0  0  0  0  0  0
    2.1906   -2.3711    1.9239 H   0  0  0  0  0  0  0  0  0  0  0  0
  2  1  1  0  0  0  0 
  3  2  1  0  0  0  0 
  2  4  1  0  0  0  0 
  2  5  1  0  0  0  0 
  6  3  1  0  0  0  0 
  3  7  1  0  0  0  0 
  3 32  1  0  0  0  0 
  4  8  1  0  0  0  0 
  5  9  1  0  0  0  0 
  5 10  1  0  0  0  0 
 11  6  1  0  0  0  0 
  6 12  1  0  0  0  0 
  6 30  1  0  0  0  0 
  7 10  1  0  0  0  0 
 11  8  1  0  0  0  0 
 11 13  1  0  0  0  0 
 11 31  1  0  0  0  0 
 12 14  1  0  0  0  0 
 13 15  2  0  0  0  0 
 13 16  1  0  0  0  0 
 14 15  1  0  0  0  0 
 15 17  1  0  0  0  0 
 16 18  2  0  0  0  0 
 17 19  2  0  0  0  0 
 18 19  1  0  0  0  0 
 19 20  1  0  0  0  0 
 20 21  1  0  0  0  0 
 21 22  1  0  0  0  0 
 21 23  2  0  0  0  0 
 22 24  1  0  0  0  0 
 22 25  1  0  0  0  0 
 24 26  1  0  0  0  0 
 25 27  1  0  0  0  0 
 26 28  1  0  0  0  0 
 27 29  1  0  0  0  0 
  1 33  1  0  0  0  0 
  1 34  1  0  0  0  0 
  1 35  1  0  0  0  0 
  4 36  1  0  0  0  0 
  4 37  1  0  0  0  0 
  5 38  1  0  0  0  0 
  7 39  1  0  0  0  0 
  7 40  1  0  0  0  0 
  8 41  1  0  0  0  0 
  8 42  1  0  0  0  0 
  9 43  1  0  0  0  0 
 10 44  1  0  0  0  0 
 10 45  1  0  0  0  0 
 12 46  1  0  0  0  0 
 12 47  1  0  0  0  0 
 14 48  1  0  0  0  0 
 14 49  1  0  0  0  0 
 16 50  1  0  0  0  0 
 17 51  1  0  0  0  0 
 18 52  1  0  0  0  0 
 24 53  1  0  0  0  0 
 24 54  1  0  0  0  0 
 25 55  1  0  0  0  0 
 25 56  1  0  0  0  0 
 26 57  1  0  0  0  0 
 26 58  1  0  0  0  0 
 27 59  1  0  0  0  0 
 27 60  1  0  0  0  0 
M  END
> <cdk:Title>
estramustine

> <Conformer>
1

> <SuperDrugID>
SD000950

$$$$
