luliconazole
  CDK     0628171802

 30 32  0  0  0  0  0  0  0  0999 V2000
   -4.1448    6.3182    0.2961 Cl  0  0  0  0  0  0  0  0  0  0  0  0
   -2.8473    6.1221    1.3784 C   0  0  0  0  0  0  0  0  0  0  0  0
   -1.8820    5.0746    1.2844 C   0  0  0  0  0  0  0  0  0  0  0  0
   -2.7681    7.0748    2.4171 C   0  0  0  0  0  0  0  0  0  0  0  0
   -0.8555    5.0351    2.2640 C   0  0  0  0  0  0  0  0  0  0  0  0
   -1.8906    4.0243    0.2107 C   0  0  1  0  0  0  0  0  0  0  0  0
   -1.7438    7.0074    3.3778 C   0  0  0  0  0  0  0  0  0  0  0  0
   -0.7825    5.9877    3.2941 C   0  0  0  0  0  0  0  0  0  0  0  0
   -3.4427    3.0490    0.1819 S   0  0  0  0  0  0  0  0  0  0  0  0
   -1.5997    4.5629   -1.2143 C   0  0  1  0  0  0  0  0  0  0  0  0
   -1.6690    8.1437    4.6307 Cl  0  0  0  0  0  0  0  0  0  0  0  0
   -3.7612    2.8997   -1.5165 C   0  0  0  0  0  0  0  0  0  0  0  0
   -2.3596    3.3974   -2.3978 S   0  0  0  0  0  0  0  0  0  0  0  0
   -4.9087    2.4618   -2.0760 C   0  0  0  0  0  0  0  0  0  0  0  0
   -5.8588    2.0304   -1.3334 C   0  0  0  0  0  0  0  0  0  0  0  0
   -5.1231    2.4631   -3.4075 N   0  0  0  0  0  0  0  0  0  0  0  0
   -6.7041    1.6416   -0.6598 N   0  0  0  0  0  0  0  0  0  0  0  0
   -5.0387    3.5256   -4.2343 C   0  0  0  0  0  0  0  0  0  0  0  0
   -5.4863    1.4164   -4.1854 C   0  0  0  0  0  0  0  0  0  0  0  0
   -5.3531    3.0967   -5.5146 C   0  0  0  0  0  0  0  0  0  0  0  0
   -5.6274    1.7869   -5.4697 N   0  0  0  0  0  0  0  0  0  0  0  0
   -3.4593    7.8258    2.4814 H   0  0  0  0  0  0  0  0  0  0  0  0
   -0.1385    4.3062    2.2372 H   0  0  0  0  0  0  0  0  0  0  0  0
   -1.1207    3.2730    0.4087 H   0  0  0  0  0  0  0  0  0  0  0  0
   -0.0253    5.9309    3.9796 H   0  0  0  0  0  0  0  0  0  0  0  0
   -2.0441    5.5417   -1.3823 H   0  0  0  0  0  0  0  0  0  0  0  0
   -0.5270    4.6320   -1.4010 H   0  0  0  0  0  0  0  0  0  0  0  0
   -4.7888    4.4845   -3.9776 H   0  0  0  0  0  0  0  0  0  0  0  0
   -5.6340    0.4594   -3.8550 H   0  0  0  0  0  0  0  0  0  0  0  0
   -5.3753    3.6801   -6.3525 H   0  0  0  0  0  0  0  0  0  0  0  0
  1  2  1  0  0  0  0 
  2  3  2  0  0  0  0 
  2  4  1  0  0  0  0 
  3  5  1  0  0  0  0 
  4  7  2  0  0  0  0 
  5  8  2  0  0  0  0 
  6  3  1  0  0  0  0 
  6  9  1  0  0  0  0 
  6 10  1  0  0  0  0 
  7  8  1  0  0  0  0 
  7 11  1  0  0  0  0 
  9 12  1  0  0  0  0 
 10 13  1  0  0  0  0 
 12 13  1  0  0  0  0 
 12 14  2  0  0  0  0 
 14 15  1  0  0  0  0 
 14 16  1  0  0  0  0 
 15 17  3  0  0  0  0 
 16 18  1  0  0  0  0 
 16 19  1  0  0  0  0 
 18 20  2  0  0  0  0 
 19 21  2  0  0  0  0 
 20 21  1  0  0  0  0 
  4 22  1  0  0  0  0 
  5 23  1  0  0  0  0 
  6 24  1  0  0  0  0 
  8 25  1  0  0  0  0 
 10 26  1  0  0  0  0 
 10 27  1  0  0  0  0 
 18 28  1  0  0  0  0 
 19 29  1  0  0  0  0 
 20 30  1  0  0  0  0 
M  END
> <cdk:Title>
luliconazole

> <Conformer>
1

> <SuperDrugID>
SD003775

$$$$
