dyclonine
  CDK     0628171802

 48 49  0  0  0  0  0  0  0  0999 V2000
   -0.3294    2.8902    3.3101 C   0  0  0  0  0  0  0  0  0  0  0  0
   -1.3474    2.7326    2.2318 C   0  0  2  0  0  0  0  0  0  0  0  0
    0.4208    3.8932    3.2121 O   0  0  0  0  0  0  0  0  0  0  0  0
   -0.1684    2.0085    4.4326 C   0  0  0  0  0  0  0  0  0  0  0  0
   -1.1512    1.4652    1.3533 C   0  0  2  0  0  0  0  0  0  0  0  0
   -1.1302    1.0177    4.7594 C   0  0  0  0  0  0  0  0  0  0  0  0
    0.9659    2.1089    5.2853 C   0  0  0  0  0  0  0  0  0  0  0  0
    0.2290    1.2793    0.7880 N   0  0  2  0  0  0  0  0  0  0  0  0
   -0.9773    0.1792    5.8772 C   0  0  0  0  0  0  0  0  0  0  0  0
    1.1040    1.2965    6.4291 C   0  0  0  0  0  0  0  0  0  0  0  0
    0.5783    2.2946   -0.2620 C   0  0  2  0  0  0  0  0  0  0  0  0
    0.4445   -0.1322    0.3248 C   0  0  1  0  0  0  0  0  0  0  0  0
    0.1231    0.3360    6.7409 C   0  0  0  0  0  0  0  0  0  0  0  0
    2.0048    2.0939   -0.8340 C   0  0  2  0  0  0  0  0  0  0  0  0
    1.8658   -0.3734   -0.2404 C   0  0  1  0  0  0  0  0  0  0  0  0
    0.2287   -0.4430    7.8667 O   0  0  0  0  0  0  0  0  0  0  0  0
    2.1980    0.6493   -1.3503 C   0  0  1  0  0  0  0  0  0  0  0  0
   -0.5894    0.0421    8.9536 C   0  0  2  0  0  0  0  0  0  0  0  0
   -0.5343   -0.9390   10.1509 C   0  0  1  0  0  0  0  0  0  0  0  0
   -1.4227   -0.4519   11.3301 C   0  0  1  0  0  0  0  0  0  0  0  0
   -1.4050   -1.3825   12.5625 C   0  0  0  0  0  0  0  0  0  0  0  0
   -1.3380    3.6100    1.5796 H   0  0  0  0  0  0  0  0  0  0  0  0
   -2.3447    2.7072    2.6803 H   0  0  0  0  0  0  0  0  0  0  0  0
   -1.8850    1.4893    0.5408 H   0  0  0  0  0  0  0  0  0  0  0  0
   -1.4128    0.6043    1.9711 H   0  0  0  0  0  0  0  0  0  0  0  0
   -1.9726    0.8944    4.1990 H   0  0  0  0  0  0  0  0  0  0  0  0
    1.7093    2.7841    5.0902 H   0  0  0  0  0  0  0  0  0  0  0  0
   -1.6825   -0.5392    6.0702 H   0  0  0  0  0  0  0  0  0  0  0  0
    1.9137    1.4138    7.0404 H   0  0  0  0  0  0  0  0  0  0  0  0
    0.5390    3.3008    0.1606 H   0  0  0  0  0  0  0  0  0  0  0  0
   -0.1397    2.2521   -1.0880 H   0  0  0  0  0  0  0  0  0  0  0  0
    0.3105   -0.8180    1.1658 H   0  0  0  0  0  0  0  0  0  0  0  0
   -0.2907   -0.3942   -0.4418 H   0  0  0  0  0  0  0  0  0  0  0  0
    2.7475    2.3099   -0.0595 H   0  0  0  0  0  0  0  0  0  0  0  0
    2.1625    2.7941   -1.6588 H   0  0  0  0  0  0  0  0  0  0  0  0
    2.6024   -0.2987    0.5657 H   0  0  0  0  0  0  0  0  0  0  0  0
    1.9203   -1.3838   -0.6532 H   0  0  0  0  0  0  0  0  0  0  0  0
    1.5361    0.4816   -2.2033 H   0  0  0  0  0  0  0  0  0  0  0  0
    3.2277    0.5088   -1.6892 H   0  0  0  0  0  0  0  0  0  0  0  0
   -1.6349    0.1391    8.6402 H   0  0  0  0  0  0  0  0  0  0  0  0
   -0.2307    1.0237    9.2806 H   0  0  0  0  0  0  0  0  0  0  0  0
   -0.8750   -1.9245    9.8195 H   0  0  0  0  0  0  0  0  0  0  0  0
    0.5026   -1.0337   10.4854 H   0  0  0  0  0  0  0  0  0  0  0  0
   -1.0845    0.5392   11.6446 H   0  0  0  0  0  0  0  0  0  0  0  0
   -2.4568   -0.3611   10.9855 H   0  0  0  0  0  0  0  0  0  0  0  0
   -1.7919   -2.3694   12.3049 H   0  0  0  0  0  0  0  0  0  0  0  0
   -0.3914   -1.4855   12.9522 H   0  0  0  0  0  0  0  0  0  0  0  0
   -2.0357   -0.9558   13.3442 H   0  0  0  0  0  0  0  0  0  0  0  0
  1  2  1  0  0  0  0 
  1  3  2  0  0  0  0 
  1  4  1  0  0  0  0 
  2  5  1  0  0  0  0 
  4  6  2  0  0  0  0 
  4  7  1  0  0  0  0 
  5  8  1  0  0  0  0 
  6  9  1  0  0  0  0 
  7 10  2  0  0  0  0 
  8 11  1  0  0  0  0 
  8 12  1  0  0  0  0 
  9 13  2  0  0  0  0 
 10 13  1  0  0  0  0 
 11 14  1  0  0  0  0 
 12 15  1  0  0  0  0 
 13 16  1  0  0  0  0 
 14 17  1  0  0  0  0 
 15 17  1  0  0  0  0 
 16 18  1  0  0  0  0 
 18 19  1  0  0  0  0 
 19 20  1  0  0  0  0 
 20 21  1  0  0  0  0 
 22  2  1  0  0  0  0 
 23  2  1  0  0  0  0 
 24  5  1  0  0  0  0 
 25  5  1  0  0  0  0 
 26  6  1  0  0  0  0 
 27  7  1  0  0  0  0 
 28  9  1  0  0  0  0 
 29 10  1  0  0  0  0 
 30 11  1  0  0  0  0 
 31 11  1  0  0  0  0 
 32 12  1  0  0  0  0 
 33 12  1  0  0  0  0 
 34 14  1  0  0  0  0 
 35 14  1  0  0  0  0 
 36 15  1  0  0  0  0 
 37 15  1  0  0  0  0 
 38 17  1  0  0  0  0 
 39 17  1  0  0  0  0 
 40 18  1  0  0  0  0 
 41 18  1  0  0  0  0 
 42 19  1  0  0  0  0 
 43 19  1  0  0  0  0 
 44 20  1  0  0  0  0 
 45 20  1  0  0  0  0 
 46 21  1  0  0  0  0 
 47 21  1  0  0  0  0 
 48 21  1  0  0  0  0 
M  END
> <cdk:Title>
dyclonine

> <Conformer>
1

> <SuperDrugID>
SD000864

$$$$
