pamaquine
  CDK     0628171801

 52 53  0  0  0  0  0  0  0  0999 V2000
    7.7164    2.4879    0.3103 N   0  0  0  0  0  0  0  0  0  0  0  0
    7.7317    2.8781    1.6971 C   0  0  2  0  0  0  0  0  0  0  0  0
    7.1541    1.3745   -0.2689 C   0  0  0  0  0  0  0  0  0  0  0  0
    7.7046    4.4321    1.8226 C   0  0  1  0  0  0  0  0  0  0  0  0
    8.9818    2.2746    2.3884 C   0  0  0  0  0  0  0  0  0  0  0  0
    7.2997    1.1914   -1.6682 C   0  0  0  0  0  0  0  0  0  0  0  0
    6.4478    0.3888    0.4609 C   0  0  0  0  0  0  0  0  0  0  0  0
    6.3851    5.0537    1.2887 C   0  0  2  0  0  0  0  0  0  0  0  0
    6.7792    0.0312   -2.3131 C   0  0  0  0  0  0  0  0  0  0  0  0
    7.9515    2.1183   -2.4254 N   0  0  0  0  0  0  0  0  0  0  0  0
    5.9217   -0.7564   -0.1663 C   0  0  0  0  0  0  0  0  0  0  0  0
    6.2393    6.5777    1.5639 C   0  0  1  0  0  0  0  0  0  0  0  0
    6.0902   -0.9356   -1.5519 C   0  0  0  0  0  0  0  0  0  0  0  0
    6.9695   -0.1179   -3.7065 C   0  0  0  0  0  0  0  0  0  0  0  0
    8.1366    2.0027   -3.7636 C   0  0  0  0  0  0  0  0  0  0  0  0
    5.2401   -1.6904    0.5660 O   0  0  0  0  0  0  0  0  0  0  0  0
    7.3373    7.4590    1.0249 N   0  0  1  0  0  0  0  0  0  0  0  0
    7.6446    0.8750   -4.4391 C   0  0  0  0  0  0  0  0  0  0  0  0
    6.1130   -2.6337    1.2111 C   0  0  0  0  0  0  0  0  0  0  0  0
    7.4026    7.5201   -0.4810 C   0  0  2  0  0  0  0  0  0  0  0  0
    7.3456    8.8077    1.6972 C   0  0  2  0  0  0  0  0  0  0  0  0
    8.8284    7.2478   -1.0106 C   0  0  0  0  0  0  0  0  0  0  0  0
    8.6116    9.6601    1.4510 C   0  0  0  0  0  0  0  0  0  0  0  0
    8.1936    3.0814   -0.2898 H   0  0  0  0  0  0  0  0  0  0  0  0
    6.8512    2.5069    2.2283 H   0  0  0  0  0  0  0  0  0  0  0  0
    7.8077    4.7057    2.8756 H   0  0  0  0  0  0  0  0  0  0  0  0
    8.5555    4.8606    1.2900 H   0  0  0  0  0  0  0  0  0  0  0  0
    8.9379    1.1828    2.3634 H   0  0  0  0  0  0  0  0  0  0  0  0
    9.8948    2.6027    1.8850 H   0  0  0  0  0  0  0  0  0  0  0  0
    9.0248    2.5840    3.4364 H   0  0  0  0  0  0  0  0  0  0  0  0
    6.3135    0.4781    1.4661 H   0  0  0  0  0  0  0  0  0  0  0  0
    5.5408    4.5491    1.7715 H   0  0  0  0  0  0  0  0  0  0  0  0
    6.3044    4.8601    0.2186 H   0  0  0  0  0  0  0  0  0  0  0  0
    5.2737    6.9102    1.1649 H   0  0  0  0  0  0  0  0  0  0  0  0
    6.1796    6.6774    2.6534 H   0  0  0  0  0  0  0  0  0  0  0  0
    5.7058   -1.7731   -1.9997 H   0  0  0  0  0  0  0  0  0  0  0  0
    6.6184   -0.9441   -4.1995 H   0  0  0  0  0  0  0  0  0  0  0  0
    8.6339    2.7361   -4.2712 H   0  0  0  0  0  0  0  0  0  0  0  0
    7.7739    0.7800   -5.4486 H   0  0  0  0  0  0  0  0  0  0  0  0
    5.4947   -3.3615    1.7359 H   0  0  0  0  0  0  0  0  0  0  0  0
    6.7258   -3.1686    0.4815 H   0  0  0  0  0  0  0  0  0  0  0  0
    6.7607   -2.1448    1.9441 H   0  0  0  0  0  0  0  0  0  0  0  0
    7.0572    8.4896   -0.8534 H   0  0  0  0  0  0  0  0  0  0  0  0
    6.7526    6.7762   -0.9453 H   0  0  0  0  0  0  0  0  0  0  0  0
    7.2863    8.6766    2.7824 H   0  0  0  0  0  0  0  0  0  0  0  0
    6.4651    9.3839    1.3921 H   0  0  0  0  0  0  0  0  0  0  0  0
    8.8312    7.3014   -2.1018 H   0  0  0  0  0  0  0  0  0  0  0  0
    9.1619    6.2538   -0.7109 H   0  0  0  0  0  0  0  0  0  0  0  0
    9.5408    7.9796   -0.6329 H   0  0  0  0  0  0  0  0  0  0  0  0
    8.5762   10.5613    2.0652 H   0  0  0  0  0  0  0  0  0  0  0  0
    8.6725    9.9686    0.4073 H   0  0  0  0  0  0  0  0  0  0  0  0
    9.5064    9.0934    1.7155 H   0  0  0  0  0  0  0  0  0  0  0  0
  2  1  1  0  0  0  0 
  1  3  1  0  0  0  0 
  2  4  1  0  0  0  0 
  2  5  1  0  0  0  0 
  3  6  2  0  0  0  0 
  3  7  1  0  0  0  0 
  4  8  1  0  0  0  0 
  6  9  1  0  0  0  0 
  6 10  1  0  0  0  0 
  7 11  2  0  0  0  0 
  8 12  1  0  0  0  0 
  9 13  2  0  0  0  0 
  9 14  1  0  0  0  0 
 10 15  2  0  0  0  0 
 11 13  1  0  0  0  0 
 11 16  1  0  0  0  0 
 12 17  1  0  0  0  0 
 14 18  2  0  0  0  0 
 15 18  1  0  0  0  0 
 16 19  1  0  0  0  0 
 17 20  1  0  0  0  0 
 17 21  1  0  0  0  0 
 20 22  1  0  0  0  0 
 21 23  1  0  0  0  0 
  1 24  1  0  0  0  0 
  2 25  1  0  0  0  0 
  4 26  1  0  0  0  0 
  4 27  1  0  0  0  0 
  5 28  1  0  0  0  0 
  5 29  1  0  0  0  0 
  5 30  1  0  0  0  0 
  7 31  1  0  0  0  0 
  8 32  1  0  0  0  0 
  8 33  1  0  0  0  0 
 12 34  1  0  0  0  0 
 12 35  1  0  0  0  0 
 13 36  1  0  0  0  0 
 14 37  1  0  0  0  0 
 15 38  1  0  0  0  0 
 18 39  1  0  0  0  0 
 19 40  1  0  0  0  0 
 19 41  1  0  0  0  0 
 19 42  1  0  0  0  0 
 20 43  1  0  0  0  0 
 20 44  1  0  0  0  0 
 21 45  1  0  0  0  0 
 21 46  1  0  0  0  0 
 22 47  1  0  0  0  0 
 22 48  1  0  0  0  0 
 22 49  1  0  0  0  0 
 23 50  1  0  0  0  0 
 23 51  1  0  0  0  0 
 23 52  1  0  0  0  0 
M  END
> <cdk:Title>
pamaquine

> <Conformer>
1

> <SuperDrugID>
SD002942

$$$$
