salmeterol
  CDK     0628171801

 67 68  0  0  0  0  0  0  0  0999 V2000
    7.9772   -3.8109   12.9712 C   0  0  1  0  0  0  0  0  0  0  0  0
    6.6537   -4.2236   12.2837 C   0  0  2  0  0  0  0  0  0  0  0  0
    7.9082   -2.4674   13.4495 O   0  0  0  0  0  0  0  0  0  0  0  0
    8.3096   -4.7521   14.0820 C   0  0  0  0  0  0  0  0  0  0  0  0
    6.3645   -3.3688   11.1109 N   0  0  1  0  0  0  0  0  0  0  0  0
    7.6539   -4.6855   15.3364 C   0  0  0  0  0  0  0  0  0  0  0  0
    9.2808   -5.7580   13.8864 C   0  0  0  0  0  0  0  0  0  0  0  0
    5.1792   -3.8184   10.3469 C   0  0  1  0  0  0  0  0  0  0  0  0
    7.9914   -5.5605   16.3980 C   0  0  0  0  0  0  0  0  0  0  0  0
    9.6210   -6.6410   14.9246 C   0  0  0  0  0  0  0  0  0  0  0  0
    4.8753   -2.8449    9.1857 C   0  0  1  0  0  0  0  0  0  0  0  0
    7.3161   -5.4320   17.7143 C   0  0  1  0  0  0  0  0  0  0  0  0
    9.0023   -6.5296   16.1817 C   0  0  0  0  0  0  0  0  0  0  0  0
    3.6719   -3.3061    8.3178 C   0  0  1  0  0  0  0  0  0  0  0  0
    8.0081   -4.4642   18.4941 O   0  0  0  0  0  0  0  0  0  0  0  0
    9.4199   -7.3706   17.1628 O   0  0  0  0  0  0  0  0  0  0  0  0
    3.3564   -2.3164    7.1650 C   0  0  1  0  0  0  0  0  0  0  0  0
    2.1618   -2.7553    6.2726 C   0  0  2  0  0  0  0  0  0  0  0  0
    1.8780   -1.7305    5.1476 C   0  0  2  0  0  0  0  0  0  0  0  0
    0.7467   -2.1323    4.3443 O   0  0  0  0  0  0  0  0  0  0  0  0
    0.4416   -1.2024    3.2797 C   0  0  2  0  0  0  0  0  0  0  0  0
   -0.8255   -1.6461    2.5111 C   0  0  1  0  0  0  0  0  0  0  0  0
   -1.1640   -0.7059    1.3213 C   0  0  1  0  0  0  0  0  0  0  0  0
   -2.5804   -0.9612    0.7331 C   0  0  1  0  0  0  0  0  0  0  0  0
   -2.8699   -0.1502   -0.4844 C   0  0  0  0  0  0  0  0  0  0  0  0
   -3.1131   -0.7613   -1.7396 C   0  0  0  0  0  0  0  0  0  0  0  0
   -2.9284    1.2612   -0.4046 C   0  0  0  0  0  0  0  0  0  0  0  0
   -3.3945    0.0179   -2.8791 C   0  0  0  0  0  0  0  0  0  0  0  0
   -3.2117    2.0417   -1.5400 C   0  0  0  0  0  0  0  0  0  0  0  0
   -3.4440    1.4192   -2.7779 C   0  0  0  0  0  0  0  0  0  0  0  0
    8.7703   -3.8229   12.2158 H   0  0  0  0  0  0  0  0  0  0  0  0
    5.8297   -4.1499   12.9990 H   0  0  0  0  0  0  0  0  0  0  0  0
    6.7434   -5.2645   11.9569 H   0  0  0  0  0  0  0  0  0  0  0  0
    7.7629   -1.9148   12.6513 H   0  0  0  0  0  0  0  0  0  0  0  0
    6.1613   -2.4318   11.4681 H   0  0  0  0  0  0  0  0  0  0  0  0
    6.9242   -3.9830   15.4804 H   0  0  0  0  0  0  0  0  0  0  0  0
    9.7474   -5.8565   12.9811 H   0  0  0  0  0  0  0  0  0  0  0  0
    5.3717   -4.8145    9.9383 H   0  0  0  0  0  0  0  0  0  0  0  0
    4.3110   -3.8683   11.0094 H   0  0  0  0  0  0  0  0  0  0  0  0
   10.3284   -7.3620   14.7636 H   0  0  0  0  0  0  0  0  0  0  0  0
    4.6613   -1.8582    9.6048 H   0  0  0  0  0  0  0  0  0  0  0  0
    5.7646   -2.7630    8.5547 H   0  0  0  0  0  0  0  0  0  0  0  0
    6.2803   -5.1094   17.5936 H   0  0  0  0  0  0  0  0  0  0  0  0
    7.3018   -6.3819   18.2565 H   0  0  0  0  0  0  0  0  0  0  0  0
    3.8969   -4.2882    7.8932 H   0  0  0  0  0  0  0  0  0  0  0  0
    2.7885   -3.4031    8.9553 H   0  0  0  0  0  0  0  0  0  0  0  0
    7.5074   -4.4122   19.3351 H   0  0  0  0  0  0  0  0  0  0  0  0
    9.3230   -6.8620   17.9962 H   0  0  0  0  0  0  0  0  0  0  0  0
    3.1329   -1.3378    7.5992 H   0  0  0  0  0  0  0  0  0  0  0  0
    4.2465   -2.2133    6.5382 H   0  0  0  0  0  0  0  0  0  0  0  0
    1.2670   -2.8597    6.8916 H   0  0  0  0  0  0  0  0  0  0  0  0
    2.3808   -3.7268    5.8216 H   0  0  0  0  0  0  0  0  0  0  0  0
    2.7690   -1.6459    4.5183 H   0  0  0  0  0  0  0  0  0  0  0  0
    1.6767   -0.7591    5.6089 H   0  0  0  0  0  0  0  0  0  0  0  0
    1.2820   -1.1479    2.5798 H   0  0  0  0  0  0  0  0  0  0  0  0
    0.2584   -0.2064    3.6958 H   0  0  0  0  0  0  0  0  0  0  0  0
   -0.6756   -2.6597    2.1316 H   0  0  0  0  0  0  0  0  0  0  0  0
   -1.6641   -1.6668    3.2112 H   0  0  0  0  0  0  0  0  0  0  0  0
   -1.1023    0.3318    1.6566 H   0  0  0  0  0  0  0  0  0  0  0  0
   -0.4152   -0.8456    0.5379 H   0  0  0  0  0  0  0  0  0  0  0  0
   -2.6768   -2.0274    0.5128 H   0  0  0  0  0  0  0  0  0  0  0  0
   -3.3314   -0.7200    1.4909 H   0  0  0  0  0  0  0  0  0  0  0  0
   -3.0865   -1.7801   -1.8304 H   0  0  0  0  0  0  0  0  0  0  0  0
   -2.7675    1.7325    0.4866 H   0  0  0  0  0  0  0  0  0  0  0  0
   -3.5613   -0.4316   -3.7832 H   0  0  0  0  0  0  0  0  0  0  0  0
   -3.2491    3.0600   -1.4646 H   0  0  0  0  0  0  0  0  0  0  0  0
   -3.6460    1.9839   -3.6043 H   0  0  0  0  0  0  0  0  0  0  0  0
  1  2  1  0  0  0  0 
  1  3  1  0  0  0  0 
  1  4  1  0  0  0  0 
  2  5  1  0  0  0  0 
  4  6  2  0  0  0  0 
  4  7  1  0  0  0  0 
  5  8  1  0  0  0  0 
  6  9  1  0  0  0  0 
  7 10  2  0  0  0  0 
  8 11  1  0  0  0  0 
  9 12  1  0  0  0  0 
  9 13  2  0  0  0  0 
 10 13  1  0  0  0  0 
 11 14  1  0  0  0  0 
 12 15  1  0  0  0  0 
 13 16  1  0  0  0  0 
 14 17  1  0  0  0  0 
 17 18  1  0  0  0  0 
 18 19  1  0  0  0  0 
 19 20  1  0  0  0  0 
 20 21  1  0  0  0  0 
 21 22  1  0  0  0  0 
 22 23  1  0  0  0  0 
 23 24  1  0  0  0  0 
 24 25  1  0  0  0  0 
 25 26  2  0  0  0  0 
 25 27  1  0  0  0  0 
 26 28  1  0  0  0  0 
 27 29  2  0  0  0  0 
 28 30  2  0  0  0  0 
 29 30  1  0  0  0  0 
  1 31  1  0  0  0  0 
  2 32  1  0  0  0  0 
  2 33  1  0  0  0  0 
  3 34  1  0  0  0  0 
  5 35  1  0  0  0  0 
  6 36  1  0  0  0  0 
  7 37  1  0  0  0  0 
  8 38  1  0  0  0  0 
  8 39  1  0  0  0  0 
 10 40  1  0  0  0  0 
 11 41  1  0  0  0  0 
 11 42  1  0  0  0  0 
 12 43  1  0  0  0  0 
 12 44  1  0  0  0  0 
 14 45  1  0  0  0  0 
 14 46  1  0  0  0  0 
 15 47  1  0  0  0  0 
 16 48  1  0  0  0  0 
 17 49  1  0  0  0  0 
 17 50  1  0  0  0  0 
 18 51  1  0  0  0  0 
 18 52  1  0  0  0  0 
 19 53  1  0  0  0  0 
 19 54  1  0  0  0  0 
 21 55  1  0  0  0  0 
 21 56  1  0  0  0  0 
 22 57  1  0  0  0  0 
 22 58  1  0  0  0  0 
 23 59  1  0  0  0  0 
 23 60  1  0  0  0  0 
 24 61  1  0  0  0  0 
 24 62  1  0  0  0  0 
 26 63  1  0  0  0  0 
 27 64  1  0  0  0  0 
 28 65  1  0  0  0  0 
 29 66  1  0  0  0  0 
 30 67  1  0  0  0  0 
M  END
> <cdk:Title>
salmeterol

> <Conformer>
1

> <SuperDrugID>
SD002177

$$$$
