zonisamide
  CDK     0628171801

 22 23  0  0  0  0  0  0  0  0999 V2000
   -0.2451    1.7323    1.0905 C   0  0  1  0  0  0  0  0  0  0  0  0
    1.4757    2.0600    0.5534 S   0  0  2  0  0  0  0  0  0  0  0  0
   -0.9587    0.8446    0.1543 C   0  0  0  0  0  0  0  0  0  0  0  0
    2.4719    2.3525    1.9695 N   0  0  2  0  0  0  0  0  0  0  0  0
    1.5458    3.3540   -0.3901 O   0  0  0  0  0  0  0  0  0  0  0  0
    2.0667    0.7909   -0.2265 O   0  0  0  0  0  0  0  0  0  0  0  0
   -1.2835    1.0535   -1.1823 C   0  0  0  0  0  0  0  0  0  0  0  0
   -1.4128   -0.3843    0.4746 N   0  0  0  0  0  0  0  0  0  0  0  0
   -1.9010   -0.1191   -1.6012 C   0  0  0  0  0  0  0  0  0  0  0  0
   -1.1005    2.1324   -2.0683 C   0  0  0  0  0  0  0  0  0  0  0  0
   -1.9738   -0.9680   -0.5549 O   0  0  0  0  0  0  0  0  0  0  0  0
   -2.3338   -0.2837   -2.9266 C   0  0  0  0  0  0  0  0  0  0  0  0
   -1.5278    1.9822   -3.4055 C   0  0  0  0  0  0  0  0  0  0  0  0
   -2.1308    0.7770   -3.8352 C   0  0  0  0  0  0  0  0  0  0  0  0
   -0.1948    1.2566    2.0711 H   0  0  0  0  0  0  0  0  0  0  0  0
   -0.7870    2.6711    1.2036 H   0  0  0  0  0  0  0  0  0  0  0  0
    2.1136    3.1998    2.4119 H   0  0  0  0  0  0  0  0  0  0  0  0
    3.4113    2.5675    1.6315 H   0  0  0  0  0  0  0  0  0  0  0  0
   -0.6713    3.0045   -1.7581 H   0  0  0  0  0  0  0  0  0  0  0  0
   -2.7825   -1.1512   -3.2230 H   0  0  0  0  0  0  0  0  0  0  0  0
   -1.4025    2.7477   -4.0701 H   0  0  0  0  0  0  0  0  0  0  0  0
   -2.4270    0.6725   -4.8080 H   0  0  0  0  0  0  0  0  0  0  0  0
  1  2  1  0  0  0  0 
  1  3  1  0  0  0  0 
  2  4  1  0  0  0  0 
  2  5  2  0  0  0  0 
  2  6  2  0  0  0  0 
  3  7  1  0  0  0  0 
  3  8  2  0  0  0  0 
  7  9  1  0  0  0  0 
  7 10  2  0  0  0  0 
  8 11  1  0  0  0  0 
  9 11  1  0  0  0  0 
  9 12  2  0  0  0  0 
 10 13  1  0  0  0  0 
 12 14  1  0  0  0  0 
 13 14  2  0  0  0  0 
  1 15  1  0  0  0  0 
  1 16  1  0  0  0  0 
  4 17  1  0  0  0  0 
  4 18  1  0  0  0  0 
 10 19  1  0  0  0  0 
 12 20  1  0  0  0  0 
 13 21  1  0  0  0  0 
 14 22  1  0  0  0  0 
M  END
> <cdk:Title>
zonisamide

> <Conformer>
1

> <SuperDrugID>
SD002588

$$$$
