afamelanotide
  CDK     0628171802

229234  0  0  0  0  0  0  0  0999 V2000
  -10.7500    2.2288   -5.2938 C   0  0  0  0  0  0  0  0  0  0  0  0
  -10.0709    2.8618   -6.2887 N   0  0  0  0  0  0  0  0  0  0  0  0
   -7.6731    3.3749   -7.8168 N   0  0  0  0  0  0  0  0  0  0  0  0
   -4.6341    4.3288   -6.5181 N   0  0  0  0  0  0  0  0  0  0  0  0
   -2.0880    3.9130   -4.7860 N   0  0  0  0  0  0  0  0  0  0  0  0
   -3.7723    2.2736   -2.4614 N   0  0  0  0  0  0  0  0  0  0  0  0
   -5.7633    0.4646   -1.4915 N   0  0  0  0  0  0  0  0  0  0  0  0
   -6.9873   -2.5391   -1.5910 N   0  0  0  0  0  0  0  0  0  0  0  0
   -4.9550   -3.7260    0.0948 N   0  0  0  0  0  0  0  0  0  0  0  0
   -3.3641   -6.1380    1.4441 N   0  0  0  0  0  0  0  0  0  0  0  0
   -1.6125   -8.5119    2.9394 N   0  0  0  0  0  0  0  0  0  0  0  0
   -0.2263  -11.5843    4.2711 N   0  0  0  0  0  0  0  0  0  0  0  0
   -2.5422  -12.8083    2.5828 N   0  0  0  0  0  0  0  0  0  0  0  0
   -4.1804  -13.4466   -0.6993 N   0  0  0  0  0  0  0  0  0  0  0  0
   -5.7035  -11.1979   -1.7245 N   0  0  0  0  0  0  0  0  0  0  0  0
  -11.3552    1.1478   -5.4865 O   0  0  0  0  0  0  0  0  0  0  0  0
  -10.7706    2.8384   -3.9511 C   0  0  0  0  0  0  0  0  0  0  0  0
   -8.5033    2.3014   -7.9724 C   0  0  0  0  0  0  0  0  0  0  0  0
  -10.6535    3.4449   -8.5637 C   0  0  1  0  0  0  0  0  0  0  0  0
  -12.0498    3.4975   -8.2797 O   0  0  0  0  0  0  0  0  0  0  0  0
   -9.9448    2.4219   -7.6464 C   0  0  2  0  0  0  0  0  0  0  0  0
   -8.0660    1.2083   -8.4008 O   0  0  0  0  0  0  0  0  0  0  0  0
   -5.6743    4.5513   -7.3717 C   0  0  0  0  0  0  0  0  0  0  0  0
   -6.0260    3.5477   -9.6595 C   0  0  2  0  0  0  0  0  0  0  0  0
   -4.6007    3.3629  -10.0648 C   0  0  0  0  0  0  0  0  0  0  0  0
   -3.8605    4.4202  -10.6457 C   0  0  0  0  0  0  0  0  0  0  0  0
   -2.5289    4.2243  -11.0550 C   0  0  0  0  0  0  0  0  0  0  0  0
   -1.9142    2.9702  -10.8887 C   0  0  0  0  0  0  0  0  0  0  0  0
   -0.6383    2.7697  -11.3077 O   0  0  0  0  0  0  0  0  0  0  0  0
   -2.6285    1.9159  -10.2898 C   0  0  0  0  0  0  0  0  0  0  0  0
   -3.9660    2.1081   -9.8952 C   0  0  0  0  0  0  0  0  0  0  0  0
   -6.2704    3.4173   -8.1235 C   0  0  2  0  0  0  0  0  0  0  0  0
   -6.1608    5.6980   -7.5164 O   0  0  0  0  0  0  0  0  0  0  0  0
   -2.6956    5.0441   -5.2391 C   0  0  0  0  0  0  0  0  0  0  0  0
   -5.0447    5.1891   -4.2762 C   0  0  2  0  0  0  0  0  0  0  0  0
   -4.5047    5.9477   -3.1966 O   0  0  0  0  0  0  0  0  0  0  0  0
   -4.1414    5.2541   -5.5396 C   0  0  2  0  0  0  0  0  0  0  0  0
   -1.9130    6.0102   -5.3946 O   0  0  0  0  0  0  0  0  0  0  0  0
   -2.5964    2.3002   -3.1454 C   0  0  0  0  0  0  0  0  0  0  0  0
   -2.6389    2.6073   -4.5956 C   0  0  2  0  0  0  0  0  0  0  0  0
   -1.8318    1.6353   -5.5016 C   0  0  1  0  0  0  0  0  0  0  0  0
   -1.4980    2.1129   -2.5690 O   0  0  0  0  0  0  0  0  0  0  0  0
   -2.3864    0.1863   -5.5600 C   0  0  1  0  0  0  0  0  0  0  0  0
   -1.4779   -0.7406   -6.4138 C   0  0  2  0  0  0  0  0  0  0  0  0
   -2.0065   -2.1860   -6.5438 C   0  0  0  0  0  0  0  0  0  0  0  0
   -5.3861    1.6456   -0.9235 C   0  0  0  0  0  0  0  0  0  0  0  0
   -3.5476    3.3369   -0.2561 C   0  0  1  0  0  0  0  0  0  0  0  0
   -3.5017    3.1082    1.2802 C   0  0  1  0  0  0  0  0  0  0  0  0
   -3.2373    4.3435    2.0451 C   0  0  0  0  0  0  0  0  0  0  0  0
   -4.1670    4.8330    2.8996 O   0  0  0  0  0  0  0  0  0  0  0  0
   -2.1447    4.9453    1.9380 O   0  0  0  0  0  0  0  0  0  0  0  0
   -3.9609    2.0600   -1.0598 C   0  0  2  0  0  0  0  0  0  0  0  0
   -6.2298    2.3815   -0.3567 O   0  0  0  0  0  0  0  0  0  0  0  0
   -7.1354   -1.3635   -0.9141 C   0  0  0  0  0  0  0  0  0  0  0  0
   -7.4456   -0.0988   -3.1396 C   0  0  1  0  0  0  0  0  0  0  0  0
   -8.7294   -0.7573   -3.4675 C   0  0  0  0  0  0  0  0  0  0  0  0
   -9.9994   -0.4563   -2.9864 C   0  0  0  0  0  0  0  0  0  0  0  0
  -10.8970   -1.2748   -3.5560 N   0  0  0  0  0  0  0  0  0  0  0  0
  -10.2003   -2.0768   -4.3781 C   0  0  0  0  0  0  0  0  0  0  0  0
   -8.8949   -1.7792   -4.3178 N   0  0  0  0  0  0  0  0  0  0  0  0
   -7.0928   -0.0581   -1.6200 C   0  0  2  0  0  0  0  0  0  0  0  0
   -7.2889   -1.3541    0.3311 O   0  0  0  0  0  0  0  0  0  0  0  0
   -5.6974   -4.3518   -0.8571 C   0  0  0  0  0  0  0  0  0  0  0  0
   -7.9854   -4.7132   -1.9933 C   0  0  2  0  0  0  0  0  0  0  0  0
   -8.3477   -6.0422   -1.4231 C   0  0  0  0  0  0  0  0  0  0  0  0
   -9.1496   -6.1337   -0.2580 C   0  0  0  0  0  0  0  0  0  0  0  0
   -9.4603   -7.3850    0.3062 C   0  0  0  0  0  0  0  0  0  0  0  0
   -8.9974   -8.5645   -0.3017 C   0  0  0  0  0  0  0  0  0  0  0  0
   -8.2311   -8.4878   -1.4776 C   0  0  0  0  0  0  0  0  0  0  0  0
   -7.9005   -7.2384   -2.0313 C   0  0  0  0  0  0  0  0  0  0  0  0
   -7.0837   -3.8616   -1.0463 C   0  0  2  0  0  0  0  0  0  0  0  0
   -5.2218   -5.2845   -1.5486 O   0  0  0  0  0  0  0  0  0  0  0  0
   -3.5449   -4.7932    1.5954 C   0  0  0  0  0  0  0  0  0  0  0  0
   -2.9271   -2.5221    0.5514 C   0  0  2  0  0  0  0  0  0  0  0  0
   -1.3788   -2.5105    0.6641 C   0  0  1  0  0  0  0  0  0  0  0  0
   -0.8266   -1.0614    0.6918 C   0  0  2  0  0  0  0  0  0  0  0  0
    0.5578   -1.0513    0.5405 N   0  0  0  0  0  0  0  0  0  0  0  0
    1.3293   -0.0275    0.4435 C   0  0  0  0  0  0  0  0  0  0  0  0
    0.9028    1.2223    0.4797 N   0  0  0  0  0  0  0  0  0  0  0  0
    2.6151   -0.2363    0.2818 N   0  0  0  0  0  0  0  0  0  0  0  0
   -3.5729   -3.9323    0.3906 C   0  0  2  0  0  0  0  0  0  0  0  0
   -3.8012   -4.2920    2.7175 O   0  0  0  0  0  0  0  0  0  0  0  0
   -2.7133   -8.2917    2.1661 C   0  0  0  0  0  0  0  0  0  0  0  0
   -5.1360   -7.4700    2.4666 C   0  0  1  0  0  0  0  0  0  0  0  0
   -5.5474   -8.2385    3.7129 C   0  0  0  0  0  0  0  0  0  0  0  0
   -6.1432   -9.4999    3.7025 C   0  0  0  0  0  0  0  0  0  0  0  0
   -6.4218   -9.8773    4.9602 N   0  0  0  0  0  0  0  0  0  0  0  0
   -6.0441   -8.9013    5.7961 C   0  0  0  0  0  0  0  0  0  0  0  0
   -5.5037   -7.8497    5.0533 C   0  0  0  0  0  0  0  0  0  0  0  0
   -5.0687   -6.6719    5.6925 C   0  0  0  0  0  0  0  0  0  0  0  0
   -5.1551   -6.5975    7.0987 C   0  0  0  0  0  0  0  0  0  0  0  0
   -5.6887   -7.6733    7.8433 C   0  0  0  0  0  0  0  0  0  0  0  0
   -6.1459   -8.8373    7.1937 C   0  0  0  0  0  0  0  0  0  0  0  0
   -3.5782   -7.1218    2.4633 C   0  0  2  0  0  0  0  0  0  0  0  0
   -2.9820   -9.0271    1.1872 O   0  0  0  0  0  0  0  0  0  0  0  0
   -0.3889  -10.2435    4.0699 C   0  0  0  0  0  0  0  0  0  0  0  0
   -0.6205   -9.5366    2.7869 C   0  0  2  0  0  0  0  0  0  0  0  0
   -0.2945   -9.5525    5.1113 O   0  0  0  0  0  0  0  0  0  0  0  0
   -1.1801  -12.8327    2.3291 C   0  0  0  0  0  0  0  0  0  0  0  0
    0.5882  -16.5489    4.0949 C   0  0  1  0  0  0  0  0  0  0  0  0
    0.2868  -15.2782    3.2568 C   0  0  1  0  0  0  0  0  0  0  0  0
    0.1522  -13.9860    4.1192 C   0  0  2  0  0  0  0  0  0  0  0  0
   -0.0814  -12.6563    3.3246 C   0  0  2  0  0  0  0  0  0  0  0  0
    0.9052  -19.0095    4.0580 N   0  0  1  0  0  0  0  0  0  0  0  0
    0.6108  -17.8345    3.2311 C   0  0  1  0  0  0  0  0  0  0  0  0
   -0.7811  -13.1200    1.1730 O   0  0  0  0  0  0  0  0  0  0  0  0
   -3.5051  -12.7632    0.2644 C   0  0  0  0  0  0  0  0  0  0  0  0
   -3.5196  -13.3120    1.6444 C   0  0  2  0  0  0  0  0  0  0  0  0
   -4.8911  -13.0774    2.3172 C   0  0  2  0  0  0  0  0  0  0  0  0
   -4.5441  -13.0115    3.8073 C   0  0  2  0  0  0  0  0  0  0  0  0
   -3.1432  -12.3814    3.8128 C   0  0  1  0  0  0  0  0  0  0  0  0
   -2.8959  -11.6989    0.0054 O   0  0  0  0  0  0  0  0  0  0  0  0
   -5.5111  -12.3866   -2.3241 C   0  0  0  0  0  0  0  0  0  0  0  0
   -3.8914  -14.1409   -4.4651 C   0  0  0  0  0  0  0  0  0  0  0  0
   -4.2445  -13.1266   -2.0960 C   0  0  2  0  0  0  0  0  0  0  0  0
   -5.0023  -15.5890   -2.6638 C   0  0  0  0  0  0  0  0  0  0  0  0
   -4.0001  -14.4289   -2.9399 C   0  0  1  0  0  0  0  0  0  0  0  0
   -6.4342  -12.8042   -3.0581 O   0  0  0  0  0  0  0  0  0  0  0  0
   -9.6356    3.7003   -6.0611 H   0  0  0  0  0  0  0  0  0  0  0  0
   -8.0687    4.1930   -7.4745 H   0  0  0  0  0  0  0  0  0  0  0  0
   -4.2405    3.4453   -6.5350 H   0  0  0  0  0  0  0  0  0  0  0  0
   -1.1392    3.9958   -4.5959 H   0  0  0  0  0  0  0  0  0  0  0  0
   -4.5753    2.4297   -2.9829 H   0  0  0  0  0  0  0  0  0  0  0  0
   -5.0524   -0.0694   -1.8793 H   0  0  0  0  0  0  0  0  0  0  0  0
   -6.8002   -2.4783   -2.5405 H   0  0  0  0  0  0  0  0  0  0  0  0
   -5.4073   -3.0485    0.6221 H   0  0  0  0  0  0  0  0  0  0  0  0
   -3.1451   -6.4597    0.5535 H   0  0  0  0  0  0  0  0  0  0  0  0
   -1.4758   -7.8879    3.6698 H   0  0  0  0  0  0  0  0  0  0  0  0
   -0.1494  -11.8468    5.2028 H   0  0  0  0  0  0  0  0  0  0  0  0
   -4.6660  -14.2341   -0.4095 H   0  0  0  0  0  0  0  0  0  0  0  0
   -6.5283  -10.7144   -1.8691 H   0  0  0  0  0  0  0  0  0  0  0  0
   -5.0208  -10.8237   -1.1454 H   0  0  0  0  0  0  0  0  0  0  0  0
  -11.4144    2.2752   -3.2749 H   0  0  0  0  0  0  0  0  0  0  0  0
  -11.1533    3.8575   -4.0075 H   0  0  0  0  0  0  0  0  0  0  0  0
   -9.7615    2.8611   -3.5342 H   0  0  0  0  0  0  0  0  0  0  0  0
  -10.5228    3.1620   -9.6105 H   0  0  0  0  0  0  0  0  0  0  0  0
  -10.2305    4.4396   -8.4141 H   0  0  0  0  0  0  0  0  0  0  0  0
  -12.3969    4.2118   -8.8567 H   0  0  0  0  0  0  0  0  0  0  0  0
  -10.4325    1.4524   -7.8055 H   0  0  0  0  0  0  0  0  0  0  0  0
   -6.6146    2.7908  -10.1825 H   0  0  0  0  0  0  0  0  0  0  0  0
   -6.4044    4.5168   -9.9995 H   0  0  0  0  0  0  0  0  0  0  0  0
   -4.2836    5.3409  -10.7800 H   0  0  0  0  0  0  0  0  0  0  0  0
   -2.0108    4.9951  -11.4842 H   0  0  0  0  0  0  0  0  0  0  0  0
   -0.4111    3.5597  -11.8443 H   0  0  0  0  0  0  0  0  0  0  0  0
   -2.1829    1.0035  -10.1552 H   0  0  0  0  0  0  0  0  0  0  0  0
   -4.4778    1.3216   -9.4862 H   0  0  0  0  0  0  0  0  0  0  0  0
   -5.8253    2.4850   -7.7629 H   0  0  0  0  0  0  0  0  0  0  0  0
   -6.0324    5.5927   -4.5171 H   0  0  0  0  0  0  0  0  0  0  0  0
   -5.1872    4.1612   -3.9404 H   0  0  0  0  0  0  0  0  0  0  0  0
   -5.1098    5.7781   -2.4433 H   0  0  0  0  0  0  0  0  0  0  0  0
   -4.2411    6.2679   -5.9393 H   0  0  0  0  0  0  0  0  0  0  0  0
   -3.6753    2.5602   -4.9266 H   0  0  0  0  0  0  0  0  0  0  0  0
   -1.8444    2.0372   -6.5209 H   0  0  0  0  0  0  0  0  0  0  0  0
   -0.7888    1.6156   -5.1714 H   0  0  0  0  0  0  0  0  0  0  0  0
   -2.4577   -0.2160   -4.5469 H   0  0  0  0  0  0  0  0  0  0  0  0
   -3.3916    0.2070   -5.9901 H   0  0  0  0  0  0  0  0  0  0  0  0
   -0.4838   -0.7854   -5.9598 H   0  0  0  0  0  0  0  0  0  0  0  0
   -1.3737   -0.3218   -7.4189 H   0  0  0  0  0  0  0  0  0  0  0  0
   -1.2940   -2.7885   -7.1128 H   0  0  0  0  0  0  0  0  0  0  0  0
   -2.1308   -2.6382   -5.5580 H   0  0  0  0  0  0  0  0  0  0  0  0
   -2.9647   -2.1962   -7.0670 H   0  0  0  0  0  0  0  0  0  0  0  0
   -4.2384    4.1524   -0.4909 H   0  0  0  0  0  0  0  0  0  0  0  0
   -2.5502    3.6555   -0.5764 H   0  0  0  0  0  0  0  0  0  0  0  0
   -4.4535    2.6887    1.6120 H   0  0  0  0  0  0  0  0  0  0  0  0
   -2.7156    2.3846    1.5164 H   0  0  0  0  0  0  0  0  0  0  0  0
   -3.9847    5.6424    3.4212 H   0  0  0  0  0  0  0  0  0  0  0  0
   -3.3335    1.2230   -0.7370 H   0  0  0  0  0  0  0  0  0  0  0  0
   -6.6473   -0.6060   -3.6892 H   0  0  0  0  0  0  0  0  0  0  0  0
   -7.4949    0.9273   -3.5116 H   0  0  0  0  0  0  0  0  0  0  0  0
  -10.2205    0.2705   -2.3080 H   0  0  0  0  0  0  0  0  0  0  0  0
  -10.6046   -2.8086   -4.9631 H   0  0  0  0  0  0  0  0  0  0  0  0
   -8.1900   -2.2290   -4.8093 H   0  0  0  0  0  0  0  0  0  0  0  0
   -7.8251    0.6012   -1.1426 H   0  0  0  0  0  0  0  0  0  0  0  0
   -8.9134   -4.1687   -2.1889 H   0  0  0  0  0  0  0  0  0  0  0  0
   -7.4806   -4.8226   -2.9602 H   0  0  0  0  0  0  0  0  0  0  0  0
   -9.5123   -5.2884    0.1911 H   0  0  0  0  0  0  0  0  0  0  0  0
  -10.0251   -7.4375    1.1568 H   0  0  0  0  0  0  0  0  0  0  0  0
   -9.2224   -9.4756    0.1057 H   0  0  0  0  0  0  0  0  0  0  0  0
   -7.9155   -9.3413   -1.9352 H   0  0  0  0  0  0  0  0  0  0  0  0
   -7.3301   -7.2092   -2.8809 H   0  0  0  0  0  0  0  0  0  0  0  0
   -7.5602   -3.8365   -0.0608 H   0  0  0  0  0  0  0  0  0  0  0  0
   -3.2040   -1.9291   -0.3268 H   0  0  0  0  0  0  0  0  0  0  0  0
   -3.3507   -2.0159    1.4251 H   0  0  0  0  0  0  0  0  0  0  0  0
   -1.0736   -3.0331    1.5762 H   0  0  0  0  0  0  0  0  0  0  0  0
   -0.9604   -3.0424   -0.1962 H   0  0  0  0  0  0  0  0  0  0  0  0
   -1.1017   -0.5854    1.6373 H   0  0  0  0  0  0  0  0  0  0  0  0
   -1.2711   -0.4893   -0.1283 H   0  0  0  0  0  0  0  0  0  0  0  0
    1.5366    1.9494    0.3916 H   0  0  0  0  0  0  0  0  0  0  0  0
   -0.0403    1.4199    0.5935 H   0  0  0  0  0  0  0  0  0  0  0  0
    3.2181    0.5156    0.1636 H   0  0  0  0  0  0  0  0  0  0  0  0
    2.9690   -1.1394    0.2741 H   0  0  0  0  0  0  0  0  0  0  0  0
   -3.0768   -4.4430   -0.4414 H   0  0  0  0  0  0  0  0  0  0  0  0
   -5.5338   -7.8826    1.4515 H   0  0  0  0  0  0  0  0  0  0  0  0
   -5.6699   -6.5243    2.5738 H   0  0  0  0  0  0  0  0  0  0  0  0
   -6.3539  -10.0496    2.8702 H   0  0  0  0  0  0  0  0  0  0  0  0
   -6.8351  -10.7145    5.2219 H   0  0  0  0  0  0  0  0  0  0  0  0
   -4.7078   -5.8801    5.1583 H   0  0  0  0  0  0  0  0  0  0  0  0
   -4.8345   -5.7561    7.5823 H   0  0  0  0  0  0  0  0  0  0  0  0
   -5.7485   -7.6067    8.8616 H   0  0  0  0  0  0  0  0  0  0  0  0
   -6.5471   -9.6128    7.7226 H   0  0  0  0  0  0  0  0  0  0  0  0
   -3.2818   -6.7054    3.4301 H   0  0  0  0  0  0  0  0  0  0  0  0
    0.3116   -9.0405    2.5071 H   0  0  0  0  0  0  0  0  0  0  0  0
   -0.8800  -10.2305    1.9903 H   0  0  0  0  0  0  0  0  0  0  0  0
    1.5576  -16.4336    4.5872 H   0  0  0  0  0  0  0  0  0  0  0  0
   -0.1773  -16.6613    4.8681 H   0  0  0  0  0  0  0  0  0  0  0  0
    1.0844  -15.1378    2.5222 H   0  0  0  0  0  0  0  0  0  0  0  0
   -0.6494  -15.4480    2.7173 H   0  0  0  0  0  0  0  0  0  0  0  0
    1.0695  -13.8749    4.7058 H   0  0  0  0  0  0  0  0  0  0  0  0
   -0.6677  -14.1349    4.8263 H   0  0  0  0  0  0  0  0  0  0  0  0
    0.8532  -12.4529    2.7879 H   0  0  0  0  0  0  0  0  0  0  0  0
    0.9346  -19.8157    3.4302 H   0  0  0  0  0  0  0  0  0  0  0  0
    1.8507  -18.8859    4.4261 H   0  0  0  0  0  0  0  0  0  0  0  0
   -0.3612  -17.9854    2.7554 H   0  0  0  0  0  0  0  0  0  0  0  0
    1.3733  -17.7542    2.4527 H   0  0  0  0  0  0  0  0  0  0  0  0
   -3.3453  -14.3929    1.5772 H   0  0  0  0  0  0  0  0  0  0  0  0
   -5.5941  -13.8868    2.1027 H   0  0  0  0  0  0  0  0  0  0  0  0
   -5.3328  -12.1271    2.0010 H   0  0  0  0  0  0  0  0  0  0  0  0
   -4.5030  -14.0225    4.2245 H   0  0  0  0  0  0  0  0  0  0  0  0
   -5.2661  -12.4170    4.3697 H   0  0  0  0  0  0  0  0  0  0  0  0
   -2.6052  -12.7182    4.6996 H   0  0  0  0  0  0  0  0  0  0  0  0
   -3.2172  -11.2902    3.8277 H   0  0  0  0  0  0  0  0  0  0  0  0
   -4.8538  -13.8363   -4.8779 H   0  0  0  0  0  0  0  0  0  0  0  0
   -3.5579  -15.0344   -4.9971 H   0  0  0  0  0  0  0  0  0  0  0  0
   -3.1652  -13.3474   -4.6533 H   0  0  0  0  0  0  0  0  0  0  0  0
   -3.4329  -12.4370   -2.3553 H   0  0  0  0  0  0  0  0  0  0  0  0
   -6.0168  -15.3189   -2.9560 H   0  0  0  0  0  0  0  0  0  0  0  0
   -4.7135  -16.4792   -3.2256 H   0  0  0  0  0  0  0  0  0  0  0  0
   -5.0070  -15.8564   -1.6063 H   0  0  0  0  0  0  0  0  0  0  0  0
   -3.0153  -14.8039   -2.6393 H   0  0  0  0  0  0  0  0  0  0  0  0
  1  2  1  0  0  0  0 
 18  3  1  0  0  0  0 
 23  4  1  0  0  0  0 
 34  5  1  0  0  0  0 
 39  6  1  0  0  0  0 
 46  7  1  0  0  0  0 
 54  8  1  0  0  0  0 
 63  9  1  0  0  0  0 
 73 10  1  0  0  0  0 
 83 11  1  0  0  0  0 
 96 12  1  0  0  0  0 
 99 13  1  0  0  0  0 
107 14  1  0  0  0  0 
113 15  1  0  0  0  0 
  1 16  2  0  0  0  0 
  1 17  1  0  0  0  0 
 21  2  1  0  0  0  0 
 21 19  1  0  0  0  0 
 19 20  1  0  0  0  0 
 21 18  1  0  0  0  0 
 18 22  2  0  0  0  0 
 32  3  1  0  0  0  0 
 32 24  1  0  0  0  0 
 24 25  1  0  0  0  0 
 25 26  2  0  0  0  0 
 26 27  1  0  0  0  0 
 27 28  2  0  0  0  0 
 28 29  1  0  0  0  0 
 28 30  1  0  0  0  0 
 30 31  2  0  0  0  0 
 25 31  1  0  0  0  0 
 32 23  1  0  0  0  0 
 23 33  2  0  0  0  0 
 37  4  1  0  0  0  0 
 37 35  1  0  0  0  0 
 35 36  1  0  0  0  0 
 37 34  1  0  0  0  0 
 34 38  2  0  0  0  0 
 40  5  1  0  0  0  0 
 40 39  1  0  0  0  0 
 40 41  1  0  0  0  0 
 39 42  2  0  0  0  0 
 41 43  1  0  0  0  0 
 43 44  1  0  0  0  0 
 44 45  1  0  0  0  0 
 52  6  1  0  0  0  0 
 52 47  1  0  0  0  0 
 47 48  1  0  0  0  0 
 48 49  1  0  0  0  0 
 49 50  1  0  0  0  0 
 49 51  2  0  0  0  0 
 52 46  1  0  0  0  0 
 46 53  2  0  0  0  0 
 61  7  1  0  0  0  0 
 61 55  1  0  0  0  0 
 55 56  1  0  0  0  0 
 56 57  2  0  0  0  0 
 57 58  1  0  0  0  0 
 58 59  2  0  0  0  0 
 59 60  1  0  0  0  0 
 56 60  1  0  0  0  0 
 61 54  1  0  0  0  0 
 54 62  2  0  0  0  0 
 71  8  1  0  0  0  0 
 71 64  1  0  0  0  0 
 64 65  1  0  0  0  0 
 65 66  2  0  0  0  0 
 66 67  1  0  0  0  0 
 67 68  2  0  0  0  0 
 68 69  1  0  0  0  0 
 69 70  2  0  0  0  0 
 65 70  1  0  0  0  0 
 71 63  1  0  0  0  0 
 63 72  2  0  0  0  0 
 81  9  1  0  0  0  0 
 81 74  1  0  0  0  0 
 74 75  1  0  0  0  0 
 75 76  1  0  0  0  0 
 76 77  1  0  0  0  0 
 77 78  2  0  0  0  0 
 78 79  1  0  0  0  0 
 78 80  1  0  0  0  0 
 81 73  1  0  0  0  0 
 73 82  2  0  0  0  0 
 94 10  1  0  0  0  0 
 94 84  1  0  0  0  0 
 84 85  1  0  0  0  0 
 85 86  2  0  0  0  0 
 86 87  1  0  0  0  0 
 87 88  1  0  0  0  0 
 88 89  1  0  0  0  0 
 85 89  1  0  0  0  0 
 89 90  2  0  0  0  0 
 90 91  1  0  0  0  0 
 91 92  2  0  0  0  0 
 92 93  1  0  0  0  0 
 88 93  2  0  0  0  0 
 94 83  1  0  0  0  0 
 83 95  2  0  0  0  0 
 11 97  1  0  0  0  0 
 97 96  1  0  0  0  0 
 96 98  2  0  0  0  0 
104105  1  0  0  0  0 
105100  1  0  0  0  0 
100101  1  0  0  0  0 
101102  1  0  0  0  0 
103102  1  0  0  0  0 
103 12  1  0  0  0  0 
103 99  1  0  0  0  0 
 99106  2  0  0  0  0 
112107  2  0  0  0  0 
108107  1  0  0  0  0 
108109  1  0  0  0  0 
109110  1  0  0  0  0 
110111  1  0  0  0  0 
111 13  1  0  0  0  0 
108 13  1  0  0  0  0 
116117  1  0  0  0  0 
117114  1  0  0  0  0 
115117  1  0  0  0  0 
115 14  1  0  0  0  0 
115113  1  0  0  0  0 
113118  2  0  0  0  0 
119  2  1  0  0  0  0 
120  3  1  0  0  0  0 
121  4  1  0  0  0  0 
122  5  1  0  0  0  0 
123  6  1  0  0  0  0 
124  7  1  0  0  0  0 
125  8  1  0  0  0  0 
126  9  1  0  0  0  0 
127 10  1  0  0  0  0 
128 11  1  0  0  0  0 
129 12  1  0  0  0  0 
130 14  1  0  0  0  0 
131 15  1  0  0  0  0 
132 15  1  0  0  0  0 
133 17  1  0  0  0  0 
134 17  1  0  0  0  0 
135 17  1  0  0  0  0 
136 19  1  0  0  0  0 
137 19  1  0  0  0  0 
138 20  1  0  0  0  0 
 21139  1  0  0  0  0 
140 24  1  0  0  0  0 
141 24  1  0  0  0  0 
142 26  1  0  0  0  0 
143 27  1  0  0  0  0 
144 29  1  0  0  0  0 
145 30  1  0  0  0  0 
146 31  1  0  0  0  0 
 32147  1  0  0  0  0 
148 35  1  0  0  0  0 
149 35  1  0  0  0  0 
150 36  1  0  0  0  0 
 37151  1  0  0  0  0 
 40152  1  0  0  0  0 
153 41  1  0  0  0  0 
154 41  1  0  0  0  0 
155 43  1  0  0  0  0 
156 43  1  0  0  0  0 
157 44  1  0  0  0  0 
158 44  1  0  0  0  0 
159 45  1  0  0  0  0 
160 45  1  0  0  0  0 
161 45  1  0  0  0  0 
162 47  1  0  0  0  0 
163 47  1  0  0  0  0 
164 48  1  0  0  0  0 
165 48  1  0  0  0  0 
166 50  1  0  0  0  0 
 52167  1  0  0  0  0 
168 55  1  0  0  0  0 
169 55  1  0  0  0  0 
170 57  1  0  0  0  0 
171 59  1  0  0  0  0 
172 60  1  0  0  0  0 
 61173  1  0  0  0  0 
174 64  1  0  0  0  0 
175 64  1  0  0  0  0 
176 66  1  0  0  0  0 
177 67  1  0  0  0  0 
178 68  1  0  0  0  0 
179 69  1  0  0  0  0 
180 70  1  0  0  0  0 
 71181  1  0  0  0  0 
182 74  1  0  0  0  0 
183 74  1  0  0  0  0 
184 75  1  0  0  0  0 
185 75  1  0  0  0  0 
186 76  1  0  0  0  0 
187 76  1  0  0  0  0 
188 79  1  0  0  0  0 
189 79  1  0  0  0  0 
190 80  1  0  0  0  0 
191 80  1  0  0  0  0 
 81192  1  0  0  0  0 
193 84  1  0  0  0  0 
194 84  1  0  0  0  0 
195 86  1  0  0  0  0 
196 87  1  0  0  0  0 
197 90  1  0  0  0  0 
198 91  1  0  0  0  0 
199 92  1  0  0  0  0 
200 93  1  0  0  0  0 
 94201  1  0  0  0  0 
202 97  1  0  0  0  0 
203 97  1  0  0  0  0 
204100  1  0  0  0  0 
205100  1  0  0  0  0 
206101  1  0  0  0  0 
207101  1  0  0  0  0 
208102  1  0  0  0  0 
209102  1  0  0  0  0 
103210  1  0  0  0  0 
211104  1  0  0  0  0 
212104  1  0  0  0  0 
213105  1  0  0  0  0 
214105  1  0  0  0  0 
108215  1  0  0  0  0 
216109  1  0  0  0  0 
217109  1  0  0  0  0 
218110  1  0  0  0  0 
219110  1  0  0  0  0 
220111  1  0  0  0  0 
221111  1  0  0  0  0 
222114  1  0  0  0  0 
223114  1  0  0  0  0 
224114  1  0  0  0  0 
115225  1  0  0  0  0 
226116  1  0  0  0  0 
227116  1  0  0  0  0 
228116  1  0  0  0  0 
229117  1  0  0  0  0 
M  END
> <cdk:Title>
afamelanotide

> <Conformer>
1

> <SuperDrugID>
SD003797

$$$$
