oxantel
  CDK     0628171801

 32 33  0  0  0  0  0  0  0  0999 V2000
   -1.5118   -1.9080   -3.2950 C   0  0  0  0  0  0  0  0  0  0  0  0
   -1.1882   -1.1232   -2.1727 C   0  0  0  0  0  0  0  0  0  0  0  0
   -0.1358   -0.1746   -2.2266 C   0  0  0  0  0  0  0  0  0  0  0  0
    0.5702   -0.0262   -3.4476 C   0  0  0  0  0  0  0  0  0  0  0  0
    0.2576   -0.8210   -4.5689 C   0  0  0  0  0  0  0  0  0  0  0  0
   -0.7843   -1.7627   -4.4883 C   0  0  0  0  0  0  0  0  0  0  0  0
    0.1590    0.5869   -1.0956 C   0  0  0  0  0  0  0  0  0  0  0  0
    1.3998    0.9467   -0.7145 C   0  0  0  0  0  0  0  0  0  0  0  0
    1.6506    1.6586    0.4159 C   0  0  0  0  0  0  0  0  0  0  0  0
    2.2436    2.7881    0.2217 N   0  0  0  0  0  0  0  0  0  0  0  0
    2.6143    3.7266    1.1892 C   0  0  2  0  0  0  0  0  0  0  0  0
    2.4273    3.2314    2.6491 C   0  0  1  0  0  0  0  0  0  0  0  0
    1.2210    2.2642    2.7206 C   0  0  1  0  0  0  0  0  0  0  0  0
    1.3065    1.2581    1.6785 N   0  0  0  0  0  0  0  0  0  0  0  0
    0.9426   -0.6862   -5.7328 O   0  0  0  0  0  0  0  0  0  0  0  0
    0.9888   -0.1068    2.0363 C   0  0  0  0  0  0  0  0  0  0  0  0
   -2.2746   -2.5870   -3.2430 H   0  0  0  0  0  0  0  0  0  0  0  0
   -1.7256   -1.2601   -1.3115 H   0  0  0  0  0  0  0  0  0  0  0  0
    1.3125    0.6723   -3.5359 H   0  0  0  0  0  0  0  0  0  0  0  0
   -1.0169   -2.3418   -5.2978 H   0  0  0  0  0  0  0  0  0  0  0  0
   -0.6078    0.8545   -0.5171 H   0  0  0  0  0  0  0  0  0  0  0  0
    2.1831    0.6799   -1.2678 H   0  0  0  0  0  0  0  0  0  0  0  0
    2.0082    4.6202    1.0258 H   0  0  0  0  0  0  0  0  0  0  0  0
    3.6602    3.9960    1.0279 H   0  0  0  0  0  0  0  0  0  0  0  0
    3.3282    2.7028    2.9725 H   0  0  0  0  0  0  0  0  0  0  0  0
    2.2726    4.0814    3.3186 H   0  0  0  0  0  0  0  0  0  0  0  0
    1.1810    1.8284    3.7236 H   0  0  0  0  0  0  0  0  0  0  0  0
    0.2984    2.8321    2.5770 H   0  0  0  0  0  0  0  0  0  0  0  0
    1.6139    0.0096   -5.5756 H   0  0  0  0  0  0  0  0  0  0  0  0
   -0.0525   -0.1601    2.3598 H   0  0  0  0  0  0  0  0  0  0  0  0
    1.6291   -0.4355    2.8580 H   0  0  0  0  0  0  0  0  0  0  0  0
    1.1251   -0.8189    1.2207 H   0  0  0  0  0  0  0  0  0  0  0  0
  1  2  2  0  0  0  0 
  2  3  1  0  0  0  0 
  3  4  2  0  0  0  0 
  4  5  1  0  0  0  0 
  5  6  2  0  0  0  0 
  1  6  1  0  0  0  0 
  3  7  1  0  0  0  0 
  7  8  2  0  0  0  0 
  8  9  1  0  0  0  0 
 14  9  1  0  0  0  0 
 10  9  2  0  0  0  0 
 10 11  1  0  0  0  0 
 11 12  1  0  0  0  0 
 12 13  1  0  0  0  0 
 13 14  1  0  0  0  0 
  5 15  1  0  0  0  0 
 14 16  1  0  0  0  0 
  1 17  1  0  0  0  0 
  2 18  1  0  0  0  0 
  4 19  1  0  0  0  0 
  6 20  1  0  0  0  0 
  7 21  1  0  0  0  0 
  8 22  1  0  0  0  0 
 11 23  1  0  0  0  0 
 11 24  1  0  0  0  0 
 12 25  1  0  0  0  0 
 12 26  1  0  0  0  0 
 13 27  1  0  0  0  0 
 13 28  1  0  0  0  0 
 15 29  1  0  0  0  0 
 16 30  1  0  0  0  0 
 16 31  1  0  0  0  0 
 16 32  1  0  0  0  0 
M  END
> <cdk:Title>
oxantel

> <Conformer>
1

> <SuperDrugID>
SD003326

$$$$
