pentrinitrol
  CDK     0628171801

 27 26  0  0  0  0  0  0  0  0999 V2000
   -1.4285   -0.6287   -0.4376 C   0  0  2  0  0  0  0  0  0  0  0  0
   -0.3376    0.4984   -0.4142 C   0  0  2  0  0  0  0  0  0  0  0  0
   -1.6688   -1.1605    1.0219 C   0  0  2  0  0  0  0  0  0  0  0  0
   -0.9198   -1.8006   -1.3477 C   0  0  1  0  0  0  0  0  0  0  0  0
   -2.7692   -0.0539   -1.0164 C   0  0  2  0  0  0  0  0  0  0  0  0
   -0.7532    1.6090    0.4072 O   0  0  0  0  0  0  0  0  0  0  0  0
   -0.4493   -1.6815    1.5933 O   0  0  0  0  0  0  0  0  0  0  0  0
   -1.8877   -2.8683   -1.4125 O   0  0  0  0  0  0  0  0  0  0  0  0
   -2.6203    0.4473   -2.3425 O   0  0  0  0  0  0  0  0  0  0  0  0
    0.1129    2.5476    0.4586 N   0  0  0  0  0  0  0  0  0  0  0  0
   -0.5927   -2.1422    2.7771 N   0  0  0  0  0  0  0  0  0  0  0  0
   -1.5075   -3.8479   -2.1397 N   0  0  0  0  0  0  0  0  0  0  0  0
    1.0185    2.5368    1.3452 O   0  0  0  0  0  0  0  0  0  0  0  0
    0.0469    3.4474   -0.2803 O   0  0  0  0  0  0  0  0  0  0  0  0
   -0.9082   -3.3557    2.9598 O   0  0  0  0  0  0  0  0  0  0  0  0
   -0.3794   -1.4632    3.7014 O   0  0  0  0  0  0  0  0  0  0  0  0
   -0.8407   -4.8004   -1.6360 O   0  0  0  0  0  0  0  0  0  0  0  0
   -1.8140   -3.8966   -3.2646 O   0  0  0  0  0  0  0  0  0  0  0  0
   -0.1563    0.8516   -1.4357 H   0  0  0  0  0  0  0  0  0  0  0  0
    0.6048    0.0911   -0.0310 H   0  0  0  0  0  0  0  0  0  0  0  0
   -2.4312   -1.9469    1.0076 H   0  0  0  0  0  0  0  0  0  0  0  0
   -2.0417   -0.3465    1.6532 H   0  0  0  0  0  0  0  0  0  0  0  0
   -0.7315   -1.4217   -2.3588 H   0  0  0  0  0  0  0  0  0  0  0  0
    0.0275   -2.1873   -0.9554 H   0  0  0  0  0  0  0  0  0  0  0  0
   -3.1379    0.7632   -0.3921 H   0  0  0  0  0  0  0  0  0  0  0  0
   -3.5411   -0.8266   -1.0381 H   0  0  0  0  0  0  0  0  0  0  0  0
   -3.5085    0.7755   -2.5953 H   0  0  0  0  0  0  0  0  0  0  0  0
  1  2  1  0  0  0  0 
  1  3  1  0  0  0  0 
  1  4  1  0  0  0  0 
  1  5  1  0  0  0  0 
  2  6  1  0  0  0  0 
  3  7  1  0  0  0  0 
  4  8  1  0  0  0  0 
  5  9  1  0  0  0  0 
  6 10  1  0  0  0  0 
  7 11  1  0  0  0  0 
  8 12  1  0  0  0  0 
 10 13  1  0  0  0  0 
 10 14  2  0  0  0  0 
 11 15  1  0  0  0  0 
 11 16  2  0  0  0  0 
 12 17  1  0  0  0  0 
 12 18  2  0  0  0  0 
  2 19  1  0  0  0  0 
  2 20  1  0  0  0  0 
  3 21  1  0  0  0  0 
  3 22  1  0  0  0  0 
  4 23  1  0  0  0  0 
  4 24  1  0  0  0  0 
  5 25  1  0  0  0  0 
  5 26  1  0  0  0  0 
  9 27  1  0  0  0  0 
M  CHG  1  10   1
M  CHG  1  11   1
M  CHG  1  12   1
M  CHG  1  13  -1
M  CHG  1  15  -1
M  CHG  1  17  -1
M  END
> <cdk:Title>
pentrinitrol

> <Conformer>
1

> <SuperDrugID>
SD002952

$$$$
