isocarboxazid
  CDK     0628171801

 30 31  0  0  0  0  0  0  0  0999 V2000
    0.6512    0.5280    0.1338 C   0  0  0  0  0  0  0  0  0  0  0  0
    1.9283    0.0781    0.0938 N   0  0  0  0  0  0  0  0  0  0  0  0
   -0.3063   -0.2744    0.0218 O   0  0  0  0  0  0  0  0  0  0  0  0
    0.3991    1.8965    0.3283 C   0  0  0  0  0  0  0  0  0  0  0  0
    2.2371   -1.2226   -0.1110 N   0  0  2  0  0  0  0  0  0  0  0  0
   -0.8096    2.4896    0.6715 C   0  0  0  0  0  0  0  0  0  0  0  0
    1.3135    2.8790    0.2208 N   0  0  0  0  0  0  0  0  0  0  0  0
    2.6760   -1.9249    1.1110 C   0  0  2  0  0  0  0  0  0  0  0  0
   -0.5492    3.8485    0.7631 C   0  0  0  0  0  0  0  0  0  0  0  0
    0.7596    4.0358    0.4736 O   0  0  0  0  0  0  0  0  0  0  0  0
    2.8918   -3.3648    0.8227 C   0  0  0  0  0  0  0  0  0  0  0  0
   -1.5048    4.9038    1.1233 C   0  0  0  0  0  0  0  0  0  0  0  0
    4.1316   -3.9958    1.0861 C   0  0  0  0  0  0  0  0  0  0  0  0
    1.8365   -4.1416    0.2859 C   0  0  0  0  0  0  0  0  0  0  0  0
    4.3118   -5.3658    0.8126 C   0  0  0  0  0  0  0  0  0  0  0  0
    2.0203   -5.5071    0.0029 C   0  0  0  0  0  0  0  0  0  0  0  0
    3.2548   -6.1226    0.2756 C   0  0  0  0  0  0  0  0  0  0  0  0
    2.6524    0.7095    0.2261 H   0  0  0  0  0  0  0  0  0  0  0  0
    2.9596   -1.2819   -0.8317 H   0  0  0  0  0  0  0  0  0  0  0  0
   -1.7055    2.0224    0.8372 H   0  0  0  0  0  0  0  0  0  0  0  0
    1.9038   -1.8436    1.8798 H   0  0  0  0  0  0  0  0  0  0  0  0
    3.5855   -1.4525    1.4929 H   0  0  0  0  0  0  0  0  0  0  0  0
   -1.8807    4.7312    2.1331 H   0  0  0  0  0  0  0  0  0  0  0  0
   -1.0187    5.8803    1.0881 H   0  0  0  0  0  0  0  0  0  0  0  0
   -2.3428    4.8988    0.4260 H   0  0  0  0  0  0  0  0  0  0  0  0
    4.9126   -3.4663    1.4828 H   0  0  0  0  0  0  0  0  0  0  0  0
    0.9252   -3.7163    0.0939 H   0  0  0  0  0  0  0  0  0  0  0  0
    5.2121   -5.8113    1.0055 H   0  0  0  0  0  0  0  0  0  0  0  0
    1.2551   -6.0514   -0.4008 H   0  0  0  0  0  0  0  0  0  0  0  0
    3.3810   -7.1201    0.0878 H   0  0  0  0  0  0  0  0  0  0  0  0
  1  2  1  0  0  0  0 
  1  3  2  0  0  0  0 
  1  4  1  0  0  0  0 
  2  5  1  0  0  0  0 
  4  6  1  0  0  0  0 
  4  7  2  0  0  0  0 
  5  8  1  0  0  0  0 
  6  9  2  0  0  0  0 
  7 10  1  0  0  0  0 
  8 11  1  0  0  0  0 
  9 10  1  0  0  0  0 
  9 12  1  0  0  0  0 
 11 13  2  0  0  0  0 
 11 14  1  0  0  0  0 
 13 15  1  0  0  0  0 
 14 16  2  0  0  0  0 
 15 17  2  0  0  0  0 
 16 17  1  0  0  0  0 
  2 18  1  0  0  0  0 
  5 19  1  0  0  0  0 
  6 20  1  0  0  0  0 
  8 21  1  0  0  0  0 
  8 22  1  0  0  0  0 
 12 23  1  0  0  0  0 
 12 24  1  0  0  0  0 
 12 25  1  0  0  0  0 
 13 26  1  0  0  0  0 
 14 27  1  0  0  0  0 
 15 28  1  0  0  0  0 
 16 29  1  0  0  0  0 
 17 30  1  0  0  0  0 
M  END
> <cdk:Title>
isocarboxazid

> <Conformer>
1

> <SuperDrugID>
SD001320

$$$$
