sulforidazine
  CDK     0628171801

 53 56  0  0  0  0  0  0  0  0999 V2000
    1.7478   10.7470    7.8374 C   0  0  1  0  0  0  0  0  0  0  0  0
    1.2869   12.0928    7.2438 C   0  0  2  0  0  0  0  0  0  0  0  0
    0.9049   11.8757    5.7655 C   0  0  1  0  0  0  0  0  0  0  0  0
    2.1603   11.4741    4.9570 C   0  0  2  0  0  0  0  0  0  0  0  0
    3.1131   10.5113    5.6153 N   0  0  2  0  0  0  0  0  0  0  0  0
    2.9526   10.1016    7.0646 C   0  0  2  0  0  0  0  0  0  0  0  0
    2.8483    8.5409    7.1686 C   0  0  2  0  0  0  0  0  0  0  0  0
    4.0432    7.7100    6.5949 C   0  0  1  0  0  0  0  0  0  0  0  0
    3.9239    6.2535    6.7394 N   0  0  0  0  0  0  0  0  0  0  0  0
    4.5256    5.6388    7.8691 C   0  0  0  0  0  0  0  0  0  0  0  0
    4.7359    6.3252    9.1037 C   0  0  0  0  0  0  0  0  0  0  0  0
    5.3792    5.7342   10.2063 C   0  0  0  0  0  0  0  0  0  0  0  0
    5.8170    4.4062   10.1318 C   0  0  0  0  0  0  0  0  0  0  0  0
    5.6227    3.6851    8.9470 C   0  0  0  0  0  0  0  0  0  0  0  0
    4.9909    4.2943    7.8432 C   0  0  0  0  0  0  0  0  0  0  0  0
    4.8066    3.3024    6.4167 S   0  0  0  0  0  0  0  0  0  0  0  0
    3.5982    4.1368    5.4698 C   0  0  0  0  0  0  0  0  0  0  0  0
    3.3047    5.5099    5.6966 C   0  0  0  0  0  0  0  0  0  0  0  0
    2.3795    6.0833    4.7711 C   0  0  0  0  0  0  0  0  0  0  0  0
    1.7892    5.3607    3.7124 C   0  0  0  0  0  0  0  0  0  0  0  0
    2.0814    3.9958    3.5689 C   0  0  0  0  0  0  0  0  0  0  0  0
    2.9792    3.3838    4.4517 C   0  0  0  0  0  0  0  0  0  0  0  0
    0.7318    6.1547    2.5280 S   0  0  2  0  0  0  0  0  0  0  0  0
    1.6517    6.3977    0.9604 C   0  0  0  0  0  0  0  0  0  0  0  0
    0.2194    7.5797    3.0610 O   0  0  0  0  0  0  0  0  0  0  0  0
   -0.5462    5.2323    2.2228 O   0  0  0  0  0  0  0  0  0  0  0  0
    4.5252   10.7398    5.1720 C   0  0  0  0  0  0  0  0  0  0  0  0
    2.0170   10.9024    8.8857 H   0  0  0  0  0  0  0  0  0  0  0  0
    0.8789   10.0796    7.8354 H   0  0  0  0  0  0  0  0  0  0  0  0
    2.0860   12.8364    7.3224 H   0  0  0  0  0  0  0  0  0  0  0  0
    0.4223   12.4636    7.8000 H   0  0  0  0  0  0  0  0  0  0  0  0
    0.1399   11.0979    5.6782 H   0  0  0  0  0  0  0  0  0  0  0  0
    0.4859   12.8000    5.3552 H   0  0  0  0  0  0  0  0  0  0  0  0
    2.6733   12.4106    4.7099 H   0  0  0  0  0  0  0  0  0  0  0  0
    1.8410   11.0309    4.0088 H   0  0  0  0  0  0  0  0  0  0  0  0
    3.8482   10.4027    7.6180 H   0  0  0  0  0  0  0  0  0  0  0  0
    1.9285    8.2388    6.6734 H   0  0  0  0  0  0  0  0  0  0  0  0
    2.7198    8.2753    8.2188 H   0  0  0  0  0  0  0  0  0  0  0  0
    4.1740    7.9491    5.5380 H   0  0  0  0  0  0  0  0  0  0  0  0
    4.9678    8.0633    7.0627 H   0  0  0  0  0  0  0  0  0  0  0  0
    4.4325    7.2863    9.2373 H   0  0  0  0  0  0  0  0  0  0  0  0
    5.5272    6.2706   11.0653 H   0  0  0  0  0  0  0  0  0  0  0  0
    6.2766    3.9681   10.9325 H   0  0  0  0  0  0  0  0  0  0  0  0
    5.9451    2.7141    8.8966 H   0  0  0  0  0  0  0  0  0  0  0  0
    2.1248    7.0619    4.8353 H   0  0  0  0  0  0  0  0  0  0  0  0
    1.6634    3.4503    2.8121 H   0  0  0  0  0  0  0  0  0  0  0  0
    3.1855    2.3886    4.3359 H   0  0  0  0  0  0  0  0  0  0  0  0
    2.5510    6.9862    1.1459 H   0  0  0  0  0  0  0  0  0  0  0  0
    1.0199    6.9210    0.2418 H   0  0  0  0  0  0  0  0  0  0  0  0
    1.9344    5.4277    0.5497 H   0  0  0  0  0  0  0  0  0  0  0  0
    5.2187   10.0124    5.5899 H   0  0  0  0  0  0  0  0  0  0  0  0
    4.5867   10.6689    4.0844 H   0  0  0  0  0  0  0  0  0  0  0  0
    4.8664   11.7290    5.4862 H   0  0  0  0  0  0  0  0  0  0  0  0
  1  2  1  0  0  0  0 
  2  3  1  0  0  0  0 
  3  4  1  0  0  0  0 
  4  5  1  0  0  0  0 
  6  5  1  0  0  0  0 
  6  1  1  0  0  0  0 
  6  7  1  0  0  0  0 
  7  8  1  0  0  0  0 
  8  9  1  0  0  0  0 
  9 10  1  0  0  0  0 
 10 11  2  0  0  0  0 
 11 12  1  0  0  0  0 
 12 13  2  0  0  0  0 
 13 14  1  0  0  0  0 
 14 15  2  0  0  0  0 
 10 15  1  0  0  0  0 
 15 16  1  0  0  0  0 
 16 17  1  0  0  0  0 
 17 18  2  0  0  0  0 
  9 18  1  0  0  0  0 
 18 19  1  0  0  0  0 
 19 20  2  0  0  0  0 
 20 21  1  0  0  0  0 
 21 22  2  0  0  0  0 
 17 22  1  0  0  0  0 
 20 23  1  0  0  0  0 
 23 24  1  0  0  0  0 
 23 25  2  0  0  0  0 
 23 26  2  0  0  0  0 
  5 27  1  0  0  0  0 
  1 28  1  0  0  0  0 
  1 29  1  0  0  0  0 
  2 30  1  0  0  0  0 
  2 31  1  0  0  0  0 
  3 32  1  0  0  0  0 
  3 33  1  0  0  0  0 
  4 34  1  0  0  0  0 
  4 35  1  0  0  0  0 
  6 36  1  0  0  0  0 
  7 37  1  0  0  0  0 
  7 38  1  0  0  0  0 
  8 39  1  0  0  0  0 
  8 40  1  0  0  0  0 
 11 41  1  0  0  0  0 
 12 42  1  0  0  0  0 
 13 43  1  0  0  0  0 
 14 44  1  0  0  0  0 
 19 45  1  0  0  0  0 
 21 46  1  0  0  0  0 
 22 47  1  0  0  0  0 
 24 48  1  0  0  0  0 
 24 49  1  0  0  0  0 
 24 50  1  0  0  0  0 
 27 51  1  0  0  0  0 
 27 52  1  0  0  0  0 
 27 53  1  0  0  0  0 
M  END
> <cdk:Title>
sulforidazine

> <Conformer>
1

> <SuperDrugID>
SD002277

$$$$
