iprindole
  CDK     0628171801

 49 51  0  0  0  0  0  0  0  0999 V2000
    0.7359    2.2072    1.2382 C   0  0  2  0  0  0  0  0  0  0  0  0
   -0.1590    1.2983    0.3524 C   0  0  1  0  0  0  0  0  0  0  0  0
    0.4230    3.6068    1.0517 N   0  0  0  0  0  0  0  0  0  0  0  0
    0.2278   -0.2064    0.4034 C   0  0  2  0  0  0  0  0  0  0  0  0
    0.9824    4.4027    0.1109 C   0  0  0  0  0  0  0  0  0  0  0  0
   -0.4398    4.3726    1.7803 C   0  0  0  0  0  0  0  0  0  0  0  0
    1.6714   -0.4929    0.1046 N   0  0  2  0  0  0  0  0  0  0  0  0
    0.4833    5.6989    0.2424 C   0  0  0  0  0  0  0  0  0  0  0  0
    1.9382    4.1082   -0.8850 C   0  0  0  0  0  0  0  0  0  0  0  0
   -0.4154    5.6965    1.3069 C   0  0  0  0  0  0  0  0  0  0  0  0
   -1.2373    3.9258    2.9499 C   0  0  1  0  0  0  0  0  0  0  0  0
    2.0872   -0.2362   -1.3053 C   0  0  0  0  0  0  0  0  0  0  0  0
    2.1034   -1.8414    0.5714 C   0  0  0  0  0  0  0  0  0  0  0  0
    0.9105    6.7350   -0.6120 C   0  0  0  0  0  0  0  0  0  0  0  0
    2.3684    5.1353   -1.7479 C   0  0  0  0  0  0  0  0  0  0  0  0
   -1.1839    6.8694    1.8030 C   0  0  1  0  0  0  0  0  0  0  0  0
   -0.5279    4.3259    4.2794 C   0  0  1  0  0  0  0  0  0  0  0  0
    1.8556    6.4416   -1.6134 C   0  0  0  0  0  0  0  0  0  0  0  0
   -0.8647    7.3283    3.2587 C   0  0  1  0  0  0  0  0  0  0  0  0
   -1.2041    5.4470    5.1137 C   0  0  1  0  0  0  0  0  0  0  0  0
   -1.7552    6.6975    4.3707 C   0  0  2  0  0  0  0  0  0  0  0  0
    1.7892    2.0318    1.0049 H   0  0  0  0  0  0  0  0  0  0  0  0
    0.6245    1.9171    2.2840 H   0  0  0  0  0  0  0  0  0  0  0  0
   -1.1946    1.3962    0.6920 H   0  0  0  0  0  0  0  0  0  0  0  0
   -0.1312    1.6505   -0.6811 H   0  0  0  0  0  0  0  0  0  0  0  0
   -0.4157   -0.7643   -0.2854 H   0  0  0  0  0  0  0  0  0  0  0  0
   -0.0147   -0.5509    1.4143 H   0  0  0  0  0  0  0  0  0  0  0  0
    2.3255    3.1692   -0.9850 H   0  0  0  0  0  0  0  0  0  0  0  0
   -2.2473    4.3323    2.8839 H   0  0  0  0  0  0  0  0  0  0  0  0
   -1.3663    2.8433    2.9222 H   0  0  0  0  0  0  0  0  0  0  0  0
    1.5890   -0.9202   -1.9950 H   0  0  0  0  0  0  0  0  0  0  0  0
    1.8574    0.7862   -1.6003 H   0  0  0  0  0  0  0  0  0  0  0  0
    3.1676   -0.3623   -1.4130 H   0  0  0  0  0  0  0  0  0  0  0  0
    3.1698   -1.9946    0.3897 H   0  0  0  0  0  0  0  0  0  0  0  0
    1.9438   -1.9333    1.6465 H   0  0  0  0  0  0  0  0  0  0  0  0
    1.5446   -2.6296    0.0616 H   0  0  0  0  0  0  0  0  0  0  0  0
    0.5553    7.6877   -0.5178 H   0  0  0  0  0  0  0  0  0  0  0  0
    3.0602    4.9333   -2.4722 H   0  0  0  0  0  0  0  0  0  0  0  0
   -0.9851    7.7249    1.1557 H   0  0  0  0  0  0  0  0  0  0  0  0
   -2.2480    6.6586    1.6865 H   0  0  0  0  0  0  0  0  0  0  0  0
   -0.4608    3.4381    4.9153 H   0  0  0  0  0  0  0  0  0  0  0  0
    0.5080    4.6274    4.0930 H   0  0  0  0  0  0  0  0  0  0  0  0
    2.1744    7.1831   -2.2402 H   0  0  0  0  0  0  0  0  0  0  0  0
    0.1963    7.1924    3.4854 H   0  0  0  0  0  0  0  0  0  0  0  0
   -1.0465    8.4084    3.2913 H   0  0  0  0  0  0  0  0  0  0  0  0
   -2.0322    5.0053    5.6756 H   0  0  0  0  0  0  0  0  0  0  0  0
   -0.4727    5.7883    5.8523 H   0  0  0  0  0  0  0  0  0  0  0  0
   -2.7452    6.4711    3.9675 H   0  0  0  0  0  0  0  0  0  0  0  0
   -1.9164    7.4605    5.1388 H   0  0  0  0  0  0  0  0  0  0  0  0
  1  2  1  0  0  0  0 
  1  3  1  0  0  0  0 
  2  4  1  0  0  0  0 
  3  5  1  0  0  0  0 
  3  6  1  0  0  0  0 
  4  7  1  0  0  0  0 
  5  8  1  0  0  0  0 
  5  9  2  0  0  0  0 
  6 10  2  0  0  0  0 
  6 11  1  0  0  0  0 
  7 12  1  0  0  0  0 
  7 13  1  0  0  0  0 
  8 10  1  0  0  0  0 
  8 14  2  0  0  0  0 
  9 15  1  0  0  0  0 
 10 16  1  0  0  0  0 
 11 17  1  0  0  0  0 
 14 18  1  0  0  0  0 
 15 18  2  0  0  0  0 
 16 19  1  0  0  0  0 
 17 20  1  0  0  0  0 
 19 21  1  0  0  0  0 
 20 21  1  0  0  0  0 
  1 22  1  0  0  0  0 
  1 23  1  0  0  0  0 
  2 24  1  0  0  0  0 
  2 25  1  0  0  0  0 
  4 26  1  0  0  0  0 
  4 27  1  0  0  0  0 
  9 28  1  0  0  0  0 
 11 29  1  0  0  0  0 
 11 30  1  0  0  0  0 
 12 31  1  0  0  0  0 
 12 32  1  0  0  0  0 
 12 33  1  0  0  0  0 
 13 34  1  0  0  0  0 
 13 35  1  0  0  0  0 
 13 36  1  0  0  0  0 
 14 37  1  0  0  0  0 
 15 38  1  0  0  0  0 
 16 39  1  0  0  0  0 
 16 40  1  0  0  0  0 
 17 41  1  0  0  0  0 
 17 42  1  0  0  0  0 
 18 43  1  0  0  0  0 
 19 44  1  0  0  0  0 
 19 45  1  0  0  0  0 
 20 46  1  0  0  0  0 
 20 47  1  0  0  0  0 
 21 48  1  0  0  0  0 
 21 49  1  0  0  0  0 
M  END
> <cdk:Title>
iprindole

> <Conformer>
1

> <SuperDrugID>
SD001309

$$$$
