oxycodone
  CDK     0628171801

 44 48  0  0  0  0  0  0  0  0999 V2000
    3.8718   -0.2022    4.8278 O   0  0  0  0  0  0  0  0  0  0  0  0
    4.9459    0.3978    4.0927 C   0  0  1  0  0  0  0  0  0  0  0  0
    4.7380    0.1395    2.5585 C   0  0  1  0  0  0  0  0  0  0  0  0
    4.9116    1.9656    4.2682 C   0  0  1  0  0  0  0  0  0  0  0  0
    6.2326   -0.2988    4.6359 C   0  0  1  0  0  0  0  0  0  0  0  0
    5.7738    0.8347    1.7926 C   0  0  0  0  0  0  0  0  0  0  0  0
    5.0557   -1.3020    2.0316 C   0  0  1  0  0  0  0  0  0  0  0  0
    3.3204    0.6610    2.1232 C   0  0  1  0  0  0  0  0  0  0  0  0
    6.0302    2.7029    3.4332 C   0  0  1  0  0  0  0  0  0  0  0  0
    3.5513    2.5083    3.8939 N   0  0  1  0  0  0  0  0  0  0  0  0
    6.2324   -1.8135    4.2964 C   0  0  2  0  0  0  0  0  0  0  0  0
    6.1705    0.0815    0.6982 C   0  0  0  0  0  0  0  0  0  0  0  0
    6.3879    2.0520    2.1409 C   0  0  0  0  0  0  0  0  0  0  0  0
    5.5410   -1.1249    0.6721 O   0  0  0  0  0  0  0  0  0  0  0  0
    6.0640   -2.0486    2.8441 C   0  0  0  0  0  0  0  0  0  0  0  0
    3.0734    2.1480    2.5159 C   0  0  1  0  0  0  0  0  0  0  0  0
    2.4962    2.4521    4.9492 C   0  0  0  0  0  0  0  0  0  0  0  0
    7.1485    0.5790   -0.1848 C   0  0  0  0  0  0  0  0  0  0  0  0
    7.3800    2.5520    1.2653 C   0  0  0  0  0  0  0  0  0  0  0  0
    6.7868   -2.9084    2.2881 O   0  0  0  0  0  0  0  0  0  0  0  0
    7.5535   -0.1438   -1.2736 O   0  0  0  0  0  0  0  0  0  0  0  0
    7.7493    1.8253    0.1107 C   0  0  0  0  0  0  0  0  0  0  0  0
    6.7545    0.0903   -2.4475 C   0  0  0  0  0  0  0  0  0  0  0  0
    4.1469   -1.9075    2.0070 H   0  0  0  0  0  0  0  0  0  0  0  0
    5.1092    2.2028    5.3192 H   0  0  0  0  0  0  0  0  0  0  0  0
    4.0396    0.0289    5.7667 H   0  0  0  0  0  0  0  0  0  0  0  0
    7.1294    0.1582    4.2140 H   0  0  0  0  0  0  0  0  0  0  0  0
    6.2813   -0.1736    5.7207 H   0  0  0  0  0  0  0  0  0  0  0  0
    3.1847    0.5589    1.0404 H   0  0  0  0  0  0  0  0  0  0  0  0
    2.5530    0.0430    2.5972 H   0  0  0  0  0  0  0  0  0  0  0  0
    5.7208    3.7335    3.2359 H   0  0  0  0  0  0  0  0  0  0  0  0
    6.9439    2.7486    4.0343 H   0  0  0  0  0  0  0  0  0  0  0  0
    5.4134   -2.3143    4.8193 H   0  0  0  0  0  0  0  0  0  0  0  0
    7.1650   -2.2580    4.6572 H   0  0  0  0  0  0  0  0  0  0  0  0
    3.5949    2.7878    1.8014 H   0  0  0  0  0  0  0  0  0  0  0  0
    2.0108    2.3756    2.3925 H   0  0  0  0  0  0  0  0  0  0  0  0
    1.7196    3.1827    4.7276 H   0  0  0  0  0  0  0  0  0  0  0  0
    2.9009    2.6952    5.9323 H   0  0  0  0  0  0  0  0  0  0  0  0
    2.0320    1.4691    4.9964 H   0  0  0  0  0  0  0  0  0  0  0  0
    7.8485    3.4381    1.4704 H   0  0  0  0  0  0  0  0  0  0  0  0
    8.4735    2.1939   -0.5086 H   0  0  0  0  0  0  0  0  0  0  0  0
    7.2334   -0.4136   -3.2872 H   0  0  0  0  0  0  0  0  0  0  0  0
    6.6814    1.1537   -2.6920 H   0  0  0  0  0  0  0  0  0  0  0  0
    5.7522   -0.3265   -2.3274 H   0  0  0  0  0  0  0  0  0  0  0  0
  2  1  1  0  0  0  0 
  3  2  1  0  0  0  0 
  2  4  1  0  0  0  0 
  2  5  1  0  0  0  0 
  3  6  1  0  0  0  0 
  7  3  1  0  0  0  0 
  3  8  1  0  0  0  0 
  4  9  1  0  0  0  0 
  4 10  1  0  0  0  0 
  4 25  1  0  0  0  0 
  5 11  1  0  0  0  0 
  6 12  2  0  0  0  0 
  6 13  1  0  0  0  0 
  7 14  1  0  0  0  0 
  7 15  1  0  0  0  0 
  7 24  1  0  0  0  0 
  8 16  1  0  0  0  0 
  9 13  1  0  0  0  0 
 10 16  1  0  0  0  0 
 10 17  1  0  0  0  0 
 11 15  1  0  0  0  0 
 12 14  1  0  0  0  0 
 12 18  1  0  0  0  0 
 13 19  2  0  0  0  0 
 15 20  2  0  0  0  0 
 18 21  1  0  0  0  0 
 18 22  2  0  0  0  0 
 19 22  1  0  0  0  0 
 21 23  1  0  0  0  0 
  1 26  1  0  0  0  0 
  5 27  1  0  0  0  0 
  5 28  1  0  0  0  0 
  8 29  1  0  0  0  0 
  8 30  1  0  0  0  0 
  9 31  1  0  0  0  0 
  9 32  1  0  0  0  0 
 11 33  1  0  0  0  0 
 11 34  1  0  0  0  0 
 16 35  1  0  0  0  0 
 16 36  1  0  0  0  0 
 17 37  1  0  0  0  0 
 17 38  1  0  0  0  0 
 17 39  1  0  0  0  0 
 19 40  1  0  0  0  0 
 22 41  1  0  0  0  0 
 23 42  1  0  0  0  0 
 23 43  1  0  0  0  0 
 23 44  1  0  0  0  0 
M  END
> <cdk:Title>
oxycodone

> <Conformer>
1

> <SuperDrugID>
SD001816

$$$$
