pargyline
  CDK     0628171801

 25 25  0  0  0  0  0  0  0  0999 V2000
    4.5220    1.4217   -0.3422 C   0  0  0  0  0  0  0  0  0  0  0  0
    3.0496    1.1930   -0.4692 N   0  0  1  0  0  0  0  0  0  0  0  0
    2.6557   -0.1679    0.0352 C   0  0  1  0  0  0  0  0  0  0  0  0
    1.4766   -0.6396   -0.4834 C   0  0  0  0  0  0  0  0  0  0  0  0
    0.4487   -1.0678   -0.9184 C   0  0  0  0  0  0  0  0  0  0  0  0
    2.2687    2.3364    0.1205 C   0  0  2  0  0  0  0  0  0  0  0  0
    0.8399    2.3694   -0.2891 C   0  0  0  0  0  0  0  0  0  0  0  0
   -0.1951    2.2599    0.6699 C   0  0  0  0  0  0  0  0  0  0  0  0
   -1.5436    2.2671    0.2725 C   0  0  0  0  0  0  0  0  0  0  0  0
   -1.8746    2.3891   -1.0885 C   0  0  0  0  0  0  0  0  0  0  0  0
   -0.8575    2.5053   -2.0520 C   0  0  0  0  0  0  0  0  0  0  0  0
    0.4925    2.4988   -1.6543 C   0  0  0  0  0  0  0  0  0  0  0  0
    5.0764    0.6597   -0.8930 H   0  0  0  0  0  0  0  0  0  0  0  0
    4.8088    2.3890   -0.7608 H   0  0  0  0  0  0  0  0  0  0  0  0
    4.8312    1.3898    0.7058 H   0  0  0  0  0  0  0  0  0  0  0  0
    3.4071   -0.9138   -0.2322 H   0  0  0  0  0  0  0  0  0  0  0  0
    2.5801   -0.1657    1.1240 H   0  0  0  0  0  0  0  0  0  0  0  0
   -0.3465   -1.4003   -1.2478 H   0  0  0  0  0  0  0  0  0  0  0  0
    2.6901    3.2941   -0.2001 H   0  0  0  0  0  0  0  0  0  0  0  0
    2.3636    2.3067    1.2097 H   0  0  0  0  0  0  0  0  0  0  0  0
    0.0245    2.1675    1.6644 H   0  0  0  0  0  0  0  0  0  0  0  0
   -2.2834    2.1794    0.9738 H   0  0  0  0  0  0  0  0  0  0  0  0
   -2.8550    2.3961   -1.3763 H   0  0  0  0  0  0  0  0  0  0  0  0
   -1.0986    2.5899   -3.0427 H   0  0  0  0  0  0  0  0  0  0  0  0
    1.2198    2.5827   -2.3688 H   0  0  0  0  0  0  0  0  0  0  0  0
  1  2  1  0  0  0  0 
  2  3  1  0  0  0  0 
  3  4  1  0  0  0  0 
  4  5  3  0  0  0  0 
  2  6  1  0  0  0  0 
  6  7  1  0  0  0  0 
  7  8  2  0  0  0  0 
  8  9  1  0  0  0  0 
  9 10  2  0  0  0  0 
 10 11  1  0  0  0  0 
 11 12  2  0  0  0  0 
  7 12  1  0  0  0  0 
  1 13  1  0  0  0  0 
  1 14  1  0  0  0  0 
  1 15  1  0  0  0  0 
  3 16  1  0  0  0  0 
  3 17  1  0  0  0  0 
  5 18  1  0  0  0  0 
  6 19  1  0  0  0  0 
  6 20  1  0  0  0  0 
  8 21  1  0  0  0  0 
  9 22  1  0  0  0  0 
 10 23  1  0  0  0  0 
 11 24  1  0  0  0  0 
 12 25  1  0  0  0  0 
M  END
> <cdk:Title>
pargyline

> <Conformer>
1

> <SuperDrugID>
SD001851

$$$$
