phentetramine
  CDK     0628171801

 47 49  0  0  0  0  0  0  0  0999 V2000
    1.6086    6.6678    2.1880 C   0  0  0  0  0  0  0  0  0  0  0  0
    0.8009    6.7186    0.9891 N   0  0  0  0  0  0  0  0  0  0  0  0
    0.2971    5.5791    0.4319 C   0  0  0  0  0  0  0  0  0  0  0  0
    0.5150    7.9164    0.3687 C   0  0  0  0  0  0  0  0  0  0  0  0
   -0.4508    5.5839   -0.7370 C   0  0  0  0  0  0  0  0  0  0  0  0
    0.3827    4.3072    0.8442 N   0  0  0  0  0  0  0  0  0  0  0  0
    0.9778    8.9730    0.8673 O   0  0  0  0  0  0  0  0  0  0  0  0
   -0.2625    7.9832   -0.7734 N   0  0  0  0  0  0  0  0  0  0  0  0
   -0.7730    4.3065   -1.0450 N   0  0  0  0  0  0  0  0  0  0  0  0
   -0.7374    6.8222   -1.3416 C   0  0  0  0  0  0  0  0  0  0  0  0
   -0.2895    3.5327   -0.0342 C   0  0  0  0  0  0  0  0  0  0  0  0
   -0.6125    9.2509   -1.3885 C   0  0  0  0  0  0  0  0  0  0  0  0
   -1.4799    3.8840   -2.2228 C   0  0  0  0  0  0  0  0  0  0  0  0
   -1.4374    6.8357   -2.3823 O   0  0  0  0  0  0  0  0  0  0  0  0
   -0.4800    2.1846    0.1992 N   0  0  0  0  0  0  0  0  0  0  0  0
    0.5894    1.3797    0.7721 C   0  0  1  0  0  0  0  0  0  0  0  0
   -1.8137    1.6331    0.0878 C   0  0  0  0  0  0  0  0  0  0  0  0
    0.9747    0.0458    0.0623 C   0  0  1  0  0  0  0  0  0  0  0  0
   -0.1345   -0.8426   -0.0595 O   0  0  0  0  0  0  0  0  0  0  0  0
    1.6742    0.2166   -1.2467 C   0  0  0  0  0  0  0  0  0  0  0  0
    0.9593    0.2844   -2.4664 C   0  0  0  0  0  0  0  0  0  0  0  0
    3.0900    0.2752   -1.2967 C   0  0  0  0  0  0  0  0  0  0  0  0
    1.6369    0.3890   -3.6984 C   0  0  0  0  0  0  0  0  0  0  0  0
    3.7707    0.3657   -2.5254 C   0  0  0  0  0  0  0  0  0  0  0  0
    0.9534    0.4477   -4.8672 O   0  0  0  0  0  0  0  0  0  0  0  0
    3.0431    0.4232   -3.7254 C   0  0  0  0  0  0  0  0  0  0  0  0
    2.6120    7.0370    1.9663 H   0  0  0  0  0  0  0  0  0  0  0  0
    1.7130    5.6664    2.6108 H   0  0  0  0  0  0  0  0  0  0  0  0
    1.1674    7.3004    2.9609 H   0  0  0  0  0  0  0  0  0  0  0  0
   -1.6816    9.4393   -1.2577 H   0  0  0  0  0  0  0  0  0  0  0  0
   -0.0781   10.1044   -0.9711 H   0  0  0  0  0  0  0  0  0  0  0  0
   -0.3863    9.2346   -2.4573 H   0  0  0  0  0  0  0  0  0  0  0  0
   -1.5028    2.7999   -2.3404 H   0  0  0  0  0  0  0  0  0  0  0  0
   -0.9926    4.2927   -3.1090 H   0  0  0  0  0  0  0  0  0  0  0  0
   -2.5093    4.2454   -2.1935 H   0  0  0  0  0  0  0  0  0  0  0  0
    1.5152    1.9566    0.8660 H   0  0  0  0  0  0  0  0  0  0  0  0
    0.2937    1.1346    1.7974 H   0  0  0  0  0  0  0  0  0  0  0  0
   -2.0815    1.0836    0.9920 H   0  0  0  0  0  0  0  0  0  0  0  0
   -1.8801    0.9544   -0.7615 H   0  0  0  0  0  0  0  0  0  0  0  0
   -2.5776    2.4037   -0.0441 H   0  0  0  0  0  0  0  0  0  0  0  0
    1.6575   -0.4767    0.7413 H   0  0  0  0  0  0  0  0  0  0  0  0
   -0.4977   -0.9260    0.8471 H   0  0  0  0  0  0  0  0  0  0  0  0
   -0.0612    0.2470   -2.4656 H   0  0  0  0  0  0  0  0  0  0  0  0
    3.6398    0.2451   -0.4341 H   0  0  0  0  0  0  0  0  0  0  0  0
    4.7950    0.3859   -2.5493 H   0  0  0  0  0  0  0  0  0  0  0  0
    0.1811   -0.1440   -4.7515 H   0  0  0  0  0  0  0  0  0  0  0  0
    3.5422    0.4862   -4.6160 H   0  0  0  0  0  0  0  0  0  0  0  0
  1  2  1  0  0  0  0 
  2  3  1  0  0  0  0 
  2  4  1  0  0  0  0 
  3  5  2  0  0  0  0 
  3  6  1  0  0  0  0 
  4  7  2  0  0  0  0 
  4  8  1  0  0  0  0 
  5  9  1  0  0  0  0 
  5 10  1  0  0  0  0 
  6 11  2  0  0  0  0 
  8 10  1  0  0  0  0 
  8 12  1  0  0  0  0 
  9 11  1  0  0  0  0 
  9 13  1  0  0  0  0 
 10 14  2  0  0  0  0 
 11 15  1  0  0  0  0 
 15 16  1  0  0  0  0 
 15 17  1  0  0  0  0 
 16 18  1  0  0  0  0 
 18 19  1  0  0  0  0 
 18 20  1  0  0  0  0 
 20 21  2  0  0  0  0 
 20 22  1  0  0  0  0 
 21 23  1  0  0  0  0 
 22 24  2  0  0  0  0 
 23 25  1  0  0  0  0 
 23 26  2  0  0  0  0 
 24 26  1  0  0  0  0 
  1 27  1  0  0  0  0 
  1 28  1  0  0  0  0 
  1 29  1  0  0  0  0 
 12 30  1  0  0  0  0 
 12 31  1  0  0  0  0 
 12 32  1  0  0  0  0 
 13 33  1  0  0  0  0 
 13 34  1  0  0  0  0 
 13 35  1  0  0  0  0 
 16 36  1  0  0  0  0 
 16 37  1  0  0  0  0 
 17 38  1  0  0  0  0 
 17 39  1  0  0  0  0 
 17 40  1  0  0  0  0 
 18 41  1  0  0  0  0 
 19 42  1  0  0  0  0 
 21 43  1  0  0  0  0 
 22 44  1  0  0  0  0 
 24 45  1  0  0  0  0 
 25 46  1  0  0  0  0 
 26 47  1  0  0  0  0 
M  END
> <cdk:Title>
phentetramine

> <Conformer>
1

> <SuperDrugID>
SD001921

$$$$
