carsalam
  CDK     0628171801

 17 18  0  0  0  0  0  0  0  0999 V2000
   -2.6483   -2.3153   -0.0078 O   0  0  0  0  0  0  0  0  0  0  0  0
   -2.0358   -1.2264   -0.0028 C   0  0  0  0  0  0  0  0  0  0  0  0
   -0.6813   -1.2011   -0.0061 N   0  0  0  0  0  0  0  0  0  0  0  0
    0.0038   -0.0295    0.0065 C   0  0  0  0  0  0  0  0  0  0  0  0
    1.2546   -0.0911    0.0116 O   0  0  0  0  0  0  0  0  0  0  0  0
   -0.6809    1.2067    0.0098 C   0  0  0  0  0  0  0  0  0  0  0  0
   -0.0368    2.4660    0.0041 C   0  0  0  0  0  0  0  0  0  0  0  0
   -0.7986    3.6493   -0.0056 C   0  0  0  0  0  0  0  0  0  0  0  0
   -2.2045    3.5878   -0.0046 C   0  0  0  0  0  0  0  0  0  0  0  0
   -2.8572    2.3411    0.0067 C   0  0  0  0  0  0  0  0  0  0  0  0
   -2.1004    1.1552    0.0114 C   0  0  0  0  0  0  0  0  0  0  0  0
   -2.7321   -0.0548    0.0077 O   0  0  0  0  0  0  0  0  0  0  0  0
   -0.1921   -2.0395   -0.0192 H   0  0  0  0  0  0  0  0  0  0  0  0
    0.9855    2.5299    0.0041 H   0  0  0  0  0  0  0  0  0  0  0  0
   -0.3300    4.5569   -0.0117 H   0  0  0  0  0  0  0  0  0  0  0  0
   -2.7534    4.4511   -0.0131 H   0  0  0  0  0  0  0  0  0  0  0  0
   -3.8787    2.2977    0.0092 H   0  0  0  0  0  0  0  0  0  0  0  0
  1  2  2  0  0  0  0 
  2  3  1  0  0  0  0 
  3  4  1  0  0  0  0 
  4  5  2  0  0  0  0 
  4  6  1  0  0  0  0 
  6  7  2  0  0  0  0 
  7  8  1  0  0  0  0 
  8  9  2  0  0  0  0 
  9 10  1  0  0  0  0 
 10 11  2  0  0  0  0 
  6 11  1  0  0  0  0 
 11 12  1  0  0  0  0 
  2 12  1  0  0  0  0 
 13  3  1  0  0  0  0 
 14  7  1  0  0  0  0 
 15  8  1  0  0  0  0 
 16  9  1  0  0  0  0 
 17 10  1  0  0  0  0 
M  END
> <cdk:Title>
carsalam

> <Conformer>
1

> <SuperDrugID>
SD003166

$$$$
