nitrofurantoin
  CDK     0628171801

 23 24  0  0  0  0  0  0  0  0999 V2000
   -8.4984   -0.9317    4.6857 O   0  0  0  0  0  0  0  0  0  0  0  0
   -7.2492   -1.0885    4.5297 N   0  0  0  0  0  0  0  0  0  0  0  0
   -6.7429   -1.9667    5.1081 O   0  0  0  0  0  0  0  0  0  0  0  0
   -6.5333   -0.3010    3.7417 C   0  0  0  0  0  0  0  0  0  0  0  0
   -6.9885    0.7772    2.9817 C   0  0  0  0  0  0  0  0  0  0  0  0
   -5.8938    1.3006    2.3127 C   0  0  0  0  0  0  0  0  0  0  0  0
   -4.7868    0.5376    2.6724 C   0  0  0  0  0  0  0  0  0  0  0  0
   -5.1953   -0.4257    3.5365 O   0  0  0  0  0  0  0  0  0  0  0  0
   -3.5027    0.7239    2.2227 C   0  0  0  0  0  0  0  0  0  0  0  0
   -2.5820   -0.1309    2.4860 N   0  0  0  0  0  0  0  0  0  0  0  0
   -1.3766   -0.0186    2.0943 N   0  0  0  0  0  0  0  0  0  0  0  0
   -0.8775   -0.4700    0.9303 C   0  0  0  0  0  0  0  0  0  0  0  0
    0.4606   -0.1045    0.8736 C   0  0  0  0  0  0  0  0  0  0  0  0
    1.3094   -0.3438   -0.1521 O   0  0  0  0  0  0  0  0  0  0  0  0
    0.7415    0.5356    2.0159 N   0  0  0  0  0  0  0  0  0  0  0  0
   -0.3731    0.5837    2.7612 C   0  0  0  0  0  0  0  0  0  0  0  0
   -0.4526    1.1222    3.8881 O   0  0  0  0  0  0  0  0  0  0  0  0
   -7.9496    1.1200    2.9192 H   0  0  0  0  0  0  0  0  0  0  0  0
   -5.9048    2.0944    1.6689 H   0  0  0  0  0  0  0  0  0  0  0  0
   -3.2917    1.5312    1.6786 H   0  0  0  0  0  0  0  0  0  0  0  0
   -1.3866   -0.9808    0.2066 H   0  0  0  0  0  0  0  0  0  0  0  0
    2.1571    0.0743    0.1088 H   0  0  0  0  0  0  0  0  0  0  0  0
    1.6033    0.9067    2.2610 H   0  0  0  0  0  0  0  0  0  0  0  0
  1  2  1  0  0  0  0 
  2  3  2  0  0  0  0 
  2  4  1  0  0  0  0 
  4  5  2  0  0  0  0 
  5  6  1  0  0  0  0 
  6  7  2  0  0  0  0 
  7  8  1  0  0  0  0 
  4  8  1  0  0  0  0 
  9  7  1  0  0  0  0 
  9 10  2  0  0  0  0 
 10 11  1  0  0  0  0 
 11 12  1  0  0  0  0 
 12 13  2  0  0  0  0 
 13 14  1  0  0  0  0 
 13 15  1  0  0  0  0 
 15 16  1  0  0  0  0 
 11 16  1  0  0  0  0 
 16 17  2  0  0  0  0 
 18  5  1  0  0  0  0 
 19  6  1  0  0  0  0 
 20  9  1  0  0  0  0 
 21 12  1  0  0  0  0 
 22 14  1  0  0  0  0 
 23 15  1  0  0  0  0 
M  CHG  1   1  -1
M  CHG  1   2   1
M  END
> <cdk:Title>
nitrofurantoin

> <Conformer>
1

> <SuperDrugID>
SD001743

$$$$
