famprofazone
  CDK     0628171801

 62 64  0  0  0  0  0  0  0  0999 V2000
    1.4118    0.7880   -0.5282 C   0  0  0  0  0  0  0  0  0  0  0  0
    1.4645    1.7923    0.3716 N   0  0  0  0  0  0  0  0  0  0  0  0
    2.6407    1.7865    0.9581 N   0  0  0  0  0  0  0  0  0  0  0  0
    3.3771    0.7444    0.4845 C   0  0  0  0  0  0  0  0  0  0  0  0
    2.6170    0.0935   -0.4948 C   0  0  0  0  0  0  0  0  0  0  0  0
    0.4297    0.4986   -1.2525 O   0  0  0  0  0  0  0  0  0  0  0  0
    2.9844   -1.0883   -1.3354 C   0  0  2  0  0  0  0  0  0  0  0  0
    2.9648   -0.7536   -2.8526 C   0  0  0  0  0  0  0  0  0  0  0  0
    2.0862   -2.3086   -1.0009 C   0  0  0  0  0  0  0  0  0  0  0  0
    0.4148    2.6369    0.6317 C   0  0  0  0  0  0  0  0  0  0  0  0
   -0.1319    2.7182    1.9326 C   0  0  0  0  0  0  0  0  0  0  0  0
   -1.1725    3.6208    2.2151 C   0  0  0  0  0  0  0  0  0  0  0  0
   -1.6912    4.4418    1.1978 C   0  0  0  0  0  0  0  0  0  0  0  0
   -1.1759    4.3462   -0.1065 C   0  0  0  0  0  0  0  0  0  0  0  0
   -0.1266    3.4523   -0.3890 C   0  0  0  0  0  0  0  0  0  0  0  0
    3.1274    2.7597    1.9067 C   0  0  0  0  0  0  0  0  0  0  0  0
    4.7668    0.3843    0.8892 C   0  0  1  0  0  0  0  0  0  0  0  0
    5.8100    0.9925   -0.0934 C   0  0  1  0  0  0  0  0  0  0  0  0
    7.2594    0.6780    0.1799 N   0  0  1  0  0  0  0  0  0  0  0  0
    7.7347    1.2882    1.4643 C   0  0  0  0  0  0  0  0  0  0  0  0
    7.7275   -0.7335   -0.1209 C   0  0  1  0  0  0  0  0  0  0  0  0
    7.5801   -1.1370   -1.6300 C   0  0  1  0  0  0  0  0  0  0  0  0
    8.3991   -0.3416   -2.5897 C   0  0  0  0  0  0  0  0  0  0  0  0
    7.9387    0.8923   -3.1096 C   0  0  0  0  0  0  0  0  0  0  0  0
    8.7100    1.6243   -4.0336 C   0  0  0  0  0  0  0  0  0  0  0  0
    9.9610    1.1363   -4.4484 C   0  0  0  0  0  0  0  0  0  0  0  0
   10.4331   -0.0895   -3.9473 C   0  0  0  0  0  0  0  0  0  0  0  0
    9.6589   -0.8186   -3.0254 C   0  0  0  0  0  0  0  0  0  0  0  0
    9.1838   -1.0528    0.3489 C   0  0  0  0  0  0  0  0  0  0  0  0
    4.0095   -1.3910   -1.1121 H   0  0  0  0  0  0  0  0  0  0  0  0
    3.3625   -1.5958   -3.4256 H   0  0  0  0  0  0  0  0  0  0  0  0
    1.9492   -0.5503   -3.2011 H   0  0  0  0  0  0  0  0  0  0  0  0
    3.5868    0.1212   -3.0599 H   0  0  0  0  0  0  0  0  0  0  0  0
    2.4243   -3.1874   -1.5538 H   0  0  0  0  0  0  0  0  0  0  0  0
    1.0440   -2.1169   -1.2639 H   0  0  0  0  0  0  0  0  0  0  0  0
    2.1383   -2.5357    0.0664 H   0  0  0  0  0  0  0  0  0  0  0  0
    0.2305    2.1220    2.6808 H   0  0  0  0  0  0  0  0  0  0  0  0
   -1.5504    3.6814    3.1618 H   0  0  0  0  0  0  0  0  0  0  0  0
   -2.4405    5.1041    1.4075 H   0  0  0  0  0  0  0  0  0  0  0  0
   -1.5619    4.9298   -0.8505 H   0  0  0  0  0  0  0  0  0  0  0  0
    0.2474    3.4081   -1.3410 H   0  0  0  0  0  0  0  0  0  0  0  0
    3.1517    2.3170    2.9029 H   0  0  0  0  0  0  0  0  0  0  0  0
    4.1318    3.0916    1.6403 H   0  0  0  0  0  0  0  0  0  0  0  0
    2.5018    3.6503    1.9461 H   0  0  0  0  0  0  0  0  0  0  0  0
    4.9576    0.7412    1.9025 H   0  0  0  0  0  0  0  0  0  0  0  0
    4.8639   -0.6999    0.9280 H   0  0  0  0  0  0  0  0  0  0  0  0
    5.5436    0.6851   -1.1005 H   0  0  0  0  0  0  0  0  0  0  0  0
    5.6950    2.0820   -0.1010 H   0  0  0  0  0  0  0  0  0  0  0  0
    8.8171    1.4151    1.4440 H   0  0  0  0  0  0  0  0  0  0  0  0
    7.3157    2.2856    1.6224 H   0  0  0  0  0  0  0  0  0  0  0  0
    7.4735    0.6579    2.3185 H   0  0  0  0  0  0  0  0  0  0  0  0
    7.0898   -1.4188    0.4454 H   0  0  0  0  0  0  0  0  0  0  0  0
    7.8391   -2.1956   -1.7293 H   0  0  0  0  0  0  0  0  0  0  0  0
    6.5345   -1.0988   -1.9363 H   0  0  0  0  0  0  0  0  0  0  0  0
    7.0348    1.2718   -2.8276 H   0  0  0  0  0  0  0  0  0  0  0  0
    8.3593    2.5100   -4.4083 H   0  0  0  0  0  0  0  0  0  0  0  0
   10.5240    1.6686   -5.1153 H   0  0  0  0  0  0  0  0  0  0  0  0
   11.3397   -0.4532   -4.2551 H   0  0  0  0  0  0  0  0  0  0  0  0
   10.0264   -1.7045   -2.6739 H   0  0  0  0  0  0  0  0  0  0  0  0
    9.8945   -0.3323   -0.0629 H   0  0  0  0  0  0  0  0  0  0  0  0
    9.4820   -2.0564    0.0369 H   0  0  0  0  0  0  0  0  0  0  0  0
    9.2494   -1.0259    1.4369 H   0  0  0  0  0  0  0  0  0  0  0  0
  1  2  1  0  0  0  0 
  1  5  1  0  0  0  0 
  2  3  1  0  0  0  0 
  3  4  1  0  0  0  0 
  4  5  2  0  0  0  0 
  1  6  2  0  0  0  0 
  5  7  1  0  0  0  0 
  7  8  1  0  0  0  0 
  7  9  1  0  0  0  0 
  2 10  1  0  0  0  0 
 11 12  1  0  0  0  0 
 12 13  2  0  0  0  0 
 13 14  1  0  0  0  0 
 14 15  2  0  0  0  0 
 10 11  2  0  0  0  0 
 10 15  1  0  0  0  0 
  3 16  1  0  0  0  0 
  4 17  1  0  0  0  0 
 17 18  1  0  0  0  0 
 18 19  1  0  0  0  0 
 19 20  1  0  0  0  0 
 21 19  1  0  0  0  0 
 21 22  1  0  0  0  0 
 22 23  1  0  0  0  0 
 24 25  1  0  0  0  0 
 25 26  2  0  0  0  0 
 26 27  1  0  0  0  0 
 27 28  2  0  0  0  0 
 23 24  2  0  0  0  0 
 23 28  1  0  0  0  0 
 21 29  1  0  0  0  0 
  7 30  1  0  0  0  0 
  8 31  1  0  0  0  0 
  8 32  1  0  0  0  0 
  8 33  1  0  0  0  0 
  9 34  1  0  0  0  0 
  9 35  1  0  0  0  0 
  9 36  1  0  0  0  0 
 11 37  1  0  0  0  0 
 12 38  1  0  0  0  0 
 13 39  1  0  0  0  0 
 14 40  1  0  0  0  0 
 15 41  1  0  0  0  0 
 16 42  1  0  0  0  0 
 16 43  1  0  0  0  0 
 16 44  1  0  0  0  0 
 17 45  1  0  0  0  0 
 17 46  1  0  0  0  0 
 18 47  1  0  0  0  0 
 18 48  1  0  0  0  0 
 20 49  1  0  0  0  0 
 20 50  1  0  0  0  0 
 20 51  1  0  0  0  0 
 21 52  1  0  0  0  0 
 22 53  1  0  0  0  0 
 22 54  1  0  0  0  0 
 24 55  1  0  0  0  0 
 25 56  1  0  0  0  0 
 26 57  1  0  0  0  0 
 27 58  1  0  0  0  0 
 28 59  1  0  0  0  0 
 29 60  1  0  0  0  0 
 29 61  1  0  0  0  0 
 29 62  1  0  0  0  0 
M  END
> <cdk:Title>
famprofazone

> <Conformer>
1

> <SuperDrugID>
SD001009

$$$$
