pyronaridine
  CDK     0628171801

 69 74  0  0  0  0  0  0  0  0999 V2000
    3.9713   -0.7420    1.2563 N   0  0  0  0  0  0  0  0  0  0  0  0
    3.7588    0.0056    2.3870 C   0  0  0  0  0  0  0  0  0  0  0  0
    3.9758   -2.1065    1.0972 C   0  0  0  0  0  0  0  0  0  0  0  0
    2.7101    0.9572    2.3099 C   0  0  0  0  0  0  0  0  0  0  0  0
    4.5188   -0.0963    3.5902 C   0  0  0  0  0  0  0  0  0  0  0  0
    4.0575   -2.6023   -0.2210 C   0  0  0  0  0  0  0  0  0  0  0  0
    3.8829   -3.0441    2.1488 C   0  0  0  0  0  0  0  0  0  0  0  0
    2.3905    1.7376    3.4500 C   0  0  0  0  0  0  0  0  0  0  0  0
    1.9829    1.1411    1.1709 N   0  0  0  0  0  0  0  0  0  0  0  0
    4.1129    0.6817    4.7136 C   0  0  0  0  0  0  0  0  0  0  0  0
    5.6687   -0.9125    3.7336 C   0  0  0  0  0  0  0  0  0  0  0  0
    4.0504   -3.9881   -0.5042 C   0  0  0  0  0  0  0  0  0  0  0  0
    4.0256   -4.4319    1.9229 C   0  0  0  0  0  0  0  0  0  0  0  0
    3.0857    1.5614    4.5998 N   0  0  0  0  0  0  0  0  0  0  0  0
    1.3412    2.6756    3.3727 C   0  0  0  0  0  0  0  0  0  0  0  0
    0.9661    2.0367    1.0608 C   0  0  0  0  0  0  0  0  0  0  0  0
    4.7716    0.5613    5.9539 C   0  0  0  0  0  0  0  0  0  0  0  0
    6.3268   -1.0318    4.9710 C   0  0  0  0  0  0  0  0  0  0  0  0
    3.9932   -4.4236   -1.9334 C   0  0  2  0  0  0  0  0  0  0  0  0
    4.0884   -4.9001    0.5835 C   0  0  0  0  0  0  0  0  0  0  0  0
    4.1538   -5.3501    3.0937 C   0  0  1  0  0  0  0  0  0  0  0  0
    0.6248    2.8314    2.1706 C   0  0  0  0  0  0  0  0  0  0  0  0
    0.2588    2.1431   -0.1051 O   0  0  0  0  0  0  0  0  0  0  0  0
    5.8709   -0.3073    6.0883 C   0  0  0  0  0  0  0  0  0  0  0  0
    5.3216   -4.0342   -2.6263 N   0  0  2  0  0  0  0  0  0  0  0  0
    4.1955   -6.2337    0.3224 O   0  0  0  0  0  0  0  0  0  0  0  0
    5.5165   -5.9533    3.1693 N   0  0  2  0  0  0  0  0  0  0  0  0
    0.9492    2.8946   -1.1171 C   0  0  0  0  0  0  0  0  0  0  0  0
    6.6457   -0.4832    7.5836 Cl  0  0  0  0  0  0  0  0  0  0  0  0
    5.2236   -4.0948   -4.1614 C   0  0  1  0  0  0  0  0  0  0  0  0
    6.4816   -4.9908   -2.3035 C   0  0  1  0  0  0  0  0  0  0  0  0
    5.7081   -7.0445    4.1628 C   0  0  1  0  0  0  0  0  0  0  0  0
    6.6517   -5.0211    3.3571 C   0  0  1  0  0  0  0  0  0  0  0  0
    5.5708   -5.5539   -4.5294 C   0  0  1  0  0  0  0  0  0  0  0  0
    6.3266   -6.1424   -3.3195 C   0  0  1  0  0  0  0  0  0  0  0  0
    7.2113   -7.0402    4.5280 C   0  0  1  0  0  0  0  0  0  0  0  0
    7.8253   -5.9757    3.6038 C   0  0  1  0  0  0  0  0  0  0  0  0
    4.0381   -0.2301    0.4354 H   0  0  0  0  0  0  0  0  0  0  0  0
    4.1054   -1.9364   -0.9972 H   0  0  0  0  0  0  0  0  0  0  0  0
    3.7306   -2.7123    3.1001 H   0  0  0  0  0  0  0  0  0  0  0  0
    6.0429   -1.4334    2.9394 H   0  0  0  0  0  0  0  0  0  0  0  0
    1.0876    3.2377    4.1897 H   0  0  0  0  0  0  0  0  0  0  0  0
    4.4516    1.1073    6.7583 H   0  0  0  0  0  0  0  0  0  0  0  0
    7.1374   -1.6528    5.0473 H   0  0  0  0  0  0  0  0  0  0  0  0
    3.0805   -3.9268   -2.3559 H   0  0  0  0  0  0  0  0  0  0  0  0
    3.7275   -5.5092   -1.9876 H   0  0  0  0  0  0  0  0  0  0  0  0
    3.9476   -4.8325    4.0350 H   0  0  0  0  0  0  0  0  0  0  0  0
    3.4058   -6.1401    2.9999 H   0  0  0  0  0  0  0  0  0  0  0  0
   -0.1364    3.5097    2.1006 H   0  0  0  0  0  0  0  0  0  0  0  0
    4.1657   -6.6965    1.1813 H   0  0  0  0  0  0  0  0  0  0  0  0
    0.3076    2.9640   -1.9963 H   0  0  0  0  0  0  0  0  0  0  0  0
    1.1748    3.9072   -0.7747 H   0  0  0  0  0  0  0  0  0  0  0  0
    1.8738    2.3963   -1.4161 H   0  0  0  0  0  0  0  0  0  0  0  0
    4.2316   -3.8426   -4.6143 H   0  0  0  0  0  0  0  0  0  0  0  0
    5.9531   -3.4353   -4.7018 H   0  0  0  0  0  0  0  0  0  0  0  0
    7.5028   -4.5502   -2.4502 H   0  0  0  0  0  0  0  0  0  0  0  0
    6.5046   -5.4280   -1.2750 H   0  0  0  0  0  0  0  0  0  0  0  0
    5.1050   -6.8960    5.0653 H   0  0  0  0  0  0  0  0  0  0  0  0
    5.4322   -7.9973    3.7053 H   0  0  0  0  0  0  0  0  0  0  0  0
    6.8344   -4.4140    2.4689 H   0  0  0  0  0  0  0  0  0  0  0  0
    6.4992   -4.3677    4.2224 H   0  0  0  0  0  0  0  0  0  0  0  0
    4.6566   -6.1245   -4.7155 H   0  0  0  0  0  0  0  0  0  0  0  0
    6.1866   -5.5924   -5.4325 H   0  0  0  0  0  0  0  0  0  0  0  0
    7.3022   -6.5383   -3.6164 H   0  0  0  0  0  0  0  0  0  0  0  0
    5.7475   -6.9573   -2.8734 H   0  0  0  0  0  0  0  0  0  0  0  0
    7.3427   -6.7519    5.5774 H   0  0  0  0  0  0  0  0  0  0  0  0
    7.6777   -8.0163    4.3674 H   0  0  0  0  0  0  0  0  0  0  0  0
    8.1382   -6.4265    2.6564 H   0  0  0  0  0  0  0  0  0  0  0  0
    8.6765   -5.4694    4.0627 H   0  0  0  0  0  0  0  0  0  0  0  0
  1  2  1  0  0  0  0 
  1  3  1  0  0  0  0 
  2  4  1  0  0  0  0 
  2  5  2  0  0  0  0 
  3  6  2  0  0  0  0 
  3  7  1  0  0  0  0 
  4  8  1  0  0  0  0 
  4  9  2  0  0  0  0 
  5 10  1  0  0  0  0 
  5 11  1  0  0  0  0 
  6 12  1  0  0  0  0 
  7 13  2  0  0  0  0 
  8 14  1  0  0  0  0 
  8 15  2  0  0  0  0 
  9 16  1  0  0  0  0 
 10 14  2  0  0  0  0 
 10 17  1  0  0  0  0 
 11 18  2  0  0  0  0 
 12 19  1  0  0  0  0 
 12 20  2  0  0  0  0 
 13 20  1  0  0  0  0 
 13 21  1  0  0  0  0 
 15 22  1  0  0  0  0 
 16 22  2  0  0  0  0 
 16 23  1  0  0  0  0 
 17 24  2  0  0  0  0 
 18 24  1  0  0  0  0 
 19 25  1  0  0  0  0 
 20 26  1  0  0  0  0 
 21 27  1  0  0  0  0 
 23 28  1  0  0  0  0 
 24 29  1  0  0  0  0 
 25 30  1  0  0  0  0 
 25 31  1  0  0  0  0 
 27 32  1  0  0  0  0 
 27 33  1  0  0  0  0 
 30 34  1  0  0  0  0 
 31 35  1  0  0  0  0 
 32 36  1  0  0  0  0 
 33 37  1  0  0  0  0 
 34 35  1  0  0  0  0 
 36 37  1  0  0  0  0 
  1 38  1  0  0  0  0 
  6 39  1  0  0  0  0 
  7 40  1  0  0  0  0 
 11 41  1  0  0  0  0 
 15 42  1  0  0  0  0 
 17 43  1  0  0  0  0 
 18 44  1  0  0  0  0 
 19 45  1  0  0  0  0 
 19 46  1  0  0  0  0 
 21 47  1  0  0  0  0 
 21 48  1  0  0  0  0 
 22 49  1  0  0  0  0 
 26 50  1  0  0  0  0 
 28 51  1  0  0  0  0 
 28 52  1  0  0  0  0 
 28 53  1  0  0  0  0 
 30 54  1  0  0  0  0 
 30 55  1  0  0  0  0 
 31 56  1  0  0  0  0 
 31 57  1  0  0  0  0 
 32 58  1  0  0  0  0 
 32 59  1  0  0  0  0 
 33 60  1  0  0  0  0 
 33 61  1  0  0  0  0 
 34 62  1  0  0  0  0 
 34 63  1  0  0  0  0 
 35 64  1  0  0  0  0 
 35 65  1  0  0  0  0 
 36 66  1  0  0  0  0 
 36 67  1  0  0  0  0 
 37 68  1  0  0  0  0 
 37 69  1  0  0  0  0 
M  END
> <cdk:Title>
pyronaridine

> <Conformer>
1

> <SuperDrugID>
SD003509

$$$$
