ifenprodil
  CDK     0628171801

 51 53  0  0  0  0  0  0  0  0999 V2000
   -0.9526   -1.5331   -5.4542 C   0  0  1  0  0  0  0  0  0  0  0  0
   -1.1580   -1.7557   -3.9185 C   0  0  2  0  0  0  0  0  0  0  0  0
   -0.3220   -2.6787   -6.1688 C   0  0  0  0  0  0  0  0  0  0  0  0
   -1.8845   -0.5291   -3.2792 C   0  0  2  0  0  0  0  0  0  0  0  0
    0.1907   -2.0589   -3.1925 C   0  0  1  0  0  0  0  0  0  0  0  0
   -1.0493   -3.8711   -6.3992 C   0  0  0  0  0  0  0  0  0  0  0  0
    1.0134   -2.6015   -6.6348 C   0  0  0  0  0  0  0  0  0  0  0  0
   -1.9232   -0.5661   -1.7231 C   0  0  1  0  0  0  0  0  0  0  0  0
    0.0163   -2.1085   -1.6585 C   0  0  1  0  0  0  0  0  0  0  0  0
   -0.4618   -4.9486   -7.0886 C   0  0  0  0  0  0  0  0  0  0  0  0
    1.6017   -3.6788   -7.3220 C   0  0  0  0  0  0  0  0  0  0  0  0
   -0.5826   -0.8467   -1.1157 N   0  0  0  0  0  0  0  0  0  0  0  0
    0.8611   -4.8518   -7.5557 C   0  0  0  0  0  0  0  0  0  0  0  0
    0.2604    0.3290   -0.6591 C   0  0  1  0  0  0  0  0  0  0  0  0
    1.6185   -0.0714    0.0144 C   0  0  2  0  0  0  0  0  0  0  0  0
    0.4644    1.4254   -1.7495 C   0  0  0  0  0  0  0  0  0  0  0  0
    1.4014   -1.0537    1.0285 O   0  0  0  0  0  0  0  0  0  0  0  0
    2.3950    1.0660    0.5968 C   0  0  0  0  0  0  0  0  0  0  0  0
    1.9588    1.7389    1.7630 C   0  0  0  0  0  0  0  0  0  0  0  0
    3.5874    1.5095   -0.0278 C   0  0  0  0  0  0  0  0  0  0  0  0
    2.7031    2.8095    2.2963 C   0  0  0  0  0  0  0  0  0  0  0  0
    4.3290    2.5820    0.4988 C   0  0  0  0  0  0  0  0  0  0  0  0
    3.8878    3.2339    1.6626 C   0  0  0  0  0  0  0  0  0  0  0  0
    4.6111    4.2689    2.1568 O   0  0  0  0  0  0  0  0  0  0  0  0
   -1.9168   -1.3276   -5.9273 H   0  0  0  0  0  0  0  0  0  0  0  0
   -0.3467   -0.6339   -5.5997 H   0  0  0  0  0  0  0  0  0  0  0  0
   -1.8115   -2.6248   -3.7830 H   0  0  0  0  0  0  0  0  0  0  0  0
   -2.9107   -0.4840   -3.6536 H   0  0  0  0  0  0  0  0  0  0  0  0
   -1.3903    0.3854   -3.6061 H   0  0  0  0  0  0  0  0  0  0  0  0
    0.5740   -3.0309   -3.5185 H   0  0  0  0  0  0  0  0  0  0  0  0
    0.9389   -1.3011   -3.4399 H   0  0  0  0  0  0  0  0  0  0  0  0
   -2.0139   -3.9598   -6.0690 H   0  0  0  0  0  0  0  0  0  0  0  0
    1.5732   -1.7610   -6.4707 H   0  0  0  0  0  0  0  0  0  0  0  0
   -2.3337    0.3751   -1.3479 H   0  0  0  0  0  0  0  0  0  0  0  0
   -2.6166   -1.3516   -1.4115 H   0  0  0  0  0  0  0  0  0  0  0  0
   -0.6484   -2.9397   -1.4080 H   0  0  0  0  0  0  0  0  0  0  0  0
    0.9692   -2.3581   -1.1994 H   0  0  0  0  0  0  0  0  0  0  0  0
   -0.9983   -5.8032   -7.2523 H   0  0  0  0  0  0  0  0  0  0  0  0
    2.5687   -3.6115   -7.6501 H   0  0  0  0  0  0  0  0  0  0  0  0
    1.2847   -5.6316   -8.0639 H   0  0  0  0  0  0  0  0  0  0  0  0
   -0.3346    0.8024    0.1283 H   0  0  0  0  0  0  0  0  0  0  0  0
    2.2344   -0.5550   -0.7469 H   0  0  0  0  0  0  0  0  0  0  0  0
    1.0333    2.2736   -1.3674 H   0  0  0  0  0  0  0  0  0  0  0  0
   -0.4949    1.8327   -2.0633 H   0  0  0  0  0  0  0  0  0  0  0  0
    0.9865    1.0191   -2.6162 H   0  0  0  0  0  0  0  0  0  0  0  0
    0.7412   -0.6638    1.6392 H   0  0  0  0  0  0  0  0  0  0  0  0
    1.0960    1.4570    2.2333 H   0  0  0  0  0  0  0  0  0  0  0  0
    3.9270    1.0599   -0.8820 H   0  0  0  0  0  0  0  0  0  0  0  0
    2.3775    3.2797    3.1458 H   0  0  0  0  0  0  0  0  0  0  0  0
    5.1893    2.8848    0.0341 H   0  0  0  0  0  0  0  0  0  0  0  0
    4.1181    4.5795    2.9445 H   0  0  0  0  0  0  0  0  0  0  0  0
  1  2  1  0  0  0  0 
  1  3  1  0  0  0  0 
  2  4  1  0  0  0  0 
  2  5  1  0  0  0  0 
  3  6  2  0  0  0  0 
  3  7  1  0  0  0  0 
  4  8  1  0  0  0  0 
  5  9  1  0  0  0  0 
  6 10  1  0  0  0  0 
  7 11  2  0  0  0  0 
  8 12  1  0  0  0  0 
  9 12  1  0  0  0  0 
 10 13  2  0  0  0  0 
 11 13  1  0  0  0  0 
 12 14  1  0  0  0  0 
 14 15  1  0  0  0  0 
 14 16  1  0  0  0  0 
 15 17  1  0  0  0  0 
 15 18  1  0  0  0  0 
 18 19  2  0  0  0  0 
 18 20  1  0  0  0  0 
 19 21  1  0  0  0  0 
 20 22  2  0  0  0  0 
 21 23  2  0  0  0  0 
 22 23  1  0  0  0  0 
 23 24  1  0  0  0  0 
  1 25  1  0  0  0  0 
  1 26  1  0  0  0  0 
  2 27  1  0  0  0  0 
  4 28  1  0  0  0  0 
  4 29  1  0  0  0  0 
  5 30  1  0  0  0  0 
  5 31  1  0  0  0  0 
  6 32  1  0  0  0  0 
  7 33  1  0  0  0  0 
  8 34  1  0  0  0  0 
  8 35  1  0  0  0  0 
  9 36  1  0  0  0  0 
  9 37  1  0  0  0  0 
 10 38  1  0  0  0  0 
 11 39  1  0  0  0  0 
 13 40  1  0  0  0  0 
 14 41  1  0  0  0  0 
 15 42  1  0  0  0  0 
 16 43  1  0  0  0  0 
 16 44  1  0  0  0  0 
 16 45  1  0  0  0  0 
 17 46  1  0  0  0  0 
 19 47  1  0  0  0  0 
 20 48  1  0  0  0  0 
 21 49  1  0  0  0  0 
 22 50  1  0  0  0  0 
 24 51  1  0  0  0  0 
M  END
> <cdk:Title>
ifenprodil

> <Conformer>
1

> <SuperDrugID>
SD001260

$$$$
