benzoin
  CDK     0628171802

 28 29  0  0  0  0  0  0  0  0999 V2000
   -1.8225   -1.4164   -0.0236 C   0  0  1  0  0  0  0  0  0  0  0  0
   -1.2709   -1.5165    1.3538 C   0  0  0  0  0  0  0  0  0  0  0  0
   -0.7809   -1.0488   -0.9295 O   0  0  0  0  0  0  0  0  0  0  0  0
   -2.4542   -2.7020   -0.4448 C   0  0  0  0  0  0  0  0  0  0  0  0
   -0.1765   -2.1150    1.4932 O   0  0  0  0  0  0  0  0  0  0  0  0
   -1.9083   -1.0019    2.5194 C   0  0  0  0  0  0  0  0  0  0  0  0
   -3.8538   -2.7974   -0.6445 C   0  0  0  0  0  0  0  0  0  0  0  0
   -1.6690   -3.8657   -0.6406 C   0  0  0  0  0  0  0  0  0  0  0  0
   -1.1288   -0.5763    3.6249 C   0  0  0  0  0  0  0  0  0  0  0  0
   -3.3194   -0.9280    2.6307 C   0  0  0  0  0  0  0  0  0  0  0  0
   -4.4506   -4.0178   -1.0113 C   0  0  0  0  0  0  0  0  0  0  0  0
   -2.2635   -5.0845   -1.0138 C   0  0  0  0  0  0  0  0  0  0  0  0
   -1.7412   -0.1085    4.8018 C   0  0  0  0  0  0  0  0  0  0  0  0
   -3.9323   -0.4630    3.8092 C   0  0  0  0  0  0  0  0  0  0  0  0
   -3.6547   -5.1599   -1.1993 C   0  0  0  0  0  0  0  0  0  0  0  0
   -3.1422   -0.0573    4.8984 C   0  0  0  0  0  0  0  0  0  0  0  0
   -2.5418   -0.5938   -0.0670 H   0  0  0  0  0  0  0  0  0  0  0  0
   -1.2147   -0.9630   -1.8044 H   0  0  0  0  0  0  0  0  0  0  0  0
   -4.4559   -1.9801   -0.5194 H   0  0  0  0  0  0  0  0  0  0  0  0
   -0.6556   -3.8356   -0.5059 H   0  0  0  0  0  0  0  0  0  0  0  0
   -0.1047   -0.6022    3.5817 H   0  0  0  0  0  0  0  0  0  0  0  0
   -3.9229   -1.2281    1.8642 H   0  0  0  0  0  0  0  0  0  0  0  0
   -5.4634   -4.0724   -1.1423 H   0  0  0  0  0  0  0  0  0  0  0  0
   -1.6847   -5.9165   -1.1478 H   0  0  0  0  0  0  0  0  0  0  0  0
   -1.1659    0.1938    5.5894 H   0  0  0  0  0  0  0  0  0  0  0  0
   -4.9526   -0.4261    3.8743 H   0  0  0  0  0  0  0  0  0  0  0  0
   -4.0867   -6.0443   -1.4722 H   0  0  0  0  0  0  0  0  0  0  0  0
   -3.5850    0.2742    5.7587 H   0  0  0  0  0  0  0  0  0  0  0  0
  1  2  1  0  0  0  0 
  1  3  1  0  0  0  0 
  1  4  1  0  0  0  0 
  2  5  2  0  0  0  0 
  2  6  1  0  0  0  0 
  4  7  2  0  0  0  0 
  4  8  1  0  0  0  0 
  6  9  2  0  0  0  0 
  6 10  1  0  0  0  0 
  7 11  1  0  0  0  0 
  8 12  2  0  0  0  0 
  9 13  1  0  0  0  0 
 10 14  2  0  0  0  0 
 11 15  2  0  0  0  0 
 12 15  1  0  0  0  0 
 13 16  2  0  0  0  0 
 14 16  1  0  0  0  0 
 17  1  1  0  0  0  0 
 18  3  1  0  0  0  0 
 19  7  1  0  0  0  0 
 20  8  1  0  0  0  0 
 21  9  1  0  0  0  0 
 22 10  1  0  0  0  0 
 23 11  1  0  0  0  0 
 24 12  1  0  0  0  0 
 25 13  1  0  0  0  0 
 26 14  1  0  0  0  0 
 27 15  1  0  0  0  0 
 28 16  1  0  0  0  0 
M  END
> <cdk:Title>
benzoin

> <Conformer>
1

> <SuperDrugID>
SD003695

$$$$
