fazadinium
  CDK     0628171801

 58 63  0  0  0  0  0  0  0  0999 V2000
    0.5007   -1.7274   -2.2396 N   0  0  0  0  0  0  0  0  0  0  0  0
    1.2000   -0.7621   -2.5234 N   0  0  0  0  0  0  0  0  0  0  0  0
    0.1274   -2.6736   -3.0153 N   0  0  0  0  0  0  0  0  0  0  0  0
    1.5547    0.1986   -1.7557 N   0  0  0  0  0  0  0  0  0  0  0  0
    0.2812   -2.8372   -4.3544 C   0  0  0  0  0  0  0  0  0  0  0  0
   -0.5442   -3.7524   -2.5654 C   0  0  0  0  0  0  0  0  0  0  0  0
    1.2847    0.4367   -0.4468 C   0  0  0  0  0  0  0  0  0  0  0  0
    2.3059    1.2295   -2.1908 C   0  0  0  0  0  0  0  0  0  0  0  0
   -0.3390   -4.0419   -4.7207 C   0  0  0  0  0  0  0  0  0  0  0  0
    0.9299   -1.9666   -5.2584 C   0  0  0  0  0  0  0  0  0  0  0  0
   -0.8281   -4.5887   -3.5906 N   0  0  0  0  0  0  0  0  0  0  0  0
   -0.9428   -4.0667   -1.2514 C   0  0  0  0  0  0  0  0  0  0  0  0
    1.8736    1.6598   -0.0918 C   0  0  0  0  0  0  0  0  0  0  0  0
    0.5216   -0.3648    0.4296 C   0  0  0  0  0  0  0  0  0  0  0  0
    2.4975    2.1243   -1.1933 N   0  0  0  0  0  0  0  0  0  0  0  0
    2.8570    1.4478   -3.4690 C   0  0  0  0  0  0  0  0  0  0  0  0
   -0.4761   -4.6128   -6.0804 C   0  0  0  0  0  0  0  0  0  0  0  0
    2.1673   -2.3374   -5.8317 C   0  0  0  0  0  0  0  0  0  0  0  0
    0.3306   -0.7430   -5.6327 C   0  0  0  0  0  0  0  0  0  0  0  0
   -1.5059   -5.7620   -3.4181 C   0  0  0  0  0  0  0  0  0  0  0  0
   -1.6518   -5.2647   -1.0406 C   0  0  0  0  0  0  0  0  0  0  0  0
    1.8175    2.3398    1.2236 C   0  0  0  0  0  0  0  0  0  0  0  0
    1.1542   -1.1625    1.4101 C   0  0  0  0  0  0  0  0  0  0  0  0
   -0.8888   -0.3357    0.3599 C   0  0  0  0  0  0  0  0  0  0  0  0
    3.2148    3.2739   -1.3672 C   0  0  0  0  0  0  0  0  0  0  0  0
    3.6005    2.6239   -3.6807 C   0  0  0  0  0  0  0  0  0  0  0  0
    2.7844   -1.5058   -6.7840 C   0  0  0  0  0  0  0  0  0  0  0  0
    0.9494    0.0858   -6.5870 C   0  0  0  0  0  0  0  0  0  0  0  0
   -1.9308   -6.1237   -2.1238 C   0  0  0  0  0  0  0  0  0  0  0  0
    0.3811   -1.9088    2.3190 C   0  0  0  0  0  0  0  0  0  0  0  0
   -1.6584   -1.0764    1.2750 C   0  0  0  0  0  0  0  0  0  0  0  0
    3.7822    3.5455   -2.6290 C   0  0  0  0  0  0  0  0  0  0  0  0
    2.1724   -0.2983   -7.1666 C   0  0  0  0  0  0  0  0  0  0  0  0
   -1.0239   -1.8603    2.2557 C   0  0  0  0  0  0  0  0  0  0  0  0
   -0.7244   -3.4478   -0.4694 H   0  0  0  0  0  0  0  0  0  0  0  0
    2.7274    0.7735   -4.2242 H   0  0  0  0  0  0  0  0  0  0  0  0
   -1.5353   -4.7598   -6.2985 H   0  0  0  0  0  0  0  0  0  0  0  0
   -0.0602   -3.9566   -6.8452 H   0  0  0  0  0  0  0  0  0  0  0  0
    0.0366   -5.5749   -6.1312 H   0  0  0  0  0  0  0  0  0  0  0  0
    2.6222   -3.2155   -5.5664 H   0  0  0  0  0  0  0  0  0  0  0  0
   -0.5625   -0.4534   -5.2269 H   0  0  0  0  0  0  0  0  0  0  0  0
   -1.7079   -6.3781   -4.2097 H   0  0  0  0  0  0  0  0  0  0  0  0
   -1.9622   -5.5092   -0.0973 H   0  0  0  0  0  0  0  0  0  0  0  0
    1.2803    1.7544    1.9711 H   0  0  0  0  0  0  0  0  0  0  0  0
    2.8307    2.5144    1.5898 H   0  0  0  0  0  0  0  0  0  0  0  0
    1.3076    3.2978    1.1097 H   0  0  0  0  0  0  0  0  0  0  0  0
    2.1751   -1.2012    1.4748 H   0  0  0  0  0  0  0  0  0  0  0  0
   -1.3648    0.2318   -0.3455 H   0  0  0  0  0  0  0  0  0  0  0  0
    3.3481    3.9366   -0.5998 H   0  0  0  0  0  0  0  0  0  0  0  0
    4.0097    2.8055   -4.6008 H   0  0  0  0  0  0  0  0  0  0  0  0
    3.6743   -1.7821   -7.2028 H   0  0  0  0  0  0  0  0  0  0  0  0
    0.5085    0.9655   -6.8643 H   0  0  0  0  0  0  0  0  0  0  0  0
   -2.4371   -6.9999   -1.9721 H   0  0  0  0  0  0  0  0  0  0  0  0
    0.8399   -2.4826    3.0292 H   0  0  0  0  0  0  0  0  0  0  0  0
   -2.6794   -1.0427    1.2308 H   0  0  0  0  0  0  0  0  0  0  0  0
    4.3214    4.4019   -2.7807 H   0  0  0  0  0  0  0  0  0  0  0  0
    2.6129    0.2976   -7.8700 H   0  0  0  0  0  0  0  0  0  0  0  0
   -1.5855   -2.3901    2.9250 H   0  0  0  0  0  0  0  0  0  0  0  0
  1  2  2  0  0  0  0 
  1  3  1  0  0  0  0 
  2  4  1  0  0  0  0 
  3  5  1  0  0  0  0 
  3  6  2  0  0  0  0 
  4  7  1  0  0  0  0 
  4  8  2  0  0  0  0 
  5  9  2  0  0  0  0 
  5 10  1  0  0  0  0 
  6 11  1  0  0  0  0 
  6 12  1  0  0  0  0 
  7 13  2  0  0  0  0 
  7 14  1  0  0  0  0 
  8 15  1  0  0  0  0 
  8 16  1  0  0  0  0 
  9 11  1  0  0  0  0 
  9 17  1  0  0  0  0 
 10 18  2  0  0  0  0 
 10 19  1  0  0  0  0 
 11 20  1  0  0  0  0 
 12 21  2  0  0  0  0 
 13 15  1  0  0  0  0 
 13 22  1  0  0  0  0 
 14 23  2  0  0  0  0 
 14 24  1  0  0  0  0 
 15 25  1  0  0  0  0 
 16 26  2  0  0  0  0 
 18 27  1  0  0  0  0 
 19 28  2  0  0  0  0 
 20 29  2  0  0  0  0 
 21 29  1  0  0  0  0 
 23 30  1  0  0  0  0 
 24 31  2  0  0  0  0 
 25 32  2  0  0  0  0 
 26 32  1  0  0  0  0 
 27 33  2  0  0  0  0 
 28 33  1  0  0  0  0 
 30 34  2  0  0  0  0 
 31 34  1  0  0  0  0 
 12 35  1  0  0  0  0 
 16 36  1  0  0  0  0 
 17 37  1  0  0  0  0 
 17 38  1  0  0  0  0 
 17 39  1  0  0  0  0 
 18 40  1  0  0  0  0 
 19 41  1  0  0  0  0 
 20 42  1  0  0  0  0 
 21 43  1  0  0  0  0 
 22 44  1  0  0  0  0 
 22 45  1  0  0  0  0 
 22 46  1  0  0  0  0 
 23 47  1  0  0  0  0 
 24 48  1  0  0  0  0 
 25 49  1  0  0  0  0 
 26 50  1  0  0  0  0 
 27 51  1  0  0  0  0 
 28 52  1  0  0  0  0 
 29 53  1  0  0  0  0 
 30 54  1  0  0  0  0 
 31 55  1  0  0  0  0 
 32 56  1  0  0  0  0 
 33 57  1  0  0  0  0 
 34 58  1  0  0  0  0 
M  CHG  1   3   1
M  CHG  1   4   1
M  END
> <cdk:Title>
fazadinium

> <Conformer>
1

> <SuperDrugID>
SD003610

$$$$
