melperone
  CDK     0628171801

 41 42  0  0  0  0  0  0  0  0999 V2000
    1.2638    1.8168    3.7531 C   0  0  0  0  0  0  0  0  0  0  0  0
    1.2790    0.4885    3.0756 C   0  0  2  0  0  0  0  0  0  0  0  0
    0.5879    2.7351    3.2282 O   0  0  0  0  0  0  0  0  0  0  0  0
    1.9762    2.0784    4.9720 C   0  0  0  0  0  0  0  0  0  0  0  0
    0.4997    0.3769    1.7344 C   0  0  1  0  0  0  0  0  0  0  0  0
    1.9379    3.3629    5.5808 C   0  0  0  0  0  0  0  0  0  0  0  0
    2.7496    1.0777    5.6173 C   0  0  0  0  0  0  0  0  0  0  0  0
    0.3957   -1.0808    1.2038 C   0  0  1  0  0  0  0  0  0  0  0  0
    2.6524    3.6358    6.7642 C   0  0  0  0  0  0  0  0  0  0  0  0
    3.4653    1.3480    6.7977 C   0  0  0  0  0  0  0  0  0  0  0  0
   -0.1594   -2.0848    2.1743 N   0  0  2  0  0  0  0  0  0  0  0  0
    3.4211    2.6282    7.3709 C   0  0  0  0  0  0  0  0  0  0  0  0
   -0.0062   -3.4954    1.6855 C   0  0  2  0  0  0  0  0  0  0  0  0
   -1.5547   -1.7903    2.6370 C   0  0  1  0  0  0  0  0  0  0  0  0
    4.0935    2.8778    8.4614 F   0  0  0  0  0  0  0  0  0  0  0  0
   -0.4696   -4.5377    2.7350 C   0  0  2  0  0  0  0  0  0  0  0  0
   -2.0426   -2.7988    3.7057 C   0  0  1  0  0  0  0  0  0  0  0  0
   -1.9264   -4.2642    3.2028 C   0  0  2  0  0  0  0  0  0  0  0  0
   -2.3813   -5.2837    4.2815 C   0  0  0  0  0  0  0  0  0  0  0  0
    0.8687   -0.2360    3.7817 H   0  0  0  0  0  0  0  0  0  0  0  0
    2.3169    0.2151    2.8725 H   0  0  0  0  0  0  0  0  0  0  0  0
   -0.5063    0.7861    1.8463 H   0  0  0  0  0  0  0  0  0  0  0  0
    1.0124    0.9827    0.9818 H   0  0  0  0  0  0  0  0  0  0  0  0
    1.3906    4.1224    5.1697 H   0  0  0  0  0  0  0  0  0  0  0  0
    2.8097    0.1308    5.2388 H   0  0  0  0  0  0  0  0  0  0  0  0
   -0.2127   -1.0744    0.2938 H   0  0  0  0  0  0  0  0  0  0  0  0
    1.4062   -1.3837    0.9129 H   0  0  0  0  0  0  0  0  0  0  0  0
    2.6115    4.5691    7.1779 H   0  0  0  0  0  0  0  0  0  0  0  0
    4.0190    0.6073    7.2337 H   0  0  0  0  0  0  0  0  0  0  0  0
    1.0446   -3.7036    1.4633 H   0  0  0  0  0  0  0  0  0  0  0  0
   -0.5766   -3.6403    0.7618 H   0  0  0  0  0  0  0  0  0  0  0  0
   -1.5997   -0.8038    3.1000 H   0  0  0  0  0  0  0  0  0  0  0  0
   -2.2448   -1.7901    1.7895 H   0  0  0  0  0  0  0  0  0  0  0  0
    0.2090   -4.5017    3.5931 H   0  0  0  0  0  0  0  0  0  0  0  0
   -0.4063   -5.5366    2.2924 H   0  0  0  0  0  0  0  0  0  0  0  0
   -1.4402   -2.6709    4.6110 H   0  0  0  0  0  0  0  0  0  0  0  0
   -3.0829   -2.5733    3.9539 H   0  0  0  0  0  0  0  0  0  0  0  0
   -2.5927   -4.3838    2.3403 H   0  0  0  0  0  0  0  0  0  0  0  0
   -2.3248   -6.3004    3.8879 H   0  0  0  0  0  0  0  0  0  0  0  0
   -3.4144   -5.0914    4.5759 H   0  0  0  0  0  0  0  0  0  0  0  0
   -1.7491   -5.2195    5.1696 H   0  0  0  0  0  0  0  0  0  0  0  0
  1  2  1  0  0  0  0 
  1  3  2  0  0  0  0 
  1  4  1  0  0  0  0 
  2  5  1  0  0  0  0 
  4  6  2  0  0  0  0 
  4  7  1  0  0  0  0 
  5  8  1  0  0  0  0 
  6  9  1  0  0  0  0 
  7 10  2  0  0  0  0 
  8 11  1  0  0  0  0 
  9 12  2  0  0  0  0 
 10 12  1  0  0  0  0 
 11 13  1  0  0  0  0 
 11 14  1  0  0  0  0 
 12 15  1  0  0  0  0 
 13 16  1  0  0  0  0 
 14 17  1  0  0  0  0 
 16 18  1  0  0  0  0 
 17 18  1  0  0  0  0 
 18 19  1  0  0  0  0 
 20  2  1  0  0  0  0 
 21  2  1  0  0  0  0 
 22  5  1  0  0  0  0 
 23  5  1  0  0  0  0 
 24  6  1  0  0  0  0 
 25  7  1  0  0  0  0 
 26  8  1  0  0  0  0 
 27  8  1  0  0  0  0 
 28  9  1  0  0  0  0 
 29 10  1  0  0  0  0 
 30 13  1  0  0  0  0 
 31 13  1  0  0  0  0 
 32 14  1  0  0  0  0 
 33 14  1  0  0  0  0 
 34 16  1  0  0  0  0 
 35 16  1  0  0  0  0 
 36 17  1  0  0  0  0 
 37 17  1  0  0  0  0 
 38 18  1  0  0  0  0 
 39 19  1  0  0  0  0 
 40 19  1  0  0  0  0 
 41 19  1  0  0  0  0 
M  END
> <cdk:Title>
melperone

> <Conformer>
1

> <SuperDrugID>
SD001483

$$$$
