tridihexethyl
  CDK     0628171801

 59 60  0  0  0  0  0  0  0  0999 V2000
   -0.7888   -1.1827    0.0951 C   0  0  1  0  0  0  0  0  0  0  0  0
   -0.4768   -2.0120   -1.2060 C   0  0  2  0  0  0  0  0  0  0  0  0
   -2.2044   -0.9427    0.0760 O   0  0  0  0  0  0  0  0  0  0  0  0
   -0.4650   -2.0155    1.4113 C   0  0  2  0  0  0  0  0  0  0  0  0
   -0.0304    0.1300    0.0797 C   0  0  0  0  0  0  0  0  0  0  0  0
   -0.7110   -1.3053   -2.5799 C   0  0  2  0  0  0  0  0  0  0  0  0
   -1.1537   -3.4253    1.4739 C   0  0  1  0  0  0  0  0  0  0  0  0
   -0.7834   -1.2349    2.7339 C   0  0  2  0  0  0  0  0  0  0  0  0
   -0.6857    1.3922    0.0713 C   0  0  0  0  0  0  0  0  0  0  0  0
    1.3900    0.1412    0.0623 C   0  0  0  0  0  0  0  0  0  0  0  0
   -0.3571   -2.0738   -3.8608 N   0  0  2  0  0  0  0  0  0  0  0  0
   -0.8054   -4.2292    2.7519 C   0  0  2  0  0  0  0  0  0  0  0  0
   -0.4257   -2.0414    4.0142 C   0  0  2  0  0  0  0  0  0  0  0  0
    0.0388    2.5996    0.0384 C   0  0  0  0  0  0  0  0  0  0  0  0
    2.1193    1.3458    0.0320 C   0  0  0  0  0  0  0  0  0  0  0  0
   -0.7610   -1.1814   -5.0385 C   0  0  2  0  0  0  0  0  0  0  0  0
   -1.0903   -3.4189   -3.9286 C   0  0  1  0  0  0  0  0  0  0  0  0
    1.1425   -2.3912   -3.9132 C   0  0  1  0  0  0  0  0  0  0  0  0
   -1.1164   -3.4282    4.0378 C   0  0  2  0  0  0  0  0  0  0  0  0
    1.4434    2.5755    0.0182 C   0  0  0  0  0  0  0  0  0  0  0  0
   -0.5265   -1.6728   -6.4943 C   0  0  0  0  0  0  0  0  0  0  0  0
   -2.6414   -3.4489   -3.8811 C   0  0  0  0  0  0  0  0  0  0  0  0
    2.1792   -1.2375   -3.8458 C   0  0  0  0  0  0  0  0  0  0  0  0
   -1.1311   -2.8801   -1.2082 H   0  0  0  0  0  0  0  0  0  0  0  0
    0.5493   -2.3771   -1.1434 H   0  0  0  0  0  0  0  0  0  0  0  0
   -2.6240   -1.8263    0.0800 H   0  0  0  0  0  0  0  0  0  0  0  0
    0.6118   -2.2138    1.4182 H   0  0  0  0  0  0  0  0  0  0  0  0
   -0.1616   -0.3619   -2.5620 H   0  0  0  0  0  0  0  0  0  0  0  0
   -1.7672   -1.0153   -2.5984 H   0  0  0  0  0  0  0  0  0  0  0  0
   -2.2393   -3.3140    1.4152 H   0  0  0  0  0  0  0  0  0  0  0  0
   -0.8329   -4.0453    0.6362 H   0  0  0  0  0  0  0  0  0  0  0  0
   -1.8467   -0.9801    2.7613 H   0  0  0  0  0  0  0  0  0  0  0  0
   -0.2181   -0.2998    2.7666 H   0  0  0  0  0  0  0  0  0  0  0  0
   -1.7051    1.4523    0.0860 H   0  0  0  0  0  0  0  0  0  0  0  0
    1.9157   -0.7343    0.0658 H   0  0  0  0  0  0  0  0  0  0  0  0
    0.2563   -4.4938    2.7361 H   0  0  0  0  0  0  0  0  0  0  0  0
   -1.3802   -5.1596    2.7596 H   0  0  0  0  0  0  0  0  0  0  0  0
   -0.7298   -1.4758    4.8998 H   0  0  0  0  0  0  0  0  0  0  0  0
    0.6590   -2.1793    4.0638 H   0  0  0  0  0  0  0  0  0  0  0  0
   -0.4543    3.4966    0.0300 H   0  0  0  0  0  0  0  0  0  0  0  0
    3.1426    1.3269    0.0203 H   0  0  0  0  0  0  0  0  0  0  0  0
   -0.2541   -0.2153   -4.9633 H   0  0  0  0  0  0  0  0  0  0  0  0
   -1.8268   -0.9443   -4.9734 H   0  0  0  0  0  0  0  0  0  0  0  0
   -0.8104   -3.9501   -4.8418 H   0  0  0  0  0  0  0  0  0  0  0  0
   -0.7540   -4.0734   -3.1189 H   0  0  0  0  0  0  0  0  0  0  0  0
    1.4150   -3.0790   -3.1079 H   0  0  0  0  0  0  0  0  0  0  0  0
    1.3704   -2.9419   -4.8290 H   0  0  0  0  0  0  0  0  0  0  0  0
   -0.7665   -3.9968    4.9041 H   0  0  0  0  0  0  0  0  0  0  0  0
   -2.1987   -3.2981    4.1372 H   0  0  0  0  0  0  0  0  0  0  0  0
    1.9707    3.4521   -0.0011 H   0  0  0  0  0  0  0  0  0  0  0  0
   -0.8730   -0.9065   -7.1927 H   0  0  0  0  0  0  0  0  0  0  0  0
    0.5313   -1.8487   -6.6899 H   0  0  0  0  0  0  0  0  0  0  0  0
   -1.0837   -2.5871   -6.6985 H   0  0  0  0  0  0  0  0  0  0  0  0
   -2.9842   -4.4859   -3.9301 H   0  0  0  0  0  0  0  0  0  0  0  0
   -3.0160   -3.0143   -2.9553 H   0  0  0  0  0  0  0  0  0  0  0  0
   -3.0735   -2.9139   -4.7258 H   0  0  0  0  0  0  0  0  0  0  0  0
    3.1859   -1.6538   -3.9338 H   0  0  0  0  0  0  0  0  0  0  0  0
    2.0386   -0.5272   -4.6593 H   0  0  0  0  0  0  0  0  0  0  0  0
    2.1201   -0.7074   -2.8963 H   0  0  0  0  0  0  0  0  0  0  0  0
  1  2  1  0  0  0  0 
  1  3  1  0  0  0  0 
  1  4  1  0  0  0  0 
  1  5  1  0  0  0  0 
  2  6  1  0  0  0  0 
  4  7  1  0  0  0  0 
  4  8  1  0  0  0  0 
  5  9  2  0  0  0  0 
  5 10  1  0  0  0  0 
  6 11  1  0  0  0  0 
  7 12  1  0  0  0  0 
  8 13  1  0  0  0  0 
  9 14  1  0  0  0  0 
 10 15  2  0  0  0  0 
 11 16  1  0  0  0  0 
 11 17  1  0  0  0  0 
 11 18  1  0  0  0  0 
 12 19  1  0  0  0  0 
 13 19  1  0  0  0  0 
 14 20  2  0  0  0  0 
 15 20  1  0  0  0  0 
 16 21  1  0  0  0  0 
 17 22  1  0  0  0  0 
 18 23  1  0  0  0  0 
  2 24  1  0  0  0  0 
  2 25  1  0  0  0  0 
  3 26  1  0  0  0  0 
  4 27  1  0  0  0  0 
  6 28  1  0  0  0  0 
  6 29  1  0  0  0  0 
  7 30  1  0  0  0  0 
  7 31  1  0  0  0  0 
  8 32  1  0  0  0  0 
  8 33  1  0  0  0  0 
  9 34  1  0  0  0  0 
 10 35  1  0  0  0  0 
 12 36  1  0  0  0  0 
 12 37  1  0  0  0  0 
 13 38  1  0  0  0  0 
 13 39  1  0  0  0  0 
 14 40  1  0  0  0  0 
 15 41  1  0  0  0  0 
 16 42  1  0  0  0  0 
 16 43  1  0  0  0  0 
 17 44  1  0  0  0  0 
 17 45  1  0  0  0  0 
 18 46  1  0  0  0  0 
 18 47  1  0  0  0  0 
 19 48  1  0  0  0  0 
 19 49  1  0  0  0  0 
 20 50  1  0  0  0  0 
 21 51  1  0  0  0  0 
 21 52  1  0  0  0  0 
 21 53  1  0  0  0  0 
 22 54  1  0  0  0  0 
 22 55  1  0  0  0  0 
 22 56  1  0  0  0  0 
 23 57  1  0  0  0  0 
 23 58  1  0  0  0  0 
 23 59  1  0  0  0  0 
M  CHG  1  11   1
M  END
> <cdk:Title>
tridihexethyl

> <Conformer>
1

> <SuperDrugID>
SD002467

$$$$
