meropenem
  CDK     0628171801

 51 53  0  0  0  0  0  0  0  0999 V2000
   -4.0067   -5.6636    0.5665 C   0  0  0  0  0  0  0  0  0  0  0  0
   -3.7674   -4.1664    0.2678 C   0  0  1  0  0  0  0  0  0  0  0  0
   -3.4825   -3.5014    1.4973 O   0  0  0  0  0  0  0  0  0  0  0  0
   -2.5964   -3.9302   -0.7272 C   0  0  2  0  0  0  0  0  0  0  0  0
   -2.3739   -2.4381   -1.1780 C   0  0  1  0  0  0  0  0  0  0  0  0
   -1.0524   -1.7208   -1.5790 C   0  0  1  0  0  0  0  0  0  0  0  0
    0.2553   -2.4928   -1.2582 C   0  0  0  0  0  0  0  0  0  0  0  0
   -1.2461   -1.4949   -3.0140 C   0  0  0  0  0  0  0  0  0  0  0  0
   -0.2725   -0.3717   -3.8934 S   0  0  0  0  0  0  0  0  0  0  0  0
   -1.3057    1.1231   -4.1373 C   0  0  2  0  0  0  0  0  0  0  0  0
   -0.5134    2.2107   -4.8914 C   0  0  2  0  0  0  0  0  0  0  0  0
    0.0119    3.1618   -3.8936 N   0  0  2  0  0  0  0  0  0  0  0  0
   -0.4852    2.7852   -2.5509 C   0  0  1  0  0  0  0  0  0  0  0  0
   -1.6863    1.8549   -2.8378 C   0  0  1  0  0  0  0  0  0  0  0  0
    0.5629    2.1568   -1.6861 C   0  0  0  0  0  0  0  0  0  0  0  0
    1.6192    1.8011   -2.2674 O   0  0  0  0  0  0  0  0  0  0  0  0
    0.4435    1.9390   -0.3140 N   0  0  0  0  0  0  0  0  0  0  0  0
   -0.7142    2.3177    0.4704 C   0  0  0  0  0  0  0  0  0  0  0  0
    1.5052    1.2578    0.4019 C   0  0  0  0  0  0  0  0  0  0  0  0
   -2.2272   -2.2643   -3.5123 C   0  0  0  0  0  0  0  0  0  0  0  0
   -2.6320   -2.9294   -2.4627 N   0  0  0  0  0  0  0  0  0  0  0  0
   -2.9155   -4.1856   -2.1397 C   0  0  0  0  0  0  0  0  0  0  0  0
   -3.1481   -5.2226   -2.7993 O   0  0  0  0  0  0  0  0  0  0  0  0
   -2.7105   -2.3987   -4.8016 C   0  0  0  0  0  0  0  0  0  0  0  0
   -2.1025   -1.8356   -5.8705 O   0  0  0  0  0  0  0  0  0  0  0  0
   -3.7485   -3.0630   -5.0249 O   0  0  0  0  0  0  0  0  0  0  0  0
   -4.3059   -6.1926   -0.3390 H   0  0  0  0  0  0  0  0  0  0  0  0
   -4.8047   -5.7690    1.3023 H   0  0  0  0  0  0  0  0  0  0  0  0
   -3.1039   -6.1283    0.9657 H   0  0  0  0  0  0  0  0  0  0  0  0
   -4.6933   -3.7444   -0.1358 H   0  0  0  0  0  0  0  0  0  0  0  0
   -3.4223   -2.5491    1.2696 H   0  0  0  0  0  0  0  0  0  0  0  0
   -1.6694   -4.4196   -0.4186 H   0  0  0  0  0  0  0  0  0  0  0  0
   -3.1666   -1.7441   -0.8716 H   0  0  0  0  0  0  0  0  0  0  0  0
   -1.0145   -0.7659   -1.0510 H   0  0  0  0  0  0  0  0  0  0  0  0
    0.2992   -2.7296   -0.1939 H   0  0  0  0  0  0  0  0  0  0  0  0
    0.3190   -3.4205   -1.8293 H   0  0  0  0  0  0  0  0  0  0  0  0
    1.1238   -1.8798   -1.5058 H   0  0  0  0  0  0  0  0  0  0  0  0
   -2.2002    0.8373   -4.6971 H   0  0  0  0  0  0  0  0  0  0  0  0
   -1.1749    2.7519   -5.5717 H   0  0  0  0  0  0  0  0  0  0  0  0
    0.3114    1.7993   -5.4785 H   0  0  0  0  0  0  0  0  0  0  0  0
   -0.4031    4.0711   -4.1160 H   0  0  0  0  0  0  0  0  0  0  0  0
   -0.8205    3.7102   -2.0768 H   0  0  0  0  0  0  0  0  0  0  0  0
   -2.5792    2.4634   -3.0172 H   0  0  0  0  0  0  0  0  0  0  0  0
   -1.9142    1.1668   -2.0255 H   0  0  0  0  0  0  0  0  0  0  0  0
   -0.4144    3.0116    1.2598 H   0  0  0  0  0  0  0  0  0  0  0  0
   -1.5070    2.8054   -0.0912 H   0  0  0  0  0  0  0  0  0  0  0  0
   -1.1494    1.4296    0.9334 H   0  0  0  0  0  0  0  0  0  0  0  0
    2.4890    1.6299    0.1109 H   0  0  0  0  0  0  0  0  0  0  0  0
    1.4306    1.3840    1.4850 H   0  0  0  0  0  0  0  0  0  0  0  0
    1.4606    0.1885    0.1847 H   0  0  0  0  0  0  0  0  0  0  0  0
   -2.4775   -1.9449   -6.7705 H   0  0  0  0  0  0  0  0  0  0  0  0
  1  2  1  0  0  0  0 
  2  3  1  0  0  0  0 
  4  2  1  0  0  0  0 
  4  5  1  0  0  0  0 
  5  6  1  0  0  0  0 
  6  7  1  0  0  0  0 
  6  8  1  0  0  0  0 
  8  9  1  0  0  0  0 
 10  9  1  0  0  0  0 
 10 11  1  0  0  0  0 
 11 12  1  0  0  0  0 
 12 13  1  0  0  0  0 
 13 14  1  0  0  0  0 
 10 14  1  0  0  0  0 
 13 15  1  0  0  0  0 
 15 16  2  0  0  0  0 
 15 17  1  0  0  0  0 
 17 18  1  0  0  0  0 
 17 19  1  0  0  0  0 
  8 20  2  0  0  0  0 
 20 21  1  0  0  0  0 
  5 21  1  0  0  0  0 
 21 22  1  0  0  0  0 
  4 22  1  0  0  0  0 
 22 23  2  0  0  0  0 
 20 24  1  0  0  0  0 
 24 25  1  0  0  0  0 
 24 26  2  0  0  0  0 
  1 27  1  0  0  0  0 
  1 28  1  0  0  0  0 
  1 29  1  0  0  0  0 
  2 30  1  0  0  0  0 
  3 31  1  0  0  0  0 
  4 32  1  0  0  0  0 
  5 33  1  0  0  0  0 
  6 34  1  0  0  0  0 
  7 35  1  0  0  0  0 
  7 36  1  0  0  0  0 
  7 37  1  0  0  0  0 
 10 38  1  0  0  0  0 
 11 39  1  0  0  0  0 
 11 40  1  0  0  0  0 
 12 41  1  0  0  0  0 
 13 42  1  0  0  0  0 
 14 43  1  0  0  0  0 
 14 44  1  0  0  0  0 
 18 45  1  0  0  0  0 
 18 46  1  0  0  0  0 
 18 47  1  0  0  0  0 
 19 48  1  0  0  0  0 
 19 49  1  0  0  0  0 
 19 50  1  0  0  0  0 
 25 51  1  0  0  0  0 
M  END
> <cdk:Title>
meropenem

> <Conformer>
1

> <SuperDrugID>
SD001512

$$$$
