amiodarone
  CDK     0628171801

 60 62  0  0  0  0  0  0  0  0999 V2000
   -8.5516   -8.7378   -6.1827 C   0  0  0  0  0  0  0  0  0  0  0  0
   -8.6687   -8.4593   -7.3983 O   0  0  0  0  0  0  0  0  0  0  0  0
   -9.1579   -9.9038   -5.6855 C   0  0  0  0  0  0  0  0  0  0  0  0
   -7.8606   -7.8572   -5.3251 C   0  0  0  0  0  0  0  0  0  0  0  0
   -8.6191  -11.1848   -5.7079 C   0  0  0  0  0  0  0  0  0  0  0  0
  -10.4066  -10.0194   -5.0556 C   0  0  0  0  0  0  0  0  0  0  0  0
   -8.3046   -6.5267   -5.1770 C   0  0  0  0  0  0  0  0  0  0  0  0
   -6.7259   -8.2852   -4.5986 C   0  0  0  0  0  0  0  0  0  0  0  0
   -9.5325  -12.0226   -5.0719 C   0  0  0  0  0  0  0  0  0  0  0  0
   -7.4080  -11.6864   -6.2188 C   0  0  0  0  0  0  0  0  0  0  0  0
  -11.4061   -8.9579   -4.8045 C   0  0  1  0  0  0  0  0  0  0  0  0
  -10.6131  -11.3106   -4.6859 O   0  0  0  0  0  0  0  0  0  0  0  0
   -7.6294   -5.6384   -4.3220 C   0  0  0  0  0  0  0  0  0  0  0  0
   -6.0395   -7.3974   -3.7490 C   0  0  0  0  0  0  0  0  0  0  0  0
   -9.2704  -13.3921   -4.9040 C   0  0  0  0  0  0  0  0  0  0  0  0
   -7.1283  -13.0595   -6.0514 C   0  0  0  0  0  0  0  0  0  0  0  0
  -12.0124   -8.3128   -6.0834 C   0  0  1  0  0  0  0  0  0  0  0  0
   -8.3784   -3.7383   -4.0894 I   0  0  0  0  0  0  0  0  0  0  0  0
   -6.4677   -6.0557   -3.6355 C   0  0  0  0  0  0  0  0  0  0  0  0
   -4.4201   -8.0913   -2.6907 I   0  0  0  0  0  0  0  0  0  0  0  0
   -8.0539  -13.9081   -5.3994 C   0  0  0  0  0  0  0  0  0  0  0  0
  -12.6163   -9.3213   -7.1035 C   0  0  1  0  0  0  0  0  0  0  0  0
   -5.7762   -5.1541   -2.8680 O   0  0  0  0  0  0  0  0  0  0  0  0
  -13.1474   -8.6323   -8.3835 C   0  0  0  0  0  0  0  0  0  0  0  0
   -4.7082   -4.5123   -3.6014 C   0  0  1  0  0  0  0  0  0  0  0  0
   -4.0226   -3.4331   -2.7278 C   0  0  2  0  0  0  0  0  0  0  0  0
   -4.9225   -2.3243   -2.2536 N   0  0  2  0  0  0  0  0  0  0  0  0
   -5.3760   -1.3702   -3.3262 C   0  0  2  0  0  0  0  0  0  0  0  0
   -4.4568   -1.6727   -0.9813 C   0  0  2  0  0  0  0  0  0  0  0  0
   -6.5545   -0.4544   -2.9135 C   0  0  0  0  0  0  0  0  0  0  0  0
   -3.2220   -0.7471   -1.1110 C   0  0  0  0  0  0  0  0  0  0  0  0
   -9.1306   -6.1992   -5.6812 H   0  0  0  0  0  0  0  0  0  0  0  0
   -6.3813   -9.2448   -4.6918 H   0  0  0  0  0  0  0  0  0  0  0  0
   -6.7439  -11.0744   -6.6975 H   0  0  0  0  0  0  0  0  0  0  0  0
  -12.2211   -9.3855   -4.2144 H   0  0  0  0  0  0  0  0  0  0  0  0
  -10.9403   -8.1771   -4.1990 H   0  0  0  0  0  0  0  0  0  0  0  0
   -9.9436  -13.9978   -4.4288 H   0  0  0  0  0  0  0  0  0  0  0  0
   -6.2470  -13.4410   -6.4018 H   0  0  0  0  0  0  0  0  0  0  0  0
  -12.8065   -7.6305   -5.7648 H   0  0  0  0  0  0  0  0  0  0  0  0
  -11.2501   -7.7070   -6.5802 H   0  0  0  0  0  0  0  0  0  0  0  0
   -7.8425  -14.9022   -5.2833 H   0  0  0  0  0  0  0  0  0  0  0  0
  -11.8571  -10.0497   -7.4035 H   0  0  0  0  0  0  0  0  0  0  0  0
  -13.4389   -9.8655   -6.6303 H   0  0  0  0  0  0  0  0  0  0  0  0
  -13.5715   -9.3824   -9.0559 H   0  0  0  0  0  0  0  0  0  0  0  0
  -12.3344   -8.1192   -8.9052 H   0  0  0  0  0  0  0  0  0  0  0  0
  -13.9262   -7.9059   -8.1356 H   0  0  0  0  0  0  0  0  0  0  0  0
   -3.9483   -5.2533   -3.8724 H   0  0  0  0  0  0  0  0  0  0  0  0
   -5.0742   -4.0623   -4.5288 H   0  0  0  0  0  0  0  0  0  0  0  0
   -3.1812   -3.0148   -3.2849 H   0  0  0  0  0  0  0  0  0  0  0  0
   -3.6044   -3.9708   -1.8722 H   0  0  0  0  0  0  0  0  0  0  0  0
   -5.7277   -1.9292   -4.1916 H   0  0  0  0  0  0  0  0  0  0  0  0
   -4.5429   -0.7541   -3.6755 H   0  0  0  0  0  0  0  0  0  0  0  0
   -4.2302   -2.4440   -0.2415 H   0  0  0  0  0  0  0  0  0  0  0  0
   -5.2782   -1.0989   -0.5496 H   0  0  0  0  0  0  0  0  0  0  0  0
   -6.9425    0.0407   -3.8063 H   0  0  0  0  0  0  0  0  0  0  0  0
   -6.1622    0.3717   -2.2445 H   0  0  0  0  0  0  0  0  0  0  0  0
   -7.3884   -1.1120   -2.5184 H   0  0  0  0  0  0  0  0  0  0  0  0
   -2.9347   -0.3714   -0.1288 H   0  0  0  0  0  0  0  0  0  0  0  0
   -3.4471    0.1100   -1.7450 H   0  0  0  0  0  0  0  0  0  0  0  0
   -2.3776   -1.2884   -1.5376 H   0  0  0  0  0  0  0  0  0  0  0  0
  1  2  2  0  0  0  0 
  1  3  1  0  0  0  0 
  1  4  1  0  0  0  0 
  3  5  1  0  0  0  0 
  3  6  2  0  0  0  0 
  4  7  2  0  0  0  0 
  4  8  1  0  0  0  0 
  5  9  1  0  0  0  0 
  5 10  2  0  0  0  0 
  6 11  1  0  0  0  0 
  6 12  1  0  0  0  0 
  7 13  1  0  0  0  0 
  8 14  2  0  0  0  0 
  9 12  1  0  0  0  0 
  9 15  2  0  0  0  0 
 10 16  1  0  0  0  0 
 11 17  1  0  0  0  0 
 13 18  1  0  0  0  0 
 13 19  2  0  0  0  0 
 14 19  1  0  0  0  0 
 14 20  1  0  0  0  0 
 15 21  1  0  0  0  0 
 16 21  2  0  0  0  0 
 17 22  1  0  0  0  0 
 19 23  1  0  0  0  0 
 22 24  1  0  0  0  0 
 23 25  1  0  0  0  0 
 25 26  1  0  0  0  0 
 26 27  1  0  0  0  0 
 27 28  1  0  0  0  0 
 27 29  1  0  0  0  0 
 28 30  1  0  0  0  0 
 29 31  1  0  0  0  0 
 32  7  1  0  0  0  0 
 33  8  1  0  0  0  0 
 34 10  1  0  0  0  0 
 35 11  1  0  0  0  0 
 36 11  1  0  0  0  0 
 37 15  1  0  0  0  0 
 38 16  1  0  0  0  0 
 39 17  1  0  0  0  0 
 40 17  1  0  0  0  0 
 41 21  1  0  0  0  0 
 42 22  1  0  0  0  0 
 43 22  1  0  0  0  0 
 44 24  1  0  0  0  0 
 45 24  1  0  0  0  0 
 46 24  1  0  0  0  0 
 47 25  1  0  0  0  0 
 48 25  1  0  0  0  0 
 49 26  1  0  0  0  0 
 50 26  1  0  0  0  0 
 51 28  1  0  0  0  0 
 52 28  1  0  0  0  0 
 53 29  1  0  0  0  0 
 54 29  1  0  0  0  0 
 55 30  1  0  0  0  0 
 56 30  1  0  0  0  0 
 57 30  1  0  0  0  0 
 58 31  1  0  0  0  0 
 59 31  1  0  0  0  0 
 60 31  1  0  0  0  0 
M  END
> <cdk:Title>
amiodarone

> <Conformer>
1

> <SuperDrugID>
SD000142

$$$$
