chlorprothixene
  CDK     0628171802

 39 41  0  0  0  0  0  0  0  0999 V2000
    9.5115    5.0536    0.3990 C   0  0  0  0  0  0  0  0  0  0  0  0
    8.9433    5.8927   -0.6952 N   0  0  2  0  0  0  0  0  0  0  0  0
    7.7214    6.6516   -0.3058 C   0  0  0  0  0  0  0  0  0  0  0  0
    8.8881    5.2400   -2.0423 C   0  0  2  0  0  0  0  0  0  0  0  0
    7.9265    4.0259   -2.1662 C   0  0  2  0  0  0  0  0  0  0  0  0
    7.9057    3.4185   -3.4968 C   0  0  0  0  0  0  0  0  0  0  0  0
    7.0650    2.4381   -3.9094 C   0  0  0  0  0  0  0  0  0  0  0  0
    7.0107    2.1049   -5.2754 C   0  0  0  0  0  0  0  0  0  0  0  0
    8.1739    1.7930   -6.0213 C   0  0  0  0  0  0  0  0  0  0  0  0
    8.0934    1.5297   -7.4003 C   0  0  0  0  0  0  0  0  0  0  0  0
    6.8510    1.5746   -8.0556 C   0  0  0  0  0  0  0  0  0  0  0  0
    5.6827    1.8637   -7.3306 C   0  0  0  0  0  0  0  0  0  0  0  0
    5.7583    2.1110   -5.9470 C   0  0  0  0  0  0  0  0  0  0  0  0
    4.2816    2.4005   -5.0185 S   0  0  0  0  0  0  0  0  0  0  0  0
    4.7525    1.8145   -3.4176 C   0  0  0  0  0  0  0  0  0  0  0  0
    6.1264    1.8246   -3.0588 C   0  0  0  0  0  0  0  0  0  0  0  0
    6.5138    1.1868   -1.8551 C   0  0  0  0  0  0  0  0  0  0  0  0
    5.5505    0.6447   -0.9826 C   0  0  0  0  0  0  0  0  0  0  0  0
    6.0377   -0.0801    0.4693 Cl  0  0  0  0  0  0  0  0  0  0  0  0
    4.1863    0.7041   -1.3246 C   0  0  0  0  0  0  0  0  0  0  0  0
    3.7880    1.2851   -2.5413 C   0  0  0  0  0  0  0  0  0  0  0  0
   10.4190    4.5442    0.0686 H   0  0  0  0  0  0  0  0  0  0  0  0
    9.7814    5.6800    1.2504 H   0  0  0  0  0  0  0  0  0  0  0  0
    8.7953    4.3025    0.7357 H   0  0  0  0  0  0  0  0  0  0  0  0
    7.9244    7.2768    0.5647 H   0  0  0  0  0  0  0  0  0  0  0  0
    7.4053    7.3135   -1.1136 H   0  0  0  0  0  0  0  0  0  0  0  0
    6.8980    5.9788   -0.0642 H   0  0  0  0  0  0  0  0  0  0  0  0
    9.8951    4.9008   -2.3040 H   0  0  0  0  0  0  0  0  0  0  0  0
    8.6056    5.9919   -2.7862 H   0  0  0  0  0  0  0  0  0  0  0  0
    6.9131    4.3542   -1.9204 H   0  0  0  0  0  0  0  0  0  0  0  0
    8.2395    3.2824   -1.4365 H   0  0  0  0  0  0  0  0  0  0  0  0
    8.5404    3.8023   -4.1628 H   0  0  0  0  0  0  0  0  0  0  0  0
    9.0895    1.7512   -5.5658 H   0  0  0  0  0  0  0  0  0  0  0  0
    8.9395    1.3059   -7.9270 H   0  0  0  0  0  0  0  0  0  0  0  0
    6.7972    1.3897   -9.0590 H   0  0  0  0  0  0  0  0  0  0  0  0
    4.7806    1.8863   -7.8118 H   0  0  0  0  0  0  0  0  0  0  0  0
    7.5043    1.1086   -1.6091 H   0  0  0  0  0  0  0  0  0  0  0  0
    3.4775    0.3150   -0.6964 H   0  0  0  0  0  0  0  0  0  0  0  0
    2.7983    1.3057   -2.7907 H   0  0  0  0  0  0  0  0  0  0  0  0
  1  2  1  0  0  0  0 
  2  3  1  0  0  0  0 
  2  4  1  0  0  0  0 
  4  5  1  0  0  0  0 
  5  6  1  0  0  0  0 
  6  7  2  0  0  0  0 
  7  8  1  0  0  0  0 
  8  9  2  0  0  0  0 
  9 10  1  0  0  0  0 
 10 11  2  0  0  0  0 
 11 12  1  0  0  0  0 
 12 13  2  0  0  0  0 
  8 13  1  0  0  0  0 
 13 14  1  0  0  0  0 
 14 15  1  0  0  0  0 
 15 16  2  0  0  0  0 
  7 16  1  0  0  0  0 
 16 17  1  0  0  0  0 
 17 18  2  0  0  0  0 
 18 19  1  0  0  0  0 
 18 20  1  0  0  0  0 
 20 21  2  0  0  0  0 
 15 21  1  0  0  0  0 
  1 22  1  0  0  0  0 
  1 23  1  0  0  0  0 
  1 24  1  0  0  0  0 
  3 25  1  0  0  0  0 
  3 26  1  0  0  0  0 
  3 27  1  0  0  0  0 
  4 28  1  0  0  0  0 
  4 29  1  0  0  0  0 
  5 30  1  0  0  0  0 
  5 31  1  0  0  0  0 
  6 32  1  0  0  0  0 
  9 33  1  0  0  0  0 
 10 34  1  0  0  0  0 
 11 35  1  0  0  0  0 
 12 36  1  0  0  0  0 
 17 37  1  0  0  0  0 
 20 38  1  0  0  0  0 
 21 39  1  0  0  0  0 
M  END
> <cdk:Title>
chlorprothixene

> <Conformer>
1

> <SuperDrugID>
SD000544

$$$$
