erlotinib
  CDK     0628171801

 52 54  0  0  0  0  0  0  0  0999 V2000
   -0.7041   -2.8841   -3.3126 C   0  0  0  0  0  0  0  0  0  0  0  0
   -1.4503   -1.7924   -2.7474 O   0  0  0  0  0  0  0  0  0  0  0  0
   -2.7292   -1.5828   -3.3729 C   0  0  2  0  0  0  0  0  0  0  0  0
   -3.4542   -0.4019   -2.6998 C   0  0  2  0  0  0  0  0  0  0  0  0
   -3.6314   -0.6717   -1.2917 O   0  0  0  0  0  0  0  0  0  0  0  0
   -4.4199    0.2604   -0.6673 C   0  0  0  0  0  0  0  0  0  0  0  0
   -5.8186    0.1216   -0.7179 C   0  0  0  0  0  0  0  0  0  0  0  0
   -6.6510    1.0982   -0.1415 C   0  0  0  0  0  0  0  0  0  0  0  0
   -6.1003    2.2476    0.4960 C   0  0  0  0  0  0  0  0  0  0  0  0
   -4.6882    2.3378    0.5929 C   0  0  0  0  0  0  0  0  0  0  0  0
   -3.8486    1.3449    0.0361 C   0  0  0  0  0  0  0  0  0  0  0  0
   -2.4830    1.4475    0.1412 O   0  0  0  0  0  0  0  0  0  0  0  0
   -1.9321    0.7039    1.2508 C   0  0  1  0  0  0  0  0  0  0  0  0
   -0.3899    0.7341    1.1971 C   0  0  2  0  0  0  0  0  0  0  0  0
    0.0649    0.0540    0.0101 O   0  0  0  0  0  0  0  0  0  0  0  0
    1.4967   -0.0290   -0.1045 C   0  0  0  0  0  0  0  0  0  0  0  0
   -7.0150    3.2332    0.9708 C   0  0  0  0  0  0  0  0  0  0  0  0
   -6.5702    4.4207    1.5035 N   0  0  0  0  0  0  0  0  0  0  0  0
   -7.2234    5.6302    1.5964 C   0  0  0  0  0  0  0  0  0  0  0  0
   -6.4173    6.7833    1.4472 C   0  0  0  0  0  0  0  0  0  0  0  0
   -6.9797    8.0725    1.4569 C   0  0  0  0  0  0  0  0  0  0  0  0
   -8.3652    8.2360    1.6244 C   0  0  0  0  0  0  0  0  0  0  0  0
   -9.1917    7.1072    1.8035 C   0  0  0  0  0  0  0  0  0  0  0  0
   -8.6136    5.8151    1.8162 C   0  0  0  0  0  0  0  0  0  0  0  0
  -10.4790    7.2735    1.9405 C   0  0  0  0  0  0  0  0  0  0  0  0
  -11.6558    7.4505    2.0485 C   0  0  0  0  0  0  0  0  0  0  0  0
   -8.3472    2.9841    0.8396 N   0  0  0  0  0  0  0  0  0  0  0  0
   -8.8451    1.8593    0.2732 C   0  0  0  0  0  0  0  0  0  0  0  0
   -7.9936    0.9358   -0.2227 N   0  0  0  0  0  0  0  0  0  0  0  0
   -0.4784   -2.7007   -4.3658 H   0  0  0  0  0  0  0  0  0  0  0  0
    0.2365   -2.9746   -2.7702 H   0  0  0  0  0  0  0  0  0  0  0  0
   -1.2498   -3.8259   -3.2147 H   0  0  0  0  0  0  0  0  0  0  0  0
   -3.3503   -2.4783   -3.2805 H   0  0  0  0  0  0  0  0  0  0  0  0
   -2.5977   -1.3582   -4.4353 H   0  0  0  0  0  0  0  0  0  0  0  0
   -4.4180   -0.2693   -3.2037 H   0  0  0  0  0  0  0  0  0  0  0  0
   -2.8590    0.5061   -2.8416 H   0  0  0  0  0  0  0  0  0  0  0  0
   -6.2298   -0.6890   -1.1916 H   0  0  0  0  0  0  0  0  0  0  0  0
   -4.2546    3.1287    1.0724 H   0  0  0  0  0  0  0  0  0  0  0  0
   -2.2614    1.1447    2.1967 H   0  0  0  0  0  0  0  0  0  0  0  0
   -2.2493   -0.3450    1.2261 H   0  0  0  0  0  0  0  0  0  0  0  0
    0.0016    0.2377    2.0906 H   0  0  0  0  0  0  0  0  0  0  0  0
   -0.0485    1.7734    1.1984 H   0  0  0  0  0  0  0  0  0  0  0  0
    1.9459    0.9654   -0.1581 H   0  0  0  0  0  0  0  0  0  0  0  0
    1.7369   -0.5638   -1.0230 H   0  0  0  0  0  0  0  0  0  0  0  0
    1.9296   -0.5800    0.7341 H   0  0  0  0  0  0  0  0  0  0  0  0
   -5.6319    4.4426    1.7503 H   0  0  0  0  0  0  0  0  0  0  0  0
   -5.4076    6.6932    1.3086 H   0  0  0  0  0  0  0  0  0  0  0  0
   -6.3839    8.8930    1.3278 H   0  0  0  0  0  0  0  0  0  0  0  0
   -8.7565    9.1840    1.6097 H   0  0  0  0  0  0  0  0  0  0  0  0
   -9.2127    5.0079    1.9973 H   0  0  0  0  0  0  0  0  0  0  0  0
  -12.5633    7.5946    2.1240 H   0  0  0  0  0  0  0  0  0  0  0  0
   -9.8526    1.7120    0.2137 H   0  0  0  0  0  0  0  0  0  0  0  0
  1  2  1  0  0  0  0 
  2  3  1  0  0  0  0 
  3  4  1  0  0  0  0 
  4  5  1  0  0  0  0 
  5  6  1  0  0  0  0 
  6  7  1  0  0  0  0 
  7  8  2  0  0  0  0 
  8  9  1  0  0  0  0 
  9 10  2  0  0  0  0 
 10 11  1  0  0  0  0 
  6 11  2  0  0  0  0 
 11 12  1  0  0  0  0 
 12 13  1  0  0  0  0 
 13 14  1  0  0  0  0 
 14 15  1  0  0  0  0 
 15 16  1  0  0  0  0 
  9 17  1  0  0  0  0 
 17 18  1  0  0  0  0 
 18 19  1  0  0  0  0 
 19 20  2  0  0  0  0 
 20 21  1  0  0  0  0 
 21 22  2  0  0  0  0 
 22 23  1  0  0  0  0 
 23 24  2  0  0  0  0 
 19 24  1  0  0  0  0 
 23 25  1  0  0  0  0 
 25 26  3  0  0  0  0 
 17 27  2  0  0  0  0 
 27 28  1  0  0  0  0 
 28 29  2  0  0  0  0 
  8 29  1  0  0  0  0 
  1 30  1  0  0  0  0 
  1 31  1  0  0  0  0 
  1 32  1  0  0  0  0 
  3 33  1  0  0  0  0 
  3 34  1  0  0  0  0 
  4 35  1  0  0  0  0 
  4 36  1  0  0  0  0 
  7 37  1  0  0  0  0 
 10 38  1  0  0  0  0 
 13 39  1  0  0  0  0 
 13 40  1  0  0  0  0 
 14 41  1  0  0  0  0 
 14 42  1  0  0  0  0 
 16 43  1  0  0  0  0 
 16 44  1  0  0  0  0 
 16 45  1  0  0  0  0 
 18 46  1  0  0  0  0 
 20 47  1  0  0  0  0 
 21 48  1  0  0  0  0 
 22 49  1  0  0  0  0 
 24 50  1  0  0  0  0 
 26 51  1  0  0  0  0 
 28 52  1  0  0  0  0 
M  END
> <cdk:Title>
erlotinib

> <Conformer>
1

> <SuperDrugID>
SD000931

$$$$
