carbimazole
  CDK     0628171802

 22 22  0  0  0  0  0  0  0  0999 V2000
   -1.0855    1.8291    0.5769 C   0  0  0  0  0  0  0  0  0  0  0  0
   -1.4971    0.5738    0.2287 O   0  0  0  0  0  0  0  0  0  0  0  0
    0.1478    2.0508    0.6529 O   0  0  0  0  0  0  0  0  0  0  0  0
   -1.9909    2.8314    0.8474 N   0  0  0  0  0  0  0  0  0  0  0  0
   -0.6706   -0.5677   -0.0351 C   0  0  1  0  0  0  0  0  0  0  0  0
   -3.3495    2.8037    0.7887 C   0  0  0  0  0  0  0  0  0  0  0  0
   -1.6547    4.0768    1.2433 C   0  0  0  0  0  0  0  0  0  0  0  0
   -1.5582   -1.7753   -0.3836 C   0  0  0  0  0  0  0  0  0  0  0  0
   -4.3452    1.4556    0.3301 S   0  0  0  0  0  0  0  0  0  0  0  0
   -3.8525    4.0123    1.1441 N   0  0  0  0  0  0  0  0  0  0  0  0
   -2.8123    4.8142    1.4229 C   0  0  0  0  0  0  0  0  0  0  0  0
   -5.2331    4.3900    1.2260 C   0  0  0  0  0  0  0  0  0  0  0  0
   -0.0034   -0.3545   -0.8731 H   0  0  0  0  0  0  0  0  0  0  0  0
   -0.0702   -0.8038    0.8473 H   0  0  0  0  0  0  0  0  0  0  0  0
   -0.7089    4.4366    1.3971 H   0  0  0  0  0  0  0  0  0  0  0  0
   -0.9336   -2.6365   -0.6271 H   0  0  0  0  0  0  0  0  0  0  0  0
   -2.1943   -2.0290    0.4661 H   0  0  0  0  0  0  0  0  0  0  0  0
   -2.1895   -1.5426   -1.2429 H   0  0  0  0  0  0  0  0  0  0  0  0
   -2.8539    5.7928    1.7202 H   0  0  0  0  0  0  0  0  0  0  0  0
   -5.7109    4.2717    0.2517 H   0  0  0  0  0  0  0  0  0  0  0  0
   -5.3533    5.4305    1.5366 H   0  0  0  0  0  0  0  0  0  0  0  0
   -5.7451    3.7567    1.9538 H   0  0  0  0  0  0  0  0  0  0  0  0
  1  2  1  0  0  0  0 
  1  3  2  0  0  0  0 
  1  4  1  0  0  0  0 
  2  5  1  0  0  0  0 
  4  6  1  0  0  0  0 
  4  7  1  0  0  0  0 
  5  8  1  0  0  0  0 
  6  9  2  0  0  0  0 
  6 10  1  0  0  0  0 
  7 11  2  0  0  0  0 
 10 11  1  0  0  0  0 
 10 12  1  0  0  0  0 
  5 13  1  0  0  0  0 
  5 14  1  0  0  0  0 
  7 15  1  0  0  0  0 
  8 16  1  0  0  0  0 
  8 17  1  0  0  0  0 
  8 18  1  0  0  0  0 
 11 19  1  0  0  0  0 
 12 20  1  0  0  0  0 
 12 21  1  0  0  0  0 
 12 22  1  0  0  0  0 
M  END
> <cdk:Title>
carbimazole

> <Conformer>
1

> <SuperDrugID>
SD000430

$$$$
