ethacizine
  CDK     0628171802

 56 58  0  0  0  0  0  0  0  0999 V2000
    2.4606   -1.1395   -5.1334 C   0  0  0  0  0  0  0  0  0  0  0  0
    2.3417   -1.4735   -6.5008 C   0  0  0  0  0  0  0  0  0  0  0  0
    1.4145   -0.7482   -7.2881 C   0  0  0  0  0  0  0  0  0  0  0  0
    0.5923    0.2340   -6.7128 C   0  0  0  0  0  0  0  0  0  0  0  0
    0.6913    0.5075   -5.3387 C   0  0  0  0  0  0  0  0  0  0  0  0
    1.6115   -0.1902   -4.5152 C   0  0  0  0  0  0  0  0  0  0  0  0
    1.6432    0.0522   -3.1401 N   0  0  0  0  0  0  0  0  0  0  0  0
   -0.2902    1.7792   -4.6114 S   0  0  0  0  0  0  0  0  0  0  0  0
    0.7655    2.3227   -3.3107 C   0  0  0  0  0  0  0  0  0  0  0  0
    1.6735    1.3892   -2.7418 C   0  0  0  0  0  0  0  0  0  0  0  0
    2.6303    1.8864   -1.8223 C   0  0  0  0  0  0  0  0  0  0  0  0
    0.7529    3.6736   -2.9189 C   0  0  0  0  0  0  0  0  0  0  0  0
    1.6697    4.1264   -1.9563 C   0  0  0  0  0  0  0  0  0  0  0  0
    2.6178    3.2374   -1.4202 C   0  0  0  0  0  0  0  0  0  0  0  0
    3.1423   -2.4938   -6.9384 N   0  0  0  0  0  0  0  0  0  0  0  0
    3.0433   -3.2568   -8.0595 C   0  0  0  0  0  0  0  0  0  0  0  0
    2.1578   -3.0948   -8.9305 O   0  0  0  0  0  0  0  0  0  0  0  0
    3.9566   -4.2637   -8.2000 O   0  0  0  0  0  0  0  0  0  0  0  0
    4.0529   -5.2154   -9.2733 C   0  0  2  0  0  0  0  0  0  0  0  0
    2.8538   -6.1869   -9.3480 C   0  0  0  0  0  0  0  0  0  0  0  0
    1.5219   -1.0125   -2.2289 C   0  0  0  0  0  0  0  0  0  0  0  0
    1.3003   -0.8572   -0.7569 C   0  0  1  0  0  0  0  0  0  0  0  0
    1.5292   -2.1955   -2.6533 O   0  0  0  0  0  0  0  0  0  0  0  0
    1.0746   -2.1609    0.0755 C   0  0  2  0  0  0  0  0  0  0  0  0
   -0.0660   -3.0409   -0.3717 N   0  0  1  0  0  0  0  0  0  0  0  0
    0.0845   -4.4824    0.0457 C   0  0  2  0  0  0  0  0  0  0  0  0
   -1.4316   -2.4774   -0.0855 C   0  0  2  0  0  0  0  0  0  0  0  0
    1.0555   -5.2760   -0.8571 C   0  0  0  0  0  0  0  0  0  0  0  0
   -2.5100   -2.9524   -1.0874 C   0  0  0  0  0  0  0  0  0  0  0  0
    3.1673   -1.6110   -4.5642 H   0  0  0  0  0  0  0  0  0  0  0  0
    1.3266   -0.9131   -8.2887 H   0  0  0  0  0  0  0  0  0  0  0  0
   -0.0720    0.7509   -7.2952 H   0  0  0  0  0  0  0  0  0  0  0  0
    3.3528    1.2699   -1.4443 H   0  0  0  0  0  0  0  0  0  0  0  0
    0.0914    4.3306   -3.3423 H   0  0  0  0  0  0  0  0  0  0  0  0
    1.6554    5.1048   -1.6603 H   0  0  0  0  0  0  0  0  0  0  0  0
    3.3013    3.5743   -0.7397 H   0  0  0  0  0  0  0  0  0  0  0  0
    3.8688   -2.7362   -6.3413 H   0  0  0  0  0  0  0  0  0  0  0  0
    4.9679   -5.7953   -9.1267 H   0  0  0  0  0  0  0  0  0  0  0  0
    4.1484   -4.6757  -10.2183 H   0  0  0  0  0  0  0  0  0  0  0  0
    1.9112   -5.6412   -9.3899 H   0  0  0  0  0  0  0  0  0  0  0  0
    2.9279   -6.8068  -10.2436 H   0  0  0  0  0  0  0  0  0  0  0  0
    2.8418   -6.8373   -8.4722 H   0  0  0  0  0  0  0  0  0  0  0  0
    2.1701   -0.3673   -0.3200 H   0  0  0  0  0  0  0  0  0  0  0  0
    0.4518   -0.1893   -0.6104 H   0  0  0  0  0  0  0  0  0  0  0  0
    0.9290   -1.8857    1.1242 H   0  0  0  0  0  0  0  0  0  0  0  0
    2.0163   -2.7141    0.0321 H   0  0  0  0  0  0  0  0  0  0  0  0
   -0.8695   -5.0132   -0.0056 H   0  0  0  0  0  0  0  0  0  0  0  0
    0.4221   -4.5518    1.0837 H   0  0  0  0  0  0  0  0  0  0  0  0
   -1.4272   -1.3891   -0.1497 H   0  0  0  0  0  0  0  0  0  0  0  0
   -1.7494   -2.7323    0.9296 H   0  0  0  0  0  0  0  0  0  0  0  0
    1.0098   -6.3379   -0.6072 H   0  0  0  0  0  0  0  0  0  0  0  0
    2.0830   -4.9418   -0.7187 H   0  0  0  0  0  0  0  0  0  0  0  0
    0.7811   -5.1559   -1.9052 H   0  0  0  0  0  0  0  0  0  0  0  0
   -3.4375   -2.4009   -0.9222 H   0  0  0  0  0  0  0  0  0  0  0  0
   -2.7279   -4.0121   -0.9655 H   0  0  0  0  0  0  0  0  0  0  0  0
   -2.1803   -2.7760   -2.1114 H   0  0  0  0  0  0  0  0  0  0  0  0
  1  2  2  0  0  0  0 
  1  6  1  0  0  0  0 
  2  3  1  0  0  0  0 
  3  4  2  0  0  0  0 
  4  5  1  0  0  0  0 
  7  6  1  0  0  0  0 
  5  6  2  0  0  0  0 
  5  8  1  0  0  0  0 
  7 10  1  0  0  0  0 
  8  9  1  0  0  0  0 
 11 10  1  0  0  0  0 
 10  9  2  0  0  0  0 
  9 12  1  0  0  0  0 
 11 14  2  0  0  0  0 
 12 13  2  0  0  0  0 
 13 14  1  0  0  0  0 
  2 15  1  0  0  0  0 
 15 16  1  0  0  0  0 
 16 17  2  0  0  0  0 
 16 18  1  0  0  0  0 
 18 19  1  0  0  0  0 
 19 20  1  0  0  0  0 
  7 21  1  0  0  0  0 
 21 22  1  0  0  0  0 
 21 23  2  0  0  0  0 
 22 24  1  0  0  0  0 
 24 25  1  0  0  0  0 
 25 26  1  0  0  0  0 
 25 27  1  0  0  0  0 
 26 28  1  0  0  0  0 
 27 29  1  0  0  0  0 
 30  1  1  0  0  0  0 
 31  3  1  0  0  0  0 
 32  4  1  0  0  0  0 
 33 11  1  0  0  0  0 
 34 12  1  0  0  0  0 
 35 13  1  0  0  0  0 
 36 14  1  0  0  0  0 
 37 15  1  0  0  0  0 
 38 19  1  0  0  0  0 
 39 19  1  0  0  0  0 
 40 20  1  0  0  0  0 
 41 20  1  0  0  0  0 
 42 20  1  0  0  0  0 
 43 22  1  0  0  0  0 
 44 22  1  0  0  0  0 
 45 24  1  0  0  0  0 
 46 24  1  0  0  0  0 
 47 26  1  0  0  0  0 
 48 26  1  0  0  0  0 
 49 27  1  0  0  0  0 
 50 27  1  0  0  0  0 
 51 28  1  0  0  0  0 
 52 28  1  0  0  0  0 
 53 28  1  0  0  0  0 
 54 29  1  0  0  0  0 
 55 29  1  0  0  0  0 
 56 29  1  0  0  0  0 
M  END
> <cdk:Title>
ethacizine

> <Conformer>
1

> <SuperDrugID>
SD003796

$$$$
