phenylephrine
  CDK     0628171801

 25 25  0  0  0  0  0  0  0  0999 V2000
    2.3309   -0.8206    0.0589 C   0  0  2  0  0  0  0  0  0  0  0  0
    1.3867    0.2658   -0.5200 C   0  0  1  0  0  0  0  0  0  0  0  0
    1.9512   -2.1061   -0.4360 O   0  0  0  0  0  0  0  0  0  0  0  0
    2.3616   -0.7845    1.5501 C   0  0  0  0  0  0  0  0  0  0  0  0
   -0.0012    0.0795   -0.0326 N   0  0  1  0  0  0  0  0  0  0  0  0
    1.4499   -1.5445    2.3245 C   0  0  0  0  0  0  0  0  0  0  0  0
    3.2803    0.0573    2.2234 C   0  0  0  0  0  0  0  0  0  0  0  0
   -0.9677    1.0796   -0.5208 C   0  0  0  0  0  0  0  0  0  0  0  0
    1.4515   -1.4603    3.7296 C   0  0  0  0  0  0  0  0  0  0  0  0
    3.2828    0.1437    3.6277 C   0  0  0  0  0  0  0  0  0  0  0  0
    0.5701   -2.1859    4.4588 O   0  0  0  0  0  0  0  0  0  0  0  0
    2.3680   -0.6156    4.3791 C   0  0  0  0  0  0  0  0  0  0  0  0
    3.3394   -0.6409   -0.3241 H   0  0  0  0  0  0  0  0  0  0  0  0
    1.7541    1.2546   -0.2301 H   0  0  0  0  0  0  0  0  0  0  0  0
    1.4076    0.2027   -1.6117 H   0  0  0  0  0  0  0  0  0  0  0  0
    1.9700   -2.0203   -1.4129 H   0  0  0  0  0  0  0  0  0  0  0  0
   -0.3194   -0.8337   -0.3630 H   0  0  0  0  0  0  0  0  0  0  0  0
    0.7698   -2.1582    1.8709 H   0  0  0  0  0  0  0  0  0  0  0  0
    3.9509    0.6250    1.6962 H   0  0  0  0  0  0  0  0  0  0  0  0
   -1.9454    0.8399   -0.1040 H   0  0  0  0  0  0  0  0  0  0  0  0
   -1.0367    1.0579   -1.6103 H   0  0  0  0  0  0  0  0  0  0  0  0
   -0.6855    2.0813   -0.1902 H   0  0  0  0  0  0  0  0  0  0  0  0
    3.9451    0.7632    4.1024 H   0  0  0  0  0  0  0  0  0  0  0  0
    0.9796   -3.0726    4.5416 H   0  0  0  0  0  0  0  0  0  0  0  0
    2.3731   -0.5529    5.3991 H   0  0  0  0  0  0  0  0  0  0  0  0
  1  2  1  0  0  0  0 
  1  3  1  0  0  0  0 
  1  4  1  0  0  0  0 
  2  5  1  0  0  0  0 
  4  6  2  0  0  0  0 
  4  7  1  0  0  0  0 
  5  8  1  0  0  0  0 
  6  9  1  0  0  0  0 
  7 10  2  0  0  0  0 
  9 11  1  0  0  0  0 
  9 12  2  0  0  0  0 
 10 12  1  0  0  0  0 
  1 13  1  0  0  0  0 
  2 14  1  0  0  0  0 
  2 15  1  0  0  0  0 
  3 16  1  0  0  0  0 
  5 17  1  0  0  0  0 
  6 18  1  0  0  0  0 
  7 19  1  0  0  0  0 
  8 20  1  0  0  0  0 
  8 21  1  0  0  0  0 
  8 22  1  0  0  0  0 
 10 23  1  0  0  0  0 
 11 24  1  0  0  0  0 
 12 25  1  0  0  0  0 
M  END
> <cdk:Title>
phenylephrine

> <Conformer>
1

> <SuperDrugID>
SD001926

$$$$
