egualen
  CDK     0628171802

 37 38  0  0  0  0  0  0  0  0999 V2000
    1.6816    1.4301   -0.2704 C   0  0  0  0  0  0  0  0  0  0  0  0
    1.4240    0.0938   -0.6560 C   0  0  0  0  0  0  0  0  0  0  0  0
    2.4139   -0.9050   -0.7966 C   0  0  0  0  0  0  0  0  0  0  0  0
    3.8024   -0.8370   -0.6141 C   0  0  0  0  0  0  0  0  0  0  0  0
    4.6039    0.2443   -0.2281 C   0  0  0  0  0  0  0  0  0  0  0  0
    4.1983    1.5527    0.0793 C   0  0  0  0  0  0  0  0  0  0  0  0
    2.8937    2.0685    0.0578 C   0  0  0  0  0  0  0  0  0  0  0  0
    5.0683    2.5929    0.4651 C   0  0  0  0  0  0  0  0  0  0  0  0
    4.2989    3.7270    0.6923 C   0  0  0  0  0  0  0  0  0  0  0  0
    2.9751    3.4177    0.4336 C   0  0  0  0  0  0  0  0  0  0  0  0
    6.5478    2.5839    0.5995 C   0  0  2  0  0  0  0  0  0  0  0  0
    7.2530    2.8333   -0.7523 C   0  0  0  0  0  0  0  0  0  0  0  0
    1.6584    4.5904    0.5566 S   0  0  2  0  0  0  0  0  0  0  0  0
    0.5838    4.1122    1.6458 O   0  0  0  0  0  0  0  0  0  0  0  0
    0.9331    4.7617   -0.8628 O   0  0  0  0  0  0  0  0  0  0  0  0
    2.2627    6.1171    1.0323 O   0  0  0  0  0  0  0  0  0  0  0  0
   -0.0138   -0.2954   -0.9368 C   0  0  1  0  0  0  0  0  0  0  0  0
   -0.9174   -0.1689    0.3241 C   0  0  0  0  0  0  0  0  0  0  0  0
   -0.6075    0.4718   -2.1537 C   0  0  0  0  0  0  0  0  0  0  0  0
    0.8601    2.0310   -0.2183 H   0  0  0  0  0  0  0  0  0  0  0  0
    2.0896   -1.8341   -1.0769 H   0  0  0  0  0  0  0  0  0  0  0  0
    4.3082   -1.7110   -0.7892 H   0  0  0  0  0  0  0  0  0  0  0  0
    5.6028    0.0394   -0.1652 H   0  0  0  0  0  0  0  0  0  0  0  0
    4.6531    4.6404    0.9858 H   0  0  0  0  0  0  0  0  0  0  0  0
    6.8861    1.6403    1.0306 H   0  0  0  0  0  0  0  0  0  0  0  0
    6.8571    3.3672    1.2957 H   0  0  0  0  0  0  0  0  0  0  0  0
    8.3345    2.7659   -0.6191 H   0  0  0  0  0  0  0  0  0  0  0  0
    7.0140    3.8324   -1.1253 H   0  0  0  0  0  0  0  0  0  0  0  0
    6.9477    2.0972   -1.4968 H   0  0  0  0  0  0  0  0  0  0  0  0
    2.8119    6.4090    0.2754 H   0  0  0  0  0  0  0  0  0  0  0  0
   -0.0767   -1.3527   -1.2181 H   0  0  0  0  0  0  0  0  0  0  0  0
   -1.9188   -0.5511    0.1103 H   0  0  0  0  0  0  0  0  0  0  0  0
   -1.0150    0.8692    0.6471 H   0  0  0  0  0  0  0  0  0  0  0  0
   -0.5005   -0.7529    1.1491 H   0  0  0  0  0  0  0  0  0  0  0  0
   -1.6066    0.0941   -2.3862 H   0  0  0  0  0  0  0  0  0  0  0  0
   -0.6895    1.5419   -1.9539 H   0  0  0  0  0  0  0  0  0  0  0  0
    0.0225    0.3289   -3.0358 H   0  0  0  0  0  0  0  0  0  0  0  0
  1  2  1  0  0  0  0 
  2  3  2  0  0  0  0 
  3  4  1  0  0  0  0 
  4  5  2  0  0  0  0 
  5  6  1  0  0  0  0 
  6  7  1  0  0  0  0 
  7  1  2  0  0  0  0 
  8  9  1  0  0  0  0 
  9 10  2  0  0  0  0 
  6  8  2  0  0  0  0 
  7 10  1  0  0  0  0 
  8 11  1  0  0  0  0 
 11 12  1  0  0  0  0 
 10 13  1  0  0  0  0 
 13 14  2  0  0  0  0 
 13 15  2  0  0  0  0 
 13 16  1  0  0  0  0 
  2 17  1  0  0  0  0 
 17 18  1  0  0  0  0 
 17 19  1  0  0  0  0 
  1 20  1  0  0  0  0 
  3 21  1  0  0  0  0 
  4 22  1  0  0  0  0 
  5 23  1  0  0  0  0 
  9 24  1  0  0  0  0 
 11 25  1  0  0  0  0 
 11 26  1  0  0  0  0 
 12 27  1  0  0  0  0 
 12 28  1  0  0  0  0 
 12 29  1  0  0  0  0 
 16 30  1  0  0  0  0 
 17 31  1  0  0  0  0 
 18 32  1  0  0  0  0 
 18 33  1  0  0  0  0 
 18 34  1  0  0  0  0 
 19 35  1  0  0  0  0 
 19 36  1  0  0  0  0 
 19 37  1  0  0  0  0 
M  END
> <cdk:Title>
egualen

> <Conformer>
1

> <SuperDrugID>
SD000881

$$$$
