choline fenofibrate
  CDK     0628171801

 37 38  0  0  0  0  0  0  0  0999 V2000
    1.2499    3.6746    0.2549 C   0  0  0  0  0  0  0  0  0  0  0  0
    2.4842    3.8513    0.4112 O   0  0  0  0  0  0  0  0  0  0  0  0
    0.4115    4.8308    0.2251 C   0  0  0  0  0  0  0  0  0  0  0  0
    0.7811    2.3333    0.1095 C   0  0  0  0  0  0  0  0  0  0  0  0
   -0.7280    4.9036   -0.6152 C   0  0  0  0  0  0  0  0  0  0  0  0
    0.7161    5.9587    1.0258 C   0  0  0  0  0  0  0  0  0  0  0  0
    1.5904    1.3489   -0.5151 C   0  0  0  0  0  0  0  0  0  0  0  0
   -0.4933    1.9376    0.5865 C   0  0  0  0  0  0  0  0  0  0  0  0
   -1.5387    6.0530   -0.6417 C   0  0  0  0  0  0  0  0  0  0  0  0
   -0.0812    7.1168    0.9844 C   0  0  0  0  0  0  0  0  0  0  0  0
    1.1298    0.0305   -0.6859 C   0  0  0  0  0  0  0  0  0  0  0  0
   -0.9606    0.6227    0.4099 C   0  0  0  0  0  0  0  0  0  0  0  0
   -1.2204    7.1679    0.1564 C   0  0  0  0  0  0  0  0  0  0  0  0
   -0.1481   -0.3357   -0.2263 C   0  0  0  0  0  0  0  0  0  0  0  0
   -1.9871    8.3023    0.0433 O   0  0  0  0  0  0  0  0  0  0  0  0
   -0.7029   -1.9218   -0.4346 Cl  0  0  0  0  0  0  0  0  0  0  0  0
   -2.9746    8.6141    1.0641 C   0  0  2  0  0  0  0  0  0  0  0  0
   -2.2969    9.1131    2.2979 C   0  0  0  0  0  0  0  0  0  0  0  0
   -1.4003   10.1275    2.2191 O   0  0  0  0  0  0  0  0  0  0  0  0
   -2.5142    8.6348    3.4340 O   0  0  0  0  0  0  0  0  0  0  0  0
   -3.9606    7.4299    1.3404 C   0  0  0  0  0  0  0  0  0  0  0  0
   -3.7973    9.7939    0.4625 C   0  0  0  0  0  0  0  0  0  0  0  0
   -0.9735    4.1245   -1.2305 H   0  0  0  0  0  0  0  0  0  0  0  0
    1.5250    5.9483    1.6524 H   0  0  0  0  0  0  0  0  0  0  0  0
    2.5237    1.5814   -0.8622 H   0  0  0  0  0  0  0  0  0  0  0  0
   -1.0963    2.6050    1.0751 H   0  0  0  0  0  0  0  0  0  0  0  0
   -2.3580    6.0836   -1.2539 H   0  0  0  0  0  0  0  0  0  0  0  0
    0.1785    7.9224    1.5563 H   0  0  0  0  0  0  0  0  0  0  0  0
    1.7292   -0.6578   -1.1496 H   0  0  0  0  0  0  0  0  0  0  0  0
   -1.8927    0.3707    0.7479 H   0  0  0  0  0  0  0  0  0  0  0  0
   -0.9474   10.4533    3.0254 H   0  0  0  0  0  0  0  0  0  0  0  0
   -4.7752    7.7451    1.9980 H   0  0  0  0  0  0  0  0  0  0  0  0
   -4.3935    7.0704    0.4051 H   0  0  0  0  0  0  0  0  0  0  0  0
   -3.4431    6.5967    1.8179 H   0  0  0  0  0  0  0  0  0  0  0  0
   -4.5324   10.1706    1.1810 H   0  0  0  0  0  0  0  0  0  0  0  0
   -4.3313    9.4740   -0.4362 H   0  0  0  0  0  0  0  0  0  0  0  0
   -3.1396   10.6199    0.1783 H   0  0  0  0  0  0  0  0  0  0  0  0
  1  2  2  0  0  0  0 
  1  3  1  0  0  0  0 
  1  4  1  0  0  0  0 
  3  5  2  0  0  0  0 
  3  6  1  0  0  0  0 
  4  7  2  0  0  0  0 
  4  8  1  0  0  0  0 
  5  9  1  0  0  0  0 
  6 10  2  0  0  0  0 
  7 11  1  0  0  0  0 
  8 12  2  0  0  0  0 
  9 13  2  0  0  0  0 
 10 13  1  0  0  0  0 
 11 14  2  0  0  0  0 
 12 14  1  0  0  0  0 
 13 15  1  0  0  0  0 
 14 16  1  0  0  0  0 
 15 17  1  0  0  0  0 
 17 18  1  0  0  0  0 
 18 19  1  0  0  0  0 
 18 20  2  0  0  0  0 
 17 21  1  0  0  0  0 
 17 22  1  0  0  0  0 
  5 23  1  0  0  0  0 
  6 24  1  0  0  0  0 
  7 25  1  0  0  0  0 
  8 26  1  0  0  0  0 
  9 27  1  0  0  0  0 
 10 28  1  0  0  0  0 
 11 29  1  0  0  0  0 
 12 30  1  0  0  0  0 
 19 31  1  0  0  0  0 
 21 32  1  0  0  0  0 
 21 33  1  0  0  0  0 
 21 34  1  0  0  0  0 
 22 35  1  0  0  0  0 
 22 36  1  0  0  0  0 
 22 37  1  0  0  0  0 
M  END
> <cdk:Title>
choline fenofibrate

> <Conformer>
1

> <SuperDrugID>
SD003602

$$$$
