cefpimizole
  CDK     0628171801

 72 76  0  0  0  0  0  0  0  0999 V2000
    3.3555    4.5720    4.5892 C   0  0  0  0  0  0  0  0  0  0  0  0
    2.7541    3.6312    5.3533 O   0  0  0  0  0  0  0  0  0  0  0  0
    4.3503    5.1825    5.0393 O   0  0  0  0  0  0  0  0  0  0  0  0
    2.9093    4.8126    3.3009 C   0  0  0  0  0  0  0  0  0  0  0  0
    3.5225    4.0903    2.3315 N   0  0  0  0  0  0  0  0  0  0  0  0
    1.8494    5.6257    3.0099 C   0  0  0  0  0  0  0  0  0  0  0  0
    3.4445    4.1403    0.9102 C   0  0  1  0  0  0  0  0  0  0  0  0
    4.1896    2.9235    2.3288 C   0  0  0  0  0  0  0  0  0  0  0  0
    1.0028    6.2745    4.0408 C   0  0  2  0  0  0  0  0  0  0  0  0
    1.4603    5.8983    1.6045 C   0  0  2  0  0  0  0  0  0  0  0  0
    4.0442    2.7065    0.8895 C   0  0  1  0  0  0  0  0  0  0  0  0
    1.7016    4.4597    0.4978 S   0  0  0  0  0  0  0  0  0  0  0  0
    4.6323    2.1821    3.2370 O   0  0  0  0  0  0  0  0  0  0  0  0
   -0.3754    5.8123    3.9153 N   0  0  0  0  0  0  0  0  0  0  0  0
    3.1175    1.6343    0.7429 N   0  0  0  0  0  0  0  0  0  0  0  0
   -1.3901    6.6839    3.6030 C   0  0  0  0  0  0  0  0  0  0  0  0
   -0.6615    4.4761    4.0630 C   0  0  0  0  0  0  0  0  0  0  0  0
    3.4578    0.3469    0.4805 C   0  0  0  0  0  0  0  0  0  0  0  0
   -2.6949    6.2239    3.3400 C   0  0  0  0  0  0  0  0  0  0  0  0
   -1.9509    3.9708    3.8185 C   0  0  0  0  0  0  0  0  0  0  0  0
    2.5374   -0.7368    0.8943 C   0  0  2  0  0  0  0  0  0  0  0  0
    4.5758    0.0575   -0.0086 O   0  0  0  0  0  0  0  0  0  0  0  0
   -2.9858    4.8443    3.4238 C   0  0  0  0  0  0  0  0  0  0  0  0
    1.2332   -0.5721    0.3252 N   0  0  0  0  0  0  0  0  0  0  0  0
    2.4611   -0.7222    2.3924 C   0  0  0  0  0  0  0  0  0  0  0  0
   -4.3428    4.3252    3.0890 C   0  0  1  0  0  0  0  0  0  0  0  0
    0.2422   -1.5060    0.3779 C   0  0  0  0  0  0  0  0  0  0  0  0
    1.6482    0.2155    3.0838 C   0  0  0  0  0  0  0  0  0  0  0  0
    3.2293   -1.6310    3.1581 C   0  0  0  0  0  0  0  0  0  0  0  0
   -5.3890    4.6057    4.1964 C   0  0  2  0  0  0  0  0  0  0  0  0
    0.5155   -2.6905    0.6804 O   0  0  0  0  0  0  0  0  0  0  0  0
   -1.0901   -1.1008    0.1463 C   0  0  0  0  0  0  0  0  0  0  0  0
    1.6181    0.2535    4.4886 C   0  0  0  0  0  0  0  0  0  0  0  0
    3.1975   -1.5967    4.5656 C   0  0  0  0  0  0  0  0  0  0  0  0
   -7.0838    4.0881    3.7294 S   0  0  2  0  0  0  0  0  0  0  0  0
   -2.3027   -1.7102    0.5149 C   0  0  0  0  0  0  0  0  0  0  0  0
   -1.4196    0.0467   -0.4713 N   0  0  0  0  0  0  0  0  0  0  0  0
    2.3936   -0.6541    5.2317 C   0  0  0  0  0  0  0  0  0  0  0  0
   -8.0889    5.3280    3.8689 O   0  0  0  0  0  0  0  0  0  0  0  0
   -7.5867    2.8909    4.6677 O   0  0  0  0  0  0  0  0  0  0  0  0
   -7.1292    3.5525    2.1069 O   0  0  0  0  0  0  0  0  0  0  0  0
   -2.5508   -2.8936    1.2531 C   0  0  0  0  0  0  0  0  0  0  0  0
   -3.2998   -0.9168    0.0742 N   0  0  0  0  0  0  0  0  0  0  0  0
   -2.7507    0.1513   -0.5216 C   0  0  0  0  0  0  0  0  0  0  0  0
   -1.5944   -3.5454    1.9542 O   0  0  0  0  0  0  0  0  0  0  0  0
   -3.7083   -3.3674    1.3112 O   0  0  0  0  0  0  0  0  0  0  0  0
    3.0866    3.4326    6.2537 H   0  0  0  0  0  0  0  0  0  0  0  0
    4.1124    4.9023    0.4915 H   0  0  0  0  0  0  0  0  0  0  0  0
    1.0721    7.3930    3.8179 H   0  0  0  0  0  0  0  0  0  0  0  0
    1.3131    5.9698    5.0921 H   0  0  0  0  0  0  0  0  0  0  0  0
    2.0755    6.7194    1.2296 H   0  0  0  0  0  0  0  0  0  0  0  0
    0.4156    6.1978    1.4933 H   0  0  0  0  0  0  0  0  0  0  0  0
    4.9993    2.6215    0.3606 H   0  0  0  0  0  0  0  0  0  0  0  0
    2.1926    1.8134    0.9795 H   0  0  0  0  0  0  0  0  0  0  0  0
   -1.2145    7.6890    3.5254 H   0  0  0  0  0  0  0  0  0  0  0  0
    0.0711    3.8113    4.3307 H   0  0  0  0  0  0  0  0  0  0  0  0
   -3.4226    6.8944    3.0758 H   0  0  0  0  0  0  0  0  0  0  0  0
   -2.1264    2.9688    3.9254 H   0  0  0  0  0  0  0  0  0  0  0  0
    2.9462   -1.6909    0.5437 H   0  0  0  0  0  0  0  0  0  0  0  0
    1.0056    0.3068   -0.0177 H   0  0  0  0  0  0  0  0  0  0  0  0
   -4.6659    4.7795    2.1480 H   0  0  0  0  0  0  0  0  0  0  0  0
   -4.3093    3.2443    2.9201 H   0  0  0  0  0  0  0  0  0  0  0  0
    1.0687    0.8836    2.5687 H   0  0  0  0  0  0  0  0  0  0  0  0
    3.8262   -2.3195    2.6921 H   0  0  0  0  0  0  0  0  0  0  0  0
   -5.4187    5.6723    4.4238 H   0  0  0  0  0  0  0  0  0  0  0  0
   -5.1082    4.0721    5.1068 H   0  0  0  0  0  0  0  0  0  0  0  0
    1.0325    0.9444    4.9652 H   0  0  0  0  0  0  0  0  0  0  0  0
    3.7647   -2.2534    5.1065 H   0  0  0  0  0  0  0  0  0  0  0  0
   -0.7943    0.7021   -0.8233 H   0  0  0  0  0  0  0  0  0  0  0  0
    2.3785   -0.6256    6.2543 H   0  0  0  0  0  0  0  0  0  0  0  0
   -3.2685    0.9262   -0.9415 H   0  0  0  0  0  0  0  0  0  0  0  0
   -1.8066   -4.3560    2.4612 H   0  0  0  0  0  0  0  0  0  0  0  0
  1  2  1  0  0  0  0 
  1  3  2  0  0  0  0 
  1  4  1  0  0  0  0 
  4  5  1  0  0  0  0 
  4  6  2  0  0  0  0 
  7  5  1  0  0  0  0 
  5  8  1  0  0  0  0 
  6  9  1  0  0  0  0 
  6 10  1  0  0  0  0 
  7 11  1  0  0  0  0 
  7 12  1  0  0  0  0 
 11  8  1  0  0  0  0 
  8 13  2  0  0  0  0 
  9 14  1  0  0  0  0 
 10 12  1  0  0  0  0 
 11 15  1  0  0  0  0 
 14 16  2  0  0  0  0 
 14 17  1  0  0  0  0 
 15 18  1  0  0  0  0 
 16 19  1  0  0  0  0 
 17 20  2  0  0  0  0 
 21 18  1  0  0  0  0 
 18 22  2  0  0  0  0 
 19 23  2  0  0  0  0 
 20 23  1  0  0  0  0 
 21 24  1  0  0  0  0 
 21 25  1  0  0  0  0 
 23 26  1  0  0  0  0 
 24 27  1  0  0  0  0 
 25 28  2  0  0  0  0 
 25 29  1  0  0  0  0 
 26 30  1  0  0  0  0 
 27 31  2  0  0  0  0 
 27 32  1  0  0  0  0 
 28 33  1  0  0  0  0 
 29 34  2  0  0  0  0 
 30 35  1  0  0  0  0 
 32 36  2  0  0  0  0 
 32 37  1  0  0  0  0 
 33 38  2  0  0  0  0 
 34 38  1  0  0  0  0 
 35 39  2  0  0  0  0 
 35 40  2  0  0  0  0 
 35 41  1  0  0  0  0 
 36 42  1  0  0  0  0 
 36 43  1  0  0  0  0 
 37 44  1  0  0  0  0 
 42 45  1  0  0  0  0 
 42 46  2  0  0  0  0 
 43 44  2  0  0  0  0 
 47  2  1  0  0  0  0 
  7 48  1  0  0  0  0 
 49  9  1  0  0  0  0 
 50  9  1  0  0  0  0 
 51 10  1  0  0  0  0 
 52 10  1  0  0  0  0 
 11 53  1  0  0  0  0 
 54 15  1  0  0  0  0 
 55 16  1  0  0  0  0 
 56 17  1  0  0  0  0 
 57 19  1  0  0  0  0 
 58 20  1  0  0  0  0 
 21 59  1  0  0  0  0 
 60 24  1  0  0  0  0 
 61 26  1  0  0  0  0 
 62 26  1  0  0  0  0 
 63 28  1  0  0  0  0 
 64 29  1  0  0  0  0 
 65 30  1  0  0  0  0 
 66 30  1  0  0  0  0 
 67 33  1  0  0  0  0 
 68 34  1  0  0  0  0 
 69 37  1  0  0  0  0 
 70 38  1  0  0  0  0 
 71 44  1  0  0  0  0 
 72 45  1  0  0  0  0 
M  CHG  1  14   1
M  CHG  1  41  -1
M  END
> <cdk:Title>
cefpimizole

> <Conformer>
1

> <SuperDrugID>
SD002670

$$$$
