hexestrol
  CDK     0628171801

 42 43  0  0  0  0  0  0  0  0999 V2000
    1.9472    1.4222    0.0584 C   0  0  1  0  0  0  0  0  0  0  0  0
    3.5176    1.5964   -0.0909 C   0  0  2  0  0  0  0  0  0  0  0  0
    1.4632   -0.0699    0.0448 C   0  0  2  0  0  0  0  0  0  0  0  0
    1.3928    2.1190    1.2714 C   0  0  0  0  0  0  0  0  0  0  0  0
    3.9995    3.0920   -0.2244 C   0  0  2  0  0  0  0  0  0  0  0  0
    4.0861    0.8147   -1.2514 C   0  0  0  0  0  0  0  0  0  0  0  0
   -0.0770   -0.2551    0.0930 C   0  0  0  0  0  0  0  0  0  0  0  0
    0.4387    3.1608    1.1406 C   0  0  0  0  0  0  0  0  0  0  0  0
    1.7996    1.7529    2.5804 C   0  0  0  0  0  0  0  0  0  0  0  0
    4.1566    3.8992    1.0876 C   0  0  0  0  0  0  0  0  0  0  0  0
    5.0062   -0.2456   -1.0454 C   0  0  0  0  0  0  0  0  0  0  0  0
    3.7440    1.1427   -2.5875 C   0  0  0  0  0  0  0  0  0  0  0  0
   -0.0364    3.8554    2.2687 C   0  0  0  0  0  0  0  0  0  0  0  0
    1.3244    2.4442    3.7090 C   0  0  0  0  0  0  0  0  0  0  0  0
    5.5615   -0.9483   -2.1324 C   0  0  0  0  0  0  0  0  0  0  0  0
    4.3053    0.4479   -3.6747 C   0  0  0  0  0  0  0  0  0  0  0  0
    0.4250    3.5142    3.5531 C   0  0  0  0  0  0  0  0  0  0  0  0
    5.2158   -0.6007   -3.4508 C   0  0  0  0  0  0  0  0  0  0  0  0
    0.0060    4.2207    4.6306 O   0  0  0  0  0  0  0  0  0  0  0  0
    5.7596   -1.2773   -4.4935 O   0  0  0  0  0  0  0  0  0  0  0  0
    1.5090    1.8760   -0.8360 H   0  0  0  0  0  0  0  0  0  0  0  0
    3.9705    1.2028    0.8242 H   0  0  0  0  0  0  0  0  0  0  0  0
    1.9090   -0.6169    0.8794 H   0  0  0  0  0  0  0  0  0  0  0  0
    1.8023   -0.5523   -0.8747 H   0  0  0  0  0  0  0  0  0  0  0  0
    3.3262    3.6358   -0.8919 H   0  0  0  0  0  0  0  0  0  0  0  0
    4.9919    3.1172   -0.6909 H   0  0  0  0  0  0  0  0  0  0  0  0
   -0.4890    0.1125    1.0356 H   0  0  0  0  0  0  0  0  0  0  0  0
   -0.3250   -1.3152    0.0059 H   0  0  0  0  0  0  0  0  0  0  0  0
   -0.5479    0.2824   -0.7339 H   0  0  0  0  0  0  0  0  0  0  0  0
    0.0852    3.4293    0.2181 H   0  0  0  0  0  0  0  0  0  0  0  0
    2.4581    0.9842    2.7245 H   0  0  0  0  0  0  0  0  0  0  0  0
    4.5989    4.8734    0.8625 H   0  0  0  0  0  0  0  0  0  0  0  0
    4.8194    3.3703    1.7753 H   0  0  0  0  0  0  0  0  0  0  0  0
    3.1980    4.0717    1.5716 H   0  0  0  0  0  0  0  0  0  0  0  0
    5.2865   -0.5126   -0.0978 H   0  0  0  0  0  0  0  0  0  0  0  0
    3.0879    1.9027   -2.7811 H   0  0  0  0  0  0  0  0  0  0  0  0
   -0.7132    4.6144    2.1520 H   0  0  0  0  0  0  0  0  0  0  0  0
    1.6393    2.1699    4.6436 H   0  0  0  0  0  0  0  0  0  0  0  0
    6.2215   -1.7104   -1.9610 H   0  0  0  0  0  0  0  0  0  0  0  0
    4.0519    0.7124   -4.6296 H   0  0  0  0  0  0  0  0  0  0  0  0
    0.6549    4.0212    5.3371 H   0  0  0  0  0  0  0  0  0  0  0  0
    5.2688   -0.9808   -5.2893 H   0  0  0  0  0  0  0  0  0  0  0  0
  2  1  1  0  0  0  0 
  1  3  1  0  0  0  0 
  1  4  1  0  0  0  0 
  2  5  1  0  0  0  0 
  2  6  1  0  0  0  0 
  3  7  1  0  0  0  0 
  4  8  2  0  0  0  0 
  4  9  1  0  0  0  0 
  5 10  1  0  0  0  0 
  6 11  2  0  0  0  0 
  6 12  1  0  0  0  0 
  8 13  1  0  0  0  0 
  9 14  2  0  0  0  0 
 11 15  1  0  0  0  0 
 12 16  2  0  0  0  0 
 13 17  2  0  0  0  0 
 14 17  1  0  0  0  0 
 15 18  2  0  0  0  0 
 16 18  1  0  0  0  0 
 17 19  1  0  0  0  0 
 18 20  1  0  0  0  0 
  1 21  1  0  0  0  0 
  2 22  1  0  0  0  0 
  3 23  1  0  0  0  0 
  3 24  1  0  0  0  0 
  5 25  1  0  0  0  0 
  5 26  1  0  0  0  0 
  7 27  1  0  0  0  0 
  7 28  1  0  0  0  0 
  7 29  1  0  0  0  0 
  8 30  1  0  0  0  0 
  9 31  1  0  0  0  0 
 10 32  1  0  0  0  0 
 10 33  1  0  0  0  0 
 10 34  1  0  0  0  0 
 11 35  1  0  0  0  0 
 12 36  1  0  0  0  0 
 13 37  1  0  0  0  0 
 14 38  1  0  0  0  0 
 15 39  1  0  0  0  0 
 16 40  1  0  0  0  0 
 19 41  1  0  0  0  0 
 20 42  1  0  0  0  0 
M  END
> <cdk:Title>
hexestrol

> <Conformer>
1

> <SuperDrugID>
SD001214

$$$$
