trimetaphan
  CDK     0628171801

 51 55  0  0  0  0  0  0  0  0999 V2000
   -1.2957   -1.2526   -2.1811 C   0  0  0  0  0  0  0  0  0  0  0  0
   -1.7657   -2.0378   -3.1833 N   0  0  0  0  0  0  0  0  0  0  0  0
   -2.2322   -3.2710   -2.6224 C   0  0  1  0  0  0  0  0  0  0  0  0
   -1.5392   -3.2985   -1.2202 C   0  0  1  0  0  0  0  0  0  0  0  0
   -1.2578   -1.9096   -0.9881 N   0  0  0  0  0  0  0  0  0  0  0  0
   -3.7973   -3.4145   -2.5213 C   0  0  1  0  0  0  0  0  0  0  0  0
   -4.0822   -3.9770   -0.8149 S   0  0  1  0  0  0  0  0  0  0  0  0
   -2.3850   -4.0986   -0.1950 C   0  0  2  0  0  0  0  0  0  0  0  0
   -4.7258   -2.1638   -2.5523 C   0  0  1  0  0  0  0  0  0  0  0  0
   -4.7597   -1.4480   -1.1757 C   0  0  1  0  0  0  0  0  0  0  0  0
   -4.8757   -2.5163   -0.0671 C   0  0  2  0  0  0  0  0  0  0  0  0
   -0.9833   -1.2691    0.2835 C   0  0  2  0  0  0  0  0  0  0  0  0
   -1.8685   -1.6782   -4.5868 C   0  0  1  0  0  0  0  0  0  0  0  0
   -0.6907   -0.9528   -5.1484 C   0  0  0  0  0  0  0  0  0  0  0  0
   -0.1686   -2.0340    1.2737 C   0  0  0  0  0  0  0  0  0  0  0  0
    0.5599   -1.5994   -5.2854 C   0  0  0  0  0  0  0  0  0  0  0  0
    1.6729   -0.9067   -5.8015 C   0  0  0  0  0  0  0  0  0  0  0  0
    1.5519    0.4396   -6.1890 C   0  0  0  0  0  0  0  0  0  0  0  0
    0.3159    1.0951   -6.0603 C   0  0  0  0  0  0  0  0  0  0  0  0
   -0.7976    0.4027   -5.5506 C   0  0  0  0  0  0  0  0  0  0  0  0
    1.1457   -2.4583    0.9642 C   0  0  0  0  0  0  0  0  0  0  0  0
    1.9136   -3.1699    1.9075 C   0  0  0  0  0  0  0  0  0  0  0  0
    1.3842   -3.4587    3.1784 C   0  0  0  0  0  0  0  0  0  0  0  0
    0.0826   -3.0396    3.5031 C   0  0  0  0  0  0  0  0  0  0  0  0
   -0.6839   -2.3287    2.5612 C   0  0  0  0  0  0  0  0  0  0  0  0
   -0.9637   -0.0540   -2.3381 O   0  0  0  0  0  0  0  0  0  0  0  0
   -1.8383   -4.1078   -3.2088 H   0  0  0  0  0  0  0  0  0  0  0  0
   -0.5673   -3.8026   -1.2995 H   0  0  0  0  0  0  0  0  0  0  0  0
   -4.1564   -4.1731   -3.2224 H   0  0  0  0  0  0  0  0  0  0  0  0
   -2.3151   -3.7311    0.8241 H   0  0  0  0  0  0  0  0  0  0  0  0
   -2.0974   -5.1525   -0.2187 H   0  0  0  0  0  0  0  0  0  0  0  0
   -4.4514   -1.4590   -3.3301 H   0  0  0  0  0  0  0  0  0  0  0  0
   -5.7418   -2.4996   -2.7827 H   0  0  0  0  0  0  0  0  0  0  0  0
   -3.8495   -0.8588   -1.0399 H   0  0  0  0  0  0  0  0  0  0  0  0
   -5.6056   -0.7555   -1.1291 H   0  0  0  0  0  0  0  0  0  0  0  0
   -4.3772   -2.2072    0.8533 H   0  0  0  0  0  0  0  0  0  0  0  0
   -5.9226   -2.7490    0.1361 H   0  0  0  0  0  0  0  0  0  0  0  0
   -1.9561   -1.0198    0.7120 H   0  0  0  0  0  0  0  0  0  0  0  0
   -0.4711   -0.3153    0.1309 H   0  0  0  0  0  0  0  0  0  0  0  0
   -2.0385   -2.5715   -5.1945 H   0  0  0  0  0  0  0  0  0  0  0  0
   -2.7583   -1.0630   -4.7203 H   0  0  0  0  0  0  0  0  0  0  0  0
    0.6663   -2.5790   -5.0109 H   0  0  0  0  0  0  0  0  0  0  0  0
    2.5740   -1.3798   -5.8908 H   0  0  0  0  0  0  0  0  0  0  0  0
    2.3615    0.9436   -6.5585 H   0  0  0  0  0  0  0  0  0  0  0  0
    0.2273    2.0768   -6.3310 H   0  0  0  0  0  0  0  0  0  0  0  0
   -1.6879    0.9003   -5.4690 H   0  0  0  0  0  0  0  0  0  0  0  0
    1.5545   -2.2491    0.0498 H   0  0  0  0  0  0  0  0  0  0  0  0
    2.8601   -3.4773    1.6735 H   0  0  0  0  0  0  0  0  0  0  0  0
    1.9428   -3.9695    3.8681 H   0  0  0  0  0  0  0  0  0  0  0  0
   -0.3087   -3.2515    4.4248 H   0  0  0  0  0  0  0  0  0  0  0  0
   -1.6266   -2.0286    2.8237 H   0  0  0  0  0  0  0  0  0  0  0  0
  1  2  1  0  0  0  0 
  2  3  1  0  0  0  0 
  3  4  1  0  0  0  0 
  4  5  1  0  0  0  0 
  1  5  1  0  0  0  0 
  6  7  1  0  0  0  0 
  7  8  1  0  0  0  0 
  3  6  1  0  0  0  0 
  4  8  1  0  0  0  0 
  9 10  1  0  0  0  0 
 10 11  1  0  0  0  0 
  6  9  1  0  0  0  0 
  7 11  1  0  0  0  0 
  5 12  1  0  0  0  0 
  2 13  1  0  0  0  0 
 13 14  1  0  0  0  0 
 12 15  1  0  0  0  0 
 16 17  1  0  0  0  0 
 17 18  2  0  0  0  0 
 18 19  1  0  0  0  0 
 19 20  2  0  0  0  0 
 14 16  2  0  0  0  0 
 14 20  1  0  0  0  0 
 21 22  1  0  0  0  0 
 22 23  2  0  0  0  0 
 23 24  1  0  0  0  0 
 24 25  2  0  0  0  0 
 15 21  2  0  0  0  0 
 15 25  1  0  0  0  0 
  1 26  2  0  0  0  0 
  3 27  1  0  0  0  0 
  4 28  1  0  0  0  0 
  6 29  1  0  0  0  0 
  8 30  1  0  0  0  0 
  8 31  1  0  0  0  0 
  9 32  1  0  0  0  0 
  9 33  1  0  0  0  0 
 10 34  1  0  0  0  0 
 10 35  1  0  0  0  0 
 11 36  1  0  0  0  0 
 11 37  1  0  0  0  0 
 12 38  1  0  0  0  0 
 12 39  1  0  0  0  0 
 13 40  1  0  0  0  0 
 13 41  1  0  0  0  0 
 16 42  1  0  0  0  0 
 17 43  1  0  0  0  0 
 18 44  1  0  0  0  0 
 19 45  1  0  0  0  0 
 20 46  1  0  0  0  0 
 21 47  1  0  0  0  0 
 22 48  1  0  0  0  0 
 23 49  1  0  0  0  0 
 24 50  1  0  0  0  0 
 25 51  1  0  0  0  0 
M  CHG  1   7   1
M  END
> <cdk:Title>
trimetaphan

> <Conformer>
1

> <SuperDrugID>
SD002482

$$$$
