coumetarol
  CDK     0628171801

 44 47  0  0  0  0  0  0  0  0999 V2000
    2.0057    0.7670   -0.4612 C   0  0  1  0  0  0  0  0  0  0  0  0
    1.2572   -0.0317    0.6503 C   0  0  2  0  0  0  0  0  0  0  0  0
    3.5173    0.7434   -0.4665 C   0  0  0  0  0  0  0  0  0  0  0  0
    1.4392    0.4714   -1.8282 C   0  0  0  0  0  0  0  0  0  0  0  0
   -0.1304    0.3703    0.6617 O   0  0  0  0  0  0  0  0  0  0  0  0
    4.2350    1.8703   -0.9618 C   0  0  0  0  0  0  0  0  0  0  0  0
    4.3018   -0.3497   -0.0134 C   0  0  0  0  0  0  0  0  0  0  0  0
    0.7080    1.4467   -2.5631 C   0  0  0  0  0  0  0  0  0  0  0  0
    1.5849   -0.8036   -2.4336 C   0  0  0  0  0  0  0  0  0  0  0  0
   -0.9286   -0.2838    1.6597 C   0  0  0  0  0  0  0  0  0  0  0  0
    3.5454    2.9477   -1.4260 O   0  0  0  0  0  0  0  0  0  0  0  0
    5.6514    1.9082   -0.9924 C   0  0  0  0  0  0  0  0  0  0  0  0
    3.8248   -1.4080    0.4511 O   0  0  0  0  0  0  0  0  0  0  0  0
    5.6621   -0.3052   -0.0749 O   0  0  0  0  0  0  0  0  0  0  0  0
    0.5297    2.6922   -2.0485 O   0  0  0  0  0  0  0  0  0  0  0  0
    0.1421    1.1584   -3.8290 C   0  0  0  0  0  0  0  0  0  0  0  0
    2.2022   -1.7510   -1.8990 O   0  0  0  0  0  0  0  0  0  0  0  0
    1.0361   -1.0619   -3.6529 O   0  0  0  0  0  0  0  0  0  0  0  0
    6.3578    0.7642   -0.5463 C   0  0  0  0  0  0  0  0  0  0  0  0
    6.3945    3.0250   -1.4473 C   0  0  0  0  0  0  0  0  0  0  0  0
    0.3299   -0.1412   -4.3631 C   0  0  0  0  0  0  0  0  0  0  0  0
   -0.6063    2.0979   -4.5798 C   0  0  0  0  0  0  0  0  0  0  0  0
    7.7646    0.7223   -0.5881 C   0  0  0  0  0  0  0  0  0  0  0  0
    7.8017    2.9837   -1.4877 C   0  0  0  0  0  0  0  0  0  0  0  0
   -0.2092   -0.4914   -5.6148 C   0  0  0  0  0  0  0  0  0  0  0  0
   -1.1441    1.7470   -5.8327 C   0  0  0  0  0  0  0  0  0  0  0  0
    8.4864    1.8299   -1.0658 C   0  0  0  0  0  0  0  0  0  0  0  0
   -0.9446    0.4544   -6.3505 C   0  0  0  0  0  0  0  0  0  0  0  0
    1.7527    1.7912   -0.1757 H   0  0  0  0  0  0  0  0  0  0  0  0
    1.7107    0.1957    1.6213 H   0  0  0  0  0  0  0  0  0  0  0  0
    1.3280   -1.1087    0.4751 H   0  0  0  0  0  0  0  0  0  0  0  0
   -1.9425    0.1093    1.5926 H   0  0  0  0  0  0  0  0  0  0  0  0
   -0.5501   -0.0850    2.6651 H   0  0  0  0  0  0  0  0  0  0  0  0
   -0.9637   -1.3608    1.4833 H   0  0  0  0  0  0  0  0  0  0  0  0
    3.6673    2.9216   -2.3979 H   0  0  0  0  0  0  0  0  0  0  0  0
    1.1095    3.2663   -2.5915 H   0  0  0  0  0  0  0  0  0  0  0  0
    5.9213    3.8771   -1.7525 H   0  0  0  0  0  0  0  0  0  0  0  0
   -0.7704    3.0428   -4.2245 H   0  0  0  0  0  0  0  0  0  0  0  0
    8.2644   -0.1124   -0.2748 H   0  0  0  0  0  0  0  0  0  0  0  0
    8.3272    3.7935   -1.8256 H   0  0  0  0  0  0  0  0  0  0  0  0
   -0.0682   -1.4329   -5.9879 H   0  0  0  0  0  0  0  0  0  0  0  0
   -1.6821    2.4334   -6.3668 H   0  0  0  0  0  0  0  0  0  0  0  0
    9.5075    1.7964   -1.1067 H   0  0  0  0  0  0  0  0  0  0  0  0
   -1.3316    0.2032   -7.2628 H   0  0  0  0  0  0  0  0  0  0  0  0
  1  2  1  0  0  0  0 
  1  3  1  0  0  0  0 
  1  4  1  0  0  0  0 
  2  5  1  0  0  0  0 
  3  6  2  0  0  0  0 
  3  7  1  0  0  0  0 
  4  8  2  0  0  0  0 
  4  9  1  0  0  0  0 
  5 10  1  0  0  0  0 
  6 11  1  0  0  0  0 
  6 12  1  0  0  0  0 
  7 13  2  0  0  0  0 
  7 14  1  0  0  0  0 
  8 15  1  0  0  0  0 
  8 16  1  0  0  0  0 
  9 17  2  0  0  0  0 
  9 18  1  0  0  0  0 
 12 19  1  0  0  0  0 
 12 20  2  0  0  0  0 
 14 19  1  0  0  0  0 
 16 21  1  0  0  0  0 
 16 22  2  0  0  0  0 
 18 21  1  0  0  0  0 
 19 23  2  0  0  0  0 
 20 24  1  0  0  0  0 
 21 25  2  0  0  0  0 
 22 26  1  0  0  0  0 
 23 27  1  0  0  0  0 
 24 27  2  0  0  0  0 
 25 28  1  0  0  0  0 
 26 28  2  0  0  0  0 
  1 29  1  0  0  0  0 
  2 30  1  0  0  0  0 
  2 31  1  0  0  0  0 
 10 32  1  0  0  0  0 
 10 33  1  0  0  0  0 
 10 34  1  0  0  0  0 
 11 35  1  0  0  0  0 
 15 36  1  0  0  0  0 
 20 37  1  0  0  0  0 
 22 38  1  0  0  0  0 
 23 39  1  0  0  0  0 
 24 40  1  0  0  0  0 
 25 41  1  0  0  0  0 
 26 42  1  0  0  0  0 
 27 43  1  0  0  0  0 
 28 44  1  0  0  0  0 
M  END
> <cdk:Title>
coumetarol

> <Conformer>
1

> <SuperDrugID>
SD003179

$$$$
