mebeverine
  CDK     0628171801

 66 67  0  0  0  0  0  0  0  0999 V2000
    4.7576    3.3289    3.0812 C   0  0  0  0  0  0  0  0  0  0  0  0
    4.6307    4.0121    4.2671 O   0  0  0  0  0  0  0  0  0  0  0  0
    3.7157    2.9727    2.4791 O   0  0  0  0  0  0  0  0  0  0  0  0
    6.0390    3.0023    2.5466 C   0  0  0  0  0  0  0  0  0  0  0  0
    3.4073    4.2942    4.9708 C   0  0  1  0  0  0  0  0  0  0  0  0
    6.1785    2.3808    1.2778 C   0  0  0  0  0  0  0  0  0  0  0  0
    7.2179    3.2473    3.2941 C   0  0  0  0  0  0  0  0  0  0  0  0
    3.6525    5.1943    6.2061 C   0  0  2  0  0  0  0  0  0  0  0  0
    7.4340    1.9397    0.8090 C   0  0  0  0  0  0  0  0  0  0  0  0
    8.4757    2.8187    2.8296 C   0  0  0  0  0  0  0  0  0  0  0  0
    4.1214    6.6184    5.8142 C   0  0  2  0  0  0  0  0  0  0  0  0
    7.5343    1.3226   -0.4110 O   0  0  0  0  0  0  0  0  0  0  0  0
    8.5888    2.1575    1.5907 C   0  0  0  0  0  0  0  0  0  0  0  0
    4.3626    7.5549    7.0338 C   0  0  2  0  0  0  0  0  0  0  0  0
    7.2407   -0.0865   -0.3631 C   0  0  0  0  0  0  0  0  0  0  0  0
    9.8078    1.7021    1.1631 O   0  0  0  0  0  0  0  0  0  0  0  0
    4.7760    8.9652    6.6785 N   0  0  1  0  0  0  0  0  0  0  0  0
   10.5687    2.7084    0.4736 C   0  0  0  0  0  0  0  0  0  0  0  0
    6.1168    9.0954    5.9519 C   0  0  1  0  0  0  0  0  0  0  0  0
    3.6592    9.8160    6.1123 C   0  0  1  0  0  0  0  0  0  0  0  0
    6.6030   10.5756    5.7161 C   0  0  2  0  0  0  0  0  0  0  0  0
    7.2655    8.2956    6.6554 C   0  0  0  0  0  0  0  0  0  0  0  0
    2.2334    9.6844    6.7085 C   0  0  0  0  0  0  0  0  0  0  0  0
    7.8055   10.6963    4.8382 C   0  0  0  0  0  0  0  0  0  0  0  0
    9.0519   11.1238    5.3527 C   0  0  0  0  0  0  0  0  0  0  0  0
    7.7217   10.3540    3.4673 C   0  0  0  0  0  0  0  0  0  0  0  0
   10.1962   11.1498    4.5343 C   0  0  0  0  0  0  0  0  0  0  0  0
    8.8641   10.3852    2.6484 C   0  0  0  0  0  0  0  0  0  0  0  0
   10.1121   10.7582    3.1839 C   0  0  0  0  0  0  0  0  0  0  0  0
   11.2332   10.7573    2.3998 O   0  0  0  0  0  0  0  0  0  0  0  0
   11.8379    9.4543    2.2945 C   0  0  0  0  0  0  0  0  0  0  0  0
    2.6975    4.7844    4.3005 H   0  0  0  0  0  0  0  0  0  0  0  0
    2.9702    3.3502    5.3043 H   0  0  0  0  0  0  0  0  0  0  0  0
    5.3618    2.2292    0.6792 H   0  0  0  0  0  0  0  0  0  0  0  0
    7.1760    3.7251    4.1983 H   0  0  0  0  0  0  0  0  0  0  0  0
    4.4027    4.7244    6.8480 H   0  0  0  0  0  0  0  0  0  0  0  0
    2.7208    5.2707    6.7735 H   0  0  0  0  0  0  0  0  0  0  0  0
    9.3106    2.9820    3.3997 H   0  0  0  0  0  0  0  0  0  0  0  0
    3.3718    7.0689    5.1593 H   0  0  0  0  0  0  0  0  0  0  0  0
    5.0511    6.5233    5.2519 H   0  0  0  0  0  0  0  0  0  0  0  0
    5.1179    7.1081    7.6804 H   0  0  0  0  0  0  0  0  0  0  0  0
    3.4677    7.5725    7.6584 H   0  0  0  0  0  0  0  0  0  0  0  0
    7.3558   -0.4930   -1.3692 H   0  0  0  0  0  0  0  0  0  0  0  0
    7.9324   -0.6174    0.2972 H   0  0  0  0  0  0  0  0  0  0  0  0
    6.2119   -0.2690   -0.0380 H   0  0  0  0  0  0  0  0  0  0  0  0
   11.4921    2.2511    0.1175 H   0  0  0  0  0  0  0  0  0  0  0  0
   10.0283    3.1013   -0.3918 H   0  0  0  0  0  0  0  0  0  0  0  0
   10.8298    3.5303    1.1444 H   0  0  0  0  0  0  0  0  0  0  0  0
    5.9892    8.6466    4.9623 H   0  0  0  0  0  0  0  0  0  0  0  0
    3.9167   10.8619    6.2879 H   0  0  0  0  0  0  0  0  0  0  0  0
    3.5862    9.6641    5.0306 H   0  0  0  0  0  0  0  0  0  0  0  0
    6.7783   11.0434    6.6903 H   0  0  0  0  0  0  0  0  0  0  0  0
    5.8300   11.1614    5.2210 H   0  0  0  0  0  0  0  0  0  0  0  0
    7.3179    8.5502    7.7149 H   0  0  0  0  0  0  0  0  0  0  0  0
    8.2412    8.4923    6.2109 H   0  0  0  0  0  0  0  0  0  0  0  0
    7.1080    7.2229    6.5565 H   0  0  0  0  0  0  0  0  0  0  0  0
    1.7889    8.7222    6.4522 H   0  0  0  0  0  0  0  0  0  0  0  0
    1.5892   10.4666    6.3012 H   0  0  0  0  0  0  0  0  0  0  0  0
    2.2646    9.7943    7.7932 H   0  0  0  0  0  0  0  0  0  0  0  0
    9.1377   11.4018    6.3326 H   0  0  0  0  0  0  0  0  0  0  0  0
    6.8260   10.0749    3.0562 H   0  0  0  0  0  0  0  0  0  0  0  0
   11.0928   11.4446    4.9255 H   0  0  0  0  0  0  0  0  0  0  0  0
    8.7881   10.1290    1.6624 H   0  0  0  0  0  0  0  0  0  0  0  0
   12.7400    9.5409    1.6871 H   0  0  0  0  0  0  0  0  0  0  0  0
   12.1263    9.0670    3.2760 H   0  0  0  0  0  0  0  0  0  0  0  0
   11.1676    8.7435    1.8025 H   0  0  0  0  0  0  0  0  0  0  0  0
  1  2  1  0  0  0  0 
  1  3  2  0  0  0  0 
  1  4  1  0  0  0  0 
  2  5  1  0  0  0  0 
  4  6  2  0  0  0  0 
  4  7  1  0  0  0  0 
  5  8  1  0  0  0  0 
  6  9  1  0  0  0  0 
  7 10  2  0  0  0  0 
  8 11  1  0  0  0  0 
  9 12  1  0  0  0  0 
  9 13  2  0  0  0  0 
 10 13  1  0  0  0  0 
 11 14  1  0  0  0  0 
 12 15  1  0  0  0  0 
 13 16  1  0  0  0  0 
 14 17  1  0  0  0  0 
 16 18  1  0  0  0  0 
 19 17  1  0  0  0  0 
 17 20  1  0  0  0  0 
 19 21  1  0  0  0  0 
 19 22  1  0  0  0  0 
 20 23  1  0  0  0  0 
 21 24  1  0  0  0  0 
 24 25  2  0  0  0  0 
 24 26  1  0  0  0  0 
 25 27  1  0  0  0  0 
 26 28  2  0  0  0  0 
 27 29  2  0  0  0  0 
 28 29  1  0  0  0  0 
 29 30  1  0  0  0  0 
 30 31  1  0  0  0  0 
  5 32  1  0  0  0  0 
  5 33  1  0  0  0  0 
  6 34  1  0  0  0  0 
  7 35  1  0  0  0  0 
  8 36  1  0  0  0  0 
  8 37  1  0  0  0  0 
 10 38  1  0  0  0  0 
 11 39  1  0  0  0  0 
 11 40  1  0  0  0  0 
 14 41  1  0  0  0  0 
 14 42  1  0  0  0  0 
 15 43  1  0  0  0  0 
 15 44  1  0  0  0  0 
 15 45  1  0  0  0  0 
 18 46  1  0  0  0  0 
 18 47  1  0  0  0  0 
 18 48  1  0  0  0  0 
 19 49  1  0  0  0  0 
 20 50  1  0  0  0  0 
 20 51  1  0  0  0  0 
 21 52  1  0  0  0  0 
 21 53  1  0  0  0  0 
 22 54  1  0  0  0  0 
 22 55  1  0  0  0  0 
 22 56  1  0  0  0  0 
 23 57  1  0  0  0  0 
 23 58  1  0  0  0  0 
 23 59  1  0  0  0  0 
 25 60  1  0  0  0  0 
 26 61  1  0  0  0  0 
 27 62  1  0  0  0  0 
 28 63  1  0  0  0  0 
 31 64  1  0  0  0  0 
 31 65  1  0  0  0  0 
 31 66  1  0  0  0  0 
M  END
> <cdk:Title>
mebeverine

> <Conformer>
1

> <SuperDrugID>
SD001452

$$$$
