thioacetazone
  CDK     0628171801

 28 28  0  0  0  0  0  0  0  0999 V2000
   -5.0394    5.2875   -0.6864 N   0  0  0  0  0  0  0  0  0  0  0  0
   -5.7054    6.2936   -0.0515 C   0  0  0  0  0  0  0  0  0  0  0  0
   -4.0301    4.4685   -0.2550 C   0  0  0  0  0  0  0  0  0  0  0  0
   -6.7650    6.9819   -0.8054 C   0  0  0  0  0  0  0  0  0  0  0  0
   -5.4691    6.6648    1.1215 O   0  0  0  0  0  0  0  0  0  0  0  0
   -3.5291    3.5582   -1.2111 C   0  0  0  0  0  0  0  0  0  0  0  0
   -3.4639    4.4479    1.0423 C   0  0  0  0  0  0  0  0  0  0  0  0
   -2.5112    2.6449   -0.8840 C   0  0  0  0  0  0  0  0  0  0  0  0
   -2.4393    3.5411    1.3687 C   0  0  0  0  0  0  0  0  0  0  0  0
   -1.9548    2.6105    0.4186 C   0  0  0  0  0  0  0  0  0  0  0  0
   -0.9701    1.6995    0.7914 C   0  0  0  0  0  0  0  0  0  0  0  0
   -0.5845    0.7441    0.0261 N   0  0  0  0  0  0  0  0  0  0  0  0
    0.2980   -0.1112    0.3403 N   0  0  0  0  0  0  0  0  0  0  0  0
    0.6398   -1.1296   -0.4357 C   0  0  0  0  0  0  0  0  0  0  0  0
    1.5029   -1.9990    0.0327 N   0  0  0  0  0  0  0  0  0  0  0  0
    0.0161   -1.3892   -2.0010 S   0  0  0  0  0  0  0  0  0  0  0  0
   -5.3350    5.1237   -1.5963 H   0  0  0  0  0  0  0  0  0  0  0  0
   -7.5139    6.2577   -1.1315 H   0  0  0  0  0  0  0  0  0  0  0  0
   -6.3317    7.4650   -1.6825 H   0  0  0  0  0  0  0  0  0  0  0  0
   -7.2590    7.7424   -0.1969 H   0  0  0  0  0  0  0  0  0  0  0  0
   -3.9025    3.5506   -2.1655 H   0  0  0  0  0  0  0  0  0  0  0  0
   -3.7829    5.0817    1.7730 H   0  0  0  0  0  0  0  0  0  0  0  0
   -2.1858    2.0060   -1.6141 H   0  0  0  0  0  0  0  0  0  0  0  0
   -2.0553    3.5635    2.3191 H   0  0  0  0  0  0  0  0  0  0  0  0
   -0.5564    1.7827    1.6945 H   0  0  0  0  0  0  0  0  0  0  0  0
    0.7336   -0.0251    1.2051 H   0  0  0  0  0  0  0  0  0  0  0  0
    1.9179   -1.8539    0.8968 H   0  0  0  0  0  0  0  0  0  0  0  0
    1.7239   -2.7933   -0.4780 H   0  0  0  0  0  0  0  0  0  0  0  0
  1  2  1  0  0  0  0 
  1  3  1  0  0  0  0 
  2  4  1  0  0  0  0 
  2  5  2  0  0  0  0 
  3  6  2  0  0  0  0 
  3  7  1  0  0  0  0 
  6  8  1  0  0  0  0 
  7  9  2  0  0  0  0 
  8 10  2  0  0  0  0 
  9 10  1  0  0  0  0 
 11 10  1  0  0  0  0 
 11 12  2  0  0  0  0 
 12 13  1  0  0  0  0 
 13 14  1  0  0  0  0 
 14 15  1  0  0  0  0 
 14 16  2  0  0  0  0 
 17  1  1  0  0  0  0 
 18  4  1  0  0  0  0 
 19  4  1  0  0  0  0 
 20  4  1  0  0  0  0 
 21  6  1  0  0  0  0 
 22  7  1  0  0  0  0 
 23  8  1  0  0  0  0 
 24  9  1  0  0  0  0 
 25 11  1  0  0  0  0 
 26 13  1  0  0  0  0 
 27 15  1  0  0  0  0 
 28 15  1  0  0  0  0 
M  END
> <cdk:Title>
thioacetazone

> <Conformer>
1

> <SuperDrugID>
SD002366

$$$$
