etoperidone
  CDK     0628171801

 54 56  0  0  0  0  0  0  0  0999 V2000
    4.9157   -2.2560    1.2272 C   0  0  2  0  0  0  0  0  0  0  0  0
    5.8714   -2.8672    0.1824 C   0  0  0  0  0  0  0  0  0  0  0  0
    3.9525   -1.3696    0.6309 N   0  0  0  0  0  0  0  0  0  0  0  0
    4.0104   -0.0233    0.5113 C   0  0  0  0  0  0  0  0  0  0  0  0
    2.7718   -1.7333    0.0945 C   0  0  0  0  0  0  0  0  0  0  0  0
    5.0974    0.8961    0.9061 C   0  0  1  0  0  0  0  0  0  0  0  0
    2.8752    0.4040   -0.0652 N   0  0  0  0  0  0  0  0  0  0  0  0
    2.3364   -2.9050    0.0012 O   0  0  0  0  0  0  0  0  0  0  0  0
    2.1143   -0.6199   -0.2781 N   0  0  0  0  0  0  0  0  0  0  0  0
    4.9303    1.4114    2.3511 C   0  0  0  0  0  0  0  0  0  0  0  0
    0.7634   -0.5191   -0.7375 C   0  0  1  0  0  0  0  0  0  0  0  0
   -0.2176   -0.2403    0.4334 C   0  0  1  0  0  0  0  0  0  0  0  0
   -0.3738   -1.4073    1.4485 C   0  0  1  0  0  0  0  0  0  0  0  0
   -0.6627   -2.7481    0.8431 N   0  0  1  0  0  0  0  0  0  0  0  0
   -0.4483   -3.8721    1.8121 C   0  0  2  0  0  0  0  0  0  0  0  0
   -1.9735   -2.8402    0.1215 C   0  0  1  0  0  0  0  0  0  0  0  0
   -0.7503   -5.2521    1.1753 C   0  0  2  0  0  0  0  0  0  0  0  0
   -2.1589   -4.2516   -0.4911 C   0  0  2  0  0  0  0  0  0  0  0  0
   -2.0954   -5.2196    0.6028 N   0  0  0  0  0  0  0  0  0  0  0  0
   -3.2085   -5.9371    1.1105 C   0  0  0  0  0  0  0  0  0  0  0  0
   -4.5390   -5.7342    0.6283 C   0  0  0  0  0  0  0  0  0  0  0  0
   -3.0993   -6.8901    2.1695 C   0  0  0  0  0  0  0  0  0  0  0  0
   -5.6580   -6.4169    1.1441 C   0  0  0  0  0  0  0  0  0  0  0  0
   -4.2104   -7.5654    2.7073 C   0  0  0  0  0  0  0  0  0  0  0  0
   -7.2059   -6.1402    0.5107 Cl  0  0  0  0  0  0  0  0  0  0  0  0
   -5.4913   -7.3297    2.1949 C   0  0  0  0  0  0  0  0  0  0  0  0
    5.5075   -1.7297    1.9791 H   0  0  0  0  0  0  0  0  0  0  0  0
    4.3984   -3.0669    1.7489 H   0  0  0  0  0  0  0  0  0  0  0  0
    6.6025   -3.5077    0.6802 H   0  0  0  0  0  0  0  0  0  0  0  0
    5.3117   -3.4689   -0.5361 H   0  0  0  0  0  0  0  0  0  0  0  0
    6.4044   -2.0768   -0.3493 H   0  0  0  0  0  0  0  0  0  0  0  0
    6.0618    0.3941    0.8053 H   0  0  0  0  0  0  0  0  0  0  0  0
    5.1036    1.7530    0.2272 H   0  0  0  0  0  0  0  0  0  0  0  0
    5.7672    2.0643    2.6074 H   0  0  0  0  0  0  0  0  0  0  0  0
    4.9117    0.5776    3.0552 H   0  0  0  0  0  0  0  0  0  0  0  0
    4.0041    1.9812    2.4472 H   0  0  0  0  0  0  0  0  0  0  0  0
    0.6981    0.3099   -1.4474 H   0  0  0  0  0  0  0  0  0  0  0  0
    0.4680   -1.4239   -1.2777 H   0  0  0  0  0  0  0  0  0  0  0  0
    0.1329    0.6417    0.9770 H   0  0  0  0  0  0  0  0  0  0  0  0
   -1.1980    0.0133    0.0235 H   0  0  0  0  0  0  0  0  0  0  0  0
    0.5578   -1.4578    2.0217 H   0  0  0  0  0  0  0  0  0  0  0  0
   -1.1678   -1.1488    2.1551 H   0  0  0  0  0  0  0  0  0  0  0  0
   -1.0888   -3.7429    2.6897 H   0  0  0  0  0  0  0  0  0  0  0  0
    0.5913   -3.8707    2.1487 H   0  0  0  0  0  0  0  0  0  0  0  0
   -2.8029   -2.6221    0.8039 H   0  0  0  0  0  0  0  0  0  0  0  0
   -2.0105   -2.1160   -0.6923 H   0  0  0  0  0  0  0  0  0  0  0  0
   -0.5733   -6.0065    1.9337 H   0  0  0  0  0  0  0  0  0  0  0  0
   -0.0109   -5.4666    0.3967 H   0  0  0  0  0  0  0  0  0  0  0  0
   -1.3600   -4.4361   -1.2183 H   0  0  0  0  0  0  0  0  0  0  0  0
   -3.0680   -4.2655   -1.0835 H   0  0  0  0  0  0  0  0  0  0  0  0
   -4.7424   -5.0726   -0.1135 H   0  0  0  0  0  0  0  0  0  0  0  0
   -2.2110   -7.1307    2.5961 H   0  0  0  0  0  0  0  0  0  0  0  0
   -4.0858   -8.2288    3.4766 H   0  0  0  0  0  0  0  0  0  0  0  0
   -6.2955   -7.8261    2.5891 H   0  0  0  0  0  0  0  0  0  0  0  0
  1  2  1  0  0  0  0 
  1  3  1  0  0  0  0 
  3  4  1  0  0  0  0 
  3  5  1  0  0  0  0 
  4  6  1  0  0  0  0 
  4  7  2  0  0  0  0 
  5  8  2  0  0  0  0 
  5  9  1  0  0  0  0 
  6 10  1  0  0  0  0 
  7  9  1  0  0  0  0 
  9 11  1  0  0  0  0 
 11 12  1  0  0  0  0 
 12 13  1  0  0  0  0 
 13 14  1  0  0  0  0 
 14 15  1  0  0  0  0 
 14 16  1  0  0  0  0 
 15 17  1  0  0  0  0 
 16 18  1  0  0  0  0 
 17 19  1  0  0  0  0 
 18 19  1  0  0  0  0 
 19 20  1  0  0  0  0 
 20 21  2  0  0  0  0 
 20 22  1  0  0  0  0 
 21 23  1  0  0  0  0 
 22 24  2  0  0  0  0 
 23 25  1  0  0  0  0 
 23 26  2  0  0  0  0 
 24 26  1  0  0  0  0 
  1 27  1  0  0  0  0 
  1 28  1  0  0  0  0 
  2 29  1  0  0  0  0 
  2 30  1  0  0  0  0 
  2 31  1  0  0  0  0 
  6 32  1  0  0  0  0 
  6 33  1  0  0  0  0 
 10 34  1  0  0  0  0 
 10 35  1  0  0  0  0 
 10 36  1  0  0  0  0 
 11 37  1  0  0  0  0 
 11 38  1  0  0  0  0 
 12 39  1  0  0  0  0 
 12 40  1  0  0  0  0 
 13 41  1  0  0  0  0 
 13 42  1  0  0  0  0 
 15 43  1  0  0  0  0 
 15 44  1  0  0  0  0 
 16 45  1  0  0  0  0 
 16 46  1  0  0  0  0 
 17 47  1  0  0  0  0 
 17 48  1  0  0  0  0 
 18 49  1  0  0  0  0 
 18 50  1  0  0  0  0 
 21 51  1  0  0  0  0 
 22 52  1  0  0  0  0 
 24 53  1  0  0  0  0 
 26 54  1  0  0  0  0 
M  END
> <cdk:Title>
etoperidone

> <Conformer>
1

> <SuperDrugID>
SD000992

$$$$
