adenosine
  CDK     0628171802

 32 34  0  0  0  0  0  0  0  0999 V2000
    2.5789   -1.6553   -3.9220 O   0  0  0  0  0  0  0  0  0  0  0  0
    2.0703   -2.8823   -3.3939 C   0  0  1  0  0  0  0  0  0  0  0  0
    2.9387   -3.3832   -2.2127 C   0  0  2  0  0  0  0  0  0  0  0  0
    0.7060   -2.6644   -2.7282 C   0  0  2  0  0  0  0  0  0  0  0  0
    3.1342   -4.8113   -2.2474 N   0  0  0  0  0  0  0  0  0  0  0  0
    2.2938   -2.9580   -0.9961 O   0  0  0  0  0  0  0  0  0  0  0  0
   -0.1127   -1.7223   -3.4176 O   0  0  0  0  0  0  0  0  0  0  0  0
    1.1294   -2.1876   -1.3246 C   0  0  2  0  0  0  0  0  0  0  0  0
    2.5860   -5.7566   -1.4623 C   0  0  0  0  0  0  0  0  0  0  0  0
    3.9446   -5.4769   -3.1028 C   0  0  0  0  0  0  0  0  0  0  0  0
    0.0344   -2.3560   -0.2457 C   0  0  2  0  0  0  0  0  0  0  0  0
    3.1034   -6.9868   -1.8547 C   0  0  0  0  0  0  0  0  0  0  0  0
    1.6889   -5.6698   -0.4481 N   0  0  0  0  0  0  0  0  0  0  0  0
    3.9433   -6.8047   -2.8812 N   0  0  0  0  0  0  0  0  0  0  0  0
    0.5418   -1.9895    1.0323 O   0  0  0  0  0  0  0  0  0  0  0  0
    2.7058   -8.1472   -1.1693 C   0  0  0  0  0  0  0  0  0  0  0  0
    1.2950   -6.7991    0.2013 C   0  0  0  0  0  0  0  0  0  0  0  0
    3.1945   -9.3635   -1.4678 N   0  0  0  0  0  0  0  0  0  0  0  0
    1.8030   -8.0109   -0.1591 N   0  0  0  0  0  0  0  0  0  0  0  0
    3.4726   -1.8692   -4.2620 H   0  0  0  0  0  0  0  0  0  0  0  0
    1.9969   -3.6095   -4.2062 H   0  0  0  0  0  0  0  0  0  0  0  0
    3.9222   -2.9026   -2.2334 H   0  0  0  0  0  0  0  0  0  0  0  0
    0.1720   -3.6188   -2.6702 H   0  0  0  0  0  0  0  0  0  0  0  0
   -0.9577   -1.7155   -2.9201 H   0  0  0  0  0  0  0  0  0  0  0  0
    1.4180   -1.1316   -1.3664 H   0  0  0  0  0  0  0  0  0  0  0  0
    4.5065   -5.0359   -3.8323 H   0  0  0  0  0  0  0  0  0  0  0  0
   -0.2983   -3.3944   -0.2020 H   0  0  0  0  0  0  0  0  0  0  0  0
   -0.8228   -1.7204   -0.4766 H   0  0  0  0  0  0  0  0  0  0  0  0
   -0.1882   -2.1770    1.6599 H   0  0  0  0  0  0  0  0  0  0  0  0
    0.6195   -6.7372    0.9614 H   0  0  0  0  0  0  0  0  0  0  0  0
    3.8438   -9.4725   -2.1807 H   0  0  0  0  0  0  0  0  0  0  0  0
    2.9001  -10.1391   -0.9646 H   0  0  0  0  0  0  0  0  0  0  0  0
  2  1  1  0  0  0  0 
  2  3  1  0  0  0  0 
  4  2  1  0  0  0  0 
  3  5  1  0  0  0  0 
  3  6  1  0  0  0  0 
  4  7  1  0  0  0  0 
  8  4  1  0  0  0  0 
  5  9  1  0  0  0  0 
  5 10  1  0  0  0  0 
  8  6  1  0  0  0  0 
  8 11  1  0  0  0  0 
  9 12  1  0  0  0  0 
  9 13  2  0  0  0  0 
 10 14  2  0  0  0  0 
 11 15  1  0  0  0  0 
 12 14  1  0  0  0  0 
 12 16  2  0  0  0  0 
 13 17  1  0  0  0  0 
 16 18  1  0  0  0  0 
 16 19  1  0  0  0  0 
 17 19  2  0  0  0  0 
  1 20  1  0  0  0  0 
  2 21  1  0  0  0  0 
  3 22  1  0  0  0  0 
  4 23  1  0  0  0  0 
  7 24  1  0  0  0  0 
  8 25  1  0  0  0  0 
 10 26  1  0  0  0  0 
 11 27  1  0  0  0  0 
 11 28  1  0  0  0  0 
 15 29  1  0  0  0  0 
 17 30  1  0  0  0  0 
 18 31  1  0  0  0  0 
 18 32  1  0  0  0  0 
M  END
> <cdk:Title>
adenosine

> <Conformer>
1

> <SuperDrugID>
SD000065

$$$$
