melevodopa
  CDK     0628171801

 28 28  0  0  0  0  0  0  0  0999 V2000
   -3.3740   -0.0553    0.7087 C   0  0  2  0  0  0  0  0  0  0  0  0
   -2.2407    0.7402    1.4317 C   0  0  1  0  0  0  0  0  0  0  0  0
   -3.3308   -0.0666   -0.7839 C   0  0  0  0  0  0  0  0  0  0  0  0
   -0.8703    0.1887    1.3152 C   0  0  0  0  0  0  0  0  0  0  0  0
   -2.2236    2.1591    1.0460 N   0  0  1  0  0  0  0  0  0  0  0  0
   -2.9152   -1.2197   -1.4931 C   0  0  0  0  0  0  0  0  0  0  0  0
   -3.7469    1.0623   -1.5302 C   0  0  0  0  0  0  0  0  0  0  0  0
   -0.6128   -0.9694    0.6372 O   0  0  0  0  0  0  0  0  0  0  0  0
    0.0659    0.7952    1.8925 O   0  0  0  0  0  0  0  0  0  0  0  0
   -2.8955   -1.2443   -2.9021 C   0  0  0  0  0  0  0  0  0  0  0  0
   -3.7412    1.0387   -2.9366 C   0  0  0  0  0  0  0  0  0  0  0  0
    0.6647   -1.6036    0.5113 C   0  0  0  0  0  0  0  0  0  0  0  0
   -2.4944   -2.3610   -3.5610 O   0  0  0  0  0  0  0  0  0  0  0  0
   -3.3022   -0.1054   -3.6268 C   0  0  0  0  0  0  0  0  0  0  0  0
   -3.2789   -0.0827   -4.9829 O   0  0  0  0  0  0  0  0  0  0  0  0
   -4.3386    0.3591    1.0177 H   0  0  0  0  0  0  0  0  0  0  0  0
   -3.3631   -1.0811    1.0891 H   0  0  0  0  0  0  0  0  0  0  0  0
   -2.4830    0.7240    2.4975 H   0  0  0  0  0  0  0  0  0  0  0  0
   -1.9364    2.2156    0.0670 H   0  0  0  0  0  0  0  0  0  0  0  0
   -3.1840    2.5014    1.1062 H   0  0  0  0  0  0  0  0  0  0  0  0
   -2.6200   -2.0546   -0.9822 H   0  0  0  0  0  0  0  0  0  0  0  0
   -4.0644    1.9112   -1.0548 H   0  0  0  0  0  0  0  0  0  0  0  0
   -4.0561    1.8588   -3.4601 H   0  0  0  0  0  0  0  0  0  0  0  0
    1.0546   -1.8661    1.4962 H   0  0  0  0  0  0  0  0  0  0  0  0
    0.5552   -2.5137   -0.0777 H   0  0  0  0  0  0  0  0  0  0  0  0
    1.3680   -0.9381    0.0079 H   0  0  0  0  0  0  0  0  0  0  0  0
   -2.3592   -3.0446   -2.8706 H   0  0  0  0  0  0  0  0  0  0  0  0
   -2.5382   -0.6691   -5.2430 H   0  0  0  0  0  0  0  0  0  0  0  0
  2  1  1  0  0  0  0 
  1  3  1  0  0  0  0 
  2  4  1  0  0  0  0 
  2  5  1  0  0  0  0 
  3  6  2  0  0  0  0 
  3  7  1  0  0  0  0 
  4  8  1  0  0  0  0 
  4  9  2  0  0  0  0 
  6 10  1  0  0  0  0 
  7 11  2  0  0  0  0 
  8 12  1  0  0  0  0 
 10 13  1  0  0  0  0 
 10 14  2  0  0  0  0 
 11 14  1  0  0  0  0 
 14 15  1  0  0  0  0 
  1 16  1  0  0  0  0 
  1 17  1  0  0  0  0 
  2 18  1  0  0  0  0 
  5 19  1  0  0  0  0 
  5 20  1  0  0  0  0 
  6 21  1  0  0  0  0 
  7 22  1  0  0  0  0 
 11 23  1  0  0  0  0 
 12 24  1  0  0  0  0 
 12 25  1  0  0  0  0 
 12 26  1  0  0  0  0 
 13 27  1  0  0  0  0 
 15 28  1  0  0  0  0 
M  END
> <cdk:Title>
melevodopa

> <Conformer>
1

> <SuperDrugID>
SD001479

$$$$
