taribavirin
  CDK     0628171801

 30 31  0  0  0  0  0  0  0  0999 V2000
    2.5846   -0.7683   -0.6524 O   0  0  0  0  0  0  0  0  0  0  0  0
    3.8372   -1.2413   -0.1525 C   0  0  1  0  0  0  0  0  0  0  0  0
    4.4007   -2.3712   -1.0455 C   0  0  1  0  0  0  0  0  0  0  0  0
    4.9122   -0.1583   -0.2877 C   0  0  2  0  0  0  0  0  0  0  0  0
    5.1973   -1.7459   -2.0667 O   0  0  0  0  0  0  0  0  0  0  0  0
    5.1989   -3.3174   -0.3179 N   0  0  0  0  0  0  0  0  0  0  0  0
    4.4153    1.1574   -0.0432 O   0  0  0  0  0  0  0  0  0  0  0  0
    5.3834   -0.3594   -1.7452 C   0  0  2  0  0  0  0  0  0  0  0  0
    6.4905   -3.3040   -0.2357 N   0  0  0  0  0  0  0  0  0  0  0  0
    4.7507   -4.3792    0.3738 C   0  0  0  0  0  0  0  0  0  0  0  0
    6.8439    0.0748   -2.0040 C   0  0  2  0  0  0  0  0  0  0  0  0
    6.8826   -4.3603    0.4983 C   0  0  0  0  0  0  0  0  0  0  0  0
    5.7931   -5.0413    0.8891 N   0  0  0  0  0  0  0  0  0  0  0  0
    7.7614   -0.6780   -1.2159 O   0  0  0  0  0  0  0  0  0  0  0  0
    8.1878   -4.6969    0.7885 C   0  0  0  0  0  0  0  0  0  0  0  0
    9.1632   -3.9524    0.4335 N   0  0  0  0  0  0  0  0  0  0  0  0
    8.4799   -5.8108    1.4290 N   0  0  0  0  0  0  0  0  0  0  0  0
    1.9772   -1.5335   -0.5896 H   0  0  0  0  0  0  0  0  0  0  0  0
    3.7115   -1.5500    0.8884 H   0  0  0  0  0  0  0  0  0  0  0  0
    3.5874   -2.9093   -1.5405 H   0  0  0  0  0  0  0  0  0  0  0  0
    5.7238   -0.3648    0.4168 H   0  0  0  0  0  0  0  0  0  0  0  0
    5.1836    1.7495   -0.1821 H   0  0  0  0  0  0  0  0  0  0  0  0
    4.7343    0.2127   -2.4158 H   0  0  0  0  0  0  0  0  0  0  0  0
    3.7742   -4.6579    0.4854 H   0  0  0  0  0  0  0  0  0  0  0  0
    6.9591    1.1349   -1.7670 H   0  0  0  0  0  0  0  0  0  0  0  0
    7.0906   -0.0759   -3.0577 H   0  0  0  0  0  0  0  0  0  0  0  0
    8.6418   -0.2955   -1.4149 H   0  0  0  0  0  0  0  0  0  0  0  0
    9.0148   -3.1555   -0.0330 H   0  0  0  0  0  0  0  0  0  0  0  0
    9.4024   -6.0208    1.6481 H   0  0  0  0  0  0  0  0  0  0  0  0
    7.7767   -6.4282    1.6764 H   0  0  0  0  0  0  0  0  0  0  0  0
  2  1  1  0  0  0  0 
  2  3  1  0  0  0  0 
  4  2  1  0  0  0  0 
  3  5  1  0  0  0  0 
  3  6  1  0  0  0  0 
  4  7  1  0  0  0  0 
  8  4  1  0  0  0  0 
  8  5  1  0  0  0  0 
  6  9  1  0  0  0  0 
  6 10  1  0  0  0  0 
  8 11  1  0  0  0  0 
  9 12  2  0  0  0  0 
 10 13  2  0  0  0  0 
 11 14  1  0  0  0  0 
 12 13  1  0  0  0  0 
 12 15  1  0  0  0  0 
 15 16  2  0  0  0  0 
 15 17  1  0  0  0  0 
  1 18  1  0  0  0  0 
  2 19  1  0  0  0  0 
  3 20  1  0  0  0  0 
  4 21  1  0  0  0  0 
  7 22  1  0  0  0  0 
  8 23  1  0  0  0  0 
 10 24  1  0  0  0  0 
 11 25  1  0  0  0  0 
 11 26  1  0  0  0  0 
 14 27  1  0  0  0  0 
 16 28  1  0  0  0  0 
 17 29  1  0  0  0  0 
 17 30  1  0  0  0  0 
M  END
> <cdk:Title>
taribavirin

> <Conformer>
1

> <SuperDrugID>
SD003077

$$$$
