cyclodrine
  CDK     0628171801

 52 53  0  0  0  0  0  0  0  0999 V2000
   -6.8638   -2.1124   -2.6617 C   0  0  1  0  0  0  0  0  0  0  0  0
   -5.8669   -2.9931   -1.9863 C   0  0  0  0  0  0  0  0  0  0  0  0
   -6.2822   -1.4793   -3.9909 C   0  0  1  0  0  0  0  0  0  0  0  0
   -8.1853   -2.8125   -2.8232 C   0  0  0  0  0  0  0  0  0  0  0  0
   -5.3937   -4.1146   -2.6159 O   0  0  0  0  0  0  0  0  0  0  0  0
   -5.4444   -2.6911   -0.8443 O   0  0  0  0  0  0  0  0  0  0  0  0
   -5.7788   -2.4953   -4.8656 O   0  0  0  0  0  0  0  0  0  0  0  0
   -7.2835   -0.5952   -4.7845 C   0  0  2  0  0  0  0  0  0  0  0  0
   -5.1496   -0.4471   -3.7177 C   0  0  2  0  0  0  0  0  0  0  0  0
   -8.3320   -3.9809   -3.6128 C   0  0  0  0  0  0  0  0  0  0  0  0
   -9.3503   -2.2925   -2.2021 C   0  0  0  0  0  0  0  0  0  0  0  0
   -4.3346   -4.9681   -2.1610 C   0  0  1  0  0  0  0  0  0  0  0  0
   -7.2534    0.7896   -4.1125 C   0  0  2  0  0  0  0  0  0  0  0  0
   -5.8412    0.9187   -3.5031 C   0  0  2  0  0  0  0  0  0  0  0  0
   -9.5832   -4.6024   -3.7772 C   0  0  0  0  0  0  0  0  0  0  0  0
  -10.6058   -2.9020   -2.3731 C   0  0  0  0  0  0  0  0  0  0  0  0
   -4.1209   -6.1590   -3.1303 C   0  0  1  0  0  0  0  0  0  0  0  0
  -10.7221   -4.0617   -3.1568 C   0  0  0  0  0  0  0  0  0  0  0  0
   -5.0412   -7.3048   -2.8234 N   0  0  2  0  0  0  0  0  0  0  0  0
   -4.5617   -8.1942   -1.7106 C   0  0  2  0  0  0  0  0  0  0  0  0
   -5.5487   -8.0455   -4.0267 C   0  0  2  0  0  0  0  0  0  0  0  0
   -5.7336   -8.6319   -0.8074 C   0  0  0  0  0  0  0  0  0  0  0  0
   -6.7232   -7.3082   -4.7035 C   0  0  0  0  0  0  0  0  0  0  0  0
   -7.0254   -1.2681   -1.9822 H   0  0  0  0  0  0  0  0  0  0  0  0
   -6.5662   -2.9889   -5.1718 H   0  0  0  0  0  0  0  0  0  0  0  0
   -8.2939   -1.0054   -4.8123 H   0  0  0  0  0  0  0  0  0  0  0  0
   -6.9412   -0.4887   -5.8194 H   0  0  0  0  0  0  0  0  0  0  0  0
   -4.4916   -0.3759   -4.5896 H   0  0  0  0  0  0  0  0  0  0  0  0
   -4.5300   -0.7126   -2.8580 H   0  0  0  0  0  0  0  0  0  0  0  0
   -7.5277   -4.3913   -4.0827 H   0  0  0  0  0  0  0  0  0  0  0  0
   -9.2988   -1.4518   -1.6222 H   0  0  0  0  0  0  0  0  0  0  0  0
   -3.4178   -4.3723   -2.1238 H   0  0  0  0  0  0  0  0  0  0  0  0
   -4.5566   -5.3245   -1.1530 H   0  0  0  0  0  0  0  0  0  0  0  0
   -8.0156    0.8448   -3.3287 H   0  0  0  0  0  0  0  0  0  0  0  0
   -7.4473    1.5795   -4.8436 H   0  0  0  0  0  0  0  0  0  0  0  0
   -5.2779    1.7162   -3.9958 H   0  0  0  0  0  0  0  0  0  0  0  0
   -5.9094    1.1515   -2.4364 H   0  0  0  0  0  0  0  0  0  0  0  0
   -9.6678   -5.4453   -4.3498 H   0  0  0  0  0  0  0  0  0  0  0  0
  -11.4357   -2.5005   -1.9292 H   0  0  0  0  0  0  0  0  0  0  0  0
   -4.2598   -5.7872   -4.1499 H   0  0  0  0  0  0  0  0  0  0  0  0
   -3.0802   -6.4947   -3.0706 H   0  0  0  0  0  0  0  0  0  0  0  0
  -11.6337   -4.5093   -3.2786 H   0  0  0  0  0  0  0  0  0  0  0  0
   -3.8418   -7.6791   -1.0667 H   0  0  0  0  0  0  0  0  0  0  0  0
   -4.0493   -9.0770   -2.1069 H   0  0  0  0  0  0  0  0  0  0  0  0
   -5.9185   -9.0377   -3.7544 H   0  0  0  0  0  0  0  0  0  0  0  0
   -4.7413   -8.1961   -4.7495 H   0  0  0  0  0  0  0  0  0  0  0  0
   -5.3519   -9.1875    0.0513 H   0  0  0  0  0  0  0  0  0  0  0  0
   -6.4236   -9.2697   -1.3581 H   0  0  0  0  0  0  0  0  0  0  0  0
   -6.2698   -7.7528   -0.4465 H   0  0  0  0  0  0  0  0  0  0  0  0
   -7.0770   -7.8779   -5.5652 H   0  0  0  0  0  0  0  0  0  0  0  0
   -6.4135   -6.3237   -5.0522 H   0  0  0  0  0  0  0  0  0  0  0  0
   -7.5498   -7.1929   -3.9990 H   0  0  0  0  0  0  0  0  0  0  0  0
  1  2  1  0  0  0  0 
  1  3  1  0  0  0  0 
  1  4  1  0  0  0  0 
  2  5  1  0  0  0  0 
  2  6  2  0  0  0  0 
  3  7  1  0  0  0  0 
  3  8  1  0  0  0  0 
  3  9  1  0  0  0  0 
  4 10  2  0  0  0  0 
  4 11  1  0  0  0  0 
  5 12  1  0  0  0  0 
  8 13  1  0  0  0  0 
  9 14  1  0  0  0  0 
 10 15  1  0  0  0  0 
 11 16  2  0  0  0  0 
 12 17  1  0  0  0  0 
 13 14  1  0  0  0  0 
 15 18  2  0  0  0  0 
 16 18  1  0  0  0  0 
 17 19  1  0  0  0  0 
 19 20  1  0  0  0  0 
 19 21  1  0  0  0  0 
 20 22  1  0  0  0  0 
 21 23  1  0  0  0  0 
  1 24  1  0  0  0  0 
  7 25  1  0  0  0  0 
  8 26  1  0  0  0  0 
  8 27  1  0  0  0  0 
  9 28  1  0  0  0  0 
  9 29  1  0  0  0  0 
 10 30  1  0  0  0  0 
 11 31  1  0  0  0  0 
 12 32  1  0  0  0  0 
 12 33  1  0  0  0  0 
 13 34  1  0  0  0  0 
 13 35  1  0  0  0  0 
 14 36  1  0  0  0  0 
 14 37  1  0  0  0  0 
 15 38  1  0  0  0  0 
 16 39  1  0  0  0  0 
 17 40  1  0  0  0  0 
 17 41  1  0  0  0  0 
 18 42  1  0  0  0  0 
 20 43  1  0  0  0  0 
 20 44  1  0  0  0  0 
 21 45  1  0  0  0  0 
 21 46  1  0  0  0  0 
 22 47  1  0  0  0  0 
 22 48  1  0  0  0  0 
 22 49  1  0  0  0  0 
 23 50  1  0  0  0  0 
 23 51  1  0  0  0  0 
 23 52  1  0  0  0  0 
M  END
> <cdk:Title>
cyclodrine

> <Conformer>
1

> <SuperDrugID>
SD002706

$$$$
