tramazoline
  CDK     0628171801

 33 35  0  0  0  0  0  0  0  0999 V2000
    3.1814   -0.0265    0.0367 N   0  0  0  0  0  0  0  0  0  0  0  0
    2.0538    0.6851    0.1261 C   0  0  0  0  0  0  0  0  0  0  0  0
    4.4129    0.3008   -0.1262 C   0  0  0  0  0  0  0  0  0  0  0  0
    0.8223    0.0900   -0.2780 C   0  0  0  0  0  0  0  0  0  0  0  0
    2.0392    1.9949    0.6604 C   0  0  0  0  0  0  0  0  0  0  0  0
    4.9232    1.4930   -0.3296 N   0  0  0  0  0  0  0  0  0  0  0  0
    5.3710   -0.5873   -0.1075 N   0  0  0  0  0  0  0  0  0  0  0  0
   -0.3827    0.8529   -0.2282 C   0  0  0  0  0  0  0  0  0  0  0  0
    0.8032   -1.3238   -0.7673 C   0  0  1  0  0  0  0  0  0  0  0  0
    0.8502    2.7327    0.7353 C   0  0  0  0  0  0  0  0  0  0  0  0
    6.3331    1.4848   -0.4022 C   0  0  2  0  0  0  0  0  0  0  0  0
    6.6553   -0.0171   -0.2549 C   0  0  1  0  0  0  0  0  0  0  0  0
   -0.3515    2.1692    0.2835 C   0  0  0  0  0  0  0  0  0  0  0  0
   -1.6995    0.3131   -0.6807 C   0  0  1  0  0  0  0  0  0  0  0  0
   -0.6028   -1.9675   -0.8599 C   0  0  1  0  0  0  0  0  0  0  0  0
   -1.6055   -0.9911   -1.5097 C   0  0  2  0  0  0  0  0  0  0  0  0
    2.8942    2.4183    1.0242 H   0  0  0  0  0  0  0  0  0  0  0  0
    4.3932    2.2978   -0.4351 H   0  0  0  0  0  0  0  0  0  0  0  0
    5.2152   -1.5376    0.0122 H   0  0  0  0  0  0  0  0  0  0  0  0
    1.2741   -1.3463   -1.7534 H   0  0  0  0  0  0  0  0  0  0  0  0
    1.3937   -1.9540   -0.0977 H   0  0  0  0  0  0  0  0  0  0  0  0
    0.8592    3.6786    1.1233 H   0  0  0  0  0  0  0  0  0  0  0  0
    6.7589    2.0757    0.4125 H   0  0  0  0  0  0  0  0  0  0  0  0
    6.6666    1.8763   -1.3660 H   0  0  0  0  0  0  0  0  0  0  0  0
    7.2583   -0.2164    0.6330 H   0  0  0  0  0  0  0  0  0  0  0  0
    7.1540   -0.4168   -1.1414 H   0  0  0  0  0  0  0  0  0  0  0  0
   -1.2060    2.7306    0.3315 H   0  0  0  0  0  0  0  0  0  0  0  0
   -2.3145    0.1288    0.2044 H   0  0  0  0  0  0  0  0  0  0  0  0
   -2.2159    1.0580   -1.2931 H   0  0  0  0  0  0  0  0  0  0  0  0
   -0.5471   -2.8892   -1.4450 H   0  0  0  0  0  0  0  0  0  0  0  0
   -0.9527   -2.2246    0.1446 H   0  0  0  0  0  0  0  0  0  0  0  0
   -1.2814   -0.7552   -2.5286 H   0  0  0  0  0  0  0  0  0  0  0  0
   -2.5916   -1.4598   -1.5694 H   0  0  0  0  0  0  0  0  0  0  0  0
  1  2  1  0  0  0  0 
  1  3  2  0  0  0  0 
  2  4  2  0  0  0  0 
  2  5  1  0  0  0  0 
  3  6  1  0  0  0  0 
  3  7  1  0  0  0  0 
  4  8  1  0  0  0  0 
  4  9  1  0  0  0  0 
  5 10  2  0  0  0  0 
  6 11  1  0  0  0  0 
  7 12  1  0  0  0  0 
  8 13  2  0  0  0  0 
  8 14  1  0  0  0  0 
  9 15  1  0  0  0  0 
 10 13  1  0  0  0  0 
 11 12  1  0  0  0  0 
 14 16  1  0  0  0  0 
 15 16  1  0  0  0  0 
 17  5  1  0  0  0  0 
 18  6  1  0  0  0  0 
 19  7  1  0  0  0  0 
 20  9  1  0  0  0  0 
 21  9  1  0  0  0  0 
 22 10  1  0  0  0  0 
 23 11  1  0  0  0  0 
 24 11  1  0  0  0  0 
 25 12  1  0  0  0  0 
 26 12  1  0  0  0  0 
 27 13  1  0  0  0  0 
 28 14  1  0  0  0  0 
 29 14  1  0  0  0  0 
 30 15  1  0  0  0  0 
 31 15  1  0  0  0  0 
 32 16  1  0  0  0  0 
 33 16  1  0  0  0  0 
M  END
> <cdk:Title>
tramazoline

> <Conformer>
1

> <SuperDrugID>
SD003101

$$$$
