carbinoxamine
  CDK     0628171802

 39 40  0  0  0  0  0  0  0  0999 V2000
    2.3130    3.4744   -0.1670 C   0  0  2  0  0  0  0  0  0  0  0  0
    3.4109    3.3964    0.7749 O   0  0  0  0  0  0  0  0  0  0  0  0
    1.4740    2.2389   -0.1408 C   0  0  0  0  0  0  0  0  0  0  0  0
    2.8195    3.6897   -1.5486 C   0  0  0  0  0  0  0  0  0  0  0  0
    3.0556    3.5518    2.1668 C   0  0  2  0  0  0  0  0  0  0  0  0
    0.0676    2.3232   -0.0187 C   0  0  0  0  0  0  0  0  0  0  0  0
    2.0653    0.9551   -0.2324 C   0  0  0  0  0  0  0  0  0  0  0  0
    2.0703    4.4276   -2.4968 C   0  0  0  0  0  0  0  0  0  0  0  0
    4.0179    3.1656   -1.9322 N   0  0  0  0  0  0  0  0  0  0  0  0
    4.2976    3.3373    3.0637 C   0  0  1  0  0  0  0  0  0  0  0  0
   -0.7275    1.1628    0.0004 C   0  0  0  0  0  0  0  0  0  0  0  0
    1.2741   -0.2085   -0.1945 C   0  0  0  0  0  0  0  0  0  0  0  0
    2.5826    4.6192   -3.7930 C   0  0  0  0  0  0  0  0  0  0  0  0
    4.5364    3.3290   -3.1782 C   0  0  0  0  0  0  0  0  0  0  0  0
    5.0682    2.0869    2.7585 N   0  0  2  0  0  0  0  0  0  0  0  0
   -0.1266   -0.1074   -0.0882 C   0  0  0  0  0  0  0  0  0  0  0  0
    3.8276    4.0687   -4.1409 C   0  0  0  0  0  0  0  0  0  0  0  0
    4.3514    0.8217    3.1022 C   0  0  0  0  0  0  0  0  0  0  0  0
    6.4447    2.1104    3.3375 C   0  0  0  0  0  0  0  0  0  0  0  0
   -1.0880   -1.5011   -0.0749 Cl  0  0  0  0  0  0  0  0  0  0  0  0
    1.7130    4.3544    0.0944 H   0  0  0  0  0  0  0  0  0  0  0  0
    2.2751    2.8458    2.4575 H   0  0  0  0  0  0  0  0  0  0  0  0
    2.6733    4.5627    2.3388 H   0  0  0  0  0  0  0  0  0  0  0  0
   -0.3934    3.2349    0.0484 H   0  0  0  0  0  0  0  0  0  0  0  0
    3.0807    0.8591   -0.3207 H   0  0  0  0  0  0  0  0  0  0  0  0
    1.1610    4.8280   -2.2515 H   0  0  0  0  0  0  0  0  0  0  0  0
    4.9414    4.2076    2.9050 H   0  0  0  0  0  0  0  0  0  0  0  0
    3.9885    3.3487    4.1145 H   0  0  0  0  0  0  0  0  0  0  0  0
   -1.7442    1.2493    0.0749 H   0  0  0  0  0  0  0  0  0  0  0  0
    1.7237   -1.1271   -0.2449 H   0  0  0  0  0  0  0  0  0  0  0  0
    2.0502    5.1601   -4.4786 H   0  0  0  0  0  0  0  0  0  0  0  0
    5.4412    2.9166   -3.4085 H   0  0  0  0  0  0  0  0  0  0  0  0
    4.2098    4.2047   -5.0801 H   0  0  0  0  0  0  0  0  0  0  0  0
    3.3915    0.7612    2.5922 H   0  0  0  0  0  0  0  0  0  0  0  0
    4.9336   -0.0436    2.7797 H   0  0  0  0  0  0  0  0  0  0  0  0
    4.1843    0.7392    4.1794 H   0  0  0  0  0  0  0  0  0  0  0  0
    6.9879    2.9937    2.9959 H   0  0  0  0  0  0  0  0  0  0  0  0
    7.0136    1.2369    3.0104 H   0  0  0  0  0  0  0  0  0  0  0  0
    6.4134    2.1201    4.4314 H   0  0  0  0  0  0  0  0  0  0  0  0
  1  2  1  0  0  0  0 
  1  3  1  0  0  0  0 
  1  4  1  0  0  0  0 
  2  5  1  0  0  0  0 
  3  6  2  0  0  0  0 
  3  7  1  0  0  0  0 
  4  8  2  0  0  0  0 
  4  9  1  0  0  0  0 
  5 10  1  0  0  0  0 
  6 11  1  0  0  0  0 
  7 12  2  0  0  0  0 
  8 13  1  0  0  0  0 
  9 14  2  0  0  0  0 
 10 15  1  0  0  0  0 
 11 16  2  0  0  0  0 
 12 16  1  0  0  0  0 
 13 17  2  0  0  0  0 
 14 17  1  0  0  0  0 
 15 18  1  0  0  0  0 
 15 19  1  0  0  0  0 
 16 20  1  0  0  0  0 
  1 21  1  0  0  0  0 
  5 22  1  0  0  0  0 
  5 23  1  0  0  0  0 
  6 24  1  0  0  0  0 
  7 25  1  0  0  0  0 
  8 26  1  0  0  0  0 
 10 27  1  0  0  0  0 
 10 28  1  0  0  0  0 
 11 29  1  0  0  0  0 
 12 30  1  0  0  0  0 
 13 31  1  0  0  0  0 
 14 32  1  0  0  0  0 
 17 33  1  0  0  0  0 
 18 34  1  0  0  0  0 
 18 35  1  0  0  0  0 
 18 36  1  0  0  0  0 
 19 37  1  0  0  0  0 
 19 38  1  0  0  0  0 
 19 39  1  0  0  0  0 
M  END
> <cdk:Title>
carbinoxamine

> <Conformer>
1

> <SuperDrugID>
SD000431

$$$$
