avanafil
  CDK     0628171801

 60 63  0  0  0  0  0  0  0  0999 V2000
   -3.6756    3.4569   -9.1641 C   0  0  2  0  0  0  0  0  0  0  0  0
   -4.5511    3.1070   -8.0981 O   0  0  0  0  0  0  0  0  0  0  0  0
   -2.2393    3.7584   -8.6505 C   0  0  1  0  0  0  0  0  0  0  0  0
   -1.5568    2.5964   -8.1457 N   0  0  0  0  0  0  0  0  0  0  0  0
   -1.2971    4.2858   -9.7694 C   0  0  2  0  0  0  0  0  0  0  0  0
   -1.6426    2.1538   -6.8436 C   0  0  0  0  0  0  0  0  0  0  0  0
   -0.6721    2.0363   -9.1217 C   0  0  2  0  0  0  0  0  0  0  0  0
   -0.1357    3.2778   -9.8434 C   0  0  2  0  0  0  0  0  0  0  0  0
   -0.7582    1.2582   -6.3485 N   0  0  0  0  0  0  0  0  0  0  0  0
   -2.5888    2.6114   -5.9886 N   0  0  0  0  0  0  0  0  0  0  0  0
   -0.7490    0.8150   -5.0652 C   0  0  0  0  0  0  0  0  0  0  0  0
   -2.6749    2.2274   -4.6560 C   0  0  0  0  0  0  0  0  0  0  0  0
    0.2020   -0.1008   -4.7178 N   0  0  0  0  0  0  0  0  0  0  0  0
   -1.7181    1.3091   -4.1465 C   0  0  0  0  0  0  0  0  0  0  0  0
    1.4089   -0.3653   -5.4437 C   0  0  2  0  0  0  0  0  0  0  0  0
   -1.7260    0.9619   -2.7596 C   0  0  0  0  0  0  0  0  0  0  0  0
    2.1840   -1.4674   -4.8132 C   0  0  0  0  0  0  0  0  0  0  0  0
   -2.8704    1.0140   -2.0124 N   0  0  0  0  0  0  0  0  0  0  0  0
   -0.6546    0.6429   -2.1902 O   0  0  0  0  0  0  0  0  0  0  0  0
    2.5376   -1.3948   -3.4452 C   0  0  0  0  0  0  0  0  0  0  0  0
    2.5973   -2.5971   -5.5577 C   0  0  0  0  0  0  0  0  0  0  0  0
   -2.9619    0.7695   -0.6080 C   0  0  1  0  0  0  0  0  0  0  0  0
    3.2663   -2.4308   -2.8257 C   0  0  0  0  0  0  0  0  0  0  0  0
    3.3530   -3.6187   -4.9528 C   0  0  0  0  0  0  0  0  0  0  0  0
   -2.8397   -0.6653   -0.2918 C   0  0  0  0  0  0  0  0  0  0  0  0
    3.6368   -2.3072   -1.1759 Cl  0  0  0  0  0  0  0  0  0  0  0  0
    3.6818   -3.5487   -3.5838 C   0  0  0  0  0  0  0  0  0  0  0  0
   -3.8041   -1.5399   -0.6876 N   0  0  0  0  0  0  0  0  0  0  0  0
   -1.7648   -1.1341    0.3976 N   0  0  0  0  0  0  0  0  0  0  0  0
    4.4408   -4.5443   -3.0236 O   0  0  0  0  0  0  0  0  0  0  0  0
   -3.7270   -2.8653   -0.4038 C   0  0  0  0  0  0  0  0  0  0  0  0
   -1.6306   -2.4491    0.7040 C   0  0  0  0  0  0  0  0  0  0  0  0
    3.6702   -5.6746   -2.5795 C   0  0  0  0  0  0  0  0  0  0  0  0
   -2.6269   -3.3624    0.3169 C   0  0  0  0  0  0  0  0  0  0  0  0
   -4.0804    4.3488   -9.6473 H   0  0  0  0  0  0  0  0  0  0  0  0
   -3.6612    2.6430   -9.8937 H   0  0  0  0  0  0  0  0  0  0  0  0
   -5.4391    3.0525   -8.5111 H   0  0  0  0  0  0  0  0  0  0  0  0
   -2.3078    4.5244   -7.8701 H   0  0  0  0  0  0  0  0  0  0  0  0
   -0.9190    5.2830   -9.5276 H   0  0  0  0  0  0  0  0  0  0  0  0
   -1.8001    4.3399  -10.7376 H   0  0  0  0  0  0  0  0  0  0  0  0
   -1.2360    1.4047   -9.8145 H   0  0  0  0  0  0  0  0  0  0  0  0
    0.1530    1.4522   -8.7046 H   0  0  0  0  0  0  0  0  0  0  0  0
    0.7334    3.6681   -9.3083 H   0  0  0  0  0  0  0  0  0  0  0  0
    0.1521    3.0482  -10.8721 H   0  0  0  0  0  0  0  0  0  0  0  0
   -3.4069    2.5989   -3.9686 H   0  0  0  0  0  0  0  0  0  0  0  0
    0.0725   -0.5862   -3.8900 H   0  0  0  0  0  0  0  0  0  0  0  0
    2.0308    0.5341   -5.4435 H   0  0  0  0  0  0  0  0  0  0  0  0
    1.1649   -0.6044   -6.4828 H   0  0  0  0  0  0  0  0  0  0  0  0
   -3.6928    1.2429   -2.4707 H   0  0  0  0  0  0  0  0  0  0  0  0
    2.2578   -0.5794   -2.8926 H   0  0  0  0  0  0  0  0  0  0  0  0
    2.3580   -2.6850   -6.5485 H   0  0  0  0  0  0  0  0  0  0  0  0
   -2.1982    1.3528   -0.0853 H   0  0  0  0  0  0  0  0  0  0  0  0
   -3.9346    1.1226   -0.2579 H   0  0  0  0  0  0  0  0  0  0  0  0
    3.6657   -4.4165   -5.5125 H   0  0  0  0  0  0  0  0  0  0  0  0
   -4.4693   -3.4948   -0.7131 H   0  0  0  0  0  0  0  0  0  0  0  0
   -0.8068   -2.7672    1.2165 H   0  0  0  0  0  0  0  0  0  0  0  0
    4.3589   -6.4128   -2.1683 H   0  0  0  0  0  0  0  0  0  0  0  0
    2.9654   -5.3906   -1.7944 H   0  0  0  0  0  0  0  0  0  0  0  0
    3.1290   -6.1409   -3.4066 H   0  0  0  0  0  0  0  0  0  0  0  0
   -2.5536   -4.3543    0.5518 H   0  0  0  0  0  0  0  0  0  0  0  0
  1  2  1  0  0  0  0 
  3  1  1  0  0  0  0 
  3  4  1  0  0  0  0 
  3  5  1  0  0  0  0 
  4  6  1  0  0  0  0 
  4  7  1  0  0  0  0 
  5  8  1  0  0  0  0 
  6  9  2  0  0  0  0 
  6 10  1  0  0  0  0 
  7  8  1  0  0  0  0 
  9 11  1  0  0  0  0 
 10 12  2  0  0  0  0 
 11 13  1  0  0  0  0 
 11 14  2  0  0  0  0 
 12 14  1  0  0  0  0 
 13 15  1  0  0  0  0 
 14 16  1  0  0  0  0 
 15 17  1  0  0  0  0 
 16 18  1  0  0  0  0 
 16 19  2  0  0  0  0 
 17 20  2  0  0  0  0 
 17 21  1  0  0  0  0 
 18 22  1  0  0  0  0 
 20 23  1  0  0  0  0 
 21 24  2  0  0  0  0 
 22 25  1  0  0  0  0 
 23 26  1  0  0  0  0 
 23 27  2  0  0  0  0 
 24 27  1  0  0  0  0 
 25 28  2  0  0  0  0 
 25 29  1  0  0  0  0 
 27 30  1  0  0  0  0 
 28 31  1  0  0  0  0 
 29 32  2  0  0  0  0 
 30 33  1  0  0  0  0 
 31 34  2  0  0  0  0 
 32 34  1  0  0  0  0 
  1 35  1  0  0  0  0 
  1 36  1  0  0  0  0 
  2 37  1  0  0  0  0 
  3 38  1  0  0  0  0 
  5 39  1  0  0  0  0 
  5 40  1  0  0  0  0 
  7 41  1  0  0  0  0 
  7 42  1  0  0  0  0 
  8 43  1  0  0  0  0 
  8 44  1  0  0  0  0 
 12 45  1  0  0  0  0 
 13 46  1  0  0  0  0 
 15 47  1  0  0  0  0 
 15 48  1  0  0  0  0 
 18 49  1  0  0  0  0 
 20 50  1  0  0  0  0 
 21 51  1  0  0  0  0 
 22 52  1  0  0  0  0 
 22 53  1  0  0  0  0 
 24 54  1  0  0  0  0 
 31 55  1  0  0  0  0 
 32 56  1  0  0  0  0 
 33 57  1  0  0  0  0 
 33 58  1  0  0  0  0 
 33 59  1  0  0  0  0 
 34 60  1  0  0  0  0 
M  END
> <cdk:Title>
avanafil

> <Conformer>
1

> <SuperDrugID>
SD003488

$$$$
