testosterone cypionate
  CDK     0628171801

 70 74  0  0  0  0  0  0  0  0999 V2000
   -3.2323    1.1473   -0.3784 C   0  0  0  0  0  0  0  0  0  0  0  0
   -2.2269    0.1720   -1.0867 C   0  0  1  0  0  0  0  0  0  0  0  0
   -2.5694   -0.0129   -2.6390 C   0  0  2  0  0  0  0  0  0  0  0  0
   -0.8570    0.7541   -0.9005 C   0  0  0  0  0  0  0  0  0  0  0  0
   -2.3050   -1.2422   -0.3800 C   0  0  1  0  0  0  0  0  0  0  0  0
   -2.1814    1.2375   -3.5152 C   0  0  2  0  0  0  0  0  0  0  0  0
   -4.0260   -0.5050   -2.9814 C   0  0  1  0  0  0  0  0  0  0  0  0
   -0.4218    1.8550   -1.7711 C   0  0  2  0  0  0  0  0  0  0  0  0
   -0.0292    0.3672    0.1011 C   0  0  0  0  0  0  0  0  0  0  0  0
   -1.6612   -1.2837    1.0306 C   0  0  1  0  0  0  0  0  0  0  0  0
   -2.4553    0.9241   -5.0225 C   0  0  1  0  0  0  0  0  0  0  0  0
   -0.6876    1.5915   -3.2676 C   0  0  2  0  0  0  0  0  0  0  0  0
   -4.3183   -0.6762   -4.5105 C   0  0  1  0  0  0  0  0  0  0  0  0
   -0.3669   -0.5753    1.0558 C   0  0  0  0  0  0  0  0  0  0  0  0
   -3.9497    0.5982   -5.3545 C   0  0  1  0  0  0  0  0  0  0  0  0
   -2.0305    1.9457   -6.0949 C   0  0  1  0  0  0  0  0  0  0  0  0
    0.4216   -0.8023    2.0050 O   0  0  0  0  0  0  0  0  0  0  0  0
   -4.9767    1.7523   -5.0608 C   0  0  0  0  0  0  0  0  0  0  0  0
   -3.8315    0.4015   -6.9104 C   0  0  2  0  0  0  0  0  0  0  0  0
   -2.7517    1.4354   -7.3633 C   0  0  2  0  0  0  0  0  0  0  0  0
   -5.0189    0.6246   -7.7054 O   0  0  0  0  0  0  0  0  0  0  0  0
   -5.3920   -0.0427   -8.8479 C   0  0  0  0  0  0  0  0  0  0  0  0
   -6.5532    0.4337   -9.6344 C   0  0  2  0  0  0  0  0  0  0  0  0
   -4.7606   -1.0487   -9.2537 O   0  0  0  0  0  0  0  0  0  0  0  0
   -6.1537    0.8315  -11.0913 C   0  0  2  0  0  0  0  0  0  0  0  0
   -7.1079    1.8281  -11.8287 C   0  0  1  0  0  0  0  0  0  0  0  0
   -7.1093    3.2846  -11.2492 C   0  0  2  0  0  0  0  0  0  0  0  0
   -6.7397    1.9607  -13.3363 C   0  0  1  0  0  0  0  0  0  0  0  0
   -7.6977    4.2359  -12.4155 C   0  0  2  0  0  0  0  0  0  0  0  0
   -7.4573    3.3063  -13.7414 C   0  0  2  0  0  0  0  0  0  0  0  0
   -4.2363    0.7235   -0.3372 H   0  0  0  0  0  0  0  0  0  0  0  0
   -3.2955    2.1078   -0.8918 H   0  0  0  0  0  0  0  0  0  0  0  0
   -2.9238    1.3470    0.6503 H   0  0  0  0  0  0  0  0  0  0  0  0
   -1.9175   -0.8224   -2.9912 H   0  0  0  0  0  0  0  0  0  0  0  0
   -3.3379   -1.5900   -0.2924 H   0  0  0  0  0  0  0  0  0  0  0  0
   -1.7707   -1.9792   -0.9878 H   0  0  0  0  0  0  0  0  0  0  0  0
   -2.7766    2.1040   -3.2182 H   0  0  0  0  0  0  0  0  0  0  0  0
   -4.1979   -1.4741   -2.5103 H   0  0  0  0  0  0  0  0  0  0  0  0
   -4.7587    0.1864   -2.5677 H   0  0  0  0  0  0  0  0  0  0  0  0
    0.6454    2.0753   -1.6724 H   0  0  0  0  0  0  0  0  0  0  0  0
   -0.9571    2.7587   -1.4687 H   0  0  0  0  0  0  0  0  0  0  0  0
    0.8664    0.7950    0.1925 H   0  0  0  0  0  0  0  0  0  0  0  0
   -2.3261   -0.8286    1.7691 H   0  0  0  0  0  0  0  0  0  0  0  0
   -1.5050   -2.3271    1.3176 H   0  0  0  0  0  0  0  0  0  0  0  0
   -1.8526    0.0295   -5.2404 H   0  0  0  0  0  0  0  0  0  0  0  0
   -0.4172    2.4938   -3.8240 H   0  0  0  0  0  0  0  0  0  0  0  0
   -0.0418    0.7771   -3.6136 H   0  0  0  0  0  0  0  0  0  0  0  0
   -3.7491   -1.5388   -4.8711 H   0  0  0  0  0  0  0  0  0  0  0  0
   -5.3753   -0.9261   -4.6428 H   0  0  0  0  0  0  0  0  0  0  0  0
   -2.3573    2.9581   -5.8325 H   0  0  0  0  0  0  0  0  0  0  0  0
   -0.9467    1.9532   -6.2422 H   0  0  0  0  0  0  0  0  0  0  0  0
   -4.9440    2.0793   -4.0242 H   0  0  0  0  0  0  0  0  0  0  0  0
   -4.7934    2.6285   -5.6854 H   0  0  0  0  0  0  0  0  0  0  0  0
   -5.9938    1.4073   -5.2622 H   0  0  0  0  0  0  0  0  0  0  0  0
   -3.4500   -0.6060   -7.1069 H   0  0  0  0  0  0  0  0  0  0  0  0
   -2.0343    0.9607   -8.0421 H   0  0  0  0  0  0  0  0  0  0  0  0
   -3.1983    2.2899   -7.8824 H   0  0  0  0  0  0  0  0  0  0  0  0
   -6.9976    1.2854   -9.1197 H   0  0  0  0  0  0  0  0  0  0  0  0
   -7.3056   -0.3578   -9.6679 H   0  0  0  0  0  0  0  0  0  0  0  0
   -6.1040   -0.0891  -11.6805 H   0  0  0  0  0  0  0  0  0  0  0  0
   -5.1489    1.2653  -11.0963 H   0  0  0  0  0  0  0  0  0  0  0  0
   -8.1290    1.4359  -11.7682 H   0  0  0  0  0  0  0  0  0  0  0  0
   -6.0547    3.5168  -10.9366 H   0  0  0  0  0  0  0  0  0  0  0  0
   -7.6881    3.2777  -10.2874 H   0  0  0  0  0  0  0  0  0  0  0  0
   -5.6591    2.0774  -13.4614 H   0  0  0  0  0  0  0  0  0  0  0  0
   -7.0857    1.1118  -13.9319 H   0  0  0  0  0  0  0  0  0  0  0  0
   -7.1376    5.1703  -12.4799 H   0  0  0  0  0  0  0  0  0  0  0  0
   -8.7603    4.4329  -12.2603 H   0  0  0  0  0  0  0  0  0  0  0  0
   -8.3982    3.0026  -14.2739 H   0  0  0  0  0  0  0  0  0  0  0  0
   -6.8362    3.7709  -14.5514 H   0  0  0  0  0  0  0  0  0  0  0  0
  2  1  1  0  0  0  0 
  3  2  1  0  0  0  0 
  2  4  1  0  0  0  0 
  2  5  1  0  0  0  0 
  3  6  1  0  0  0  0 
  3  7  1  0  0  0  0 
  4  8  1  0  0  0  0 
  4  9  2  0  0  0  0 
  5 10  1  0  0  0  0 
  6 11  1  0  0  0  0 
  6 12  1  0  0  0  0 
  7 13  1  0  0  0  0 
  8 12  1  0  0  0  0 
  9 14  1  0  0  0  0 
 10 14  1  0  0  0  0 
 11 15  1  0  0  0  0 
 11 16  1  0  0  0  0 
 15 13  1  0  0  0  0 
 14 17  2  0  0  0  0 
 15 18  1  0  0  0  0 
 15 19  1  0  0  0  0 
 16 20  1  0  0  0  0 
 19 20  1  0  0  0  0 
 19 21  1  0  0  0  0 
 21 22  1  0  0  0  0 
 22 23  1  0  0  0  0 
 22 24  2  0  0  0  0 
 23 25  1  0  0  0  0 
 25 26  1  0  0  0  0 
 26 27  1  0  0  0  0 
 26 28  1  0  0  0  0 
 27 29  1  0  0  0  0 
 28 30  1  0  0  0  0 
 29 30  1  0  0  0  0 
 31  1  1  0  0  0  0 
 32  1  1  0  0  0  0 
 33  1  1  0  0  0  0 
  3 34  1  0  0  0  0 
 35  5  1  0  0  0  0 
 36  5  1  0  0  0  0 
  6 37  1  0  0  0  0 
 38  7  1  0  0  0  0 
 39  7  1  0  0  0  0 
 40  8  1  0  0  0  0 
 41  8  1  0  0  0  0 
 42  9  1  0  0  0  0 
 43 10  1  0  0  0  0 
 44 10  1  0  0  0  0 
 11 45  1  0  0  0  0 
 46 12  1  0  0  0  0 
 47 12  1  0  0  0  0 
 48 13  1  0  0  0  0 
 49 13  1  0  0  0  0 
 50 16  1  0  0  0  0 
 51 16  1  0  0  0  0 
 52 18  1  0  0  0  0 
 53 18  1  0  0  0  0 
 54 18  1  0  0  0  0 
 19 55  1  0  0  0  0 
 56 20  1  0  0  0  0 
 57 20  1  0  0  0  0 
 58 23  1  0  0  0  0 
 59 23  1  0  0  0  0 
 60 25  1  0  0  0  0 
 61 25  1  0  0  0  0 
 62 26  1  0  0  0  0 
 63 27  1  0  0  0  0 
 64 27  1  0  0  0  0 
 65 28  1  0  0  0  0 
 66 28  1  0  0  0  0 
 67 29  1  0  0  0  0 
 68 29  1  0  0  0  0 
 69 30  1  0  0  0  0 
 70 30  1  0  0  0  0 
M  END
> <cdk:Title>
testosterone cypionate

> <Conformer>
1

> <SuperDrugID>
SD003573

$$$$
