melitracen
  CDK     0628171801

 47 49  0  0  0  0  0  0  0  0999 V2000
   -1.2042   -0.9389   -1.5082 C   0  0  0  0  0  0  0  0  0  0  0  0
   -0.9958   -0.8721   -0.0626 C   0  0  2  0  0  0  0  0  0  0  0  0
   -1.6518    0.0090   -2.3786 C   0  0  0  0  0  0  0  0  0  0  0  0
    0.1473    0.0628    0.4287 C   0  0  2  0  0  0  0  0  0  0  0  0
   -1.6590   -0.2844   -3.7582 C   0  0  0  0  0  0  0  0  0  0  0  0
   -1.9745    1.3272   -2.0179 C   0  0  0  0  0  0  0  0  0  0  0  0
    1.5586   -0.3637    0.1546 N   0  0  1  0  0  0  0  0  0  0  0  0
   -1.1879    0.6980   -4.6786 C   0  0  0  0  0  0  0  0  0  0  0  0
   -2.0733   -1.5519   -4.2516 C   0  0  0  0  0  0  0  0  0  0  0  0
   -1.4950    2.3973   -2.8316 C   0  0  0  0  0  0  0  0  0  0  0  0
   -2.7348    1.6392   -0.8624 C   0  0  0  0  0  0  0  0  0  0  0  0
    1.9437   -1.7270    0.6252 C   0  0  0  0  0  0  0  0  0  0  0  0
    2.1017    0.0024   -1.1812 C   0  0  0  0  0  0  0  0  0  0  0  0
   -0.9608    2.1346   -4.2334 C   0  0  2  0  0  0  0  0  0  0  0  0
   -0.9453    0.2889   -6.0204 C   0  0  0  0  0  0  0  0  0  0  0  0
   -1.8864   -1.9049   -5.5970 C   0  0  0  0  0  0  0  0  0  0  0  0
   -1.5579    3.7160   -2.3003 C   0  0  0  0  0  0  0  0  0  0  0  0
   -2.8276    2.9528   -0.3812 C   0  0  0  0  0  0  0  0  0  0  0  0
   -1.7348    3.0782   -5.2316 C   0  0  0  0  0  0  0  0  0  0  0  0
    0.5707    2.4359   -4.2562 C   0  0  0  0  0  0  0  0  0  0  0  0
   -1.2844   -0.9952   -6.4739 C   0  0  0  0  0  0  0  0  0  0  0  0
   -2.2062    3.9908   -1.0855 C   0  0  0  0  0  0  0  0  0  0  0  0
   -0.9344   -1.8185   -1.8886 H   0  0  0  0  0  0  0  0  0  0  0  0
   -0.7790   -1.8756    0.3072 H   0  0  0  0  0  0  0  0  0  0  0  0
   -1.9213   -0.6132    0.4419 H   0  0  0  0  0  0  0  0  0  0  0  0
    0.0495    0.1397    1.5134 H   0  0  0  0  0  0  0  0  0  0  0  0
   -0.0138    1.0753    0.0518 H   0  0  0  0  0  0  0  0  0  0  0  0
   -2.5010   -2.2423   -3.6291 H   0  0  0  0  0  0  0  0  0  0  0  0
   -3.2344    0.9161   -0.3497 H   0  0  0  0  0  0  0  0  0  0  0  0
    3.0298   -1.8205    0.6747 H   0  0  0  0  0  0  0  0  0  0  0  0
    1.5538   -1.9159    1.6273 H   0  0  0  0  0  0  0  0  0  0  0  0
    1.5644   -2.4980   -0.0483 H   0  0  0  0  0  0  0  0  0  0  0  0
    1.9008    1.0538   -1.3997 H   0  0  0  0  0  0  0  0  0  0  0  0
    3.1864   -0.1265   -1.1942 H   0  0  0  0  0  0  0  0  0  0  0  0
    1.6627   -0.6157   -1.9684 H   0  0  0  0  0  0  0  0  0  0  0  0
   -0.5200    0.9269   -6.6952 H   0  0  0  0  0  0  0  0  0  0  0  0
   -2.1776   -2.8260   -5.9340 H   0  0  0  0  0  0  0  0  0  0  0  0
   -1.1438    4.5039   -2.7993 H   0  0  0  0  0  0  0  0  0  0  0  0
   -3.3397    3.1497    0.4826 H   0  0  0  0  0  0  0  0  0  0  0  0
   -2.8061    2.8592   -5.2111 H   0  0  0  0  0  0  0  0  0  0  0  0
   -1.3893    2.9697   -6.2599 H   0  0  0  0  0  0  0  0  0  0  0  0
   -1.6013    4.1323   -4.9919 H   0  0  0  0  0  0  0  0  0  0  0  0
    0.7782    3.4653   -3.9587 H   0  0  0  0  0  0  0  0  0  0  0  0
    1.0969    1.7716   -3.5693 H   0  0  0  0  0  0  0  0  0  0  0  0
    0.9930    2.2904   -5.2524 H   0  0  0  0  0  0  0  0  0  0  0  0
   -1.1048   -1.2623   -7.4444 H   0  0  0  0  0  0  0  0  0  0  0  0
   -2.2410    4.9472   -0.7254 H   0  0  0  0  0  0  0  0  0  0  0  0
  1  2  1  0  0  0  0 
  1  3  2  0  0  0  0 
  2  4  1  0  0  0  0 
  3  5  1  0  0  0  0 
  3  6  1  0  0  0  0 
  4  7  1  0  0  0  0 
  5  8  2  0  0  0  0 
  5  9  1  0  0  0  0 
  6 10  2  0  0  0  0 
  6 11  1  0  0  0  0 
  7 12  1  0  0  0  0 
  7 13  1  0  0  0  0 
  8 14  1  0  0  0  0 
  8 15  1  0  0  0  0 
  9 16  2  0  0  0  0 
 10 14  1  0  0  0  0 
 10 17  1  0  0  0  0 
 11 18  2  0  0  0  0 
 14 19  1  0  0  0  0 
 14 20  1  0  0  0  0 
 15 21  2  0  0  0  0 
 16 21  1  0  0  0  0 
 17 22  2  0  0  0  0 
 18 22  1  0  0  0  0 
  1 23  1  0  0  0  0 
  2 24  1  0  0  0  0 
  2 25  1  0  0  0  0 
  4 26  1  0  0  0  0 
  4 27  1  0  0  0  0 
  9 28  1  0  0  0  0 
 11 29  1  0  0  0  0 
 12 30  1  0  0  0  0 
 12 31  1  0  0  0  0 
 12 32  1  0  0  0  0 
 13 33  1  0  0  0  0 
 13 34  1  0  0  0  0 
 13 35  1  0  0  0  0 
 15 36  1  0  0  0  0 
 16 37  1  0  0  0  0 
 17 38  1  0  0  0  0 
 18 39  1  0  0  0  0 
 19 40  1  0  0  0  0 
 19 41  1  0  0  0  0 
 19 42  1  0  0  0  0 
 20 43  1  0  0  0  0 
 20 44  1  0  0  0  0 
 20 45  1  0  0  0  0 
 21 46  1  0  0  0  0 
 22 47  1  0  0  0  0 
M  END
> <cdk:Title>
melitracen

> <Conformer>
1

> <SuperDrugID>
SD001481

$$$$
