zucapsaicin
  CDK     0628171801

 49 49  0  0  0  0  0  0  0  0999 V2000
    0.5278    1.2049   -1.7475 C   0  0  0  0  0  0  0  0  0  0  0  0
    0.7895    0.2020   -0.7853 C   0  0  0  0  0  0  0  0  0  0  0  0
    1.6811   -0.8444   -1.1205 C   0  0  0  0  0  0  0  0  0  0  0  0
    2.2961   -0.8850   -2.3839 C   0  0  0  0  0  0  0  0  0  0  0  0
    2.0210    0.1142   -3.3371 C   0  0  0  0  0  0  0  0  0  0  0  0
    1.1426    1.1712   -3.0169 C   0  0  0  0  0  0  0  0  0  0  0  0
    2.6050    0.0359   -4.5586 O   0  0  0  0  0  0  0  0  0  0  0  0
    0.8558    2.1375   -3.9458 O   0  0  0  0  0  0  0  0  0  0  0  0
    1.6125    3.3473   -3.7613 C   0  0  0  0  0  0  0  0  0  0  0  0
    0.1191    0.2175    0.5369 C   0  0  2  0  0  0  0  0  0  0  0  0
   -0.8839   -0.7936    0.5359 N   0  0  0  0  0  0  0  0  0  0  0  0
   -1.7303   -1.0684    1.5606 C   0  0  0  0  0  0  0  0  0  0  0  0
   -2.7759   -2.0935    1.3602 C   0  0  1  0  0  0  0  0  0  0  0  0
   -1.6484   -0.4648    2.6564 O   0  0  0  0  0  0  0  0  0  0  0  0
   -3.7926   -1.6874    0.2585 C   0  0  2  0  0  0  0  0  0  0  0  0
   -4.8641   -2.7795   -0.0030 C   0  0  1  0  0  0  0  0  0  0  0  0
   -5.7897   -2.4286   -1.1998 C   0  0  1  0  0  0  0  0  0  0  0  0
   -6.8097   -3.4437   -1.4260 C   0  0  0  0  0  0  0  0  0  0  0  0
   -6.6875   -4.5578   -2.1730 C   0  0  0  0  0  0  0  0  0  0  0  0
   -5.4984   -5.0058   -2.9057 C   0  0  1  0  0  0  0  0  0  0  0  0
   -5.2343   -6.5229   -2.6956 C   0  0  0  0  0  0  0  0  0  0  0  0
   -5.6391   -4.6724   -4.4143 C   0  0  0  0  0  0  0  0  0  0  0  0
   -0.1230    1.9638   -1.5330 H   0  0  0  0  0  0  0  0  0  0  0  0
    1.8834   -1.5865   -0.4453 H   0  0  0  0  0  0  0  0  0  0  0  0
    2.9361   -1.6499   -2.6113 H   0  0  0  0  0  0  0  0  0  0  0  0
    1.9362    0.3902   -5.1837 H   0  0  0  0  0  0  0  0  0  0  0  0
    1.3437    4.0399   -4.5594 H   0  0  0  0  0  0  0  0  0  0  0  0
    1.3769    3.8246   -2.8066 H   0  0  0  0  0  0  0  0  0  0  0  0
    2.6876    3.1596   -3.8208 H   0  0  0  0  0  0  0  0  0  0  0  0
   -0.3536    1.1859    0.7278 H   0  0  0  0  0  0  0  0  0  0  0  0
    0.8499    0.0370    1.3307 H   0  0  0  0  0  0  0  0  0  0  0  0
   -0.9830   -1.3204   -0.2731 H   0  0  0  0  0  0  0  0  0  0  0  0
   -2.2889   -3.0308    1.0839 H   0  0  0  0  0  0  0  0  0  0  0  0
   -3.3170   -2.2620    2.2946 H   0  0  0  0  0  0  0  0  0  0  0  0
   -3.2558   -1.4932   -0.6747 H   0  0  0  0  0  0  0  0  0  0  0  0
   -4.2932   -0.7625    0.5573 H   0  0  0  0  0  0  0  0  0  0  0  0
   -4.3591   -3.7278   -0.2035 H   0  0  0  0  0  0  0  0  0  0  0  0
   -5.4674   -2.9038    0.9009 H   0  0  0  0  0  0  0  0  0  0  0  0
   -6.2847   -1.4738   -0.9933 H   0  0  0  0  0  0  0  0  0  0  0  0
   -5.1939   -2.2750   -2.1022 H   0  0  0  0  0  0  0  0  0  0  0  0
   -7.6876   -3.2904   -0.9782 H   0  0  0  0  0  0  0  0  0  0  0  0
   -7.4966   -5.1358   -2.2371 H   0  0  0  0  0  0  0  0  0  0  0  0
   -4.6036   -4.4933   -2.5433 H   0  0  0  0  0  0  0  0  0  0  0  0
   -4.3001   -6.8083   -3.1862 H   0  0  0  0  0  0  0  0  0  0  0  0
   -6.0456   -7.1209   -3.1206 H   0  0  0  0  0  0  0  0  0  0  0  0
   -5.1434   -6.7557   -1.6307 H   0  0  0  0  0  0  0  0  0  0  0  0
   -4.7334   -4.9668   -4.9474 H   0  0  0  0  0  0  0  0  0  0  0  0
   -5.7794   -3.5995   -4.5596 H   0  0  0  0  0  0  0  0  0  0  0  0
   -6.4903   -5.2005   -4.8511 H   0  0  0  0  0  0  0  0  0  0  0  0
  1  2  2  0  0  0  0 
  1  6  1  0  0  0  0 
  2  3  1  0  0  0  0 
  3  4  2  0  0  0  0 
  4  5  1  0  0  0  0 
  5  6  2  0  0  0  0 
  5  7  1  0  0  0  0 
  6  8  1  0  0  0  0 
  8  9  1  0  0  0  0 
  2 10  1  0  0  0  0 
 10 11  1  0  0  0  0 
 11 12  1  0  0  0  0 
 12 13  1  0  0  0  0 
 12 14  2  0  0  0  0 
 13 15  1  0  0  0  0 
 15 16  1  0  0  0  0 
 16 17  1  0  0  0  0 
 17 18  1  0  0  0  0 
 18 19  2  0  0  0  0 
 19 20  1  0  0  0  0 
 20 21  1  0  0  0  0 
 20 22  1  0  0  0  0 
  1 23  1  0  0  0  0 
  3 24  1  0  0  0  0 
  4 25  1  0  0  0  0 
  7 26  1  0  0  0  0 
  9 27  1  0  0  0  0 
  9 28  1  0  0  0  0 
  9 29  1  0  0  0  0 
 10 30  1  0  0  0  0 
 10 31  1  0  0  0  0 
 11 32  1  0  0  0  0 
 13 33  1  0  0  0  0 
 13 34  1  0  0  0  0 
 15 35  1  0  0  0  0 
 15 36  1  0  0  0  0 
 16 37  1  0  0  0  0 
 16 38  1  0  0  0  0 
 17 39  1  0  0  0  0 
 17 40  1  0  0  0  0 
 18 41  1  0  0  0  0 
 19 42  1  0  0  0  0 
 20 43  1  0  0  0  0 
 21 44  1  0  0  0  0 
 21 45  1  0  0  0  0 
 21 46  1  0  0  0  0 
 22 47  1  0  0  0  0 
 22 48  1  0  0  0  0 
 22 49  1  0  0  0  0 
M  END
> <cdk:Title>
zucapsaicin

> <Conformer>
1

> <SuperDrugID>
SD003511

$$$$
