betahistine
  CDK     0628171801

 22 22  0  0  0  0  0  0  0  0999 V2000
   -3.8334    0.9292    3.3314 C   0  0  0  0  0  0  0  0  0  0  0  0
   -3.0332    0.1405    2.3732 N   0  0  1  0  0  0  0  0  0  0  0  0
   -2.8721   -1.2883    2.7195 C   0  0  2  0  0  0  0  0  0  0  0  0
   -1.8155   -1.9273    1.7825 C   0  0  1  0  0  0  0  0  0  0  0  0
   -1.6691   -3.3942    1.9565 C   0  0  0  0  0  0  0  0  0  0  0  0
   -1.2299   -3.9668    3.1729 C   0  0  0  0  0  0  0  0  0  0  0  0
   -1.1075   -5.3649    3.2759 C   0  0  0  0  0  0  0  0  0  0  0  0
   -1.4053   -6.1822    2.1699 C   0  0  0  0  0  0  0  0  0  0  0  0
   -1.8278   -5.5760    0.9746 C   0  0  0  0  0  0  0  0  0  0  0  0
   -1.9474   -4.2246    0.9109 N   0  0  0  0  0  0  0  0  0  0  0  0
   -3.2797    1.0652    4.2619 H   0  0  0  0  0  0  0  0  0  0  0  0
   -4.0258    1.9106    2.8953 H   0  0  0  0  0  0  0  0  0  0  0  0
   -4.7905    0.4484    3.5419 H   0  0  0  0  0  0  0  0  0  0  0  0
   -3.5250    0.1707    1.4774 H   0  0  0  0  0  0  0  0  0  0  0  0
   -3.8332   -1.7964    2.5969 H   0  0  0  0  0  0  0  0  0  0  0  0
   -2.5441   -1.3922    3.7589 H   0  0  0  0  0  0  0  0  0  0  0  0
   -2.0946   -1.7116    0.7466 H   0  0  0  0  0  0  0  0  0  0  0  0
   -0.8485   -1.4490    1.9622 H   0  0  0  0  0  0  0  0  0  0  0  0
   -0.9986   -3.3787    3.9749 H   0  0  0  0  0  0  0  0  0  0  0  0
   -0.7987   -5.7873    4.1540 H   0  0  0  0  0  0  0  0  0  0  0  0
   -1.3093   -7.1981    2.2322 H   0  0  0  0  0  0  0  0  0  0  0  0
   -2.0412   -6.1453    0.1547 H   0  0  0  0  0  0  0  0  0  0  0  0
  1  2  1  0  0  0  0 
  2  3  1  0  0  0  0 
  3  4  1  0  0  0  0 
  4  5  1  0  0  0  0 
  5  6  2  0  0  0  0 
  6  7  1  0  0  0  0 
  7  8  2  0  0  0  0 
  8  9  1  0  0  0  0 
  9 10  2  0  0  0  0 
  5 10  1  0  0  0  0 
  1 11  1  0  0  0  0 
  1 12  1  0  0  0  0 
  1 13  1  0  0  0  0 
  2 14  1  0  0  0  0 
  3 15  1  0  0  0  0 
  3 16  1  0  0  0  0 
  4 17  1  0  0  0  0 
  4 18  1  0  0  0  0 
  6 19  1  0  0  0  0 
  7 20  1  0  0  0  0 
  8 21  1  0  0  0  0 
  9 22  1  0  0  0  0 
M  END
> <cdk:Title>
betahistine

> <Conformer>
1

> <SuperDrugID>
SD000291

$$$$
