oxymorphone
  CDK     0628171801

 41 45  0  0  0  0  0  0  0  0999 V2000
    0.0605    1.1334    4.1657 C   0  0  0  0  0  0  0  0  0  0  0  0
    0.5203    1.7102    5.3722 C   0  0  0  0  0  0  0  0  0  0  0  0
    0.2167    1.1064    6.6151 C   0  0  0  0  0  0  0  0  0  0  0  0
   -0.5817   -0.0583    6.6782 C   0  0  0  0  0  0  0  0  0  0  0  0
   -1.0341   -0.6293    5.4753 C   0  0  0  0  0  0  0  0  0  0  0  0
   -0.6567   -0.0734    4.2621 C   0  0  0  0  0  0  0  0  0  0  0  0
   -1.8580   -1.6988    5.2994 O   0  0  0  0  0  0  0  0  0  0  0  0
   -1.1532   -0.8760    3.1449 C   0  0  2  0  0  0  0  0  0  0  0  0
   -1.5389    0.0580    1.9408 C   0  0  1  0  0  0  0  0  0  0  0  0
   -2.3246   -1.5665    3.9270 C   0  0  2  0  0  0  0  0  0  0  0  0
   -3.6089   -0.8016    3.8838 C   0  0  0  0  0  0  0  0  0  0  0  0
   -3.9877   -0.0104    2.6913 C   0  0  1  0  0  0  0  0  0  0  0  0
   -2.8182    0.9041    2.2414 C   0  0  1  0  0  0  0  0  0  0  0  0
    0.2391    1.7701    2.8313 C   0  0  1  0  0  0  0  0  0  0  0  0
   -0.2520    0.9017    1.6103 C   0  0  1  0  0  0  0  0  0  0  0  0
   -4.3656   -0.7981    4.8839 O   0  0  0  0  0  0  0  0  0  0  0  0
   -0.0267   -1.8729    2.6924 C   0  0  1  0  0  0  0  0  0  0  0  0
    0.7955   -0.0579    1.1024 N   0  0  2  0  0  0  0  0  0  0  0  0
    1.1933   -1.1524    2.0459 C   0  0  1  0  0  0  0  0  0  0  0  0
    1.9367    0.5509    0.3611 C   0  0  0  0  0  0  0  0  0  0  0  0
   -1.8558   -0.7350    0.7862 O   0  0  0  0  0  0  0  0  0  0  0  0
   -2.5283   -2.5604    3.5207 H   0  0  0  0  0  0  0  0  0  0  0  0
   -0.9002   -0.6000    7.8782 O   0  0  0  0  0  0  0  0  0  0  0  0
    1.0708    2.5727    5.3508 H   0  0  0  0  0  0  0  0  0  0  0  0
    0.5705    1.5257    7.4763 H   0  0  0  0  0  0  0  0  0  0  0  0
   -4.2497   -0.6977    1.8842 H   0  0  0  0  0  0  0  0  0  0  0  0
   -4.8668    0.6051    2.8992 H   0  0  0  0  0  0  0  0  0  0  0  0
   -2.6280    1.6434    3.0238 H   0  0  0  0  0  0  0  0  0  0  0  0
   -3.1126    1.4529    1.3432 H   0  0  0  0  0  0  0  0  0  0  0  0
   -0.3301    2.7025    2.8372 H   0  0  0  0  0  0  0  0  0  0  0  0
    1.2878    2.0423    2.7062 H   0  0  0  0  0  0  0  0  0  0  0  0
   -0.5135    1.5841    0.7930 H   0  0  0  0  0  0  0  0  0  0  0  0
    0.3287   -2.4740    3.5353 H   0  0  0  0  0  0  0  0  0  0  0  0
   -0.4431   -2.5735    1.9644 H   0  0  0  0  0  0  0  0  0  0  0  0
    1.8320   -0.7427    2.8327 H   0  0  0  0  0  0  0  0  0  0  0  0
    1.7818   -1.9026    1.5100 H   0  0  0  0  0  0  0  0  0  0  0  0
    1.5807    1.2788   -0.3724 H   0  0  0  0  0  0  0  0  0  0  0  0
    2.6327    1.0449    1.0413 H   0  0  0  0  0  0  0  0  0  0  0  0
    2.4795   -0.2212   -0.1883 H   0  0  0  0  0  0  0  0  0  0  0  0
   -2.0020   -0.0887    0.0631 H   0  0  0  0  0  0  0  0  0  0  0  0
   -1.3420   -1.4523    7.6774 H   0  0  0  0  0  0  0  0  0  0  0  0
  1  2  2  0  0  0  0 
  2  3  1  0  0  0  0 
  3  4  2  0  0  0  0 
  4  5  1  0  0  0  0 
  5  6  2  0  0  0  0 
  1  6  1  0  0  0  0 
  5  7  1  0  0  0  0 
  6  8  1  0  0  0  0 
  9  8  1  0  0  0  0 
  8 10  1  0  0  0  0 
 10 11  1  0  0  0  0 
 11 12  1  0  0  0  0 
 12 13  1  0  0  0  0 
  9 13  1  0  0  0  0 
 10  7  1  0  0  0  0 
  1 14  1  0  0  0  0 
  9 15  1  0  0  0  0 
 14 15  1  0  0  0  0 
 11 16  2  0  0  0  0 
  8 17  1  0  0  0  0 
 15 18  1  0  0  0  0 
 18 19  1  0  0  0  0 
 19 17  1  0  0  0  0 
 18 20  1  0  0  0  0 
  9 21  1  0  0  0  0 
 10 22  1  0  0  0  0 
  4 23  1  0  0  0  0 
  2 24  1  0  0  0  0 
  3 25  1  0  0  0  0 
 12 26  1  0  0  0  0 
 12 27  1  0  0  0  0 
 13 28  1  0  0  0  0 
 13 29  1  0  0  0  0 
 14 30  1  0  0  0  0 
 14 31  1  0  0  0  0 
 15 32  1  0  0  0  0 
 17 33  1  0  0  0  0 
 17 34  1  0  0  0  0 
 19 35  1  0  0  0  0 
 19 36  1  0  0  0  0 
 20 37  1  0  0  0  0 
 20 38  1  0  0  0  0 
 20 39  1  0  0  0  0 
 21 40  1  0  0  0  0 
 23 41  1  0  0  0  0 
M  END
> <cdk:Title>
oxymorphone

> <Conformer>
1

> <SuperDrugID>
SD001821

$$$$
