methoxyphenamine
  CDK     0628171801

 30 30  0  0  0  0  0  0  0  0999 V2000
   -0.9720    1.1220   -0.7911 C   0  0  1  0  0  0  0  0  0  0  0  0
   -1.4113   -0.3291   -1.1618 C   0  0  1  0  0  0  0  0  0  0  0  0
    0.1288    1.6636   -1.6449 C   0  0  0  0  0  0  0  0  0  0  0  0
   -1.8964   -0.4581   -2.5620 N   0  0  2  0  0  0  0  0  0  0  0  0
   -0.2740   -1.3662   -0.9657 C   0  0  0  0  0  0  0  0  0  0  0  0
    1.4914    1.6089   -1.2430 C   0  0  0  0  0  0  0  0  0  0  0  0
   -0.1771    2.2347   -2.9047 C   0  0  0  0  0  0  0  0  0  0  0  0
   -3.2638    0.0292   -2.8291 C   0  0  0  0  0  0  0  0  0  0  0  0
    1.8566    1.0850   -0.0311 O   0  0  0  0  0  0  0  0  0  0  0  0
    2.5079    2.0656   -2.1086 C   0  0  0  0  0  0  0  0  0  0  0  0
    0.8394    2.7050   -3.7546 C   0  0  0  0  0  0  0  0  0  0  0  0
    2.0252    2.0924    0.9833 C   0  0  0  0  0  0  0  0  0  0  0  0
    2.1839    2.6173   -3.3587 C   0  0  0  0  0  0  0  0  0  0  0  0
   -1.8358    1.7891   -0.8465 H   0  0  0  0  0  0  0  0  0  0  0  0
   -0.6784    1.1258    0.2613 H   0  0  0  0  0  0  0  0  0  0  0  0
   -2.2096   -0.6194   -0.4696 H   0  0  0  0  0  0  0  0  0  0  0  0
   -1.9114   -1.4568   -2.7729 H   0  0  0  0  0  0  0  0  0  0  0  0
   -0.6607   -2.3778   -1.1137 H   0  0  0  0  0  0  0  0  0  0  0  0
    0.5322   -1.1999   -1.6840 H   0  0  0  0  0  0  0  0  0  0  0  0
    0.1342   -1.3038    0.0452 H   0  0  0  0  0  0  0  0  0  0  0  0
   -1.1479    2.3123   -3.2189 H   0  0  0  0  0  0  0  0  0  0  0  0
   -3.5125   -0.2068   -3.8634 H   0  0  0  0  0  0  0  0  0  0  0  0
   -3.9855   -0.4656   -2.1779 H   0  0  0  0  0  0  0  0  0  0  0  0
   -3.3305    1.1087   -2.6958 H   0  0  0  0  0  0  0  0  0  0  0  0
    3.4878    1.9993   -1.8254 H   0  0  0  0  0  0  0  0  0  0  0  0
    0.5980    3.1098   -4.6619 H   0  0  0  0  0  0  0  0  0  0  0  0
    2.2775    1.5907    1.9172 H   0  0  0  0  0  0  0  0  0  0  0  0
    2.8392    2.7785    0.7345 H   0  0  0  0  0  0  0  0  0  0  0  0
    1.1055    2.6630    1.1404 H   0  0  0  0  0  0  0  0  0  0  0  0
    2.9240    2.9532   -3.9779 H   0  0  0  0  0  0  0  0  0  0  0  0
  2  1  1  0  0  0  0 
  1  3  1  0  0  0  0 
  2  4  1  0  0  0  0 
  2  5  1  0  0  0  0 
  3  6  2  0  0  0  0 
  3  7  1  0  0  0  0 
  4  8  1  0  0  0  0 
  6  9  1  0  0  0  0 
  6 10  1  0  0  0  0 
  7 11  2  0  0  0  0 
  9 12  1  0  0  0  0 
 10 13  2  0  0  0  0 
 11 13  1  0  0  0  0 
  1 14  1  0  0  0  0 
  1 15  1  0  0  0  0 
  2 16  1  0  0  0  0 
  4 17  1  0  0  0  0 
  5 18  1  0  0  0  0 
  5 19  1  0  0  0  0 
  5 20  1  0  0  0  0 
  7 21  1  0  0  0  0 
  8 22  1  0  0  0  0 
  8 23  1  0  0  0  0 
  8 24  1  0  0  0  0 
 10 25  1  0  0  0  0 
 11 26  1  0  0  0  0 
 12 27  1  0  0  0  0 
 12 28  1  0  0  0  0 
 12 29  1  0  0  0  0 
 13 30  1  0  0  0  0 
M  END
> <cdk:Title>
methoxyphenamine

> <Conformer>
1

> <SuperDrugID>
SD001555

$$$$
