fosamprenavir
  CDK     0628171801

 75 77  0  0  0  0  0  0  0  0999 V2000
    1.4966    0.6989    1.2568 C   0  0  1  0  0  0  0  0  0  0  0  0
    2.0993   -0.4807    2.1090 C   0  0  2  0  0  0  0  0  0  0  0  0
    1.9443    2.1263    1.7064 C   0  0  1  0  0  0  0  0  0  0  0  0
    1.8172    0.6437   -0.1605 O   0  0  0  0  0  0  0  0  0  0  0  0
    3.6557   -0.6635    2.0159 C   0  0  2  0  0  0  0  0  0  0  0  0
    1.3710   -1.6660    1.7602 N   0  0  0  0  0  0  0  0  0  0  0  0
    1.6770    2.5416    3.1269 N   0  0  2  0  0  0  0  0  0  0  0  0
    0.9541   -0.2611   -1.1622 P   0  0  1  0  0  0  0  0  0  0  0  0
    4.1939   -1.0255    0.6705 C   0  0  0  0  0  0  0  0  0  0  0  0
    1.4188   -2.8871    2.3426 C   0  0  0  0  0  0  0  0  0  0  0  0
   -0.0547    2.6944    3.5234 S   0  0  2  0  0  0  0  0  0  0  0  0
    2.4271    3.7873    3.5188 C   0  0  2  0  0  0  0  0  0  0  0  0
    1.3393   -1.6735   -1.0889 O   0  0  0  0  0  0  0  0  0  0  0  0
   -0.5960   -0.0963   -0.8756 O   0  0  0  0  0  0  0  0  0  0  0  0
    1.2257    0.2657   -2.6326 O   0  0  0  0  0  0  0  0  0  0  0  0
    4.1368   -2.3574    0.1881 C   0  0  0  0  0  0  0  0  0  0  0  0
    4.7889   -0.0412   -0.1553 C   0  0  0  0  0  0  0  0  0  0  0  0
    0.6927   -3.8506    1.7052 O   0  0  0  0  0  0  0  0  0  0  0  0
    2.0933   -3.1255    3.3720 O   0  0  0  0  0  0  0  0  0  0  0  0
   -0.2007    3.1975    5.0416 O   0  0  0  0  0  0  0  0  0  0  0  0
   -0.7694    1.2601    3.4598 O   0  0  0  0  0  0  0  0  0  0  0  0
   -0.8579    3.8442    2.4402 C   0  0  0  0  0  0  0  0  0  0  0  0
    3.9000    3.5291    3.9635 C   0  0  2  0  0  0  0  0  0  0  0  0
    4.6140   -2.6832   -1.0965 C   0  0  0  0  0  0  0  0  0  0  0  0
    5.2659   -0.3643   -1.4396 C   0  0  0  0  0  0  0  0  0  0  0  0
    0.5944   -5.2484    2.0212 C   0  0  1  0  0  0  0  0  0  0  0  0
   -1.5232    3.3778    1.2873 C   0  0  0  0  0  0  0  0  0  0  0  0
   -0.8374    5.2288    2.7146 C   0  0  0  0  0  0  0  0  0  0  0  0
    3.9862    2.4739    5.1006 C   0  0  0  0  0  0  0  0  0  0  0  0
    4.5830    4.8574    4.4001 C   0  0  0  0  0  0  0  0  0  0  0  0
    5.1737   -1.6849   -1.9124 C   0  0  0  0  0  0  0  0  0  0  0  0
   -0.2349   -5.5116    3.2868 C   0  0  1  0  0  0  0  0  0  0  0  0
   -0.2498   -5.9524    0.9459 C   0  0  2  0  0  0  0  0  0  0  0  0
   -2.1782    4.2799    0.4303 C   0  0  0  0  0  0  0  0  0  0  0  0
   -1.4934    6.1323    1.8572 C   0  0  0  0  0  0  0  0  0  0  0  0
   -1.6671   -5.7057    2.7515 C   0  0  1  0  0  0  0  0  0  0  0  0
   -1.6141   -5.7383    1.3179 O   0  0  0  0  0  0  0  0  0  0  0  0
   -2.1731    5.6595    0.7164 C   0  0  0  0  0  0  0  0  0  0  0  0
   -2.8124    6.5195   -0.0999 N   0  0  0  0  0  0  0  0  0  0  0  0
    0.4118    0.6792    1.3731 H   0  0  0  0  0  0  0  0  0  0  0  0
    1.8648   -0.2702    3.1580 H   0  0  0  0  0  0  0  0  0  0  0  0
    3.0140    2.1966    1.5052 H   0  0  0  0  0  0  0  0  0  0  0  0
    1.4687    2.8545    1.0423 H   0  0  0  0  0  0  0  0  0  0  0  0
    3.9747   -1.4304    2.7259 H   0  0  0  0  0  0  0  0  0  0  0  0
    4.1321    0.2525    2.3730 H   0  0  0  0  0  0  0  0  0  0  0  0
    0.7663   -1.5873    1.0083 H   0  0  0  0  0  0  0  0  0  0  0  0
    1.9444    4.2895    4.3604 H   0  0  0  0  0  0  0  0  0  0  0  0
    2.4176    4.5050    2.6904 H   0  0  0  0  0  0  0  0  0  0  0  0
   -0.7755    0.8603   -0.9866 H   0  0  0  0  0  0  0  0  0  0  0  0
    0.8646    1.1773   -2.6411 H   0  0  0  0  0  0  0  0  0  0  0  0
    3.7482   -3.1037    0.7675 H   0  0  0  0  0  0  0  0  0  0  0  0
    4.8678    0.9253    0.1692 H   0  0  0  0  0  0  0  0  0  0  0  0
    4.4623    3.1438    3.1089 H   0  0  0  0  0  0  0  0  0  0  0  0
    4.5504   -3.6449   -1.4407 H   0  0  0  0  0  0  0  0  0  0  0  0
    5.6767    0.3615   -2.0311 H   0  0  0  0  0  0  0  0  0  0  0  0
    1.5932   -5.6919    2.0837 H   0  0  0  0  0  0  0  0  0  0  0  0
   -1.5420    2.3800    1.0662 H   0  0  0  0  0  0  0  0  0  0  0  0
   -0.3542    5.5889    3.5414 H   0  0  0  0  0  0  0  0  0  0  0  0
    3.5509    1.5265    4.7793 H   0  0  0  0  0  0  0  0  0  0  0  0
    5.0288    2.2898    5.3684 H   0  0  0  0  0  0  0  0  0  0  0  0
    3.4537    2.8190    5.9899 H   0  0  0  0  0  0  0  0  0  0  0  0
    4.5528    5.5861    3.5872 H   0  0  0  0  0  0  0  0  0  0  0  0
    5.6286    4.6821    4.6594 H   0  0  0  0  0  0  0  0  0  0  0  0
    4.0783    5.2871    5.2690 H   0  0  0  0  0  0  0  0  0  0  0  0
    5.5171   -1.9187   -2.8471 H   0  0  0  0  0  0  0  0  0  0  0  0
    0.1099   -6.4247    3.7817 H   0  0  0  0  0  0  0  0  0  0  0  0
   -0.1747   -4.6801    3.9932 H   0  0  0  0  0  0  0  0  0  0  0  0
   -0.0398   -7.0261    0.9225 H   0  0  0  0  0  0  0  0  0  0  0  0
   -0.0624   -5.5378   -0.0473 H   0  0  0  0  0  0  0  0  0  0  0  0
   -2.6609    3.9241   -0.3981 H   0  0  0  0  0  0  0  0  0  0  0  0
   -1.4763    7.1324    2.0709 H   0  0  0  0  0  0  0  0  0  0  0  0
   -2.0974   -6.6369    3.1299 H   0  0  0  0  0  0  0  0  0  0  0  0
   -2.3102   -4.8772    3.0569 H   0  0  0  0  0  0  0  0  0  0  0  0
   -3.2836    6.1892   -0.8811 H   0  0  0  0  0  0  0  0  0  0  0  0
   -2.8124    7.4696    0.0956 H   0  0  0  0  0  0  0  0  0  0  0  0
  1  2  1  0  0  0  0 
  1  3  1  0  0  0  0 
  1  4  1  0  0  0  0 
  2  5  1  0  0  0  0 
  2  6  1  0  0  0  0 
  3  7  1  0  0  0  0 
  4  8  1  0  0  0  0 
  5  9  1  0  0  0  0 
  6 10  1  0  0  0  0 
  7 11  1  0  0  0  0 
  7 12  1  0  0  0  0 
  8 13  2  0  0  0  0 
  8 14  1  0  0  0  0 
  8 15  1  0  0  0  0 
  9 16  2  0  0  0  0 
  9 17  1  0  0  0  0 
 10 18  1  0  0  0  0 
 10 19  2  0  0  0  0 
 11 20  2  0  0  0  0 
 11 21  2  0  0  0  0 
 11 22  1  0  0  0  0 
 12 23  1  0  0  0  0 
 16 24  1  0  0  0  0 
 17 25  2  0  0  0  0 
 22 27  2  0  0  0  0 
 22 28  1  0  0  0  0 
 23 29  1  0  0  0  0 
 23 30  1  0  0  0  0 
 24 31  2  0  0  0  0 
 25 31  1  0  0  0  0 
 26 18  1  0  0  0  0 
 26 32  1  0  0  0  0 
 26 33  1  0  0  0  0 
 27 34  1  0  0  0  0 
 28 35  2  0  0  0  0 
 32 36  1  0  0  0  0 
 33 37  1  0  0  0  0 
 34 38  2  0  0  0  0 
 35 38  1  0  0  0  0 
 36 37  1  0  0  0  0 
 38 39  1  0  0  0  0 
  1 40  1  0  0  0  0 
  2 41  1  0  0  0  0 
 42  3  1  0  0  0  0 
 43  3  1  0  0  0  0 
 44  5  1  0  0  0  0 
 45  5  1  0  0  0  0 
 46  6  1  0  0  0  0 
 47 12  1  0  0  0  0 
 48 12  1  0  0  0  0 
 49 14  1  0  0  0  0 
 50 15  1  0  0  0  0 
 51 16  1  0  0  0  0 
 52 17  1  0  0  0  0 
 53 23  1  0  0  0  0 
 54 24  1  0  0  0  0 
 55 25  1  0  0  0  0 
 26 56  1  0  0  0  0 
 57 27  1  0  0  0  0 
 58 28  1  0  0  0  0 
 59 29  1  0  0  0  0 
 60 29  1  0  0  0  0 
 61 29  1  0  0  0  0 
 62 30  1  0  0  0  0 
 63 30  1  0  0  0  0 
 64 30  1  0  0  0  0 
 65 31  1  0  0  0  0 
 66 32  1  0  0  0  0 
 67 32  1  0  0  0  0 
 68 33  1  0  0  0  0 
 69 33  1  0  0  0  0 
 70 34  1  0  0  0  0 
 71 35  1  0  0  0  0 
 72 36  1  0  0  0  0 
 73 36  1  0  0  0  0 
 74 39  1  0  0  0  0 
 75 39  1  0  0  0  0 
M  END
> <cdk:Title>
fosamprenavir

> <Conformer>
1

> <SuperDrugID>
SD001113

$$$$
