formylsulfamethin
  CDK     0628171801

 35 36  0  0  0  0  0  0  0  0999 V2000
    0.1460    5.5333   -4.7567 N   0  0  0  0  0  0  0  0  0  0  0  0
    0.9542    4.0178   -4.7763 S   0  0  1  0  0  0  0  0  0  0  0  0
   -0.1180    6.2354   -3.6272 C   0  0  0  0  0  0  0  0  0  0  0  0
    0.4636    3.2032   -6.0693 O   0  0  0  0  0  0  0  0  0  0  0  0
    2.5321    4.2816   -4.8956 O   0  0  0  0  0  0  0  0  0  0  0  0
    0.5515    3.1067   -3.3091 C   0  0  0  0  0  0  0  0  0  0  0  0
   -1.2381    7.0882   -3.6154 C   0  0  0  0  0  0  0  0  0  0  0  0
    0.6475    6.1314   -2.5051 N   0  0  0  0  0  0  0  0  0  0  0  0
   -0.7949    2.9871   -2.9104 C   0  0  0  0  0  0  0  0  0  0  0  0
    1.5600    2.5435   -2.5038 C   0  0  0  0  0  0  0  0  0  0  0  0
   -1.5464    7.7767   -2.4255 C   0  0  0  0  0  0  0  0  0  0  0  0
    0.3598    6.8183   -1.3678 C   0  0  0  0  0  0  0  0  0  0  0  0
   -1.1193    2.3921   -1.6775 C   0  0  0  0  0  0  0  0  0  0  0  0
    1.2349    1.9585   -1.2650 C   0  0  0  0  0  0  0  0  0  0  0  0
   -2.7308    8.6471   -2.3346 C   0  0  0  0  0  0  0  0  0  0  0  0
   -0.7351    7.6227   -1.3468 N   0  0  0  0  0  0  0  0  0  0  0  0
    1.2232    6.7041   -0.1828 C   0  0  0  0  0  0  0  0  0  0  0  0
   -0.1073    1.9169   -0.8116 C   0  0  0  0  0  0  0  0  0  0  0  0
   -0.5255    1.4531    0.4066 N   0  0  0  0  0  0  0  0  0  0  0  0
    0.1904    1.1839    1.5316 C   0  0  0  0  0  0  0  0  0  0  0  0
    1.4291    1.3181    1.6533 O   0  0  0  0  0  0  0  0  0  0  0  0
   -0.1857    5.8800   -5.5990 H   0  0  0  0  0  0  0  0  0  0  0  0
   -1.8309    7.1894   -4.4456 H   0  0  0  0  0  0  0  0  0  0  0  0
   -1.5439    3.3543   -3.5038 H   0  0  0  0  0  0  0  0  0  0  0  0
    2.5358    2.5682   -2.8061 H   0  0  0  0  0  0  0  0  0  0  0  0
   -2.1055    2.3265   -1.4124 H   0  0  0  0  0  0  0  0  0  0  0  0
    1.9901    1.5648   -0.7062 H   0  0  0  0  0  0  0  0  0  0  0  0
   -3.6316    8.0608   -2.5250 H   0  0  0  0  0  0  0  0  0  0  0  0
   -2.8121    9.0969   -1.3429 H   0  0  0  0  0  0  0  0  0  0  0  0
   -2.6581    9.4441   -3.0761 H   0  0  0  0  0  0  0  0  0  0  0  0
    2.2362    7.0145   -0.4391 H   0  0  0  0  0  0  0  0  0  0  0  0
    1.2463    5.6743    0.1752 H   0  0  0  0  0  0  0  0  0  0  0  0
    0.8630    7.3435    0.6257 H   0  0  0  0  0  0  0  0  0  0  0  0
   -1.4840    1.3286    0.4949 H   0  0  0  0  0  0  0  0  0  0  0  0
   -0.3282    0.8620    2.3506 H   0  0  0  0  0  0  0  0  0  0  0  0
  1  2  1  0  0  0  0 
  1  3  1  0  0  0  0 
  2  4  2  0  0  0  0 
  2  5  2  0  0  0  0 
  2  6  1  0  0  0  0 
  3  7  2  0  0  0  0 
  3  8  1  0  0  0  0 
  6  9  2  0  0  0  0 
  6 10  1  0  0  0  0 
  7 11  1  0  0  0  0 
  8 12  2  0  0  0  0 
  9 13  1  0  0  0  0 
 10 14  2  0  0  0  0 
 11 15  1  0  0  0  0 
 11 16  2  0  0  0  0 
 12 16  1  0  0  0  0 
 12 17  1  0  0  0  0 
 13 18  2  0  0  0  0 
 14 18  1  0  0  0  0 
 18 19  1  0  0  0  0 
 19 20  1  0  0  0  0 
 20 21  2  0  0  0  0 
  1 22  1  0  0  0  0 
  7 23  1  0  0  0  0 
  9 24  1  0  0  0  0 
 10 25  1  0  0  0  0 
 13 26  1  0  0  0  0 
 14 27  1  0  0  0  0 
 15 28  1  0  0  0  0 
 15 29  1  0  0  0  0 
 15 30  1  0  0  0  0 
 17 31  1  0  0  0  0 
 17 32  1  0  0  0  0 
 17 33  1  0  0  0  0 
 19 34  1  0  0  0  0 
 20 35  1  0  0  0  0 
M  END
> <cdk:Title>
formylsulfamethin

> <Conformer>
1

> <SuperDrugID>
SD002808

$$$$
