mibefradil
  CDK     0628171801

 74 77  0  0  0  0  0  0  0  0999 V2000
   -1.7927   -2.5165    0.1866 C   0  0  2  0  0  0  0  0  0  0  0  0
   -0.4103   -2.4240    0.8900 C   0  0  2  0  0  0  0  0  0  0  0  0
   -3.0453   -1.8430    0.8796 C   0  0  2  0  0  0  0  0  0  0  0  0
    0.7190   -2.8892    0.0037 N   0  0  2  0  0  0  0  0  0  0  0  0
   -2.8788   -0.4249    1.1311 O   0  0  0  0  0  0  0  0  0  0  0  0
   -3.4551   -2.5373    2.2625 C   0  0  1  0  0  0  0  0  0  0  0  0
   -4.2146   -1.9331   -0.1576 C   0  0  1  0  0  0  0  0  0  0  0  0
    1.7999   -3.6254    0.7513 C   0  0  1  0  0  0  0  0  0  0  0  0
    1.2026   -1.8171   -0.9240 C   0  0  0  0  0  0  0  0  0  0  0  0
   -2.4366    0.6109    0.3557 C   0  0  0  0  0  0  0  0  0  0  0  0
   -2.6679   -1.9221    3.5081 C   0  0  1  0  0  0  0  0  0  0  0  0
   -4.9505   -2.6736    2.5007 C   0  0  0  0  0  0  0  0  0  0  0  0
   -5.5204   -1.3449    0.4143 C   0  0  2  0  0  0  0  0  0  0  0  0
    3.0057   -4.1364   -0.0877 C   0  0  2  0  0  0  0  0  0  0  0  0
   -2.7611    1.9802    0.7802 C   0  0  2  0  0  0  0  0  0  0  0  0
   -1.8074    0.4307   -0.7115 O   0  0  0  0  0  0  0  0  0  0  0  0
   -3.4469   -0.8299    4.3035 C   0  0  0  0  0  0  0  0  0  0  0  0
   -2.0434   -2.9822    4.4670 C   0  0  0  0  0  0  0  0  0  0  0  0
   -5.9203   -2.0758    1.6405 C   0  0  0  0  0  0  0  0  0  0  0  0
   -5.4386   -3.4492    3.5865 C   0  0  0  0  0  0  0  0  0  0  0  0
    3.9558   -5.0883    0.6950 C   0  0  1  0  0  0  0  0  0  0  0  0
   -2.6497    2.1066    2.2092 O   0  0  0  0  0  0  0  0  0  0  0  0
   -7.3024   -2.1927    1.9254 C   0  0  0  0  0  0  0  0  0  0  0  0
   -6.8114   -3.5625    3.8649 C   0  0  0  0  0  0  0  0  0  0  0  0
    5.2320   -5.3118   -0.0176 C   0  0  0  0  0  0  0  0  0  0  0  0
   -3.0638    3.3881    2.7109 C   0  0  0  0  0  0  0  0  0  0  0  0
   -7.7471   -2.9259    3.0366 C   0  0  0  0  0  0  0  0  0  0  0  0
    5.6757   -6.5063   -0.4662 N   0  0  0  0  0  0  0  0  0  0  0  0
    6.1175   -4.3463   -0.3319 N   0  0  0  0  0  0  0  0  0  0  0  0
   -9.0232   -3.0266    3.2902 F   0  0  0  0  0  0  0  0  0  0  0  0
    6.8434   -6.2736   -1.0935 C   0  0  0  0  0  0  0  0  0  0  0  0
    7.1123   -4.9112   -1.0195 C   0  0  0  0  0  0  0  0  0  0  0  0
    7.7131   -7.1672   -1.7459 C   0  0  0  0  0  0  0  0  0  0  0  0
    8.2500   -4.3390   -1.6068 C   0  0  0  0  0  0  0  0  0  0  0  0
    8.8793   -6.5836   -2.3738 C   0  0  0  0  0  0  0  0  0  0  0  0
    9.1530   -5.1634   -2.3107 C   0  0  0  0  0  0  0  0  0  0  0  0
   -2.0061   -3.5789    0.0376 H   0  0  0  0  0  0  0  0  0  0  0  0
   -1.6831   -2.1007   -0.8142 H   0  0  0  0  0  0  0  0  0  0  0  0
   -0.4699   -3.0485    1.7821 H   0  0  0  0  0  0  0  0  0  0  0  0
   -0.2260   -1.4005    1.2243 H   0  0  0  0  0  0  0  0  0  0  0  0
   -3.1342   -3.5779    2.1582 H   0  0  0  0  0  0  0  0  0  0  0  0
   -3.9640   -1.3869   -1.0720 H   0  0  0  0  0  0  0  0  0  0  0  0
   -4.3903   -2.9778   -0.4361 H   0  0  0  0  0  0  0  0  0  0  0  0
    2.1851   -2.9805    1.5469 H   0  0  0  0  0  0  0  0  0  0  0  0
    1.3423   -4.5008    1.2221 H   0  0  0  0  0  0  0  0  0  0  0  0
    1.7940   -2.2475   -1.7325 H   0  0  0  0  0  0  0  0  0  0  0  0
    0.3750   -1.2903   -1.3996 H   0  0  0  0  0  0  0  0  0  0  0  0
    1.8098   -1.0840   -0.3883 H   0  0  0  0  0  0  0  0  0  0  0  0
   -1.7908   -1.3955    3.1274 H   0  0  0  0  0  0  0  0  0  0  0  0
   -6.2877   -1.4195   -0.3643 H   0  0  0  0  0  0  0  0  0  0  0  0
   -5.3997   -0.2846    0.6547 H   0  0  0  0  0  0  0  0  0  0  0  0
    3.5740   -3.2618   -0.4129 H   0  0  0  0  0  0  0  0  0  0  0  0
    2.6345   -4.6564   -0.9757 H   0  0  0  0  0  0  0  0  0  0  0  0
   -3.7909    2.1752    0.4680 H   0  0  0  0  0  0  0  0  0  0  0  0
   -2.1019    2.6986    0.2851 H   0  0  0  0  0  0  0  0  0  0  0  0
   -3.8581   -0.0809    3.6248 H   0  0  0  0  0  0  0  0  0  0  0  0
   -2.7809   -0.3200    5.0025 H   0  0  0  0  0  0  0  0  0  0  0  0
   -4.2666   -1.2635    4.8761 H   0  0  0  0  0  0  0  0  0  0  0  0
   -1.4563   -3.7078    3.9019 H   0  0  0  0  0  0  0  0  0  0  0  0
   -1.3740   -2.5009    5.1825 H   0  0  0  0  0  0  0  0  0  0  0  0
   -2.7975   -3.5196    5.0343 H   0  0  0  0  0  0  0  0  0  0  0  0
   -4.7987   -3.9482    4.1993 H   0  0  0  0  0  0  0  0  0  0  0  0
    4.1843   -4.6643    1.6742 H   0  0  0  0  0  0  0  0  0  0  0  0
    3.4501   -6.0446    0.8581 H   0  0  0  0  0  0  0  0  0  0  0  0
   -7.9993   -1.7496    1.3193 H   0  0  0  0  0  0  0  0  0  0  0  0
   -7.1248   -4.1127    4.6697 H   0  0  0  0  0  0  0  0  0  0  0  0
   -4.0888    3.6199    2.4120 H   0  0  0  0  0  0  0  0  0  0  0  0
   -3.0247    3.3659    3.7994 H   0  0  0  0  0  0  0  0  0  0  0  0
   -2.3952    4.1741    2.3557 H   0  0  0  0  0  0  0  0  0  0  0  0
    6.0400   -3.4039   -0.1100 H   0  0  0  0  0  0  0  0  0  0  0  0
    7.4364   -8.2021   -1.7219 H   0  0  0  0  0  0  0  0  0  0  0  0
    8.4139   -3.3329   -1.5267 H   0  0  0  0  0  0  0  0  0  0  0  0
    9.5302   -7.1883   -2.8795 H   0  0  0  0  0  0  0  0  0  0  0  0
    9.9860   -4.6484   -2.7477 H   0  0  0  0  0  0  0  0  0  0  0  0
  1  2  1  0  0  0  0 
  3  1  1  0  0  0  0 
  2  4  1  0  0  0  0 
  3  5  1  0  0  0  0 
  6  3  1  0  0  0  0 
  3  7  1  0  0  0  0 
  4  8  1  0  0  0  0 
  4  9  1  0  0  0  0 
  5 10  1  0  0  0  0 
  6 11  1  0  0  0  0 
  6 12  1  0  0  0  0 
  7 13  1  0  0  0  0 
  8 14  1  0  0  0  0 
 10 15  1  0  0  0  0 
 10 16  2  0  0  0  0 
 11 17  1  0  0  0  0 
 11 18  1  0  0  0  0 
 12 19  2  0  0  0  0 
 12 20  1  0  0  0  0 
 13 19  1  0  0  0  0 
 14 21  1  0  0  0  0 
 15 22  1  0  0  0  0 
 19 23  1  0  0  0  0 
 20 24  2  0  0  0  0 
 21 25  1  0  0  0  0 
 22 26  1  0  0  0  0 
 23 27  2  0  0  0  0 
 24 27  1  0  0  0  0 
 25 28  2  0  0  0  0 
 25 29  1  0  0  0  0 
 27 30  1  0  0  0  0 
 28 31  1  0  0  0  0 
 29 32  1  0  0  0  0 
 31 32  1  0  0  0  0 
 31 33  2  0  0  0  0 
 32 34  2  0  0  0  0 
 33 35  1  0  0  0  0 
 34 36  1  0  0  0  0 
 35 36  2  0  0  0  0 
  1 37  1  0  0  0  0 
  1 38  1  0  0  0  0 
  2 39  1  0  0  0  0 
  2 40  1  0  0  0  0 
  6 41  1  0  0  0  0 
  7 42  1  0  0  0  0 
  7 43  1  0  0  0  0 
  8 44  1  0  0  0  0 
  8 45  1  0  0  0  0 
  9 46  1  0  0  0  0 
  9 47  1  0  0  0  0 
  9 48  1  0  0  0  0 
 11 49  1  0  0  0  0 
 13 50  1  0  0  0  0 
 13 51  1  0  0  0  0 
 14 52  1  0  0  0  0 
 14 53  1  0  0  0  0 
 15 54  1  0  0  0  0 
 15 55  1  0  0  0  0 
 17 56  1  0  0  0  0 
 17 57  1  0  0  0  0 
 17 58  1  0  0  0  0 
 18 59  1  0  0  0  0 
 18 60  1  0  0  0  0 
 18 61  1  0  0  0  0 
 20 62  1  0  0  0  0 
 21 63  1  0  0  0  0 
 21 64  1  0  0  0  0 
 23 65  1  0  0  0  0 
 24 66  1  0  0  0  0 
 26 67  1  0  0  0  0 
 26 68  1  0  0  0  0 
 26 69  1  0  0  0  0 
 29 70  1  0  0  0  0 
 33 71  1  0  0  0  0 
 34 72  1  0  0  0  0 
 35 73  1  0  0  0  0 
 36 74  1  0  0  0  0 
M  END
> <cdk:Title>
mibefradil

> <Conformer>
1

> <SuperDrugID>
SD001597

$$$$
