pirozadil
  CDK     0628171801

 67 69  0  0  0  0  0  0  0  0999 V2000
    8.4954   -7.9471    5.6314 O   0  0  0  0  0  0  0  0  0  0  0  0
    9.8160   -8.1888    6.3379 C   0  0  0  0  0  0  0  0  0  0  0  0
    7.8331   -6.8963    6.1992 C   0  0  0  0  0  0  0  0  0  0  0  0
    6.9462   -7.1217    7.2714 C   0  0  0  0  0  0  0  0  0  0  0  0
    8.0180   -5.5880    5.7030 C   0  0  0  0  0  0  0  0  0  0  0  0
    6.7406   -8.3892    7.7486 O   0  0  0  0  0  0  0  0  0  0  0  0
    6.3038   -6.0304    7.8872 C   0  0  0  0  0  0  0  0  0  0  0  0
    8.8593   -5.3645    4.6453 O   0  0  0  0  0  0  0  0  0  0  0  0
    7.3672   -4.5027    6.3264 C   0  0  0  0  0  0  0  0  0  0  0  0
    5.6485   -9.0647    7.0988 C   0  0  0  0  0  0  0  0  0  0  0  0
    6.5177   -4.7004    7.4442 C   0  0  0  0  0  0  0  0  0  0  0  0
    8.2071   -5.5222    3.3717 C   0  0  0  0  0  0  0  0  0  0  0  0
    5.9075   -3.5975    8.1084 C   0  0  0  0  0  0  0  0  0  0  0  0
    6.0632   -2.3189    7.6412 O   0  0  0  0  0  0  0  0  0  0  0  0
    5.2231   -3.7795    9.1451 O   0  0  0  0  0  0  0  0  0  0  0  0
    5.4972   -1.1315    8.2127 C   0  0  2  0  0  0  0  0  0  0  0  0
    5.9105    0.0666    7.4557 C   0  0  0  0  0  0  0  0  0  0  0  0
    4.9675    0.8679    6.8873 N   0  0  0  0  0  0  0  0  0  0  0  0
    7.2707    0.4263    7.3326 C   0  0  0  0  0  0  0  0  0  0  0  0
    5.2551    2.0139    6.2113 C   0  0  0  0  0  0  0  0  0  0  0  0
    7.6138    1.6006    6.6382 C   0  0  0  0  0  0  0  0  0  0  0  0
    4.1454    2.8169    5.6626 C   0  0  2  0  0  0  0  0  0  0  0  0
    6.6048    2.4046    6.0790 C   0  0  0  0  0  0  0  0  0  0  0  0
    3.5454    2.1410    4.5477 O   0  0  0  0  0  0  0  0  0  0  0  0
    2.4913    2.5955    3.7969 C   0  0  0  0  0  0  0  0  0  0  0  0
    1.9723    3.6965    4.1017 O   0  0  0  0  0  0  0  0  0  0  0  0
    1.9858    1.8430    2.6975 C   0  0  0  0  0  0  0  0  0  0  0  0
    0.9334    2.3416    1.8881 C   0  0  0  0  0  0  0  0  0  0  0  0
    2.5139    0.5671    2.3816 C   0  0  0  0  0  0  0  0  0  0  0  0
    0.4047    1.5869    0.8229 C   0  0  0  0  0  0  0  0  0  0  0  0
    1.9927   -0.1986    1.3186 C   0  0  0  0  0  0  0  0  0  0  0  0
   -0.6289    2.0917    0.0797 O   0  0  0  0  0  0  0  0  0  0  0  0
    0.9107    0.2975    0.5597 C   0  0  0  0  0  0  0  0  0  0  0  0
    2.5100   -1.4395    1.0572 O   0  0  0  0  0  0  0  0  0  0  0  0
   -0.1861    2.8218   -1.0777 C   0  0  0  0  0  0  0  0  0  0  0  0
    0.3591   -0.4643   -0.4359 O   0  0  0  0  0  0  0  0  0  0  0  0
    3.4955   -1.4281    0.0089 C   0  0  0  0  0  0  0  0  0  0  0  0
   -0.7399   -1.2708    0.0302 C   0  0  0  0  0  0  0  0  0  0  0  0
   10.3908   -9.0450    5.9118 H   0  0  0  0  0  0  0  0  0  0  0  0
   10.5242   -7.3267    6.2899 H   0  0  0  0  0  0  0  0  0  0  0  0
    9.7174   -8.4330    7.4232 H   0  0  0  0  0  0  0  0  0  0  0  0
    5.6802   -6.2223    8.6755 H   0  0  0  0  0  0  0  0  0  0  0  0
    7.5312   -3.5613    5.9597 H   0  0  0  0  0  0  0  0  0  0  0  0
    5.5538  -10.0562    7.5427 H   0  0  0  0  0  0  0  0  0  0  0  0
    4.7038   -8.5345    7.2494 H   0  0  0  0  0  0  0  0  0  0  0  0
    5.8300   -9.1901    6.0274 H   0  0  0  0  0  0  0  0  0  0  0  0
    8.9379   -5.3262    2.5864 H   0  0  0  0  0  0  0  0  0  0  0  0
    7.8285   -6.5391    3.2314 H   0  0  0  0  0  0  0  0  0  0  0  0
    7.3867   -4.8084    3.2583 H   0  0  0  0  0  0  0  0  0  0  0  0
    5.8374   -1.0270    9.2452 H   0  0  0  0  0  0  0  0  0  0  0  0
    4.4073   -1.2219    8.2203 H   0  0  0  0  0  0  0  0  0  0  0  0
    8.0064   -0.1502    7.7460 H   0  0  0  0  0  0  0  0  0  0  0  0
    8.5952    1.8737    6.5407 H   0  0  0  0  0  0  0  0  0  0  0  0
    4.4984    3.7988    5.3369 H   0  0  0  0  0  0  0  0  0  0  0  0
    3.4009    2.9687    6.4466 H   0  0  0  0  0  0  0  0  0  0  0  0
    6.8565    3.2629    5.5848 H   0  0  0  0  0  0  0  0  0  0  0  0
    0.5303    3.2651    2.0667 H   0  0  0  0  0  0  0  0  0  0  0  0
    3.2832    0.1735    2.9293 H   0  0  0  0  0  0  0  0  0  0  0  0
   -1.0712    3.1870   -1.5975 H   0  0  0  0  0  0  0  0  0  0  0  0
    0.4249    3.6843   -0.7981 H   0  0  0  0  0  0  0  0  0  0  0  0
    0.3743    2.1851   -1.7679 H   0  0  0  0  0  0  0  0  0  0  0  0
    3.8427   -2.4506   -0.1377 H   0  0  0  0  0  0  0  0  0  0  0  0
    3.0771   -1.0759   -0.9382 H   0  0  0  0  0  0  0  0  0  0  0  0
    4.3560   -0.8111    0.2803 H   0  0  0  0  0  0  0  0  0  0  0  0
   -1.1272   -1.8360   -0.8170 H   0  0  0  0  0  0  0  0  0  0  0  0
   -0.4208   -1.9834    0.7958 H   0  0  0  0  0  0  0  0  0  0  0  0
   -1.5526   -0.6556    0.4262 H   0  0  0  0  0  0  0  0  0  0  0  0
  1  2  1  0  0  0  0 
  1  3  1  0  0  0  0 
  3  4  2  0  0  0  0 
  3  5  1  0  0  0  0 
  4  6  1  0  0  0  0 
  4  7  1  0  0  0  0 
  5  8  1  0  0  0  0 
  5  9  2  0  0  0  0 
  6 10  1  0  0  0  0 
  7 11  2  0  0  0  0 
  8 12  1  0  0  0  0 
  9 11  1  0  0  0  0 
 11 13  1  0  0  0  0 
 13 14  1  0  0  0  0 
 13 15  2  0  0  0  0 
 14 16  1  0  0  0  0 
 16 17  1  0  0  0  0 
 17 18  2  0  0  0  0 
 17 19  1  0  0  0  0 
 18 20  1  0  0  0  0 
 19 21  2  0  0  0  0 
 20 22  1  0  0  0  0 
 20 23  2  0  0  0  0 
 21 23  1  0  0  0  0 
 22 24  1  0  0  0  0 
 24 25  1  0  0  0  0 
 25 26  2  0  0  0  0 
 25 27  1  0  0  0  0 
 27 28  2  0  0  0  0 
 27 29  1  0  0  0  0 
 28 30  1  0  0  0  0 
 29 31  2  0  0  0  0 
 30 32  1  0  0  0  0 
 30 33  2  0  0  0  0 
 31 33  1  0  0  0  0 
 31 34  1  0  0  0  0 
 32 35  1  0  0  0  0 
 33 36  1  0  0  0  0 
 34 37  1  0  0  0  0 
 36 38  1  0  0  0  0 
  2 39  1  0  0  0  0 
  2 40  1  0  0  0  0 
  2 41  1  0  0  0  0 
  7 42  1  0  0  0  0 
  9 43  1  0  0  0  0 
 10 44  1  0  0  0  0 
 10 45  1  0  0  0  0 
 10 46  1  0  0  0  0 
 12 47  1  0  0  0  0 
 12 48  1  0  0  0  0 
 12 49  1  0  0  0  0 
 16 50  1  0  0  0  0 
 16 51  1  0  0  0  0 
 19 52  1  0  0  0  0 
 21 53  1  0  0  0  0 
 22 54  1  0  0  0  0 
 22 55  1  0  0  0  0 
 23 56  1  0  0  0  0 
 28 57  1  0  0  0  0 
 29 58  1  0  0  0  0 
 35 59  1  0  0  0  0 
 35 60  1  0  0  0  0 
 35 61  1  0  0  0  0 
 37 62  1  0  0  0  0 
 37 63  1  0  0  0  0 
 37 64  1  0  0  0  0 
 38 65  1  0  0  0  0 
 38 66  1  0  0  0  0 
 38 67  1  0  0  0  0 
M  END
> <cdk:Title>
pirozadil

> <Conformer>
1

> <SuperDrugID>
SD001985

$$$$
