methylhomatropine
  CDK     0628171801

 45 47  0  0  0  0  0  0  0  0999 V2000
   -3.9771   -4.0573    0.0514 C   0  0  0  0  0  0  0  0  0  0  0  0
   -2.4596   -4.0377    0.1626 N   0  0  1  0  0  0  0  0  0  0  0  0
   -2.0994   -5.4125    0.7208 C   0  0  0  0  0  0  0  0  0  0  0  0
   -1.7281   -3.7304   -1.1275 C   0  0  1  0  0  0  0  0  0  0  0  0
   -1.8943   -2.9071    0.9976 C   0  0  1  0  0  0  0  0  0  0  0  0
   -2.2657   -2.4431   -1.8521 C   0  0  2  0  0  0  0  0  0  0  0  0
   -0.2444   -3.5028   -0.7033 C   0  0  1  0  0  0  0  0  0  0  0  0
   -0.3588   -2.9248    0.7244 C   0  0  2  0  0  0  0  0  0  0  0  0
   -2.4718   -1.5018    0.6025 C   0  0  1  0  0  0  0  0  0  0  0  0
   -2.3443   -1.1775   -0.9259 C   0  0  1  0  0  0  0  0  0  0  0  0
   -1.2084   -0.3135   -1.1171 O   0  0  0  0  0  0  0  0  0  0  0  0
   -0.8979    0.4367   -2.2203 C   0  0  0  0  0  0  0  0  0  0  0  0
    0.2796    1.3324   -2.2008 C   0  0  1  0  0  0  0  0  0  0  0  0
   -1.6205    0.4024   -3.2449 O   0  0  0  0  0  0  0  0  0  0  0  0
    0.9557    1.2671   -0.9459 O   0  0  0  0  0  0  0  0  0  0  0  0
    1.2602    1.0458   -3.2883 C   0  0  0  0  0  0  0  0  0  0  0  0
    1.6756    2.0720   -4.1725 C   0  0  0  0  0  0  0  0  0  0  0  0
    1.8144   -0.2486   -3.4523 C   0  0  0  0  0  0  0  0  0  0  0  0
    2.6058    1.8093   -5.1939 C   0  0  0  0  0  0  0  0  0  0  0  0
    2.7379   -0.5135   -4.4812 C   0  0  0  0  0  0  0  0  0  0  0  0
    3.1326    0.5160   -5.3522 C   0  0  0  0  0  0  0  0  0  0  0  0
   -4.3186   -4.8689   -0.5970 H   0  0  0  0  0  0  0  0  0  0  0  0
   -4.4406   -4.1896    1.0330 H   0  0  0  0  0  0  0  0  0  0  0  0
   -4.4078   -3.1483   -0.3602 H   0  0  0  0  0  0  0  0  0  0  0  0
   -2.5755   -5.5845    1.6905 H   0  0  0  0  0  0  0  0  0  0  0  0
   -1.0328   -5.5645    0.8804 H   0  0  0  0  0  0  0  0  0  0  0  0
   -2.4204   -6.2092    0.0432 H   0  0  0  0  0  0  0  0  0  0  0  0
   -1.7887   -4.5691   -1.8295 H   0  0  0  0  0  0  0  0  0  0  0  0
   -2.0835   -3.0682    2.0647 H   0  0  0  0  0  0  0  0  0  0  0  0
   -3.2548   -2.6501   -2.2641 H   0  0  0  0  0  0  0  0  0  0  0  0
   -1.6319   -2.2343   -2.7164 H   0  0  0  0  0  0  0  0  0  0  0  0
    0.3048   -4.4495   -0.6879 H   0  0  0  0  0  0  0  0  0  0  0  0
    0.2882   -2.8201   -1.3701 H   0  0  0  0  0  0  0  0  0  0  0  0
    0.1536   -3.5693    1.4440 H   0  0  0  0  0  0  0  0  0  0  0  0
    0.0960   -1.9320    0.7872 H   0  0  0  0  0  0  0  0  0  0  0  0
   -3.5206   -1.4548    0.9000 H   0  0  0  0  0  0  0  0  0  0  0  0
   -1.9744   -0.7274    1.1937 H   0  0  0  0  0  0  0  0  0  0  0  0
   -3.2261   -0.5919   -1.2056 H   0  0  0  0  0  0  0  0  0  0  0  0
   -0.1064    2.3526   -2.2878 H   0  0  0  0  0  0  0  0  0  0  0  0
    1.6116    1.9962   -0.9764 H   0  0  0  0  0  0  0  0  0  0  0  0
    1.3046    3.0216   -4.0779 H   0  0  0  0  0  0  0  0  0  0  0  0
    1.5456   -1.0089   -2.8225 H   0  0  0  0  0  0  0  0  0  0  0  0
    2.8990    2.5604   -5.8223 H   0  0  0  0  0  0  0  0  0  0  0  0
    3.1235   -1.4545   -4.5982 H   0  0  0  0  0  0  0  0  0  0  0  0
    3.8024    0.3250   -6.0992 H   0  0  0  0  0  0  0  0  0  0  0  0
  1  2  1  0  0  0  0 
  2  3  1  0  0  0  0 
  4  2  1  0  0  0  0 
  4  6  1  0  0  0  0 
  4  7  1  0  0  0  0 
  5  2  1  0  0  0  0 
  5  8  1  0  0  0  0 
  5  9  1  0  0  0  0 
 10  6  1  0  0  0  0 
  7  8  1  0  0  0  0 
 10  9  1  0  0  0  0 
 10 11  1  0  0  0  0 
 11 12  1  0  0  0  0 
 12 13  1  0  0  0  0 
 12 14  2  0  0  0  0 
 13 15  1  0  0  0  0 
 13 16  1  0  0  0  0 
 16 17  2  0  0  0  0 
 16 18  1  0  0  0  0 
 17 19  1  0  0  0  0 
 18 20  2  0  0  0  0 
 19 21  2  0  0  0  0 
 20 21  1  0  0  0  0 
  1 22  1  0  0  0  0 
  1 23  1  0  0  0  0 
  1 24  1  0  0  0  0 
  3 25  1  0  0  0  0 
  3 26  1  0  0  0  0 
  3 27  1  0  0  0  0 
  4 28  1  0  0  0  0 
  5 29  1  0  0  0  0 
  6 30  1  0  0  0  0 
  6 31  1  0  0  0  0 
  7 32  1  0  0  0  0 
  7 33  1  0  0  0  0 
  8 34  1  0  0  0  0 
  8 35  1  0  0  0  0 
  9 36  1  0  0  0  0 
  9 37  1  0  0  0  0 
 10 38  1  0  0  0  0 
 13 39  1  0  0  0  0 
 15 40  1  0  0  0  0 
 17 41  1  0  0  0  0 
 18 42  1  0  0  0  0 
 19 43  1  0  0  0  0 
 20 44  1  0  0  0  0 
 21 45  1  0  0  0  0 
M  CHG  1   2   1
M  END
> <cdk:Title>
methylhomatropine

> <Conformer>
1

> <SuperDrugID>
SD001226

$$$$
