glycopyrronium bromide
  CDK     0628171801

 51 53  0  0  0  0  0  0  0  0999 V2000
   -0.4202    9.1447    1.4950 C   0  0  0  0  0  0  0  0  0  0  0  0
    0.1283    9.4397    0.2322 C   0  0  0  0  0  0  0  0  0  0  0  0
   -0.0399    8.5432   -0.8360 C   0  0  0  0  0  0  0  0  0  0  0  0
   -0.7536    7.3497   -0.6387 C   0  0  0  0  0  0  0  0  0  0  0  0
   -1.2971    7.0557    0.6255 C   0  0  0  0  0  0  0  0  0  0  0  0
   -1.1512    7.9475    1.7213 C   0  0  0  0  0  0  0  0  0  0  0  0
   -1.7880    7.6258    3.0535 C   0  0  2  0  0  0  0  0  0  0  0  0
   -1.2257    6.3363    3.5590 C   0  0  0  0  0  0  0  0  0  0  0  0
   -2.0017    5.2145    3.6927 O   0  0  0  0  0  0  0  0  0  0  0  0
   -0.0025    6.2818    3.8349 O   0  0  0  0  0  0  0  0  0  0  0  0
   -1.6250    3.9323    4.2361 C   0  0  2  0  0  0  0  0  0  0  0  0
   -1.5926    2.8366    3.1420 C   0  0  2  0  0  0  0  0  0  0  0  0
   -2.7523    1.9008    3.3632 N   0  0  2  0  0  0  0  0  0  0  0  0
   -2.9691    1.9835    4.8477 C   0  0  2  0  0  0  0  0  0  0  0  0
   -2.6612    3.4354    5.2652 C   0  0  1  0  0  0  0  0  0  0  0  0
   -2.4161    0.4930    2.9314 C   0  0  0  0  0  0  0  0  0  0  0  0
   -3.9807    2.3602    2.6102 C   0  0  0  0  0  0  0  0  0  0  0  0
   -3.3599    7.6472    2.9041 C   0  0  2  0  0  0  0  0  0  0  0  0
   -1.4269    8.5979    4.0463 O   0  0  0  0  0  0  0  0  0  0  0  0
   -3.9350    8.9837    2.3649 C   0  0  2  0  0  0  0  0  0  0  0  0
   -5.4435    8.9455    2.6769 C   0  0  1  0  0  0  0  0  0  0  0  0
   -5.6089    7.9504    3.8456 C   0  0  2  0  0  0  0  0  0  0  0  0
   -4.1918    7.4511    4.1976 C   0  0  2  0  0  0  0  0  0  0  0  0
   -0.2843    9.8273    2.2441 H   0  0  0  0  0  0  0  0  0  0  0  0
    0.6490   10.3089    0.0900 H   0  0  0  0  0  0  0  0  0  0  0  0
    0.3525    8.7597   -1.7547 H   0  0  0  0  0  0  0  0  0  0  0  0
   -0.8783    6.6946   -1.4140 H   0  0  0  0  0  0  0  0  0  0  0  0
   -1.8110    6.1777    0.7377 H   0  0  0  0  0  0  0  0  0  0  0  0
   -0.6414    3.9889    4.7169 H   0  0  0  0  0  0  0  0  0  0  0  0
   -0.6349    2.3105    3.2333 H   0  0  0  0  0  0  0  0  0  0  0  0
   -1.6022    3.2812    2.1420 H   0  0  0  0  0  0  0  0  0  0  0  0
   -2.2816    1.3248    5.3913 H   0  0  0  0  0  0  0  0  0  0  0  0
   -3.9850    1.7032    5.1474 H   0  0  0  0  0  0  0  0  0  0  0  0
   -2.2668    3.4779    6.2845 H   0  0  0  0  0  0  0  0  0  0  0  0
   -3.5734    4.0360    5.2221 H   0  0  0  0  0  0  0  0  0  0  0  0
   -1.5570    0.0936    3.4790 H   0  0  0  0  0  0  0  0  0  0  0  0
   -2.1636    0.4590    1.8676 H   0  0  0  0  0  0  0  0  0  0  0  0
   -3.2544   -0.1884    3.1015 H   0  0  0  0  0  0  0  0  0  0  0  0
   -4.2695    3.3784    2.8816 H   0  0  0  0  0  0  0  0  0  0  0  0
   -3.8074    2.3473    1.5301 H   0  0  0  0  0  0  0  0  0  0  0  0
   -4.8354    1.7089    2.8161 H   0  0  0  0  0  0  0  0  0  0  0  0
   -3.6561    6.8527    2.2084 H   0  0  0  0  0  0  0  0  0  0  0  0
   -1.7676    8.2541    4.8978 H   0  0  0  0  0  0  0  0  0  0  0  0
   -3.7592    9.0967    1.2918 H   0  0  0  0  0  0  0  0  0  0  0  0
   -3.4796    9.8335    2.8833 H   0  0  0  0  0  0  0  0  0  0  0  0
   -5.8074    9.9402    2.9472 H   0  0  0  0  0  0  0  0  0  0  0  0
   -6.0004    8.5978    1.8019 H   0  0  0  0  0  0  0  0  0  0  0  0
   -6.2310    7.1079    3.5312 H   0  0  0  0  0  0  0  0  0  0  0  0
   -6.0791    8.4280    4.7090 H   0  0  0  0  0  0  0  0  0  0  0  0
   -3.7903    8.0494    5.0187 H   0  0  0  0  0  0  0  0  0  0  0  0
   -4.2201    6.4063    4.5113 H   0  0  0  0  0  0  0  0  0  0  0  0
  1  2  2  0  0  0  0 
  2  3  1  0  0  0  0 
  3  4  2  0  0  0  0 
  4  5  1  0  0  0  0 
  5  6  2  0  0  0  0 
  1  6  1  0  0  0  0 
  7  6  1  0  0  0  0 
  7  8  1  0  0  0  0 
  8  9  1  0  0  0  0 
  8 10  2  0  0  0  0 
 11  9  1  0  0  0  0 
 12 13  1  0  0  0  0 
 13 14  1  0  0  0  0 
 14 15  1  0  0  0  0 
 11 12  1  0  0  0  0 
 11 15  1  0  0  0  0 
 13 16  1  0  0  0  0 
 13 17  1  0  0  0  0 
  7 18  1  0  0  0  0 
  7 19  1  0  0  0  0 
 20 21  1  0  0  0  0 
 21 22  1  0  0  0  0 
 22 23  1  0  0  0  0 
 18 20  1  0  0  0  0 
 18 23  1  0  0  0  0 
  1 24  1  0  0  0  0 
  2 25  1  0  0  0  0 
  3 26  1  0  0  0  0 
  4 27  1  0  0  0  0 
  5 28  1  0  0  0  0 
 11 29  1  0  0  0  0 
 12 30  1  0  0  0  0 
 12 31  1  0  0  0  0 
 14 32  1  0  0  0  0 
 14 33  1  0  0  0  0 
 15 34  1  0  0  0  0 
 15 35  1  0  0  0  0 
 16 36  1  0  0  0  0 
 16 37  1  0  0  0  0 
 16 38  1  0  0  0  0 
 17 39  1  0  0  0  0 
 17 40  1  0  0  0  0 
 17 41  1  0  0  0  0 
 18 42  1  0  0  0  0 
 19 43  1  0  0  0  0 
 20 44  1  0  0  0  0 
 20 45  1  0  0  0  0 
 21 46  1  0  0  0  0 
 21 47  1  0  0  0  0 
 22 48  1  0  0  0  0 
 22 49  1  0  0  0  0 
 23 50  1  0  0  0  0 
 23 51  1  0  0  0  0 
M  CHG  1  13   1
M  END
> <cdk:Title>
glycopyrronium bromide

> <Conformer>
1

> <SuperDrugID>
SD003485

$$$$
