etilefrine
  CDK     0628171801

 28 28  0  0  0  0  0  0  0  0999 V2000
    1.8027    1.0165   -0.0279 C   0  0  1  0  0  0  0  0  0  0  0  0
    0.4932    1.4211    0.6933 C   0  0  2  0  0  0  0  0  0  0  0  0
    2.8236    0.7666    0.9391 O   0  0  0  0  0  0  0  0  0  0  0  0
    1.6030   -0.1665   -0.9163 C   0  0  0  0  0  0  0  0  0  0  0  0
   -0.5623    1.7670   -0.2877 N   0  0  1  0  0  0  0  0  0  0  0  0
    1.7213   -1.4903   -0.4251 C   0  0  0  0  0  0  0  0  0  0  0  0
    1.2419    0.0199   -2.2734 C   0  0  0  0  0  0  0  0  0  0  0  0
   -1.8614    2.1502    0.3059 C   0  0  2  0  0  0  0  0  0  0  0  0
    1.4825   -2.5960   -1.2654 C   0  0  0  0  0  0  0  0  0  0  0  0
    0.9907   -1.0809   -3.1101 C   0  0  0  0  0  0  0  0  0  0  0  0
   -2.8729    2.4843   -0.8069 C   0  0  0  0  0  0  0  0  0  0  0  0
    1.6076   -3.8577   -0.7883 O   0  0  0  0  0  0  0  0  0  0  0  0
    1.1120   -2.3878   -2.6063 C   0  0  0  0  0  0  0  0  0  0  0  0
    2.1494    1.8665   -0.6236 H   0  0  0  0  0  0  0  0  0  0  0  0
    0.6961    2.2876    1.3291 H   0  0  0  0  0  0  0  0  0  0  0  0
    0.1594    0.5964    1.3311 H   0  0  0  0  0  0  0  0  0  0  0  0
    2.8707    1.5850    1.4773 H   0  0  0  0  0  0  0  0  0  0  0  0
   -0.2223    2.5710   -0.8196 H   0  0  0  0  0  0  0  0  0  0  0  0
    1.9767   -1.6613    0.5505 H   0  0  0  0  0  0  0  0  0  0  0  0
    1.1501    0.9615   -2.6637 H   0  0  0  0  0  0  0  0  0  0  0  0
   -1.7363    3.0256    0.9496 H   0  0  0  0  0  0  0  0  0  0  0  0
   -2.2538    1.3230    0.9040 H   0  0  0  0  0  0  0  0  0  0  0  0
    0.7127   -0.9311   -4.0841 H   0  0  0  0  0  0  0  0  0  0  0  0
   -3.0268    1.6179   -1.4538 H   0  0  0  0  0  0  0  0  0  0  0  0
   -3.8313    2.7656   -0.3658 H   0  0  0  0  0  0  0  0  0  0  0  0
   -2.5085    3.3177   -1.4115 H   0  0  0  0  0  0  0  0  0  0  0  0
    2.5644   -4.0629   -0.8619 H   0  0  0  0  0  0  0  0  0  0  0  0
    0.9314   -3.1863   -3.2166 H   0  0  0  0  0  0  0  0  0  0  0  0
  1  2  1  0  0  0  0 
  1  3  1  0  0  0  0 
  1  4  1  0  0  0  0 
  2  5  1  0  0  0  0 
  4  6  2  0  0  0  0 
  4  7  1  0  0  0  0 
  5  8  1  0  0  0  0 
  6  9  1  0  0  0  0 
  7 10  2  0  0  0  0 
  8 11  1  0  0  0  0 
  9 12  1  0  0  0  0 
  9 13  2  0  0  0  0 
 10 13  1  0  0  0  0 
  1 14  1  0  0  0  0 
  2 15  1  0  0  0  0 
  2 16  1  0  0  0  0 
  3 17  1  0  0  0  0 
  5 18  1  0  0  0  0 
  6 19  1  0  0  0  0 
  7 20  1  0  0  0  0 
  8 21  1  0  0  0  0 
  8 22  1  0  0  0  0 
 10 23  1  0  0  0  0 
 11 24  1  0  0  0  0 
 11 25  1  0  0  0  0 
 11 26  1  0  0  0  0 
 12 27  1  0  0  0  0 
 13 28  1  0  0  0  0 
M  END
> <cdk:Title>
etilefrine

> <Conformer>
1

> <SuperDrugID>
SD000982

$$$$
