apatinib
  CDK     0628171802

 53 56  0  0  0  0  0  0  0  0999 V2000
    1.5432    2.3846    4.0021 C   0  0  0  0  0  0  0  0  0  0  0  0
    1.9992    2.4776    2.6614 C   0  0  0  0  0  0  0  0  0  0  0  0
    0.9930    2.5552    1.6590 C   0  0  0  0  0  0  0  0  0  0  0  0
   -0.3775    2.4658    1.9702 C   0  0  0  0  0  0  0  0  0  0  0  0
   -0.8083    2.3076    3.3052 C   0  0  0  0  0  0  0  0  0  0  0  0
    0.1780    2.2734    4.3176 C   0  0  0  0  0  0  0  0  0  0  0  0
   -2.1536    2.1370    3.5299 N   0  0  0  0  0  0  0  0  0  0  0  0
    3.4688    2.4311    2.2650 C   0  0  1  0  0  0  0  0  0  0  0  0
   -2.8831    2.3892    4.6688 C   0  0  0  0  0  0  0  0  0  0  0  0
   -4.2590    1.9983    4.8140 C   0  0  0  0  0  0  0  0  0  0  0  0
   -2.3311    3.0382    5.5867 O   0  0  0  0  0  0  0  0  0  0  0  0
   -4.9706    1.4777    3.6991 C   0  0  0  0  0  0  0  0  0  0  0  0
   -6.3312    1.1379    3.7828 C   0  0  0  0  0  0  0  0  0  0  0  0
   -7.0006    1.3135    4.9985 C   0  0  0  0  0  0  0  0  0  0  0  0
   -6.3140    1.7774    6.0650 N   0  0  0  0  0  0  0  0  0  0  0  0
   -4.9918    2.1042    6.0403 C   0  0  0  0  0  0  0  0  0  0  0  0
   -4.4281    2.4996    7.2224 N   0  0  0  0  0  0  0  0  0  0  0  0
   -5.0999    2.6569    8.4735 C   0  0  1  0  0  0  0  0  0  0  0  0
   -4.1373    3.1595    9.4876 C   0  0  0  0  0  0  0  0  0  0  0  0
   -3.5777    4.4547    9.3706 C   0  0  0  0  0  0  0  0  0  0  0  0
   -2.6388    4.8961   10.3222 C   0  0  0  0  0  0  0  0  0  0  0  0
   -2.2848    4.0838   11.3499 N   0  0  0  0  0  0  0  0  0  0  0  0
   -2.8041    2.8404   11.5057 C   0  0  0  0  0  0  0  0  0  0  0  0
   -3.7447    2.3525   10.5807 C   0  0  0  0  0  0  0  0  0  0  0  0
    3.9324    3.7295    1.5285 C   0  0  2  0  0  0  0  0  0  0  0  0
    4.3701    4.7140    2.6384 C   0  0  1  0  0  0  0  0  0  0  0  0
    4.6587    3.8545    3.8880 C   0  0  2  0  0  0  0  0  0  0  0  0
    4.5296    2.3945    3.4129 C   0  0  2  0  0  0  0  0  0  0  0  0
    3.6367    1.2929    1.4910 C   0  0  0  0  0  0  0  0  0  0  0  0
    3.7626    0.3440    0.8551 N   0  0  0  0  0  0  0  0  0  0  0  0
    2.1936    2.3721    4.7832 H   0  0  0  0  0  0  0  0  0  0  0  0
    1.2571    2.6510    0.6743 H   0  0  0  0  0  0  0  0  0  0  0  0
   -1.0581    2.4989    1.2054 H   0  0  0  0  0  0  0  0  0  0  0  0
   -0.0754    2.1312    5.2970 H   0  0  0  0  0  0  0  0  0  0  0  0
   -2.6496    1.7903    2.7734 H   0  0  0  0  0  0  0  0  0  0  0  0
   -4.5151    1.3460    2.7962 H   0  0  0  0  0  0  0  0  0  0  0  0
   -6.8316    0.7744    2.9705 H   0  0  0  0  0  0  0  0  0  0  0  0
   -7.9922    1.0876    5.0875 H   0  0  0  0  0  0  0  0  0  0  0  0
   -3.4784    2.6662    7.2383 H   0  0  0  0  0  0  0  0  0  0  0  0
   -5.9297    3.3610    8.3756 H   0  0  0  0  0  0  0  0  0  0  0  0
   -5.5155    1.6899    8.7710 H   0  0  0  0  0  0  0  0  0  0  0  0
   -3.8432    5.0731    8.6001 H   0  0  0  0  0  0  0  0  0  0  0  0
   -2.2158    5.8231   10.2444 H   0  0  0  0  0  0  0  0  0  0  0  0
   -2.5040    2.2627   12.2930 H   0  0  0  0  0  0  0  0  0  0  0  0
   -4.1297    1.4139   10.7054 H   0  0  0  0  0  0  0  0  0  0  0  0
    3.1546    4.1751    0.9037 H   0  0  0  0  0  0  0  0  0  0  0  0
    4.7965    3.5316    0.8811 H   0  0  0  0  0  0  0  0  0  0  0  0
    5.2613    5.2737    2.3353 H   0  0  0  0  0  0  0  0  0  0  0  0
    3.5662    5.4261    2.8515 H   0  0  0  0  0  0  0  0  0  0  0  0
    3.9188    4.0665    4.6623 H   0  0  0  0  0  0  0  0  0  0  0  0
    5.6523    4.0539    4.2978 H   0  0  0  0  0  0  0  0  0  0  0  0
    5.5130    2.0749    3.0407 H   0  0  0  0  0  0  0  0  0  0  0  0
    4.2655    1.7163    4.2272 H   0  0  0  0  0  0  0  0  0  0  0  0
  1  2  2  0  0  0  0 
  1  6  1  0  0  0  0 
  2  3  1  0  0  0  0 
  3  4  2  0  0  0  0 
  4  5  1  0  0  0  0 
  5  6  2  0  0  0  0 
  5  7  1  0  0  0  0 
  2  8  1  0  0  0  0 
  7  9  1  0  0  0  0 
  9 10  1  0  0  0  0 
  9 11  2  0  0  0  0 
 12 13  1  0  0  0  0 
 13 14  2  0  0  0  0 
 14 15  1  0  0  0  0 
 15 16  2  0  0  0  0 
 10 12  2  0  0  0  0 
 10 16  1  0  0  0  0 
 16 17  1  0  0  0  0 
 17 18  1  0  0  0  0 
 18 19  1  0  0  0  0 
 20 21  1  0  0  0  0 
 21 22  2  0  0  0  0 
 22 23  1  0  0  0  0 
 23 24  2  0  0  0  0 
 19 20  2  0  0  0  0 
 19 24  1  0  0  0  0 
 25 26  1  0  0  0  0 
 26 27  1  0  0  0  0 
 27 28  1  0  0  0  0 
  8 25  1  0  0  0  0 
  8 28  1  0  0  0  0 
  8 29  1  0  0  0  0 
 29 30  3  0  0  0  0 
  1 31  1  0  0  0  0 
  3 32  1  0  0  0  0 
  4 33  1  0  0  0  0 
  6 34  1  0  0  0  0 
  7 35  1  0  0  0  0 
 12 36  1  0  0  0  0 
 13 37  1  0  0  0  0 
 14 38  1  0  0  0  0 
 17 39  1  0  0  0  0 
 18 40  1  0  0  0  0 
 18 41  1  0  0  0  0 
 20 42  1  0  0  0  0 
 21 43  1  0  0  0  0 
 23 44  1  0  0  0  0 
 24 45  1  0  0  0  0 
 25 46  1  0  0  0  0 
 25 47  1  0  0  0  0 
 26 48  1  0  0  0  0 
 26 49  1  0  0  0  0 
 27 50  1  0  0  0  0 
 27 51  1  0  0  0  0 
 28 52  1  0  0  0  0 
 28 53  1  0  0  0  0 
M  END
> <cdk:Title>
apatinib

> <Conformer>
1

> <SuperDrugID>
SD003941

$$$$
