dihydroergocristine
  CDK     0628171802

 86 93  0  0  0  0  0  0  0  0999 V2000
   -1.6348    5.2828   -1.3273 O   0  0  0  0  0  0  0  0  0  0  0  0
   -1.0307    4.6363   -2.4484 C   0  0  1  0  0  0  0  0  0  0  0  0
   -1.0737    3.2263   -2.2763 N   0  0  0  0  0  0  0  0  0  0  0  0
   -1.7518    4.9627   -3.7868 C   0  0  1  0  0  0  0  0  0  0  0  0
    0.3544    5.0056   -2.5058 O   0  0  0  0  0  0  0  0  0  0  0  0
   -2.2950    2.4451   -2.3675 C   0  0  1  0  0  0  0  0  0  0  0  0
    0.1742    2.7733   -2.0772 C   0  0  0  0  0  0  0  0  0  0  0  0
   -3.0285    4.3212   -3.8649 N   0  0  0  0  0  0  0  0  0  0  0  0
   -2.0709    6.4477   -4.0633 C   0  0  1  0  0  0  0  0  0  0  0  0
    1.1678    3.8591   -2.1774 C   0  0  2  0  0  0  0  0  0  0  0  0
   -2.9039    2.1861   -0.9511 C   0  0  2  0  0  0  0  0  0  0  0  0
   -3.2927    3.1116   -3.2614 C   0  0  0  0  0  0  0  0  0  0  0  0
    0.4557    1.5776   -1.8319 O   0  0  0  0  0  0  0  0  0  0  0  0
   -3.9841    5.0627   -4.6226 C   0  0  2  0  0  0  0  0  0  0  0  0
   -3.2530    6.3548   -5.0431 C   0  0  1  0  0  0  0  0  0  0  0  0
    1.7113    4.2218   -0.8948 N   0  0  0  0  0  0  0  0  0  0  0  0
    2.2017    3.7343   -3.3671 C   0  0  2  0  0  0  0  0  0  0  0  0
   -2.0795    1.2792   -0.1065 C   0  0  0  0  0  0  0  0  0  0  0  0
   -4.4011    2.5519   -3.4444 O   0  0  0  0  0  0  0  0  0  0  0  0
    2.5510    3.5158   -0.0869 C   0  0  0  0  0  0  0  0  0  0  0  0
    2.8327    2.3333   -3.6189 C   0  0  0  0  0  0  0  0  0  0  0  0
    3.3281    4.8016   -3.2745 C   0  0  0  0  0  0  0  0  0  0  0  0
   -1.9263   -0.0822   -0.4662 C   0  0  0  0  0  0  0  0  0  0  0  0
   -1.4284    1.7498    1.0585 C   0  0  0  0  0  0  0  0  0  0  0  0
    2.8479    2.3337   -0.3738 O   0  0  0  0  0  0  0  0  0  0  0  0
    3.1001    4.1708    1.1396 C   0  0  2  0  0  0  0  0  0  0  0  0
   -1.1223   -0.9435    0.3018 C   0  0  0  0  0  0  0  0  0  0  0  0
   -0.6221    0.8879    1.8252 C   0  0  0  0  0  0  0  0  0  0  0  0
    3.8245    5.5296    0.7437 C   0  0  1  0  0  0  0  0  0  0  0  0
    4.0294    3.1413    1.9767 C   0  0  2  0  0  0  0  0  0  0  0  0
   -0.4668   -0.4578    1.4466 C   0  0  0  0  0  0  0  0  0  0  0  0
    4.4221    6.2253    2.0020 C   0  0  2  0  0  0  0  0  0  0  0  0
    4.7265    3.9057    3.1028 N   0  0  2  0  0  0  0  0  0  0  0  0
    5.0734    7.5556    1.7240 C   0  0  0  0  0  0  0  0  0  0  0  0
    5.3913    5.2753    2.8259 C   0  0  2  0  0  0  0  0  0  0  0  0
    5.5896    2.9538    3.8718 C   0  0  0  0  0  0  0  0  0  0  0  0
    5.8992    8.0572    2.7396 C   0  0  0  0  0  0  0  0  0  0  0  0
    4.9152    8.4008    0.5925 C   0  0  0  0  0  0  0  0  0  0  0  0
    5.8966    5.9921    4.1384 C   0  0  1  0  0  0  0  0  0  0  0  0
    6.2772    7.3945    3.8868 C   0  0  0  0  0  0  0  0  0  0  0  0
    6.4793    9.3138    2.7378 C   0  0  0  0  0  0  0  0  0  0  0  0
    5.5201    9.6839    0.5486 C   0  0  0  0  0  0  0  0  0  0  0  0
    7.0397    8.3083    4.6132 C   0  0  0  0  0  0  0  0  0  0  0  0
    7.1474    9.4495    3.8970 N   0  0  0  0  0  0  0  0  0  0  0  0
    6.2941   10.1600    1.6336 C   0  0  0  0  0  0  0  0  0  0  0  0
   -1.0969    5.0096   -0.5542 H   0  0  0  0  0  0  0  0  0  0  0  0
   -1.1383    4.5780   -4.6144 H   0  0  0  0  0  0  0  0  0  0  0  0
   -2.0624    1.4882   -2.8467 H   0  0  0  0  0  0  0  0  0  0  0  0
   -2.3917    6.9599   -3.1537 H   0  0  0  0  0  0  0  0  0  0  0  0
   -1.2201    6.9763   -4.4985 H   0  0  0  0  0  0  0  0  0  0  0  0
   -3.8952    1.7309   -1.0376 H   0  0  0  0  0  0  0  0  0  0  0  0
   -3.0489    3.1533   -0.4632 H   0  0  0  0  0  0  0  0  0  0  0  0
   -4.8461    5.3031   -3.9951 H   0  0  0  0  0  0  0  0  0  0  0  0
   -4.3128    4.4952   -5.4968 H   0  0  0  0  0  0  0  0  0  0  0  0
   -3.9031    7.2315   -4.9746 H   0  0  0  0  0  0  0  0  0  0  0  0
   -2.8821    6.2639   -6.0697 H   0  0  0  0  0  0  0  0  0  0  0  0
    1.4612    5.1006   -0.5660 H   0  0  0  0  0  0  0  0  0  0  0  0
    1.6508    3.9539   -4.2903 H   0  0  0  0  0  0  0  0  0  0  0  0
    2.0659    1.6072   -3.8959 H   0  0  0  0  0  0  0  0  0  0  0  0
    3.5442    2.3789   -4.4471 H   0  0  0  0  0  0  0  0  0  0  0  0
    3.3663    1.9681   -2.7463 H   0  0  0  0  0  0  0  0  0  0  0  0
    2.8995    5.7929   -3.1196 H   0  0  0  0  0  0  0  0  0  0  0  0
    3.9121    4.8264   -4.1978 H   0  0  0  0  0  0  0  0  0  0  0  0
    4.0071    4.5775   -2.4494 H   0  0  0  0  0  0  0  0  0  0  0  0
   -2.3954   -0.4571   -1.2947 H   0  0  0  0  0  0  0  0  0  0  0  0
   -1.5272    2.7242    1.3518 H   0  0  0  0  0  0  0  0  0  0  0  0
    2.1772    4.5005    1.6932 H   0  0  0  0  0  0  0  0  0  0  0  0
   -1.0111   -1.9215    0.0239 H   0  0  0  0  0  0  0  0  0  0  0  0
   -0.1481    1.2393    2.6595 H   0  0  0  0  0  0  0  0  0  0  0  0
    4.6318    5.3265    0.0350 H   0  0  0  0  0  0  0  0  0  0  0  0
    3.1029    6.1993    0.2677 H   0  0  0  0  0  0  0  0  0  0  0  0
    4.7908    2.7128    1.3194 H   0  0  0  0  0  0  0  0  0  0  0  0
    3.4033    2.3397    2.3753 H   0  0  0  0  0  0  0  0  0  0  0  0
    0.1201   -1.0845    2.0029 H   0  0  0  0  0  0  0  0  0  0  0  0
    3.5756    6.4555    2.6611 H   0  0  0  0  0  0  0  0  0  0  0  0
    6.2688    5.0896    2.1913 H   0  0  0  0  0  0  0  0  0  0  0  0
    5.8886    3.3599    4.8369 H   0  0  0  0  0  0  0  0  0  0  0  0
    5.0514    2.0301    4.0893 H   0  0  0  0  0  0  0  0  0  0  0  0
    6.4877    2.7057    3.3020 H   0  0  0  0  0  0  0  0  0  0  0  0
    4.3520    8.1034   -0.2056 H   0  0  0  0  0  0  0  0  0  0  0  0
    5.1146    5.9717    4.9006 H   0  0  0  0  0  0  0  0  0  0  0  0
    6.7796    5.4766    4.5214 H   0  0  0  0  0  0  0  0  0  0  0  0
    5.3860   10.2754   -0.2736 H   0  0  0  0  0  0  0  0  0  0  0  0
    7.4594    8.1388    5.5272 H   0  0  0  0  0  0  0  0  0  0  0  0
    7.6339   10.2407    4.1743 H   0  0  0  0  0  0  0  0  0  0  0  0
    6.7158   11.0898    1.6133 H   0  0  0  0  0  0  0  0  0  0  0  0
  2  1  1  0  0  0  0 
  2  3  1  0  0  0  0 
  2  4  1  0  0  0  0 
  2  5  1  0  0  0  0 
  6  3  1  0  0  0  0 
  3  7  1  0  0  0  0 
  4  8  1  0  0  0  0 
  4  9  1  0  0  0  0 
 10  5  1  0  0  0  0 
  6 11  1  0  0  0  0 
  6 12  1  0  0  0  0 
 10  7  1  0  0  0  0 
  7 13  2  0  0  0  0 
  8 12  1  0  0  0  0 
  8 14  1  0  0  0  0 
  9 15  1  0  0  0  0 
 10 16  1  0  0  0  0 
 10 17  1  0  0  0  0 
 11 18  1  0  0  0  0 
 12 19  2  0  0  0  0 
 14 15  1  0  0  0  0 
 16 20  1  0  0  0  0 
 17 21  1  0  0  0  0 
 17 22  1  0  0  0  0 
 18 23  2  0  0  0  0 
 18 24  1  0  0  0  0 
 20 25  2  0  0  0  0 
 23 27  1  0  0  0  0 
 24 28  2  0  0  0  0 
 26 20  1  0  0  0  0 
 26 29  1  0  0  0  0 
 26 30  1  0  0  0  0 
 27 31  2  0  0  0  0 
 28 31  1  0  0  0  0 
 32 29  1  0  0  0  0 
 30 33  1  0  0  0  0 
 32 34  1  0  0  0  0 
 32 35  1  0  0  0  0 
 35 33  1  0  0  0  0 
 33 36  1  0  0  0  0 
 34 37  2  0  0  0  0 
 34 38  1  0  0  0  0 
 35 39  1  0  0  0  0 
 37 40  1  0  0  0  0 
 37 41  1  0  0  0  0 
 38 42  2  0  0  0  0 
 39 40  1  0  0  0  0 
 40 43  2  0  0  0  0 
 41 44  1  0  0  0  0 
 41 45  2  0  0  0  0 
 42 45  1  0  0  0  0 
 43 44  1  0  0  0  0 
 46  1  1  0  0  0  0 
  4 47  1  0  0  0  0 
  6 48  1  0  0  0  0 
 49  9  1  0  0  0  0 
 50  9  1  0  0  0  0 
 51 11  1  0  0  0  0 
 52 11  1  0  0  0  0 
 53 14  1  0  0  0  0 
 54 14  1  0  0  0  0 
 55 15  1  0  0  0  0 
 56 15  1  0  0  0  0 
 57 16  1  0  0  0  0 
 58 17  1  0  0  0  0 
 59 21  1  0  0  0  0 
 60 21  1  0  0  0  0 
 61 21  1  0  0  0  0 
 62 22  1  0  0  0  0 
 63 22  1  0  0  0  0 
 64 22  1  0  0  0  0 
 65 23  1  0  0  0  0 
 66 24  1  0  0  0  0 
 26 67  1  0  0  0  0 
 68 27  1  0  0  0  0 
 69 28  1  0  0  0  0 
 70 29  1  0  0  0  0 
 71 29  1  0  0  0  0 
 72 30  1  0  0  0  0 
 73 30  1  0  0  0  0 
 74 31  1  0  0  0  0 
 32 75  1  0  0  0  0 
 35 76  1  0  0  0  0 
 77 36  1  0  0  0  0 
 78 36  1  0  0  0  0 
 79 36  1  0  0  0  0 
 80 38  1  0  0  0  0 
 81 39  1  0  0  0  0 
 82 39  1  0  0  0  0 
 83 42  1  0  0  0  0 
 84 43  1  0  0  0  0 
 85 44  1  0  0  0  0 
 86 45  1  0  0  0  0 
M  END
> <cdk:Title>
dihydroergocristine

> <Conformer>
1

> <SuperDrugID>
SD000789

$$$$
