clofibric acid
  CDK     0628171802

 25 25  0  0  0  0  0  0  0  0999 V2000
   -0.4747   -0.9224   -1.5974 O   0  0  0  0  0  0  0  0  0  0  0  0
   -1.6774   -1.6843   -1.9066 C   0  0  1  0  0  0  0  0  0  0  0  0
   -0.0658   -0.8330   -0.2873 C   0  0  0  0  0  0  0  0  0  0  0  0
   -1.5310   -3.1258   -1.5282 C   0  0  0  0  0  0  0  0  0  0  0  0
    0.8022   -1.8023    0.2591 C   0  0  0  0  0  0  0  0  0  0  0  0
   -0.4607    0.2617    0.5115 C   0  0  0  0  0  0  0  0  0  0  0  0
   -2.3186   -3.7091   -0.5919 O   0  0  0  0  0  0  0  0  0  0  0  0
   -0.6453   -3.8438   -2.0462 O   0  0  0  0  0  0  0  0  0  0  0  0
    1.2233   -1.7113    1.5982 C   0  0  0  0  0  0  0  0  0  0  0  0
   -0.0374    0.3568    1.8505 C   0  0  0  0  0  0  0  0  0  0  0  0
    0.7995   -0.6344    2.4007 C   0  0  0  0  0  0  0  0  0  0  0  0
    1.3059   -0.5236    4.0128 Cl  0  0  0  0  0  0  0  0  0  0  0  0
   -2.9481   -1.0405   -1.2607 C   0  0  0  0  0  0  0  0  0  0  0  0
   -1.8111   -1.5761   -3.4575 C   0  0  0  0  0  0  0  0  0  0  0  0
    1.1353   -2.5762   -0.3186 H   0  0  0  0  0  0  0  0  0  0  0  0
   -1.0558    0.9944    0.1187 H   0  0  0  0  0  0  0  0  0  0  0  0
   -2.1828   -4.6467   -0.3416 H   0  0  0  0  0  0  0  0  0  0  0  0
    1.8409   -2.4312    1.9799 H   0  0  0  0  0  0  0  0  0  0  0  0
   -0.3403    1.1512    2.4189 H   0  0  0  0  0  0  0  0  0  0  0  0
   -3.0072    0.0204   -1.5086 H   0  0  0  0  0  0  0  0  0  0  0  0
   -3.8574   -1.5281   -1.6200 H   0  0  0  0  0  0  0  0  0  0  0  0
   -2.9250   -1.1326   -0.1734 H   0  0  0  0  0  0  0  0  0  0  0  0
   -0.9082   -1.9459   -3.9508 H   0  0  0  0  0  0  0  0  0  0  0  0
   -1.9499   -0.5357   -3.7631 H   0  0  0  0  0  0  0  0  0  0  0  0
   -2.6625   -2.1563   -3.8217 H   0  0  0  0  0  0  0  0  0  0  0  0
  1  2  1  0  0  0  0 
  1  3  1  0  0  0  0 
  2  4  1  0  0  0  0 
  3  5  2  0  0  0  0 
  3  6  1  0  0  0  0 
  4  7  1  0  0  0  0 
  4  8  2  0  0  0  0 
  5  9  1  0  0  0  0 
  6 10  2  0  0  0  0 
  9 11  2  0  0  0  0 
 10 11  1  0  0  0  0 
 11 12  1  0  0  0  0 
  2 13  1  0  0  0  0 
  2 14  1  0  0  0  0 
  5 15  1  0  0  0  0 
  6 16  1  0  0  0  0 
  7 17  1  0  0  0  0 
  9 18  1  0  0  0  0 
 10 19  1  0  0  0  0 
 13 20  1  0  0  0  0 
 13 21  1  0  0  0  0 
 13 22  1  0  0  0  0 
 14 23  1  0  0  0  0 
 14 24  1  0  0  0  0 
 14 25  1  0  0  0  0 
M  END
> <cdk:Title>
clofibric acid

> <Conformer>
1

> <SuperDrugID>
SD000612

$$$$
