darifenacin
  CDK     0628171802

 62 66  0  0  0  0  0  0  0  0999 V2000
   -2.4788    2.7165   -7.3733 N   0  0  0  0  0  0  0  0  0  0  0  0
   -1.7665    1.7651   -6.6174 C   0  0  0  0  0  0  0  0  0  0  0  0
   -1.8913    1.6273   -5.3490 O   0  0  0  0  0  0  0  0  0  0  0  0
   -0.7363    0.8722   -7.2911 C   0  0  1  0  0  0  0  0  0  0  0  0
    0.6891    1.4780   -6.8567 C   0  0  2  0  0  0  0  0  0  0  0  0
    1.1159    1.3862   -5.3681 C   0  0  2  0  0  0  0  0  0  0  0  0
    0.9634    2.8024   -4.7812 C   0  0  2  0  0  0  0  0  0  0  0  0
    0.9515    3.7728   -5.9100 N   0  0  2  0  0  0  0  0  0  0  0  0
   -0.0386    4.8882   -5.7550 C   0  0  1  0  0  0  0  0  0  0  0  0
    0.0381    6.0352   -6.8089 C   0  0  1  0  0  0  0  0  0  0  0  0
   -1.2145    6.8475   -6.8197 C   0  0  0  0  0  0  0  0  0  0  0  0
   -2.3688    6.3631   -7.4919 C   0  0  0  0  0  0  0  0  0  0  0  0
   -3.5837    7.0778   -7.4687 C   0  0  0  0  0  0  0  0  0  0  0  0
   -3.6456    8.2916   -6.7666 C   0  0  0  0  0  0  0  0  0  0  0  0
   -4.7435    9.0808   -6.6573 O   0  0  0  0  0  0  0  0  0  0  0  0
   -4.3479   10.1682   -5.7976 C   0  0  2  0  0  0  0  0  0  0  0  0
   -2.8476   10.0292   -5.4414 C   0  0  2  0  0  0  0  0  0  0  0  0
   -2.5218    8.7839   -6.1132 C   0  0  0  0  0  0  0  0  0  0  0  0
   -1.2976    8.0876   -6.1379 C   0  0  0  0  0  0  0  0  0  0  0  0
    0.9132    2.9895   -7.1750 C   0  0  1  0  0  0  0  0  0  0  0  0
   -0.8710   -0.6018   -6.8935 C   0  0  0  0  0  0  0  0  0  0  0  0
    0.1663   -1.5312   -7.1881 C   0  0  0  0  0  0  0  0  0  0  0  0
    0.0705   -2.8951   -6.8572 C   0  0  0  0  0  0  0  0  0  0  0  0
   -1.0940   -3.3897   -6.2513 C   0  0  0  0  0  0  0  0  0  0  0  0
   -2.1566   -2.5160   -5.9767 C   0  0  0  0  0  0  0  0  0  0  0  0
   -2.0448   -1.1500   -6.2961 C   0  0  0  0  0  0  0  0  0  0  0  0
   -0.9470    0.8186   -8.8115 C   0  0  0  0  0  0  0  0  0  0  0  0
    0.0773    1.0549   -9.7744 C   0  0  0  0  0  0  0  0  0  0  0  0
   -0.1574    0.9675  -11.1583 C   0  0  0  0  0  0  0  0  0  0  0  0
   -1.4372    0.6541  -11.6359 C   0  0  0  0  0  0  0  0  0  0  0  0
   -2.4739    0.4071  -10.7244 C   0  0  0  0  0  0  0  0  0  0  0  0
   -2.2253    0.4746   -9.3411 C   0  0  0  0  0  0  0  0  0  0  0  0
   -2.3311    2.7942   -8.3296 H   0  0  0  0  0  0  0  0  0  0  0  0
   -3.1121    3.3056   -6.9303 H   0  0  0  0  0  0  0  0  0  0  0  0
    1.4681    0.9308   -7.3916 H   0  0  0  0  0  0  0  0  0  0  0  0
    2.1706    1.0949   -5.3003 H   0  0  0  0  0  0  0  0  0  0  0  0
    0.5383    0.6491   -4.8054 H   0  0  0  0  0  0  0  0  0  0  0  0
    1.7991    3.0275   -4.1158 H   0  0  0  0  0  0  0  0  0  0  0  0
    0.0523    2.8519   -4.1801 H   0  0  0  0  0  0  0  0  0  0  0  0
   -1.0453    4.4618   -5.7364 H   0  0  0  0  0  0  0  0  0  0  0  0
    0.1276    5.3560   -4.7795 H   0  0  0  0  0  0  0  0  0  0  0  0
    0.9043    6.6612   -6.5832 H   0  0  0  0  0  0  0  0  0  0  0  0
    0.2047    5.6455   -7.8126 H   0  0  0  0  0  0  0  0  0  0  0  0
   -2.3342    5.4813   -8.0039 H   0  0  0  0  0  0  0  0  0  0  0  0
   -4.4102    6.7217   -7.9552 H   0  0  0  0  0  0  0  0  0  0  0  0
   -4.9602   10.1485   -4.8912 H   0  0  0  0  0  0  0  0  0  0  0  0
   -4.5325   11.1139   -6.3130 H   0  0  0  0  0  0  0  0  0  0  0  0
   -2.6988    9.9317   -4.3640 H   0  0  0  0  0  0  0  0  0  0  0  0
   -2.2550   10.8616   -5.8310 H   0  0  0  0  0  0  0  0  0  0  0  0
   -0.4850    8.4729   -5.6522 H   0  0  0  0  0  0  0  0  0  0  0  0
    1.8905    3.1239   -7.6498 H   0  0  0  0  0  0  0  0  0  0  0  0
    0.1658    3.3549   -7.8828 H   0  0  0  0  0  0  0  0  0  0  0  0
    1.0139   -1.2327   -7.6672 H   0  0  0  0  0  0  0  0  0  0  0  0
    0.8461   -3.5290   -7.0657 H   0  0  0  0  0  0  0  0  0  0  0  0
   -1.1721   -4.3841   -6.0205 H   0  0  0  0  0  0  0  0  0  0  0  0
   -3.0150   -2.8784   -5.5524 H   0  0  0  0  0  0  0  0  0  0  0  0
   -2.8592   -0.5679   -6.0971 H   0  0  0  0  0  0  0  0  0  0  0  0
    1.0285    1.2882   -9.5016 H   0  0  0  0  0  0  0  0  0  0  0  0
    0.6074    1.1309  -11.8177 H   0  0  0  0  0  0  0  0  0  0  0  0
   -1.6111    0.6050  -12.6425 H   0  0  0  0  0  0  0  0  0  0  0  0
   -3.4084    0.1745  -11.0677 H   0  0  0  0  0  0  0  0  0  0  0  0
   -3.0040    0.2663   -8.7126 H   0  0  0  0  0  0  0  0  0  0  0  0
  1  2  1  0  0  0  0 
  2  3  2  0  0  0  0 
  2  4  1  0  0  0  0 
  5  4  1  0  0  0  0 
  5  6  1  0  0  0  0 
  6  7  1  0  0  0  0 
  7  8  1  0  0  0  0 
  8  9  1  0  0  0  0 
  9 10  1  0  0  0  0 
 10 11  1  0  0  0  0 
 11 12  2  0  0  0  0 
 12 13  1  0  0  0  0 
 13 14  2  0  0  0  0 
 14 15  1  0  0  0  0 
 15 16  1  0  0  0  0 
 16 17  1  0  0  0  0 
 17 18  1  0  0  0  0 
 14 18  1  0  0  0  0 
 18 19  2  0  0  0  0 
 11 19  1  0  0  0  0 
  8 20  1  0  0  0  0 
  5 20  1  0  0  0  0 
  4 21  1  0  0  0  0 
 21 22  2  0  0  0  0 
 22 23  1  0  0  0  0 
 23 24  2  0  0  0  0 
 24 25  1  0  0  0  0 
 25 26  2  0  0  0  0 
 21 26  1  0  0  0  0 
  4 27  1  0  0  0  0 
 27 28  2  0  0  0  0 
 28 29  1  0  0  0  0 
 29 30  2  0  0  0  0 
 30 31  1  0  0  0  0 
 31 32  2  0  0  0  0 
 27 32  1  0  0  0  0 
  1 33  1  0  0  0  0 
  1 34  1  0  0  0  0 
  5 35  1  0  0  0  0 
  6 36  1  0  0  0  0 
  6 37  1  0  0  0  0 
  7 38  1  0  0  0  0 
  7 39  1  0  0  0  0 
  9 40  1  0  0  0  0 
  9 41  1  0  0  0  0 
 10 42  1  0  0  0  0 
 10 43  1  0  0  0  0 
 12 44  1  0  0  0  0 
 13 45  1  0  0  0  0 
 16 46  1  0  0  0  0 
 16 47  1  0  0  0  0 
 17 48  1  0  0  0  0 
 17 49  1  0  0  0  0 
 19 50  1  0  0  0  0 
 20 51  1  0  0  0  0 
 20 52  1  0  0  0  0 
 22 53  1  0  0  0  0 
 23 54  1  0  0  0  0 
 24 55  1  0  0  0  0 
 25 56  1  0  0  0  0 
 26 57  1  0  0  0  0 
 28 58  1  0  0  0  0 
 29 59  1  0  0  0  0 
 30 60  1  0  0  0  0 
 31 61  1  0  0  0  0 
 32 62  1  0  0  0  0 
M  END
> <cdk:Title>
darifenacin

> <Conformer>
1

> <SuperDrugID>
SD000691

$$$$
