bopindolol
  CDK     0628171801

 56 58  0  0  0  0  0  0  0  0999 V2000
   -2.1960   -2.3394    2.2243 O   0  0  0  0  0  0  0  0  0  0  0  0
   -2.1129   -3.5771    1.4883 C   0  0  1  0  0  0  0  0  0  0  0  0
   -3.0367   -2.3989    3.3008 C   0  0  0  0  0  0  0  0  0  0  0  0
   -1.4983   -3.3037    0.0912 C   0  0  2  0  0  0  0  0  0  0  0  0
   -4.4114   -2.1346    3.1483 C   0  0  0  0  0  0  0  0  0  0  0  0
   -2.5577   -2.6966    4.5968 C   0  0  0  0  0  0  0  0  0  0  0  0
   -2.3322   -2.3124   -0.5403 O   0  0  0  0  0  0  0  0  0  0  0  0
   -1.4352   -4.5969   -0.7599 C   0  0  2  0  0  0  0  0  0  0  0  0
   -5.2850   -2.1799    4.2316 C   0  0  0  0  0  0  0  0  0  0  0  0
   -5.1664   -1.7999    2.0309 C   0  0  0  0  0  0  0  0  0  0  0  0
   -3.4420   -2.7357    5.6993 C   0  0  0  0  0  0  0  0  0  0  0  0
   -2.0797   -0.9736   -0.6965 C   0  0  0  0  0  0  0  0  0  0  0  0
   -0.6219   -4.3663   -1.9758 N   0  0  1  0  0  0  0  0  0  0  0  0
   -6.5205   -1.8900    3.7937 N   0  0  0  0  0  0  0  0  0  0  0  0
   -4.8192   -2.4770    5.5236 C   0  0  0  0  0  0  0  0  0  0  0  0
   -6.4836   -1.6549    2.4671 C   0  0  0  0  0  0  0  0  0  0  0  0
   -0.9659   -0.5134   -0.3473 O   0  0  0  0  0  0  0  0  0  0  0  0
   -3.0830   -0.1107   -1.2171 C   0  0  0  0  0  0  0  0  0  0  0  0
   -0.2980   -5.5170   -2.8719 C   0  0  2  0  0  0  0  0  0  0  0  0
   -7.6390   -1.3020    1.6314 C   0  0  0  0  0  0  0  0  0  0  0  0
   -2.9861    1.2976   -1.0674 C   0  0  0  0  0  0  0  0  0  0  0  0
   -4.2293   -0.6327   -1.8679 C   0  0  0  0  0  0  0  0  0  0  0  0
   -1.5849   -6.1046   -3.5314 C   0  0  0  0  0  0  0  0  0  0  0  0
    0.4877   -6.6329   -2.1112 C   0  0  0  0  0  0  0  0  0  0  0  0
    0.6189   -4.9208   -3.9845 C   0  0  0  0  0  0  0  0  0  0  0  0
   -3.9860    2.1534   -1.5638 C   0  0  0  0  0  0  0  0  0  0  0  0
   -5.2340    0.2237   -2.3574 C   0  0  0  0  0  0  0  0  0  0  0  0
   -5.1107    1.6168   -2.2128 C   0  0  0  0  0  0  0  0  0  0  0  0
   -1.4844   -4.2794    2.0423 H   0  0  0  0  0  0  0  0  0  0  0  0
   -3.1018   -4.0260    1.3414 H   0  0  0  0  0  0  0  0  0  0  0  0
   -0.4771   -2.9327    0.2291 H   0  0  0  0  0  0  0  0  0  0  0  0
   -1.5631   -2.8819    4.7389 H   0  0  0  0  0  0  0  0  0  0  0  0
   -2.4497   -4.9059   -1.0259 H   0  0  0  0  0  0  0  0  0  0  0  0
   -0.9818   -5.3812   -0.1524 H   0  0  0  0  0  0  0  0  0  0  0  0
   -4.8235   -1.6826    1.0756 H   0  0  0  0  0  0  0  0  0  0  0  0
   -3.0807   -2.9482    6.6314 H   0  0  0  0  0  0  0  0  0  0  0  0
   -1.1275   -3.6764   -2.5352 H   0  0  0  0  0  0  0  0  0  0  0  0
   -7.3161   -1.8450    4.3457 H   0  0  0  0  0  0  0  0  0  0  0  0
   -5.4624   -2.4970    6.3178 H   0  0  0  0  0  0  0  0  0  0  0  0
   -7.7666   -2.0442    0.8429 H   0  0  0  0  0  0  0  0  0  0  0  0
   -8.5470   -1.2719    2.2355 H   0  0  0  0  0  0  0  0  0  0  0  0
   -7.4853   -0.3211    1.1787 H   0  0  0  0  0  0  0  0  0  0  0  0
   -2.1927    1.7222   -0.5825 H   0  0  0  0  0  0  0  0  0  0  0  0
   -4.3507   -1.6409   -1.9941 H   0  0  0  0  0  0  0  0  0  0  0  0
   -2.1579   -5.3172   -4.0281 H   0  0  0  0  0  0  0  0  0  0  0  0
   -2.2297   -6.5758   -2.7874 H   0  0  0  0  0  0  0  0  0  0  0  0
   -1.3277   -6.8634   -4.2751 H   0  0  0  0  0  0  0  0  0  0  0  0
   -0.1588   -7.1646   -1.4106 H   0  0  0  0  0  0  0  0  0  0  0  0
    0.8902   -7.3723   -2.8067 H   0  0  0  0  0  0  0  0  0  0  0  0
    1.3187   -6.2010   -1.5478 H   0  0  0  0  0  0  0  0  0  0  0  0
    0.9252   -5.6930   -4.6944 H   0  0  0  0  0  0  0  0  0  0  0  0
    0.0959   -4.1374   -4.5395 H   0  0  0  0  0  0  0  0  0  0  0  0
    1.5204   -4.4813   -3.5490 H   0  0  0  0  0  0  0  0  0  0  0  0
   -3.8923    3.1662   -1.4502 H   0  0  0  0  0  0  0  0  0  0  0  0
   -6.0559   -0.1666   -2.8235 H   0  0  0  0  0  0  0  0  0  0  0  0
   -5.8363    2.2393   -2.5793 H   0  0  0  0  0  0  0  0  0  0  0  0
  1  2  1  0  0  0  0 
  1  3  1  0  0  0  0 
  4  2  1  0  0  0  0 
  3  5  2  0  0  0  0 
  3  6  1  0  0  0  0 
  4  7  1  0  0  0  0 
  4  8  1  0  0  0  0 
  5  9  1  0  0  0  0 
  5 10  1  0  0  0  0 
  6 11  2  0  0  0  0 
  7 12  1  0  0  0  0 
  8 13  1  0  0  0  0 
  9 14  1  0  0  0  0 
  9 15  2  0  0  0  0 
 10 16  2  0  0  0  0 
 11 15  1  0  0  0  0 
 12 17  2  0  0  0  0 
 12 18  1  0  0  0  0 
 13 19  1  0  0  0  0 
 14 16  1  0  0  0  0 
 16 20  1  0  0  0  0 
 18 21  2  0  0  0  0 
 18 22  1  0  0  0  0 
 19 23  1  0  0  0  0 
 19 24  1  0  0  0  0 
 19 25  1  0  0  0  0 
 21 26  1  0  0  0  0 
 22 27  2  0  0  0  0 
 26 28  2  0  0  0  0 
 27 28  1  0  0  0  0 
  2 29  1  0  0  0  0 
  2 30  1  0  0  0  0 
  4 31  1  0  0  0  0 
  6 32  1  0  0  0  0 
  8 33  1  0  0  0  0 
  8 34  1  0  0  0  0 
 10 35  1  0  0  0  0 
 11 36  1  0  0  0  0 
 13 37  1  0  0  0  0 
 14 38  1  0  0  0  0 
 15 39  1  0  0  0  0 
 20 40  1  0  0  0  0 
 20 41  1  0  0  0  0 
 20 42  1  0  0  0  0 
 21 43  1  0  0  0  0 
 22 44  1  0  0  0  0 
 23 45  1  0  0  0  0 
 23 46  1  0  0  0  0 
 23 47  1  0  0  0  0 
 24 48  1  0  0  0  0 
 24 49  1  0  0  0  0 
 24 50  1  0  0  0  0 
 25 51  1  0  0  0  0 
 25 52  1  0  0  0  0 
 25 53  1  0  0  0  0 
 26 54  1  0  0  0  0 
 27 55  1  0  0  0  0 
 28 56  1  0  0  0  0 
M  END
> <cdk:Title>
bopindolol

> <Conformer>
1

> <SuperDrugID>
SD000331

$$$$
