aripiprazole lauroxil
  CDK     0628171802

 96 99  0  0  0  0  0  0  0  0999 V2000
    5.1118    5.2756  -16.8808 O   0  0  0  0  0  0  0  0  0  0  0  0
    4.8620    6.4067  -16.0207 C   0  0  1  0  0  0  0  0  0  0  0  0
    4.0357    4.4288  -16.9875 C   0  0  0  0  0  0  0  0  0  0  0  0
    6.0742    7.3678  -16.0644 C   0  0  2  0  0  0  0  0  0  0  0  0
    2.9928    4.7124  -17.8938 C   0  0  0  0  0  0  0  0  0  0  0  0
    3.9804    3.2504  -16.2236 C   0  0  0  0  0  0  0  0  0  0  0  0
    5.8524    8.6298  -15.1865 C   0  0  1  0  0  0  0  0  0  0  0  0
    1.8759    3.8494  -18.0633 C   0  0  0  0  0  0  0  0  0  0  0  0
    2.8926    2.3740  -16.3589 C   0  0  0  0  0  0  0  0  0  0  0  0
    7.0620    9.6051  -15.1486 C   0  0  2  0  0  0  0  0  0  0  0  0
    1.8480    2.6633  -17.2670 C   0  0  0  0  0  0  0  0  0  0  0  0
    0.8136    4.1302  -18.9478 N   0  0  0  0  0  0  0  0  0  0  0  0
    8.3861    8.9842  -14.8138 N   0  0  1  0  0  0  0  0  0  0  0  0
    0.7018    1.7261  -17.4030 C   0  0  2  0  0  0  0  0  0  0  0  0
   -0.4025    3.4684  -18.7749 C   0  0  0  0  0  0  0  0  0  0  0  0
    9.5205    9.9274  -15.0081 C   0  0  2  0  0  0  0  0  0  0  0  0
    8.4949    8.4153  -13.4426 C   0  0  1  0  0  0  0  0  0  0  0  0
   -0.6019    2.5126  -17.6602 C   0  0  2  0  0  0  0  0  0  0  0  0
   -1.4030    3.6551  -19.5084 O   0  0  0  0  0  0  0  0  0  0  0  0
   10.8963    9.2297  -14.8192 C   0  0  2  0  0  0  0  0  0  0  0  0
    9.7939    7.5787  -13.3251 C   0  0  2  0  0  0  0  0  0  0  0  0
   11.0266    8.1058  -13.8887 N   0  0  0  0  0  0  0  0  0  0  0  0
   12.3081    7.5174  -13.6207 C   0  0  0  0  0  0  0  0  0  0  0  0
   12.5679    6.3012  -12.8819 C   0  0  0  0  0  0  0  0  0  0  0  0
   13.4827    8.1681  -14.1145 C   0  0  0  0  0  0  0  0  0  0  0  0
   11.3764    5.1781  -12.4067 Cl  0  0  0  0  0  0  0  0  0  0  0  0
   13.8948    5.9138  -12.5316 C   0  0  0  0  0  0  0  0  0  0  0  0
   14.7886    7.7631  -13.8088 C   0  0  0  0  0  0  0  0  0  0  0  0
   14.2814    4.5637  -11.5664 Cl  0  0  0  0  0  0  0  0  0  0  0  0
   14.9937    6.6542  -12.9915 C   0  0  0  0  0  0  0  0  0  0  0  0
    0.9810    5.1184  -20.0078 C   0  0  2  0  0  0  0  0  0  0  0  0
    0.0369    5.0985  -21.1000 O   0  0  0  0  0  0  0  0  0  0  0  0
    0.2885    4.8755  -22.4287 C   0  0  0  0  0  0  0  0  0  0  0  0
    1.4376    4.5755  -22.8270 O   0  0  0  0  0  0  0  0  0  0  0  0
   -0.8157    4.9707  -23.4082 C   0  0  1  0  0  0  0  0  0  0  0  0
   -1.3174    6.4246  -23.6210 C   0  0  1  0  0  0  0  0  0  0  0  0
   -2.4688    6.5063  -24.6634 C   0  0  2  0  0  0  0  0  0  0  0  0
   -2.9866    7.9530  -24.8779 C   0  0  1  0  0  0  0  0  0  0  0  0
   -4.1767    8.0267  -25.8724 C   0  0  1  0  0  0  0  0  0  0  0  0
   -4.6658    9.4826  -26.1010 C   0  0  2  0  0  0  0  0  0  0  0  0
   -5.8478    9.5723  -27.1017 C   0  0  1  0  0  0  0  0  0  0  0  0
   -6.3119   11.0322  -27.3520 C   0  0  2  0  0  0  0  0  0  0  0  0
   -7.4824   11.1116  -28.3683 C   0  0  1  0  0  0  0  0  0  0  0  0
   -7.9608   12.5638  -28.6382 C   0  0  1  0  0  0  0  0  0  0  0  0
   -9.1283   12.6281  -29.6487 C   0  0  0  0  0  0  0  0  0  0  0  0
    3.9734    6.9561  -16.3464 H   0  0  0  0  0  0  0  0  0  0  0  0
    4.7065    6.0672  -14.9926 H   0  0  0  0  0  0  0  0  0  0  0  0
    6.2440    7.6781  -17.1003 H   0  0  0  0  0  0  0  0  0  0  0  0
    6.9609    6.8280  -15.7203 H   0  0  0  0  0  0  0  0  0  0  0  0
    3.0669    5.5797  -18.4234 H   0  0  0  0  0  0  0  0  0  0  0  0
    4.7309    3.0300  -15.5675 H   0  0  0  0  0  0  0  0  0  0  0  0
    4.9880    9.1770  -15.5768 H   0  0  0  0  0  0  0  0  0  0  0  0
    5.6020    8.3271  -14.1674 H   0  0  0  0  0  0  0  0  0  0  0  0
    2.8687    1.5217  -15.7926 H   0  0  0  0  0  0  0  0  0  0  0  0
    6.8358   10.4076  -14.4398 H   0  0  0  0  0  0  0  0  0  0  0  0
    7.1260   10.0604  -16.1417 H   0  0  0  0  0  0  0  0  0  0  0  0
    0.5718    1.1111  -16.5066 H   0  0  0  0  0  0  0  0  0  0  0  0
    0.8975    1.0562  -18.2446 H   0  0  0  0  0  0  0  0  0  0  0  0
    9.4358   10.7644  -14.3027 H   0  0  0  0  0  0  0  0  0  0  0  0
    9.4936   10.3573  -16.0147 H   0  0  0  0  0  0  0  0  0  0  0  0
    8.4909    9.2066  -12.6837 H   0  0  0  0  0  0  0  0  0  0  0  0
    7.6546    7.7520  -13.2246 H   0  0  0  0  0  0  0  0  0  0  0  0
   -0.8704    3.0860  -16.7691 H   0  0  0  0  0  0  0  0  0  0  0  0
   -1.4120    1.8091  -17.8689 H   0  0  0  0  0  0  0  0  0  0  0  0
   11.5605   10.0387  -14.5054 H   0  0  0  0  0  0  0  0  0  0  0  0
   11.2234    8.8751  -15.8011 H   0  0  0  0  0  0  0  0  0  0  0  0
    9.5889    6.6293  -13.8272 H   0  0  0  0  0  0  0  0  0  0  0  0
    9.9275    7.4108  -12.2546 H   0  0  0  0  0  0  0  0  0  0  0  0
   13.4380    8.9778  -14.7266 H   0  0  0  0  0  0  0  0  0  0  0  0
   15.5885    8.2820  -14.1787 H   0  0  0  0  0  0  0  0  0  0  0  0
   15.9521    6.3862  -12.7509 H   0  0  0  0  0  0  0  0  0  0  0  0
    1.9882    5.0342  -20.4235 H   0  0  0  0  0  0  0  0  0  0  0  0
    0.9008    6.1064  -19.5537 H   0  0  0  0  0  0  0  0  0  0  0  0
   -0.4769    4.5788  -24.3702 H   0  0  0  0  0  0  0  0  0  0  0  0
   -1.6414    4.3432  -23.0636 H   0  0  0  0  0  0  0  0  0  0  0  0
   -1.6739    6.8269  -22.6672 H   0  0  0  0  0  0  0  0  0  0  0  0
   -0.4837    7.0483  -23.9631 H   0  0  0  0  0  0  0  0  0  0  0  0
   -3.2994    5.8795  -24.3278 H   0  0  0  0  0  0  0  0  0  0  0  0
   -2.1151    6.1166  -25.6219 H   0  0  0  0  0  0  0  0  0  0  0  0
   -3.3047    8.3657  -23.9170 H   0  0  0  0  0  0  0  0  0  0  0  0
   -2.1670    8.5683  -25.2583 H   0  0  0  0  0  0  0  0  0  0  0  0
   -3.8689    7.5963  -26.8305 H   0  0  0  0  0  0  0  0  0  0  0  0
   -5.0069    7.4290  -25.4833 H   0  0  0  0  0  0  0  0  0  0  0  0
   -3.8314   10.0801  -26.4802 H   0  0  0  0  0  0  0  0  0  0  0  0
   -4.9797    9.9051  -25.1418 H   0  0  0  0  0  0  0  0  0  0  0  0
   -5.5409    9.1286  -28.0525 H   0  0  0  0  0  0  0  0  0  0  0  0
   -6.6874    8.9917  -26.7097 H   0  0  0  0  0  0  0  0  0  0  0  0
   -5.4691   11.6143  -27.7347 H   0  0  0  0  0  0  0  0  0  0  0  0
   -6.6294   11.4753  -26.4040 H   0  0  0  0  0  0  0  0  0  0  0  0
   -7.1604   10.6655  -29.3141 H   0  0  0  0  0  0  0  0  0  0  0  0
   -8.3245   10.5274  -27.9853 H   0  0  0  0  0  0  0  0  0  0  0  0
   -8.2875   13.0192  -27.6988 H   0  0  0  0  0  0  0  0  0  0  0  0
   -7.1275   13.1546  -29.0299 H   0  0  0  0  0  0  0  0  0  0  0  0
   -9.4274   13.6659  -29.8021 H   0  0  0  0  0  0  0  0  0  0  0  0
   -8.8249   12.2083  -30.6093 H   0  0  0  0  0  0  0  0  0  0  0  0
   -9.9878   12.0705  -29.2733 H   0  0  0  0  0  0  0  0  0  0  0  0
  1  2  1  0  0  0  0 
  1  3  1  0  0  0  0 
  2  4  1  0  0  0  0 
  3  5  2  0  0  0  0 
  3  6  1  0  0  0  0 
  4  7  1  0  0  0  0 
  5  8  1  0  0  0  0 
  6  9  2  0  0  0  0 
  7 10  1  0  0  0  0 
  8 11  2  0  0  0  0 
  8 12  1  0  0  0  0 
  9 11  1  0  0  0  0 
 10 13  1  0  0  0  0 
 11 14  1  0  0  0  0 
 12 15  1  0  0  0  0 
 13 16  1  0  0  0  0 
 13 17  1  0  0  0  0 
 14 18  1  0  0  0  0 
 15 18  1  0  0  0  0 
 15 19  2  0  0  0  0 
 16 20  1  0  0  0  0 
 17 21  1  0  0  0  0 
 20 22  1  0  0  0  0 
 21 22  1  0  0  0  0 
 22 23  1  0  0  0  0 
 23 24  2  0  0  0  0 
 23 25  1  0  0  0  0 
 24 26  1  0  0  0  0 
 24 27  1  0  0  0  0 
 25 28  2  0  0  0  0 
 27 29  1  0  0  0  0 
 27 30  2  0  0  0  0 
 28 30  1  0  0  0  0 
 12 31  1  0  0  0  0 
 31 32  1  0  0  0  0 
 32 33  1  0  0  0  0 
 33 34  2  0  0  0  0 
 33 35  1  0  0  0  0 
 35 36  1  0  0  0  0 
 36 37  1  0  0  0  0 
 37 38  1  0  0  0  0 
 38 39  1  0  0  0  0 
 39 40  1  0  0  0  0 
 40 41  1  0  0  0  0 
 41 42  1  0  0  0  0 
 42 43  1  0  0  0  0 
 43 44  1  0  0  0  0 
 44 45  1  0  0  0  0 
  2 46  1  0  0  0  0 
  2 47  1  0  0  0  0 
  4 48  1  0  0  0  0 
  4 49  1  0  0  0  0 
  5 50  1  0  0  0  0 
  6 51  1  0  0  0  0 
  7 52  1  0  0  0  0 
  7 53  1  0  0  0  0 
  9 54  1  0  0  0  0 
 10 55  1  0  0  0  0 
 10 56  1  0  0  0  0 
 14 57  1  0  0  0  0 
 14 58  1  0  0  0  0 
 16 59  1  0  0  0  0 
 16 60  1  0  0  0  0 
 17 61  1  0  0  0  0 
 17 62  1  0  0  0  0 
 18 63  1  0  0  0  0 
 18 64  1  0  0  0  0 
 20 65  1  0  0  0  0 
 20 66  1  0  0  0  0 
 21 67  1  0  0  0  0 
 21 68  1  0  0  0  0 
 25 69  1  0  0  0  0 
 28 70  1  0  0  0  0 
 30 71  1  0  0  0  0 
 31 72  1  0  0  0  0 
 31 73  1  0  0  0  0 
 35 74  1  0  0  0  0 
 35 75  1  0  0  0  0 
 36 76  1  0  0  0  0 
 36 77  1  0  0  0  0 
 37 78  1  0  0  0  0 
 37 79  1  0  0  0  0 
 38 80  1  0  0  0  0 
 38 81  1  0  0  0  0 
 39 82  1  0  0  0  0 
 39 83  1  0  0  0  0 
 40 84  1  0  0  0  0 
 40 85  1  0  0  0  0 
 41 86  1  0  0  0  0 
 41 87  1  0  0  0  0 
 42 88  1  0  0  0  0 
 42 89  1  0  0  0  0 
 43 90  1  0  0  0  0 
 43 91  1  0  0  0  0 
 44 92  1  0  0  0  0 
 44 93  1  0  0  0  0 
 45 94  1  0  0  0  0 
 45 95  1  0  0  0  0 
 45 96  1  0  0  0  0 
M  END
> <cdk:Title>
aripiprazole lauroxil

> <Conformer>
1

> <SuperDrugID>
SD003887

$$$$
