metisazone
  CDK     0628171801

 26 27  0  0  0  0  0  0  0  0999 V2000
   -0.8691    1.6484    0.7711 N   0  0  0  0  0  0  0  0  0  0  0  0
   -0.3494    0.4980    0.9067 N   0  0  0  0  0  0  0  0  0  0  0  0
   -1.8821    2.1394    1.3915 C   0  0  0  0  0  0  0  0  0  0  0  0
    0.6913    0.0799    0.1968 C   0  0  0  0  0  0  0  0  0  0  0  0
   -2.3848    3.3869    1.1556 C   0  0  0  0  0  0  0  0  0  0  0  0
   -2.6867    1.5786    2.3608 C   0  0  0  0  0  0  0  0  0  0  0  0
    1.1352   -1.1374    0.4117 N   0  0  0  0  0  0  0  0  0  0  0  0
    1.4913    1.0296   -0.9712 S   0  0  0  0  0  0  0  0  0  0  0  0
   -3.5358    3.5454    1.9291 C   0  0  0  0  0  0  0  0  0  0  0  0
   -1.9316    4.4217    0.3128 C   0  0  0  0  0  0  0  0  0  0  0  0
   -2.5098    0.4497    2.8748 O   0  0  0  0  0  0  0  0  0  0  0  0
   -3.7044    2.4299    2.6742 N   0  0  0  0  0  0  0  0  0  0  0  0
   -4.2960    4.7302    1.8562 C   0  0  0  0  0  0  0  0  0  0  0  0
   -2.6747    5.6190    0.2513 C   0  0  0  0  0  0  0  0  0  0  0  0
   -4.7667    2.2105    3.6112 C   0  0  0  0  0  0  0  0  0  0  0  0
   -3.8509    5.7716    1.0162 C   0  0  0  0  0  0  0  0  0  0  0  0
   -0.7296   -0.1121    1.5590 H   0  0  0  0  0  0  0  0  0  0  0  0
    1.8824   -1.4888   -0.0985 H   0  0  0  0  0  0  0  0  0  0  0  0
    0.7128   -1.6922    1.0844 H   0  0  0  0  0  0  0  0  0  0  0  0
   -1.0762    4.3165   -0.2382 H   0  0  0  0  0  0  0  0  0  0  0  0
   -5.1508    4.8366    2.4056 H   0  0  0  0  0  0  0  0  0  0  0  0
   -2.3600    6.3838   -0.3493 H   0  0  0  0  0  0  0  0  0  0  0  0
   -5.7144    2.1621    3.0717 H   0  0  0  0  0  0  0  0  0  0  0  0
   -4.8163    3.0288    4.3335 H   0  0  0  0  0  0  0  0  0  0  0  0
   -4.6373    1.2790    4.1644 H   0  0  0  0  0  0  0  0  0  0  0  0
   -4.3809    6.6438    0.9663 H   0  0  0  0  0  0  0  0  0  0  0  0
  1  2  1  0  0  0  0 
  1  3  2  0  0  0  0 
  2  4  1  0  0  0  0 
  3  5  1  0  0  0  0 
  3  6  1  0  0  0  0 
  4  7  1  0  0  0  0 
  4  8  2  0  0  0  0 
  5  9  2  0  0  0  0 
  5 10  1  0  0  0  0 
  6 11  2  0  0  0  0 
  6 12  1  0  0  0  0 
  9 12  1  0  0  0  0 
  9 13  1  0  0  0  0 
 10 14  2  0  0  0  0 
 12 15  1  0  0  0  0 
 13 16  2  0  0  0  0 
 14 16  1  0  0  0  0 
 17  2  1  0  0  0  0 
 18  7  1  0  0  0  0 
 19  7  1  0  0  0  0 
 20 10  1  0  0  0  0 
 21 13  1  0  0  0  0 
 22 14  1  0  0  0  0 
 23 15  1  0  0  0  0 
 24 15  1  0  0  0  0 
 25 15  1  0  0  0  0 
 26 16  1  0  0  0  0 
M  END
> <cdk:Title>
metisazone

> <Conformer>
1

> <SuperDrugID>
SD001546

$$$$
