furfenorex
  CDK     0628171801

 36 37  0  0  0  0  0  0  0  0999 V2000
    4.7426    0.0211    1.7656 C   0  0  2  0  0  0  0  0  0  0  0  0
    3.6625    0.9494    2.4276 C   0  0  2  0  0  0  0  0  0  0  0  0
    4.8952   -1.3395    2.3608 C   0  0  0  0  0  0  0  0  0  0  0  0
    3.4240    2.1970    1.5885 N   0  0  1  0  0  0  0  0  0  0  0  0
    4.0808    1.2418    3.9043 C   0  0  0  0  0  0  0  0  0  0  0  0
    3.8586   -2.2962    2.2332 C   0  0  0  0  0  0  0  0  0  0  0  0
    6.0860   -1.7217    3.0273 C   0  0  0  0  0  0  0  0  0  0  0  0
    2.8327    1.9943    0.2169 C   0  0  2  0  0  0  0  0  0  0  0  0
    2.8674    3.4085    2.2760 C   0  0  0  0  0  0  0  0  0  0  0  0
    4.0101   -3.5967    2.7491 C   0  0  0  0  0  0  0  0  0  0  0  0
    6.2377   -3.0231    3.5410 C   0  0  0  0  0  0  0  0  0  0  0  0
    1.5631    1.2381    0.1761 C   0  0  0  0  0  0  0  0  0  0  0  0
    5.2004   -3.9616    3.4029 C   0  0  0  0  0  0  0  0  0  0  0  0
    1.3224    0.0769   -0.5554 C   0  0  0  0  0  0  0  0  0  0  0  0
    0.4315    1.5770    0.8432 O   0  0  0  0  0  0  0  0  0  0  0  0
    0.0056   -0.2850   -0.3276 C   0  0  0  0  0  0  0  0  0  0  0  0
   -0.5189    0.6583    0.5460 C   0  0  0  0  0  0  0  0  0  0  0  0
    5.6973    0.5553    1.7778 H   0  0  0  0  0  0  0  0  0  0  0  0
    4.5075   -0.1520    0.7163 H   0  0  0  0  0  0  0  0  0  0  0  0
    2.7190    0.4010    2.4866 H   0  0  0  0  0  0  0  0  0  0  0  0
    4.2737    0.3217    4.4578 H   0  0  0  0  0  0  0  0  0  0  0  0
    3.2810    1.7593    4.4351 H   0  0  0  0  0  0  0  0  0  0  0  0
    4.9810    1.8601    3.9292 H   0  0  0  0  0  0  0  0  0  0  0  0
    2.9885   -2.0548    1.7512 H   0  0  0  0  0  0  0  0  0  0  0  0
    6.8541   -1.0555    3.1411 H   0  0  0  0  0  0  0  0  0  0  0  0
    3.5706    1.5036   -0.4175 H   0  0  0  0  0  0  0  0  0  0  0  0
    2.6455    2.9545   -0.2695 H   0  0  0  0  0  0  0  0  0  0  0  0
    3.5353    3.7448    3.0688 H   0  0  0  0  0  0  0  0  0  0  0  0
    2.7749    4.2563    1.5930 H   0  0  0  0  0  0  0  0  0  0  0  0
    1.8860    3.1991    2.7046 H   0  0  0  0  0  0  0  0  0  0  0  0
    3.2561   -4.2794    2.6456 H   0  0  0  0  0  0  0  0  0  0  0  0
    7.1050   -3.2890    4.0135 H   0  0  0  0  0  0  0  0  0  0  0  0
    5.3120   -4.9072    3.7755 H   0  0  0  0  0  0  0  0  0  0  0  0
    1.9864   -0.4162   -1.1533 H   0  0  0  0  0  0  0  0  0  0  0  0
   -0.4844   -1.0871   -0.7298 H   0  0  0  0  0  0  0  0  0  0  0  0
   -1.4752    0.6628    0.9048 H   0  0  0  0  0  0  0  0  0  0  0  0
  2  1  1  0  0  0  0 
  1  3  1  0  0  0  0 
  2  4  1  0  0  0  0 
  2  5  1  0  0  0  0 
  3  6  2  0  0  0  0 
  3  7  1  0  0  0  0 
  4  8  1  0  0  0  0 
  4  9  1  0  0  0  0 
  6 10  1  0  0  0  0 
  7 11  2  0  0  0  0 
  8 12  1  0  0  0  0 
 10 13  2  0  0  0  0 
 11 13  1  0  0  0  0 
 12 14  2  0  0  0  0 
 12 15  1  0  0  0  0 
 14 16  1  0  0  0  0 
 15 17  1  0  0  0  0 
 16 17  2  0  0  0  0 
  1 18  1  0  0  0  0 
  1 19  1  0  0  0  0 
  2 20  1  0  0  0  0 
  5 21  1  0  0  0  0 
  5 22  1  0  0  0  0 
  5 23  1  0  0  0  0 
  6 24  1  0  0  0  0 
  7 25  1  0  0  0  0 
  8 26  1  0  0  0  0 
  8 27  1  0  0  0  0 
  9 28  1  0  0  0  0 
  9 29  1  0  0  0  0 
  9 30  1  0  0  0  0 
 10 31  1  0  0  0  0 
 11 32  1  0  0  0  0 
 13 33  1  0  0  0  0 
 14 34  1  0  0  0  0 
 16 35  1  0  0  0  0 
 17 36  1  0  0  0  0 
M  END
> <cdk:Title>
furfenorex

> <Conformer>
1

> <SuperDrugID>
SD003207

$$$$
