tymazoline
  CDK     0628171801

 37 38  0  0  0  0  0  0  0  0999 V2000
   -1.8139    2.4148    1.5280 O   0  0  0  0  0  0  0  0  0  0  0  0
   -1.2281    1.2611    0.8812 C   0  0  2  0  0  0  0  0  0  0  0  0
   -1.0425    3.5543    1.5383 C   0  0  0  0  0  0  0  0  0  0  0  0
   -0.9886    1.4246   -0.5385 C   0  0  0  0  0  0  0  0  0  0  0  0
   -0.0509    3.8054    2.5270 C   0  0  0  0  0  0  0  0  0  0  0  0
   -1.3064    4.5160    0.5395 C   0  0  0  0  0  0  0  0  0  0  0  0
   -1.8949    1.7134   -1.3934 N   0  0  0  0  0  0  0  0  0  0  0  0
    0.1817    1.3083   -1.1179 N   0  0  0  0  0  0  0  0  0  0  0  0
    0.1995    2.8667    3.6737 C   0  0  2  0  0  0  0  0  0  0  0  0
    0.6962    5.0073    2.4269 C   0  0  0  0  0  0  0  0  0  0  0  0
   -0.5847    5.7270    0.4745 C   0  0  0  0  0  0  0  0  0  0  0  0
   -1.3925    1.8303   -2.6784 C   0  0  2  0  0  0  0  0  0  0  0  0
    0.1023    1.4885   -2.5114 C   0  0  1  0  0  0  0  0  0  0  0  0
   -0.1599    3.5290    5.0331 C   0  0  0  0  0  0  0  0  0  0  0  0
    1.6488    2.3034    3.6844 C   0  0  0  0  0  0  0  0  0  0  0  0
    0.4354    5.9524    1.4207 C   0  0  0  0  0  0  0  0  0  0  0  0
   -0.9131    6.7259   -0.5702 C   0  0  0  0  0  0  0  0  0  0  0  0
   -1.9314    0.4342    1.0047 H   0  0  0  0  0  0  0  0  0  0  0  0
   -0.3062    0.9691    1.3906 H   0  0  0  0  0  0  0  0  0  0  0  0
   -2.0407    4.3305   -0.1479 H   0  0  0  0  0  0  0  0  0  0  0  0
    1.0070    1.1226   -0.6409 H   0  0  0  0  0  0  0  0  0  0  0  0
   -0.4601    1.9990    3.5972 H   0  0  0  0  0  0  0  0  0  0  0  0
    1.4377    5.2130    3.0998 H   0  0  0  0  0  0  0  0  0  0  0  0
   -1.5319    2.8526   -3.0412 H   0  0  0  0  0  0  0  0  0  0  0  0
   -1.8887    1.1286   -3.3509 H   0  0  0  0  0  0  0  0  0  0  0  0
    0.7513    2.3082   -2.8271 H   0  0  0  0  0  0  0  0  0  0  0  0
    0.3736    0.5674   -3.0315 H   0  0  0  0  0  0  0  0  0  0  0  0
   -0.0678    2.8054    5.8467 H   0  0  0  0  0  0  0  0  0  0  0  0
    0.5029    4.3702    5.2471 H   0  0  0  0  0  0  0  0  0  0  0  0
   -1.1912    3.8915    5.0190 H   0  0  0  0  0  0  0  0  0  0  0  0
    1.7493    1.5355    4.4556 H   0  0  0  0  0  0  0  0  0  0  0  0
    2.3758    3.0909    3.8926 H   0  0  0  0  0  0  0  0  0  0  0  0
    1.8913    1.8500    2.7209 H   0  0  0  0  0  0  0  0  0  0  0  0
    0.9952    6.8088    1.3922 H   0  0  0  0  0  0  0  0  0  0  0  0
   -0.3189    7.6376   -0.4704 H   0  0  0  0  0  0  0  0  0  0  0  0
   -0.7217    6.2993   -1.5561 H   0  0  0  0  0  0  0  0  0  0  0  0
   -1.9685    7.0014   -0.5024 H   0  0  0  0  0  0  0  0  0  0  0  0
  1  2  1  0  0  0  0 
  1  3  1  0  0  0  0 
  2  4  1  0  0  0  0 
  3  5  2  0  0  0  0 
  3  6  1  0  0  0  0 
  4  7  2  0  0  0  0 
  4  8  1  0  0  0  0 
  5  9  1  0  0  0  0 
  5 10  1  0  0  0  0 
  6 11  2  0  0  0  0 
  7 12  1  0  0  0  0 
  8 13  1  0  0  0  0 
  9 14  1  0  0  0  0 
  9 15  1  0  0  0  0 
 10 16  2  0  0  0  0 
 11 16  1  0  0  0  0 
 11 17  1  0  0  0  0 
 12 13  1  0  0  0  0 
 18  2  1  0  0  0  0 
 19  2  1  0  0  0  0 
 20  6  1  0  0  0  0 
 21  8  1  0  0  0  0 
 22  9  1  0  0  0  0 
 23 10  1  0  0  0  0 
 24 12  1  0  0  0  0 
 25 12  1  0  0  0  0 
 26 13  1  0  0  0  0 
 27 13  1  0  0  0  0 
 28 14  1  0  0  0  0 
 29 14  1  0  0  0  0 
 30 14  1  0  0  0  0 
 31 15  1  0  0  0  0 
 32 15  1  0  0  0  0 
 33 15  1  0  0  0  0 
 34 16  1  0  0  0  0 
 35 17  1  0  0  0  0 
 36 17  1  0  0  0  0 
 37 17  1  0  0  0  0 
M  END
> <cdk:Title>
tymazoline

> <Conformer>
1

> <SuperDrugID>
SD002967

$$$$
