migalastat
  CDK     0628171802

 24 24  0  0  0  0  0  0  0  0999 V2000
   -3.9756    1.6947   -0.1647 C   0  0  2  0  0  0  0  0  0  0  0  0
   -2.8853    2.4877    0.6061 C   0  0  2  0  0  0  0  0  0  0  0  0
   -1.8562    1.5288    1.2781 C   0  0  2  0  0  0  0  0  0  0  0  0
   -1.2727    0.5113    0.2474 C   0  0  2  0  0  0  0  0  0  0  0  0
   -2.3704   -0.2003   -0.4595 N   0  0  1  0  0  0  0  0  0  0  0  0
   -3.3260    0.6949   -1.1525 C   0  0  2  0  0  0  0  0  0  0  0  0
   -0.3178   -0.5198    0.9104 C   0  0  1  0  0  0  0  0  0  0  0  0
    0.2934   -1.3500   -0.0732 O   0  0  0  0  0  0  0  0  0  0  0  0
   -2.4777    0.8335    2.3612 O   0  0  0  0  0  0  0  0  0  0  0  0
   -3.5078    3.3228    1.5829 O   0  0  0  0  0  0  0  0  0  0  0  0
   -4.8277    2.5916   -0.8722 O   0  0  0  0  0  0  0  0  0  0  0  0
   -4.5923    1.1442    0.5515 H   0  0  0  0  0  0  0  0  0  0  0  0
   -2.3565    3.1422   -0.0936 H   0  0  0  0  0  0  0  0  0  0  0  0
   -1.0380    2.1271    1.6920 H   0  0  0  0  0  0  0  0  0  0  0  0
   -0.6830    1.0668   -0.4891 H   0  0  0  0  0  0  0  0  0  0  0  0
   -1.9407   -0.7842   -1.1794 H   0  0  0  0  0  0  0  0  0  0  0  0
   -2.8123    1.2369   -1.9539 H   0  0  0  0  0  0  0  0  0  0  0  0
   -4.1061    0.0770   -1.6032 H   0  0  0  0  0  0  0  0  0  0  0  0
    0.4752   -0.0029    1.4546 H   0  0  0  0  0  0  0  0  0  0  0  0
   -0.8615   -1.1592    1.6095 H   0  0  0  0  0  0  0  0  0  0  0  0
    0.9059   -1.9284    0.4308 H   0  0  0  0  0  0  0  0  0  0  0  0
   -2.7252    1.5326    3.0024 H   0  0  0  0  0  0  0  0  0  0  0  0
   -2.7796    3.8378    1.9903 H   0  0  0  0  0  0  0  0  0  0  0  0
   -5.5295    2.0265   -1.2587 H   0  0  0  0  0  0  0  0  0  0  0  0
  1  2  1  0  0  0  0 
  1  6  1  0  0  0  0 
  2  3  1  0  0  0  0 
  3  4  1  0  0  0  0 
  4  5  1  0  0  0  0 
  5  6  1  0  0  0  0 
  4  7  1  0  0  0  0 
  7  8  1  0  0  0  0 
  3  9  1  0  0  0  0 
  2 10  1  0  0  0  0 
  1 11  1  0  0  0  0 
  1 12  1  0  0  0  0 
  2 13  1  0  0  0  0 
  3 14  1  0  0  0  0 
  4 15  1  0  0  0  0 
  5 16  1  0  0  0  0 
  6 17  1  0  0  0  0 
  6 18  1  0  0  0  0 
  7 19  1  0  0  0  0 
  7 20  1  0  0  0  0 
  8 21  1  0  0  0  0 
  9 22  1  0  0  0  0 
 10 23  1  0  0  0  0 
 11 24  1  0  0  0  0 
M  END
> <cdk:Title>
migalastat

> <Conformer>
1

> <SuperDrugID>
SD003910

$$$$
