prednimustine
  CDK     0628171801

 89 93  0  0  0  0  0  0  0  0999 V2000
    3.5796   -4.6516  -10.4480 C   0  0  0  0  0  0  0  0  0  0  0  0
    4.4602   -3.4064  -10.0328 C   0  0  2  0  0  0  0  0  0  0  0  0
    4.9562   -2.5521  -11.2438 C   0  0  2  0  0  0  0  0  0  0  0  0
    5.8438   -3.8847   -9.4335 C   0  0  2  0  0  0  0  0  0  0  0  0
    3.6168   -2.4482   -9.1220 C   0  0  2  0  0  0  0  0  0  0  0  0
    3.7928   -1.9333  -12.0920 C   0  0  1  0  0  0  0  0  0  0  0  0
    6.0280   -3.4422  -11.9098 C   0  0  1  0  0  0  0  0  0  0  0  0
    5.7633   -5.0250   -8.4515 C   0  0  0  0  0  0  0  0  0  0  0  0
    6.5044   -2.7853   -8.7776 O   0  0  0  0  0  0  0  0  0  0  0  0
    6.6901   -4.1921  -10.7190 C   0  0  2  0  0  0  0  0  0  0  0  0
    2.4753   -1.6762   -9.8533 C   0  0  1  0  0  0  0  0  0  0  0  0
    2.9419   -0.9616  -11.1774 C   0  0  2  0  0  0  0  0  0  0  0  0
    4.3330   -1.1843  -13.3468 C   0  0  1  0  0  0  0  0  0  0  0  0
    5.7789   -4.8450   -6.9806 C   0  0  2  0  0  0  0  0  0  0  0  0
    5.6235   -6.2000   -8.8702 O   0  0  0  0  0  0  0  0  0  0  0  0
    1.3715   -2.5508  -10.0615 O   0  0  0  0  0  0  0  0  0  0  0  0
    1.8302   -0.1431  -11.9759 C   0  0  2  0  0  0  0  0  0  0  0  0
    3.2067   -0.4443  -14.1042 C   0  0  2  0  0  0  0  0  0  0  0  0
    4.8555   -3.8238   -6.5953 O   0  0  0  0  0  0  0  0  0  0  0  0
    0.6062   -1.0053  -12.4556 C   0  0  0  0  0  0  0  0  0  0  0  0
    2.4947    0.4476  -13.1834 C   0  0  0  0  0  0  0  0  0  0  0  0
    1.2524    0.9026  -11.0923 C   0  0  0  0  0  0  0  0  0  0  0  0
    4.5844   -3.3754   -5.3368 C   0  0  0  0  0  0  0  0  0  0  0  0
    2.4963    1.7808  -13.4093 C   0  0  0  0  0  0  0  0  0  0  0  0
    1.2949    2.2150  -11.3702 C   0  0  0  0  0  0  0  0  0  0  0  0
    3.6737   -2.2237   -5.1843 C   0  0  2  0  0  0  0  0  0  0  0  0
    5.1102   -3.9072   -4.3307 O   0  0  0  0  0  0  0  0  0  0  0  0
    1.9008    2.6697  -12.5269 C   0  0  0  0  0  0  0  0  0  0  0  0
    2.1841   -2.6015   -5.3724 C   0  0  1  0  0  0  0  0  0  0  0  0
    1.9215    3.8989  -12.7727 O   0  0  0  0  0  0  0  0  0  0  0  0
    1.1909   -1.2824   -5.3401 C   0  0  2  0  0  0  0  0  0  0  0  0
   -0.2512   -1.5058   -5.7749 C   0  0  0  0  0  0  0  0  0  0  0  0
   -1.0391   -2.4662   -5.1033 C   0  0  0  0  0  0  0  0  0  0  0  0
   -0.8297   -0.7990   -6.8521 C   0  0  0  0  0  0  0  0  0  0  0  0
   -2.3522   -2.7461   -5.5241 C   0  0  0  0  0  0  0  0  0  0  0  0
   -2.1492   -1.0658   -7.2540 C   0  0  0  0  0  0  0  0  0  0  0  0
   -2.9344   -2.0628   -6.6215 C   0  0  0  0  0  0  0  0  0  0  0  0
   -4.2193   -2.3446   -7.0860 N   0  0  0  0  0  0  0  0  0  0  0  0
   -5.3194   -2.4838   -6.1382 C   0  0  1  0  0  0  0  0  0  0  0  0
   -4.4314   -2.4290   -8.5309 C   0  0  2  0  0  0  0  0  0  0  0  0
   -5.5668   -1.2116   -5.2895 C   0  0  2  0  0  0  0  0  0  0  0  0
   -5.4618   -3.4619   -9.0570 C   0  0  1  0  0  0  0  0  0  0  0  0
   -6.9402   -1.4048   -4.2019 Cl  0  0  0  0  0  0  0  0  0  0  0  0
   -5.3537   -3.6691  -10.8050 Cl  0  0  0  0  0  0  0  0  0  0  0  0
    2.7068   -4.3851  -11.0375 H   0  0  0  0  0  0  0  0  0  0  0  0
    4.1478   -5.3752  -11.0329 H   0  0  0  0  0  0  0  0  0  0  0  0
    3.2140   -5.1667   -9.5592 H   0  0  0  0  0  0  0  0  0  0  0  0
    5.5167   -1.6862  -10.8633 H   0  0  0  0  0  0  0  0  0  0  0  0
    4.2682   -1.7013   -8.6628 H   0  0  0  0  0  0  0  0  0  0  0  0
    3.1773   -3.0270   -8.3144 H   0  0  0  0  0  0  0  0  0  0  0  0
    3.1539   -2.7350  -12.4622 H   0  0  0  0  0  0  0  0  0  0  0  0
    5.5662   -4.1442  -12.6108 H   0  0  0  0  0  0  0  0  0  0  0  0
    6.7631   -2.8414  -12.4534 H   0  0  0  0  0  0  0  0  0  0  0  0
    7.3696   -3.1355   -8.4792 H   0  0  0  0  0  0  0  0  0  0  0  0
    6.7090   -5.2602  -10.9464 H   0  0  0  0  0  0  0  0  0  0  0  0
    7.7290   -3.8707  -10.5974 H   0  0  0  0  0  0  0  0  0  0  0  0
    2.1232   -0.9162   -9.1515 H   0  0  0  0  0  0  0  0  0  0  0  0
    3.6519   -0.1981  -10.8299 H   0  0  0  0  0  0  0  0  0  0  0  0
    5.0981   -0.4602  -13.0498 H   0  0  0  0  0  0  0  0  0  0  0  0
    4.7980   -1.8979  -14.0316 H   0  0  0  0  0  0  0  0  0  0  0  0
    6.7847   -4.5560   -6.6720 H   0  0  0  0  0  0  0  0  0  0  0  0
    5.5127   -5.7722   -6.4690 H   0  0  0  0  0  0  0  0  0  0  0  0
    1.1020   -2.8417   -9.1651 H   0  0  0  0  0  0  0  0  0  0  0  0
    2.5093   -1.1656  -14.5331 H   0  0  0  0  0  0  0  0  0  0  0  0
    3.6579    0.0885  -14.9458 H   0  0  0  0  0  0  0  0  0  0  0  0
   -0.0622   -1.2748  -11.6342 H   0  0  0  0  0  0  0  0  0  0  0  0
    0.9265   -1.9371  -12.9180 H   0  0  0  0  0  0  0  0  0  0  0  0
    0.0099   -0.4551  -13.1906 H   0  0  0  0  0  0  0  0  0  0  0  0
    0.7952    0.6315  -10.2520 H   0  0  0  0  0  0  0  0  0  0  0  0
    2.9453    2.1503  -14.2159 H   0  0  0  0  0  0  0  0  0  0  0  0
    0.8818    2.8635  -10.7366 H   0  0  0  0  0  0  0  0  0  0  0  0
    3.9577   -1.4719   -5.9259 H   0  0  0  0  0  0  0  0  0  0  0  0
    3.8035   -1.7765   -4.1946 H   0  0  0  0  0  0  0  0  0  0  0  0
    2.0391   -3.1113   -6.3256 H   0  0  0  0  0  0  0  0  0  0  0  0
    1.8830   -3.2881   -4.5782 H   0  0  0  0  0  0  0  0  0  0  0  0
    1.5734   -0.4269   -5.9597 H   0  0  0  0  0  0  0  0  0  0  0  0
    1.0962   -0.8181   -4.3234 H   0  0  0  0  0  0  0  0  0  0  0  0
   -0.6533   -2.9830   -4.3078 H   0  0  0  0  0  0  0  0  0  0  0  0
   -0.2951   -0.0862   -7.3577 H   0  0  0  0  0  0  0  0  0  0  0  0
   -2.8685   -3.4711   -5.0227 H   0  0  0  0  0  0  0  0  0  0  0  0
   -2.5331   -0.5239   -8.0315 H   0  0  0  0  0  0  0  0  0  0  0  0
   -6.2608   -2.7038   -6.6386 H   0  0  0  0  0  0  0  0  0  0  0  0
   -5.1330   -3.3324   -5.4770 H   0  0  0  0  0  0  0  0  0  0  0  0
   -3.4837   -2.6799   -9.0233 H   0  0  0  0  0  0  0  0  0  0  0  0
   -4.7297   -1.4393   -8.8868 H   0  0  0  0  0  0  0  0  0  0  0  0
   -5.7676   -0.3650   -5.9474 H   0  0  0  0  0  0  0  0  0  0  0  0
   -4.6900   -0.9805   -4.6838 H   0  0  0  0  0  0  0  0  0  0  0  0
   -5.2944   -4.4289   -8.5796 H   0  0  0  0  0  0  0  0  0  0  0  0
   -6.4773   -3.1245   -8.8436 H   0  0  0  0  0  0  0  0  0  0  0  0
  2  1  1  0  0  0  0 
  3  2  1  0  0  0  0 
  2  4  1  0  0  0  0 
  2  5  1  0  0  0  0 
  6  3  1  0  0  0  0 
  3  7  1  0  0  0  0 
  4  8  1  0  0  0  0 
  4  9  1  0  0  0  0 
  4 10  1  0  0  0  0 
 11  5  1  0  0  0  0 
 12  6  1  0  0  0  0 
  6 13  1  0  0  0  0 
  7 10  1  0  0  0  0 
  8 14  1  0  0  0  0 
  8 15  2  0  0  0  0 
 12 11  1  0  0  0  0 
 11 16  1  0  0  0  0 
 12 17  1  0  0  0  0 
 13 18  1  0  0  0  0 
 14 19  1  0  0  0  0 
 17 20  1  0  0  0  0 
 17 21  1  0  0  0  0 
 17 22  1  0  0  0  0 
 18 21  1  0  0  0  0 
 19 23  1  0  0  0  0 
 21 24  2  0  0  0  0 
 22 25  2  0  0  0  0 
 23 26  1  0  0  0  0 
 23 27  2  0  0  0  0 
 24 28  1  0  0  0  0 
 25 28  1  0  0  0  0 
 26 29  1  0  0  0  0 
 28 30  2  0  0  0  0 
 29 31  1  0  0  0  0 
 31 32  1  0  0  0  0 
 32 33  2  0  0  0  0 
 32 34  1  0  0  0  0 
 33 35  1  0  0  0  0 
 34 36  2  0  0  0  0 
 35 37  2  0  0  0  0 
 36 37  1  0  0  0  0 
 37 38  1  0  0  0  0 
 38 39  1  0  0  0  0 
 38 40  1  0  0  0  0 
 39 41  1  0  0  0  0 
 40 42  1  0  0  0  0 
 41 43  1  0  0  0  0 
 42 44  1  0  0  0  0 
 45  1  1  0  0  0  0 
 46  1  1  0  0  0  0 
 47  1  1  0  0  0  0 
  3 48  1  0  0  0  0 
 49  5  1  0  0  0  0 
 50  5  1  0  0  0  0 
  6 51  1  0  0  0  0 
 52  7  1  0  0  0  0 
 53  7  1  0  0  0  0 
 54  9  1  0  0  0  0 
 55 10  1  0  0  0  0 
 56 10  1  0  0  0  0 
 11 57  1  0  0  0  0 
 12 58  1  0  0  0  0 
 59 13  1  0  0  0  0 
 60 13  1  0  0  0  0 
 61 14  1  0  0  0  0 
 62 14  1  0  0  0  0 
 63 16  1  0  0  0  0 
 64 18  1  0  0  0  0 
 65 18  1  0  0  0  0 
 66 20  1  0  0  0  0 
 67 20  1  0  0  0  0 
 68 20  1  0  0  0  0 
 69 22  1  0  0  0  0 
 70 24  1  0  0  0  0 
 71 25  1  0  0  0  0 
 72 26  1  0  0  0  0 
 73 26  1  0  0  0  0 
 74 29  1  0  0  0  0 
 75 29  1  0  0  0  0 
 76 31  1  0  0  0  0 
 77 31  1  0  0  0  0 
 78 33  1  0  0  0  0 
 79 34  1  0  0  0  0 
 80 35  1  0  0  0  0 
 81 36  1  0  0  0  0 
 82 39  1  0  0  0  0 
 83 39  1  0  0  0  0 
 84 40  1  0  0  0  0 
 85 40  1  0  0  0  0 
 86 41  1  0  0  0  0 
 87 41  1  0  0  0  0 
 88 42  1  0  0  0  0 
 89 42  1  0  0  0  0 
M  END
> <cdk:Title>
prednimustine

> <Conformer>
1

> <SuperDrugID>
SD002012

$$$$
