amfetamine
  CDK     0628171801

 23 23  0  0  0  0  0  0  0  0999 V2000
    3.1121    3.0840   -2.2156 N   0  0  2  0  0  0  0  0  0  0  0  0
    2.3352    4.1111   -1.5051 C   0  0  1  0  0  0  0  0  0  0  0  0
    0.9915    4.3048   -2.2469 C   0  0  0  0  0  0  0  0  0  0  0  0
    2.1735    3.6943   -0.0136 C   0  0  1  0  0  0  0  0  0  0  0  0
    1.4039    4.6685    0.8143 C   0  0  0  0  0  0  0  0  0  0  0  0
    0.1525    4.3175    1.3767 C   0  0  0  0  0  0  0  0  0  0  0  0
   -0.5887    5.2510    2.1226 C   0  0  0  0  0  0  0  0  0  0  0  0
   -0.0860    6.5469    2.3296 C   0  0  0  0  0  0  0  0  0  0  0  0
    1.1658    6.9051    1.7984 C   0  0  0  0  0  0  0  0  0  0  0  0
    1.9069    5.9725    1.0488 C   0  0  0  0  0  0  0  0  0  0  0  0
    2.5999    2.2041   -2.1165 H   0  0  0  0  0  0  0  0  0  0  0  0
    3.9955    2.9724   -1.7143 H   0  0  0  0  0  0  0  0  0  0  0  0
    2.9013    5.0445   -1.5628 H   0  0  0  0  0  0  0  0  0  0  0  0
    0.4135    5.1103   -1.7927 H   0  0  0  0  0  0  0  0  0  0  0  0
    1.1733    4.5654   -3.2903 H   0  0  0  0  0  0  0  0  0  0  0  0
    0.4011    3.3879   -2.2142 H   0  0  0  0  0  0  0  0  0  0  0  0
    1.7009    2.7063    0.0155 H   0  0  0  0  0  0  0  0  0  0  0  0
    3.1694    3.5770    0.4227 H   0  0  0  0  0  0  0  0  0  0  0  0
   -0.2348    3.3800    1.2402 H   0  0  0  0  0  0  0  0  0  0  0  0
   -1.4974    4.9879    2.5112 H   0  0  0  0  0  0  0  0  0  0  0  0
   -0.6291    7.2279    2.8645 H   0  0  0  0  0  0  0  0  0  0  0  0
    1.5357    7.8450    1.9526 H   0  0  0  0  0  0  0  0  0  0  0  0
    2.8143    6.2553    0.6713 H   0  0  0  0  0  0  0  0  0  0  0  0
  2  1  1  0  0  0  0 
  2  3  1  0  0  0  0 
  2  4  1  0  0  0  0 
  4  5  1  0  0  0  0 
  5  6  2  0  0  0  0 
  6  7  1  0  0  0  0 
  7  8  2  0  0  0  0 
  8  9  1  0  0  0  0 
  9 10  2  0  0  0  0 
  5 10  1  0  0  0  0 
  1 11  1  0  0  0  0 
  1 12  1  0  0  0  0 
  2 13  1  0  0  0  0 
  3 14  1  0  0  0  0 
  3 15  1  0  0  0  0 
  3 16  1  0  0  0  0 
  4 17  1  0  0  0  0 
  4 18  1  0  0  0  0 
  6 19  1  0  0  0  0 
  7 20  1  0  0  0  0 
  8 21  1  0  0  0  0 
  9 22  1  0  0  0  0 
 10 23  1  0  0  0  0 
M  END
> <cdk:Title>
amfetamine

> <Conformer>
1

> <SuperDrugID>
SD000160

$$$$
