rilmazafone
  CDK     0628171801

 52 54  0  0  0  0  0  0  0  0999 V2000
    0.9984   -2.4369    0.3214 C   0  0  1  0  0  0  0  0  0  0  0  0
    1.5246   -1.1920   -0.1493 N   0  0  0  0  0  0  0  0  0  0  0  0
   -0.2366   -2.8337   -0.3882 C   0  0  0  0  0  0  0  0  0  0  0  0
    0.9832    0.0400    0.0746 C   0  0  0  0  0  0  0  0  0  0  0  0
   -0.3470   -3.4869   -1.5620 N   0  0  0  0  0  0  0  0  0  0  0  0
   -1.4755   -2.5651    0.0491 N   0  0  0  0  0  0  0  0  0  0  0  0
    1.6906    1.2469   -0.3979 C   0  0  2  0  0  0  0  0  0  0  0  0
   -0.0943    0.1698    0.7036 O   0  0  0  0  0  0  0  0  0  0  0  0
   -1.5995   -3.5967   -1.8587 N   0  0  0  0  0  0  0  0  0  0  0  0
    0.6564   -3.9127   -2.3785 C   0  0  0  0  0  0  0  0  0  0  0  0
   -2.3281   -3.0358   -0.8743 C   0  0  0  0  0  0  0  0  0  0  0  0
    1.8157    1.2575   -1.8590 N   0  0  1  0  0  0  0  0  0  0  0  0
    1.1146   -5.2617   -2.4273 C   0  0  0  0  0  0  0  0  0  0  0  0
    1.2286   -2.9364   -3.2221 C   0  0  0  0  0  0  0  0  0  0  0  0
   -3.7469   -2.9517   -0.8785 C   0  0  0  0  0  0  0  0  0  0  0  0
    0.5638   -6.2565   -1.5625 C   0  0  0  0  0  0  0  0  0  0  0  0
    2.1556   -5.5754   -3.3401 C   0  0  0  0  0  0  0  0  0  0  0  0
    2.2588   -3.2716   -4.1114 C   0  0  0  0  0  0  0  0  0  0  0  0
   -4.5456   -2.2612    0.0342 N   0  0  0  0  0  0  0  0  0  0  0  0
   -4.2913   -3.5580   -1.8334 O   0  0  0  0  0  0  0  0  0  0  0  0
    0.5797   -6.0375   -0.3283 O   0  0  0  0  0  0  0  0  0  0  0  0
   -0.0859   -7.4438   -2.0088 C   0  0  0  0  0  0  0  0  0  0  0  0
    2.7205   -4.5954   -4.1794 C   0  0  0  0  0  0  0  0  0  0  0  0
   -5.9689   -2.0796   -0.1806 C   0  0  0  0  0  0  0  0  0  0  0  0
   -4.0022   -1.6666    1.2352 C   0  0  0  0  0  0  0  0  0  0  0  0
   -1.4830   -7.6432   -1.8164 C   0  0  0  0  0  0  0  0  0  0  0  0
    0.6489   -8.4793   -2.6382 C   0  0  0  0  0  0  0  0  0  0  0  0
    3.9566   -4.9942   -5.2672 Cl  0  0  0  0  0  0  0  0  0  0  0  0
   -2.4712   -6.5373   -0.9934 Cl  0  0  0  0  0  0  0  0  0  0  0  0
   -2.1168   -8.8030   -2.3125 C   0  0  0  0  0  0  0  0  0  0  0  0
    0.0127   -9.6306   -3.1352 C   0  0  0  0  0  0  0  0  0  0  0  0
   -1.3729   -9.7890   -2.9794 C   0  0  0  0  0  0  0  0  0  0  0  0
    1.7581   -3.2051    0.1677 H   0  0  0  0  0  0  0  0  0  0  0  0
    0.8111   -2.3804    1.3974 H   0  0  0  0  0  0  0  0  0  0  0  0
    2.3455   -1.2272   -0.6650 H   0  0  0  0  0  0  0  0  0  0  0  0
    2.6883    1.2780    0.0450 H   0  0  0  0  0  0  0  0  0  0  0  0
    1.1593    2.1521   -0.0944 H   0  0  0  0  0  0  0  0  0  0  0  0
    0.8736    1.3700   -2.2407 H   0  0  0  0  0  0  0  0  0  0  0  0
    2.3351    2.1038   -2.1062 H   0  0  0  0  0  0  0  0  0  0  0  0
    0.8934   -1.9699   -3.1954 H   0  0  0  0  0  0  0  0  0  0  0  0
    2.5357   -6.5180   -3.3974 H   0  0  0  0  0  0  0  0  0  0  0  0
    2.6660   -2.5454   -4.7057 H   0  0  0  0  0  0  0  0  0  0  0  0
   -6.1886   -1.0106   -0.2409 H   0  0  0  0  0  0  0  0  0  0  0  0
   -6.3462   -2.5326   -1.0995 H   0  0  0  0  0  0  0  0  0  0  0  0
   -6.5340   -2.5068    0.6519 H   0  0  0  0  0  0  0  0  0  0  0  0
   -3.2822   -0.8905    0.9755 H   0  0  0  0  0  0  0  0  0  0  0  0
   -4.7633   -1.2019    1.8700 H   0  0  0  0  0  0  0  0  0  0  0  0
   -3.5120   -2.4323    1.8405 H   0  0  0  0  0  0  0  0  0  0  0  0
    1.6618   -8.4225   -2.7342 H   0  0  0  0  0  0  0  0  0  0  0  0
   -3.1245   -8.9414   -2.1957 H   0  0  0  0  0  0  0  0  0  0  0  0
    0.5592  -10.3545   -3.6084 H   0  0  0  0  0  0  0  0  0  0  0  0
   -1.8368  -10.6233   -3.3469 H   0  0  0  0  0  0  0  0  0  0  0  0
  1  2  1  0  0  0  0 
  1  3  1  0  0  0  0 
  2  4  1  0  0  0  0 
  3  5  1  0  0  0  0 
  3  6  2  0  0  0  0 
  4  7  1  0  0  0  0 
  4  8  2  0  0  0  0 
  5  9  1  0  0  0  0 
  5 10  1  0  0  0  0 
  6 11  1  0  0  0  0 
  7 12  1  0  0  0  0 
  9 11  2  0  0  0  0 
 10 13  2  0  0  0  0 
 10 14  1  0  0  0  0 
 11 15  1  0  0  0  0 
 13 16  1  0  0  0  0 
 13 17  1  0  0  0  0 
 14 18  2  0  0  0  0 
 15 19  1  0  0  0  0 
 15 20  2  0  0  0  0 
 16 21  2  0  0  0  0 
 16 22  1  0  0  0  0 
 17 23  2  0  0  0  0 
 18 23  1  0  0  0  0 
 19 24  1  0  0  0  0 
 19 25  1  0  0  0  0 
 22 26  2  0  0  0  0 
 22 27  1  0  0  0  0 
 23 28  1  0  0  0  0 
 26 29  1  0  0  0  0 
 26 30  1  0  0  0  0 
 27 31  2  0  0  0  0 
 30 32  2  0  0  0  0 
 31 32  1  0  0  0  0 
  1 33  1  0  0  0  0 
  1 34  1  0  0  0  0 
  2 35  1  0  0  0  0 
  7 36  1  0  0  0  0 
  7 37  1  0  0  0  0 
 12 38  1  0  0  0  0 
 12 39  1  0  0  0  0 
 14 40  1  0  0  0  0 
 17 41  1  0  0  0  0 
 18 42  1  0  0  0  0 
 24 43  1  0  0  0  0 
 24 44  1  0  0  0  0 
 24 45  1  0  0  0  0 
 25 46  1  0  0  0  0 
 25 47  1  0  0  0  0 
 25 48  1  0  0  0  0 
 27 49  1  0  0  0  0 
 30 50  1  0  0  0  0 
 31 51  1  0  0  0  0 
 32 52  1  0  0  0  0 
M  END
> <cdk:Title>
rilmazafone

> <Conformer>
1

> <SuperDrugID>
SD002141

$$$$
