fluvoxamine
  CDK     0628171801

 43 43  0  0  0  0  0  0  0  0999 V2000
    2.2301    0.7285    0.8116 C   0  0  0  0  0  0  0  0  0  0  0  0
    3.3438    0.4369   -0.1139 C   0  0  1  0  0  0  0  0  0  0  0  0
    1.0335    0.2781    0.6360 N   0  0  0  0  0  0  0  0  0  0  0  0
    2.4258    1.5406    1.9672 C   0  0  0  0  0  0  0  0  0  0  0  0
    3.1154   -0.4521   -1.3703 C   0  0  2  0  0  0  0  0  0  0  0  0
    0.5239   -0.4570   -0.2740 O   0  0  0  0  0  0  0  0  0  0  0  0
    1.3588    1.8292    2.8647 C   0  0  0  0  0  0  0  0  0  0  0  0
    3.6828    2.1184    2.3016 C   0  0  0  0  0  0  0  0  0  0  0  0
    4.4110   -0.6398   -2.2060 C   0  0  1  0  0  0  0  0  0  0  0  0
   -0.8509   -0.7379    0.0349 C   0  0  1  0  0  0  0  0  0  0  0  0
    1.5267    2.6348    4.0026 C   0  0  0  0  0  0  0  0  0  0  0  0
    3.8585    2.9242    3.4432 C   0  0  0  0  0  0  0  0  0  0  0  0
    4.1908   -1.5224   -3.4548 C   0  0  2  0  0  0  0  0  0  0  0  0
   -1.4635   -1.5835   -1.1019 C   0  0  2  0  0  0  0  0  0  0  0  0
    2.7789    3.2075    4.3103 C   0  0  0  0  0  0  0  0  0  0  0  0
    5.4301   -1.6401   -4.1785 O   0  0  0  0  0  0  0  0  0  0  0  0
   -2.8653   -1.9171   -0.8215 N   0  0  1  0  0  0  0  0  0  0  0  0
    2.9594    4.0442    5.5307 C   0  0  1  0  0  0  0  0  0  0  0  0
    5.3305   -2.4451   -5.3646 C   0  0  0  0  0  0  0  0  0  0  0  0
    3.8961    5.0359    5.3565 F   0  0  0  0  0  0  0  0  0  0  0  0
    1.8042    4.6832    5.9202 F   0  0  0  0  0  0  0  0  0  0  0  0
    3.3670    3.2397    6.5661 F   0  0  0  0  0  0  0  0  0  0  0  0
    3.7271    1.3967   -0.4728 H   0  0  0  0  0  0  0  0  0  0  0  0
    4.1315   -0.0512    0.4676 H   0  0  0  0  0  0  0  0  0  0  0  0
    2.3526    0.0062   -2.0078 H   0  0  0  0  0  0  0  0  0  0  0  0
    2.7653   -1.4381   -1.0505 H   0  0  0  0  0  0  0  0  0  0  0  0
    0.4204    1.4551    2.7060 H   0  0  0  0  0  0  0  0  0  0  0  0
    4.5055    1.9669    1.7160 H   0  0  0  0  0  0  0  0  0  0  0  0
    4.7794    0.3374   -2.5302 H   0  0  0  0  0  0  0  0  0  0  0  0
    5.1803   -1.1020   -1.5809 H   0  0  0  0  0  0  0  0  0  0  0  0
   -0.9240   -1.2881    0.9789 H   0  0  0  0  0  0  0  0  0  0  0  0
   -1.4242    0.1914    0.1240 H   0  0  0  0  0  0  0  0  0  0  0  0
    0.7192    2.7962    4.6096 H   0  0  0  0  0  0  0  0  0  0  0  0
    4.7877    3.3055    3.6383 H   0  0  0  0  0  0  0  0  0  0  0  0
    3.4304   -1.0562   -4.0899 H   0  0  0  0  0  0  0  0  0  0  0  0
    3.8464   -2.5124   -3.1373 H   0  0  0  0  0  0  0  0  0  0  0  0
   -0.9019   -2.5122   -1.2284 H   0  0  0  0  0  0  0  0  0  0  0  0
   -1.4177   -1.0194   -2.0365 H   0  0  0  0  0  0  0  0  0  0  0  0
   -3.2515   -2.3515   -1.6647 H   0  0  0  0  0  0  0  0  0  0  0  0
   -2.8544   -2.6351   -0.0936 H   0  0  0  0  0  0  0  0  0  0  0  0
    5.0358   -3.4682   -5.1187 H   0  0  0  0  0  0  0  0  0  0  0  0
    6.3093   -2.4743   -5.8429 H   0  0  0  0  0  0  0  0  0  0  0  0
    4.6144   -2.0169   -6.0703 H   0  0  0  0  0  0  0  0  0  0  0  0
  1  2  1  0  0  0  0 
  1  3  2  0  0  0  0 
  1  4  1  0  0  0  0 
  2  5  1  0  0  0  0 
  3  6  1  0  0  0  0 
  4  7  2  0  0  0  0 
  4  8  1  0  0  0  0 
  5  9  1  0  0  0  0 
  6 10  1  0  0  0  0 
  7 11  1  0  0  0  0 
  8 12  2  0  0  0  0 
  9 13  1  0  0  0  0 
 10 14  1  0  0  0  0 
 11 15  2  0  0  0  0 
 12 15  1  0  0  0  0 
 13 16  1  0  0  0  0 
 14 17  1  0  0  0  0 
 15 18  1  0  0  0  0 
 16 19  1  0  0  0  0 
 18 20  1  0  0  0  0 
 18 21  1  0  0  0  0 
 18 22  1  0  0  0  0 
  2 23  1  0  0  0  0 
  2 24  1  0  0  0  0 
  5 25  1  0  0  0  0 
  5 26  1  0  0  0  0 
  7 27  1  0  0  0  0 
  8 28  1  0  0  0  0 
  9 29  1  0  0  0  0 
  9 30  1  0  0  0  0 
 10 31  1  0  0  0  0 
 10 32  1  0  0  0  0 
 11 33  1  0  0  0  0 
 12 34  1  0  0  0  0 
 13 35  1  0  0  0  0 
 13 36  1  0  0  0  0 
 14 37  1  0  0  0  0 
 14 38  1  0  0  0  0 
 17 39  1  0  0  0  0 
 17 40  1  0  0  0  0 
 19 41  1  0  0  0  0 
 19 42  1  0  0  0  0 
 19 43  1  0  0  0  0 
M  END
> <cdk:Title>
fluvoxamine

> <Conformer>
1

> <SuperDrugID>
SD001103

$$$$
