sulfinalol
  CDK     0628171801

 53 54  0  0  0  0  0  0  0  0999 V2000
    1.9838   -0.6734    1.3273 C   0  0  1  0  0  0  0  0  0  0  0  0
    1.5121   -0.5038   -0.1444 C   0  0  1  0  0  0  0  0  0  0  0  0
    3.3450   -0.2589    1.4398 O   0  0  0  0  0  0  0  0  0  0  0  0
    1.1446    0.0965    2.2928 C   0  0  0  0  0  0  0  0  0  0  0  0
    0.1505   -1.0352   -0.4165 N   0  0  1  0  0  0  0  0  0  0  0  0
    0.2649   -0.5631    3.1839 C   0  0  0  0  0  0  0  0  0  0  0  0
    1.2034    1.5096    2.3307 C   0  0  0  0  0  0  0  0  0  0  0  0
   -0.0429   -2.5132   -0.4989 C   0  0  1  0  0  0  0  0  0  0  0  0
   -0.5555    0.1630    4.0770 C   0  0  0  0  0  0  0  0  0  0  0  0
    0.3853    2.2404    3.2079 C   0  0  0  0  0  0  0  0  0  0  0  0
   -1.5696   -2.8353   -0.5386 C   0  0  2  0  0  0  0  0  0  0  0  0
    0.6656   -3.1172   -1.7427 C   0  0  0  0  0  0  0  0  0  0  0  0
   -1.6543   -0.6741    5.1868 S   0  0  1  0  0  0  0  0  0  0  0  0
   -0.4980    1.5756    4.0768 C   0  0  0  0  0  0  0  0  0  0  0  0
   -2.3178   -2.4954    0.7803 C   0  0  2  0  0  0  0  0  0  0  0  0
   -3.2632   -0.7362    4.3178 C   0  0  0  0  0  0  0  0  0  0  0  0
   -1.1748   -2.2033    5.2747 O   0  0  0  0  0  0  0  0  0  0  0  0
   -1.2650    2.3479    4.8921 O   0  0  0  0  0  0  0  0  0  0  0  0
   -3.7395   -2.9384    0.7647 C   0  0  0  0  0  0  0  0  0  0  0  0
   -4.6920   -2.2644   -0.0346 C   0  0  0  0  0  0  0  0  0  0  0  0
   -4.1718   -4.0358    1.5475 C   0  0  0  0  0  0  0  0  0  0  0  0
   -6.0399   -2.6678   -0.0429 C   0  0  0  0  0  0  0  0  0  0  0  0
   -5.5183   -4.4420    1.5386 C   0  0  0  0  0  0  0  0  0  0  0  0
   -6.4624   -3.7477    0.7570 C   0  0  0  0  0  0  0  0  0  0  0  0
   -7.7765   -4.1323    0.7560 O   0  0  0  0  0  0  0  0  0  0  0  0
   -8.5324   -3.5143    1.8132 C   0  0  0  0  0  0  0  0  0  0  0  0
    1.9749   -1.7383    1.5723 H   0  0  0  0  0  0  0  0  0  0  0  0
    1.4923    0.5603   -0.3896 H   0  0  0  0  0  0  0  0  0  0  0  0
    2.2419   -0.9593   -0.8151 H   0  0  0  0  0  0  0  0  0  0  0  0
    3.8283   -0.7892    0.7711 H   0  0  0  0  0  0  0  0  0  0  0  0
   -0.4473   -0.6888    0.3360 H   0  0  0  0  0  0  0  0  0  0  0  0
    0.2161   -1.5835    3.1745 H   0  0  0  0  0  0  0  0  0  0  0  0
    1.8449    2.0202    1.7189 H   0  0  0  0  0  0  0  0  0  0  0  0
    0.3733   -2.9928    0.3915 H   0  0  0  0  0  0  0  0  0  0  0  0
    0.4353    3.2623    3.2116 H   0  0  0  0  0  0  0  0  0  0  0  0
   -1.7000   -3.9070   -0.7272 H   0  0  0  0  0  0  0  0  0  0  0  0
   -2.0294   -2.2910   -1.3702 H   0  0  0  0  0  0  0  0  0  0  0  0
    0.3964   -4.1674   -1.8717 H   0  0  0  0  0  0  0  0  0  0  0  0
    0.3872   -2.5705   -2.6458 H   0  0  0  0  0  0  0  0  0  0  0  0
    1.7481   -3.0761   -1.6220 H   0  0  0  0  0  0  0  0  0  0  0  0
   -2.2917   -1.4185    0.9569 H   0  0  0  0  0  0  0  0  0  0  0  0
   -1.7894   -2.9688    1.6135 H   0  0  0  0  0  0  0  0  0  0  0  0
   -4.0157   -1.1708    4.9746 H   0  0  0  0  0  0  0  0  0  0  0  0
   -3.5687    0.2734    4.0416 H   0  0  0  0  0  0  0  0  0  0  0  0
   -3.1741   -1.3439    3.4193 H   0  0  0  0  0  0  0  0  0  0  0  0
   -1.9198    1.7495    5.3070 H   0  0  0  0  0  0  0  0  0  0  0  0
   -4.4119   -1.4710   -0.6139 H   0  0  0  0  0  0  0  0  0  0  0  0
   -3.5091   -4.5519    2.1305 H   0  0  0  0  0  0  0  0  0  0  0  0
   -6.7156   -2.1713   -0.6299 H   0  0  0  0  0  0  0  0  0  0  0  0
   -5.8120   -5.2404    2.1056 H   0  0  0  0  0  0  0  0  0  0  0  0
   -9.5647   -3.8568    1.7378 H   0  0  0  0  0  0  0  0  0  0  0  0
   -8.1498   -3.8005    2.7968 H   0  0  0  0  0  0  0  0  0  0  0  0
   -8.5269   -2.4245    1.7237 H   0  0  0  0  0  0  0  0  0  0  0  0
  1  2  1  0  0  0  0 
  1  3  1  0  0  0  0 
  1  4  1  0  0  0  0 
  2  5  1  0  0  0  0 
  4  6  2  0  0  0  0 
  4  7  1  0  0  0  0 
  5  8  1  0  0  0  0 
  6  9  1  0  0  0  0 
  7 10  2  0  0  0  0 
  8 11  1  0  0  0  0 
  8 12  1  0  0  0  0 
  9 13  1  0  0  0  0 
  9 14  2  0  0  0  0 
 10 14  1  0  0  0  0 
 11 15  1  0  0  0  0 
 13 16  1  0  0  0  0 
 13 17  2  0  0  0  0 
 14 18  1  0  0  0  0 
 15 19  1  0  0  0  0 
 19 20  2  0  0  0  0 
 19 21  1  0  0  0  0 
 20 22  1  0  0  0  0 
 21 23  2  0  0  0  0 
 22 24  2  0  0  0  0 
 23 24  1  0  0  0  0 
 24 25  1  0  0  0  0 
 25 26  1  0  0  0  0 
 27  1  1  0  0  0  0 
 28  2  1  0  0  0  0 
 29  2  1  0  0  0  0 
 30  3  1  0  0  0  0 
 31  5  1  0  0  0  0 
 32  6  1  0  0  0  0 
 33  7  1  0  0  0  0 
 34  8  1  0  0  0  0 
 35 10  1  0  0  0  0 
 36 11  1  0  0  0  0 
 37 11  1  0  0  0  0 
 38 12  1  0  0  0  0 
 39 12  1  0  0  0  0 
 40 12  1  0  0  0  0 
 41 15  1  0  0  0  0 
 42 15  1  0  0  0  0 
 43 16  1  0  0  0  0 
 44 16  1  0  0  0  0 
 45 16  1  0  0  0  0 
 46 18  1  0  0  0  0 
 47 20  1  0  0  0  0 
 48 21  1  0  0  0  0 
 49 22  1  0  0  0  0 
 50 23  1  0  0  0  0 
 51 26  1  0  0  0  0 
 52 26  1  0  0  0  0 
 53 26  1  0  0  0  0 
M  END
> <cdk:Title>
sulfinalol

> <Conformer>
1

> <SuperDrugID>
SD003067

$$$$
