bisaramil
  CDK     0628171801

 45 47  0  0  0  0  0  0  0  0999 V2000
    0.1284   -2.3414   -1.2016 C   0  0  0  0  0  0  0  0  0  0  0  0
   -0.5935   -3.4594   -1.6589 C   0  0  0  0  0  0  0  0  0  0  0  0
   -1.9959   -3.4050   -1.7603 C   0  0  0  0  0  0  0  0  0  0  0  0
   -2.6724   -2.2258   -1.3963 C   0  0  0  0  0  0  0  0  0  0  0  0
   -1.9482   -1.1105   -0.9346 C   0  0  0  0  0  0  0  0  0  0  0  0
   -0.5329   -1.1442   -0.8282 C   0  0  0  0  0  0  0  0  0  0  0  0
   -2.8603   -4.7488   -2.3217 Cl  0  0  0  0  0  0  0  0  0  0  0  0
    0.2064   -0.0202   -0.3597 C   0  0  0  0  0  0  0  0  0  0  0  0
    1.5765   -0.0216   -0.4066 O   0  0  0  0  0  0  0  0  0  0  0  0
   -0.3815    0.9809    0.1161 O   0  0  0  0  0  0  0  0  0  0  0  0
    2.4957    1.0271   -0.0380 C   0  0  1  0  0  0  0  0  0  0  0  0
    4.2882    0.1001   -1.6047 C   0  0  2  0  0  0  0  0  0  0  0  0
    3.9663    0.5125   -0.1329 C   0  0  1  0  0  0  0  0  0  0  0  0
    2.3862    2.2826   -0.9569 C   0  0  2  0  0  0  0  0  0  0  0  0
    2.6965    1.8722   -2.4300 C   0  0  1  0  0  0  0  0  0  0  0  0
    4.0497    1.2431   -2.5431 N   0  0  2  0  0  0  0  0  0  0  0  0
    4.0742   -0.3669    0.5113 H   0  0  0  0  0  0  0  0  0  0  0  0
    1.3687    2.6790   -0.9142 H   0  0  0  0  0  0  0  0  0  0  0  0
    4.6051    1.1220   -3.9258 C   0  0  1  0  0  0  0  0  0  0  0  0
    3.8777    0.1116   -4.8438 C   0  0  0  0  0  0  0  0  0  0  0  0
    4.9422    1.6218    0.3784 C   0  0  1  0  0  0  0  0  0  0  0  0
    3.3542    3.3886   -0.4321 C   0  0  2  0  0  0  0  0  0  0  0  0
    4.7674    2.9002   -0.3831 N   0  0  1  0  0  0  0  0  0  0  0  0
    5.7622    3.9528   -0.0520 C   0  0  0  0  0  0  0  0  0  0  0  0
    2.2769    1.3027    0.9993 H   0  0  0  0  0  0  0  0  0  0  0  0
    1.1465   -2.4180   -1.1435 H   0  0  0  0  0  0  0  0  0  0  0  0
   -0.0899   -4.3127   -1.9157 H   0  0  0  0  0  0  0  0  0  0  0  0
   -3.6913   -2.1727   -1.4661 H   0  0  0  0  0  0  0  0  0  0  0  0
   -2.4721   -0.2680   -0.6814 H   0  0  0  0  0  0  0  0  0  0  0  0
    3.6643   -0.7508   -1.8885 H   0  0  0  0  0  0  0  0  0  0  0  0
    5.3311   -0.2252   -1.6600 H   0  0  0  0  0  0  0  0  0  0  0  0
    1.9356    1.1698   -2.7815 H   0  0  0  0  0  0  0  0  0  0  0  0
    2.6384    2.7631   -3.0616 H   0  0  0  0  0  0  0  0  0  0  0  0
    4.5756    2.1058   -4.4027 H   0  0  0  0  0  0  0  0  0  0  0  0
    5.6626    0.8453   -3.8718 H   0  0  0  0  0  0  0  0  0  0  0  0
    4.3540    0.0995   -5.8263 H   0  0  0  0  0  0  0  0  0  0  0  0
    3.9293   -0.8907   -4.4189 H   0  0  0  0  0  0  0  0  0  0  0  0
    2.8310    0.3909   -4.9730 H   0  0  0  0  0  0  0  0  0  0  0  0
    4.7684    1.7942    1.4452 H   0  0  0  0  0  0  0  0  0  0  0  0
    5.9713    1.2648    0.2700 H   0  0  0  0  0  0  0  0  0  0  0  0
    3.0380    3.7084    0.5649 H   0  0  0  0  0  0  0  0  0  0  0  0
    3.2816    4.2570   -1.0940 H   0  0  0  0  0  0  0  0  0  0  0  0
    6.7728    3.5726   -0.2086 H   0  0  0  0  0  0  0  0  0  0  0  0
    5.6329    4.8184   -0.7060 H   0  0  0  0  0  0  0  0  0  0  0  0
    5.6590    4.2750    0.9857 H   0  0  0  0  0  0  0  0  0  0  0  0
  1  2  2  0  0  0  0 
  2  3  1  0  0  0  0 
  3  4  2  0  0  0  0 
  4  5  1  0  0  0  0 
  5  6  2  0  0  0  0 
  1  6  1  0  0  0  0 
  3  7  1  0  0  0  0 
  6  8  1  0  0  0  0 
  8  9  1  0  0  0  0 
  8 10  2  0  0  0  0 
 11  9  1  0  0  0  0 
 13 11  1  0  0  0  0 
 11 14  1  0  0  0  0 
 12 13  1  0  0  0  0 
 14 15  1  0  0  0  0 
 15 16  1  0  0  0  0 
 12 16  1  0  0  0  0 
 13 17  1  0  0  0  0 
 14 18  1  0  0  0  0 
 16 19  1  0  0  0  0 
 19 20  1  0  0  0  0 
 13 21  1  0  0  0  0 
 14 22  1  0  0  0  0 
 21 23  1  0  0  0  0 
 23 22  1  0  0  0  0 
 23 24  1  0  0  0  0 
 11 25  1  0  0  0  0 
  1 26  1  0  0  0  0 
  2 27  1  0  0  0  0 
  4 28  1  0  0  0  0 
  5 29  1  0  0  0  0 
 12 30  1  0  0  0  0 
 12 31  1  0  0  0  0 
 15 32  1  0  0  0  0 
 15 33  1  0  0  0  0 
 19 34  1  0  0  0  0 
 19 35  1  0  0  0  0 
 20 36  1  0  0  0  0 
 20 37  1  0  0  0  0 
 20 38  1  0  0  0  0 
 21 39  1  0  0  0  0 
 21 40  1  0  0  0  0 
 22 41  1  0  0  0  0 
 22 42  1  0  0  0  0 
 24 43  1  0  0  0  0 
 24 44  1  0  0  0  0 
 24 45  1  0  0  0  0 
M  END
> <cdk:Title>
bisaramil

> <Conformer>
1

> <SuperDrugID>
SD000322

$$$$
