nifurfoline
  CDK     0628171801

 39 41  0  0  0  0  0  0  0  0999 V2000
   -2.4215    8.8921    1.5726 C   0  0  1  0  0  0  0  0  0  0  0  0
   -2.3860    7.4929    1.8971 N   0  0  0  0  0  0  0  0  0  0  0  0
   -2.9320    9.1358    0.1893 N   0  0  1  0  0  0  0  0  0  0  0  0
   -1.8118    6.5157    1.1576 C   0  0  0  0  0  0  0  0  0  0  0  0
   -2.8798    6.9088    3.0078 C   0  0  0  0  0  0  0  0  0  0  0  0
   -4.3871    8.8385    0.0174 C   0  0  1  0  0  0  0  0  0  0  0  0
   -2.5521   10.4722   -0.3601 C   0  0  2  0  0  0  0  0  0  0  0  0
   -1.2559    6.6752    0.0447 O   0  0  0  0  0  0  0  0  0  0  0  0
   -1.9185    5.3359    1.8013 N   0  0  0  0  0  0  0  0  0  0  0  0
   -3.5325    7.5153    4.0290 O   0  0  0  0  0  0  0  0  0  0  0  0
   -2.5837    5.5546    2.9451 C   0  0  0  0  0  0  0  0  0  0  0  0
   -4.7954    9.0148   -1.4651 C   0  0  1  0  0  0  0  0  0  0  0  0
   -3.0133   10.5978   -1.8325 C   0  0  2  0  0  0  0  0  0  0  0  0
   -1.4340    4.2201    1.4287 N   0  0  0  0  0  0  0  0  0  0  0  0
   -4.4227   10.3195   -1.9552 O   0  0  0  0  0  0  0  0  0  0  0  0
   -2.0240    3.3313    0.7166 C   0  0  0  0  0  0  0  0  0  0  0  0
   -1.3603    2.1774    0.3754 C   0  0  0  0  0  0  0  0  0  0  0  0
   -0.0669    1.8988    0.6784 O   0  0  0  0  0  0  0  0  0  0  0  0
   -1.8842    1.1075   -0.3434 C   0  0  0  0  0  0  0  0  0  0  0  0
    0.2546    0.6796    0.1734 C   0  0  0  0  0  0  0  0  0  0  0  0
   -0.8724    0.1675   -0.4702 C   0  0  0  0  0  0  0  0  0  0  0  0
    1.4442    0.1053    0.2879 N   0  0  0  0  0  0  0  0  0  0  0  0
    2.3121    0.6374    0.8561 O   0  0  0  0  0  0  0  0  0  0  0  0
    1.6905   -1.0342   -0.2146 O   0  0  0  0  0  0  0  0  0  0  0  0
   -3.0195    9.4590    2.2943 H   0  0  0  0  0  0  0  0  0  0  0  0
   -1.3923    9.2519    1.6599 H   0  0  0  0  0  0  0  0  0  0  0  0
   -4.6055    7.8094    0.3148 H   0  0  0  0  0  0  0  0  0  0  0  0
   -4.9877    9.5108    0.6376 H   0  0  0  0  0  0  0  0  0  0  0  0
   -1.4658   10.5942   -0.3310 H   0  0  0  0  0  0  0  0  0  0  0  0
   -3.0076   11.2714    0.2323 H   0  0  0  0  0  0  0  0  0  0  0  0
   -3.7681    6.7901    4.6464 H   0  0  0  0  0  0  0  0  0  0  0  0
   -2.8215    4.8555    3.6518 H   0  0  0  0  0  0  0  0  0  0  0  0
   -4.3332    8.2332   -2.0754 H   0  0  0  0  0  0  0  0  0  0  0  0
   -5.8787    8.9143   -1.5552 H   0  0  0  0  0  0  0  0  0  0  0  0
   -2.4352    9.9185   -2.4660 H   0  0  0  0  0  0  0  0  0  0  0  0
   -2.8310   11.6165   -2.1813 H   0  0  0  0  0  0  0  0  0  0  0  0
   -2.9567    3.4742    0.4016 H   0  0  0  0  0  0  0  0  0  0  0  0
   -2.8343    1.0275   -0.7127 H   0  0  0  0  0  0  0  0  0  0  0  0
   -0.9450   -0.7320   -0.9505 H   0  0  0  0  0  0  0  0  0  0  0  0
  1  2  1  0  0  0  0 
  1  3  1  0  0  0  0 
  2  4  1  0  0  0  0 
  2  5  1  0  0  0  0 
  3  6  1  0  0  0  0 
  3  7  1  0  0  0  0 
  4  8  2  0  0  0  0 
  4  9  1  0  0  0  0 
  5 10  1  0  0  0  0 
  5 11  2  0  0  0  0 
  6 12  1  0  0  0  0 
  7 13  1  0  0  0  0 
  9 11  1  0  0  0  0 
 14  9  1  0  0  0  0 
 12 15  1  0  0  0  0 
 13 15  1  0  0  0  0 
 14 16  2  0  0  0  0 
 16 17  1  0  0  0  0 
 17 18  1  0  0  0  0 
 17 19  2  0  0  0  0 
 18 20  1  0  0  0  0 
 19 21  1  0  0  0  0 
 20 21  2  0  0  0  0 
 20 22  1  0  0  0  0 
 22 23  2  0  0  0  0 
 22 24  1  0  0  0  0 
 25  1  1  0  0  0  0 
 26  1  1  0  0  0  0 
 27  6  1  0  0  0  0 
 28  6  1  0  0  0  0 
 29  7  1  0  0  0  0 
 30  7  1  0  0  0  0 
 31 10  1  0  0  0  0 
 32 11  1  0  0  0  0 
 33 12  1  0  0  0  0 
 34 12  1  0  0  0  0 
 35 13  1  0  0  0  0 
 36 13  1  0  0  0  0 
 37 16  1  0  0  0  0 
 38 19  1  0  0  0  0 
 39 21  1  0  0  0  0 
M  CHG  1  22   1
M  CHG  1  24  -1
M  END
> <cdk:Title>
nifurfoline

> <Conformer>
1

> <SuperDrugID>
SD001722

$$$$
