betoxycaine
  CDK     0628171801

 57 57  0  0  0  0  0  0  0  0999 V2000
    3.1261    2.5971    3.4771 C   0  0  0  0  0  0  0  0  0  0  0  0
    2.9037    3.9409    3.3417 O   0  0  0  0  0  0  0  0  0  0  0  0
    4.0434    2.2161    4.2443 O   0  0  0  0  0  0  0  0  0  0  0  0
    2.3593    1.6549    2.7346 C   0  0  0  0  0  0  0  0  0  0  0  0
    3.6841    4.9908    3.9280 C   0  0  2  0  0  0  0  0  0  0  0  0
    1.3223    2.0837    1.8701 C   0  0  0  0  0  0  0  0  0  0  0  0
    2.6349    0.2659    2.8011 C   0  0  0  0  0  0  0  0  0  0  0  0
    3.1197    6.3699    3.5303 C   0  0  1  0  0  0  0  0  0  0  0  0
    0.6283    1.1680    1.0527 C   0  0  0  0  0  0  0  0  0  0  0  0
    1.9489   -0.6504    1.9833 C   0  0  0  0  0  0  0  0  0  0  0  0
    4.0569    7.3923    3.9241 O   0  0  0  0  0  0  0  0  0  0  0  0
   -0.3556    1.6161    0.2490 N   0  0  0  0  0  0  0  0  0  0  0  0
    0.9689   -0.2023    1.0758 C   0  0  0  0  0  0  0  0  0  0  0  0
    3.6506    8.7346    3.5931 C   0  0  2  0  0  0  0  0  0  0  0  0
    0.3584   -1.0992    0.2338 O   0  0  0  0  0  0  0  0  0  0  0  0
    4.7402    9.7380    4.0507 C   0  0  2  0  0  0  0  0  0  0  0  0
    1.0578   -1.2327   -1.0248 C   0  0  2  0  0  0  0  0  0  0  0  0
    5.2808    9.5350    5.4439 N   0  0  1  0  0  0  0  0  0  0  0  0
    0.3261   -2.2143   -1.9696 C   0  0  1  0  0  0  0  0  0  0  0  0
    6.5153   10.3533    5.7243 C   0  0  1  0  0  0  0  0  0  0  0  0
    4.2207    9.6744    6.5056 C   0  0  1  0  0  0  0  0  0  0  0  0
   -1.0999   -1.7473   -2.3669 C   0  0  1  0  0  0  0  0  0  0  0  0
    7.7430   10.0282    4.8387 C   0  0  0  0  0  0  0  0  0  0  0  0
    4.6477    9.2664    7.9370 C   0  0  0  0  0  0  0  0  0  0  0  0
   -1.8175   -2.7581   -3.2887 C   0  0  0  0  0  0  0  0  0  0  0  0
    4.7108    4.9022    3.5597 H   0  0  0  0  0  0  0  0  0  0  0  0
    3.6886    4.8919    5.0174 H   0  0  0  0  0  0  0  0  0  0  0  0
    1.0672    3.0750    1.8199 H   0  0  0  0  0  0  0  0  0  0  0  0
    3.3540   -0.0938    3.4335 H   0  0  0  0  0  0  0  0  0  0  0  0
    2.9701    6.3882    2.4464 H   0  0  0  0  0  0  0  0  0  0  0  0
    2.1552    6.5174    4.0266 H   0  0  0  0  0  0  0  0  0  0  0  0
    2.1703   -1.6450    2.0424 H   0  0  0  0  0  0  0  0  0  0  0  0
   -0.6087    2.5507    0.2712 H   0  0  0  0  0  0  0  0  0  0  0  0
   -0.8204    1.0072   -0.3442 H   0  0  0  0  0  0  0  0  0  0  0  0
    2.6997    8.9814    4.0698 H   0  0  0  0  0  0  0  0  0  0  0  0
    3.5133    8.8344    2.5118 H   0  0  0  0  0  0  0  0  0  0  0  0
    4.3504   10.7557    3.9444 H   0  0  0  0  0  0  0  0  0  0  0  0
    5.5491    9.6228    3.3280 H   0  0  0  0  0  0  0  0  0  0  0  0
    2.0655   -1.6244   -0.8526 H   0  0  0  0  0  0  0  0  0  0  0  0
    1.1430   -0.2664   -1.5327 H   0  0  0  0  0  0  0  0  0  0  0  0
    0.9245   -2.3242   -2.8791 H   0  0  0  0  0  0  0  0  0  0  0  0
    0.2678   -3.1934   -1.4861 H   0  0  0  0  0  0  0  0  0  0  0  0
    6.2898   11.4219    5.6494 H   0  0  0  0  0  0  0  0  0  0  0  0
    6.8540   10.1623    6.7433 H   0  0  0  0  0  0  0  0  0  0  0  0
    3.8358   10.6992    6.5267 H   0  0  0  0  0  0  0  0  0  0  0  0
    3.3860    9.0147    6.2650 H   0  0  0  0  0  0  0  0  0  0  0  0
   -1.7055   -1.6123   -1.4673 H   0  0  0  0  0  0  0  0  0  0  0  0
   -1.0382   -0.7856   -2.8840 H   0  0  0  0  0  0  0  0  0  0  0  0
    8.6469   10.4528    5.2816 H   0  0  0  0  0  0  0  0  0  0  0  0
    7.6293   10.4558    3.8421 H   0  0  0  0  0  0  0  0  0  0  0  0
    7.8715    8.9475    4.7553 H   0  0  0  0  0  0  0  0  0  0  0  0
    3.7656    9.1106    8.5619 H   0  0  0  0  0  0  0  0  0  0  0  0
    5.2496   10.0502    8.3994 H   0  0  0  0  0  0  0  0  0  0  0  0
    5.2230    8.3392    7.9081 H   0  0  0  0  0  0  0  0  0  0  0  0
   -1.2640   -2.8851   -4.2209 H   0  0  0  0  0  0  0  0  0  0  0  0
   -1.9044   -3.7262   -2.7924 H   0  0  0  0  0  0  0  0  0  0  0  0
   -2.8203   -2.3981   -3.5255 H   0  0  0  0  0  0  0  0  0  0  0  0
  1  2  1  0  0  0  0 
  1  3  2  0  0  0  0 
  1  4  1  0  0  0  0 
  2  5  1  0  0  0  0 
  4  6  2  0  0  0  0 
  4  7  1  0  0  0  0 
  5  8  1  0  0  0  0 
  6  9  1  0  0  0  0 
  7 10  2  0  0  0  0 
  8 11  1  0  0  0  0 
  9 12  1  0  0  0  0 
  9 13  2  0  0  0  0 
 10 13  1  0  0  0  0 
 11 14  1  0  0  0  0 
 13 15  1  0  0  0  0 
 14 16  1  0  0  0  0 
 15 17  1  0  0  0  0 
 16 18  1  0  0  0  0 
 17 19  1  0  0  0  0 
 18 20  1  0  0  0  0 
 18 21  1  0  0  0  0 
 19 22  1  0  0  0  0 
 20 23  1  0  0  0  0 
 21 24  1  0  0  0  0 
 22 25  1  0  0  0  0 
  5 26  1  0  0  0  0 
  5 27  1  0  0  0  0 
  6 28  1  0  0  0  0 
  7 29  1  0  0  0  0 
  8 30  1  0  0  0  0 
  8 31  1  0  0  0  0 
 10 32  1  0  0  0  0 
 12 33  1  0  0  0  0 
 12 34  1  0  0  0  0 
 14 35  1  0  0  0  0 
 14 36  1  0  0  0  0 
 16 37  1  0  0  0  0 
 16 38  1  0  0  0  0 
 17 39  1  0  0  0  0 
 17 40  1  0  0  0  0 
 19 41  1  0  0  0  0 
 19 42  1  0  0  0  0 
 20 43  1  0  0  0  0 
 20 44  1  0  0  0  0 
 21 45  1  0  0  0  0 
 21 46  1  0  0  0  0 
 22 47  1  0  0  0  0 
 22 48  1  0  0  0  0 
 23 49  1  0  0  0  0 
 23 50  1  0  0  0  0 
 23 51  1  0  0  0  0 
 24 52  1  0  0  0  0 
 24 53  1  0  0  0  0 
 24 54  1  0  0  0  0 
 25 55  1  0  0  0  0 
 25 56  1  0  0  0  0 
 25 57  1  0  0  0  0 
M  END
> <cdk:Title>
betoxycaine

> <Conformer>
1

> <SuperDrugID>
SD002627

$$$$
