etamivan
  CDK     0628171801

 33 33  0  0  0  0  0  0  0  0999 V2000
    2.0099    3.4842    2.8481 C   0  0  0  0  0  0  0  0  0  0  0  0
    1.0149    4.4450    2.9888 N   0  0  0  0  0  0  0  0  0  0  0  0
    3.0694    3.7282    2.2221 O   0  0  0  0  0  0  0  0  0  0  0  0
    1.9420    2.1751    3.3654 C   0  0  0  0  0  0  0  0  0  0  0  0
    1.2028    5.7610    2.4032 C   0  0  1  0  0  0  0  0  0  0  0  0
   -0.2229    4.1847    3.7065 C   0  0  1  0  0  0  0  0  0  0  0  0
    2.2808    1.9222    4.7134 C   0  0  0  0  0  0  0  0  0  0  0  0
    1.5681    1.1005    2.5303 C   0  0  0  0  0  0  0  0  0  0  0  0
    2.0303    6.6908    3.3198 C   0  0  0  0  0  0  0  0  0  0  0  0
   -1.3264    3.6283    2.7799 C   0  0  0  0  0  0  0  0  0  0  0  0
    2.2366    0.6105    5.2297 C   0  0  0  0  0  0  0  0  0  0  0  0
    1.5236   -0.2085    3.0428 C   0  0  0  0  0  0  0  0  0  0  0  0
    2.5906    0.3772    6.5325 O   0  0  0  0  0  0  0  0  0  0  0  0
    1.8600   -0.4583    4.3871 C   0  0  0  0  0  0  0  0  0  0  0  0
    1.5042    0.5937    7.4507 C   0  0  0  0  0  0  0  0  0  0  0  0
    1.8057   -1.7338    4.8479 O   0  0  0  0  0  0  0  0  0  0  0  0
    1.6954    5.6888    1.4273 H   0  0  0  0  0  0  0  0  0  0  0  0
    0.2407    6.2431    2.2098 H   0  0  0  0  0  0  0  0  0  0  0  0
   -0.0755    3.4870    4.5344 H   0  0  0  0  0  0  0  0  0  0  0  0
   -0.5982    5.1044    4.1644 H   0  0  0  0  0  0  0  0  0  0  0  0
    2.5571    2.6915    5.3305 H   0  0  0  0  0  0  0  0  0  0  0  0
    1.3286    1.2625    1.5479 H   0  0  0  0  0  0  0  0  0  0  0  0
    2.0606    7.6960    2.8931 H   0  0  0  0  0  0  0  0  0  0  0  0
    1.5813    6.7502    4.3135 H   0  0  0  0  0  0  0  0  0  0  0  0
    3.0547    6.3238    3.4167 H   0  0  0  0  0  0  0  0  0  0  0  0
   -1.5220    4.3229    1.9580 H   0  0  0  0  0  0  0  0  0  0  0  0
   -1.0255    2.6642    2.3662 H   0  0  0  0  0  0  0  0  0  0  0  0
   -2.2503    3.4938    3.3491 H   0  0  0  0  0  0  0  0  0  0  0  0
    1.2477   -0.9811    2.4324 H   0  0  0  0  0  0  0  0  0  0  0  0
    1.8451    0.3051    8.4450 H   0  0  0  0  0  0  0  0  0  0  0  0
    1.2154    1.6479    7.4815 H   0  0  0  0  0  0  0  0  0  0  0  0
    0.6307   -0.0159    7.1988 H   0  0  0  0  0  0  0  0  0  0  0  0
    1.9916   -1.6831    5.8081 H   0  0  0  0  0  0  0  0  0  0  0  0
  1  2  1  0  0  0  0 
  1  3  2  0  0  0  0 
  1  4  1  0  0  0  0 
  2  5  1  0  0  0  0 
  2  6  1  0  0  0  0 
  4  7  2  0  0  0  0 
  4  8  1  0  0  0  0 
  5  9  1  0  0  0  0 
  6 10  1  0  0  0  0 
  7 11  1  0  0  0  0 
  8 12  2  0  0  0  0 
 11 13  1  0  0  0  0 
 11 14  2  0  0  0  0 
 12 14  1  0  0  0  0 
 13 15  1  0  0  0  0 
 14 16  1  0  0  0  0 
  5 17  1  0  0  0  0 
  5 18  1  0  0  0  0 
  6 19  1  0  0  0  0 
  6 20  1  0  0  0  0 
  7 21  1  0  0  0  0 
  8 22  1  0  0  0  0 
  9 23  1  0  0  0  0 
  9 24  1  0  0  0  0 
  9 25  1  0  0  0  0 
 10 26  1  0  0  0  0 
 10 27  1  0  0  0  0 
 10 28  1  0  0  0  0 
 12 29  1  0  0  0  0 
 15 30  1  0  0  0  0 
 15 31  1  0  0  0  0 
 15 32  1  0  0  0  0 
 16 33  1  0  0  0  0 
M  END
> <cdk:Title>
etamivan

> <Conformer>
1

> <SuperDrugID>
SD000959

$$$$
