pentoxifylline
  CDK     0628171801

 38 39  0  0  0  0  0  0  0  0999 V2000
    2.1982   -1.9196   -1.1017 O   0  0  0  0  0  0  0  0  0  0  0  0
    2.4098   -0.9201   -0.3745 C   0  0  0  0  0  0  0  0  0  0  0  0
    3.6793   -0.7867    0.2120 C   0  0  0  0  0  0  0  0  0  0  0  0
    1.4425    0.0298   -0.1240 N   0  0  0  0  0  0  0  0  0  0  0  0
    3.9246    0.3085    1.0304 C   0  0  0  0  0  0  0  0  0  0  0  0
    4.7984   -1.5381    0.1628 N   0  0  0  0  0  0  0  0  0  0  0  0
    0.1286   -0.0807   -0.7478 C   0  0  2  0  0  0  0  0  0  0  0  0
    1.7288    1.0885    0.7210 C   0  0  0  0  0  0  0  0  0  0  0  0
    2.9761    1.2576    1.2833 N   0  0  0  0  0  0  0  0  0  0  0  0
    5.1896    0.2120    1.4739 N   0  0  0  0  0  0  0  0  0  0  0  0
    5.0080   -2.7576   -0.5570 C   0  0  0  0  0  0  0  0  0  0  0  0
    5.7037   -0.9110    0.9425 C   0  0  0  0  0  0  0  0  0  0  0  0
   -0.9028   -0.7591    0.1949 C   0  0  1  0  0  0  0  0  0  0  0  0
    0.8285    1.9248    0.9902 O   0  0  0  0  0  0  0  0  0  0  0  0
    3.2749    2.3898    2.1329 C   0  0  0  0  0  0  0  0  0  0  0  0
   -2.3185   -0.9528   -0.4178 C   0  0  2  0  0  0  0  0  0  0  0  0
   -3.1260    0.3612   -0.6328 C   0  0  1  0  0  0  0  0  0  0  0  0
   -4.5085    0.1748   -1.1463 C   0  0  0  0  0  0  0  0  0  0  0  0
   -5.3450    1.3392   -1.5006 C   0  0  0  0  0  0  0  0  0  0  0  0
   -4.9976   -0.9714   -1.2871 O   0  0  0  0  0  0  0  0  0  0  0  0
    0.1730   -0.6484   -1.6817 H   0  0  0  0  0  0  0  0  0  0  0  0
   -0.2289    0.9096   -1.0398 H   0  0  0  0  0  0  0  0  0  0  0  0
    4.8425   -2.5984   -1.6249 H   0  0  0  0  0  0  0  0  0  0  0  0
    6.0225   -3.1386   -0.4233 H   0  0  0  0  0  0  0  0  0  0  0  0
    4.3111   -3.5159   -0.1978 H   0  0  0  0  0  0  0  0  0  0  0  0
    6.6582   -1.2361    1.1171 H   0  0  0  0  0  0  0  0  0  0  0  0
   -0.5157   -1.7480    0.4569 H   0  0  0  0  0  0  0  0  0  0  0  0
   -0.9908   -0.1872    1.1219 H   0  0  0  0  0  0  0  0  0  0  0  0
    2.8422    3.3063    1.7257 H   0  0  0  0  0  0  0  0  0  0  0  0
    4.3466    2.5737    2.2367 H   0  0  0  0  0  0  0  0  0  0  0  0
    2.8546    2.2217    3.1266 H   0  0  0  0  0  0  0  0  0  0  0  0
   -2.8835   -1.5950    0.2635 H   0  0  0  0  0  0  0  0  0  0  0  0
   -2.2286   -1.4848   -1.3683 H   0  0  0  0  0  0  0  0  0  0  0  0
   -3.1881    0.8941    0.3192 H   0  0  0  0  0  0  0  0  0  0  0  0
   -2.5894    0.9945   -1.3410 H   0  0  0  0  0  0  0  0  0  0  0  0
   -6.3194    1.0232   -1.8797 H   0  0  0  0  0  0  0  0  0  0  0  0
   -4.8499    1.9303   -2.2738 H   0  0  0  0  0  0  0  0  0  0  0  0
   -5.5068    1.9645   -0.6207 H   0  0  0  0  0  0  0  0  0  0  0  0
  1  2  2  0  0  0  0 
  2  3  1  0  0  0  0 
  2  4  1  0  0  0  0 
  3  5  2  0  0  0  0 
  3  6  1  0  0  0  0 
  4  7  1  0  0  0  0 
  4  8  1  0  0  0  0 
  5  9  1  0  0  0  0 
  5 10  1  0  0  0  0 
  6 11  1  0  0  0  0 
  6 12  1  0  0  0  0 
  7 13  1  0  0  0  0 
  8  9  1  0  0  0  0 
  8 14  2  0  0  0  0 
  9 15  1  0  0  0  0 
 10 12  2  0  0  0  0 
 13 16  1  0  0  0  0 
 16 17  1  0  0  0  0 
 17 18  1  0  0  0  0 
 18 19  1  0  0  0  0 
 18 20  2  0  0  0  0 
  7 21  1  0  0  0  0 
  7 22  1  0  0  0  0 
 11 23  1  0  0  0  0 
 11 24  1  0  0  0  0 
 11 25  1  0  0  0  0 
 12 26  1  0  0  0  0 
 13 27  1  0  0  0  0 
 13 28  1  0  0  0  0 
 15 29  1  0  0  0  0 
 15 30  1  0  0  0  0 
 15 31  1  0  0  0  0 
 16 32  1  0  0  0  0 
 16 33  1  0  0  0  0 
 17 34  1  0  0  0  0 
 17 35  1  0  0  0  0 
 19 36  1  0  0  0  0 
 19 37  1  0  0  0  0 
 19 38  1  0  0  0  0 
M  END
> <cdk:Title>
pentoxifylline

> <Conformer>
1

> <SuperDrugID>
SD001881

$$$$
