fluindione
  CDK     0628171801

 27 29  0  0  0  0  0  0  0  0999 V2000
    1.7800    4.4111    2.1648 O   0  0  0  0  0  0  0  0  0  0  0  0
    1.6514    4.6599    0.9444 C   0  0  0  0  0  0  0  0  0  0  0  0
    2.0426    3.7373   -0.1436 C   0  0  2  0  0  0  0  0  0  0  0  0
    1.1271    5.8409    0.4213 C   0  0  0  0  0  0  0  0  0  0  0  0
    1.6971    4.5354   -1.3401 C   0  0  0  0  0  0  0  0  0  0  0  0
    1.3247    2.4265   -0.0866 C   0  0  0  0  0  0  0  0  0  0  0  0
    1.1548    5.7651   -0.9698 C   0  0  0  0  0  0  0  0  0  0  0  0
    0.6190    6.9802    1.0741 C   0  0  0  0  0  0  0  0  0  0  0  0
    1.8733    4.1554   -2.5201 O   0  0  0  0  0  0  0  0  0  0  0  0
   -0.0920    2.3599   -0.1115 C   0  0  0  0  0  0  0  0  0  0  0  0
    2.0516    1.2129   -0.0060 C   0  0  0  0  0  0  0  0  0  0  0  0
    0.6752    6.8261   -1.7618 C   0  0  0  0  0  0  0  0  0  0  0  0
    0.1445    8.0533    0.2909 C   0  0  0  0  0  0  0  0  0  0  0  0
   -0.7585    1.1219   -0.0571 C   0  0  0  0  0  0  0  0  0  0  0  0
    1.3844   -0.0259    0.0485 C   0  0  0  0  0  0  0  0  0  0  0  0
    0.1724    7.9766   -1.1187 C   0  0  0  0  0  0  0  0  0  0  0  0
   -0.0216   -0.0737    0.0232 C   0  0  0  0  0  0  0  0  0  0  0  0
   -0.6398   -1.2228    0.0741 F   0  0  0  0  0  0  0  0  0  0  0  0
    3.1299    3.6083   -0.1145 H   0  0  0  0  0  0  0  0  0  0  0  0
    0.5900    7.0318    2.0939 H   0  0  0  0  0  0  0  0  0  0  0  0
   -0.6487    3.2167   -0.1698 H   0  0  0  0  0  0  0  0  0  0  0  0
    3.0751    1.2223    0.0135 H   0  0  0  0  0  0  0  0  0  0  0  0
    0.6864    6.7672   -2.7814 H   0  0  0  0  0  0  0  0  0  0  0  0
   -0.2227    8.8918    0.7468 H   0  0  0  0  0  0  0  0  0  0  0  0
   -1.7803    1.0931   -0.0762 H   0  0  0  0  0  0  0  0  0  0  0  0
    1.9255   -0.8919    0.1064 H   0  0  0  0  0  0  0  0  0  0  0  0
   -0.1747    8.7603   -1.6765 H   0  0  0  0  0  0  0  0  0  0  0  0
  1  2  2  0  0  0  0 
  2  3  1  0  0  0  0 
  2  4  1  0  0  0  0 
  3  5  1  0  0  0  0 
  3  6  1  0  0  0  0 
  4  7  2  0  0  0  0 
  4  8  1  0  0  0  0 
  5  7  1  0  0  0  0 
  5  9  2  0  0  0  0 
  6 10  2  0  0  0  0 
  6 11  1  0  0  0  0 
  7 12  1  0  0  0  0 
  8 13  2  0  0  0  0 
 10 14  1  0  0  0  0 
 11 15  2  0  0  0  0 
 12 16  2  0  0  0  0 
 13 16  1  0  0  0  0 
 14 17  2  0  0  0  0 
 15 17  1  0  0  0  0 
 17 18  1  0  0  0  0 
  3 19  1  0  0  0  0 
  8 20  1  0  0  0  0 
 10 21  1  0  0  0  0 
 11 22  1  0  0  0  0 
 12 23  1  0  0  0  0 
 13 24  1  0  0  0  0 
 14 25  1  0  0  0  0 
 15 26  1  0  0  0  0 
 16 27  1  0  0  0  0 
M  END
> <cdk:Title>
fluindione

> <Conformer>
1

> <SuperDrugID>
SD001068

$$$$
