tevenel
  CDK     0628171801

 35 35  0  0  0  0  0  0  0  0999 V2000
    6.2402    0.7217   -0.6167 C   0  0  2  0  0  0  0  0  0  0  0  0
    6.7042   -0.6518   -1.2081 C   0  0  2  0  0  0  0  0  0  0  0  0
    7.3251    1.6500   -0.6393 O   0  0  0  0  0  0  0  0  0  0  0  0
    5.6295    0.6508    0.7468 C   0  0  0  0  0  0  0  0  0  0  0  0
    5.5816   -1.5026   -1.4821 N   0  0  0  0  0  0  0  0  0  0  0  0
    7.7163   -1.4374   -0.3291 C   0  0  1  0  0  0  0  0  0  0  0  0
    6.4057    0.8308    1.9180 C   0  0  0  0  0  0  0  0  0  0  0  0
    4.2402    0.4284    0.8988 C   0  0  0  0  0  0  0  0  0  0  0  0
    4.7213   -1.3772   -2.5331 C   0  0  0  0  0  0  0  0  0  0  0  0
    8.8877   -0.6741   -0.0582 O   0  0  0  0  0  0  0  0  0  0  0  0
    5.8087    0.8248    3.1918 C   0  0  0  0  0  0  0  0  0  0  0  0
    3.6422    0.4133    2.1736 C   0  0  0  0  0  0  0  0  0  0  0  0
    3.5787   -2.3036   -2.6688 C   0  0  1  0  0  0  0  0  0  0  0  0
    4.8755   -0.4749   -3.3912 O   0  0  0  0  0  0  0  0  0  0  0  0
    4.4215    0.6295    3.3284 C   0  0  0  0  0  0  0  0  0  0  0  0
    4.1391   -3.9662   -2.8082 Cl  0  0  0  0  0  0  0  0  0  0  0  0
    2.4979   -2.1889   -1.2838 Cl  0  0  0  0  0  0  0  0  0  0  0  0
    3.6896    0.6917    4.9414 S   0  0  1  0  0  0  0  0  0  0  0  0
    4.3752   -0.5658    5.9609 N   0  0  2  0  0  0  0  0  0  0  0  0
    4.0014    2.1074    5.6286 O   0  0  0  0  0  0  0  0  0  0  0  0
    2.1007    0.4819    4.8807 O   0  0  0  0  0  0  0  0  0  0  0  0
    5.5027    1.1599   -1.2973 H   0  0  0  0  0  0  0  0  0  0  0  0
    7.2179   -0.4534   -2.1561 H   0  0  0  0  0  0  0  0  0  0  0  0
    7.5845    1.7211   -1.5826 H   0  0  0  0  0  0  0  0  0  0  0  0
    5.4039   -2.2187   -0.8524 H   0  0  0  0  0  0  0  0  0  0  0  0
    7.2586   -1.7322    0.6163 H   0  0  0  0  0  0  0  0  0  0  0  0
    8.0278   -2.3447   -0.8514 H   0  0  0  0  0  0  0  0  0  0  0  0
    7.4151    0.9801    1.8540 H   0  0  0  0  0  0  0  0  0  0  0  0
    3.6492    0.2852    0.0764 H   0  0  0  0  0  0  0  0  0  0  0  0
    9.4544   -1.2599    0.4859 H   0  0  0  0  0  0  0  0  0  0  0  0
    6.3914    0.9767    4.0188 H   0  0  0  0  0  0  0  0  0  0  0  0
    2.6353    0.2551    2.2502 H   0  0  0  0  0  0  0  0  0  0  0  0
    2.9956   -2.0708   -3.5641 H   0  0  0  0  0  0  0  0  0  0  0  0
    3.9681   -0.4453    6.8903 H   0  0  0  0  0  0  0  0  0  0  0  0
    5.3734   -0.3669    6.0514 H   0  0  0  0  0  0  0  0  0  0  0  0
  2  1  1  0  0  0  0 
  1  3  1  0  0  0  0 
  1  4  1  0  0  0  0 
  2  5  1  0  0  0  0 
  2  6  1  0  0  0  0 
  4  7  2  0  0  0  0 
  4  8  1  0  0  0  0 
  5  9  1  0  0  0  0 
  6 10  1  0  0  0  0 
  7 11  1  0  0  0  0 
  8 12  2  0  0  0  0 
  9 13  1  0  0  0  0 
  9 14  2  0  0  0  0 
 11 15  2  0  0  0  0 
 12 15  1  0  0  0  0 
 13 16  1  0  0  0  0 
 13 17  1  0  0  0  0 
 15 18  1  0  0  0  0 
 18 19  1  0  0  0  0 
 18 20  2  0  0  0  0 
 18 21  2  0  0  0  0 
  1 22  1  0  0  0  0 
  2 23  1  0  0  0  0 
  3 24  1  0  0  0  0 
  5 25  1  0  0  0  0 
  6 26  1  0  0  0  0 
  6 27  1  0  0  0  0 
  7 28  1  0  0  0  0 
  8 29  1  0  0  0  0 
 10 30  1  0  0  0  0 
 11 31  1  0  0  0  0 
 12 32  1  0  0  0  0 
 13 33  1  0  0  0  0 
 19 34  1  0  0  0  0 
 19 35  1  0  0  0  0 
M  END
> <cdk:Title>
tevenel

> <Conformer>
1

> <SuperDrugID>
SD003275

$$$$
