etofylline
  CDK     0628171801

 28 29  0  0  0  0  0  0  0  0999 V2000
   -0.1893    0.3246   -0.8176 C   0  0  1  0  0  0  0  0  0  0  0  0
   -1.1545   -0.0209   -1.9738 C   0  0  2  0  0  0  0  0  0  0  0  0
    0.2353    1.6972   -0.8892 N   0  0  0  0  0  0  0  0  0  0  0  0
   -2.3553    0.7393   -1.8725 O   0  0  0  0  0  0  0  0  0  0  0  0
    1.2621    2.2438   -1.5801 C   0  0  0  0  0  0  0  0  0  0  0  0
   -0.3811    2.7248   -0.2699 C   0  0  0  0  0  0  0  0  0  0  0  0
    1.2497    3.6155   -1.3563 C   0  0  0  0  0  0  0  0  0  0  0  0
    2.2510    1.7111   -2.4270 C   0  0  0  0  0  0  0  0  0  0  0  0
    0.2214    3.8941   -0.5373 N   0  0  0  0  0  0  0  0  0  0  0  0
    2.1533    4.4619   -1.9282 N   0  0  0  0  0  0  0  0  0  0  0  0
    2.2433    0.4778   -2.6530 O   0  0  0  0  0  0  0  0  0  0  0  0
    3.1852    2.5537   -2.9900 N   0  0  0  0  0  0  0  0  0  0  0  0
    2.0571    5.8842   -1.6763 C   0  0  0  0  0  0  0  0  0  0  0  0
    3.1102    3.9168   -2.7582 C   0  0  0  0  0  0  0  0  0  0  0  0
    4.2222    2.0020   -3.8420 C   0  0  0  0  0  0  0  0  0  0  0  0
    3.9275    4.6885   -3.3214 O   0  0  0  0  0  0  0  0  0  0  0  0
   -0.6980    0.1363    0.1341 H   0  0  0  0  0  0  0  0  0  0  0  0
    0.6724   -0.3450   -0.8468 H   0  0  0  0  0  0  0  0  0  0  0  0
   -1.4093   -1.0818   -1.9340 H   0  0  0  0  0  0  0  0  0  0  0  0
   -0.6805    0.1886   -2.9340 H   0  0  0  0  0  0  0  0  0  0  0  0
   -2.8813    0.4924   -2.6616 H   0  0  0  0  0  0  0  0  0  0  0  0
   -1.2109    2.6374    0.3221 H   0  0  0  0  0  0  0  0  0  0  0  0
    1.4420    6.3460   -2.4516 H   0  0  0  0  0  0  0  0  0  0  0  0
    1.6093    6.1027   -0.7031 H   0  0  0  0  0  0  0  0  0  0  0  0
    3.0366    6.3647   -1.6752 H   0  0  0  0  0  0  0  0  0  0  0  0
    4.5036    0.9880   -3.5482 H   0  0  0  0  0  0  0  0  0  0  0  0
    5.1458    2.5815   -3.8038 H   0  0  0  0  0  0  0  0  0  0  0  0
    3.8670    1.9769   -4.8737 H   0  0  0  0  0  0  0  0  0  0  0  0
  1  2  1  0  0  0  0 
  1  3  1  0  0  0  0 
  2  4  1  0  0  0  0 
  3  5  1  0  0  0  0 
  3  6  1  0  0  0  0 
  5  7  2  0  0  0  0 
  5  8  1  0  0  0  0 
  6  9  2  0  0  0  0 
  7  9  1  0  0  0  0 
  7 10  1  0  0  0  0 
  8 11  2  0  0  0  0 
  8 12  1  0  0  0  0 
 10 13  1  0  0  0  0 
 10 14  1  0  0  0  0 
 12 14  1  0  0  0  0 
 12 15  1  0  0  0  0 
 14 16  2  0  0  0  0 
  1 17  1  0  0  0  0 
  1 18  1  0  0  0  0 
  2 19  1  0  0  0  0 
  2 20  1  0  0  0  0 
  4 21  1  0  0  0  0 
  6 22  1  0  0  0  0 
 13 23  1  0  0  0  0 
 13 24  1  0  0  0  0 
 13 25  1  0  0  0  0 
 15 26  1  0  0  0  0 
 15 27  1  0  0  0  0 
 15 28  1  0  0  0  0 
M  END
> <cdk:Title>
etofylline

> <Conformer>
1

> <SuperDrugID>
SD000988

$$$$
