carperitide
  CDK     0628171802

417420  0  0  0  0  0  0  0  0999 V2000
  -28.0476   -5.1088    1.4640 N   0  0  2  0  0  0  0  0  0  0  0  0
  -29.3777   -7.4365    2.7104 N   0  0  0  0  0  0  0  0  0  0  0  0
  -27.1614   -8.0729    4.3359 N   0  0  0  0  0  0  0  0  0  0  0  0
  -25.4346   -8.0932    6.8778 N   0  0  0  0  0  0  0  0  0  0  0  0
  -24.1953   -5.5082    7.0587 N   0  0  0  0  0  0  0  0  0  0  0  0
  -22.9492   -2.1992    6.5327 N   0  0  0  0  0  0  0  0  0  0  0  0
  -21.2502    0.5318    5.0927 N   0  0  0  0  0  0  0  0  0  0  0  0
  -21.5872    2.2702    2.6859 N   0  0  0  0  0  0  0  0  0  0  0  0
  -19.8296   -0.7407    2.4830 N   0  0  0  0  0  0  0  0  0  0  0  0
  -16.8582   -2.1608    4.0960 N   0  0  0  0  0  0  0  0  0  0  0  0
  -16.8888   -5.0338    4.6342 N   0  0  0  0  0  0  0  0  0  0  0  0
  -15.3169   -5.6256    2.2014 N   0  0  0  0  0  0  0  0  0  0  0  0
  -14.7598   -6.0958   -1.2351 N   0  0  0  0  0  0  0  0  0  0  0  0
  -13.1275   -4.7914   -3.2554 N   0  0  0  0  0  0  0  0  0  0  0  0
  -11.2685   -4.2424   -6.0110 N   0  0  0  0  0  0  0  0  0  0  0  0
   -9.3805   -3.7291   -8.8418 N   0  0  0  0  0  0  0  0  0  0  0  0
  -10.3299   -1.3420  -10.2906 N   0  0  0  0  0  0  0  0  0  0  0  0
   -8.6569    1.7532  -10.5212 N   0  0  0  0  0  0  0  0  0  0  0  0
   -9.4328    4.4433   -9.7964 N   0  0  0  0  0  0  0  0  0  0  0  0
  -11.1241    5.3366   -7.8330 N   0  0  0  0  0  0  0  0  0  0  0  0
  -11.3515    5.4514   -4.2356 N   0  0  0  0  0  0  0  0  0  0  0  0
  -13.8589    6.2231   -1.9820 N   0  0  0  0  0  0  0  0  0  0  0  0
  -15.5427    4.5060    0.3837 N   0  0  0  0  0  0  0  0  0  0  0  0
  -13.0747    3.2487    1.2754 N   0  0  0  0  0  0  0  0  0  0  0  0
  -11.1546    1.2890    3.1187 N   0  0  0  0  0  0  0  0  0  0  0  0
   -9.7274   -1.1124    3.7856 N   0  0  0  0  0  0  0  0  0  0  0  0
   -8.2822   -2.5963    5.9894 N   0  0  0  0  0  0  0  0  0  0  0  0
   -7.6419   -5.0832    7.3277 N   0  0  0  0  0  0  0  0  0  0  0  0
   -6.4060   -7.4789    9.3994 O   0  0  0  0  0  0  0  0  0  0  0  0
  -29.8872   -6.1840    2.5510 C   0  0  0  0  0  0  0  0  0  0  0  0
  -29.8327   -6.0681    0.0260 C   0  0  1  0  0  0  0  0  0  0  0  0
  -29.5007   -5.2191   -1.0685 O   0  0  0  0  0  0  0  0  0  0  0  0
  -29.4899   -5.3799    1.3717 C   0  0  2  0  0  0  0  0  0  0  0  0
  -30.6693   -5.6879    3.3963 O   0  0  0  0  0  0  0  0  0  0  0  0
  -28.2075   -8.9080    4.0654 C   0  0  0  0  0  0  0  0  0  0  0  0
  -32.2435  -11.2237    4.2312 C   0  0  0  0  0  0  0  0  0  0  0  0
  -30.7201   -9.2799    3.5584 C   0  0  2  0  0  0  0  0  0  0  0  0
  -29.5425   -8.2943    3.8488 C   0  0  2  0  0  0  0  0  0  0  0  0
  -31.6689   -9.4544    5.9783 C   0  0  0  0  0  0  0  0  0  0  0  0
  -31.1589  -10.2242    4.7268 C   0  0  1  0  0  0  0  0  0  0  0  0
  -28.0266  -10.1438    3.9417 O   0  0  0  0  0  0  0  0  0  0  0  0
  -25.2714   -8.7769    5.7071 C   0  0  0  0  0  0  0  0  0  0  0  0
  -24.9428   -7.2716    3.6847 C   0  0  1  0  0  0  0  0  0  0  0  0
  -23.5129   -7.7123    3.2611 C   0  0  1  0  0  0  0  0  0  0  0  0
  -22.6999   -6.6012    2.5473 C   0  0  2  0  0  0  0  0  0  0  0  0
  -21.6511   -7.1798    1.8350 N   0  0  0  0  0  0  0  0  0  0  0  0
  -20.7586   -6.6212    1.1017 C   0  0  0  0  0  0  0  0  0  0  0  0
  -20.6774   -5.3189    0.9075 N   0  0  0  0  0  0  0  0  0  0  0  0
  -19.8910   -7.4068    0.5074 N   0  0  0  0  0  0  0  0  0  0  0  0
  -25.7697   -8.4182    4.3460 C   0  0  2  0  0  0  0  0  0  0  0  0
  -24.6125   -9.8364    5.8223 O   0  0  0  0  0  0  0  0  0  0  0  0
  -25.2946   -5.8972    7.7609 C   0  0  0  0  0  0  0  0  0  0  0  0
  -27.4302   -7.3429    7.9795 C   0  0  1  0  0  0  0  0  0  0  0  0
  -28.5502   -6.2744    8.1175 C   0  0  1  0  0  0  0  0  0  0  0  0
  -29.7288   -6.7825    8.9860 C   0  0  2  0  0  0  0  0  0  0  0  0
  -30.7484   -5.8341    9.0475 N   0  0  0  0  0  0  0  0  0  0  0  0
  -31.8735   -5.9179    9.6637 C   0  0  0  0  0  0  0  0  0  0  0  0
  -32.2510   -6.9718   10.3624 N   0  0  0  0  0  0  0  0  0  0  0  0
  -32.6965   -4.8972    9.5963 N   0  0  0  0  0  0  0  0  0  0  0  0
  -26.1943   -6.9027    7.1337 C   0  0  2  0  0  0  0  0  0  0  0  0
  -25.5346   -5.4122    8.8920 O   0  0  0  0  0  0  0  0  0  0  0  0
  -23.1135   -3.5370    6.2898 C   0  0  0  0  0  0  0  0  0  0  0  0
  -21.8568   -5.2175    7.6442 C   0  0  2  0  0  0  0  0  0  0  0  0
  -20.8517   -4.2748    8.0065 O   0  0  0  0  0  0  0  0  0  0  0  0
  -23.2169   -4.5151    7.4048 C   0  0  2  0  0  0  0  0  0  0  0  0
  -23.1660   -3.9632    5.1091 O   0  0  0  0  0  0  0  0  0  0  0  0
  -22.2147    0.0406    5.9232 C   0  0  0  0  0  0  0  0  0  0  0  0
  -24.4207   -0.8297    5.1529 C   0  0  1  0  0  0  0  0  0  0  0  0
  -24.4866    0.1630    4.1323 O   0  0  0  0  0  0  0  0  0  0  0  0
  -22.9513   -1.1842    5.5140 C   0  0  2  0  0  0  0  0  0  0  0  0
  -22.5632    0.6538    6.9599 O   0  0  0  0  0  0  0  0  0  0  0  0
  -21.2935    2.6475    3.9708 C   0  0  0  0  0  0  0  0  0  0  0  0
  -18.3937    3.4737    4.9482 S   0  0  0  0  0  0  0  0  0  0  0  0
  -19.1355    1.8096    4.9985 C   0  0  2  0  0  0  0  0  0  0  0  0
  -20.6886    1.8498    5.0851 C   0  0  2  0  0  0  0  0  0  0  0  0
  -21.5671    3.8462    4.2116 O   0  0  0  0  0  0  0  0  0  0  0  0
  -20.1521    0.4659    1.9380 C   0  0  0  0  0  0  0  0  0  0  0  0
  -22.2465    1.0397    0.6813 C   0  0  1  0  0  0  0  0  0  0  0  0
  -22.3342   -0.2822   -0.0076 C   0  0  0  0  0  0  0  0  0  0  0  0
  -23.1666   -1.3065    0.5060 C   0  0  0  0  0  0  0  0  0  0  0  0
  -23.2378   -2.5615   -0.1268 C   0  0  0  0  0  0  0  0  0  0  0  0
  -22.4822   -2.8096   -1.2861 C   0  0  0  0  0  0  0  0  0  0  0  0
  -21.6551   -1.8014   -1.8114 C   0  0  0  0  0  0  0  0  0  0  0  0
  -21.5819   -0.5469   -1.1778 C   0  0  0  0  0  0  0  0  0  0  0  0
  -21.5390    0.9736    2.0691 C   0  0  2  0  0  0  0  0  0  0  0  0
  -19.3050    1.1621    1.3292 O   0  0  0  0  0  0  0  0  0  0  0  0
  -18.1448   -1.7617    3.9069 C   0  0  0  0  0  0  0  0  0  0  0  0
  -18.5236   -1.3143    2.5511 C   0  0  1  0  0  0  0  0  0  0  0  0
  -18.9906   -1.8083    4.8322 O   0  0  0  0  0  0  0  0  0  0  0  0
  -15.9060   -4.1342    4.9171 C   0  0  0  0  0  0  0  0  0  0  0  0
  -16.3049   -2.7586    5.2694 C   0  0  1  0  0  0  0  0  0  0  0  0
  -14.6906   -4.4310    4.8399 O   0  0  0  0  0  0  0  0  0  0  0  0
  -16.4927   -6.1797    2.6182 C   0  0  0  0  0  0  0  0  0  0  0  0
  -18.0534   -7.1111    4.4393 C   0  0  2  0  0  0  0  0  0  0  0  0
  -18.0916   -8.6178    4.0643 C   0  0  1  0  0  0  0  0  0  0  0  0
  -19.4516   -9.2526    4.4541 C   0  0  1  0  0  0  0  0  0  0  0  0
  -19.4797  -10.6105    4.1483 N   0  0  0  0  0  0  0  0  0  0  0  0
  -20.4506  -11.4372    4.3063 C   0  0  0  0  0  0  0  0  0  0  0  0
  -20.2503  -12.6837    3.9501 N   0  0  0  0  0  0  0  0  0  0  0  0
  -21.6296  -11.1061    4.8015 N   0  0  0  0  0  0  0  0  0  0  0  0
  -16.7394   -6.3496    4.0772 C   0  0  2  0  0  0  0  0  0  0  0  0
  -17.3839   -6.4544    1.7802 O   0  0  0  0  0  0  0  0  0  0  0  0
  -14.2861   -5.8520    0.0200 C   0  0  0  0  0  0  0  0  0  0  0  0
  -14.6485   -2.6040   -0.0006 C   0  0  1  0  0  0  0  0  0  0  0  0
  -14.4313   -3.6054    1.1625 C   0  0  2  0  0  0  0  0  0  0  0  0
  -15.0928   -5.0023    0.9282 C   0  0  2  0  0  0  0  0  0  0  0  0
  -16.4688   -0.8670   -1.4304 C   0  0  0  0  0  0  0  0  0  0  0  0
  -16.3947   -2.0952   -0.1042 S   0  0  0  0  0  0  0  0  0  0  0  0
  -13.1787   -6.2955    0.4071 O   0  0  0  0  0  0  0  0  0  0  0  0
  -13.9312   -5.8815   -3.4261 C   0  0  0  0  0  0  0  0  0  0  0  0
  -14.9681   -8.0916   -2.5847 C   0  0  2  0  0  0  0  0  0  0  0  0
  -14.4004   -8.9727   -3.6258 C   0  0  0  0  0  0  0  0  0  0  0  0
  -15.1102   -9.2826   -4.7351 O   0  0  0  0  0  0  0  0  0  0  0  0
  -13.2542   -9.4573   -3.4990 O   0  0  0  0  0  0  0  0  0  0  0  0
  -14.1098   -6.8224   -2.2861 C   0  0  2  0  0  0  0  0  0  0  0  0
  -14.5053   -6.0855   -4.5230 O   0  0  0  0  0  0  0  0  0  0  0  0
  -11.4805   -3.9237   -4.7038 C   0  0  0  0  0  0  0  0  0  0  0  0
  -13.1209   -2.3664   -3.5707 C   0  0  1  0  0  0  0  0  0  0  0  0
  -13.0688   -1.1749   -4.5659 C   0  0  1  0  0  0  0  0  0  0  0  0
  -13.2861    0.1899   -3.8646 C   0  0  2  0  0  0  0  0  0  0  0  0
  -13.6182    1.1733   -4.7933 N   0  0  0  0  0  0  0  0  0  0  0  0
  -13.9335    2.3977   -4.5714 C   0  0  0  0  0  0  0  0  0  0  0  0
  -14.2371    3.1467   -5.6029 N   0  0  0  0  0  0  0  0  0  0  0  0
  -13.9818    2.9335   -3.3679 N   0  0  0  0  0  0  0  0  0  0  0  0
  -12.8692   -3.7574   -4.2179 C   0  0  2  0  0  0  0  0  0  0  0  0
  -10.5252   -3.7967   -3.9006 O   0  0  0  0  0  0  0  0  0  0  0  0
  -10.1773   -4.5388   -8.0874 C   0  0  0  0  0  0  0  0  0  0  0  0
   -9.4064   -5.9204   -6.0675 C   0  0  2  0  0  0  0  0  0  0  0  0
  -10.4307   -7.0961   -6.0504 C   0  0  0  0  0  0  0  0  0  0  0  0
  -10.0057   -4.5669   -6.6097 C   0  0  2  0  0  0  0  0  0  0  0  0
   -6.9150   -5.3674   -6.6932 C   0  0  0  0  0  0  0  0  0  0  0  0
   -8.0879   -6.3715   -6.7802 C   0  0  2  0  0  0  0  0  0  0  0  0
  -11.0389   -5.2764   -8.6241 O   0  0  0  0  0  0  0  0  0  0  0  0
   -9.3197   -2.1802  -10.6442 C   0  0  0  0  0  0  0  0  0  0  0  0
   -9.4093   -3.6010  -10.2641 C   0  0  1  0  0  0  0  0  0  0  0  0
   -8.3297   -1.7739  -11.2983 O   0  0  0  0  0  0  0  0  0  0  0  0
   -9.4618    0.8710   -9.8623 C   0  0  0  0  0  0  0  0  0  0  0  0
  -11.8733    0.5334  -10.3813 C   0  0  0  0  0  0  0  0  0  0  0  0
  -10.4256    0.0458  -10.6311 C   0  0  2  0  0  0  0  0  0  0  0  0
   -9.4302    0.7595   -8.6130 O   0  0  0  0  0  0  0  0  0  0  0  0
   -8.2188    4.0433  -10.2710 C   0  0  0  0  0  0  0  0  0  0  0  0
   -6.2920    2.3358  -10.3945 C   0  0  1  0  0  0  0  0  0  0  0  0
   -5.1862    3.0880   -9.5977 C   0  0  1  0  0  0  0  0  0  0  0  0
   -3.8313    2.8735  -10.1488 C   0  0  0  0  0  0  0  0  0  0  0  0
   -3.2988    1.6410  -10.2253 N   0  0  0  0  0  0  0  0  0  0  0  0
   -3.1436    3.8405  -10.5500 O   0  0  0  0  0  0  0  0  0  0  0  0
   -7.7387    2.6797   -9.9221 C   0  0  2  0  0  0  0  0  0  0  0  0
   -7.5406    4.8063  -11.0003 O   0  0  0  0  0  0  0  0  0  0  0  0
  -11.0203    6.0818   -8.9717 C   0  0  0  0  0  0  0  0  0  0  0  0
  -10.8020    5.5867  -11.4449 C   0  0  1  0  0  0  0  0  0  0  0  0
  -11.2073    6.8659  -11.9221 O   0  0  0  0  0  0  0  0  0  0  0  0
  -10.0858    5.6951  -10.0680 C   0  0  2  0  0  0  0  0  0  0  0  0
  -11.7044    7.1252   -9.1014 O   0  0  0  0  0  0  0  0  0  0  0  0
  -11.4495    4.9527   -5.5027 C   0  0  0  0  0  0  0  0  0  0  0  0
  -12.0104    5.5640   -6.7322 C   0  0  2  0  0  0  0  0  0  0  0  0
  -10.9989    3.7881   -5.6064 O   0  0  0  0  0  0  0  0  0  0  0  0
  -13.4153    6.4135   -3.2991 C   0  0  0  0  0  0  0  0  0  0  0  0
  -10.1020   10.0276   -5.0272 C   0  0  0  0  0  0  0  0  0  0  0  0
  -11.5935    8.0729   -4.2161 C   0  0  2  0  0  0  0  0  0  0  0  0
  -11.8999    6.6392   -3.6168 C   0  0  2  0  0  0  0  0  0  0  0  0
   -9.1779    7.6553   -5.1639 C   0  0  0  0  0  0  0  0  0  0  0  0
  -10.1107    8.6145   -4.3775 C   0  0  1  0  0  0  0  0  0  0  0  0
  -14.3339    6.3723   -4.1830 O   0  0  0  0  0  0  0  0  0  0  0  0
  -15.1538    5.7294   -0.0790 C   0  0  0  0  0  0  0  0  0  0  0  0
  -15.1969    6.0164   -1.5279 C   0  0  1  0  0  0  0  0  0  0  0  0
  -14.7025    6.6135    0.6887 O   0  0  0  0  0  0  0  0  0  0  0  0
  -14.3609    2.9027    1.5731 C   0  0  0  0  0  0  0  0  0  0  0  0
  -16.4930    3.1403    4.1197 S   0  0  0  0  0  0  0  0  0  0  0  0
  -16.7044    3.6209    2.3716 C   0  0  1  0  0  0  0  0  0  0  0  0
  -15.3477    4.0021    1.7128 C   0  0  2  0  0  0  0  0  0  0  0  0
  -14.6980    1.7028    1.7188 O   0  0  0  0  0  0  0  0  0  0  0  0
  -11.1635    2.3847    2.3100 C   0  0  0  0  0  0  0  0  0  0  0  0
  -11.1943    2.8259   -0.2053 C   0  0  1  0  0  0  0  0  0  0  0  0
  -10.0081    2.0038   -0.5380 C   0  0  0  0  0  0  0  0  0  0  0  0
   -9.9402    1.2895   -1.6756 N   0  0  0  0  0  0  0  0  0  0  0  0
   -9.0167    1.9784    0.2258 O   0  0  0  0  0  0  0  0  0  0  0  0
  -11.9696    2.3632    1.0654 C   0  0  2  0  0  0  0  0  0  0  0  0
  -10.5221    3.4208    2.6105 O   0  0  0  0  0  0  0  0  0  0  0  0
  -10.3740   -0.2870    4.6628 C   0  0  0  0  0  0  0  0  0  0  0  0
  -11.1123    2.0232    5.4730 C   0  0  1  0  0  0  0  0  0  0  0  0
  -10.3334    2.0025    6.6660 O   0  0  0  0  0  0  0  0  0  0  0  0
  -10.4459    1.1638    4.3573 C   0  0  2  0  0  0  0  0  0  0  0  0
  -10.8983   -0.7507    5.7056 O   0  0  0  0  0  0  0  0  0  0  0  0
   -8.2876   -2.7556    4.6410 C   0  0  0  0  0  0  0  0  0  0  0  0
   -9.6909   -3.2348    2.5468 C   0  0  1  0  0  0  0  0  0  0  0  0
   -9.6981   -4.7218    2.6670 C   0  0  0  0  0  0  0  0  0  0  0  0
  -10.8593   -5.3956    3.1176 C   0  0  0  0  0  0  0  0  0  0  0  0
  -10.8680   -6.7948    3.2630 C   0  0  0  0  0  0  0  0  0  0  0  0
   -9.7143   -7.5408    2.9631 C   0  0  0  0  0  0  0  0  0  0  0  0
   -8.5538   -6.8859    2.5140 C   0  0  0  0  0  0  0  0  0  0  0  0
   -8.5478   -5.4871    2.3594 C   0  0  0  0  0  0  0  0  0  0  0  0
   -9.5723   -2.5305    3.9322 C   0  0  2  0  0  0  0  0  0  0  0  0
   -7.2382   -3.0404    4.0150 O   0  0  0  0  0  0  0  0  0  0  0  0
   -7.5291   -3.8123    7.8158 C   0  0  0  0  0  0  0  0  0  0  0  0
   -6.8889   -1.3254    7.4903 C   0  0  2  0  0  0  0  0  0  0  0  0
   -5.5753   -1.2413    8.3130 C   0  0  1  0  0  0  0  0  0  0  0  0
   -5.3099    0.1877    8.8506 C   0  0  1  0  0  0  0  0  0  0  0  0
   -4.1297    0.2140    9.5923 N   0  0  0  0  0  0  0  0  0  0  0  0
   -3.5974    1.2049   10.2127 C   0  0  0  0  0  0  0  0  0  0  0  0
   -4.1279    2.4116   10.2604 N   0  0  0  0  0  0  0  0  0  0  0  0
   -2.4561    1.0020   10.8273 N   0  0  0  0  0  0  0  0  0  0  0  0
   -7.1637   -2.7286    6.8695 C   0  0  2  0  0  0  0  0  0  0  0  0
   -7.7547   -3.5658    9.0247 O   0  0  0  0  0  0  0  0  0  0  0  0
   -6.9001   -7.1564    8.1804 C   0  0  0  0  0  0  0  0  0  0  0  0
   -9.2597   -6.9140    7.3068 C   0  0  1  0  0  0  0  0  0  0  0  0
   -9.8015   -8.1028    8.0270 C   0  0  0  0  0  0  0  0  0  0  0  0
   -9.4987   -9.4181    7.6015 C   0  0  0  0  0  0  0  0  0  0  0  0
   -9.9719  -10.5331    8.3190 C   0  0  0  0  0  0  0  0  0  0  0  0
  -10.7680  -10.3558    9.4645 C   0  0  0  0  0  0  0  0  0  0  0  0
  -11.2018  -11.4427   10.1476 O   0  0  0  0  0  0  0  0  0  0  0  0
  -11.0983   -9.0526    9.8836 C   0  0  0  0  0  0  0  0  0  0  0  0
  -10.6224   -7.9357    9.1684 C   0  0  0  0  0  0  0  0  0  0  0  0
   -8.0625   -6.2480    8.0497 C   0  0  2  0  0  0  0  0  0  0  0  0
   -6.3425   -7.6502    7.1733 O   0  0  0  0  0  0  0  0  0  0  0  0
  -27.7949   -4.5249    0.6639 H   0  0  0  0  0  0  0  0  0  0  0  0
  -27.5611   -6.0011    1.3478 H   0  0  0  0  0  0  0  0  0  0  0  0
  -28.8259   -7.7737    1.9870 H   0  0  0  0  0  0  0  0  0  0  0  0
  -27.3794   -7.1378    4.4807 H   0  0  0  0  0  0  0  0  0  0  0  0
  -24.9992   -8.4822    7.6537 H   0  0  0  0  0  0  0  0  0  0  0  0
  -24.0591   -5.9525    6.2093 H   0  0  0  0  0  0  0  0  0  0  0  0
  -22.8686   -1.9142    7.4575 H   0  0  0  0  0  0  0  0  0  0  0  0
  -20.9667   -0.0535    4.3768 H   0  0  0  0  0  0  0  0  0  0  0  0
  -21.8947    2.9890    2.1110 H   0  0  0  0  0  0  0  0  0  0  0  0
  -20.5519   -1.2549    2.8766 H   0  0  0  0  0  0  0  0  0  0  0  0
  -16.2570   -2.0528    3.3429 H   0  0  0  0  0  0  0  0  0  0  0  0
  -17.7976   -4.7296    4.7851 H   0  0  0  0  0  0  0  0  0  0  0  0
  -14.6040   -5.5562    2.8544 H   0  0  0  0  0  0  0  0  0  0  0  0
  -15.6277   -5.7194   -1.4497 H   0  0  0  0  0  0  0  0  0  0  0  0
  -12.6916   -4.7053   -2.3928 H   0  0  0  0  0  0  0  0  0  0  0  0
  -12.0525   -4.2916   -6.5816 H   0  0  0  0  0  0  0  0  0  0  0  0
   -8.7245   -3.1934   -8.3681 H   0  0  0  0  0  0  0  0  0  0  0  0
  -11.0484   -1.7198   -9.7597 H   0  0  0  0  0  0  0  0  0  0  0  0
   -8.7291    1.7734  -11.4890 H   0  0  0  0  0  0  0  0  0  0  0  0
   -9.9158    3.8050   -9.2494 H   0  0  0  0  0  0  0  0  0  0  0  0
  -10.5524    4.5570   -7.7692 H   0  0  0  0  0  0  0  0  0  0  0  0
  -10.8625    4.8467   -3.6346 H   0  0  0  0  0  0  0  0  0  0  0  0
  -13.1702    6.2441   -1.2997 H   0  0  0  0  0  0  0  0  0  0  0  0
  -15.9433    3.8979   -0.2582 H   0  0  0  0  0  0  0  0  0  0  0  0
  -12.8854    4.1983    1.2011 H   0  0  0  0  0  0  0  0  0  0  0  0
  -11.6839    0.5256    2.8337 H   0  0  0  0  0  0  0  0  0  0  0  0
   -9.3279   -0.6993    3.0023 H   0  0  0  0  0  0  0  0  0  0  0  0
   -9.1276   -2.3612    6.4014 H   0  0  0  0  0  0  0  0  0  0  0  0
   -7.4315   -5.2104    6.3887 H   0  0  0  0  0  0  0  0  0  0  0  0
   -6.8059   -7.0997   10.2103 H   0  0  0  0  0  0  0  0  0  0  0  0
  -30.9014   -6.2881   -0.0230 H   0  0  0  0  0  0  0  0  0  0  0  0
  -29.2772   -7.0027   -0.0837 H   0  0  0  0  0  0  0  0  0  0  0  0
  -29.7345   -5.7350   -1.8689 H   0  0  0  0  0  0  0  0  0  0  0  0
  -30.0021   -4.4133    1.3992 H   0  0  0  0  0  0  0  0  0  0  0  0
  -33.1446  -10.6917    3.9175 H   0  0  0  0  0  0  0  0  0  0  0  0
  -32.5112  -11.9246    5.0249 H   0  0  0  0  0  0  0  0  0  0  0  0
  -31.8694  -11.8042    3.3850 H   0  0  0  0  0  0  0  0  0  0  0  0
  -30.4408   -9.8931    2.6954 H   0  0  0  0  0  0  0  0  0  0  0  0
  -31.5927   -8.6908    3.2584 H   0  0  0  0  0  0  0  0  0  0  0  0
  -29.7849   -7.6984    4.7324 H   0  0  0  0  0  0  0  0  0  0  0  0
  -32.4716   -8.7646    5.7095 H   0  0  0  0  0  0  0  0  0  0  0  0
  -30.8580   -8.8888    6.4362 H   0  0  0  0  0  0  0  0  0  0  0  0
  -32.0455  -10.1501    6.7310 H   0  0  0  0  0  0  0  0  0  0  0  0
  -30.2978  -10.8211    5.0383 H   0  0  0  0  0  0  0  0  0  0  0  0
  -24.8813   -6.4101    4.3520 H   0  0  0  0  0  0  0  0  0  0  0  0
  -25.4700   -6.9455    2.7832 H   0  0  0  0  0  0  0  0  0  0  0  0
  -22.9540   -8.0408    4.1413 H   0  0  0  0  0  0  0  0  0  0  0  0
  -23.6103   -8.5695    2.5869 H   0  0  0  0  0  0  0  0  0  0  0  0
  -22.3082   -5.8988    3.2883 H   0  0  0  0  0  0  0  0  0  0  0  0
  -23.3425   -6.0577    1.8495 H   0  0  0  0  0  0  0  0  0  0  0  0
  -19.9881   -4.9564    0.3285 H   0  0  0  0  0  0  0  0  0  0  0  0
  -21.3074   -4.7205    1.3396 H   0  0  0  0  0  0  0  0  0  0  0  0
  -19.2036   -7.0312   -0.0644 H   0  0  0  0  0  0  0  0  0  0  0  0
  -19.9353   -8.3675    0.6377 H   0  0  0  0  0  0  0  0  0  0  0  0
  -25.6431   -9.2940    3.6964 H   0  0  0  0  0  0  0  0  0  0  0  0
  -27.0946   -7.6506    8.9752 H   0  0  0  0  0  0  0  0  0  0  0  0
  -27.8816   -8.2203    7.5025 H   0  0  0  0  0  0  0  0  0  0  0  0
  -28.1440   -5.3691    8.5734 H   0  0  0  0  0  0  0  0  0  0  0  0
  -28.9210   -6.0153    7.1214 H   0  0  0  0  0  0  0  0  0  0  0  0
  -29.3665   -6.9904    9.9971 H   0  0  0  0  0  0  0  0  0  0  0  0
  -30.1216   -7.7078    8.5581 H   0  0  0  0  0  0  0  0  0  0  0  0
  -33.1153   -6.9774   10.8039 H   0  0  0  0  0  0  0  0  0  0  0  0
  -31.6694   -7.7448   10.4354 H   0  0  0  0  0  0  0  0  0  0  0  0
  -33.5526   -4.9331   10.0529 H   0  0  0  0  0  0  0  0  0  0  0  0
  -32.4518   -4.1044    9.0927 H   0  0  0  0  0  0  0  0  0  0  0  0
  -26.5613   -6.4516    6.2123 H   0  0  0  0  0  0  0  0  0  0  0  0
  -21.9507   -5.9423    8.4561 H   0  0  0  0  0  0  0  0  0  0  0  0
  -21.5330   -5.7483    6.7455 H   0  0  0  0  0  0  0  0  0  0  0  0
  -20.0344   -4.8040    8.1168 H   0  0  0  0  0  0  0  0  0  0  0  0
  -23.4960   -3.9910    8.3247 H   0  0  0  0  0  0  0  0  0  0  0  0
  -24.9513   -0.4612    6.0347 H   0  0  0  0  0  0  0  0  0  0  0  0
  -24.9428   -1.7173    4.7888 H   0  0  0  0  0  0  0  0  0  0  0  0
  -25.4443    0.3089    3.9835 H   0  0  0  0  0  0  0  0  0  0  0  0
  -22.4789   -1.5840    4.6091 H   0  0  0  0  0  0  0  0  0  0  0  0
  -18.7343    1.2891    5.8704 H   0  0  0  0  0  0  0  0  0  0  0  0
  -18.8144    1.2716    4.1128 H   0  0  0  0  0  0  0  0  0  0  0  0
  -20.9239    2.3491    6.0326 H   0  0  0  0  0  0  0  0  0  0  0  0
  -21.7224    1.7671    0.0529 H   0  0  0  0  0  0  0  0  0  0  0  0
  -23.2631    1.4223    0.8134 H   0  0  0  0  0  0  0  0  0  0  0  0
  -23.7284   -1.1452    1.3450 H   0  0  0  0  0  0  0  0  0  0  0  0
  -23.8406   -3.2936    0.2548 H   0  0  0  0  0  0  0  0  0  0  0  0
  -22.5354   -3.7208   -1.7478 H   0  0  0  0  0  0  0  0  0  0  0  0
  -21.1062   -1.9805   -2.6546 H   0  0  0  0  0  0  0  0  0  0  0  0
  -20.9705    0.1699   -1.5752 H   0  0  0  0  0  0  0  0  0  0  0  0
  -22.1306    0.2953    2.6856 H   0  0  0  0  0  0  0  0  0  0  0  0
  -18.5209   -2.1902    1.9008 H   0  0  0  0  0  0  0  0  0  0  0  0
  -17.7630   -0.6137    2.1982 H   0  0  0  0  0  0  0  0  0  0  0  0
  -15.4361   -2.1693    5.5687 H   0  0  0  0  0  0  0  0  0  0  0  0
  -17.0029   -2.7855    6.1097 H   0  0  0  0  0  0  0  0  0  0  0  0
  -18.2087   -7.0381    5.5199 H   0  0  0  0  0  0  0  0  0  0  0  0
  -18.9006   -6.6096    3.9605 H   0  0  0  0  0  0  0  0  0  0  0  0
  -17.9418   -8.7421    2.9883 H   0  0  0  0  0  0  0  0  0  0  0  0
  -17.2820   -9.1388    4.5834 H   0  0  0  0  0  0  0  0  0  0  0  0
  -19.6219   -9.1203    5.5273 H   0  0  0  0  0  0  0  0  0  0  0  0
  -20.2486   -8.7446    3.9044 H   0  0  0  0  0  0  0  0  0  0  0  0
  -20.9560  -13.3411    4.0542 H   0  0  0  0  0  0  0  0  0  0  0  0
  -19.3933  -12.9508    3.5829 H   0  0  0  0  0  0  0  0  0  0  0  0
  -21.8085  -10.1914    5.0717 H   0  0  0  0  0  0  0  0  0  0  0  0
  -22.3240  -11.7780    4.8943 H   0  0  0  0  0  0  0  0  0  0  0  0
  -15.8924   -6.8700    4.5379 H   0  0  0  0  0  0  0  0  0  0  0  0
  -14.0352   -1.7149    0.1595 H   0  0  0  0  0  0  0  0  0  0  0  0
  -14.3515   -3.0689   -0.9370 H   0  0  0  0  0  0  0  0  0  0  0  0
  -14.8369   -3.1506    2.0709 H   0  0  0  0  0  0  0  0  0  0  0  0
  -13.3548   -3.7222    1.3262 H   0  0  0  0  0  0  0  0  0  0  0  0
  -16.0650   -4.8251    0.4594 H   0  0  0  0  0  0  0  0  0  0  0  0
  -17.4830   -0.4743   -1.4711 H   0  0  0  0  0  0  0  0  0  0  0  0
  -16.2267   -1.3351   -2.3825 H   0  0  0  0  0  0  0  0  0  0  0  0
  -15.7768   -0.0531   -1.2255 H   0  0  0  0  0  0  0  0  0  0  0  0
  -15.0611   -8.6806   -1.6681 H   0  0  0  0  0  0  0  0  0  0  0  0
  -15.9764   -7.7869   -2.8796 H   0  0  0  0  0  0  0  0  0  0  0  0
  -16.0199   -8.9382   -4.8582 H   0  0  0  0  0  0  0  0  0  0  0  0
  -13.1133   -7.1553   -1.9774 H   0  0  0  0  0  0  0  0  0  0  0  0
  -12.4137   -2.1978   -2.7529 H   0  0  0  0  0  0  0  0  0  0  0  0
  -14.1243   -2.3809   -3.1440 H   0  0  0  0  0  0  0  0  0  0  0  0
  -12.1039   -1.1587   -5.0799 H   0  0  0  0  0  0  0  0  0  0  0  0
  -13.8502   -1.3231   -5.3179 H   0  0  0  0  0  0  0  0  0  0  0  0
  -12.3773    0.4720   -3.3279 H   0  0  0  0  0  0  0  0  0  0  0  0
  -14.1018    0.1040   -3.1449 H   0  0  0  0  0  0  0  0  0  0  0  0
  -14.4749    4.0779   -5.4747 H   0  0  0  0  0  0  0  0  0  0  0  0
  -14.2173    2.7746   -6.4994 H   0  0  0  0  0  0  0  0  0  0  0  0
  -13.7497    2.4059   -2.5871 H   0  0  0  0  0  0  0  0  0  0  0  0
  -14.2578    3.8564   -3.2632 H   0  0  0  0  0  0  0  0  0  0  0  0
  -13.5590   -3.8473   -5.0634 H   0  0  0  0  0  0  0  0  0  0  0  0
   -9.1408   -5.7524   -5.0187 H   0  0  0  0  0  0  0  0  0  0  0  0
  -11.3212   -6.8332   -5.4783 H   0  0  0  0  0  0  0  0  0  0  0  0
  -10.7344   -7.3685   -7.0607 H   0  0  0  0  0  0  0  0  0  0  0  0
   -9.9910   -7.9763   -5.5776 H   0  0  0  0  0  0  0  0  0  0  0  0
   -9.3152   -3.7626   -6.3326 H   0  0  0  0  0  0  0  0  0  0  0  0
   -6.0176   -5.8150   -7.1243 H   0  0  0  0  0  0  0  0  0  0  0  0
   -6.7089   -5.1082   -5.6537 H   0  0  0  0  0  0  0  0  0  0  0  0
   -7.1368   -4.4562   -7.2485 H   0  0  0  0  0  0  0  0  0  0  0  0
   -8.2883   -6.5834   -7.8331 H   0  0  0  0  0  0  0  0  0  0  0  0
   -7.7415   -7.3031   -6.3243 H   0  0  0  0  0  0  0  0  0  0  0  0
   -8.5592   -4.1554  -10.6686 H   0  0  0  0  0  0  0  0  0  0  0  0
  -10.3217   -4.0164  -10.7002 H   0  0  0  0  0  0  0  0  0  0  0  0
  -12.5737   -0.0471  -10.9850 H   0  0  0  0  0  0  0  0  0  0  0  0
  -12.1488    0.4220   -9.3302 H   0  0  0  0  0  0  0  0  0  0  0  0
  -11.9729    1.5849  -10.6605 H   0  0  0  0  0  0  0  0  0  0  0  0
  -10.2361    0.1529  -11.7049 H   0  0  0  0  0  0  0  0  0  0  0  0
   -6.1937    2.5513  -11.4637 H   0  0  0  0  0  0  0  0  0  0  0  0
   -6.1317    1.2613  -10.2608 H   0  0  0  0  0  0  0  0  0  0  0  0
   -5.4025    4.1586   -9.5907 H   0  0  0  0  0  0  0  0  0  0  0  0
   -5.1934    2.7468   -8.5594 H   0  0  0  0  0  0  0  0  0  0  0  0
   -2.4057    1.5196  -10.5825 H   0  0  0  0  0  0  0  0  0  0  0  0
   -3.8028    0.8710   -9.9210 H   0  0  0  0  0  0  0  0  0  0  0  0
   -7.7565    2.5980   -8.8307 H   0  0  0  0  0  0  0  0  0  0  0  0
  -11.6798    4.9396  -11.3736 H   0  0  0  0  0  0  0  0  0  0  0  0
  -10.1258    5.1646  -12.1931 H   0  0  0  0  0  0  0  0  0  0  0  0
  -11.5946    6.6953  -12.8068 H   0  0  0  0  0  0  0  0  0  0  0  0
   -9.3316    6.4847  -10.1302 H   0  0  0  0  0  0  0  0  0  0  0  0
  -12.9634    5.0891   -6.9623 H   0  0  0  0  0  0  0  0  0  0  0  0
  -12.1956    6.6205   -6.6070 H   0  0  0  0  0  0  0  0  0  0  0  0
  -10.4727    9.9831   -6.0532 H   0  0  0  0  0  0  0  0  0  0  0  0
   -9.0894   10.4338   -5.0405 H   0  0  0  0  0  0  0  0  0  0  0  0
  -10.7320   10.7145   -4.4600 H   0  0  0  0  0  0  0  0  0  0  0  0
  -12.0883    8.7794   -3.5408 H   0  0  0  0  0  0  0  0  0  0  0  0
  -12.1109    8.1983   -5.1615 H   0  0  0  0  0  0  0  0  0  0  0  0
  -11.3990    6.6585   -2.6447 H   0  0  0  0  0  0  0  0  0  0  0  0
   -9.5863    7.4427   -6.1520 H   0  0  0  0  0  0  0  0  0  0  0  0
   -9.0487    6.7187   -4.6217 H   0  0  0  0  0  0  0  0  0  0  0  0
   -8.1876    8.0982   -5.2864 H   0  0  0  0  0  0  0  0  0  0  0  0
   -9.6898    8.7153   -3.3724 H   0  0  0  0  0  0  0  0  0  0  0  0
  -15.7999    6.9092   -1.7102 H   0  0  0  0  0  0  0  0  0  0  0  0
  -15.6405    5.1774   -2.0683 H   0  0  0  0  0  0  0  0  0  0  0  0
  -17.1791    2.7973    1.8374 H   0  0  0  0  0  0  0  0  0  0  0  0
  -17.3705    4.4857    2.3331 H   0  0  0  0  0  0  0  0  0  0  0  0
  -14.8973    4.7641    2.3556 H   0  0  0  0  0  0  0  0  0  0  0  0
  -10.8654    3.8625   -0.0799 H   0  0  0  0  0  0  0  0  0  0  0  0
  -11.8913    2.8063   -1.0488 H   0  0  0  0  0  0  0  0  0  0  0  0
  -10.6812    1.2973   -2.2979 H   0  0  0  0  0  0  0  0  0  0  0  0
   -9.1471    0.7696   -1.8789 H   0  0  0  0  0  0  0  0  0  0  0  0
  -12.3302    1.3464    0.8775 H   0  0  0  0  0  0  0  0  0  0  0  0
  -12.1148    1.6511    5.6971 H   0  0  0  0  0  0  0  0  0  0  0  0
  -11.1998    3.0636    5.1562 H   0  0  0  0  0  0  0  0  0  0  0  0
  -10.8226    2.5738    7.2961 H   0  0  0  0  0  0  0  0  0  0  0  0
   -9.4195    1.5210    4.2236 H   0  0  0  0  0  0  0  0  0  0  0  0
   -8.8774   -2.8981    1.8956 H   0  0  0  0  0  0  0  0  0  0  0  0
  -10.6212   -2.9220    2.0627 H   0  0  0  0  0  0  0  0  0  0  0  0
  -11.7076   -4.8706    3.3447 H   0  0  0  0  0  0  0  0  0  0  0  0
  -11.7130   -7.2697    3.5881 H   0  0  0  0  0  0  0  0  0  0  0  0
   -9.7187   -8.5581    3.0719 H   0  0  0  0  0  0  0  0  0  0  0  0
   -7.7128   -7.4267    2.3010 H   0  0  0  0  0  0  0  0  0  0  0  0
   -7.6939   -5.0311    2.0297 H   0  0  0  0  0  0  0  0  0  0  0  0
  -10.3861   -2.9269    4.5510 H   0  0  0  0  0  0  0  0  0  0  0  0
   -6.8165   -0.6021    6.6719 H   0  0  0  0  0  0  0  0  0  0  0  0
   -7.7352   -1.0267    8.1174 H   0  0  0  0  0  0  0  0  0  0  0  0
   -5.6292   -1.9319    9.1576 H   0  0  0  0  0  0  0  0  0  0  0  0
   -4.7365   -1.5437    7.6800 H   0  0  0  0  0  0  0  0  0  0  0  0
   -5.2215    0.8835    8.0100 H   0  0  0  0  0  0  0  0  0  0  0  0
   -6.1485    0.5012    9.4780 H   0  0  0  0  0  0  0  0  0  0  0  0
   -3.6394    3.1406   10.6780 H   0  0  0  0  0  0  0  0  0  0  0  0
   -5.0085    2.5737    9.8859 H   0  0  0  0  0  0  0  0  0  0  0  0
   -2.0285    1.7231   11.3134 H   0  0  0  0  0  0  0  0  0  0  0  0
   -2.0352    0.1292   10.7958 H   0  0  0  0  0  0  0  0  0  0  0  0
   -6.2607   -3.0419    6.3343 H   0  0  0  0  0  0  0  0  0  0  0  0
   -8.9469   -7.1926    6.2960 H   0  0  0  0  0  0  0  0  0  0  0  0
  -10.0633   -6.1814    7.1900 H   0  0  0  0  0  0  0  0  0  0  0  0
   -8.9167   -9.5731    6.7745 H   0  0  0  0  0  0  0  0  0  0  0  0
   -9.7321  -11.4758    8.0037 H   0  0  0  0  0  0  0  0  0  0  0  0
  -11.6939  -11.0950   10.9205 H   0  0  0  0  0  0  0  0  0  0  0  0
  -11.6853   -8.9105   10.7113 H   0  0  0  0  0  0  0  0  0  0  0  0
  -10.8753   -6.9961    9.4919 H   0  0  0  0  0  0  0  0  0  0  0  0
   -8.4009   -5.9743    9.0540 H   0  0  0  0  0  0  0  0  0  0  0  0
 30  2  1  0  0  0  0 
 35  3  1  0  0  0  0 
 42  4  1  0  0  0  0 
 52  5  1  0  0  0  0 
 62  6  1  0  0  0  0 
 67  7  1  0  0  0  0 
 72  8  1  0  0  0  0 
 77  9  1  0  0  0  0 
 87 10  1  0  0  0  0 
 90 11  1  0  0  0  0 
 93 12  1  0  0  0  0 
103 13  1  0  0  0  0 
110 14  1  0  0  0  0 
117 15  1  0  0  0  0 
127 16  1  0  0  0  0 
134 17  1  0  0  0  0 
137 18  1  0  0  0  0 
141 19  1  0  0  0  0 
149 20  1  0  0  0  0 
154 21  1  0  0  0  0 
157 22  1  0  0  0  0 
164 23  1  0  0  0  0 
167 24  1  0  0  0  0 
172 25  1  0  0  0  0 
179 26  1  0  0  0  0 
184 27  1  0  0  0  0 
194 28  1  0  0  0  0 
204 29  1  0  0  0  0 
 73168  1  0  0  0  0 
 33  1  1  0  0  0  0 
 33 31  1  0  0  0  0 
 31 32  1  0  0  0  0 
 33 30  1  0  0  0  0 
 30 34  2  0  0  0  0 
 39 40  1  0  0  0  0 
 40 36  1  0  0  0  0 
 40 37  1  0  0  0  0 
 38 37  1  0  0  0  0 
 38  2  1  0  0  0  0 
 38 35  1  0  0  0  0 
 35 41  2  0  0  0  0 
 50  3  1  0  0  0  0 
 50 43  1  0  0  0  0 
 43 44  1  0  0  0  0 
 44 45  1  0  0  0  0 
 45 46  1  0  0  0  0 
 46 47  2  0  0  0  0 
 47 48  1  0  0  0  0 
 47 49  1  0  0  0  0 
 50 42  1  0  0  0  0 
 42 51  2  0  0  0  0 
 60  4  1  0  0  0  0 
 60 53  1  0  0  0  0 
 53 54  1  0  0  0  0 
 54 55  1  0  0  0  0 
 55 56  1  0  0  0  0 
 56 57  2  0  0  0  0 
 57 58  1  0  0  0  0 
 57 59  1  0  0  0  0 
 60 52  1  0  0  0  0 
 52 61  2  0  0  0  0 
 65  5  1  0  0  0  0 
 65 63  1  0  0  0  0 
 63 64  1  0  0  0  0 
 65 62  1  0  0  0  0 
 62 66  2  0  0  0  0 
 70  6  1  0  0  0  0 
 70 68  1  0  0  0  0 
 68 69  1  0  0  0  0 
 70 67  1  0  0  0  0 
 67 71  2  0  0  0  0 
 75  7  1  0  0  0  0 
 75 74  1  0  0  0  0 
 74 73  1  0  0  0  0 
 75 72  1  0  0  0  0 
 72 76  2  0  0  0  0 
 85  8  1  0  0  0  0 
 85 78  1  0  0  0  0 
 78 79  1  0  0  0  0 
 79 80  2  0  0  0  0 
 80 81  1  0  0  0  0 
 81 82  2  0  0  0  0 
 82 83  1  0  0  0  0 
 83 84  2  0  0  0  0 
 79 84  1  0  0  0  0 
 85 77  1  0  0  0  0 
 77 86  2  0  0  0  0 
  9 88  1  0  0  0  0 
 88 87  1  0  0  0  0 
 87 89  2  0  0  0  0 
 10 91  1  0  0  0  0 
 91 90  1  0  0  0  0 
 90 92  2  0  0  0  0 
101 11  1  0  0  0  0 
101 94  1  0  0  0  0 
 94 95  1  0  0  0  0 
 95 96  1  0  0  0  0 
 96 97  1  0  0  0  0 
 97 98  2  0  0  0  0 
 98 99  1  0  0  0  0 
 98100  1  0  0  0  0 
101 93  1  0  0  0  0 
 93102  2  0  0  0  0 
107108  1  0  0  0  0 
108104  1  0  0  0  0 
104105  1  0  0  0  0 
106105  1  0  0  0  0 
106 12  1  0  0  0  0 
106103  1  0  0  0  0 
103109  2  0  0  0  0 
115 13  1  0  0  0  0 
115111  1  0  0  0  0 
111112  1  0  0  0  0 
112113  1  0  0  0  0 
112114  2  0  0  0  0 
115110  1  0  0  0  0 
110116  2  0  0  0  0 
125 14  1  0  0  0  0 
125118  1  0  0  0  0 
118119  1  0  0  0  0 
119120  1  0  0  0  0 
120121  1  0  0  0  0 
121122  2  0  0  0  0 
122123  1  0  0  0  0 
122124  1  0  0  0  0 
125117  1  0  0  0  0 
117126  2  0  0  0  0 
131132  1  0  0  0  0 
128132  1  0  0  0  0 
128129  1  0  0  0  0 
128130  1  0  0  0  0 
130 15  1  0  0  0  0 
130127  1  0  0  0  0 
127133  2  0  0  0  0 
 16135  1  0  0  0  0 
135134  1  0  0  0  0 
134136  2  0  0  0  0 
139138  1  0  0  0  0 
139 17  1  0  0  0  0 
139137  1  0  0  0  0 
137140  2  0  0  0  0 
147 18  1  0  0  0  0 
147142  1  0  0  0  0 
142143  1  0  0  0  0 
143144  1  0  0  0  0 
144145  1  0  0  0  0 
144146  2  0  0  0  0 
147141  1  0  0  0  0 
141148  2  0  0  0  0 
152 19  1  0  0  0  0 
152150  1  0  0  0  0 
150151  1  0  0  0  0 
152149  1  0  0  0  0 
149153  2  0  0  0  0 
 20155  1  0  0  0  0 
155154  1  0  0  0  0 
154156  2  0  0  0  0 
161162  1  0  0  0  0 
162158  1  0  0  0  0 
162159  1  0  0  0  0 
160159  1  0  0  0  0 
160 21  1  0  0  0  0 
160157  1  0  0  0  0 
157163  2  0  0  0  0 
 22165  1  0  0  0  0 
165164  1  0  0  0  0 
164166  2  0  0  0  0 
170 23  1  0  0  0  0 
170169  1  0  0  0  0 
169168  1  0  0  0  0 
170167  1  0  0  0  0 
167171  2  0  0  0  0 
177 24  1  0  0  0  0 
177173  1  0  0  0  0 
173174  1  0  0  0  0 
174175  1  0  0  0  0 
174176  2  0  0  0  0 
177172  1  0  0  0  0 
172178  2  0  0  0  0 
182 25  1  0  0  0  0 
182180  1  0  0  0  0 
180181  1  0  0  0  0 
182179  1  0  0  0  0 
179183  2  0  0  0  0 
192 26  1  0  0  0  0 
192185  1  0  0  0  0 
185186  1  0  0  0  0 
186187  2  0  0  0  0 
187188  1  0  0  0  0 
188189  2  0  0  0  0 
189190  1  0  0  0  0 
190191  2  0  0  0  0 
186191  1  0  0  0  0 
192184  1  0  0  0  0 
184193  2  0  0  0  0 
202 27  1  0  0  0  0 
202195  1  0  0  0  0 
195196  1  0  0  0  0 
196197  1  0  0  0  0 
197198  1  0  0  0  0 
198199  2  0  0  0  0 
199200  1  0  0  0  0 
199201  1  0  0  0  0 
202194  1  0  0  0  0 
194203  2  0  0  0  0 
213 28  1  0  0  0  0 
213205  1  0  0  0  0 
205206  1  0  0  0  0 
206207  2  0  0  0  0 
207208  1  0  0  0  0 
208209  2  0  0  0  0 
209210  1  0  0  0  0 
209211  1  0  0  0  0 
211212  2  0  0  0  0 
206212  1  0  0  0  0 
213204  1  0  0  0  0 
204214  2  0  0  0  0 
215  1  1  0  0  0  0 
216  1  1  0  0  0  0 
217  2  1  0  0  0  0 
218  3  1  0  0  0  0 
219  4  1  0  0  0  0 
220  5  1  0  0  0  0 
221  6  1  0  0  0  0 
222  7  1  0  0  0  0 
223  8  1  0  0  0  0 
224  9  1  0  0  0  0 
225 10  1  0  0  0  0 
226 11  1  0  0  0  0 
227 12  1  0  0  0  0 
228 13  1  0  0  0  0 
229 14  1  0  0  0  0 
230 15  1  0  0  0  0 
231 16  1  0  0  0  0 
232 17  1  0  0  0  0 
233 18  1  0  0  0  0 
234 19  1  0  0  0  0 
235 20  1  0  0  0  0 
236 21  1  0  0  0  0 
237 22  1  0  0  0  0 
238 23  1  0  0  0  0 
239 24  1  0  0  0  0 
240 25  1  0  0  0  0 
241 26  1  0  0  0  0 
242 27  1  0  0  0  0 
243 28  1  0  0  0  0 
244 29  1  0  0  0  0 
245 31  1  0  0  0  0 
246 31  1  0  0  0  0 
247 32  1  0  0  0  0 
 33248  1  0  0  0  0 
249 36  1  0  0  0  0 
250 36  1  0  0  0  0 
251 36  1  0  0  0  0 
252 37  1  0  0  0  0 
253 37  1  0  0  0  0 
 38254  1  0  0  0  0 
255 39  1  0  0  0  0 
256 39  1  0  0  0  0 
257 39  1  0  0  0  0 
258 40  1  0  0  0  0 
259 43  1  0  0  0  0 
260 43  1  0  0  0  0 
261 44  1  0  0  0  0 
262 44  1  0  0  0  0 
263 45  1  0  0  0  0 
264 45  1  0  0  0  0 
265 48  1  0  0  0  0 
266 48  1  0  0  0  0 
267 49  1  0  0  0  0 
268 49  1  0  0  0  0 
 50269  1  0  0  0  0 
270 53  1  0  0  0  0 
271 53  1  0  0  0  0 
272 54  1  0  0  0  0 
273 54  1  0  0  0  0 
274 55  1  0  0  0  0 
275 55  1  0  0  0  0 
276 58  1  0  0  0  0 
277 58  1  0  0  0  0 
278 59  1  0  0  0  0 
279 59  1  0  0  0  0 
 60280  1  0  0  0  0 
281 63  1  0  0  0  0 
282 63  1  0  0  0  0 
283 64  1  0  0  0  0 
 65284  1  0  0  0  0 
285 68  1  0  0  0  0 
286 68  1  0  0  0  0 
287 69  1  0  0  0  0 
 70288  1  0  0  0  0 
289 74  1  0  0  0  0 
290 74  1  0  0  0  0 
 75291  1  0  0  0  0 
292 78  1  0  0  0  0 
293 78  1  0  0  0  0 
294 80  1  0  0  0  0 
295 81  1  0  0  0  0 
296 82  1  0  0  0  0 
297 83  1  0  0  0  0 
298 84  1  0  0  0  0 
 85299  1  0  0  0  0 
300 88  1  0  0  0  0 
301 88  1  0  0  0  0 
302 91  1  0  0  0  0 
303 91  1  0  0  0  0 
304 94  1  0  0  0  0 
305 94  1  0  0  0  0 
306 95  1  0  0  0  0 
307 95  1  0  0  0  0 
308 96  1  0  0  0  0 
309 96  1  0  0  0  0 
310 99  1  0  0  0  0 
311 99  1  0  0  0  0 
312100  1  0  0  0  0 
313100  1  0  0  0  0 
101314  1  0  0  0  0 
315104  1  0  0  0  0 
316104  1  0  0  0  0 
317105  1  0  0  0  0 
318105  1  0  0  0  0 
106319  1  0  0  0  0 
320107  1  0  0  0  0 
321107  1  0  0  0  0 
322107  1  0  0  0  0 
323111  1  0  0  0  0 
324111  1  0  0  0  0 
325113  1  0  0  0  0 
115326  1  0  0  0  0 
327118  1  0  0  0  0 
328118  1  0  0  0  0 
329119  1  0  0  0  0 
330119  1  0  0  0  0 
331120  1  0  0  0  0 
332120  1  0  0  0  0 
333123  1  0  0  0  0 
334123  1  0  0  0  0 
335124  1  0  0  0  0 
336124  1  0  0  0  0 
125337  1  0  0  0  0 
128338  1  0  0  0  0 
339129  1  0  0  0  0 
340129  1  0  0  0  0 
341129  1  0  0  0  0 
130342  1  0  0  0  0 
343131  1  0  0  0  0 
344131  1  0  0  0  0 
345131  1  0  0  0  0 
346132  1  0  0  0  0 
347132  1  0  0  0  0 
348135  1  0  0  0  0 
349135  1  0  0  0  0 
350138  1  0  0  0  0 
351138  1  0  0  0  0 
352138  1  0  0  0  0 
139353  1  0  0  0  0 
354142  1  0  0  0  0 
355142  1  0  0  0  0 
356143  1  0  0  0  0 
357143  1  0  0  0  0 
358145  1  0  0  0  0 
359145  1  0  0  0  0 
147360  1  0  0  0  0 
361150  1  0  0  0  0 
362150  1  0  0  0  0 
363151  1  0  0  0  0 
152364  1  0  0  0  0 
365155  1  0  0  0  0 
366155  1  0  0  0  0 
367158  1  0  0  0  0 
368158  1  0  0  0  0 
369158  1  0  0  0  0 
370159  1  0  0  0  0 
371159  1  0  0  0  0 
160372  1  0  0  0  0 
373161  1  0  0  0  0 
374161  1  0  0  0  0 
375161  1  0  0  0  0 
376162  1  0  0  0  0 
377165  1  0  0  0  0 
378165  1  0  0  0  0 
379169  1  0  0  0  0 
380169  1  0  0  0  0 
170381  1  0  0  0  0 
382173  1  0  0  0  0 
383173  1  0  0  0  0 
384175  1  0  0  0  0 
385175  1  0  0  0  0 
177386  1  0  0  0  0 
387180  1  0  0  0  0 
388180  1  0  0  0  0 
389181  1  0  0  0  0 
182390  1  0  0  0  0 
391185  1  0  0  0  0 
392185  1  0  0  0  0 
393187  1  0  0  0  0 
394188  1  0  0  0  0 
395189  1  0  0  0  0 
396190  1  0  0  0  0 
397191  1  0  0  0  0 
192398  1  0  0  0  0 
399195  1  0  0  0  0 
400195  1  0  0  0  0 
401196  1  0  0  0  0 
402196  1  0  0  0  0 
403197  1  0  0  0  0 
404197  1  0  0  0  0 
405200  1  0  0  0  0 
406200  1  0  0  0  0 
407201  1  0  0  0  0 
408201  1  0  0  0  0 
202409  1  0  0  0  0 
410205  1  0  0  0  0 
411205  1  0  0  0  0 
412207  1  0  0  0  0 
413208  1  0  0  0  0 
414210  1  0  0  0  0 
415211  1  0  0  0  0 
416212  1  0  0  0  0 
213417  1  0  0  0  0 
M  END
> <cdk:Title>
carperitide

> <Conformer>
1

> <SuperDrugID>
SD000445

$$$$
