eprazinone
  CDK     0628171801

 60 62  0  0  0  0  0  0  0  0999 V2000
    0.2263    2.1482   -1.6194 C   0  0  1  0  0  0  0  0  0  0  0  0
   -0.4564    2.8831   -0.4192 C   0  0  2  0  0  0  0  0  0  0  0  0
   -0.7286    1.5598   -2.5350 O   0  0  0  0  0  0  0  0  0  0  0  0
    1.0721    3.0573   -2.4466 C   0  0  0  0  0  0  0  0  0  0  0  0
    0.4383    3.4755    0.6282 N   0  0  1  0  0  0  0  0  0  0  0  0
   -1.3861    0.3469   -2.1227 C   0  0  1  0  0  0  0  0  0  0  0  0
    0.4830    4.0848   -3.2267 C   0  0  0  0  0  0  0  0  0  0  0  0
    2.4833    2.9209   -2.4667 C   0  0  0  0  0  0  0  0  0  0  0  0
    1.3645    2.5232    1.3166 C   0  0  1  0  0  0  0  0  0  0  0  0
    1.0308    4.8119    0.3291 C   0  0  1  0  0  0  0  0  0  0  0  0
   -2.1213   -0.2441   -3.3390 C   0  0  0  0  0  0  0  0  0  0  0  0
    1.2813    4.9637   -3.9822 C   0  0  0  0  0  0  0  0  0  0  0  0
    3.2797    3.8034   -3.2214 C   0  0  0  0  0  0  0  0  0  0  0  0
    2.0402    3.1663    2.5517 C   0  0  1  0  0  0  0  0  0  0  0  0
    1.6810    5.4115    1.5955 C   0  0  2  0  0  0  0  0  0  0  0  0
    2.6801    4.8267   -3.9767 C   0  0  0  0  0  0  0  0  0  0  0  0
    2.6855    4.4620    2.1749 N   0  0  1  0  0  0  0  0  0  0  0  0
    3.5335    5.0997    3.2347 C   0  0  2  0  0  0  0  0  0  0  0  0
    4.7291    4.2439    3.7859 C   0  0  1  0  0  0  0  0  0  0  0  0
    5.5628    3.5579    2.7365 C   0  0  0  0  0  0  0  0  0  0  0  0
    5.6249    5.1196    4.7141 C   0  0  0  0  0  0  0  0  0  0  0  0
    5.4224    3.9393    1.5484 O   0  0  0  0  0  0  0  0  0  0  0  0
    6.5255    2.5210    3.0017 C   0  0  0  0  0  0  0  0  0  0  0  0
    7.5276    2.2050    2.0433 C   0  0  0  0  0  0  0  0  0  0  0  0
    6.5331    1.7751    4.2113 C   0  0  0  0  0  0  0  0  0  0  0  0
    8.5042    1.2219    2.2926 C   0  0  0  0  0  0  0  0  0  0  0  0
    7.5039    0.7871    4.4613 C   0  0  0  0  0  0  0  0  0  0  0  0
    8.4955    0.5150    3.5053 C   0  0  0  0  0  0  0  0  0  0  0  0
    0.8515    1.3488   -1.2094 H   0  0  0  0  0  0  0  0  0  0  0  0
   -1.0985    2.1683    0.0969 H   0  0  0  0  0  0  0  0  0  0  0  0
   -1.1268    3.6550   -0.8028 H   0  0  0  0  0  0  0  0  0  0  0  0
   -0.6650   -0.3938   -1.7669 H   0  0  0  0  0  0  0  0  0  0  0  0
   -2.1125    0.5536   -1.3329 H   0  0  0  0  0  0  0  0  0  0  0  0
   -0.5343    4.1987   -3.2498 H   0  0  0  0  0  0  0  0  0  0  0  0
    2.9435    2.1874   -1.9189 H   0  0  0  0  0  0  0  0  0  0  0  0
    0.8128    1.6381    1.6493 H   0  0  0  0  0  0  0  0  0  0  0  0
    2.1523    2.1985    0.6325 H   0  0  0  0  0  0  0  0  0  0  0  0
    1.7910    4.7466   -0.4500 H   0  0  0  0  0  0  0  0  0  0  0  0
    0.2490    5.4967   -0.0098 H   0  0  0  0  0  0  0  0  0  0  0  0
   -2.6401   -1.1619   -3.0526 H   0  0  0  0  0  0  0  0  0  0  0  0
   -2.8527    0.4706   -3.7200 H   0  0  0  0  0  0  0  0  0  0  0  0
   -1.4069   -0.4736   -4.1315 H   0  0  0  0  0  0  0  0  0  0  0  0
    0.8426    5.7022   -4.5381 H   0  0  0  0  0  0  0  0  0  0  0  0
    4.2970    3.7017   -3.2192 H   0  0  0  0  0  0  0  0  0  0  0  0
    1.3015    3.3233    3.3428 H   0  0  0  0  0  0  0  0  0  0  0  0
    2.7797    2.4571    2.9236 H   0  0  0  0  0  0  0  0  0  0  0  0
    0.9025    5.6400    2.3319 H   0  0  0  0  0  0  0  0  0  0  0  0
    2.1566    6.3545    1.3130 H   0  0  0  0  0  0  0  0  0  0  0  0
    3.2590    5.4695   -4.5241 H   0  0  0  0  0  0  0  0  0  0  0  0
    2.8903    5.3909    4.0721 H   0  0  0  0  0  0  0  0  0  0  0  0
    3.9568    6.0183    2.8160 H   0  0  0  0  0  0  0  0  0  0  0  0
    4.2692    3.4805    4.4169 H   0  0  0  0  0  0  0  0  0  0  0  0
    4.9548    5.6502    5.4633 H   0  0  0  0  0  0  0  0  0  0  0  0
    6.4673    4.4838    5.1307 H   0  0  0  0  0  0  0  0  0  0  0  0
    6.0992    5.9029    4.1175 H   0  0  0  0  0  0  0  0  0  0  0  0
    7.5672    2.6968    1.1470 H   0  0  0  0  0  0  0  0  0  0  0  0
    5.8336    1.9326    4.9379 H   0  0  0  0  0  0  0  0  0  0  0  0
    9.2223    1.0221    1.5916 H   0  0  0  0  0  0  0  0  0  0  0  0
    7.4881    0.2660    5.3410 H   0  0  0  0  0  0  0  0  0  0  0  0
    9.2073   -0.1956    3.6906 H   0  0  0  0  0  0  0  0  0  0  0  0
  1  2  1  0  0  0  0 
  1  3  1  0  0  0  0 
  1  4  1  0  0  0  0 
  2  5  1  0  0  0  0 
  3  6  1  0  0  0  0 
  4  7  2  0  0  0  0 
  4  8  1  0  0  0  0 
  5  9  1  0  0  0  0 
  5 10  1  0  0  0  0 
  6 11  1  0  0  0  0 
  7 12  1  0  0  0  0 
  8 13  2  0  0  0  0 
  9 14  1  0  0  0  0 
 10 15  1  0  0  0  0 
 12 16  2  0  0  0  0 
 13 16  1  0  0  0  0 
 14 17  1  0  0  0  0 
 15 17  1  0  0  0  0 
 17 18  1  0  0  0  0 
 18 19  1  0  0  0  0 
 19 20  1  0  0  0  0 
 19 21  1  0  0  0  0 
 20 22  2  0  0  0  0 
 20 23  1  0  0  0  0 
 23 24  2  0  0  0  0 
 23 25  1  0  0  0  0 
 24 26  1  0  0  0  0 
 25 27  2  0  0  0  0 
 26 28  2  0  0  0  0 
 27 28  1  0  0  0  0 
 29  1  1  0  0  0  0 
 30  2  1  0  0  0  0 
 31  2  1  0  0  0  0 
 32  6  1  0  0  0  0 
 33  6  1  0  0  0  0 
 34  7  1  0  0  0  0 
 35  8  1  0  0  0  0 
 36  9  1  0  0  0  0 
 37  9  1  0  0  0  0 
 38 10  1  0  0  0  0 
 39 10  1  0  0  0  0 
 40 11  1  0  0  0  0 
 41 11  1  0  0  0  0 
 42 11  1  0  0  0  0 
 43 12  1  0  0  0  0 
 44 13  1  0  0  0  0 
 45 14  1  0  0  0  0 
 46 14  1  0  0  0  0 
 47 15  1  0  0  0  0 
 48 15  1  0  0  0  0 
 49 16  1  0  0  0  0 
 50 18  1  0  0  0  0 
 51 18  1  0  0  0  0 
 52 19  1  0  0  0  0 
 53 21  1  0  0  0  0 
 54 21  1  0  0  0  0 
 55 21  1  0  0  0  0 
 56 24  1  0  0  0  0 
 57 25  1  0  0  0  0 
 58 26  1  0  0  0  0 
 59 27  1  0  0  0  0 
 60 28  1  0  0  0  0 
M  END
> <cdk:Title>
eprazinone

> <Conformer>
1

> <SuperDrugID>
SD000922

$$$$
