carboquone
  CDK     0628171802

 42 44  0  0  0  0  0  0  0  0999 V2000
   -0.3912    0.9000    0.9439 C   0  0  0  0  0  0  0  0  0  0  0  0
   -0.9381    0.4119    2.0724 C   0  0  0  0  0  0  0  0  0  0  0  0
   -0.2891    0.0375   -0.0865 O   0  0  0  0  0  0  0  0  0  0  0  0
   -0.0221    2.2441    0.7506 C   0  0  0  0  0  0  0  0  0  0  0  0
   -1.1859    1.1737    3.1450 O   0  0  0  0  0  0  0  0  0  0  0  0
    1.0485   -0.4020   -0.3811 C   0  0  0  0  0  0  0  0  0  0  0  0
   -0.5281    2.9590   -0.3722 C   0  0  0  0  0  0  0  0  0  0  0  0
    0.8950    2.8863    1.6268 C   0  0  0  0  0  0  0  0  0  0  0  0
   -1.7299    0.7818    4.3360 C   0  0  0  0  0  0  0  0  0  0  0  0
   -0.0457    4.2675   -0.6256 C   0  0  0  0  0  0  0  0  0  0  0  0
   -1.4664    2.3616   -1.2798 N   0  0  2  0  0  0  0  0  0  0  0  0
    1.3729    2.1816    2.6925 O   0  0  0  0  0  0  0  0  0  0  0  0
    1.3304    4.2229    1.4041 C   0  0  0  0  0  0  0  0  0  0  0  0
   -1.8992    1.6961    5.3021 N   0  0  0  0  0  0  0  0  0  0  0  0
   -2.0912   -0.3951    4.5665 O   0  0  0  0  0  0  0  0  0  0  0  0
   -0.4075    4.9123   -1.7714 O   0  0  0  0  0  0  0  0  0  0  0  0
    0.8063    4.9371    0.2866 C   0  0  0  0  0  0  0  0  0  0  0  0
   -2.7069    3.1373   -1.5560 C   0  0  1  0  0  0  0  0  0  0  0  0
   -2.7490    1.9294   -0.6545 C   0  0  1  0  0  0  0  0  0  0  0  0
    2.2238    4.8637    2.3289 N   0  0  2  0  0  0  0  0  0  0  0  0
    1.0967    6.3811    0.0272 C   0  0  0  0  0  0  0  0  0  0  0  0
    3.5052    5.3366    1.7300 C   0  0  1  0  0  0  0  0  0  0  0  0
    3.4925    4.1676    2.6817 C   0  0  1  0  0  0  0  0  0  0  0  0
   -1.1821   -0.5537    2.1065 H   0  0  0  0  0  0  0  0  0  0  0  0
    1.6741    0.4314   -0.7091 H   0  0  0  0  0  0  0  0  0  0  0  0
    1.5092   -0.8877    0.4832 H   0  0  0  0  0  0  0  0  0  0  0  0
    0.9942   -1.1273   -1.1949 H   0  0  0  0  0  0  0  0  0  0  0  0
    1.6892    2.8389    3.3433 H   0  0  0  0  0  0  0  0  0  0  0  0
   -2.2886    1.4388    6.1523 H   0  0  0  0  0  0  0  0  0  0  0  0
   -1.6341    2.6162    5.1558 H   0  0  0  0  0  0  0  0  0  0  0  0
   -0.6951    4.2142   -2.3958 H   0  0  0  0  0  0  0  0  0  0  0  0
   -2.8789    4.0834   -1.0376 H   0  0  0  0  0  0  0  0  0  0  0  0
   -3.1537    2.9837   -2.5388 H   0  0  0  0  0  0  0  0  0  0  0  0
   -3.2172    1.0475   -1.0940 H   0  0  0  0  0  0  0  0  0  0  0  0
   -2.9482    2.1672    0.3946 H   0  0  0  0  0  0  0  0  0  0  0  0
    0.1706    6.9190   -0.1825 H   0  0  0  0  0  0  0  0  0  0  0  0
    1.5528    6.8912    0.8732 H   0  0  0  0  0  0  0  0  0  0  0  0
    1.7579    6.4761   -0.8370 H   0  0  0  0  0  0  0  0  0  0  0  0
    3.7484    5.0720    0.6969 H   0  0  0  0  0  0  0  0  0  0  0  0
    3.8993    6.2668    2.1414 H   0  0  0  0  0  0  0  0  0  0  0  0
    3.8997    4.3878    3.6695 H   0  0  0  0  0  0  0  0  0  0  0  0
    3.7467    3.2185    2.2065 H   0  0  0  0  0  0  0  0  0  0  0  0
  1  2  2  0  0  0  0 
  1  3  1  0  0  0  0 
  1  4  1  0  0  0  0 
  2  5  1  0  0  0  0 
  3  6  1  0  0  0  0 
  4  7  2  0  0  0  0 
  4  8  1  0  0  0  0 
  5  9  1  0  0  0  0 
  7 10  1  0  0  0  0 
  7 11  1  0  0  0  0 
  8 12  1  0  0  0  0 
  8 13  2  0  0  0  0 
  9 14  1  0  0  0  0 
  9 15  2  0  0  0  0 
 10 16  1  0  0  0  0 
 10 17  2  0  0  0  0 
 11 18  1  0  0  0  0 
 11 19  1  0  0  0  0 
 13 17  1  0  0  0  0 
 13 20  1  0  0  0  0 
 17 21  1  0  0  0  0 
 18 19  1  0  0  0  0 
 20 22  1  0  0  0  0 
 20 23  1  0  0  0  0 
 22 23  1  0  0  0  0 
 24  2  1  0  0  0  0 
 25  6  1  0  0  0  0 
 26  6  1  0  0  0  0 
 27  6  1  0  0  0  0 
 28 12  1  0  0  0  0 
 29 14  1  0  0  0  0 
 30 14  1  0  0  0  0 
 31 16  1  0  0  0  0 
 32 18  1  0  0  0  0 
 33 18  1  0  0  0  0 
 34 19  1  0  0  0  0 
 35 19  1  0  0  0  0 
 36 21  1  0  0  0  0 
 37 21  1  0  0  0  0 
 38 21  1  0  0  0  0 
 39 22  1  0  0  0  0 
 40 22  1  0  0  0  0 
 41 23  1  0  0  0  0 
 42 23  1  0  0  0  0 
M  END
> <cdk:Title>
carboquone

> <Conformer>
1

> <SuperDrugID>
SD000433

$$$$
