bismuth camphocarbonate
  CDK     0628171801

 92 97  0  0  0  0  0  0  0  0999 V2000
   -0.9110    2.5717    1.0964 C   0  0  0  0  0  0  0  0  0  0  0  0
   -2.1727    2.1544    1.3566 O   0  0  0  0  0  0  0  0  0  0  0  0
   -0.5144    2.5746   -0.0898 O   0  0  0  0  0  0  0  0  0  0  0  0
   -0.0741    2.9728    2.1175 C   0  0  0  0  0  0  0  0  0  0  0  0
    1.3811    2.8076    2.1429 C   0  0  2  0  0  0  0  0  0  0  0  0
    1.6089    2.3730    3.6266 C   0  0  2  0  0  0  0  0  0  0  0  0
    3.1160    2.2506    4.0716 C   0  0  0  0  0  0  0  0  0  0  0  0
    0.9638    0.9784    3.9969 C   0  0  0  0  0  0  0  0  0  0  0  0
    0.8308    3.6620    4.0796 C   0  0  2  0  0  0  0  0  0  0  0  0
   -0.4032    3.5118    3.3019 C   0  0  0  0  0  0  0  0  0  0  0  0
   -1.6183    3.8586    3.7175 O   0  0  0  0  0  0  0  0  0  0  0  0
    1.6237    4.8447    3.4105 C   0  0  2  0  0  0  0  0  0  0  0  0
    2.0241    4.2278    2.0355 C   0  0  1  0  0  0  0  0  0  0  0  0
    0.6301    3.8349    5.6111 C   0  0  0  0  0  0  0  0  0  0  0  0
   -3.4099    1.3172   -0.1935 Bi  0  0  0  0  0  0  0  0  0  0  0  0
   -4.5985    2.1652   -1.7741 O   0  0  0  0  0  0  0  0  0  0  0  0
   -3.2058   -0.7988    0.1576 O   0  0  0  0  0  0  0  0  0  0  0  0
   -1.5156   -1.3428   -1.0489 Bi  0  0  0  0  0  0  0  0  0  0  0  0
   -1.6058   -0.0987   -3.7970 C   0  0  0  0  0  0  0  0  0  0  0  0
   -1.9220   -1.2440   -3.1508 O   0  0  0  0  0  0  0  0  0  0  0  0
   -1.0522    0.8021   -3.1274 O   0  0  0  0  0  0  0  0  0  0  0  0
   -1.8839    0.0974   -5.1351 C   0  0  0  0  0  0  0  0  0  0  0  0
   -1.6521    1.3312   -5.8879 C   0  0  2  0  0  0  0  0  0  0  0  0
   -2.9080    1.3743   -6.8140 C   0  0  2  0  0  0  0  0  0  0  0  0
   -2.9028    2.5200   -7.8952 C   0  0  0  0  0  0  0  0  0  0  0  0
   -4.2874    1.5360   -6.0599 C   0  0  0  0  0  0  0  0  0  0  0  0
   -2.5451   -0.0755   -7.2976 C   0  0  2  0  0  0  0  0  0  0  0  0
   -2.4231   -0.7661   -6.0088 C   0  0  0  0  0  0  0  0  0  0  0  0
   -2.7677   -2.0275   -5.7774 O   0  0  0  0  0  0  0  0  0  0  0  0
   -1.0809    0.0575   -7.8533 C   0  0  2  0  0  0  0  0  0  0  0  0
   -0.4439    1.0605   -6.8446 C   0  0  1  0  0  0  0  0  0  0  0  0
   -3.5341   -0.7324   -8.2996 C   0  0  0  0  0  0  0  0  0  0  0  0
    1.4384   -0.7426   -0.6897 C   0  0  0  0  0  0  0  0  0  0  0  0
    0.5620   -1.7748   -0.6673 O   0  0  0  0  0  0  0  0  0  0  0  0
    0.9526    0.3935   -0.8748 O   0  0  0  0  0  0  0  0  0  0  0  0
    2.7999   -0.9252   -0.5482 C   0  0  0  0  0  0  0  0  0  0  0  0
    3.4952   -2.2122   -0.4913 C   0  0  2  0  0  0  0  0  0  0  0  0
    4.6445   -1.9135    0.5233 C   0  0  2  0  0  0  0  0  0  0  0  0
    5.7189   -3.0535    0.6889 C   0  0  0  0  0  0  0  0  0  0  0  0
    4.1576   -1.5916    1.9926 C   0  0  0  0  0  0  0  0  0  0  0  0
    5.0490   -0.6849   -0.3676 C   0  0  2  0  0  0  0  0  0  0  0  0
    3.7641    0.0114   -0.4742 C   0  0  0  0  0  0  0  0  0  0  0  0
    3.6263    1.3335   -0.5136 O   0  0  0  0  0  0  0  0  0  0  0  0
    5.3152   -1.3024   -1.7897 C   0  0  2  0  0  0  0  0  0  0  0  0
    4.2093   -2.3996   -1.8723 C   0  0  1  0  0  0  0  0  0  0  0  0
    6.2182    0.1904    0.1659 C   0  0  0  0  0  0  0  0  0  0  0  0
    1.7717    2.0969    1.4066 H   0  0  0  0  0  0  0  0  0  0  0  0
    3.6976    3.1582    3.9347 H   0  0  0  0  0  0  0  0  0  0  0  0
    3.6073    1.4623    3.5007 H   0  0  0  0  0  0  0  0  0  0  0  0
    3.1815    1.9943    5.1302 H   0  0  0  0  0  0  0  0  0  0  0  0
    1.1308    0.7420    5.0501 H   0  0  0  0  0  0  0  0  0  0  0  0
   -0.1135    0.9361    3.8318 H   0  0  0  0  0  0  0  0  0  0  0  0
    1.4196    0.1924    3.3906 H   0  0  0  0  0  0  0  0  0  0  0  0
   -2.1862    3.8503    2.9213 H   0  0  0  0  0  0  0  0  0  0  0  0
    2.5054    5.1244    3.9913 H   0  0  0  0  0  0  0  0  0  0  0  0
    1.0021    5.7371    3.2852 H   0  0  0  0  0  0  0  0  0  0  0  0
    3.1087    4.1659    1.9170 H   0  0  0  0  0  0  0  0  0  0  0  0
    1.6219    4.7993    1.1950 H   0  0  0  0  0  0  0  0  0  0  0  0
    1.5922    3.9605    6.1068 H   0  0  0  0  0  0  0  0  0  0  0  0
    0.1346    2.9626    6.0374 H   0  0  0  0  0  0  0  0  0  0  0  0
    0.0185    4.7133    5.8240 H   0  0  0  0  0  0  0  0  0  0  0  0
   -3.9544    2.4377   -2.4602 H   0  0  0  0  0  0  0  0  0  0  0  0
   -1.5232    2.2276   -5.2733 H   0  0  0  0  0  0  0  0  0  0  0  0
   -3.7598    2.4149   -8.5634 H   0  0  0  0  0  0  0  0  0  0  0  0
   -2.9672    3.4950   -7.4064 H   0  0  0  0  0  0  0  0  0  0  0  0
   -2.0160    2.5386   -8.5230 H   0  0  0  0  0  0  0  0  0  0  0  0
   -4.3415    2.5146   -5.5779 H   0  0  0  0  0  0  0  0  0  0  0  0
   -4.4517    0.7857   -5.2864 H   0  0  0  0  0  0  0  0  0  0  0  0
   -5.1176    1.4542   -6.7646 H   0  0  0  0  0  0  0  0  0  0  0  0
   -2.0122   -2.4138   -5.2868 H   0  0  0  0  0  0  0  0  0  0  0  0
   -1.0644    0.4530   -8.8717 H   0  0  0  0  0  0  0  0  0  0  0  0
   -0.5540   -0.9024   -7.8534 H   0  0  0  0  0  0  0  0  0  0  0  0
   -0.1066    1.9769   -7.3336 H   0  0  0  0  0  0  0  0  0  0  0  0
    0.4083    0.6202   -6.3171 H   0  0  0  0  0  0  0  0  0  0  0  0
   -3.1864   -1.7317   -8.5698 H   0  0  0  0  0  0  0  0  0  0  0  0
   -4.5302   -0.8200   -7.8616 H   0  0  0  0  0  0  0  0  0  0  0  0
   -3.6063   -0.1351   -9.2099 H   0  0  0  0  0  0  0  0  0  0  0  0
    2.8661   -3.0613   -0.2100 H   0  0  0  0  0  0  0  0  0  0  0  0
    6.5242   -2.7226    1.3488 H   0  0  0  0  0  0  0  0  0  0  0  0
    5.2534   -3.9391    1.1258 H   0  0  0  0  0  0  0  0  0  0  0  0
    6.1868   -3.3639   -0.2418 H   0  0  0  0  0  0  0  0  0  0  0  0
    3.6777   -2.4687    2.4310 H   0  0  0  0  0  0  0  0  0  0  0  0
    3.4402   -0.7728    2.0408 H   0  0  0  0  0  0  0  0  0  0  0  0
    5.0048   -1.3120    2.6231 H   0  0  0  0  0  0  0  0  0  0  0  0
    2.7796    1.5052   -0.9719 H   0  0  0  0  0  0  0  0  0  0  0  0
    6.3160   -1.7334   -1.8693 H   0  0  0  0  0  0  0  0  0  0  0  0
    5.2051   -0.5600   -2.5870 H   0  0  0  0  0  0  0  0  0  0  0  0
    4.6328   -3.4008   -1.9744 H   0  0  0  0  0  0  0  0  0  0  0  0
    3.5305   -2.2290   -2.7139 H   0  0  0  0  0  0  0  0  0  0  0  0
    6.4045    1.0256   -0.5122 H   0  0  0  0  0  0  0  0  0  0  0  0
    5.9815    0.5954    1.1514 H   0  0  0  0  0  0  0  0  0  0  0  0
    7.1331   -0.3986    0.2455 H   0  0  0  0  0  0  0  0  0  0  0  0
  1  2  1  0  0  0  0 
  1  3  2  0  0  0  0 
  4  1  1  0  0  0  0 
  5  4  1  0  0  0  0 
  4 10  2  0  0  0  0 
  5  6  1  0  0  0  0 
  5 13  1  0  0  0  0 
  6  7  1  0  0  0  0 
  6  8  1  0  0  0  0 
  9  6  1  0  0  0  0 
  9 12  1  0  0  0  0 
  9 14  1  0  0  0  0 
  9 10  1  0  0  0  0 
 10 11  1  0  0  0  0 
 13 12  1  0  0  0  0 
  2 15  1  0  0  0  0 
 15 16  1  0  0  0  0 
 15 17  1  0  0  0  0 
 17 18  1  0  0  0  0 
 19 20  1  0  0  0  0 
 19 21  2  0  0  0  0 
 22 19  1  0  0  0  0 
 23 22  1  0  0  0  0 
 22 28  2  0  0  0  0 
 23 24  1  0  0  0  0 
 23 31  1  0  0  0  0 
 24 25  1  0  0  0  0 
 24 26  1  0  0  0  0 
 27 24  1  0  0  0  0 
 27 30  1  0  0  0  0 
 27 32  1  0  0  0  0 
 27 28  1  0  0  0  0 
 28 29  1  0  0  0  0 
 31 30  1  0  0  0  0 
 18 20  1  0  0  0  0 
 33 34  1  0  0  0  0 
 33 35  2  0  0  0  0 
 36 33  1  0  0  0  0 
 37 36  1  0  0  0  0 
 36 42  2  0  0  0  0 
 37 38  1  0  0  0  0 
 37 45  1  0  0  0  0 
 38 39  1  0  0  0  0 
 38 40  1  0  0  0  0 
 41 38  1  0  0  0  0 
 41 44  1  0  0  0  0 
 41 46  1  0  0  0  0 
 41 42  1  0  0  0  0 
 42 43  1  0  0  0  0 
 45 44  1  0  0  0  0 
 18 34  1  0  0  0  0 
  5 47  1  0  0  0  0 
 48  7  1  0  0  0  0 
 49  7  1  0  0  0  0 
 50  7  1  0  0  0  0 
 51  8  1  0  0  0  0 
 52  8  1  0  0  0  0 
 53  8  1  0  0  0  0 
 54 11  1  0  0  0  0 
 55 12  1  0  0  0  0 
 56 12  1  0  0  0  0 
 57 13  1  0  0  0  0 
 58 13  1  0  0  0  0 
 59 14  1  0  0  0  0 
 60 14  1  0  0  0  0 
 61 14  1  0  0  0  0 
 62 16  1  0  0  0  0 
 23 63  1  0  0  0  0 
 64 25  1  0  0  0  0 
 65 25  1  0  0  0  0 
 66 25  1  0  0  0  0 
 67 26  1  0  0  0  0 
 68 26  1  0  0  0  0 
 69 26  1  0  0  0  0 
 70 29  1  0  0  0  0 
 71 30  1  0  0  0  0 
 72 30  1  0  0  0  0 
 73 31  1  0  0  0  0 
 74 31  1  0  0  0  0 
 75 32  1  0  0  0  0 
 76 32  1  0  0  0  0 
 77 32  1  0  0  0  0 
 37 78  1  0  0  0  0 
 79 39  1  0  0  0  0 
 80 39  1  0  0  0  0 
 81 39  1  0  0  0  0 
 82 40  1  0  0  0  0 
 83 40  1  0  0  0  0 
 84 40  1  0  0  0  0 
 85 43  1  0  0  0  0 
 86 44  1  0  0  0  0 
 87 44  1  0  0  0  0 
 88 45  1  0  0  0  0 
 89 45  1  0  0  0  0 
 90 46  1  0  0  0  0 
 91 46  1  0  0  0  0 
 92 46  1  0  0  0  0 
M  END
> <cdk:Title>
bismuth camphocarbonate

> <Conformer>
1

> <SuperDrugID>
SD002658

$$$$
