tocopheryl nicotinate
  CDK     0628171801

 92 94  0  0  0  0  0  0  0  0999 V2000
   -3.9846   -1.0397   -2.0904 C   0  0  0  0  0  0  0  0  0  0  0  0
   -2.7322   -0.6641   -1.3648 C   0  0  0  0  0  0  0  0  0  0  0  0
   -2.6427    0.5854   -0.6919 C   0  0  0  0  0  0  0  0  0  0  0  0
   -1.6152   -1.5498   -1.3475 C   0  0  0  0  0  0  0  0  0  0  0  0
   -1.4788    0.9394    0.0441 C   0  0  0  0  0  0  0  0  0  0  0  0
   -3.7414    1.4240   -0.7475 O   0  0  0  0  0  0  0  0  0  0  0  0
   -1.6023   -2.8820   -2.0357 C   0  0  0  0  0  0  0  0  0  0  0  0
   -0.4351   -1.1643   -0.6598 C   0  0  0  0  0  0  0  0  0  0  0  0
   -0.3683    0.0464    0.0809 C   0  0  0  0  0  0  0  0  0  0  0  0
   -1.4347    2.2627    0.7465 C   0  0  1  0  0  0  0  0  0  0  0  0
   -3.5740    2.8492   -0.5753 C   0  0  1  0  0  0  0  0  0  0  0  0
    0.6376   -2.0164   -0.7663 O   0  0  0  0  0  0  0  0  0  0  0  0
    0.8430    0.3725    0.8962 C   0  0  0  0  0  0  0  0  0  0  0  0
   -2.7565    3.0740    0.7351 C   0  0  1  0  0  0  0  0  0  0  0  0
   -2.8743    3.5201   -1.8124 C   0  0  2  0  0  0  0  0  0  0  0  0
   -5.0126    3.4217   -0.3763 C   0  0  0  0  0  0  0  0  0  0  0  0
    1.8325   -1.7771   -1.3919 C   0  0  0  0  0  0  0  0  0  0  0  0
   -3.4916    3.2149   -3.2082 C   0  0  2  0  0  0  0  0  0  0  0  0
    2.0456   -0.6415   -1.8760 O   0  0  0  0  0  0  0  0  0  0  0  0
    2.7918   -2.8142   -1.5244 C   0  0  0  0  0  0  0  0  0  0  0  0
   -2.9458    4.1224   -4.3506 C   0  0  1  0  0  0  0  0  0  0  0  0
    2.5755   -4.0842   -0.9382 C   0  0  0  0  0  0  0  0  0  0  0  0
    3.9849   -2.6435   -2.2703 C   0  0  0  0  0  0  0  0  0  0  0  0
   -1.4002    4.1118   -4.6078 C   0  0  1  0  0  0  0  0  0  0  0  0
    3.4890   -5.1347   -1.1325 C   0  0  0  0  0  0  0  0  0  0  0  0
    4.8451   -3.6785   -2.4477 N   0  0  0  0  0  0  0  0  0  0  0  0
   -0.8814    2.6994   -5.0363 C   0  0  1  0  0  0  0  0  0  0  0  0
   -1.0388    5.2050   -5.6554 C   0  0  0  0  0  0  0  0  0  0  0  0
    4.6292   -4.9089   -1.9200 C   0  0  0  0  0  0  0  0  0  0  0  0
    0.6600    2.5892   -5.2096 C   0  0  2  0  0  0  0  0  0  0  0  0
    1.1297    1.1229   -5.4215 C   0  0  2  0  0  0  0  0  0  0  0  0
    2.6689    0.9318   -5.6461 C   0  0  1  0  0  0  0  0  0  0  0  0
    3.4964    1.3958   -4.3991 C   0  0  2  0  0  0  0  0  0  0  0  0
    2.9461   -0.5498   -6.0399 C   0  0  0  0  0  0  0  0  0  0  0  0
    5.0234    1.1119   -4.4092 C   0  0  2  0  0  0  0  0  0  0  0  0
    5.6950    1.5671   -3.0389 C   0  0  1  0  0  0  0  0  0  0  0  0
    7.2653    1.2766   -3.0184 C   0  0  1  0  0  0  0  0  0  0  0  0
    7.8956    1.9316   -1.7581 C   0  0  0  0  0  0  0  0  0  0  0  0
    7.6323   -0.2345   -3.0713 C   0  0  0  0  0  0  0  0  0  0  0  0
   -4.3649   -1.9881   -1.7082 H   0  0  0  0  0  0  0  0  0  0  0  0
   -3.7745   -1.1383   -3.1566 H   0  0  0  0  0  0  0  0  0  0  0  0
   -4.7939   -0.3188   -1.9883 H   0  0  0  0  0  0  0  0  0  0  0  0
   -1.4116   -3.6706   -1.3045 H   0  0  0  0  0  0  0  0  0  0  0  0
   -2.5241   -3.1382   -2.5498 H   0  0  0  0  0  0  0  0  0  0  0  0
   -0.8085   -2.9009   -2.7836 H   0  0  0  0  0  0  0  0  0  0  0  0
   -1.1658    2.1181    1.7953 H   0  0  0  0  0  0  0  0  0  0  0  0
   -0.6505    2.8686    0.2857 H   0  0  0  0  0  0  0  0  0  0  0  0
    1.5629   -0.4421    0.9454 H   0  0  0  0  0  0  0  0  0  0  0  0
    1.3482    1.2453    0.4783 H   0  0  0  0  0  0  0  0  0  0  0  0
    0.5644    0.5845    1.9295 H   0  0  0  0  0  0  0  0  0  0  0  0
   -3.3496    2.7408    1.5926 H   0  0  0  0  0  0  0  0  0  0  0  0
   -2.5423    4.1376    0.8810 H   0  0  0  0  0  0  0  0  0  0  0  0
   -1.8325    3.1969   -1.8465 H   0  0  0  0  0  0  0  0  0  0  0  0
   -2.8689    4.6039   -1.6630 H   0  0  0  0  0  0  0  0  0  0  0  0
   -5.6726    3.1164   -1.1880 H   0  0  0  0  0  0  0  0  0  0  0  0
   -5.4542    3.0480    0.5492 H   0  0  0  0  0  0  0  0  0  0  0  0
   -4.9961    4.5128   -0.3316 H   0  0  0  0  0  0  0  0  0  0  0  0
   -4.5698    3.3744   -3.1753 H   0  0  0  0  0  0  0  0  0  0  0  0
   -3.3388    2.1624   -3.4553 H   0  0  0  0  0  0  0  0  0  0  0  0
   -3.4565    3.8448   -5.2773 H   0  0  0  0  0  0  0  0  0  0  0  0
   -3.2536    5.1469   -4.1183 H   0  0  0  0  0  0  0  0  0  0  0  0
    1.7471   -4.2614   -0.3655 H   0  0  0  0  0  0  0  0  0  0  0  0
    4.2200   -1.7479   -2.7016 H   0  0  0  0  0  0  0  0  0  0  0  0
   -0.8958    4.3951   -3.6794 H   0  0  0  0  0  0  0  0  0  0  0  0
    3.3212   -6.0498   -0.7116 H   0  0  0  0  0  0  0  0  0  0  0  0
   -1.1725    1.9736   -4.2744 H   0  0  0  0  0  0  0  0  0  0  0  0
   -1.3655    2.4087   -5.9731 H   0  0  0  0  0  0  0  0  0  0  0  0
   -1.4579    6.1718   -5.3678 H   0  0  0  0  0  0  0  0  0  0  0  0
    0.0420    5.3307   -5.7265 H   0  0  0  0  0  0  0  0  0  0  0  0
   -1.4291    4.9345   -6.6386 H   0  0  0  0  0  0  0  0  0  0  0  0
    5.2945   -5.6628   -2.0982 H   0  0  0  0  0  0  0  0  0  0  0  0
    1.1318    3.0031   -4.3168 H   0  0  0  0  0  0  0  0  0  0  0  0
    0.9750    3.1785   -6.0743 H   0  0  0  0  0  0  0  0  0  0  0  0
    0.5952    0.7397   -6.2961 H   0  0  0  0  0  0  0  0  0  0  0  0
    0.8187    0.5241   -4.5600 H   0  0  0  0  0  0  0  0  0  0  0  0
    2.9646    1.5530   -6.4974 H   0  0  0  0  0  0  0  0  0  0  0  0
    3.0743    0.9277   -3.5114 H   0  0  0  0  0  0  0  0  0  0  0  0
    3.3768    2.4749   -4.2838 H   0  0  0  0  0  0  0  0  0  0  0  0
    2.8102   -1.2076   -5.1789 H   0  0  0  0  0  0  0  0  0  0  0  0
    3.9630   -0.6638   -6.4166 H   0  0  0  0  0  0  0  0  0  0  0  0
    2.2724   -0.8759   -6.8345 H   0  0  0  0  0  0  0  0  0  0  0  0
    5.4827    1.6538   -5.2388 H   0  0  0  0  0  0  0  0  0  0  0  0
    5.1908    0.0451   -4.5526 H   0  0  0  0  0  0  0  0  0  0  0  0
    5.4018    2.6349   -2.7021 H   0  0  0  0  0  0  0  0  0  0  0  0
    5.2616    0.9262   -2.2653 H   0  0  0  0  0  0  0  0  0  0  0  0
    7.7086    1.7645   -3.8917 H   0  0  0  0  0  0  0  0  0  0  0  0
    7.6951    3.0047   -1.7447 H   0  0  0  0  0  0  0  0  0  0  0  0
    8.9786    1.7936   -1.7535 H   0  0  0  0  0  0  0  0  0  0  0  0
    7.4844    1.4893   -0.8479 H   0  0  0  0  0  0  0  0  0  0  0  0
    7.3027   -0.6849   -4.0071 H   0  0  0  0  0  0  0  0  0  0  0  0
    8.7147   -0.3650   -3.0113 H   0  0  0  0  0  0  0  0  0  0  0  0
    7.1704   -0.7720   -2.2399 H   0  0  0  0  0  0  0  0  0  0  0  0
  1  2  1  0  0  0  0 
  2  3  2  0  0  0  0 
  2  4  1  0  0  0  0 
  3  5  1  0  0  0  0 
  3  6  1  0  0  0  0 
  4  7  1  0  0  0  0 
  4  8  2  0  0  0  0 
  5  9  2  0  0  0  0 
  5 10  1  0  0  0  0 
 11  6  1  0  0  0  0 
  8  9  1  0  0  0  0 
  8 12  1  0  0  0  0 
  9 13  1  0  0  0  0 
 10 14  1  0  0  0  0 
 11 14  1  0  0  0  0 
 11 15  1  0  0  0  0 
 11 16  1  0  0  0  0 
 12 17  1  0  0  0  0 
 15 18  1  0  0  0  0 
 17 19  2  0  0  0  0 
 17 20  1  0  0  0  0 
 18 21  1  0  0  0  0 
 20 22  2  0  0  0  0 
 20 23  1  0  0  0  0 
 24 21  1  0  0  0  0 
 22 25  1  0  0  0  0 
 23 26  2  0  0  0  0 
 24 27  1  0  0  0  0 
 24 28  1  0  0  0  0 
 25 29  2  0  0  0  0 
 26 29  1  0  0  0  0 
 27 30  1  0  0  0  0 
 30 31  1  0  0  0  0 
 32 31  1  0  0  0  0 
 32 33  1  0  0  0  0 
 32 34  1  0  0  0  0 
 33 35  1  0  0  0  0 
 35 36  1  0  0  0  0 
 36 37  1  0  0  0  0 
 37 38  1  0  0  0  0 
 37 39  1  0  0  0  0 
  1 40  1  0  0  0  0 
  1 41  1  0  0  0  0 
  1 42  1  0  0  0  0 
  7 43  1  0  0  0  0 
  7 44  1  0  0  0  0 
  7 45  1  0  0  0  0 
 10 46  1  0  0  0  0 
 10 47  1  0  0  0  0 
 13 48  1  0  0  0  0 
 13 49  1  0  0  0  0 
 13 50  1  0  0  0  0 
 14 51  1  0  0  0  0 
 14 52  1  0  0  0  0 
 15 53  1  0  0  0  0 
 15 54  1  0  0  0  0 
 16 55  1  0  0  0  0 
 16 56  1  0  0  0  0 
 16 57  1  0  0  0  0 
 18 58  1  0  0  0  0 
 18 59  1  0  0  0  0 
 21 60  1  0  0  0  0 
 21 61  1  0  0  0  0 
 22 62  1  0  0  0  0 
 23 63  1  0  0  0  0 
 24 64  1  0  0  0  0 
 25 65  1  0  0  0  0 
 27 66  1  0  0  0  0 
 27 67  1  0  0  0  0 
 28 68  1  0  0  0  0 
 28 69  1  0  0  0  0 
 28 70  1  0  0  0  0 
 29 71  1  0  0  0  0 
 30 72  1  0  0  0  0 
 30 73  1  0  0  0  0 
 31 74  1  0  0  0  0 
 31 75  1  0  0  0  0 
 32 76  1  0  0  0  0 
 33 77  1  0  0  0  0 
 33 78  1  0  0  0  0 
 34 79  1  0  0  0  0 
 34 80  1  0  0  0  0 
 34 81  1  0  0  0  0 
 35 82  1  0  0  0  0 
 35 83  1  0  0  0  0 
 36 84  1  0  0  0  0 
 36 85  1  0  0  0  0 
 37 86  1  0  0  0  0 
 38 87  1  0  0  0  0 
 38 88  1  0  0  0  0 
 38 89  1  0  0  0  0 
 39 90  1  0  0  0  0 
 39 91  1  0  0  0  0 
 39 92  1  0  0  0  0 
M  END
> <cdk:Title>
tocopheryl nicotinate

> <Conformer>
1

> <SuperDrugID>
SD002420

$$$$
