paramethadione
  CDK     0628171801

 22 22  0  0  0  0  0  0  0  0999 V2000
    1.5948   -0.6089    0.9867 C   0  0  0  0  0  0  0  0  0  0  0  0
    1.0626   -0.0104   -0.3383 C   0  0  2  0  0  0  0  0  0  0  0  0
    1.6824   -0.6179   -1.6374 C   0  0  1  0  0  0  0  0  0  0  0  0
    1.1761    0.0947   -2.9213 C   0  0  0  0  0  0  0  0  0  0  0  0
    3.1112   -0.5433   -1.6061 O   0  0  0  0  0  0  0  0  0  0  0  0
    3.6627   -1.7759   -1.6796 C   0  0  0  0  0  0  0  0  0  0  0  0
    4.8999   -1.9684   -1.6816 O   0  0  0  0  0  0  0  0  0  0  0  0
    2.6999   -2.7168   -1.7591 N   0  0  0  0  0  0  0  0  0  0  0  0
    2.8804   -4.1352   -1.8576 C   0  0  0  0  0  0  0  0  0  0  0  0
    1.5085   -2.0822   -1.7384 C   0  0  0  0  0  0  0  0  0  0  0  0
    0.3926   -2.6511   -1.7957 O   0  0  0  0  0  0  0  0  0  0  0  0
    1.1044   -0.1246    1.8335 H   0  0  0  0  0  0  0  0  0  0  0  0
    2.6707   -0.4497    1.0745 H   0  0  0  0  0  0  0  0  0  0  0  0
    1.3893   -1.6795    1.0385 H   0  0  0  0  0  0  0  0  0  0  0  0
    1.2629    1.0654   -0.3202 H   0  0  0  0  0  0  0  0  0  0  0  0
   -0.0226   -0.1419   -0.3607 H   0  0  0  0  0  0  0  0  0  0  0  0
    0.0932   -0.0053   -3.0185 H   0  0  0  0  0  0  0  0  0  0  0  0
    1.6436   -0.3359   -3.8110 H   0  0  0  0  0  0  0  0  0  0  0  0
    1.4255    1.1571   -2.8891 H   0  0  0  0  0  0  0  0  0  0  0  0
    2.4045   -4.6283   -1.0080 H   0  0  0  0  0  0  0  0  0  0  0  0
    3.9357   -4.4162   -1.8678 H   0  0  0  0  0  0  0  0  0  0  0  0
    2.4174   -4.5009   -2.7772 H   0  0  0  0  0  0  0  0  0  0  0  0
  1  2  1  0  0  0  0 
  3  2  1  0  0  0  0 
  3  4  1  0  0  0  0 
  3  5  1  0  0  0  0 
  5  6  1  0  0  0  0 
  6  7  2  0  0  0  0 
  6  8  1  0  0  0  0 
  8  9  1  0  0  0  0 
  8 10  1  0  0  0  0 
  3 10  1  0  0  0  0 
 10 11  2  0  0  0  0 
  1 12  1  0  0  0  0 
  1 13  1  0  0  0  0 
  1 14  1  0  0  0  0 
  2 15  1  0  0  0  0 
  2 16  1  0  0  0  0 
  4 17  1  0  0  0  0 
  4 18  1  0  0  0  0 
  4 19  1  0  0  0  0 
  9 20  1  0  0  0  0 
  9 21  1  0  0  0  0 
  9 22  1  0  0  0  0 
M  END
> <cdk:Title>
paramethadione

> <Conformer>
1

> <SuperDrugID>
SD001846

$$$$
