etamiphylline
  CDK     0628171801

 41 42  0  0  0  0  0  0  0  0999 V2000
   -0.1729   -0.5646    0.1205 C   0  0  1  0  0  0  0  0  0  0  0  0
   -0.6729    0.1095   -1.1858 C   0  0  2  0  0  0  0  0  0  0  0  0
    1.2072   -0.2534    0.3704 N   0  0  0  0  0  0  0  0  0  0  0  0
   -2.1379   -0.0488   -1.4748 N   0  0  2  0  0  0  0  0  0  0  0  0
    1.7345    0.8239    0.9940 C   0  0  0  0  0  0  0  0  0  0  0  0
    2.2563   -1.0135   -0.0029 C   0  0  0  0  0  0  0  0  0  0  0  0
   -3.0712    0.8119   -0.6740 C   0  0  1  0  0  0  0  0  0  0  0  0
   -2.5828   -1.4693   -1.6545 C   0  0  1  0  0  0  0  0  0  0  0  0
    3.1165    0.6862    1.0063 C   0  0  0  0  0  0  0  0  0  0  0  0
    1.1706    1.9687    1.5833 C   0  0  0  0  0  0  0  0  0  0  0  0
    3.4205   -0.4593    0.3734 N   0  0  0  0  0  0  0  0  0  0  0  0
   -2.9281    2.3192   -0.9816 C   0  0  0  0  0  0  0  0  0  0  0  0
   -3.7806   -1.6041   -2.6217 C   0  0  0  0  0  0  0  0  0  0  0  0
    3.9432    1.6042    1.5867 N   0  0  0  0  0  0  0  0  0  0  0  0
   -0.0745    2.1097    1.5524 O   0  0  0  0  0  0  0  0  0  0  0  0
    1.9948    2.9031    2.1721 N   0  0  0  0  0  0  0  0  0  0  0  0
    5.3775    1.4118    1.5887 C   0  0  0  0  0  0  0  0  0  0  0  0
    3.3650    2.7105    2.1715 C   0  0  0  0  0  0  0  0  0  0  0  0
    1.3844    4.0745    2.7728 C   0  0  0  0  0  0  0  0  0  0  0  0
    4.1184    3.5607    2.7090 O   0  0  0  0  0  0  0  0  0  0  0  0
   -0.7864   -0.2635    0.9700 H   0  0  0  0  0  0  0  0  0  0  0  0
   -0.2924   -1.6468    0.0285 H   0  0  0  0  0  0  0  0  0  0  0  0
   -0.1148   -0.3171   -2.0234 H   0  0  0  0  0  0  0  0  0  0  0  0
   -0.4058    1.1670   -1.1689 H   0  0  0  0  0  0  0  0  0  0  0  0
    2.1880   -1.8981   -0.5102 H   0  0  0  0  0  0  0  0  0  0  0  0
   -4.1087    0.5589   -0.9032 H   0  0  0  0  0  0  0  0  0  0  0  0
   -2.9328    0.6396    0.3957 H   0  0  0  0  0  0  0  0  0  0  0  0
   -1.7730   -2.0649   -2.0863 H   0  0  0  0  0  0  0  0  0  0  0  0
   -2.8351   -1.9124   -0.6863 H   0  0  0  0  0  0  0  0  0  0  0  0
   -2.0354    2.7275   -0.5073 H   0  0  0  0  0  0  0  0  0  0  0  0
   -2.8663    2.4792   -2.0602 H   0  0  0  0  0  0  0  0  0  0  0  0
   -3.7947    2.8610   -0.5979 H   0  0  0  0  0  0  0  0  0  0  0  0
   -3.8788   -2.6397   -2.9499 H   0  0  0  0  0  0  0  0  0  0  0  0
   -3.6263   -0.9736   -3.4990 H   0  0  0  0  0  0  0  0  0  0  0  0
   -4.7126   -1.3152   -2.1354 H   0  0  0  0  0  0  0  0  0  0  0  0
    5.7374    1.3362    2.6166 H   0  0  0  0  0  0  0  0  0  0  0  0
    5.6986    0.5101    1.0629 H   0  0  0  0  0  0  0  0  0  0  0  0
    5.8687    2.2598    1.1073 H   0  0  0  0  0  0  0  0  0  0  0  0
    0.8980    4.6715    1.9977 H   0  0  0  0  0  0  0  0  0  0  0  0
    2.0872    4.7274    3.2929 H   0  0  0  0  0  0  0  0  0  0  0  0
    0.6315    3.7723    3.5053 H   0  0  0  0  0  0  0  0  0  0  0  0
  1  2  1  0  0  0  0 
  1  3  1  0  0  0  0 
  2  4  1  0  0  0  0 
  3  5  1  0  0  0  0 
  3  6  1  0  0  0  0 
  4  7  1  0  0  0  0 
  4  8  1  0  0  0  0 
  5  9  2  0  0  0  0 
  5 10  1  0  0  0  0 
  6 11  2  0  0  0  0 
  7 12  1  0  0  0  0 
  8 13  1  0  0  0  0 
  9 11  1  0  0  0  0 
  9 14  1  0  0  0  0 
 10 15  2  0  0  0  0 
 10 16  1  0  0  0  0 
 14 17  1  0  0  0  0 
 14 18  1  0  0  0  0 
 16 18  1  0  0  0  0 
 16 19  1  0  0  0  0 
 18 20  2  0  0  0  0 
  1 21  1  0  0  0  0 
  1 22  1  0  0  0  0 
  2 23  1  0  0  0  0 
  2 24  1  0  0  0  0 
  6 25  1  0  0  0  0 
  7 26  1  0  0  0  0 
  7 27  1  0  0  0  0 
  8 28  1  0  0  0  0 
  8 29  1  0  0  0  0 
 12 30  1  0  0  0  0 
 12 31  1  0  0  0  0 
 12 32  1  0  0  0  0 
 13 33  1  0  0  0  0 
 13 34  1  0  0  0  0 
 13 35  1  0  0  0  0 
 17 36  1  0  0  0  0 
 17 37  1  0  0  0  0 
 17 38  1  0  0  0  0 
 19 39  1  0  0  0  0 
 19 40  1  0  0  0  0 
 19 41  1  0  0  0  0 
M  END
> <cdk:Title>
etamiphylline

> <Conformer>
1

> <SuperDrugID>
SD002762

$$$$
