ubidecarenone
  CDK     0628171802

153153  0  0  0  0  0  0  0  0999 V2000
   -0.2535    0.5815   -1.0851 C   0  0  1  0  0  0  0  0  0  0  0  0
   -0.9223    0.3285    0.1889 C   0  0  0  0  0  0  0  0  0  0  0  0
    1.2025    0.7803   -0.8877 C   0  0  0  0  0  0  0  0  0  0  0  0
   -1.8210   -0.6379    0.4959 C   0  0  0  0  0  0  0  0  0  0  0  0
    1.6872    2.1027   -0.7223 C   0  0  0  0  0  0  0  0  0  0  0  0
    2.0936   -0.2580   -0.8199 C   0  0  0  0  0  0  0  0  0  0  0  0
   -2.2460   -0.7620    1.8991 C   0  0  2  0  0  0  0  0  0  0  0  0
   -2.3624   -1.6000   -0.4673 C   0  0  0  0  0  0  0  0  0  0  0  0
    0.9153    3.0914   -0.7395 O   0  0  0  0  0  0  0  0  0  0  0  0
    3.0446    2.3607   -0.5236 C   0  0  0  0  0  0  0  0  0  0  0  0
    1.6574   -1.6611   -0.9031 C   0  0  0  0  0  0  0  0  0  0  0  0
    3.4741    0.0275   -0.6544 C   0  0  0  0  0  0  0  0  0  0  0  0
   -1.0937   -1.2668    2.8165 C   0  0  2  0  0  0  0  0  0  0  0  0
    3.4770    3.6260   -0.3609 O   0  0  0  0  0  0  0  0  0  0  0  0
    3.9296    1.3432   -0.5434 C   0  0  0  0  0  0  0  0  0  0  0  0
    4.3375   -0.8810   -0.5939 O   0  0  0  0  0  0  0  0  0  0  0  0
   -1.5817   -1.6684    4.1265 C   0  0  0  0  0  0  0  0  0  0  0  0
    3.5949    4.0256    1.0193 C   0  0  0  0  0  0  0  0  0  0  0  0
    5.2468    1.5953   -0.4221 O   0  0  0  0  0  0  0  0  0  0  0  0
   -1.9778   -2.9044    4.5131 C   0  0  0  0  0  0  0  0  0  0  0  0
    5.8992    1.8638   -1.6799 C   0  0  0  0  0  0  0  0  0  0  0  0
   -2.3537   -3.1090    5.9192 C   0  0  2  0  0  0  0  0  0  0  0  0
   -2.0285   -4.0764    3.6353 C   0  0  0  0  0  0  0  0  0  0  0  0
   -1.1334   -2.9887    6.8791 C   0  0  2  0  0  0  0  0  0  0  0  0
   -1.5069   -3.3837    8.2279 C   0  0  0  0  0  0  0  0  0  0  0  0
   -1.4008   -4.6089    8.7951 C   0  0  0  0  0  0  0  0  0  0  0  0
   -1.8587   -4.7799   10.1824 C   0  0  2  0  0  0  0  0  0  0  0  0
   -0.8608   -5.7929    8.1220 C   0  0  0  0  0  0  0  0  0  0  0  0
   -1.0278   -3.9692   11.2180 C   0  0  2  0  0  0  0  0  0  0  0  0
   -1.3603   -4.3627   12.5793 C   0  0  0  0  0  0  0  0  0  0  0  0
   -0.7375   -5.2861   13.3501 C   0  0  0  0  0  0  0  0  0  0  0  0
   -1.1970   -5.4747   14.7366 C   0  0  2  0  0  0  0  0  0  0  0  0
    0.3810   -6.1193   12.9009 C   0  0  0  0  0  0  0  0  0  0  0  0
   -0.9868   -4.2142   15.6266 C   0  0  2  0  0  0  0  0  0  0  0  0
   -1.2408   -4.4999   17.0315 C   0  0  0  0  0  0  0  0  0  0  0  0
   -0.3478   -4.8839   17.9750 C   0  0  0  0  0  0  0  0  0  0  0  0
   -0.8134   -5.0614   19.3617 C   0  0  2  0  0  0  0  0  0  0  0  0
    1.0696   -5.1459   17.7113 C   0  0  0  0  0  0  0  0  0  0  0  0
   -1.3546   -3.7543   20.0139 C   0  0  2  0  0  0  0  0  0  0  0  0
   -1.6215   -3.9320   21.4353 C   0  0  0  0  0  0  0  0  0  0  0  0
   -0.7746   -3.7194   22.4711 C   0  0  0  0  0  0  0  0  0  0  0  0
   -1.2681   -3.9116   23.8466 C   0  0  2  0  0  0  0  0  0  0  0  0
    0.6263   -3.3181   22.3181 C   0  0  0  0  0  0  0  0  0  0  0  0
   -2.4443   -2.9679   24.2375 C   0  0  2  0  0  0  0  0  0  0  0  0
   -2.7716   -3.0749   25.6530 C   0  0  0  0  0  0  0  0  0  0  0  0
   -2.2539   -2.3591   26.6801 C   0  0  0  0  0  0  0  0  0  0  0  0
   -2.7655   -2.5935   28.0421 C   0  0  2  0  0  0  0  0  0  0  0  0
   -1.1935   -1.3593   26.5327 C   0  0  0  0  0  0  0  0  0  0  0  0
   -4.2846   -2.2906   28.2068 C   0  0  1  0  0  0  0  0  0  0  0  0
   -4.7023   -2.3670   29.5998 C   0  0  0  0  0  0  0  0  0  0  0  0
   -4.7039   -1.3707   30.5172 C   0  0  0  0  0  0  0  0  0  0  0  0
   -5.2274   -1.6480   31.8648 C   0  0  2  0  0  0  0  0  0  0  0  0
   -4.2086   -0.0156   30.2646 C   0  0  0  0  0  0  0  0  0  0  0  0
   -6.7302   -2.0575   31.8817 C   0  0  1  0  0  0  0  0  0  0  0  0
   -7.2366   -2.1040   33.2460 C   0  0  0  0  0  0  0  0  0  0  0  0
   -7.7965   -1.0961   33.9581 C   0  0  0  0  0  0  0  0  0  0  0  0
   -8.2428   -1.3734   35.3342 C   0  0  2  0  0  0  0  0  0  0  0  0
   -7.9875    0.2640   33.4528 C   0  0  0  0  0  0  0  0  0  0  0  0
   -9.4664   -2.3362   35.4014 C   0  0  1  0  0  0  0  0  0  0  0  0
   -9.7227   -2.8108   36.7566 C   0  0  0  0  0  0  0  0  0  0  0  0
   -9.1460   -3.8825   37.3526 C   0  0  0  0  0  0  0  0  0  0  0  0
   -9.4771   -4.2265   38.7365 C   0  0  0  0  0  0  0  0  0  0  0  0
   -8.1842   -4.7439   36.6582 C   0  0  0  0  0  0  0  0  0  0  0  0
   -0.4184   -0.2043   -1.8204 H   0  0  0  0  0  0  0  0  0  0  0  0
   -0.7224    1.4683   -1.5228 H   0  0  0  0  0  0  0  0  0  0  0  0
   -0.6564    0.9519    0.9230 H   0  0  0  0  0  0  0  0  0  0  0  0
   -3.0976   -1.4426    1.9966 H   0  0  0  0  0  0  0  0  0  0  0  0
   -2.5924    0.2134    2.2573 H   0  0  0  0  0  0  0  0  0  0  0  0
   -1.8094   -2.5388   -0.4026 H   0  0  0  0  0  0  0  0  0  0  0  0
   -2.3342   -1.2462   -1.4965 H   0  0  0  0  0  0  0  0  0  0  0  0
   -3.4128   -1.8097   -0.2584 H   0  0  0  0  0  0  0  0  0  0  0  0
    1.1783   -1.8565   -1.8637 H   0  0  0  0  0  0  0  0  0  0  0  0
    0.9503   -1.8719   -0.1006 H   0  0  0  0  0  0  0  0  0  0  0  0
    2.4671   -2.3868   -0.8032 H   0  0  0  0  0  0  0  0  0  0  0  0
   -0.3700   -0.4577    2.9621 H   0  0  0  0  0  0  0  0  0  0  0  0
   -0.5355   -2.0782    2.3439 H   0  0  0  0  0  0  0  0  0  0  0  0
   -1.6203   -0.9338    4.7994 H   0  0  0  0  0  0  0  0  0  0  0  0
    3.9223    5.0652    1.0380 H   0  0  0  0  0  0  0  0  0  0  0  0
    4.3404    3.4265    1.5508 H   0  0  0  0  0  0  0  0  0  0  0  0
    2.6358    3.9598    1.5413 H   0  0  0  0  0  0  0  0  0  0  0  0
    6.9481    2.0794   -1.4797 H   0  0  0  0  0  0  0  0  0  0  0  0
    5.4677    2.7343   -2.1802 H   0  0  0  0  0  0  0  0  0  0  0  0
    5.8527    1.0021   -2.3504 H   0  0  0  0  0  0  0  0  0  0  0  0
   -2.8074   -4.0976    6.0578 H   0  0  0  0  0  0  0  0  0  0  0  0
   -3.1192   -2.3759    6.2026 H   0  0  0  0  0  0  0  0  0  0  0  0
   -1.2921   -4.8085    3.9730 H   0  0  0  0  0  0  0  0  0  0  0  0
   -1.8357   -3.8633    2.5860 H   0  0  0  0  0  0  0  0  0  0  0  0
   -3.0181   -4.5359    3.6809 H   0  0  0  0  0  0  0  0  0  0  0  0
   -0.7948   -1.9473    6.9093 H   0  0  0  0  0  0  0  0  0  0  0  0
   -0.2842   -3.5650    6.5060 H   0  0  0  0  0  0  0  0  0  0  0  0
   -1.9063   -2.6498    8.7709 H   0  0  0  0  0  0  0  0  0  0  0  0
   -1.8238   -5.8362   10.4696 H   0  0  0  0  0  0  0  0  0  0  0  0
   -2.9104   -4.4782   10.2479 H   0  0  0  0  0  0  0  0  0  0  0  0
    0.0744   -6.0796    8.6057 H   0  0  0  0  0  0  0  0  0  0  0  0
   -0.6649   -5.6649    7.0602 H   0  0  0  0  0  0  0  0  0  0  0  0
   -1.5633   -6.6236    8.2066 H   0  0  0  0  0  0  0  0  0  0  0  0
   -1.2533   -2.9032   11.1120 H   0  0  0  0  0  0  0  0  0  0  0  0
    0.0415   -4.0660   11.0215 H   0  0  0  0  0  0  0  0  0  0  0  0
   -2.1438   -3.8851   12.9670 H   0  0  0  0  0  0  0  0  0  0  0  0
   -0.6697   -6.3129   15.2070 H   0  0  0  0  0  0  0  0  0  0  0  0
   -2.2604   -5.7432   14.7292 H   0  0  0  0  0  0  0  0  0  0  0  0
    1.2836   -5.8264   13.4403 H   0  0  0  0  0  0  0  0  0  0  0  0
    0.5881   -6.0614   11.8342 H   0  0  0  0  0  0  0  0  0  0  0  0
    0.1745   -7.1703   13.1152 H   0  0  0  0  0  0  0  0  0  0  0  0
   -1.6842   -3.4308   15.3130 H   0  0  0  0  0  0  0  0  0  0  0  0
    0.0113   -3.7969   15.4785 H   0  0  0  0  0  0  0  0  0  0  0  0
   -2.1925   -4.3972   17.3059 H   0  0  0  0  0  0  0  0  0  0  0  0
   -0.0019   -5.4395   19.9938 H   0  0  0  0  0  0  0  0  0  0  0  0
   -1.5988   -5.8259   19.3766 H   0  0  0  0  0  0  0  0  0  0  0  0
    1.6751   -4.3990   18.2276 H   0  0  0  0  0  0  0  0  0  0  0  0
    1.3444   -5.1354   16.6586 H   0  0  0  0  0  0  0  0  0  0  0  0
    1.3406   -6.1338   18.0894 H   0  0  0  0  0  0  0  0  0  0  0  0
   -2.2955   -3.4722   19.5309 H   0  0  0  0  0  0  0  0  0  0  0  0
   -0.6706   -2.9208   19.8402 H   0  0  0  0  0  0  0  0  0  0  0  0
   -2.5402   -4.2537   21.6445 H   0  0  0  0  0  0  0  0  0  0  0  0
   -0.4598   -3.7517   24.5692 H   0  0  0  0  0  0  0  0  0  0  0  0
   -1.5864   -4.9539   23.9640 H   0  0  0  0  0  0  0  0  0  0  0  0
    0.7582   -2.3122   22.7202 H   0  0  0  0  0  0  0  0  0  0  0  0
    0.9890   -3.3227   21.2922 H   0  0  0  0  0  0  0  0  0  0  0  0
    1.2705   -4.0018   22.8754 H   0  0  0  0  0  0  0  0  0  0  0  0
   -3.3362   -3.2464   23.6676 H   0  0  0  0  0  0  0  0  0  0  0  0
   -2.2240   -1.9351   23.9590 H   0  0  0  0  0  0  0  0  0  0  0  0
   -3.4539   -3.7677   25.8670 H   0  0  0  0  0  0  0  0  0  0  0  0
   -2.2235   -1.9760   28.7676 H   0  0  0  0  0  0  0  0  0  0  0  0
   -2.5722   -3.6366   28.3174 H   0  0  0  0  0  0  0  0  0  0  0  0
   -1.5943   -0.3720   26.7680 H   0  0  0  0  0  0  0  0  0  0  0  0
   -0.7483   -1.3161   25.5410 H   0  0  0  0  0  0  0  0  0  0  0  0
   -0.3796   -1.5781   27.2273 H   0  0  0  0  0  0  0  0  0  0  0  0
   -4.5366   -1.3201   27.7730 H   0  0  0  0  0  0  0  0  0  0  0  0
   -4.8653   -3.0296   27.6452 H   0  0  0  0  0  0  0  0  0  0  0  0
   -5.0151   -3.2672   29.8894 H   0  0  0  0  0  0  0  0  0  0  0  0
   -5.1096   -0.7678   32.5085 H   0  0  0  0  0  0  0  0  0  0  0  0
   -4.6300   -2.4468   32.3203 H   0  0  0  0  0  0  0  0  0  0  0  0
   -5.0422    0.6874   30.3131 H   0  0  0  0  0  0  0  0  0  0  0  0
   -3.7127    0.1132   29.3045 H   0  0  0  0  0  0  0  0  0  0  0  0
   -3.4788    0.2585   31.0296 H   0  0  0  0  0  0  0  0  0  0  0  0
   -7.3280   -1.3923   31.2546 H   0  0  0  0  0  0  0  0  0  0  0  0
   -6.8384   -3.0563   31.4462 H   0  0  0  0  0  0  0  0  0  0  0  0
   -7.1301   -2.9881   33.6942 H   0  0  0  0  0  0  0  0  0  0  0  0
   -8.5145   -0.4503   35.8573 H   0  0  0  0  0  0  0  0  0  0  0  0
   -7.3986   -1.7893   35.8914 H   0  0  0  0  0  0  0  0  0  0  0  0
   -9.0566    0.4611   33.3613 H   0  0  0  0  0  0  0  0  0  0  0  0
   -7.5252    0.4595   32.4868 H   0  0  0  0  0  0  0  0  0  0  0  0
   -7.5574    0.9830   34.1527 H   0  0  0  0  0  0  0  0  0  0  0  0
  -10.3504   -1.8017   35.0379 H   0  0  0  0  0  0  0  0  0  0  0  0
   -9.3306   -3.1872   34.7311 H   0  0  0  0  0  0  0  0  0  0  0  0
  -10.3726   -2.2678   37.2793 H   0  0  0  0  0  0  0  0  0  0  0  0
   -9.8575   -5.2488   38.7841 H   0  0  0  0  0  0  0  0  0  0  0  0
  -10.2328   -3.5729   39.1790 H   0  0  0  0  0  0  0  0  0  0  0  0
   -8.5790   -4.1601   39.3539 H   0  0  0  0  0  0  0  0  0  0  0  0
   -7.7797   -5.5284   37.3024 H   0  0  0  0  0  0  0  0  0  0  0  0
   -7.3369   -4.1625   36.2933 H   0  0  0  0  0  0  0  0  0  0  0  0
   -8.6671   -5.2361   35.8124 H   0  0  0  0  0  0  0  0  0  0  0  0
  2  1  1  0  0  0  0 
  1  3  1  0  0  0  0 
  2  4  2  0  0  0  0 
  3  5  1  0  0  0  0 
  3  6  2  0  0  0  0 
  4  7  1  0  0  0  0 
  4  8  1  0  0  0  0 
  5  9  2  0  0  0  0 
  5 10  1  0  0  0  0 
  6 11  1  0  0  0  0 
  6 12  1  0  0  0  0 
  7 13  1  0  0  0  0 
 10 14  1  0  0  0  0 
 10 15  2  0  0  0  0 
 12 15  1  0  0  0  0 
 12 16  2  0  0  0  0 
 13 17  1  0  0  0  0 
 14 18  1  0  0  0  0 
 15 19  1  0  0  0  0 
 17 20  2  0  0  0  0 
 19 21  1  0  0  0  0 
 20 22  1  0  0  0  0 
 20 23  1  0  0  0  0 
 22 24  1  0  0  0  0 
 24 25  1  0  0  0  0 
 25 26  2  0  0  0  0 
 26 27  1  0  0  0  0 
 26 28  1  0  0  0  0 
 27 29  1  0  0  0  0 
 29 30  1  0  0  0  0 
 30 31  2  0  0  0  0 
 31 32  1  0  0  0  0 
 31 33  1  0  0  0  0 
 32 34  1  0  0  0  0 
 34 35  1  0  0  0  0 
 35 36  2  0  0  0  0 
 36 37  1  0  0  0  0 
 36 38  1  0  0  0  0 
 37 39  1  0  0  0  0 
 39 40  1  0  0  0  0 
 40 41  2  0  0  0  0 
 41 42  1  0  0  0  0 
 41 43  1  0  0  0  0 
 42 44  1  0  0  0  0 
 44 45  1  0  0  0  0 
 45 46  2  0  0  0  0 
 46 47  1  0  0  0  0 
 46 48  1  0  0  0  0 
 47 49  1  0  0  0  0 
 49 50  1  0  0  0  0 
 50 51  2  0  0  0  0 
 51 52  1  0  0  0  0 
 51 53  1  0  0  0  0 
 52 54  1  0  0  0  0 
 54 55  1  0  0  0  0 
 55 56  2  0  0  0  0 
 56 57  1  0  0  0  0 
 56 58  1  0  0  0  0 
 57 59  1  0  0  0  0 
 59 60  1  0  0  0  0 
 60 61  2  0  0  0  0 
 61 62  1  0  0  0  0 
 61 63  1  0  0  0  0 
 64  1  1  0  0  0  0 
 65  1  1  0  0  0  0 
  2 66  1  0  0  0  0 
 67  7  1  0  0  0  0 
 68  7  1  0  0  0  0 
 69  8  1  0  0  0  0 
 70  8  1  0  0  0  0 
 71  8  1  0  0  0  0 
 72 11  1  0  0  0  0 
 73 11  1  0  0  0  0 
 74 11  1  0  0  0  0 
 75 13  1  0  0  0  0 
 76 13  1  0  0  0  0 
 77 17  1  0  0  0  0 
 78 18  1  0  0  0  0 
 79 18  1  0  0  0  0 
 80 18  1  0  0  0  0 
 81 21  1  0  0  0  0 
 82 21  1  0  0  0  0 
 83 21  1  0  0  0  0 
 84 22  1  0  0  0  0 
 85 22  1  0  0  0  0 
 86 23  1  0  0  0  0 
 87 23  1  0  0  0  0 
 88 23  1  0  0  0  0 
 89 24  1  0  0  0  0 
 90 24  1  0  0  0  0 
 91 25  1  0  0  0  0 
 92 27  1  0  0  0  0 
 93 27  1  0  0  0  0 
 94 28  1  0  0  0  0 
 95 28  1  0  0  0  0 
 96 28  1  0  0  0  0 
 97 29  1  0  0  0  0 
 98 29  1  0  0  0  0 
 99 30  1  0  0  0  0 
100 32  1  0  0  0  0 
101 32  1  0  0  0  0 
102 33  1  0  0  0  0 
103 33  1  0  0  0  0 
104 33  1  0  0  0  0 
105 34  1  0  0  0  0 
106 34  1  0  0  0  0 
107 35  1  0  0  0  0 
108 37  1  0  0  0  0 
109 37  1  0  0  0  0 
110 38  1  0  0  0  0 
111 38  1  0  0  0  0 
112 38  1  0  0  0  0 
113 39  1  0  0  0  0 
114 39  1  0  0  0  0 
115 40  1  0  0  0  0 
116 42  1  0  0  0  0 
117 42  1  0  0  0  0 
118 43  1  0  0  0  0 
119 43  1  0  0  0  0 
120 43  1  0  0  0  0 
121 44  1  0  0  0  0 
122 44  1  0  0  0  0 
123 45  1  0  0  0  0 
124 47  1  0  0  0  0 
125 47  1  0  0  0  0 
126 48  1  0  0  0  0 
127 48  1  0  0  0  0 
128 48  1  0  0  0  0 
129 49  1  0  0  0  0 
130 49  1  0  0  0  0 
131 50  1  0  0  0  0 
132 52  1  0  0  0  0 
133 52  1  0  0  0  0 
134 53  1  0  0  0  0 
135 53  1  0  0  0  0 
136 53  1  0  0  0  0 
137 54  1  0  0  0  0 
138 54  1  0  0  0  0 
139 55  1  0  0  0  0 
140 57  1  0  0  0  0 
141 57  1  0  0  0  0 
142 58  1  0  0  0  0 
143 58  1  0  0  0  0 
144 58  1  0  0  0  0 
145 59  1  0  0  0  0 
146 59  1  0  0  0  0 
147 60  1  0  0  0  0 
148 62  1  0  0  0  0 
149 62  1  0  0  0  0 
150 62  1  0  0  0  0 
151 63  1  0  0  0  0 
152 63  1  0  0  0  0 
153 63  1  0  0  0  0 
M  END
> <cdk:Title>
ubidecarenone

> <Conformer>
1

> <SuperDrugID>
SD003652

$$$$
