thymalfasin
  CDK     0628171801

432431  0  0  0  0  0  0  0  0999 V2000
    0.8520   -0.2986   -0.2635 C   0  0  0  0  0  0  0  0  0  0  0  0
    0.1708   -1.4146    0.1204 N   0  0  0  0  0  0  0  0  0  0  0  0
    0.8697   -4.0645    1.2297 N   0  0  0  0  0  0  0  0  0  0  0  0
    2.1728   -5.7525   -0.7966 N   0  0  0  0  0  0  0  0  0  0  0  0
    2.9725   -8.7572   -2.5142 N   0  0  0  0  0  0  0  0  0  0  0  0
    5.3726  -10.0602   -4.5966 N   0  0  0  0  0  0  0  0  0  0  0  0
    5.7007  -12.3095   -7.1947 N   0  0  0  0  0  0  0  0  0  0  0  0
    6.0569  -13.4977  -10.0674 N   0  0  0  0  0  0  0  0  0  0  0  0
    3.2903  -14.2344  -10.8002 N   0  0  0  0  0  0  0  0  0  0  0  0
    0.1534  -13.7186  -10.1360 N   0  0  0  0  0  0  0  0  0  0  0  0
   -1.7042  -11.3861   -9.9049 N   0  0  0  0  0  0  0  0  0  0  0  0
   -3.0370   -9.6845  -12.4419 N   0  0  0  0  0  0  0  0  0  0  0  0
   -4.6270   -7.4871  -13.6957 N   0  0  0  0  0  0  0  0  0  0  0  0
   -4.8856   -5.4618  -15.8029 N   0  0  0  0  0  0  0  0  0  0  0  0
   -6.7922   -3.9972  -17.3887 N   0  0  0  0  0  0  0  0  0  0  0  0
   -7.6461   -1.6194  -18.9412 N   0  0  0  0  0  0  0  0  0  0  0  0
   -9.0241   -0.3907  -21.3330 N   0  0  0  0  0  0  0  0  0  0  0  0
  -10.1128    2.1031  -22.6963 N   0  0  0  0  0  0  0  0  0  0  0  0
  -11.0690    3.6518  -25.0064 N   0  0  0  0  0  0  0  0  0  0  0  0
  -12.8333    5.7549  -26.3014 N   0  0  0  0  0  0  0  0  0  0  0  0
  -13.4389    7.7083  -28.4038 N   0  0  0  0  0  0  0  0  0  0  0  0
  -15.2387    9.3840  -30.1023 N   0  0  0  0  0  0  0  0  0  0  0  0
  -15.9542   11.9037  -31.6961 N   0  0  0  0  0  0  0  0  0  0  0  0
  -17.8663   14.5767  -33.0633 N   0  0  0  0  0  0  0  0  0  0  0  0
  -17.8909   17.0455  -35.5296 N   0  0  0  0  0  0  0  0  0  0  0  0
  -19.8475   19.1844  -36.6665 N   0  0  0  0  0  0  0  0  0  0  0  0
  -20.7848   21.8837  -37.7273 N   0  0  0  0  0  0  0  0  0  0  0  0
  -23.1702   24.3257  -38.2340 N   0  0  0  0  0  0  0  0  0  0  0  0
  -23.0583   27.2198  -38.6348 N   0  0  0  0  0  0  0  0  0  0  0  0
  -21.8549   29.3968  -40.1439 O   0  0  0  0  0  0  0  0  0  0  0  0
    1.0808   -0.0260   -1.6904 C   0  0  0  0  0  0  0  0  0  0  0  0
    1.3105    0.5177    0.5706 O   0  0  0  0  0  0  0  0  0  0  0  0
    0.8601   -2.8534    1.8603 C   0  0  0  0  0  0  0  0  0  0  0  0
   -1.5837   -2.2785    1.5923 C   0  0  1  0  0  0  0  0  0  0  0  0
   -2.4790   -1.2095    1.2970 O   0  0  0  0  0  0  0  0  0  0  0  0
   -0.1126   -1.8048    1.4687 C   0  0  2  0  0  0  0  0  0  0  0  0
    1.6810   -2.5985    2.7739 O   0  0  0  0  0  0  0  0  0  0  0  0
    1.6551   -6.1319    0.4047 C   0  0  0  0  0  0  0  0  0  0  0  0
    1.3297   -5.7820    2.9248 C   0  0  2  0  0  0  0  0  0  0  0  0
    2.2647   -6.8151    3.4076 C   0  0  0  0  0  0  0  0  0  0  0  0
    1.8371   -8.0801    3.6181 O   0  0  0  0  0  0  0  0  0  0  0  0
    3.4579   -6.5318    3.6581 O   0  0  0  0  0  0  0  0  0  0  0  0
    1.7283   -5.1731    1.5428 C   0  0  2  0  0  0  0  0  0  0  0  0
    1.1170   -7.2588    0.5322 O   0  0  0  0  0  0  0  0  0  0  0  0
    3.2419   -7.4891   -2.0947 C   0  0  0  0  0  0  0  0  0  0  0  0
    2.1954   -5.5029   -3.1994 C   0  0  0  0  0  0  0  0  0  0  0  0
    2.1350   -6.5017   -2.0186 C   0  0  2  0  0  0  0  0  0  0  0  0
    4.4084   -7.1339   -1.7999 O   0  0  0  0  0  0  0  0  0  0  0  0
    4.1117  -10.1307   -4.0801 C   0  0  0  0  0  0  0  0  0  0  0  0
    3.3253  -11.0635   -1.8700 C   0  0  0  0  0  0  0  0  0  0  0  0
    3.8977   -9.8465   -2.6382 C   0  0  2  0  0  0  0  0  0  0  0  0
    3.1272  -10.4117   -4.8059 O   0  0  0  0  0  0  0  0  0  0  0  0
    6.2834  -11.5357   -6.2346 C   0  0  0  0  0  0  0  0  0  0  0  0
    7.0070   -8.9253   -7.8849 C   0  0  0  0  0  0  0  0  0  0  0  0
    5.7504  -10.1689   -5.9801 C   0  0  2  0  0  0  0  0  0  0  0  0
    8.0445   -8.9326   -5.5545 C   0  0  0  0  0  0  0  0  0  0  0  0
    6.7141   -8.9900   -6.3600 C   0  0  1  0  0  0  0  0  0  0  0  0
    7.2286  -11.9760   -5.5385 O   0  0  0  0  0  0  0  0  0  0  0  0
    6.5174  -13.9326   -8.8529 C   0  0  0  0  0  0  0  0  0  0  0  0
    4.6447  -14.4935   -7.2355 C   0  0  2  0  0  0  0  0  0  0  0  0
    4.8262  -15.9564   -7.3156 C   0  0  0  0  0  0  0  0  0  0  0  0
    4.2410  -16.6766   -8.2987 O   0  0  0  0  0  0  0  0  0  0  0  0
    5.5359  -16.5596   -6.4795 O   0  0  0  0  0  0  0  0  0  0  0  0
    5.9572  -13.6943   -7.4840 C   0  0  2  0  0  0  0  0  0  0  0  0
    7.5410  -14.6511   -8.9372 O   0  0  0  0  0  0  0  0  0  0  0  0
    3.9707  -13.1456  -11.2481 C   0  0  0  0  0  0  0  0  0  0  0  0
    4.6816  -10.2333  -11.0877 O   0  0  0  0  0  0  0  0  0  0  0  0
    5.0141  -12.5581  -10.3645 C   0  0  2  0  0  0  0  0  0  0  0  0
    6.5524  -11.3674  -12.1422 C   0  0  0  0  0  0  0  0  0  0  0  0
    5.6751  -11.2358  -10.8719 C   0  0  1  0  0  0  0  0  0  0  0  0
    3.6484  -12.6051  -12.3328 O   0  0  0  0  0  0  0  0  0  0  0  0
    1.1135  -14.6898  -10.1821 C   0  0  0  0  0  0  0  0  0  0  0  0
    2.2636  -16.1835  -11.8827 C   0  0  2  0  0  0  0  0  0  0  0  0
    1.0544  -16.6725  -12.4580 O   0  0  0  0  0  0  0  0  0  0  0  0
    2.0603  -14.7529  -11.3220 C   0  0  2  0  0  0  0  0  0  0  0  0
    1.2674  -15.4835   -9.2213 O   0  0  0  0  0  0  0  0  0  0  0  0
   -1.8519  -12.6292   -9.3657 C   0  0  0  0  0  0  0  0  0  0  0  0
    0.1769  -12.6758   -7.9136 C   0  0  1  0  0  0  0  0  0  0  0  0
   -0.6204  -12.3500   -6.7768 O   0  0  0  0  0  0  0  0  0  0  0  0
   -0.6587  -13.4267   -8.9890 C   0  0  2  0  0  0  0  0  0  0  0  0
   -2.9924  -13.0910   -9.1179 O   0  0  0  0  0  0  0  0  0  0  0  0
   -2.3670   -9.5738  -11.2572 C   0  0  0  0  0  0  0  0  0  0  0  0
   -3.0115   -9.6787   -8.7402 C   0  0  2  0  0  0  0  0  0  0  0  0
   -4.3351   -8.8661   -8.7395 C   0  0  2  0  0  0  0  0  0  0  0  0
   -4.5477   -8.1325   -7.4732 C   0  0  0  0  0  0  0  0  0  0  0  0
   -3.6077   -7.2719   -7.0157 O   0  0  0  0  0  0  0  0  0  0  0  0
   -5.5925   -8.2881   -6.8003 O   0  0  0  0  0  0  0  0  0  0  0  0
   -2.7603  -10.4426  -10.1189 C   0  0  2  0  0  0  0  0  0  0  0  0
   -1.3876   -8.7983  -11.1320 O   0  0  0  0  0  0  0  0  0  0  0  0
   -3.9940   -8.5499  -14.2721 C   0  0  0  0  0  0  0  0  0  0  0  0
   -1.7979   -9.9467  -14.5654 C   0  0  2  0  0  0  0  0  0  0  0  0
   -2.4057  -11.3540  -14.8571 C   0  0  0  0  0  0  0  0  0  0  0  0
   -2.7149   -9.0228  -13.6763 C   0  0  2  0  0  0  0  0  0  0  0  0
   -0.3678   -8.0579  -15.7061 C   0  0  0  0  0  0  0  0  0  0  0  0
   -1.3029   -9.2775  -15.8933 C   0  0  2  0  0  0  0  0  0  0  0  0
   -4.4903   -9.1097  -15.2777 O   0  0  0  0  0  0  0  0  0  0  0  0
   -5.5857   -5.5405  -14.6356 C   0  0  0  0  0  0  0  0  0  0  0  0
   -8.1290   -6.3393  -13.3074 O   0  0  0  0  0  0  0  0  0  0  0  0
   -5.8731   -6.8973  -14.0999 C   0  0  2  0  0  0  0  0  0  0  0  0
   -6.4538   -6.4497  -11.5643 C   0  0  0  0  0  0  0  0  0  0  0  0
   -6.9155   -6.9949  -12.9384 C   0  0  1  0  0  0  0  0  0  0  0  0
   -6.0015   -4.5048  -14.0644 O   0  0  0  0  0  0  0  0  0  0  0  0
   -5.4679   -4.1550  -17.6722 C   0  0  0  0  0  0  0  0  0  0  0  0
   -2.6450   -3.1755  -17.6576 O   0  0  0  0  0  0  0  0  0  0  0  0
   -4.5259   -4.2763  -16.5280 C   0  0  2  0  0  0  0  0  0  0  0  0
   -2.5076   -5.5893  -17.6048 C   0  0  0  0  0  0  0  0  0  0  0  0
   -3.0009   -4.3144  -16.8742 C   0  0  1  0  0  0  0  0  0  0  0  0
   -5.0706   -4.1959  -18.8609 O   0  0  0  0  0  0  0  0  0  0  0  0
   -8.4117   -2.5899  -18.3605 C   0  0  0  0  0  0  0  0  0  0  0  0
  -10.9023   -6.5795  -18.5431 C   0  0  1  0  0  0  0  0  0  0  0  0
   -9.9724   -5.4069  -18.9600 C   0  0  1  0  0  0  0  0  0  0  0  0
   -8.8828   -5.0938  -17.8967 C   0  0  2  0  0  0  0  0  0  0  0  0
   -7.8783   -3.9758  -18.3227 C   0  0  2  0  0  0  0  0  0  0  0  0
  -12.7437   -8.1073  -19.2344 N   0  0  2  0  0  0  0  0  0  0  0  0
  -11.9169   -6.9677  -19.6473 C   0  0  1  0  0  0  0  0  0  0  0  0
   -9.5349   -2.3162  -17.8741 O   0  0  0  0  0  0  0  0  0  0  0  0
   -7.9709    0.0353  -20.5810 C   0  0  0  0  0  0  0  0  0  0  0  0
   -7.0230    0.6440  -18.2769 C   0  0  1  0  0  0  0  0  0  0  0  0
   -7.3128    2.0899  -18.3758 C   0  0  0  0  0  0  0  0  0  0  0  0
   -6.4296    2.9306  -18.9622 O   0  0  0  0  0  0  0  0  0  0  0  0
   -8.3810    2.5619  -17.9251 O   0  0  0  0  0  0  0  0  0  0  0  0
   -7.9930   -0.2385  -19.1199 C   0  0  2  0  0  0  0  0  0  0  0  0
   -7.0118    0.6520  -21.1055 O   0  0  0  0  0  0  0  0  0  0  0  0
  -10.3671    0.7703  -22.8239 C   0  0  0  0  0  0  0  0  0  0  0  0
  -10.0366   -2.9418  -25.5052 C   0  0  0  0  0  0  0  0  0  0  0  0
   -9.4302   -1.5509  -23.4387 C   0  0  1  0  0  0  0  0  0  0  0  0
   -9.2249   -0.1722  -22.7363 C   0  0  2  0  0  0  0  0  0  0  0  0
   -8.5282   -0.9012  -25.7965 C   0  0  0  0  0  0  0  0  0  0  0  0
   -9.7000   -1.5168  -24.9804 C   0  0  1  0  0  0  0  0  0  0  0  0
  -11.5401    0.3398  -22.9335 O   0  0  0  0  0  0  0  0  0  0  0  0
  -10.8218    4.0921  -23.7377 C   0  0  0  0  0  0  0  0  0  0  0  0
  -11.9803    5.2101  -19.2977 C   0  0  2  0  0  0  0  0  0  0  0  0
  -12.0879    4.7465  -20.7771 C   0  0  1  0  0  0  0  0  0  0  0  0
  -10.9500    3.7636  -21.1701 C   0  0  1  0  0  0  0  0  0  0  0  0
  -11.0766    3.1615  -22.6062 C   0  0  2  0  0  0  0  0  0  0  0  0
  -13.0338    6.5050  -17.4574 N   0  0  1  0  0  0  0  0  0  0  0  0
  -13.1471    6.1332  -18.8716 C   0  0  1  0  0  0  0  0  0  0  0  0
  -10.3781    5.2476  -23.5348 O   0  0  0  0  0  0  0  0  0  0  0  0
  -12.1609    4.6835  -26.8088 C   0  0  0  0  0  0  0  0  0  0  0  0
   -9.9029    3.4822  -27.1294 C   0  0  2  0  0  0  0  0  0  0  0  0
   -9.4370    4.1814  -28.4375 C   0  0  2  0  0  0  0  0  0  0  0  0
   -8.4725    3.3629  -29.1998 C   0  0  0  0  0  0  0  0  0  0  0  0
   -8.7573    2.9451  -30.4550 O   0  0  0  0  0  0  0  0  0  0  0  0
   -7.3651    3.0525  -28.7045 O   0  0  0  0  0  0  0  0  0  0  0  0
  -10.8309    4.3595  -26.2333 C   0  0  2  0  0  0  0  0  0  0  0  0
  -12.6656    3.9663  -27.7058 O   0  0  0  0  0  0  0  0  0  0  0  0
  -14.0383    7.5593  -27.1877 C   0  0  0  0  0  0  0  0  0  0  0  0
  -17.3839    5.9780  -24.2885 C   0  0  2  0  0  0  0  0  0  0  0  0
  -16.5533    6.2449  -25.5740 C   0  0  1  0  0  0  0  0  0  0  0  0
  -15.0303    6.0324  -25.3487 C   0  0  1  0  0  0  0  0  0  0  0  0
  -14.1608    6.1854  -26.6361 C   0  0  2  0  0  0  0  0  0  0  0  0
  -19.6465    5.7185  -23.3028 N   0  0  1  0  0  0  0  0  0  0  0  0
  -18.9111    6.0698  -24.5225 C   0  0  1  0  0  0  0  0  0  0  0  0
  -14.4400    8.5555  -26.5401 O   0  0  0  0  0  0  0  0  0  0  0  0
  -13.9135    9.0972  -30.2598 C   0  0  0  0  0  0  0  0  0  0  0  0
   -9.3660   10.1844  -29.8167 C   0  0  2  0  0  0  0  0  0  0  0  0
  -10.9141   10.2452  -29.7165 C   0  0  1  0  0  0  0  0  0  0  0  0
  -11.5324    8.8887  -29.2810 C   0  0  1  0  0  0  0  0  0  0  0  0
  -13.0746    8.9402  -29.0428 C   0  0  2  0  0  0  0  0  0  0  0  0
   -7.2773   11.4823  -30.1415 N   0  0  1  0  0  0  0  0  0  0  0  0
   -8.7404   11.5650  -30.1241 C   0  0  1  0  0  0  0  0  0  0  0  0
  -13.4200    8.9573  -31.4045 O   0  0  0  0  0  0  0  0  0  0  0  0
  -16.7057   10.9316  -31.1022 C   0  0  0  0  0  0  0  0  0  0  0  0
  -17.3167    8.4349  -30.9220 C   0  0  2  0  0  0  0  0  0  0  0  0
  -18.3725    8.3591  -32.0619 C   0  0  2  0  0  0  0  0  0  0  0  0
  -19.3401    7.2596  -31.8714 C   0  0  0  0  0  0  0  0  0  0  0  0
  -20.6631    7.5174  -31.7465 O   0  0  0  0  0  0  0  0  0  0  0  0
  -18.9572    6.0677  -31.8419 O   0  0  0  0  0  0  0  0  0  0  0  0
  -16.2215    9.5264  -31.1402 C   0  0  2  0  0  0  0  0  0  0  0  0
  -17.7797   11.2191  -30.5217 O   0  0  0  0  0  0  0  0  0  0  0  0
  -16.8327   13.6880  -33.0365 C   0  0  0  0  0  0  0  0  0  0  0  0
  -13.7722   13.9407  -32.3789 C   0  0  0  0  0  0  0  0  0  0  0  0
  -16.2355   13.3162  -31.7269 C   0  0  2  0  0  0  0  0  0  0  0  0
  -15.2490   15.6603  -31.1927 C   0  0  0  0  0  0  0  0  0  0  0  0
  -14.9490   14.1435  -31.3806 C   0  0  2  0  0  0  0  0  0  0  0  0
  -16.3672   13.2003  -34.0945 O   0  0  0  0  0  0  0  0  0  0  0  0
  -18.3304   16.5338  -34.3416 C   0  0  0  0  0  0  0  0  0  0  0  0
  -20.8308   15.1406  -32.8819 C   0  0  0  0  0  0  0  0  0  0  0  0
  -18.5609   15.0681  -34.2203 C   0  0  2  0  0  0  0  0  0  0  0  0
  -20.8429   15.0749  -35.4403 C   0  0  0  0  0  0  0  0  0  0  0  0
  -20.0737   14.6599  -34.1547 C   0  0  2  0  0  0  0  0  0  0  0  0
  -18.5529   17.2816  -33.3592 O   0  0  0  0  0  0  0  0  0  0  0  0
  -18.5851   18.7623  -36.9623 C   0  0  0  0  0  0  0  0  0  0  0  0
  -16.1498   18.6296  -36.1647 C   0  0  1  0  0  0  0  0  0  0  0  0
  -15.7589   20.1145  -36.4060 C   0  0  1  0  0  0  0  0  0  0  0  0
  -14.3087   20.2874  -36.6199 C   0  0  0  0  0  0  0  0  0  0  0  0
  -13.8350   20.7706  -37.7922 O   0  0  0  0  0  0  0  0  0  0  0  0
  -13.4902   20.0014  -35.7165 O   0  0  0  0  0  0  0  0  0  0  0  0
  -17.6627   18.4268  -35.8464 C   0  0  2  0  0  0  0  0  0  0  0  0
  -18.2230   18.5975  -38.1523 O   0  0  0  0  0  0  0  0  0  0  0  0
  -21.4546   20.7817  -37.2860 C   0  0  0  0  0  0  0  0  0  0  0  0
  -21.9260   18.2594  -37.4968 C   0  0  1  0  0  0  0  0  0  0  0  0
  -23.1048   18.3422  -38.5056 C   0  0  1  0  0  0  0  0  0  0  0  0
  -23.9771   17.1520  -38.4552 C   0  0  0  0  0  0  0  0  0  0  0  0
  -25.2741   17.2613  -38.0822 O   0  0  0  0  0  0  0  0  0  0  0  0
  -23.5365   16.0232  -38.7708 O   0  0  0  0  0  0  0  0  0  0  0  0
  -20.9089   19.4381  -37.5996 C   0  0  2  0  0  0  0  0  0  0  0  0
  -22.5002   20.9017  -36.6027 O   0  0  0  0  0  0  0  0  0  0  0  0
  -21.9280   23.8399  -38.5178 C   0  0  0  0  0  0  0  0  0  0  0  0
  -19.8218   24.0479  -37.1701 C   0  0  0  0  0  0  0  0  0  0  0  0
  -21.1207   23.2442  -37.4247 C   0  0  2  0  0  0  0  0  0  0  0  0
  -21.4439   23.9132  -39.6730 O   0  0  0  0  0  0  0  0  0  0  0  0
  -24.1484   26.4083  -38.5518 C   0  0  0  0  0  0  0  0  0  0  0  0
  -25.3861   24.2689  -39.2718 C   0  0  2  0  0  0  0  0  0  0  0  0
  -26.3228   24.8898  -40.3476 C   0  0  2  0  0  0  0  0  0  0  0  0
  -27.5716   24.1298  -40.5461 C   0  0  0  0  0  0  0  0  0  0  0  0
  -28.7743   24.7163  -40.3392 O   0  0  0  0  0  0  0  0  0  0  0  0
  -27.5420   22.9392  -40.9317 O   0  0  0  0  0  0  0  0  0  0  0  0
  -24.0396   25.0420  -39.1207 C   0  0  2  0  0  0  0  0  0  0  0  0
  -25.2007   26.7987  -37.9914 O   0  0  0  0  0  0  0  0  0  0  0  0
  -22.8485   29.4852  -39.2290 C   0  0  0  0  0  0  0  0  0  0  0  0
  -21.6809   28.5785  -37.1678 C   0  0  2  0  0  0  0  0  0  0  0  0
  -21.5417   29.8386  -36.4029 C   0  0  0  0  0  0  0  0  0  0  0  0
  -21.5744   29.8446  -35.0575 N   0  0  0  0  0  0  0  0  0  0  0  0
  -21.3753   30.9294  -36.9946 O   0  0  0  0  0  0  0  0  0  0  0  0
  -22.9326   28.5392  -38.0932 C   0  0  2  0  0  0  0  0  0  0  0  0
  -23.6911   30.4000  -39.3711 O   0  0  0  0  0  0  0  0  0  0  0  0
   -0.1432   -2.0070   -0.5808 H   0  0  0  0  0  0  0  0  0  0  0  0
    0.2250   -4.1899    0.5158 H   0  0  0  0  0  0  0  0  0  0  0  0
    2.6099   -4.8866   -0.8288 H   0  0  0  0  0  0  0  0  0  0  0  0
    2.0539   -8.9484   -2.7595 H   0  0  0  0  0  0  0  0  0  0  0  0
    6.0867   -9.8981   -3.9608 H   0  0  0  0  0  0  0  0  0  0  0  0
    4.9923  -11.8873   -7.6977 H   0  0  0  0  0  0  0  0  0  0  0  0
    6.5335  -13.8419  -10.8408 H   0  0  0  0  0  0  0  0  0  0  0  0
    3.6344  -14.6618  -10.0021 H   0  0  0  0  0  0  0  0  0  0  0  0
    0.0570  -13.1463  -10.9138 H   0  0  0  0  0  0  0  0  0  0  0  0
   -0.7999  -11.0958  -10.1054 H   0  0  0  0  0  0  0  0  0  0  0  0
   -3.7875  -10.3015  -12.4620 H   0  0  0  0  0  0  0  0  0  0  0  0
   -4.1855   -7.0806  -12.9333 H   0  0  0  0  0  0  0  0  0  0  0  0
   -4.6177   -6.3061  -16.1977 H   0  0  0  0  0  0  0  0  0  0  0  0
   -7.0296   -3.9180  -16.4514 H   0  0  0  0  0  0  0  0  0  0  0  0
   -6.7771   -1.8911  -19.2783 H   0  0  0  0  0  0  0  0  0  0  0  0
   -9.7240   -0.8741  -20.8656 H   0  0  0  0  0  0  0  0  0  0  0  0
   -9.1807    2.3641  -22.6283 H   0  0  0  0  0  0  0  0  0  0  0  0
  -11.4360    2.7573  -25.0909 H   0  0  0  0  0  0  0  0  0  0  0  0
  -12.3695    6.2764  -25.6270 H   0  0  0  0  0  0  0  0  0  0  0  0
  -13.1986    6.8927  -28.8716 H   0  0  0  0  0  0  0  0  0  0  0  0
  -15.5552    9.4932  -29.1910 H   0  0  0  0  0  0  0  0  0  0  0  0
  -15.1464   11.6096  -32.1454 H   0  0  0  0  0  0  0  0  0  0  0  0
  -18.1644   14.9194  -32.2055 H   0  0  0  0  0  0  0  0  0  0  0  0
  -17.7270   16.4083  -36.2435 H   0  0  0  0  0  0  0  0  0  0  0  0
  -20.0595   19.3016  -35.7259 H   0  0  0  0  0  0  0  0  0  0  0  0
  -20.0049   21.7342  -38.2864 H   0  0  0  0  0  0  0  0  0  0  0  0
  -23.4890   24.2028  -37.3259 H   0  0  0  0  0  0  0  0  0  0  0  0
  -22.2824   26.8623  -39.0955 H   0  0  0  0  0  0  0  0  0  0  0  0
  -21.1912   28.6790  -40.0865 H   0  0  0  0  0  0  0  0  0  0  0  0
    2.1526    0.0511   -1.8825 H   0  0  0  0  0  0  0  0  0  0  0  0
    0.6699   -0.8191   -2.3195 H   0  0  0  0  0  0  0  0  0  0  0  0
    0.6020    0.9169   -1.9597 H   0  0  0  0  0  0  0  0  0  0  0  0
   -1.7844   -2.6258    2.6085 H   0  0  0  0  0  0  0  0  0  0  0  0
   -1.7847   -3.0982    0.9001 H   0  0  0  0  0  0  0  0  0  0  0  0
   -3.3764   -1.5970    1.3745 H   0  0  0  0  0  0  0  0  0  0  0  0
   -0.0045   -0.9507    2.1460 H   0  0  0  0  0  0  0  0  0  0  0  0
    1.2982   -5.0002    3.6861 H   0  0  0  0  0  0  0  0  0  0  0  0
    0.3234   -6.2037    2.8535 H   0  0  0  0  0  0  0  0  0  0  0  0
    0.8999   -8.3104    3.4462 H   0  0  0  0  0  0  0  0  0  0  0  0
    2.7609   -4.8087    1.6029 H   0  0  0  0  0  0  0  0  0  0  0  0
    1.3614   -4.7994   -3.1339 H   0  0  0  0  0  0  0  0  0  0  0  0
    3.1294   -4.9361   -3.1832 H   0  0  0  0  0  0  0  0  0  0  0  0
    2.1192   -6.0332   -4.1513 H   0  0  0  0  0  0  0  0  0  0  0  0
    1.1722   -7.0196   -2.0967 H   0  0  0  0  0  0  0  0  0  0  0  0
    4.0039  -11.9166   -1.9382 H   0  0  0  0  0  0  0  0  0  0  0  0
    2.3517  -11.3568   -2.2695 H   0  0  0  0  0  0  0  0  0  0  0  0
    3.2016  -10.8079   -0.8149 H   0  0  0  0  0  0  0  0  0  0  0  0
    4.8588   -9.6006   -2.1736 H   0  0  0  0  0  0  0  0  0  0  0  0
    6.0745   -8.9324   -8.4529 H   0  0  0  0  0  0  0  0  0  0  0  0
    7.5398   -8.0031   -8.1296 H   0  0  0  0  0  0  0  0  0  0  0  0
    7.6202   -9.7740   -8.1970 H   0  0  0  0  0  0  0  0  0  0  0  0
    4.8545  -10.0316   -6.5979 H   0  0  0  0  0  0  0  0  0  0  0  0
    8.5703   -7.9995   -5.7698 H   0  0  0  0  0  0  0  0  0  0  0  0
    7.8552   -8.9646   -4.4808 H   0  0  0  0  0  0  0  0  0  0  0  0
    8.6988   -9.7639   -5.8222 H   0  0  0  0  0  0  0  0  0  0  0  0
    6.1746   -8.0674   -6.1201 H   0  0  0  0  0  0  0  0  0  0  0  0
    4.2673  -14.2677   -6.2349 H   0  0  0  0  0  0  0  0  0  0  0  0
    3.8772  -14.1842   -7.9464 H   0  0  0  0  0  0  0  0  0  0  0  0
    3.7424  -16.2218   -9.0088 H   0  0  0  0  0  0  0  0  0  0  0  0
    6.6853  -14.0752   -6.7592 H   0  0  0  0  0  0  0  0  0  0  0  0
    4.2289  -10.1368  -10.2233 H   0  0  0  0  0  0  0  0  0  0  0  0
    4.4727  -12.2954   -9.4590 H   0  0  0  0  0  0  0  0  0  0  0  0
    6.9508  -10.3878  -12.4127 H   0  0  0  0  0  0  0  0  0  0  0  0
    7.3939  -12.0375  -11.9589 H   0  0  0  0  0  0  0  0  0  0  0  0
    5.9757  -11.7489  -12.9843 H   0  0  0  0  0  0  0  0  0  0  0  0
    6.3255  -10.8639  -10.0776 H   0  0  0  0  0  0  0  0  0  0  0  0
    3.0316  -16.1714  -12.6597 H   0  0  0  0  0  0  0  0  0  0  0  0
    2.5868  -16.8684  -11.0942 H   0  0  0  0  0  0  0  0  0  0  0  0
    1.2722  -17.5713  -12.7842 H   0  0  0  0  0  0  0  0  0  0  0  0
    1.6798  -14.1317  -12.1403 H   0  0  0  0  0  0  0  0  0  0  0  0
    0.5907  -11.7525   -8.3285 H   0  0  0  0  0  0  0  0  0  0  0  0
    1.0084  -13.2989   -7.5780 H   0  0  0  0  0  0  0  0  0  0  0  0
   -0.0219  -11.8503   -6.1835 H   0  0  0  0  0  0  0  0  0  0  0  0
   -1.0033  -14.3706   -8.5532 H   0  0  0  0  0  0  0  0  0  0  0  0
   -3.0360  -10.3193   -7.8140 H   0  0  0  0  0  0  0  0  0  0  0  0
   -2.1798   -8.9843   -8.5865 H   0  0  0  0  0  0  0  0  0  0  0  0
   -5.1746   -9.5476   -8.9106 H   0  0  0  0  0  0  0  0  0  0  0  0
   -4.3137   -8.1413   -9.5533 H   0  0  0  0  0  0  0  0  0  0  0  0
   -3.7369   -6.8067   -6.1629 H   0  0  0  0  0  0  0  0  0  0  0  0
   -3.6770  -10.9803  -10.3847 H   0  0  0  0  0  0  0  0  0  0  0  0
   -0.8979  -10.1434  -13.9722 H   0  0  0  0  0  0  0  0  0  0  0  0
   -2.7804  -11.8193  -13.9446 H   0  0  0  0  0  0  0  0  0  0  0  0
   -3.2224  -11.2937  -15.5761 H   0  0  0  0  0  0  0  0  0  0  0  0
   -1.6416  -12.0157  -15.2718 H   0  0  0  0  0  0  0  0  0  0  0  0
   -2.1337   -8.1236  -13.4543 H   0  0  0  0  0  0  0  0  0  0  0  0
    0.4711   -8.3157  -15.0573 H   0  0  0  0  0  0  0  0  0  0  0  0
   -0.9066   -7.2143  -15.2732 H   0  0  0  0  0  0  0  0  0  0  0  0
    0.0289   -7.7474  -16.6750 H   0  0  0  0  0  0  0  0  0  0  0  0
   -2.1570   -8.9740  -16.5024 H   0  0  0  0  0  0  0  0  0  0  0  0
   -0.7414  -10.0149  -16.4742 H   0  0  0  0  0  0  0  0  0  0  0  0
   -8.3966   -6.7557  -14.1534 H   0  0  0  0  0  0  0  0  0  0  0  0
   -6.3149   -7.4580  -14.9312 H   0  0  0  0  0  0  0  0  0  0  0  0
   -6.2223   -5.3861  -11.6203 H   0  0  0  0  0  0  0  0  0  0  0  0
   -5.5691   -6.9846  -11.2226 H   0  0  0  0  0  0  0  0  0  0  0  0
   -7.2447   -6.5948  -10.8253 H   0  0  0  0  0  0  0  0  0  0  0  0
   -7.1587   -8.0531  -12.7975 H   0  0  0  0  0  0  0  0  0  0  0  0
   -2.9282   -2.4030  -17.1257 H   0  0  0  0  0  0  0  0  0  0  0  0
   -4.6739   -3.3853  -15.9085 H   0  0  0  0  0  0  0  0  0  0  0  0
   -1.4307   -5.5258  -17.7731 H   0  0  0  0  0  0  0  0  0  0  0  0
   -2.7041   -6.4766  -17.0034 H   0  0  0  0  0  0  0  0  0  0  0  0
   -3.0007   -5.7055  -18.5696 H   0  0  0  0  0  0  0  0  0  0  0  0
   -2.4389   -4.2408  -15.9381 H   0  0  0  0  0  0  0  0  0  0  0  0
  -10.2947   -7.4575  -18.3079 H   0  0  0  0  0  0  0  0  0  0  0  0
  -11.4521   -6.2961  -17.6419 H   0  0  0  0  0  0  0  0  0  0  0  0
   -9.4795   -5.6649  -19.9008 H   0  0  0  0  0  0  0  0  0  0  0  0
  -10.5820   -4.5170  -19.1299 H   0  0  0  0  0  0  0  0  0  0  0  0
   -8.3167   -6.0141  -17.7234 H   0  0  0  0  0  0  0  0  0  0  0  0
   -9.3591   -4.8255  -16.9492 H   0  0  0  0  0  0  0  0  0  0  0  0
   -7.5338   -4.2193  -19.3328 H   0  0  0  0  0  0  0  0  0  0  0  0
  -12.1143   -8.9021  -19.1037 H   0  0  0  0  0  0  0  0  0  0  0  0
  -13.3482   -8.3418  -20.0261 H   0  0  0  0  0  0  0  0  0  0  0  0
  -12.5768   -6.1262  -19.8658 H   0  0  0  0  0  0  0  0  0  0  0  0
  -11.3917   -7.2482  -20.5621 H   0  0  0  0  0  0  0  0  0  0  0  0
   -5.9937    0.4584  -18.5958 H   0  0  0  0  0  0  0  0  0  0  0  0
   -7.0926    0.3610  -17.2233 H   0  0  0  0  0  0  0  0  0  0  0  0
   -5.5887    2.5813  -19.3254 H   0  0  0  0  0  0  0  0  0  0  0  0
   -9.0076   -0.0375  -18.7588 H   0  0  0  0  0  0  0  0  0  0  0  0
  -10.2831   -2.9103  -26.5685 H   0  0  0  0  0  0  0  0  0  0  0  0
  -10.8997   -3.3493  -24.9746 H   0  0  0  0  0  0  0  0  0  0  0  0
   -9.1903   -3.6176  -25.3639 H   0  0  0  0  0  0  0  0  0  0  0  0
   -8.5406   -2.1617  -23.2574 H   0  0  0  0  0  0  0  0  0  0  0  0
  -10.2662   -2.0594  -22.9485 H   0  0  0  0  0  0  0  0  0  0  0  0
   -8.3465    0.3010  -23.1838 H   0  0  0  0  0  0  0  0  0  0  0  0
   -8.7380   -0.9540  -26.8668 H   0  0  0  0  0  0  0  0  0  0  0  0
   -7.5967   -1.4354  -25.5981 H   0  0  0  0  0  0  0  0  0  0  0  0
   -8.3919    0.1506  -25.5429 H   0  0  0  0  0  0  0  0  0  0  0  0
  -10.5832   -0.8983  -25.1619 H   0  0  0  0  0  0  0  0  0  0  0  0
  -11.0353    5.7430  -19.1569 H   0  0  0  0  0  0  0  0  0  0  0  0
  -11.9754    4.3320  -18.6450 H   0  0  0  0  0  0  0  0  0  0  0  0
  -13.0512    4.2499  -20.9235 H   0  0  0  0  0  0  0  0  0  0  0  0
  -12.0556    5.6231  -21.4288 H   0  0  0  0  0  0  0  0  0  0  0  0
   -9.9836    4.2654  -21.0625 H   0  0  0  0  0  0  0  0  0  0  0  0
  -10.9674    2.9381  -20.4505 H   0  0  0  0  0  0  0  0  0  0  0  0
  -12.0976    2.7814  -22.7141 H   0  0  0  0  0  0  0  0  0  0  0  0
  -13.8566    7.0675  -17.2300 H   0  0  0  0  0  0  0  0  0  0  0  0
  -13.1090    5.6424  -16.9139 H   0  0  0  0  0  0  0  0  0  0  0  0
  -13.1415    7.0459  -19.4705 H   0  0  0  0  0  0  0  0  0  0  0  0
  -14.1016    5.6232  -19.0146 H   0  0  0  0  0  0  0  0  0  0  0  0
   -9.0151    3.2255  -26.5428 H   0  0  0  0  0  0  0  0  0  0  0  0
  -10.4091    2.5449  -27.3803 H   0  0  0  0  0  0  0  0  0  0  0  0
   -8.9617    5.1355  -28.1963 H   0  0  0  0  0  0  0  0  0  0  0  0
  -10.3056    4.3911  -29.0668 H   0  0  0  0  0  0  0  0  0  0  0  0
   -8.1052    2.4113  -30.9559 H   0  0  0  0  0  0  0  0  0  0  0  0
  -10.3002    5.3003  -26.0514 H   0  0  0  0  0  0  0  0  0  0  0  0
  -17.0990    6.7042  -23.5219 H   0  0  0  0  0  0  0  0  0  0  0  0
  -17.1514    4.9779  -23.9119 H   0  0  0  0  0  0  0  0  0  0  0  0
  -16.8905    5.5670  -26.3624 H   0  0  0  0  0  0  0  0  0  0  0  0
  -16.7342    7.2692  -25.9078 H   0  0  0  0  0  0  0  0  0  0  0  0
  -14.6758    6.7233  -24.5777 H   0  0  0  0  0  0  0  0  0  0  0  0
  -14.8905    5.0169  -24.9637 H   0  0  0  0  0  0  0  0  0  0  0  0
  -14.6031    5.5511  -27.4110 H   0  0  0  0  0  0  0  0  0  0  0  0
  -20.6425    5.7680  -23.5276 H   0  0  0  0  0  0  0  0  0  0  0  0
  -19.4403    4.7373  -23.1019 H   0  0  0  0  0  0  0  0  0  0  0  0
  -19.1872    7.0850  -24.8136 H   0  0  0  0  0  0  0  0  0  0  0  0
  -19.2151    5.3812  -25.3132 H   0  0  0  0  0  0  0  0  0  0  0  0
   -9.0840    9.4799  -30.6044 H   0  0  0  0  0  0  0  0  0  0  0  0
   -8.9560    9.8187  -28.8707 H   0  0  0  0  0  0  0  0  0  0  0  0
  -11.1924   11.0083  -28.9846 H   0  0  0  0  0  0  0  0  0  0  0  0
  -11.3226   10.5403  -30.6863 H   0  0  0  0  0  0  0  0  0  0  0  0
  -11.2954    8.1228  -30.0258 H   0  0  0  0  0  0  0  0  0  0  0  0
  -11.0501    8.5897  -28.3449 H   0  0  0  0  0  0  0  0  0  0  0  0
  -13.2737    9.7968  -28.3906 H   0  0  0  0  0  0  0  0  0  0  0  0
   -6.9283   12.4285  -30.3073 H   0  0  0  0  0  0  0  0  0  0  0  0
   -6.9841   11.2232  -29.1970 H   0  0  0  0  0  0  0  0  0  0  0  0
   -9.0813   11.9234  -31.0972 H   0  0  0  0  0  0  0  0  0  0  0  0
   -9.0309   12.2885  -29.3599 H   0  0  0  0  0  0  0  0  0  0  0  0
  -16.8155    7.4638  -30.8535 H   0  0  0  0  0  0  0  0  0  0  0  0
  -17.8242    8.6077  -29.9673 H   0  0  0  0  0  0  0  0  0  0  0  0
  -17.8675    8.2066  -33.0189 H   0  0  0  0  0  0  0  0  0  0  0  0
  -18.9157    9.3059  -32.1175 H   0  0  0  0  0  0  0  0  0  0  0  0
  -21.3012    6.7813  -31.6374 H   0  0  0  0  0  0  0  0  0  0  0  0
  -15.7835    9.3469  -32.1283 H   0  0  0  0  0  0  0  0  0  0  0  0
  -12.8783   14.4501  -32.0146 H   0  0  0  0  0  0  0  0  0  0  0  0
  -14.0197   14.3435  -33.3627 H   0  0  0  0  0  0  0  0  0  0  0  0
  -13.5320   12.8819  -32.4850 H   0  0  0  0  0  0  0  0  0  0  0  0
  -16.9673   13.5449  -30.9432 H   0  0  0  0  0  0  0  0  0  0  0  0
  -14.3608   16.1799  -30.8269 H   0  0  0  0  0  0  0  0  0  0  0  0
  -15.5523   16.1204  -32.1355 H   0  0  0  0  0  0  0  0  0  0  0  0
  -16.0474   15.8057  -30.4620 H   0  0  0  0  0  0  0  0  0  0  0  0
  -14.5967   13.7818  -30.4086 H   0  0  0  0  0  0  0  0  0  0  0  0
  -20.9292   16.2269  -32.8665 H   0  0  0  0  0  0  0  0  0  0  0  0
  -20.3105   14.8228  -31.9772 H   0  0  0  0  0  0  0  0  0  0  0  0
  -21.8320   14.7062  -32.8564 H   0  0  0  0  0  0  0  0  0  0  0  0
  -18.1544   14.5897  -35.1191 H   0  0  0  0  0  0  0  0  0  0  0  0
  -20.8986   16.1610  -35.5162 H   0  0  0  0  0  0  0  0  0  0  0  0
  -21.8586   14.6759  -35.4254 H   0  0  0  0  0  0  0  0  0  0  0  0
  -20.3412   14.6876  -36.3293 H   0  0  0  0  0  0  0  0  0  0  0  0
  -20.0975   13.5655  -34.1250 H   0  0  0  0  0  0  0  0  0  0  0  0
  -15.8725   18.0354  -37.0415 H   0  0  0  0  0  0  0  0  0  0  0  0
  -15.5697   18.2495  -35.3176 H   0  0  0  0  0  0  0  0  0  0  0  0
  -16.2967   20.4938  -37.2791 H   0  0  0  0  0  0  0  0  0  0  0  0
  -16.0543   20.7168  -35.5431 H   0  0  0  0  0  0  0  0  0  0  0  0
  -12.8702   20.8822  -37.9244 H   0  0  0  0  0  0  0  0  0  0  0  0
  -17.9036   19.0696  -34.9924 H   0  0  0  0  0  0  0  0  0  0  0  0
  -22.3245   18.2037  -36.4782 H   0  0  0  0  0  0  0  0  0  0  0  0
  -21.3783   17.3314  -37.6893 H   0  0  0  0  0  0  0  0  0  0  0  0
  -23.7045   19.2301  -38.2923 H   0  0  0  0  0  0  0  0  0  0  0  0
  -22.7118   18.4397  -39.5202 H   0  0  0  0  0  0  0  0  0  0  0  0
  -25.8518   16.4696  -38.0639 H   0  0  0  0  0  0  0  0  0  0  0  0
  -20.5376   19.4572  -38.6301 H   0  0  0  0  0  0  0  0  0  0  0  0
  -19.2886   23.6307  -36.3128 H   0  0  0  0  0  0  0  0  0  0  0  0
  -19.1618   24.0129  -38.0401 H   0  0  0  0  0  0  0  0  0  0  0  0
  -20.0597   25.0913  -36.9495 H   0  0  0  0  0  0  0  0  0  0  0  0
  -21.6907   23.2892  -36.4899 H   0  0  0  0  0  0  0  0  0  0  0  0
  -25.1587   23.2393  -39.5647 H   0  0  0  0  0  0  0  0  0  0  0  0
  -25.9052   24.2303  -38.3088 H   0  0  0  0  0  0  0  0  0  0  0  0
  -25.7959   24.9310  -41.3037 H   0  0  0  0  0  0  0  0  0  0  0  0
  -26.5771   25.9137  -40.0637 H   0  0  0  0  0  0  0  0  0  0  0  0
  -29.6029   24.2133  -40.4837 H   0  0  0  0  0  0  0  0  0  0  0  0
  -23.6023   25.1287  -40.1216 H   0  0  0  0  0  0  0  0  0  0  0  0
  -21.7507   27.7436  -36.4627 H   0  0  0  0  0  0  0  0  0  0  0  0
  -20.7712   28.4249  -37.7554 H   0  0  0  0  0  0  0  0  0  0  0  0
  -21.6979   29.0145  -34.5695 H   0  0  0  0  0  0  0  0  0  0  0  0
  -21.4710   30.6791  -34.5732 H   0  0  0  0  0  0  0  0  0  0  0  0
  -23.8062   28.7933  -37.4822 H   0  0  0  0  0  0  0  0  0  0  0  0
  1  2  1  0  0  0  0 
 33  3  1  0  0  0  0 
 38  4  1  0  0  0  0 
 45  5  1  0  0  0  0 
 49  6  1  0  0  0  0 
 53  7  1  0  0  0  0 
 59  8  1  0  0  0  0 
 66  9  1  0  0  0  0 
 72 10  1  0  0  0  0 
 77 11  1  0  0  0  0 
 82 12  1  0  0  0  0 
 90 13  1  0  0  0  0 
 97 14  1  0  0  0  0 
103 15  1  0  0  0  0 
109 16  1  0  0  0  0 
117 17  1  0  0  0  0 
124 18  1  0  0  0  0 
131 19  1  0  0  0  0 
139 20  1  0  0  0  0 
147 21  1  0  0  0  0 
155 22  1  0  0  0  0 
163 23  1  0  0  0  0 
171 24  1  0  0  0  0 
177 25  1  0  0  0  0 
183 26  1  0  0  0  0 
191 27  1  0  0  0  0 
199 28  1  0  0  0  0 
203 29  1  0  0  0  0 
211 30  1  0  0  0  0 
  1 31  1  0  0  0  0 
  1 32  2  0  0  0  0 
 36  2  1  0  0  0  0 
 36 34  1  0  0  0  0 
 34 35  1  0  0  0  0 
 36 33  1  0  0  0  0 
 33 37  2  0  0  0  0 
 43  3  1  0  0  0  0 
 43 39  1  0  0  0  0 
 39 40  1  0  0  0  0 
 40 41  1  0  0  0  0 
 40 42  2  0  0  0  0 
 43 38  1  0  0  0  0 
 38 44  2  0  0  0  0 
 46 47  1  0  0  0  0 
 47  4  1  0  0  0  0 
 47 45  1  0  0  0  0 
 45 48  2  0  0  0  0 
 50 51  1  0  0  0  0 
 51  5  1  0  0  0  0 
 51 49  1  0  0  0  0 
 49 52  2  0  0  0  0 
 56 57  1  0  0  0  0 
 57 54  1  0  0  0  0 
 57 55  1  0  0  0  0 
 55  6  1  0  0  0  0 
 55 53  1  0  0  0  0 
 53 58  2  0  0  0  0 
 64  7  1  0  0  0  0 
 64 60  1  0  0  0  0 
 60 61  1  0  0  0  0 
 61 62  1  0  0  0  0 
 61 63  2  0  0  0  0 
 64 59  1  0  0  0  0 
 59 65  2  0  0  0  0 
 69 70  1  0  0  0  0 
 70 67  1  0  0  0  0 
 70 68  1  0  0  0  0 
 68  8  1  0  0  0  0 
 68 66  1  0  0  0  0 
 66 71  2  0  0  0  0 
 75  9  1  0  0  0  0 
 75 73  1  0  0  0  0 
 73 74  1  0  0  0  0 
 75 72  1  0  0  0  0 
 72 76  2  0  0  0  0 
 80 10  1  0  0  0  0 
 80 78  1  0  0  0  0 
 78 79  1  0  0  0  0 
 80 77  1  0  0  0  0 
 77 81  2  0  0  0  0 
 88 11  1  0  0  0  0 
 88 83  1  0  0  0  0 
 83 84  1  0  0  0  0 
 84 85  1  0  0  0  0 
 85 86  1  0  0  0  0 
 85 87  2  0  0  0  0 
 88 82  1  0  0  0  0 
 82 89  2  0  0  0  0 
 94 95  1  0  0  0  0 
 95 91  1  0  0  0  0 
 91 92  1  0  0  0  0 
 91 93  1  0  0  0  0 
 93 12  1  0  0  0  0 
 93 90  1  0  0  0  0 
 90 96  2  0  0  0  0 
100101  1  0  0  0  0 
101 98  1  0  0  0  0 
101 99  1  0  0  0  0 
 99 13  1  0  0  0  0 
 99 97  1  0  0  0  0 
 97102  2  0  0  0  0 
106107  1  0  0  0  0 
107104  1  0  0  0  0 
107105  1  0  0  0  0 
105 14  1  0  0  0  0 
105103  1  0  0  0  0 
103108  2  0  0  0  0 
114115  1  0  0  0  0 
115110  1  0  0  0  0 
110111  1  0  0  0  0 
111112  1  0  0  0  0 
112113  1  0  0  0  0 
113 15  1  0  0  0  0 
113109  1  0  0  0  0 
109116  2  0  0  0  0 
122 16  1  0  0  0  0 
122118  1  0  0  0  0 
118119  1  0  0  0  0 
119120  1  0  0  0  0 
119121  2  0  0  0  0 
122117  1  0  0  0  0 
117123  2  0  0  0  0 
128129  1  0  0  0  0 
129125  1  0  0  0  0 
129126  1  0  0  0  0 
126127  1  0  0  0  0 
127 17  1  0  0  0  0 
127124  1  0  0  0  0 
124130  2  0  0  0  0 
136137  1  0  0  0  0 
137132  1  0  0  0  0 
132133  1  0  0  0  0 
133134  1  0  0  0  0 
134135  1  0  0  0  0 
135 18  1  0  0  0  0 
135131  1  0  0  0  0 
131138  2  0  0  0  0 
145 19  1  0  0  0  0 
145140  1  0  0  0  0 
140141  1  0  0  0  0 
141142  1  0  0  0  0 
142143  1  0  0  0  0 
142144  2  0  0  0  0 
145139  1  0  0  0  0 
139146  2  0  0  0  0 
152153  1  0  0  0  0 
153148  1  0  0  0  0 
148149  1  0  0  0  0 
149150  1  0  0  0  0 
150151  1  0  0  0  0 
151 20  1  0  0  0  0 
151147  1  0  0  0  0 
147154  2  0  0  0  0 
160161  1  0  0  0  0 
161156  1  0  0  0  0 
156157  1  0  0  0  0 
157158  1  0  0  0  0 
158159  1  0  0  0  0 
159 21  1  0  0  0  0 
159155  1  0  0  0  0 
155162  2  0  0  0  0 
169 22  1  0  0  0  0 
169164  1  0  0  0  0 
164165  1  0  0  0  0 
165166  1  0  0  0  0 
166167  1  0  0  0  0 
166168  2  0  0  0  0 
169163  1  0  0  0  0 
163170  2  0  0  0  0 
174175  1  0  0  0  0 
175172  1  0  0  0  0 
175173  1  0  0  0  0 
173 23  1  0  0  0  0 
173171  1  0  0  0  0 
171176  2  0  0  0  0 
180181  1  0  0  0  0 
181178  1  0  0  0  0 
181179  1  0  0  0  0 
179 24  1  0  0  0  0 
179177  1  0  0  0  0 
177182  2  0  0  0  0 
189 25  1  0  0  0  0 
189184  1  0  0  0  0 
184185  1  0  0  0  0 
185186  1  0  0  0  0 
186187  1  0  0  0  0 
186188  2  0  0  0  0 
189183  1  0  0  0  0 
183190  2  0  0  0  0 
197 26  1  0  0  0  0 
197192  1  0  0  0  0 
192193  1  0  0  0  0 
193194  1  0  0  0  0 
194195  1  0  0  0  0 
194196  2  0  0  0  0 
197191  1  0  0  0  0 
191198  2  0  0  0  0 
200201  1  0  0  0  0 
201 27  1  0  0  0  0 
201199  1  0  0  0  0 
199202  2  0  0  0  0 
209 28  1  0  0  0  0 
209204  1  0  0  0  0 
204205  1  0  0  0  0 
205206  1  0  0  0  0 
206207  1  0  0  0  0 
206208  2  0  0  0  0 
209203  1  0  0  0  0 
203210  2  0  0  0  0 
216 29  1  0  0  0  0 
216212  1  0  0  0  0 
212213  1  0  0  0  0 
213214  1  0  0  0  0 
213215  2  0  0  0  0 
216211  1  0  0  0  0 
211217  2  0  0  0  0 
  2218  1  0  0  0  0 
  3219  1  0  0  0  0 
  4220  1  0  0  0  0 
  5221  1  0  0  0  0 
  6222  1  0  0  0  0 
  7223  1  0  0  0  0 
  8224  1  0  0  0  0 
  9225  1  0  0  0  0 
 10226  1  0  0  0  0 
 11227  1  0  0  0  0 
 12228  1  0  0  0  0 
 13229  1  0  0  0  0 
 14230  1  0  0  0  0 
 15231  1  0  0  0  0 
 16232  1  0  0  0  0 
 17233  1  0  0  0  0 
 18234  1  0  0  0  0 
 19235  1  0  0  0  0 
 20236  1  0  0  0  0 
 21237  1  0  0  0  0 
 22238  1  0  0  0  0 
 23239  1  0  0  0  0 
 24240  1  0  0  0  0 
 25241  1  0  0  0  0 
 26242  1  0  0  0  0 
 27243  1  0  0  0  0 
 28244  1  0  0  0  0 
 29245  1  0  0  0  0 
 30246  1  0  0  0  0 
 31247  1  0  0  0  0 
 31248  1  0  0  0  0 
 31249  1  0  0  0  0 
 34250  1  0  0  0  0 
 34251  1  0  0  0  0 
 35252  1  0  0  0  0 
 36253  1  0  0  0  0 
 39254  1  0  0  0  0 
 39255  1  0  0  0  0 
 41256  1  0  0  0  0 
 43257  1  0  0  0  0 
 46258  1  0  0  0  0 
 46259  1  0  0  0  0 
 46260  1  0  0  0  0 
 47261  1  0  0  0  0 
 50262  1  0  0  0  0 
 50263  1  0  0  0  0 
 50264  1  0  0  0  0 
 51265  1  0  0  0  0 
 54266  1  0  0  0  0 
 54267  1  0  0  0  0 
 54268  1  0  0  0  0 
 55269  1  0  0  0  0 
 56270  1  0  0  0  0 
 56271  1  0  0  0  0 
 56272  1  0  0  0  0 
 57273  1  0  0  0  0 
 60274  1  0  0  0  0 
 60275  1  0  0  0  0 
 62276  1  0  0  0  0 
 64277  1  0  0  0  0 
 67278  1  0  0  0  0 
 68279  1  0  0  0  0 
 69280  1  0  0  0  0 
 69281  1  0  0  0  0 
 69282  1  0  0  0  0 
 70283  1  0  0  0  0 
 73284  1  0  0  0  0 
 73285  1  0  0  0  0 
 74286  1  0  0  0  0 
 75287  1  0  0  0  0 
 78288  1  0  0  0  0 
 78289  1  0  0  0  0 
 79290  1  0  0  0  0 
 80291  1  0  0  0  0 
 83292  1  0  0  0  0 
 83293  1  0  0  0  0 
 84294  1  0  0  0  0 
 84295  1  0  0  0  0 
 86296  1  0  0  0  0 
 88297  1  0  0  0  0 
 91298  1  0  0  0  0 
 92299  1  0  0  0  0 
 92300  1  0  0  0  0 
 92301  1  0  0  0  0 
 93302  1  0  0  0  0 
 94303  1  0  0  0  0 
 94304  1  0  0  0  0 
 94305  1  0  0  0  0 
 95306  1  0  0  0  0 
 95307  1  0  0  0  0 
 98308  1  0  0  0  0 
 99309  1  0  0  0  0 
100310  1  0  0  0  0 
100311  1  0  0  0  0 
100312  1  0  0  0  0 
101313  1  0  0  0  0 
104314  1  0  0  0  0 
105315  1  0  0  0  0 
106316  1  0  0  0  0 
106317  1  0  0  0  0 
106318  1  0  0  0  0 
107319  1  0  0  0  0 
110320  1  0  0  0  0 
110321  1  0  0  0  0 
111322  1  0  0  0  0 
111323  1  0  0  0  0 
112324  1  0  0  0  0 
112325  1  0  0  0  0 
113326  1  0  0  0  0 
114327  1  0  0  0  0 
114328  1  0  0  0  0 
115329  1  0  0  0  0 
115330  1  0  0  0  0 
118331  1  0  0  0  0 
118332  1  0  0  0  0 
120333  1  0  0  0  0 
122334  1  0  0  0  0 
125335  1  0  0  0  0 
125336  1  0  0  0  0 
125337  1  0  0  0  0 
126338  1  0  0  0  0 
126339  1  0  0  0  0 
127340  1  0  0  0  0 
128341  1  0  0  0  0 
128342  1  0  0  0  0 
128343  1  0  0  0  0 
129344  1  0  0  0  0 
132345  1  0  0  0  0 
132346  1  0  0  0  0 
133347  1  0  0  0  0 
133348  1  0  0  0  0 
134349  1  0  0  0  0 
134350  1  0  0  0  0 
135351  1  0  0  0  0 
136352  1  0  0  0  0 
136353  1  0  0  0  0 
137354  1  0  0  0  0 
137355  1  0  0  0  0 
140356  1  0  0  0  0 
140357  1  0  0  0  0 
141358  1  0  0  0  0 
141359  1  0  0  0  0 
143360  1  0  0  0  0 
145361  1  0  0  0  0 
148362  1  0  0  0  0 
148363  1  0  0  0  0 
149364  1  0  0  0  0 
149365  1  0  0  0  0 
150366  1  0  0  0  0 
150367  1  0  0  0  0 
151368  1  0  0  0  0 
152369  1  0  0  0  0 
152370  1  0  0  0  0 
153371  1  0  0  0  0 
153372  1  0  0  0  0 
156373  1  0  0  0  0 
156374  1  0  0  0  0 
157375  1  0  0  0  0 
157376  1  0  0  0  0 
158377  1  0  0  0  0 
158378  1  0  0  0  0 
159379  1  0  0  0  0 
160380  1  0  0  0  0 
160381  1  0  0  0  0 
161382  1  0  0  0  0 
161383  1  0  0  0  0 
164384  1  0  0  0  0 
164385  1  0  0  0  0 
165386  1  0  0  0  0 
165387  1  0  0  0  0 
167388  1  0  0  0  0 
169389  1  0  0  0  0 
172390  1  0  0  0  0 
172391  1  0  0  0  0 
172392  1  0  0  0  0 
173393  1  0  0  0  0 
174394  1  0  0  0  0 
174395  1  0  0  0  0 
174396  1  0  0  0  0 
175397  1  0  0  0  0 
178398  1  0  0  0  0 
178399  1  0  0  0  0 
178400  1  0  0  0  0 
179401  1  0  0  0  0 
180402  1  0  0  0  0 
180403  1  0  0  0  0 
180404  1  0  0  0  0 
181405  1  0  0  0  0 
184406  1  0  0  0  0 
184407  1  0  0  0  0 
185408  1  0  0  0  0 
185409  1  0  0  0  0 
187410  1  0  0  0  0 
189411  1  0  0  0  0 
192412  1  0  0  0  0 
192413  1  0  0  0  0 
193414  1  0  0  0  0 
193415  1  0  0  0  0 
195416  1  0  0  0  0 
197417  1  0  0  0  0 
200418  1  0  0  0  0 
200419  1  0  0  0  0 
200420  1  0  0  0  0 
201421  1  0  0  0  0 
204422  1  0  0  0  0 
204423  1  0  0  0  0 
205424  1  0  0  0  0 
205425  1  0  0  0  0 
207426  1  0  0  0  0 
209427  1  0  0  0  0 
212428  1  0  0  0  0 
212429  1  0  0  0  0 
214430  1  0  0  0  0 
214431  1  0  0  0  0 
216432  1  0  0  0  0 
M  END
> <cdk:Title>
thymalfasin

> <Conformer>
1

> <SuperDrugID>
SD002377

$$$$
