denaverine
  CDK     0628171802

 61 62  0  0  0  0  0  0  0  0999 V2000
    5.6048    1.5661   -1.5973 C   0  0  2  0  0  0  0  0  0  0  0  0
    5.9558    0.1794   -1.8952 O   0  0  0  0  0  0  0  0  0  0  0  0
    4.4822    1.4851   -0.6022 C   0  0  0  0  0  0  0  0  0  0  0  0
    4.9286    2.2882   -2.7466 C   0  0  0  0  0  0  0  0  0  0  0  0
    6.8338    2.2468   -1.0193 C   0  0  0  0  0  0  0  0  0  0  0  0
    7.0853   -0.1728   -2.7354 C   0  0  1  0  0  0  0  0  0  0  0  0
    4.1163    2.5947    0.1195 O   0  0  0  0  0  0  0  0  0  0  0  0
    3.8381    0.4179   -0.4474 O   0  0  0  0  0  0  0  0  0  0  0  0
    4.7054    3.6930   -2.6975 C   0  0  0  0  0  0  0  0  0  0  0  0
    4.4154    1.5918   -3.8726 C   0  0  0  0  0  0  0  0  0  0  0  0
    7.1940    2.1041    0.3490 C   0  0  0  0  0  0  0  0  0  0  0  0
    7.7153    3.0000   -1.8410 C   0  0  0  0  0  0  0  0  0  0  0  0
    7.0842   -1.7188   -2.9519 C   0  0  2  0  0  0  0  0  0  0  0  0
    3.0123    2.6900    1.0340 C   0  0  1  0  0  0  0  0  0  0  0  0
    4.0171    4.3675   -3.7224 C   0  0  0  0  0  0  0  0  0  0  0  0
    3.7166    2.2620   -4.8944 C   0  0  0  0  0  0  0  0  0  0  0  0
    8.3242    2.7489    0.8891 C   0  0  0  0  0  0  0  0  0  0  0  0
    8.8565    3.6325   -1.3069 C   0  0  0  0  0  0  0  0  0  0  0  0
    7.1046   -2.5123   -1.5964 C   0  0  1  0  0  0  0  0  0  0  0  0
    8.1810   -2.1634   -3.9788 C   0  0  2  0  0  0  0  0  0  0  0  0
    2.8471    4.1419    1.5477 C   0  0  1  0  0  0  0  0  0  0  0  0
    3.5228    3.6511   -4.8239 C   0  0  0  0  0  0  0  0  0  0  0  0
    9.1550    3.5209    0.0623 C   0  0  0  0  0  0  0  0  0  0  0  0
    8.3683   -2.3720   -0.7078 C   0  0  0  0  0  0  0  0  0  0  0  0
    8.0928   -3.6439   -4.4267 C   0  0  0  0  0  0  0  0  0  0  0  0
    3.7965    4.5014    2.6543 N   0  0  1  0  0  0  0  0  0  0  0  0
    4.1305    5.9598    2.6954 C   0  0  0  0  0  0  0  0  0  0  0  0
    3.3422    4.0102    3.9934 C   0  0  0  0  0  0  0  0  0  0  0  0
    7.0129    0.3367   -3.7001 H   0  0  0  0  0  0  0  0  0  0  0  0
    8.0272    0.1227   -2.2686 H   0  0  0  0  0  0  0  0  0  0  0  0
    5.0393    4.2452   -1.9030 H   0  0  0  0  0  0  0  0  0  0  0  0
    4.5252    0.5794   -3.9596 H   0  0  0  0  0  0  0  0  0  0  0  0
    6.6338    1.5194    0.9728 H   0  0  0  0  0  0  0  0  0  0  0  0
    7.5373    3.0902   -2.8455 H   0  0  0  0  0  0  0  0  0  0  0  0
    6.1213   -1.9462   -3.4261 H   0  0  0  0  0  0  0  0  0  0  0  0
    2.1012    2.4191    0.4957 H   0  0  0  0  0  0  0  0  0  0  0  0
    3.1416    1.9880    1.8610 H   0  0  0  0  0  0  0  0  0  0  0  0
    3.8692    5.3783   -3.6627 H   0  0  0  0  0  0  0  0  0  0  0  0
    3.3417    1.7372   -5.6888 H   0  0  0  0  0  0  0  0  0  0  0  0
    8.5481    2.6527    1.8832 H   0  0  0  0  0  0  0  0  0  0  0  0
    9.4765    4.1717   -1.9154 H   0  0  0  0  0  0  0  0  0  0  0  0
    6.2472   -2.2043   -0.9916 H   0  0  0  0  0  0  0  0  0  0  0  0
    6.9542   -3.5732   -1.8059 H   0  0  0  0  0  0  0  0  0  0  0  0
    9.1768   -1.9785   -3.5705 H   0  0  0  0  0  0  0  0  0  0  0  0
    8.0874   -1.5551   -4.8836 H   0  0  0  0  0  0  0  0  0  0  0  0
    2.9864    4.7974    0.6821 H   0  0  0  0  0  0  0  0  0  0  0  0
    1.8174    4.2919    1.8827 H   0  0  0  0  0  0  0  0  0  0  0  0
    3.0221    4.1390   -5.5697 H   0  0  0  0  0  0  0  0  0  0  0  0
    9.9777    3.9900    0.4545 H   0  0  0  0  0  0  0  0  0  0  0  0
    8.2897   -3.0547    0.1427 H   0  0  0  0  0  0  0  0  0  0  0  0
    9.2769   -2.6241   -1.2577 H   0  0  0  0  0  0  0  0  0  0  0  0
    8.4543   -1.3565   -0.3168 H   0  0  0  0  0  0  0  0  0  0  0  0
    8.8007   -3.8264   -5.2382 H   0  0  0  0  0  0  0  0  0  0  0  0
    8.3437   -4.3168   -3.6052 H   0  0  0  0  0  0  0  0  0  0  0  0
    7.0869   -3.8767   -4.7835 H   0  0  0  0  0  0  0  0  0  0  0  0
    3.1530    6.5306    2.7502 H   0  0  0  0  0  0  0  0  0  0  0  0
    4.5638    6.2301    1.6829 H   0  0  0  0  0  0  0  0  0  0  0  0
    4.8622    6.1291    3.5998 H   0  0  0  0  0  0  0  0  0  0  0  0
    2.4359    4.5339    4.3127 H   0  0  0  0  0  0  0  0  0  0  0  0
    4.1177    4.1658    4.7467 H   0  0  0  0  0  0  0  0  0  0  0  0
    3.1308    2.9413    3.9721 H   0  0  0  0  0  0  0  0  0  0  0  0
  1  2  1  0  0  0  0 
  1  3  1  0  0  0  0 
  1  4  1  0  0  0  0 
  1  5  1  0  0  0  0 
  2  6  1  0  0  0  0 
  3  7  1  0  0  0  0 
  3  8  2  0  0  0  0 
  4  9  2  0  0  0  0 
  4 10  1  0  0  0  0 
  5 11  2  0  0  0  0 
  5 12  1  0  0  0  0 
  6 13  1  0  0  0  0 
  7 14  1  0  0  0  0 
  9 15  1  0  0  0  0 
 10 16  2  0  0  0  0 
 11 17  1  0  0  0  0 
 12 18  2  0  0  0  0 
 13 19  1  0  0  0  0 
 13 20  1  0  0  0  0 
 14 21  1  0  0  0  0 
 15 22  2  0  0  0  0 
 16 22  1  0  0  0  0 
 17 23  2  0  0  0  0 
 18 23  1  0  0  0  0 
 19 24  1  0  0  0  0 
 20 25  1  0  0  0  0 
 21 26  1  0  0  0  0 
 26 27  1  0  0  0  0 
 26 28  1  0  0  0  0 
  6 29  1  0  0  0  0 
  6 30  1  0  0  0  0 
  9 31  1  0  0  0  0 
 10 32  1  0  0  0  0 
 11 33  1  0  0  0  0 
 12 34  1  0  0  0  0 
 13 35  1  0  0  0  0 
 14 36  1  0  0  0  0 
 14 37  1  0  0  0  0 
 15 38  1  0  0  0  0 
 16 39  1  0  0  0  0 
 17 40  1  0  0  0  0 
 18 41  1  0  0  0  0 
 19 42  1  0  0  0  0 
 19 43  1  0  0  0  0 
 20 44  1  0  0  0  0 
 20 45  1  0  0  0  0 
 21 46  1  0  0  0  0 
 21 47  1  0  0  0  0 
 22 48  1  0  0  0  0 
 23 49  1  0  0  0  0 
 24 50  1  0  0  0  0 
 24 51  1  0  0  0  0 
 24 52  1  0  0  0  0 
 25 53  1  0  0  0  0 
 25 54  1  0  0  0  0 
 25 55  1  0  0  0  0 
 27 56  1  0  0  0  0 
 27 57  1  0  0  0  0 
 27 58  1  0  0  0  0 
 28 59  1  0  0  0  0 
 28 60  1  0  0  0  0 
 28 61  1  0  0  0  0 
M  END
> <cdk:Title>
denaverine

> <Conformer>
1

> <SuperDrugID>
SD000711

$$$$
