digitoxin
  CDK     0628171802

118125  0  0  0  0  0  0  0  0999 V2000
   -0.1604   -0.7435    0.7220 O   0  0  0  0  0  0  0  0  0  0  0  0
   -0.1581    0.6498    1.0656 C   0  0  1  0  0  0  0  0  0  0  0  0
   -0.9294    0.7290    2.4481 C   0  0  1  0  0  0  0  0  0  0  0  0
    1.3240    1.1740    1.0843 C   0  0  1  0  0  0  0  0  0  0  0  0
   -0.8100    1.4288   -0.1256 C   0  0  2  0  0  0  0  0  0  0  0  0
   -0.8050    2.1135    3.1833 C   0  0  1  0  0  0  0  0  0  0  0  0
   -2.4157    0.2334    2.3063 C   0  0  1  0  0  0  0  0  0  0  0  0
    2.3364    0.1677    1.7409 C   0  0  0  0  0  0  0  0  0  0  0  0
    1.6406    1.4300   -0.4454 C   0  0  2  0  0  0  0  0  0  0  0  0
    1.3934    2.5413    1.8781 C   0  0  2  0  0  0  0  0  0  0  0  0
    0.3136    1.9838   -1.0278 C   0  0  1  0  0  0  0  0  0  0  0  0
   -1.6221    2.2396    4.5683 C   0  0  2  0  0  0  0  0  0  0  0  0
    0.6998    2.5271    3.2642 C   0  0  1  0  0  0  0  0  0  0  0  0
   -3.4448    1.0153    3.1503 C   0  0  1  0  0  0  0  0  0  0  0  0
    2.1736    0.3073   -1.2466 C   0  0  0  0  0  0  0  0  0  0  0  0
   -0.7419    1.8353    5.8098 C   0  0  0  0  0  0  0  0  0  0  0  0
   -2.8912    1.2738    4.5812 C   0  0  2  0  0  0  0  0  0  0  0  0
   -2.0539    3.7580    4.7439 C   0  0  2  0  0  0  0  0  0  0  0  0
    3.5722    0.1678   -1.6002 C   0  0  2  0  0  0  0  0  0  0  0  0
    1.4971   -0.7187   -1.7758 C   0  0  0  0  0  0  0  0  0  0  0  0
   -4.0365    1.6892    5.5626 C   0  0  2  0  0  0  0  0  0  0  0  0
   -3.2190    4.0438    5.7313 C   0  0  2  0  0  0  0  0  0  0  0  0
    3.5957   -1.0429   -2.3548 O   0  0  0  0  0  0  0  0  0  0  0  0
    2.3476   -1.5391   -2.4369 C   0  0  0  0  0  0  0  0  0  0  0  0
   -4.4532    3.1749    5.3779 C   0  0  2  0  0  0  0  0  0  0  0  0
    2.0388   -2.5954   -3.0332 O   0  0  0  0  0  0  0  0  0  0  0  0
   -5.6245    3.6216    6.1143 O   0  0  0  0  0  0  0  0  0  0  0  0
   -6.8525    2.8689    5.9236 C   0  0  1  0  0  0  0  0  0  0  0  0
   -8.0725    3.5441    6.6120 C   0  0  1  0  0  0  0  0  0  0  0  0
   -7.1299    2.4802    4.5515 O   0  0  0  0  0  0  0  0  0  0  0  0
   -8.8130    4.5505    5.6940 C   0  0  2  0  0  0  0  0  0  0  0  0
   -7.7846    3.4283    3.6756 C   0  0  1  0  0  0  0  0  0  0  0  0
  -10.0131    4.9785    6.3335 O   0  0  0  0  0  0  0  0  0  0  0  0
   -9.1276    3.9318    4.3002 C   0  0  1  0  0  0  0  0  0  0  0  0
   -6.8557    4.5647    3.1646 C   0  0  0  0  0  0  0  0  0  0  0  0
  -10.1261    2.8831    4.4709 O   0  0  0  0  0  0  0  0  0  0  0  0
  -10.7821    2.3558    3.2872 C   0  0  1  0  0  0  0  0  0  0  0  0
  -11.7040    1.1506    3.6380 C   0  0  1  0  0  0  0  0  0  0  0  0
  -11.4661    3.3638    2.5024 O   0  0  0  0  0  0  0  0  0  0  0  0
  -13.1162    1.5825    4.1128 C   0  0  2  0  0  0  0  0  0  0  0  0
  -12.7624    3.8146    2.9586 C   0  0  1  0  0  0  0  0  0  0  0  0
  -13.9532    0.4331    4.2367 O   0  0  0  0  0  0  0  0  0  0  0  0
  -13.7436    2.6079    3.1230 C   0  0  1  0  0  0  0  0  0  0  0  0
  -12.6828    4.7518    4.1947 C   0  0  0  0  0  0  0  0  0  0  0  0
  -14.0005    1.8803    1.8913 O   0  0  0  0  0  0  0  0  0  0  0  0
  -14.7374    2.5089    0.8180 C   0  0  1  0  0  0  0  0  0  0  0  0
  -14.7758    1.5484   -0.4021 C   0  0  1  0  0  0  0  0  0  0  0  0
  -16.0598    2.9676    1.1923 O   0  0  0  0  0  0  0  0  0  0  0  0
  -15.8182    0.4194   -0.2094 C   0  0  2  0  0  0  0  0  0  0  0  0
  -17.1094    1.9819    1.3647 C   0  0  1  0  0  0  0  0  0  0  0  0
  -15.9164   -0.3694   -1.3948 O   0  0  0  0  0  0  0  0  0  0  0  0
  -17.2070    1.0088    0.1506 C   0  0  1  0  0  0  0  0  0  0  0  0
  -17.0372    1.2575    2.7335 C   0  0  0  0  0  0  0  0  0  0  0  0
  -17.7398    1.7016   -0.9799 O   0  0  0  0  0  0  0  0  0  0  0  0
   -0.4370    0.0123    3.1186 H   0  0  0  0  0  0  0  0  0  0  0  0
   -1.2526    2.8169    2.4782 H   0  0  0  0  0  0  0  0  0  0  0  0
   -2.5783    0.2851    4.9389 H   0  0  0  0  0  0  0  0  0  0  0  0
   -6.7050    1.9357    6.4722 H   0  0  0  0  0  0  0  0  0  0  0  0
  -10.0178    1.9393    2.6306 H   0  0  0  0  0  0  0  0  0  0  0  0
  -14.1856    3.3883    0.4829 H   0  0  0  0  0  0  0  0  0  0  0  0
   -1.1028   -0.9967    0.6377 H   0  0  0  0  0  0  0  0  0  0  0  0
   -1.4169    2.2645    0.2270 H   0  0  0  0  0  0  0  0  0  0  0  0
   -1.4628    0.7786   -0.7162 H   0  0  0  0  0  0  0  0  0  0  0  0
   -2.7674    0.2712    1.2760 H   0  0  0  0  0  0  0  0  0  0  0  0
   -2.4609   -0.8193    2.6057 H   0  0  0  0  0  0  0  0  0  0  0  0
    3.3519    0.5698    1.7149 H   0  0  0  0  0  0  0  0  0  0  0  0
    2.3483   -0.7923    1.2234 H   0  0  0  0  0  0  0  0  0  0  0  0
    2.0765   -0.0315    2.7783 H   0  0  0  0  0  0  0  0  0  0  0  0
    2.3836    2.2310   -0.5222 H   0  0  0  0  0  0  0  0  0  0  0  0
    0.9314    3.3499    1.3057 H   0  0  0  0  0  0  0  0  0  0  0  0
    2.4376    2.8302    2.0238 H   0  0  0  0  0  0  0  0  0  0  0  0
    0.1552    1.7124   -2.0767 H   0  0  0  0  0  0  0  0  0  0  0  0
    0.3163    3.0768   -0.9852 H   0  0  0  0  0  0  0  0  0  0  0  0
    0.7841    3.5283    3.6967 H   0  0  0  0  0  0  0  0  0  0  0  0
    1.2442    1.8444    3.9177 H   0  0  0  0  0  0  0  0  0  0  0  0
   -3.6717    1.9616    2.6540 H   0  0  0  0  0  0  0  0  0  0  0  0
   -4.3703    0.4304    3.1859 H   0  0  0  0  0  0  0  0  0  0  0  0
   -0.3205    0.8373    5.6674 H   0  0  0  0  0  0  0  0  0  0  0  0
    0.0850    2.5301    5.9700 H   0  0  0  0  0  0  0  0  0  0  0  0
   -1.3247    1.8200    6.7331 H   0  0  0  0  0  0  0  0  0  0  0  0
   -2.3888    4.1694    3.7881 H   0  0  0  0  0  0  0  0  0  0  0  0
   -1.1947    4.3623    5.0497 H   0  0  0  0  0  0  0  0  0  0  0  0
    4.2053    0.0783   -0.7161 H   0  0  0  0  0  0  0  0  0  0  0  0
    3.9043    1.0027   -2.2212 H   0  0  0  0  0  0  0  0  0  0  0  0
    0.5195   -0.8662   -1.7132 H   0  0  0  0  0  0  0  0  0  0  0  0
   -3.7247    1.5268    6.5977 H   0  0  0  0  0  0  0  0  0  0  0  0
   -4.8888    1.0297    5.3990 H   0  0  0  0  0  0  0  0  0  0  0  0
   -3.4927    5.1013    5.6647 H   0  0  0  0  0  0  0  0  0  0  0  0
   -2.8931    3.8527    6.7572 H   0  0  0  0  0  0  0  0  0  0  0  0
   -4.6712    3.3387    4.3244 H   0  0  0  0  0  0  0  0  0  0  0  0
   -8.7838    2.7656    6.9032 H   0  0  0  0  0  0  0  0  0  0  0  0
   -7.7469    4.0485    7.5263 H   0  0  0  0  0  0  0  0  0  0  0  0
   -8.1933    5.4434    5.5703 H   0  0  0  0  0  0  0  0  0  0  0  0
   -8.0202    2.8602    2.7774 H   0  0  0  0  0  0  0  0  0  0  0  0
   -9.7216    5.3687    7.1843 H   0  0  0  0  0  0  0  0  0  0  0  0
   -9.5474    4.7225    3.6719 H   0  0  0  0  0  0  0  0  0  0  0  0
   -7.4135    5.2573    2.5326 H   0  0  0  0  0  0  0  0  0  0  0  0
   -6.4148    5.1271    3.9867 H   0  0  0  0  0  0  0  0  0  0  0  0
   -6.0502    4.1423    2.5623 H   0  0  0  0  0  0  0  0  0  0  0  0
  -11.8214    0.5276    2.7455 H   0  0  0  0  0  0  0  0  0  0  0  0
  -11.2311    0.5329    4.4065 H   0  0  0  0  0  0  0  0  0  0  0  0
  -13.0442    2.0191    5.1116 H   0  0  0  0  0  0  0  0  0  0  0  0
  -13.1442    4.4549    2.1632 H   0  0  0  0  0  0  0  0  0  0  0  0
  -13.5057   -0.1441    4.8925 H   0  0  0  0  0  0  0  0  0  0  0  0
  -14.6899    2.9639    3.5382 H   0  0  0  0  0  0  0  0  0  0  0  0
  -13.6685    5.1627    4.4204 H   0  0  0  0  0  0  0  0  0  0  0  0
  -12.3212    4.2296    5.0781 H   0  0  0  0  0  0  0  0  0  0  0  0
  -12.0059    5.5813    3.9852 H   0  0  0  0  0  0  0  0  0  0  0  0
  -15.0306    2.1193   -1.2994 H   0  0  0  0  0  0  0  0  0  0  0  0
  -13.7864    1.1105   -0.5591 H   0  0  0  0  0  0  0  0  0  0  0  0
  -15.4850   -0.2459    0.5921 H   0  0  0  0  0  0  0  0  0  0  0  0
  -18.0401    2.5571    1.3929 H   0  0  0  0  0  0  0  0  0  0  0  0
  -15.0203   -0.7415   -1.5305 H   0  0  0  0  0  0  0  0  0  0  0  0
  -17.8960    0.1912    0.3785 H   0  0  0  0  0  0  0  0  0  0  0  0
  -16.9737    1.9918    3.5386 H   0  0  0  0  0  0  0  0  0  0  0  0
  -16.1713    0.6008    2.7861 H   0  0  0  0  0  0  0  0  0  0  0  0
  -17.9353    0.6560    2.8914 H   0  0  0  0  0  0  0  0  0  0  0  0
  -18.6457    1.9676   -0.7140 H   0  0  0  0  0  0  0  0  0  0  0  0
  2  1  1  0  0  0  0 
  3  2  1  0  0  0  0 
  2  4  1  0  0  0  0 
  2  5  1  0  0  0  0 
  6  3  1  0  0  0  0 
  3  7  1  0  0  0  0 
  3 55  1  0  0  0  0 
  4  8  1  0  0  0  0 
  4  9  1  0  0  0  0 
  4 10  1  0  0  0  0 
  5 11  1  0  0  0  0 
 12  6  1  0  0  0  0 
  6 13  1  0  0  0  0 
  6 56  1  0  0  0  0 
  7 14  1  0  0  0  0 
  9 11  1  0  0  0  0 
  9 15  1  0  0  0  0 
 10 13  1  0  0  0  0 
 12 16  1  0  0  0  0 
 17 12  1  0  0  0  0 
 12 18  1  0  0  0  0 
 17 14  1  0  0  0  0 
 15 19  1  0  0  0  0 
 15 20  2  0  0  0  0 
 17 21  1  0  0  0  0 
 17 57  1  0  0  0  0 
 18 22  1  0  0  0  0 
 19 23  1  0  0  0  0 
 20 24  1  0  0  0  0 
 25 21  1  0  0  0  0 
 25 22  1  0  0  0  0 
 23 24  1  0  0  0  0 
 24 26  2  0  0  0  0 
 25 27  1  0  0  0  0 
 28 27  1  0  0  0  0 
 28 29  1  0  0  0  0 
 28 30  1  0  0  0  0 
 28 58  1  0  0  0  0 
 31 29  1  0  0  0  0 
 32 30  1  0  0  0  0 
 31 33  1  0  0  0  0 
 31 34  1  0  0  0  0 
 34 32  1  0  0  0  0 
 32 35  1  0  0  0  0 
 34 36  1  0  0  0  0 
 37 36  1  0  0  0  0 
 37 38  1  0  0  0  0 
 37 39  1  0  0  0  0 
 37 59  1  0  0  0  0 
 40 38  1  0  0  0  0 
 41 39  1  0  0  0  0 
 40 42  1  0  0  0  0 
 43 40  1  0  0  0  0 
 41 43  1  0  0  0  0 
 41 44  1  0  0  0  0 
 43 45  1  0  0  0  0 
 46 45  1  0  0  0  0 
 46 47  1  0  0  0  0 
 46 48  1  0  0  0  0 
 46 60  1  0  0  0  0 
 49 47  1  0  0  0  0 
 50 48  1  0  0  0  0 
 49 51  1  0  0  0  0 
 52 49  1  0  0  0  0 
 52 50  1  0  0  0  0 
 50 53  1  0  0  0  0 
 52 54  1  0  0  0  0 
  1 61  1  0  0  0  0 
  5 62  1  0  0  0  0 
  5 63  1  0  0  0  0 
  7 64  1  0  0  0  0 
  7 65  1  0  0  0  0 
  8 66  1  0  0  0  0 
  8 67  1  0  0  0  0 
  8 68  1  0  0  0  0 
  9 69  1  0  0  0  0 
 10 70  1  0  0  0  0 
 10 71  1  0  0  0  0 
 11 72  1  0  0  0  0 
 11 73  1  0  0  0  0 
 13 74  1  0  0  0  0 
 13 75  1  0  0  0  0 
 14 76  1  0  0  0  0 
 14 77  1  0  0  0  0 
 16 78  1  0  0  0  0 
 16 79  1  0  0  0  0 
 16 80  1  0  0  0  0 
 18 81  1  0  0  0  0 
 18 82  1  0  0  0  0 
 19 83  1  0  0  0  0 
 19 84  1  0  0  0  0 
 20 85  1  0  0  0  0 
 21 86  1  0  0  0  0 
 21 87  1  0  0  0  0 
 22 88  1  0  0  0  0 
 22 89  1  0  0  0  0 
 25 90  1  0  0  0  0 
 29 91  1  0  0  0  0 
 29 92  1  0  0  0  0 
 31 93  1  0  0  0  0 
 32 94  1  0  0  0  0 
 33 95  1  0  0  0  0 
 34 96  1  0  0  0  0 
 35 97  1  0  0  0  0 
 35 98  1  0  0  0  0 
 35 99  1  0  0  0  0 
 38100  1  0  0  0  0 
 38101  1  0  0  0  0 
 40102  1  0  0  0  0 
 41103  1  0  0  0  0 
 42104  1  0  0  0  0 
 43105  1  0  0  0  0 
 44106  1  0  0  0  0 
 44107  1  0  0  0  0 
 44108  1  0  0  0  0 
 47109  1  0  0  0  0 
 47110  1  0  0  0  0 
 49111  1  0  0  0  0 
 50112  1  0  0  0  0 
 51113  1  0  0  0  0 
 52114  1  0  0  0  0 
 53115  1  0  0  0  0 
 53116  1  0  0  0  0 
 53117  1  0  0  0  0 
 54118  1  0  0  0  0 
M  END
> <cdk:Title>
digitoxin

> <Conformer>
1

> <SuperDrugID>
SD000783

$$$$
