distigmine
  CDK     0628171802

 62 63  0  0  0  0  0  0  0  0999 V2000
   -7.6159   -3.3965   -0.3858 O   0  0  0  0  0  0  0  0  0  0  0  0
   -7.1691   -3.0073   -1.6251 C   0  0  0  0  0  0  0  0  0  0  0  0
   -7.4116   -4.5711    0.2914 C   0  0  0  0  0  0  0  0  0  0  0  0
   -7.3757   -1.7186   -2.0922 N   0  0  0  0  0  0  0  0  0  0  0  0
   -6.6216   -3.8711   -2.3543 O   0  0  0  0  0  0  0  0  0  0  0  0
   -6.2056   -5.3078    0.2427 C   0  0  0  0  0  0  0  0  0  0  0  0
   -8.4560   -5.0631    1.0908 C   0  0  0  0  0  0  0  0  0  0  0  0
   -7.8641   -0.6559   -1.2266 C   0  0  1  0  0  0  0  0  0  0  0  0
   -7.0835   -1.3830   -3.4729 C   0  0  0  0  0  0  0  0  0  0  0  0
   -6.0682   -6.4956    0.9124 N   0  0  0  0  0  0  0  0  0  0  0  0
   -8.3061   -6.2721    1.7884 C   0  0  0  0  0  0  0  0  0  0  0  0
   -6.8345    0.4999   -1.0659 C   0  0  2  0  0  0  0  0  0  0  0  0
   -4.8601   -7.2738    0.8096 C   0  0  0  0  0  0  0  0  0  0  0  0
   -7.0924   -6.9726    1.6868 C   0  0  0  0  0  0  0  0  0  0  0  0
   -7.3625    1.6888   -0.2215 C   0  0  1  0  0  0  0  0  0  0  0  0
   -6.4600    2.9490   -0.3417 C   0  0  1  0  0  0  0  0  0  0  0  0
   -7.0395    4.1602    0.4375 C   0  0  1  0  0  0  0  0  0  0  0  0
   -6.3383    5.5077    0.1014 C   0  0  1  0  0  0  0  0  0  0  0  0
   -6.9967    6.6425    0.7237 N   0  0  0  0  0  0  0  0  0  0  0  0
   -6.3718    7.3975    1.6995 C   0  0  0  0  0  0  0  0  0  0  0  0
   -8.3368    6.9959    0.2991 C   0  0  0  0  0  0  0  0  0  0  0  0
   -5.0278    7.2653    1.9488 O   0  0  0  0  0  0  0  0  0  0  0  0
   -7.0094    8.2823    2.3237 O   0  0  0  0  0  0  0  0  0  0  0  0
   -4.2613    7.8314    2.9323 C   0  0  0  0  0  0  0  0  0  0  0  0
   -4.7094    7.9869    4.2625 C   0  0  0  0  0  0  0  0  0  0  0  0
   -2.9583    8.2579    2.6145 C   0  0  0  0  0  0  0  0  0  0  0  0
   -3.9133    8.5583    5.2210 N   0  0  0  0  0  0  0  0  0  0  0  0
   -2.1499    8.8518    3.5966 C   0  0  0  0  0  0  0  0  0  0  0  0
   -4.3758    8.7015    6.5782 C   0  0  0  0  0  0  0  0  0  0  0  0
   -2.6550    8.9957    4.9004 C   0  0  0  0  0  0  0  0  0  0  0  0
   -5.4247   -4.9338   -0.3011 H   0  0  0  0  0  0  0  0  0  0  0  0
   -9.3345   -4.5464    1.1558 H   0  0  0  0  0  0  0  0  0  0  0  0
   -8.7900   -0.2594   -1.6528 H   0  0  0  0  0  0  0  0  0  0  0  0
   -8.1156   -1.0129   -0.2239 H   0  0  0  0  0  0  0  0  0  0  0  0
   -6.0769   -0.9622   -3.5338 H   0  0  0  0  0  0  0  0  0  0  0  0
   -7.1334   -2.2476   -4.1396 H   0  0  0  0  0  0  0  0  0  0  0  0
   -7.7959   -0.6488   -3.8613 H   0  0  0  0  0  0  0  0  0  0  0  0
   -9.0722   -6.6400    2.3574 H   0  0  0  0  0  0  0  0  0  0  0  0
   -6.5674    0.8792   -2.0538 H   0  0  0  0  0  0  0  0  0  0  0  0
   -5.9275    0.1041   -0.5994 H   0  0  0  0  0  0  0  0  0  0  0  0
   -4.3948   -7.3844    1.7925 H   0  0  0  0  0  0  0  0  0  0  0  0
   -5.0977   -8.2672    0.4195 H   0  0  0  0  0  0  0  0  0  0  0  0
   -4.1219   -6.8273    0.1388 H   0  0  0  0  0  0  0  0  0  0  0  0
   -6.9935   -7.8516    2.2024 H   0  0  0  0  0  0  0  0  0  0  0  0
   -8.3701    1.9475   -0.5594 H   0  0  0  0  0  0  0  0  0  0  0  0
   -7.4250    1.3819    0.8263 H   0  0  0  0  0  0  0  0  0  0  0  0
   -5.4577    2.7157    0.0312 H   0  0  0  0  0  0  0  0  0  0  0  0
   -6.3739    3.2158   -1.3992 H   0  0  0  0  0  0  0  0  0  0  0  0
   -8.1011    4.2388    0.1980 H   0  0  0  0  0  0  0  0  0  0  0  0
   -6.9544    3.9661    1.5109 H   0  0  0  0  0  0  0  0  0  0  0  0
   -5.2911    5.4116    0.3996 H   0  0  0  0  0  0  0  0  0  0  0  0
   -6.3356    5.6663   -0.9794 H   0  0  0  0  0  0  0  0  0  0  0  0
   -9.0469    6.8172    1.1087 H   0  0  0  0  0  0  0  0  0  0  0  0
   -8.6675    6.4270   -0.5724 H   0  0  0  0  0  0  0  0  0  0  0  0
   -8.3806    8.0513    0.0207 H   0  0  0  0  0  0  0  0  0  0  0  0
   -5.6445    7.6485    4.5028 H   0  0  0  0  0  0  0  0  0  0  0  0
   -2.5995    8.1518    1.6628 H   0  0  0  0  0  0  0  0  0  0  0  0
   -1.2069    9.1753    3.3677 H   0  0  0  0  0  0  0  0  0  0  0  0
   -3.7175    8.1490    7.2520 H   0  0  0  0  0  0  0  0  0  0  0  0
   -4.3686    9.7559    6.8632 H   0  0  0  0  0  0  0  0  0  0  0  0
   -5.3908    8.3261    6.7298 H   0  0  0  0  0  0  0  0  0  0  0  0
   -2.0565    9.4327    5.6078 H   0  0  0  0  0  0  0  0  0  0  0  0
  1  2  1  0  0  0  0 
  1  3  1  0  0  0  0 
  2  4  1  0  0  0  0 
  2  5  2  0  0  0  0 
  3  6  2  0  0  0  0 
  3  7  1  0  0  0  0 
  4  8  1  0  0  0  0 
  4  9  1  0  0  0  0 
  6 10  1  0  0  0  0 
  7 11  2  0  0  0  0 
  8 12  1  0  0  0  0 
 10 13  1  0  0  0  0 
 10 14  2  0  0  0  0 
 11 14  1  0  0  0  0 
 12 15  1  0  0  0  0 
 15 16  1  0  0  0  0 
 16 17  1  0  0  0  0 
 17 18  1  0  0  0  0 
 18 19  1  0  0  0  0 
 19 20  1  0  0  0  0 
 19 21  1  0  0  0  0 
 20 22  1  0  0  0  0 
 20 23  2  0  0  0  0 
 22 24  1  0  0  0  0 
 24 25  2  0  0  0  0 
 24 26  1  0  0  0  0 
 25 27  1  0  0  0  0 
 26 28  2  0  0  0  0 
 27 29  1  0  0  0  0 
 27 30  2  0  0  0  0 
 28 30  1  0  0  0  0 
  6 31  1  0  0  0  0 
  7 32  1  0  0  0  0 
  8 33  1  0  0  0  0 
  8 34  1  0  0  0  0 
  9 35  1  0  0  0  0 
  9 36  1  0  0  0  0 
  9 37  1  0  0  0  0 
 11 38  1  0  0  0  0 
 12 39  1  0  0  0  0 
 12 40  1  0  0  0  0 
 13 41  1  0  0  0  0 
 13 42  1  0  0  0  0 
 13 43  1  0  0  0  0 
 14 44  1  0  0  0  0 
 15 45  1  0  0  0  0 
 15 46  1  0  0  0  0 
 16 47  1  0  0  0  0 
 16 48  1  0  0  0  0 
 17 49  1  0  0  0  0 
 17 50  1  0  0  0  0 
 18 51  1  0  0  0  0 
 18 52  1  0  0  0  0 
 21 53  1  0  0  0  0 
 21 54  1  0  0  0  0 
 21 55  1  0  0  0  0 
 25 56  1  0  0  0  0 
 26 57  1  0  0  0  0 
 28 58  1  0  0  0  0 
 29 59  1  0  0  0  0 
 29 60  1  0  0  0  0 
 29 61  1  0  0  0  0 
 30 62  1  0  0  0  0 
M  CHG  1  10   1
M  CHG  1  27   1
M  END
> <cdk:Title>
distigmine

> <Conformer>
1

> <SuperDrugID>
SD000824

$$$$
