iohexol
  CDK     0628171801

 60 60  0  0  0  0  0  0  0  0999 V2000
   -0.9566    6.6252   -3.0862 N   0  0  0  0  0  0  0  0  0  0  0  0
    0.2049    7.5023   -3.0188 C   0  0  2  0  0  0  0  0  0  0  0  0
   -1.8873    6.6338   -4.1248 C   0  0  0  0  0  0  0  0  0  0  0  0
   -1.2029    5.8037   -2.0066 C   0  0  0  0  0  0  0  0  0  0  0  0
    1.2805    7.3105   -4.1406 C   0  0  2  0  0  0  0  0  0  0  0  0
   -1.8329    7.5161   -5.3171 C   0  0  0  0  0  0  0  0  0  0  0  0
   -2.8878    5.8732   -4.0741 O   0  0  0  0  0  0  0  0  0  0  0  0
   -1.9990    6.2850   -0.9392 C   0  0  0  0  0  0  0  0  0  0  0  0
   -0.7039    4.4802   -1.9716 C   0  0  0  0  0  0  0  0  0  0  0  0
    2.7017    6.9980   -3.6105 C   0  0  2  0  0  0  0  0  0  0  0  0
    1.3796    8.4958   -4.9335 O   0  0  0  0  0  0  0  0  0  0  0  0
   -2.6959    8.2290   -0.9865 I   0  0  0  0  0  0  0  0  0  0  0  0
   -2.3267    5.4378    0.1458 C   0  0  0  0  0  0  0  0  0  0  0  0
    0.4481    3.7827   -3.5356 I   0  0  0  0  0  0  0  0  0  0  0  0
   -0.9989    3.6381   -0.8712 C   0  0  0  0  0  0  0  0  0  0  0  0
    3.6021    6.8123   -4.6991 O   0  0  0  0  0  0  0  0  0  0  0  0
   -3.1857    5.8887    1.1685 C   0  0  0  0  0  0  0  0  0  0  0  0
   -1.8264    4.1133    0.1782 C   0  0  0  0  0  0  0  0  0  0  0  0
   -0.4950    2.3221   -0.8195 C   0  0  0  0  0  0  0  0  0  0  0  0
   -2.7021    6.1116    2.4225 N   0  0  0  0  0  0  0  0  0  0  0  0
   -4.3973    6.0397    0.8845 O   0  0  0  0  0  0  0  0  0  0  0  0
   -2.3701    2.8500    1.7250 I   0  0  0  0  0  0  0  0  0  0  0  0
    0.3607    1.9826    0.1822 N   0  0  0  0  0  0  0  0  0  0  0  0
   -0.8769    1.4917   -1.6780 O   0  0  0  0  0  0  0  0  0  0  0  0
   -3.4765    6.4862    3.5684 C   0  0  2  0  0  0  0  0  0  0  0  0
    0.8682    0.6737    0.4559 C   0  0  1  0  0  0  0  0  0  0  0  0
   -3.3902    5.3981    4.6727 C   0  0  2  0  0  0  0  0  0  0  0  0
    2.4161    0.6393    0.3664 C   0  0  2  0  0  0  0  0  0  0  0  0
   -4.3385    5.6564    5.8692 C   0  0  1  0  0  0  0  0  0  0  0  0
   -2.0554    5.3165    5.1717 O   0  0  0  0  0  0  0  0  0  0  0  0
    3.0208   -0.6977    0.8612 C   0  0  2  0  0  0  0  0  0  0  0  0
    2.9881    1.7005    1.1315 O   0  0  0  0  0  0  0  0  0  0  0  0
   -5.7028    5.5775    5.4693 O   0  0  0  0  0  0  0  0  0  0  0  0
    2.5567   -1.7999    0.0881 O   0  0  0  0  0  0  0  0  0  0  0  0
    0.6972    7.4106   -2.0442 H   0  0  0  0  0  0  0  0  0  0  0  0
   -0.1565    8.5322   -3.0405 H   0  0  0  0  0  0  0  0  0  0  0  0
    0.9905    6.4932   -4.8048 H   0  0  0  0  0  0  0  0  0  0  0  0
   -2.7159    7.2925   -5.9976 H   0  0  0  0  0  0  0  0  0  0  0  0
   -1.7069    8.5865   -4.9622 H   0  0  0  0  0  0  0  0  0  0  0  0
   -0.9531    7.2581   -5.9043 H   0  0  0  0  0  0  0  0  0  0  0  0
    2.6845    6.0871   -3.0070 H   0  0  0  0  0  0  0  0  0  0  0  0
    3.0678    7.8245   -2.9961 H   0  0  0  0  0  0  0  0  0  0  0  0
    0.4791    8.6518   -5.2834 H   0  0  0  0  0  0  0  0  0  0  0  0
    4.4717    6.6439   -4.2812 H   0  0  0  0  0  0  0  0  0  0  0  0
   -1.7465    5.9970    2.5546 H   0  0  0  0  0  0  0  0  0  0  0  0
    0.6340    2.6948    0.7849 H   0  0  0  0  0  0  0  0  0  0  0  0
   -4.5238    6.6572    3.3087 H   0  0  0  0  0  0  0  0  0  0  0  0
   -3.0745    7.4261    3.9508 H   0  0  0  0  0  0  0  0  0  0  0  0
    0.5433    0.4048    1.4638 H   0  0  0  0  0  0  0  0  0  0  0  0
    0.4569   -0.0698   -0.2315 H   0  0  0  0  0  0  0  0  0  0  0  0
   -3.6491    4.4270    4.2438 H   0  0  0  0  0  0  0  0  0  0  0  0
    2.7060    0.7869   -0.6773 H   0  0  0  0  0  0  0  0  0  0  0  0
   -4.1708    4.9010    6.6397 H   0  0  0  0  0  0  0  0  0  0  0  0
   -4.1502    6.6401    6.3038 H   0  0  0  0  0  0  0  0  0  0  0  0
   -1.4992    5.0969    4.3957 H   0  0  0  0  0  0  0  0  0  0  0  0
    2.7583   -0.8690    1.9079 H   0  0  0  0  0  0  0  0  0  0  0  0
    4.1085   -0.6551    0.7788 H   0  0  0  0  0  0  0  0  0  0  0  0
    2.6798    2.5241    0.6972 H   0  0  0  0  0  0  0  0  0  0  0  0
   -6.2169    5.7039    6.2947 H   0  0  0  0  0  0  0  0  0  0  0  0
    2.9786   -2.5858    0.4958 H   0  0  0  0  0  0  0  0  0  0  0  0
  1  2  1  0  0  0  0 
  1  3  1  0  0  0  0 
  1  4  1  0  0  0  0 
  2  5  1  0  0  0  0 
  3  6  1  0  0  0  0 
  3  7  2  0  0  0  0 
  4  8  2  0  0  0  0 
  4  9  1  0  0  0  0 
  5 10  1  0  0  0  0 
  5 11  1  0  0  0  0 
  8 12  1  0  0  0  0 
  8 13  1  0  0  0  0 
  9 14  1  0  0  0  0 
  9 15  2  0  0  0  0 
 10 16  1  0  0  0  0 
 13 17  1  0  0  0  0 
 13 18  2  0  0  0  0 
 15 18  1  0  0  0  0 
 15 19  1  0  0  0  0 
 17 20  1  0  0  0  0 
 17 21  2  0  0  0  0 
 18 22  1  0  0  0  0 
 19 23  1  0  0  0  0 
 19 24  2  0  0  0  0 
 20 25  1  0  0  0  0 
 23 26  1  0  0  0  0 
 25 27  1  0  0  0  0 
 26 28  1  0  0  0  0 
 27 29  1  0  0  0  0 
 27 30  1  0  0  0  0 
 28 31  1  0  0  0  0 
 28 32  1  0  0  0  0 
 29 33  1  0  0  0  0 
 31 34  1  0  0  0  0 
  2 35  1  0  0  0  0 
  2 36  1  0  0  0  0 
  5 37  1  0  0  0  0 
  6 38  1  0  0  0  0 
  6 39  1  0  0  0  0 
  6 40  1  0  0  0  0 
 10 41  1  0  0  0  0 
 10 42  1  0  0  0  0 
 11 43  1  0  0  0  0 
 16 44  1  0  0  0  0 
 20 45  1  0  0  0  0 
 23 46  1  0  0  0  0 
 25 47  1  0  0  0  0 
 25 48  1  0  0  0  0 
 26 49  1  0  0  0  0 
 26 50  1  0  0  0  0 
 27 51  1  0  0  0  0 
 28 52  1  0  0  0  0 
 29 53  1  0  0  0  0 
 29 54  1  0  0  0  0 
 30 55  1  0  0  0  0 
 31 56  1  0  0  0  0 
 31 57  1  0  0  0  0 
 32 58  1  0  0  0  0 
 33 59  1  0  0  0  0 
 34 60  1  0  0  0  0 
M  END
> <cdk:Title>
iohexol

> <Conformer>
1

> <SuperDrugID>
SD001293

$$$$
