mydecamycin
  CDK     0628171801

124126  0  0  0  0  0  0  0  0999 V2000
   -2.7017   -2.4914    2.9940 O   0  0  0  0  0  0  0  0  0  0  0  0
   -2.2357   -1.3485    3.7645 C   0  0  2  0  0  0  0  0  0  0  0  0
   -1.8179   -3.3057    2.1787 C   0  0  1  0  0  0  0  0  0  0  0  0
   -2.4023   -0.0349    2.9075 C   0  0  1  0  0  0  0  0  0  0  0  0
   -0.8907   -1.6121    4.5917 C   0  0  1  0  0  0  0  0  0  0  0  0
   -2.6523   -4.2194    1.2349 C   0  0  2  0  0  0  0  0  0  0  0  0
   -0.9058   -2.5479    1.3706 O   0  0  0  0  0  0  0  0  0  0  0  0
   -1.7810   -0.1855    1.6134 O   0  0  0  0  0  0  0  0  0  0  0  0
   -3.8790    0.4674    2.6863 C   0  0  2  0  0  0  0  0  0  0  0  0
   -0.1538   -0.2983    5.0324 C   0  0  2  0  0  0  0  0  0  0  0  0
   -1.1391   -2.5742    5.8344 C   0  0  1  0  0  0  0  0  0  0  0  0
   -3.1645   -5.3241    1.9830 O   0  0  0  0  0  0  0  0  0  0  0  0
   -1.8909   -4.7348   -0.0569 C   0  0  1  0  0  0  0  0  0  0  0  0
    0.1473   -3.3144    0.7575 C   0  0  1  0  0  0  0  0  0  0  0  0
   -1.0018    0.9087    1.1025 C   0  0  0  0  0  0  0  0  0  0  0  0
   -4.4681    1.0237    3.8854 O   0  0  0  0  0  0  0  0  0  0  0  0
   -4.8351   -0.5133    1.9252 C   0  0  1  0  0  0  0  0  0  0  0  0
    1.1110   -0.4934    5.7665 C   0  0  0  0  0  0  0  0  0  0  0  0
   -0.4901   -4.0119    5.8226 C   0  0  1  0  0  0  0  0  0  0  0  0
   -2.3690   -4.0448   -1.3286 N   0  0  1  0  0  0  0  0  0  0  0  0
   -0.3381   -4.7183    0.2294 C   0  0  1  0  0  0  0  0  0  0  0  0
    0.7828   -2.4045   -0.3211 C   0  0  0  0  0  0  0  0  0  0  0  0
   -4.0820    2.1885    4.5148 C   0  0  0  0  0  0  0  0  0  0  0  0
   -5.6661   -1.5048    2.6488 C   0  0  0  0  0  0  0  0  0  0  0  0
    1.2441   -0.0955    6.9459 O   0  0  0  0  0  0  0  0  0  0  0  0
    1.0619   -3.9710    5.9195 C   0  0  0  0  0  0  0  0  0  0  0  0
   -1.1065   -4.9930    6.8913 C   0  0  1  0  0  0  0  0  0  0  0  0
   -1.5292   -4.2662   -2.5540 C   0  0  0  0  0  0  0  0  0  0  0  0
   -3.7958   -4.3639   -1.6963 C   0  0  0  0  0  0  0  0  0  0  0  0
   -0.0989   -5.8009    1.1697 O   0  0  0  0  0  0  0  0  0  0  0  0
   -4.7597    2.7081    5.7173 C   0  0  1  0  0  0  0  0  0  0  0  0
   -3.1302    2.8738    4.0722 O   0  0  0  0  0  0  0  0  0  0  0  0
   -6.3519   -2.2706    1.9311 O   0  0  0  0  0  0  0  0  0  0  0  0
   -5.7592   -1.5971    4.0120 O   0  0  0  0  0  0  0  0  0  0  0  0
   -0.7215   -4.5982    8.2098 O   0  0  0  0  0  0  0  0  0  0  0  0
   -2.5630   -5.0598    6.8306 C   0  0  0  0  0  0  0  0  0  0  0  0
    1.2412   -6.0830    1.6365 C   0  0  1  0  0  0  0  0  0  0  0  0
   -5.9362    1.8425    6.2059 C   0  0  0  0  0  0  0  0  0  0  0  0
   -6.6462   -2.4621    4.7640 C   0  0  2  0  0  0  0  0  0  0  0  0
   -3.2397   -5.4294    5.7294 C   0  0  0  0  0  0  0  0  0  0  0  0
    1.3472   -7.6123    1.8659 C   0  0  2  0  0  0  0  0  0  0  0  0
    2.2763   -5.6496    0.7209 O   0  0  0  0  0  0  0  0  0  0  0  0
   -6.5454   -2.0867    6.2638 C   0  0  0  0  0  0  0  0  0  0  0  0
   -6.4288   -3.9917    4.5251 C   0  0  2  0  0  0  0  0  0  0  0  0
   -4.5668   -5.2042    5.6223 C   0  0  0  0  0  0  0  0  0  0  0  0
    2.7625   -8.0478    2.3589 C   0  0  1  0  0  0  0  0  0  0  0  0
    3.6398   -5.8856    1.1383 C   0  0  2  0  0  0  0  0  0  0  0  0
   -5.0430   -4.3874    4.6669 C   0  0  0  0  0  0  0  0  0  0  0  0
    2.9528   -7.8065    3.8874 C   0  0  0  0  0  0  0  0  0  0  0  0
    2.8384   -9.4705    2.2046 O   0  0  0  0  0  0  0  0  0  0  0  0
    3.8762   -7.3968    1.4644 C   0  0  2  0  0  0  0  0  0  0  0  0
    4.1280   -4.8659    2.2024 C   0  0  0  0  0  0  0  0  0  0  0  0
    3.8758   -8.0664    0.1871 O   0  0  0  0  0  0  0  0  0  0  0  0
    4.8694   -8.7997   -0.3949 C   0  0  0  0  0  0  0  0  0  0  0  0
    4.6452   -9.3465   -1.7447 C   0  0  2  0  0  0  0  0  0  0  0  0
    5.9526   -9.0263    0.1937 O   0  0  0  0  0  0  0  0  0  0  0  0
    4.4331  -10.8750   -1.7217 C   0  0  0  0  0  0  0  0  0  0  0  0
   -1.2506   -3.9442    2.8473 H   0  0  0  0  0  0  0  0  0  0  0  0
    1.3427   -5.5653    2.5923 H   0  0  0  0  0  0  0  0  0  0  0  0
   -3.7964    1.3205    1.9998 H   0  0  0  0  0  0  0  0  0  0  0  0
   -3.0094   -1.2129    4.5240 H   0  0  0  0  0  0  0  0  0  0  0  0
   -1.9223    0.7748    3.4491 H   0  0  0  0  0  0  0  0  0  0  0  0
   -0.1863   -2.0978    3.9158 H   0  0  0  0  0  0  0  0  0  0  0  0
   -3.5159   -3.6243    0.9525 H   0  0  0  0  0  0  0  0  0  0  0  0
   -0.8362    0.3110    5.6306 H   0  0  0  0  0  0  0  0  0  0  0  0
    0.1298    0.2763    4.1492 H   0  0  0  0  0  0  0  0  0  0  0  0
   -0.8304   -2.0904    6.7631 H   0  0  0  0  0  0  0  0  0  0  0  0
   -2.2145   -2.6918    5.9507 H   0  0  0  0  0  0  0  0  0  0  0  0
   -2.3790   -5.8544    2.2337 H   0  0  0  0  0  0  0  0  0  0  0  0
   -2.1479   -5.7924   -0.1979 H   0  0  0  0  0  0  0  0  0  0  0  0
    0.9151   -3.4516    1.5210 H   0  0  0  0  0  0  0  0  0  0  0  0
   -1.5700    1.8393    1.0908 H   0  0  0  0  0  0  0  0  0  0  0  0
   -0.7052    0.6695    0.0809 H   0  0  0  0  0  0  0  0  0  0  0  0
   -0.0997    1.0417    1.6996 H   0  0  0  0  0  0  0  0  0  0  0  0
   -5.5571    0.0990    1.3738 H   0  0  0  0  0  0  0  0  0  0  0  0
   -4.2494   -1.0545    1.1768 H   0  0  0  0  0  0  0  0  0  0  0  0
    1.9061   -0.9361    5.3030 H   0  0  0  0  0  0  0  0  0  0  0  0
   -0.6991   -4.4733    4.8630 H   0  0  0  0  0  0  0  0  0  0  0  0
    0.2112   -4.9984   -0.6699 H   0  0  0  0  0  0  0  0  0  0  0  0
    0.0187   -2.0291   -1.0031 H   0  0  0  0  0  0  0  0  0  0  0  0
    1.2657   -1.5473    0.1547 H   0  0  0  0  0  0  0  0  0  0  0  0
    1.5384   -2.9468   -0.8930 H   0  0  0  0  0  0  0  0  0  0  0  0
    1.4706   -4.9838    5.9329 H   0  0  0  0  0  0  0  0  0  0  0  0
    1.3849   -3.4542    6.8250 H   0  0  0  0  0  0  0  0  0  0  0  0
    1.4853   -3.4580    5.0556 H   0  0  0  0  0  0  0  0  0  0  0  0
   -0.7131   -6.0027    6.7358 H   0  0  0  0  0  0  0  0  0  0  0  0
   -0.5404   -3.8294   -2.4470 H   0  0  0  0  0  0  0  0  0  0  0  0
   -1.9667   -3.7840   -3.4321 H   0  0  0  0  0  0  0  0  0  0  0  0
   -1.4197   -5.3332   -2.7670 H   0  0  0  0  0  0  0  0  0  0  0  0
   -4.4965   -4.2171   -0.8791 H   0  0  0  0  0  0  0  0  0  0  0  0
   -4.1358   -3.7078   -2.5014 H   0  0  0  0  0  0  0  0  0  0  0  0
   -3.8952   -5.4015   -2.0277 H   0  0  0  0  0  0  0  0  0  0  0  0
   -4.0249    2.7822    6.5243 H   0  0  0  0  0  0  0  0  0  0  0  0
   -5.1315    3.7141    5.5009 H   0  0  0  0  0  0  0  0  0  0  0  0
    0.2568   -4.6526    8.2252 H   0  0  0  0  0  0  0  0  0  0  0  0
   -3.0762   -4.7342    7.6209 H   0  0  0  0  0  0  0  0  0  0  0  0
   -6.3636    2.2766    7.1096 H   0  0  0  0  0  0  0  0  0  0  0  0
   -6.7147    1.7860    5.4436 H   0  0  0  0  0  0  0  0  0  0  0  0
   -5.5821    0.8396    6.4381 H   0  0  0  0  0  0  0  0  0  0  0  0
   -7.6700   -2.2284    4.4556 H   0  0  0  0  0  0  0  0  0  0  0  0
   -2.7520   -5.7847    4.9355 H   0  0  0  0  0  0  0  0  0  0  0  0
    1.1346   -8.1074    0.9134 H   0  0  0  0  0  0  0  0  0  0  0  0
    0.5807   -7.9321    2.5774 H   0  0  0  0  0  0  0  0  0  0  0  0
   -7.1080   -2.7918    6.8778 H   0  0  0  0  0  0  0  0  0  0  0  0
   -5.5059   -2.0853    6.5976 H   0  0  0  0  0  0  0  0  0  0  0  0
   -6.9695   -1.0958    6.4290 H   0  0  0  0  0  0  0  0  0  0  0  0
   -6.7446   -4.2522    3.5122 H   0  0  0  0  0  0  0  0  0  0  0  0
   -7.0778   -4.5583    5.2002 H   0  0  0  0  0  0  0  0  0  0  0  0
   -5.1825   -5.6033    6.2921 H   0  0  0  0  0  0  0  0  0  0  0  0
    4.2455   -5.6545    0.2558 H   0  0  0  0  0  0  0  0  0  0  0  0
   -4.4157   -4.0022    4.0027 H   0  0  0  0  0  0  0  0  0  0  0  0
    3.9659   -8.0748    4.1939 H   0  0  0  0  0  0  0  0  0  0  0  0
    2.2549   -8.4237    4.4586 H   0  0  0  0  0  0  0  0  0  0  0  0
    2.7724   -6.7712    4.1631 H   0  0  0  0  0  0  0  0  0  0  0  0
    3.7397   -9.7173    2.5014 H   0  0  0  0  0  0  0  0  0  0  0  0
    4.8516   -7.5206    1.9451 H   0  0  0  0  0  0  0  0  0  0  0  0
    3.5514   -4.9199    3.1210 H   0  0  0  0  0  0  0  0  0  0  0  0
    5.1796   -5.0380    2.4414 H   0  0  0  0  0  0  0  0  0  0  0  0
    4.0282   -3.8534    1.8056 H   0  0  0  0  0  0  0  0  0  0  0  0
    5.5011   -9.1022   -2.3791 H   0  0  0  0  0  0  0  0  0  0  0  0
    3.7599   -8.8790   -2.1841 H   0  0  0  0  0  0  0  0  0  0  0  0
    4.2451  -11.2338   -2.7350 H   0  0  0  0  0  0  0  0  0  0  0  0
    5.3179  -11.3823   -1.3316 H   0  0  0  0  0  0  0  0  0  0  0  0
    3.5729  -11.1298   -1.0985 H   0  0  0  0  0  0  0  0  0  0  0  0
  3  1  1  0  0  0  0 
  2  1  1  0  0  0  0 
  4  2  1  0  0  0  0 
  2  5  1  0  0  0  0 
  6  3  1  0  0  0  0 
  3  7  1  0  0  0  0 
  3 58  1  0  0  0  0 
  4  8  1  0  0  0  0 
  9  4  1  0  0  0  0 
  5 10  1  0  0  0  0 
  5 11  1  0  0  0  0 
  6 12  1  0  0  0  0 
 13  6  1  0  0  0  0 
 14  7  1  0  0  0  0 
  8 15  1  0  0  0  0 
  9 16  1  0  0  0  0 
  9 17  1  0  0  0  0 
  9 60  1  0  0  0  0 
 10 18  1  0  0  0  0 
 19 11  1  0  0  0  0 
 13 20  1  0  0  0  0 
 21 13  1  0  0  0  0 
 21 14  1  0  0  0  0 
 14 22  1  0  0  0  0 
 16 23  1  0  0  0  0 
 17 24  1  0  0  0  0 
 18 25  2  0  0  0  0 
 19 26  1  0  0  0  0 
 27 19  1  0  0  0  0 
 20 28  1  0  0  0  0 
 20 29  1  0  0  0  0 
 21 30  1  0  0  0  0 
 23 31  1  0  0  0  0 
 23 32  2  0  0  0  0 
 24 33  2  0  0  0  0 
 24 34  1  0  0  0  0 
 27 35  1  0  0  0  0 
 27 36  1  0  0  0  0 
 37 30  1  0  0  0  0 
 31 38  1  0  0  0  0 
 39 34  1  0  0  0  0 
 36 40  2  0  0  0  0 
 37 41  1  0  0  0  0 
 37 42  1  0  0  0  0 
 37 59  1  0  0  0  0 
 39 43  1  0  0  0  0 
 39 44  1  0  0  0  0 
 40 45  1  0  0  0  0 
 46 41  1  0  0  0  0 
 47 42  1  0  0  0  0 
 44 48  1  0  0  0  0 
 45 48  2  0  0  0  0 
 46 49  1  0  0  0  0 
 46 50  1  0  0  0  0 
 51 46  1  0  0  0  0 
 51 47  1  0  0  0  0 
 47 52  1  0  0  0  0 
 51 53  1  0  0  0  0 
 53 54  1  0  0  0  0 
 54 55  1  0  0  0  0 
 54 56  2  0  0  0  0 
 55 57  1  0  0  0  0 
  2 61  1  0  0  0  0 
  4 62  1  0  0  0  0 
  5 63  1  0  0  0  0 
  6 64  1  0  0  0  0 
 10 65  1  0  0  0  0 
 10 66  1  0  0  0  0 
 11 67  1  0  0  0  0 
 11 68  1  0  0  0  0 
 12 69  1  0  0  0  0 
 13 70  1  0  0  0  0 
 14 71  1  0  0  0  0 
 15 72  1  0  0  0  0 
 15 73  1  0  0  0  0 
 15 74  1  0  0  0  0 
 17 75  1  0  0  0  0 
 17 76  1  0  0  0  0 
 18 77  1  0  0  0  0 
 19 78  1  0  0  0  0 
 21 79  1  0  0  0  0 
 22 80  1  0  0  0  0 
 22 81  1  0  0  0  0 
 22 82  1  0  0  0  0 
 26 83  1  0  0  0  0 
 26 84  1  0  0  0  0 
 26 85  1  0  0  0  0 
 27 86  1  0  0  0  0 
 28 87  1  0  0  0  0 
 28 88  1  0  0  0  0 
 28 89  1  0  0  0  0 
 29 90  1  0  0  0  0 
 29 91  1  0  0  0  0 
 29 92  1  0  0  0  0 
 31 93  1  0  0  0  0 
 31 94  1  0  0  0  0 
 35 95  1  0  0  0  0 
 36 96  1  0  0  0  0 
 38 97  1  0  0  0  0 
 38 98  1  0  0  0  0 
 38 99  1  0  0  0  0 
 39100  1  0  0  0  0 
 40101  1  0  0  0  0 
 41102  1  0  0  0  0 
 41103  1  0  0  0  0 
 43104  1  0  0  0  0 
 43105  1  0  0  0  0 
 43106  1  0  0  0  0 
 44107  1  0  0  0  0 
 44108  1  0  0  0  0 
 45109  1  0  0  0  0 
 47110  1  0  0  0  0 
 48111  1  0  0  0  0 
 49112  1  0  0  0  0 
 49113  1  0  0  0  0 
 49114  1  0  0  0  0 
 50115  1  0  0  0  0 
 51116  1  0  0  0  0 
 52117  1  0  0  0  0 
 52118  1  0  0  0  0 
 52119  1  0  0  0  0 
 55120  1  0  0  0  0 
 55121  1  0  0  0  0 
 57122  1  0  0  0  0 
 57123  1  0  0  0  0 
 57124  1  0  0  0  0 
M  END
> <cdk:Title>
mydecamycin

> <Conformer>
1

> <SuperDrugID>
SD001657

$$$$
