keracyanin
  CDK     0628171801

 73 77  0  0  0  0  0  0  0  0999 V2000
    2.0268   -5.8473   -6.1973 O   0  0  0  0  0  0  0  0  0  0  0  0
    2.4182   -6.5607   -5.0946 C   0  0  0  0  0  0  0  0  0  0  0  0
    2.5154   -4.4871   -6.1882 C   0  0  2  0  0  0  0  0  0  0  0  0
    3.6468   -7.2592   -5.0583 C   0  0  0  0  0  0  0  0  0  0  0  0
    1.5915   -6.5753   -3.9537 C   0  0  0  0  0  0  0  0  0  0  0  0
    1.9115   -3.7526   -5.0944 O   0  0  0  0  0  0  0  0  0  0  0  0
    2.1395   -3.8247   -7.5391 C   0  0  2  0  0  0  0  0  0  0  0  0
    4.0094   -7.8801   -3.8966 O   0  0  0  0  0  0  0  0  0  0  0  0
    4.5329   -7.3265   -6.1581 C   0  0  0  0  0  0  0  0  0  0  0  0
    1.9837   -7.2335   -2.7696 C   0  0  0  0  0  0  0  0  0  0  0  0
    2.3373   -2.3768   -4.9777 C   0  0  2  0  0  0  0  0  0  0  0  0
    2.7793   -4.5060   -8.6171 O   0  0  0  0  0  0  0  0  0  0  0  0
    2.5410   -2.3245   -7.5339 C   0  0  2  0  0  0  0  0  0  0  0  0
    3.2404   -7.8907   -2.7695 C   0  0  0  0  0  0  0  0  0  0  0  0
    4.1025   -7.8038   -7.4186 C   0  0  0  0  0  0  0  0  0  0  0  0
    5.8781   -6.9178   -6.0082 C   0  0  0  0  0  0  0  0  0  0  0  0
    1.1881   -7.2608   -1.5986 C   0  0  0  0  0  0  0  0  0  0  0  0
    1.6647   -1.7684   -3.7206 C   0  0  1  0  0  0  0  0  0  0  0  0
    1.9844   -1.5936   -6.2798 C   0  0  2  0  0  0  0  0  0  0  0  0
    2.0719   -1.6881   -8.7215 O   0  0  0  0  0  0  0  0  0  0  0  0
    3.6982   -8.5519   -1.6160 C   0  0  0  0  0  0  0  0  0  0  0  0
    4.9927   -7.8578   -8.5093 C   0  0  0  0  0  0  0  0  0  0  0  0
    6.7631   -6.9528   -7.1025 C   0  0  0  0  0  0  0  0  0  0  0  0
   -0.0222   -6.6478   -1.5334 O   0  0  0  0  0  0  0  0  0  0  0  0
    1.6490   -7.9346   -0.4510 C   0  0  0  0  0  0  0  0  0  0  0  0
    2.1344   -2.4482   -2.5398 O   0  0  0  0  0  0  0  0  0  0  0  0
    2.5088   -0.2664   -6.2351 O   0  0  0  0  0  0  0  0  0  0  0  0
    2.9065   -8.5661   -0.4531 C   0  0  0  0  0  0  0  0  0  0  0  0
    4.5648   -8.3366   -9.7027 O   0  0  0  0  0  0  0  0  0  0  0  0
    6.3219   -7.4174   -8.3550 C   0  0  0  0  0  0  0  0  0  0  0  0
    1.5713   -1.9764   -1.2956 C   0  0  1  0  0  0  0  0  0  0  0  0
    3.3589   -9.1870    0.6616 O   0  0  0  0  0  0  0  0  0  0  0  0
    7.1829   -7.4342   -9.4013 O   0  0  0  0  0  0  0  0  0  0  0  0
    2.1636   -2.8333   -0.1463 C   0  0  2  0  0  0  0  0  0  0  0  0
    1.9074   -0.5808   -1.0913 O   0  0  0  0  0  0  0  0  0  0  0  0
    1.8118   -4.2054   -0.3118 O   0  0  0  0  0  0  0  0  0  0  0  0
    1.6969   -2.3102    1.2389 C   0  0  2  0  0  0  0  0  0  0  0  0
    1.4708    0.0321    0.1430 C   0  0  2  0  0  0  0  0  0  0  0  0
    0.3196   -2.6165    1.4510 O   0  0  0  0  0  0  0  0  0  0  0  0
    1.9557   -0.7830    1.3836 C   0  0  2  0  0  0  0  0  0  0  0  0
   -0.0458    0.3609    0.1320 C   0  0  0  0  0  0  0  0  0  0  0  0
    3.3584   -0.5809    1.5646 O   0  0  0  0  0  0  0  0  0  0  0  0
    3.6096   -4.4830   -6.0903 H   0  0  0  0  0  0  0  0  0  0  0  0
    0.6982   -6.0797   -3.9929 H   0  0  0  0  0  0  0  0  0  0  0  0
    1.0595   -3.9090   -7.6845 H   0  0  0  0  0  0  0  0  0  0  0  0
    3.4206   -2.3457   -4.8180 H   0  0  0  0  0  0  0  0  0  0  0  0
    2.4399   -4.0731   -9.4298 H   0  0  0  0  0  0  0  0  0  0  0  0
    3.6329   -2.2468   -7.5352 H   0  0  0  0  0  0  0  0  0  0  0  0
    3.1382   -8.1217   -7.5487 H   0  0  0  0  0  0  0  0  0  0  0  0
    6.2227   -6.5776   -5.1059 H   0  0  0  0  0  0  0  0  0  0  0  0
    1.9228   -0.7091   -3.6522 H   0  0  0  0  0  0  0  0  0  0  0  0
    0.5780   -1.8602   -3.8022 H   0  0  0  0  0  0  0  0  0  0  0  0
    0.8965   -1.5185   -6.3674 H   0  0  0  0  0  0  0  0  0  0  0  0
    1.0968   -1.7862   -8.6963 H   0  0  0  0  0  0  0  0  0  0  0  0
    4.6081   -9.0195   -1.6222 H   0  0  0  0  0  0  0  0  0  0  0  0
    7.7302   -6.6391   -6.9854 H   0  0  0  0  0  0  0  0  0  0  0  0
    0.1396   -5.7282   -1.8288 H   0  0  0  0  0  0  0  0  0  0  0  0
    1.0686   -7.9595    0.3910 H   0  0  0  0  0  0  0  0  0  0  0  0
    3.4833   -0.3759   -6.2316 H   0  0  0  0  0  0  0  0  0  0  0  0
    4.6791   -9.3081   -9.6329 H   0  0  0  0  0  0  0  0  0  0  0  0
    0.4862   -2.1180   -1.3238 H   0  0  0  0  0  0  0  0  0  0  0  0
    3.6535   -8.4587    1.2485 H   0  0  0  0  0  0  0  0  0  0  0  0
    7.5143   -8.3558   -9.4385 H   0  0  0  0  0  0  0  0  0  0  0  0
    3.2546   -2.7777   -0.1962 H   0  0  0  0  0  0  0  0  0  0  0  0
    2.2736   -4.6831    0.4099 H   0  0  0  0  0  0  0  0  0  0  0  0
    2.2524   -2.8452    2.0141 H   0  0  0  0  0  0  0  0  0  0  0  0
    1.9800    0.9997    0.1713 H   0  0  0  0  0  0  0  0  0  0  0  0
    0.1605   -2.4202    2.3998 H   0  0  0  0  0  0  0  0  0  0  0  0
    1.4661   -0.4132    2.2871 H   0  0  0  0  0  0  0  0  0  0  0  0
   -0.3039    0.9868    0.9892 H   0  0  0  0  0  0  0  0  0  0  0  0
   -0.2991    0.9069   -0.7795 H   0  0  0  0  0  0  0  0  0  0  0  0
   -0.6488   -0.5460    0.1704 H   0  0  0  0  0  0  0  0  0  0  0  0
    3.4586    0.3734    1.7625 H   0  0  0  0  0  0  0  0  0  0  0  0
  1  2  1  0  0  0  0 
  2  4  2  0  0  0  0 
  2  5  1  0  0  0  0 
  3  1  1  0  0  0  0 
  3  6  1  0  0  0  0 
  7  3  1  0  0  0  0 
  4  8  1  0  0  0  0 
  4  9  1  0  0  0  0 
  5 10  2  0  0  0  0 
 11  6  1  0  0  0  0 
  7 12  1  0  0  0  0 
 13  7  1  0  0  0  0 
  8 14  2  0  0  0  0 
  9 15  2  0  0  0  0 
  9 16  1  0  0  0  0 
 10 14  1  0  0  0  0 
 10 17  1  0  0  0  0 
 11 18  1  0  0  0  0 
 19 11  1  0  0  0  0 
 13 19  1  0  0  0  0 
 13 20  1  0  0  0  0 
 14 21  1  0  0  0  0 
 15 22  1  0  0  0  0 
 16 23  2  0  0  0  0 
 17 24  1  0  0  0  0 
 17 25  2  0  0  0  0 
 18 26  1  0  0  0  0 
 19 27  1  0  0  0  0 
 21 28  2  0  0  0  0 
 22 29  1  0  0  0  0 
 22 30  2  0  0  0  0 
 23 30  1  0  0  0  0 
 25 28  1  0  0  0  0 
 28 32  1  0  0  0  0 
 30 33  1  0  0  0  0 
 31 26  1  0  0  0  0 
 34 31  1  0  0  0  0 
 31 35  1  0  0  0  0 
 34 36  1  0  0  0  0 
 37 34  1  0  0  0  0 
 38 35  1  0  0  0  0 
 37 39  1  0  0  0  0 
 40 37  1  0  0  0  0 
 40 38  1  0  0  0  0 
 38 41  1  0  0  0  0 
 40 42  1  0  0  0  0 
  3 43  1  0  0  0  0 
  5 44  1  0  0  0  0 
  7 45  1  0  0  0  0 
 11 46  1  0  0  0  0 
 12 47  1  0  0  0  0 
 13 48  1  0  0  0  0 
 15 49  1  0  0  0  0 
 16 50  1  0  0  0  0 
 18 51  1  0  0  0  0 
 18 52  1  0  0  0  0 
 19 53  1  0  0  0  0 
 20 54  1  0  0  0  0 
 21 55  1  0  0  0  0 
 23 56  1  0  0  0  0 
 24 57  1  0  0  0  0 
 25 58  1  0  0  0  0 
 27 59  1  0  0  0  0 
 29 60  1  0  0  0  0 
 31 61  1  0  0  0  0 
 32 62  1  0  0  0  0 
 33 63  1  0  0  0  0 
 34 64  1  0  0  0  0 
 36 65  1  0  0  0  0 
 37 66  1  0  0  0  0 
 38 67  1  0  0  0  0 
 39 68  1  0  0  0  0 
 40 69  1  0  0  0  0 
 41 70  1  0  0  0  0 
 41 71  1  0  0  0  0 
 41 72  1  0  0  0  0 
 42 73  1  0  0  0  0 
M  CHG  1   8   1
M  END
> <cdk:Title>
keracyanin

> <Conformer>
1

> <SuperDrugID>
SD003311

$$$$
