bisulepine
  CDK     0628171801

 39 41  0  0  0  0  0  0  0  0999 V2000
   -1.5866    1.4572    1.5294 C   0  0  0  0  0  0  0  0  0  0  0  0
   -0.3041    1.1987    0.8818 C   0  0  2  0  0  0  0  0  0  0  0  0
   -2.7974    0.9901    1.1422 C   0  0  0  0  0  0  0  0  0  0  0  0
    0.2680   -0.2307    1.0969 C   0  0  2  0  0  0  0  0  0  0  0  0
   -2.9493    0.1358    0.0586 C   0  0  0  0  0  0  0  0  0  0  0  0
   -3.9680    1.3766    1.8140 C   0  0  0  0  0  0  0  0  0  0  0  0
    1.6896   -0.3780    0.6357 N   0  0  2  0  0  0  0  0  0  0  0  0
   -3.2413   -1.2159    0.2544 C   0  0  0  0  0  0  0  0  0  0  0  0
   -2.8182    0.5133   -1.2981 C   0  0  0  0  0  0  0  0  0  0  0  0
   -4.8870    0.4805    2.4588 C   0  0  0  0  0  0  0  0  0  0  0  0
   -4.2594    2.7682    1.8051 C   0  0  0  0  0  0  0  0  0  0  0  0
    1.9024   -0.1526   -0.8270 C   0  0  0  0  0  0  0  0  0  0  0  0
    2.3153   -1.6473    1.1056 C   0  0  0  0  0  0  0  0  0  0  0  0
   -3.4235   -1.9587    1.8232 S   0  0  0  0  0  0  0  0  0  0  0  0
   -3.3632   -1.9713   -1.3216 S   0  0  0  0  0  0  0  0  0  0  0  0
   -3.0072   -0.5134   -2.2302 C   0  0  0  0  0  0  0  0  0  0  0  0
   -4.7887   -1.0133    2.5873 C   0  0  2  0  0  0  0  0  0  0  0  0
   -6.0514    1.0342    3.0572 C   0  0  0  0  0  0  0  0  0  0  0  0
   -5.4255    3.2787    2.3962 C   0  0  0  0  0  0  0  0  0  0  0  0
   -6.3236    2.4093    3.0245 C   0  0  0  0  0  0  0  0  0  0  0  0
   -1.5464    2.0424    2.3341 H   0  0  0  0  0  0  0  0  0  0  0  0
    0.4297    1.9167    1.2624 H   0  0  0  0  0  0  0  0  0  0  0  0
   -0.4061    1.3952   -0.1854 H   0  0  0  0  0  0  0  0  0  0  0  0
   -0.3580   -0.9652    0.5823 H   0  0  0  0  0  0  0  0  0  0  0  0
    0.2188   -0.4467    2.1690 H   0  0  0  0  0  0  0  0  0  0  0  0
   -2.5994    1.4694   -1.5880 H   0  0  0  0  0  0  0  0  0  0  0  0
   -3.6246    3.4332    1.3514 H   0  0  0  0  0  0  0  0  0  0  0  0
    1.2247   -0.7660   -1.4261 H   0  0  0  0  0  0  0  0  0  0  0  0
    1.7376    0.8969   -1.0712 H   0  0  0  0  0  0  0  0  0  0  0  0
    2.9299   -0.3784   -1.1202 H   0  0  0  0  0  0  0  0  0  0  0  0
    3.3851   -1.6491    0.8862 H   0  0  0  0  0  0  0  0  0  0  0  0
    2.2105   -1.7472    2.1875 H   0  0  0  0  0  0  0  0  0  0  0  0
    1.8552   -2.5138    0.6258 H   0  0  0  0  0  0  0  0  0  0  0  0
   -2.9517   -0.4347   -3.2457 H   0  0  0  0  0  0  0  0  0  0  0  0
   -5.7019   -1.4450    2.1712 H   0  0  0  0  0  0  0  0  0  0  0  0
   -4.7655   -1.2626    3.6501 H   0  0  0  0  0  0  0  0  0  0  0  0
   -6.7325    0.4332    3.5286 H   0  0  0  0  0  0  0  0  0  0  0  0
   -5.6235    4.2822    2.3673 H   0  0  0  0  0  0  0  0  0  0  0  0
   -7.1776    2.7743    3.4547 H   0  0  0  0  0  0  0  0  0  0  0  0
  1  2  1  0  0  0  0 
  1  3  2  0  0  0  0 
  2  4  1  0  0  0  0 
  3  5  1  0  0  0  0 
  3  6  1  0  0  0  0 
  4  7  1  0  0  0  0 
  5  8  2  0  0  0  0 
  5  9  1  0  0  0  0 
  6 10  2  0  0  0  0 
  6 11  1  0  0  0  0 
  7 12  1  0  0  0  0 
  7 13  1  0  0  0  0 
  8 14  1  0  0  0  0 
  8 15  1  0  0  0  0 
  9 16  2  0  0  0  0 
 10 17  1  0  0  0  0 
 10 18  1  0  0  0  0 
 11 19  2  0  0  0  0 
 14 17  1  0  0  0  0 
 15 16  1  0  0  0  0 
 18 20  2  0  0  0  0 
 19 20  1  0  0  0  0 
  1 21  1  0  0  0  0 
  2 22  1  0  0  0  0 
  2 23  1  0  0  0  0 
  4 24  1  0  0  0  0 
  4 25  1  0  0  0  0 
  9 26  1  0  0  0  0 
 11 27  1  0  0  0  0 
 12 28  1  0  0  0  0 
 12 29  1  0  0  0  0 
 12 30  1  0  0  0  0 
 13 31  1  0  0  0  0 
 13 32  1  0  0  0  0 
 13 33  1  0  0  0  0 
 16 34  1  0  0  0  0 
 17 35  1  0  0  0  0 
 17 36  1  0  0  0  0 
 18 37  1  0  0  0  0 
 19 38  1  0  0  0  0 
 20 39  1  0  0  0  0 
M  END
> <cdk:Title>
bisulepine

> <Conformer>
1

> <SuperDrugID>
SD000327

$$$$
