abarelix
  CDK     0628171801

196201  0  0  0  0  0  0  0  0999 V2000
   -2.6642   -3.8752    5.2757 C   0  0  0  0  0  0  0  0  0  0  0  0
    0.1938   -5.8090    4.0441 C   0  0  1  0  0  0  0  0  0  0  0  0
    0.0385   -2.2220    3.1946 N   0  0  0  0  0  0  0  0  0  0  0  0
    3.4812   -1.1488   -0.5200 C   0  0  2  0  0  0  0  0  0  0  0  0
    1.6867   -3.6339    0.7410 N   0  0  0  0  0  0  0  0  0  0  0  0
    0.5595   -6.0551   -0.9401 N   0  0  0  0  0  0  0  0  0  0  0  0
    3.4687   -8.0253   -0.4735 N   0  0  0  0  0  0  0  0  0  0  0  0
    4.4394   -9.2690    2.8781 N   0  0  0  0  0  0  0  0  0  0  0  0
    5.6057   -9.7669    5.6093 N   0  0  0  0  0  0  0  0  0  0  0  0
    2.8436  -10.6885    6.3363 N   0  0  0  0  0  0  0  0  0  0  0  0
    0.0162  -13.0699    2.1286 C   0  0  0  0  0  0  0  0  0  0  0  0
    0.0790  -16.3078    3.6547 N   0  0  0  0  0  0  0  0  0  0  0  0
   -3.3478   -3.6913    4.2416 O   0  0  0  0  0  0  0  0  0  0  0  0
   -3.3064   -3.6209    6.5796 C   0  0  0  0  0  0  0  0  0  0  0  0
   -0.5730   -4.4504    4.0198 C   0  0  1  0  0  0  0  0  0  0  0  0
   -1.3601   -4.2690    5.2080 N   0  0  0  0  0  0  0  0  0  0  0  0
    0.3347   -3.2825    3.9990 C   0  0  0  0  0  0  0  0  0  0  0  0
    1.3068   -3.2447    4.7926 O   0  0  0  0  0  0  0  0  0  0  0  0
    0.6870   -0.9449    3.2425 C   0  0  2  0  0  0  0  0  0  0  0  0
    0.0155   -0.1178    4.3976 C   0  0  2  0  0  0  0  0  0  0  0  0
    0.9071    0.8719    5.0595 C   0  0  0  0  0  0  0  0  0  0  0  0
    2.0077    0.4279    5.8332 C   0  0  0  0  0  0  0  0  0  0  0  0
    2.8344    1.3456    6.5048 C   0  0  0  0  0  0  0  0  0  0  0  0
    2.5660    2.7257    6.4245 C   0  0  0  0  0  0  0  0  0  0  0  0
    1.4731    3.1809    5.6609 C   0  0  0  0  0  0  0  0  0  0  0  0
    0.6506    2.2612    4.9844 C   0  0  0  0  0  0  0  0  0  0  0  0
    0.5887   -0.3445    1.8796 C   0  0  0  0  0  0  0  0  0  0  0  0
   -0.4085    0.3544    1.5827 O   0  0  0  0  0  0  0  0  0  0  0  0
    2.7079   -1.2518    0.8363 C   0  0  1  0  0  0  0  0  0  0  0  0
    1.4756   -0.5155    0.8506 N   0  0  0  0  0  0  0  0  0  0  0  0
    2.5701   -2.6939    1.1940 C   0  0  0  0  0  0  0  0  0  0  0  0
    3.3994   -3.1501    2.0169 O   0  0  0  0  0  0  0  0  0  0  0  0
    1.9754   -6.2558   -1.3136 C   0  0  1  0  0  0  0  0  0  0  0  0
    2.7711   -5.1218   -2.0276 C   0  0  2  0  0  0  0  0  0  0  0  0
    4.1121   -5.5619   -2.5183 C   0  0  0  0  0  0  0  0  0  0  0  0
    5.2882   -5.2366   -1.8015 C   0  0  0  0  0  0  0  0  0  0  0  0
    6.5430   -5.7069   -2.2298 C   0  0  0  0  0  0  0  0  0  0  0  0
    6.6429   -6.5041   -3.3865 C   0  0  0  0  0  0  0  0  0  0  0  0
    7.8449   -6.9641   -3.8134 O   0  0  0  0  0  0  0  0  0  0  0  0
    5.4818   -6.8270   -4.1121 C   0  0  0  0  0  0  0  0  0  0  0  0
    4.2267   -6.3585   -3.6826 C   0  0  0  0  0  0  0  0  0  0  0  0
    2.7725   -6.8790   -0.2135 C   0  0  0  0  0  0  0  0  0  0  0  0
    2.8545   -6.3321    0.9085 O   0  0  0  0  0  0  0  0  0  0  0  0
    4.4273   -8.6996    0.3685 C   0  0  2  0  0  0  0  0  0  0  0  0
    5.0125   -9.8864   -0.4745 C   0  0  1  0  0  0  0  0  0  0  0  0
    6.4090  -10.2583   -0.1661 C   0  0  0  0  0  0  0  0  0  0  0  0
    7.4201   -9.4235   -0.4688 N   0  0  0  0  0  0  0  0  0  0  0  0
    6.6854  -11.3607    0.3619 O   0  0  0  0  0  0  0  0  0  0  0  0
    3.8233   -9.1367    1.6658 C   0  0  0  0  0  0  0  0  0  0  0  0
    2.6023   -9.4192    1.6907 O   0  0  0  0  0  0  0  0  0  0  0  0
    0.5388  -13.9109    3.3208 C   0  0  1  0  0  0  0  0  0  0  0  0
    0.6702  -13.0921    4.4883 N   0  0  0  0  0  0  0  0  0  0  0  0
   -0.3733  -15.0402    3.6295 C   0  0  0  0  0  0  0  0  0  0  0  0
   -1.5856  -14.8487    3.8854 O   0  0  0  0  0  0  0  0  0  0  0  0
   -0.6970   -6.9846    3.8087 C   0  0  0  0  0  0  0  0  0  0  0  0
   -1.6728   -7.3530    4.7653 C   0  0  0  0  0  0  0  0  0  0  0  0
   -2.5733   -8.4018    4.5146 C   0  0  0  0  0  0  0  0  0  0  0  0
   -2.4969   -9.1388    3.3158 C   0  0  0  0  0  0  0  0  0  0  0  0
   -1.4694   -8.8369    2.3776 C   0  0  0  0  0  0  0  0  0  0  0  0
   -0.5920   -7.7578    2.6282 C   0  0  0  0  0  0  0  0  0  0  0  0
   -1.3646   -9.6151    1.2021 C   0  0  0  0  0  0  0  0  0  0  0  0
   -2.3218  -10.5984    0.9069 C   0  0  0  0  0  0  0  0  0  0  0  0
   -3.3500  -10.8779    1.8222 C   0  0  0  0  0  0  0  0  0  0  0  0
   -3.4258  -10.1658    3.0333 C   0  0  0  0  0  0  0  0  0  0  0  0
    3.5495    3.8316    7.2460 Cl  0  0  0  0  0  0  0  0  0  0  0  0
    3.7689    0.2274   -1.0205 C   0  0  0  0  0  0  0  0  0  0  0  0
    2.9868    0.8078   -2.0505 C   0  0  0  0  0  0  0  0  0  0  0  0
    3.3012    2.0823   -2.5609 C   0  0  0  0  0  0  0  0  0  0  0  0
    4.3982    2.7764   -2.0211 C   0  0  0  0  0  0  0  0  0  0  0  0
    5.1409    2.2068   -1.0368 N   0  0  0  0  0  0  0  0  0  0  0  0
    4.8698    0.9735   -0.5310 C   0  0  0  0  0  0  0  0  0  0  0  0
   -0.2917   -7.1947   -1.2863 C   0  0  0  0  0  0  0  0  0  0  0  0
    9.2014   -5.6909   11.3341 C   0  0  2  0  0  0  0  0  0  0  0  0
    8.7873   -4.8328   12.5588 C   0  0  0  0  0  0  0  0  0  0  0  0
    9.8709   -4.8047   10.2464 C   0  0  0  0  0  0  0  0  0  0  0  0
   -0.0324   -4.9503   -0.2836 C   0  0  0  0  0  0  0  0  0  0  0  0
    0.3758   -2.7083   -1.3488 C   0  0  1  0  0  0  0  0  0  0  0  0
   -0.9146   -2.8236   -1.9468 O   0  0  0  0  0  0  0  0  0  0  0  0
    0.4862   -3.5595   -0.0433 C   0  0  2  0  0  0  0  0  0  0  0  0
   -1.2050   -5.0790    0.1530 O   0  0  0  0  0  0  0  0  0  0  0  0
    5.9787  -10.1654    4.3583 C   0  0  0  0  0  0  0  0  0  0  0  0
    8.3109   -6.2267    4.1140 C   0  0  0  0  0  0  0  0  0  0  0  0
    6.3801   -7.7980    3.4858 C   0  0  1  0  0  0  0  0  0  0  0  0
    5.8354   -9.2337    3.2090 C   0  0  2  0  0  0  0  0  0  0  0  0
    8.8601   -8.4088    2.9179 C   0  0  0  0  0  0  0  0  0  0  0  0
    7.8874   -7.7086    3.9103 C   0  0  1  0  0  0  0  0  0  0  0  0
    6.3759  -11.3365    4.1474 O   0  0  0  0  0  0  0  0  0  0  0  0
    4.0738  -11.3052    6.5587 C   0  0  0  0  0  0  0  0  0  0  0  0
    7.9877   -6.4020   10.8440 N   0  0  1  0  0  0  0  0  0  0  0  0
    6.8749   -9.1879    8.3786 C   0  0  1  0  0  0  0  0  0  0  0  0
    5.4744   -9.8001    8.0811 C   0  0  1  0  0  0  0  0  0  0  0  0
    5.3890  -10.6099    6.7496 C   0  0  2  0  0  0  0  0  0  0  0  0
    6.8361   -8.1955    9.5764 C   0  0  2  0  0  0  0  0  0  0  0  0
    8.1821   -7.4740    9.8361 C   0  0  1  0  0  0  0  0  0  0  0  0
    4.1227  -12.5601    6.5451 O   0  0  0  0  0  0  0  0  0  0  0  0
    1.6948  -12.2249    4.7461 C   0  0  0  0  0  0  0  0  0  0  0  0
    1.6325  -11.4096    5.9917 C   0  0  2  0  0  0  0  0  0  0  0  0
    0.5333  -10.3191    5.8551 C   0  0  2  0  0  0  0  0  0  0  0  0
    1.3155   -9.0176    5.6817 C   0  0  2  0  0  0  0  0  0  0  0  0
    2.5928   -9.2830    6.4769 C   0  0  1  0  0  0  0  0  0  0  0  0
    2.6470  -12.0859    3.9403 O   0  0  0  0  0  0  0  0  0  0  0  0
    0.9718   -5.7770    3.2755 H   0  0  0  0  0  0  0  0  0  0  0  0
    0.7129   -5.9280    5.0005 H   0  0  0  0  0  0  0  0  0  0  0  0
   -0.7189   -2.3153    2.5922 H   0  0  0  0  0  0  0  0  0  0  0  0
    2.9348   -1.6937   -1.2878 H   0  0  0  0  0  0  0  0  0  0  0  0
    4.4396   -1.6702   -0.4188 H   0  0  0  0  0  0  0  0  0  0  0  0
    1.8643   -4.5166    1.0914 H   0  0  0  0  0  0  0  0  0  0  0  0
    3.3251   -8.4082   -1.3532 H   0  0  0  0  0  0  0  0  0  0  0  0
    3.8413   -9.4565    3.6188 H   0  0  0  0  0  0  0  0  0  0  0  0
    5.3944   -8.8272    5.7209 H   0  0  0  0  0  0  0  0  0  0  0  0
   -0.0112  -13.6713    1.2176 H   0  0  0  0  0  0  0  0  0  0  0  0
   -0.9891  -12.7018    2.3381 H   0  0  0  0  0  0  0  0  0  0  0  0
    0.6664  -12.2110    1.9525 H   0  0  0  0  0  0  0  0  0  0  0  0
    1.0145  -16.4950    3.4761 H   0  0  0  0  0  0  0  0  0  0  0  0
   -0.5287  -17.0375    3.8540 H   0  0  0  0  0  0  0  0  0  0  0  0
   -4.1574   -4.2922    6.7102 H   0  0  0  0  0  0  0  0  0  0  0  0
   -3.6635   -2.5883    6.6131 H   0  0  0  0  0  0  0  0  0  0  0  0
   -2.6112   -3.7720    7.4091 H   0  0  0  0  0  0  0  0  0  0  0  0
   -1.1919   -4.4281    3.1150 H   0  0  0  0  0  0  0  0  0  0  0  0
   -0.9038   -4.4191    6.0505 H   0  0  0  0  0  0  0  0  0  0  0  0
    1.7484   -1.0765    3.4703 H   0  0  0  0  0  0  0  0  0  0  0  0
   -0.3152   -0.7918    5.1946 H   0  0  0  0  0  0  0  0  0  0  0  0
   -0.8974    0.3635    4.0333 H   0  0  0  0  0  0  0  0  0  0  0  0
    2.2093   -0.5721    5.9235 H   0  0  0  0  0  0  0  0  0  0  0  0
    3.6263    1.0000    7.0540 H   0  0  0  0  0  0  0  0  0  0  0  0
    1.2678    4.1812    5.5948 H   0  0  0  0  0  0  0  0  0  0  0  0
   -0.1438    2.6151    4.4450 H   0  0  0  0  0  0  0  0  0  0  0  0
    3.3485   -0.7724    1.5832 H   0  0  0  0  0  0  0  0  0  0  0  0
    1.2430   -0.0684    0.0207 H   0  0  0  0  0  0  0  0  0  0  0  0
    1.9715   -7.0032   -2.1189 H   0  0  0  0  0  0  0  0  0  0  0  0
    2.9051   -4.2790   -1.3584 H   0  0  0  0  0  0  0  0  0  0  0  0
    2.1927   -4.7813   -2.8891 H   0  0  0  0  0  0  0  0  0  0  0  0
    5.2371   -4.6666   -0.9530 H   0  0  0  0  0  0  0  0  0  0  0  0
    7.3806   -5.4703   -1.6936 H   0  0  0  0  0  0  0  0  0  0  0  0
    8.5142   -6.4245   -3.3425 H   0  0  0  0  0  0  0  0  0  0  0  0
    5.5467   -7.4036   -4.9538 H   0  0  0  0  0  0  0  0  0  0  0  0
    3.3943   -6.6077   -4.2231 H   0  0  0  0  0  0  0  0  0  0  0  0
    5.2175   -7.9744    0.5742 H   0  0  0  0  0  0  0  0  0  0  0  0
    4.3659  -10.7625   -0.3688 H   0  0  0  0  0  0  0  0  0  0  0  0
    5.0115   -9.6298   -1.5392 H   0  0  0  0  0  0  0  0  0  0  0  0
    8.3346   -9.6676   -0.2552 H   0  0  0  0  0  0  0  0  0  0  0  0
    7.2355   -8.5767   -0.9062 H   0  0  0  0  0  0  0  0  0  0  0  0
    1.5225  -14.3134    3.0519 H   0  0  0  0  0  0  0  0  0  0  0  0
   -0.0485  -13.1324    5.1404 H   0  0  0  0  0  0  0  0  0  0  0  0
   -1.7373   -6.8605    5.6578 H   0  0  0  0  0  0  0  0  0  0  0  0
   -3.2860   -8.6206    5.2159 H   0  0  0  0  0  0  0  0  0  0  0  0
    0.1244   -7.5230    1.9346 H   0  0  0  0  0  0  0  0  0  0  0  0
   -0.5959   -9.4702    0.5499 H   0  0  0  0  0  0  0  0  0  0  0  0
   -2.2686  -11.1107    0.0238 H   0  0  0  0  0  0  0  0  0  0  0  0
   -4.0409  -11.5998    1.6081 H   0  0  0  0  0  0  0  0  0  0  0  0
   -4.1693  -10.3939    3.6983 H   0  0  0  0  0  0  0  0  0  0  0  0
    2.1874    0.3010   -2.4453 H   0  0  0  0  0  0  0  0  0  0  0  0
    2.7458    2.4962   -3.3163 H   0  0  0  0  0  0  0  0  0  0  0  0
    4.6382    3.7065   -2.3731 H   0  0  0  0  0  0  0  0  0  0  0  0
    5.4857    0.5906    0.1934 H   0  0  0  0  0  0  0  0  0  0  0  0
    0.2283   -8.1330   -1.0823 H   0  0  0  0  0  0  0  0  0  0  0  0
   -1.2438   -7.2521   -0.7571 H   0  0  0  0  0  0  0  0  0  0  0  0
   -0.5101   -7.1584   -2.3564 H   0  0  0  0  0  0  0  0  0  0  0  0
    9.9329   -6.4263   11.6836 H   0  0  0  0  0  0  0  0  0  0  0  0
    9.6607   -4.3477   13.0010 H   0  0  0  0  0  0  0  0  0  0  0  0
    8.3278   -5.4623   13.3236 H   0  0  0  0  0  0  0  0  0  0  0  0
    8.0706   -4.0618   12.2658 H   0  0  0  0  0  0  0  0  0  0  0  0
   10.7323   -4.2096   10.7776 H   0  0  0  0  0  0  0  0  0  0  0  0
   10.2088   -5.4929    9.4149 H   0  0  0  0  0  0  0  0  0  0  0  0
    9.0535   -4.1743    9.7827 H   0  0  0  0  0  0  0  0  0  0  0  0
    1.1012   -2.9848   -2.1010 H   0  0  0  0  0  0  0  0  0  0  0  0
    0.5077   -1.6536   -1.1370 H   0  0  0  0  0  0  0  0  0  0  0  0
   -0.8899   -2.2249   -2.7238 H   0  0  0  0  0  0  0  0  0  0  0  0
   -0.2012   -3.0480    0.6391 H   0  0  0  0  0  0  0  0  0  0  0  0
    7.6711   -5.7466    4.8568 H   0  0  0  0  0  0  0  0  0  0  0  0
    8.2355   -5.6728    3.1751 H   0  0  0  0  0  0  0  0  0  0  0  0
    9.3419   -6.1678    4.4702 H   0  0  0  0  0  0  0  0  0  0  0  0
    6.2346   -7.1934    2.5875 H   0  0  0  0  0  0  0  0  0  0  0  0
    5.7703   -7.3434    4.2716 H   0  0  0  0  0  0  0  0  0  0  0  0
    6.3923   -9.6433    2.3730 H   0  0  0  0  0  0  0  0  0  0  0  0
    8.7092   -8.0327    1.9043 H   0  0  0  0  0  0  0  0  0  0  0  0
    8.7040   -9.4886    2.9213 H   0  0  0  0  0  0  0  0  0  0  0  0
    9.8991   -8.2323    3.2045 H   0  0  0  0  0  0  0  0  0  0  0  0
    7.9984   -8.2054    4.8791 H   0  0  0  0  0  0  0  0  0  0  0  0
    7.5627   -6.8495   11.6593 H   0  0  0  0  0  0  0  0  0  0  0  0
    7.5836   -9.9931    8.5943 H   0  0  0  0  0  0  0  0  0  0  0  0
    7.2283   -8.6531    7.4931 H   0  0  0  0  0  0  0  0  0  0  0  0
    5.2011  -10.4529    8.9161 H   0  0  0  0  0  0  0  0  0  0  0  0
    4.7566   -8.9813    8.0559 H   0  0  0  0  0  0  0  0  0  0  0  0
    6.1917  -11.3557    6.7970 H   0  0  0  0  0  0  0  0  0  0  0  0
    6.5404   -8.7349   10.4810 H   0  0  0  0  0  0  0  0  0  0  0  0
    6.0772   -7.4339    9.3748 H   0  0  0  0  0  0  0  0  0  0  0  0
    8.5286   -7.0335    8.8994 H   0  0  0  0  0  0  0  0  0  0  0  0
    8.9233   -8.1977   10.1856 H   0  0  0  0  0  0  0  0  0  0  0  0
    1.3782  -12.0736    6.8269 H   0  0  0  0  0  0  0  0  0  0  0  0
   -0.0607  -10.2603    6.7732 H   0  0  0  0  0  0  0  0  0  0  0  0
   -0.1413  -10.4656    5.0054 H   0  0  0  0  0  0  0  0  0  0  0  0
    0.7658   -8.1659    6.0874 H   0  0  0  0  0  0  0  0  0  0  0  0
    1.5540   -8.8464    4.6253 H   0  0  0  0  0  0  0  0  0  0  0  0
    2.4179   -9.0521    7.5331 H   0  0  0  0  0  0  0  0  0  0  0  0
    3.3823   -8.6408    6.0901 H   0  0  0  0  0  0  0  0  0  0  0  0
  1 16  1  0  0  0  0 
 17  3  1  0  0  0  0 
 27 30  1  0  0  0  0 
 31  5  1  0  0  0  0 
 76  6  1  0  0  0  0 
 42  7  1  0  0  0  0 
 49  8  1  0  0  0  0 
 81  9  1  0  0  0  0 
 88 10  1  0  0  0  0 
 96 52  1  0  0  0  0 
 53 12  1  0  0  0  0 
  1 13  2  0  0  0  0 
  1 14  1  0  0  0  0 
  2 15  1  0  0  0  0 
 15 16  1  0  0  0  0 
 15 17  1  0  0  0  0 
 17 18  2  0  0  0  0 
 19  3  1  0  0  0  0 
 19 20  1  0  0  0  0 
 20 21  1  0  0  0  0 
 21 22  2  0  0  0  0 
 22 23  1  0  0  0  0 
 23 24  2  0  0  0  0 
 24 25  1  0  0  0  0 
 25 26  2  0  0  0  0 
 21 26  1  0  0  0  0 
 19 27  1  0  0  0  0 
 27 28  2  0  0  0  0 
  4 29  1  0  0  0  0 
 29 30  1  0  0  0  0 
 29 31  1  0  0  0  0 
 31 32  2  0  0  0  0 
 33  6  1  0  0  0  0 
 33 34  1  0  0  0  0 
 34 35  1  0  0  0  0 
 35 36  2  0  0  0  0 
 36 37  1  0  0  0  0 
 37 38  2  0  0  0  0 
 38 39  1  0  0  0  0 
 38 40  1  0  0  0  0 
 40 41  2  0  0  0  0 
 35 41  1  0  0  0  0 
 33 42  1  0  0  0  0 
 42 43  2  0  0  0  0 
 44  7  1  0  0  0  0 
 44 45  1  0  0  0  0 
 45 46  1  0  0  0  0 
 46 47  1  0  0  0  0 
 46 48  2  0  0  0  0 
 44 49  1  0  0  0  0 
 49 50  2  0  0  0  0 
 11 51  1  0  0  0  0 
 51 52  1  0  0  0  0 
 51 53  1  0  0  0  0 
 53 54  2  0  0  0  0 
  2 55  1  0  0  0  0 
 56 57  1  0  0  0  0 
 57 58  2  0  0  0  0 
 58 59  1  0  0  0  0 
 59 60  2  0  0  0  0 
 55 56  2  0  0  0  0 
 55 60  1  0  0  0  0 
 61 62  2  0  0  0  0 
 62 63  1  0  0  0  0 
 63 64  2  0  0  0  0 
 58 64  1  0  0  0  0 
 59 61  1  0  0  0  0 
 24 65  1  0  0  0  0 
  4 66  1  0  0  0  0 
 67 68  1  0  0  0  0 
 68 69  2  0  0  0  0 
 69 70  1  0  0  0  0 
 70 71  2  0  0  0  0 
 66 67  2  0  0  0  0 
 66 71  1  0  0  0  0 
  6 72  1  0  0  0  0 
 89 73  1  0  0  0  0 
 73 74  1  0  0  0  0 
 73 75  1  0  0  0  0 
 79  5  1  0  0  0  0 
 79 77  1  0  0  0  0 
 77 78  1  0  0  0  0 
 79 76  1  0  0  0  0 
 76 80  2  0  0  0  0 
 85 86  1  0  0  0  0 
 86 82  1  0  0  0  0 
 86 83  1  0  0  0  0 
 83 84  1  0  0  0  0 
 84  8  1  0  0  0  0 
 84 81  1  0  0  0  0 
 81 87  2  0  0  0  0 
 89 94  1  0  0  0  0 
 94 93  1  0  0  0  0 
 93 90  1  0  0  0  0 
 90 91  1  0  0  0  0 
 91 92  1  0  0  0  0 
 92  9  1  0  0  0  0 
 92 88  1  0  0  0  0 
 88 95  2  0  0  0  0 
101 96  2  0  0  0  0 
 97 96  1  0  0  0  0 
 97 98  1  0  0  0  0 
 98 99  1  0  0  0  0 
 99100  1  0  0  0  0 
100 10  1  0  0  0  0 
 97 10  1  0  0  0  0 
  2102  1  0  0  0  0 
  2103  1  0  0  0  0 
  3104  1  0  0  0  0 
  4105  1  0  0  0  0 
  4106  1  0  0  0  0 
  5107  1  0  0  0  0 
  7108  1  0  0  0  0 
  8109  1  0  0  0  0 
  9110  1  0  0  0  0 
 11111  1  0  0  0  0 
 11112  1  0  0  0  0 
 11113  1  0  0  0  0 
 12114  1  0  0  0  0 
 12115  1  0  0  0  0 
 14116  1  0  0  0  0 
 14117  1  0  0  0  0 
 14118  1  0  0  0  0 
 15119  1  0  0  0  0 
 16120  1  0  0  0  0 
 19121  1  0  0  0  0 
 20122  1  0  0  0  0 
 20123  1  0  0  0  0 
 22124  1  0  0  0  0 
 23125  1  0  0  0  0 
 25126  1  0  0  0  0 
 26127  1  0  0  0  0 
 29128  1  0  0  0  0 
 30129  1  0  0  0  0 
 33130  1  0  0  0  0 
 34131  1  0  0  0  0 
 34132  1  0  0  0  0 
 36133  1  0  0  0  0 
 37134  1  0  0  0  0 
 39135  1  0  0  0  0 
 40136  1  0  0  0  0 
 41137  1  0  0  0  0 
 44138  1  0  0  0  0 
 45139  1  0  0  0  0 
 45140  1  0  0  0  0 
 47141  1  0  0  0  0 
 47142  1  0  0  0  0 
 51143  1  0  0  0  0 
 52144  1  0  0  0  0 
 56145  1  0  0  0  0 
 57146  1  0  0  0  0 
 60147  1  0  0  0  0 
 61148  1  0  0  0  0 
 62149  1  0  0  0  0 
 63150  1  0  0  0  0 
 64151  1  0  0  0  0 
 67152  1  0  0  0  0 
 68153  1  0  0  0  0 
 69154  1  0  0  0  0 
 71155  1  0  0  0  0 
 72156  1  0  0  0  0 
 72157  1  0  0  0  0 
 72158  1  0  0  0  0 
 73159  1  0  0  0  0 
 74160  1  0  0  0  0 
 74161  1  0  0  0  0 
 74162  1  0  0  0  0 
 75163  1  0  0  0  0 
 75164  1  0  0  0  0 
 75165  1  0  0  0  0 
 77166  1  0  0  0  0 
 77167  1  0  0  0  0 
 78168  1  0  0  0  0 
 79169  1  0  0  0  0 
 82170  1  0  0  0  0 
 82171  1  0  0  0  0 
 82172  1  0  0  0  0 
 83173  1  0  0  0  0 
 83174  1  0  0  0  0 
 84175  1  0  0  0  0 
 85176  1  0  0  0  0 
 85177  1  0  0  0  0 
 85178  1  0  0  0  0 
 86179  1  0  0  0  0 
 89180  1  0  0  0  0 
 90181  1  0  0  0  0 
 90182  1  0  0  0  0 
 91183  1  0  0  0  0 
 91184  1  0  0  0  0 
 92185  1  0  0  0  0 
 93186  1  0  0  0  0 
 93187  1  0  0  0  0 
 94188  1  0  0  0  0 
 94189  1  0  0  0  0 
 97190  1  0  0  0  0 
 98191  1  0  0  0  0 
 98192  1  0  0  0  0 
 99193  1  0  0  0  0 
 99194  1  0  0  0  0 
100195  1  0  0  0  0 
100196  1  0  0  0  0 
M  END
> <cdk:Title>
abarelix

> <Conformer>
1

> <SuperDrugID>
SD000014

$$$$
