cinmetacin
  CDK     0628171801

 45 47  0  0  0  0  0  0  0  0999 V2000
   -7.3539   -4.0606    0.2607 C   0  0  2  0  0  0  0  0  0  0  0  0
   -7.8861   -4.4303   -1.0627 C   0  0  0  0  0  0  0  0  0  0  0  0
   -6.1758   -3.1587    0.1203 C   0  0  0  0  0  0  0  0  0  0  0  0
   -7.1502   -5.1901   -1.9055 O   0  0  0  0  0  0  0  0  0  0  0  0
   -9.0216   -4.0491   -1.4279 O   0  0  0  0  0  0  0  0  0  0  0  0
   -6.2237   -1.7719    0.0938 C   0  0  0  0  0  0  0  0  0  0  0  0
   -4.8161   -3.4903   -0.0142 C   0  0  0  0  0  0  0  0  0  0  0  0
   -4.9165   -1.2896   -0.0305 C   0  0  0  0  0  0  0  0  0  0  0  0
   -7.3368   -0.9137    0.1921 C   0  0  0  0  0  0  0  0  0  0  0  0
   -4.3173   -4.8948   -0.0292 C   0  0  0  0  0  0  0  0  0  0  0  0
   -4.0542   -2.3488   -0.1307 N   0  0  0  0  0  0  0  0  0  0  0  0
   -4.7177    0.1161    0.0155 C   0  0  0  0  0  0  0  0  0  0  0  0
   -7.1319    0.4792    0.2078 C   0  0  0  0  0  0  0  0  0  0  0  0
   -2.6632   -2.3146   -0.3094 C   0  0  0  0  0  0  0  0  0  0  0  0
   -5.8200    0.9900    0.1128 C   0  0  0  0  0  0  0  0  0  0  0  0
   -8.2074    1.3230    0.2914 O   0  0  0  0  0  0  0  0  0  0  0  0
   -1.9077   -1.1968   -0.6658 C   0  0  0  0  0  0  0  0  0  0  0  0
   -1.9961   -3.3698   -0.1772 O   0  0  0  0  0  0  0  0  0  0  0  0
   -8.4400    1.8244    1.6199 C   0  0  0  0  0  0  0  0  0  0  0  0
   -0.6296   -0.9820   -0.2913 C   0  0  0  0  0  0  0  0  0  0  0  0
    0.1289    0.1577   -0.5702 C   0  0  0  0  0  0  0  0  0  0  0  0
   -0.4295    1.4616   -0.5982 C   0  0  0  0  0  0  0  0  0  0  0  0
    1.5255    0.0282   -0.7797 C   0  0  0  0  0  0  0  0  0  0  0  0
    0.3850    2.5939   -0.7932 C   0  0  0  0  0  0  0  0  0  0  0  0
    2.3379    1.1597   -0.9858 C   0  0  0  0  0  0  0  0  0  0  0  0
    1.7697    2.4448   -0.9799 C   0  0  0  0  0  0  0  0  0  0  0  0
   -7.1001   -4.9659    0.8148 H   0  0  0  0  0  0  0  0  0  0  0  0
   -8.1360   -3.5700    0.8451 H   0  0  0  0  0  0  0  0  0  0  0  0
   -7.4962   -5.4188   -2.7907 H   0  0  0  0  0  0  0  0  0  0  0  0
   -8.2845   -1.2852    0.2522 H   0  0  0  0  0  0  0  0  0  0  0  0
   -5.1103   -5.6392    0.0143 H   0  0  0  0  0  0  0  0  0  0  0  0
   -3.7603   -5.0832   -0.9482 H   0  0  0  0  0  0  0  0  0  0  0  0
   -3.6652   -5.0575    0.8321 H   0  0  0  0  0  0  0  0  0  0  0  0
   -3.7933    0.5407    0.0090 H   0  0  0  0  0  0  0  0  0  0  0  0
   -5.6672    2.0032    0.1244 H   0  0  0  0  0  0  0  0  0  0  0  0
   -2.3429   -0.5278   -1.2488 H   0  0  0  0  0  0  0  0  0  0  0  0
   -9.3266    2.4570    1.5896 H   0  0  0  0  0  0  0  0  0  0  0  0
   -8.6277    1.0126    2.3277 H   0  0  0  0  0  0  0  0  0  0  0  0
   -7.6022    2.4345    1.9679 H   0  0  0  0  0  0  0  0  0  0  0  0
   -0.1762   -1.6914    0.2407 H   0  0  0  0  0  0  0  0  0  0  0  0
   -1.4306    1.6067   -0.4555 H   0  0  0  0  0  0  0  0  0  0  0  0
    1.9684   -0.8949   -0.7858 H   0  0  0  0  0  0  0  0  0  0  0  0
   -0.0285    3.5284   -0.7922 H   0  0  0  0  0  0  0  0  0  0  0  0
    3.3434    1.0489   -1.1355 H   0  0  0  0  0  0  0  0  0  0  0  0
    2.3609    3.2696   -1.1080 H   0  0  0  0  0  0  0  0  0  0  0  0
  1  2  1  0  0  0  0 
  1  3  1  0  0  0  0 
  2  4  1  0  0  0  0 
  2  5  2  0  0  0  0 
  3  6  1  0  0  0  0 
  3  7  2  0  0  0  0 
  6  8  1  0  0  0  0 
  6  9  2  0  0  0  0 
  7 10  1  0  0  0  0 
  7 11  1  0  0  0  0 
  8 11  1  0  0  0  0 
  8 12  2  0  0  0  0 
  9 13  1  0  0  0  0 
 11 14  1  0  0  0  0 
 12 15  1  0  0  0  0 
 13 15  2  0  0  0  0 
 13 16  1  0  0  0  0 
 14 17  1  0  0  0  0 
 14 18  2  0  0  0  0 
 16 19  1  0  0  0  0 
 17 20  2  0  0  0  0 
 20 21  1  0  0  0  0 
 21 22  2  0  0  0  0 
 21 23  1  0  0  0  0 
 22 24  1  0  0  0  0 
 23 25  2  0  0  0  0 
 24 26  2  0  0  0  0 
 25 26  1  0  0  0  0 
  1 27  1  0  0  0  0 
  1 28  1  0  0  0  0 
  4 29  1  0  0  0  0 
  9 30  1  0  0  0  0 
 10 31  1  0  0  0  0 
 10 32  1  0  0  0  0 
 10 33  1  0  0  0  0 
 12 34  1  0  0  0  0 
 15 35  1  0  0  0  0 
 17 36  1  0  0  0  0 
 19 37  1  0  0  0  0 
 19 38  1  0  0  0  0 
 19 39  1  0  0  0  0 
 20 40  1  0  0  0  0 
 22 41  1  0  0  0  0 
 23 42  1  0  0  0  0 
 24 43  1  0  0  0  0 
 25 44  1  0  0  0  0 
 26 45  1  0  0  0  0 
M  END
> <cdk:Title>
cinmetacin

> <Conformer>
1

> <SuperDrugID>
SD003171

$$$$
