isoflupredone acetate
  CDK     0628171802

 59 62  0  0  0  0  0  0  0  0999 V2000
   -3.8753    1.4047   -2.4692 C   0  0  0  0  0  0  0  0  0  0  0  0
   -3.3382    1.0094   -1.3038 C   0  0  0  0  0  0  0  0  0  0  0  0
   -3.0928   -0.3277   -1.0598 C   0  0  0  0  0  0  0  0  0  0  0  0
   -3.4299   -1.2935   -1.9939 C   0  0  0  0  0  0  0  0  0  0  0  0
   -3.9758   -0.9672   -3.1877 C   0  0  0  0  0  0  0  0  0  0  0  0
   -4.2263    0.4660   -3.5665 C   0  0  1  0  0  0  0  0  0  0  0  0
   -4.3646   -2.0257   -4.1309 C   0  0  2  0  0  0  0  0  0  0  0  0
   -5.8584   -1.9113   -4.5293 C   0  0  2  0  0  0  0  0  0  0  0  0
   -6.2276   -0.4750   -5.0156 C   0  0  2  0  0  0  0  0  0  0  0  0
   -5.7783    0.6106   -3.9486 C   0  0  2  0  0  0  0  0  0  0  0  0
   -6.2833    2.0571   -4.3483 C   0  0  2  0  0  0  0  0  0  0  0  0
   -7.7897    2.1205   -4.7750 C   0  0  1  0  0  0  0  0  0  0  0  0
   -8.1793    1.0749   -5.8799 C   0  0  1  0  0  0  0  0  0  0  0  0
   -7.7583   -0.3364   -5.3399 C   0  0  1  0  0  0  0  0  0  0  0  0
   -8.4400   -1.3147   -6.3223 C   0  0  1  0  0  0  0  0  0  0  0  0
   -9.7563   -0.5958   -6.7351 C   0  0  2  0  0  0  0  0  0  0  0  0
   -9.7336    0.8266   -6.0793 C   0  0  2  0  0  0  0  0  0  0  0  0
   -2.5673   -0.6680    0.0262 O   0  0  0  0  0  0  0  0  0  0  0  0
   -5.4847    2.6528   -5.3658 O   0  0  0  0  0  0  0  0  0  0  0  0
   -3.2212    0.8264   -4.7230 C   0  0  0  0  0  0  0  0  0  0  0  0
  -10.5504    1.8475   -6.8198 C   0  0  0  0  0  0  0  0  0  0  0  0
  -10.0451    2.9150   -7.2359 O   0  0  0  0  0  0  0  0  0  0  0  0
  -11.9965    1.6738   -7.0944 C   0  0  1  0  0  0  0  0  0  0  0  0
  -10.3748    0.7307   -4.7946 O   0  0  0  0  0  0  0  0  0  0  0  0
   -7.4838    1.4642   -7.2503 C   0  0  0  0  0  0  0  0  0  0  0  0
   -6.4765    0.3327   -2.7782 F   0  0  0  0  0  0  0  0  0  0  0  0
  -12.1862    1.3350   -8.4743 O   0  0  0  0  0  0  0  0  0  0  0  0
  -13.1069    1.8380   -9.3483 C   0  0  0  0  0  0  0  0  0  0  0  0
  -13.1207    1.3113  -10.7215 C   0  0  0  0  0  0  0  0  0  0  0  0
  -13.9421    2.7069   -9.0027 O   0  0  0  0  0  0  0  0  0  0  0  0
   -4.0219    2.3801   -2.5981 H   0  0  0  0  0  0  0  0  0  0  0  0
   -3.1098    1.6884   -0.6140 H   0  0  0  0  0  0  0  0  0  0  0  0
   -3.2638   -2.2463   -1.7603 H   0  0  0  0  0  0  0  0  0  0  0  0
   -4.2032   -3.0303   -3.7262 H   0  0  0  0  0  0  0  0  0  0  0  0
   -3.7484   -1.9528   -5.0294 H   0  0  0  0  0  0  0  0  0  0  0  0
   -6.4794   -2.1915   -3.6731 H   0  0  0  0  0  0  0  0  0  0  0  0
   -6.0572   -2.6327   -5.3265 H   0  0  0  0  0  0  0  0  0  0  0  0
   -5.6697   -0.3240   -5.9387 H   0  0  0  0  0  0  0  0  0  0  0  0
   -6.1840    2.7173   -3.4828 H   0  0  0  0  0  0  0  0  0  0  0  0
   -8.3906    1.9542   -3.8772 H   0  0  0  0  0  0  0  0  0  0  0  0
   -8.0313    3.1295   -5.1194 H   0  0  0  0  0  0  0  0  0  0  0  0
   -8.2569   -0.5155   -4.3757 H   0  0  0  0  0  0  0  0  0  0  0  0
   -7.8055   -1.4866   -7.1950 H   0  0  0  0  0  0  0  0  0  0  0  0
   -8.6454   -2.2768   -5.8435 H   0  0  0  0  0  0  0  0  0  0  0  0
  -10.6249   -1.1702   -6.4015 H   0  0  0  0  0  0  0  0  0  0  0  0
   -9.8047   -0.5197   -7.8275 H   0  0  0  0  0  0  0  0  0  0  0  0
   -5.8248    3.5681   -5.4613 H   0  0  0  0  0  0  0  0  0  0  0  0
   -3.4702    0.3261   -5.6574 H   0  0  0  0  0  0  0  0  0  0  0  0
   -3.1904    1.8972   -4.9298 H   0  0  0  0  0  0  0  0  0  0  0  0
   -2.2017    0.5325   -4.4551 H   0  0  0  0  0  0  0  0  0  0  0  0
  -12.4178    0.8648   -6.4958 H   0  0  0  0  0  0  0  0  0  0  0  0
  -12.5307    2.5869   -6.8218 H   0  0  0  0  0  0  0  0  0  0  0  0
  -11.2720    0.3733   -4.9636 H   0  0  0  0  0  0  0  0  0  0  0  0
   -7.6303    2.5188   -7.4820 H   0  0  0  0  0  0  0  0  0  0  0  0
   -7.8728    0.8907   -8.0903 H   0  0  0  0  0  0  0  0  0  0  0  0
   -6.4111    1.3027   -7.2387 H   0  0  0  0  0  0  0  0  0  0  0  0
  -13.9795    1.6891  -11.2813 H   0  0  0  0  0  0  0  0  0  0  0  0
  -12.2061    1.6069  -11.2366 H   0  0  0  0  0  0  0  0  0  0  0  0
  -13.1753    0.2216  -10.6970 H   0  0  0  0  0  0  0  0  0  0  0  0
  1  2  2  0  0  0  0 
  6  1  1  0  0  0  0 
  2  3  1  0  0  0  0 
  3  4  1  0  0  0  0 
  4  5  2  0  0  0  0 
  6  5  1  0  0  0  0 
  7  8  1  0  0  0  0 
  9  8  1  0  0  0  0 
 10  9  1  0  0  0  0 
  5  7  1  0  0  0  0 
 10  6  1  0  0  0  0 
 11 12  1  0  0  0  0 
 13 12  1  0  0  0  0 
 14 13  1  0  0  0  0 
  9 14  1  0  0  0  0 
 10 11  1  0  0  0  0 
 15 16  1  0  0  0  0 
 17 16  1  0  0  0  0 
 13 17  1  0  0  0  0 
 14 15  1  0  0  0  0 
  3 18  2  0  0  0  0 
 11 19  1  0  0  0  0 
  6 20  1  0  0  0  0 
 17 21  1  0  0  0  0 
 21 22  2  0  0  0  0 
 21 23  1  0  0  0  0 
 17 24  1  0  0  0  0 
 13 25  1  0  0  0  0 
 10 26  1  0  0  0  0 
 23 27  1  0  0  0  0 
 27 28  1  0  0  0  0 
 28 29  1  0  0  0  0 
 28 30  2  0  0  0  0 
 31  1  1  0  0  0  0 
 32  2  1  0  0  0  0 
 33  4  1  0  0  0  0 
 34  7  1  0  0  0  0 
 35  7  1  0  0  0  0 
 36  8  1  0  0  0  0 
 37  8  1  0  0  0  0 
  9 38  1  0  0  0  0 
 11 39  1  0  0  0  0 
 40 12  1  0  0  0  0 
 41 12  1  0  0  0  0 
 14 42  1  0  0  0  0 
 43 15  1  0  0  0  0 
 44 15  1  0  0  0  0 
 45 16  1  0  0  0  0 
 46 16  1  0  0  0  0 
 47 19  1  0  0  0  0 
 48 20  1  0  0  0  0 
 49 20  1  0  0  0  0 
 50 20  1  0  0  0  0 
 51 23  1  0  0  0  0 
 52 23  1  0  0  0  0 
 53 24  1  0  0  0  0 
 54 25  1  0  0  0  0 
 55 25  1  0  0  0  0 
 56 25  1  0  0  0  0 
 57 29  1  0  0  0  0 
 58 29  1  0  0  0  0 
 59 29  1  0  0  0  0 
M  END
> <cdk:Title>
isoflupredone acetate

> <Conformer>
1

> <SuperDrugID>
SD003863

$$$$
