fluconazole
  CDK     0628171801

 34 36  0  0  0  0  0  0  0  0999 V2000
   -2.3037   -0.3180   -0.2919 C   0  0  1  0  0  0  0  0  0  0  0  0
   -2.9013   -1.6938    0.1639 C   0  0  1  0  0  0  0  0  0  0  0  0
   -1.2688    0.2074    0.7632 C   0  0  2  0  0  0  0  0  0  0  0  0
   -1.5374   -0.6206   -1.4676 O   0  0  0  0  0  0  0  0  0  0  0  0
   -3.3903    0.6941   -0.5882 C   0  0  0  0  0  0  0  0  0  0  0  0
   -3.7765   -2.2902   -0.8018 N   0  0  0  0  0  0  0  0  0  0  0  0
   -0.7482    1.5170    0.4897 N   0  0  0  0  0  0  0  0  0  0  0  0
   -4.2894    1.1495    0.4172 C   0  0  0  0  0  0  0  0  0  0  0  0
   -3.5676    1.2210   -1.8966 C   0  0  0  0  0  0  0  0  0  0  0  0
   -3.4424   -3.2041   -1.7316 C   0  0  0  0  0  0  0  0  0  0  0  0
   -5.0414   -2.0334   -0.9132 N   0  0  0  0  0  0  0  0  0  0  0  0
   -0.7983    2.5845    1.3098 C   0  0  0  0  0  0  0  0  0  0  0  0
   -0.1245    1.8633   -0.5921 N   0  0  0  0  0  0  0  0  0  0  0  0
   -4.2072    0.7530    1.6577 F   0  0  0  0  0  0  0  0  0  0  0  0
   -5.3248    2.0561    0.1183 C   0  0  0  0  0  0  0  0  0  0  0  0
   -4.5969    2.1320   -2.1960 C   0  0  0  0  0  0  0  0  0  0  0  0
   -4.5280   -3.5322   -2.4426 N   0  0  0  0  0  0  0  0  0  0  0  0
   -5.5117   -2.7929   -1.9142 C   0  0  0  0  0  0  0  0  0  0  0  0
   -0.1964    3.6272    0.7250 N   0  0  0  0  0  0  0  0  0  0  0  0
    0.2139    3.1552   -0.4595 C   0  0  0  0  0  0  0  0  0  0  0  0
   -5.4826    2.5465   -1.1883 C   0  0  0  0  0  0  0  0  0  0  0  0
   -6.4476    3.3821   -1.4619 F   0  0  0  0  0  0  0  0  0  0  0  0
   -2.0806   -2.3855    0.3768 H   0  0  0  0  0  0  0  0  0  0  0  0
   -3.4454   -1.5916    1.1046 H   0  0  0  0  0  0  0  0  0  0  0  0
   -0.4191   -0.4804    0.8068 H   0  0  0  0  0  0  0  0  0  0  0  0
   -1.7198    0.1912    1.7598 H   0  0  0  0  0  0  0  0  0  0  0  0
   -0.9125   -1.3277   -1.2027 H   0  0  0  0  0  0  0  0  0  0  0  0
   -2.9505    0.9462   -2.6628 H   0  0  0  0  0  0  0  0  0  0  0  0
   -2.5072   -3.5908   -1.8815 H   0  0  0  0  0  0  0  0  0  0  0  0
   -1.2214    2.6067    2.2412 H   0  0  0  0  0  0  0  0  0  0  0  0
   -5.9679    2.3579    0.8553 H   0  0  0  0  0  0  0  0  0  0  0  0
   -4.7000    2.4878   -3.1503 H   0  0  0  0  0  0  0  0  0  0  0  0
   -6.4824   -2.8092   -2.2281 H   0  0  0  0  0  0  0  0  0  0  0  0
    0.7129    3.7025   -1.1630 H   0  0  0  0  0  0  0  0  0  0  0  0
  1  2  1  0  0  0  0 
  1  3  1  0  0  0  0 
  1  4  1  0  0  0  0 
  1  5  1  0  0  0  0 
  2  6  1  0  0  0  0 
  3  7  1  0  0  0  0 
  5  8  2  0  0  0  0 
  5  9  1  0  0  0  0 
  6 10  1  0  0  0  0 
  6 11  1  0  0  0  0 
  7 12  1  0  0  0  0 
  7 13  1  0  0  0  0 
  8 14  1  0  0  0  0 
  8 15  1  0  0  0  0 
  9 16  2  0  0  0  0 
 10 17  2  0  0  0  0 
 11 18  2  0  0  0  0 
 12 19  2  0  0  0  0 
 13 20  2  0  0  0  0 
 15 21  2  0  0  0  0 
 16 21  1  0  0  0  0 
 17 18  1  0  0  0  0 
 19 20  1  0  0  0  0 
 21 22  1  0  0  0  0 
  2 23  1  0  0  0  0 
  2 24  1  0  0  0  0 
  3 25  1  0  0  0  0 
  3 26  1  0  0  0  0 
  4 27  1  0  0  0  0 
  9 28  1  0  0  0  0 
 10 29  1  0  0  0  0 
 12 30  1  0  0  0  0 
 15 31  1  0  0  0  0 
 16 32  1  0  0  0  0 
 18 33  1  0  0  0  0 
 20 34  1  0  0  0  0 
M  END
> <cdk:Title>
fluconazole

> <Conformer>
1

> <SuperDrugID>
SD001062

$$$$
