ethambutol
  CDK     0628171801

 38 37  0  0  0  0  0  0  0  0999 V2000
    1.9329    1.4611   -0.1677 C   0  0  1  0  0  0  0  0  0  0  0  0
    2.8835    2.1771    0.7302 N   0  0  1  0  0  0  0  0  0  0  0  0
    1.1154    0.4438    0.6886 C   0  0  2  0  0  0  0  0  0  0  0  0
    0.9877    2.4374   -0.9310 C   0  0  2  0  0  0  0  0  0  0  0  0
    3.9036    3.0479    0.1031 C   0  0  2  0  0  0  0  0  0  0  0  0
    1.9681   -0.6464    1.3834 C   0  0  0  0  0  0  0  0  0  0  0  0
    1.6620    3.1227   -1.9832 O   0  0  0  0  0  0  0  0  0  0  0  0
    4.9323    3.5043    1.1554 C   0  0  2  0  0  0  0  0  0  0  0  0
    5.9362    4.3852    0.5111 N   0  0  1  0  0  0  0  0  0  0  0  0
    6.9767    5.0005    1.3777 C   0  0  1  0  0  0  0  0  0  0  0  0
    7.9309    3.9577    2.0442 C   0  0  2  0  0  0  0  0  0  0  0  0
    7.7173    6.0653    0.5207 C   0  0  2  0  0  0  0  0  0  0  0  0
    8.6290    2.9791    1.0690 C   0  0  0  0  0  0  0  0  0  0  0  0
    8.7068    6.7634    1.2690 O   0  0  0  0  0  0  0  0  0  0  0  0
    2.5010    0.8853   -0.9070 H   0  0  0  0  0  0  0  0  0  0  0  0
    2.3329    2.7549    1.3684 H   0  0  0  0  0  0  0  0  0  0  0  0
    0.3932   -0.0712    0.0463 H   0  0  0  0  0  0  0  0  0  0  0  0
    0.5491    0.9817    1.4551 H   0  0  0  0  0  0  0  0  0  0  0  0
    0.5713    3.1755   -0.2415 H   0  0  0  0  0  0  0  0  0  0  0  0
    0.1633    1.8886   -1.3928 H   0  0  0  0  0  0  0  0  0  0  0  0
    3.4270    3.9324   -0.3238 H   0  0  0  0  0  0  0  0  0  0  0  0
    4.4231    2.5020   -0.6914 H   0  0  0  0  0  0  0  0  0  0  0  0
    2.6723   -0.1991    2.0850 H   0  0  0  0  0  0  0  0  0  0  0  0
    1.3173   -1.3264    1.9387 H   0  0  0  0  0  0  0  0  0  0  0  0
    2.5213   -1.2274    0.6436 H   0  0  0  0  0  0  0  0  0  0  0  0
    0.9824    3.7072   -2.3780 H   0  0  0  0  0  0  0  0  0  0  0  0
    5.4145    2.6189    1.5771 H   0  0  0  0  0  0  0  0  0  0  0  0
    4.4177    4.0452    1.9534 H   0  0  0  0  0  0  0  0  0  0  0  0
    6.4152    3.8359   -0.2061 H   0  0  0  0  0  0  0  0  0  0  0  0
    6.4697    5.5480    2.1800 H   0  0  0  0  0  0  0  0  0  0  0  0
    7.3576    3.3670    2.7621 H   0  0  0  0  0  0  0  0  0  0  0  0
    8.6989    4.4816    2.6166 H   0  0  0  0  0  0  0  0  0  0  0  0
    6.9995    6.8047    0.1578 H   0  0  0  0  0  0  0  0  0  0  0  0
    8.1931    5.5996   -0.3454 H   0  0  0  0  0  0  0  0  0  0  0  0
    9.2336    2.2646    1.6308 H   0  0  0  0  0  0  0  0  0  0  0  0
    9.2839    3.5203    0.3861 H   0  0  0  0  0  0  0  0  0  0  0  0
    7.8923    2.4201    0.4901 H   0  0  0  0  0  0  0  0  0  0  0  0
    9.0496    7.4455    0.6535 H   0  0  0  0  0  0  0  0  0  0  0  0
  1  2  1  0  0  0  0 
  1  3  1  0  0  0  0 
  1  4  1  0  0  0  0 
  2  5  1  0  0  0  0 
  3  6  1  0  0  0  0 
  4  7  1  0  0  0  0 
  5  8  1  0  0  0  0 
  8  9  1  0  0  0  0 
 10  9  1  0  0  0  0 
 10 11  1  0  0  0  0 
 10 12  1  0  0  0  0 
 11 13  1  0  0  0  0 
 12 14  1  0  0  0  0 
  1 15  1  0  0  0  0 
  2 16  1  0  0  0  0 
  3 17  1  0  0  0  0 
  3 18  1  0  0  0  0 
  4 19  1  0  0  0  0 
  4 20  1  0  0  0  0 
  5 21  1  0  0  0  0 
  5 22  1  0  0  0  0 
  6 23  1  0  0  0  0 
  6 24  1  0  0  0  0 
  6 25  1  0  0  0  0 
  7 26  1  0  0  0  0 
  8 27  1  0  0  0  0 
  8 28  1  0  0  0  0 
  9 29  1  0  0  0  0 
 10 30  1  0  0  0  0 
 11 31  1  0  0  0  0 
 11 32  1  0  0  0  0 
 12 33  1  0  0  0  0 
 12 34  1  0  0  0  0 
 13 35  1  0  0  0  0 
 13 36  1  0  0  0  0 
 13 37  1  0  0  0  0 
 14 38  1  0  0  0  0 
M  END
> <cdk:Title>
ethambutol

> <Conformer>
1

> <SuperDrugID>
SD000958

$$$$
