lofexidine
  CDK     0628171801

 28 29  0  0  0  0  0  0  0  0999 V2000
    0.3718   -0.9292   -0.6556 O   0  0  0  0  0  0  0  0  0  0  0  0
    1.1759   -1.8795   -1.4039 C   0  0  2  0  0  0  0  0  0  0  0  0
    0.9057    0.3351   -0.5508 C   0  0  0  0  0  0  0  0  0  0  0  0
    0.3134   -3.1474   -1.6124 C   0  0  0  0  0  0  0  0  0  0  0  0
    2.4661   -2.1440   -0.7737 C   0  0  0  0  0  0  0  0  0  0  0  0
    0.8006    1.2640   -1.6153 C   0  0  0  0  0  0  0  0  0  0  0  0
    1.5675    0.7137    0.6420 C   0  0  0  0  0  0  0  0  0  0  0  0
    3.5009   -1.4169   -0.9687 N   0  0  0  0  0  0  0  0  0  0  0  0
    2.7312   -3.0932    0.0912 N   0  0  0  0  0  0  0  0  0  0  0  0
   -0.0876    0.9027   -3.0135 Cl  0  0  0  0  0  0  0  0  0  0  0  0
    1.4257    2.5228   -1.5150 C   0  0  0  0  0  0  0  0  0  0  0  0
    1.6253   -0.3232    1.9839 Cl  0  0  0  0  0  0  0  0  0  0  0  0
    2.1859    1.9760    0.7327 C   0  0  0  0  0  0  0  0  0  0  0  0
    4.5970   -1.8214   -0.2330 C   0  0  2  0  0  0  0  0  0  0  0  0
    4.0715   -3.0584    0.5227 C   0  0  1  0  0  0  0  0  0  0  0  0
    2.1264    2.8729   -0.3482 C   0  0  0  0  0  0  0  0  0  0  0  0
    1.3689   -1.4967   -2.4104 H   0  0  0  0  0  0  0  0  0  0  0  0
   -0.5953   -2.8879   -2.1596 H   0  0  0  0  0  0  0  0  0  0  0  0
    0.8627   -3.8903   -2.1943 H   0  0  0  0  0  0  0  0  0  0  0  0
    0.0243   -3.5854   -0.6548 H   0  0  0  0  0  0  0  0  0  0  0  0
    2.0827   -3.7438    0.3961 H   0  0  0  0  0  0  0  0  0  0  0  0
    1.3696    3.1943   -2.2853 H   0  0  0  0  0  0  0  0  0  0  0  0
    2.6765    2.2516    1.5858 H   0  0  0  0  0  0  0  0  0  0  0  0
    4.9019   -1.0288    0.4555 H   0  0  0  0  0  0  0  0  0  0  0  0
    5.4268   -2.0690   -0.8990 H   0  0  0  0  0  0  0  0  0  0  0  0
    4.1293   -2.9311    1.6061 H   0  0  0  0  0  0  0  0  0  0  0  0
    4.5882   -3.9718    0.2205 H   0  0  0  0  0  0  0  0  0  0  0  0
    2.5843    3.7848   -0.2820 H   0  0  0  0  0  0  0  0  0  0  0  0
  2  1  1  0  0  0  0 
  1  3  1  0  0  0  0 
  2  4  1  0  0  0  0 
  2  5  1  0  0  0  0 
  3  6  2  0  0  0  0 
  3  7  1  0  0  0  0 
  5  8  2  0  0  0  0 
  5  9  1  0  0  0  0 
  6 10  1  0  0  0  0 
  6 11  1  0  0  0  0 
  7 12  1  0  0  0  0 
  7 13  2  0  0  0  0 
  8 14  1  0  0  0  0 
  9 15  1  0  0  0  0 
 11 16  2  0  0  0  0 
 13 16  1  0  0  0  0 
 14 15  1  0  0  0  0 
 17  2  1  0  0  0  0 
 18  4  1  0  0  0  0 
 19  4  1  0  0  0  0 
 20  4  1  0  0  0  0 
 21  9  1  0  0  0  0 
 22 11  1  0  0  0  0 
 23 13  1  0  0  0  0 
 24 14  1  0  0  0  0 
 25 14  1  0  0  0  0 
 26 15  1  0  0  0  0 
 27 15  1  0  0  0  0 
 28 16  1  0  0  0  0 
M  END
> <cdk:Title>
lofexidine

> <Conformer>
1

> <SuperDrugID>
SD001407

$$$$
