crotetamide
  CDK     0628171802

 38 37  0  0  0  0  0  0  0  0999 V2000
    0.4250    1.1296    0.6237 C   0  0  1  0  0  0  0  0  0  0  0  0
   -0.6837    0.2750    1.0914 N   0  0  0  0  0  0  0  0  0  0  0  0
    1.2058    0.4360   -0.4617 C   0  0  0  0  0  0  0  0  0  0  0  0
   -0.0995    2.5644    0.2768 C   0  0  2  0  0  0  0  0  0  0  0  0
   -1.5928   -0.2916    0.1766 C   0  0  0  0  0  0  0  0  0  0  0  0
   -0.8389    0.0643    2.5291 C   0  0  2  0  0  0  0  0  0  0  0  0
    2.0101   -0.6853   -0.2669 N   0  0  0  0  0  0  0  0  0  0  0  0
    1.0467    0.8702   -1.6288 O   0  0  0  0  0  0  0  0  0  0  0  0
    1.0089    3.6107    0.0040 C   0  0  0  0  0  0  0  0  0  0  0  0
   -2.5107   -1.3169    0.4523 C   0  0  0  0  0  0  0  0  0  0  0  0
   -1.5856    0.1296   -1.0065 O   0  0  0  0  0  0  0  0  0  0  0  0
   -2.1014    0.7516    3.1027 C   0  0  0  0  0  0  0  0  0  0  0  0
    2.4783   -1.4748   -1.3913 C   0  0  0  0  0  0  0  0  0  0  0  0
    2.3909   -1.1153    1.0600 C   0  0  0  0  0  0  0  0  0  0  0  0
   -3.3814   -1.8481   -0.4299 C   0  0  0  0  0  0  0  0  0  0  0  0
   -4.3093   -2.9174   -0.1152 C   0  0  0  0  0  0  0  0  0  0  0  0
    1.1494    1.3064    1.4233 H   0  0  0  0  0  0  0  0  0  0  0  0
   -0.6911    2.9360    1.1161 H   0  0  0  0  0  0  0  0  0  0  0  0
   -0.7596    2.5279   -0.5913 H   0  0  0  0  0  0  0  0  0  0  0  0
    0.0094    0.4535    3.0994 H   0  0  0  0  0  0  0  0  0  0  0  0
   -0.8687   -1.0033    2.7598 H   0  0  0  0  0  0  0  0  0  0  0  0
    1.6064    3.7781    0.9016 H   0  0  0  0  0  0  0  0  0  0  0  0
    0.5573    4.5596   -0.2904 H   0  0  0  0  0  0  0  0  0  0  0  0
    1.6681    3.2836   -0.8000 H   0  0  0  0  0  0  0  0  0  0  0  0
   -2.5181   -1.7021    1.3632 H   0  0  0  0  0  0  0  0  0  0  0  0
   -2.1000    0.6874    4.1920 H   0  0  0  0  0  0  0  0  0  0  0  0
   -2.1239    1.8042    2.8186 H   0  0  0  0  0  0  0  0  0  0  0  0
   -3.0085    0.2731    2.7354 H   0  0  0  0  0  0  0  0  0  0  0  0
    1.8167   -2.3343   -1.5205 H   0  0  0  0  0  0  0  0  0  0  0  0
    2.5033   -0.9268   -2.3362 H   0  0  0  0  0  0  0  0  0  0  0  0
    3.4900   -1.8461   -1.2205 H   0  0  0  0  0  0  0  0  0  0  0  0
    3.0141   -0.3502    1.5298 H   0  0  0  0  0  0  0  0  0  0  0  0
    2.9618   -2.0473    1.0563 H   0  0  0  0  0  0  0  0  0  0  0  0
    1.5118   -1.2869    1.6777 H   0  0  0  0  0  0  0  0  0  0  0  0
   -3.4086   -1.5077   -1.3648 H   0  0  0  0  0  0  0  0  0  0  0  0
   -5.3198   -2.6178   -0.4014 H   0  0  0  0  0  0  0  0  0  0  0  0
   -4.3152   -3.1735    0.9472 H   0  0  0  0  0  0  0  0  0  0  0  0
   -4.0334   -3.8077   -0.6835 H   0  0  0  0  0  0  0  0  0  0  0  0
  1  2  1  0  0  0  0 
  1  3  1  0  0  0  0 
  1  4  1  0  0  0  0 
  2  5  1  0  0  0  0 
  2  6  1  0  0  0  0 
  3  7  1  0  0  0  0 
  3  8  2  0  0  0  0 
  4  9  1  0  0  0  0 
  5 10  1  0  0  0  0 
  5 11  2  0  0  0  0 
  6 12  1  0  0  0  0 
  7 13  1  0  0  0  0 
  7 14  1  0  0  0  0 
 10 15  2  0  0  0  0 
 15 16  1  0  0  0  0 
  1 17  1  0  0  0  0 
  4 18  1  0  0  0  0 
  4 19  1  0  0  0  0 
  6 20  1  0  0  0  0 
  6 21  1  0  0  0  0 
  9 22  1  0  0  0  0 
  9 23  1  0  0  0  0 
  9 24  1  0  0  0  0 
 10 25  1  0  0  0  0 
 12 26  1  0  0  0  0 
 12 27  1  0  0  0  0 
 12 28  1  0  0  0  0 
 13 29  1  0  0  0  0 
 13 30  1  0  0  0  0 
 13 31  1  0  0  0  0 
 14 32  1  0  0  0  0 
 14 33  1  0  0  0  0 
 14 34  1  0  0  0  0 
 15 35  1  0  0  0  0 
 16 36  1  0  0  0  0 
 16 37  1  0  0  0  0 
 16 38  1  0  0  0  0 
M  END
> <cdk:Title>
crotetamide

> <Conformer>
1

> <SuperDrugID>
SD000655

$$$$
