sufentanil
  CDK     0628171801

 57 59  0  0  0  0  0  0  0  0999 V2000
   -6.3292   -3.0949    2.3626 N   0  0  0  0  0  0  0  0  0  0  0  0
   -7.7282   -2.9647    2.3681 C   0  0  0  0  0  0  0  0  0  0  0  0
   -5.3999   -1.9557    2.0910 C   0  0  1  0  0  0  0  0  0  0  0  0
   -5.8537   -4.3805    2.5234 C   0  0  0  0  0  0  0  0  0  0  0  0
   -8.7428   -4.0256    2.6619 C   0  0  2  0  0  0  0  0  0  0  0  0
   -8.2717   -1.8791    2.0602 O   0  0  0  0  0  0  0  0  0  0  0  0
   -5.6089   -1.4754    0.6008 C   0  0  1  0  0  0  0  0  0  0  0  0
   -5.6589   -0.7242    3.0479 C   0  0  2  0  0  0  0  0  0  0  0  0
   -3.8501   -2.2709    2.2419 C   0  0  1  0  0  0  0  0  0  0  0  0
   -5.6557   -5.2049    1.3888 C   0  0  0  0  0  0  0  0  0  0  0  0
   -5.6472   -4.9406    3.8069 C   0  0  0  0  0  0  0  0  0  0  0  0
   -9.6701   -3.6618    3.8460 C   0  0  0  0  0  0  0  0  0  0  0  0
   -5.3131   -2.5271   -0.3407 O   0  0  0  0  0  0  0  0  0  0  0  0
   -5.1783   -0.9608    4.4990 C   0  0  1  0  0  0  0  0  0  0  0  0
   -3.3039   -2.3585    3.6993 C   0  0  1  0  0  0  0  0  0  0  0  0
   -5.2350   -6.5396    1.5259 C   0  0  0  0  0  0  0  0  0  0  0  0
   -5.2235   -6.2772    3.9447 C   0  0  0  0  0  0  0  0  0  0  0  0
   -5.6016   -2.2250   -1.7169 C   0  0  0  0  0  0  0  0  0  0  0  0
   -3.7051   -1.2044    4.5653 N   0  0  1  0  0  0  0  0  0  0  0  0
   -5.0196   -7.0770    2.8057 C   0  0  0  0  0  0  0  0  0  0  0  0
   -2.7892   -0.0115    4.5054 C   0  0  1  0  0  0  0  0  0  0  0  0
   -3.0081    1.0681    5.6040 C   0  0  1  0  0  0  0  0  0  0  0  0
   -3.1196    0.4836    6.9526 C   0  0  0  0  0  0  0  0  0  0  0  0
   -4.2342    0.4866    7.8018 C   0  0  0  0  0  0  0  0  0  0  0  0
   -1.8561   -0.3974    7.7939 S   0  0  0  0  0  0  0  0  0  0  0  0
   -4.0792   -0.2193    9.0084 C   0  0  0  0  0  0  0  0  0  0  0  0
   -2.8233   -0.7999    9.1985 C   0  0  0  0  0  0  0  0  0  0  0  0
   -8.2972   -4.9947    2.8800 H   0  0  0  0  0  0  0  0  0  0  0  0
   -9.3626   -4.1624    1.7719 H   0  0  0  0  0  0  0  0  0  0  0  0
   -6.6272   -1.1168    0.4458 H   0  0  0  0  0  0  0  0  0  0  0  0
   -4.9520   -0.6256    0.3876 H   0  0  0  0  0  0  0  0  0  0  0  0
   -6.7062   -0.4366    3.0855 H   0  0  0  0  0  0  0  0  0  0  0  0
   -5.1342    0.1567    2.6710 H   0  0  0  0  0  0  0  0  0  0  0  0
   -3.5889   -3.1871    1.7058 H   0  0  0  0  0  0  0  0  0  0  0  0
   -3.2704   -1.4733    1.7682 H   0  0  0  0  0  0  0  0  0  0  0  0
   -5.8375   -4.8508    0.4499 H   0  0  0  0  0  0  0  0  0  0  0  0
   -5.8145   -4.3781    4.6464 H   0  0  0  0  0  0  0  0  0  0  0  0
  -10.3668   -4.4839    4.0259 H   0  0  0  0  0  0  0  0  0  0  0  0
   -9.0947   -3.4869    4.7583 H   0  0  0  0  0  0  0  0  0  0  0  0
  -10.2523   -2.7664    3.6155 H   0  0  0  0  0  0  0  0  0  0  0  0
   -5.4647   -0.1060    5.1099 H   0  0  0  0  0  0  0  0  0  0  0  0
   -5.7008   -1.8216    4.9214 H   0  0  0  0  0  0  0  0  0  0  0  0
   -3.6533   -3.2676    4.1785 H   0  0  0  0  0  0  0  0  0  0  0  0
   -2.2143   -2.4581    3.6542 H   0  0  0  0  0  0  0  0  0  0  0  0
   -5.0957   -7.1213    0.6952 H   0  0  0  0  0  0  0  0  0  0  0  0
   -5.0733   -6.6711    4.8766 H   0  0  0  0  0  0  0  0  0  0  0  0
   -5.0777   -1.3255   -2.0446 H   0  0  0  0  0  0  0  0  0  0  0  0
   -5.2655   -3.0624   -2.3298 H   0  0  0  0  0  0  0  0  0  0  0  0
   -6.6753   -2.1005   -1.8698 H   0  0  0  0  0  0  0  0  0  0  0  0
   -4.7217   -8.0496    2.9088 H   0  0  0  0  0  0  0  0  0  0  0  0
   -1.7577   -0.3596    4.6177 H   0  0  0  0  0  0  0  0  0  0  0  0
   -2.8533    0.4682    3.5267 H   0  0  0  0  0  0  0  0  0  0  0  0
   -2.1641    1.7627    5.6051 H   0  0  0  0  0  0  0  0  0  0  0  0
   -3.9014    1.6523    5.3711 H   0  0  0  0  0  0  0  0  0  0  0  0
   -5.1082    0.9556    7.5589 H   0  0  0  0  0  0  0  0  0  0  0  0
   -4.8317   -0.3077    9.6927 H   0  0  0  0  0  0  0  0  0  0  0  0
   -2.5228   -1.3582    9.9975 H   0  0  0  0  0  0  0  0  0  0  0  0
  1  2  1  0  0  0  0 
  1  3  1  0  0  0  0 
  1  4  1  0  0  0  0 
  2  5  1  0  0  0  0 
  2  6  2  0  0  0  0 
  3  7  1  0  0  0  0 
  3  8  1  0  0  0  0 
  3  9  1  0  0  0  0 
  4 10  2  0  0  0  0 
  4 11  1  0  0  0  0 
  5 12  1  0  0  0  0 
  7 13  1  0  0  0  0 
  8 14  1  0  0  0  0 
  9 15  1  0  0  0  0 
 10 16  1  0  0  0  0 
 11 17  2  0  0  0  0 
 13 18  1  0  0  0  0 
 14 19  1  0  0  0  0 
 15 19  1  0  0  0  0 
 16 20  2  0  0  0  0 
 17 20  1  0  0  0  0 
 19 21  1  0  0  0  0 
 21 22  1  0  0  0  0 
 22 23  1  0  0  0  0 
 23 24  2  0  0  0  0 
 23 25  1  0  0  0  0 
 24 26  1  0  0  0  0 
 25 27  1  0  0  0  0 
 26 27  2  0  0  0  0 
  5 28  1  0  0  0  0 
  5 29  1  0  0  0  0 
  7 30  1  0  0  0  0 
  7 31  1  0  0  0  0 
  8 32  1  0  0  0  0 
  8 33  1  0  0  0  0 
  9 34  1  0  0  0  0 
  9 35  1  0  0  0  0 
 10 36  1  0  0  0  0 
 11 37  1  0  0  0  0 
 12 38  1  0  0  0  0 
 12 39  1  0  0  0  0 
 12 40  1  0  0  0  0 
 14 41  1  0  0  0  0 
 14 42  1  0  0  0  0 
 15 43  1  0  0  0  0 
 15 44  1  0  0  0  0 
 16 45  1  0  0  0  0 
 17 46  1  0  0  0  0 
 18 47  1  0  0  0  0 
 18 48  1  0  0  0  0 
 18 49  1  0  0  0  0 
 20 50  1  0  0  0  0 
 21 51  1  0  0  0  0 
 21 52  1  0  0  0  0 
 22 53  1  0  0  0  0 
 22 54  1  0  0  0  0 
 24 55  1  0  0  0  0 
 26 56  1  0  0  0  0 
 27 57  1  0  0  0  0 
M  END
> <cdk:Title>
sufentanil

> <Conformer>
1

> <SuperDrugID>
SD002238

$$$$
