adefovir dipivoxil
  CDK     0628171802

 66 67  0  0  0  0  0  0  0  0999 V2000
    0.9597    5.1065   -4.4667 C   0  0  1  0  0  0  0  0  0  0  0  0
    0.9078    3.6239   -4.8970 C   0  0  1  0  0  0  0  0  0  0  0  0
    2.1982    5.4143   -3.8128 N   0  0  0  0  0  0  0  0  0  0  0  0
    1.0344    2.7839   -3.7311 O   0  0  0  0  0  0  0  0  0  0  0  0
    2.4671    5.3180   -2.4995 C   0  0  0  0  0  0  0  0  0  0  0  0
    3.3381    5.8384   -4.4027 C   0  0  0  0  0  0  0  0  0  0  0  0
    1.1311    1.3790   -4.0167 C   0  0  2  0  0  0  0  0  0  0  0  0
    3.7959    5.6837   -2.3198 C   0  0  0  0  0  0  0  0  0  0  0  0
    1.6915    4.9459   -1.4493 N   0  0  0  0  0  0  0  0  0  0  0  0
    4.3287    6.0082   -3.5058 N   0  0  0  0  0  0  0  0  0  0  0  0
    1.0100    0.4821   -2.5606 P   0  0  1  0  0  0  0  0  0  0  0  0
    4.3393    5.6577   -1.0241 C   0  0  0  0  0  0  0  0  0  0  0  0
    2.2235    4.9322   -0.1956 C   0  0  0  0  0  0  0  0  0  0  0  0
    2.3446    0.7085   -1.6956 O   0  0  0  0  0  0  0  0  0  0  0  0
   -0.2323    1.0669   -1.7291 O   0  0  0  0  0  0  0  0  0  0  0  0
    0.7753   -0.9358   -2.8779 O   0  0  0  0  0  0  0  0  0  0  0  0
    5.6204    5.9855   -0.7883 N   0  0  0  0  0  0  0  0  0  0  0  0
    3.5267    5.2823    0.0026 N   0  0  0  0  0  0  0  0  0  0  0  0
    2.9906   -0.4881   -1.2158 C   0  0  2  0  0  0  0  0  0  0  0  0
   -0.6175    0.3234   -0.5580 C   0  0  2  0  0  0  0  0  0  0  0  0
    4.1484   -0.1489   -0.4345 O   0  0  0  0  0  0  0  0  0  0  0  0
    0.2836    0.5297    0.5379 O   0  0  0  0  0  0  0  0  0  0  0  0
    4.9988   -1.0568    0.1477 C   0  0  0  0  0  0  0  0  0  0  0  0
    0.1747   -0.0494    1.7745 C   0  0  0  0  0  0  0  0  0  0  0  0
    6.2284   -0.6066    0.8816 C   0  0  2  0  0  0  0  0  0  0  0  0
    4.7194   -2.2788    0.0662 O   0  0  0  0  0  0  0  0  0  0  0  0
    1.1947    0.1867    2.8449 C   0  0  1  0  0  0  0  0  0  0  0  0
   -0.7839   -0.8298    1.9987 O   0  0  0  0  0  0  0  0  0  0  0  0
    5.8145   -0.0746    2.2895 C   0  0  0  0  0  0  0  0  0  0  0  0
    6.9466    0.5283    0.0817 C   0  0  0  0  0  0  0  0  0  0  0  0
    7.2432   -1.7842    1.0714 C   0  0  0  0  0  0  0  0  0  0  0  0
    2.1588    1.3598    2.4659 C   0  0  0  0  0  0  0  0  0  0  0  0
    0.4917    0.5498    4.1943 C   0  0  0  0  0  0  0  0  0  0  0  0
    2.0193   -1.1267    3.0322 C   0  0  0  0  0  0  0  0  0  0  0  0
    0.8361    5.7407   -5.3501 H   0  0  0  0  0  0  0  0  0  0  0  0
    0.1187    5.3159   -3.7995 H   0  0  0  0  0  0  0  0  0  0  0  0
   -0.0500    3.4346   -5.3902 H   0  0  0  0  0  0  0  0  0  0  0  0
    1.7112    3.4308   -5.6144 H   0  0  0  0  0  0  0  0  0  0  0  0
    3.4478    6.0095   -5.4048 H   0  0  0  0  0  0  0  0  0  0  0  0
    2.0862    1.1486   -4.4957 H   0  0  0  0  0  0  0  0  0  0  0  0
    0.3159    1.0589   -4.6714 H   0  0  0  0  0  0  0  0  0  0  0  0
    1.6448    4.6590    0.5988 H   0  0  0  0  0  0  0  0  0  0  0  0
    5.9706    5.9541    0.1162 H   0  0  0  0  0  0  0  0  0  0  0  0
    6.1986    6.2519   -1.5208 H   0  0  0  0  0  0  0  0  0  0  0  0
    3.3227   -1.0992   -2.0611 H   0  0  0  0  0  0  0  0  0  0  0  0
    2.3137   -1.0724   -0.5863 H   0  0  0  0  0  0  0  0  0  0  0  0
   -0.7189   -0.7472   -0.7694 H   0  0  0  0  0  0  0  0  0  0  0  0
   -1.5991    0.6923   -0.2559 H   0  0  0  0  0  0  0  0  0  0  0  0
    5.1784    0.8076    2.2059 H   0  0  0  0  0  0  0  0  0  0  0  0
    5.2679   -0.8380    2.8512 H   0  0  0  0  0  0  0  0  0  0  0  0
    6.6950    0.2095    2.8729 H   0  0  0  0  0  0  0  0  0  0  0  0
    6.3048    1.4052   -0.0253 H   0  0  0  0  0  0  0  0  0  0  0  0
    7.2169    0.1817   -0.9178 H   0  0  0  0  0  0  0  0  0  0  0  0
    7.8601    0.8464    0.5916 H   0  0  0  0  0  0  0  0  0  0  0  0
    7.5278   -2.2021    0.1028 H   0  0  0  0  0  0  0  0  0  0  0  0
    6.8065   -2.5875    1.6710 H   0  0  0  0  0  0  0  0  0  0  0  0
    8.1530   -1.4460    1.5743 H   0  0  0  0  0  0  0  0  0  0  0  0
    2.9217    1.5001    3.2351 H   0  0  0  0  0  0  0  0  0  0  0  0
    2.6648    1.1634    1.5192 H   0  0  0  0  0  0  0  0  0  0  0  0
    1.6084    2.2978    2.3674 H   0  0  0  0  0  0  0  0  0  0  0  0
    1.2320    0.7394    4.9733 H   0  0  0  0  0  0  0  0  0  0  0  0
   -0.1456   -0.2667    4.5416 H   0  0  0  0  0  0  0  0  0  0  0  0
   -0.1248    1.4454    4.0855 H   0  0  0  0  0  0  0  0  0  0  0  0
    2.7686   -0.9995    3.8176 H   0  0  0  0  0  0  0  0  0  0  0  0
    1.3715   -1.9584    3.3180 H   0  0  0  0  0  0  0  0  0  0  0  0
    2.5297   -1.4015    2.1068 H   0  0  0  0  0  0  0  0  0  0  0  0
  1  2  1  0  0  0  0 
  1  3  1  0  0  0  0 
  2  4  1  0  0  0  0 
  3  5  1  0  0  0  0 
  3  6  1  0  0  0  0 
  4  7  1  0  0  0  0 
  5  8  1  0  0  0  0 
  5  9  2  0  0  0  0 
  6 10  2  0  0  0  0 
  7 11  1  0  0  0  0 
  8 10  1  0  0  0  0 
  8 12  2  0  0  0  0 
  9 13  1  0  0  0  0 
 11 14  1  0  0  0  0 
 11 15  1  0  0  0  0 
 11 16  2  0  0  0  0 
 12 17  1  0  0  0  0 
 12 18  1  0  0  0  0 
 13 18  2  0  0  0  0 
 14 19  1  0  0  0  0 
 15 20  1  0  0  0  0 
 19 21  1  0  0  0  0 
 20 22  1  0  0  0  0 
 21 23  1  0  0  0  0 
 22 24  1  0  0  0  0 
 23 25  1  0  0  0  0 
 23 26  2  0  0  0  0 
 24 27  1  0  0  0  0 
 24 28  2  0  0  0  0 
 25 29  1  0  0  0  0 
 25 30  1  0  0  0  0 
 25 31  1  0  0  0  0 
 27 32  1  0  0  0  0 
 27 33  1  0  0  0  0 
 27 34  1  0  0  0  0 
 35  1  1  0  0  0  0 
 36  1  1  0  0  0  0 
 37  2  1  0  0  0  0 
 38  2  1  0  0  0  0 
 39  6  1  0  0  0  0 
 40  7  1  0  0  0  0 
 41  7  1  0  0  0  0 
 42 13  1  0  0  0  0 
 43 17  1  0  0  0  0 
 44 17  1  0  0  0  0 
 45 19  1  0  0  0  0 
 46 19  1  0  0  0  0 
 47 20  1  0  0  0  0 
 48 20  1  0  0  0  0 
 49 29  1  0  0  0  0 
 50 29  1  0  0  0  0 
 51 29  1  0  0  0  0 
 52 30  1  0  0  0  0 
 53 30  1  0  0  0  0 
 54 30  1  0  0  0  0 
 55 31  1  0  0  0  0 
 56 31  1  0  0  0  0 
 57 31  1  0  0  0  0 
 58 32  1  0  0  0  0 
 59 32  1  0  0  0  0 
 60 32  1  0  0  0  0 
 61 33  1  0  0  0  0 
 62 33  1  0  0  0  0 
 63 33  1  0  0  0  0 
 64 34  1  0  0  0  0 
 65 34  1  0  0  0  0 
 66 34  1  0  0  0  0 
M  END
> <cdk:Title>
adefovir dipivoxil

> <Conformer>
1

> <SuperDrugID>
SD000063

$$$$
