naftidrofuryl
  CDK     0628171801

 61 63  0  0  0  0  0  0  0  0999 V2000
    0.8825   -3.0231   -3.2906 C   0  0  2  0  0  0  0  0  0  0  0  0
    1.9519   -2.7234   -4.3975 C   0  0  2  0  0  0  0  0  0  0  0  0
   -0.2708   -2.0561   -3.2647 C   0  0  0  0  0  0  0  0  0  0  0  0
    3.1074   -3.7784   -4.5195 C   0  0  2  0  0  0  0  0  0  0  0  0
    2.5377   -1.3661   -4.2181 C   0  0  0  0  0  0  0  0  0  0  0  0
   -0.3131   -0.8591   -2.4787 C   0  0  0  0  0  0  0  0  0  0  0  0
   -1.3763   -2.3526   -4.1032 C   0  0  0  0  0  0  0  0  0  0  0  0
    2.6887   -5.2438   -4.8479 C   0  0  1  0  0  0  0  0  0  0  0  0
    2.1283   -0.3475   -5.0307 O   0  0  0  0  0  0  0  0  0  0  0  0
    3.3769   -1.1522   -3.3088 O   0  0  0  0  0  0  0  0  0  0  0  0
   -1.4488    0.0076   -2.5786 C   0  0  0  0  0  0  0  0  0  0  0  0
    0.7287   -0.4637   -1.5969 C   0  0  0  0  0  0  0  0  0  0  0  0
   -2.4946   -1.5107   -4.1734 C   0  0  0  0  0  0  0  0  0  0  0  0
    3.8712   -6.1392   -5.3003 C   0  0  2  0  0  0  0  0  0  0  0  0
    2.0773   -5.8816   -3.7119 O   0  0  0  0  0  0  0  0  0  0  0  0
    2.5920    1.0071   -4.9783 C   0  0  2  0  0  0  0  0  0  0  0  0
   -2.5278   -0.3320   -3.4199 C   0  0  0  0  0  0  0  0  0  0  0  0
   -1.5027    1.2144   -1.8446 C   0  0  0  0  0  0  0  0  0  0  0  0
    0.6858    0.7584   -0.9027 C   0  0  0  0  0  0  0  0  0  0  0  0
    3.5679   -7.4940   -4.6552 C   0  0  2  0  0  0  0  0  0  0  0  0
    2.7926   -7.0808   -3.3967 C   0  0  1  0  0  0  0  0  0  0  0  0
    1.8038    1.8782   -5.9858 C   0  0  2  0  0  0  0  0  0  0  0  0
   -0.4290    1.5985   -1.0283 C   0  0  0  0  0  0  0  0  0  0  0  0
    2.1639    3.3387   -6.0013 N   0  0  1  0  0  0  0  0  0  0  0  0
    1.5938    4.1157   -4.8456 C   0  0  1  0  0  0  0  0  0  0  0  0
    3.5911    3.6563   -6.3508 C   0  0  1  0  0  0  0  0  0  0  0  0
    1.5833    5.6562   -5.0222 C   0  0  0  0  0  0  0  0  0  0  0  0
    4.0857    3.0323   -7.6773 C   0  0  0  0  0  0  0  0  0  0  0  0
    1.3619   -3.0926   -2.3137 H   0  0  0  0  0  0  0  0  0  0  0  0
    0.4690   -4.0178   -3.4711 H   0  0  0  0  0  0  0  0  0  0  0  0
    1.4243   -2.7326   -5.3567 H   0  0  0  0  0  0  0  0  0  0  0  0
    3.6993   -3.7889   -3.5982 H   0  0  0  0  0  0  0  0  0  0  0  0
    3.7687   -3.4462   -5.3273 H   0  0  0  0  0  0  0  0  0  0  0  0
   -1.3796   -3.1968   -4.6815 H   0  0  0  0  0  0  0  0  0  0  0  0
    1.9448   -5.2265   -5.6484 H   0  0  0  0  0  0  0  0  0  0  0  0
    1.5472   -1.0489   -1.4380 H   0  0  0  0  0  0  0  0  0  0  0  0
   -3.2826   -1.7574   -4.7766 H   0  0  0  0  0  0  0  0  0  0  0  0
    4.8256   -5.7622   -4.9199 H   0  0  0  0  0  0  0  0  0  0  0  0
    3.9277   -6.2206   -6.3897 H   0  0  0  0  0  0  0  0  0  0  0  0
    3.6574    1.0192   -5.2161 H   0  0  0  0  0  0  0  0  0  0  0  0
    2.4492    1.3990   -3.9705 H   0  0  0  0  0  0  0  0  0  0  0  0
   -3.3470    0.2768   -3.4945 H   0  0  0  0  0  0  0  0  0  0  0  0
   -2.3199    1.8277   -1.9037 H   0  0  0  0  0  0  0  0  0  0  0  0
    1.4651    1.0375   -0.3020 H   0  0  0  0  0  0  0  0  0  0  0  0
    4.4812   -8.0452   -4.4077 H   0  0  0  0  0  0  0  0  0  0  0  0
    2.9413   -8.1028   -5.3143 H   0  0  0  0  0  0  0  0  0  0  0  0
    3.4821   -6.8799   -2.5711 H   0  0  0  0  0  0  0  0  0  0  0  0
    2.0924   -7.8627   -3.0907 H   0  0  0  0  0  0  0  0  0  0  0  0
    0.7380    1.7632   -5.7719 H   0  0  0  0  0  0  0  0  0  0  0  0
    1.9450    1.4650   -6.9855 H   0  0  0  0  0  0  0  0  0  0  0  0
   -0.4609    2.4875   -0.5246 H   0  0  0  0  0  0  0  0  0  0  0  0
    0.5504    3.8225   -4.6998 H   0  0  0  0  0  0  0  0  0  0  0  0
    2.1281    3.8730   -3.9250 H   0  0  0  0  0  0  0  0  0  0  0  0
    3.7060    4.7333   -6.4785 H   0  0  0  0  0  0  0  0  0  0  0  0
    4.2579    3.3526   -5.5403 H   0  0  0  0  0  0  0  0  0  0  0  0
    2.6496    6.0173   -4.9043 H   0  0  0  0  0  0  0  0  0  0  0  0
    1.3207    5.8630   -6.1029 H   0  0  0  0  0  0  0  0  0  0  0  0
    0.8249    6.0791   -4.2322 H   0  0  0  0  0  0  0  0  0  0  0  0
    5.0236    3.4967   -7.9880 H   0  0  0  0  0  0  0  0  0  0  0  0
    3.3454    3.1842   -8.4637 H   0  0  0  0  0  0  0  0  0  0  0  0
    4.2619    1.9635   -7.5588 H   0  0  0  0  0  0  0  0  0  0  0  0
  1  2  1  0  0  0  0 
  1  3  1  0  0  0  0 
  2  4  1  0  0  0  0 
  2  5  1  0  0  0  0 
  3  6  2  0  0  0  0 
  3  7  1  0  0  0  0 
  4  8  1  0  0  0  0 
  5  9  1  0  0  0  0 
  5 10  2  0  0  0  0 
  6 11  1  0  0  0  0 
  6 12  1  0  0  0  0 
  7 13  2  0  0  0  0 
  8 14  1  0  0  0  0 
  8 15  1  0  0  0  0 
  9 16  1  0  0  0  0 
 11 17  2  0  0  0  0 
 11 18  1  0  0  0  0 
 12 19  2  0  0  0  0 
 13 17  1  0  0  0  0 
 14 20  1  0  0  0  0 
 15 21  1  0  0  0  0 
 16 22  1  0  0  0  0 
 18 23  2  0  0  0  0 
 19 23  1  0  0  0  0 
 20 21  1  0  0  0  0 
 22 24  1  0  0  0  0 
 24 25  1  0  0  0  0 
 24 26  1  0  0  0  0 
 25 27  1  0  0  0  0 
 26 28  1  0  0  0  0 
  1 29  1  0  0  0  0 
  1 30  1  0  0  0  0 
  2 31  1  0  0  0  0 
  4 32  1  0  0  0  0 
  4 33  1  0  0  0  0 
  7 34  1  0  0  0  0 
  8 35  1  0  0  0  0 
 12 36  1  0  0  0  0 
 13 37  1  0  0  0  0 
 14 38  1  0  0  0  0 
 14 39  1  0  0  0  0 
 16 40  1  0  0  0  0 
 16 41  1  0  0  0  0 
 17 42  1  0  0  0  0 
 18 43  1  0  0  0  0 
 19 44  1  0  0  0  0 
 20 45  1  0  0  0  0 
 20 46  1  0  0  0  0 
 21 47  1  0  0  0  0 
 21 48  1  0  0  0  0 
 22 49  1  0  0  0  0 
 22 50  1  0  0  0  0 
 23 51  1  0  0  0  0 
 25 52  1  0  0  0  0 
 25 53  1  0  0  0  0 
 26 54  1  0  0  0  0 
 26 55  1  0  0  0  0 
 27 56  1  0  0  0  0 
 27 57  1  0  0  0  0 
 27 58  1  0  0  0  0 
 28 59  1  0  0  0  0 
 28 60  1  0  0  0  0 
 28 61  1  0  0  0  0 
M  END
> <cdk:Title>
naftidrofuryl

> <Conformer>
1

> <SuperDrugID>
SD001666

$$$$
