trelagliptin
  CDK     0628171802

 46 48  0  0  0  0  0  0  0  0999 V2000
   -2.0191    5.0918    0.6178 C   0  0  0  0  0  0  0  0  0  0  0  0
   -1.6171    5.8157    1.7649 C   0  0  0  0  0  0  0  0  0  0  0  0
   -1.6939    5.2348    3.0403 C   0  0  0  0  0  0  0  0  0  0  0  0
   -2.1591    3.9185    3.1822 C   0  0  0  0  0  0  0  0  0  0  0  0
   -2.5592    3.1903    2.0477 C   0  0  0  0  0  0  0  0  0  0  0  0
   -2.5106    3.7586    0.7484 C   0  0  0  0  0  0  0  0  0  0  0  0
   -2.2274    3.3783    4.3681 F   0  0  0  0  0  0  0  0  0  0  0  0
   -1.9164    5.7050   -0.5317 C   0  0  0  0  0  0  0  0  0  0  0  0
   -3.0275    2.9567   -0.4094 C   0  0  2  0  0  0  0  0  0  0  0  0
   -2.1047    2.8052   -1.5323 N   0  0  0  0  0  0  0  0  0  0  0  0
   -2.3903    3.3504   -2.7721 C   0  0  0  0  0  0  0  0  0  0  0  0
   -1.5258    3.2366   -3.8408 N   0  0  0  0  0  0  0  0  0  0  0  0
   -0.3496    2.5534   -3.6805 C   0  0  0  0  0  0  0  0  0  0  0  0
   -0.0280    1.9793   -2.4462 C   0  0  0  0  0  0  0  0  0  0  0  0
   -0.9297    2.1013   -1.3724 C   0  0  0  0  0  0  0  0  0  0  0  0
   -3.4681    3.9749   -2.9480 O   0  0  0  0  0  0  0  0  0  0  0  0
    0.4836    2.4002   -4.6070 O   0  0  0  0  0  0  0  0  0  0  0  0
   -1.8709    3.8352   -5.1172 C   0  0  0  0  0  0  0  0  0  0  0  0
   -0.5596    1.4478   -0.2197 N   0  0  0  0  0  0  0  0  0  0  0  0
    0.5361    1.9221    0.5918 C   0  0  2  0  0  0  0  0  0  0  0  0
    1.6867    0.8789    0.6157 C   0  0  1  0  0  0  0  0  0  0  0  0
    1.1784   -0.5574    0.9200 C   0  0  2  0  0  0  0  0  0  0  0  0
   -0.0618   -0.9263    0.0597 C   0  0  2  0  0  0  0  0  0  0  0  0
   -1.1500    0.1807    0.1336 C   0  0  2  0  0  0  0  0  0  0  0  0
   -0.6168   -2.2172    0.4843 N   0  0  2  0  0  0  0  0  0  0  0  0
   -1.8122    6.2605   -1.5317 N   0  0  0  0  0  0  0  0  0  0  0  0
   -1.2668    6.7771    1.6941 H   0  0  0  0  0  0  0  0  0  0  0  0
   -1.4135    5.7749    3.8631 H   0  0  0  0  0  0  0  0  0  0  0  0
   -2.9009    2.2361    2.1849 H   0  0  0  0  0  0  0  0  0  0  0  0
   -3.9657    3.4353   -0.6932 H   0  0  0  0  0  0  0  0  0  0  0  0
   -3.3276    1.9546   -0.0972 H   0  0  0  0  0  0  0  0  0  0  0  0
    0.8526    1.4683   -2.3369 H   0  0  0  0  0  0  0  0  0  0  0  0
   -2.8374    3.4515   -5.4537 H   0  0  0  0  0  0  0  0  0  0  0  0
   -1.9370    4.9205   -5.0106 H   0  0  0  0  0  0  0  0  0  0  0  0
   -1.1518    3.6325   -5.9125 H   0  0  0  0  0  0  0  0  0  0  0  0
    0.1785    2.0833    1.6100 H   0  0  0  0  0  0  0  0  0  0  0  0
    0.9256    2.8790    0.2301 H   0  0  0  0  0  0  0  0  0  0  0  0
    2.1851    0.8803   -0.3555 H   0  0  0  0  0  0  0  0  0  0  0  0
    2.4259    1.1718    1.3655 H   0  0  0  0  0  0  0  0  0  0  0  0
    0.9266   -0.6298    1.9816 H   0  0  0  0  0  0  0  0  0  0  0  0
    1.9813   -1.2722    0.7187 H   0  0  0  0  0  0  0  0  0  0  0  0
    0.2566   -1.0382   -0.9809 H   0  0  0  0  0  0  0  0  0  0  0  0
   -1.9734   -0.0930   -0.5309 H   0  0  0  0  0  0  0  0  0  0  0  0
   -1.5614    0.2413    1.1451 H   0  0  0  0  0  0  0  0  0  0  0  0
   -1.4619   -2.3685   -0.0695 H   0  0  0  0  0  0  0  0  0  0  0  0
   -0.9251   -2.1054    1.4510 H   0  0  0  0  0  0  0  0  0  0  0  0
  1  2  2  0  0  0  0 
  1  6  1  0  0  0  0 
  2  3  1  0  0  0  0 
  3  4  2  0  0  0  0 
  4  5  1  0  0  0  0 
  5  6  2  0  0  0  0 
  4  7  1  0  0  0  0 
  1  8  1  0  0  0  0 
  6  9  1  0  0  0  0 
  9 10  1  0  0  0  0 
 11 12  1  0  0  0  0 
 12 13  1  0  0  0  0 
 13 14  1  0  0  0  0 
 14 15  2  0  0  0  0 
 10 11  1  0  0  0  0 
 10 15  1  0  0  0  0 
 11 16  2  0  0  0  0 
 13 17  2  0  0  0  0 
 12 18  1  0  0  0  0 
 15 19  1  0  0  0  0 
 20 21  1  0  0  0  0 
 21 22  1  0  0  0  0 
 22 23  1  0  0  0  0 
 23 24  1  0  0  0  0 
 19 20  1  0  0  0  0 
 19 24  1  0  0  0  0 
 23 25  1  0  0  0  0 
  8 26  3  0  0  0  0 
  2 27  1  0  0  0  0 
  3 28  1  0  0  0  0 
  5 29  1  0  0  0  0 
  9 30  1  0  0  0  0 
  9 31  1  0  0  0  0 
 14 32  1  0  0  0  0 
 18 33  1  0  0  0  0 
 18 34  1  0  0  0  0 
 18 35  1  0  0  0  0 
 20 36  1  0  0  0  0 
 20 37  1  0  0  0  0 
 21 38  1  0  0  0  0 
 21 39  1  0  0  0  0 
 22 40  1  0  0  0  0 
 22 41  1  0  0  0  0 
 23 42  1  0  0  0  0 
 24 43  1  0  0  0  0 
 24 44  1  0  0  0  0 
 25 45  1  0  0  0  0 
 25 46  1  0  0  0  0 
M  END
> <cdk:Title>
trelagliptin

> <Conformer>
1

> <SuperDrugID>
SD003875

$$$$
