obidoxime
  CDK     0628171802

 37 38  0  0  0  0  0  0  0  0999 V2000
   -6.3559    1.6990    6.0873 C   0  0  1  0  0  0  0  0  0  0  0  0
   -7.2022    2.8518    5.9134 O   0  0  0  0  0  0  0  0  0  0  0  0
   -7.1688    0.5776    6.4933 N   0  0  0  0  0  0  0  0  0  0  0  0
   -6.4949    4.0373    5.5016 C   0  0  1  0  0  0  0  0  0  0  0  0
   -7.3943    0.3378    7.8223 C   0  0  0  0  0  0  0  0  0  0  0  0
   -7.7192   -0.2470    5.5483 C   0  0  0  0  0  0  0  0  0  0  0  0
   -7.4384    5.1200    5.3574 N   0  0  0  0  0  0  0  0  0  0  0  0
   -8.1396   -0.7787    8.2414 C   0  0  0  0  0  0  0  0  0  0  0  0
   -8.4673   -1.3800    5.9178 C   0  0  0  0  0  0  0  0  0  0  0  0
   -8.0515    5.3383    4.1527 C   0  0  0  0  0  0  0  0  0  0  0  0
   -7.7250    5.9284    6.4251 C   0  0  0  0  0  0  0  0  0  0  0  0
   -8.6788   -1.6657    7.2839 C   0  0  0  0  0  0  0  0  0  0  0  0
   -8.9308    6.4213    3.9698 C   0  0  0  0  0  0  0  0  0  0  0  0
   -8.6012    7.0208    6.2936 C   0  0  0  0  0  0  0  0  0  0  0  0
   -9.4517   -2.8578    7.7177 C   0  0  1  0  0  0  0  0  0  0  0  0
   -9.2098    7.2890    5.0483 C   0  0  0  0  0  0  0  0  0  0  0  0
   -8.6493   -3.6998    8.4745 N   0  0  0  0  0  0  0  0  0  0  0  0
  -10.1224    8.4509    4.8942 C   0  0  2  0  0  0  0  0  0  0  0  0
   -9.0449   -4.6902    8.9504 O   0  0  0  0  0  0  0  0  0  0  0  0
   -9.4395    9.6326    5.1443 N   0  0  0  0  0  0  0  0  0  0  0  0
   -9.9557   10.6796    5.1119 O   0  0  0  0  0  0  0  0  0  0  0  0
   -5.8288    1.4701    5.1543 H   0  0  0  0  0  0  0  0  0  0  0  0
   -5.5839    1.9032    6.8375 H   0  0  0  0  0  0  0  0  0  0  0  0
   -5.7248    4.2959    6.2368 H   0  0  0  0  0  0  0  0  0  0  0  0
   -5.9724    3.8586    4.5552 H   0  0  0  0  0  0  0  0  0  0  0  0
   -7.0197    0.9673    8.5378 H   0  0  0  0  0  0  0  0  0  0  0  0
   -7.5918   -0.0540    4.5504 H   0  0  0  0  0  0  0  0  0  0  0  0
   -8.2816   -0.9435    9.2411 H   0  0  0  0  0  0  0  0  0  0  0  0
   -8.8494   -1.9878    5.1899 H   0  0  0  0  0  0  0  0  0  0  0  0
   -7.8768    4.7159    3.3585 H   0  0  0  0  0  0  0  0  0  0  0  0
   -7.3018    5.7535    7.3412 H   0  0  0  0  0  0  0  0  0  0  0  0
   -9.3589    6.5705    3.0530 H   0  0  0  0  0  0  0  0  0  0  0  0
   -8.7874    7.6179    7.1029 H   0  0  0  0  0  0  0  0  0  0  0  0
  -10.3096   -2.5280    8.3113 H   0  0  0  0  0  0  0  0  0  0  0  0
   -9.8365   -3.4173    6.8585 H   0  0  0  0  0  0  0  0  0  0  0  0
  -10.9536    8.3447    5.5977 H   0  0  0  0  0  0  0  0  0  0  0  0
  -10.5443    8.4955    3.8845 H   0  0  0  0  0  0  0  0  0  0  0  0
  1  2  1  0  0  0  0 
  1  3  1  0  0  0  0 
  2  4  1  0  0  0  0 
  3  5  2  0  0  0  0 
  3  6  1  0  0  0  0 
  4  7  1  0  0  0  0 
  5  8  1  0  0  0  0 
  6  9  2  0  0  0  0 
  7 10  2  0  0  0  0 
  7 11  1  0  0  0  0 
  8 12  2  0  0  0  0 
  9 12  1  0  0  0  0 
 10 13  1  0  0  0  0 
 11 14  2  0  0  0  0 
 12 15  1  0  0  0  0 
 13 16  2  0  0  0  0 
 14 16  1  0  0  0  0 
 15 17  1  0  0  0  0 
 16 18  1  0  0  0  0 
 17 19  2  0  0  0  0 
 18 20  1  0  0  0  0 
 20 21  2  0  0  0  0 
 22  1  1  0  0  0  0 
 23  1  1  0  0  0  0 
 24  4  1  0  0  0  0 
 25  4  1  0  0  0  0 
 26  5  1  0  0  0  0 
 27  6  1  0  0  0  0 
 28  8  1  0  0  0  0 
 29  9  1  0  0  0  0 
 30 10  1  0  0  0  0 
 31 11  1  0  0  0  0 
 32 13  1  0  0  0  0 
 33 14  1  0  0  0  0 
 34 15  1  0  0  0  0 
 35 15  1  0  0  0  0 
 36 18  1  0  0  0  0 
 37 18  1  0  0  0  0 
M  CHG  1   3   1
M  CHG  1   7   1
M  END
> <cdk:Title>
obidoxime

> <Conformer>
1

> <SuperDrugID>
SD003707

$$$$
