sulcaine
  CDK     0628171801

 43 44  0  0  0  0  0  0  0  0999 V2000
   -5.2548    9.5111    2.9906 C   0  0  0  0  0  0  0  0  0  0  0  0
   -5.3312    8.5640    3.9772 O   0  0  0  0  0  0  0  0  0  0  0  0
   -5.4732   10.7147    3.2730 O   0  0  0  0  0  0  0  0  0  0  0  0
   -4.8825    9.1314    1.6730 C   0  0  0  0  0  0  0  0  0  0  0  0
   -5.6003    8.8019    5.3637 C   0  0  1  0  0  0  0  0  0  0  0  0
   -4.4174   10.0866    0.7358 C   0  0  0  0  0  0  0  0  0  0  0  0
   -4.9192    7.7759    1.2695 C   0  0  0  0  0  0  0  0  0  0  0  0
   -5.5228    7.4844    6.1580 C   0  0  0  0  0  0  0  0  0  0  0  0
   -3.9373    9.6903   -0.5258 C   0  0  0  0  0  0  0  0  0  0  0  0
   -4.4565    7.3817    0.0016 C   0  0  0  0  0  0  0  0  0  0  0  0
   -3.9281    8.3323   -0.9020 C   0  0  0  0  0  0  0  0  0  0  0  0
   -3.3184    8.0083   -2.0810 N   0  0  0  0  0  0  0  0  0  0  0  0
   -3.5407    6.9354   -2.8927 C   0  0  0  0  0  0  0  0  0  0  0  0
   -2.5304    6.5867   -3.9177 C   0  0  1  0  0  0  0  0  0  0  0  0
   -4.5573    6.2100   -2.7781 O   0  0  0  0  0  0  0  0  0  0  0  0
   -3.0012    6.7211   -5.3375 N   0  0  2  0  0  0  0  0  0  0  0  0
   -2.1134    5.9759   -6.2931 C   0  0  2  0  0  0  0  0  0  0  0  0
   -3.1895    8.1514   -5.7538 C   0  0  1  0  0  0  0  0  0  0  0  0
   -2.6233    6.0421   -7.7556 C   0  0  2  0  0  0  0  0  0  0  0  0
   -3.7139    8.2880   -7.2077 C   0  0  1  0  0  0  0  0  0  0  0  0
   -2.8265    7.5077   -8.2090 C   0  0  1  0  0  0  0  0  0  0  0  0
   -4.8556    9.4952    5.7572 H   0  0  0  0  0  0  0  0  0  0  0  0
   -6.5879    9.2504    5.4834 H   0  0  0  0  0  0  0  0  0  0  0  0
   -4.3983   11.0818    0.9705 H   0  0  0  0  0  0  0  0  0  0  0  0
   -5.2679    7.0534    1.9015 H   0  0  0  0  0  0  0  0  0  0  0  0
   -5.5414    7.6949    7.2298 H   0  0  0  0  0  0  0  0  0  0  0  0
   -6.3706    6.8429    5.9088 H   0  0  0  0  0  0  0  0  0  0  0  0
   -4.5964    6.9548    5.9244 H   0  0  0  0  0  0  0  0  0  0  0  0
   -3.5814   10.4048   -1.1664 H   0  0  0  0  0  0  0  0  0  0  0  0
   -4.4793    6.3887   -0.2360 H   0  0  0  0  0  0  0  0  0  0  0  0
   -2.6143    8.6132   -2.3648 H   0  0  0  0  0  0  0  0  0  0  0  0
   -1.6267    7.1872   -3.7712 H   0  0  0  0  0  0  0  0  0  0  0  0
   -2.2494    5.5508   -3.7078 H   0  0  0  0  0  0  0  0  0  0  0  0
   -2.0681    4.9199   -6.0108 H   0  0  0  0  0  0  0  0  0  0  0  0
   -1.0948    6.3787   -6.2541 H   0  0  0  0  0  0  0  0  0  0  0  0
   -3.9140    8.6375   -5.0946 H   0  0  0  0  0  0  0  0  0  0  0  0
   -2.2404    8.6943   -5.6726 H   0  0  0  0  0  0  0  0  0  0  0  0
   -3.5681    5.4982   -7.8378 H   0  0  0  0  0  0  0  0  0  0  0  0
   -1.9003    5.5594   -8.4175 H   0  0  0  0  0  0  0  0  0  0  0  0
   -4.7404    7.9152   -7.2635 H   0  0  0  0  0  0  0  0  0  0  0  0
   -3.7239    9.3444   -7.4863 H   0  0  0  0  0  0  0  0  0  0  0  0
   -1.8520    7.9997   -8.2872 H   0  0  0  0  0  0  0  0  0  0  0  0
   -3.2860    7.5236   -9.2018 H   0  0  0  0  0  0  0  0  0  0  0  0
  1  2  1  0  0  0  0 
  1  3  2  0  0  0  0 
  1  4  1  0  0  0  0 
  2  5  1  0  0  0  0 
  4  6  2  0  0  0  0 
  4  7  1  0  0  0  0 
  5  8  1  0  0  0  0 
  6  9  1  0  0  0  0 
  7 10  2  0  0  0  0 
  9 11  2  0  0  0  0 
 10 11  1  0  0  0  0 
 11 12  1  0  0  0  0 
 12 13  1  0  0  0  0 
 13 14  1  0  0  0  0 
 13 15  2  0  0  0  0 
 14 16  1  0  0  0  0 
 16 17  1  0  0  0  0 
 16 18  1  0  0  0  0 
 17 19  1  0  0  0  0 
 18 20  1  0  0  0  0 
 19 21  1  0  0  0  0 
 20 21  1  0  0  0  0 
  5 22  1  0  0  0  0 
  5 23  1  0  0  0  0 
  6 24  1  0  0  0  0 
  7 25  1  0  0  0  0 
  8 26  1  0  0  0  0 
  8 27  1  0  0  0  0 
  8 28  1  0  0  0  0 
  9 29  1  0  0  0  0 
 10 30  1  0  0  0  0 
 12 31  1  0  0  0  0 
 14 32  1  0  0  0  0 
 14 33  1  0  0  0  0 
 17 34  1  0  0  0  0 
 17 35  1  0  0  0  0 
 18 36  1  0  0  0  0 
 18 37  1  0  0  0  0 
 19 38  1  0  0  0  0 
 19 39  1  0  0  0  0 
 20 40  1  0  0  0  0 
 20 41  1  0  0  0  0 
 21 42  1  0  0  0  0 
 21 43  1  0  0  0  0 
M  END
> <cdk:Title>
sulcaine

> <Conformer>
1

> <SuperDrugID>
SD000907

$$$$
