butoxycaine
  CDK     0628171801

 48 48  0  0  0  0  0  0  0  0999 V2000
   -2.3058    0.7433    0.2282 C   0  0  0  0  0  0  0  0  0  0  0  0
   -1.0507    0.8347   -0.3117 O   0  0  0  0  0  0  0  0  0  0  0  0
   -2.4867   -0.0034    1.2189 O   0  0  0  0  0  0  0  0  0  0  0  0
   -3.3890    1.4612   -0.3528 C   0  0  0  0  0  0  0  0  0  0  0  0
    0.1244    0.1247    0.0996 C   0  0  2  0  0  0  0  0  0  0  0  0
   -4.7198    1.3015    0.1117 C   0  0  0  0  0  0  0  0  0  0  0  0
   -3.1668    2.3506   -1.4342 C   0  0  0  0  0  0  0  0  0  0  0  0
    1.2739    0.4249   -0.8924 C   0  0  2  0  0  0  0  0  0  0  0  0
   -5.7884    1.9937   -0.4871 C   0  0  0  0  0  0  0  0  0  0  0  0
   -4.2324    3.0476   -2.0334 C   0  0  0  0  0  0  0  0  0  0  0  0
    2.4802   -0.4621   -0.7076 N   0  0  1  0  0  0  0  0  0  0  0  0
   -5.5486    2.8703   -1.5632 C   0  0  0  0  0  0  0  0  0  0  0  0
    2.2848   -1.8081   -1.3655 C   0  0  1  0  0  0  0  0  0  0  0  0
    3.7681    0.2032   -1.1121 C   0  0  1  0  0  0  0  0  0  0  0  0
   -6.5949    3.5062   -2.1765 O   0  0  0  0  0  0  0  0  0  0  0  0
    3.3147   -2.9032   -0.9935 C   0  0  0  0  0  0  0  0  0  0  0  0
    4.2191    1.3737   -0.2046 C   0  0  0  0  0  0  0  0  0  0  0  0
   -6.9358    4.7685   -1.5721 C   0  0  2  0  0  0  0  0  0  0  0  0
   -8.1715    5.3547   -2.2944 C   0  0  1  0  0  0  0  0  0  0  0  0
   -8.6218    6.7224   -1.7159 C   0  0  1  0  0  0  0  0  0  0  0  0
   -9.8638    7.2896   -2.4389 C   0  0  0  0  0  0  0  0  0  0  0  0
   -0.1071   -0.9392    0.1164 H   0  0  0  0  0  0  0  0  0  0  0  0
    0.4100    0.4326    1.1068 H   0  0  0  0  0  0  0  0  0  0  0  0
   -4.9302    0.6709    0.8879 H   0  0  0  0  0  0  0  0  0  0  0  0
   -2.2258    2.5015   -1.8072 H   0  0  0  0  0  0  0  0  0  0  0  0
    1.5165    1.4799   -0.7536 H   0  0  0  0  0  0  0  0  0  0  0  0
    0.8981    0.3383   -1.9156 H   0  0  0  0  0  0  0  0  0  0  0  0
   -6.7419    1.8541   -0.1407 H   0  0  0  0  0  0  0  0  0  0  0  0
   -4.0495    3.6802   -2.8178 H   0  0  0  0  0  0  0  0  0  0  0  0
    1.3139   -2.2180   -1.0808 H   0  0  0  0  0  0  0  0  0  0  0  0
    2.2751   -1.6977   -2.4547 H   0  0  0  0  0  0  0  0  0  0  0  0
    4.5876   -0.5155   -1.0676 H   0  0  0  0  0  0  0  0  0  0  0  0
    3.6982    0.5561   -2.1449 H   0  0  0  0  0  0  0  0  0  0  0  0
    4.2566   -2.7476   -1.5205 H   0  0  0  0  0  0  0  0  0  0  0  0
    3.5001   -2.9108    0.0819 H   0  0  0  0  0  0  0  0  0  0  0  0
    2.9342   -3.8836   -1.2871 H   0  0  0  0  0  0  0  0  0  0  0  0
    5.2603    1.6226   -0.4205 H   0  0  0  0  0  0  0  0  0  0  0  0
    4.1359    1.0936    0.8469 H   0  0  0  0  0  0  0  0  0  0  0  0
    3.6282    2.2712   -0.3843 H   0  0  0  0  0  0  0  0  0  0  0  0
   -6.1007    5.4687   -1.6636 H   0  0  0  0  0  0  0  0  0  0  0  0
   -7.1773    4.6355   -0.5134 H   0  0  0  0  0  0  0  0  0  0  0  0
   -7.9351    5.4769   -3.3552 H   0  0  0  0  0  0  0  0  0  0  0  0
   -8.9974    4.6422   -2.2098 H   0  0  0  0  0  0  0  0  0  0  0  0
   -8.8581    6.6099   -0.6539 H   0  0  0  0  0  0  0  0  0  0  0  0
   -7.8047    7.4432   -1.8094 H   0  0  0  0  0  0  0  0  0  0  0  0
   -9.6486    7.4440   -3.4979 H   0  0  0  0  0  0  0  0  0  0  0  0
  -10.7060    6.6016   -2.3437 H   0  0  0  0  0  0  0  0  0  0  0  0
  -10.1451    8.2472   -1.9976 H   0  0  0  0  0  0  0  0  0  0  0  0
  1  2  1  0  0  0  0 
  1  3  2  0  0  0  0 
  1  4  1  0  0  0  0 
  2  5  1  0  0  0  0 
  4  6  2  0  0  0  0 
  4  7  1  0  0  0  0 
  5  8  1  0  0  0  0 
  6  9  1  0  0  0  0 
  7 10  2  0  0  0  0 
  8 11  1  0  0  0  0 
  9 12  2  0  0  0  0 
 10 12  1  0  0  0  0 
 11 13  1  0  0  0  0 
 11 14  1  0  0  0  0 
 12 15  1  0  0  0  0 
 13 16  1  0  0  0  0 
 14 17  1  0  0  0  0 
 15 18  1  0  0  0  0 
 18 19  1  0  0  0  0 
 19 20  1  0  0  0  0 
 20 21  1  0  0  0  0 
  5 22  1  0  0  0  0 
  5 23  1  0  0  0  0 
  6 24  1  0  0  0  0 
  7 25  1  0  0  0  0 
  8 26  1  0  0  0  0 
  8 27  1  0  0  0  0 
  9 28  1  0  0  0  0 
 10 29  1  0  0  0  0 
 13 30  1  0  0  0  0 
 13 31  1  0  0  0  0 
 14 32  1  0  0  0  0 
 14 33  1  0  0  0  0 
 16 34  1  0  0  0  0 
 16 35  1  0  0  0  0 
 16 36  1  0  0  0  0 
 17 37  1  0  0  0  0 
 17 38  1  0  0  0  0 
 17 39  1  0  0  0  0 
 18 40  1  0  0  0  0 
 18 41  1  0  0  0  0 
 19 42  1  0  0  0  0 
 19 43  1  0  0  0  0 
 20 44  1  0  0  0  0 
 20 45  1  0  0  0  0 
 21 46  1  0  0  0  0 
 21 47  1  0  0  0  0 
 21 48  1  0  0  0  0 
M  END
> <cdk:Title>
butoxycaine

> <Conformer>
1

> <SuperDrugID>
SD002654

$$$$
