hexcarbacholine
  CDK     0628171801

 66 65  0  0  0  0  0  0  0  0999 V2000
    5.2040    7.1569  -12.6912 C   0  0  2  0  0  0  0  0  0  0  0  0
    5.3110    8.3192  -13.6673 N   0  0  2  0  0  0  0  0  0  0  0  0
    4.5741    7.4132  -11.2928 C   0  0  1  0  0  0  0  0  0  0  0  0
    6.1073    7.8643  -14.8743 C   0  0  0  0  0  0  0  0  0  0  0  0
    6.0226    9.4871  -13.0287 C   0  0  0  0  0  0  0  0  0  0  0  0
    3.9475    8.7598  -14.1531 C   0  0  0  0  0  0  0  0  0  0  0  0
    4.2967    6.1468  -10.6874 O   0  0  0  0  0  0  0  0  0  0  0  0
    4.0087    5.8771   -9.3860 C   0  0  0  0  0  0  0  0  0  0  0  0
    4.2573    6.7639   -8.3829 N   0  0  0  0  0  0  0  0  0  0  0  0
    3.5540    4.7325   -9.1527 O   0  0  0  0  0  0  0  0  0  0  0  0
    4.0308    6.4842   -6.9977 C   0  0  1  0  0  0  0  0  0  0  0  0
    4.8808    7.3771   -6.0553 C   0  0  2  0  0  0  0  0  0  0  0  0
    4.2239    8.7345   -5.6902 C   0  0  2  0  0  0  0  0  0  0  0  0
    5.0760    9.5406   -4.6731 C   0  0  1  0  0  0  0  0  0  0  0  0
    4.3539   10.8084   -4.1487 C   0  0  1  0  0  0  0  0  0  0  0  0
    5.2605   11.6659   -3.2272 C   0  0  1  0  0  0  0  0  0  0  0  0
    4.6438   12.9075   -2.8811 N   0  0  0  0  0  0  0  0  0  0  0  0
    4.5556   13.9919   -3.6932 C   0  0  0  0  0  0  0  0  0  0  0  0
    3.9032   15.0828   -3.2014 O   0  0  0  0  0  0  0  0  0  0  0  0
    5.0585   14.0022   -4.8442 O   0  0  0  0  0  0  0  0  0  0  0  0
    3.6814   16.3217   -3.8839 C   0  0  2  0  0  0  0  0  0  0  0  0
    2.9756   17.3892   -2.9989 C   0  0  2  0  0  0  0  0  0  0  0  0
    1.6021   17.1035   -2.3996 N   0  0  2  0  0  0  0  0  0  0  0  0
    1.6816   16.0820   -1.2881 C   0  0  0  0  0  0  0  0  0  0  0  0
    0.6250   16.6164   -3.4431 C   0  0  0  0  0  0  0  0  0  0  0  0
    1.0749   18.3971   -1.8088 C   0  0  0  0  0  0  0  0  0  0  0  0
    6.2023    6.7536  -12.4907 H   0  0  0  0  0  0  0  0  0  0  0  0
    4.6427    6.3435  -13.1624 H   0  0  0  0  0  0  0  0  0  0  0  0
    5.2778    7.9750  -10.6737 H   0  0  0  0  0  0  0  0  0  0  0  0
    3.6395    7.9692  -11.3650 H   0  0  0  0  0  0  0  0  0  0  0  0
    5.6174    7.0308  -15.3878 H   0  0  0  0  0  0  0  0  0  0  0  0
    7.1111    7.5303  -14.5933 H   0  0  0  0  0  0  0  0  0  0  0  0
    6.2305    8.6688  -15.6070 H   0  0  0  0  0  0  0  0  0  0  0  0
    6.9947    9.1904  -12.6252 H   0  0  0  0  0  0  0  0  0  0  0  0
    6.1920   10.2958  -13.7447 H   0  0  0  0  0  0  0  0  0  0  0  0
    5.4373    9.9091  -12.2081 H   0  0  0  0  0  0  0  0  0  0  0  0
    4.0675    9.6205  -14.8875 H   0  0  0  0  0  0  0  0  0  0  0  0
    3.3614    7.8545  -14.5147 H   0  0  0  0  0  0  0  0  0  0  0  0
    3.3633    9.1756  -13.3300 H   0  0  0  0  0  0  0  0  0  0  0  0
    4.6060    7.6373   -8.6240 H   0  0  0  0  0  0  0  0  0  0  0  0
    2.9656    6.6026   -6.7819 H   0  0  0  0  0  0  0  0  0  0  0  0
    4.3036    5.4443   -6.7894 H   0  0  0  0  0  0  0  0  0  0  0  0
    5.8614    7.5560   -6.5044 H   0  0  0  0  0  0  0  0  0  0  0  0
    5.0471    6.8240   -5.1270 H   0  0  0  0  0  0  0  0  0  0  0  0
    3.2388    8.5506   -5.2559 H   0  0  0  0  0  0  0  0  0  0  0  0
    4.0857    9.3275   -6.5963 H   0  0  0  0  0  0  0  0  0  0  0  0
    5.3190    8.9048   -3.8182 H   0  0  0  0  0  0  0  0  0  0  0  0
    6.0129    9.8287   -5.1570 H   0  0  0  0  0  0  0  0  0  0  0  0
    4.0287   11.4084   -5.0014 H   0  0  0  0  0  0  0  0  0  0  0  0
    3.4643   10.5075   -3.5875 H   0  0  0  0  0  0  0  0  0  0  0  0
    5.4481   11.1161   -2.3013 H   0  0  0  0  0  0  0  0  0  0  0  0
    6.2266   11.8524   -3.7050 H   0  0  0  0  0  0  0  0  0  0  0  0
    4.2441   12.9773   -1.9993 H   0  0  0  0  0  0  0  0  0  0  0  0
    3.1038   16.1497   -4.7963 H   0  0  0  0  0  0  0  0  0  0  0  0
    4.6581   16.7186   -4.1777 H   0  0  0  0  0  0  0  0  0  0  0  0
    2.9098   18.2777   -3.6376 H   0  0  0  0  0  0  0  0  0  0  0  0
    3.6753   17.6486   -2.1960 H   0  0  0  0  0  0  0  0  0  0  0  0
    2.4001   16.3804   -0.5188 H   0  0  0  0  0  0  0  0  0  0  0  0
    0.7125   15.9450   -0.7994 H   0  0  0  0  0  0  0  0  0  0  0  0
    1.9798   15.0998   -1.6560 H   0  0  0  0  0  0  0  0  0  0  0  0
    0.5826   17.2967   -4.2987 H   0  0  0  0  0  0  0  0  0  0  0  0
   -0.3880   16.5314   -3.0352 H   0  0  0  0  0  0  0  0  0  0  0  0
    0.8999   15.6258   -3.8175 H   0  0  0  0  0  0  0  0  0  0  0  0
    0.9524   19.1678   -2.5765 H   0  0  0  0  0  0  0  0  0  0  0  0
    0.1001   18.2633   -1.3305 H   0  0  0  0  0  0  0  0  0  0  0  0
    1.7565   18.7974   -1.0505 H   0  0  0  0  0  0  0  0  0  0  0  0
  1  2  1  0  0  0  0 
  1  3  1  0  0  0  0 
  2  4  1  0  0  0  0 
  2  5  1  0  0  0  0 
  2  6  1  0  0  0  0 
  3  7  1  0  0  0  0 
  7  8  1  0  0  0  0 
  8  9  1  0  0  0  0 
  8 10  2  0  0  0  0 
  9 11  1  0  0  0  0 
 11 12  1  0  0  0  0 
 12 13  1  0  0  0  0 
 13 14  1  0  0  0  0 
 14 15  1  0  0  0  0 
 15 16  1  0  0  0  0 
 16 17  1  0  0  0  0 
 17 18  1  0  0  0  0 
 18 19  1  0  0  0  0 
 18 20  2  0  0  0  0 
 19 21  1  0  0  0  0 
 21 22  1  0  0  0  0 
 22 23  1  0  0  0  0 
 23 24  1  0  0  0  0 
 23 25  1  0  0  0  0 
 23 26  1  0  0  0  0 
 27  1  1  0  0  0  0 
 28  1  1  0  0  0  0 
 29  3  1  0  0  0  0 
 30  3  1  0  0  0  0 
 31  4  1  0  0  0  0 
 32  4  1  0  0  0  0 
 33  4  1  0  0  0  0 
 34  5  1  0  0  0  0 
 35  5  1  0  0  0  0 
 36  5  1  0  0  0  0 
 37  6  1  0  0  0  0 
 38  6  1  0  0  0  0 
 39  6  1  0  0  0  0 
 40  9  1  0  0  0  0 
 41 11  1  0  0  0  0 
 42 11  1  0  0  0  0 
 43 12  1  0  0  0  0 
 44 12  1  0  0  0  0 
 45 13  1  0  0  0  0 
 46 13  1  0  0  0  0 
 47 14  1  0  0  0  0 
 48 14  1  0  0  0  0 
 49 15  1  0  0  0  0 
 50 15  1  0  0  0  0 
 51 16  1  0  0  0  0 
 52 16  1  0  0  0  0 
 53 17  1  0  0  0  0 
 54 21  1  0  0  0  0 
 55 21  1  0  0  0  0 
 56 22  1  0  0  0  0 
 57 22  1  0  0  0  0 
 58 24  1  0  0  0  0 
 59 24  1  0  0  0  0 
 60 24  1  0  0  0  0 
 61 25  1  0  0  0  0 
 62 25  1  0  0  0  0 
 63 25  1  0  0  0  0 
 64 26  1  0  0  0  0 
 65 26  1  0  0  0  0 
 66 26  1  0  0  0  0 
M  CHG  1   2   1
M  CHG  1  23   1
M  END
> <cdk:Title>
hexcarbacholine

> <Conformer>
1

> <SuperDrugID>
SD002980

$$$$
