metixene
  CDK     0628171801

 45 48  0  0  0  0  0  0  0  0999 V2000
   -7.0358   -6.9201   -1.9996 C   0  0  0  0  0  0  0  0  0  0  0  0
   -5.9260   -6.6889   -2.9722 N   0  0  2  0  0  0  0  0  0  0  0  0
   -5.8503   -7.7440   -4.0306 C   0  0  2  0  0  0  0  0  0  0  0  0
   -4.8032   -7.3882   -5.1152 C   0  0  1  0  0  0  0  0  0  0  0  0
   -3.4218   -7.0755   -4.4903 C   0  0  1  0  0  0  0  0  0  0  0  0
   -3.5287   -5.9980   -3.3695 C   0  0  2  0  0  0  0  0  0  0  0  0
   -2.1148   -5.6952   -2.7669 C   0  0  2  0  0  0  0  0  0  0  0  0
   -1.9938   -4.4685   -1.7983 C   0  0  2  0  0  0  0  0  0  0  0  0
   -2.3732   -3.1897   -2.4926 C   0  0  0  0  0  0  0  0  0  0  0  0
   -3.7051   -2.7112   -2.4248 C   0  0  0  0  0  0  0  0  0  0  0  0
   -4.1140   -1.5894   -3.1681 C   0  0  0  0  0  0  0  0  0  0  0  0
   -3.1896   -0.9130   -3.9792 C   0  0  0  0  0  0  0  0  0  0  0  0
   -1.8575   -1.3494   -4.0388 C   0  0  0  0  0  0  0  0  0  0  0  0
   -1.4444   -2.4647   -3.2829 C   0  0  0  0  0  0  0  0  0  0  0  0
    0.2551   -2.9164   -3.3012 S   0  0  0  0  0  0  0  0  0  0  0  0
    0.4774   -3.8082   -1.8002 C   0  0  0  0  0  0  0  0  0  0  0  0
   -0.6214   -4.4609   -1.1825 C   0  0  0  0  0  0  0  0  0  0  0  0
   -0.3810   -5.1797    0.0162 C   0  0  0  0  0  0  0  0  0  0  0  0
    0.9058   -5.2451    0.5805 C   0  0  0  0  0  0  0  0  0  0  0  0
    1.9782   -4.5820   -0.0366 C   0  0  0  0  0  0  0  0  0  0  0  0
    1.7636   -3.8627   -1.2245 C   0  0  0  0  0  0  0  0  0  0  0  0
   -4.5979   -6.4454   -2.3196 C   0  0  2  0  0  0  0  0  0  0  0  0
   -7.1310   -6.0660   -1.3254 H   0  0  0  0  0  0  0  0  0  0  0  0
   -7.9876   -7.0256   -2.5254 H   0  0  0  0  0  0  0  0  0  0  0  0
   -6.8680   -7.8202   -1.4020 H   0  0  0  0  0  0  0  0  0  0  0  0
   -6.8208   -7.8478   -4.5245 H   0  0  0  0  0  0  0  0  0  0  0  0
   -5.5901   -8.7127   -3.5903 H   0  0  0  0  0  0  0  0  0  0  0  0
   -4.7032   -8.2193   -5.8193 H   0  0  0  0  0  0  0  0  0  0  0  0
   -5.1498   -6.5136   -5.6706 H   0  0  0  0  0  0  0  0  0  0  0  0
   -2.9929   -7.9973   -4.0860 H   0  0  0  0  0  0  0  0  0  0  0  0
   -2.7569   -6.7179   -5.2809 H   0  0  0  0  0  0  0  0  0  0  0  0
   -3.8938   -5.0871   -3.8513 H   0  0  0  0  0  0  0  0  0  0  0  0
   -1.4193   -5.5300   -3.5958 H   0  0  0  0  0  0  0  0  0  0  0  0
   -1.7744   -6.5963   -2.2483 H   0  0  0  0  0  0  0  0  0  0  0  0
   -2.7036   -4.6267   -0.9804 H   0  0  0  0  0  0  0  0  0  0  0  0
   -4.3969   -3.1947   -1.8493 H   0  0  0  0  0  0  0  0  0  0  0  0
   -5.0849   -1.2712   -3.1256 H   0  0  0  0  0  0  0  0  0  0  0  0
   -3.4848   -0.1008   -4.5225 H   0  0  0  0  0  0  0  0  0  0  0  0
   -1.1936   -0.8456   -4.6276 H   0  0  0  0  0  0  0  0  0  0  0  0
   -1.1438   -5.6792    0.4809 H   0  0  0  0  0  0  0  0  0  0  0  0
    1.0616   -5.7796    1.4374 H   0  0  0  0  0  0  0  0  0  0  0  0
    2.9131   -4.6275    0.3771 H   0  0  0  0  0  0  0  0  0  0  0  0
    2.5506   -3.3824   -1.6654 H   0  0  0  0  0  0  0  0  0  0  0  0
   -4.2572   -7.3504   -1.8022 H   0  0  0  0  0  0  0  0  0  0  0  0
   -4.7121   -5.6551   -1.5735 H   0  0  0  0  0  0  0  0  0  0  0  0
  1  2  1  0  0  0  0 
  2  3  1  0  0  0  0 
  3  4  1  0  0  0  0 
  4  5  1  0  0  0  0 
  6  5  1  0  0  0  0 
  6  7  1  0  0  0  0 
  7  8  1  0  0  0  0 
  8  9  1  0  0  0  0 
  9 10  2  0  0  0  0 
 10 11  1  0  0  0  0 
 11 12  2  0  0  0  0 
 12 13  1  0  0  0  0 
 13 14  2  0  0  0  0 
  9 14  1  0  0  0  0 
 14 15  1  0  0  0  0 
 15 16  1  0  0  0  0 
 16 17  2  0  0  0  0 
  8 17  1  0  0  0  0 
 17 18  1  0  0  0  0 
 18 19  2  0  0  0  0 
 19 20  1  0  0  0  0 
 20 21  2  0  0  0  0 
 16 21  1  0  0  0  0 
  6 22  1  0  0  0  0 
  2 22  1  0  0  0  0 
  1 23  1  0  0  0  0 
  1 24  1  0  0  0  0 
  1 25  1  0  0  0  0 
  3 26  1  0  0  0  0 
  3 27  1  0  0  0  0 
  4 28  1  0  0  0  0 
  4 29  1  0  0  0  0 
  5 30  1  0  0  0  0 
  5 31  1  0  0  0  0 
  6 32  1  0  0  0  0 
  7 33  1  0  0  0  0 
  7 34  1  0  0  0  0 
  8 35  1  0  0  0  0 
 10 36  1  0  0  0  0 
 11 37  1  0  0  0  0 
 12 38  1  0  0  0  0 
 13 39  1  0  0  0  0 
 18 40  1  0  0  0  0 
 19 41  1  0  0  0  0 
 20 42  1  0  0  0  0 
 21 43  1  0  0  0  0 
 22 44  1  0  0  0  0 
 22 45  1  0  0  0  0 
M  END
> <cdk:Title>
metixene

> <Conformer>
1

> <SuperDrugID>
SD001580

$$$$
