canagliflozin
  CDK     0628171802

 56 59  0  0  0  0  0  0  0  0999 V2000
   10.7383   -4.7047   -3.7248 O   0  0  0  0  0  0  0  0  0  0  0  0
   11.3096   -4.3498   -2.4642 C   0  0  1  0  0  0  0  0  0  0  0  0
   10.1932   -4.1540   -1.3928 C   0  0  1  0  0  0  0  0  0  0  0  0
   12.3166   -5.4479   -2.0210 C   0  0  1  0  0  0  0  0  0  0  0  0
   10.7753   -3.9360   -0.0851 O   0  0  0  0  0  0  0  0  0  0  0  0
    9.2869   -3.0153   -1.7438 C   0  0  0  0  0  0  0  0  0  0  0  0
   13.4012   -5.5139   -2.9463 O   0  0  0  0  0  0  0  0  0  0  0  0
   12.8468   -5.1727   -0.5884 C   0  0  1  0  0  0  0  0  0  0  0  0
   11.6552   -4.9772    0.3968 C   0  0  1  0  0  0  0  0  0  0  0  0
    8.1617   -3.2195   -2.5747 C   0  0  0  0  0  0  0  0  0  0  0  0
    9.5291   -1.7041   -1.2817 C   0  0  0  0  0  0  0  0  0  0  0  0
   13.6841   -6.2516   -0.1784 O   0  0  0  0  0  0  0  0  0  0  0  0
   12.1002   -4.5596    1.8195 C   0  0  2  0  0  0  0  0  0  0  0  0
    7.2686   -2.1736   -2.9229 C   0  0  0  0  0  0  0  0  0  0  0  0
    8.6623   -0.6507   -1.6134 C   0  0  0  0  0  0  0  0  0  0  0  0
   10.9620   -4.3851    2.6600 O   0  0  0  0  0  0  0  0  0  0  0  0
    6.1019   -2.5059   -3.7987 C   0  0  1  0  0  0  0  0  0  0  0  0
    7.5213   -0.8623   -2.4227 C   0  0  0  0  0  0  0  0  0  0  0  0
    6.4293   -2.4551   -5.2404 C   0  0  0  0  0  0  0  0  0  0  0  0
    6.6282    0.2904   -2.7175 C   0  0  0  0  0  0  0  0  0  0  0  0
    7.5529   -3.4960   -6.0942 S   0  0  0  0  0  0  0  0  0  0  0  0
    5.8610   -1.6260   -6.2129 C   0  0  0  0  0  0  0  0  0  0  0  0
    7.2218   -2.8906   -7.7109 C   0  0  0  0  0  0  0  0  0  0  0  0
    6.2896   -1.8566   -7.5306 C   0  0  0  0  0  0  0  0  0  0  0  0
    7.7602   -3.3864   -8.9322 C   0  0  0  0  0  0  0  0  0  0  0  0
    7.1011   -3.1718  -10.1698 C   0  0  0  0  0  0  0  0  0  0  0  0
    8.9614   -4.1375   -8.9449 C   0  0  0  0  0  0  0  0  0  0  0  0
    7.6074   -3.7099  -11.3674 C   0  0  0  0  0  0  0  0  0  0  0  0
    9.4714   -4.6721  -10.1433 C   0  0  0  0  0  0  0  0  0  0  0  0
    8.7932   -4.4638  -11.3570 C   0  0  0  0  0  0  0  0  0  0  0  0
    9.2610   -4.9643  -12.4678 F   0  0  0  0  0  0  0  0  0  0  0  0
   11.4960   -4.7429   -4.3452 H   0  0  0  0  0  0  0  0  0  0  0  0
   11.8502   -3.4075   -2.5916 H   0  0  0  0  0  0  0  0  0  0  0  0
    9.5960   -5.0720   -1.3320 H   0  0  0  0  0  0  0  0  0  0  0  0
   11.8155   -6.4199   -2.0387 H   0  0  0  0  0  0  0  0  0  0  0  0
   13.9268   -6.2929   -2.6631 H   0  0  0  0  0  0  0  0  0  0  0  0
   13.4525   -4.2623   -0.6080 H   0  0  0  0  0  0  0  0  0  0  0  0
   11.0989   -5.9158    0.4854 H   0  0  0  0  0  0  0  0  0  0  0  0
    7.9899   -4.1601   -2.9382 H   0  0  0  0  0  0  0  0  0  0  0  0
   10.3417   -1.4997   -0.6941 H   0  0  0  0  0  0  0  0  0  0  0  0
   14.0616   -5.9680    0.6817 H   0  0  0  0  0  0  0  0  0  0  0  0
   12.6506   -3.6147    1.7826 H   0  0  0  0  0  0  0  0  0  0  0  0
   12.7376   -5.3260    2.2645 H   0  0  0  0  0  0  0  0  0  0  0  0
    8.8772    0.2809   -1.2486 H   0  0  0  0  0  0  0  0  0  0  0  0
   11.3315   -4.1140    3.5268 H   0  0  0  0  0  0  0  0  0  0  0  0
    5.7289   -3.5067   -3.5692 H   0  0  0  0  0  0  0  0  0  0  0  0
    5.2637   -1.8411   -3.5964 H   0  0  0  0  0  0  0  0  0  0  0  0
    5.6529    0.1283   -2.2541 H   0  0  0  0  0  0  0  0  0  0  0  0
    6.4957    0.3887   -3.7947 H   0  0  0  0  0  0  0  0  0  0  0  0
    7.0235    1.2383   -2.3432 H   0  0  0  0  0  0  0  0  0  0  0  0
    5.1676   -0.9103   -5.9915 H   0  0  0  0  0  0  0  0  0  0  0  0
    5.9256   -1.3009   -8.3049 H   0  0  0  0  0  0  0  0  0  0  0  0
    6.2332   -2.6339  -10.2205 H   0  0  0  0  0  0  0  0  0  0  0  0
    9.4879   -4.3031   -8.0839 H   0  0  0  0  0  0  0  0  0  0  0  0
    7.1062   -3.5530  -12.2453 H   0  0  0  0  0  0  0  0  0  0  0  0
   10.3376   -5.2142  -10.1285 H   0  0  0  0  0  0  0  0  0  0  0  0
  2  1  1  0  0  0  0 
  2  3  1  0  0  0  0 
  4  2  1  0  0  0  0 
  3  5  1  0  0  0  0 
  3  6  1  0  0  0  0 
  4  7  1  0  0  0  0 
  8  4  1  0  0  0  0 
  9  5  1  0  0  0  0 
  6 10  2  0  0  0  0 
  6 11  1  0  0  0  0 
  9  8  1  0  0  0  0 
  8 12  1  0  0  0  0 
  9 13  1  0  0  0  0 
 10 14  1  0  0  0  0 
 11 15  2  0  0  0  0 
 13 16  1  0  0  0  0 
 14 17  1  0  0  0  0 
 14 18  2  0  0  0  0 
 15 18  1  0  0  0  0 
 17 19  1  0  0  0  0 
 18 20  1  0  0  0  0 
 19 21  1  0  0  0  0 
 19 22  2  0  0  0  0 
 21 23  1  0  0  0  0 
 22 24  1  0  0  0  0 
 23 24  2  0  0  0  0 
 23 25  1  0  0  0  0 
 25 26  2  0  0  0  0 
 25 27  1  0  0  0  0 
 26 28  1  0  0  0  0 
 27 29  2  0  0  0  0 
 28 30  2  0  0  0  0 
 29 30  1  0  0  0  0 
 30 31  1  0  0  0  0 
  1 32  1  0  0  0  0 
  2 33  1  0  0  0  0 
  3 34  1  0  0  0  0 
  4 35  1  0  0  0  0 
  7 36  1  0  0  0  0 
  8 37  1  0  0  0  0 
  9 38  1  0  0  0  0 
 10 39  1  0  0  0  0 
 11 40  1  0  0  0  0 
 12 41  1  0  0  0  0 
 13 42  1  0  0  0  0 
 13 43  1  0  0  0  0 
 15 44  1  0  0  0  0 
 16 45  1  0  0  0  0 
 17 46  1  0  0  0  0 
 17 47  1  0  0  0  0 
 20 48  1  0  0  0  0 
 20 49  1  0  0  0  0 
 20 50  1  0  0  0  0 
 22 51  1  0  0  0  0 
 24 52  1  0  0  0  0 
 26 53  1  0  0  0  0 
 27 54  1  0  0  0  0 
 28 55  1  0  0  0  0 
 29 56  1  0  0  0  0 
M  END
> <cdk:Title>
canagliflozin

> <Conformer>
1

> <SuperDrugID>
SD003749

$$$$
