malathion
  CDK     0628171801

 38 37  0  0  0  0  0  0  0  0999 V2000
   -8.5775    1.6207   -1.7322 C   0  0  0  0  0  0  0  0  0  0  0  0
   -7.6148    1.4181   -0.5511 C   0  0  1  0  0  0  0  0  0  0  0  0
   -6.4187    2.1619   -0.7961 O   0  0  0  0  0  0  0  0  0  0  0  0
   -5.1452    1.7034   -0.9723 C   0  0  0  0  0  0  0  0  0  0  0  0
   -4.8682    0.4804   -0.9714 O   0  0  0  0  0  0  0  0  0  0  0  0
   -4.0821    2.7077   -1.1726 C   0  0  1  0  0  0  0  0  0  0  0  0
   -3.8955    3.6081    0.0799 C   0  0  1  0  0  0  0  0  0  0  0  0
   -3.2390    2.6398    1.4892 S   0  0  0  0  0  0  0  0  0  0  0  0
   -3.7269    3.6818    3.1078 P   0  0  2  0  0  0  0  0  0  0  0  0
   -3.2008    2.7272    4.7167 S   0  0  0  0  0  0  0  0  0  0  0  0
   -5.2917    3.9840    3.0813 O   0  0  0  0  0  0  0  0  0  0  0  0
   -6.1668    2.8439    3.1452 C   0  0  0  0  0  0  0  0  0  0  0  0
   -2.9369    5.0648    3.0169 O   0  0  0  0  0  0  0  0  0  0  0  0
   -3.3241    6.0637    3.9745 C   0  0  0  0  0  0  0  0  0  0  0  0
   -3.0098    4.7591   -0.1859 C   0  0  0  0  0  0  0  0  0  0  0  0
   -1.8152    4.5756   -0.5221 O   0  0  0  0  0  0  0  0  0  0  0  0
   -3.5276    6.0169   -0.0699 O   0  0  0  0  0  0  0  0  0  0  0  0
   -2.8326    7.2582   -0.2204 C   0  0  1  0  0  0  0  0  0  0  0  0
   -3.8281    8.4225   -0.0629 C   0  0  0  0  0  0  0  0  0  0  0  0
   -8.1059    1.2709   -2.6497 H   0  0  0  0  0  0  0  0  0  0  0  0
   -9.4912    1.0532   -1.5655 H   0  0  0  0  0  0  0  0  0  0  0  0
   -8.8293    2.6767   -1.8421 H   0  0  0  0  0  0  0  0  0  0  0  0
   -8.0756    1.8014    0.3607 H   0  0  0  0  0  0  0  0  0  0  0  0
   -7.4136    0.3529   -0.4204 H   0  0  0  0  0  0  0  0  0  0  0  0
   -3.1359    2.2195   -1.4251 H   0  0  0  0  0  0  0  0  0  0  0  0
   -4.3762    3.3246   -2.0262 H   0  0  0  0  0  0  0  0  0  0  0  0
   -4.8788    3.9943    0.3629 H   0  0  0  0  0  0  0  0  0  0  0  0
   -7.1884    3.2086    3.0389 H   0  0  0  0  0  0  0  0  0  0  0  0
   -6.0889    2.3375    4.1089 H   0  0  0  0  0  0  0  0  0  0  0  0
   -5.9867    2.1275    2.3404 H   0  0  0  0  0  0  0  0  0  0  0  0
   -2.6969    6.9402    3.8118 H   0  0  0  0  0  0  0  0  0  0  0  0
   -3.1712    5.7268    5.0027 H   0  0  0  0  0  0  0  0  0  0  0  0
   -4.3644    6.3671    3.8355 H   0  0  0  0  0  0  0  0  0  0  0  0
   -2.0538    7.3373    0.5425 H   0  0  0  0  0  0  0  0  0  0  0  0
   -2.3687    7.3075   -1.2082 H   0  0  0  0  0  0  0  0  0  0  0  0
   -3.3004    9.3754   -0.1322 H   0  0  0  0  0  0  0  0  0  0  0  0
   -4.5827    8.3793   -0.8515 H   0  0  0  0  0  0  0  0  0  0  0  0
   -4.3249    8.3638    0.9080 H   0  0  0  0  0  0  0  0  0  0  0  0
  1  2  1  0  0  0  0 
  2  3  1  0  0  0  0 
  3  4  1  0  0  0  0 
  4  5  2  0  0  0  0 
  4  6  1  0  0  0  0 
  6  7  1  0  0  0  0 
  7  8  1  0  0  0  0 
  8  9  1  0  0  0  0 
  9 10  2  0  0  0  0 
  9 11  1  0  0  0  0 
 11 12  1  0  0  0  0 
  9 13  1  0  0  0  0 
 13 14  1  0  0  0  0 
  7 15  1  0  0  0  0 
 15 16  2  0  0  0  0 
 15 17  1  0  0  0  0 
 17 18  1  0  0  0  0 
 18 19  1  0  0  0  0 
  1 20  1  0  0  0  0 
  1 21  1  0  0  0  0 
  1 22  1  0  0  0  0 
  2 23  1  0  0  0  0 
  2 24  1  0  0  0  0 
  6 25  1  0  0  0  0 
  6 26  1  0  0  0  0 
  7 27  1  0  0  0  0 
 12 28  1  0  0  0  0 
 12 29  1  0  0  0  0 
 12 30  1  0  0  0  0 
 14 31  1  0  0  0  0 
 14 32  1  0  0  0  0 
 14 33  1  0  0  0  0 
 18 34  1  0  0  0  0 
 18 35  1  0  0  0  0 
 19 36  1  0  0  0  0 
 19 37  1  0  0  0  0 
 19 38  1  0  0  0  0 
M  END
> <cdk:Title>
malathion

> <Conformer>
1

> <SuperDrugID>
SD001439

$$$$
