cysteine
  CDK     0628171802

 14 13  0  0  0  0  0  0  0  0999 V2000
    0.4196   -3.3448    1.9838 N   0  0  2  0  0  0  0  0  0  0  0  0
   -0.2524   -2.4157    1.0652 C   0  0  1  0  0  0  0  0  0  0  0  0
    0.7174   -2.0220   -0.0796 C   0  0  1  0  0  0  0  0  0  0  0  0
   -0.0237   -0.8755   -1.2675 S   0  0  0  0  0  0  0  0  0  0  0  0
   -1.5022   -3.0441    0.5843 C   0  0  0  0  0  0  0  0  0  0  0  0
   -2.6949   -2.4437    0.8031 O   0  0  0  0  0  0  0  0  0  0  0  0
   -1.4868   -4.1278   -0.0423 O   0  0  0  0  0  0  0  0  0  0  0  0
   -0.2183   -3.5171    2.7641 H   0  0  0  0  0  0  0  0  0  0  0  0
    1.2312   -2.8565    2.3678 H   0  0  0  0  0  0  0  0  0  0  0  0
   -0.4961   -1.5144    1.6347 H   0  0  0  0  0  0  0  0  0  0  0  0
    1.5976   -1.5331    0.3449 H   0  0  0  0  0  0  0  0  0  0  0  0
    1.0465   -2.9141   -0.6190 H   0  0  0  0  0  0  0  0  0  0  0  0
   -0.2860    0.0653   -0.3199 H   0  0  0  0  0  0  0  0  0  0  0  0
   -3.5239   -2.8493    0.4724 H   0  0  0  0  0  0  0  0  0  0  0  0
  2  1  1  0  0  0  0 
  2  3  1  0  0  0  0 
  3  4  1  0  0  0  0 
  2  5  1  0  0  0  0 
  5  6  1  0  0  0  0 
  5  7  2  0  0  0  0 
  1  8  1  0  0  0  0 
  1  9  1  0  0  0  0 
  2 10  1  0  0  0  0 
  3 11  1  0  0  0  0 
  3 12  1  0  0  0  0 
  4 13  1  0  0  0  0 
  6 14  1  0  0  0  0 
M  END
> <cdk:Title>
cysteine

> <Conformer>
1

> <SuperDrugID>
SD000677

$$$$
