topiroxostat
  CDK     0628171802

 27 29  0  0  0  0  0  0  0  0999 V2000
   -0.7825    1.1237    0.0240 C   0  0  0  0  0  0  0  0  0  0  0  0
    0.0082    0.0222    0.0718 N   0  0  0  0  0  0  0  0  0  0  0  0
    1.3612    0.0897   -0.0009 C   0  0  0  0  0  0  0  0  0  0  0  0
    1.9965    1.3382   -0.1309 C   0  0  0  0  0  0  0  0  0  0  0  0
    1.2196    2.5214   -0.1572 C   0  0  0  0  0  0  0  0  0  0  0  0
   -0.1903    2.3994   -0.0974 C   0  0  0  0  0  0  0  0  0  0  0  0
    1.8343    3.7991   -0.2200 C   0  0  0  0  0  0  0  0  0  0  0  0
    3.1391    4.0659   -0.4113 N   0  0  0  0  0  0  0  0  0  0  0  0
    3.3177    5.3501   -0.3763 N   0  0  0  0  0  0  0  0  0  0  0  0
    2.1339    5.9512   -0.1605 C   0  0  0  0  0  0  0  0  0  0  0  0
    1.2180    4.9779   -0.0729 N   0  0  0  0  0  0  0  0  0  0  0  0
    1.8949    7.3428   -0.0320 C   0  0  0  0  0  0  0  0  0  0  0  0
    2.9627    8.2736   -0.0024 C   0  0  0  0  0  0  0  0  0  0  0  0
    2.6888    9.6463    0.1425 C   0  0  0  0  0  0  0  0  0  0  0  0
    1.4063   10.0736    0.2469 N   0  0  0  0  0  0  0  0  0  0  0  0
    0.3529    9.2197    0.2202 C   0  0  0  0  0  0  0  0  0  0  0  0
    0.5736    7.8379    0.0811 C   0  0  0  0  0  0  0  0  0  0  0  0
   -2.0712    0.9785    0.0951 C   0  0  0  0  0  0  0  0  0  0  0  0
   -3.2116    0.8598    0.1604 N   0  0  0  0  0  0  0  0  0  0  0  0
    1.9102   -0.7716    0.0418 H   0  0  0  0  0  0  0  0  0  0  0  0
    3.0176    1.3703   -0.1936 H   0  0  0  0  0  0  0  0  0  0  0  0
   -0.7841    3.2335   -0.1398 H   0  0  0  0  0  0  0  0  0  0  0  0
    0.2682    5.1027    0.0862 H   0  0  0  0  0  0  0  0  0  0  0  0
    3.9364    7.9674   -0.0790 H   0  0  0  0  0  0  0  0  0  0  0  0
    3.4493   10.3278    0.1662 H   0  0  0  0  0  0  0  0  0  0  0  0
   -0.5980    9.5849    0.2972 H   0  0  0  0  0  0  0  0  0  0  0  0
   -0.2332    7.2101    0.0635 H   0  0  0  0  0  0  0  0  0  0  0  0
  1  2  2  0  0  0  0 
  1  6  1  0  0  0  0 
  2  3  1  0  0  0  0 
  3  4  2  0  0  0  0 
  4  5  1  0  0  0  0 
  5  6  2  0  0  0  0 
  5  7  1  0  0  0  0 
  8  9  1  0  0  0  0 
  9 10  2  0  0  0  0 
 10 11  1  0  0  0  0 
  7  8  2  0  0  0  0 
  7 11  1  0  0  0  0 
 10 12  1  0  0  0  0 
 13 14  1  0  0  0  0 
 14 15  2  0  0  0  0 
 15 16  1  0  0  0  0 
 16 17  2  0  0  0  0 
 12 13  2  0  0  0  0 
 12 17  1  0  0  0  0 
  1 18  1  0  0  0  0 
 18 19  3  0  0  0  0 
 20  3  1  0  0  0  0 
 21  4  1  0  0  0  0 
 22  6  1  0  0  0  0 
 23 11  1  0  0  0  0 
 24 13  1  0  0  0  0 
 25 14  1  0  0  0  0 
 26 16  1  0  0  0  0 
 27 17  1  0  0  0  0 
M  END
> <cdk:Title>
topiroxostat

> <Conformer>
1

> <SuperDrugID>
SD003826

$$$$
