tolycaine
  CDK     0628171801

 42 42  0  0  0  0  0  0  0  0999 V2000
   -2.2175    2.7616    2.3080 N   0  0  0  0  0  0  0  0  0  0  0  0
   -1.9670    3.1780    3.5805 C   0  0  0  0  0  0  0  0  0  0  0  0
   -2.7908    1.5756    1.9470 C   0  0  0  0  0  0  0  0  0  0  0  0
   -1.1966    4.4225    3.7831 C   0  0  2  0  0  0  0  0  0  0  0  0
   -2.3129    2.5038    4.5798 O   0  0  0  0  0  0  0  0  0  0  0  0
   -1.9958    0.6300    1.2267 C   0  0  0  0  0  0  0  0  0  0  0  0
   -4.1634    1.3060    2.2313 C   0  0  0  0  0  0  0  0  0  0  0  0
   -1.6473    5.5215    2.8710 N   0  0  2  0  0  0  0  0  0  0  0  0
   -0.6159    0.8412    0.9013 C   0  0  0  0  0  0  0  0  0  0  0  0
   -2.6000   -0.5900    0.8331 C   0  0  0  0  0  0  0  0  0  0  0  0
   -5.0418    2.2785    2.9351 C   0  0  0  0  0  0  0  0  0  0  0  0
   -4.7172    0.0740    1.8182 C   0  0  0  0  0  0  0  0  0  0  0  0
   -0.6081    6.5562    2.5604 C   0  0  2  0  0  0  0  0  0  0  0  0
   -3.0012    6.0784    3.1974 C   0  0  2  0  0  0  0  0  0  0  0  0
   -0.0058    0.1153   -0.0891 O   0  0  0  0  0  0  0  0  0  0  0  0
    0.0829    1.6750    1.5267 O   0  0  0  0  0  0  0  0  0  0  0  0
   -3.9430   -0.8659    1.1267 C   0  0  0  0  0  0  0  0  0  0  0  0
    0.4767    6.0397    1.5882 C   0  0  0  0  0  0  0  0  0  0  0  0
   -3.8133    6.3272    1.9100 C   0  0  0  0  0  0  0  0  0  0  0  0
    1.3738    0.1888   -0.4698 C   0  0  0  0  0  0  0  0  0  0  0  0
   -1.8850    3.3232    1.5868 H   0  0  0  0  0  0  0  0  0  0  0  0
   -0.1578    4.1554    3.5884 H   0  0  0  0  0  0  0  0  0  0  0  0
   -1.2535    4.7521    4.8245 H   0  0  0  0  0  0  0  0  0  0  0  0
   -2.0662   -1.3087    0.3353 H   0  0  0  0  0  0  0  0  0  0  0  0
   -4.9140    3.2774    2.5174 H   0  0  0  0  0  0  0  0  0  0  0  0
   -4.7930    2.2955    3.9950 H   0  0  0  0  0  0  0  0  0  0  0  0
   -6.0988    2.0191    2.8492 H   0  0  0  0  0  0  0  0  0  0  0  0
   -5.6939   -0.1545    2.0221 H   0  0  0  0  0  0  0  0  0  0  0  0
   -0.1373    6.9125    3.4813 H   0  0  0  0  0  0  0  0  0  0  0  0
   -1.0697    7.4189    2.0744 H   0  0  0  0  0  0  0  0  0  0  0  0
   -2.9207    7.0081    3.7689 H   0  0  0  0  0  0  0  0  0  0  0  0
   -3.5822    5.3817    3.8071 H   0  0  0  0  0  0  0  0  0  0  0  0
   -4.3590   -1.7554    0.8403 H   0  0  0  0  0  0  0  0  0  0  0  0
    1.0729    6.8775    1.2209 H   0  0  0  0  0  0  0  0  0  0  0  0
    1.1469    5.3410    2.0897 H   0  0  0  0  0  0  0  0  0  0  0  0
    0.0132    5.5395    0.7345 H   0  0  0  0  0  0  0  0  0  0  0  0
   -4.8224    6.6531    2.1677 H   0  0  0  0  0  0  0  0  0  0  0  0
   -3.3441    7.0977    1.2973 H   0  0  0  0  0  0  0  0  0  0  0  0
   -3.8817    5.4073    1.3266 H   0  0  0  0  0  0  0  0  0  0  0  0
    2.0068   -0.0872    0.3755 H   0  0  0  0  0  0  0  0  0  0  0  0
    1.5563   -0.5059   -1.2889 H   0  0  0  0  0  0  0  0  0  0  0  0
    1.6271    1.1982   -0.7990 H   0  0  0  0  0  0  0  0  0  0  0  0
  1  2  1  0  0  0  0 
  1  3  1  0  0  0  0 
  2  4  1  0  0  0  0 
  2  5  2  0  0  0  0 
  3  6  2  0  0  0  0 
  3  7  1  0  0  0  0 
  4  8  1  0  0  0  0 
  6  9  1  0  0  0  0 
  6 10  1  0  0  0  0 
  7 11  1  0  0  0  0 
  7 12  2  0  0  0  0 
  8 13  1  0  0  0  0 
  8 14  1  0  0  0  0 
  9 15  1  0  0  0  0 
  9 16  2  0  0  0  0 
 10 17  2  0  0  0  0 
 12 17  1  0  0  0  0 
 13 18  1  0  0  0  0 
 14 19  1  0  0  0  0 
 15 20  1  0  0  0  0 
  1 21  1  0  0  0  0 
  4 22  1  0  0  0  0 
  4 23  1  0  0  0  0 
 10 24  1  0  0  0  0 
 11 25  1  0  0  0  0 
 11 26  1  0  0  0  0 
 11 27  1  0  0  0  0 
 12 28  1  0  0  0  0 
 13 29  1  0  0  0  0 
 13 30  1  0  0  0  0 
 14 31  1  0  0  0  0 
 14 32  1  0  0  0  0 
 17 33  1  0  0  0  0 
 18 34  1  0  0  0  0 
 18 35  1  0  0  0  0 
 18 36  1  0  0  0  0 
 19 37  1  0  0  0  0 
 19 38  1  0  0  0  0 
 19 39  1  0  0  0  0 
 20 40  1  0  0  0  0 
 20 41  1  0  0  0  0 
 20 42  1  0  0  0  0 
M  END
> <cdk:Title>
tolycaine

> <Conformer>
1

> <SuperDrugID>
SD003100

$$$$
