diacetazotol
  CDK     0628171801

 42 43  0  0  0  0  0  0  0  0999 V2000
    4.6197   -4.1425    5.1625 N   0  0  0  0  0  0  0  0  0  0  0  0
    5.9994   -4.0008    4.9762 C   0  0  0  0  0  0  0  0  0  0  0  0
    4.0632   -4.7843    6.2734 C   0  0  0  0  0  0  0  0  0  0  0  0
    3.7789   -3.6463    4.1872 C   0  0  0  0  0  0  0  0  0  0  0  0
    6.6196   -3.3673    3.7831 C   0  0  0  0  0  0  0  0  0  0  0  0
    6.8214   -4.4120    5.8314 O   0  0  0  0  0  0  0  0  0  0  0  0
    2.6131   -4.9328    6.5636 C   0  0  0  0  0  0  0  0  0  0  0  0
    4.7907   -5.3207    7.1438 O   0  0  0  0  0  0  0  0  0  0  0  0
    3.2289   -2.3335    4.2367 C   0  0  0  0  0  0  0  0  0  0  0  0
    3.4599   -4.4890    3.0981 C   0  0  0  0  0  0  0  0  0  0  0  0
    3.4907   -1.3832    5.3490 C   0  0  0  0  0  0  0  0  0  0  0  0
    2.3879   -1.9025    3.1817 C   0  0  0  0  0  0  0  0  0  0  0  0
    2.6308   -4.0399    2.0568 C   0  0  0  0  0  0  0  0  0  0  0  0
    2.0832   -2.7431    2.0845 C   0  0  0  0  0  0  0  0  0  0  0  0
    1.2999   -2.3850    1.0752 N   0  0  0  0  0  0  0  0  0  0  0  0
    0.7400   -1.3020    0.9220 N   0  0  0  0  0  0  0  0  0  0  0  0
   -0.0557   -0.9419   -0.0821 C   0  0  0  0  0  0  0  0  0  0  0  0
   -0.6328    0.3599   -0.0742 C   0  0  0  0  0  0  0  0  0  0  0  0
   -0.3544   -1.8228   -1.1536 C   0  0  0  0  0  0  0  0  0  0  0  0
   -0.3329    1.3333    1.0100 C   0  0  0  0  0  0  0  0  0  0  0  0
   -1.5084    0.7317   -1.1244 C   0  0  0  0  0  0  0  0  0  0  0  0
   -1.2191   -1.4332   -2.1905 C   0  0  0  0  0  0  0  0  0  0  0  0
   -1.8009   -0.1565   -2.1737 C   0  0  0  0  0  0  0  0  0  0  0  0
    6.3390   -3.9173    2.8839 H   0  0  0  0  0  0  0  0  0  0  0  0
    6.2822   -2.3323    3.6969 H   0  0  0  0  0  0  0  0  0  0  0  0
    7.7102   -3.3654    3.8450 H   0  0  0  0  0  0  0  0  0  0  0  0
    1.9773   -4.3663    5.8863 H   0  0  0  0  0  0  0  0  0  0  0  0
    2.4047   -4.5814    7.5772 H   0  0  0  0  0  0  0  0  0  0  0  0
    2.3339   -5.9866    6.4938 H   0  0  0  0  0  0  0  0  0  0  0  0
    3.8381   -5.4397    3.0596 H   0  0  0  0  0  0  0  0  0  0  0  0
    4.1540   -1.7940    6.1100 H   0  0  0  0  0  0  0  0  0  0  0  0
    3.9521   -0.4775    4.9519 H   0  0  0  0  0  0  0  0  0  0  0  0
    2.5489   -1.1167    5.8327 H   0  0  0  0  0  0  0  0  0  0  0  0
    1.9883   -0.9603    3.2118 H   0  0  0  0  0  0  0  0  0  0  0  0
    2.4299   -4.6701    1.2753 H   0  0  0  0  0  0  0  0  0  0  0  0
    0.0533   -2.7613   -1.1885 H   0  0  0  0  0  0  0  0  0  0  0  0
   -0.6245    0.9165    1.9751 H   0  0  0  0  0  0  0  0  0  0  0  0
   -0.8617    2.2798    0.8798 H   0  0  0  0  0  0  0  0  0  0  0  0
    0.7365    1.5474    1.0249 H   0  0  0  0  0  0  0  0  0  0  0  0
   -1.9429    1.6582   -1.1364 H   0  0  0  0  0  0  0  0  0  0  0  0
   -1.4275   -2.0789   -2.9567 H   0  0  0  0  0  0  0  0  0  0  0  0
   -2.4357    0.1272   -2.9243 H   0  0  0  0  0  0  0  0  0  0  0  0
  1  2  1  0  0  0  0 
  1  3  1  0  0  0  0 
  1  4  1  0  0  0  0 
  2  5  1  0  0  0  0 
  2  6  2  0  0  0  0 
  3  7  1  0  0  0  0 
  3  8  2  0  0  0  0 
  4  9  2  0  0  0  0 
  4 10  1  0  0  0  0 
  9 11  1  0  0  0  0 
  9 12  1  0  0  0  0 
 10 13  2  0  0  0  0 
 12 14  2  0  0  0  0 
 13 14  1  0  0  0  0 
 15 14  1  0  0  0  0 
 15 16  2  0  0  0  0 
 16 17  1  0  0  0  0 
 17 18  2  0  0  0  0 
 17 19  1  0  0  0  0 
 18 20  1  0  0  0  0 
 18 21  1  0  0  0  0 
 19 22  2  0  0  0  0 
 21 23  2  0  0  0  0 
 22 23  1  0  0  0  0 
 24  5  1  0  0  0  0 
 25  5  1  0  0  0  0 
 26  5  1  0  0  0  0 
 27  7  1  0  0  0  0 
 28  7  1  0  0  0  0 
 29  7  1  0  0  0  0 
 30 10  1  0  0  0  0 
 31 11  1  0  0  0  0 
 32 11  1  0  0  0  0 
 33 11  1  0  0  0  0 
 34 12  1  0  0  0  0 
 35 13  1  0  0  0  0 
 36 19  1  0  0  0  0 
 37 20  1  0  0  0  0 
 38 20  1  0  0  0  0 
 39 20  1  0  0  0  0 
 40 21  1  0  0  0  0 
 41 22  1  0  0  0  0 
 42 23  1  0  0  0  0 
M  END
> <cdk:Title>
diacetazotol

> <Conformer>
1

> <SuperDrugID>
SD003182

$$$$
