diloxanide furoate
  CDK     0628171802

 32 33  0  0  0  0  0  0  0  0999 V2000
    8.5009   -3.5943   -3.3274 N   0  0  0  0  0  0  0  0  0  0  0  0
    8.4113   -4.2208   -4.5693 C   0  0  0  0  0  0  0  0  0  0  0  0
    9.5442   -2.6279   -3.0723 C   0  0  0  0  0  0  0  0  0  0  0  0
    7.6239   -3.8539   -2.3057 C   0  0  0  0  0  0  0  0  0  0  0  0
    7.3048   -5.1015   -5.0432 C   0  0  2  0  0  0  0  0  0  0  0  0
    9.3232   -4.0225   -5.4110 O   0  0  0  0  0  0  0  0  0  0  0  0
    6.5346   -2.9947   -2.0469 C   0  0  0  0  0  0  0  0  0  0  0  0
    7.8191   -4.9755   -1.4723 C   0  0  0  0  0  0  0  0  0  0  0  0
    5.7590   -4.2617   -5.0321 Cl  0  0  0  0  0  0  0  0  0  0  0  0
    7.1734   -6.6163   -4.1583 Cl  0  0  0  0  0  0  0  0  0  0  0  0
    5.6122   -3.2982   -1.0280 C   0  0  0  0  0  0  0  0  0  0  0  0
    6.8884   -5.2851   -0.4646 C   0  0  0  0  0  0  0  0  0  0  0  0
    5.7502   -4.4786   -0.2606 C   0  0  0  0  0  0  0  0  0  0  0  0
    4.8521   -4.9158    0.6810 O   0  0  0  0  0  0  0  0  0  0  0  0
    3.5495   -4.5711    0.9375 C   0  0  0  0  0  0  0  0  0  0  0  0
    2.9094   -3.7665    0.2221 O   0  0  0  0  0  0  0  0  0  0  0  0
    2.8754   -5.1595    2.0197 C   0  0  0  0  0  0  0  0  0  0  0  0
    3.3748   -6.1167    2.9028 C   0  0  0  0  0  0  0  0  0  0  0  0
    1.5997   -4.8638    2.3810 O   0  0  0  0  0  0  0  0  0  0  0  0
    2.3682   -6.3957    3.8147 C   0  0  0  0  0  0  0  0  0  0  0  0
    1.2816   -5.6031    3.4693 C   0  0  0  0  0  0  0  0  0  0  0  0
    9.4743   -2.1667   -2.0828 H   0  0  0  0  0  0  0  0  0  0  0  0
    9.4938   -1.8232   -3.8098 H   0  0  0  0  0  0  0  0  0  0  0  0
   10.5192   -3.1122   -3.1450 H   0  0  0  0  0  0  0  0  0  0  0  0
    7.4747   -5.3889   -6.0831 H   0  0  0  0  0  0  0  0  0  0  0  0
    6.4057   -2.1497   -2.6090 H   0  0  0  0  0  0  0  0  0  0  0  0
    8.6308   -5.5829   -1.6092 H   0  0  0  0  0  0  0  0  0  0  0  0
    4.8437   -2.6486   -0.8589 H   0  0  0  0  0  0  0  0  0  0  0  0
    7.0349   -6.1183    0.1110 H   0  0  0  0  0  0  0  0  0  0  0  0
    4.3055   -6.5390    2.8919 H   0  0  0  0  0  0  0  0  0  0  0  0
    2.4162   -7.0573    4.5914 H   0  0  0  0  0  0  0  0  0  0  0  0
    0.3840   -5.5731    3.9557 H   0  0  0  0  0  0  0  0  0  0  0  0
  1  2  1  0  0  0  0 
  1  3  1  0  0  0  0 
  1  4  1  0  0  0  0 
  2  5  1  0  0  0  0 
  2  6  2  0  0  0  0 
  4  7  2  0  0  0  0 
  4  8  1  0  0  0  0 
  5  9  1  0  0  0  0 
  5 10  1  0  0  0  0 
  7 11  1  0  0  0  0 
  8 12  2  0  0  0  0 
 11 13  2  0  0  0  0 
 12 13  1  0  0  0  0 
 13 14  1  0  0  0  0 
 14 15  1  0  0  0  0 
 15 16  2  0  0  0  0 
 15 17  1  0  0  0  0 
 17 18  2  0  0  0  0 
 17 19  1  0  0  0  0 
 18 20  1  0  0  0  0 
 19 21  1  0  0  0  0 
 20 21  2  0  0  0  0 
  3 22  1  0  0  0  0 
  3 23  1  0  0  0  0 
  3 24  1  0  0  0  0 
  5 25  1  0  0  0  0 
  7 26  1  0  0  0  0 
  8 27  1  0  0  0  0 
 11 28  1  0  0  0  0 
 12 29  1  0  0  0  0 
 18 30  1  0  0  0  0 
 20 31  1  0  0  0  0 
 21 32  1  0  0  0  0 
M  END
> <cdk:Title>
diloxanide furoate

> <Conformer>
1

> <SuperDrugID>
SD000797

$$$$
