trifluperidol
  CDK     0628171801

 52 54  0  0  0  0  0  0  0  0999 V2000
    1.2271   -6.0909    3.1509 O   0  0  0  0  0  0  0  0  0  0  0  0
    1.1994   -5.2243    4.2850 C   0  0  2  0  0  0  0  0  0  0  0  0
    0.8115   -6.1200    5.4538 C   0  0  0  0  0  0  0  0  0  0  0  0
    0.2110   -4.0427    3.9606 C   0  0  2  0  0  0  0  0  0  0  0  0
    2.6231   -4.5609    4.3563 C   0  0  1  0  0  0  0  0  0  0  0  0
   -0.5466   -6.4321    5.7484 C   0  0  0  0  0  0  0  0  0  0  0  0
    1.7835   -6.7570    6.2718 C   0  0  0  0  0  0  0  0  0  0  0  0
    0.2977   -2.9125    5.0250 C   0  0  1  0  0  0  0  0  0  0  0  0
    2.6784   -3.4395    5.4316 C   0  0  1  0  0  0  0  0  0  0  0  0
   -0.9327   -7.2609    6.8341 C   0  0  0  0  0  0  0  0  0  0  0  0
    1.4320   -7.5752    7.3572 C   0  0  0  0  0  0  0  0  0  0  0  0
    1.6824   -2.3498    5.1629 N   0  0  1  0  0  0  0  0  0  0  0  0
   -2.3559   -7.5642    7.1614 C   0  0  2  0  0  0  0  0  0  0  0  0
    0.0828   -7.8131    7.6449 C   0  0  0  0  0  0  0  0  0  0  0  0
    2.1166   -1.3523    4.1196 C   0  0  2  0  0  0  0  0  0  0  0  0
   -2.6801   -6.9637    8.3539 F   0  0  0  0  0  0  0  0  0  0  0  0
   -2.5536   -8.9199    7.2879 F   0  0  0  0  0  0  0  0  0  0  0  0
   -3.2599   -7.1308    6.2207 F   0  0  0  0  0  0  0  0  0  0  0  0
    1.3297   -0.0107    4.0730 C   0  0  1  0  0  0  0  0  0  0  0  0
    1.3231    0.7549    5.4246 C   0  0  2  0  0  0  0  0  0  0  0  0
    0.4093    1.9342    5.4172 C   0  0  0  0  0  0  0  0  0  0  0  0
   -0.7249    1.7282    5.9156 O   0  0  0  0  0  0  0  0  0  0  0  0
    0.7258    3.2401    4.9070 C   0  0  0  0  0  0  0  0  0  0  0  0
    1.9794    3.5453    4.3134 C   0  0  0  0  0  0  0  0  0  0  0  0
   -0.2251    4.2948    4.9872 C   0  0  0  0  0  0  0  0  0  0  0  0
    2.2737    4.8398    3.8439 C   0  0  0  0  0  0  0  0  0  0  0  0
    0.0543    5.5827    4.4931 C   0  0  0  0  0  0  0  0  0  0  0  0
    1.3097    5.8589    3.9268 C   0  0  0  0  0  0  0  0  0  0  0  0
    1.5784    7.0563    3.4846 F   0  0  0  0  0  0  0  0  0  0  0  0
    0.3077   -6.4104    3.0430 H   0  0  0  0  0  0  0  0  0  0  0  0
   -0.8208   -4.3749    3.8642 H   0  0  0  0  0  0  0  0  0  0  0  0
    0.4605   -3.6175    2.9849 H   0  0  0  0  0  0  0  0  0  0  0  0
    3.4134   -5.2887    4.5329 H   0  0  0  0  0  0  0  0  0  0  0  0
    2.8659   -4.1149    3.3883 H   0  0  0  0  0  0  0  0  0  0  0  0
   -1.2874   -6.0586    5.1619 H   0  0  0  0  0  0  0  0  0  0  0  0
    2.7781   -6.6526    6.0945 H   0  0  0  0  0  0  0  0  0  0  0  0
   -0.4247   -2.1313    4.7870 H   0  0  0  0  0  0  0  0  0  0  0  0
   -0.0088   -3.3192    5.9921 H   0  0  0  0  0  0  0  0  0  0  0  0
    2.4693   -3.8669    6.4147 H   0  0  0  0  0  0  0  0  0  0  0  0
    3.6918   -3.0378    5.4832 H   0  0  0  0  0  0  0  0  0  0  0  0
    2.1601   -8.0045    7.9341 H   0  0  0  0  0  0  0  0  0  0  0  0
   -0.1488   -8.4071    8.4468 H   0  0  0  0  0  0  0  0  0  0  0  0
    2.0736   -1.8055    3.1259 H   0  0  0  0  0  0  0  0  0  0  0  0
    3.1611   -1.0846    4.2998 H   0  0  0  0  0  0  0  0  0  0  0  0
    1.7924    0.6235    3.3138 H   0  0  0  0  0  0  0  0  0  0  0  0
    0.3063   -0.1983    3.7453 H   0  0  0  0  0  0  0  0  0  0  0  0
    2.3385    1.0610    5.6830 H   0  0  0  0  0  0  0  0  0  0  0  0
    1.0046    0.0653    6.2114 H   0  0  0  0  0  0  0  0  0  0  0  0
    2.7034    2.8331    4.2095 H   0  0  0  0  0  0  0  0  0  0  0  0
   -1.1441    4.1392    5.4090 H   0  0  0  0  0  0  0  0  0  0  0  0
    3.1914    5.0364    3.4399 H   0  0  0  0  0  0  0  0  0  0  0  0
   -0.6578    6.3151    4.5507 H   0  0  0  0  0  0  0  0  0  0  0  0
  1  2  1  0  0  0  0 
  2  3  1  0  0  0  0 
  2  4  1  0  0  0  0 
  2  5  1  0  0  0  0 
  3  6  2  0  0  0  0 
  3  7  1  0  0  0  0 
  4  8  1  0  0  0  0 
  5  9  1  0  0  0  0 
  6 10  1  0  0  0  0 
  7 11  2  0  0  0  0 
  8 12  1  0  0  0  0 
  9 12  1  0  0  0  0 
 10 13  1  0  0  0  0 
 10 14  2  0  0  0  0 
 11 14  1  0  0  0  0 
 12 15  1  0  0  0  0 
 13 16  1  0  0  0  0 
 13 17  1  0  0  0  0 
 13 18  1  0  0  0  0 
 15 19  1  0  0  0  0 
 19 20  1  0  0  0  0 
 20 21  1  0  0  0  0 
 21 22  2  0  0  0  0 
 21 23  1  0  0  0  0 
 23 24  2  0  0  0  0 
 23 25  1  0  0  0  0 
 24 26  1  0  0  0  0 
 25 27  2  0  0  0  0 
 26 28  2  0  0  0  0 
 27 28  1  0  0  0  0 
 28 29  1  0  0  0  0 
 30  1  1  0  0  0  0 
 31  4  1  0  0  0  0 
 32  4  1  0  0  0  0 
 33  5  1  0  0  0  0 
 34  5  1  0  0  0  0 
 35  6  1  0  0  0  0 
 36  7  1  0  0  0  0 
 37  8  1  0  0  0  0 
 38  8  1  0  0  0  0 
 39  9  1  0  0  0  0 
 40  9  1  0  0  0  0 
 41 11  1  0  0  0  0 
 42 14  1  0  0  0  0 
 43 15  1  0  0  0  0 
 44 15  1  0  0  0  0 
 45 19  1  0  0  0  0 
 46 19  1  0  0  0  0 
 47 20  1  0  0  0  0 
 48 20  1  0  0  0  0 
 49 24  1  0  0  0  0 
 50 25  1  0  0  0  0 
 51 26  1  0  0  0  0 
 52 27  1  0  0  0  0 
M  END
> <cdk:Title>
trifluperidol

> <Conformer>
1

> <SuperDrugID>
SD002471

$$$$
