indeloxazine
  CDK     0628171801

 34 36  0  0  0  0  0  0  0  0999 V2000
    0.4253    4.2274   -0.1971 O   0  0  0  0  0  0  0  0  0  0  0  0
    1.4897    3.4124    0.3429 C   0  0  1  0  0  0  0  0  0  0  0  0
    0.2495    5.3921    0.4945 C   0  0  0  0  0  0  0  0  0  0  0  0
    1.5907    2.0876   -0.4469 C   0  0  1  0  0  0  0  0  0  0  0  0
   -0.6194    5.4571    1.6030 C   0  0  0  0  0  0  0  0  0  0  0  0
    0.9442    6.5640    0.1159 C   0  0  0  0  0  0  0  0  0  0  0  0
    0.2841    1.2449   -0.3713 C   0  0  2  0  0  0  0  0  0  0  0  0
    1.8985    2.4037   -1.8242 O   0  0  0  0  0  0  0  0  0  0  0  0
   -0.7502    6.6344    2.3392 C   0  0  0  0  0  0  0  0  0  0  0  0
   -1.4704    4.4129    2.1846 C   0  0  1  0  0  0  0  0  0  0  0  0
    0.8012    7.7559    0.8597 C   0  0  0  0  0  0  0  0  0  0  0  0
    0.4108    0.0468   -1.2347 N   0  0  2  0  0  0  0  0  0  0  0  0
    2.0367    1.2492   -2.6777 C   0  0  1  0  0  0  0  0  0  0  0  0
   -1.6121    6.4030    3.3594 C   0  0  0  0  0  0  0  0  0  0  0  0
   -0.0465    7.8001    1.9875 C   0  0  0  0  0  0  0  0  0  0  0  0
   -2.0405    5.1414    3.2934 C   0  0  0  0  0  0  0  0  0  0  0  0
    0.7548    0.3842   -2.6346 C   0  0  1  0  0  0  0  0  0  0  0  0
    2.4483    3.9342    0.2622 H   0  0  0  0  0  0  0  0  0  0  0  0
    1.3195    3.1773    1.3982 H   0  0  0  0  0  0  0  0  0  0  0  0
    2.4120    1.5000   -0.0180 H   0  0  0  0  0  0  0  0  0  0  0  0
    1.5659    6.5442   -0.6958 H   0  0  0  0  0  0  0  0  0  0  0  0
   -0.5738    1.8380   -0.7019 H   0  0  0  0  0  0  0  0  0  0  0  0
    0.1001    0.9234    0.6575 H   0  0  0  0  0  0  0  0  0  0  0  0
   -2.2408    4.0837    1.4831 H   0  0  0  0  0  0  0  0  0  0  0  0
   -0.8818    3.5644    2.5328 H   0  0  0  0  0  0  0  0  0  0  0  0
    1.3198    8.5921    0.5831 H   0  0  0  0  0  0  0  0  0  0  0  0
   -0.5012   -0.4152   -1.2510 H   0  0  0  0  0  0  0  0  0  0  0  0
    2.2038    1.5940   -3.6991 H   0  0  0  0  0  0  0  0  0  0  0  0
    2.9056    0.6573   -2.3781 H   0  0  0  0  0  0  0  0  0  0  0  0
   -1.8803    7.0665    4.0466 H   0  0  0  0  0  0  0  0  0  0  0  0
   -0.1444    8.6578    2.5338 H   0  0  0  0  0  0  0  0  0  0  0  0
   -2.6802    4.7428    3.9382 H   0  0  0  0  0  0  0  0  0  0  0  0
    0.9108   -0.5387   -3.1954 H   0  0  0  0  0  0  0  0  0  0  0  0
   -0.0740    0.9275   -3.0938 H   0  0  0  0  0  0  0  0  0  0  0  0
  1  2  1  0  0  0  0 
  1  3  1  0  0  0  0 
  4  2  1  0  0  0  0 
  3  5  2  0  0  0  0 
  3  6  1  0  0  0  0 
  4  7  1  0  0  0  0 
  4  8  1  0  0  0  0 
  5  9  1  0  0  0  0 
  5 10  1  0  0  0  0 
  6 11  2  0  0  0  0 
  7 12  1  0  0  0  0 
  8 13  1  0  0  0  0 
  9 14  1  0  0  0  0 
  9 15  2  0  0  0  0 
 10 16  1  0  0  0  0 
 11 15  1  0  0  0  0 
 12 17  1  0  0  0  0 
 13 17  1  0  0  0  0 
 14 16  2  0  0  0  0 
  2 18  1  0  0  0  0 
  2 19  1  0  0  0  0 
  4 20  1  0  0  0  0 
  6 21  1  0  0  0  0 
  7 22  1  0  0  0  0 
  7 23  1  0  0  0  0 
 10 24  1  0  0  0  0 
 10 25  1  0  0  0  0 
 11 26  1  0  0  0  0 
 12 27  1  0  0  0  0 
 13 28  1  0  0  0  0 
 13 29  1  0  0  0  0 
 14 30  1  0  0  0  0 
 15 31  1  0  0  0  0 
 16 32  1  0  0  0  0 
 17 33  1  0  0  0  0 
 17 34  1  0  0  0  0 
M  END
> <cdk:Title>
indeloxazine

> <Conformer>
1

> <SuperDrugID>
SD001273

$$$$
