oxolamine
  CDK     0628171801

 37 38  0  0  0  0  0  0  0  0999 V2000
   -3.2431   -3.6233    1.0007 C   0  0  2  0  0  0  0  0  0  0  0  0
   -2.8530   -4.8330    1.8913 C   0  0  2  0  0  0  0  0  0  0  0  0
   -2.0740   -2.8724    0.5119 C   0  0  0  0  0  0  0  0  0  0  0  0
   -1.7475   -4.5204    2.8643 N   0  0  2  0  0  0  0  0  0  0  0  0
   -1.7906   -1.6016    0.8231 N   0  0  0  0  0  0  0  0  0  0  0  0
   -1.1100   -3.3617   -0.2959 O   0  0  0  0  0  0  0  0  0  0  0  0
   -0.8885   -5.7000    3.2158 C   0  0  1  0  0  0  0  0  0  0  0  0
   -2.1975   -3.6981    4.0377 C   0  0  1  0  0  0  0  0  0  0  0  0
   -0.6347   -1.3170    0.2036 C   0  0  0  0  0  0  0  0  0  0  0  0
   -0.2395   -2.4100   -0.4755 N   0  0  0  0  0  0  0  0  0  0  0  0
    0.0298   -6.1405    2.0511 C   0  0  0  0  0  0  0  0  0  0  0  0
   -1.0527   -2.9157    4.7241 C   0  0  0  0  0  0  0  0  0  0  0  0
    0.0505   -0.0759    0.2677 C   0  0  0  0  0  0  0  0  0  0  0  0
   -0.5263    1.0484    0.9110 C   0  0  0  0  0  0  0  0  0  0  0  0
    1.3382    0.0733   -0.3044 C   0  0  0  0  0  0  0  0  0  0  0  0
    0.1608    2.2761    0.9837 C   0  0  0  0  0  0  0  0  0  0  0  0
    2.0292    1.2978   -0.2274 C   0  0  0  0  0  0  0  0  0  0  0  0
    1.4423    2.3985    0.4194 C   0  0  0  0  0  0  0  0  0  0  0  0
   -3.8887   -2.9518    1.5666 H   0  0  0  0  0  0  0  0  0  0  0  0
   -3.8171   -3.9732    0.1409 H   0  0  0  0  0  0  0  0  0  0  0  0
   -2.5725   -5.6426    1.2152 H   0  0  0  0  0  0  0  0  0  0  0  0
   -3.7381   -5.1879    2.4251 H   0  0  0  0  0  0  0  0  0  0  0  0
   -0.2191   -5.4619    4.0436 H   0  0  0  0  0  0  0  0  0  0  0  0
   -1.5081   -6.5390    3.5427 H   0  0  0  0  0  0  0  0  0  0  0  0
   -2.9210   -2.9430    3.7187 H   0  0  0  0  0  0  0  0  0  0  0  0
   -2.7026   -4.3324    4.7715 H   0  0  0  0  0  0  0  0  0  0  0  0
   -0.5321   -6.6474    1.2679 H   0  0  0  0  0  0  0  0  0  0  0  0
    0.5284   -5.2707    1.6215 H   0  0  0  0  0  0  0  0  0  0  0  0
    0.7913   -6.8322    2.4182 H   0  0  0  0  0  0  0  0  0  0  0  0
   -1.4680   -2.1625    5.3982 H   0  0  0  0  0  0  0  0  0  0  0  0
   -0.4424   -2.4106    3.9745 H   0  0  0  0  0  0  0  0  0  0  0  0
   -0.4181   -3.5774    5.3124 H   0  0  0  0  0  0  0  0  0  0  0  0
   -1.4563    0.9893    1.3324 H   0  0  0  0  0  0  0  0  0  0  0  0
    1.7944   -0.7117   -0.7751 H   0  0  0  0  0  0  0  0  0  0  0  0
   -0.2676    3.0790    1.4515 H   0  0  0  0  0  0  0  0  0  0  0  0
    2.9599    1.3875   -0.6421 H   0  0  0  0  0  0  0  0  0  0  0  0
    1.9465    3.2864    0.4810 H   0  0  0  0  0  0  0  0  0  0  0  0
  1  2  1  0  0  0  0 
  1  3  1  0  0  0  0 
  2  4  1  0  0  0  0 
  3  5  2  0  0  0  0 
  3  6  1  0  0  0  0 
  4  7  1  0  0  0  0 
  4  8  1  0  0  0  0 
  5  9  1  0  0  0  0 
  6 10  1  0  0  0  0 
  7 11  1  0  0  0  0 
  8 12  1  0  0  0  0 
  9 10  2  0  0  0  0 
  9 13  1  0  0  0  0 
 13 14  2  0  0  0  0 
 13 15  1  0  0  0  0 
 14 16  1  0  0  0  0 
 15 17  2  0  0  0  0 
 16 18  2  0  0  0  0 
 17 18  1  0  0  0  0 
  1 19  1  0  0  0  0 
  1 20  1  0  0  0  0 
  2 21  1  0  0  0  0 
  2 22  1  0  0  0  0 
  7 23  1  0  0  0  0 
  7 24  1  0  0  0  0 
  8 25  1  0  0  0  0 
  8 26  1  0  0  0  0 
 11 27  1  0  0  0  0 
 11 28  1  0  0  0  0 
 11 29  1  0  0  0  0 
 12 30  1  0  0  0  0 
 12 31  1  0  0  0  0 
 12 32  1  0  0  0  0 
 14 33  1  0  0  0  0 
 15 34  1  0  0  0  0 
 16 35  1  0  0  0  0 
 17 36  1  0  0  0  0 
 18 37  1  0  0  0  0 
M  END
> <cdk:Title>
oxolamine

> <Conformer>
1

> <SuperDrugID>
SD001810

$$$$
