bulaquine
  CDK     0628171801

 54 56  0  0  0  0  0  0  0  0999 V2000
   -1.2102   -4.1649   -2.5675 N   0  0  0  0  0  0  0  0  0  0  0  0
   -2.0921   -4.4372   -1.4721 C   0  0  2  0  0  0  0  0  0  0  0  0
   -1.4923   -4.2600   -3.8975 C   0  0  0  0  0  0  0  0  0  0  0  0
   -1.4946   -3.8248   -0.1709 C   0  0  1  0  0  0  0  0  0  0  0  0
   -2.2706   -5.9715   -1.3335 C   0  0  0  0  0  0  0  0  0  0  0  0
   -0.4995   -4.8179   -4.7363 C   0  0  0  0  0  0  0  0  0  0  0  0
   -2.7038   -3.8105   -4.4737 C   0  0  0  0  0  0  0  0  0  0  0  0
   -1.4382   -2.2739   -0.2009 C   0  0  2  0  0  0  0  0  0  0  0  0
   -0.7302   -4.9552   -6.1328 C   0  0  0  0  0  0  0  0  0  0  0  0
    0.6876   -5.2430   -4.2186 N   0  0  0  0  0  0  0  0  0  0  0  0
   -2.9369   -3.9398   -5.8596 C   0  0  0  0  0  0  0  0  0  0  0  0
   -0.9325   -1.6457    1.1253 C   0  0  2  0  0  0  0  0  0  0  0  0
   -1.9559   -4.5257   -6.6800 C   0  0  0  0  0  0  0  0  0  0  0  0
    0.2877   -5.5143   -6.9365 C   0  0  0  0  0  0  0  0  0  0  0  0
    1.6756   -5.7877   -4.9701 C   0  0  0  0  0  0  0  0  0  0  0  0
   -4.0779   -3.4563   -6.4403 O   0  0  0  0  0  0  0  0  0  0  0  0
   -0.7936   -0.2240    1.0296 N   0  0  0  0  0  0  0  0  0  0  0  0
    1.4982   -5.9306   -6.3558 C   0  0  0  0  0  0  0  0  0  0  0  0
   -5.2083   -4.3347   -6.3231 C   0  0  0  0  0  0  0  0  0  0  0  0
    0.0049    0.4858    0.2117 C   0  0  0  0  0  0  0  0  0  0  0  0
   -0.3906    1.7278   -0.1689 C   0  0  0  0  0  0  0  0  0  0  0  0
    1.2777   -0.0659   -0.2624 C   0  0  0  0  0  0  0  0  0  0  0  0
   -1.5743    2.3708    0.1465 C   0  0  0  0  0  0  0  0  0  0  0  0
   -1.6650    3.5826   -0.4308 O   0  0  0  0  0  0  0  0  0  0  0  0
   -0.5158    3.8658   -1.2138 C   0  0  1  0  0  0  0  0  0  0  0  0
    0.3818    2.6264   -1.0147 C   0  0  2  0  0  0  0  0  0  0  0  0
   -2.5097    1.9394    0.8583 O   0  0  0  0  0  0  0  0  0  0  0  0
   -0.2815   -4.0064   -2.3405 H   0  0  0  0  0  0  0  0  0  0  0  0
   -3.0737   -3.9847   -1.6399 H   0  0  0  0  0  0  0  0  0  0  0  0
   -2.1084   -4.1290    0.6799 H   0  0  0  0  0  0  0  0  0  0  0  0
   -0.4855   -4.2191   -0.0134 H   0  0  0  0  0  0  0  0  0  0  0  0
   -2.6964   -6.3904   -2.2446 H   0  0  0  0  0  0  0  0  0  0  0  0
   -1.3086   -6.4506   -1.1499 H   0  0  0  0  0  0  0  0  0  0  0  0
   -2.9415   -6.2055   -0.5071 H   0  0  0  0  0  0  0  0  0  0  0  0
   -3.4206   -3.3682   -3.8950 H   0  0  0  0  0  0  0  0  0  0  0  0
   -2.4384   -1.8819   -0.4085 H   0  0  0  0  0  0  0  0  0  0  0  0
   -0.7827   -1.9670   -1.0174 H   0  0  0  0  0  0  0  0  0  0  0  0
    0.0011   -2.1045    1.4547 H   0  0  0  0  0  0  0  0  0  0  0  0
   -1.6723   -1.8413    1.9035 H   0  0  0  0  0  0  0  0  0  0  0  0
   -2.1370   -4.6278   -7.6818 H   0  0  0  0  0  0  0  0  0  0  0  0
    0.1570   -5.6172   -7.9453 H   0  0  0  0  0  0  0  0  0  0  0  0
    2.5431   -6.0896   -4.5244 H   0  0  0  0  0  0  0  0  0  0  0  0
   -1.3866    0.2887    1.5979 H   0  0  0  0  0  0  0  0  0  0  0  0
    2.2384   -6.3275   -6.9344 H   0  0  0  0  0  0  0  0  0  0  0  0
   -6.0258   -3.9194   -6.9147 H   0  0  0  0  0  0  0  0  0  0  0  0
   -4.9898   -5.3352   -6.7062 H   0  0  0  0  0  0  0  0  0  0  0  0
   -5.5386   -4.3981   -5.2841 H   0  0  0  0  0  0  0  0  0  0  0  0
    1.5200   -1.0321    0.1753 H   0  0  0  0  0  0  0  0  0  0  0  0
    1.2387   -0.1972   -1.3449 H   0  0  0  0  0  0  0  0  0  0  0  0
    2.1018    0.6056   -0.0148 H   0  0  0  0  0  0  0  0  0  0  0  0
   -0.8023    3.9914   -2.2616 H   0  0  0  0  0  0  0  0  0  0  0  0
   -0.0292    4.7747   -0.8510 H   0  0  0  0  0  0  0  0  0  0  0  0
    0.6135    2.1720   -1.9836 H   0  0  0  0  0  0  0  0  0  0  0  0
    1.3132    2.9152   -0.5162 H   0  0  0  0  0  0  0  0  0  0  0  0
  2  1  1  0  0  0  0 
  1  3  1  0  0  0  0 
  2  4  1  0  0  0  0 
  2  5  1  0  0  0  0 
  3  6  2  0  0  0  0 
  3  7  1  0  0  0  0 
  4  8  1  0  0  0  0 
  6  9  1  0  0  0  0 
  6 10  1  0  0  0  0 
  7 11  2  0  0  0  0 
  8 12  1  0  0  0  0 
  9 13  2  0  0  0  0 
  9 14  1  0  0  0  0 
 10 15  2  0  0  0  0 
 11 13  1  0  0  0  0 
 11 16  1  0  0  0  0 
 12 17  1  0  0  0  0 
 14 18  2  0  0  0  0 
 15 18  1  0  0  0  0 
 16 19  1  0  0  0  0 
 20 17  1  0  0  0  0 
 20 21  2  0  0  0  0 
 20 22  1  0  0  0  0 
 23 24  1  0  0  0  0 
 24 25  1  0  0  0  0 
 25 26  1  0  0  0  0 
 21 23  1  0  0  0  0 
 21 26  1  0  0  0  0 
 23 27  2  0  0  0  0 
 28  1  1  0  0  0  0 
 29  2  1  0  0  0  0 
 30  4  1  0  0  0  0 
 31  4  1  0  0  0  0 
 32  5  1  0  0  0  0 
 33  5  1  0  0  0  0 
 34  5  1  0  0  0  0 
 35  7  1  0  0  0  0 
 36  8  1  0  0  0  0 
 37  8  1  0  0  0  0 
 38 12  1  0  0  0  0 
 39 12  1  0  0  0  0 
 40 13  1  0  0  0  0 
 41 14  1  0  0  0  0 
 42 15  1  0  0  0  0 
 43 17  1  0  0  0  0 
 44 18  1  0  0  0  0 
 45 19  1  0  0  0  0 
 46 19  1  0  0  0  0 
 47 19  1  0  0  0  0 
 48 22  1  0  0  0  0 
 49 22  1  0  0  0  0 
 50 22  1  0  0  0  0 
 51 25  1  0  0  0  0 
 52 25  1  0  0  0  0 
 53 26  1  0  0  0  0 
 54 26  1  0  0  0  0 
M  END
> <cdk:Title>
bulaquine

> <Conformer>
1

> <SuperDrugID>
SD000367

$$$$
