vortioxetine
  CDK     0628171802

 43 45  0  0  0  0  0  0  0  0999 V2000
    1.3824   -6.0435    1.4830 C   0  0  0  0  0  0  0  0  0  0  0  0
    1.9429   -5.3478    0.3995 C   0  0  0  0  0  0  0  0  0  0  0  0
    1.7600   -3.9584    0.2891 C   0  0  0  0  0  0  0  0  0  0  0  0
    1.0030   -3.2553    1.2528 C   0  0  0  0  0  0  0  0  0  0  0  0
    0.4535   -3.9500    2.3621 C   0  0  0  0  0  0  0  0  0  0  0  0
    0.6467   -5.3478    2.4584 C   0  0  0  0  0  0  0  0  0  0  0  0
    0.7561   -1.5249    1.0238 S   0  0  0  0  0  0  0  0  0  0  0  0
   -0.2566   -3.3274    3.3585 N   0  0  0  0  0  0  0  0  0  0  0  0
   -1.6003   -2.8377    3.1344 C   0  0  1  0  0  0  0  0  0  0  0  0
    0.3209   -3.2038    4.6808 C   0  0  2  0  0  0  0  0  0  0  0  0
    0.1467   -1.7639    5.2227 C   0  0  2  0  0  0  0  0  0  0  0  0
   -1.2646   -1.3288    5.0968 N   0  0  2  0  0  0  0  0  0  0  0  0
   -1.7687   -1.4048    3.7056 C   0  0  2  0  0  0  0  0  0  0  0  0
   -0.0245   -1.3326   -0.5533 C   0  0  0  0  0  0  0  0  0  0  0  0
   -0.9328   -2.3202   -0.9964 C   0  0  0  0  0  0  0  0  0  0  0  0
   -1.5066   -2.2484   -2.2753 C   0  0  0  0  0  0  0  0  0  0  0  0
   -1.2228   -1.1618   -3.1269 C   0  0  0  0  0  0  0  0  0  0  0  0
   -0.3711   -0.1373   -2.6556 C   0  0  0  0  0  0  0  0  0  0  0  0
    0.2437   -0.2081   -1.3810 C   0  0  0  0  0  0  0  0  0  0  0  0
   -1.8091   -1.1227   -4.4880 C   0  0  0  0  0  0  0  0  0  0  0  0
    1.1570    0.8831   -0.9458 C   0  0  0  0  0  0  0  0  0  0  0  0
    1.5116   -7.0550    1.5647 H   0  0  0  0  0  0  0  0  0  0  0  0
    2.4839   -5.8515   -0.3068 H   0  0  0  0  0  0  0  0  0  0  0  0
    2.1804   -3.4658   -0.5034 H   0  0  0  0  0  0  0  0  0  0  0  0
    0.2437   -5.8701    3.2414 H   0  0  0  0  0  0  0  0  0  0  0  0
   -1.8753   -2.8318    2.0745 H   0  0  0  0  0  0  0  0  0  0  0  0
   -2.2996   -3.5073    3.6435 H   0  0  0  0  0  0  0  0  0  0  0  0
    1.3906   -3.4463    4.6930 H   0  0  0  0  0  0  0  0  0  0  0  0
   -0.1852   -3.9032    5.3537 H   0  0  0  0  0  0  0  0  0  0  0  0
    0.7987   -1.0769    4.6768 H   0  0  0  0  0  0  0  0  0  0  0  0
    0.4366   -1.7360    6.2757 H   0  0  0  0  0  0  0  0  0  0  0  0
   -1.3056   -0.3475    5.3811 H   0  0  0  0  0  0  0  0  0  0  0  0
   -2.8261   -1.1354    3.7047 H   0  0  0  0  0  0  0  0  0  0  0  0
   -1.2398   -0.6795    3.0821 H   0  0  0  0  0  0  0  0  0  0  0  0
   -1.1799   -3.1111   -0.3989 H   0  0  0  0  0  0  0  0  0  0  0  0
   -2.1328   -2.9984   -2.5821 H   0  0  0  0  0  0  0  0  0  0  0  0
   -0.1865    0.6671   -3.2596 H   0  0  0  0  0  0  0  0  0  0  0  0
   -2.8983   -1.1636   -4.4249 H   0  0  0  0  0  0  0  0  0  0  0  0
   -1.5308   -0.2130   -5.0255 H   0  0  0  0  0  0  0  0  0  0  0  0
   -1.4552   -1.9820   -5.0632 H   0  0  0  0  0  0  0  0  0  0  0  0
    2.1698    0.4893   -0.8363 H   0  0  0  0  0  0  0  0  0  0  0  0
    0.8214    1.2880    0.0114 H   0  0  0  0  0  0  0  0  0  0  0  0
    1.1917    1.7092   -1.6595 H   0  0  0  0  0  0  0  0  0  0  0  0
  1  2  2  0  0  0  0 
  1  6  1  0  0  0  0 
  2  3  1  0  0  0  0 
  3  4  2  0  0  0  0 
  4  5  1  0  0  0  0 
  5  6  2  0  0  0  0 
  4  7  1  0  0  0  0 
  5  8  1  0  0  0  0 
  9  8  1  0  0  0  0 
  8 10  1  0  0  0  0 
  9 13  1  0  0  0  0 
 10 11  1  0  0  0  0 
 11 12  1  0  0  0  0 
 12 13  1  0  0  0  0 
  7 14  1  0  0  0  0 
 19 14  2  0  0  0  0 
 15 14  1  0  0  0  0 
 15 16  2  0  0  0  0 
 16 17  1  0  0  0  0 
 17 18  2  0  0  0  0 
 18 19  1  0  0  0  0 
 17 20  1  0  0  0  0 
 19 21  1  0  0  0  0 
  1 22  1  0  0  0  0 
  2 23  1  0  0  0  0 
  3 24  1  0  0  0  0 
  6 25  1  0  0  0  0 
  9 26  1  0  0  0  0 
  9 27  1  0  0  0  0 
 10 28  1  0  0  0  0 
 10 29  1  0  0  0  0 
 11 30  1  0  0  0  0 
 11 31  1  0  0  0  0 
 12 32  1  0  0  0  0 
 13 33  1  0  0  0  0 
 13 34  1  0  0  0  0 
 15 35  1  0  0  0  0 
 16 36  1  0  0  0  0 
 18 37  1  0  0  0  0 
 20 38  1  0  0  0  0 
 20 39  1  0  0  0  0 
 20 40  1  0  0  0  0 
 21 41  1  0  0  0  0 
 21 42  1  0  0  0  0 
 21 43  1  0  0  0  0 
M  END
> <cdk:Title>
vortioxetine

> <Conformer>
1

> <SuperDrugID>
SD003768

$$$$
