atropine
  CDK     0628171801

 44 46  0  0  0  0  0  0  0  0999 V2000
   -0.2216    3.9398    0.4960 C   0  0  0  0  0  0  0  0  0  0  0  0
   -0.3439    5.0529    1.3445 C   0  0  0  0  0  0  0  0  0  0  0  0
   -1.4584    5.1675    2.1931 C   0  0  0  0  0  0  0  0  0  0  0  0
   -2.4579    4.1759    2.1833 C   0  0  0  0  0  0  0  0  0  0  0  0
   -2.3663    3.0596    1.3168 C   0  0  0  0  0  0  0  0  0  0  0  0
   -1.2265    2.9557    0.4811 C   0  0  0  0  0  0  0  0  0  0  0  0
   -3.4513    2.0290    1.2744 C   0  0  2  0  0  0  0  0  0  0  0  0
   -2.9067    0.6904    1.6224 C   0  0  0  0  0  0  0  0  0  0  0  0
   -4.2126    2.0715   -0.0842 C   0  0  2  0  0  0  0  0  0  0  0  0
   -4.7361    3.3756   -0.3398 O   0  0  0  0  0  0  0  0  0  0  0  0
   -2.9299   -0.3421    0.7234 O   0  0  0  0  0  0  0  0  0  0  0  0
   -2.4293    0.5140    2.7692 O   0  0  0  0  0  0  0  0  0  0  0  0
   -2.4687   -1.6936    0.9159 C   0  0  2  0  0  0  0  0  0  0  0  0
   -0.3511   -2.0575   -0.5781 C   0  0  1  0  0  0  0  0  0  0  0  0
   -0.9067   -1.7958    0.8602 C   0  0  2  0  0  0  0  0  0  0  0  0
   -3.1717   -2.6074   -0.1379 C   0  0  1  0  0  0  0  0  0  0  0  0
   -2.3671   -2.7459   -1.4682 C   0  0  2  0  0  0  0  0  0  0  0  0
   -1.0296   -3.2761   -1.0949 N   0  0  1  0  0  0  0  0  0  0  0  0
   -2.8063   -2.0171    1.9065 H   0  0  0  0  0  0  0  0  0  0  0  0
   -0.7149   -0.9498   -1.5990 C   0  0  2  0  0  0  0  0  0  0  0  0
   -2.0737   -1.3980   -2.1800 C   0  0  1  0  0  0  0  0  0  0  0  0
   -0.3186   -4.0176   -2.1760 C   0  0  0  0  0  0  0  0  0  0  0  0
    0.7342   -2.1878   -0.5139 H   0  0  0  0  0  0  0  0  0  0  0  0
   -2.9088   -3.4249   -2.1350 H   0  0  0  0  0  0  0  0  0  0  0  0
    0.5947    3.8454   -0.1139 H   0  0  0  0  0  0  0  0  0  0  0  0
    0.3794    5.7748    1.3477 H   0  0  0  0  0  0  0  0  0  0  0  0
   -1.5450    5.9733    2.8166 H   0  0  0  0  0  0  0  0  0  0  0  0
   -3.2593    4.2830    2.8100 H   0  0  0  0  0  0  0  0  0  0  0  0
   -1.1203    2.1605   -0.1488 H   0  0  0  0  0  0  0  0  0  0  0  0
   -4.2020    2.2529    2.0413 H   0  0  0  0  0  0  0  0  0  0  0  0
   -5.0479    1.3665   -0.0623 H   0  0  0  0  0  0  0  0  0  0  0  0
   -3.5528    1.7934   -0.9093 H   0  0  0  0  0  0  0  0  0  0  0  0
   -5.1171    3.3299   -1.2430 H   0  0  0  0  0  0  0  0  0  0  0  0
   -0.5888   -2.6243    1.5004 H   0  0  0  0  0  0  0  0  0  0  0  0
   -0.4545   -0.8880    1.2681 H   0  0  0  0  0  0  0  0  0  0  0  0
   -3.2922   -3.6069    0.2916 H   0  0  0  0  0  0  0  0  0  0  0  0
   -4.1748   -2.2286   -0.3518 H   0  0  0  0  0  0  0  0  0  0  0  0
    0.0414   -0.9091   -2.3876 H   0  0  0  0  0  0  0  0  0  0  0  0
   -0.7780    0.0321   -1.1328 H   0  0  0  0  0  0  0  0  0  0  0  0
   -1.9867   -1.5540   -3.2596 H   0  0  0  0  0  0  0  0  0  0  0  0
   -2.8574   -0.6575   -2.0032 H   0  0  0  0  0  0  0  0  0  0  0  0
   -0.2177   -3.4216   -3.0858 H   0  0  0  0  0  0  0  0  0  0  0  0
    0.6767   -4.3114   -1.8400 H   0  0  0  0  0  0  0  0  0  0  0  0
   -0.8718   -4.9278   -2.4134 H   0  0  0  0  0  0  0  0  0  0  0  0
  1  2  2  0  0  0  0 
  1  6  1  0  0  0  0 
  2  3  1  0  0  0  0 
  3  4  2  0  0  0  0 
  4  5  1  0  0  0  0 
  5  6  2  0  0  0  0 
  7  5  1  0  0  0  0 
  7  8  1  0  0  0  0 
  7  9  1  0  0  0  0 
  9 10  1  0  0  0  0 
  8 11  1  0  0  0  0 
  8 12  2  0  0  0  0 
 13 11  1  0  0  0  0 
 14 15  1  0  0  0  0 
 16 17  1  0  0  0  0 
 17 18  1  0  0  0  0 
 14 18  1  0  0  0  0 
 15 13  1  0  0  0  0 
 13 16  1  0  0  0  0 
 13 19  1  0  0  0  0 
 14 20  1  0  0  0  0 
 17 21  1  0  0  0  0 
 20 21  1  0  0  0  0 
 18 22  1  0  0  0  0 
 14 23  1  0  0  0  0 
 17 24  1  0  0  0  0 
  1 25  1  0  0  0  0 
  2 26  1  0  0  0  0 
  3 27  1  0  0  0  0 
  4 28  1  0  0  0  0 
  6 29  1  0  0  0  0 
  7 30  1  0  0  0  0 
  9 31  1  0  0  0  0 
  9 32  1  0  0  0  0 
 10 33  1  0  0  0  0 
 15 34  1  0  0  0  0 
 15 35  1  0  0  0  0 
 16 36  1  0  0  0  0 
 16 37  1  0  0  0  0 
 20 38  1  0  0  0  0 
 20 39  1  0  0  0  0 
 21 40  1  0  0  0  0 
 21 41  1  0  0  0  0 
 22 42  1  0  0  0  0 
 22 43  1  0  0  0  0 
 22 44  1  0  0  0  0 
M  END
> <cdk:Title>
atropine

> <Conformer>
1

> <SuperDrugID>
SD000216

$$$$
