pyrvinium
  CDK     0628171801

 57 60  0  0  0  0  0  0  0  0999 V2000
    0.2167   -2.1431   -2.0660 C   0  0  0  0  0  0  0  0  0  0  0  0
   -0.5305   -2.1501   -0.7829 C   0  0  0  0  0  0  0  0  0  0  0  0
   -0.6351   -1.1364    0.1185 N   0  0  0  0  0  0  0  0  0  0  0  0
   -1.3025   -3.2285   -0.3320 C   0  0  0  0  0  0  0  0  0  0  0  0
   -1.4801   -1.5156    1.1116 C   0  0  0  0  0  0  0  0  0  0  0  0
    0.0255    0.0653    0.0623 C   0  0  0  0  0  0  0  0  0  0  0  0
   -1.4447   -4.4596   -0.9498 C   0  0  0  0  0  0  0  0  0  0  0  0
   -1.8926   -2.8168    0.8565 C   0  0  0  0  0  0  0  0  0  0  0  0
   -1.9034   -0.7378    2.2950 C   0  0  0  0  0  0  0  0  0  0  0  0
   -0.6801    1.2864   -0.0393 C   0  0  0  0  0  0  0  0  0  0  0  0
    1.4386    0.0999    0.1199 C   0  0  0  0  0  0  0  0  0  0  0  0
   -2.5523   -5.2207   -0.8721 C   0  0  0  0  0  0  0  0  0  0  0  0
    0.0087    2.5134   -0.0601 C   0  0  0  0  0  0  0  0  0  0  0  0
    2.1302    1.3246    0.0919 C   0  0  0  0  0  0  0  0  0  0  0  0
   -2.7429   -6.4633   -1.4950 C   0  0  0  0  0  0  0  0  0  0  0  0
    1.4132    2.5314    0.0108 C   0  0  0  0  0  0  0  0  0  0  0  0
   -3.4866   -7.4876   -0.9190 N   0  0  0  0  0  0  0  0  0  0  0  0
   -2.2070   -6.6451   -2.7934 C   0  0  0  0  0  0  0  0  0  0  0  0
   -3.8706   -7.4377    0.4891 C   0  0  0  0  0  0  0  0  0  0  0  0
   -3.8582   -8.5982   -1.6695 C   0  0  0  0  0  0  0  0  0  0  0  0
   -2.4448   -7.8246   -3.4994 C   0  0  0  0  0  0  0  0  0  0  0  0
   -3.3000   -8.7997   -2.9646 C   0  0  0  0  0  0  0  0  0  0  0  0
   -4.7916   -9.5770   -1.2256 C   0  0  0  0  0  0  0  0  0  0  0  0
   -3.6069   -9.9503   -3.7255 C   0  0  0  0  0  0  0  0  0  0  0  0
   -5.1176  -10.7037   -1.9980 C   0  0  0  0  0  0  0  0  0  0  0  0
   -4.5169  -10.9227   -3.2544 C   0  0  0  0  0  0  0  0  0  0  0  0
   -4.8064  -12.0518   -3.9970 N   0  0  0  0  0  0  0  0  0  0  0  0
   -6.1694  -12.5007   -4.1474 C   0  0  0  0  0  0  0  0  0  0  0  0
   -3.7417  -12.8362   -4.5760 C   0  0  0  0  0  0  0  0  0  0  0  0
    0.9832   -2.9186   -2.0539 H   0  0  0  0  0  0  0  0  0  0  0  0
    0.6932   -1.1832   -2.2654 H   0  0  0  0  0  0  0  0  0  0  0  0
   -0.4741   -2.3464   -2.8850 H   0  0  0  0  0  0  0  0  0  0  0  0
   -0.6722   -4.7813   -1.4850 H   0  0  0  0  0  0  0  0  0  0  0  0
   -2.5126   -3.3739    1.4485 H   0  0  0  0  0  0  0  0  0  0  0  0
   -2.5060   -1.3429    2.9754 H   0  0  0  0  0  0  0  0  0  0  0  0
   -1.0239   -0.3862    2.8339 H   0  0  0  0  0  0  0  0  0  0  0  0
   -2.5013    0.1165    1.9779 H   0  0  0  0  0  0  0  0  0  0  0  0
   -1.6999    1.2871   -0.1022 H   0  0  0  0  0  0  0  0  0  0  0  0
    1.9703   -0.7716    0.1857 H   0  0  0  0  0  0  0  0  0  0  0  0
   -3.3163   -4.8755   -0.3393 H   0  0  0  0  0  0  0  0  0  0  0  0
   -0.5106    3.3919   -0.1294 H   0  0  0  0  0  0  0  0  0  0  0  0
    3.1525    1.3360    0.1331 H   0  0  0  0  0  0  0  0  0  0  0  0
    1.9139    3.4209    0.0033 H   0  0  0  0  0  0  0  0  0  0  0  0
   -1.6575   -5.9153   -3.2557 H   0  0  0  0  0  0  0  0  0  0  0  0
   -4.9414   -7.2458    0.5786 H   0  0  0  0  0  0  0  0  0  0  0  0
   -3.6406   -8.3878    0.9783 H   0  0  0  0  0  0  0  0  0  0  0  0
   -3.3465   -6.6869    1.0795 H   0  0  0  0  0  0  0  0  0  0  0  0
   -2.0123   -7.9461   -4.4190 H   0  0  0  0  0  0  0  0  0  0  0  0
   -5.2670   -9.4842   -0.3260 H   0  0  0  0  0  0  0  0  0  0  0  0
   -3.1721  -10.0785   -4.6450 H   0  0  0  0  0  0  0  0  0  0  0  0
   -5.7928  -11.3753   -1.6252 H   0  0  0  0  0  0  0  0  0  0  0  0
   -6.3131  -13.0549   -5.0750 H   0  0  0  0  0  0  0  0  0  0  0  0
   -6.4263  -13.1559   -3.3138 H   0  0  0  0  0  0  0  0  0  0  0  0
   -6.8685  -11.6601   -4.1599 H   0  0  0  0  0  0  0  0  0  0  0  0
   -3.9102  -13.9010   -4.4041 H   0  0  0  0  0  0  0  0  0  0  0  0
   -2.7667  -12.5923   -4.1448 H   0  0  0  0  0  0  0  0  0  0  0  0
   -3.6911  -12.6550   -5.6512 H   0  0  0  0  0  0  0  0  0  0  0  0
  1  2  1  0  0  0  0 
  2  3  1  0  0  0  0 
  2  4  2  0  0  0  0 
  3  5  1  0  0  0  0 
  3  6  1  0  0  0  0 
  4  7  1  0  0  0  0 
  4  8  1  0  0  0  0 
  5  8  2  0  0  0  0 
  5  9  1  0  0  0  0 
  6 10  2  0  0  0  0 
  6 11  1  0  0  0  0 
  7 12  2  0  0  0  0 
 10 13  1  0  0  0  0 
 11 14  2  0  0  0  0 
 12 15  1  0  0  0  0 
 13 16  2  0  0  0  0 
 14 16  1  0  0  0  0 
 15 17  1  0  0  0  0 
 15 18  2  0  0  0  0 
 17 19  1  0  0  0  0 
 17 20  2  0  0  0  0 
 18 21  1  0  0  0  0 
 20 22  1  0  0  0  0 
 20 23  1  0  0  0  0 
 21 22  2  0  0  0  0 
 22 24  1  0  0  0  0 
 23 25  2  0  0  0  0 
 24 26  2  0  0  0  0 
 25 26  1  0  0  0  0 
 26 27  1  0  0  0  0 
 27 28  1  0  0  0  0 
 27 29  1  0  0  0  0 
  1 30  1  0  0  0  0 
  1 31  1  0  0  0  0 
  1 32  1  0  0  0  0 
  7 33  1  0  0  0  0 
  8 34  1  0  0  0  0 
  9 35  1  0  0  0  0 
  9 36  1  0  0  0  0 
  9 37  1  0  0  0  0 
 10 38  1  0  0  0  0 
 11 39  1  0  0  0  0 
 12 40  1  0  0  0  0 
 13 41  1  0  0  0  0 
 14 42  1  0  0  0  0 
 16 43  1  0  0  0  0 
 18 44  1  0  0  0  0 
 19 45  1  0  0  0  0 
 19 46  1  0  0  0  0 
 19 47  1  0  0  0  0 
 21 48  1  0  0  0  0 
 23 49  1  0  0  0  0 
 24 50  1  0  0  0  0 
 25 51  1  0  0  0  0 
 28 52  1  0  0  0  0 
 28 53  1  0  0  0  0 
 28 54  1  0  0  0  0 
 29 55  1  0  0  0  0 
 29 56  1  0  0  0  0 
 29 57  1  0  0  0  0 
M  CHG  1  17   1
M  END
> <cdk:Title>
pyrvinium

> <Conformer>
1

> <SuperDrugID>
SD002099

$$$$
