bucetin
  CDK     0628171801

 33 33  0  0  0  0  0  0  0  0999 V2000
   -1.4454   -2.9920   -3.9205 N   0  0  0  0  0  0  0  0  0  0  0  0
   -2.3157   -3.6727   -4.7270 C   0  0  0  0  0  0  0  0  0  0  0  0
   -1.3498   -1.6473   -3.6664 C   0  0  0  0  0  0  0  0  0  0  0  0
   -2.3658   -5.1510   -4.6494 C   0  0  2  0  0  0  0  0  0  0  0  0
   -3.0938   -3.1077   -5.5308 O   0  0  0  0  0  0  0  0  0  0  0  0
   -2.3096   -0.6723   -4.0381 C   0  0  0  0  0  0  0  0  0  0  0  0
   -0.2157   -1.2195   -2.9406 C   0  0  0  0  0  0  0  0  0  0  0  0
   -2.9783   -5.6449   -3.3072 C   0  0  2  0  0  0  0  0  0  0  0  0
   -2.1430    0.6786   -3.6858 C   0  0  0  0  0  0  0  0  0  0  0  0
   -0.0443    0.1337   -2.5928 C   0  0  0  0  0  0  0  0  0  0  0  0
   -3.0573   -7.1864   -3.2351 C   0  0  0  0  0  0  0  0  0  0  0  0
   -4.2997   -5.1298   -3.1322 O   0  0  0  0  0  0  0  0  0  0  0  0
   -1.0225    1.0850   -2.9389 C   0  0  0  0  0  0  0  0  0  0  0  0
   -0.8802    2.3944   -2.5730 O   0  0  0  0  0  0  0  0  0  0  0  0
   -1.4601    2.6851   -1.2853 C   0  0  1  0  0  0  0  0  0  0  0  0
   -1.2702    4.1806   -0.9791 C   0  0  0  0  0  0  0  0  0  0  0  0
   -0.8037   -3.5511   -3.4526 H   0  0  0  0  0  0  0  0  0  0  0  0
   -1.3534   -5.5455   -4.7617 H   0  0  0  0  0  0  0  0  0  0  0  0
   -2.9656   -5.5468   -5.4761 H   0  0  0  0  0  0  0  0  0  0  0  0
   -3.1520   -0.9209   -4.5522 H   0  0  0  0  0  0  0  0  0  0  0  0
    0.4977   -1.8945   -2.6531 H   0  0  0  0  0  0  0  0  0  0  0  0
   -2.3656   -5.2892   -2.4728 H   0  0  0  0  0  0  0  0  0  0  0  0
   -2.8469    1.3650   -3.9687 H   0  0  0  0  0  0  0  0  0  0  0  0
    0.7912    0.4250   -2.0816 H   0  0  0  0  0  0  0  0  0  0  0  0
   -3.6456   -7.5746   -4.0702 H   0  0  0  0  0  0  0  0  0  0  0  0
   -2.0558   -7.6212   -3.2709 H   0  0  0  0  0  0  0  0  0  0  0  0
   -3.5356   -7.4875   -2.3002 H   0  0  0  0  0  0  0  0  0  0  0  0
   -4.1916   -4.1568   -3.0902 H   0  0  0  0  0  0  0  0  0  0  0  0
   -2.5312    2.4606   -1.2759 H   0  0  0  0  0  0  0  0  0  0  0  0
   -0.9713    2.1039   -0.4967 H   0  0  0  0  0  0  0  0  0  0  0  0
   -0.2069    4.4294   -0.9746 H   0  0  0  0  0  0  0  0  0  0  0  0
   -1.7751    4.7826   -1.7364 H   0  0  0  0  0  0  0  0  0  0  0  0
   -1.6921    4.4151   -0.0003 H   0  0  0  0  0  0  0  0  0  0  0  0
  1  2  1  0  0  0  0 
  1  3  1  0  0  0  0 
  2  4  1  0  0  0  0 
  2  5  2  0  0  0  0 
  3  6  2  0  0  0  0 
  3  7  1  0  0  0  0 
  8  4  1  0  0  0  0 
  6  9  1  0  0  0  0 
  7 10  2  0  0  0  0 
  8 11  1  0  0  0  0 
  8 12  1  0  0  0  0 
  9 13  2  0  0  0  0 
 10 13  1  0  0  0  0 
 13 14  1  0  0  0  0 
 14 15  1  0  0  0  0 
 15 16  1  0  0  0  0 
  1 17  1  0  0  0  0 
  4 18  1  0  0  0  0 
  4 19  1  0  0  0  0 
  6 20  1  0  0  0  0 
  7 21  1  0  0  0  0 
  8 22  1  0  0  0  0 
  9 23  1  0  0  0  0 
 10 24  1  0  0  0  0 
 11 25  1  0  0  0  0 
 11 26  1  0  0  0  0 
 11 27  1  0  0  0  0 
 12 28  1  0  0  0  0 
 15 29  1  0  0  0  0 
 15 30  1  0  0  0  0 
 16 31  1  0  0  0  0 
 16 32  1  0  0  0  0 
 16 33  1  0  0  0  0 
M  END
> <cdk:Title>
bucetin

> <Conformer>
1

> <SuperDrugID>
SD000355

$$$$
