motretinide
  CDK     0628171801

 57 57  0  0  0  0  0  0  0  0999 V2000
    5.8747   -0.1942    0.6270 C   0  0  0  0  0  0  0  0  0  0  0  0
    6.6610   -1.2221    0.2639 C   0  0  0  0  0  0  0  0  0  0  0  0
    4.5296   -0.0759    0.2721 C   0  0  0  0  0  0  0  0  0  0  0  0
    7.9320   -1.3761    0.7304 C   0  0  0  0  0  0  0  0  0  0  0  0
    3.5351   -0.0784    1.3060 C   0  0  0  0  0  0  0  0  0  0  0  0
    4.1468    0.0759   -1.0933 C   0  0  0  0  0  0  0  0  0  0  0  0
    8.8969   -0.4899    0.3904 C   0  0  0  0  0  0  0  0  0  0  0  0
    8.1914   -2.5300    1.5975 C   0  0  0  0  0  0  0  0  0  0  0  0
    3.9521   -0.3457    2.7257 C   0  0  0  0  0  0  0  0  0  0  0  0
    2.1657    0.1616    0.9672 C   0  0  0  0  0  0  0  0  0  0  0  0
    5.1164    0.0813   -2.2265 C   0  0  0  0  0  0  0  0  0  0  0  0
    2.7801    0.2304   -1.4012 C   0  0  0  0  0  0  0  0  0  0  0  0
   10.1688   -0.5571    0.8471 C   0  0  0  0  0  0  0  0  0  0  0  0
    1.1126    0.3091    2.0135 C   0  0  0  0  0  0  0  0  0  0  0  0
    1.7989    0.2788   -0.3977 C   0  0  0  0  0  0  0  0  0  0  0  0
   11.2332   -0.6667    0.0344 C   0  0  0  0  0  0  0  0  0  0  0  0
    0.4999    0.4740   -0.8012 O   0  0  0  0  0  0  0  0  0  0  0  0
   12.4886   -0.8232    0.5396 C   0  0  0  0  0  0  0  0  0  0  0  0
   -0.2230   -0.7511   -1.0285 C   0  0  0  0  0  0  0  0  0  0  0  0
   12.8610   -2.0671    0.9285 C   0  0  0  0  0  0  0  0  0  0  0  0
   13.3358    0.3601    0.6452 C   0  0  0  0  0  0  0  0  0  0  0  0
   14.0589   -2.4744    1.5078 C   0  0  0  0  0  0  0  0  0  0  0  0
   14.1984   -3.8000    1.7852 N   0  0  0  0  0  0  0  0  0  0  0  0
   14.9916   -1.6861    1.7897 O   0  0  0  0  0  0  0  0  0  0  0  0
   15.3372   -4.4182    2.3752 C   0  0  2  0  0  0  0  0  0  0  0  0
   15.0798   -5.9271    2.5586 C   0  0  0  0  0  0  0  0  0  0  0  0
    6.2444    0.5079    1.2300 H   0  0  0  0  0  0  0  0  0  0  0  0
    6.2973   -1.9327   -0.3296 H   0  0  0  0  0  0  0  0  0  0  0  0
    8.6825    0.2621   -0.2282 H   0  0  0  0  0  0  0  0  0  0  0  0
    8.9697   -3.1571    1.1566 H   0  0  0  0  0  0  0  0  0  0  0  0
    7.3084   -3.1543    1.7526 H   0  0  0  0  0  0  0  0  0  0  0  0
    8.5258   -2.1954    2.5825 H   0  0  0  0  0  0  0  0  0  0  0  0
    3.1294   -0.5010    3.4200 H   0  0  0  0  0  0  0  0  0  0  0  0
    4.5581   -1.2525    2.7676 H   0  0  0  0  0  0  0  0  0  0  0  0
    4.5463    0.4902    3.0961 H   0  0  0  0  0  0  0  0  0  0  0  0
    6.0311    0.6116   -1.9579 H   0  0  0  0  0  0  0  0  0  0  0  0
    4.7095    0.5783   -3.1106 H   0  0  0  0  0  0  0  0  0  0  0  0
    5.3613   -0.9467   -2.5007 H   0  0  0  0  0  0  0  0  0  0  0  0
    2.4826    0.3176   -2.3771 H   0  0  0  0  0  0  0  0  0  0  0  0
   10.3050   -0.5521    1.8343 H   0  0  0  0  0  0  0  0  0  0  0  0
    0.9694   -0.6419    2.5289 H   0  0  0  0  0  0  0  0  0  0  0  0
    0.1441    0.6198    1.6203 H   0  0  0  0  0  0  0  0  0  0  0  0
    1.4140    1.0702    2.7355 H   0  0  0  0  0  0  0  0  0  0  0  0
   11.1202   -0.6617   -0.9561 H   0  0  0  0  0  0  0  0  0  0  0  0
   -1.2367   -0.4957   -1.3430 H   0  0  0  0  0  0  0  0  0  0  0  0
    0.2384   -1.3454   -1.8209 H   0  0  0  0  0  0  0  0  0  0  0  0
   -0.2949   -1.3557   -0.1201 H   0  0  0  0  0  0  0  0  0  0  0  0
   12.1947   -2.8013    0.7959 H   0  0  0  0  0  0  0  0  0  0  0  0
   13.5622    0.5551    1.6948 H   0  0  0  0  0  0  0  0  0  0  0  0
   12.8616    1.2581    0.2399 H   0  0  0  0  0  0  0  0  0  0  0  0
   14.2664    0.2048    0.0955 H   0  0  0  0  0  0  0  0  0  0  0  0
   13.4586   -4.3806    1.5499 H   0  0  0  0  0  0  0  0  0  0  0  0
   15.5489   -3.9685    3.3488 H   0  0  0  0  0  0  0  0  0  0  0  0
   16.2012   -4.2818    1.7207 H   0  0  0  0  0  0  0  0  0  0  0  0
   15.9785   -6.4169    2.9354 H   0  0  0  0  0  0  0  0  0  0  0  0
   14.2672   -6.0853    3.2721 H   0  0  0  0  0  0  0  0  0  0  0  0
   14.8063   -6.3858    1.6056 H   0  0  0  0  0  0  0  0  0  0  0  0
  1  2  2  0  0  0  0 
  1  3  1  0  0  0  0 
  2  4  1  0  0  0  0 
  3  5  2  0  0  0  0 
  3  6  1  0  0  0  0 
  4  7  2  0  0  0  0 
  4  8  1  0  0  0  0 
  5  9  1  0  0  0  0 
  5 10  1  0  0  0  0 
  6 11  1  0  0  0  0 
  6 12  2  0  0  0  0 
  7 13  1  0  0  0  0 
 10 14  1  0  0  0  0 
 10 15  2  0  0  0  0 
 12 15  1  0  0  0  0 
 13 16  2  0  0  0  0 
 15 17  1  0  0  0  0 
 16 18  1  0  0  0  0 
 17 19  1  0  0  0  0 
 18 20  2  0  0  0  0 
 18 21  1  0  0  0  0 
 20 22  1  0  0  0  0 
 22 23  1  0  0  0  0 
 22 24  2  0  0  0  0 
 23 25  1  0  0  0  0 
 25 26  1  0  0  0  0 
  1 27  1  0  0  0  0 
  2 28  1  0  0  0  0 
  7 29  1  0  0  0  0 
  8 30  1  0  0  0  0 
  8 31  1  0  0  0  0 
  8 32  1  0  0  0  0 
  9 33  1  0  0  0  0 
  9 34  1  0  0  0  0 
  9 35  1  0  0  0  0 
 11 36  1  0  0  0  0 
 11 37  1  0  0  0  0 
 11 38  1  0  0  0  0 
 12 39  1  0  0  0  0 
 13 40  1  0  0  0  0 
 14 41  1  0  0  0  0 
 14 42  1  0  0  0  0 
 14 43  1  0  0  0  0 
 16 44  1  0  0  0  0 
 19 45  1  0  0  0  0 
 19 46  1  0  0  0  0 
 19 47  1  0  0  0  0 
 20 48  1  0  0  0  0 
 21 49  1  0  0  0  0 
 21 50  1  0  0  0  0 
 21 51  1  0  0  0  0 
 23 52  1  0  0  0  0 
 25 53  1  0  0  0  0 
 25 54  1  0  0  0  0 
 26 55  1  0  0  0  0 
 26 56  1  0  0  0  0 
 26 57  1  0  0  0  0 
M  END
> <cdk:Title>
motretinide

> <Conformer>
1

> <SuperDrugID>
SD001646

$$$$
