benzamidosalicylate
  CDK     0628171801

 30 31  0  0  0  0  0  0  0  0999 V2000
   -5.4077   -0.1424    2.9689 C   0  0  0  0  0  0  0  0  0  0  0  0
   -5.6250   -1.0539    3.9518 O   0  0  0  0  0  0  0  0  0  0  0  0
   -6.2490    0.7823    2.8998 O   0  0  0  0  0  0  0  0  0  0  0  0
   -4.2908   -0.2302    2.0857 C   0  0  0  0  0  0  0  0  0  0  0  0
   -4.1004    0.6631    0.9946 C   0  0  0  0  0  0  0  0  0  0  0  0
   -3.3143   -1.2361    2.2892 C   0  0  0  0  0  0  0  0  0  0  0  0
   -4.9933    1.6537    0.7209 O   0  0  0  0  0  0  0  0  0  0  0  0
   -2.9727    0.5449    0.1544 C   0  0  0  0  0  0  0  0  0  0  0  0
   -2.1885   -1.3418    1.4529 C   0  0  0  0  0  0  0  0  0  0  0  0
   -1.9984   -0.4544    0.3753 C   0  0  0  0  0  0  0  0  0  0  0  0
   -0.8944   -0.6667   -0.4059 N   0  0  0  0  0  0  0  0  0  0  0  0
   -0.2036    0.2142   -1.1955 C   0  0  0  0  0  0  0  0  0  0  0  0
   -0.4883    1.4352   -1.1722 O   0  0  0  0  0  0  0  0  0  0  0  0
    0.8528   -0.2303   -2.0457 C   0  0  0  0  0  0  0  0  0  0  0  0
    1.8300    0.6811   -2.5255 C   0  0  0  0  0  0  0  0  0  0  0  0
    0.9529   -1.5834   -2.4623 C   0  0  0  0  0  0  0  0  0  0  0  0
    2.8407    0.2671   -3.4132 C   0  0  0  0  0  0  0  0  0  0  0  0
    1.9593   -1.9968   -3.3560 C   0  0  0  0  0  0  0  0  0  0  0  0
    2.8960   -1.0692   -3.8407 C   0  0  0  0  0  0  0  0  0  0  0  0
   -6.4017   -0.9579    4.5436 H   0  0  0  0  0  0  0  0  0  0  0  0
   -3.4033   -1.9119    3.0537 H   0  0  0  0  0  0  0  0  0  0  0  0
   -4.6184    2.1665   -0.0255 H   0  0  0  0  0  0  0  0  0  0  0  0
   -2.8790    1.1901   -0.6303 H   0  0  0  0  0  0  0  0  0  0  0  0
   -1.5005   -2.0767    1.6404 H   0  0  0  0  0  0  0  0  0  0  0  0
   -0.5488   -1.5727   -0.3798 H   0  0  0  0  0  0  0  0  0  0  0  0
    1.8170    1.6605   -2.2300 H   0  0  0  0  0  0  0  0  0  0  0  0
    0.2862   -2.2861   -2.1324 H   0  0  0  0  0  0  0  0  0  0  0  0
    3.5342    0.9390   -3.7504 H   0  0  0  0  0  0  0  0  0  0  0  0
    2.0075   -2.9727   -3.6585 H   0  0  0  0  0  0  0  0  0  0  0  0
    3.6151   -1.3649   -4.5023 H   0  0  0  0  0  0  0  0  0  0  0  0
  1  2  1  0  0  0  0 
  1  3  2  0  0  0  0 
  1  4  1  0  0  0  0 
  4  5  2  0  0  0  0 
  4  6  1  0  0  0  0 
  5  7  1  0  0  0  0 
  5  8  1  0  0  0  0 
  6  9  2  0  0  0  0 
  8 10  2  0  0  0  0 
  9 10  1  0  0  0  0 
 10 11  1  0  0  0  0 
 11 12  1  0  0  0  0 
 12 13  2  0  0  0  0 
 12 14  1  0  0  0  0 
 14 15  2  0  0  0  0 
 14 16  1  0  0  0  0 
 15 17  1  0  0  0  0 
 16 18  2  0  0  0  0 
 17 19  2  0  0  0  0 
 18 19  1  0  0  0  0 
  2 20  1  0  0  0  0 
  6 21  1  0  0  0  0 
  7 22  1  0  0  0  0 
  8 23  1  0  0  0  0 
  9 24  1  0  0  0  0 
 11 25  1  0  0  0  0 
 15 26  1  0  0  0  0 
 16 27  1  0  0  0  0 
 17 28  1  0  0  0  0 
 18 29  1  0  0  0  0 
 19 30  1  0  0  0  0 
M  END
> <cdk:Title>
benzamidosalicylate

> <Conformer>
1

> <SuperDrugID>
SD000275

$$$$
