latanoprost
  CDK     0628171801

 71 72  0  0  0  0  0  0  0  0999 V2000
   -3.3712   -5.1691   -6.3990 C   0  0  2  0  0  0  0  0  0  0  0  0
   -2.0954   -5.4731   -5.7615 C   0  0  0  0  0  0  0  0  0  0  0  0
   -4.6107   -5.5808   -5.5297 C   0  0  2  0  0  0  0  0  0  0  0  0
   -1.4526   -4.7039   -4.8630 C   0  0  0  0  0  0  0  0  0  0  0  0
   -4.8190   -7.1325   -5.4158 C   0  0  1  0  0  0  0  0  0  0  0  0
   -5.9627   -5.0577   -6.0807 C   0  0  1  0  0  0  0  0  0  0  0  0
   -1.9133   -3.4055   -4.3879 C   0  0  2  0  0  0  0  0  0  0  0  0
   -4.9871   -7.6050   -3.9313 C   0  0  1  0  0  0  0  0  0  0  0  0
   -6.0505   -7.4614   -6.3183 C   0  0  1  0  0  0  0  0  0  0  0  0
   -5.8920   -3.7782   -6.7077 O   0  0  0  0  0  0  0  0  0  0  0  0
   -6.4411   -6.1570   -7.0380 C   0  0  1  0  0  0  0  0  0  0  0  0
   -0.9545   -2.7134   -3.3841 C   0  0  2  0  0  0  0  0  0  0  0  0
   -5.0489   -9.1498   -3.7601 C   0  0  2  0  0  0  0  0  0  0  0  0
   -5.7686   -8.4988   -7.2578 O   0  0  0  0  0  0  0  0  0  0  0  0
   -1.4922   -1.3351   -2.9139 C   0  0  2  0  0  0  0  0  0  0  0  0
   -5.3018   -9.6536   -2.3048 C   0  0  2  0  0  0  0  0  0  0  0  0
   -0.5031   -0.6298   -2.0808 C   0  0  0  0  0  0  0  0  0  0  0  0
   -5.3724  -11.2095   -2.2613 C   0  0  1  0  0  0  0  0  0  0  0  0
   -6.5169   -9.1073   -1.7881 O   0  0  0  0  0  0  0  0  0  0  0  0
   -0.7360   -0.4986   -0.7422 O   0  0  0  0  0  0  0  0  0  0  0  0
    0.5329   -0.1648   -2.6131 O   0  0  0  0  0  0  0  0  0  0  0  0
   -5.5919  -11.8199   -0.8482 C   0  0  2  0  0  0  0  0  0  0  0  0
    0.1431    0.0658    0.2427 C   0  0  2  0  0  0  0  0  0  0  0  0
   -5.6659  -13.3079   -0.9149 C   0  0  0  0  0  0  0  0  0  0  0  0
    1.3289   -0.8896    0.5301 C   0  0  0  0  0  0  0  0  0  0  0  0
   -0.6862    0.3531    1.5161 C   0  0  0  0  0  0  0  0  0  0  0  0
   -4.4250  -14.0486   -0.7787 C   0  0  0  0  0  0  0  0  0  0  0  0
   -6.9720  -13.9157   -1.1419 C   0  0  0  0  0  0  0  0  0  0  0  0
   -4.6156  -15.5095   -0.9036 C   0  0  0  0  0  0  0  0  0  0  0  0
   -7.0455  -15.3206   -1.2448 C   0  0  0  0  0  0  0  0  0  0  0  0
   -5.9015  -16.1371   -1.1354 C   0  0  0  0  0  0  0  0  0  0  0  0
   -3.4131   -5.6900   -7.3601 H   0  0  0  0  0  0  0  0  0  0  0  0
   -3.4026   -4.1021   -6.6314 H   0  0  0  0  0  0  0  0  0  0  0  0
   -1.6657   -6.3365   -6.0101 H   0  0  0  0  0  0  0  0  0  0  0  0
   -4.4838   -5.1335   -4.5412 H   0  0  0  0  0  0  0  0  0  0  0  0
   -0.5943   -5.0549   -4.5007 H   0  0  0  0  0  0  0  0  0  0  0  0
   -3.9437   -7.6497   -5.8208 H   0  0  0  0  0  0  0  0  0  0  0  0
   -6.6791   -4.9738   -5.2559 H   0  0  0  0  0  0  0  0  0  0  0  0
   -2.8836   -3.5237   -3.9040 H   0  0  0  0  0  0  0  0  0  0  0  0
   -2.0324   -2.7419   -5.2465 H   0  0  0  0  0  0  0  0  0  0  0  0
   -4.1402   -7.2368   -3.3463 H   0  0  0  0  0  0  0  0  0  0  0  0
   -5.8933   -7.1518   -3.5220 H   0  0  0  0  0  0  0  0  0  0  0  0
   -6.9061   -7.7785   -5.7146 H   0  0  0  0  0  0  0  0  0  0  0  0
   -6.8208   -3.5445   -6.9153 H   0  0  0  0  0  0  0  0  0  0  0  0
   -7.5207   -6.0987   -7.2060 H   0  0  0  0  0  0  0  0  0  0  0  0
   -5.9290   -6.0718   -8.0011 H   0  0  0  0  0  0  0  0  0  0  0  0
    0.0232   -2.5876   -3.8590 H   0  0  0  0  0  0  0  0  0  0  0  0
   -0.8263   -3.3579   -2.5091 H   0  0  0  0  0  0  0  0  0  0  0  0
   -4.1000   -9.5650   -4.1104 H   0  0  0  0  0  0  0  0  0  0  0  0
   -5.8385   -9.5485   -4.3999 H   0  0  0  0  0  0  0  0  0  0  0  0
   -6.5910   -8.5991   -7.7824 H   0  0  0  0  0  0  0  0  0  0  0  0
   -2.4093   -1.4930   -2.3385 H   0  0  0  0  0  0  0  0  0  0  0  0
   -1.7414   -0.7035   -3.7719 H   0  0  0  0  0  0  0  0  0  0  0  0
   -4.4831   -9.3201   -1.6614 H   0  0  0  0  0  0  0  0  0  0  0  0
   -6.1848  -11.5428   -2.9142 H   0  0  0  0  0  0  0  0  0  0  0  0
   -4.4378  -11.6083   -2.6663 H   0  0  0  0  0  0  0  0  0  0  0  0
   -6.3604   -8.1416   -1.7202 H   0  0  0  0  0  0  0  0  0  0  0  0
   -6.5131  -11.4224   -0.4132 H   0  0  0  0  0  0  0  0  0  0  0  0
   -4.7796  -11.5111   -0.1840 H   0  0  0  0  0  0  0  0  0  0  0  0
    0.5351    1.0205   -0.1231 H   0  0  0  0  0  0  0  0  0  0  0  0
    1.9903   -0.4531    1.2806 H   0  0  0  0  0  0  0  0  0  0  0  0
    1.9129   -1.0576   -0.3751 H   0  0  0  0  0  0  0  0  0  0  0  0
    0.9674   -1.8565    0.8892 H   0  0  0  0  0  0  0  0  0  0  0  0
   -0.0583    0.8131    2.2828 H   0  0  0  0  0  0  0  0  0  0  0  0
   -1.4994    1.0415    1.2755 H   0  0  0  0  0  0  0  0  0  0  0  0
   -1.1161   -0.5689    1.9151 H   0  0  0  0  0  0  0  0  0  0  0  0
   -3.5120  -13.6217   -0.6193 H   0  0  0  0  0  0  0  0  0  0  0  0
   -7.8202  -13.3491   -1.2313 H   0  0  0  0  0  0  0  0  0  0  0  0
   -3.8273  -16.2321   -0.8356 H   0  0  0  0  0  0  0  0  0  0  0  0
   -7.9553  -15.7595   -1.4043 H   0  0  0  0  0  0  0  0  0  0  0  0
   -5.9809  -17.1508   -1.2153 H   0  0  0  0  0  0  0  0  0  0  0  0
  1  2  1  0  0  0  0 
  2  4  2  0  0  0  0 
  3  1  1  0  0  0  0 
  5  3  1  0  0  0  0 
  3  6  1  0  0  0  0 
  4  7  1  0  0  0  0 
  5  8  1  0  0  0  0 
  9  5  1  0  0  0  0 
  6 10  1  0  0  0  0 
  6 11  1  0  0  0  0 
  7 12  1  0  0  0  0 
  8 13  1  0  0  0  0 
  9 11  1  0  0  0  0 
  9 14  1  0  0  0  0 
 12 15  1  0  0  0  0 
 16 13  1  0  0  0  0 
 15 17  1  0  0  0  0 
 16 18  1  0  0  0  0 
 16 19  1  0  0  0  0 
 17 20  1  0  0  0  0 
 17 21  2  0  0  0  0 
 18 22  1  0  0  0  0 
 20 23  1  0  0  0  0 
 22 24  1  0  0  0  0 
 23 25  1  0  0  0  0 
 23 26  1  0  0  0  0 
 24 27  2  0  0  0  0 
 24 28  1  0  0  0  0 
 27 29  1  0  0  0  0 
 28 30  2  0  0  0  0 
 29 31  2  0  0  0  0 
 30 31  1  0  0  0  0 
  1 32  1  0  0  0  0 
  1 33  1  0  0  0  0 
  2 34  1  0  0  0  0 
  3 35  1  0  0  0  0 
  4 36  1  0  0  0  0 
  5 37  1  0  0  0  0 
  6 38  1  0  0  0  0 
  7 39  1  0  0  0  0 
  7 40  1  0  0  0  0 
  8 41  1  0  0  0  0 
  8 42  1  0  0  0  0 
  9 43  1  0  0  0  0 
 10 44  1  0  0  0  0 
 11 45  1  0  0  0  0 
 11 46  1  0  0  0  0 
 12 47  1  0  0  0  0 
 12 48  1  0  0  0  0 
 13 49  1  0  0  0  0 
 13 50  1  0  0  0  0 
 14 51  1  0  0  0  0 
 15 52  1  0  0  0  0 
 15 53  1  0  0  0  0 
 16 54  1  0  0  0  0 
 18 55  1  0  0  0  0 
 18 56  1  0  0  0  0 
 19 57  1  0  0  0  0 
 22 58  1  0  0  0  0 
 22 59  1  0  0  0  0 
 23 60  1  0  0  0  0 
 25 61  1  0  0  0  0 
 25 62  1  0  0  0  0 
 25 63  1  0  0  0  0 
 26 64  1  0  0  0  0 
 26 65  1  0  0  0  0 
 26 66  1  0  0  0  0 
 27 67  1  0  0  0  0 
 28 68  1  0  0  0  0 
 29 69  1  0  0  0  0 
 30 70  1  0  0  0  0 
 31 71  1  0  0  0  0 
M  END
> <cdk:Title>
latanoprost

> <Conformer>
1

> <SuperDrugID>
SD001370

$$$$
