sitaxentan
  CDK     0628171801

 44 47  0  0  0  0  0  0  0  0999 V2000
    1.5861   -4.2524   -5.0442 C   0  0  0  0  0  0  0  0  0  0  0  0
    0.6086   -5.3342   -5.3183 C   0  0  2  0  0  0  0  0  0  0  0  0
    2.6599   -4.5277   -4.4594 O   0  0  0  0  0  0  0  0  0  0  0  0
    1.3857   -2.9210   -5.4548 C   0  0  0  0  0  0  0  0  0  0  0  0
    1.1732   -6.4057   -6.1968 C   0  0  0  0  0  0  0  0  0  0  0  0
    0.4070   -1.9845   -5.0629 C   0  0  0  0  0  0  0  0  0  0  0  0
    2.4066   -2.1233   -6.6404 S   0  0  0  0  0  0  0  0  0  0  0  0
    1.2975   -6.1134   -7.5821 C   0  0  0  0  0  0  0  0  0  0  0  0
    1.5864   -7.6929   -5.7195 C   0  0  0  0  0  0  0  0  0  0  0  0
   -0.8304   -2.2317   -3.8173 S   0  0  2  0  0  0  0  0  0  0  0  0
    0.4888   -0.7422   -5.7282 C   0  0  0  0  0  0  0  0  0  0  0  0
    1.5157   -0.6161   -6.6629 C   0  0  0  0  0  0  0  0  0  0  0  0
    1.8008   -7.0804   -8.4652 C   0  0  0  0  0  0  0  0  0  0  0  0
    1.5193   -8.0717   -4.2816 C   0  0  0  0  0  0  0  0  0  0  0  0
    2.0803   -8.6510   -6.6441 C   0  0  0  0  0  0  0  0  0  0  0  0
   -0.1358   -2.0808   -2.2559 N   0  0  0  0  0  0  0  0  0  0  0  0
   -1.5009   -3.6851   -3.9154 O   0  0  0  0  0  0  0  0  0  0  0  0
   -2.0076   -1.1535   -3.9869 O   0  0  0  0  0  0  0  0  0  0  0  0
    2.1753   -8.3281   -8.0055 C   0  0  0  0  0  0  0  0  0  0  0  0
    1.9791   -6.9596   -9.7934 O   0  0  0  0  0  0  0  0  0  0  0  0
   -0.2108   -0.9542   -1.5106 C   0  0  0  0  0  0  0  0  0  0  0  0
    2.6132   -9.1200   -9.0044 O   0  0  0  0  0  0  0  0  0  0  0  0
    2.6221   -8.2069  -10.1187 C   0  0  2  0  0  0  0  0  0  0  0  0
    0.2292   -0.8110   -0.2029 C   0  0  0  0  0  0  0  0  0  0  0  0
   -0.7410    0.2345   -1.8833 O   0  0  0  0  0  0  0  0  0  0  0  0
    0.9677   -1.9933    0.7554 Cl  0  0  0  0  0  0  0  0  0  0  0  0
   -0.0850    0.4940    0.1618 C   0  0  0  0  0  0  0  0  0  0  0  0
   -0.6660    1.0859   -0.8952 N   0  0  0  0  0  0  0  0  0  0  0  0
    0.1529    1.1388    1.4640 C   0  0  0  0  0  0  0  0  0  0  0  0
   -0.2822   -4.9305   -5.8103 H   0  0  0  0  0  0  0  0  0  0  0  0
    0.2718   -5.7267   -4.3595 H   0  0  0  0  0  0  0  0  0  0  0  0
    1.0204   -5.2007   -7.9554 H   0  0  0  0  0  0  0  0  0  0  0  0
   -0.1563    0.0307   -5.5473 H   0  0  0  0  0  0  0  0  0  0  0  0
    1.7085    0.2019   -7.2422 H   0  0  0  0  0  0  0  0  0  0  0  0
    2.0484   -7.3368   -3.6710 H   0  0  0  0  0  0  0  0  0  0  0  0
    1.9715   -9.0472   -4.0806 H   0  0  0  0  0  0  0  0  0  0  0  0
    0.4746   -8.1126   -3.9655 H   0  0  0  0  0  0  0  0  0  0  0  0
    2.3733   -9.5833   -6.3424 H   0  0  0  0  0  0  0  0  0  0  0  0
    0.3252   -2.8493   -1.8845 H   0  0  0  0  0  0  0  0  0  0  0  0
    3.6597   -8.0179  -10.4053 H   0  0  0  0  0  0  0  0  0  0  0  0
    2.1126   -8.6583  -10.9730 H   0  0  0  0  0  0  0  0  0  0  0  0
   -0.3171    0.5519    2.2558 H   0  0  0  0  0  0  0  0  0  0  0  0
   -0.2697    2.1463    1.4778 H   0  0  0  0  0  0  0  0  0  0  0  0
    1.2267    1.2063    1.6516 H   0  0  0  0  0  0  0  0  0  0  0  0
  1  2  1  0  0  0  0 
  1  3  2  0  0  0  0 
  1  4  1  0  0  0  0 
  2  5  1  0  0  0  0 
  4  6  2  0  0  0  0 
  4  7  1  0  0  0  0 
  5  8  2  0  0  0  0 
  5  9  1  0  0  0  0 
  6 10  1  0  0  0  0 
  6 11  1  0  0  0  0 
  7 12  1  0  0  0  0 
  8 13  1  0  0  0  0 
  9 14  1  0  0  0  0 
  9 15  2  0  0  0  0 
 10 16  1  0  0  0  0 
 10 17  2  0  0  0  0 
 10 18  2  0  0  0  0 
 11 12  2  0  0  0  0 
 13 19  2  0  0  0  0 
 13 20  1  0  0  0  0 
 15 19  1  0  0  0  0 
 16 21  1  0  0  0  0 
 19 22  1  0  0  0  0 
 20 23  1  0  0  0  0 
 21 24  2  0  0  0  0 
 21 25  1  0  0  0  0 
 22 23  1  0  0  0  0 
 24 26  1  0  0  0  0 
 24 27  1  0  0  0  0 
 25 28  1  0  0  0  0 
 27 28  2  0  0  0  0 
 27 29  1  0  0  0  0 
 30  2  1  0  0  0  0 
 31  2  1  0  0  0  0 
 32  8  1  0  0  0  0 
 33 11  1  0  0  0  0 
 34 12  1  0  0  0  0 
 35 14  1  0  0  0  0 
 36 14  1  0  0  0  0 
 37 14  1  0  0  0  0 
 38 15  1  0  0  0  0 
 39 16  1  0  0  0  0 
 40 23  1  0  0  0  0 
 41 23  1  0  0  0  0 
 42 29  1  0  0  0  0 
 43 29  1  0  0  0  0 
 44 29  1  0  0  0  0 
M  END
> <cdk:Title>
sitaxentan

> <Conformer>
1

> <SuperDrugID>
SD003052

$$$$
