dioxethedrin
  CDK     0628171802

 32 32  0  0  0  0  0  0  0  0999 V2000
    2.2769    1.5584   -2.5901 C   0  0  1  0  0  0  0  0  0  0  0  0
    1.6201    0.1435   -2.4645 C   0  0  2  0  0  0  0  0  0  0  0  0
    3.6356    1.5030   -2.1463 O   0  0  0  0  0  0  0  0  0  0  0  0
    2.1439    2.1615   -3.9542 C   0  0  0  0  0  0  0  0  0  0  0  0
    1.6978   -0.3913   -1.0755 N   0  0  1  0  0  0  0  0  0  0  0  0
    2.2728   -0.9029   -3.4078 C   0  0  0  0  0  0  0  0  0  0  0  0
    3.2457    2.2970   -4.8357 C   0  0  0  0  0  0  0  0  0  0  0  0
    0.8818    2.6262   -4.3952 C   0  0  0  0  0  0  0  0  0  0  0  0
    0.7214    0.1480   -0.0994 C   0  0  2  0  0  0  0  0  0  0  0  0
    3.1004    2.8979   -6.1035 C   0  0  0  0  0  0  0  0  0  0  0  0
    0.7324    3.2413   -5.6518 C   0  0  0  0  0  0  0  0  0  0  0  0
    0.7791   -0.6628    1.2108 C   0  0  0  0  0  0  0  0  0  0  0  0
    4.1634    2.9952   -6.9461 O   0  0  0  0  0  0  0  0  0  0  0  0
    1.8425    3.3933   -6.5023 C   0  0  0  0  0  0  0  0  0  0  0  0
    1.6771    4.0215   -7.6945 O   0  0  0  0  0  0  0  0  0  0  0  0
    1.7804    2.2400   -1.8950 H   0  0  0  0  0  0  0  0  0  0  0  0
    0.5685    0.2124   -2.7561 H   0  0  0  0  0  0  0  0  0  0  0  0
    3.5887    1.2068   -1.2138 H   0  0  0  0  0  0  0  0  0  0  0  0
    1.5068   -1.3933   -1.1361 H   0  0  0  0  0  0  0  0  0  0  0  0
    3.3331   -1.0251   -3.1791 H   0  0  0  0  0  0  0  0  0  0  0  0
    2.1711   -0.5978   -4.4516 H   0  0  0  0  0  0  0  0  0  0  0  0
    1.7796   -1.8707   -3.2945 H   0  0  0  0  0  0  0  0  0  0  0  0
    4.1692    1.9563   -4.5635 H   0  0  0  0  0  0  0  0  0  0  0  0
    0.0610    2.5269   -3.7943 H   0  0  0  0  0  0  0  0  0  0  0  0
   -0.2937    0.0837   -0.4987 H   0  0  0  0  0  0  0  0  0  0  0  0
    0.9488    1.1922    0.1217 H   0  0  0  0  0  0  0  0  0  0  0  0
   -0.1862    3.5849   -5.9441 H   0  0  0  0  0  0  0  0  0  0  0  0
    0.0349   -0.2877    1.9161 H   0  0  0  0  0  0  0  0  0  0  0  0
    1.7679   -0.5760    1.6650 H   0  0  0  0  0  0  0  0  0  0  0  0
    0.5701   -1.7167    1.0145 H   0  0  0  0  0  0  0  0  0  0  0  0
    4.8892    2.4914   -6.5235 H   0  0  0  0  0  0  0  0  0  0  0  0
    2.5738    4.2988   -7.9729 H   0  0  0  0  0  0  0  0  0  0  0  0
  1  2  1  0  0  0  0 
  1  3  1  0  0  0  0 
  1  4  1  0  0  0  0 
  2  5  1  0  0  0  0 
  2  6  1  0  0  0  0 
  4  7  2  0  0  0  0 
  4  8  1  0  0  0  0 
  5  9  1  0  0  0  0 
  7 10  1  0  0  0  0 
  8 11  2  0  0  0  0 
  9 12  1  0  0  0  0 
 10 13  1  0  0  0  0 
 10 14  2  0  0  0  0 
 11 14  1  0  0  0  0 
 14 15  1  0  0  0  0 
  1 16  1  0  0  0  0 
  2 17  1  0  0  0  0 
  3 18  1  0  0  0  0 
  5 19  1  0  0  0  0 
  6 20  1  0  0  0  0 
  6 21  1  0  0  0  0 
  6 22  1  0  0  0  0 
  7 23  1  0  0  0  0 
  8 24  1  0  0  0  0 
  9 25  1  0  0  0  0 
  9 26  1  0  0  0  0 
 11 27  1  0  0  0  0 
 12 28  1  0  0  0  0 
 12 29  1  0  0  0  0 
 12 30  1  0  0  0  0 
 13 31  1  0  0  0  0 
 15 32  1  0  0  0  0 
M  END
> <cdk:Title>
dioxethedrin

> <Conformer>
1

> <SuperDrugID>
SD000812

$$$$
