romurtide
  CDK     0628171801

140140  0  0  0  0  0  0  0  0999 V2000
    8.5823   -1.2917   -1.7913 C   0  0  1  0  0  0  0  0  0  0  0  0
   10.0876   -1.0468   -2.1609 C   0  0  1  0  0  0  0  0  0  0  0  0
    8.3049   -1.0076   -0.3956 O   0  0  0  0  0  0  0  0  0  0  0  0
    7.6284   -0.3562   -2.5858 C   0  0  1  0  0  0  0  0  0  0  0  0
   10.9562   -2.0984   -1.7030 N   0  0  0  0  0  0  0  0  0  0  0  0
   10.3218   -0.7523   -3.6760 C   0  0  2  0  0  0  0  0  0  0  0  0
    8.6458   -1.9753    0.6220 C   0  0  1  0  0  0  0  0  0  0  0  0
    7.9852   -0.3147   -4.0965 C   0  0  1  0  0  0  0  0  0  0  0  0
    6.2832   -0.8032   -2.4193 O   0  0  0  0  0  0  0  0  0  0  0  0
   10.9142   -3.4185   -2.0544 C   0  0  0  0  0  0  0  0  0  0  0  0
   11.6005   -0.1480   -3.8495 O   0  0  0  0  0  0  0  0  0  0  0  0
    8.6049   -1.2478    1.9144 C   0  0  0  0  0  0  0  0  0  0  0  0
    7.6894   -3.1968    0.6242 C   0  0  0  0  0  0  0  0  0  0  0  0
    7.0521    0.6788   -4.8979 C   0  0  1  0  0  0  0  0  0  0  0  0
    9.3438    0.1496   -4.2252 O   0  0  0  0  0  0  0  0  0  0  0  0
   11.8518   -4.3511   -1.4131 C   0  0  0  0  0  0  0  0  0  0  0  0
   10.0982   -3.8705   -2.8929 O   0  0  0  0  0  0  0  0  0  0  0  0
    7.4168   -0.7663    2.3905 N   0  0  0  0  0  0  0  0  0  0  0  0
    9.6793   -1.0866    2.5408 O   0  0  0  0  0  0  0  0  0  0  0  0
    7.4993    0.6032   -6.2788 O   0  0  0  0  0  0  0  0  0  0  0  0
    7.1688   -0.0225    3.5967 C   0  0  2  0  0  0  0  0  0  0  0  0
    7.5987    1.3876    3.4395 C   0  0  0  0  0  0  0  0  0  0  0  0
    7.7028   -0.6872    4.8920 C   0  0  0  0  0  0  0  0  0  0  0  0
    8.9183    1.6878    3.2806 N   0  0  0  0  0  0  0  0  0  0  0  0
    6.7237    2.2871    3.3926 O   0  0  0  0  0  0  0  0  0  0  0  0
    9.4342    2.9291    2.7852 C   0  0  2  0  0  0  0  0  0  0  0  0
    9.1045    3.0165    1.2612 C   0  0  1  0  0  0  0  0  0  0  0  0
   10.8805    2.9853    3.1104 C   0  0  0  0  0  0  0  0  0  0  0  0
    9.4376    4.3784    0.5901 C   0  0  1  0  0  0  0  0  0  0  0  0
   11.2806    3.1340    4.3863 N   0  0  0  0  0  0  0  0  0  0  0  0
   11.7741    2.8914    2.2390 O   0  0  0  0  0  0  0  0  0  0  0  0
    8.8177    4.4637   -0.7501 C   0  0  0  0  0  0  0  0  0  0  0  0
    7.4556    4.4397   -0.8344 N   0  0  0  0  0  0  0  0  0  0  0  0
    9.5488    4.5163   -1.7670 O   0  0  0  0  0  0  0  0  0  0  0  0
    6.6785    4.3791   -2.0326 C   0  0  1  0  0  0  0  0  0  0  0  0
    5.2017    3.9628   -1.7361 C   0  0  2  0  0  0  0  0  0  0  0  0
    6.7268    5.6903   -2.7205 C   0  0  0  0  0  0  0  0  0  0  0  0
    5.0237    2.5454   -1.1111 C   0  0  2  0  0  0  0  0  0  0  0  0
    6.2362    6.8071   -2.1300 O   0  0  0  0  0  0  0  0  0  0  0  0
    7.2215    5.7952   -3.8658 O   0  0  0  0  0  0  0  0  0  0  0  0
    3.5374    2.0967   -0.9729 C   0  0  1  0  0  0  0  0  0  0  0  0
    3.3814    0.7140   -0.2739 C   0  0  2  0  0  0  0  0  0  0  0  0
    2.0503    0.1814   -0.2363 N   0  0  0  0  0  0  0  0  0  0  0  0
    0.9835    0.6998    0.4417 C   0  0  0  0  0  0  0  0  0  0  0  0
   -0.3237   -0.0040    0.4418 C   0  0  1  0  0  0  0  0  0  0  0  0
    1.0919    1.7697    1.0853 O   0  0  0  0  0  0  0  0  0  0  0  0
   -0.3453   -1.2136    1.4199 C   0  0  1  0  0  0  0  0  0  0  0  0
   -1.7542   -1.8457    1.6180 C   0  0  2  0  0  0  0  0  0  0  0  0
   -1.7558   -2.9771    2.6894 C   0  0  1  0  0  0  0  0  0  0  0  0
   -3.1689   -3.5326    3.0266 C   0  0  1  0  0  0  0  0  0  0  0  0
   -3.1424   -4.6520    4.1120 C   0  0  2  0  0  0  0  0  0  0  0  0
   -4.5519   -5.2023    4.4788 C   0  0  2  0  0  0  0  0  0  0  0  0
   -4.5354   -6.3395    5.5447 C   0  0  1  0  0  0  0  0  0  0  0  0
   -5.9568   -6.8857    5.8760 C   0  0  2  0  0  0  0  0  0  0  0  0
   -5.9709   -8.0334    6.9285 C   0  0  2  0  0  0  0  0  0  0  0  0
   -7.4037   -8.5623    7.2337 C   0  0  2  0  0  0  0  0  0  0  0  0
   -7.4283   -9.7097    8.2832 C   0  0  2  0  0  0  0  0  0  0  0  0
   -8.8636  -10.2280    8.5795 C   0  0  2  0  0  0  0  0  0  0  0  0
   -8.8867  -11.3742    9.6296 C   0  0  2  0  0  0  0  0  0  0  0  0
  -10.3200  -11.8960    9.9303 C   0  0  1  0  0  0  0  0  0  0  0  0
  -10.3377  -13.0415   10.9809 C   0  0  1  0  0  0  0  0  0  0  0  0
  -11.7596  -13.5678   11.2871 C   0  0  0  0  0  0  0  0  0  0  0  0
    8.2955   -2.3130   -2.0470 H   0  0  0  0  0  0  0  0  0  0  0  0
   10.3925   -0.1462   -1.6176 H   0  0  0  0  0  0  0  0  0  0  0  0
    7.7091    0.6589   -2.1845 H   0  0  0  0  0  0  0  0  0  0  0  0
   11.6406   -1.8456   -1.0628 H   0  0  0  0  0  0  0  0  0  0  0  0
   10.3211   -1.6731   -4.2614 H   0  0  0  0  0  0  0  0  0  0  0  0
    9.6620   -2.3460    0.4759 H   0  0  0  0  0  0  0  0  0  0  0  0
    7.8776   -1.3166   -4.5390 H   0  0  0  0  0  0  0  0  0  0  0  0
    6.1322   -0.7925   -1.4516 H   0  0  0  0  0  0  0  0  0  0  0  0
   11.6712    0.0349   -4.8094 H   0  0  0  0  0  0  0  0  0  0  0  0
    7.8650   -3.8193   -0.2541 H   0  0  0  0  0  0  0  0  0  0  0  0
    6.6484   -2.8653    0.6119 H   0  0  0  0  0  0  0  0  0  0  0  0
    7.8555   -3.8123    1.5106 H   0  0  0  0  0  0  0  0  0  0  0  0
    6.0410    0.1729   -4.9271 H   0  0  0  0  0  0  0  0  0  0  0  0
    7.0335    1.7914   -4.4816 H   0  0  0  0  0  0  0  0  0  0  0  0
   11.7204   -5.3655   -1.7937 H   0  0  0  0  0  0  0  0  0  0  0  0
   12.8763   -4.0344   -1.6073 H   0  0  0  0  0  0  0  0  0  0  0  0
   11.6768   -4.3590   -0.3370 H   0  0  0  0  0  0  0  0  0  0  0  0
    6.6416   -0.9313    1.8300 H   0  0  0  0  0  0  0  0  0  0  0  0
    6.8887    1.1875   -6.7762 H   0  0  0  0  0  0  0  0  0  0  0  0
    6.0789   -0.0302    3.6945 H   0  0  0  0  0  0  0  0  0  0  0  0
    7.3201   -0.1592    5.7687 H   0  0  0  0  0  0  0  0  0  0  0  0
    8.7927   -0.6709    4.9319 H   0  0  0  0  0  0  0  0  0  0  0  0
    7.3662   -1.7251    4.9438 H   0  0  0  0  0  0  0  0  0  0  0  0
    9.5557    0.9748    3.4331 H   0  0  0  0  0  0  0  0  0  0  0  0
    8.9424    3.7621    3.2975 H   0  0  0  0  0  0  0  0  0  0  0  0
    9.6198    2.2122    0.7251 H   0  0  0  0  0  0  0  0  0  0  0  0
    8.0324    2.8342    1.1496 H   0  0  0  0  0  0  0  0  0  0  0  0
    9.0605    5.1998    1.2022 H   0  0  0  0  0  0  0  0  0  0  0  0
   10.5233    4.4883    0.5152 H   0  0  0  0  0  0  0  0  0  0  0  0
   12.2266    3.1842    4.5939 H   0  0  0  0  0  0  0  0  0  0  0  0
   10.6248    3.1951    5.0977 H   0  0  0  0  0  0  0  0  0  0  0  0
    6.9699    4.4438    0.0042 H   0  0  0  0  0  0  0  0  0  0  0  0
    7.1093    3.6120   -2.6829 H   0  0  0  0  0  0  0  0  0  0  0  0
    4.6435    3.9929   -2.6795 H   0  0  0  0  0  0  0  0  0  0  0  0
    4.7522    4.6938   -1.0612 H   0  0  0  0  0  0  0  0  0  0  0  0
    5.5010    2.5219   -0.1270 H   0  0  0  0  0  0  0  0  0  0  0  0
    5.5357    1.8233   -1.7468 H   0  0  0  0  0  0  0  0  0  0  0  0
    5.8406    6.7603   -1.2336 H   0  0  0  0  0  0  0  0  0  0  0  0
    2.9942    2.8556   -0.4052 H   0  0  0  0  0  0  0  0  0  0  0  0
    3.0889    2.0382   -1.9662 H   0  0  0  0  0  0  0  0  0  0  0  0
    3.7687    0.7774    0.7463 H   0  0  0  0  0  0  0  0  0  0  0  0
    3.9889   -0.0174   -0.8115 H   0  0  0  0  0  0  0  0  0  0  0  0
    1.8971   -0.6450   -0.7234 H   0  0  0  0  0  0  0  0  0  0  0  0
   -1.1084    0.6994    0.7403 H   0  0  0  0  0  0  0  0  0  0  0  0
   -0.5635   -0.3367   -0.5703 H   0  0  0  0  0  0  0  0  0  0  0  0
    0.3411   -1.9815    1.0551 H   0  0  0  0  0  0  0  0  0  0  0  0
    0.0158   -0.8706    2.3952 H   0  0  0  0  0  0  0  0  0  0  0  0
   -2.1047   -2.2501    0.6644 H   0  0  0  0  0  0  0  0  0  0  0  0
   -2.4544   -1.0673    1.9317 H   0  0  0  0  0  0  0  0  0  0  0  0
   -1.1252   -3.7957    2.3326 H   0  0  0  0  0  0  0  0  0  0  0  0
   -1.3117   -2.5937    3.6099 H   0  0  0  0  0  0  0  0  0  0  0  0
   -3.7924   -2.7083    3.3803 H   0  0  0  0  0  0  0  0  0  0  0  0
   -3.6215   -3.9268    2.1126 H   0  0  0  0  0  0  0  0  0  0  0  0
   -2.6732   -4.2521    5.0150 H   0  0  0  0  0  0  0  0  0  0  0  0
   -2.5238   -5.4761    3.7488 H   0  0  0  0  0  0  0  0  0  0  0  0
   -5.0244   -5.5818    3.5705 H   0  0  0  0  0  0  0  0  0  0  0  0
   -5.1619   -4.3773    4.8561 H   0  0  0  0  0  0  0  0  0  0  0  0
   -3.9189   -7.1635    5.1777 H   0  0  0  0  0  0  0  0  0  0  0  0
   -4.0796   -5.9626    6.4636 H   0  0  0  0  0  0  0  0  0  0  0  0
   -6.4159   -7.2551    4.9551 H   0  0  0  0  0  0  0  0  0  0  0  0
   -6.5719   -6.0637    6.2508 H   0  0  0  0  0  0  0  0  0  0  0  0
   -5.5235   -7.6713    7.8582 H   0  0  0  0  0  0  0  0  0  0  0  0
   -5.3605   -8.8631    6.5613 H   0  0  0  0  0  0  0  0  0  0  0  0
   -7.8534   -8.9261    6.3056 H   0  0  0  0  0  0  0  0  0  0  0  0
   -8.0166   -7.7353    7.6030 H   0  0  0  0  0  0  0  0  0  0  0  0
   -6.9822   -9.3497    9.2143 H   0  0  0  0  0  0  0  0  0  0  0  0
   -6.8202  -10.5408    7.9159 H   0  0  0  0  0  0  0  0  0  0  0  0
   -9.3107  -10.5900    7.6495 H   0  0  0  0  0  0  0  0  0  0  0  0
   -9.4733   -9.3980    8.9471 H   0  0  0  0  0  0  0  0  0  0  0  0
   -8.4393  -11.0123   10.5597 H   0  0  0  0  0  0  0  0  0  0  0  0
   -8.2774  -12.2047    9.2619 H   0  0  0  0  0  0  0  0  0  0  0  0
  -10.9306  -11.0669   10.2995 H   0  0  0  0  0  0  0  0  0  0  0  0
  -10.7687  -12.2598    9.0014 H   0  0  0  0  0  0  0  0  0  0  0  0
   -9.7322  -13.8763   10.6170 H   0  0  0  0  0  0  0  0  0  0  0  0
   -9.8940  -12.6840   11.9143 H   0  0  0  0  0  0  0  0  0  0  0  0
  -11.7060  -14.3677   12.0290 H   0  0  0  0  0  0  0  0  0  0  0  0
  -12.3862  -12.7675   11.6858 H   0  0  0  0  0  0  0  0  0  0  0  0
  -12.2236  -13.9654   10.3824 H   0  0  0  0  0  0  0  0  0  0  0  0
  1  2  1  0  0  0  0 
  1  3  1  0  0  0  0 
  4  1  1  0  0  0  0 
  1 63  1  0  0  0  0 
  2  5  1  0  0  0  0 
  2  6  1  0  0  0  0 
  8  4  1  0  0  0  0 
  4  9  1  0  0  0  0 
  5 10  1  0  0  0  0 
  7  3  1  0  0  0  0 
  7 12  1  0  0  0  0 
  7 13  1  0  0  0  0 
  8 14  1  0  0  0  0 
  8 15  1  0  0  0  0 
 10 16  1  0  0  0  0 
 10 17  2  0  0  0  0 
 12 18  1  0  0  0  0 
 12 19  2  0  0  0  0 
 14 20  1  0  0  0  0 
 21 18  1  0  0  0  0 
 21 22  1  0  0  0  0 
 21 23  1  0  0  0  0 
 22 24  1  0  0  0  0 
 22 25  2  0  0  0  0 
 24 26  1  0  0  0  0 
 26 27  1  0  0  0  0 
 26 28  1  0  0  0  0 
 27 29  1  0  0  0  0 
 28 30  1  0  0  0  0 
 28 31  2  0  0  0  0 
 29 32  1  0  0  0  0 
 32 33  1  0  0  0  0 
 32 34  2  0  0  0  0 
 35 33  1  0  0  0  0 
 35 36  1  0  0  0  0 
 35 37  1  0  0  0  0 
 36 38  1  0  0  0  0 
 37 39  1  0  0  0  0 
 37 40  2  0  0  0  0 
 38 41  1  0  0  0  0 
 41 42  1  0  0  0  0 
 42 43  1  0  0  0  0 
 43 44  1  0  0  0  0 
 44 45  1  0  0  0  0 
 44 46  2  0  0  0  0 
 45 47  1  0  0  0  0 
 47 48  1  0  0  0  0 
 48 49  1  0  0  0  0 
 49 50  1  0  0  0  0 
 50 51  1  0  0  0  0 
 51 52  1  0  0  0  0 
 52 53  1  0  0  0  0 
 53 54  1  0  0  0  0 
 54 55  1  0  0  0  0 
 55 56  1  0  0  0  0 
 56 57  1  0  0  0  0 
 57 58  1  0  0  0  0 
 58 59  1  0  0  0  0 
 59 60  1  0  0  0  0 
 60 61  1  0  0  0  0 
 61 62  1  0  0  0  0 
 15  6  1  0  0  0  0 
  6 11  1  0  0  0  0 
  2 64  1  0  0  0  0 
  4 65  1  0  0  0  0 
  5 66  1  0  0  0  0 
  6 67  1  0  0  0  0 
  7 68  1  0  0  0  0 
  8 69  1  0  0  0  0 
  9 70  1  0  0  0  0 
 11 71  1  0  0  0  0 
 13 72  1  0  0  0  0 
 13 73  1  0  0  0  0 
 13 74  1  0  0  0  0 
 14 75  1  0  0  0  0 
 14 76  1  0  0  0  0 
 16 77  1  0  0  0  0 
 16 78  1  0  0  0  0 
 16 79  1  0  0  0  0 
 18 80  1  0  0  0  0 
 20 81  1  0  0  0  0 
 21 82  1  0  0  0  0 
 23 83  1  0  0  0  0 
 23 84  1  0  0  0  0 
 23 85  1  0  0  0  0 
 24 86  1  0  0  0  0 
 26 87  1  0  0  0  0 
 27 88  1  0  0  0  0 
 27 89  1  0  0  0  0 
 29 90  1  0  0  0  0 
 29 91  1  0  0  0  0 
 30 92  1  0  0  0  0 
 30 93  1  0  0  0  0 
 33 94  1  0  0  0  0 
 35 95  1  0  0  0  0 
 36 96  1  0  0  0  0 
 36 97  1  0  0  0  0 
 38 98  1  0  0  0  0 
 38 99  1  0  0  0  0 
 39100  1  0  0  0  0 
 41101  1  0  0  0  0 
 41102  1  0  0  0  0 
 42103  1  0  0  0  0 
 42104  1  0  0  0  0 
 43105  1  0  0  0  0 
 45106  1  0  0  0  0 
 45107  1  0  0  0  0 
 47108  1  0  0  0  0 
 47109  1  0  0  0  0 
 48110  1  0  0  0  0 
 48111  1  0  0  0  0 
 49112  1  0  0  0  0 
 49113  1  0  0  0  0 
 50114  1  0  0  0  0 
 50115  1  0  0  0  0 
 51116  1  0  0  0  0 
 51117  1  0  0  0  0 
 52118  1  0  0  0  0 
 52119  1  0  0  0  0 
 53120  1  0  0  0  0 
 53121  1  0  0  0  0 
 54122  1  0  0  0  0 
 54123  1  0  0  0  0 
 55124  1  0  0  0  0 
 55125  1  0  0  0  0 
 56126  1  0  0  0  0 
 56127  1  0  0  0  0 
 57128  1  0  0  0  0 
 57129  1  0  0  0  0 
 58130  1  0  0  0  0 
 58131  1  0  0  0  0 
 59132  1  0  0  0  0 
 59133  1  0  0  0  0 
 60134  1  0  0  0  0 
 60135  1  0  0  0  0 
 61136  1  0  0  0  0 
 61137  1  0  0  0  0 
 62138  1  0  0  0  0 
 62139  1  0  0  0  0 
 62140  1  0  0  0  0 
M  END
> <cdk:Title>
romurtide

> <Conformer>
1

> <SuperDrugID>
SD002160

$$$$
