pirbuterol
  CDK     0628171801

 37 37  0  0  0  0  0  0  0  0999 V2000
   -0.1176    0.9124    0.3245 C   0  0  1  0  0  0  0  0  0  0  0  0
   -0.1582   -0.5598    0.8060 C   0  0  1  0  0  0  0  0  0  0  0  0
   -0.0667    1.7909    1.4489 O   0  0  0  0  0  0  0  0  0  0  0  0
    1.0188    1.1724   -0.5959 C   0  0  0  0  0  0  0  0  0  0  0  0
    1.0649   -0.9200    1.5716 N   0  0  2  0  0  0  0  0  0  0  0  0
    2.1823    1.6776   -0.1021 N   0  0  0  0  0  0  0  0  0  0  0  0
    0.9473    0.8823   -1.9761 C   0  0  0  0  0  0  0  0  0  0  0  0
    1.2233   -2.3079    2.1105 C   0  0  2  0  0  0  0  0  0  0  0  0
    3.2920    1.9184   -0.8504 C   0  0  0  0  0  0  0  0  0  0  0  0
    2.0686    1.1121   -2.7925 C   0  0  0  0  0  0  0  0  0  0  0  0
    1.2900   -3.3607    0.9593 C   0  0  0  0  0  0  0  0  0  0  0  0
    0.0893   -2.6692    3.1217 C   0  0  0  0  0  0  0  0  0  0  0  0
    2.5880   -2.3183    2.8697 C   0  0  0  0  0  0  0  0  0  0  0  0
    4.4972    2.4307   -0.1681 C   0  0  2  0  0  0  0  0  0  0  0  0
    3.2526    1.6302   -2.2346 C   0  0  0  0  0  0  0  0  0  0  0  0
    5.3211    1.3262    0.1855 O   0  0  0  0  0  0  0  0  0  0  0  0
    4.3217    1.8408   -3.0405 O   0  0  0  0  0  0  0  0  0  0  0  0
   -1.0583    1.1339   -0.1884 H   0  0  0  0  0  0  0  0  0  0  0  0
   -1.0422   -0.6793    1.4351 H   0  0  0  0  0  0  0  0  0  0  0  0
   -0.2697   -1.2074   -0.0658 H   0  0  0  0  0  0  0  0  0  0  0  0
   -0.8806    1.5994    1.9613 H   0  0  0  0  0  0  0  0  0  0  0  0
    1.1038   -0.2841    2.3703 H   0  0  0  0  0  0  0  0  0  0  0  0
    0.0919    0.5039   -2.3886 H   0  0  0  0  0  0  0  0  0  0  0  0
    2.0220    0.8978   -3.7914 H   0  0  0  0  0  0  0  0  0  0  0  0
    2.0534   -3.0816    0.2299 H   0  0  0  0  0  0  0  0  0  0  0  0
    0.3343   -3.4430    0.4393 H   0  0  0  0  0  0  0  0  0  0  0  0
    1.5392   -4.3490    1.3531 H   0  0  0  0  0  0  0  0  0  0  0  0
   -0.8780   -2.7445    2.6224 H   0  0  0  0  0  0  0  0  0  0  0  0
    0.2902   -3.6293    3.6028 H   0  0  0  0  0  0  0  0  0  0  0  0
    0.0132   -1.9070    3.9003 H   0  0  0  0  0  0  0  0  0  0  0  0
    2.7870   -3.3052    3.2971 H   0  0  0  0  0  0  0  0  0  0  0  0
    3.4111   -2.0691    2.1953 H   0  0  0  0  0  0  0  0  0  0  0  0
    2.5858   -1.5909    3.6855 H   0  0  0  0  0  0  0  0  0  0  0  0
    4.2242    2.9689    0.7433 H   0  0  0  0  0  0  0  0  0  0  0  0
    5.0589    3.1134   -0.8103 H   0  0  0  0  0  0  0  0  0  0  0  0
    6.0801    1.7188    0.6647 H   0  0  0  0  0  0  0  0  0  0  0  0
    4.8606    1.0263   -2.9602 H   0  0  0  0  0  0  0  0  0  0  0  0
  1  2  1  0  0  0  0 
  1  3  1  0  0  0  0 
  1  4  1  0  0  0  0 
  2  5  1  0  0  0  0 
  4  6  2  0  0  0  0 
  4  7  1  0  0  0  0 
  5  8  1  0  0  0  0 
  6  9  1  0  0  0  0 
  7 10  2  0  0  0  0 
  8 11  1  0  0  0  0 
  8 12  1  0  0  0  0 
  8 13  1  0  0  0  0 
  9 14  1  0  0  0  0 
  9 15  2  0  0  0  0 
 10 15  1  0  0  0  0 
 14 16  1  0  0  0  0 
 15 17  1  0  0  0  0 
  1 18  1  0  0  0  0 
  2 19  1  0  0  0  0 
  2 20  1  0  0  0  0 
  3 21  1  0  0  0  0 
  5 22  1  0  0  0  0 
  7 23  1  0  0  0  0 
 10 24  1  0  0  0  0 
 11 25  1  0  0  0  0 
 11 26  1  0  0  0  0 
 11 27  1  0  0  0  0 
 12 28  1  0  0  0  0 
 12 29  1  0  0  0  0 
 12 30  1  0  0  0  0 
 13 31  1  0  0  0  0 
 13 32  1  0  0  0  0 
 13 33  1  0  0  0  0 
 14 34  1  0  0  0  0 
 14 35  1  0  0  0  0 
 16 36  1  0  0  0  0 
 17 37  1  0  0  0  0 
M  END
> <cdk:Title>
pirbuterol

> <Conformer>
1

> <SuperDrugID>
SD001974

$$$$
