ixazomib
  CDK     0628171802

 42 42  0  0  0  0  0  0  0  0999 V2000
    0.8188   -2.3354   -0.0360 C   0  0  0  0  0  0  0  0  0  0  0  0
    0.6334   -3.5591    0.6384 C   0  0  0  0  0  0  0  0  0  0  0  0
   -0.6687   -3.9901    0.9475 C   0  0  0  0  0  0  0  0  0  0  0  0
   -1.7769   -3.1990    0.5980 C   0  0  0  0  0  0  0  0  0  0  0  0
   -1.5948   -1.9612   -0.0560 C   0  0  0  0  0  0  0  0  0  0  0  0
   -0.2837   -1.5089   -0.3746 C   0  0  0  0  0  0  0  0  0  0  0  0
    1.9689   -4.4968    1.0985 Cl  0  0  0  0  0  0  0  0  0  0  0  0
   -2.9926   -1.0764   -0.4445 Cl  0  0  0  0  0  0  0  0  0  0  0  0
   -0.0273   -0.2432   -0.9659 C   0  0  0  0  0  0  0  0  0  0  0  0
   -0.5810    0.7722   -0.4792 O   0  0  0  0  0  0  0  0  0  0  0  0
    0.8611   -0.1211   -1.9956 N   0  0  0  0  0  0  0  0  0  0  0  0
    1.4147    1.1084   -2.4763 C   0  0  1  0  0  0  0  0  0  0  0  0
    0.7873    1.6290   -3.7069 C   0  0  0  0  0  0  0  0  0  0  0  0
   -0.4908    2.0923   -3.6591 N   0  0  0  0  0  0  0  0  0  0  0  0
    1.4734    1.7175   -4.7535 O   0  0  0  0  0  0  0  0  0  0  0  0
   -1.1560    2.8119   -4.7023 C   0  0  2  0  0  0  0  0  0  0  0  0
   -2.4663    3.5653   -4.0475 B   0  0  0  0  0  0  0  0  0  0  0  0
   -1.5334    1.9776   -5.9620 C   0  0  2  0  0  0  0  0  0  0  0  0
   -0.4881    3.6166   -5.0276 H   0  0  0  0  0  0  0  0  0  0  0  0
   -2.6354    0.8770   -5.8096 C   0  0  1  0  0  0  0  0  0  0  0  0
   -3.0483    0.3394   -7.2091 C   0  0  0  0  0  0  0  0  0  0  0  0
   -2.2126   -0.2989   -4.8822 C   0  0  0  0  0  0  0  0  0  0  0  0
   -3.2966    2.8742   -2.9625 O   0  0  0  0  0  0  0  0  0  0  0  0
   -2.8515    4.9698   -4.5190 O   0  0  0  0  0  0  0  0  0  0  0  0
    1.7739   -2.0336   -0.2537 H   0  0  0  0  0  0  0  0  0  0  0  0
   -0.8177   -4.8799    1.4299 H   0  0  0  0  0  0  0  0  0  0  0  0
   -2.7186   -3.5350    0.8282 H   0  0  0  0  0  0  0  0  0  0  0  0
    1.1970   -0.9399   -2.3977 H   0  0  0  0  0  0  0  0  0  0  0  0
    1.3707    1.8912   -1.7141 H   0  0  0  0  0  0  0  0  0  0  0  0
    2.4733    0.9142   -2.6593 H   0  0  0  0  0  0  0  0  0  0  0  0
   -0.9822    1.9531   -2.8342 H   0  0  0  0  0  0  0  0  0  0  0  0
   -0.6262    1.5149   -6.3547 H   0  0  0  0  0  0  0  0  0  0  0  0
   -1.8644    2.6943   -6.7203 H   0  0  0  0  0  0  0  0  0  0  0  0
   -3.5289    1.3332   -5.3759 H   0  0  0  0  0  0  0  0  0  0  0  0
   -2.1944   -0.1273   -7.7058 H   0  0  0  0  0  0  0  0  0  0  0  0
   -3.8512   -0.3962   -7.1219 H   0  0  0  0  0  0  0  0  0  0  0  0
   -3.4163    1.1544   -7.8364 H   0  0  0  0  0  0  0  0  0  0  0  0
   -1.2673   -0.7303   -5.2176 H   0  0  0  0  0  0  0  0  0  0  0  0
   -2.9698   -1.0867   -4.8846 H   0  0  0  0  0  0  0  0  0  0  0  0
   -2.1021    0.0430   -3.8524 H   0  0  0  0  0  0  0  0  0  0  0  0
   -4.2245    2.9819   -3.2584 H   0  0  0  0  0  0  0  0  0  0  0  0
   -3.7577    5.1036   -4.1735 H   0  0  0  0  0  0  0  0  0  0  0  0
  1  2  2  0  0  0  0 
  1  6  1  0  0  0  0 
  2  3  1  0  0  0  0 
  3  4  2  0  0  0  0 
  4  5  1  0  0  0  0 
  5  6  2  0  0  0  0 
  2  7  1  0  0  0  0 
  5  8  1  0  0  0  0 
  6  9  1  0  0  0  0 
  9 10  2  0  0  0  0 
  9 11  1  0  0  0  0 
 11 12  1  0  0  0  0 
 12 13  1  0  0  0  0 
 13 14  1  0  0  0  0 
 13 15  2  0  0  0  0 
 14 16  1  0  0  0  0 
 16 17  1  0  0  0  0 
 16 18  1  0  0  0  0 
 16 19  1  0  0  0  0 
 18 20  1  0  0  0  0 
 20 21  1  0  0  0  0 
 20 22  1  0  0  0  0 
 17 23  1  0  0  0  0 
 17 24  1  0  0  0  0 
  1 25  1  0  0  0  0 
  3 26  1  0  0  0  0 
  4 27  1  0  0  0  0 
 11 28  1  0  0  0  0 
 12 29  1  0  0  0  0 
 12 30  1  0  0  0  0 
 14 31  1  0  0  0  0 
 18 32  1  0  0  0  0 
 18 33  1  0  0  0  0 
 20 34  1  0  0  0  0 
 21 35  1  0  0  0  0 
 21 36  1  0  0  0  0 
 21 37  1  0  0  0  0 
 22 38  1  0  0  0  0 
 22 39  1  0  0  0  0 
 22 40  1  0  0  0  0 
 23 41  1  0  0  0  0 
 24 42  1  0  0  0  0 
M  END
> <cdk:Title>
ixazomib

> <Conformer>
1

> <SuperDrugID>
SD003896

$$$$
