ceftazidime
  CDK     0628171802

 60 63  0  0  0  0  0  0  0  0999 V2000
    7.5532    0.8012    3.8504 C   0  0  0  0  0  0  0  0  0  0  0  0
    7.8031   -0.3008    4.5965 O   0  0  0  0  0  0  0  0  0  0  0  0
    8.5038    1.3249    3.2273 O   0  0  0  0  0  0  0  0  0  0  0  0
    6.2809    1.3485    3.7846 C   0  0  0  0  0  0  0  0  0  0  0  0
    5.3434    0.6203    3.1397 N   0  0  0  0  0  0  0  0  0  0  0  0
    5.9589    2.5381    4.3722 C   0  0  0  0  0  0  0  0  0  0  0  0
    4.0766    0.9855    2.6059 C   0  0  1  0  0  0  0  0  0  0  0  0
    5.1631   -0.6845    2.8874 C   0  0  0  0  0  0  0  0  0  0  0  0
    6.9185    3.3468    5.1591 C   0  0  2  0  0  0  0  0  0  0  0  0
    4.6009    3.1220    4.2881 C   0  0  2  0  0  0  0  0  0  0  0  0
    3.7765   -0.5328    2.4450 C   0  0  1  0  0  0  0  0  0  0  0  0
    3.2432    1.9664    3.8858 S   0  0  0  0  0  0  0  0  0  0  0  0
    5.8688   -1.7032    3.0630 O   0  0  0  0  0  0  0  0  0  0  0  0
    6.6500    3.2551    6.5821 N   0  0  0  0  0  0  0  0  0  0  0  0
    2.8773   -1.0925    3.4059 N   0  0  0  0  0  0  0  0  0  0  0  0
    6.1684    4.3395    7.2736 C   0  0  0  0  0  0  0  0  0  0  0  0
    6.8791    2.0736    7.2453 C   0  0  0  0  0  0  0  0  0  0  0  0
    2.6949   -2.4252    3.6171 C   0  0  0  0  0  0  0  0  0  0  0  0
    5.8806    4.2572    8.6479 C   0  0  0  0  0  0  0  0  0  0  0  0
    6.6070    1.9409    8.6176 C   0  0  0  0  0  0  0  0  0  0  0  0
    2.0126   -2.9098    4.7367 C   0  0  0  0  0  0  0  0  0  0  0  0
    3.2096   -3.2362    2.8088 O   0  0  0  0  0  0  0  0  0  0  0  0
    6.0972    3.0435    9.3195 C   0  0  0  0  0  0  0  0  0  0  0  0
    1.8767   -2.2353    5.8253 N   0  0  0  0  0  0  0  0  0  0  0  0
    1.4803   -4.1990    4.7551 C   0  0  0  0  0  0  0  0  0  0  0  0
    2.2797   -1.0533    6.1281 O   0  0  0  0  0  0  0  0  0  0  0  0
    1.4695   -5.0236    5.8976 C   0  0  0  0  0  0  0  0  0  0  0  0
    0.9281   -4.7682    3.6405 N   0  0  0  0  0  0  0  0  0  0  0  0
    2.8075   -0.9454    7.4774 C   0  0  1  0  0  0  0  0  0  0  0  0
    0.7147   -6.5283    5.4127 S   0  0  0  0  0  0  0  0  0  0  0  0
    0.4436   -6.0240    3.7559 C   0  0  0  0  0  0  0  0  0  0  0  0
    3.0541    0.5107    7.6981 C   0  0  0  0  0  0  0  0  0  0  0  0
    1.8040   -1.4955    8.5484 C   0  0  0  0  0  0  0  0  0  0  0  0
    4.1733   -1.6988    7.5693 C   0  0  0  0  0  0  0  0  0  0  0  0
   -0.1422   -6.7500    2.7953 N   0  0  0  0  0  0  0  0  0  0  0  0
    2.5000    1.2110    8.7203 O   0  0  0  0  0  0  0  0  0  0  0  0
    3.8130    1.1489    6.9355 O   0  0  0  0  0  0  0  0  0  0  0  0
    4.1646    1.5254    1.6567 H   0  0  0  0  0  0  0  0  0  0  0  0
    8.7151   -0.6591    4.6478 H   0  0  0  0  0  0  0  0  0  0  0  0
    6.8659    4.3799    4.7983 H   0  0  0  0  0  0  0  0  0  0  0  0
    7.9625    3.0711    5.0024 H   0  0  0  0  0  0  0  0  0  0  0  0
    4.6096    3.8984    3.5216 H   0  0  0  0  0  0  0  0  0  0  0  0
    4.3106    3.5879    5.2306 H   0  0  0  0  0  0  0  0  0  0  0  0
    3.6087   -0.8457    1.4112 H   0  0  0  0  0  0  0  0  0  0  0  0
    2.4054   -0.4768    3.9857 H   0  0  0  0  0  0  0  0  0  0  0  0
    5.9999    5.2320    6.8008 H   0  0  0  0  0  0  0  0  0  0  0  0
    7.2528    1.2596    6.7542 H   0  0  0  0  0  0  0  0  0  0  0  0
    5.5187    5.0697    9.1525 H   0  0  0  0  0  0  0  0  0  0  0  0
    6.7769    1.0543    9.0973 H   0  0  0  0  0  0  0  0  0  0  0  0
    5.8886    2.9630   10.3166 H   0  0  0  0  0  0  0  0  0  0  0  0
    1.8384   -4.8111    6.8251 H   0  0  0  0  0  0  0  0  0  0  0  0
    1.6144   -2.5592    8.3989 H   0  0  0  0  0  0  0  0  0  0  0  0
    2.1982   -1.3703    9.5597 H   0  0  0  0  0  0  0  0  0  0  0  0
    0.8476   -0.9709    8.4773 H   0  0  0  0  0  0  0  0  0  0  0  0
    4.6510   -1.5286    8.5377 H   0  0  0  0  0  0  0  0  0  0  0  0
    4.8563   -1.3614    6.7848 H   0  0  0  0  0  0  0  0  0  0  0  0
    4.0283   -2.7733    7.4420 H   0  0  0  0  0  0  0  0  0  0  0  0
   -0.2603   -6.3760    1.9074 H   0  0  0  0  0  0  0  0  0  0  0  0
   -0.4496   -7.6507    2.9903 H   0  0  0  0  0  0  0  0  0  0  0  0
    2.7126    2.1606    8.8522 H   0  0  0  0  0  0  0  0  0  0  0  0
  1  2  1  0  0  0  0 
  1  3  2  0  0  0  0 
  1  4  1  0  0  0  0 
  4  5  1  0  0  0  0 
  4  6  2  0  0  0  0 
  7  5  1  0  0  0  0 
  5  8  1  0  0  0  0 
  6  9  1  0  0  0  0 
  6 10  1  0  0  0  0 
 11  7  1  0  0  0  0 
  7 12  1  0  0  0  0 
  7 38  1  0  0  0  0 
 11  8  1  0  0  0  0 
  8 13  2  0  0  0  0 
  9 14  1  0  0  0  0 
 10 12  1  0  0  0  0 
 11 15  1  0  0  0  0 
 14 16  2  0  0  0  0 
 14 17  1  0  0  0  0 
 15 18  1  0  0  0  0 
 16 19  1  0  0  0  0 
 17 20  2  0  0  0  0 
 18 21  1  0  0  0  0 
 18 22  2  0  0  0  0 
 19 23  2  0  0  0  0 
 20 23  1  0  0  0  0 
 21 24  2  0  0  0  0 
 21 25  1  0  0  0  0 
 24 26  1  0  0  0  0 
 25 27  2  0  0  0  0 
 25 28  1  0  0  0  0 
 26 29  1  0  0  0  0 
 27 30  1  0  0  0  0 
 28 31  2  0  0  0  0 
 29 32  1  0  0  0  0 
 29 33  1  0  0  0  0 
 29 34  1  0  0  0  0 
 30 31  1  0  0  0  0 
 31 35  1  0  0  0  0 
 32 36  1  0  0  0  0 
 32 37  2  0  0  0  0 
  2 39  1  0  0  0  0 
  9 40  1  0  0  0  0 
  9 41  1  0  0  0  0 
 10 42  1  0  0  0  0 
 10 43  1  0  0  0  0 
 11 44  1  0  0  0  0 
 15 45  1  0  0  0  0 
 16 46  1  0  0  0  0 
 17 47  1  0  0  0  0 
 19 48  1  0  0  0  0 
 20 49  1  0  0  0  0 
 23 50  1  0  0  0  0 
 27 51  1  0  0  0  0 
 33 52  1  0  0  0  0 
 33 53  1  0  0  0  0 
 33 54  1  0  0  0  0 
 34 55  1  0  0  0  0 
 34 56  1  0  0  0  0 
 34 57  1  0  0  0  0 
 35 58  1  0  0  0  0 
 35 59  1  0  0  0  0 
 36 60  1  0  0  0  0 
M  CHG  1  14   1
M  END
> <cdk:Title>
ceftazidime

> <Conformer>
1

> <SuperDrugID>
SD000486

$$$$
