vildagliptin
  CDK     0628171801

 47 50  0  0  0  0  0  0  0  0999 V2000
    3.2496   -0.8855    2.4873 C   0  0  1  0  0  0  0  0  0  0  0  0
    2.1796   -0.5908    1.3894 C   0  0  2  0  0  0  0  0  0  0  0  0
    2.7757   -0.9507   -0.0089 C   0  0  2  0  0  0  0  0  0  0  0  0
    4.0503   -0.0844   -0.2742 C   0  0  1  0  0  0  0  0  0  0  0  0
    5.1163   -0.3742    0.8358 C   0  0  1  0  0  0  0  0  0  0  0  0
    4.5385   -0.0171    2.2514 C   0  0  2  0  0  0  0  0  0  0  0  0
    4.5921   -0.4015   -1.5579 O   0  0  0  0  0  0  0  0  0  0  0  0
    5.4893   -0.3817    3.3422 N   0  0  1  0  0  0  0  0  0  0  0  0
    4.1347    1.5021    2.2607 C   0  0  1  0  0  0  0  0  0  0  0  0
    3.0645    1.7880    1.1631 C   0  0  1  0  0  0  0  0  0  0  0  0
    3.6562    1.4299   -0.2383 C   0  0  1  0  0  0  0  0  0  0  0  0
    1.7960    0.9224    1.4388 C   0  0  2  0  0  0  0  0  0  0  0  0
    6.6829    0.4664    3.5688 C   0  0  2  0  0  0  0  0  0  0  0  0
    7.5787   -0.1884    4.5525 C   0  0  0  0  0  0  0  0  0  0  0  0
    8.3760   -1.2877    4.2611 N   0  0  0  0  0  0  0  0  0  0  0  0
    7.6006    0.3114    5.7037 O   0  0  0  0  0  0  0  0  0  0  0  0
    8.3712   -1.9487    2.9899 C   0  0  1  0  0  0  0  0  0  0  0  0
    9.1474   -3.2630    3.1822 C   0  0  1  0  0  0  0  0  0  0  0  0
   10.0437   -2.9894    4.3967 C   0  0  2  0  0  0  0  0  0  0  0  0
    9.2917   -1.8944    5.1980 C   0  0  1  0  0  0  0  0  0  0  0  0
   10.1879   -1.0074    5.7595 C   0  0  0  0  0  0  0  0  0  0  0  0
   10.9410   -0.2647    6.2080 N   0  0  0  0  0  0  0  0  0  0  0  0
    2.8250   -0.6755    3.4741 H   0  0  0  0  0  0  0  0  0  0  0  0
    3.5008   -1.9518    2.4732 H   0  0  0  0  0  0  0  0  0  0  0  0
    1.2868   -1.1972    1.5725 H   0  0  0  0  0  0  0  0  0  0  0  0
    2.0303   -0.7760   -0.7896 H   0  0  0  0  0  0  0  0  0  0  0  0
    3.0316   -2.0145   -0.0411 H   0  0  0  0  0  0  0  0  0  0  0  0
    5.4065   -1.4288    0.8054 H   0  0  0  0  0  0  0  0  0  0  0  0
    6.0184    0.2097    0.6335 H   0  0  0  0  0  0  0  0  0  0  0  0
    4.8171   -1.3555   -1.5179 H   0  0  0  0  0  0  0  0  0  0  0  0
    4.9608   -0.3723    4.2185 H   0  0  0  0  0  0  0  0  0  0  0  0
    3.7485    1.7825    3.2442 H   0  0  0  0  0  0  0  0  0  0  0  0
    5.0081    2.1318    2.0658 H   0  0  0  0  0  0  0  0  0  0  0  0
    2.7954    2.8487    1.1879 H   0  0  0  0  0  0  0  0  0  0  0  0
    4.5340    2.0509   -0.4390 H   0  0  0  0  0  0  0  0  0  0  0  0
    2.9224    1.6504   -1.0197 H   0  0  0  0  0  0  0  0  0  0  0  0
    1.3791    1.1726    2.4197 H   0  0  0  0  0  0  0  0  0  0  0  0
    1.0236    1.1408    0.6967 H   0  0  0  0  0  0  0  0  0  0  0  0
    6.3599    1.4386    3.9498 H   0  0  0  0  0  0  0  0  0  0  0  0
    7.2360    0.6424    2.6457 H   0  0  0  0  0  0  0  0  0  0  0  0
    7.3578   -2.1754    2.6505 H   0  0  0  0  0  0  0  0  0  0  0  0
    8.8682   -1.3129    2.2521 H   0  0  0  0  0  0  0  0  0  0  0  0
    8.4583   -4.0872    3.3962 H   0  0  0  0  0  0  0  0  0  0  0  0
    9.7441   -3.5152    2.2998 H   0  0  0  0  0  0  0  0  0  0  0  0
   11.0236   -2.6493    4.0377 H   0  0  0  0  0  0  0  0  0  0  0  0
   10.1923   -3.8944    4.9925 H   0  0  0  0  0  0  0  0  0  0  0  0
    8.7093   -2.3577    6.0032 H   0  0  0  0  0  0  0  0  0  0  0  0
  1  2  1  0  0  0  0 
  1  6  1  0  0  0  0 
  2  3  1  0  0  0  0 
  3  4  1  0  0  0  0 
  4  5  1  0  0  0  0 
  5  6  1  0  0  0  0 
  4  7  1  0  0  0  0 
  6  8  1  0  0  0  0 
  6  9  1  0  0  0  0 
  9 10  1  0  0  0  0 
  4 11  1  0  0  0  0 
 10 11  1  0  0  0  0 
  2 12  1  0  0  0  0 
 10 12  1  0  0  0  0 
  8 13  1  0  0  0  0 
 13 14  1  0  0  0  0 
 14 15  1  0  0  0  0 
 14 16  2  0  0  0  0 
 17 18  1  0  0  0  0 
 18 19  1  0  0  0  0 
 19 20  1  0  0  0  0 
 15 17  1  0  0  0  0 
 15 20  1  0  0  0  0 
 20 21  1  0  0  0  0 
 21 22  3  0  0  0  0 
  1 23  1  0  0  0  0 
  1 24  1  0  0  0  0 
  2 25  1  0  0  0  0 
  3 26  1  0  0  0  0 
  3 27  1  0  0  0  0 
  5 28  1  0  0  0  0 
  5 29  1  0  0  0  0 
  7 30  1  0  0  0  0 
  8 31  1  0  0  0  0 
  9 32  1  0  0  0  0 
  9 33  1  0  0  0  0 
 10 34  1  0  0  0  0 
 11 35  1  0  0  0  0 
 11 36  1  0  0  0  0 
 12 37  1  0  0  0  0 
 12 38  1  0  0  0  0 
 13 39  1  0  0  0  0 
 13 40  1  0  0  0  0 
 17 41  1  0  0  0  0 
 17 42  1  0  0  0  0 
 18 43  1  0  0  0  0 
 18 44  1  0  0  0  0 
 19 45  1  0  0  0  0 
 19 46  1  0  0  0  0 
 20 47  1  0  0  0  0 
M  END
> <cdk:Title>
vildagliptin

> <Conformer>
1

> <SuperDrugID>
SD003121

$$$$
