clopirac
  CDK     0628171801

 32 33  0  0  0  0  0  0  0  0999 V2000
    1.3164    4.4308   -2.2776 C   0  0  0  0  0  0  0  0  0  0  0  0
    1.9586    4.5508   -0.9452 C   0  0  0  0  0  0  0  0  0  0  0  0
    1.9477    3.6370    0.0644 N   0  0  0  0  0  0  0  0  0  0  0  0
    2.6985    5.6648   -0.5278 C   0  0  0  0  0  0  0  0  0  0  0  0
    2.6599    4.1269    1.1118 C   0  0  0  0  0  0  0  0  0  0  0  0
    1.3055    2.4237    0.0517 C   0  0  0  0  0  0  0  0  0  0  0  0
    2.9729    6.9197   -1.2678 C   0  0  1  0  0  0  0  0  0  0  0  0
    3.1413    5.3824    0.7574 C   0  0  0  0  0  0  0  0  0  0  0  0
    2.8896    3.4862    2.4245 C   0  0  0  0  0  0  0  0  0  0  0  0
    2.0413    1.2183    0.1266 C   0  0  0  0  0  0  0  0  0  0  0  0
   -0.1047    2.3605   -0.0273 C   0  0  0  0  0  0  0  0  0  0  0  0
    4.3814    7.0163   -1.6893 C   0  0  0  0  0  0  0  0  0  0  0  0
    1.3796   -0.0247    0.1265 C   0  0  0  0  0  0  0  0  0  0  0  0
   -0.7655    1.1174   -0.0390 C   0  0  0  0  0  0  0  0  0  0  0  0
    4.9098    6.0773   -2.5080 O   0  0  0  0  0  0  0  0  0  0  0  0
    5.1022    7.9742   -1.3272 O   0  0  0  0  0  0  0  0  0  0  0  0
   -0.0251   -0.0785    0.0376 C   0  0  0  0  0  0  0  0  0  0  0  0
   -0.8194   -1.5739    0.0199 Cl  0  0  0  0  0  0  0  0  0  0  0  0
    0.5344    5.1860   -2.3693 H   0  0  0  0  0  0  0  0  0  0  0  0
    0.8672    3.4506   -2.4309 H   0  0  0  0  0  0  0  0  0  0  0  0
    2.0526    4.5838   -3.0693 H   0  0  0  0  0  0  0  0  0  0  0  0
    2.3525    6.9930   -2.1608 H   0  0  0  0  0  0  0  0  0  0  0  0
    2.7091    7.7657   -0.6305 H   0  0  0  0  0  0  0  0  0  0  0  0
    3.7147    5.9947    1.3420 H   0  0  0  0  0  0  0  0  0  0  0  0
    3.3484    4.1821    3.1300 H   0  0  0  0  0  0  0  0  0  0  0  0
    1.9388    3.1496    2.8408 H   0  0  0  0  0  0  0  0  0  0  0  0
    3.5513    2.6285    2.3001 H   0  0  0  0  0  0  0  0  0  0  0  0
    3.0639    1.2410    0.1809 H   0  0  0  0  0  0  0  0  0  0  0  0
   -0.6569    3.2220   -0.0747 H   0  0  0  0  0  0  0  0  0  0  0  0
    1.9289   -0.8853    0.1869 H   0  0  0  0  0  0  0  0  0  0  0  0
   -1.7849    1.0922   -0.1020 H   0  0  0  0  0  0  0  0  0  0  0  0
    5.8436    6.1333   -2.8011 H   0  0  0  0  0  0  0  0  0  0  0  0
  1  2  1  0  0  0  0 
  2  3  1  0  0  0  0 
  2  4  2  0  0  0  0 
  3  5  1  0  0  0  0 
  3  6  1  0  0  0  0 
  4  7  1  0  0  0  0 
  4  8  1  0  0  0  0 
  5  8  2  0  0  0  0 
  5  9  1  0  0  0  0 
  6 10  2  0  0  0  0 
  6 11  1  0  0  0  0 
  7 12  1  0  0  0  0 
 10 13  1  0  0  0  0 
 11 14  2  0  0  0  0 
 12 15  1  0  0  0  0 
 12 16  2  0  0  0  0 
 13 17  2  0  0  0  0 
 14 17  1  0  0  0  0 
 17 18  1  0  0  0  0 
  1 19  1  0  0  0  0 
  1 20  1  0  0  0  0 
  1 21  1  0  0  0  0 
  7 22  1  0  0  0  0 
  7 23  1  0  0  0  0 
  8 24  1  0  0  0  0 
  9 25  1  0  0  0  0 
  9 26  1  0  0  0  0 
  9 27  1  0  0  0  0 
 10 28  1  0  0  0  0 
 11 29  1  0  0  0  0 
 13 30  1  0  0  0  0 
 14 31  1  0  0  0  0 
 15 32  1  0  0  0  0 
M  END
> <cdk:Title>
clopirac

> <Conformer>
1

> <SuperDrugID>
SD003178

$$$$
