voclosporin
  CDK     0628171801

197197  0  0  0  0  0  0  0  0999 V2000
    2.6329   -1.1042    3.2818 C   0  0  1  0  0  0  0  0  0  0  0  0
    3.4167   -0.5697    2.0210 C   0  0  1  0  0  0  0  0  0  0  0  0
    2.9820   -2.4836    3.4254 O   0  0  0  0  0  0  0  0  0  0  0  0
    2.9192   -0.4030    4.6603 C   0  0  2  0  0  0  0  0  0  0  0  0
    3.2297   -1.4569    0.7392 C   0  0  2  0  0  0  0  0  0  0  0  0
    3.1407    0.9248    1.6904 C   0  0  0  0  0  0  0  0  0  0  0  0
    2.7743   -1.3164    5.7968 N   0  0  0  0  0  0  0  0  0  0  0  0
    2.2321    0.8999    4.9270 C   0  0  0  0  0  0  0  0  0  0  0  0
    1.8516   -1.6295    0.3041 C   0  0  0  0  0  0  0  0  0  0  0  0
    3.9834   -1.8495    6.3880 C   0  0  0  0  0  0  0  0  0  0  0  0
    1.5716   -1.5612    6.4344 C   0  0  0  0  0  0  0  0  0  0  0  0
    1.3287    1.3082    4.1670 O   0  0  0  0  0  0  0  0  0  0  0  0
    2.6259    1.6350    6.0101 N   0  0  0  0  0  0  0  0  0  0  0  0
    1.3362   -1.0621   -0.8010 C   0  0  0  0  0  0  0  0  0  0  0  0
    1.4321   -0.9343    7.5112 O   0  0  0  0  0  0  0  0  0  0  0  0
    0.5511   -2.6332    6.1373 C   0  0  2  0  0  0  0  0  0  0  0  0
    2.2437    2.9575    6.4570 C   0  0  1  0  0  0  0  0  0  0  0  0
    0.0445   -1.2450   -1.1956 C   0  0  0  0  0  0  0  0  0  0  0  0
    1.1289   -4.0528    6.5653 C   0  0  1  0  0  0  0  0  0  0  0  0
   -0.1636   -2.4405    4.8571 N   0  0  0  0  0  0  0  0  0  0  0  0
    3.5892    3.7417    6.6094 C   0  0  2  0  0  0  0  0  0  0  0  0
    1.2343    3.7280    5.6552 C   0  0  0  0  0  0  0  0  0  0  0  0
   -0.5003   -0.6338   -2.2554 C   0  0  0  0  0  0  0  0  0  0  0  0
    1.4001   -4.1302    8.1090 C   0  0  0  0  0  0  0  0  0  0  0  0
    0.2594   -5.3032    6.2065 C   0  0  0  0  0  0  0  0  0  0  0  0
    0.0026   -3.3665    3.7611 C   0  0  0  0  0  0  0  0  0  0  0  0
   -1.0879   -1.3868    4.7236 C   0  0  0  0  0  0  0  0  0  0  0  0
    3.4735    5.1516    7.2401 C   0  0  0  0  0  0  0  0  0  0  0  0
    1.6579    4.1706    4.5576 O   0  0  0  0  0  0  0  0  0  0  0  0
   -0.0645    4.0775    6.0366 N   0  0  0  0  0  0  0  0  0  0  0  0
   -1.0475   -0.4527    5.5582 O   0  0  0  0  0  0  0  0  0  0  0  0
   -2.2250   -1.3123    3.7286 C   0  0  2  0  0  0  0  0  0  0  0  0
   -0.5293    5.3931    5.6335 C   0  0  0  0  0  0  0  0  0  0  0  0
   -1.0558    3.1377    6.5619 C   0  0  2  0  0  0  0  0  0  0  0  0
   -2.8167    0.1138    3.4294 C   0  0  1  0  0  0  0  0  0  0  0  0
   -3.3094   -2.2388    4.1041 N   0  0  0  0  0  0  0  0  0  0  0  0
   -0.7383    2.2548    7.7131 C   0  0  0  0  0  0  0  0  0  0  0  0
   -1.8463    1.2006    2.8698 C   0  0  2  0  0  0  0  0  0  0  0  0
   -3.8411   -3.0742    3.0487 C   0  0  0  0  0  0  0  0  0  0  0  0
   -3.8296   -2.2383    5.4074 C   0  0  0  0  0  0  0  0  0  0  0  0
    0.0060    1.3040    7.3830 O   0  0  0  0  0  0  0  0  0  0  0  0
   -1.2376    2.2833    9.0213 N   0  0  0  0  0  0  0  0  0  0  0  0
   -2.5396    2.5895    2.7943 C   0  0  0  0  0  0  0  0  0  0  0  0
   -1.2199    0.8308    1.4959 C   0  0  0  0  0  0  0  0  0  0  0  0
   -3.7188   -1.1643    6.0491 O   0  0  0  0  0  0  0  0  0  0  0  0
   -4.4759   -3.3287    6.2336 C   0  0  2  0  0  0  0  0  0  0  0  0
   -0.8745    1.1590    9.8811 C   0  0  0  0  0  0  0  0  0  0  0  0
   -2.1506    3.2953    9.5686 C   0  0  1  0  0  0  0  0  0  0  0  0
   -3.5790   -3.5924    7.5041 C   0  0  1  0  0  0  0  0  0  0  0  0
   -4.8631   -4.5714    5.5598 N   0  0  0  0  0  0  0  0  0  0  0  0
   -1.7529    4.8005    9.3984 C   0  0  1  0  0  0  0  0  0  0  0  0
   -3.5957    2.9912    9.3398 C   0  0  0  0  0  0  0  0  0  0  0  0
   -4.1162   -4.5730    8.5997 C   0  0  2  0  0  0  0  0  0  0  0  0
   -3.8092   -5.4840    5.1435 C   0  0  0  0  0  0  0  0  0  0  0  0
   -6.1979   -4.9679    5.3580 C   0  0  0  0  0  0  0  0  0  0  0  0
   -0.2585    5.1559    9.6992 C   0  0  2  0  0  0  0  0  0  0  0  0
   -4.4371    3.7710    9.8420 O   0  0  0  0  0  0  0  0  0  0  0  0
   -3.9853    1.8091    8.7732 N   0  0  0  0  0  0  0  0  0  0  0  0
   -5.2741   -3.9559    9.4316 C   0  0  0  0  0  0  0  0  0  0  0  0
   -2.9629   -5.0184    9.5467 C   0  0  0  0  0  0  0  0  0  0  0  0
   -6.4149   -6.1303    4.9273 O   0  0  0  0  0  0  0  0  0  0  0  0
   -7.4391   -4.1748    5.6547 C   0  0  1  0  0  0  0  0  0  0  0  0
    0.1951    4.7313   11.1269 C   0  0  0  0  0  0  0  0  0  0  0  0
   -0.0075    6.6748    9.4816 C   0  0  0  0  0  0  0  0  0  0  0  0
   -5.1049    0.9671    9.1266 C   0  0  1  0  0  0  0  0  0  0  0  0
   -8.5428   -4.3623    4.5773 C   0  0  0  0  0  0  0  0  0  0  0  0
   -7.9044   -4.6275    6.9319 N   0  0  0  0  0  0  0  0  0  0  0  0
   -5.8434    1.1938   10.5103 C   0  0  1  0  0  0  0  0  0  0  0  0
   -6.0151    0.5208    8.0090 C   0  0  0  0  0  0  0  0  0  0  0  0
   -8.7324   -4.0637    7.8623 C   0  0  0  0  0  0  0  0  0  0  0  0
   -7.0539    2.1742   10.4924 C   0  0  0  0  0  0  0  0  0  0  0  0
   -6.3032   -0.1521   11.1544 C   0  0  0  0  0  0  0  0  0  0  0  0
   -6.0029   -0.7178    7.8093 O   0  0  0  0  0  0  0  0  0  0  0  0
   -6.9332    1.2746    7.2664 N   0  0  0  0  0  0  0  0  0  0  0  0
   -8.9680   -4.8522    8.8077 O   0  0  0  0  0  0  0  0  0  0  0  0
   -9.3871   -2.7216    7.9569 C   0  0  2  0  0  0  0  0  0  0  0  0
   -6.8452    2.7158    7.1960 C   0  0  0  0  0  0  0  0  0  0  0  0
   -8.0595    0.6383    6.5498 C   0  0  1  0  0  0  0  0  0  0  0  0
  -10.9157   -2.8447    7.7334 C   0  0  0  0  0  0  0  0  0  0  0  0
   -8.8568   -1.6896    7.1139 N   0  0  0  0  0  0  0  0  0  0  0  0
   -7.6868    0.0614    5.1373 C   0  0  1  0  0  0  0  0  0  0  0  0
   -8.7643   -0.3551    7.4265 C   0  0  0  0  0  0  0  0  0  0  0  0
   -7.3494    1.0515    3.9706 C   0  0  2  0  0  0  0  0  0  0  0  0
   -9.2592    0.0701    8.4982 O   0  0  0  0  0  0  0  0  0  0  0  0
   -8.5018    2.1230    3.7540 C   0  0  0  0  0  0  0  0  0  0  0  0
   -6.9272    0.1940    2.7004 C   0  0  0  0  0  0  0  0  0  0  0  0
    3.9731   -0.1133    4.5871 H   0  0  0  0  0  0  0  0  0  0  0  0
   -4.4843    0.0909    9.3495 H   0  0  0  0  0  0  0  0  0  0  0  0
   -0.2577   -2.5051    6.8699 H   0  0  0  0  0  0  0  0  0  0  0  0
    1.5635   -1.0475    3.0830 H   0  0  0  0  0  0  0  0  0  0  0  0
    4.4855   -0.6325    2.2626 H   0  0  0  0  0  0  0  0  0  0  0  0
    2.6006   -2.9370    2.6465 H   0  0  0  0  0  0  0  0  0  0  0  0
    3.6330   -2.4522    0.9274 H   0  0  0  0  0  0  0  0  0  0  0  0
    3.8434   -1.0560   -0.0716 H   0  0  0  0  0  0  0  0  0  0  0  0
    3.4965    1.5616    2.5000 H   0  0  0  0  0  0  0  0  0  0  0  0
    3.6690    1.2288    0.7832 H   0  0  0  0  0  0  0  0  0  0  0  0
    2.0742    1.0998    1.5421 H   0  0  0  0  0  0  0  0  0  0  0  0
    1.2725   -2.2211    0.8544 H   0  0  0  0  0  0  0  0  0  0  0  0
    4.5951   -1.0283    6.7664 H   0  0  0  0  0  0  0  0  0  0  0  0
    3.8024   -2.5286    7.2200 H   0  0  0  0  0  0  0  0  0  0  0  0
    4.5609   -2.3978    5.6418 H   0  0  0  0  0  0  0  0  0  0  0  0
    3.2960    1.2053    6.5659 H   0  0  0  0  0  0  0  0  0  0  0  0
    1.9231   -0.4795   -1.3567 H   0  0  0  0  0  0  0  0  0  0  0  0
    1.8747    2.8577    7.4771 H   0  0  0  0  0  0  0  0  0  0  0  0
   -0.5423   -1.8619   -0.6754 H   0  0  0  0  0  0  0  0  0  0  0  0
    2.0892   -4.1894    6.0608 H   0  0  0  0  0  0  0  0  0  0  0  0
    4.0669    3.8385    5.6295 H   0  0  0  0  0  0  0  0  0  0  0  0
    4.2704    3.1612    7.2413 H   0  0  0  0  0  0  0  0  0  0  0  0
   -1.4479   -0.8088   -2.4885 H   0  0  0  0  0  0  0  0  0  0  0  0
    0.0159   -0.0012   -2.8233 H   0  0  0  0  0  0  0  0  0  0  0  0
    2.0056   -3.3027    8.4691 H   0  0  0  0  0  0  0  0  0  0  0  0
    1.9374   -5.0472    8.3602 H   0  0  0  0  0  0  0  0  0  0  0  0
    0.4586   -4.1188    8.6628 H   0  0  0  0  0  0  0  0  0  0  0  0
    0.4011   -5.6140    5.1741 H   0  0  0  0  0  0  0  0  0  0  0  0
    0.5320   -6.1741    6.8068 H   0  0  0  0  0  0  0  0  0  0  0  0
   -0.7940   -5.1008    6.3728 H   0  0  0  0  0  0  0  0  0  0  0  0
   -0.8164   -4.0846    3.7607 H   0  0  0  0  0  0  0  0  0  0  0  0
    0.0178   -2.8686    2.7935 H   0  0  0  0  0  0  0  0  0  0  0  0
    0.9436   -3.9072    3.8163 H   0  0  0  0  0  0  0  0  0  0  0  0
    2.9995    5.0928    8.2214 H   0  0  0  0  0  0  0  0  0  0  0  0
    2.8897    5.8151    6.6001 H   0  0  0  0  0  0  0  0  0  0  0  0
    4.4703    5.5825    7.3599 H   0  0  0  0  0  0  0  0  0  0  0  0
   -1.8099   -1.6231    2.7723 H   0  0  0  0  0  0  0  0  0  0  0  0
   -1.4019    5.7291    6.1939 H   0  0  0  0  0  0  0  0  0  0  0  0
    0.2460    6.1493    5.7902 H   0  0  0  0  0  0  0  0  0  0  0  0
   -0.7952    5.3835    4.5747 H   0  0  0  0  0  0  0  0  0  0  0  0
   -1.2819    2.4777    5.7215 H   0  0  0  0  0  0  0  0  0  0  0  0
   -2.0131    3.6148    6.7635 H   0  0  0  0  0  0  0  0  0  0  0  0
   -3.6246   -0.0107    2.7061 H   0  0  0  0  0  0  0  0  0  0  0  0
   -3.2654    0.5143    4.3392 H   0  0  0  0  0  0  0  0  0  0  0  0
   -1.0393    1.3143    3.5837 H   0  0  0  0  0  0  0  0  0  0  0  0
   -3.1340   -3.8702    2.8108 H   0  0  0  0  0  0  0  0  0  0  0  0
   -4.8118   -3.5026    3.2903 H   0  0  0  0  0  0  0  0  0  0  0  0
   -3.9973   -2.4843    2.1416 H   0  0  0  0  0  0  0  0  0  0  0  0
   -2.9635    2.8652    3.7634 H   0  0  0  0  0  0  0  0  0  0  0  0
   -3.3424    2.5739    2.0590 H   0  0  0  0  0  0  0  0  0  0  0  0
   -1.8209    3.3590    2.5063 H   0  0  0  0  0  0  0  0  0  0  0  0
   -0.6281   -0.0832    1.5618 H   0  0  0  0  0  0  0  0  0  0  0  0
   -1.9984    0.6928    0.7414 H   0  0  0  0  0  0  0  0  0  0  0  0
   -0.5570    1.6309    1.1614 H   0  0  0  0  0  0  0  0  0  0  0  0
   -5.3596   -2.8652    6.6536 H   0  0  0  0  0  0  0  0  0  0  0  0
    0.2080    1.1367   10.0238 H   0  0  0  0  0  0  0  0  0  0  0  0
   -1.3293    1.1789   10.8728 H   0  0  0  0  0  0  0  0  0  0  0  0
   -1.1891    0.2195    9.4175 H   0  0  0  0  0  0  0  0  0  0  0  0
   -2.1079    3.2066   10.6582 H   0  0  0  0  0  0  0  0  0  0  0  0
   -2.6147   -3.9547    7.1548 H   0  0  0  0  0  0  0  0  0  0  0  0
   -3.3696   -2.6454    8.0104 H   0  0  0  0  0  0  0  0  0  0  0  0
   -2.0104    5.1304    8.3967 H   0  0  0  0  0  0  0  0  0  0  0  0
   -2.3739    5.4013   10.0730 H   0  0  0  0  0  0  0  0  0  0  0  0
   -4.4990   -5.4744    8.1149 H   0  0  0  0  0  0  0  0  0  0  0  0
   -3.7245   -6.3017    5.8608 H   0  0  0  0  0  0  0  0  0  0  0  0
   -2.8381   -4.9954    5.0691 H   0  0  0  0  0  0  0  0  0  0  0  0
   -4.0144   -5.9083    4.1571 H   0  0  0  0  0  0  0  0  0  0  0  0
    0.3729    4.6245    8.9823 H   0  0  0  0  0  0  0  0  0  0  0  0
   -3.3383    1.3983    8.1790 H   0  0  0  0  0  0  0  0  0  0  0  0
   -5.6561   -4.6804   10.1544 H   0  0  0  0  0  0  0  0  0  0  0  0
   -6.0960   -3.6655    8.7828 H   0  0  0  0  0  0  0  0  0  0  0  0
   -4.9353   -3.0704    9.9721 H   0  0  0  0  0  0  0  0  0  0  0  0
   -3.3293   -5.7218   10.2966 H   0  0  0  0  0  0  0  0  0  0  0  0
   -2.1747   -5.5166    8.9786 H   0  0  0  0  0  0  0  0  0  0  0  0
   -2.5268   -4.1588   10.0610 H   0  0  0  0  0  0  0  0  0  0  0  0
   -7.2073   -3.1171    5.6563 H   0  0  0  0  0  0  0  0  0  0  0  0
    1.1920    5.1187   11.3488 H   0  0  0  0  0  0  0  0  0  0  0  0
    0.2434    3.6439   11.2043 H   0  0  0  0  0  0  0  0  0  0  0  0
   -0.5004    5.1064   11.8822 H   0  0  0  0  0  0  0  0  0  0  0  0
    1.0474    6.9125    9.6357 H   0  0  0  0  0  0  0  0  0  0  0  0
   -0.2712    6.9627    8.4619 H   0  0  0  0  0  0  0  0  0  0  0  0
   -0.6045    7.2686   10.1783 H   0  0  0  0  0  0  0  0  0  0  0  0
   -9.3683   -3.6701    4.7538 H   0  0  0  0  0  0  0  0  0  0  0  0
   -8.1373   -4.1664    3.5811 H   0  0  0  0  0  0  0  0  0  0  0  0
   -8.9363   -5.3824    4.5996 H   0  0  0  0  0  0  0  0  0  0  0  0
   -7.6024   -5.5206    7.1683 H   0  0  0  0  0  0  0  0  0  0  0  0
   -5.1112    1.6090   11.2118 H   0  0  0  0  0  0  0  0  0  0  0  0
   -7.4085    2.3553   11.5094 H   0  0  0  0  0  0  0  0  0  0  0  0
   -6.7917    3.1382   10.0666 H   0  0  0  0  0  0  0  0  0  0  0  0
   -7.8801    1.7611    9.9172 H   0  0  0  0  0  0  0  0  0  0  0  0
   -6.7631    0.0206   12.1298 H   0  0  0  0  0  0  0  0  0  0  0  0
   -5.4494   -0.8145   11.3091 H   0  0  0  0  0  0  0  0  0  0  0  0
   -7.0274   -0.6620   10.5162 H   0  0  0  0  0  0  0  0  0  0  0  0
   -9.2324   -2.4008    8.9934 H   0  0  0  0  0  0  0  0  0  0  0  0
   -7.7432    3.1669    7.6239 H   0  0  0  0  0  0  0  0  0  0  0  0
   -6.7574    3.0392    6.1596 H   0  0  0  0  0  0  0  0  0  0  0  0
   -5.9869    3.1308    7.7146 H   0  0  0  0  0  0  0  0  0  0  0  0
   -8.8443    1.3772    6.3694 H   0  0  0  0  0  0  0  0  0  0  0  0
  -11.4075   -1.8857    7.9093 H   0  0  0  0  0  0  0  0  0  0  0  0
  -11.1239   -3.1617    6.7107 H   0  0  0  0  0  0  0  0  0  0  0  0
  -11.3500   -3.5719    8.4231 H   0  0  0  0  0  0  0  0  0  0  0  0
   -8.5484   -1.9540    6.2405 H   0  0  0  0  0  0  0  0  0  0  0  0
   -6.8445   -0.6222    5.2710 H   0  0  0  0  0  0  0  0  0  0  0  0
   -8.5336   -0.5338    4.7796 H   0  0  0  0  0  0  0  0  0  0  0  0
   -6.4530    1.6095    4.2581 H   0  0  0  0  0  0  0  0  0  0  0  0
   -8.2768    2.7325    2.8777 H   0  0  0  0  0  0  0  0  0  0  0  0
   -8.5949    2.7956    4.6058 H   0  0  0  0  0  0  0  0  0  0  0  0
   -9.4568    1.6189    3.5913 H   0  0  0  0  0  0  0  0  0  0  0  0
   -6.6454    0.8615    1.8839 H   0  0  0  0  0  0  0  0  0  0  0  0
   -6.0778   -0.4526    2.9266 H   0  0  0  0  0  0  0  0  0  0  0  0
   -7.7625   -0.4272    2.3639 H   0  0  0  0  0  0  0  0  0  0  0  0
  1  2  1  0  0  0  0 
  1  3  1  0  0  0  0 
  4  1  1  0  0  0  0 
  2  5  1  0  0  0  0 
  2  6  1  0  0  0  0 
  4  7  1  0  0  0  0 
  4  8  1  0  0  0  0 
  4 87  1  0  0  0  0 
  5  9  1  0  0  0  0 
  7 10  1  0  0  0  0 
  7 11  1  0  0  0  0 
  8 12  2  0  0  0  0 
  8 13  1  0  0  0  0 
  9 14  2  0  0  0  0 
 11 15  2  0  0  0  0 
 16 11  1  0  0  0  0 
 17 13  1  0  0  0  0 
 14 18  1  0  0  0  0 
 16 19  1  0  0  0  0 
 16 20  1  0  0  0  0 
 16 89  1  0  0  0  0 
 17 21  1  0  0  0  0 
 17 22  1  0  0  0  0 
 18 23  2  0  0  0  0 
 19 24  1  0  0  0  0 
 19 25  1  0  0  0  0 
 20 26  1  0  0  0  0 
 20 27  1  0  0  0  0 
 21 28  1  0  0  0  0 
 22 29  2  0  0  0  0 
 22 30  1  0  0  0  0 
 27 31  2  0  0  0  0 
 32 27  1  0  0  0  0 
 30 33  1  0  0  0  0 
 30 34  1  0  0  0  0 
 32 35  1  0  0  0  0 
 32 36  1  0  0  0  0 
 34 37  1  0  0  0  0 
 35 38  1  0  0  0  0 
 36 39  1  0  0  0  0 
 36 40  1  0  0  0  0 
 37 41  2  0  0  0  0 
 37 42  1  0  0  0  0 
 38 43  1  0  0  0  0 
 38 44  1  0  0  0  0 
 40 45  2  0  0  0  0 
 40 46  1  0  0  0  0 
 42 47  1  0  0  0  0 
 48 42  1  0  0  0  0 
 46 49  1  0  0  0  0 
 46 50  1  0  0  0  0 
 48 51  1  0  0  0  0 
 48 52  1  0  0  0  0 
 49 53  1  0  0  0  0 
 50 54  1  0  0  0  0 
 50 55  1  0  0  0  0 
 51 56  1  0  0  0  0 
 52 57  2  0  0  0  0 
 52 58  1  0  0  0  0 
 53 59  1  0  0  0  0 
 53 60  1  0  0  0  0 
 55 61  2  0  0  0  0 
 62 55  1  0  0  0  0 
 56 63  1  0  0  0  0 
 56 64  1  0  0  0  0 
 65 58  1  0  0  0  0 
 62 66  1  0  0  0  0 
 62 67  1  0  0  0  0 
 65 68  1  0  0  0  0 
 65 69  1  0  0  0  0 
 65 88  1  0  0  0  0 
 67 70  1  0  0  0  0 
 68 71  1  0  0  0  0 
 68 72  1  0  0  0  0 
 69 73  2  0  0  0  0 
 69 74  1  0  0  0  0 
 70 75  2  0  0  0  0 
 76 70  1  0  0  0  0 
 74 77  1  0  0  0  0 
 78 74  1  0  0  0  0 
 76 79  1  0  0  0  0 
 76 80  1  0  0  0  0 
 78 81  1  0  0  0  0 
 78 82  1  0  0  0  0 
 80 82  1  0  0  0  0 
 81 83  1  0  0  0  0 
 82 84  2  0  0  0  0 
 83 85  1  0  0  0  0 
 83 86  1  0  0  0  0 
  1 90  1  0  0  0  0 
  2 91  1  0  0  0  0 
  3 92  1  0  0  0  0 
  5 93  1  0  0  0  0 
  5 94  1  0  0  0  0 
  6 95  1  0  0  0  0 
  6 96  1  0  0  0  0 
  6 97  1  0  0  0  0 
  9 98  1  0  0  0  0 
 10 99  1  0  0  0  0 
 10100  1  0  0  0  0 
 10101  1  0  0  0  0 
 13102  1  0  0  0  0 
 14103  1  0  0  0  0 
 17104  1  0  0  0  0 
 18105  1  0  0  0  0 
 19106  1  0  0  0  0 
 21107  1  0  0  0  0 
 21108  1  0  0  0  0 
 23109  1  0  0  0  0 
 23110  1  0  0  0  0 
 24111  1  0  0  0  0 
 24112  1  0  0  0  0 
 24113  1  0  0  0  0 
 25114  1  0  0  0  0 
 25115  1  0  0  0  0 
 25116  1  0  0  0  0 
 26117  1  0  0  0  0 
 26118  1  0  0  0  0 
 26119  1  0  0  0  0 
 28120  1  0  0  0  0 
 28121  1  0  0  0  0 
 28122  1  0  0  0  0 
 32123  1  0  0  0  0 
 33124  1  0  0  0  0 
 33125  1  0  0  0  0 
 33126  1  0  0  0  0 
 34127  1  0  0  0  0 
 34128  1  0  0  0  0 
 35129  1  0  0  0  0 
 35130  1  0  0  0  0 
 38131  1  0  0  0  0 
 39132  1  0  0  0  0 
 39133  1  0  0  0  0 
 39134  1  0  0  0  0 
 43135  1  0  0  0  0 
 43136  1  0  0  0  0 
 43137  1  0  0  0  0 
 44138  1  0  0  0  0 
 44139  1  0  0  0  0 
 44140  1  0  0  0  0 
 46141  1  0  0  0  0 
 47142  1  0  0  0  0 
 47143  1  0  0  0  0 
 47144  1  0  0  0  0 
 48145  1  0  0  0  0 
 49146  1  0  0  0  0 
 49147  1  0  0  0  0 
 51148  1  0  0  0  0 
 51149  1  0  0  0  0 
 53150  1  0  0  0  0 
 54151  1  0  0  0  0 
 54152  1  0  0  0  0 
 54153  1  0  0  0  0 
 56154  1  0  0  0  0 
 58155  1  0  0  0  0 
 59156  1  0  0  0  0 
 59157  1  0  0  0  0 
 59158  1  0  0  0  0 
 60159  1  0  0  0  0 
 60160  1  0  0  0  0 
 60161  1  0  0  0  0 
 62162  1  0  0  0  0 
 63163  1  0  0  0  0 
 63164  1  0  0  0  0 
 63165  1  0  0  0  0 
 64166  1  0  0  0  0 
 64167  1  0  0  0  0 
 64168  1  0  0  0  0 
 66169  1  0  0  0  0 
 66170  1  0  0  0  0 
 66171  1  0  0  0  0 
 67172  1  0  0  0  0 
 68173  1  0  0  0  0 
 71174  1  0  0  0  0 
 71175  1  0  0  0  0 
 71176  1  0  0  0  0 
 72177  1  0  0  0  0 
 72178  1  0  0  0  0 
 72179  1  0  0  0  0 
 76180  1  0  0  0  0 
 77181  1  0  0  0  0 
 77182  1  0  0  0  0 
 77183  1  0  0  0  0 
 78184  1  0  0  0  0 
 79185  1  0  0  0  0 
 79186  1  0  0  0  0 
 79187  1  0  0  0  0 
 80188  1  0  0  0  0 
 81189  1  0  0  0  0 
 81190  1  0  0  0  0 
 83191  1  0  0  0  0 
 85192  1  0  0  0  0 
 85193  1  0  0  0  0 
 85194  1  0  0  0  0 
 86195  1  0  0  0  0 
 86196  1  0  0  0  0 
 86197  1  0  0  0  0 
M  END
> <cdk:Title>
voclosporin

> <Conformer>
1

> <SuperDrugID>
SD003521

$$$$
