nitric oxide
  CDK     0628171801

  2  1  0  0  0  0  0  0  0  0999 V2000
    1.1650    0.0000    0.0000 N   0  0  0  0  0  0  0  0  0  0  0  0
    0.0000    0.0000    0.0000 O   0  0  0  0  0  0  0  0  0  0  0  0
  1  2  2  0  0  0  0 
M  RAD  1   1   2
M  END
> <cdk:Title>
nitric oxide

> <Conformer>
1

> <SuperDrugID>
SD001742

$$$$
