beclobrate
  CDK     0628171801

 47 48  0  0  0  0  0  0  0  0999 V2000
   -1.6470    3.6254    0.0282 O   0  0  0  0  0  0  0  0  0  0  0  0
   -2.6662    2.5741    0.0584 C   0  0  1  0  0  0  0  0  0  0  0  0
   -2.0429    4.9478    0.0008 C   0  0  0  0  0  0  0  0  0  0  0  0
   -1.9472    1.2653   -0.0414 C   0  0  0  0  0  0  0  0  0  0  0  0
   -2.1857    5.6885    1.1923 C   0  0  0  0  0  0  0  0  0  0  0  0
   -2.2760    5.6000   -1.2285 C   0  0  0  0  0  0  0  0  0  0  0  0
   -2.6575    7.0144    1.1664 C   0  0  0  0  0  0  0  0  0  0  0  0
   -2.7507    6.9245   -1.2597 C   0  0  0  0  0  0  0  0  0  0  0  0
   -2.9846    7.6381   -0.0611 C   0  0  0  0  0  0  0  0  0  0  0  0
   -3.5814    9.0005   -0.1013 C   0  0  1  0  0  0  0  0  0  0  0  0
   -2.5489   10.0681   -0.0697 C   0  0  0  0  0  0  0  0  0  0  0  0
   -2.0743   10.5773    1.1610 C   0  0  0  0  0  0  0  0  0  0  0  0
   -2.0159   10.5953   -1.2697 C   0  0  0  0  0  0  0  0  0  0  0  0
   -1.0887   11.5802    1.1931 C   0  0  0  0  0  0  0  0  0  0  0  0
   -1.0314   11.5998   -1.2403 C   0  0  0  0  0  0  0  0  0  0  0  0
   -0.5687   12.0982   -0.0079 C   0  0  0  0  0  0  0  0  0  0  0  0
    0.6012   13.3201    0.0294 Cl  0  0  0  0  0  0  0  0  0  0  0  0
   -0.5786    1.1989   -0.0591 O   0  0  0  0  0  0  0  0  0  0  0  0
   -3.4925    2.5986    1.3965 C   0  0  2  0  0  0  0  0  0  0  0  0
   -3.6240    2.6776   -1.1752 C   0  0  0  0  0  0  0  0  0  0  0  0
   -2.6666    2.3349    2.6831 C   0  0  0  0  0  0  0  0  0  0  0  0
   -2.6084    0.1982   -0.0761 O   0  0  0  0  0  0  0  0  0  0  0  0
    0.1976   -0.0101   -0.0955 C   0  0  1  0  0  0  0  0  0  0  0  0
    1.7016    0.3084   -0.0339 C   0  0  0  0  0  0  0  0  0  0  0  0
   -1.9600    5.2579    2.0873 H   0  0  0  0  0  0  0  0  0  0  0  0
   -2.1168    5.1067   -2.1103 H   0  0  0  0  0  0  0  0  0  0  0  0
   -2.7698    7.5150    2.0510 H   0  0  0  0  0  0  0  0  0  0  0  0
   -2.9349    7.3637   -2.1663 H   0  0  0  0  0  0  0  0  0  0  0  0
   -4.1968    9.1103   -0.9990 H   0  0  0  0  0  0  0  0  0  0  0  0
   -4.2786    9.1200    0.7318 H   0  0  0  0  0  0  0  0  0  0  0  0
   -2.4432   10.2205    2.0449 H   0  0  0  0  0  0  0  0  0  0  0  0
   -2.3406   10.2502   -2.1755 H   0  0  0  0  0  0  0  0  0  0  0  0
   -0.7540   11.9295    2.0942 H   0  0  0  0  0  0  0  0  0  0  0  0
   -0.6556   11.9637   -2.1192 H   0  0  0  0  0  0  0  0  0  0  0  0
   -4.2886    1.8483    1.3591 H   0  0  0  0  0  0  0  0  0  0  0  0
   -3.9941    3.5636    1.4991 H   0  0  0  0  0  0  0  0  0  0  0  0
   -3.0433    2.6921   -2.1006 H   0  0  0  0  0  0  0  0  0  0  0  0
   -4.3216    1.8377   -1.2200 H   0  0  0  0  0  0  0  0  0  0  0  0
   -4.2227    3.5879   -1.1270 H   0  0  0  0  0  0  0  0  0  0  0  0
   -3.2648    2.5751    3.5636 H   0  0  0  0  0  0  0  0  0  0  0  0
   -1.7590    2.9383    2.7042 H   0  0  0  0  0  0  0  0  0  0  0  0
   -2.3810    1.2834    2.7434 H   0  0  0  0  0  0  0  0  0  0  0  0
   -0.0645   -0.6357    0.7617 H   0  0  0  0  0  0  0  0  0  0  0  0
   -0.0173   -0.5620   -1.0146 H   0  0  0  0  0  0  0  0  0  0  0  0
    2.2807   -0.6176   -0.0226 H   0  0  0  0  0  0  0  0  0  0  0  0
    1.9971    0.8981   -0.9025 H   0  0  0  0  0  0  0  0  0  0  0  0
    1.9262    0.8725    0.8723 H   0  0  0  0  0  0  0  0  0  0  0  0
  2  1  1  0  0  0  0 
  1  3  1  0  0  0  0 
  2  4  1  0  0  0  0 
  3  5  2  0  0  0  0 
  3  6  1  0  0  0  0 
  5  7  1  0  0  0  0 
  6  8  2  0  0  0  0 
  7  9  2  0  0  0  0 
  8  9  1  0  0  0  0 
  9 10  1  0  0  0  0 
 10 11  1  0  0  0  0 
 11 12  2  0  0  0  0 
 11 13  1  0  0  0  0 
 12 14  1  0  0  0  0 
 13 15  2  0  0  0  0 
 14 16  2  0  0  0  0 
 15 16  1  0  0  0  0 
 16 17  1  0  0  0  0 
  4 18  1  0  0  0  0 
  2 19  1  0  0  0  0 
  2 20  1  0  0  0  0 
 19 21  1  0  0  0  0 
  4 22  2  0  0  0  0 
 18 23  1  0  0  0  0 
 23 24  1  0  0  0  0 
  5 25  1  0  0  0  0 
  6 26  1  0  0  0  0 
  7 27  1  0  0  0  0 
  8 28  1  0  0  0  0 
 10 29  1  0  0  0  0 
 10 30  1  0  0  0  0 
 12 31  1  0  0  0  0 
 13 32  1  0  0  0  0 
 14 33  1  0  0  0  0 
 15 34  1  0  0  0  0 
 19 35  1  0  0  0  0 
 19 36  1  0  0  0  0 
 20 37  1  0  0  0  0 
 20 38  1  0  0  0  0 
 20 39  1  0  0  0  0 
 21 40  1  0  0  0  0 
 21 41  1  0  0  0  0 
 21 42  1  0  0  0  0 
 23 43  1  0  0  0  0 
 23 44  1  0  0  0  0 
 24 45  1  0  0  0  0 
 24 46  1  0  0  0  0 
 24 47  1  0  0  0  0 
M  END
> <cdk:Title>
beclobrate

> <Conformer>
1

> <SuperDrugID>
SD000245

$$$$
