octreotide
  CDK     0628171801

137141  0  0  0  0  0  0  0  0999 V2000
   -3.2637   -0.1500    1.5766 H   0  0  0  0  0  0  0  0  0  0  0  0
   -2.7133   -0.9770    1.8166 N   0  0  2  0  0  0  0  0  0  0  0  0
   -2.2336   -3.7297    1.4138 N   0  0  0  0  0  0  0  0  0  0  0  0
   -3.8329   -5.9122    1.1351 N   0  0  0  0  0  0  0  0  0  0  0  0
   -6.2854   -8.3523    2.5049 N   0  0  0  0  0  0  0  0  0  0  0  0
   -6.4693   -6.8005    4.9362 N   0  0  0  0  0  0  0  0  0  0  0  0
   -5.3740   -3.4769    6.0032 N   0  0  0  0  0  0  0  0  0  0  0  0
   -2.2514   -2.1441    5.9329 N   0  0  0  0  0  0  0  0  0  0  0  0
   -0.3705    0.4470    7.1262 N   0  0  0  0  0  0  0  0  0  0  0  0
   -0.6058    0.5304    8.5398 C   0  0  2  0  0  0  0  0  0  0  0  0
   -2.0888    0.9667    8.7902 C   0  0  1  0  0  0  0  0  0  0  0  0
    0.4788    1.4776    9.1242 C   0  0  2  0  0  0  0  0  0  0  0  0
    0.4421    1.5319   10.5461 O   0  0  0  0  0  0  0  0  0  0  0  0
   -0.4378   -0.4411    9.0073 H   0  0  0  0  0  0  0  0  0  0  0  0
   -2.5872    0.7647   10.2422 C   0  0  0  0  0  0  0  0  0  0  0  0
   -2.3174    2.3205    8.3996 O   0  0  0  0  0  0  0  0  0  0  0  0
   -2.7349    0.3520    8.1602 H   0  0  0  0  0  0  0  0  0  0  0  0
   -1.4406   -2.7587    0.8779 C   0  0  0  0  0  0  0  0  0  0  0  0
   -1.0755   -0.3465    0.0413 C   0  0  2  0  0  0  0  0  0  0  0  0
   -1.5881    1.0555    0.1255 C   0  0  0  0  0  0  0  0  0  0  0  0
   -0.9190    2.0297    0.9090 C   0  0  0  0  0  0  0  0  0  0  0  0
   -2.0591   -1.4398    0.5785 C   0  0  2  0  0  0  0  0  0  0  0  0
   -0.2138   -2.9613    0.7108 O   0  0  0  0  0  0  0  0  0  0  0  0
   -1.4212    3.3403    1.0158 C   0  0  0  0  0  0  0  0  0  0  0  0
   -2.6041    3.6974    0.3450 C   0  0  0  0  0  0  0  0  0  0  0  0
   -3.2740    2.7476   -0.4466 C   0  0  0  0  0  0  0  0  0  0  0  0
   -2.7648    1.4397   -0.5624 C   0  0  0  0  0  0  0  0  0  0  0  0
   -2.8727   -5.9438    2.1023 C   0  0  0  0  0  0  0  0  0  0  0  0
   -0.4876   -5.6095    4.5598 S   0  0  0  0  0  0  0  0  0  0  0  0
   -1.4059   -4.4284    3.5273 C   0  0  2  0  0  0  0  0  0  0  0  0
   -1.7906   -4.9159    2.0972 C   0  0  2  0  0  0  0  0  0  0  0  0
   -2.9107   -6.8070    3.0092 O   0  0  0  0  0  0  0  0  0  0  0  0
   -5.2520   -7.9137    1.7157 C   0  0  0  0  0  0  0  0  0  0  0  0
   -5.5734   -6.5852   -0.4088 C   0  0  2  0  0  0  0  0  0  0  0  0
   -7.0523   -6.5371   -0.5678 C   0  0  0  0  0  0  0  0  0  0  0  0
   -7.7596   -5.3522   -0.2464 C   0  0  0  0  0  0  0  0  0  0  0  0
   -9.1622   -5.3001   -0.3441 C   0  0  0  0  0  0  0  0  0  0  0  0
   -9.8764   -6.4313   -0.7768 C   0  0  0  0  0  0  0  0  0  0  0  0
   -9.1863   -7.6076   -1.1186 C   0  0  0  0  0  0  0  0  0  0  0  0
   -7.7839   -7.6630   -1.0123 C   0  0  0  0  0  0  0  0  0  0  0  0
   -5.1175   -6.5622    1.0863 C   0  0  2  0  0  0  0  0  0  0  0  0
   -4.3601   -8.7620    1.4874 O   0  0  0  0  0  0  0  0  0  0  0  0
   -7.2362   -6.5617    3.8365 C   0  0  0  0  0  0  0  0  0  0  0  0
   -7.8046  -10.6422    4.6828 C   0  0  0  0  0  0  0  0  0  0  0  0
   -7.8789  -10.7137    6.1024 N   0  0  0  0  0  0  0  0  0  0  0  0
   -8.4142   -9.6390    6.8662 C   0  0  0  0  0  0  0  0  0  0  0  0
   -8.7865   -8.6863    5.9052 C   0  0  0  0  0  0  0  0  0  0  0  0
   -9.3784   -7.4698    6.2895 C   0  0  0  0  0  0  0  0  0  0  0  0
   -9.5736   -7.2310    7.6688 C   0  0  0  0  0  0  0  0  0  0  0  0
   -9.1917   -8.1964    8.6319 C   0  0  0  0  0  0  0  0  0  0  0  0
   -8.6037   -9.4183    8.2385 C   0  0  0  0  0  0  0  0  0  0  0  0
   -7.4895   -7.6514    2.8645 C   0  0  2  0  0  0  0  0  0  0  0  0
   -8.6097   -8.6324    3.3264 C   0  0  2  0  0  0  0  0  0  0  0  0
   -7.7165   -5.4237    3.6144 O   0  0  0  0  0  0  0  0  0  0  0  0
   -8.3987   -9.3114    4.6322 C   0  0  0  0  0  0  0  0  0  0  0  0
   -5.3830   -4.6568    5.3265 C   0  0  0  0  0  0  0  0  0  0  0  0
   -3.8720   -8.4534    5.8963 C   0  0  1  0  0  0  0  0  0  0  0  0
   -3.8292   -7.0748    6.6140 C   0  0  2  0  0  0  0  0  0  0  0  0
   -5.2161   -6.4962    7.0353 C   0  0  1  0  0  0  0  0  0  0  0  0
   -6.0740   -5.8339    5.9145 C   0  0  2  0  0  0  0  0  0  0  0  0
   -2.5783  -10.4256    5.1253 N   0  0  1  0  0  0  0  0  0  0  0  0
   -2.4719   -9.0897    5.7242 C   0  0  2  0  0  0  0  0  0  0  0  0
   -4.8058   -4.7671    4.2195 O   0  0  0  0  0  0  0  0  0  0  0  0
   -3.4990   -2.1728    6.4832 C   0  0  0  0  0  0  0  0  0  0  0  0
   -6.8221   -1.2630    5.0027 O   0  0  0  0  0  0  0  0  0  0  0  0
   -4.6890   -2.2805    5.6076 C   0  0  2  0  0  0  0  0  0  0  0  0
   -4.9633    0.2684    5.1812 C   0  0  0  0  0  0  0  0  0  0  0  0
   -5.6140   -1.0298    5.7261 C   0  0  1  0  0  0  0  0  0  0  0  0
   -3.6699   -2.0994    7.7250 O   0  0  0  0  0  0  0  0  0  0  0  0
   -0.5243   -0.6227    6.2943 C   0  0  0  0  0  0  0  0  0  0  0  0
   -0.6593   -4.7716    6.4836 S   0  0  0  0  0  0  0  0  0  0  0  0
    0.0254   -3.0897    6.3212 C   0  0  1  0  0  0  0  0  0  0  0  0
   -1.0192   -1.9825    6.6475 C   0  0  2  0  0  0  0  0  0  0  0  0
   -0.2437   -0.3898    5.0948 O   0  0  0  0  0  0  0  0  0  0  0  0
   -1.9746   -0.6721    2.4549 H   0  0  0  0  0  0  0  0  0  0  0  0
   -3.1872   -3.5532    1.4259 H   0  0  0  0  0  0  0  0  0  0  0  0
   -3.6646   -5.2794    0.4171 H   0  0  0  0  0  0  0  0  0  0  0  0
   -6.1990   -9.2521    2.8600 H   0  0  0  0  0  0  0  0  0  0  0  0
   -6.1734   -7.7123    5.0725 H   0  0  0  0  0  0  0  0  0  0  0  0
   -5.8582   -3.4489    6.8426 H   0  0  0  0  0  0  0  0  0  0  0  0
   -2.1935   -2.2175    4.9669 H   0  0  0  0  0  0  0  0  0  0  0  0
   -0.0756    1.2662    6.6994 H   0  0  0  0  0  0  0  0  0  0  0  0
    0.3670    2.4898    8.7281 H   0  0  0  0  0  0  0  0  0  0  0  0
    1.4694    1.1080    8.8431 H   0  0  0  0  0  0  0  0  0  0  0  0
    1.1687    2.1421   10.7939 H   0  0  0  0  0  0  0  0  0  0  0  0
   -3.6626    0.9463   10.2936 H   0  0  0  0  0  0  0  0  0  0  0  0
   -2.0950    1.4560   10.9247 H   0  0  0  0  0  0  0  0  0  0  0  0
   -2.4003   -0.2582   10.5730 H   0  0  0  0  0  0  0  0  0  0  0  0
   -2.1202    2.3453    7.4394 H   0  0  0  0  0  0  0  0  0  0  0  0
   -0.1335   -0.4193    0.5933 H   0  0  0  0  0  0  0  0  0  0  0  0
   -0.8468   -0.5664   -1.0048 H   0  0  0  0  0  0  0  0  0  0  0  0
   -0.0602    1.7928    1.4127 H   0  0  0  0  0  0  0  0  0  0  0  0
   -2.8445   -1.6023   -0.1655 H   0  0  0  0  0  0  0  0  0  0  0  0
   -0.9284    4.0337    1.5838 H   0  0  0  0  0  0  0  0  0  0  0  0
   -2.9751    4.6475    0.4306 H   0  0  0  0  0  0  0  0  0  0  0  0
   -4.1333    3.0081   -0.9360 H   0  0  0  0  0  0  0  0  0  0  0  0
   -3.2642    0.7665   -1.1477 H   0  0  0  0  0  0  0  0  0  0  0  0
   -0.7598   -3.5567    3.4443 H   0  0  0  0  0  0  0  0  0  0  0  0
   -2.3070   -4.1293    4.0597 H   0  0  0  0  0  0  0  0  0  0  0  0
   -0.9178   -5.3381    1.5937 H   0  0  0  0  0  0  0  0  0  0  0  0
   -5.1742   -5.7213   -0.9482 H   0  0  0  0  0  0  0  0  0  0  0  0
   -5.1526   -7.4642   -0.9057 H   0  0  0  0  0  0  0  0  0  0  0  0
   -7.2555   -4.5207    0.0764 H   0  0  0  0  0  0  0  0  0  0  0  0
   -9.6593   -4.4395   -0.0982 H   0  0  0  0  0  0  0  0  0  0  0  0
  -10.8949   -6.4018   -0.8451 H   0  0  0  0  0  0  0  0  0  0  0  0
   -9.7050   -8.4273   -1.4415 H   0  0  0  0  0  0  0  0  0  0  0  0
   -7.3044   -8.5365   -1.2472 H   0  0  0  0  0  0  0  0  0  0  0  0
   -5.7621   -5.8696    1.6258 H   0  0  0  0  0  0  0  0  0  0  0  0
   -7.4645  -11.2906    3.9718 H   0  0  0  0  0  0  0  0  0  0  0  0
   -7.5666  -11.5086    6.5844 H   0  0  0  0  0  0  0  0  0  0  0  0
   -9.6549   -6.7745    5.5964 H   0  0  0  0  0  0  0  0  0  0  0  0
   -9.9961   -6.3527    7.9747 H   0  0  0  0  0  0  0  0  0  0  0  0
   -9.3469   -8.0101    9.6261 H   0  0  0  0  0  0  0  0  0  0  0  0
   -8.3278  -10.1201    8.9289 H   0  0  0  0  0  0  0  0  0  0  0  0
   -7.8869   -7.2009    1.9552 H   0  0  0  0  0  0  0  0  0  0  0  0
   -8.7367   -9.3897    2.5458 H   0  0  0  0  0  0  0  0  0  0  0  0
   -9.5580   -8.0887    3.3656 H   0  0  0  0  0  0  0  0  0  0  0  0
   -4.5043   -9.1357    6.4706 H   0  0  0  0  0  0  0  0  0  0  0  0
   -4.3096   -8.3397    4.9034 H   0  0  0  0  0  0  0  0  0  0  0  0
   -3.3072   -6.3589    5.9786 H   0  0  0  0  0  0  0  0  0  0  0  0
   -3.2325   -7.1825    7.5234 H   0  0  0  0  0  0  0  0  0  0  0  0
   -5.8029   -7.2846    7.5125 H   0  0  0  0  0  0  0  0  0  0  0  0
   -5.0389   -5.7406    7.8068 H   0  0  0  0  0  0  0  0  0  0  0  0
   -6.9962   -5.4827    6.3824 H   0  0  0  0  0  0  0  0  0  0  0  0
   -2.9574  -10.3070    4.1837 H   0  0  0  0  0  0  0  0  0  0  0  0
   -1.6273  -10.7869    5.0203 H   0  0  0  0  0  0  0  0  0  0  0  0
   -1.9807   -9.1849    6.6940 H   0  0  0  0  0  0  0  0  0  0  0  0
   -1.8524   -8.4640    5.0800 H   0  0  0  0  0  0  0  0  0  0  0  0
   -7.3452   -0.4375    5.0962 H   0  0  0  0  0  0  0  0  0  0  0  0
   -4.3713   -2.3493    4.5613 H   0  0  0  0  0  0  0  0  0  0  0  0
   -4.0339    0.4917    5.7065 H   0  0  0  0  0  0  0  0  0  0  0  0
   -5.6417    1.1117    5.3213 H   0  0  0  0  0  0  0  0  0  0  0  0
   -4.7484    0.1693    4.1168 H   0  0  0  0  0  0  0  0  0  0  0  0
   -5.8909   -0.8638    6.7727 H   0  0  0  0  0  0  0  0  0  0  0  0
    0.8475   -3.0104    7.0358 H   0  0  0  0  0  0  0  0  0  0  0  0
    0.4535   -2.9554    5.3290 H   0  0  0  0  0  0  0  0  0  0  0  0
   -1.2028   -2.0585    7.7180 H   0  0  0  0  0  0  0  0  0  0  0  0
  1  2  1  0  0  0  0 
 18  3  1  0  0  0  0 
 28  4  1  0  0  0  0 
 33  5  1  0  0  0  0 
 43  6  1  0  0  0  0 
 56  7  1  0  0  0  0 
 64  8  1  0  0  0  0 
 70  9  1  0  0  0  0 
 29 71  1  0  0  0  0 
  9 10  1  0  0  0  0 
 10 11  1  0  0  0  0 
 10 12  1  0  0  0  0 
 12 13  1  0  0  0  0 
 10 14  1  0  0  0  0 
 11 15  1  0  0  0  0 
 11 16  1  0  0  0  0 
 11 17  1  0  0  0  0 
 22  2  1  0  0  0  0 
 22 19  1  0  0  0  0 
 19 20  1  0  0  0  0 
 20 21  2  0  0  0  0 
 21 24  1  0  0  0  0 
 24 25  2  0  0  0  0 
 25 26  1  0  0  0  0 
 26 27  2  0  0  0  0 
 20 27  1  0  0  0  0 
 22 18  1  0  0  0  0 
 18 23  2  0  0  0  0 
 31  3  1  0  0  0  0 
 31 30  1  0  0  0  0 
 30 29  1  0  0  0  0 
 31 28  1  0  0  0  0 
 28 32  2  0  0  0  0 
 41  4  1  0  0  0  0 
 41 34  1  0  0  0  0 
 34 35  1  0  0  0  0 
 35 36  2  0  0  0  0 
 36 37  1  0  0  0  0 
 37 38  2  0  0  0  0 
 38 39  1  0  0  0  0 
 39 40  2  0  0  0  0 
 35 40  1  0  0  0  0 
 41 33  1  0  0  0  0 
 33 42  2  0  0  0  0 
 52  5  1  0  0  0  0 
 52 53  1  0  0  0  0 
 53 55  1  0  0  0  0 
 55 44  2  0  0  0  0 
 44 45  1  0  0  0  0 
 45 46  1  0  0  0  0 
 46 47  1  0  0  0  0 
 55 47  1  0  0  0  0 
 47 48  2  0  0  0  0 
 48 49  1  0  0  0  0 
 49 50  2  0  0  0  0 
 50 51  1  0  0  0  0 
 46 51  2  0  0  0  0 
 52 43  1  0  0  0  0 
 43 54  2  0  0  0  0 
 61 62  1  0  0  0  0 
 62 57  1  0  0  0  0 
 57 58  1  0  0  0  0 
 58 59  1  0  0  0  0 
 59 60  1  0  0  0  0 
 60  6  1  0  0  0  0 
 60 56  1  0  0  0  0 
 56 63  2  0  0  0  0 
 67 68  1  0  0  0  0 
 68 65  1  0  0  0  0 
 68 66  1  0  0  0  0 
 66  7  1  0  0  0  0 
 66 64  1  0  0  0  0 
 64 69  2  0  0  0  0 
 73  8  1  0  0  0  0 
 73 72  1  0  0  0  0 
 72 71  1  0  0  0  0 
 73 70  1  0  0  0  0 
 70 74  2  0  0  0  0 
  2 75  1  0  0  0  0 
  3 76  1  0  0  0  0 
  4 77  1  0  0  0  0 
  5 78  1  0  0  0  0 
  6 79  1  0  0  0  0 
  7 80  1  0  0  0  0 
  8 81  1  0  0  0  0 
  9 82  1  0  0  0  0 
 12 83  1  0  0  0  0 
 12 84  1  0  0  0  0 
 13 85  1  0  0  0  0 
 15 86  1  0  0  0  0 
 15 87  1  0  0  0  0 
 15 88  1  0  0  0  0 
 16 89  1  0  0  0  0 
 19 90  1  0  0  0  0 
 19 91  1  0  0  0  0 
 21 92  1  0  0  0  0 
 22 93  1  0  0  0  0 
 24 94  1  0  0  0  0 
 25 95  1  0  0  0  0 
 26 96  1  0  0  0  0 
 27 97  1  0  0  0  0 
 30 98  1  0  0  0  0 
 30 99  1  0  0  0  0 
 31100  1  0  0  0  0 
 34101  1  0  0  0  0 
 34102  1  0  0  0  0 
 36103  1  0  0  0  0 
 37104  1  0  0  0  0 
 38105  1  0  0  0  0 
 39106  1  0  0  0  0 
 40107  1  0  0  0  0 
 41108  1  0  0  0  0 
 44109  1  0  0  0  0 
 45110  1  0  0  0  0 
 48111  1  0  0  0  0 
 49112  1  0  0  0  0 
 50113  1  0  0  0  0 
 51114  1  0  0  0  0 
 52115  1  0  0  0  0 
 53116  1  0  0  0  0 
 53117  1  0  0  0  0 
 57118  1  0  0  0  0 
 57119  1  0  0  0  0 
 58120  1  0  0  0  0 
 58121  1  0  0  0  0 
 59122  1  0  0  0  0 
 59123  1  0  0  0  0 
 60124  1  0  0  0  0 
 61125  1  0  0  0  0 
 61126  1  0  0  0  0 
 62127  1  0  0  0  0 
 62128  1  0  0  0  0 
 65129  1  0  0  0  0 
 66130  1  0  0  0  0 
 67131  1  0  0  0  0 
 67132  1  0  0  0  0 
 67133  1  0  0  0  0 
 68134  1  0  0  0  0 
 72135  1  0  0  0  0 
 72136  1  0  0  0  0 
 73137  1  0  0  0  0 
M  END
> <cdk:Title>
octreotide

> <Conformer>
1

> <SuperDrugID>
SD001771

$$$$
