tetrachlorosalicylanilide
  Mrv0541 09131710103D              45.06667

 27 28  0  0  0  0            999 V2000
    4.6758   -1.0709    2.2291 O   0  0  0  0  0  0  0  0  0  0  0  0
    4.3673   -1.7844    1.1122 C   0  0  0  0  0  0  0  0  0  0  0  0
    5.3273   -2.7068    0.6384 C   0  0  0  0  0  0  0  0  0  0  0  0
    6.7736   -2.9862    1.4820 Cl  0  0  0  0  0  0  0  0  0  0  0  0
    5.0946   -3.4156   -0.5545 C   0  0  0  0  0  0  0  0  0  0  0  0
    3.9073   -3.2074   -1.2767 C   0  0  0  0  0  0  0  0  0  0  0  0
    3.6424   -4.0388   -2.7290 Cl  0  0  0  0  0  0  0  0  0  0  0  0
    2.9368   -2.3156   -0.7840 C   0  0  0  0  0  0  0  0  0  0  0  0
    3.1292   -1.6040    0.4293 C   0  0  0  0  0  0  0  0  0  0  0  0
    2.0839   -0.7738    0.9471 C   0  0  0  0  0  0  0  0  0  0  0  0
    2.0557   -0.5177    2.1755 O   0  0  0  0  0  0  0  0  0  0  0  0
    1.0679   -0.3243    0.1453 N   0  0  0  0  0  0  0  0  0  0  0  0
   -0.0271    0.4083    0.5045 C   0  0  0  0  0  0  0  0  0  0  0  0
   -1.2439    0.0911   -0.1331 C   0  0  0  0  0  0  0  0  0  0  0  0
   -2.4262    0.7706    0.2054 C   0  0  0  0  0  0  0  0  0  0  0  0
   -2.4077    1.7961    1.1701 C   0  0  0  0  0  0  0  0  0  0  0  0
   -3.8666    2.5781    1.5357 Cl  0  0  0  0  0  0  0  0  0  0  0  0
   -1.1883    2.1426    1.7987 C   0  0  0  0  0  0  0  0  0  0  0  0
   -1.0876    3.3701    2.9650 Cl  0  0  0  0  0  0  0  0  0  0  0  0
   -0.0071    1.4549    1.4557 C   0  0  0  0  0  0  0  0  0  0  0  0
    4.3637   -0.1592    2.0471 H   0  0  0  0  0  0  0  0  0  0  0  0
    5.7941   -4.0782   -0.9028 H   0  0  0  0  0  0  0  0  0  0  0  0
    2.0750   -2.2085   -1.3230 H   0  0  0  0  0  0  0  0  0  0  0  0
    1.0944   -0.6022   -0.7819 H   0  0  0  0  0  0  0  0  0  0  0  0
   -1.2815   -0.6480   -0.8398 H   0  0  0  0  0  0  0  0  0  0  0  0
   -3.3023    0.5089   -0.2548 H   0  0  0  0  0  0  0  0  0  0  0  0
    0.8761    1.7238    1.8955 H   0  0  0  0  0  0  0  0  0  0  0  0
  1  2  1  0  0  0  0
  2  3  2  0  0  0  0
  3  4  1  0  0  0  0
  3  5  1  0  0  0  0
  5  6  2  0  0  0  0
  6  7  1  0  0  0  0
  6  8  1  0  0  0  0
  8  9  2  0  0  0  0
  9 10  1  0  0  0  0
 10 11  2  0  0  0  0
 10 12  1  0  0  0  0
 12 13  1  0  0  0  0
 13 14  2  0  0  0  0
 14 15  1  0  0  0  0
 15 16  2  0  0  0  0
 16 17  1  0  0  0  0
 16 18  1  0  0  0  0
 18 19  1  0  0  0  0
 18 20  2  0  0  0  0
  9  2  1  0  0  0  0
 20 13  1  0  0  0  0
  1 21  1  0  0  0  0
  5 22  1  0  0  0  0
  8 23  1  0  0  0  0
 12 24  1  0  0  0  0
 14 25  1  0  0  0  0
 15 26  1  0  0  0  0
 20 27  1  0  0  0  0
M  END
>  <SuperDrugID>
SD006016

>  <_MOLCOUNT>
1

$$$$
