salacetamide
  CDK     0628171801

 22 22  0  0  0  0  0  0  0  0999 V2000
    3.9183   -1.0256   -1.2298 C   0  0  0  0  0  0  0  0  0  0  0  0
    2.6289   -0.4411   -0.8276 C   0  0  0  0  0  0  0  0  0  0  0  0
    2.1166   -0.7808    0.2658 O   0  0  0  0  0  0  0  0  0  0  0  0
    2.0467    0.4635   -1.6642 N   0  0  0  0  0  0  0  0  0  0  0  0
    0.8640    1.1269   -1.4926 C   0  0  0  0  0  0  0  0  0  0  0  0
    0.1430    0.8908   -0.4928 O   0  0  0  0  0  0  0  0  0  0  0  0
    0.4465    2.0966   -2.4483 C   0  0  0  0  0  0  0  0  0  0  0  0
    0.8132    1.9589   -3.8128 C   0  0  0  0  0  0  0  0  0  0  0  0
    0.4182    2.9071   -4.7733 C   0  0  0  0  0  0  0  0  0  0  0  0
   -0.3727    4.0035   -4.3932 C   0  0  0  0  0  0  0  0  0  0  0  0
   -0.7518    4.1588   -3.0486 C   0  0  0  0  0  0  0  0  0  0  0  0
   -0.3367    3.2249   -2.0780 C   0  0  0  0  0  0  0  0  0  0  0  0
   -0.7012    3.4779   -0.7938 O   0  0  0  0  0  0  0  0  0  0  0  0
    4.3349   -1.6609   -0.4445 H   0  0  0  0  0  0  0  0  0  0  0  0
    3.7758   -1.6270   -2.1296 H   0  0  0  0  0  0  0  0  0  0  0  0
    4.6313   -0.2267   -1.4439 H   0  0  0  0  0  0  0  0  0  0  0  0
    2.5432    0.6702   -2.4715 H   0  0  0  0  0  0  0  0  0  0  0  0
    1.3694    1.1601   -4.1281 H   0  0  0  0  0  0  0  0  0  0  0  0
    0.6992    2.7938   -5.7502 H   0  0  0  0  0  0  0  0  0  0  0  0
   -0.6675    4.6897   -5.0925 H   0  0  0  0  0  0  0  0  0  0  0  0
   -1.3232    4.9632   -2.7752 H   0  0  0  0  0  0  0  0  0  0  0  0
   -0.0080    3.0725   -0.2324 H   0  0  0  0  0  0  0  0  0  0  0  0
  1  2  1  0  0  0  0 
  2  3  2  0  0  0  0 
  2  4  1  0  0  0  0 
  4  5  1  0  0  0  0 
  5  6  2  0  0  0  0 
  5  7  1  0  0  0  0 
  7  8  2  0  0  0  0 
  8  9  1  0  0  0  0 
  9 10  2  0  0  0  0 
 10 11  1  0  0  0  0 
 11 12  2  0  0  0  0 
  7 12  1  0  0  0  0 
 12 13  1  0  0  0  0 
  1 14  1  0  0  0  0 
  1 15  1  0  0  0  0 
  1 16  1  0  0  0  0 
  4 17  1  0  0  0  0 
  8 18  1  0  0  0  0 
  9 19  1  0  0  0  0 
 10 20  1  0  0  0  0 
 11 21  1  0  0  0  0 
 13 22  1  0  0  0  0 
M  END
> <cdk:Title>
salacetamide

> <Conformer>
1

> <SuperDrugID>
SD003266

$$$$
