oxyphenonium
  CDK     0628171801

 59 60  0  0  0  0  0  0  0  0999 V2000
    0.2085   -2.2657    4.0652 C   0  0  2  0  0  0  0  0  0  0  0  0
   -0.6806   -2.2213    2.8574 C   0  0  0  0  0  0  0  0  0  0  0  0
    1.4473   -1.6306    3.6940 O   0  0  0  0  0  0  0  0  0  0  0  0
    0.5799   -3.7532    4.4532 C   0  0  2  0  0  0  0  0  0  0  0  0
   -0.4524   -1.5130    5.2007 C   0  0  0  0  0  0  0  0  0  0  0  0
   -1.9125   -2.8339    2.8409 O   0  0  0  0  0  0  0  0  0  0  0  0
   -0.2936   -1.6321    1.8174 O   0  0  0  0  0  0  0  0  0  0  0  0
    1.4230   -3.8490    5.7733 C   0  0  1  0  0  0  0  0  0  0  0  0
    1.3168   -4.5169    3.2988 C   0  0  2  0  0  0  0  0  0  0  0  0
    0.1094   -0.3283    5.7512 C   0  0  0  0  0  0  0  0  0  0  0  0
   -1.6566   -1.9854    5.7876 C   0  0  0  0  0  0  0  0  0  0  0  0
   -2.8221   -2.8488    1.7215 C   0  0  1  0  0  0  0  0  0  0  0  0
    1.8046   -5.3047    6.1476 C   0  0  2  0  0  0  0  0  0  0  0  0
    1.6754   -5.9756    3.6838 C   0  0  2  0  0  0  0  0  0  0  0  0
   -0.5028    0.3464    6.8257 C   0  0  0  0  0  0  0  0  0  0  0  0
   -2.2784   -1.3111    6.8542 C   0  0  0  0  0  0  0  0  0  0  0  0
   -4.2091   -3.4949    2.0344 C   0  0  1  0  0  0  0  0  0  0  0  0
    2.5226   -6.0245    4.9797 C   0  0  2  0  0  0  0  0  0  0  0  0
   -1.6999   -0.1408    7.3726 C   0  0  0  0  0  0  0  0  0  0  0  0
   -4.4307   -4.9832    1.7633 N   0  0  2  0  0  0  0  0  0  0  0  0
   -5.8265   -5.4028    2.2300 C   0  0  2  0  0  0  0  0  0  0  0  0
   -3.3811   -5.8352    2.4734 C   0  0  1  0  0  0  0  0  0  0  0  0
   -4.3205   -5.2672    0.2753 C   0  0  0  0  0  0  0  0  0  0  0  0
   -7.0834   -4.8529    1.4932 C   0  0  0  0  0  0  0  0  0  0  0  0
   -3.3165   -5.8041    4.0244 C   0  0  0  0  0  0  0  0  0  0  0  0
    2.0310   -1.6839    4.4792 H   0  0  0  0  0  0  0  0  0  0  0  0
   -0.3520   -4.2978    4.6357 H   0  0  0  0  0  0  0  0  0  0  0  0
    2.3427   -3.2673    5.6743 H   0  0  0  0  0  0  0  0  0  0  0  0
    0.8575   -3.4308    6.6093 H   0  0  0  0  0  0  0  0  0  0  0  0
    2.2387   -3.9922    3.0319 H   0  0  0  0  0  0  0  0  0  0  0  0
    0.6854   -4.5493    2.4067 H   0  0  0  0  0  0  0  0  0  0  0  0
    0.9776    0.0612    5.3809 H   0  0  0  0  0  0  0  0  0  0  0  0
   -2.0983   -2.8387    5.4479 H   0  0  0  0  0  0  0  0  0  0  0  0
   -2.9989   -1.8099    1.4272 H   0  0  0  0  0  0  0  0  0  0  0  0
   -2.3385   -3.3451    0.8818 H   0  0  0  0  0  0  0  0  0  0  0  0
    0.9021   -5.8592    6.4191 H   0  0  0  0  0  0  0  0  0  0  0  0
    2.4627   -5.2908    7.0207 H   0  0  0  0  0  0  0  0  0  0  0  0
    2.2362   -6.4406    2.8686 H   0  0  0  0  0  0  0  0  0  0  0  0
    0.7537   -6.5475    3.8236 H   0  0  0  0  0  0  0  0  0  0  0  0
   -0.0745    1.1914    7.2123 H   0  0  0  0  0  0  0  0  0  0  0  0
   -3.1476   -1.6726    7.2547 H   0  0  0  0  0  0  0  0  0  0  0  0
   -4.4382   -3.2577    3.0782 H   0  0  0  0  0  0  0  0  0  0  0  0
   -4.9334   -2.9218    1.4461 H   0  0  0  0  0  0  0  0  0  0  0  0
    2.7050   -7.0657    5.2556 H   0  0  0  0  0  0  0  0  0  0  0  0
    3.4922   -5.5494    4.8004 H   0  0  0  0  0  0  0  0  0  0  0  0
   -2.1509    0.3517    8.1475 H   0  0  0  0  0  0  0  0  0  0  0  0
   -5.9562   -5.1359    3.2816 H   0  0  0  0  0  0  0  0  0  0  0  0
   -5.9179   -6.4934    2.1827 H   0  0  0  0  0  0  0  0  0  0  0  0
   -3.5180   -6.8878    2.2030 H   0  0  0  0  0  0  0  0  0  0  0  0
   -2.3806   -5.5674    2.1194 H   0  0  0  0  0  0  0  0  0  0  0  0
   -4.6248   -6.2920    0.0400 H   0  0  0  0  0  0  0  0  0  0  0  0
   -4.9489   -4.5959   -0.3157 H   0  0  0  0  0  0  0  0  0  0  0  0
   -3.3011   -5.1518   -0.0969 H   0  0  0  0  0  0  0  0  0  0  0  0
   -7.9809   -5.1377    2.0467 H   0  0  0  0  0  0  0  0  0  0  0  0
   -7.1659   -5.2778    0.4919 H   0  0  0  0  0  0  0  0  0  0  0  0
   -7.0678   -3.7666    1.4159 H   0  0  0  0  0  0  0  0  0  0  0  0
   -2.4632   -6.3958    4.3620 H   0  0  0  0  0  0  0  0  0  0  0  0
   -4.2159   -6.2353    4.4642 H   0  0  0  0  0  0  0  0  0  0  0  0
   -3.1911   -4.7888    4.3938 H   0  0  0  0  0  0  0  0  0  0  0  0
  1  2  1  0  0  0  0 
  1  3  1  0  0  0  0 
  1  4  1  0  0  0  0 
  1  5  1  0  0  0  0 
  2  6  1  0  0  0  0 
  2  7  2  0  0  0  0 
  4  8  1  0  0  0  0 
  4  9  1  0  0  0  0 
  5 10  2  0  0  0  0 
  5 11  1  0  0  0  0 
  6 12  1  0  0  0  0 
  8 13  1  0  0  0  0 
  9 14  1  0  0  0  0 
 10 15  1  0  0  0  0 
 11 16  2  0  0  0  0 
 12 17  1  0  0  0  0 
 13 18  1  0  0  0  0 
 14 18  1  0  0  0  0 
 15 19  2  0  0  0  0 
 16 19  1  0  0  0  0 
 17 20  1  0  0  0  0 
 20 21  1  0  0  0  0 
 20 22  1  0  0  0  0 
 20 23  1  0  0  0  0 
 21 24  1  0  0  0  0 
 22 25  1  0  0  0  0 
  3 26  1  0  0  0  0 
  4 27  1  0  0  0  0 
  8 28  1  0  0  0  0 
  8 29  1  0  0  0  0 
  9 30  1  0  0  0  0 
  9 31  1  0  0  0  0 
 10 32  1  0  0  0  0 
 11 33  1  0  0  0  0 
 12 34  1  0  0  0  0 
 12 35  1  0  0  0  0 
 13 36  1  0  0  0  0 
 13 37  1  0  0  0  0 
 14 38  1  0  0  0  0 
 14 39  1  0  0  0  0 
 15 40  1  0  0  0  0 
 16 41  1  0  0  0  0 
 17 42  1  0  0  0  0 
 17 43  1  0  0  0  0 
 18 44  1  0  0  0  0 
 18 45  1  0  0  0  0 
 19 46  1  0  0  0  0 
 21 47  1  0  0  0  0 
 21 48  1  0  0  0  0 
 22 49  1  0  0  0  0 
 22 50  1  0  0  0  0 
 23 51  1  0  0  0  0 
 23 52  1  0  0  0  0 
 23 53  1  0  0  0  0 
 24 54  1  0  0  0  0 
 24 55  1  0  0  0  0 
 24 56  1  0  0  0  0 
 25 57  1  0  0  0  0 
 25 58  1  0  0  0  0 
 25 59  1  0  0  0  0 
M  CHG  1  20   1
M  END
> <cdk:Title>
oxyphenonium

> <Conformer>
1

> <SuperDrugID>
SD001826

$$$$
