secalciferol
  CDK     0628171801

 74 76  0  0  0  0  0  0  0  0999 V2000
    2.1631   -6.2882   -2.8943 C   0  0  0  0  0  0  0  0  0  0  0  0
    2.8169   -5.9663   -4.2932 C   0  0  2  0  0  0  0  0  0  0  0  0
    3.0081   -4.4211   -4.5130 C   0  0  2  0  0  0  0  0  0  0  0  0
    1.8402   -6.3480   -5.4821 C   0  0  1  0  0  0  0  0  0  0  0  0
    4.2617   -6.5942   -4.3733 C   0  0  1  0  0  0  0  0  0  0  0  0
    3.8343   -3.8288   -3.4308 C   0  0  0  0  0  0  0  0  0  0  0  0
    1.5907   -3.9136   -4.8619 C   0  0  1  0  0  0  0  0  0  0  0  0
    0.9801   -7.6771   -5.3805 C   0  0  1  0  0  0  0  0  0  0  0  0
    0.9787   -5.0573   -5.6939 C   0  0  1  0  0  0  0  0  0  0  0  0
    5.2655   -5.9124   -3.3930 C   0  0  1  0  0  0  0  0  0  0  0  0
    3.3235   -2.9559   -2.5242 C   0  0  0  0  0  0  0  0  0  0  0  0
    5.2166   -4.3569   -3.4323 C   0  0  2  0  0  0  0  0  0  0  0  0
   -0.1181   -7.8691   -6.4931 C   0  0  1  0  0  0  0  0  0  0  0  0
    1.8524   -8.9660   -5.2684 C   0  0  0  0  0  0  0  0  0  0  0  0
    3.8993   -2.4874   -1.3699 C   0  0  0  0  0  0  0  0  0  0  0  0
    0.3796   -8.1812   -7.9339 C   0  0  2  0  0  0  0  0  0  0  0  0
    3.2861   -1.7789   -0.3862 C   0  0  0  0  0  0  0  0  0  0  0  0
   -0.7282   -8.5099   -8.9889 C   0  0  2  0  0  0  0  0  0  0  0  0
    1.9774   -1.3424   -0.4149 C   0  0  0  0  0  0  0  0  0  0  0  0
    4.0171   -1.3551    0.8226 C   0  0  2  0  0  0  0  0  0  0  0  0
   -1.7440   -9.7140   -8.6707 C   0  0  2  0  0  0  0  0  0  0  0  0
   -0.0458   -8.7044  -10.2310 O   0  0  0  0  0  0  0  0  0  0  0  0
    0.9372   -2.1950   -0.4066 C   0  0  0  0  0  0  0  0  0  0  0  0
    1.7882    0.1142   -0.3759 C   0  0  2  0  0  0  0  0  0  0  0  0
    3.9805    0.1941    0.9821 C   0  0  2  0  0  0  0  0  0  0  0  0
   -0.9096  -11.0258   -8.3410 C   0  0  0  0  0  0  0  0  0  0  0  0
   -2.5548  -10.0406  -10.0044 C   0  0  0  0  0  0  0  0  0  0  0  0
   -2.7065   -9.3528   -7.5546 O   0  0  0  0  0  0  0  0  0  0  0  0
    2.5255    0.7326    0.8484 C   0  0  2  0  0  0  0  0  0  0  0  0
    4.8192    0.7967   -0.0031 O   0  0  0  0  0  0  0  0  0  0  0  0
    3.5707   -4.2559   -5.4441 H   0  0  0  0  0  0  0  0  0  0  0  0
    2.4565   -6.4549   -6.3810 H   0  0  0  0  0  0  0  0  0  0  0  0
    2.7189   -5.8535   -2.0668 H   0  0  0  0  0  0  0  0  0  0  0  0
    2.1262   -7.3612   -2.7138 H   0  0  0  0  0  0  0  0  0  0  0  0
    1.1451   -5.9053   -2.8333 H   0  0  0  0  0  0  0  0  0  0  0  0
    4.2422   -7.6607   -4.1537 H   0  0  0  0  0  0  0  0  0  0  0  0
    4.6604   -6.4876   -5.3856 H   0  0  0  0  0  0  0  0  0  0  0  0
    0.9755   -3.7608   -3.9732 H   0  0  0  0  0  0  0  0  0  0  0  0
    1.6266   -2.9781   -5.4283 H   0  0  0  0  0  0  0  0  0  0  0  0
    0.4069   -7.6242   -4.4498 H   0  0  0  0  0  0  0  0  0  0  0  0
    0.9756   -4.7827   -6.7529 H   0  0  0  0  0  0  0  0  0  0  0  0
   -0.0577   -5.1903   -5.3741 H   0  0  0  0  0  0  0  0  0  0  0  0
    5.0500   -6.2396   -2.3741 H   0  0  0  0  0  0  0  0  0  0  0  0
    6.2826   -6.2424   -3.6261 H   0  0  0  0  0  0  0  0  0  0  0  0
    2.4057   -2.6355   -2.6922 H   0  0  0  0  0  0  0  0  0  0  0  0
    5.8391   -3.9910   -2.6177 H   0  0  0  0  0  0  0  0  0  0  0  0
    5.7108   -4.0174   -4.3478 H   0  0  0  0  0  0  0  0  0  0  0  0
   -0.7549   -8.6891   -6.1610 H   0  0  0  0  0  0  0  0  0  0  0  0
   -0.7699   -6.9955   -6.5415 H   0  0  0  0  0  0  0  0  0  0  0  0
    2.3708   -9.0190   -4.3144 H   0  0  0  0  0  0  0  0  0  0  0  0
    2.5981   -9.0019   -6.0643 H   0  0  0  0  0  0  0  0  0  0  0  0
    1.2271   -9.8584   -5.3330 H   0  0  0  0  0  0  0  0  0  0  0  0
    4.8553   -2.6905   -1.2227 H   0  0  0  0  0  0  0  0  0  0  0  0
    1.0859   -9.0104   -7.9109 H   0  0  0  0  0  0  0  0  0  0  0  0
    0.9332   -7.3054   -8.2809 H   0  0  0  0  0  0  0  0  0  0  0  0
   -1.3344   -7.6075   -9.1066 H   0  0  0  0  0  0  0  0  0  0  0  0
    5.0618   -1.6825    0.8228 H   0  0  0  0  0  0  0  0  0  0  0  0
    3.5475   -1.8142    1.7005 H   0  0  0  0  0  0  0  0  0  0  0  0
   -0.7535   -8.7207  -10.9102 H   0  0  0  0  0  0  0  0  0  0  0  0
    1.0772   -3.1788   -0.4028 H   0  0  0  0  0  0  0  0  0  0  0  0
    0.0024   -1.8607   -0.3998 H   0  0  0  0  0  0  0  0  0  0  0  0
    0.7325    0.3971   -0.3219 H   0  0  0  0  0  0  0  0  0  0  0  0
    2.1893    0.5467   -1.2976 H   0  0  0  0  0  0  0  0  0  0  0  0
    4.3753    0.4687    1.9643 H   0  0  0  0  0  0  0  0  0  0  0  0
   -0.3615  -10.9013   -7.4066 H   0  0  0  0  0  0  0  0  0  0  0  0
   -0.1960  -11.2639   -9.1338 H   0  0  0  0  0  0  0  0  0  0  0  0
   -1.5794  -11.8779   -8.2093 H   0  0  0  0  0  0  0  0  0  0  0  0
   -3.3295  -10.7820   -9.7990 H   0  0  0  0  0  0  0  0  0  0  0  0
   -1.9143  -10.4329  -10.7977 H   0  0  0  0  0  0  0  0  0  0  0  0
   -3.0502   -9.1380  -10.3664 H   0  0  0  0  0  0  0  0  0  0  0  0
   -3.3301  -10.1060   -7.5110 H   0  0  0  0  0  0  0  0  0  0  0  0
    1.9697    0.4846    1.7580 H   0  0  0  0  0  0  0  0  0  0  0  0
    2.5421    1.8217    0.7571 H   0  0  0  0  0  0  0  0  0  0  0  0
    5.7069    0.4105    0.1562 H   0  0  0  0  0  0  0  0  0  0  0  0
  2  1  1  0  0  0  0 
  2  3  1  0  0  0  0 
  4  2  1  0  0  0  0 
  2  5  1  0  0  0  0 
  3  6  1  0  0  0  0 
  3  7  1  0  0  0  0 
  3 31  1  0  0  0  0 
  8  4  1  0  0  0  0 
  4  9  1  0  0  0  0 
  4 32  1  0  0  0  0 
  5 10  1  0  0  0  0 
  6 11  2  0  0  0  0 
  6 12  1  0  0  0  0 
  7  9  1  0  0  0  0 
  8 13  1  0  0  0  0 
  8 14  1  0  0  0  0 
 10 12  1  0  0  0  0 
 11 15  1  0  0  0  0 
 13 16  1  0  0  0  0 
 15 17  2  0  0  0  0 
 18 16  1  0  0  0  0 
 17 19  1  0  0  0  0 
 17 20  1  0  0  0  0 
 18 21  1  0  0  0  0 
 18 22  1  0  0  0  0 
 19 23  2  0  0  0  0 
 19 24  1  0  0  0  0 
 25 20  1  0  0  0  0 
 21 26  1  0  0  0  0 
 21 27  1  0  0  0  0 
 21 28  1  0  0  0  0 
 24 29  1  0  0  0  0 
 25 29  1  0  0  0  0 
 25 30  1  0  0  0  0 
  1 33  1  0  0  0  0 
  1 34  1  0  0  0  0 
  1 35  1  0  0  0  0 
  5 36  1  0  0  0  0 
  5 37  1  0  0  0  0 
  7 38  1  0  0  0  0 
  7 39  1  0  0  0  0 
  8 40  1  0  0  0  0 
  9 41  1  0  0  0  0 
  9 42  1  0  0  0  0 
 10 43  1  0  0  0  0 
 10 44  1  0  0  0  0 
 11 45  1  0  0  0  0 
 12 46  1  0  0  0  0 
 12 47  1  0  0  0  0 
 13 48  1  0  0  0  0 
 13 49  1  0  0  0  0 
 14 50  1  0  0  0  0 
 14 51  1  0  0  0  0 
 14 52  1  0  0  0  0 
 15 53  1  0  0  0  0 
 16 54  1  0  0  0  0 
 16 55  1  0  0  0  0 
 18 56  1  0  0  0  0 
 20 57  1  0  0  0  0 
 20 58  1  0  0  0  0 
 22 59  1  0  0  0  0 
 23 60  1  0  0  0  0 
 23 61  1  0  0  0  0 
 24 62  1  0  0  0  0 
 24 63  1  0  0  0  0 
 25 64  1  0  0  0  0 
 26 65  1  0  0  0  0 
 26 66  1  0  0  0  0 
 26 67  1  0  0  0  0 
 27 68  1  0  0  0  0 
 27 69  1  0  0  0  0 
 27 70  1  0  0  0  0 
 28 71  1  0  0  0  0 
 29 72  1  0  0  0  0 
 29 73  1  0  0  0  0 
 30 74  1  0  0  0  0 
M  END
> <cdk:Title>
secalciferol

> <Conformer>
1

> <SuperDrugID>
SD002182

$$$$
