carbetocin
  CDK     0628171802

138140  0  0  0  0  0  0  0  0999 V2000
   -4.5519    4.1970    7.1327 C   0  0  0  0  0  0  0  0  0  0  0  0
   -4.1264    2.9799    6.6777 N   0  0  0  0  0  0  0  0  0  0  0  0
   -5.8068    0.5699    5.6318 N   0  0  0  0  0  0  0  0  0  0  0  0
   -7.1064   -1.2643    7.4515 N   0  0  0  0  0  0  0  0  0  0  0  0
   -9.6220    0.2225    7.1326 N   0  0  0  0  0  0  0  0  0  0  0  0
  -11.2455    2.5319    9.2907 N   0  0  0  0  0  0  0  0  0  0  0  0
   -4.8175    5.1390    6.3483 O   0  0  0  0  0  0  0  0  0  0  0  0
   -4.8017    4.4009    8.5780 C   0  0  2  0  0  0  0  0  0  0  0  0
   -6.3238    4.5893    8.8696 C   0  0  2  0  0  0  0  0  0  0  0  0
   -6.7418    4.2816   10.3323 C   0  0  1  0  0  0  0  0  0  0  0  0
  -10.2165    2.9532   10.1986 C   0  0  1  0  0  0  0  0  0  0  0  0
    1.9949    5.1546    7.5642 C   0  0  0  0  0  0  0  0  0  0  0  0
   -9.6352    4.3290    9.7448 C   0  0  2  0  0  0  0  0  0  0  0  0
   -8.3303    5.0342   10.8140 S   0  0  0  0  0  0  0  0  0  0  0  0
  -10.7913    3.0054   11.6386 C   0  0  0  0  0  0  0  0  0  0  0  0
  -11.1548    1.7570   12.2594 N   0  0  0  0  0  0  0  0  0  0  0  0
   -9.7514    2.9928   15.1766 N   0  0  0  0  0  0  0  0  0  0  0  0
   -6.2802    2.8372   15.5271 N   0  0  0  0  0  0  0  0  0  0  0  0
   -3.9330    2.1392   13.8042 N   0  0  0  0  0  0  0  0  0  0  0  0
  -10.8723    4.1231   12.3074 O   0  0  0  0  0  0  0  0  0  0  0  0
   -9.4009    2.2276   10.2006 H   0  0  0  0  0  0  0  0  0  0  0  0
   -5.4070    1.7781    5.1333 C   0  0  0  0  0  0  0  0  0  0  0  0
    1.9015    4.6684    6.2147 O   0  0  0  0  0  0  0  0  0  0  0  0
   -1.6025    2.5625    5.2243 C   0  0  0  0  0  0  0  0  0  0  0  0
   -0.6754    2.0046    6.1370 C   0  0  0  0  0  0  0  0  0  0  0  0
    0.4878    2.7091    6.4957 C   0  0  0  0  0  0  0  0  0  0  0  0
    0.7477    3.9818    5.9454 C   0  0  0  0  0  0  0  0  0  0  0  0
   -2.8374    1.8316    4.8259 C   0  0  2  0  0  0  0  0  0  0  0  0
   -0.1788    4.5550    5.0550 C   0  0  0  0  0  0  0  0  0  0  0  0
   -1.3361    3.8463    4.6904 C   0  0  0  0  0  0  0  0  0  0  0  0
   -4.1394    2.5408    5.3096 C   0  0  2  0  0  0  0  0  0  0  0  0
   -6.3150    2.3433    4.4800 O   0  0  0  0  0  0  0  0  0  0  0  0
   -6.2030   -1.5251    6.4756 C   0  0  0  0  0  0  0  0  0  0  0  0
   -4.2632   -0.2489    7.5694 C   0  0  2  0  0  0  0  0  0  0  0  0
   -4.9880    0.5413    8.7046 C   0  0  0  0  0  0  0  0  0  0  0  0
   -5.1191   -0.5242    6.2689 C   0  0  2  0  0  0  0  0  0  0  0  0
   -2.6623   -2.2935    7.1804 C   0  0  0  0  0  0  0  0  0  0  0  0
   -3.5925   -1.5350    8.1573 C   0  0  2  0  0  0  0  0  0  0  0  0
   -6.3221   -2.5181    5.7197 O   0  0  0  0  0  0  0  0  0  0  0  0
   -9.1225   -0.5980    8.0942 C   0  0  0  0  0  0  0  0  0  0  0  0
   -8.3205   -2.9424    8.7729 C   0  0  2  0  0  0  0  0  0  0  0  0
   -9.6991   -3.5596    9.1416 C   0  0  1  0  0  0  0  0  0  0  0  0
   -9.6212   -4.4684   10.3070 C   0  0  0  0  0  0  0  0  0  0  0  0
   -8.9078   -5.6088   10.2721 N   0  0  0  0  0  0  0  0  0  0  0  0
  -10.2229   -4.1932   11.3701 O   0  0  0  0  0  0  0  0  0  0  0  0
   -8.3952   -1.8269    7.6864 C   0  0  2  0  0  0  0  0  0  0  0  0
   -9.0798   -0.2269    9.2904 O   0  0  0  0  0  0  0  0  0  0  0  0
  -11.1407    1.8914    8.0846 C   0  0  0  0  0  0  0  0  0  0  0  0
   -9.9884    2.2098    5.8481 C   0  0  2  0  0  0  0  0  0  0  0  0
  -10.0517    3.6833    5.7953 C   0  0  0  0  0  0  0  0  0  0  0  0
   -8.9442    4.4265    5.9630 N   0  0  0  0  0  0  0  0  0  0  0  0
  -11.1381    4.2651    5.5774 O   0  0  0  0  0  0  0  0  0  0  0  0
   -9.9043    1.6206    7.2908 C   0  0  2  0  0  0  0  0  0  0  0  0
  -12.2335    1.5092    7.6071 O   0  0  0  0  0  0  0  0  0  0  0  0
   -9.8043    2.0117   14.2381 C   0  0  0  0  0  0  0  0  0  0  0  0
  -11.1217    1.5921   13.6904 C   0  0  2  0  0  0  0  0  0  0  0  0
  -11.4197    0.0892   13.9299 C   0  0  2  0  0  0  0  0  0  0  0  0
  -12.2041   -0.3123   12.6768 C   0  0  2  0  0  0  0  0  0  0  0  0
  -11.5729    0.5661   11.5877 C   0  0  1  0  0  0  0  0  0  0  0  0
   -8.7549    1.5240   13.7530 O   0  0  0  0  0  0  0  0  0  0  0  0
   -7.5061    2.8304   16.1200 C   0  0  0  0  0  0  0  0  0  0  0  0
   -8.3667    6.6806   18.2269 C   0  0  0  0  0  0  0  0  0  0  0  0
   -9.0059    4.8107   16.5983 C   0  0  1  0  0  0  0  0  0  0  0  0
   -8.5781    3.7104   15.5804 C   0  0  2  0  0  0  0  0  0  0  0  0
   -7.4529    6.7550   15.8469 C   0  0  0  0  0  0  0  0  0  0  0  0
   -7.8929    5.8286   17.0169 C   0  0  1  0  0  0  0  0  0  0  0  0
   -7.7457    2.1048   17.1150 O   0  0  0  0  0  0  0  0  0  0  0  0
   -3.9721    2.3893   15.1268 C   0  0  0  0  0  0  0  0  0  0  0  0
   -5.1601    2.0530   15.9352 C   0  0  2  0  0  0  0  0  0  0  0  0
   -2.9632    2.9086   15.6567 O   0  0  0  0  0  0  0  0  0  0  0  0
   -3.8549    2.3359    7.3449 H   0  0  0  0  0  0  0  0  0  0  0  0
   -6.7473    0.3967    5.4616 H   0  0  0  0  0  0  0  0  0  0  0  0
   -6.8781   -0.5328    8.0383 H   0  0  0  0  0  0  0  0  0  0  0  0
   -9.6954   -0.1421    6.2367 H   0  0  0  0  0  0  0  0  0  0  0  0
  -12.1525    2.7116    9.5834 H   0  0  0  0  0  0  0  0  0  0  0  0
   -4.2444    5.2801    8.9160 H   0  0  0  0  0  0  0  0  0  0  0  0
   -4.4258    3.5436    9.1388 H   0  0  0  0  0  0  0  0  0  0  0  0
   -6.9034    3.9283    8.2188 H   0  0  0  0  0  0  0  0  0  0  0  0
   -6.5911    5.6209    8.6218 H   0  0  0  0  0  0  0  0  0  0  0  0
   -6.7916    3.2025   10.4886 H   0  0  0  0  0  0  0  0  0  0  0  0
   -5.9924    4.6889   11.0129 H   0  0  0  0  0  0  0  0  0  0  0  0
    2.1208    4.3320    8.2666 H   0  0  0  0  0  0  0  0  0  0  0  0
    2.8757    5.7892    7.6380 H   0  0  0  0  0  0  0  0  0  0  0  0
    1.1224    5.7448    7.8512 H   0  0  0  0  0  0  0  0  0  0  0  0
  -10.4519    5.0528    9.7231 H   0  0  0  0  0  0  0  0  0  0  0  0
   -9.2443    4.2651    8.7338 H   0  0  0  0  0  0  0  0  0  0  0  0
  -10.5983    3.2892   15.5453 H   0  0  0  0  0  0  0  0  0  0  0  0
   -6.1609    3.4226   14.7635 H   0  0  0  0  0  0  0  0  0  0  0  0
   -3.1402    2.3659   13.2901 H   0  0  0  0  0  0  0  0  0  0  0  0
   -4.6934    1.7306   13.3617 H   0  0  0  0  0  0  0  0  0  0  0  0
   -0.8387    1.0866    6.5533 H   0  0  0  0  0  0  0  0  0  0  0  0
    1.1523    2.2914    7.1511 H   0  0  0  0  0  0  0  0  0  0  0  0
   -2.7985    0.8061    5.1800 H   0  0  0  0  0  0  0  0  0  0  0  0
   -2.8544    1.7605    3.7336 H   0  0  0  0  0  0  0  0  0  0  0  0
   -0.0064    5.4848    4.6607 H   0  0  0  0  0  0  0  0  0  0  0  0
   -1.9868    4.2779    4.0334 H   0  0  0  0  0  0  0  0  0  0  0  0
   -4.2070    3.4242    4.6639 H   0  0  0  0  0  0  0  0  0  0  0  0
   -3.4301    0.3863    7.2752 H   0  0  0  0  0  0  0  0  0  0  0  0
   -4.2563    1.0852    9.3059 H   0  0  0  0  0  0  0  0  0  0  0  0
   -5.5302   -0.1241    9.3784 H   0  0  0  0  0  0  0  0  0  0  0  0
   -5.6926    1.2649    8.2942 H   0  0  0  0  0  0  0  0  0  0  0  0
   -4.4455   -0.9140    5.5034 H   0  0  0  0  0  0  0  0  0  0  0  0
   -1.9247   -1.6136    6.7491 H   0  0  0  0  0  0  0  0  0  0  0  0
   -2.1390   -3.0864    7.7165 H   0  0  0  0  0  0  0  0  0  0  0  0
   -3.2362   -2.7545    6.3751 H   0  0  0  0  0  0  0  0  0  0  0  0
   -4.3615   -2.2278    8.5062 H   0  0  0  0  0  0  0  0  0  0  0  0
   -2.9908   -1.2525    9.0268 H   0  0  0  0  0  0  0  0  0  0  0  0
   -7.6654   -3.7380    8.4050 H   0  0  0  0  0  0  0  0  0  0  0  0
   -7.8592   -2.5290    9.6748 H   0  0  0  0  0  0  0  0  0  0  0  0
  -10.4024   -2.7557    9.3707 H   0  0  0  0  0  0  0  0  0  0  0  0
  -10.0988   -4.1095    8.2862 H   0  0  0  0  0  0  0  0  0  0  0  0
   -8.4271   -5.8642    9.4682 H   0  0  0  0  0  0  0  0  0  0  0  0
   -8.8714   -6.1776   11.0591 H   0  0  0  0  0  0  0  0  0  0  0  0
   -8.8187   -2.2365    6.7625 H   0  0  0  0  0  0  0  0  0  0  0  0
   -9.1117    1.9006    5.2705 H   0  0  0  0  0  0  0  0  0  0  0  0
  -10.8618    1.7902    5.3396 H   0  0  0  0  0  0  0  0  0  0  0  0
   -8.9973    5.3931    5.9130 H   0  0  0  0  0  0  0  0  0  0  0  0
   -8.0901    3.9968    6.1320 H   0  0  0  0  0  0  0  0  0  0  0  0
   -9.0370    2.0711    7.7783 H   0  0  0  0  0  0  0  0  0  0  0  0
  -11.9300    2.1898   14.1314 H   0  0  0  0  0  0  0  0  0  0  0  0
  -12.0084   -0.0771   14.8358 H   0  0  0  0  0  0  0  0  0  0  0  0
  -10.5055   -0.5127   13.9814 H   0  0  0  0  0  0  0  0  0  0  0  0
  -13.2601   -0.0559   12.8052 H   0  0  0  0  0  0  0  0  0  0  0  0
  -12.1131   -1.3783   12.4458 H   0  0  0  0  0  0  0  0  0  0  0  0
  -12.3194    0.7676   10.8186 H   0  0  0  0  0  0  0  0  0  0  0  0
  -10.7123    0.0593   11.1585 H   0  0  0  0  0  0  0  0  0  0  0  0
   -8.5976    6.0359   19.0779 H   0  0  0  0  0  0  0  0  0  0  0  0
   -9.2611    7.2525   17.9694 H   0  0  0  0  0  0  0  0  0  0  0  0
   -7.5838    7.3762   18.5364 H   0  0  0  0  0  0  0  0  0  0  0  0
   -9.8405    5.3766   16.1712 H   0  0  0  0  0  0  0  0  0  0  0  0
   -9.3925    4.3095   17.4921 H   0  0  0  0  0  0  0  0  0  0  0  0
   -8.2220    4.2133   14.6767 H   0  0  0  0  0  0  0  0  0  0  0  0
   -7.0009    6.1761   15.0411 H   0  0  0  0  0  0  0  0  0  0  0  0
   -8.3080    7.3040   15.4465 H   0  0  0  0  0  0  0  0  0  0  0  0
   -6.7088    7.4764   16.1905 H   0  0  0  0  0  0  0  0  0  0  0  0
   -7.0110    5.2718   17.3485 H   0  0  0  0  0  0  0  0  0  0  0  0
   -5.3844    0.9910   15.8109 H   0  0  0  0  0  0  0  0  0  0  0  0
   -4.9518    2.2422   16.9919 H   0  0  0  0  0  0  0  0  0  0  0  0
  1  2  1  0  0  0  0 
 22  3  1  0  0  0  0 
 33  4  1  0  0  0  0 
 40  5  1  0  0  0  0 
 48  6  1  0  0  0  0 
  1  7  2  0  0  0  0 
  1  8  1  0  0  0  0 
  8  9  1  0  0  0  0 
  9 10  1  0  0  0  0 
  6 11  1  0  0  0  0 
 23 12  1  0  0  0  0 
 11 13  1  0  0  0  0 
 10 14  1  0  0  0  0 
 14 13  1  0  0  0  0 
 11 15  1  0  0  0  0 
 15 16  1  0  0  0  0 
 55 17  1  0  0  0  0 
 61 18  1  0  0  0  0 
 68 19  1  0  0  0  0 
 15 20  2  0  0  0  0 
 11 21  1  0  0  0  0 
 31  2  1  0  0  0  0 
 31 28  1  0  0  0  0 
 28 24  1  0  0  0  0 
 24 25  2  0  0  0  0 
 25 26  1  0  0  0  0 
 26 27  2  0  0  0  0 
 27 23  1  0  0  0  0 
 27 29  1  0  0  0  0 
 29 30  2  0  0  0  0 
 24 30  1  0  0  0  0 
 31 22  1  0  0  0  0 
 22 32  2  0  0  0  0 
 37 38  1  0  0  0  0 
 38 34  1  0  0  0  0 
 34 35  1  0  0  0  0 
 34 36  1  0  0  0  0 
 36  3  1  0  0  0  0 
 36 33  1  0  0  0  0 
 33 39  2  0  0  0  0 
 46  4  1  0  0  0  0 
 46 41  1  0  0  0  0 
 41 42  1  0  0  0  0 
 42 43  1  0  0  0  0 
 43 44  1  0  0  0  0 
 43 45  2  0  0  0  0 
 46 40  1  0  0  0  0 
 40 47  2  0  0  0  0 
 53  5  1  0  0  0  0 
 53 49  1  0  0  0  0 
 49 50  1  0  0  0  0 
 50 51  1  0  0  0  0 
 50 52  2  0  0  0  0 
 53 48  1  0  0  0  0 
 48 54  2  0  0  0  0 
 60 55  2  0  0  0  0 
 56 55  1  0  0  0  0 
 56 57  1  0  0  0  0 
 57 58  1  0  0  0  0 
 58 59  1  0  0  0  0 
 59 16  1  0  0  0  0 
 56 16  1  0  0  0  0 
 65 66  1  0  0  0  0 
 66 62  1  0  0  0  0 
 66 63  1  0  0  0  0 
 63 64  1  0  0  0  0 
 64 17  1  0  0  0  0 
 64 61  1  0  0  0  0 
 61 67  2  0  0  0  0 
 18 69  1  0  0  0  0 
 69 68  1  0  0  0  0 
 68 70  2  0  0  0  0 
  2 71  1  0  0  0  0 
  3 72  1  0  0  0  0 
  4 73  1  0  0  0  0 
  5 74  1  0  0  0  0 
  6 75  1  0  0  0  0 
  8 76  1  0  0  0  0 
  8 77  1  0  0  0  0 
  9 78  1  0  0  0  0 
  9 79  1  0  0  0  0 
 10 80  1  0  0  0  0 
 10 81  1  0  0  0  0 
 12 82  1  0  0  0  0 
 12 83  1  0  0  0  0 
 12 84  1  0  0  0  0 
 13 85  1  0  0  0  0 
 13 86  1  0  0  0  0 
 17 87  1  0  0  0  0 
 18 88  1  0  0  0  0 
 19 89  1  0  0  0  0 
 19 90  1  0  0  0  0 
 25 91  1  0  0  0  0 
 26 92  1  0  0  0  0 
 28 93  1  0  0  0  0 
 28 94  1  0  0  0  0 
 29 95  1  0  0  0  0 
 30 96  1  0  0  0  0 
 31 97  1  0  0  0  0 
 34 98  1  0  0  0  0 
 35 99  1  0  0  0  0 
 35100  1  0  0  0  0 
 35101  1  0  0  0  0 
 36102  1  0  0  0  0 
 37103  1  0  0  0  0 
 37104  1  0  0  0  0 
 37105  1  0  0  0  0 
 38106  1  0  0  0  0 
 38107  1  0  0  0  0 
 41108  1  0  0  0  0 
 41109  1  0  0  0  0 
 42110  1  0  0  0  0 
 42111  1  0  0  0  0 
 44112  1  0  0  0  0 
 44113  1  0  0  0  0 
 46114  1  0  0  0  0 
 49115  1  0  0  0  0 
 49116  1  0  0  0  0 
 51117  1  0  0  0  0 
 51118  1  0  0  0  0 
 53119  1  0  0  0  0 
 56120  1  0  0  0  0 
 57121  1  0  0  0  0 
 57122  1  0  0  0  0 
 58123  1  0  0  0  0 
 58124  1  0  0  0  0 
 59125  1  0  0  0  0 
 59126  1  0  0  0  0 
 62127  1  0  0  0  0 
 62128  1  0  0  0  0 
 62129  1  0  0  0  0 
 63130  1  0  0  0  0 
 63131  1  0  0  0  0 
 64132  1  0  0  0  0 
 65133  1  0  0  0  0 
 65134  1  0  0  0  0 
 65135  1  0  0  0  0 
 66136  1  0  0  0  0 
 69137  1  0  0  0  0 
 69138  1  0  0  0  0 
M  END
> <cdk:Title>
carbetocin

> <Conformer>
1

> <SuperDrugID>
SD000428

$$$$
