epicriptine
  CDK     0628171801

 85 91  0  0  0  0  0  0  0  0999 V2000
   -0.3036    3.2519    1.8444 O   0  0  0  0  0  0  0  0  0  0  0  0
   -0.3883    4.4192    1.0268 C   0  0  2  0  0  0  0  0  0  0  0  0
   -0.9475    4.0779   -0.2338 N   0  0  0  0  0  0  0  0  0  0  0  0
    0.0420    4.0840   -1.1555 C   0  0  0  0  0  0  0  0  0  0  0  0
    1.3419    4.4740   -0.5641 C   0  0  1  0  0  0  0  0  0  0  0  0
    0.9347    4.9105    0.7484 O   0  0  0  0  0  0  0  0  0  0  0  0
    2.2572    3.3971   -0.2518 N   0  0  0  0  0  0  0  0  0  0  0  0
    2.7703    2.4175   -1.0617 C   0  0  0  0  0  0  0  0  0  0  0  0
    2.3104    2.2757   -2.2188 O   0  0  0  0  0  0  0  0  0  0  0  0
    3.8708    1.5243   -0.5605 C   0  0  2  0  0  0  0  0  0  0  0  0
    5.0343    2.3950    0.0799 C   0  0  1  0  0  0  0  0  0  0  0  0
    6.1925    1.4640    0.5537 C   0  0  2  0  0  0  0  0  0  0  0  0
    7.3092    2.1897    1.2642 C   0  0  0  0  0  0  0  0  0  0  0  0
    8.5235    1.5000    1.3851 C   0  0  0  0  0  0  0  0  0  0  0  0
    8.8365    0.2938    0.8020 C   0  0  0  0  0  0  0  0  0  0  0  0
    7.9061   -0.3941   -0.1174 C   0  0  2  0  0  0  0  0  0  0  0  0
    6.7245    0.5353   -0.6229 C   0  0  1  0  0  0  0  0  0  0  0  0
    5.6200   -0.2650   -1.2939 N   0  0  1  0  0  0  0  0  0  0  0  0
    4.4035    0.5133   -1.7175 C   0  0  2  0  0  0  0  0  0  0  0  0
    6.0840   -1.1133   -2.4435 C   0  0  0  0  0  0  0  0  0  0  0  0
   10.1190   -0.0194    1.2592 C   0  0  0  0  0  0  0  0  0  0  0  0
   10.5622    0.9882    2.0439 N   0  0  0  0  0  0  0  0  0  0  0  0
    9.6141    1.9379    2.1197 C   0  0  0  0  0  0  0  0  0  0  0  0
    9.5650    3.1813    2.7649 C   0  0  0  0  0  0  0  0  0  0  0  0
    8.3893    3.9523    2.6269 C   0  0  0  0  0  0  0  0  0  0  0  0
    7.2767    3.4633    1.8963 C   0  0  0  0  0  0  0  0  0  0  0  0
    2.0559    5.7014   -1.2569 C   0  0  1  0  0  0  0  0  0  0  0  0
    2.7674    5.3673   -2.6019 C   0  0  0  0  0  0  0  0  0  0  0  0
    1.1270    6.9380   -1.4630 C   0  0  0  0  0  0  0  0  0  0  0  0
   -0.1259    3.8191   -2.3685 O   0  0  0  0  0  0  0  0  0  0  0  0
   -2.3670    3.8105   -0.4364 C   0  0  1  0  0  0  0  0  0  0  0  0
   -2.7139    2.2844   -0.2104 C   0  0  1  0  0  0  0  0  0  0  0  0
   -4.2292    1.8878   -0.3360 C   0  0  2  0  0  0  0  0  0  0  0  0
   -4.9022    2.1421   -1.7084 C   0  0  0  0  0  0  0  0  0  0  0  0
   -1.8531    1.3361   -1.0998 C   0  0  0  0  0  0  0  0  0  0  0  0
   -3.1884    4.7171    0.4350 C   0  0  0  0  0  0  0  0  0  0  0  0
   -2.6420    5.4156    1.4860 N   0  0  0  0  0  0  0  0  0  0  0  0
   -1.2341    5.5550    1.6689 C   0  0  1  0  0  0  0  0  0  0  0  0
   -1.0997    5.7611    3.1910 C   0  0  1  0  0  0  0  0  0  0  0  0
   -2.3544    6.5919    3.5180 C   0  0  2  0  0  0  0  0  0  0  0  0
   -3.4005    6.0922    2.4978 C   0  0  1  0  0  0  0  0  0  0  0  0
   -4.4143    4.8448    0.1985 O   0  0  0  0  0  0  0  0  0  0  0  0
    0.2072    2.6094    1.3073 H   0  0  0  0  0  0  0  0  0  0  0  0
    2.5945    3.4007    0.6587 H   0  0  0  0  0  0  0  0  0  0  0  0
    3.3945    1.0064    0.3183 H   0  0  0  0  0  0  0  0  0  0  0  0
    5.4218    3.0951   -0.6688 H   0  0  0  0  0  0  0  0  0  0  0  0
    4.6360    2.9612    0.9270 H   0  0  0  0  0  0  0  0  0  0  0  0
    5.7703    0.7891    1.3081 H   0  0  0  0  0  0  0  0  0  0  0  0
    7.5008   -1.2708    0.3936 H   0  0  0  0  0  0  0  0  0  0  0  0
    8.4980   -0.7271   -0.9740 H   0  0  0  0  0  0  0  0  0  0  0  0
    7.1529    1.2027   -1.3787 H   0  0  0  0  0  0  0  0  0  0  0  0
    4.6367    1.0944   -2.6155 H   0  0  0  0  0  0  0  0  0  0  0  0
    3.5920   -0.1790   -1.9627 H   0  0  0  0  0  0  0  0  0  0  0  0
    6.8329   -1.8416   -2.1367 H   0  0  0  0  0  0  0  0  0  0  0  0
    5.2570   -1.6921   -2.8660 H   0  0  0  0  0  0  0  0  0  0  0  0
    6.5101   -0.4935   -3.2375 H   0  0  0  0  0  0  0  0  0  0  0  0
   10.6441   -0.8647    1.0289 H   0  0  0  0  0  0  0  0  0  0  0  0
   11.4286    1.0249    2.4789 H   0  0  0  0  0  0  0  0  0  0  0  0
   10.3613    3.5169    3.3081 H   0  0  0  0  0  0  0  0  0  0  0  0
    8.3405    4.8717    3.0676 H   0  0  0  0  0  0  0  0  0  0  0  0
    6.4451    4.0473    1.8441 H   0  0  0  0  0  0  0  0  0  0  0  0
    2.8486    6.0282   -0.5744 H   0  0  0  0  0  0  0  0  0  0  0  0
    3.5341    4.6057   -2.4599 H   0  0  0  0  0  0  0  0  0  0  0  0
    3.2709    6.2536   -2.9989 H   0  0  0  0  0  0  0  0  0  0  0  0
    2.0494    5.0187   -3.3470 H   0  0  0  0  0  0  0  0  0  0  0  0
    0.6404    7.2202   -0.5291 H   0  0  0  0  0  0  0  0  0  0  0  0
    1.7098    7.7971   -1.8066 H   0  0  0  0  0  0  0  0  0  0  0  0
    0.3596    6.7220   -2.2100 H   0  0  0  0  0  0  0  0  0  0  0  0
   -2.6104    4.0724   -1.4686 H   0  0  0  0  0  0  0  0  0  0  0  0
   -2.4457    2.0549    0.8264 H   0  0  0  0  0  0  0  0  0  0  0  0
   -4.8061    2.4002    0.4366 H   0  0  0  0  0  0  0  0  0  0  0  0
   -4.3358    0.8224   -0.1130 H   0  0  0  0  0  0  0  0  0  0  0  0
   -4.4760    1.4902   -2.4725 H   0  0  0  0  0  0  0  0  0  0  0  0
   -5.9713    1.9275   -1.6367 H   0  0  0  0  0  0  0  0  0  0  0  0
   -4.7844    3.1795   -2.0213 H   0  0  0  0  0  0  0  0  0  0  0  0
   -0.7934    1.4242   -0.8595 H   0  0  0  0  0  0  0  0  0  0  0  0
   -1.9915    1.5690   -2.1568 H   0  0  0  0  0  0  0  0  0  0  0  0
   -2.1328    0.2941   -0.9350 H   0  0  0  0  0  0  0  0  0  0  0  0
   -0.9595    6.4938    1.1751 H   0  0  0  0  0  0  0  0  0  0  0  0
   -1.1349    4.8055    3.7249 H   0  0  0  0  0  0  0  0  0  0  0  0
   -0.1821    6.2926    3.4524 H   0  0  0  0  0  0  0  0  0  0  0  0
   -2.1540    7.6564    3.3588 H   0  0  0  0  0  0  0  0  0  0  0  0
   -2.6791    6.4401    4.5510 H   0  0  0  0  0  0  0  0  0  0  0  0
   -3.9678    6.9287    2.0779 H   0  0  0  0  0  0  0  0  0  0  0  0
   -4.0885    5.3923    2.9816 H   0  0  0  0  0  0  0  0  0  0  0  0
  2  1  1  0  0  0  0 
  2  3  1  0  0  0  0 
  2  6  1  0  0  0  0 
  2 38  1  0  0  0  0 
  3  4  1  0  0  0  0 
 31  3  1  0  0  0  0 
  5  4  1  0  0  0  0 
  4 30  2  0  0  0  0 
  5  7  1  0  0  0  0 
  5 27  1  0  0  0  0 
  5  6  1  0  0  0  0 
  7  8  1  0  0  0  0 
  8  9  2  0  0  0  0 
 10  8  1  0  0  0  0 
 10 11  1  0  0  0  0 
 10 19  1  0  0  0  0 
 12 11  1  0  0  0  0 
 12 13  1  0  0  0  0 
 12 17  1  0  0  0  0 
 13 14  2  0  0  0  0 
 13 26  1  0  0  0  0 
 14 15  1  0  0  0  0 
 14 23  1  0  0  0  0 
 15 21  2  0  0  0  0 
 16 15  1  0  0  0  0 
 17 16  1  0  0  0  0 
 17 18  1  0  0  0  0 
 18 20  1  0  0  0  0 
 19 18  1  0  0  0  0 
 21 22  1  0  0  0  0 
 23 22  1  0  0  0  0 
 23 24  2  0  0  0  0 
 25 24  1  0  0  0  0 
 26 25  2  0  0  0  0 
 27 28  1  0  0  0  0 
 27 29  1  0  0  0  0 
 31 32  1  0  0  0  0 
 31 36  1  0  0  0  0 
 32 33  1  0  0  0  0 
 32 35  1  0  0  0  0 
 33 34  1  0  0  0  0 
 36 42  2  0  0  0  0 
 37 36  1  0  0  0  0 
 37 41  1  0  0  0  0 
 38 37  1  0  0  0  0 
 38 39  1  0  0  0  0 
 39 40  1  0  0  0  0 
 41 40  1  0  0  0  0 
 43  1  1  0  0  0  0 
 44  7  1  0  0  0  0 
 10 45  1  0  0  0  0 
 46 11  1  0  0  0  0 
 47 11  1  0  0  0  0 
 12 48  1  0  0  0  0 
 49 16  1  0  0  0  0 
 50 16  1  0  0  0  0 
 17 51  1  0  0  0  0 
 52 19  1  0  0  0  0 
 53 19  1  0  0  0  0 
 54 20  1  0  0  0  0 
 55 20  1  0  0  0  0 
 56 20  1  0  0  0  0 
 57 21  1  0  0  0  0 
 58 22  1  0  0  0  0 
 59 24  1  0  0  0  0 
 60 25  1  0  0  0  0 
 61 26  1  0  0  0  0 
 62 27  1  0  0  0  0 
 63 28  1  0  0  0  0 
 64 28  1  0  0  0  0 
 65 28  1  0  0  0  0 
 66 29  1  0  0  0  0 
 67 29  1  0  0  0  0 
 68 29  1  0  0  0  0 
 31 69  1  0  0  0  0 
 32 70  1  0  0  0  0 
 71 33  1  0  0  0  0 
 72 33  1  0  0  0  0 
 73 34  1  0  0  0  0 
 74 34  1  0  0  0  0 
 75 34  1  0  0  0  0 
 76 35  1  0  0  0  0 
 77 35  1  0  0  0  0 
 78 35  1  0  0  0  0 
 38 79  1  0  0  0  0 
 80 39  1  0  0  0  0 
 81 39  1  0  0  0  0 
 82 40  1  0  0  0  0 
 83 40  1  0  0  0  0 
 84 41  1  0  0  0  0 
 85 41  1  0  0  0  0 
M  END
> <cdk:Title>
epicriptine

> <Conformer>
1

> <SuperDrugID>
SD003383

$$$$
