acefylline
  CDK     0628171802

 27 28  0  0  0  0  0  0  0  0999 V2000
    0.1915   -3.4466   -5.3719 C   0  0  2  0  0  0  0  0  0  0  0  0
    0.1132   -4.8935   -5.1030 C   0  0  0  0  0  0  0  0  0  0  0  0
    0.1835   -2.6677   -4.1643 N   0  0  0  0  0  0  0  0  0  0  0  0
    1.0466   -5.7399   -5.5946 O   0  0  0  0  0  0  0  0  0  0  0  0
   -0.8384   -5.3710   -4.4442 O   0  0  0  0  0  0  0  0  0  0  0  0
    1.2105   -2.3565   -3.3431 C   0  0  0  0  0  0  0  0  0  0  0  0
   -0.9048   -2.0648   -3.6412 C   0  0  0  0  0  0  0  0  0  0  0  0
    0.7211   -1.5344   -2.3346 C   0  0  0  0  0  0  0  0  0  0  0  0
    2.5794   -2.6729   -3.3427 C   0  0  0  0  0  0  0  0  0  0  0  0
   -0.5968   -1.3742   -2.5321 N   0  0  0  0  0  0  0  0  0  0  0  0
    1.5211   -1.0054   -1.3650 N   0  0  0  0  0  0  0  0  0  0  0  0
    3.0141   -3.4289   -4.2442 O   0  0  0  0  0  0  0  0  0  0  0  0
    3.3988   -2.1405   -2.3716 N   0  0  0  0  0  0  0  0  0  0  0  0
    0.9567   -0.1385   -0.3542 C   0  0  0  0  0  0  0  0  0  0  0  0
    2.8665   -1.2970   -1.4127 C   0  0  0  0  0  0  0  0  0  0  0  0
    4.8190   -2.4403   -2.3772 C   0  0  0  0  0  0  0  0  0  0  0  0
    3.6259   -0.7735   -0.5588 O   0  0  0  0  0  0  0  0  0  0  0  0
   -0.6623   -3.1836   -6.0010 H   0  0  0  0  0  0  0  0  0  0  0  0
    1.0833   -3.2141   -5.9579 H   0  0  0  0  0  0  0  0  0  0  0  0
    0.9645   -6.7043   -5.4332 H   0  0  0  0  0  0  0  0  0  0  0  0
   -1.8488   -2.1119   -4.0305 H   0  0  0  0  0  0  0  0  0  0  0  0
    1.0505    0.8993   -0.6785 H   0  0  0  0  0  0  0  0  0  0  0  0
   -0.0985   -0.3481   -0.1661 H   0  0  0  0  0  0  0  0  0  0  0  0
    1.4681   -0.2502    0.6041 H   0  0  0  0  0  0  0  0  0  0  0  0
    5.0420   -3.4182   -2.8092 H   0  0  0  0  0  0  0  0  0  0  0  0
    5.2397   -2.4560   -1.3699 H   0  0  0  0  0  0  0  0  0  0  0  0
    5.3430   -1.6789   -2.9571 H   0  0  0  0  0  0  0  0  0  0  0  0
  1  2  1  0  0  0  0 
  1  3  1  0  0  0  0 
  2  4  1  0  0  0  0 
  2  5  2  0  0  0  0 
  3  6  1  0  0  0  0 
  3  7  1  0  0  0  0 
  6  8  2  0  0  0  0 
  6  9  1  0  0  0  0 
  7 10  2  0  0  0  0 
  8 10  1  0  0  0  0 
  8 11  1  0  0  0  0 
  9 12  2  0  0  0  0 
  9 13  1  0  0  0  0 
 11 14  1  0  0  0  0 
 11 15  1  0  0  0  0 
 13 15  1  0  0  0  0 
 13 16  1  0  0  0  0 
 15 17  2  0  0  0  0 
  1 18  1  0  0  0  0 
  1 19  1  0  0  0  0 
  4 20  1  0  0  0  0 
  7 21  1  0  0  0  0 
 14 22  1  0  0  0  0 
 14 23  1  0  0  0  0 
 14 24  1  0  0  0  0 
 16 25  1  0  0  0  0 
 16 26  1  0  0  0  0 
 16 27  1  0  0  0  0 
M  END
> <cdk:Title>
acefylline

> <Conformer>
1

> <SuperDrugID>
SD000026

$$$$
