cortivazol
  CDK     0628171802

 77 82  0  0  0  0  0  0  0  0999 V2000
    2.0832    4.2448    8.7424 C   0  0  0  0  0  0  0  0  0  0  0  0
    2.4991    5.7001    8.2916 C   0  0  2  0  0  0  0  0  0  0  0  0
    2.8507    5.8351    6.7706 C   0  0  2  0  0  0  0  0  0  0  0  0
    3.8981    6.0787    8.9415 C   0  0  2  0  0  0  0  0  0  0  0  0
    1.2904    6.6837    8.5380 C   0  0  2  0  0  0  0  0  0  0  0  0
    1.6845    5.4341    5.8013 C   0  0  1  0  0  0  0  0  0  0  0  0
    4.2100    5.1262    6.6242 C   0  0  1  0  0  0  0  0  0  0  0  0
    4.0826    5.6558   10.3771 C   0  0  0  0  0  0  0  0  0  0  0  0
    4.0504    7.5080    8.9128 O   0  0  0  0  0  0  0  0  0  0  0  0
    4.9568    5.4316    7.9524 C   0  0  1  0  0  0  0  0  0  0  0  0
    0.0592    6.4516    7.5914 C   0  0  1  0  0  0  0  0  0  0  0  0
    0.4468    6.3618    6.0633 C   0  0  2  0  0  0  0  0  0  0  0  0
    2.0683    5.4843    4.3923 C   0  0  0  0  0  0  0  0  0  0  0  0
    3.5063    6.3938   11.5323 C   0  0  2  0  0  0  0  0  0  0  0  0
    4.7221    4.6093   10.6458 O   0  0  0  0  0  0  0  0  0  0  0  0
    6.2575    6.2546    7.7243 C   0  0  0  0  0  0  0  0  0  0  0  0
   -0.6942    5.3386    8.0609 O   0  0  0  0  0  0  0  0  0  0  0  0
   -0.6884    6.0830    4.9831 C   0  0  2  0  0  0  0  0  0  0  0  0
    1.2586    5.8485    3.3696 C   0  0  0  0  0  0  0  0  0  0  0  0
    3.8273    5.8108   12.8074 O   0  0  0  0  0  0  0  0  0  0  0  0
   -1.2817    4.6234    5.0573 C   0  0  0  0  0  0  0  0  0  0  0  0
   -0.0855    6.1984    3.5974 C   0  0  0  0  0  0  0  0  0  0  0  0
   -1.8868    7.0986    5.2096 C   0  0  2  0  0  0  0  0  0  0  0  0
    1.8614    5.8645    2.0193 C   0  0  0  0  0  0  0  0  0  0  0  0
    5.0567    5.7166   13.3951 C   0  0  0  0  0  0  0  0  0  0  0  0
   -0.8919    6.5853    2.5675 C   0  0  0  0  0  0  0  0  0  0  0  0
   -2.7087    7.2375    3.9953 C   0  0  0  0  0  0  0  0  0  0  0  0
    5.1756    4.9770   14.6600 C   0  0  0  0  0  0  0  0  0  0  0  0
    6.0698    6.2337   12.8653 O   0  0  0  0  0  0  0  0  0  0  0  0
   -2.2035    6.9892    2.7329 C   0  0  0  0  0  0  0  0  0  0  0  0
   -4.0273    7.6127    3.8102 C   0  0  0  0  0  0  0  0  0  0  0  0
   -3.2038    7.2117    1.8422 N   0  0  0  0  0  0  0  0  0  0  0  0
   -4.2771    7.5713    2.4904 N   0  0  0  0  0  0  0  0  0  0  0  0
   -3.1830    7.0808    0.4766 C   0  0  0  0  0  0  0  0  0  0  0  0
   -2.1691    7.6771   -0.3100 C   0  0  0  0  0  0  0  0  0  0  0  0
   -4.2060    6.3565   -0.1809 C   0  0  0  0  0  0  0  0  0  0  0  0
   -2.1669    7.5389   -1.7112 C   0  0  0  0  0  0  0  0  0  0  0  0
   -4.2151    6.2313   -1.5838 C   0  0  0  0  0  0  0  0  0  0  0  0
   -3.1946    6.8226   -2.3487 C   0  0  0  0  0  0  0  0  0  0  0  0
    1.2607    3.8400    8.1611 H   0  0  0  0  0  0  0  0  0  0  0  0
    2.9099    3.5392    8.6538 H   0  0  0  0  0  0  0  0  0  0  0  0
    1.7629    4.2484    9.7870 H   0  0  0  0  0  0  0  0  0  0  0  0
    3.0656    6.8913    6.5510 H   0  0  0  0  0  0  0  0  0  0  0  0
    1.6167    7.7159    8.3839 H   0  0  0  0  0  0  0  0  0  0  0  0
    0.9573    6.6207    9.5764 H   0  0  0  0  0  0  0  0  0  0  0  0
    1.4209    4.3960    5.9978 H   0  0  0  0  0  0  0  0  0  0  0  0
    4.0619    4.0500    6.4963 H   0  0  0  0  0  0  0  0  0  0  0  0
    4.7520    5.4951    5.7487 H   0  0  0  0  0  0  0  0  0  0  0  0
    4.9395    7.6942    9.2820 H   0  0  0  0  0  0  0  0  0  0  0  0
    5.2941    4.4619    8.3312 H   0  0  0  0  0  0  0  0  0  0  0  0
   -0.5981    7.3155    7.7242 H   0  0  0  0  0  0  0  0  0  0  0  0
    0.7997    7.3785    5.8397 H   0  0  0  0  0  0  0  0  0  0  0  0
    2.9990    5.2093    4.1840 H   0  0  0  0  0  0  0  0  0  0  0  0
    2.4210    6.3759   11.4495 H   0  0  0  0  0  0  0  0  0  0  0  0
    3.8328    7.4354   11.5233 H   0  0  0  0  0  0  0  0  0  0  0  0
    6.9495    5.6945    7.0929 H   0  0  0  0  0  0  0  0  0  0  0  0
    6.7526    6.4593    8.6742 H   0  0  0  0  0  0  0  0  0  0  0  0
    6.0398    7.2031    7.2302 H   0  0  0  0  0  0  0  0  0  0  0  0
   -1.5764    5.4353    7.6472 H   0  0  0  0  0  0  0  0  0  0  0  0
   -0.5216    3.8582    4.9046 H   0  0  0  0  0  0  0  0  0  0  0  0
   -2.0394    4.4697    4.2874 H   0  0  0  0  0  0  0  0  0  0  0  0
   -1.7679    4.4182    6.0068 H   0  0  0  0  0  0  0  0  0  0  0  0
   -1.5097    8.0955    5.4446 H   0  0  0  0  0  0  0  0  0  0  0  0
   -2.5254    6.7821    6.0382 H   0  0  0  0  0  0  0  0  0  0  0  0
    1.8423    6.8812    1.6205 H   0  0  0  0  0  0  0  0  0  0  0  0
    1.3004    5.2096    1.3501 H   0  0  0  0  0  0  0  0  0  0  0  0
    2.9017    5.5295    1.9814 H   0  0  0  0  0  0  0  0  0  0  0  0
   -0.5595    6.5970    1.6394 H   0  0  0  0  0  0  0  0  0  0  0  0
    6.2156    4.9280   14.9908 H   0  0  0  0  0  0  0  0  0  0  0  0
    4.8041    3.9583   14.5278 H   0  0  0  0  0  0  0  0  0  0  0  0
    4.5805    5.4666   15.4317 H   0  0  0  0  0  0  0  0  0  0  0  0
   -4.6958    7.8702    4.5390 H   0  0  0  0  0  0  0  0  0  0  0  0
   -1.4288    8.2254    0.1310 H   0  0  0  0  0  0  0  0  0  0  0  0
   -4.9495    5.9084    0.3603 H   0  0  0  0  0  0  0  0  0  0  0  0
   -1.4208    7.9653   -2.2660 H   0  0  0  0  0  0  0  0  0  0  0  0
   -4.9624    5.7113   -2.0487 H   0  0  0  0  0  0  0  0  0  0  0  0
   -3.2010    6.7322   -3.3679 H   0  0  0  0  0  0  0  0  0  0  0  0
  2  1  1  0  0  0  0 
  3  2  1  0  0  0  0 
  2  4  1  0  0  0  0 
  2  5  1  0  0  0  0 
  6  3  1  0  0  0  0 
  3  7  1  0  0  0  0 
  4  8  1  0  0  0  0 
  4  9  1  0  0  0  0 
  4 10  1  0  0  0  0 
 11  5  1  0  0  0  0 
 12  6  1  0  0  0  0 
  6 13  1  0  0  0  0 
 10  7  1  0  0  0  0 
  8 14  1  0  0  0  0 
  8 15  2  0  0  0  0 
 10 16  1  0  0  0  0 
 12 11  1  0  0  0  0 
 11 17  1  0  0  0  0 
 12 18  1  0  0  0  0 
 13 19  2  0  0  0  0 
 14 20  1  0  0  0  0 
 18 21  1  0  0  0  0 
 18 22  1  0  0  0  0 
 18 23  1  0  0  0  0 
 19 22  1  0  0  0  0 
 19 24  1  0  0  0  0 
 20 25  1  0  0  0  0 
 22 26  2  0  0  0  0 
 23 27  1  0  0  0  0 
 25 28  1  0  0  0  0 
 25 29  2  0  0  0  0 
 26 30  1  0  0  0  0 
 27 30  2  0  0  0  0 
 27 31  1  0  0  0  0 
 30 32  1  0  0  0  0 
 31 33  2  0  0  0  0 
 32 33  1  0  0  0  0 
 32 34  1  0  0  0  0 
 34 35  2  0  0  0  0 
 34 36  1  0  0  0  0 
 35 37  1  0  0  0  0 
 36 38  2  0  0  0  0 
 37 39  2  0  0  0  0 
 38 39  1  0  0  0  0 
 40  1  1  0  0  0  0 
 41  1  1  0  0  0  0 
 42  1  1  0  0  0  0 
  3 43  1  0  0  0  0 
 44  5  1  0  0  0  0 
 45  5  1  0  0  0  0 
  6 46  1  0  0  0  0 
 47  7  1  0  0  0  0 
 48  7  1  0  0  0  0 
 49  9  1  0  0  0  0 
 10 50  1  0  0  0  0 
 11 51  1  0  0  0  0 
 12 52  1  0  0  0  0 
 53 13  1  0  0  0  0 
 54 14  1  0  0  0  0 
 55 14  1  0  0  0  0 
 56 16  1  0  0  0  0 
 57 16  1  0  0  0  0 
 58 16  1  0  0  0  0 
 59 17  1  0  0  0  0 
 60 21  1  0  0  0  0 
 61 21  1  0  0  0  0 
 62 21  1  0  0  0  0 
 63 23  1  0  0  0  0 
 64 23  1  0  0  0  0 
 65 24  1  0  0  0  0 
 66 24  1  0  0  0  0 
 67 24  1  0  0  0  0 
 68 26  1  0  0  0  0 
 69 28  1  0  0  0  0 
 70 28  1  0  0  0  0 
 71 28  1  0  0  0  0 
 72 31  1  0  0  0  0 
 73 35  1  0  0  0  0 
 74 36  1  0  0  0  0 
 75 37  1  0  0  0  0 
 76 38  1  0  0  0  0 
 77 39  1  0  0  0  0 
M  END
> <cdk:Title>
cortivazol

> <Conformer>
1

> <SuperDrugID>
SD000647

$$$$
