amphotalide
  CDK     0628171801

 44 46  0  0  0  0  0  0  0  0999 V2000
    9.8535    1.3877   12.1421 O   0  0  0  0  0  0  0  0  0  0  0  0
   10.7588    2.1931   11.8267 C   0  0  0  0  0  0  0  0  0  0  0  0
   11.7683    2.6209   12.6845 C   0  0  0  0  0  0  0  0  0  0  0  0
   10.9469    2.7735   10.6040 N   0  0  0  0  0  0  0  0  0  0  0  0
   12.5806    3.4861   11.9610 C   0  0  0  0  0  0  0  0  0  0  0  0
   12.0518    2.3088   14.0268 C   0  0  0  0  0  0  0  0  0  0  0  0
   10.1650    2.5324    9.4160 C   0  0  1  0  0  0  0  0  0  0  0  0
   12.0457    3.5824   10.6811 C   0  0  0  0  0  0  0  0  0  0  0  0
   13.7214    4.0686   12.5428 C   0  0  0  0  0  0  0  0  0  0  0  0
   13.1969    2.8794   14.6229 C   0  0  0  0  0  0  0  0  0  0  0  0
    8.6648    2.9143    9.5422 C   0  0  1  0  0  0  0  0  0  0  0  0
   12.5297    4.2859    9.7642 O   0  0  0  0  0  0  0  0  0  0  0  0
   14.0286    3.7523   13.8839 C   0  0  0  0  0  0  0  0  0  0  0  0
    7.9336    2.9043    8.1691 C   0  0  1  0  0  0  0  0  0  0  0  0
    6.4022    3.1116    8.2959 C   0  0  1  0  0  0  0  0  0  0  0  0
    5.6559    3.0279    6.9401 C   0  0  1  0  0  0  0  0  0  0  0  0
    4.2594    3.3153    7.1599 O   0  0  0  0  0  0  0  0  0  0  0  0
    3.4828    3.1761    6.0384 C   0  0  0  0  0  0  0  0  0  0  0  0
    2.7894    1.9693    5.8151 C   0  0  0  0  0  0  0  0  0  0  0  0
    3.3377    4.2370    5.1202 C   0  0  0  0  0  0  0  0  0  0  0  0
    1.9645    1.8193    4.6842 C   0  0  0  0  0  0  0  0  0  0  0  0
    2.5169    4.0877    3.9853 C   0  0  0  0  0  0  0  0  0  0  0  0
    1.8228    2.8799    3.7657 C   0  0  0  0  0  0  0  0  0  0  0  0
    1.0287    2.7433    2.6824 N   0  0  0  0  0  0  0  0  0  0  0  0
   11.4484    1.6785   14.5569 H   0  0  0  0  0  0  0  0  0  0  0  0
   10.5923    3.0817    8.5711 H   0  0  0  0  0  0  0  0  0  0  0  0
   10.2390    1.4693    9.1755 H   0  0  0  0  0  0  0  0  0  0  0  0
   14.3195    4.7003   12.0090 H   0  0  0  0  0  0  0  0  0  0  0  0
   13.4274    2.6552   15.5946 H   0  0  0  0  0  0  0  0  0  0  0  0
    8.1759    2.2062   10.2168 H   0  0  0  0  0  0  0  0  0  0  0  0
    8.5879    3.9117    9.9828 H   0  0  0  0  0  0  0  0  0  0  0  0
   14.8603    4.1535   14.3244 H   0  0  0  0  0  0  0  0  0  0  0  0
    8.3482    3.7007    7.5458 H   0  0  0  0  0  0  0  0  0  0  0  0
    8.1197    1.9515    7.6659 H   0  0  0  0  0  0  0  0  0  0  0  0
    5.9943    2.3405    8.9549 H   0  0  0  0  0  0  0  0  0  0  0  0
    6.2113    4.0864    8.7528 H   0  0  0  0  0  0  0  0  0  0  0  0
    6.0761    3.7517    6.2333 H   0  0  0  0  0  0  0  0  0  0  0  0
    5.7802    2.0191    6.5321 H   0  0  0  0  0  0  0  0  0  0  0  0
    2.8814    1.1990    6.4800 H   0  0  0  0  0  0  0  0  0  0  0  0
    3.8273    5.1201    5.2818 H   0  0  0  0  0  0  0  0  0  0  0  0
    1.4663    0.9373    4.5392 H   0  0  0  0  0  0  0  0  0  0  0  0
    2.4281    4.8624    3.3228 H   0  0  0  0  0  0  0  0  0  0  0  0
    0.9164    3.4808    2.0631 H   0  0  0  0  0  0  0  0  0  0  0  0
    0.5650    1.9088    2.5124 H   0  0  0  0  0  0  0  0  0  0  0  0
  1  2  2  0  0  0  0 
  2  3  1  0  0  0  0 
  2  4  1  0  0  0  0 
  3  5  2  0  0  0  0 
  3  6  1  0  0  0  0 
  4  7  1  0  0  0  0 
  4  8  1  0  0  0  0 
  5  8  1  0  0  0  0 
  5  9  1  0  0  0  0 
  6 10  2  0  0  0  0 
  7 11  1  0  0  0  0 
  8 12  2  0  0  0  0 
  9 13  2  0  0  0  0 
 10 13  1  0  0  0  0 
 11 14  1  0  0  0  0 
 14 15  1  0  0  0  0 
 15 16  1  0  0  0  0 
 16 17  1  0  0  0  0 
 17 18  1  0  0  0  0 
 18 19  2  0  0  0  0 
 18 20  1  0  0  0  0 
 19 21  1  0  0  0  0 
 20 22  2  0  0  0  0 
 21 23  2  0  0  0  0 
 22 23  1  0  0  0  0 
 23 24  1  0  0  0  0 
  6 25  1  0  0  0  0 
  7 26  1  0  0  0  0 
  7 27  1  0  0  0  0 
  9 28  1  0  0  0  0 
 10 29  1  0  0  0  0 
 11 30  1  0  0  0  0 
 11 31  1  0  0  0  0 
 13 32  1  0  0  0  0 
 14 33  1  0  0  0  0 
 14 34  1  0  0  0  0 
 15 35  1  0  0  0  0 
 15 36  1  0  0  0  0 
 16 37  1  0  0  0  0 
 16 38  1  0  0  0  0 
 19 39  1  0  0  0  0 
 20 40  1  0  0  0  0 
 21 41  1  0  0  0  0 
 22 42  1  0  0  0  0 
 24 43  1  0  0  0  0 
 24 44  1  0  0  0  0 
M  END
> <cdk:Title>
amphotalide

> <Conformer>
1

> <SuperDrugID>
SD003143

$$$$
