cafedrine
  CDK     0628171802

 49 51  0  0  0  0  0  0  0  0999 V2000
    0.2227   -0.6804   -0.0959 C   0  0  1  0  0  0  0  0  0  0  0  0
   -0.1843    0.0587   -1.3913 C   0  0  2  0  0  0  0  0  0  0  0  0
    1.5425   -0.3263    0.3468 N   0  0  0  0  0  0  0  0  0  0  0  0
    0.7313   -0.3081   -2.5010 N   0  0  1  0  0  0  0  0  0  0  0  0
    1.9497    0.7939    0.9800 C   0  0  0  0  0  0  0  0  0  0  0  0
    2.6424   -1.0936    0.1984 C   0  0  0  0  0  0  0  0  0  0  0  0
    0.5021    0.2866   -3.8476 C   0  0  2  0  0  0  0  0  0  0  0  0
    3.3202    0.6937    1.1865 C   0  0  0  0  0  0  0  0  0  0  0  0
    1.2856    1.9436    1.4414 C   0  0  0  0  0  0  0  0  0  0  0  0
    3.7300   -0.4879    0.6987 N   0  0  0  0  0  0  0  0  0  0  0  0
    0.8178    1.8201   -3.8900 C   0  0  2  0  0  0  0  0  0  0  0  0
   -0.8994   -0.0875   -4.4066 C   0  0  0  0  0  0  0  0  0  0  0  0
    4.0430    1.6760    1.7971 N   0  0  0  0  0  0  0  0  0  0  0  0
    0.0451    2.0226    1.2770 O   0  0  0  0  0  0  0  0  0  0  0  0
    2.0010    2.9370    2.0716 N   0  0  0  0  0  0  0  0  0  0  0  0
    0.5633    2.3673   -5.1856 O   0  0  0  0  0  0  0  0  0  0  0  0
    2.2358    2.1243   -3.5134 C   0  0  0  0  0  0  0  0  0  0  0  0
    5.4690    1.5023    1.9721 C   0  0  0  0  0  0  0  0  0  0  0  0
    3.3663    2.7889    2.2501 C   0  0  0  0  0  0  0  0  0  0  0  0
    1.3031    4.1071    2.5772 C   0  0  0  0  0  0  0  0  0  0  0  0
    2.5636    2.7021   -2.2603 C   0  0  0  0  0  0  0  0  0  0  0  0
    3.2943    1.8337   -4.4100 C   0  0  0  0  0  0  0  0  0  0  0  0
    4.0122    3.6792    2.8560 O   0  0  0  0  0  0  0  0  0  0  0  0
    3.9033    2.9728   -1.9156 C   0  0  0  0  0  0  0  0  0  0  0  0
    4.6324    2.1145   -4.0736 C   0  0  0  0  0  0  0  0  0  0  0  0
    4.9375    2.6783   -2.8233 C   0  0  0  0  0  0  0  0  0  0  0  0
   -0.4990   -0.4615    0.6947 H   0  0  0  0  0  0  0  0  0  0  0  0
    0.1582   -1.7567   -0.2861 H   0  0  0  0  0  0  0  0  0  0  0  0
   -0.1654    1.1343   -1.2156 H   0  0  0  0  0  0  0  0  0  0  0  0
   -1.2084   -0.2311   -1.6385 H   0  0  0  0  0  0  0  0  0  0  0  0
    1.6764   -0.0495   -2.2103 H   0  0  0  0  0  0  0  0  0  0  0  0
    2.6632   -2.0171   -0.2417 H   0  0  0  0  0  0  0  0  0  0  0  0
    1.2207   -0.2143   -4.5049 H   0  0  0  0  0  0  0  0  0  0  0  0
    0.1316    2.3393   -3.2167 H   0  0  0  0  0  0  0  0  0  0  0  0
   -1.6775    0.5313   -3.9572 H   0  0  0  0  0  0  0  0  0  0  0  0
   -1.1208   -1.1358   -4.1937 H   0  0  0  0  0  0  0  0  0  0  0  0
   -0.9312    0.0498   -5.4892 H   0  0  0  0  0  0  0  0  0  0  0  0
   -0.3969    2.2429   -5.3363 H   0  0  0  0  0  0  0  0  0  0  0  0
    5.6602    1.0052    2.9262 H   0  0  0  0  0  0  0  0  0  0  0  0
    5.9085    0.9008    1.1727 H   0  0  0  0  0  0  0  0  0  0  0  0
    6.0013    2.4554    1.9615 H   0  0  0  0  0  0  0  0  0  0  0  0
    0.4740    4.4007    1.9295 H   0  0  0  0  0  0  0  0  0  0  0  0
    1.9453    4.9868    2.6504 H   0  0  0  0  0  0  0  0  0  0  0  0
    0.9067    3.8855    3.5711 H   0  0  0  0  0  0  0  0  0  0  0  0
    1.8288    2.9276   -1.5841 H   0  0  0  0  0  0  0  0  0  0  0  0
    3.0985    1.4177   -5.3243 H   0  0  0  0  0  0  0  0  0  0  0  0
    4.1272    3.3858   -1.0060 H   0  0  0  0  0  0  0  0  0  0  0  0
    5.3817    1.9108   -4.7401 H   0  0  0  0  0  0  0  0  0  0  0  0
    5.9117    2.8747   -2.5773 H   0  0  0  0  0  0  0  0  0  0  0  0
  1  2  1  0  0  0  0 
  1  3  1  0  0  0  0 
  2  4  1  0  0  0  0 
  3  5  1  0  0  0  0 
  3  6  1  0  0  0  0 
  7  4  1  0  0  0  0 
  5  8  2  0  0  0  0 
  5  9  1  0  0  0  0 
  6 10  2  0  0  0  0 
 11  7  1  0  0  0  0 
  7 12  1  0  0  0  0 
  8 10  1  0  0  0  0 
  8 13  1  0  0  0  0 
  9 14  2  0  0  0  0 
  9 15  1  0  0  0  0 
 11 16  1  0  0  0  0 
 11 17  1  0  0  0  0 
 13 18  1  0  0  0  0 
 13 19  1  0  0  0  0 
 15 19  1  0  0  0  0 
 15 20  1  0  0  0  0 
 17 21  2  0  0  0  0 
 17 22  1  0  0  0  0 
 19 23  2  0  0  0  0 
 21 24  1  0  0  0  0 
 22 25  2  0  0  0  0 
 24 26  2  0  0  0  0 
 25 26  1  0  0  0  0 
  1 27  1  0  0  0  0 
  1 28  1  0  0  0  0 
  2 29  1  0  0  0  0 
  2 30  1  0  0  0  0 
  4 31  1  0  0  0  0 
  6 32  1  0  0  0  0 
  7 33  1  0  0  0  0 
 11 34  1  0  0  0  0 
 12 35  1  0  0  0  0 
 12 36  1  0  0  0  0 
 12 37  1  0  0  0  0 
 16 38  1  0  0  0  0 
 18 39  1  0  0  0  0 
 18 40  1  0  0  0  0 
 18 41  1  0  0  0  0 
 20 42  1  0  0  0  0 
 20 43  1  0  0  0  0 
 20 44  1  0  0  0  0 
 21 45  1  0  0  0  0 
 22 46  1  0  0  0  0 
 24 47  1  0  0  0  0 
 25 48  1  0  0  0  0 
 26 49  1  0  0  0  0 
M  END
> <cdk:Title>
cafedrine

> <Conformer>
1

> <SuperDrugID>
SD000402

$$$$
