octopamine
  CDK     0628171801

 22 22  0  0  0  0  0  0  0  0999 V2000
    1.7022   -0.2514   -0.1905 N   0  0  1  0  0  0  0  0  0  0  0  0
    0.9356   -0.0800    1.0468 C   0  0  2  0  0  0  0  0  0  0  0  0
   -0.2309    0.9212    0.8612 C   0  0  1  0  0  0  0  0  0  0  0  0
   -1.0828    0.4956   -0.2060 O   0  0  0  0  0  0  0  0  0  0  0  0
   -0.9927    1.0873    2.1347 C   0  0  0  0  0  0  0  0  0  0  0  0
   -2.0844    0.2415    2.4517 C   0  0  0  0  0  0  0  0  0  0  0  0
   -2.7876    0.3937    3.6611 C   0  0  0  0  0  0  0  0  0  0  0  0
   -2.4035    1.3855    4.5812 C   0  0  0  0  0  0  0  0  0  0  0  0
   -3.0809    1.5310    5.7442 O   0  0  0  0  0  0  0  0  0  0  0  0
   -1.3129    2.2238    4.2892 C   0  0  0  0  0  0  0  0  0  0  0  0
   -0.6150    2.0781    3.0748 C   0  0  0  0  0  0  0  0  0  0  0  0
    2.1025    0.6601   -0.4191 H   0  0  0  0  0  0  0  0  0  0  0  0
    2.4851   -0.8701    0.0293 H   0  0  0  0  0  0  0  0  0  0  0  0
    1.6190    0.2880    1.8138 H   0  0  0  0  0  0  0  0  0  0  0  0
    0.5542   -1.0555    1.3555 H   0  0  0  0  0  0  0  0  0  0  0  0
    0.1859    1.8856    0.5552 H   0  0  0  0  0  0  0  0  0  0  0  0
   -0.4965    0.3996   -0.9868 H   0  0  0  0  0  0  0  0  0  0  0  0
   -2.3745   -0.4946    1.8020 H   0  0  0  0  0  0  0  0  0  0  0  0
   -3.5780   -0.2193    3.8713 H   0  0  0  0  0  0  0  0  0  0  0  0
   -3.8018    2.1594    5.5301 H   0  0  0  0  0  0  0  0  0  0  0  0
   -1.0257    2.9397    4.9604 H   0  0  0  0  0  0  0  0  0  0  0  0
    0.1773    2.6979    2.8831 H   0  0  0  0  0  0  0  0  0  0  0  0
  1  2  1  0  0  0  0 
  3  2  1  0  0  0  0 
  3  4  1  0  0  0  0 
  3  5  1  0  0  0  0 
  5  6  2  0  0  0  0 
  6  7  1  0  0  0  0 
  7  8  2  0  0  0  0 
  8  9  1  0  0  0  0 
  8 10  1  0  0  0  0 
 10 11  2  0  0  0  0 
  5 11  1  0  0  0  0 
  1 12  1  0  0  0  0 
  1 13  1  0  0  0  0 
  2 14  1  0  0  0  0 
  2 15  1  0  0  0  0 
  3 16  1  0  0  0  0 
  4 17  1  0  0  0  0 
  6 18  1  0  0  0  0 
  7 19  1  0  0  0  0 
  9 20  1  0  0  0  0 
 10 21  1  0  0  0  0 
 11 22  1  0  0  0  0 
M  END
> <cdk:Title>
octopamine

> <Conformer>
1

> <SuperDrugID>
SD002924

$$$$
