penfluridol
  CDK     0628171801

 63 66  0  0  0  0  0  0  0  0999 V2000
   -2.1736    1.3568    1.5201 O   0  0  0  0  0  0  0  0  0  0  0  0
   -1.7870    0.1491    2.1889 C   0  0  2  0  0  0  0  0  0  0  0  0
   -1.1838   -0.7382    1.1157 C   0  0  0  0  0  0  0  0  0  0  0  0
   -3.0898   -0.3552    2.9052 C   0  0  2  0  0  0  0  0  0  0  0  0
   -0.7470    0.5525    3.2925 C   0  0  1  0  0  0  0  0  0  0  0  0
   -0.1203   -0.2459    0.3115 C   0  0  0  0  0  0  0  0  0  0  0  0
   -1.6369   -2.0482    0.8275 C   0  0  0  0  0  0  0  0  0  0  0  0
   -2.8162   -1.4114    4.0179 C   0  0  1  0  0  0  0  0  0  0  0  0
   -0.5458   -0.5479    4.3733 C   0  0  1  0  0  0  0  0  0  0  0  0
    0.4955   -1.0050   -0.7190 C   0  0  0  0  0  0  0  0  0  0  0  0
   -1.0418   -2.8309   -0.1733 C   0  0  0  0  0  0  0  0  0  0  0  0
   -1.8275   -0.9490    5.0457 N   0  0  1  0  0  0  0  0  0  0  0  0
    1.6043   -0.4247   -1.5426 C   0  0  1  0  0  0  0  0  0  0  0  0
    0.0125   -2.3211   -0.9511 C   0  0  0  0  0  0  0  0  0  0  0  0
   -2.3167    0.0501    6.0560 C   0  0  1  0  0  0  0  0  0  0  0  0
    2.0114    0.8339   -1.1606 F   0  0  0  0  0  0  0  0  0  0  0  0
    2.7279   -1.2131   -1.4762 F   0  0  0  0  0  0  0  0  0  0  0  0
    1.2076   -0.3197   -2.8540 F   0  0  0  0  0  0  0  0  0  0  0  0
    0.6315   -3.3445   -2.1589 Cl  0  0  0  0  0  0  0  0  0  0  0  0
   -3.4598   -0.4429    6.9892 C   0  0  2  0  0  0  0  0  0  0  0  0
   -3.9982    0.6201    7.9970 C   0  0  1  0  0  0  0  0  0  0  0  0
   -4.9578    1.7032    7.3838 C   0  0  2  0  0  0  0  0  0  0  0  0
   -4.2871    2.7256    6.5102 C   0  0  0  0  0  0  0  0  0  0  0  0
   -5.8399    2.3558    8.4075 C   0  0  0  0  0  0  0  0  0  0  0  0
   -3.1306    3.4366    6.9211 C   0  0  0  0  0  0  0  0  0  0  0  0
   -4.7712    2.9628    5.1980 C   0  0  0  0  0  0  0  0  0  0  0  0
   -5.3084    3.0295    9.5358 C   0  0  0  0  0  0  0  0  0  0  0  0
   -7.2519    2.3005    8.2736 C   0  0  0  0  0  0  0  0  0  0  0  0
   -2.4436    4.2869    6.0339 C   0  0  0  0  0  0  0  0  0  0  0  0
   -4.0959    3.8224    4.3122 C   0  0  0  0  0  0  0  0  0  0  0  0
   -6.1547    3.6367   10.4829 C   0  0  0  0  0  0  0  0  0  0  0  0
   -8.0983    2.9020    9.2206 C   0  0  0  0  0  0  0  0  0  0  0  0
   -2.9235    4.4777    4.7263 C   0  0  0  0  0  0  0  0  0  0  0  0
   -7.5511    3.5768   10.3245 C   0  0  0  0  0  0  0  0  0  0  0  0
   -2.2909    5.2692    3.9045 F   0  0  0  0  0  0  0  0  0  0  0  0
   -8.3380    4.1461   11.1953 F   0  0  0  0  0  0  0  0  0  0  0  0
   -2.8563    1.0862    0.8727 H   0  0  0  0  0  0  0  0  0  0  0  0
   -3.7981   -0.7499    2.1726 H   0  0  0  0  0  0  0  0  0  0  0  0
   -3.5910    0.4966    3.3744 H   0  0  0  0  0  0  0  0  0  0  0  0
    0.2234    0.7960    2.8545 H   0  0  0  0  0  0  0  0  0  0  0  0
   -1.0905    1.4632    3.7915 H   0  0  0  0  0  0  0  0  0  0  0  0
    0.2064    0.7080    0.4795 H   0  0  0  0  0  0  0  0  0  0  0  0
   -2.4150   -2.4657    1.3313 H   0  0  0  0  0  0  0  0  0  0  0  0
   -3.7634   -1.7009    4.4671 H   0  0  0  0  0  0  0  0  0  0  0  0
   -2.4209   -2.3267    3.5777 H   0  0  0  0  0  0  0  0  0  0  0  0
   -0.0958   -1.4266    3.8999 H   0  0  0  0  0  0  0  0  0  0  0  0
    0.1787   -0.1912    5.1112 H   0  0  0  0  0  0  0  0  0  0  0  0
   -1.3933   -3.7796   -0.3343 H   0  0  0  0  0  0  0  0  0  0  0  0
   -1.4854    0.3276    6.7131 H   0  0  0  0  0  0  0  0  0  0  0  0
   -2.6297    0.9480    5.5327 H   0  0  0  0  0  0  0  0  0  0  0  0
   -3.0754   -1.2927    7.5604 H   0  0  0  0  0  0  0  0  0  0  0  0
   -4.3073   -0.8046    6.4084 H   0  0  0  0  0  0  0  0  0  0  0  0
   -4.5616    0.0644    8.7548 H   0  0  0  0  0  0  0  0  0  0  0  0
   -3.1592    1.0824    8.5206 H   0  0  0  0  0  0  0  0  0  0  0  0
   -5.6188    1.1144    6.7396 H   0  0  0  0  0  0  0  0  0  0  0  0
   -2.7562    3.3239    7.8630 H   0  0  0  0  0  0  0  0  0  0  0  0
   -5.6220    2.5006    4.8673 H   0  0  0  0  0  0  0  0  0  0  0  0
   -4.2995    3.0798    9.6870 H   0  0  0  0  0  0  0  0  0  0  0  0
   -7.6841    1.8210    7.4786 H   0  0  0  0  0  0  0  0  0  0  0  0
   -1.5931    4.7654    6.3418 H   0  0  0  0  0  0  0  0  0  0  0  0
   -4.4572    3.9637    3.3650 H   0  0  0  0  0  0  0  0  0  0  0  0
   -5.7492    4.1225   11.2849 H   0  0  0  0  0  0  0  0  0  0  0  0
   -9.1120    2.8444    9.1009 H   0  0  0  0  0  0  0  0  0  0  0  0
  1  2  1  0  0  0  0 
  2  3  1  0  0  0  0 
  2  4  1  0  0  0  0 
  2  5  1  0  0  0  0 
  3  6  2  0  0  0  0 
  3  7  1  0  0  0  0 
  4  8  1  0  0  0  0 
  5  9  1  0  0  0  0 
  6 10  1  0  0  0  0 
  7 11  2  0  0  0  0 
  8 12  1  0  0  0  0 
  9 12  1  0  0  0  0 
 10 13  1  0  0  0  0 
 10 14  2  0  0  0  0 
 11 14  1  0  0  0  0 
 12 15  1  0  0  0  0 
 13 16  1  0  0  0  0 
 13 17  1  0  0  0  0 
 13 18  1  0  0  0  0 
 14 19  1  0  0  0  0 
 15 20  1  0  0  0  0 
 20 21  1  0  0  0  0 
 21 22  1  0  0  0  0 
 22 23  1  0  0  0  0 
 22 24  1  0  0  0  0 
 23 25  2  0  0  0  0 
 23 26  1  0  0  0  0 
 24 27  2  0  0  0  0 
 24 28  1  0  0  0  0 
 25 29  1  0  0  0  0 
 26 30  2  0  0  0  0 
 27 31  1  0  0  0  0 
 28 32  2  0  0  0  0 
 29 33  2  0  0  0  0 
 30 33  1  0  0  0  0 
 31 34  2  0  0  0  0 
 32 34  1  0  0  0  0 
 33 35  1  0  0  0  0 
 34 36  1  0  0  0  0 
  1 37  1  0  0  0  0 
  4 38  1  0  0  0  0 
  4 39  1  0  0  0  0 
  5 40  1  0  0  0  0 
  5 41  1  0  0  0  0 
  6 42  1  0  0  0  0 
  7 43  1  0  0  0  0 
  8 44  1  0  0  0  0 
  8 45  1  0  0  0  0 
  9 46  1  0  0  0  0 
  9 47  1  0  0  0  0 
 11 48  1  0  0  0  0 
 15 49  1  0  0  0  0 
 15 50  1  0  0  0  0 
 20 51  1  0  0  0  0 
 20 52  1  0  0  0  0 
 21 53  1  0  0  0  0 
 21 54  1  0  0  0  0 
 22 55  1  0  0  0  0 
 25 56  1  0  0  0  0 
 26 57  1  0  0  0  0 
 27 58  1  0  0  0  0 
 28 59  1  0  0  0  0 
 29 60  1  0  0  0  0 
 30 61  1  0  0  0  0 
 31 62  1  0  0  0  0 
 32 63  1  0  0  0  0 
M  END
> <cdk:Title>
penfluridol

> <Conformer>
1

> <SuperDrugID>
SD001865

$$$$
