gentisic acid
  CDK     0628171801

 17 17  0  0  0  0  0  0  0  0999 V2000
    3.1253    3.8464    1.0108 O   0  0  0  0  0  0  0  0  0  0  0  0
    2.1968    2.9471    0.6009 C   0  0  0  0  0  0  0  0  0  0  0  0
    2.6366    1.8122    0.3079 O   0  0  0  0  0  0  0  0  0  0  0  0
    0.8178    3.2913    0.5028 C   0  0  0  0  0  0  0  0  0  0  0  0
   -0.1869    2.3587    0.1208 C   0  0  0  0  0  0  0  0  0  0  0  0
    0.0774    1.0551   -0.1504 O   0  0  0  0  0  0  0  0  0  0  0  0
   -1.5330    2.7589    0.0064 C   0  0  0  0  0  0  0  0  0  0  0  0
   -1.9097    4.0810    0.2909 C   0  0  0  0  0  0  0  0  0  0  0  0
   -0.9370    5.0149    0.6849 C   0  0  0  0  0  0  0  0  0  0  0  0
   -1.3077    6.2906    0.9647 O   0  0  0  0  0  0  0  0  0  0  0  0
    0.4112    4.6207    0.7851 C   0  0  0  0  0  0  0  0  0  0  0  0
    4.0718    3.5998    1.0582 H   0  0  0  0  0  0  0  0  0  0  0  0
    0.7091    0.7676    0.5400 H   0  0  0  0  0  0  0  0  0  0  0  0
   -2.2480    2.0853   -0.2781 H   0  0  0  0  0  0  0  0  0  0  0  0
   -2.8917    4.3579    0.2161 H   0  0  0  0  0  0  0  0  0  0  0  0
   -0.4951    6.7390    1.2793 H   0  0  0  0  0  0  0  0  0  0  0  0
    1.0964    5.3266    1.0663 H   0  0  0  0  0  0  0  0  0  0  0  0
  1  2  1  0  0  0  0 
  2  3  2  0  0  0  0 
  2  4  1  0  0  0  0 
  4  5  2  0  0  0  0 
  5  6  1  0  0  0  0 
  5  7  1  0  0  0  0 
  7  8  2  0  0  0  0 
  8  9  1  0  0  0  0 
  9 10  1  0  0  0  0 
  9 11  2  0  0  0  0 
  4 11  1  0  0  0  0 
  1 12  1  0  0  0  0 
  6 13  1  0  0  0  0 
  7 14  1  0  0  0  0 
  8 15  1  0  0  0  0 
 10 16  1  0  0  0  0 
 11 17  1  0  0  0  0 
M  END
> <cdk:Title>
gentisic acid

> <Conformer>
1

> <SuperDrugID>
SD002816

$$$$
