riboflavin phosphate
  CDK     0628171801

 52 54  0  0  0  0  0  0  0  0999 V2000
    8.8191    3.7462    6.2488 C   0  0  0  0  0  0  0  0  0  0  0  0
    7.4276    4.0387    5.8132 C   0  0  0  0  0  0  0  0  0  0  0  0
    6.7792    5.1864    6.3176 C   0  0  0  0  0  0  0  0  0  0  0  0
    5.4667    5.5043    5.9261 C   0  0  0  0  0  0  0  0  0  0  0  0
    4.7342    4.6969    5.0120 C   0  0  0  0  0  0  0  0  0  0  0  0
    5.4009    3.5333    4.5378 C   0  0  0  0  0  0  0  0  0  0  0  0
    6.7259    3.1907    4.9131 C   0  0  0  0  0  0  0  0  0  0  0  0
    7.3527    1.9532    4.3636 C   0  0  0  0  0  0  0  0  0  0  0  0
    3.4445    5.0889    4.6556 N   0  0  0  0  0  0  0  0  0  0  0  0
    2.6491    4.3210    3.6972 C   0  0  1  0  0  0  0  0  0  0  0  0
    3.0724    4.6025    2.2212 C   0  0  2  0  0  0  0  0  0  0  0  0
    2.7949    5.9705    1.9134 O   0  0  0  0  0  0  0  0  0  0  0  0
    2.3620    3.7166    1.1487 C   0  0  2  0  0  0  0  0  0  0  0  0
    0.9465    3.8193    1.3145 O   0  0  0  0  0  0  0  0  0  0  0  0
    2.8004    2.2171    1.1230 C   0  0  2  0  0  0  0  0  0  0  0  0
    2.9008    6.2369    5.2084 C   0  0  0  0  0  0  0  0  0  0  0  0
    1.6494    6.6906    4.9062 N   0  0  0  0  0  0  0  0  0  0  0  0
    1.1048    7.8076    5.4473 C   0  0  0  0  0  0  0  0  0  0  0  0
   -0.0511    8.1570    5.1214 O   0  0  0  0  0  0  0  0  0  0  0  0
    1.8179    8.5364    6.3392 N   0  0  0  0  0  0  0  0  0  0  0  0
    3.0767    8.1713    6.6920 C   0  0  0  0  0  0  0  0  0  0  0  0
    3.6994    8.8816    7.5137 O   0  0  0  0  0  0  0  0  0  0  0  0
    3.6511    7.0106    6.1312 C   0  0  0  0  0  0  0  0  0  0  0  0
    4.9024    6.6158    6.4468 N   0  0  0  0  0  0  0  0  0  0  0  0
    4.2029    2.1219    0.8675 O   0  0  0  0  0  0  0  0  0  0  0  0
    2.0767    1.3794    0.0335 C   0  0  1  0  0  0  0  0  0  0  0  0
    0.6679    1.2952    0.3288 O   0  0  0  0  0  0  0  0  0  0  0  0
   -0.2108    0.4757   -0.7226 P   0  0  1  0  0  0  0  0  0  0  0  0
    0.1570   -0.9436   -0.7270 O   0  0  0  0  0  0  0  0  0  0  0  0
   -1.7273    0.6423   -0.2934 O   0  0  0  0  0  0  0  0  0  0  0  0
   -0.0430    1.1021   -2.1679 O   0  0  0  0  0  0  0  0  0  0  0  0
    9.4839    3.7136    5.3828 H   0  0  0  0  0  0  0  0  0  0  0  0
    9.2056    4.4997    6.9387 H   0  0  0  0  0  0  0  0  0  0  0  0
    8.8460    2.7821    6.7592 H   0  0  0  0  0  0  0  0  0  0  0  0
    7.2622    5.8020    6.9804 H   0  0  0  0  0  0  0  0  0  0  0  0
    4.9189    2.9034    3.8998 H   0  0  0  0  0  0  0  0  0  0  0  0
    8.2269    2.2152    3.7643 H   0  0  0  0  0  0  0  0  0  0  0  0
    6.6734    1.3839    3.7258 H   0  0  0  0  0  0  0  0  0  0  0  0
    7.6641    1.2961    5.1789 H   0  0  0  0  0  0  0  0  0  0  0  0
    2.7107    3.2577    3.9353 H   0  0  0  0  0  0  0  0  0  0  0  0
    1.5807    4.5411    3.7745 H   0  0  0  0  0  0  0  0  0  0  0  0
    4.1521    4.4828    2.1212 H   0  0  0  0  0  0  0  0  0  0  0  0
    3.3058    6.4955    2.5644 H   0  0  0  0  0  0  0  0  0  0  0  0
    2.5985    4.1358    0.1656 H   0  0  0  0  0  0  0  0  0  0  0  0
    0.7356    4.7609    1.1448 H   0  0  0  0  0  0  0  0  0  0  0  0
    2.6046    1.7535    2.0927 H   0  0  0  0  0  0  0  0  0  0  0  0
    1.4217    9.3321    6.7298 H   0  0  0  0  0  0  0  0  0  0  0  0
    4.6355    2.5324    1.6434 H   0  0  0  0  0  0  0  0  0  0  0  0
    2.2495    1.8469   -0.9417 H   0  0  0  0  0  0  0  0  0  0  0  0
    2.5165    0.3769    0.0198 H   0  0  0  0  0  0  0  0  0  0  0  0
   -1.8792    1.6116   -0.3113 H   0  0  0  0  0  0  0  0  0  0  0  0
   -0.3151    2.0382   -2.0669 H   0  0  0  0  0  0  0  0  0  0  0  0
  1  2  1  0  0  0  0 
  2  3  1  0  0  0  0 
  3  4  2  0  0  0  0 
  4  5  1  0  0  0  0 
  5  6  2  0  0  0  0 
  6  7  1  0  0  0  0 
  2  7  2  0  0  0  0 
  7  8  1  0  0  0  0 
  5  9  1  0  0  0  0 
  9 10  1  0  0  0  0 
 11 10  1  0  0  0  0 
 11 12  1  0  0  0  0 
 13 11  1  0  0  0  0 
 13 14  1  0  0  0  0 
 13 15  1  0  0  0  0 
  9 16  1  0  0  0  0 
 16 17  2  0  0  0  0 
 17 18  1  0  0  0  0 
 18 19  2  0  0  0  0 
 18 20  1  0  0  0  0 
 20 21  1  0  0  0  0 
 21 22  2  0  0  0  0 
 21 23  1  0  0  0  0 
 16 23  1  0  0  0  0 
 23 24  2  0  0  0  0 
  4 24  1  0  0  0  0 
 15 25  1  0  0  0  0 
 15 26  1  0  0  0  0 
 26 27  1  0  0  0  0 
 27 28  1  0  0  0  0 
 28 29  2  0  0  0  0 
 28 30  1  0  0  0  0 
 28 31  1  0  0  0  0 
 32  1  1  0  0  0  0 
 33  1  1  0  0  0  0 
 34  1  1  0  0  0  0 
 35  3  1  0  0  0  0 
 36  6  1  0  0  0  0 
 37  8  1  0  0  0  0 
 38  8  1  0  0  0  0 
 39  8  1  0  0  0  0 
 40 10  1  0  0  0  0 
 41 10  1  0  0  0  0 
 11 42  1  0  0  0  0 
 43 12  1  0  0  0  0 
 13 44  1  0  0  0  0 
 45 14  1  0  0  0  0 
 15 46  1  0  0  0  0 
 47 20  1  0  0  0  0 
 48 25  1  0  0  0  0 
 49 26  1  0  0  0  0 
 50 26  1  0  0  0  0 
 51 30  1  0  0  0  0 
 52 31  1  0  0  0  0 
M  END
> <cdk:Title>
riboflavin phosphate

> <Conformer>
1

> <SuperDrugID>
SD002136

$$$$
