inosine
  CDK     0628171801

 31 33  0  0  0  0  0  0  0  0999 V2000
    1.6519   -1.6168   -1.6987 O   0  0  0  0  0  0  0  0  0  0  0  0
    2.7095   -2.5399   -1.9647 C   0  0  1  0  0  0  0  0  0  0  0  0
    2.2596   -3.6392   -2.9593 C   0  0  2  0  0  0  0  0  0  0  0  0
    3.8423   -1.8538   -2.7371 C   0  0  2  0  0  0  0  0  0  0  0  0
    2.8257   -4.9296   -2.6525 N   0  0  0  0  0  0  0  0  0  0  0  0
    2.6427   -3.2065   -4.2792 O   0  0  0  0  0  0  0  0  0  0  0  0
    4.0856   -0.5175   -2.3069 O   0  0  0  0  0  0  0  0  0  0  0  0
    3.3145   -1.9422   -4.1841 C   0  0  2  0  0  0  0  0  0  0  0  0
    2.4210   -5.7665   -1.6803 C   0  0  0  0  0  0  0  0  0  0  0  0
    3.8444   -5.5617   -3.2819 C   0  0  0  0  0  0  0  0  0  0  0  0
    4.4069   -1.8350   -5.2711 C   0  0  2  0  0  0  0  0  0  0  0  0
    3.2001   -6.9153   -1.7586 C   0  0  0  0  0  0  0  0  0  0  0  0
    1.4457   -5.6459   -0.7437 N   0  0  0  0  0  0  0  0  0  0  0  0
    4.0859   -6.7763   -2.7524 N   0  0  0  0  0  0  0  0  0  0  0  0
    3.8314   -1.9668   -6.5648 O   0  0  0  0  0  0  0  0  0  0  0  0
    2.9575   -7.9665   -0.8605 C   0  0  0  0  0  0  0  0  0  0  0  0
    1.2218   -6.6697    0.1265 C   0  0  0  0  0  0  0  0  0  0  0  0
    3.6257   -9.0232   -0.8992 O   0  0  0  0  0  0  0  0  0  0  0  0
    1.9655   -7.8120    0.0587 N   0  0  0  0  0  0  0  0  0  0  0  0
    0.9369   -2.1547   -1.3011 H   0  0  0  0  0  0  0  0  0  0  0  0
    3.0636   -2.9481   -1.0143 H   0  0  0  0  0  0  0  0  0  0  0  0
    1.1698   -3.7302   -2.9563 H   0  0  0  0  0  0  0  0  0  0  0  0
    4.7640   -2.4316   -2.6211 H   0  0  0  0  0  0  0  0  0  0  0  0
    4.8303   -0.2049   -2.8622 H   0  0  0  0  0  0  0  0  0  0  0  0
    2.5748   -1.1526   -4.3557 H   0  0  0  0  0  0  0  0  0  0  0  0
    4.3771   -5.1818   -4.0661 H   0  0  0  0  0  0  0  0  0  0  0  0
    5.1527   -2.6217   -5.1420 H   0  0  0  0  0  0  0  0  0  0  0  0
    4.9040   -0.8648   -5.2081 H   0  0  0  0  0  0  0  0  0  0  0  0
    4.5921   -1.9208   -7.1819 H   0  0  0  0  0  0  0  0  0  0  0  0
    0.4922   -6.5824    0.8335 H   0  0  0  0  0  0  0  0  0  0  0  0
    1.7797   -8.5311    0.6827 H   0  0  0  0  0  0  0  0  0  0  0  0
  2  1  1  0  0  0  0 
  2  3  1  0  0  0  0 
  2  4  1  0  0  0  0 
  3  5  1  0  0  0  0 
  3  6  1  0  0  0  0 
  4  7  1  0  0  0  0 
  4  8  1  0  0  0  0 
  5  9  1  0  0  0  0 
  5 10  1  0  0  0  0 
  8  6  1  0  0  0  0 
  8 11  1  0  0  0  0 
  9 12  2  0  0  0  0 
  9 13  1  0  0  0  0 
 10 14  2  0  0  0  0 
 11 15  1  0  0  0  0 
 12 14  1  0  0  0  0 
 12 16  1  0  0  0  0 
 13 17  2  0  0  0  0 
 16 18  2  0  0  0  0 
 16 19  1  0  0  0  0 
 17 19  1  0  0  0  0 
 20  1  1  0  0  0  0 
  2 21  1  0  0  0  0 
  3 22  1  0  0  0  0 
  4 23  1  0  0  0  0 
 24  7  1  0  0  0  0 
  8 25  1  0  0  0  0 
 26 10  1  0  0  0  0 
 27 11  1  0  0  0  0 
 28 11  1  0  0  0  0 
 29 15  1  0  0  0  0 
 30 17  1  0  0  0  0 
 31 19  1  0  0  0  0 
M  END
> <cdk:Title>
inosine

> <Conformer>
1

> <SuperDrugID>
SD002851

$$$$
