flucytosine
  CDK     0628171801

 13 13  0  0  0  0  0  0  0  0999 V2000
    1.6466   -0.4748    0.1096 N   0  0  0  0  0  0  0  0  0  0  0  0
    0.5345   -0.5179    0.8635 C   0  0  0  0  0  0  0  0  0  0  0  0
   -0.5496    0.1950    0.4607 N   0  0  0  0  0  0  0  0  0  0  0  0
   -1.7066    0.1929    1.1694 C   0  0  0  0  0  0  0  0  0  0  0  0
   -2.6859    0.8553    0.7607 O   0  0  0  0  0  0  0  0  0  0  0  0
   -1.7917   -0.5289    2.3159 N   0  0  0  0  0  0  0  0  0  0  0  0
   -0.7413   -1.2615    2.7687 C   0  0  0  0  0  0  0  0  0  0  0  0
    0.4676   -1.2817    2.0472 C   0  0  0  0  0  0  0  0  0  0  0  0
    1.4793   -1.9921    2.4693 F   0  0  0  0  0  0  0  0  0  0  0  0
    1.6623    0.0522   -0.7060 H   0  0  0  0  0  0  0  0  0  0  0  0
    2.4358   -0.9712    0.3758 H   0  0  0  0  0  0  0  0  0  0  0  0
   -2.6196   -0.5221    2.8203 H   0  0  0  0  0  0  0  0  0  0  0  0
   -0.8366   -1.7964    3.6359 H   0  0  0  0  0  0  0  0  0  0  0  0
  1  2  1  0  0  0  0 
  2  3  2  0  0  0  0 
  3  4  1  0  0  0  0 
  4  5  2  0  0  0  0 
  4  6  1  0  0  0  0 
  6  7  1  0  0  0  0 
  7  8  2  0  0  0  0 
  2  8  1  0  0  0  0 
  8  9  1  0  0  0  0 
 10  1  1  0  0  0  0 
 11  1  1  0  0  0  0 
 12  6  1  0  0  0  0 
 13  7  1  0  0  0  0 
M  END
> <cdk:Title>
flucytosine

> <Conformer>
1

> <SuperDrugID>
SD001063

$$$$
