xipamide
  CDK     0628171801

 38 39  0  0  0  0  0  0  0  0999 V2000
   -2.2616    3.0866   -0.6098 C   0  0  0  0  0  0  0  0  0  0  0  0
   -1.0712    3.1171    0.0590 N   0  0  0  0  0  0  0  0  0  0  0  0
   -3.3485    2.9721    0.0077 O   0  0  0  0  0  0  0  0  0  0  0  0
   -2.2882    3.1714   -2.0221 C   0  0  0  0  0  0  0  0  0  0  0  0
   -0.9051    3.0504    1.4151 C   0  0  0  0  0  0  0  0  0  0  0  0
   -1.3650    2.4281   -2.7943 C   0  0  0  0  0  0  0  0  0  0  0  0
   -3.2367    3.9821   -2.6935 C   0  0  0  0  0  0  0  0  0  0  0  0
   -1.5143    3.9848    2.3068 C   0  0  0  0  0  0  0  0  0  0  0  0
   -0.0838    2.0049    1.9288 C   0  0  0  0  0  0  0  0  0  0  0  0
   -1.3797    2.4716   -4.2055 C   0  0  0  0  0  0  0  0  0  0  0  0
   -4.1213    4.7699   -2.0262 O   0  0  0  0  0  0  0  0  0  0  0  0
   -3.2741    4.0108   -4.0989 C   0  0  0  0  0  0  0  0  0  0  0  0
   -2.2653    5.1943    1.8701 C   0  0  0  0  0  0  0  0  0  0  0  0
   -1.3781    3.7879    3.7006 C   0  0  0  0  0  0  0  0  0  0  0  0
    0.6408    1.0645    1.0304 C   0  0  0  0  0  0  0  0  0  0  0  0
    0.0529    1.8629    3.3287 C   0  0  0  0  0  0  0  0  0  0  0  0
   -0.1931    1.5051   -5.1059 S   0  0  1  0  0  0  0  0  0  0  0  0
   -2.3551    3.2634   -4.8606 C   0  0  0  0  0  0  0  0  0  0  0  0
   -0.5999    2.7377    4.2085 C   0  0  0  0  0  0  0  0  0  0  0  0
   -1.0357    0.2017   -5.9266 N   0  0  2  0  0  0  0  0  0  0  0  0
    0.5492    2.3956   -6.2149 O   0  0  0  0  0  0  0  0  0  0  0  0
    0.9136    0.8540   -4.1445 O   0  0  0  0  0  0  0  0  0  0  0  0
   -2.4814    3.3620   -6.5516 Cl  0  0  0  0  0  0  0  0  0  0  0  0
   -0.2637    3.1398   -0.4784 H   0  0  0  0  0  0  0  0  0  0  0  0
   -0.6786    1.8339   -2.3220 H   0  0  0  0  0  0  0  0  0  0  0  0
   -3.6484    5.0747   -1.2230 H   0  0  0  0  0  0  0  0  0  0  0  0
   -3.9754    4.5900   -4.5678 H   0  0  0  0  0  0  0  0  0  0  0  0
   -3.3189    5.0924    2.1395 H   0  0  0  0  0  0  0  0  0  0  0  0
   -2.1917    5.3800    0.7997 H   0  0  0  0  0  0  0  0  0  0  0  0
   -1.8631    6.0793    2.3667 H   0  0  0  0  0  0  0  0  0  0  0  0
   -1.8318    4.4235    4.3642 H   0  0  0  0  0  0  0  0  0  0  0  0
    1.3931    1.6183    0.4658 H   0  0  0  0  0  0  0  0  0  0  0  0
    1.1507    0.2692    1.5791 H   0  0  0  0  0  0  0  0  0  0  0  0
   -0.0528    0.5928    0.3317 H   0  0  0  0  0  0  0  0  0  0  0  0
    0.6302    1.1180    3.7250 H   0  0  0  0  0  0  0  0  0  0  0  0
   -0.4993    2.6172    5.2205 H   0  0  0  0  0  0  0  0  0  0  0  0
   -0.3459   -0.2648   -6.5168 H   0  0  0  0  0  0  0  0  0  0  0  0
   -1.7098    0.6449   -6.5528 H   0  0  0  0  0  0  0  0  0  0  0  0
  1  2  1  0  0  0  0 
  1  3  2  0  0  0  0 
  1  4  1  0  0  0  0 
  2  5  1  0  0  0  0 
  4  6  2  0  0  0  0 
  4  7  1  0  0  0  0 
  5  8  2  0  0  0  0 
  5  9  1  0  0  0  0 
  6 10  1  0  0  0  0 
  7 11  1  0  0  0  0 
  7 12  2  0  0  0  0 
  8 13  1  0  0  0  0 
  8 14  1  0  0  0  0 
  9 15  1  0  0  0  0 
  9 16  2  0  0  0  0 
 10 17  1  0  0  0  0 
 10 18  2  0  0  0  0 
 12 18  1  0  0  0  0 
 14 19  2  0  0  0  0 
 16 19  1  0  0  0  0 
 17 20  1  0  0  0  0 
 17 21  2  0  0  0  0 
 17 22  2  0  0  0  0 
 18 23  1  0  0  0  0 
  2 24  1  0  0  0  0 
  6 25  1  0  0  0  0 
 11 26  1  0  0  0  0 
 12 27  1  0  0  0  0 
 13 28  1  0  0  0  0 
 13 29  1  0  0  0  0 
 13 30  1  0  0  0  0 
 14 31  1  0  0  0  0 
 15 32  1  0  0  0  0 
 15 33  1  0  0  0  0 
 15 34  1  0  0  0  0 
 16 35  1  0  0  0  0 
 19 36  1  0  0  0  0 
 20 37  1  0  0  0  0 
 20 38  1  0  0  0  0 
M  END
> <cdk:Title>
xipamide

> <Conformer>
1

> <SuperDrugID>
SD002570

$$$$
