diiodotyrosine
  CDK     0628171801

 24 24  0  0  0  0  0  0  0  0999 V2000
   -0.1837    0.9437   -0.5716 C   0  0  1  0  0  0  0  0  0  0  0  0
   -0.4397    1.7388    0.7429 C   0  0  1  0  0  0  0  0  0  0  0  0
   -1.0462   -0.2656   -0.7088 C   0  0  0  0  0  0  0  0  0  0  0  0
    0.0055    1.0530    1.9762 C   0  0  0  0  0  0  0  0  0  0  0  0
    0.2386    3.0413    0.6850 N   0  0  2  0  0  0  0  0  0  0  0  0
   -0.5102   -1.5707   -0.6128 C   0  0  0  0  0  0  0  0  0  0  0  0
   -2.4327   -0.1253   -0.9523 C   0  0  0  0  0  0  0  0  0  0  0  0
    0.9036    0.0413    1.9513 O   0  0  0  0  0  0  0  0  0  0  0  0
   -0.4280    1.4273    3.0908 O   0  0  0  0  0  0  0  0  0  0  0  0
   -1.3284   -2.7051   -0.7820 C   0  0  0  0  0  0  0  0  0  0  0  0
   -3.2573   -1.2540   -1.1140 C   0  0  0  0  0  0  0  0  0  0  0  0
   -0.4847   -4.5738   -0.6369 I   0  0  0  0  0  0  0  0  0  0  0  0
   -2.7052   -2.5480   -1.0442 C   0  0  0  0  0  0  0  0  0  0  0  0
   -5.2630   -0.9820   -1.4684 I   0  0  0  0  0  0  0  0  0  0  0  0
   -3.5086   -3.6257   -1.2337 O   0  0  0  0  0  0  0  0  0  0  0  0
   -0.3776    1.5973   -1.4277 H   0  0  0  0  0  0  0  0  0  0  0  0
    0.8755    0.6735   -0.6242 H   0  0  0  0  0  0  0  0  0  0  0  0
   -1.5096    1.9428    0.8268 H   0  0  0  0  0  0  0  0  0  0  0  0
   -0.0985    3.5200   -0.1530 H   0  0  0  0  0  0  0  0  0  0  0  0
    1.2364    2.8658    0.5450 H   0  0  0  0  0  0  0  0  0  0  0  0
    0.4844   -1.7048   -0.4193 H   0  0  0  0  0  0  0  0  0  0  0  0
   -2.8480    0.8073   -1.0229 H   0  0  0  0  0  0  0  0  0  0  0  0
    1.1982   -0.3776    2.7856 H   0  0  0  0  0  0  0  0  0  0  0  0
   -2.9373   -4.3143   -1.6363 H   0  0  0  0  0  0  0  0  0  0  0  0
  1  2  1  0  0  0  0 
  1  3  1  0  0  0  0 
  2  4  1  0  0  0  0 
  2  5  1  0  0  0  0 
  3  6  2  0  0  0  0 
  3  7  1  0  0  0  0 
  4  8  1  0  0  0  0 
  4  9  2  0  0  0  0 
  6 10  1  0  0  0  0 
  7 11  2  0  0  0  0 
 10 12  1  0  0  0  0 
 10 13  2  0  0  0  0 
 11 13  1  0  0  0  0 
 11 14  1  0  0  0  0 
 13 15  1  0  0  0  0 
  1 16  1  0  0  0  0 
  1 17  1  0  0  0  0 
  2 18  1  0  0  0  0 
  5 19  1  0  0  0  0 
  5 20  1  0  0  0  0 
  6 21  1  0  0  0  0 
  7 22  1  0  0  0  0 
  8 23  1  0  0  0  0 
 15 24  1  0  0  0  0 
M  END
> <cdk:Title>
diiodotyrosine

> <Conformer>
1

> <SuperDrugID>
SD002727

$$$$
