tiracizine
  CDK     0628171801

 52 54  0  0  0  0  0  0  0  0999 V2000
    1.7275    0.8034   -1.2824 C   0  0  0  0  0  0  0  0  0  0  0  0
    1.0064   -0.1419   -0.3772 C   0  0  1  0  0  0  0  0  0  0  0  0
    0.9811    1.5907   -1.9176 O   0  0  0  0  0  0  0  0  0  0  0  0
    3.1089    0.8762   -1.4739 N   0  0  0  0  0  0  0  0  0  0  0  0
    1.5755   -0.2766    1.0028 N   0  0  2  0  0  0  0  0  0  0  0  0
    4.0255    0.1669   -0.7248 C   0  0  0  0  0  0  0  0  0  0  0  0
    3.6186    1.7338   -2.4223 C   0  0  0  0  0  0  0  0  0  0  0  0
    1.0817   -1.4891    1.7204 C   0  0  0  0  0  0  0  0  0  0  0  0
    1.4800    0.9513    1.8424 C   0  0  0  0  0  0  0  0  0  0  0  0
    5.0413    0.8041    0.0530 C   0  0  0  0  0  0  0  0  0  0  0  0
    3.9487   -1.2483   -0.7249 C   0  0  0  0  0  0  0  0  0  0  0  0
    4.2100    2.9600   -2.0278 C   0  0  0  0  0  0  0  0  0  0  0  0
    3.5392    1.4066   -3.7946 C   0  0  0  0  0  0  0  0  0  0  0  0
    5.2857    2.2823    0.1449 C   0  0  2  0  0  0  0  0  0  0  0  0
    5.9143   -0.0104    0.8139 C   0  0  0  0  0  0  0  0  0  0  0  0
    4.7647   -2.0474    0.1010 C   0  0  0  0  0  0  0  0  0  0  0  0
    4.3340    3.2671   -0.5818 C   0  0  1  0  0  0  0  0  0  0  0  0
    4.6708    3.8604   -3.0168 C   0  0  0  0  0  0  0  0  0  0  0  0
    4.0280    2.2958   -4.7677 C   0  0  0  0  0  0  0  0  0  0  0  0
    5.7709   -1.4064    0.8544 C   0  0  0  0  0  0  0  0  0  0  0  0
    4.4938   -3.3917    0.1080 N   0  0  0  0  0  0  0  0  0  0  0  0
    4.5855    3.5263   -4.3793 C   0  0  0  0  0  0  0  0  0  0  0  0
    4.7809   -4.3244    1.0570 C   0  0  0  0  0  0  0  0  0  0  0  0
    4.2647   -5.5674    0.8423 O   0  0  0  0  0  0  0  0  0  0  0  0
    5.4266   -4.0827    2.1042 O   0  0  0  0  0  0  0  0  0  0  0  0
    4.3374   -6.6914    1.7282 C   0  0  2  0  0  0  0  0  0  0  0  0
    3.5246   -7.8646    1.1473 C   0  0  0  0  0  0  0  0  0  0  0  0
   -0.0516    0.1338   -0.3025 H   0  0  0  0  0  0  0  0  0  0  0  0
    1.0277   -1.1119   -0.8794 H   0  0  0  0  0  0  0  0  0  0  0  0
    1.2713   -2.3863    1.1258 H   0  0  0  0  0  0  0  0  0  0  0  0
    1.6081   -1.6146    2.6700 H   0  0  0  0  0  0  0  0  0  0  0  0
    0.0085   -1.4181    1.9194 H   0  0  0  0  0  0  0  0  0  0  0  0
    1.9608    1.7957    1.3478 H   0  0  0  0  0  0  0  0  0  0  0  0
    1.9969    0.7984    2.7935 H   0  0  0  0  0  0  0  0  0  0  0  0
    0.4375    1.2087    2.0468 H   0  0  0  0  0  0  0  0  0  0  0  0
    3.2585   -1.7096   -1.3217 H   0  0  0  0  0  0  0  0  0  0  0  0
    3.1265    0.5198   -4.0889 H   0  0  0  0  0  0  0  0  0  0  0  0
    6.2986    2.4734   -0.2180 H   0  0  0  0  0  0  0  0  0  0  0  0
    5.2658    2.5645    1.2004 H   0  0  0  0  0  0  0  0  0  0  0  0
    6.6720    0.4139    1.3587 H   0  0  0  0  0  0  0  0  0  0  0  0
    4.7132    4.2817   -0.4308 H   0  0  0  0  0  0  0  0  0  0  0  0
    3.3458    3.2332   -0.1182 H   0  0  0  0  0  0  0  0  0  0  0  0
    5.0712    4.7642   -2.7506 H   0  0  0  0  0  0  0  0  0  0  0  0
    3.9797    2.0506   -5.7582 H   0  0  0  0  0  0  0  0  0  0  0  0
    6.4220   -1.9399    1.4305 H   0  0  0  0  0  0  0  0  0  0  0  0
    3.9681   -3.7185   -0.6427 H   0  0  0  0  0  0  0  0  0  0  0  0
    4.9296    4.1807   -5.0860 H   0  0  0  0  0  0  0  0  0  0  0  0
    3.9176   -6.4195    2.7004 H   0  0  0  0  0  0  0  0  0  0  0  0
    5.3782   -6.9927    1.8637 H   0  0  0  0  0  0  0  0  0  0  0  0
    2.4755   -7.5794    1.0448 H   0  0  0  0  0  0  0  0  0  0  0  0
    3.5867   -8.7329    1.8077 H   0  0  0  0  0  0  0  0  0  0  0  0
    3.9088   -8.1432    0.1643 H   0  0  0  0  0  0  0  0  0  0  0  0
  1  2  1  0  0  0  0 
  1  3  2  0  0  0  0 
  1  4  1  0  0  0  0 
  2  5  1  0  0  0  0 
  4  6  1  0  0  0  0 
  4  7  1  0  0  0  0 
  5  8  1  0  0  0  0 
  5  9  1  0  0  0  0 
  6 10  2  0  0  0  0 
  6 11  1  0  0  0  0 
  7 12  2  0  0  0  0 
  7 13  1  0  0  0  0 
 10 14  1  0  0  0  0 
 10 15  1  0  0  0  0 
 11 16  2  0  0  0  0 
 12 17  1  0  0  0  0 
 12 18  1  0  0  0  0 
 13 19  2  0  0  0  0 
 14 17  1  0  0  0  0 
 15 20  2  0  0  0  0 
 16 20  1  0  0  0  0 
 16 21  1  0  0  0  0 
 18 22  2  0  0  0  0 
 19 22  1  0  0  0  0 
 21 23  1  0  0  0  0 
 23 24  1  0  0  0  0 
 23 25  2  0  0  0  0 
 24 26  1  0  0  0  0 
 26 27  1  0  0  0  0 
 28  2  1  0  0  0  0 
 29  2  1  0  0  0  0 
 30  8  1  0  0  0  0 
 31  8  1  0  0  0  0 
 32  8  1  0  0  0  0 
 33  9  1  0  0  0  0 
 34  9  1  0  0  0  0 
 35  9  1  0  0  0  0 
 36 11  1  0  0  0  0 
 37 13  1  0  0  0  0 
 38 14  1  0  0  0  0 
 39 14  1  0  0  0  0 
 40 15  1  0  0  0  0 
 41 17  1  0  0  0  0 
 42 17  1  0  0  0  0 
 43 18  1  0  0  0  0 
 44 19  1  0  0  0  0 
 45 20  1  0  0  0  0 
 46 21  1  0  0  0  0 
 47 22  1  0  0  0  0 
 48 26  1  0  0  0  0 
 49 26  1  0  0  0  0 
 50 27  1  0  0  0  0 
 51 27  1  0  0  0  0 
 52 27  1  0  0  0  0 
M  END
> <cdk:Title>
tiracizine

> <Conformer>
1

> <SuperDrugID>
SD002411

$$$$
