epalrestat
  CDK     0628171801

 34 35  0  0  0  0  0  0  0  0999 V2000
   -3.7422   -8.5713   -1.8219 C   0  0  0  0  0  0  0  0  0  0  0  0
   -4.2566   -8.9485   -3.0757 C   0  0  0  0  0  0  0  0  0  0  0  0
   -4.2702   -8.0221   -4.1336 C   0  0  0  0  0  0  0  0  0  0  0  0
   -3.7796   -6.7176   -3.9351 C   0  0  0  0  0  0  0  0  0  0  0  0
   -3.2709   -6.3187   -2.6761 C   0  0  0  0  0  0  0  0  0  0  0  0
   -3.2530   -7.2647   -1.6219 C   0  0  0  0  0  0  0  0  0  0  0  0
   -2.7714   -5.0282   -2.5223 C   0  0  0  0  0  0  0  0  0  0  0  0
   -3.2878   -4.0583   -1.7308 C   0  0  0  0  0  0  0  0  0  0  0  0
   -2.6941   -2.8282   -1.7197 C   0  0  0  0  0  0  0  0  0  0  0  0
   -4.4998   -4.2536   -0.9320 C   0  0  0  0  0  0  0  0  0  0  0  0
   -1.9786   -2.3334   -0.6920 C   0  0  0  0  0  0  0  0  0  0  0  0
   -1.3762   -1.0829   -0.5701 C   0  0  0  0  0  0  0  0  0  0  0  0
   -0.7490   -0.7877    0.6426 N   0  0  0  0  0  0  0  0  0  0  0  0
   -0.7535   -1.8062    1.5234 C   0  0  0  0  0  0  0  0  0  0  0  0
   -1.6250   -3.1253    0.8125 S   0  0  0  0  0  0  0  0  0  0  0  0
   -1.4123   -0.2560   -1.5135 O   0  0  0  0  0  0  0  0  0  0  0  0
   -0.1619    0.5099    0.9181 C   0  0  1  0  0  0  0  0  0  0  0  0
   -0.0440   -1.9170    3.0685 S   0  0  0  0  0  0  0  0  0  0  0  0
    1.1790    0.6297    0.3209 C   0  0  0  0  0  0  0  0  0  0  0  0
    2.1716   -0.1876    0.7381 O   0  0  0  0  0  0  0  0  0  0  0  0
    1.4293    1.4836   -0.5601 O   0  0  0  0  0  0  0  0  0  0  0  0
   -3.7218   -9.2506   -1.0583 H   0  0  0  0  0  0  0  0  0  0  0  0
   -4.6179   -9.8953   -3.2178 H   0  0  0  0  0  0  0  0  0  0  0  0
   -4.6364   -8.2987   -5.0473 H   0  0  0  0  0  0  0  0  0  0  0  0
   -3.8035   -6.0597   -4.7204 H   0  0  0  0  0  0  0  0  0  0  0  0
   -2.8756   -7.0160   -0.7036 H   0  0  0  0  0  0  0  0  0  0  0  0
   -1.9768   -4.8172   -3.0877 H   0  0  0  0  0  0  0  0  0  0  0  0
   -2.8136   -2.2611   -2.5273 H   0  0  0  0  0  0  0  0  0  0  0  0
   -4.8355   -3.3364   -0.4380 H   0  0  0  0  0  0  0  0  0  0  0  0
   -5.3156   -4.5916   -1.5733 H   0  0  0  0  0  0  0  0  0  0  0  0
   -4.3273   -4.9978   -0.1546 H   0  0  0  0  0  0  0  0  0  0  0  0
   -0.8169    1.3025    0.5428 H   0  0  0  0  0  0  0  0  0  0  0  0
   -0.0631    0.6948    1.9905 H   0  0  0  0  0  0  0  0  0  0  0  0
    3.0648   -0.1155    0.3427 H   0  0  0  0  0  0  0  0  0  0  0  0
  1  2  2  0  0  0  0 
  1  6  1  0  0  0  0 
  2  3  1  0  0  0  0 
  3  4  2  0  0  0  0 
  4  5  1  0  0  0  0 
  5  6  2  0  0  0  0 
  5  7  1  0  0  0  0 
  7  8  2  0  0  0  0 
  8  9  1  0  0  0  0 
  8 10  1  0  0  0  0 
  9 11  2  0  0  0  0 
 12 13  1  0  0  0  0 
 13 14  1  0  0  0  0 
 14 15  1  0  0  0  0 
 11 12  1  0  0  0  0 
 11 15  1  0  0  0  0 
 12 16  2  0  0  0  0 
 13 17  1  0  0  0  0 
 14 18  2  0  0  0  0 
 17 19  1  0  0  0  0 
 19 20  1  0  0  0  0 
 19 21  2  0  0  0  0 
  1 22  1  0  0  0  0 
  2 23  1  0  0  0  0 
  3 24  1  0  0  0  0 
  4 25  1  0  0  0  0 
  6 26  1  0  0  0  0 
  7 27  1  0  0  0  0 
  9 28  1  0  0  0  0 
 10 29  1  0  0  0  0 
 10 30  1  0  0  0  0 
 10 31  1  0  0  0  0 
 17 32  1  0  0  0  0 
 17 33  1  0  0  0  0 
 20 34  1  0  0  0  0 
M  END
> <cdk:Title>
epalrestat

> <Conformer>
1

> <SuperDrugID>
SD000908

$$$$
