serine
  CDK     0628171801

 14 13  0  0  0  0  0  0  0  0999 V2000
    0.5667   -1.8461    0.0334 C   0  0  1  0  0  0  0  0  0  0  0  0
    1.9479   -1.4396   -0.5387 C   0  0  1  0  0  0  0  0  0  0  0  0
    2.8842   -1.0405    0.5325 C   0  0  0  0  0  0  0  0  0  0  0  0
    3.2293   -1.8531    1.4212 O   0  0  0  0  0  0  0  0  0  0  0  0
    3.3907    0.2147    0.5808 O   0  0  0  0  0  0  0  0  0  0  0  0
    2.5256   -2.5524   -1.3074 N   0  0  2  0  0  0  0  0  0  0  0  0
   -0.3281   -2.1893   -1.0180 O   0  0  0  0  0  0  0  0  0  0  0  0
    0.6666   -2.7105    0.6960 H   0  0  0  0  0  0  0  0  0  0  0  0
    0.1284   -1.0189    0.5977 H   0  0  0  0  0  0  0  0  0  0  0  0
    1.8039   -0.6024   -1.2271 H   0  0  0  0  0  0  0  0  0  0  0  0
    4.0001    0.4647    1.3070 H   0  0  0  0  0  0  0  0  0  0  0  0
    3.3911   -2.2127   -1.7314 H   0  0  0  0  0  0  0  0  0  0  0  0
    1.8798   -2.7564   -2.0746 H   0  0  0  0  0  0  0  0  0  0  0  0
   -1.1508   -2.4607   -0.5600 H   0  0  0  0  0  0  0  0  0  0  0  0
  2  1  1  0  0  0  0 
  2  3  1  0  0  0  0 
  3  4  2  0  0  0  0 
  3  5  1  0  0  0  0 
  2  6  1  0  0  0  0 
  1  7  1  0  0  0  0 
  1  8  1  0  0  0  0 
  1  9  1  0  0  0  0 
  2 10  1  0  0  0  0 
  5 11  1  0  0  0  0 
  6 12  1  0  0  0  0 
  6 13  1  0  0  0  0 
  7 14  1  0  0  0  0 
M  END
> <cdk:Title>
serine

> <Conformer>
1

> <SuperDrugID>
SD003370

$$$$
