sancycline
  CDK     0628171801

 52 55  0  0  0  0  0  0  0  0999 V2000
   -1.0853   -4.4662    1.4527 O   0  0  0  0  0  0  0  0  0  0  0  0
   -0.6458   -3.3175    2.1884 C   0  0  1  0  0  0  0  0  0  0  0  0
   -1.7997   -2.8918    3.1566 C   0  0  2  0  0  0  0  0  0  0  0  0
    0.5448   -3.7762    2.9186 C   0  0  0  0  0  0  0  0  0  0  0  0
   -0.3842   -2.2289    1.2234 C   0  0  0  0  0  0  0  0  0  0  0  0
   -1.4888   -1.4974    3.8082 C   0  0  2  0  0  0  0  0  0  0  0  0
   -2.0781   -4.0390    4.1718 C   0  0  1  0  0  0  0  0  0  0  0  0
    1.7309   -3.5925    2.3355 O   0  0  0  0  0  0  0  0  0  0  0  0
    0.4788   -4.3954    4.1255 C   0  0  0  0  0  0  0  0  0  0  0  0
    0.0425   -2.5983    0.0135 O   0  0  0  0  0  0  0  0  0  0  0  0
   -0.5599   -0.9140    1.5097 C   0  0  0  0  0  0  0  0  0  0  0  0
   -2.6643   -0.9821    4.6037 N   0  0  1  0  0  0  0  0  0  0  0  0
   -0.9440   -0.5335    2.8062 C   0  0  0  0  0  0  0  0  0  0  0  0
   -0.7872   -4.5952    4.8628 C   0  0  1  0  0  0  0  0  0  0  0  0
    1.6241   -4.8910    4.7662 C   0  0  0  0  0  0  0  0  0  0  0  0
   -0.3682    0.0720    0.5344 C   0  0  0  0  0  0  0  0  0  0  0  0
   -2.3174   -0.1672    5.8075 C   0  0  0  0  0  0  0  0  0  0  0  0
   -3.8116   -0.4084    3.8344 C   0  0  0  0  0  0  0  0  0  0  0  0
   -0.7313    0.6382    3.2041 O   0  0  0  0  0  0  0  0  0  0  0  0
   -0.6640   -4.1115    6.3449 C   0  0  1  0  0  0  0  0  0  0  0  0
    2.4964   -5.4728    4.0750 O   0  0  0  0  0  0  0  0  0  0  0  0
    1.7772   -4.7830    6.1859 C   0  0  0  0  0  0  0  0  0  0  0  0
   -1.1915    1.1352    0.4301 N   0  0  0  0  0  0  0  0  0  0  0  0
    0.5669    0.0140   -0.2971 O   0  0  0  0  0  0  0  0  0  0  0  0
    0.6522   -4.4073    6.9757 C   0  0  0  0  0  0  0  0  0  0  0  0
    3.0181   -5.0135    6.8420 C   0  0  0  0  0  0  0  0  0  0  0  0
    0.7804   -4.2795    8.3781 C   0  0  0  0  0  0  0  0  0  0  0  0
    4.1581   -5.3032    6.1673 O   0  0  0  0  0  0  0  0  0  0  0  0
    3.1217   -4.9076    8.2425 C   0  0  0  0  0  0  0  0  0  0  0  0
    2.0073   -4.5347    9.0092 C   0  0  0  0  0  0  0  0  0  0  0  0
   -1.8546   -4.1605    0.9276 H   0  0  0  0  0  0  0  0  0  0  0  0
   -2.7051   -2.7843    2.5515 H   0  0  0  0  0  0  0  0  0  0  0  0
   -0.6510   -1.6586    4.4917 H   0  0  0  0  0  0  0  0  0  0  0  0
   -2.8193   -3.7173    4.9075 H   0  0  0  0  0  0  0  0  0  0  0  0
   -2.5487   -4.8610    3.6204 H   0  0  0  0  0  0  0  0  0  0  0  0
    1.7967   -4.3092    1.6699 H   0  0  0  0  0  0  0  0  0  0  0  0
   -0.7244   -3.0484   -0.3977 H   0  0  0  0  0  0  0  0  0  0  0  0
   -0.9253   -5.6822    4.9217 H   0  0  0  0  0  0  0  0  0  0  0  0
   -1.5539   -0.6624    6.4088 H   0  0  0  0  0  0  0  0  0  0  0  0
   -3.1952   -0.0434    6.4450 H   0  0  0  0  0  0  0  0  0  0  0  0
   -1.9501    0.8223    5.5269 H   0  0  0  0  0  0  0  0  0  0  0  0
   -4.1561   -1.0948    3.0620 H   0  0  0  0  0  0  0  0  0  0  0  0
   -4.6600   -0.2287    4.4975 H   0  0  0  0  0  0  0  0  0  0  0  0
   -3.5390    0.5367    3.3608 H   0  0  0  0  0  0  0  0  0  0  0  0
   -0.8284   -3.0360    6.4144 H   0  0  0  0  0  0  0  0  0  0  0  0
   -1.4514   -4.6044    6.9260 H   0  0  0  0  0  0  0  0  0  0  0  0
   -1.0482    1.7933   -0.2676 H   0  0  0  0  0  0  0  0  0  0  0  0
   -1.9328    1.2431    1.0453 H   0  0  0  0  0  0  0  0  0  0  0  0
   -0.0205   -3.9995    8.9494 H   0  0  0  0  0  0  0  0  0  0  0  0
    4.1451   -4.7044    5.3910 H   0  0  0  0  0  0  0  0  0  0  0  0
    4.0140   -5.0872    8.7094 H   0  0  0  0  0  0  0  0  0  0  0  0
    2.0905   -4.4446   10.0245 H   0  0  0  0  0  0  0  0  0  0  0  0
  2  1  1  0  0  0  0 
  3  2  1  0  0  0  0 
  2  4  1  0  0  0  0 
  2  5  1  0  0  0  0 
  3  6  1  0  0  0  0 
  3  7  1  0  0  0  0 
  4  8  1  0  0  0  0 
  4  9  2  0  0  0  0 
  5 10  1  0  0  0  0 
  5 11  2  0  0  0  0 
  6 12  1  0  0  0  0 
  6 13  1  0  0  0  0 
 14  7  1  0  0  0  0 
 14  9  1  0  0  0  0 
  9 15  1  0  0  0  0 
 11 13  1  0  0  0  0 
 11 16  1  0  0  0  0 
 12 17  1  0  0  0  0 
 12 18  1  0  0  0  0 
 13 19  2  0  0  0  0 
 14 20  1  0  0  0  0 
 15 21  2  0  0  0  0 
 15 22  1  0  0  0  0 
 16 23  1  0  0  0  0 
 16 24  2  0  0  0  0 
 20 25  1  0  0  0  0 
 22 25  2  0  0  0  0 
 22 26  1  0  0  0  0 
 25 27  1  0  0  0  0 
 26 28  1  0  0  0  0 
 26 29  2  0  0  0  0 
 27 30  2  0  0  0  0 
 29 30  1  0  0  0  0 
 31  1  1  0  0  0  0 
  3 32  1  0  0  0  0 
  6 33  1  0  0  0  0 
 34  7  1  0  0  0  0 
 35  7  1  0  0  0  0 
 36  8  1  0  0  0  0 
 37 10  1  0  0  0  0 
 14 38  1  0  0  0  0 
 39 17  1  0  0  0  0 
 40 17  1  0  0  0  0 
 41 17  1  0  0  0  0 
 42 18  1  0  0  0  0 
 43 18  1  0  0  0  0 
 44 18  1  0  0  0  0 
 45 20  1  0  0  0  0 
 46 20  1  0  0  0  0 
 47 23  1  0  0  0  0 
 48 23  1  0  0  0  0 
 49 27  1  0  0  0  0 
 50 28  1  0  0  0  0 
 51 29  1  0  0  0  0 
 52 30  1  0  0  0  0 
M  END
> <cdk:Title>
sancycline

> <Conformer>
1

> <SuperDrugID>
SD003267

$$$$
