metiazinic acid
  CDK     0628171801

 32 34  0  0  0  0  0  0  0  0999 V2000
   -2.2621    1.3333   -1.6677 C   0  0  0  0  0  0  0  0  0  0  0  0
   -1.8008    2.7094   -1.6407 N   0  0  0  0  0  0  0  0  0  0  0  0
   -2.7339    3.7353   -1.4765 C   0  0  0  0  0  0  0  0  0  0  0  0
   -3.8515    3.5928   -0.6117 C   0  0  0  0  0  0  0  0  0  0  0  0
   -4.8181    4.6083   -0.4862 C   0  0  0  0  0  0  0  0  0  0  0  0
   -4.6945    5.7936   -1.2284 C   0  0  0  0  0  0  0  0  0  0  0  0
   -3.5969    5.9653   -2.0867 C   0  0  0  0  0  0  0  0  0  0  0  0
   -2.6177    4.9575   -2.1884 C   0  0  0  0  0  0  0  0  0  0  0  0
   -1.2237    5.2348   -3.2190 S   0  0  0  0  0  0  0  0  0  0  0  0
   -0.0284    4.1070   -2.5982 C   0  0  0  0  0  0  0  0  0  0  0  0
   -0.4462    2.9767   -1.8525 C   0  0  0  0  0  0  0  0  0  0  0  0
    0.5690    2.1129   -1.3623 C   0  0  0  0  0  0  0  0  0  0  0  0
    1.9405    2.3115   -1.6546 C   0  0  0  0  0  0  0  0  0  0  0  0
    2.9616    1.3174   -1.2187 C   0  0  2  0  0  0  0  0  0  0  0  0
    2.7742    0.0251   -1.9082 C   0  0  0  0  0  0  0  0  0  0  0  0
    2.4904   -1.0982   -1.2089 O   0  0  0  0  0  0  0  0  0  0  0  0
    2.8708   -0.0572   -3.1543 O   0  0  0  0  0  0  0  0  0  0  0  0
    2.3086    3.4574   -2.3925 C   0  0  0  0  0  0  0  0  0  0  0  0
    1.3315    4.3464   -2.8670 C   0  0  0  0  0  0  0  0  0  0  0  0
   -3.2835    1.2525   -2.0429 H   0  0  0  0  0  0  0  0  0  0  0  0
   -1.6568    0.7132   -2.3322 H   0  0  0  0  0  0  0  0  0  0  0  0
   -2.2248    0.9095   -0.6632 H   0  0  0  0  0  0  0  0  0  0  0  0
   -3.9763    2.7399   -0.0631 H   0  0  0  0  0  0  0  0  0  0  0  0
   -5.6128    4.4830    0.1436 H   0  0  0  0  0  0  0  0  0  0  0  0
   -5.3986    6.5299   -1.1411 H   0  0  0  0  0  0  0  0  0  0  0  0
   -3.5149    6.8284   -2.6293 H   0  0  0  0  0  0  0  0  0  0  0  0
    0.3080    1.3085   -0.7887 H   0  0  0  0  0  0  0  0  0  0  0  0
    2.8906    1.1816   -0.1365 H   0  0  0  0  0  0  0  0  0  0  0  0
    3.9792    1.6617   -1.4293 H   0  0  0  0  0  0  0  0  0  0  0  0
    2.3600   -1.9474   -1.6802 H   0  0  0  0  0  0  0  0  0  0  0  0
    3.2916    3.6472   -2.5997 H   0  0  0  0  0  0  0  0  0  0  0  0
    1.6184    5.1616   -3.4142 H   0  0  0  0  0  0  0  0  0  0  0  0
  1  2  1  0  0  0  0 
  2  3  1  0  0  0  0 
  3  4  2  0  0  0  0 
  4  5  1  0  0  0  0 
  5  6  2  0  0  0  0 
  6  7  1  0  0  0  0 
  7  8  2  0  0  0  0 
  3  8  1  0  0  0  0 
  8  9  1  0  0  0  0 
  9 10  1  0  0  0  0 
 10 11  2  0  0  0  0 
  2 11  1  0  0  0  0 
 11 12  1  0  0  0  0 
 12 13  2  0  0  0  0 
 13 14  1  0  0  0  0 
 14 15  1  0  0  0  0 
 15 16  1  0  0  0  0 
 15 17  2  0  0  0  0 
 13 18  1  0  0  0  0 
 18 19  2  0  0  0  0 
 10 19  1  0  0  0  0 
  1 20  1  0  0  0  0 
  1 21  1  0  0  0  0 
  1 22  1  0  0  0  0 
  4 23  1  0  0  0  0 
  5 24  1  0  0  0  0 
  6 25  1  0  0  0  0 
  7 26  1  0  0  0  0 
 12 27  1  0  0  0  0 
 14 28  1  0  0  0  0 
 14 29  1  0  0  0  0 
 16 30  1  0  0  0  0 
 18 31  1  0  0  0  0 
 19 32  1  0  0  0  0 
M  END
> <cdk:Title>
metiazinic acid

> <Conformer>
1

> <SuperDrugID>
SD001576

$$$$
