salicylanilide
  CDK     0628171801

 27 28  0  0  0  0  0  0  0  0999 V2000
   -0.0743   -2.3566    0.7805 C   0  0  0  0  0  0  0  0  0  0  0  0
   -0.4721   -1.1804    0.1942 N   0  0  0  0  0  0  0  0  0  0  0  0
    1.1400   -2.6677    0.7908 O   0  0  0  0  0  0  0  0  0  0  0  0
   -1.0331   -3.2320    1.3867 C   0  0  0  0  0  0  0  0  0  0  0  0
    0.2426   -0.2601   -0.5257 C   0  0  0  0  0  0  0  0  0  0  0  0
   -0.6720   -4.2587    2.3091 C   0  0  0  0  0  0  0  0  0  0  0  0
   -2.4082   -3.1134    1.0486 C   0  0  0  0  0  0  0  0  0  0  0  0
    1.4412   -0.5269   -1.2328 C   0  0  0  0  0  0  0  0  0  0  0  0
   -0.3004    1.0439   -0.5963 C   0  0  0  0  0  0  0  0  0  0  0  0
    0.6027   -4.4688    2.7330 O   0  0  0  0  0  0  0  0  0  0  0  0
   -1.6492   -5.1270    2.8399 C   0  0  0  0  0  0  0  0  0  0  0  0
   -3.3790   -3.9710    1.5923 C   0  0  0  0  0  0  0  0  0  0  0  0
    2.0968    0.4935   -1.9494 C   0  0  0  0  0  0  0  0  0  0  0  0
    0.3479    2.0614   -1.3199 C   0  0  0  0  0  0  0  0  0  0  0  0
   -3.0003   -4.9853    2.4834 C   0  0  0  0  0  0  0  0  0  0  0  0
    1.5559    1.7901   -1.9846 C   0  0  0  0  0  0  0  0  0  0  0  0
   -1.4069   -0.9542    0.3159 H   0  0  0  0  0  0  0  0  0  0  0  0
   -2.7322   -2.4063    0.3858 H   0  0  0  0  0  0  0  0  0  0  0  0
    1.8402   -1.4655   -1.2523 H   0  0  0  0  0  0  0  0  0  0  0  0
   -1.1760    1.2663   -0.1146 H   0  0  0  0  0  0  0  0  0  0  0  0
    1.0236   -3.5861    2.7707 H   0  0  0  0  0  0  0  0  0  0  0  0
   -1.3816   -5.8690    3.4913 H   0  0  0  0  0  0  0  0  0  0  0  0
   -4.3615   -3.8577    1.3351 H   0  0  0  0  0  0  0  0  0  0  0  0
    2.9646    0.2947   -2.4507 H   0  0  0  0  0  0  0  0  0  0  0  0
   -0.0604    2.9965   -1.3635 H   0  0  0  0  0  0  0  0  0  0  0  0
   -3.7066   -5.6169    2.8702 H   0  0  0  0  0  0  0  0  0  0  0  0
    2.0350    2.5312   -2.4998 H   0  0  0  0  0  0  0  0  0  0  0  0
  1  2  1  0  0  0  0 
  1  3  2  0  0  0  0 
  1  4  1  0  0  0  0 
  2  5  1  0  0  0  0 
  4  6  2  0  0  0  0 
  4  7  1  0  0  0  0 
  5  8  2  0  0  0  0 
  5  9  1  0  0  0  0 
  6 10  1  0  0  0  0 
  6 11  1  0  0  0  0 
  7 12  2  0  0  0  0 
  8 13  1  0  0  0  0 
  9 14  2  0  0  0  0 
 11 15  2  0  0  0  0 
 12 15  1  0  0  0  0 
 13 16  2  0  0  0  0 
 14 16  1  0  0  0  0 
  2 17  1  0  0  0  0 
  7 18  1  0  0  0  0 
  8 19  1  0  0  0  0 
  9 20  1  0  0  0  0 
 10 21  1  0  0  0  0 
 11 22  1  0  0  0  0 
 12 23  1  0  0  0  0 
 13 24  1  0  0  0  0 
 14 25  1  0  0  0  0 
 15 26  1  0  0  0  0 
 16 27  1  0  0  0  0 
M  END
> <cdk:Title>
salicylanilide

> <Conformer>
1

> <SuperDrugID>
SD003046

$$$$
