brovanexine
  CDK     0628171801

 60 62  0  0  0  0  0  0  0  0999 V2000
    5.2506   -1.4472    6.9890 C   0  0  1  0  0  0  0  0  0  0  0  0
    4.2967   -1.7352    8.1267 N   0  0  1  0  0  0  0  0  0  0  0  0
    4.7992   -1.7448    5.5905 C   0  0  0  0  0  0  0  0  0  0  0  0
    5.0406   -2.1585    9.3631 C   0  0  0  0  0  0  0  0  0  0  0  0
    3.2118   -0.7020    8.4016 C   0  0  2  0  0  0  0  0  0  0  0  0
    3.8637   -2.7632    5.2375 C   0  0  0  0  0  0  0  0  0  0  0  0
    5.3642   -0.9651    4.5498 C   0  0  0  0  0  0  0  0  0  0  0  0
    2.1585   -1.2087    9.4515 C   0  0  1  0  0  0  0  0  0  0  0  0
    2.4388   -0.2196    7.1251 C   0  0  2  0  0  0  0  0  0  0  0  0
    3.2087   -3.5136    6.1648 N   0  0  0  0  0  0  0  0  0  0  0  0
    3.5029   -2.9546    3.8812 C   0  0  0  0  0  0  0  0  0  0  0  0
    5.0136   -1.1695    3.2060 C   0  0  0  0  0  0  0  0  0  0  0  0
    1.0037   -0.2138    9.7375 C   0  0  2  0  0  0  0  0  0  0  0  0
    1.3003    0.7958    7.4249 C   0  0  2  0  0  0  0  0  0  0  0  0
    3.7302   -4.4564    7.0008 C   0  0  0  0  0  0  0  0  0  0  0  0
    2.2481   -4.2341    3.3623 Br  0  0  0  0  0  0  0  0  0  0  0  0
    4.0871   -2.1682    2.8726 C   0  0  0  0  0  0  0  0  0  0  0  0
    5.7644   -0.1079    1.8749 Br  0  0  0  0  0  0  0  0  0  0  0  0
    0.2850    0.2290    8.4438 C   0  0  2  0  0  0  0  0  0  0  0  0
    4.9348   -4.7923    6.8919 O   0  0  0  0  0  0  0  0  0  0  0  0
    2.9187   -4.9884    8.0458 C   0  0  0  0  0  0  0  0  0  0  0  0
    1.5032   -4.9699    7.9671 C   0  0  0  0  0  0  0  0  0  0  0  0
    3.5037   -5.5068    9.2263 C   0  0  0  0  0  0  0  0  0  0  0  0
    0.7025   -5.3699    9.0570 C   0  0  0  0  0  0  0  0  0  0  0  0
    2.7084   -5.9210   10.3104 C   0  0  0  0  0  0  0  0  0  0  0  0
   -0.6634   -5.3069    8.9692 O   0  0  0  0  0  0  0  0  0  0  0  0
    1.3011   -5.8251   10.2512 C   0  0  0  0  0  0  0  0  0  0  0  0
   -1.1821   -3.9926    9.2472 C   0  0  0  0  0  0  0  0  0  0  0  0
    0.4627   -6.1479   11.2911 O   0  0  0  0  0  0  0  0  0  0  0  0
    0.6728   -6.1755   12.6447 C   0  0  0  0  0  0  0  0  0  0  0  0
   -0.3982   -6.6539   13.5319 C   0  0  0  0  0  0  0  0  0  0  0  0
    1.7327   -5.7548   13.1649 O   0  0  0  0  0  0  0  0  0  0  0  0
    5.5626   -0.4027    7.0814 H   0  0  0  0  0  0  0  0  0  0  0  0
    6.1678   -2.0369    7.0784 H   0  0  0  0  0  0  0  0  0  0  0  0
    5.5475   -1.2521    9.8202 H   0  0  0  0  0  0  0  0  0  0  0  0
    4.3489   -2.7706   10.0151 H   0  0  0  0  0  0  0  0  0  0  0  0
    5.8361   -2.8635    9.1192 H   0  0  0  0  0  0  0  0  0  0  0  0
    3.6980    0.1842    8.8238 H   0  0  0  0  0  0  0  0  0  0  0  0
    6.0408   -0.2298    4.7640 H   0  0  0  0  0  0  0  0  0  0  0  0
    1.7357   -2.1578    9.1086 H   0  0  0  0  0  0  0  0  0  0  0  0
    2.6375   -1.3807   10.4169 H   0  0  0  0  0  0  0  0  0  0  0  0
    1.9998   -1.0793    6.6144 H   0  0  0  0  0  0  0  0  0  0  0  0
    3.1277    0.2718    6.4351 H   0  0  0  0  0  0  0  0  0  0  0  0
    2.2590   -3.3414    6.2418 H   0  0  0  0  0  0  0  0  0  0  0  0
    1.4002    0.6704   10.2455 H   0  0  0  0  0  0  0  0  0  0  0  0
    0.2776   -0.6853   10.4060 H   0  0  0  0  0  0  0  0  0  0  0  0
    0.7722    1.0444    6.4994 H   0  0  0  0  0  0  0  0  0  0  0  0
    1.7298    1.7224    7.8173 H   0  0  0  0  0  0  0  0  0  0  0  0
    3.8349   -2.3178    1.8925 H   0  0  0  0  0  0  0  0  0  0  0  0
   -0.4602    0.9935    8.6811 H   0  0  0  0  0  0  0  0  0  0  0  0
   -0.2383   -0.6246    8.0069 H   0  0  0  0  0  0  0  0  0  0  0  0
    1.0312   -4.6455    7.1197 H   0  0  0  0  0  0  0  0  0  0  0  0
    4.5215   -5.5629    9.3243 H   0  0  0  0  0  0  0  0  0  0  0  0
    3.1699   -6.2883   11.1433 H   0  0  0  0  0  0  0  0  0  0  0  0
   -0.7923   -3.5791   10.1834 H   0  0  0  0  0  0  0  0  0  0  0  0
   -0.9598   -3.3048    8.4270 H   0  0  0  0  0  0  0  0  0  0  0  0
   -2.2649   -4.0741    9.3396 H   0  0  0  0  0  0  0  0  0  0  0  0
   -0.7155   -5.8443   14.1927 H   0  0  0  0  0  0  0  0  0  0  0  0
   -1.2615   -6.9958   12.9560 H   0  0  0  0  0  0  0  0  0  0  0  0
   -0.0281   -7.4847   14.1360 H   0  0  0  0  0  0  0  0  0  0  0  0
  1  2  1  0  0  0  0 
  1  3  1  0  0  0  0 
  2  4  1  0  0  0  0 
  2  5  1  0  0  0  0 
  3  6  2  0  0  0  0 
  3  7  1  0  0  0  0 
  5  8  1  0  0  0  0 
  5  9  1  0  0  0  0 
  6 10  1  0  0  0  0 
  6 11  1  0  0  0  0 
  7 12  2  0  0  0  0 
  8 13  1  0  0  0  0 
  9 14  1  0  0  0  0 
 10 15  1  0  0  0  0 
 11 16  1  0  0  0  0 
 11 17  2  0  0  0  0 
 12 17  1  0  0  0  0 
 12 18  1  0  0  0  0 
 13 19  1  0  0  0  0 
 14 19  1  0  0  0  0 
 15 20  2  0  0  0  0 
 15 21  1  0  0  0  0 
 21 22  2  0  0  0  0 
 21 23  1  0  0  0  0 
 22 24  1  0  0  0  0 
 23 25  2  0  0  0  0 
 24 26  1  0  0  0  0 
 24 27  2  0  0  0  0 
 25 27  1  0  0  0  0 
 26 28  1  0  0  0  0 
 27 29  1  0  0  0  0 
 29 30  1  0  0  0  0 
 30 31  1  0  0  0  0 
 30 32  2  0  0  0  0 
  1 33  1  0  0  0  0 
  1 34  1  0  0  0  0 
  4 35  1  0  0  0  0 
  4 36  1  0  0  0  0 
  4 37  1  0  0  0  0 
  5 38  1  0  0  0  0 
  7 39  1  0  0  0  0 
  8 40  1  0  0  0  0 
  8 41  1  0  0  0  0 
  9 42  1  0  0  0  0 
  9 43  1  0  0  0  0 
 10 44  1  0  0  0  0 
 13 45  1  0  0  0  0 
 13 46  1  0  0  0  0 
 14 47  1  0  0  0  0 
 14 48  1  0  0  0  0 
 17 49  1  0  0  0  0 
 19 50  1  0  0  0  0 
 19 51  1  0  0  0  0 
 22 52  1  0  0  0  0 
 23 53  1  0  0  0  0 
 25 54  1  0  0  0  0 
 28 55  1  0  0  0  0 
 28 56  1  0  0  0  0 
 28 57  1  0  0  0  0 
 31 58  1  0  0  0  0 
 31 59  1  0  0  0  0 
 31 60  1  0  0  0  0 
M  END
> <cdk:Title>
brovanexine

> <Conformer>
1

> <SuperDrugID>
SD000352

$$$$
