candesartan cilexetil
  CDK     0628171802

 79 84  0  0  0  0  0  0  0  0999 V2000
   -0.7645    2.9345   -0.0109 C   0  0  2  0  0  0  0  0  0  0  0  0
    0.2225    2.8332   -1.0609 N   0  0  0  0  0  0  0  0  0  0  0  0
   -0.9494    4.3592    0.3973 C   0  0  0  0  0  0  0  0  0  0  0  0
    0.1773    3.3302   -2.3211 C   0  0  0  0  0  0  0  0  0  0  0  0
    1.4660    2.3187   -0.8924 C   0  0  0  0  0  0  0  0  0  0  0  0
   -2.2279    4.9586    0.3987 C   0  0  0  0  0  0  0  0  0  0  0  0
    0.1591    5.1488    0.7916 C   0  0  0  0  0  0  0  0  0  0  0  0
    1.4804    3.2455   -2.8160 C   0  0  0  0  0  0  0  0  0  0  0  0
   -0.8546    3.8903   -3.1212 C   0  0  0  0  0  0  0  0  0  0  0  0
    1.9065    1.6678    0.2275 O   0  0  0  0  0  0  0  0  0  0  0  0
    2.2545    2.5839   -1.9480 N   0  0  0  0  0  0  0  0  0  0  0  0
   -2.3927    6.3208    0.7083 C   0  0  0  0  0  0  0  0  0  0  0  0
   -0.0010    6.5077    1.1249 C   0  0  0  0  0  0  0  0  0  0  0  0
    1.8438    3.8165   -4.0441 C   0  0  0  0  0  0  0  0  0  0  0  0
   -2.2235    3.6924   -2.8514 C   0  0  0  0  0  0  0  0  0  0  0  0
   -0.4759    4.5468   -4.3183 C   0  0  0  0  0  0  0  0  0  0  0  0
    1.6318    0.2532    0.1766 C   0  0  1  0  0  0  0  0  0  0  0  0
   -1.2762    7.1117    1.0583 C   0  0  0  0  0  0  0  0  0  0  0  0
    0.8604    4.5121   -4.7720 C   0  0  0  0  0  0  0  0  0  0  0  0
   -3.1259    4.7176   -2.9001 O   0  0  0  0  0  0  0  0  0  0  0  0
   -2.6043    2.5168   -2.6490 O   0  0  0  0  0  0  0  0  0  0  0  0
    1.7927   -0.3534    1.5836 C   0  0  0  0  0  0  0  0  0  0  0  0
   -1.4464    8.4907    1.3414 C   0  0  0  0  0  0  0  0  0  0  0  0
   -4.5574    4.6249   -2.7445 C   0  0  1  0  0  0  0  0  0  0  0  0
   -1.3563    9.5157    0.3494 C   0  0  0  0  0  0  0  0  0  0  0  0
   -1.7680    8.8315    2.6763 C   0  0  0  0  0  0  0  0  0  0  0  0
   -4.8979    4.0521   -1.4683 O   0  0  0  0  0  0  0  0  0  0  0  0
   -5.1280    6.0531   -2.8371 C   0  0  0  0  0  0  0  0  0  0  0  0
   -1.6404   10.8515    0.7354 C   0  0  0  0  0  0  0  0  0  0  0  0
   -1.0112    9.2721   -1.0109 C   0  0  0  0  0  0  0  0  0  0  0  0
   -2.0259   10.1649    3.0344 C   0  0  0  0  0  0  0  0  0  0  0  0
   -5.1777    2.7469   -1.1736 C   0  0  0  0  0  0  0  0  0  0  0  0
   -1.9708   11.1742    2.0620 C   0  0  0  0  0  0  0  0  0  0  0  0
   -0.3780    8.2149   -1.5319 N   0  0  0  0  0  0  0  0  0  0  0  0
   -1.2517   10.0796   -2.0558 N   0  0  0  0  0  0  0  0  0  0  0  0
   -5.3303    2.3863    0.1772 O   0  0  0  0  0  0  0  0  0  0  0  0
   -5.3062    1.8714   -2.0601 O   0  0  0  0  0  0  0  0  0  0  0  0
   -0.2570    8.3663   -2.8048 N   0  0  0  0  0  0  0  0  0  0  0  0
   -0.7902    9.5021   -3.1177 N   0  0  0  0  0  0  0  0  0  0  0  0
   -5.4753    1.0994    0.8947 C   0  0  2  0  0  0  0  0  0  0  0  0
   -5.9547    1.4126    2.4082 C   0  0  1  0  0  0  0  0  0  0  0  0
   -4.0406    0.3463    0.8774 C   0  0  2  0  0  0  0  0  0  0  0  0
   -5.9429    0.1027    3.2427 C   0  0  2  0  0  0  0  0  0  0  0  0
   -4.1218   -0.9305    1.7569 C   0  0  2  0  0  0  0  0  0  0  0  0
   -4.5636   -0.6061    3.2067 C   0  0  2  0  0  0  0  0  0  0  0  0
   -0.4530    2.3854    0.8817 H   0  0  0  0  0  0  0  0  0  0  0  0
   -1.6978    2.4702   -0.3292 H   0  0  0  0  0  0  0  0  0  0  0  0
   -3.0502    4.4023    0.1749 H   0  0  0  0  0  0  0  0  0  0  0  0
    1.0971    4.7405    0.8265 H   0  0  0  0  0  0  0  0  0  0  0  0
   -3.3325    6.7294    0.6773 H   0  0  0  0  0  0  0  0  0  0  0  0
    0.8189    7.0565    1.4009 H   0  0  0  0  0  0  0  0  0  0  0  0
    2.8017    3.7481   -4.3897 H   0  0  0  0  0  0  0  0  0  0  0  0
   -1.1763    5.0287   -4.8879 H   0  0  0  0  0  0  0  0  0  0  0  0
    0.6079    0.0426   -0.1604 H   0  0  0  0  0  0  0  0  0  0  0  0
    2.3377   -0.2322   -0.5032 H   0  0  0  0  0  0  0  0  0  0  0  0
    1.1110    4.9751   -5.6465 H   0  0  0  0  0  0  0  0  0  0  0  0
    1.1144    0.1402    2.2829 H   0  0  0  0  0  0  0  0  0  0  0  0
    1.5546   -1.4189    1.5587 H   0  0  0  0  0  0  0  0  0  0  0  0
    2.8194   -0.2329    1.9359 H   0  0  0  0  0  0  0  0  0  0  0  0
   -4.9757    4.0306   -3.5635 H   0  0  0  0  0  0  0  0  0  0  0  0
   -1.8294    8.1100    3.4018 H   0  0  0  0  0  0  0  0  0  0  0  0
   -6.2150    6.0373   -2.7413 H   0  0  0  0  0  0  0  0  0  0  0  0
   -4.7122    6.6738   -2.0419 H   0  0  0  0  0  0  0  0  0  0  0  0
   -4.8664    6.4936   -3.8019 H   0  0  0  0  0  0  0  0  0  0  0  0
   -1.6054   11.6163    0.0542 H   0  0  0  0  0  0  0  0  0  0  0  0
   -2.2618   10.4002    4.0019 H   0  0  0  0  0  0  0  0  0  0  0  0
   -2.1705   12.1447    2.3197 H   0  0  0  0  0  0  0  0  0  0  0  0
   -0.0498    7.4536   -1.0341 H   0  0  0  0  0  0  0  0  0  0  0  0
   -6.2284    0.4829    0.3943 H   0  0  0  0  0  0  0  0  0  0  0  0
   -5.3148    2.1416    2.9735 H   0  0  0  0  0  0  0  0  0  0  0  0
   -6.9925    1.8319    2.5043 H   0  0  0  0  0  0  0  0  0  0  0  0
   -3.1805    0.9466    1.2817 H   0  0  0  0  0  0  0  0  0  0  0  0
   -3.6848    0.0072   -0.1320 H   0  0  0  0  0  0  0  0  0  0  0  0
   -6.7118   -0.5774    2.8622 H   0  0  0  0  0  0  0  0  0  0  0  0
   -6.1969    0.3307    4.2828 H   0  0  0  0  0  0  0  0  0  0  0  0
   -3.1416   -1.4190    1.7861 H   0  0  0  0  0  0  0  0  0  0  0  0
   -4.8292   -1.6361    1.3106 H   0  0  0  0  0  0  0  0  0  0  0  0
   -4.6212   -1.5371    3.7765 H   0  0  0  0  0  0  0  0  0  0  0  0
   -3.8124    0.0318    3.6824 H   0  0  0  0  0  0  0  0  0  0  0  0
  1  2  1  0  0  0  0 
  1  3  1  0  0  0  0 
  2  4  1  0  0  0  0 
  2  5  1  0  0  0  0 
  3  6  2  0  0  0  0 
  3  7  1  0  0  0  0 
  4  8  1  0  0  0  0 
  4  9  2  0  0  0  0 
  5 10  1  0  0  0  0 
  5 11  2  0  0  0  0 
  6 12  1  0  0  0  0 
  7 13  2  0  0  0  0 
  8 11  1  0  0  0  0 
  8 14  2  0  0  0  0 
  9 15  1  0  0  0  0 
  9 16  1  0  0  0  0 
 10 17  1  0  0  0  0 
 12 18  2  0  0  0  0 
 13 18  1  0  0  0  0 
 14 19  1  0  0  0  0 
 15 20  1  0  0  0  0 
 15 21  2  0  0  0  0 
 16 19  2  0  0  0  0 
 17 22  1  0  0  0  0 
 18 23  1  0  0  0  0 
 24 20  1  0  0  0  0 
 23 25  2  0  0  0  0 
 23 26  1  0  0  0  0 
 24 27  1  0  0  0  0 
 24 28  1  0  0  0  0 
 25 29  1  0  0  0  0 
 25 30  1  0  0  0  0 
 26 31  2  0  0  0  0 
 27 32  1  0  0  0  0 
 29 33  2  0  0  0  0 
 30 34  1  0  0  0  0 
 30 35  2  0  0  0  0 
 31 33  1  0  0  0  0 
 32 36  1  0  0  0  0 
 32 37  2  0  0  0  0 
 34 38  1  0  0  0  0 
 35 39  1  0  0  0  0 
 36 40  1  0  0  0  0 
 38 39  2  0  0  0  0 
 40 41  1  0  0  0  0 
 40 42  1  0  0  0  0 
 41 43  1  0  0  0  0 
 42 44  1  0  0  0  0 
 43 45  1  0  0  0  0 
 44 45  1  0  0  0  0 
 46  1  1  0  0  0  0 
 47  1  1  0  0  0  0 
 48  6  1  0  0  0  0 
 49  7  1  0  0  0  0 
 50 12  1  0  0  0  0 
 51 13  1  0  0  0  0 
 52 14  1  0  0  0  0 
 53 16  1  0  0  0  0 
 54 17  1  0  0  0  0 
 55 17  1  0  0  0  0 
 56 19  1  0  0  0  0 
 57 22  1  0  0  0  0 
 58 22  1  0  0  0  0 
 59 22  1  0  0  0  0 
 60 24  1  0  0  0  0 
 61 26  1  0  0  0  0 
 62 28  1  0  0  0  0 
 63 28  1  0  0  0  0 
 64 28  1  0  0  0  0 
 65 29  1  0  0  0  0 
 66 31  1  0  0  0  0 
 67 33  1  0  0  0  0 
 68 34  1  0  0  0  0 
 69 40  1  0  0  0  0 
 70 41  1  0  0  0  0 
 71 41  1  0  0  0  0 
 72 42  1  0  0  0  0 
 73 42  1  0  0  0  0 
 74 43  1  0  0  0  0 
 75 43  1  0  0  0  0 
 76 44  1  0  0  0  0 
 77 44  1  0  0  0  0 
 78 45  1  0  0  0  0 
 79 45  1  0  0  0  0 
M  END
> <cdk:Title>
candesartan cilexetil

> <Conformer>
1

> <SuperDrugID>
SD000412

$$$$
