bropirimine
  CDK     0628171801

 23 24  0  0  0  0  0  0  0  0999 V2000
    0.6040   -1.9315   -2.5529 Br  0  0  0  0  0  0  0  0  0  0  0  0
   -0.5416   -2.2018   -1.1016 C   0  0  0  0  0  0  0  0  0  0  0  0
   -0.7350   -1.2288   -0.0898 C   0  0  0  0  0  0  0  0  0  0  0  0
   -1.2713   -3.4042   -0.9994 C   0  0  0  0  0  0  0  0  0  0  0  0
   -1.6366   -1.4788    0.8996 N   0  0  0  0  0  0  0  0  0  0  0  0
   -0.0245   -0.0058   -0.0452 C   0  0  0  0  0  0  0  0  0  0  0  0
   -1.1393   -4.3163   -1.8461 O   0  0  0  0  0  0  0  0  0  0  0  0
   -2.1417   -3.5930    0.0241 N   0  0  0  0  0  0  0  0  0  0  0  0
   -2.3371   -2.6382    0.9660 C   0  0  0  0  0  0  0  0  0  0  0  0
    1.3909    0.0020   -0.0008 C   0  0  0  0  0  0  0  0  0  0  0  0
   -0.7129    1.2312   -0.0224 C   0  0  0  0  0  0  0  0  0  0  0  0
   -3.2188   -2.8409    1.9587 N   0  0  0  0  0  0  0  0  0  0  0  0
    2.1021    1.2150    0.0389 C   0  0  0  0  0  0  0  0  0  0  0  0
    0.0006    2.4445    0.0215 C   0  0  0  0  0  0  0  0  0  0  0  0
    1.4068    2.4365    0.0501 C   0  0  0  0  0  0  0  0  0  0  0  0
   -2.6342   -4.4263    0.0835 H   0  0  0  0  0  0  0  0  0  0  0  0
    1.9165   -0.8769    0.0115 H   0  0  0  0  0  0  0  0  0  0  0  0
   -1.7363    1.2595   -0.0419 H   0  0  0  0  0  0  0  0  0  0  0  0
   -3.7231   -3.6690    2.0018 H   0  0  0  0  0  0  0  0  0  0  0  0
   -3.3576   -2.1559    2.6321 H   0  0  0  0  0  0  0  0  0  0  0  0
    3.1247    1.2052    0.0646 H   0  0  0  0  0  0  0  0  0  0  0  0
   -0.5037    3.3338    0.0345 H   0  0  0  0  0  0  0  0  0  0  0  0
    1.9242    3.3166    0.0838 H   0  0  0  0  0  0  0  0  0  0  0  0
  1  2  1  0  0  0  0 
  2  3  2  0  0  0  0 
  2  4  1  0  0  0  0 
  3  5  1  0  0  0  0 
  3  6  1  0  0  0  0 
  4  7  2  0  0  0  0 
  4  8  1  0  0  0  0 
  5  9  2  0  0  0  0 
  6 10  2  0  0  0  0 
  6 11  1  0  0  0  0 
  8  9  1  0  0  0  0 
  9 12  1  0  0  0  0 
 10 13  1  0  0  0  0 
 11 14  2  0  0  0  0 
 13 15  2  0  0  0  0 
 14 15  1  0  0  0  0 
 16  8  1  0  0  0  0 
 17 10  1  0  0  0  0 
 18 11  1  0  0  0  0 
 19 12  1  0  0  0  0 
 20 12  1  0  0  0  0 
 21 13  1  0  0  0  0 
 22 14  1  0  0  0  0 
 23 15  1  0  0  0  0 
M  END
> <cdk:Title>
bropirimine

> <Conformer>
1

> <SuperDrugID>
SD003154

$$$$
