tolcapone
  CDK     0628171801

 31 32  0  0  0  0  0  0  0  0999 V2000
    2.8708    7.5812    0.8217 C   0  0  0  0  0  0  0  0  0  0  0  0
    1.7876    6.5722    0.7571 C   0  0  0  0  0  0  0  0  0  0  0  0
    0.8090    6.5257    1.7743 C   0  0  0  0  0  0  0  0  0  0  0  0
   -0.2330    5.5795    1.7266 C   0  0  0  0  0  0  0  0  0  0  0  0
   -0.3316    4.6559    0.6579 C   0  0  0  0  0  0  0  0  0  0  0  0
    0.6438    4.7218   -0.3668 C   0  0  0  0  0  0  0  0  0  0  0  0
    1.6979    5.6500   -0.3090 C   0  0  0  0  0  0  0  0  0  0  0  0
   -1.3888    3.6970    0.6043 C   0  0  0  0  0  0  0  0  0  0  0  0
   -2.5176    4.0548    1.0195 O   0  0  0  0  0  0  0  0  0  0  0  0
   -1.2455    2.3629    0.1072 C   0  0  0  0  0  0  0  0  0  0  0  0
   -0.0380    1.6406    0.2663 C   0  0  0  0  0  0  0  0  0  0  0  0
    0.1429    0.3257   -0.2395 C   0  0  0  0  0  0  0  0  0  0  0  0
   -0.9582   -0.2810   -0.9050 C   0  0  0  0  0  0  0  0  0  0  0  0
   -0.8399   -1.5300   -1.4359 O   0  0  0  0  0  0  0  0  0  0  0  0
   -2.1858    0.4040   -1.0358 C   0  0  0  0  0  0  0  0  0  0  0  0
   -3.2615   -0.1691   -1.6348 O   0  0  0  0  0  0  0  0  0  0  0  0
   -2.3194    1.7138   -0.5433 C   0  0  0  0  0  0  0  0  0  0  0  0
    1.3295   -0.2976   -0.0791 N   0  0  0  0  0  0  0  0  0  0  0  0
    2.3934    0.3196    0.2431 O   0  0  0  0  0  0  0  0  0  0  0  0
    1.4758   -1.4491   -0.2142 O   0  0  0  0  0  0  0  0  0  0  0  0
    3.5716    7.4919   -0.0105 H   0  0  0  0  0  0  0  0  0  0  0  0
    3.4294    7.4677    1.7525 H   0  0  0  0  0  0  0  0  0  0  0  0
    2.4398    8.5832    0.7896 H   0  0  0  0  0  0  0  0  0  0  0  0
    0.8511    7.1817    2.5587 H   0  0  0  0  0  0  0  0  0  0  0  0
   -0.9165    5.5714    2.4897 H   0  0  0  0  0  0  0  0  0  0  0  0
    0.5936    4.0964   -1.1737 H   0  0  0  0  0  0  0  0  0  0  0  0
    2.3951    5.6493   -1.0569 H   0  0  0  0  0  0  0  0  0  0  0  0
    0.7307    2.0833    0.7761 H   0  0  0  0  0  0  0  0  0  0  0  0
   -1.5556   -1.6255   -2.0960 H   0  0  0  0  0  0  0  0  0  0  0  0
   -3.1430   -1.1367   -1.5320 H   0  0  0  0  0  0  0  0  0  0  0  0
   -3.2159    2.1923   -0.6696 H   0  0  0  0  0  0  0  0  0  0  0  0
  1  2  1  0  0  0  0 
  2  3  2  0  0  0  0 
  3  4  1  0  0  0  0 
  4  5  2  0  0  0  0 
  5  6  1  0  0  0  0 
  6  7  2  0  0  0  0 
  2  7  1  0  0  0  0 
  5  8  1  0  0  0  0 
  8  9  2  0  0  0  0 
  8 10  1  0  0  0  0 
 10 11  2  0  0  0  0 
 11 12  1  0  0  0  0 
 12 13  2  0  0  0  0 
 13 14  1  0  0  0  0 
 13 15  1  0  0  0  0 
 15 16  1  0  0  0  0 
 15 17  2  0  0  0  0 
 10 17  1  0  0  0  0 
 12 18  1  0  0  0  0 
 18 19  1  0  0  0  0 
 18 20  2  0  0  0  0 
  1 21  1  0  0  0  0 
  1 22  1  0  0  0  0 
  1 23  1  0  0  0  0 
  3 24  1  0  0  0  0 
  4 25  1  0  0  0  0 
  6 26  1  0  0  0  0 
  7 27  1  0  0  0  0 
 11 28  1  0  0  0  0 
 14 29  1  0  0  0  0 
 16 30  1  0  0  0  0 
 17 31  1  0  0  0  0 
M  CHG  1  18   1
M  CHG  1  19  -1
M  END
> <cdk:Title>
tolcapone

> <Conformer>
1

> <SuperDrugID>
SD002428

$$$$
