novobiocin
  CDK     0628171801

 80 83  0  0  0  0  0  0  0  0999 V2000
   -0.8613    6.5782   -4.4375 C   0  0  0  0  0  0  0  0  0  0  0  0
   -0.3281    5.4272   -3.6563 C   0  0  0  0  0  0  0  0  0  0  0  0
   -0.9474    4.1608   -3.7899 C   0  0  0  0  0  0  0  0  0  0  0  0
    0.7645    5.5502   -2.7594 C   0  0  0  0  0  0  0  0  0  0  0  0
   -0.5149    3.0305   -3.0484 C   0  0  0  0  0  0  0  0  0  0  0  0
   -2.0105    4.0213   -4.6280 O   0  0  0  0  0  0  0  0  0  0  0  0
    1.3866    6.7511   -2.5363 O   0  0  0  0  0  0  0  0  0  0  0  0
    1.1958    4.4343   -2.0135 C   0  0  0  0  0  0  0  0  0  0  0  0
   -1.2139    1.7753   -3.1914 C   0  0  0  0  0  0  0  0  0  0  0  0
    0.5717    3.1832   -2.1622 C   0  0  0  0  0  0  0  0  0  0  0  0
   -2.7117    2.8696   -4.7770 C   0  0  0  0  0  0  0  0  0  0  0  0
    2.4715    7.0601   -3.4381 C   0  0  1  0  0  0  0  0  0  0  0  0
   -0.8959    0.5703   -2.5477 O   0  0  0  0  0  0  0  0  0  0  0  0
   -2.3427    1.7156   -4.0468 C   0  0  0  0  0  0  0  0  0  0  0  0
   -3.7020    2.9197   -5.5411 O   0  0  0  0  0  0  0  0  0  0  0  0
    2.9033    8.5220   -3.1500 C   0  0  2  0  0  0  0  0  0  0  0  0
    3.5819    6.1557   -3.2209 O   0  0  0  0  0  0  0  0  0  0  0  0
   -3.1207    0.5893   -4.0644 N   0  0  0  0  0  0  0  0  0  0  0  0
    1.8110    9.4097   -3.3914 O   0  0  0  0  0  0  0  0  0  0  0  0
    4.1307    8.9130   -4.0177 C   0  0  2  0  0  0  0  0  0  0  0  0
    4.7932    6.3879   -3.9892 C   0  0  2  0  0  0  0  0  0  0  0  0
   -3.6925   -0.0030   -5.1558 C   0  0  0  0  0  0  0  0  0  0  0  0
    3.7201    9.0080   -5.3941 O   0  0  0  0  0  0  0  0  0  0  0  0
    5.2860    7.8792   -3.8128 C   0  0  2  0  0  0  0  0  0  0  0  0
    4.5921    5.9811   -5.4887 C   0  0  0  0  0  0  0  0  0  0  0  0
    5.8344    5.3854   -3.3951 C   0  0  0  0  0  0  0  0  0  0  0  0
   -3.2846    0.2710   -6.3107 O   0  0  0  0  0  0  0  0  0  0  0  0
   -4.8208   -0.8475   -4.9900 C   0  0  0  0  0  0  0  0  0  0  0  0
    4.0041    9.9926   -6.2935 C   0  0  0  0  0  0  0  0  0  0  0  0
    5.8168    8.0518   -2.4713 O   0  0  0  0  0  0  0  0  0  0  0  0
   -5.8931   -0.7828   -5.9147 C   0  0  0  0  0  0  0  0  0  0  0  0
   -4.9504   -1.6986   -3.8695 C   0  0  0  0  0  0  0  0  0  0  0  0
    5.0926   10.7774   -6.1981 N   0  0  0  0  0  0  0  0  0  0  0  0
    3.2440   10.1382   -7.2753 O   0  0  0  0  0  0  0  0  0  0  0  0
    6.8301    9.0576   -2.2822 C   0  0  0  0  0  0  0  0  0  0  0  0
   -7.1068   -1.4833   -5.7012 C   0  0  0  0  0  0  0  0  0  0  0  0
   -6.1358   -2.4222   -3.6563 C   0  0  0  0  0  0  0  0  0  0  0  0
   -8.2522   -1.2883   -6.6393 C   0  0  2  0  0  0  0  0  0  0  0  0
   -7.2173   -2.3071   -4.5494 C   0  0  0  0  0  0  0  0  0  0  0  0
   -8.7348   -2.5115   -7.2674 C   0  0  0  0  0  0  0  0  0  0  0  0
   -8.3510   -2.9957   -4.2408 O   0  0  0  0  0  0  0  0  0  0  0  0
   -8.1173   -3.2161   -8.2431 C   0  0  0  0  0  0  0  0  0  0  0  0
   -8.7150   -4.4547   -8.7414 C   0  0  0  0  0  0  0  0  0  0  0  0
   -6.8362   -2.8090   -8.8157 C   0  0  0  0  0  0  0  0  0  0  0  0
   -1.9253    6.7081   -4.2293 H   0  0  0  0  0  0  0  0  0  0  0  0
   -0.3655    7.5193   -4.2041 H   0  0  0  0  0  0  0  0  0  0  0  0
   -0.7359    6.3843   -5.5045 H   0  0  0  0  0  0  0  0  0  0  0  0
    1.9662    4.5349   -1.3495 H   0  0  0  0  0  0  0  0  0  0  0  0
    0.9094    2.3947   -1.6043 H   0  0  0  0  0  0  0  0  0  0  0  0
    2.1218    6.9898   -4.4735 H   0  0  0  0  0  0  0  0  0  0  0  0
    0.0214    0.6646   -2.2245 H   0  0  0  0  0  0  0  0  0  0  0  0
    3.1692    8.6070   -2.0906 H   0  0  0  0  0  0  0  0  0  0  0  0
   -3.3302    0.2113   -3.1956 H   0  0  0  0  0  0  0  0  0  0  0  0
    2.1233   10.2868   -3.0842 H   0  0  0  0  0  0  0  0  0  0  0  0
    4.4670    9.9010   -3.6920 H   0  0  0  0  0  0  0  0  0  0  0  0
    6.0725    8.0658   -4.5516 H   0  0  0  0  0  0  0  0  0  0  0  0
    5.5310    6.0594   -6.0408 H   0  0  0  0  0  0  0  0  0  0  0  0
    4.2399    4.9499   -5.5584 H   0  0  0  0  0  0  0  0  0  0  0  0
    3.8601    6.6038   -5.9957 H   0  0  0  0  0  0  0  0  0  0  0  0
    5.5085    4.3523   -3.5402 H   0  0  0  0  0  0  0  0  0  0  0  0
    5.9577    5.5359   -2.3213 H   0  0  0  0  0  0  0  0  0  0  0  0
    6.8077    5.5101   -3.8748 H   0  0  0  0  0  0  0  0  0  0  0  0
   -5.8065   -0.1803   -6.7394 H   0  0  0  0  0  0  0  0  0  0  0  0
   -4.1884   -1.7895   -3.1921 H   0  0  0  0  0  0  0  0  0  0  0  0
    5.2558   11.4657   -6.8635 H   0  0  0  0  0  0  0  0  0  0  0  0
    5.7200   10.6557   -5.4695 H   0  0  0  0  0  0  0  0  0  0  0  0
    7.1476    9.0293   -1.2395 H   0  0  0  0  0  0  0  0  0  0  0  0
    6.4516   10.0577   -2.4939 H   0  0  0  0  0  0  0  0  0  0  0  0
    7.7009    8.8577   -2.9087 H   0  0  0  0  0  0  0  0  0  0  0  0
   -6.2174   -3.0202   -2.8300 H   0  0  0  0  0  0  0  0  0  0  0  0
   -8.0173   -0.5579   -7.4175 H   0  0  0  0  0  0  0  0  0  0  0  0
   -9.0673   -0.8448   -6.0602 H   0  0  0  0  0  0  0  0  0  0  0  0
   -9.6086   -2.8459   -6.9246 H   0  0  0  0  0  0  0  0  0  0  0  0
   -9.0840   -2.5268   -4.6900 H   0  0  0  0  0  0  0  0  0  0  0  0
   -9.6105   -4.7575   -8.1877 H   0  0  0  0  0  0  0  0  0  0  0  0
   -7.9883   -5.2654   -8.6552 H   0  0  0  0  0  0  0  0  0  0  0  0
   -8.9925   -4.3342   -9.7915 H   0  0  0  0  0  0  0  0  0  0  0  0
   -6.0460   -2.9410   -8.0767 H   0  0  0  0  0  0  0  0  0  0  0  0
   -6.8631   -1.7660   -9.1334 H   0  0  0  0  0  0  0  0  0  0  0  0
   -6.5730   -3.4015   -9.6937 H   0  0  0  0  0  0  0  0  0  0  0  0
  1  2  1  0  0  0  0 
  2  3  2  0  0  0  0 
  2  4  1  0  0  0  0 
  3  5  1  0  0  0  0 
  3  6  1  0  0  0  0 
  4  7  1  0  0  0  0 
  4  8  2  0  0  0  0 
  5  9  1  0  0  0  0 
  5 10  2  0  0  0  0 
  6 11  1  0  0  0  0 
  8 10  1  0  0  0  0 
  9 13  1  0  0  0  0 
  9 14  2  0  0  0  0 
 11 14  1  0  0  0  0 
 11 15  2  0  0  0  0 
 12  7  1  0  0  0  0 
 16 12  1  0  0  0  0 
 12 17  1  0  0  0  0 
 14 18  1  0  0  0  0 
 16 19  1  0  0  0  0 
 16 20  1  0  0  0  0 
 17 21  1  0  0  0  0 
 18 22  1  0  0  0  0 
 20 23  1  0  0  0  0 
 20 24  1  0  0  0  0 
 24 21  1  0  0  0  0 
 21 25  1  0  0  0  0 
 21 26  1  0  0  0  0 
 22 27  2  0  0  0  0 
 22 28  1  0  0  0  0 
 23 29  1  0  0  0  0 
 24 30  1  0  0  0  0 
 28 31  2  0  0  0  0 
 28 32  1  0  0  0  0 
 29 33  1  0  0  0  0 
 29 34  2  0  0  0  0 
 30 35  1  0  0  0  0 
 31 36  1  0  0  0  0 
 32 37  2  0  0  0  0 
 36 38  1  0  0  0  0 
 36 39  2  0  0  0  0 
 37 39  1  0  0  0  0 
 38 40  1  0  0  0  0 
 39 41  1  0  0  0  0 
 40 42  2  0  0  0  0 
 42 43  1  0  0  0  0 
 42 44  1  0  0  0  0 
 45  1  1  0  0  0  0 
 46  1  1  0  0  0  0 
 47  1  1  0  0  0  0 
 48  8  1  0  0  0  0 
 49 10  1  0  0  0  0 
 12 50  1  0  0  0  0 
 51 13  1  0  0  0  0 
 16 52  1  0  0  0  0 
 53 18  1  0  0  0  0 
 54 19  1  0  0  0  0 
 20 55  1  0  0  0  0 
 24 56  1  0  0  0  0 
 57 25  1  0  0  0  0 
 58 25  1  0  0  0  0 
 59 25  1  0  0  0  0 
 60 26  1  0  0  0  0 
 61 26  1  0  0  0  0 
 62 26  1  0  0  0  0 
 63 31  1  0  0  0  0 
 64 32  1  0  0  0  0 
 65 33  1  0  0  0  0 
 66 33  1  0  0  0  0 
 67 35  1  0  0  0  0 
 68 35  1  0  0  0  0 
 69 35  1  0  0  0  0 
 70 37  1  0  0  0  0 
 71 38  1  0  0  0  0 
 72 38  1  0  0  0  0 
 73 40  1  0  0  0  0 
 74 41  1  0  0  0  0 
 75 43  1  0  0  0  0 
 76 43  1  0  0  0  0 
 77 43  1  0  0  0  0 
 78 44  1  0  0  0  0 
 79 44  1  0  0  0  0 
 80 44  1  0  0  0  0 
M  END
> <cdk:Title>
novobiocin

> <Conformer>
1

> <SuperDrugID>
SD001765

$$$$
