pamidronic acid
  CDK     0628171801

 24 23  0  0  0  0  0  0  0  0999 V2000
   -3.2383    1.7260   -0.7077 P   0  0  2  0  0  0  0  0  0  0  0  0
   -2.1735    0.3784   -0.8931 C   0  0  2  0  0  0  0  0  0  0  0  0
   -0.6979    0.8314   -0.6079 C   0  0  1  0  0  0  0  0  0  0  0  0
   -2.3867   -0.3561   -2.4413 P   0  0  1  0  0  0  0  0  0  0  0  0
   -2.5647   -0.5975    0.0742 O   0  0  0  0  0  0  0  0  0  0  0  0
    0.3929   -0.2725   -0.5983 C   0  0  2  0  0  0  0  0  0  0  0  0
    1.6839    0.2843   -0.1792 N   0  0  1  0  0  0  0  0  0  0  0  0
   -1.6153   -1.7448   -2.4993 O   0  0  0  0  0  0  0  0  0  0  0  0
   -3.9131   -0.7242   -2.6843 O   0  0  0  0  0  0  0  0  0  0  0  0
   -1.9143    0.5047   -3.5338 O   0  0  0  0  0  0  0  0  0  0  0  0
   -4.7500    1.2786   -0.9042 O   0  0  0  0  0  0  0  0  0  0  0  0
   -2.9234    2.8224   -1.8152 O   0  0  0  0  0  0  0  0  0  0  0  0
   -3.1065    2.3404    0.6213 O   0  0  0  0  0  0  0  0  0  0  0  0
   -0.3993    1.5912   -1.3387 H   0  0  0  0  0  0  0  0  0  0  0  0
   -0.6627    1.3016    0.3816 H   0  0  0  0  0  0  0  0  0  0  0  0
   -2.4672   -0.1628    0.9477 H   0  0  0  0  0  0  0  0  0  0  0  0
    0.5245   -0.6920   -1.5955 H   0  0  0  0  0  0  0  0  0  0  0  0
    0.1210   -1.0730    0.0927 H   0  0  0  0  0  0  0  0  0  0  0  0
    1.5958    0.5394    0.8071 H   0  0  0  0  0  0  0  0  0  0  0  0
    2.3666   -0.4748   -0.2287 H   0  0  0  0  0  0  0  0  0  0  0  0
   -1.7912   -2.0860   -3.4009 H   0  0  0  0  0  0  0  0  0  0  0  0
   -3.9264   -1.1605   -3.5607 H   0  0  0  0  0  0  0  0  0  0  0  0
   -5.2663    2.1087   -0.8323 H   0  0  0  0  0  0  0  0  0  0  0  0
   -3.5775    3.5344   -1.6538 H   0  0  0  0  0  0  0  0  0  0  0  0
  1  2  1  0  0  0  0 
  2  3  1  0  0  0  0 
  2  4  1  0  0  0  0 
  2  5  1  0  0  0  0 
  3  6  1  0  0  0  0 
  6  7  1  0  0  0  0 
  4  8  1  0  0  0  0 
  4  9  1  0  0  0  0 
  4 10  2  0  0  0  0 
  1 11  1  0  0  0  0 
  1 12  1  0  0  0  0 
  1 13  2  0  0  0  0 
  3 14  1  0  0  0  0 
  3 15  1  0  0  0  0 
  5 16  1  0  0  0  0 
  6 17  1  0  0  0  0 
  6 18  1  0  0  0  0 
  7 19  1  0  0  0  0 
  7 20  1  0  0  0  0 
  8 21  1  0  0  0  0 
  9 22  1  0  0  0  0 
 11 23  1  0  0  0  0 
 12 24  1  0  0  0  0 
M  END
> <cdk:Title>
pamidronic acid

> <Conformer>
1

> <SuperDrugID>
SD001835

$$$$
