zuclopenthixol acetate
  CDK     0628171801

 57 60  0  0  0  0  0  0  0  0999 V2000
    5.9626   -5.4772   -9.7852 C   0  0  0  0  0  0  0  0  0  0  0  0
    5.5263   -6.7863   -9.2799 C   0  0  0  0  0  0  0  0  0  0  0  0
    4.5593   -7.3522   -9.8432 O   0  0  0  0  0  0  0  0  0  0  0  0
    6.1567   -7.3605   -8.2095 O   0  0  0  0  0  0  0  0  0  0  0  0
    5.8581   -8.6584   -7.6705 C   0  0  2  0  0  0  0  0  0  0  0  0
    6.6186   -8.9209   -6.3489 C   0  0  2  0  0  0  0  0  0  0  0  0
    6.5992   -7.7774   -5.3813 N   0  0  1  0  0  0  0  0  0  0  0  0
    5.2576   -7.3184   -4.9058 C   0  0  1  0  0  0  0  0  0  0  0  0
    5.3901   -5.9749   -4.1406 C   0  0  1  0  0  0  0  0  0  0  0  0
    6.4010   -6.0155   -3.0349 N   0  0  2  0  0  0  0  0  0  0  0  0
    6.6905   -4.6872   -2.3895 C   0  0  2  0  0  0  0  0  0  0  0  0
    5.4963   -3.8194   -1.8959 C   0  0  1  0  0  0  0  0  0  0  0  0
    5.9310   -2.5404   -1.3213 C   0  0  0  0  0  0  0  0  0  0  0  0
    5.1531   -1.5621   -0.7956 C   0  0  0  0  0  0  0  0  0  0  0  0
    5.7713   -0.4610   -0.1564 C   0  0  0  0  0  0  0  0  0  0  0  0
    6.8166    0.2790   -0.7672 C   0  0  0  0  0  0  0  0  0  0  0  0
    7.4482    1.3388   -0.0905 C   0  0  0  0  0  0  0  0  0  0  0  0
    7.0400    1.6899    1.2061 C   0  0  0  0  0  0  0  0  0  0  0  0
    5.9888    0.9902    1.8211 C   0  0  0  0  0  0  0  0  0  0  0  0
    5.3607   -0.0753    1.1477 C   0  0  0  0  0  0  0  0  0  0  0  0
    4.0104   -0.9240    1.9059 S   0  0  0  0  0  0  0  0  0  0  0  0
    3.0779   -1.4383    0.4971 C   0  0  0  0  0  0  0  0  0  0  0  0
    3.7458   -1.6375   -0.7403 C   0  0  0  0  0  0  0  0  0  0  0  0
    2.9494   -1.8581   -1.8921 C   0  0  0  0  0  0  0  0  0  0  0  0
    1.5485   -1.9825   -1.8004 C   0  0  0  0  0  0  0  0  0  0  0  0
    0.6271   -2.2785   -3.1898 Cl  0  0  0  0  0  0  0  0  0  0  0  0
    0.9174   -1.8504   -0.5505 C   0  0  0  0  0  0  0  0  0  0  0  0
    1.6800   -1.5699    0.5954 C   0  0  0  0  0  0  0  0  0  0  0  0
    7.6953   -6.6516   -3.4558 C   0  0  2  0  0  0  0  0  0  0  0  0
    7.5172   -7.9815   -4.2212 C   0  0  1  0  0  0  0  0  0  0  0  0
    5.1564   -4.7523   -9.6769 H   0  0  0  0  0  0  0  0  0  0  0  0
    6.8343   -5.1179   -9.2365 H   0  0  0  0  0  0  0  0  0  0  0  0
    6.2202   -5.5573  -10.8418 H   0  0  0  0  0  0  0  0  0  0  0  0
    6.1341   -9.4224   -8.4016 H   0  0  0  0  0  0  0  0  0  0  0  0
    4.7868   -8.7443   -7.4863 H   0  0  0  0  0  0  0  0  0  0  0  0
    7.6567   -9.1283   -6.6252 H   0  0  0  0  0  0  0  0  0  0  0  0
    6.2190   -9.8231   -5.8747 H   0  0  0  0  0  0  0  0  0  0  0  0
    4.5828   -7.1479   -5.7458 H   0  0  0  0  0  0  0  0  0  0  0  0
    4.7966   -8.0720   -4.2602 H   0  0  0  0  0  0  0  0  0  0  0  0
    5.6491   -5.1916   -4.8590 H   0  0  0  0  0  0  0  0  0  0  0  0
    4.4063   -5.7461   -3.7218 H   0  0  0  0  0  0  0  0  0  0  0  0
    7.2571   -4.0719   -3.0956 H   0  0  0  0  0  0  0  0  0  0  0  0
    7.3296   -4.8709   -1.5194 H   0  0  0  0  0  0  0  0  0  0  0  0
    4.8590   -3.6229   -2.7537 H   0  0  0  0  0  0  0  0  0  0  0  0
    4.9245   -4.3792   -1.1504 H   0  0  0  0  0  0  0  0  0  0  0  0
    6.9177   -2.4019   -1.2815 H   0  0  0  0  0  0  0  0  0  0  0  0
    7.1267    0.0557   -1.7156 H   0  0  0  0  0  0  0  0  0  0  0  0
    8.2067    1.8549   -0.5403 H   0  0  0  0  0  0  0  0  0  0  0  0
    7.5031    2.4555    1.6990 H   0  0  0  0  0  0  0  0  0  0  0  0
    5.6820    1.2679    2.7546 H   0  0  0  0  0  0  0  0  0  0  0  0
    3.3829   -1.9068   -2.8156 H   0  0  0  0  0  0  0  0  0  0  0  0
   -0.0976   -1.9446   -0.4698 H   0  0  0  0  0  0  0  0  0  0  0  0
    1.2111   -1.4493    1.4961 H   0  0  0  0  0  0  0  0  0  0  0  0
    8.3067   -6.8541   -2.5716 H   0  0  0  0  0  0  0  0  0  0  0  0
    8.2578   -5.9724   -4.1055 H   0  0  0  0  0  0  0  0  0  0  0  0
    7.1272   -8.7518   -3.5470 H   0  0  0  0  0  0  0  0  0  0  0  0
    8.5058   -8.3037   -4.5639 H   0  0  0  0  0  0  0  0  0  0  0  0
  1  2  1  0  0  0  0 
  2  3  2  0  0  0  0 
  2  4  1  0  0  0  0 
  4  5  1  0  0  0  0 
  5  6  1  0  0  0  0 
  6  7  1  0  0  0  0 
  7  8  1  0  0  0  0 
  8  9  1  0  0  0  0 
  9 10  1  0  0  0  0 
 10 11  1  0  0  0  0 
 11 12  1  0  0  0  0 
 12 13  1  0  0  0  0 
 13 14  2  0  0  0  0 
 14 15  1  0  0  0  0 
 15 16  2  0  0  0  0 
 16 17  1  0  0  0  0 
 17 18  2  0  0  0  0 
 18 19  1  0  0  0  0 
 19 20  2  0  0  0  0 
 15 20  1  0  0  0  0 
 20 21  1  0  0  0  0 
 21 22  1  0  0  0  0 
 22 23  2  0  0  0  0 
 14 23  1  0  0  0  0 
 23 24  1  0  0  0  0 
 24 25  2  0  0  0  0 
 25 26  1  0  0  0  0 
 25 27  1  0  0  0  0 
 27 28  2  0  0  0  0 
 22 28  1  0  0  0  0 
 10 29  1  0  0  0  0 
 29 30  1  0  0  0  0 
  7 30  1  0  0  0  0 
  1 31  1  0  0  0  0 
  1 32  1  0  0  0  0 
  1 33  1  0  0  0  0 
  5 34  1  0  0  0  0 
  5 35  1  0  0  0  0 
  6 36  1  0  0  0  0 
  6 37  1  0  0  0  0 
  8 38  1  0  0  0  0 
  8 39  1  0  0  0  0 
  9 40  1  0  0  0  0 
  9 41  1  0  0  0  0 
 11 42  1  0  0  0  0 
 11 43  1  0  0  0  0 
 12 44  1  0  0  0  0 
 12 45  1  0  0  0  0 
 13 46  1  0  0  0  0 
 16 47  1  0  0  0  0 
 17 48  1  0  0  0  0 
 18 49  1  0  0  0  0 
 19 50  1  0  0  0  0 
 24 51  1  0  0  0  0 
 27 52  1  0  0  0  0 
 28 53  1  0  0  0  0 
 29 54  1  0  0  0  0 
 29 55  1  0  0  0  0 
 30 56  1  0  0  0  0 
 30 57  1  0  0  0  0 
M  END
> <cdk:Title>
zuclopenthixol acetate

> <Conformer>
1

> <SuperDrugID>
SD003350

$$$$
