cacodylic acid
  CDK     0628171801

 12 11  0  0  0  0  0  0  0  0999 V2000
   -0.2408   -0.4005   -1.8043 C   0  0  0  0  0  0  0  0  0  0  0  0
    0.9414    0.5120   -0.5098 As  0  0  2  0  0  0  0  0  0  0  0  0
    1.1847   -0.6339    1.0812 C   0  0  0  0  0  0  0  0  0  0  0  0
    0.1761    2.1277    0.0176 O   0  0  0  0  0  0  0  0  0  0  0  0
    2.5078    0.8220   -1.2568 O   0  0  0  0  0  0  0  0  0  0  0  0
   -0.3738    0.2259   -2.6852 H   0  0  0  0  0  0  0  0  0  0  0  0
    0.2112   -1.3476   -2.0976 H   0  0  0  0  0  0  0  0  0  0  0  0
   -1.2082   -0.5893   -1.3408 H   0  0  0  0  0  0  0  0  0  0  0  0
    1.8385   -0.1319    1.7947 H   0  0  0  0  0  0  0  0  0  0  0  0
    1.6327   -1.5807    0.7779 H   0  0  0  0  0  0  0  0  0  0  0  0
    0.2145   -0.8206    1.5423 H   0  0  0  0  0  0  0  0  0  0  0  0
    0.0844    2.6406   -0.8129 H   0  0  0  0  0  0  0  0  0  0  0  0
  1  2  1  0  0  0  0 
  2  3  1  0  0  0  0 
  2  4  1  0  0  0  0 
  2  5  2  0  0  0  0 
  6  1  1  0  0  0  0 
  7  1  1  0  0  0  0 
  8  1  1  0  0  0  0 
  9  3  1  0  0  0  0 
 10  3  1  0  0  0  0 
 11  3  1  0  0  0  0 
 12  4  1  0  0  0  0 
M  END
> <cdk:Title>
cacodylic acid

> <Conformer>
1

> <SuperDrugID>
SD002656

$$$$
