alclometasone dipropionate
  CDK     0628171801

 73 76  0  0  0  0  0  0  0  0999 V2000
   -2.6843   -1.7351    0.5696 C   0  0  0  0  0  0  0  0  0  0  0  0
   -2.4182   -1.5262   -0.8713 C   0  0  1  0  0  0  0  0  0  0  0  0
   -2.5288   -2.9072    0.9874 O   0  0  0  0  0  0  0  0  0  0  0  0
   -3.1065   -0.6351    1.5089 C   0  0  2  0  0  0  0  0  0  0  0  0
   -3.0493   -2.5418   -1.6653 O   0  0  0  0  0  0  0  0  0  0  0  0
   -4.3675   -0.0538    1.0759 O   0  0  0  0  0  0  0  0  0  0  0  0
   -2.0558    0.5452    1.6670 C   0  0  2  0  0  0  0  0  0  0  0  0
   -3.2790   -1.0898    3.0142 C   0  0  2  0  0  0  0  0  0  0  0  0
   -2.4479   -3.5874   -2.3052 C   0  0  0  0  0  0  0  0  0  0  0  0
   -5.4380   -0.5024    0.3504 C   0  0  0  0  0  0  0  0  0  0  0  0
   -0.5945   -0.0260    1.8803 C   0  0  0  0  0  0  0  0  0  0  0  0
   -2.6422    1.2833    2.9170 C   0  0  1  0  0  0  0  0  0  0  0  0
   -2.0336    1.6036    0.5048 C   0  0  2  0  0  0  0  0  0  0  0  0
   -4.6401   -1.7539    3.3534 C   0  0  0  0  0  0  0  0  0  0  0  0
   -2.9527    0.1451    3.9117 C   0  0  2  0  0  0  0  0  0  0  0  0
   -3.2737   -4.4805   -3.1340 C   0  0  1  0  0  0  0  0  0  0  0  0
   -1.2246   -3.8231   -2.1688 O   0  0  0  0  0  0  0  0  0  0  0  0
   -6.5661    0.4258    0.1440 C   0  0  2  0  0  0  0  0  0  0  0  0
   -5.4842   -1.6567   -0.1336 O   0  0  0  0  0  0  0  0  0  0  0  0
   -1.8207    2.5324    3.3943 C   0  0  1  0  0  0  0  0  0  0  0  0
   -1.2822    2.9253    0.8495 C   0  0  1  0  0  0  0  0  0  0  0  0
   -3.6944   -3.8221   -4.4657 C   0  0  0  0  0  0  0  0  0  0  0  0
   -7.9142   -0.1265    0.6587 C   0  0  0  0  0  0  0  0  0  0  0  0
   -1.7068    3.5851    2.2189 C   0  0  2  0  0  0  0  0  0  0  0  0
   -2.3933    3.2020    4.6950 C   0  0  2  0  0  0  0  0  0  0  0  0
    0.1218    2.7091    0.7523 O   0  0  0  0  0  0  0  0  0  0  0  0
   -0.9114    4.9010    2.6458 C   0  0  2  0  0  0  0  0  0  0  0  0
   -4.1230    3.5793    4.6135 Cl  0  0  0  0  0  0  0  0  0  0  0  0
   -1.6153    4.4945    5.0664 C   0  0  2  0  0  0  0  0  0  0  0  0
    0.6240    4.6848    2.9144 C   0  0  0  0  0  0  0  0  0  0  0  0
   -1.5220    5.4073    3.9189 C   0  0  0  0  0  0  0  0  0  0  0  0
   -0.9798    5.9037    1.5524 C   0  0  0  0  0  0  0  0  0  0  0  0
   -2.0031    6.6690    4.0135 C   0  0  0  0  0  0  0  0  0  0  0  0
   -1.4806    7.1381    1.7103 C   0  0  0  0  0  0  0  0  0  0  0  0
   -1.9684    7.5436    2.9373 C   0  0  0  0  0  0  0  0  0  0  0  0
   -2.3855    8.7181    3.0708 O   0  0  0  0  0  0  0  0  0  0  0  0
   -2.8192   -0.5751   -1.2136 H   0  0  0  0  0  0  0  0  0  0  0  0
   -1.3383   -1.5123   -1.0262 H   0  0  0  0  0  0  0  0  0  0  0  0
   -2.5241   -1.8474    3.2534 H   0  0  0  0  0  0  0  0  0  0  0  0
   -0.2098   -0.4488    0.9535 H   0  0  0  0  0  0  0  0  0  0  0  0
   -0.5529   -0.8084    2.6345 H   0  0  0  0  0  0  0  0  0  0  0  0
    0.1167    0.7296    2.1962 H   0  0  0  0  0  0  0  0  0  0  0  0
   -3.6220    1.6918    2.6366 H   0  0  0  0  0  0  0  0  0  0  0  0
   -3.0564    1.8739    0.2254 H   0  0  0  0  0  0  0  0  0  0  0  0
   -1.5698    1.1744   -0.3856 H   0  0  0  0  0  0  0  0  0  0  0  0
   -4.6099   -2.1608    4.3665 H   0  0  0  0  0  0  0  0  0  0  0  0
   -4.8461   -2.5761    2.6647 H   0  0  0  0  0  0  0  0  0  0  0  0
   -5.4526   -1.0260    3.2949 H   0  0  0  0  0  0  0  0  0  0  0  0
   -2.0818   -0.0531    4.5444 H   0  0  0  0  0  0  0  0  0  0  0  0
   -3.7918    0.4217    4.5562 H   0  0  0  0  0  0  0  0  0  0  0  0
   -2.7237   -5.3991   -3.3550 H   0  0  0  0  0  0  0  0  0  0  0  0
   -4.1660   -4.7531   -2.5670 H   0  0  0  0  0  0  0  0  0  0  0  0
   -6.6483    0.6440   -0.9238 H   0  0  0  0  0  0  0  0  0  0  0  0
   -6.3648    1.3628    0.6703 H   0  0  0  0  0  0  0  0  0  0  0  0
   -0.8198    2.1833    3.6508 H   0  0  0  0  0  0  0  0  0  0  0  0
   -1.5273    3.6198    0.0428 H   0  0  0  0  0  0  0  0  0  0  0  0
   -4.2876   -4.5269   -5.0480 H   0  0  0  0  0  0  0  0  0  0  0  0
   -4.3021   -2.9330   -4.2909 H   0  0  0  0  0  0  0  0  0  0  0  0
   -2.8170   -3.5445   -5.0532 H   0  0  0  0  0  0  0  0  0  0  0  0
   -8.6767    0.6499    0.6001 H   0  0  0  0  0  0  0  0  0  0  0  0
   -8.2412   -0.9722    0.0523 H   0  0  0  0  0  0  0  0  0  0  0  0
   -7.8363   -0.4481    1.6986 H   0  0  0  0  0  0  0  0  0  0  0  0
   -2.7372    3.9182    2.0341 H   0  0  0  0  0  0  0  0  0  0  0  0
   -2.2750    2.4977    5.5233 H   0  0  0  0  0  0  0  0  0  0  0  0
    0.2697    2.3613   -0.1518 H   0  0  0  0  0  0  0  0  0  0  0  0
   -0.6098    4.2302    5.3974 H   0  0  0  0  0  0  0  0  0  0  0  0
   -2.0941    4.9589    5.9344 H   0  0  0  0  0  0  0  0  0  0  0  0
    0.8098    3.8345    3.5705 H   0  0  0  0  0  0  0  0  0  0  0  0
    1.1886    4.5133    1.9976 H   0  0  0  0  0  0  0  0  0  0  0  0
    1.0610    5.5703    3.3854 H   0  0  0  0  0  0  0  0  0  0  0  0
   -0.6212    5.6722    0.6549 H   0  0  0  0  0  0  0  0  0  0  0  0
   -2.3999    6.9946    4.8667 H   0  0  0  0  0  0  0  0  0  0  0  0
   -1.4917    7.7661    0.9389 H   0  0  0  0  0  0  0  0  0  0  0  0
  1  2  1  0  0  0  0 
  1  3  2  0  0  0  0 
  4  1  1  0  0  0  0 
  2  5  1  0  0  0  0 
  4  6  1  0  0  0  0 
  7  4  1  0  0  0  0 
  4  8  1  0  0  0  0 
  5  9  1  0  0  0  0 
  6 10  1  0  0  0  0 
  7 11  1  0  0  0  0 
 12  7  1  0  0  0  0 
  7 13  1  0  0  0  0 
  8 14  1  0  0  0  0 
  8 15  1  0  0  0  0 
  9 16  1  0  0  0  0 
  9 17  2  0  0  0  0 
 10 18  1  0  0  0  0 
 10 19  2  0  0  0  0 
 12 15  1  0  0  0  0 
 20 12  1  0  0  0  0 
 21 13  1  0  0  0  0 
 16 22  1  0  0  0  0 
 18 23  1  0  0  0  0 
 20 24  1  0  0  0  0 
 20 25  1  0  0  0  0 
 24 21  1  0  0  0  0 
 21 26  1  0  0  0  0 
 24 27  1  0  0  0  0 
 25 28  1  0  0  0  0 
 25 29  1  0  0  0  0 
 27 30  1  0  0  0  0 
 27 31  1  0  0  0  0 
 27 32  1  0  0  0  0 
 29 31  1  0  0  0  0 
 31 33  2  0  0  0  0 
 32 34  2  0  0  0  0 
 33 35  1  0  0  0  0 
 34 35  1  0  0  0  0 
 35 36  2  0  0  0  0 
 37  2  1  0  0  0  0 
 38  2  1  0  0  0  0 
  8 39  1  0  0  0  0 
 40 11  1  0  0  0  0 
 41 11  1  0  0  0  0 
 42 11  1  0  0  0  0 
 12 43  1  0  0  0  0 
 44 13  1  0  0  0  0 
 45 13  1  0  0  0  0 
 46 14  1  0  0  0  0 
 47 14  1  0  0  0  0 
 48 14  1  0  0  0  0 
 49 15  1  0  0  0  0 
 50 15  1  0  0  0  0 
 51 16  1  0  0  0  0 
 52 16  1  0  0  0  0 
 53 18  1  0  0  0  0 
 54 18  1  0  0  0  0 
 20 55  1  0  0  0  0 
 21 56  1  0  0  0  0 
 57 22  1  0  0  0  0 
 58 22  1  0  0  0  0 
 59 22  1  0  0  0  0 
 60 23  1  0  0  0  0 
 61 23  1  0  0  0  0 
 62 23  1  0  0  0  0 
 24 63  1  0  0  0  0 
 25 64  1  0  0  0  0 
 65 26  1  0  0  0  0 
 66 29  1  0  0  0  0 
 67 29  1  0  0  0  0 
 68 30  1  0  0  0  0 
 69 30  1  0  0  0  0 
 70 30  1  0  0  0  0 
 71 32  1  0  0  0  0 
 72 33  1  0  0  0  0 
 73 34  1  0  0  0  0 
M  END
> <cdk:Title>
alclometasone dipropionate

> <Conformer>
1

> <SuperDrugID>
SD003594

$$$$
