loperamide
  CDK     0628171801

 67 70  0  0  0  0  0  0  0  0999 V2000
   -4.8723   -8.0030   -6.8079 C   0  0  2  0  0  0  0  0  0  0  0  0
   -6.1278   -7.5407   -5.9431 C   0  0  1  0  0  0  0  0  0  0  0  0
   -3.6695   -7.4957   -6.0169 C   0  0  0  0  0  0  0  0  0  0  0  0
   -4.9681   -7.4608   -8.2437 C   0  0  0  0  0  0  0  0  0  0  0  0
   -4.7619   -9.5076   -7.0555 C   0  0  0  0  0  0  0  0  0  0  0  0
   -6.4039   -6.0064   -5.7570 C   0  0  2  0  0  0  0  0  0  0  0  0
   -2.8578   -8.2024   -5.1224 N   0  0  0  0  0  0  0  0  0  0  0  0
   -3.3847   -6.2804   -6.1717 O   0  0  0  0  0  0  0  0  0  0  0  0
   -6.1811   -7.5575   -8.9856 C   0  0  0  0  0  0  0  0  0  0  0  0
   -3.8584   -6.9119   -8.9518 C   0  0  0  0  0  0  0  0  0  0  0  0
   -3.6161  -10.0317   -7.7231 C   0  0  0  0  0  0  0  0  0  0  0  0
   -5.7565  -10.4545   -6.6780 C   0  0  0  0  0  0  0  0  0  0  0  0
   -5.6740   -5.2417   -4.6797 N   0  0  2  0  0  0  0  0  0  0  0  0
   -1.5228   -7.7196   -4.8166 C   0  0  0  0  0  0  0  0  0  0  0  0
   -3.2759   -9.3965   -4.4249 C   0  0  0  0  0  0  0  0  0  0  0  0
   -6.3064   -7.0601  -10.2957 C   0  0  0  0  0  0  0  0  0  0  0  0
   -3.9704   -6.4267  -10.2681 C   0  0  0  0  0  0  0  0  0  0  0  0
   -3.4851  -11.3985   -8.0272 C   0  0  0  0  0  0  0  0  0  0  0  0
   -5.6199  -11.8281   -6.9614 C   0  0  0  0  0  0  0  0  0  0  0  0
   -5.8790   -5.7686   -3.2888 C   0  0  2  0  0  0  0  0  0  0  0  0
   -5.9770   -3.7676   -4.7646 C   0  0  1  0  0  0  0  0  0  0  0  0
   -5.2001   -6.4868  -10.9379 C   0  0  0  0  0  0  0  0  0  0  0  0
   -4.4867  -12.3014   -7.6414 C   0  0  0  0  0  0  0  0  0  0  0  0
   -5.1146   -4.9326   -2.2273 C   0  0  2  0  0  0  0  0  0  0  0  0
   -5.2317   -2.9337   -3.6876 C   0  0  1  0  0  0  0  0  0  0  0  0
   -5.5744   -3.4322   -2.2373 C   0  0  2  0  0  0  0  0  0  0  0  0
   -4.7444   -2.7187   -1.3174 O   0  0  0  0  0  0  0  0  0  0  0  0
   -6.9916   -3.1619   -1.7477 C   0  0  0  0  0  0  0  0  0  0  0  0
   -7.6316   -3.9979   -0.7894 C   0  0  0  0  0  0  0  0  0  0  0  0
   -7.7277   -2.0156   -2.1607 C   0  0  0  0  0  0  0  0  0  0  0  0
   -8.9218   -3.7267   -0.2970 C   0  0  0  0  0  0  0  0  0  0  0  0
   -9.0182   -1.7345   -1.6728 C   0  0  0  0  0  0  0  0  0  0  0  0
   -9.6197   -2.5893   -0.7344 C   0  0  0  0  0  0  0  0  0  0  0  0
  -11.1621   -2.2449   -0.1237 Cl  0  0  0  0  0  0  0  0  0  0  0  0
   -7.0411   -7.9359   -6.3901 H   0  0  0  0  0  0  0  0  0  0  0  0
   -6.0933   -8.0168   -4.9668 H   0  0  0  0  0  0  0  0  0  0  0  0
   -7.4776   -5.8853   -5.5719 H   0  0  0  0  0  0  0  0  0  0  0  0
   -6.2033   -5.5271   -6.7187 H   0  0  0  0  0  0  0  0  0  0  0  0
   -7.0067   -8.0038   -8.5894 H   0  0  0  0  0  0  0  0  0  0  0  0
   -2.9313   -6.8755   -8.5296 H   0  0  0  0  0  0  0  0  0  0  0  0
   -2.8532   -9.4114   -8.0007 H   0  0  0  0  0  0  0  0  0  0  0  0
   -6.6009  -10.1662   -6.1840 H   0  0  0  0  0  0  0  0  0  0  0  0
   -1.5611   -6.9982   -3.9988 H   0  0  0  0  0  0  0  0  0  0  0  0
   -1.0687   -7.2358   -5.6856 H   0  0  0  0  0  0  0  0  0  0  0  0
   -0.8499   -8.5350   -4.5351 H   0  0  0  0  0  0  0  0  0  0  0  0
   -2.9528   -9.3765   -3.3821 H   0  0  0  0  0  0  0  0  0  0  0  0
   -4.3574   -9.5155   -4.4020 H   0  0  0  0  0  0  0  0  0  0  0  0
   -2.8297  -10.2707   -4.8997 H   0  0  0  0  0  0  0  0  0  0  0  0
   -7.2046   -7.1177  -10.7818 H   0  0  0  0  0  0  0  0  0  0  0  0
   -3.1544   -6.0339  -10.7410 H   0  0  0  0  0  0  0  0  0  0  0  0
   -2.6591  -11.7363   -8.5246 H   0  0  0  0  0  0  0  0  0  0  0  0
   -6.3454  -12.4862   -6.6693 H   0  0  0  0  0  0  0  0  0  0  0  0
   -5.4974   -6.7863   -3.2132 H   0  0  0  0  0  0  0  0  0  0  0  0
   -6.9450   -5.7872   -3.0465 H   0  0  0  0  0  0  0  0  0  0  0  0
   -5.6777   -3.3860   -5.7452 H   0  0  0  0  0  0  0  0  0  0  0  0
   -7.0525   -3.5948   -4.6557 H   0  0  0  0  0  0  0  0  0  0  0  0
   -5.2858   -6.1272  -11.8902 H   0  0  0  0  0  0  0  0  0  0  0  0
   -4.3863  -13.3002   -7.8455 H   0  0  0  0  0  0  0  0  0  0  0  0
   -4.0457   -4.9931   -2.4613 H   0  0  0  0  0  0  0  0  0  0  0  0
   -5.2194   -5.3840   -1.2407 H   0  0  0  0  0  0  0  0  0  0  0  0
   -4.1562   -3.0327   -3.8699 H   0  0  0  0  0  0  0  0  0  0  0  0
   -5.4480   -1.8727   -3.8145 H   0  0  0  0  0  0  0  0  0  0  0  0
   -3.8215   -2.9056   -1.5901 H   0  0  0  0  0  0  0  0  0  0  0  0
   -7.1717   -4.8240   -0.4135 H   0  0  0  0  0  0  0  0  0  0  0  0
   -7.3387   -1.3461   -2.8214 H   0  0  0  0  0  0  0  0  0  0  0  0
   -9.3454   -4.3583    0.3879 H   0  0  0  0  0  0  0  0  0  0  0  0
   -9.5121   -0.8993   -1.9995 H   0  0  0  0  0  0  0  0  0  0  0  0
  1  2  1  0  0  0  0 
  1  3  1  0  0  0  0 
  1  4  1  0  0  0  0 
  1  5  1  0  0  0  0 
  2  6  1  0  0  0  0 
  3  7  1  0  0  0  0 
  3  8  2  0  0  0  0 
  4  9  2  0  0  0  0 
  4 10  1  0  0  0  0 
  5 11  2  0  0  0  0 
  5 12  1  0  0  0  0 
  6 13  1  0  0  0  0 
  7 14  1  0  0  0  0 
  7 15  1  0  0  0  0 
  9 16  1  0  0  0  0 
 10 17  2  0  0  0  0 
 11 18  1  0  0  0  0 
 12 19  2  0  0  0  0 
 13 20  1  0  0  0  0 
 13 21  1  0  0  0  0 
 16 22  2  0  0  0  0 
 17 22  1  0  0  0  0 
 18 23  2  0  0  0  0 
 19 23  1  0  0  0  0 
 20 24  1  0  0  0  0 
 21 25  1  0  0  0  0 
 24 26  1  0  0  0  0 
 25 26  1  0  0  0  0 
 26 27  1  0  0  0  0 
 26 28  1  0  0  0  0 
 28 29  2  0  0  0  0 
 28 30  1  0  0  0  0 
 29 31  1  0  0  0  0 
 30 32  2  0  0  0  0 
 31 33  2  0  0  0  0 
 32 33  1  0  0  0  0 
 33 34  1  0  0  0  0 
  2 35  1  0  0  0  0 
  2 36  1  0  0  0  0 
  6 37  1  0  0  0  0 
  6 38  1  0  0  0  0 
  9 39  1  0  0  0  0 
 10 40  1  0  0  0  0 
 11 41  1  0  0  0  0 
 12 42  1  0  0  0  0 
 14 43  1  0  0  0  0 
 14 44  1  0  0  0  0 
 14 45  1  0  0  0  0 
 15 46  1  0  0  0  0 
 15 47  1  0  0  0  0 
 15 48  1  0  0  0  0 
 16 49  1  0  0  0  0 
 17 50  1  0  0  0  0 
 18 51  1  0  0  0  0 
 19 52  1  0  0  0  0 
 20 53  1  0  0  0  0 
 20 54  1  0  0  0  0 
 21 55  1  0  0  0  0 
 21 56  1  0  0  0  0 
 22 57  1  0  0  0  0 
 23 58  1  0  0  0  0 
 24 59  1  0  0  0  0 
 24 60  1  0  0  0  0 
 25 61  1  0  0  0  0 
 25 62  1  0  0  0  0 
 27 63  1  0  0  0  0 
 29 64  1  0  0  0  0 
 30 65  1  0  0  0  0 
 31 66  1  0  0  0  0 
 32 67  1  0  0  0  0 
M  END
> <cdk:Title>
loperamide

> <Conformer>
1

> <SuperDrugID>
SD001413

$$$$
