scopolamine butylbromide
  CDK     0628171801

 56 59  0  0  0  0  0  0  0  0999 V2000
    2.2143   -0.4014   -1.5398 C   0  0  2  0  0  0  0  0  0  0  0  0
    2.2082    0.8589   -2.3766 C   0  0  1  0  0  0  0  0  0  0  0  0
    1.3552    0.6989   -1.2351 O   0  0  0  0  0  0  0  0  0  0  0  0
    4.5413   -0.8241   -3.4819 C   0  0  2  0  0  0  0  0  0  0  0  0
    3.6769   -0.5046   -1.0209 C   0  0  1  0  0  0  0  0  0  0  0  0
    3.6848    1.3604   -2.2940 C   0  0  2  0  0  0  0  0  0  0  0  0
    4.4390   -1.4326   -2.0292 C   0  0  2  0  0  0  0  0  0  0  0  0
    4.4219    0.7471   -3.5400 C   0  0  2  0  0  0  0  0  0  0  0  0
    4.2613    0.8932   -0.9680 N   0  0  1  0  0  0  0  0  0  0  0  0
    3.7001    2.4526   -2.3734 H   0  0  0  0  0  0  0  0  0  0  0  0
    3.6697   -0.9732   -0.0328 H   0  0  0  0  0  0  0  0  0  0  0  0
    5.5280   -1.0911   -3.8735 H   0  0  0  0  0  0  0  0  0  0  0  0
    3.5971   -1.3525   -4.4369 O   0  0  0  0  0  0  0  0  0  0  0  0
    3.3503   -2.6565   -4.7601 C   0  0  0  0  0  0  0  0  0  0  0  0
    3.6305   -3.1671   -6.1253 C   0  0  2  0  0  0  0  0  0  0  0  0
    2.8271   -3.4215   -3.9174 O   0  0  0  0  0  0  0  0  0  0  0  0
    5.1514   -3.0691   -6.4370 C   0  0  1  0  0  0  0  0  0  0  0  0
    3.4249   -4.2437   -6.1042 H   0  0  0  0  0  0  0  0  0  0  0  0
    5.4725   -3.7362   -7.6539 O   0  0  0  0  0  0  0  0  0  0  0  0
    3.7378    1.7175    0.2042 C   0  0  0  0  0  0  0  0  0  0  0  0
    5.7939    0.9710   -0.8628 C   0  0  1  0  0  0  0  0  0  0  0  0
    6.4504    0.3354    0.4046 C   0  0  1  0  0  0  0  0  0  0  0  0
    7.9881    0.1499    0.2749 C   0  0  1  0  0  0  0  0  0  0  0  0
    8.6007   -0.6785    1.4255 C   0  0  0  0  0  0  0  0  0  0  0  0
    2.7469   -2.5328   -7.1609 C   0  0  0  0  0  0  0  0  0  0  0  0
    1.7899   -3.3152   -7.8561 C   0  0  0  0  0  0  0  0  0  0  0  0
    0.9347   -2.7426   -8.8152 C   0  0  0  0  0  0  0  0  0  0  0  0
    1.0233   -1.3710   -9.1048 C   0  0  0  0  0  0  0  0  0  0  0  0
    1.9694   -0.5754   -8.4363 C   0  0  0  0  0  0  0  0  0  0  0  0
    2.8262   -1.1518   -7.4783 C   0  0  0  0  0  0  0  0  0  0  0  0
    1.7275    0.7221   -3.3494 H   0  0  0  0  0  0  0  0  0  0  0  0
    1.7435   -1.2552   -2.0344 H   0  0  0  0  0  0  0  0  0  0  0  0
    5.4414   -1.6301   -1.6474 H   0  0  0  0  0  0  0  0  0  0  0  0
    3.9618   -2.4094   -2.0354 H   0  0  0  0  0  0  0  0  0  0  0  0
    3.9058    1.0574   -4.4555 H   0  0  0  0  0  0  0  0  0  0  0  0
    5.4130    1.1959   -3.6225 H   0  0  0  0  0  0  0  0  0  0  0  0
    5.4797   -2.0297   -6.5041 H   0  0  0  0  0  0  0  0  0  0  0  0
    5.7234   -3.5542   -5.6407 H   0  0  0  0  0  0  0  0  0  0  0  0
    6.4520   -3.7038   -7.7065 H   0  0  0  0  0  0  0  0  0  0  0  0
    2.6811    1.9515    0.1713 H   0  0  0  0  0  0  0  0  0  0  0  0
    3.8937    1.1940    1.1494 H   0  0  0  0  0  0  0  0  0  0  0  0
    4.2341    2.6909    0.2700 H   0  0  0  0  0  0  0  0  0  0  0  0
    6.2806    0.4880   -1.7058 H   0  0  0  0  0  0  0  0  0  0  0  0
    6.1162    2.0163   -0.9260 H   0  0  0  0  0  0  0  0  0  0  0  0
    6.2576    0.9701    1.2723 H   0  0  0  0  0  0  0  0  0  0  0  0
    5.9975   -0.6396    0.5912 H   0  0  0  0  0  0  0  0  0  0  0  0
    8.2215   -0.3619   -0.6620 H   0  0  0  0  0  0  0  0  0  0  0  0
    8.4689    1.1309    0.2535 H   0  0  0  0  0  0  0  0  0  0  0  0
    9.6763   -0.7786    1.2744 H   0  0  0  0  0  0  0  0  0  0  0  0
    8.1640   -1.6782    1.4526 H   0  0  0  0  0  0  0  0  0  0  0  0
    8.4274   -0.1889    2.3841 H   0  0  0  0  0  0  0  0  0  0  0  0
    1.7019   -4.3166   -7.6661 H   0  0  0  0  0  0  0  0  0  0  0  0
    0.2460   -3.3249   -9.2977 H   0  0  0  0  0  0  0  0  0  0  0  0
    0.4012   -0.9541   -9.8007 H   0  0  0  0  0  0  0  0  0  0  0  0
    2.0307    0.4242   -8.6457 H   0  0  0  0  0  0  0  0  0  0  0  0
    3.5078   -0.5496   -7.0124 H   0  0  0  0  0  0  0  0  0  0  0  0
  1  3  1  0  0  0  0 
  2  3  1  0  0  0  0 
  1  2  1  0  0  0  0 
  4  7  1  0  0  0  0 
  4  8  1  0  0  0  0 
  5  7  1  0  0  0  0 
  6  8  1  0  0  0  0 
  1  5  1  0  0  0  0 
  2  6  1  0  0  0  0 
  5  9  1  0  0  0  0 
  6  9  1  0  0  0  0 
  6 10  1  0  0  0  0 
  5 11  1  0  0  0  0 
  4 12  1  0  0  0  0 
  4 13  1  0  0  0  0 
 13 14  1  0  0  0  0 
 14 15  1  0  0  0  0 
 14 16  2  0  0  0  0 
 15 17  1  0  0  0  0 
 15 18  1  0  0  0  0 
 17 19  1  0  0  0  0 
  9 20  1  0  0  0  0 
  9 21  1  0  0  0  0 
 21 22  1  0  0  0  0 
 22 23  1  0  0  0  0 
 23 24  1  0  0  0  0 
 15 25  1  0  0  0  0 
 25 26  2  0  0  0  0 
 26 27  1  0  0  0  0 
 27 28  2  0  0  0  0 
 28 29  1  0  0  0  0 
 29 30  2  0  0  0  0 
 25 30  1  0  0  0  0 
  2 31  1  0  0  0  0 
  1 32  1  0  0  0  0 
  7 33  1  0  0  0  0 
  7 34  1  0  0  0  0 
  8 35  1  0  0  0  0 
  8 36  1  0  0  0  0 
 17 37  1  0  0  0  0 
 17 38  1  0  0  0  0 
 19 39  1  0  0  0  0 
 20 40  1  0  0  0  0 
 20 41  1  0  0  0  0 
 20 42  1  0  0  0  0 
 21 43  1  0  0  0  0 
 21 44  1  0  0  0  0 
 22 45  1  0  0  0  0 
 22 46  1  0  0  0  0 
 23 47  1  0  0  0  0 
 23 48  1  0  0  0  0 
 24 49  1  0  0  0  0 
 24 50  1  0  0  0  0 
 24 51  1  0  0  0  0 
 26 52  1  0  0  0  0 
 27 53  1  0  0  0  0 
 28 54  1  0  0  0  0 
 29 55  1  0  0  0  0 
 30 56  1  0  0  0  0 
M  CHG  1   9   1
M  END
> <cdk:Title>
scopolamine butylbromide

> <Conformer>
1

> <SuperDrugID>
SD000398

$$$$
