olanzapine
  CDK     0628171801

 42 45  0  0  0  0  0  0  0  0999 V2000
    3.9470   -0.1622   -2.3585 C   0  0  0  0  0  0  0  0  0  0  0  0
    2.4905   -0.2433   -2.0668 N   0  0  1  0  0  0  0  0  0  0  0  0
    2.1957   -0.6554   -0.6587 C   0  0  2  0  0  0  0  0  0  0  0  0
    0.6681   -0.8065   -0.4431 C   0  0  2  0  0  0  0  0  0  0  0  0
   -0.0179    0.3811   -0.8983 N   0  0  0  0  0  0  0  0  0  0  0  0
    0.2428    0.8360   -2.2474 C   0  0  1  0  0  0  0  0  0  0  0  0
    1.7646    1.0009   -2.4641 C   0  0  2  0  0  0  0  0  0  0  0  0
   -0.8550    1.0714   -0.1001 C   0  0  0  0  0  0  0  0  0  0  0  0
   -0.2717    1.6744    0.8742 N   0  0  0  0  0  0  0  0  0  0  0  0
   -0.6383    2.5086    1.8400 C   0  0  0  0  0  0  0  0  0  0  0  0
    0.3597    2.7629    2.8091 C   0  0  0  0  0  0  0  0  0  0  0  0
    0.1546    3.7141    3.8234 C   0  0  0  0  0  0  0  0  0  0  0  0
   -1.0511    4.4288    3.8803 C   0  0  0  0  0  0  0  0  0  0  0  0
   -2.0668    4.1595    2.9464 C   0  0  0  0  0  0  0  0  0  0  0  0
   -1.8861    3.1887    1.9318 C   0  0  0  0  0  0  0  0  0  0  0  0
   -2.9551    2.9970    1.1106 N   0  0  0  0  0  0  0  0  0  0  0  0
   -3.1205    2.0573    0.1549 C   0  0  0  0  0  0  0  0  0  0  0  0
   -2.2192    1.1235   -0.3878 C   0  0  0  0  0  0  0  0  0  0  0  0
   -2.8380    0.2070   -1.2735 C   0  0  0  0  0  0  0  0  0  0  0  0
   -4.2015    0.3813   -1.5215 C   0  0  0  0  0  0  0  0  0  0  0  0
   -5.0764   -0.4682   -2.3376 C   0  0  0  0  0  0  0  0  0  0  0  0
   -4.6781    1.7973   -0.6099 S   0  0  0  0  0  0  0  0  0  0  0  0
    4.4223    0.6276   -1.7727 H   0  0  0  0  0  0  0  0  0  0  0  0
    4.1092    0.0431   -3.4182 H   0  0  0  0  0  0  0  0  0  0  0  0
    4.4374   -1.1099   -2.1318 H   0  0  0  0  0  0  0  0  0  0  0  0
    2.5941    0.0780    0.0505 H   0  0  0  0  0  0  0  0  0  0  0  0
    2.6673   -1.6185   -0.4481 H   0  0  0  0  0  0  0  0  0  0  0  0
    0.4730   -1.0229    0.6111 H   0  0  0  0  0  0  0  0  0  0  0  0
    0.3081   -1.6645   -1.0190 H   0  0  0  0  0  0  0  0  0  0  0  0
   -0.1363    0.0961   -2.9579 H   0  0  0  0  0  0  0  0  0  0  0  0
   -0.2506    1.7894   -2.4706 H   0  0  0  0  0  0  0  0  0  0  0  0
    1.9403    1.2209   -3.5216 H   0  0  0  0  0  0  0  0  0  0  0  0
    2.1216    1.8479   -1.8723 H   0  0  0  0  0  0  0  0  0  0  0  0
    1.2540    2.2621    2.7833 H   0  0  0  0  0  0  0  0  0  0  0  0
    0.8854    3.8915    4.5154 H   0  0  0  0  0  0  0  0  0  0  0  0
   -1.1908    5.1433    4.5995 H   0  0  0  0  0  0  0  0  0  0  0  0
   -2.9432    4.6864    3.0159 H   0  0  0  0  0  0  0  0  0  0  0  0
   -3.7207    3.5749    1.2609 H   0  0  0  0  0  0  0  0  0  0  0  0
   -2.3286   -0.5614   -1.7137 H   0  0  0  0  0  0  0  0  0  0  0  0
   -4.5597   -1.3812   -2.6402 H   0  0  0  0  0  0  0  0  0  0  0  0
   -5.9603   -0.7419   -1.7599 H   0  0  0  0  0  0  0  0  0  0  0  0
   -5.3792    0.0780   -3.2302 H   0  0  0  0  0  0  0  0  0  0  0  0
  1  2  1  0  0  0  0 
  2  3  1  0  0  0  0 
  3  4  1  0  0  0  0 
  4  5  1  0  0  0  0 
  5  6  1  0  0  0  0 
  6  7  1  0  0  0  0 
  2  7  1  0  0  0  0 
  5  8  1  0  0  0  0 
  8  9  2  0  0  0  0 
  9 10  1  0  0  0  0 
 10 11  2  0  0  0  0 
 11 12  1  0  0  0  0 
 12 13  2  0  0  0  0 
 13 14  1  0  0  0  0 
 14 15  2  0  0  0  0 
 10 15  1  0  0  0  0 
 15 16  1  0  0  0  0 
 16 17  1  0  0  0  0 
 17 18  2  0  0  0  0 
  8 18  1  0  0  0  0 
 18 19  1  0  0  0  0 
 19 20  2  0  0  0  0 
 20 21  1  0  0  0  0 
 20 22  1  0  0  0  0 
 17 22  1  0  0  0  0 
  1 23  1  0  0  0  0 
  1 24  1  0  0  0  0 
  1 25  1  0  0  0  0 
  3 26  1  0  0  0  0 
  3 27  1  0  0  0  0 
  4 28  1  0  0  0  0 
  4 29  1  0  0  0  0 
  6 30  1  0  0  0  0 
  6 31  1  0  0  0  0 
  7 32  1  0  0  0  0 
  7 33  1  0  0  0  0 
 11 34  1  0  0  0  0 
 12 35  1  0  0  0  0 
 13 36  1  0  0  0  0 
 14 37  1  0  0  0  0 
 16 38  1  0  0  0  0 
 19 39  1  0  0  0  0 
 21 40  1  0  0  0  0 
 21 41  1  0  0  0  0 
 21 42  1  0  0  0  0 
M  END
> <cdk:Title>
olanzapine

> <Conformer>
1

> <SuperDrugID>
SD001773

$$$$
