clofenamide
  CDK     0628171802

 22 22  0  0  0  0  0  0  0  0999 V2000
   -2.6078    2.8684    2.6109 S   0  0  2  0  0  0  0  0  0  0  0  0
   -4.3429    2.9043    2.3341 N   0  0  2  0  0  0  0  0  0  0  0  0
   -2.3221    3.5427    4.0384 O   0  0  0  0  0  0  0  0  0  0  0  0
   -1.9131    3.7520    1.4673 O   0  0  0  0  0  0  0  0  0  0  0  0
   -2.0485    1.1819    2.5807 C   0  0  0  0  0  0  0  0  0  0  0  0
   -1.1027    0.7961    1.6052 C   0  0  0  0  0  0  0  0  0  0  0  0
   -2.5317    0.2101    3.4938 C   0  0  0  0  0  0  0  0  0  0  0  0
   -0.6325   -0.5317    1.5312 C   0  0  0  0  0  0  0  0  0  0  0  0
   -3.6674    0.5781    4.7017 Cl  0  0  0  0  0  0  0  0  0  0  0  0
   -2.0693   -1.1197    3.4122 C   0  0  0  0  0  0  0  0  0  0  0  0
    0.5566   -0.9726    0.2952 S   0  0  2  0  0  0  0  0  0  0  0  0
   -1.1255   -1.4910    2.4373 C   0  0  0  0  0  0  0  0  0  0  0  0
    1.7440    0.3126    0.1323 N   0  0  2  0  0  0  0  0  0  0  0  0
   -0.1638   -1.1615   -1.1261 O   0  0  0  0  0  0  0  0  0  0  0  0
    1.3346   -2.3228    0.6744 O   0  0  0  0  0  0  0  0  0  0  0  0
   -4.6219    3.8864    2.3064 H   0  0  0  0  0  0  0  0  0  0  0  0
   -4.7805    2.5001    3.1634 H   0  0  0  0  0  0  0  0  0  0  0  0
   -0.7518    1.4855    0.9368 H   0  0  0  0  0  0  0  0  0  0  0  0
   -2.4172   -1.8285    4.0604 H   0  0  0  0  0  0  0  0  0  0  0  0
   -0.8043   -2.4621    2.3926 H   0  0  0  0  0  0  0  0  0  0  0  0
    2.3580    0.0546   -0.6420 H   0  0  0  0  0  0  0  0  0  0  0  0
    2.3151    0.2944    0.9793 H   0  0  0  0  0  0  0  0  0  0  0  0
  1  2  1  0  0  0  0 
  1  3  2  0  0  0  0 
  1  4  2  0  0  0  0 
  1  5  1  0  0  0  0 
  5  6  2  0  0  0  0 
  5  7  1  0  0  0  0 
  6  8  1  0  0  0  0 
  7  9  1  0  0  0  0 
  7 10  2  0  0  0  0 
  8 11  1  0  0  0  0 
  8 12  2  0  0  0  0 
 10 12  1  0  0  0  0 
 11 13  1  0  0  0  0 
 11 14  2  0  0  0  0 
 11 15  2  0  0  0  0 
  2 16  1  0  0  0  0 
  2 17  1  0  0  0  0 
  6 18  1  0  0  0  0 
 10 19  1  0  0  0  0 
 12 20  1  0  0  0  0 
 13 21  1  0  0  0  0 
 13 22  1  0  0  0  0 
M  END
> <cdk:Title>
clofenamide

> <Conformer>
1

> <SuperDrugID>
SD000610

$$$$
