epicillin
  CDK     0628171801

 45 47  0  0  0  0  0  0  0  0999 V2000
   -3.4062    1.7588   -1.3775 C   0  0  0  0  0  0  0  0  0  0  0  0
   -3.5394    2.5516   -2.4658 O   0  0  0  0  0  0  0  0  0  0  0  0
   -3.9689    0.6406   -1.4011 O   0  0  0  0  0  0  0  0  0  0  0  0
   -2.5986    2.2059   -0.2145 C   0  0  2  0  0  0  0  0  0  0  0  0
   -1.5428    1.2819    0.0115 N   0  0  0  0  0  0  0  0  0  0  0  0
   -3.3004    2.2315    1.1975 C   0  0  2  0  0  0  0  0  0  0  0  0
   -1.6641    0.0466    0.6761 C   0  0  2  0  0  0  0  0  0  0  0  0
   -0.2158    1.3508    0.0583 C   0  0  0  0  0  0  0  0  0  0  0  0
   -2.8554    0.6040    1.9398 S   0  0  0  0  0  0  0  0  0  0  0  0
   -0.1098    0.1083    0.8217 C   0  0  1  0  0  0  0  0  0  0  0  0
    0.6189    2.2128   -0.2946 O   0  0  0  0  0  0  0  0  0  0  0  0
    0.3621    0.2752    2.1586 N   0  0  0  0  0  0  0  0  0  0  0  0
    1.6735    0.2688    2.5263 C   0  0  0  0  0  0  0  0  0  0  0  0
    2.0375    0.4421    3.9530 C   0  0  2  0  0  0  0  0  0  0  0  0
    2.5773    0.1093    1.6709 O   0  0  0  0  0  0  0  0  0  0  0  0
    3.0733    1.4767    4.1081 N   0  0  2  0  0  0  0  0  0  0  0  0
    2.4212   -0.8374    4.5806 C   0  0  0  0  0  0  0  0  0  0  0  0
    3.7335   -1.4503    4.2990 C   0  0  2  0  0  0  0  0  0  0  0  0
    1.5667   -1.4571    5.4252 C   0  0  0  0  0  0  0  0  0  0  0  0
    4.0495   -2.6806    5.0131 C   0  0  0  0  0  0  0  0  0  0  0  0
    1.8588   -2.7161    6.0967 C   0  0  1  0  0  0  0  0  0  0  0  0
    3.1792   -3.2662    5.8469 C   0  0  0  0  0  0  0  0  0  0  0  0
   -2.0417   -0.7390    0.0158 H   0  0  0  0  0  0  0  0  0  0  0  0
   -4.8483    2.4155    1.1659 C   0  0  0  0  0  0  0  0  0  0  0  0
   -2.6726    3.3310    2.1123 C   0  0  0  0  0  0  0  0  0  0  0  0
   -4.0618    2.2437   -3.2362 H   0  0  0  0  0  0  0  0  0  0  0  0
   -2.1825    3.1899   -0.4499 H   0  0  0  0  0  0  0  0  0  0  0  0
    0.3947   -0.6828    0.2616 H   0  0  0  0  0  0  0  0  0  0  0  0
   -0.2986    0.4073    2.8564 H   0  0  0  0  0  0  0  0  0  0  0  0
    1.1690    0.8680    4.4664 H   0  0  0  0  0  0  0  0  0  0  0  0
    2.6814    2.3461    3.7403 H   0  0  0  0  0  0  0  0  0  0  0  0
    3.8588    1.2271    3.5037 H   0  0  0  0  0  0  0  0  0  0  0  0
    4.5208   -0.7331    4.5364 H   0  0  0  0  0  0  0  0  0  0  0  0
    3.7969   -1.6767    3.2338 H   0  0  0  0  0  0  0  0  0  0  0  0
    0.6797   -1.0493    5.6153 H   0  0  0  0  0  0  0  0  0  0  0  0
    4.9426   -3.0968    4.8766 H   0  0  0  0  0  0  0  0  0  0  0  0
    1.7482   -2.5639    7.1721 H   0  0  0  0  0  0  0  0  0  0  0  0
    1.1168   -3.4513    5.7797 H   0  0  0  0  0  0  0  0  0  0  0  0
    3.4417   -4.1038    6.3140 H   0  0  0  0  0  0  0  0  0  0  0  0
   -5.2629    2.4344    2.1756 H   0  0  0  0  0  0  0  0  0  0  0  0
   -5.1077    3.3529    0.6706 H   0  0  0  0  0  0  0  0  0  0  0  0
   -5.3320    1.5999    0.6287 H   0  0  0  0  0  0  0  0  0  0  0  0
   -3.0228    3.2257    3.1408 H   0  0  0  0  0  0  0  0  0  0  0  0
   -2.9475    4.3274    1.7614 H   0  0  0  0  0  0  0  0  0  0  0  0
   -1.5831    3.2658    2.1180 H   0  0  0  0  0  0  0  0  0  0  0  0
  1  2  1  0  0  0  0 
  1  3  2  0  0  0  0 
  4  1  1  0  0  0  0 
  4  5  1  0  0  0  0 
  4  6  1  0  0  0  0 
  7  5  1  0  0  0  0 
  5  8  1  0  0  0  0 
  6  9  1  0  0  0  0 
  7  9  1  0  0  0  0 
 10  7  1  0  0  0  0 
  7 23  1  0  0  0  0 
 10  8  1  0  0  0  0 
  8 11  2  0  0  0  0 
 10 12  1  0  0  0  0 
 12 13  1  0  0  0  0 
 14 13  1  0  0  0  0 
 13 15  2  0  0  0  0 
 14 16  1  0  0  0  0 
 14 17  1  0  0  0  0 
 17 18  1  0  0  0  0 
 17 19  2  0  0  0  0 
 18 20  1  0  0  0  0 
 19 21  1  0  0  0  0 
 20 22  2  0  0  0  0 
 21 22  1  0  0  0  0 
  6 24  1  0  0  0  0 
  6 25  1  0  0  0  0 
  2 26  1  0  0  0  0 
  4 27  1  0  0  0  0 
 10 28  1  0  0  0  0 
 12 29  1  0  0  0  0 
 14 30  1  0  0  0  0 
 16 31  1  0  0  0  0 
 16 32  1  0  0  0  0 
 18 33  1  0  0  0  0 
 18 34  1  0  0  0  0 
 19 35  1  0  0  0  0 
 20 36  1  0  0  0  0 
 21 37  1  0  0  0  0 
 21 38  1  0  0  0  0 
 22 39  1  0  0  0  0 
 24 40  1  0  0  0  0 
 24 41  1  0  0  0  0 
 24 42  1  0  0  0  0 
 25 43  1  0  0  0  0 
 25 44  1  0  0  0  0 
 25 45  1  0  0  0  0 
M  END
> <cdk:Title>
epicillin

> <Conformer>
1

> <SuperDrugID>
SD000912

$$$$
