hydrocortisone cypionate
  CDK     0628171801

 77 81  0  0  0  0  0  0  0  0999 V2000
    1.0861   -4.9228    0.8257 C   0  0  0  0  0  0  0  0  0  0  0  0
    1.8390   -3.8107    1.6596 C   0  0  2  0  0  0  0  0  0  0  0  0
    2.6199   -4.3402    2.9111 C   0  0  2  0  0  0  0  0  0  0  0  0
    0.7675   -2.8819    2.3649 C   0  0  2  0  0  0  0  0  0  0  0  0
    2.9093   -3.1044    0.7523 C   0  0  2  0  0  0  0  0  0  0  0  0
    3.7632   -5.3607    2.5792 C   0  0  1  0  0  0  0  0  0  0  0  0
    1.5162   -4.7515    3.8999 C   0  0  1  0  0  0  0  0  0  0  0  0
   -0.4303   -2.4759    1.5448 C   0  0  0  0  0  0  0  0  0  0  0  0
    1.3667   -1.6537    2.8039 O   0  0  0  0  0  0  0  0  0  0  0  0
    0.4074   -3.6960    3.6669 C   0  0  2  0  0  0  0  0  0  0  0  0
    4.1525   -3.9890    0.4028 C   0  0  1  0  0  0  0  0  0  0  0  0
    4.8329   -4.6634    1.6587 C   0  0  2  0  0  0  0  0  0  0  0  0
    4.4320   -5.9130    3.8725 C   0  0  1  0  0  0  0  0  0  0  0  0
   -0.4814   -1.3656    0.5609 C   0  0  2  0  0  0  0  0  0  0  0  0
   -1.5349   -3.0441    1.7260 O   0  0  0  0  0  0  0  0  0  0  0  0
    3.7831   -4.9321   -0.6001 O   0  0  0  0  0  0  0  0  0  0  0  0
    6.1432   -5.5445    1.3923 C   0  0  2  0  0  0  0  0  0  0  0  0
    5.6272   -6.8309    3.5425 C   0  0  2  0  0  0  0  0  0  0  0  0
    0.7875   -0.9143    0.0698 O   0  0  0  0  0  0  0  0  0  0  0  0
    5.9147   -6.7143    0.3687 C   0  0  0  0  0  0  0  0  0  0  0  0
    6.6121   -6.1800    2.6656 C   0  0  0  0  0  0  0  0  0  0  0  0
    7.2641   -4.5918    0.8081 C   0  0  1  0  0  0  0  0  0  0  0  0
    0.9664   -0.0130   -0.9464 C   0  0  0  0  0  0  0  0  0  0  0  0
    7.9214   -6.2376    3.0105 C   0  0  0  0  0  0  0  0  0  0  0  0
    8.6941   -5.1821    0.8818 C   0  0  1  0  0  0  0  0  0  0  0  0
    2.3334    0.3127   -1.3967 C   0  0  2  0  0  0  0  0  0  0  0  0
   -0.0183    0.5182   -1.5132 O   0  0  0  0  0  0  0  0  0  0  0  0
    8.9493   -5.7588    2.2170 C   0  0  0  0  0  0  0  0  0  0  0  0
    3.0829    1.1139   -0.2556 C   0  0  1  0  0  0  0  0  0  0  0  0
   10.1333   -5.8551    2.6177 O   0  0  0  0  0  0  0  0  0  0  0  0
    4.5740    1.3645   -0.6209 C   0  0  2  0  0  0  0  0  0  0  0  0
    5.4530    0.0927   -0.5686 C   0  0  2  0  0  0  0  0  0  0  0  0
    5.3066    2.3493    0.3245 C   0  0  1  0  0  0  0  0  0  0  0  0
    6.8869    0.6400   -0.5310 C   0  0  1  0  0  0  0  0  0  0  0  0
    6.7921    1.9127    0.3355 C   0  0  2  0  0  0  0  0  0  0  0  0
    1.7361   -5.7379    0.5202 H   0  0  0  0  0  0  0  0  0  0  0  0
    0.2620   -5.3713    1.3841 H   0  0  0  0  0  0  0  0  0  0  0  0
    0.6625   -4.4866   -0.0831 H   0  0  0  0  0  0  0  0  0  0  0  0
    3.1219   -3.4905    3.3996 H   0  0  0  0  0  0  0  0  0  0  0  0
    3.2777   -2.2064    1.2510 H   0  0  0  0  0  0  0  0  0  0  0  0
    2.4454   -2.7808   -0.1790 H   0  0  0  0  0  0  0  0  0  0  0  0
    3.3380   -6.2154    2.0529 H   0  0  0  0  0  0  0  0  0  0  0  0
    1.1596   -5.7599    3.6718 H   0  0  0  0  0  0  0  0  0  0  0  0
    1.8747   -4.7362    4.9341 H   0  0  0  0  0  0  0  0  0  0  0  0
    0.6644   -1.1901    3.3086 H   0  0  0  0  0  0  0  0  0  0  0  0
   -0.5431   -4.2298    3.5893 H   0  0  0  0  0  0  0  0  0  0  0  0
    0.3322   -3.0351    4.5351 H   0  0  0  0  0  0  0  0  0  0  0  0
    4.8794   -3.3251   -0.0699 H   0  0  0  0  0  0  0  0  0  0  0  0
    5.1842   -3.8127    2.2563 H   0  0  0  0  0  0  0  0  0  0  0  0
    4.7750   -5.0935    4.5132 H   0  0  0  0  0  0  0  0  0  0  0  0
    3.7032   -6.4991    4.4402 H   0  0  0  0  0  0  0  0  0  0  0  0
   -1.0014   -0.5208    1.0221 H   0  0  0  0  0  0  0  0  0  0  0  0
   -1.0677   -1.7022   -0.2993 H   0  0  0  0  0  0  0  0  0  0  0  0
    3.4852   -4.3940   -1.3646 H   0  0  0  0  0  0  0  0  0  0  0  0
    5.2578   -7.7297    3.0435 H   0  0  0  0  0  0  0  0  0  0  0  0
    6.0545   -7.1627    4.4950 H   0  0  0  0  0  0  0  0  0  0  0  0
    5.8060   -6.3429   -0.6502 H   0  0  0  0  0  0  0  0  0  0  0  0
    5.0231   -7.2929    0.6120 H   0  0  0  0  0  0  0  0  0  0  0  0
    6.7637   -7.4023    0.3566 H   0  0  0  0  0  0  0  0  0  0  0  0
    7.0526   -4.3235   -0.2305 H   0  0  0  0  0  0  0  0  0  0  0  0
    7.2893   -3.6570    1.3762 H   0  0  0  0  0  0  0  0  0  0  0  0
    8.1847   -6.6662    3.8696 H   0  0  0  0  0  0  0  0  0  0  0  0
    8.8264   -5.9612    0.1271 H   0  0  0  0  0  0  0  0  0  0  0  0
    9.4167   -4.3874    0.6756 H   0  0  0  0  0  0  0  0  0  0  0  0
    2.2394    1.0548   -2.2523 H   0  0  0  0  0  0  0  0  0  0  0  0
    2.7976   -0.7149   -1.6820 H   0  0  0  0  0  0  0  0  0  0  0  0
    2.5816    2.0760   -0.1120 H   0  0  0  0  0  0  0  0  0  0  0  0
    3.0293    0.5634    0.6886 H   0  0  0  0  0  0  0  0  0  0  0  0
    4.6180    1.7811   -1.6350 H   0  0  0  0  0  0  0  0  0  0  0  0
    5.2970   -0.5513   -1.4374 H   0  0  0  0  0  0  0  0  0  0  0  0
    5.2571   -0.4811    0.3438 H   0  0  0  0  0  0  0  0  0  0  0  0
    5.2014    3.3782   -0.0336 H   0  0  0  0  0  0  0  0  0  0  0  0
    4.8957    2.2937    1.3384 H   0  0  0  0  0  0  0  0  0  0  0  0
    7.5803   -0.0918   -0.1092 H   0  0  0  0  0  0  0  0  0  0  0  0
    7.2113    0.8940   -1.5452 H   0  0  0  0  0  0  0  0  0  0  0  0
    7.1077    1.6907    1.3587 H   0  0  0  0  0  0  0  0  0  0  0  0
    7.4371    2.6970   -0.0678 H   0  0  0  0  0  0  0  0  0  0  0  0
  2  1  1  0  0  0  0 
  3  2  1  0  0  0  0 
  2  4  1  0  0  0  0 
  2  5  1  0  0  0  0 
  6  3  1  0  0  0  0 
  3  7  1  0  0  0  0 
  4  8  1  0  0  0  0 
  4  9  1  0  0  0  0 
  4 10  1  0  0  0  0 
 11  5  1  0  0  0  0 
 12  6  1  0  0  0  0 
  6 13  1  0  0  0  0 
  7 10  1  0  0  0  0 
  8 14  1  0  0  0  0 
  8 15  2  0  0  0  0 
 12 11  1  0  0  0  0 
 11 16  1  0  0  0  0 
 12 17  1  0  0  0  0 
 13 18  1  0  0  0  0 
 14 19  1  0  0  0  0 
 17 20  1  0  0  0  0 
 17 21  1  0  0  0  0 
 17 22  1  0  0  0  0 
 18 21  1  0  0  0  0 
 19 23  1  0  0  0  0 
 21 24  2  0  0  0  0 
 22 25  1  0  0  0  0 
 23 26  1  0  0  0  0 
 23 27  2  0  0  0  0 
 24 28  1  0  0  0  0 
 25 28  1  0  0  0  0 
 26 29  1  0  0  0  0 
 28 30  2  0  0  0  0 
 29 31  1  0  0  0  0 
 31 32  1  0  0  0  0 
 31 33  1  0  0  0  0 
 32 34  1  0  0  0  0 
 33 35  1  0  0  0  0 
 34 35  1  0  0  0  0 
 36  1  1  0  0  0  0 
 37  1  1  0  0  0  0 
 38  1  1  0  0  0  0 
  3 39  1  0  0  0  0 
 40  5  1  0  0  0  0 
 41  5  1  0  0  0  0 
  6 42  1  0  0  0  0 
 43  7  1  0  0  0  0 
 44  7  1  0  0  0  0 
 45  9  1  0  0  0  0 
 46 10  1  0  0  0  0 
 47 10  1  0  0  0  0 
 11 48  1  0  0  0  0 
 12 49  1  0  0  0  0 
 50 13  1  0  0  0  0 
 51 13  1  0  0  0  0 
 52 14  1  0  0  0  0 
 53 14  1  0  0  0  0 
 54 16  1  0  0  0  0 
 55 18  1  0  0  0  0 
 56 18  1  0  0  0  0 
 57 20  1  0  0  0  0 
 58 20  1  0  0  0  0 
 59 20  1  0  0  0  0 
 60 22  1  0  0  0  0 
 61 22  1  0  0  0  0 
 62 24  1  0  0  0  0 
 63 25  1  0  0  0  0 
 64 25  1  0  0  0  0 
 65 26  1  0  0  0  0 
 66 26  1  0  0  0  0 
 67 29  1  0  0  0  0 
 68 29  1  0  0  0  0 
 69 31  1  0  0  0  0 
 70 32  1  0  0  0  0 
 71 32  1  0  0  0  0 
 72 33  1  0  0  0  0 
 73 33  1  0  0  0  0 
 74 34  1  0  0  0  0 
 75 34  1  0  0  0  0 
 76 35  1  0  0  0  0 
 77 35  1  0  0  0  0 
M  END
> <cdk:Title>
hydrocortisone cypionate

> <Conformer>
1

> <SuperDrugID>
SD001236

$$$$
