xylitol
  CDK     0628171802

 22 21  0  0  0  0  0  0  0  0999 V2000
    4.6955   -9.6058   -2.4376 C   0  0  1  0  0  0  0  0  0  0  0  0
    3.9104  -10.5368   -3.4139 C   0  0  1  0  0  0  0  0  0  0  0  0
    6.1903   -9.9884   -2.2036 C   0  0  2  0  0  0  0  0  0  0  0  0
    4.6626   -8.2655   -2.9329 O   0  0  0  0  0  0  0  0  0  0  0  0
    2.4072  -10.1883   -3.5510 C   0  0  1  0  0  0  0  0  0  0  0  0
    4.4925  -10.4976   -4.7166 O   0  0  0  0  0  0  0  0  0  0  0  0
    6.4103  -11.4058   -1.6109 C   0  0  2  0  0  0  0  0  0  0  0  0
    6.7797   -9.0487   -1.3019 O   0  0  0  0  0  0  0  0  0  0  0  0
    1.7313  -10.2528   -2.3001 O   0  0  0  0  0  0  0  0  0  0  0  0
    7.7956  -11.6464   -1.3810 O   0  0  0  0  0  0  0  0  0  0  0  0
    4.1933   -9.6049   -1.4663 H   0  0  0  0  0  0  0  0  0  0  0  0
    3.9599  -11.5691   -3.0613 H   0  0  0  0  0  0  0  0  0  0  0  0
    6.7368   -9.9197   -3.1487 H   0  0  0  0  0  0  0  0  0  0  0  0
    3.7175   -8.0087   -2.9335 H   0  0  0  0  0  0  0  0  0  0  0  0
    2.2830   -9.1888   -3.9686 H   0  0  0  0  0  0  0  0  0  0  0  0
    1.9324  -10.9007   -4.2259 H   0  0  0  0  0  0  0  0  0  0  0  0
    5.4052  -10.8410   -4.6096 H   0  0  0  0  0  0  0  0  0  0  0  0
    6.0582  -12.1728   -2.3028 H   0  0  0  0  0  0  0  0  0  0  0  0
    5.8741  -11.5086   -0.6639 H   0  0  0  0  0  0  0  0  0  0  0  0
    6.7059   -8.1782   -1.7467 H   0  0  0  0  0  0  0  0  0  0  0  0
    0.8009  -10.0206   -2.5051 H   0  0  0  0  0  0  0  0  0  0  0  0
    7.8398  -12.5801   -1.0829 H   0  0  0  0  0  0  0  0  0  0  0  0
  1  2  1  0  0  0  0 
  1  3  1  0  0  0  0 
  1  4  1  0  0  0  0 
  2  5  1  0  0  0  0 
  2  6  1  0  0  0  0 
  3  7  1  0  0  0  0 
  3  8  1  0  0  0  0 
  5  9  1  0  0  0  0 
  7 10  1  0  0  0  0 
  1 11  1  0  0  0  0 
  2 12  1  0  0  0  0 
  3 13  1  0  0  0  0 
  4 14  1  0  0  0  0 
  5 15  1  0  0  0  0 
  5 16  1  0  0  0  0 
  6 17  1  0  0  0  0 
  7 18  1  0  0  0  0 
  7 19  1  0  0  0  0 
  8 20  1  0  0  0  0 
  9 21  1  0  0  0  0 
 10 22  1  0  0  0  0 
M  END
> <cdk:Title>
xylitol

> <Conformer>
1

> <SuperDrugID>
SD003649

$$$$
