chlormadinone
  CDK     0628171802

 57 60  0  0  0  0  0  0  0  0999 V2000
   -5.2757   -1.9790    7.0010 O   0  0  0  0  0  0  0  0  0  0  0  0
   -5.0718   -2.1486    8.3462 C   0  0  0  0  0  0  0  0  0  0  0  0
   -6.1012   -2.7044    6.0489 C   0  0  1  0  0  0  0  0  0  0  0  0
   -4.2257   -1.1944    9.0798 C   0  0  0  0  0  0  0  0  0  0  0  0
   -5.6039   -3.0927    8.9739 O   0  0  0  0  0  0  0  0  0  0  0  0
   -7.5143   -2.5806    6.5577 C   0  0  0  0  0  0  0  0  0  0  0  0
   -5.8617   -2.0691    4.6149 C   0  0  2  0  0  0  0  0  0  0  0  0
   -5.5528   -4.1665    5.8644 C   0  0  2  0  0  0  0  0  0  0  0  0
   -8.3620   -3.7022    7.0243 C   0  0  0  0  0  0  0  0  0  0  0  0
   -8.0053   -1.4300    6.6424 O   0  0  0  0  0  0  0  0  0  0  0  0
   -7.0445   -2.4691    3.6430 C   0  0  0  0  0  0  0  0  0  0  0  0
   -4.4739   -2.6984    4.2382 C   0  0  1  0  0  0  0  0  0  0  0  0
   -5.6662   -0.5061    4.5661 C   0  0  2  0  0  0  0  0  0  0  0  0
   -4.6270   -4.1836    4.6217 C   0  0  1  0  0  0  0  0  0  0  0  0
   -3.9913   -2.3069    2.7967 C   0  0  1  0  0  0  0  0  0  0  0  0
   -5.0948    0.0116    3.2074 C   0  0  2  0  0  0  0  0  0  0  0  0
   -3.8055   -0.7489    2.7239 C   0  0  2  0  0  0  0  0  0  0  0  0
   -2.7898   -2.9888    2.3391 C   0  0  0  0  0  0  0  0  0  0  0  0
   -3.1908   -0.3048    1.3257 C   0  0  2  0  0  0  0  0  0  0  0  0
   -1.8909   -2.4491    1.4884 C   0  0  0  0  0  0  0  0  0  0  0  0
   -4.2153   -0.4870    0.1489 C   0  0  0  0  0  0  0  0  0  0  0  0
   -1.9805   -1.1371    1.0053 C   0  0  0  0  0  0  0  0  0  0  0  0
   -2.7873    1.2204    1.4127 C   0  0  1  0  0  0  0  0  0  0  0  0
   -0.6558   -3.5006    1.0501 Cl  0  0  0  0  0  0  0  0  0  0  0  0
   -1.0007   -0.6055    0.2247 C   0  0  0  0  0  0  0  0  0  0  0  0
   -1.9624    1.7145    0.1959 C   0  0  1  0  0  0  0  0  0  0  0  0
   -0.9957    0.6971   -0.2582 C   0  0  0  0  0  0  0  0  0  0  0  0
   -0.1548    1.0383   -1.1233 O   0  0  0  0  0  0  0  0  0  0  0  0
   -3.9383   -0.3580    8.4379 H   0  0  0  0  0  0  0  0  0  0  0  0
   -4.7808   -0.8006    9.9346 H   0  0  0  0  0  0  0  0  0  0  0  0
   -3.3217   -1.6903    9.4392 H   0  0  0  0  0  0  0  0  0  0  0  0
   -6.3505   -4.8913    5.6951 H   0  0  0  0  0  0  0  0  0  0  0  0
   -4.9997   -4.4934    6.7476 H   0  0  0  0  0  0  0  0  0  0  0  0
   -9.2937   -3.3411    7.4679 H   0  0  0  0  0  0  0  0  0  0  0  0
   -7.8275   -4.2821    7.7792 H   0  0  0  0  0  0  0  0  0  0  0  0
   -8.6174   -4.3507    6.1837 H   0  0  0  0  0  0  0  0  0  0  0  0
   -7.9673   -1.9652    3.9338 H   0  0  0  0  0  0  0  0  0  0  0  0
   -7.2352   -3.5439    3.6557 H   0  0  0  0  0  0  0  0  0  0  0  0
   -6.8558   -2.1841    2.6121 H   0  0  0  0  0  0  0  0  0  0  0  0
   -3.7044   -2.3114    4.9222 H   0  0  0  0  0  0  0  0  0  0  0  0
   -4.9701   -0.1854    5.3463 H   0  0  0  0  0  0  0  0  0  0  0  0
   -6.6161   -0.0049    4.7705 H   0  0  0  0  0  0  0  0  0  0  0  0
   -3.6591   -4.6347    4.8607 H   0  0  0  0  0  0  0  0  0  0  0  0
   -5.0786   -4.7467    3.7995 H   0  0  0  0  0  0  0  0  0  0  0  0
   -4.7539   -2.6224    2.0879 H   0  0  0  0  0  0  0  0  0  0  0  0
   -4.8611    1.0700    3.3451 H   0  0  0  0  0  0  0  0  0  0  0  0
   -5.8788   -0.0450    2.4539 H   0  0  0  0  0  0  0  0  0  0  0  0
   -3.0425   -0.5048    3.4750 H   0  0  0  0  0  0  0  0  0  0  0  0
   -2.6668   -3.9279    2.6446 H   0  0  0  0  0  0  0  0  0  0  0  0
   -3.7724   -0.2212   -0.8127 H   0  0  0  0  0  0  0  0  0  0  0  0
   -4.5595   -1.5179    0.0674 H   0  0  0  0  0  0  0  0  0  0  0  0
   -5.0843    0.1548    0.2890 H   0  0  0  0  0  0  0  0  0  0  0  0
   -3.6736    1.8545    1.4942 H   0  0  0  0  0  0  0  0  0  0  0  0
   -2.1793    1.3861    2.3094 H   0  0  0  0  0  0  0  0  0  0  0  0
   -0.2107   -1.1484   -0.0374 H   0  0  0  0  0  0  0  0  0  0  0  0
   -2.6279    1.9601   -0.6353 H   0  0  0  0  0  0  0  0  0  0  0  0
   -1.4271    2.6276    0.4739 H   0  0  0  0  0  0  0  0  0  0  0  0
  1  2  1  0  0  0  0 
  2  4  1  0  0  0  0 
  2  5  2  0  0  0  0 
  3  1  1  0  0  0  0 
  3  6  1  0  0  0  0 
  7  3  1  0  0  0  0 
  3  8  1  0  0  0  0 
  6  9  1  0  0  0  0 
  6 10  2  0  0  0  0 
  7 11  1  0  0  0  0 
  7 12  1  0  0  0  0 
  7 13  1  0  0  0  0 
  8 14  1  0  0  0  0 
 12 14  1  0  0  0  0 
 12 15  1  0  0  0  0 
 13 16  1  0  0  0  0 
 15 17  1  0  0  0  0 
 15 18  1  0  0  0  0 
 17 16  1  0  0  0  0 
 17 19  1  0  0  0  0 
 18 20  2  0  0  0  0 
 19 21  1  0  0  0  0 
 19 22  1  0  0  0  0 
 19 23  1  0  0  0  0 
 20 22  1  0  0  0  0 
 20 24  1  0  0  0  0 
 22 25  2  0  0  0  0 
 23 26  1  0  0  0  0 
 25 27  1  0  0  0  0 
 26 27  1  0  0  0  0 
 27 28  2  0  0  0  0 
 29  4  1  0  0  0  0 
 30  4  1  0  0  0  0 
 31  4  1  0  0  0  0 
 32  8  1  0  0  0  0 
 33  8  1  0  0  0  0 
 34  9  1  0  0  0  0 
 35  9  1  0  0  0  0 
 36  9  1  0  0  0  0 
 37 11  1  0  0  0  0 
 38 11  1  0  0  0  0 
 39 11  1  0  0  0  0 
 12 40  1  0  0  0  0 
 41 13  1  0  0  0  0 
 42 13  1  0  0  0  0 
 43 14  1  0  0  0  0 
 44 14  1  0  0  0  0 
 15 45  1  0  0  0  0 
 46 16  1  0  0  0  0 
 47 16  1  0  0  0  0 
 17 48  1  0  0  0  0 
 49 18  1  0  0  0  0 
 50 21  1  0  0  0  0 
 51 21  1  0  0  0  0 
 52 21  1  0  0  0  0 
 53 23  1  0  0  0  0 
 54 23  1  0  0  0  0 
 55 25  1  0  0  0  0 
 56 26  1  0  0  0  0 
 57 26  1  0  0  0  0 
M  END
> <cdk:Title>
chlormadinone

> <Conformer>
1

> <SuperDrugID>
SD000523

$$$$
