ethoheptazine
  CDK     0628171801

 42 43  0  0  0  0  0  0  0  0999 V2000
   -2.5570    1.5080    0.2719 C   0  0  0  0  0  0  0  0  0  0  0  0
   -1.3581    0.8486    0.2882 O   0  0  0  0  0  0  0  0  0  0  0  0
   -3.5332    1.0025    0.8790 O   0  0  0  0  0  0  0  0  0  0  0  0
   -2.7402    2.7839   -0.5077 C   0  0  2  0  0  0  0  0  0  0  0  0
   -0.9925   -0.3291    1.0227 C   0  0  1  0  0  0  0  0  0  0  0  0
   -1.4143    3.3583   -1.1594 C   0  0  2  0  0  0  0  0  0  0  0  0
   -3.3306    3.8791    0.4748 C   0  0  1  0  0  0  0  0  0  0  0  0
   -3.6771    2.4688   -1.6784 C   0  0  0  0  0  0  0  0  0  0  0  0
   -0.9694   -0.0814    2.5447 C   0  0  0  0  0  0  0  0  0  0  0  0
   -0.1006    3.4312   -0.3219 C   0  0  1  0  0  0  0  0  0  0  0  0
   -2.5584    4.2366    1.7739 C   0  0  2  0  0  0  0  0  0  0  0  0
   -3.4132    1.3495   -2.5207 C   0  0  0  0  0  0  0  0  0  0  0  0
   -4.8042    3.2635   -2.0351 C   0  0  0  0  0  0  0  0  0  0  0  0
   -0.2319    3.6352    1.1518 N   0  0  2  0  0  0  0  0  0  0  0  0
   -1.1232    4.7651    1.5532 C   0  0  1  0  0  0  0  0  0  0  0  0
   -4.2248    1.0345   -3.6257 C   0  0  0  0  0  0  0  0  0  0  0  0
   -5.6261    2.9497   -3.1337 C   0  0  0  0  0  0  0  0  0  0  0  0
    1.0907    3.6300    1.8450 C   0  0  0  0  0  0  0  0  0  0  0  0
   -5.3381    1.8314   -3.9291 C   0  0  0  0  0  0  0  0  0  0  0  0
   -1.6771   -1.1448    0.7850 H   0  0  0  0  0  0  0  0  0  0  0  0
    0.0097   -0.6262    0.7046 H   0  0  0  0  0  0  0  0  0  0  0  0
   -1.6262    4.3707   -1.5210 H   0  0  0  0  0  0  0  0  0  0  0  0
   -1.1525    2.7867   -2.0560 H   0  0  0  0  0  0  0  0  0  0  0  0
   -3.4678    4.8231   -0.0608 H   0  0  0  0  0  0  0  0  0  0  0  0
   -4.3266    3.5568    0.7924 H   0  0  0  0  0  0  0  0  0  0  0  0
   -0.5564   -0.9525    3.0572 H   0  0  0  0  0  0  0  0  0  0  0  0
   -0.3513    0.7908    2.7683 H   0  0  0  0  0  0  0  0  0  0  0  0
   -1.9777    0.0920    2.9237 H   0  0  0  0  0  0  0  0  0  0  0  0
    0.4401    2.4947   -0.4853 H   0  0  0  0  0  0  0  0  0  0  0  0
    0.5246    4.2257   -0.7422 H   0  0  0  0  0  0  0  0  0  0  0  0
   -2.5258    3.3707    2.4392 H   0  0  0  0  0  0  0  0  0  0  0  0
   -3.1276    5.0149    2.2943 H   0  0  0  0  0  0  0  0  0  0  0  0
   -2.6083    0.7452   -2.3366 H   0  0  0  0  0  0  0  0  0  0  0  0
   -5.0529    4.1003   -1.5126 H   0  0  0  0  0  0  0  0  0  0  0  0
   -1.1156    5.5725    0.8146 H   0  0  0  0  0  0  0  0  0  0  0  0
   -0.8002    5.2082    2.4999 H   0  0  0  0  0  0  0  0  0  0  0  0
   -4.0030    0.2262   -4.2107 H   0  0  0  0  0  0  0  0  0  0  0  0
   -6.4319    3.5395   -3.3566 H   0  0  0  0  0  0  0  0  0  0  0  0
    1.6631    4.5238    1.5843 H   0  0  0  0  0  0  0  0  0  0  0  0
    0.9520    3.6036    2.9280 H   0  0  0  0  0  0  0  0  0  0  0  0
    1.6745    2.7467    1.5732 H   0  0  0  0  0  0  0  0  0  0  0  0
   -5.9338    1.6023   -4.7279 H   0  0  0  0  0  0  0  0  0  0  0  0
  1  2  1  0  0  0  0 
  1  3  2  0  0  0  0 
  4  1  1  0  0  0  0 
  2  5  1  0  0  0  0 
  4  6  1  0  0  0  0 
  4  7  1  0  0  0  0 
  4  8  1  0  0  0  0 
  5  9  1  0  0  0  0 
  6 10  1  0  0  0  0 
  7 11  1  0  0  0  0 
  8 12  2  0  0  0  0 
  8 13  1  0  0  0  0 
 10 14  1  0  0  0  0 
 11 15  1  0  0  0  0 
 12 16  1  0  0  0  0 
 13 17  2  0  0  0  0 
 14 15  1  0  0  0  0 
 14 18  1  0  0  0  0 
 16 19  2  0  0  0  0 
 17 19  1  0  0  0  0 
  5 20  1  0  0  0  0 
  5 21  1  0  0  0  0 
  6 22  1  0  0  0  0 
  6 23  1  0  0  0  0 
  7 24  1  0  0  0  0 
  7 25  1  0  0  0  0 
  9 26  1  0  0  0  0 
  9 27  1  0  0  0  0 
  9 28  1  0  0  0  0 
 10 29  1  0  0  0  0 
 10 30  1  0  0  0  0 
 11 31  1  0  0  0  0 
 11 32  1  0  0  0  0 
 12 33  1  0  0  0  0 
 13 34  1  0  0  0  0 
 15 35  1  0  0  0  0 
 15 36  1  0  0  0  0 
 16 37  1  0  0  0  0 
 17 38  1  0  0  0  0 
 18 39  1  0  0  0  0 
 18 40  1  0  0  0  0 
 18 41  1  0  0  0  0 
 19 42  1  0  0  0  0 
M  END
> <cdk:Title>
ethoheptazine

> <Conformer>
1

> <SuperDrugID>
SD000969

$$$$
