Padimate O
  CDK     0628171801

 47 47  0  0  0  0  0  0  0  0999 V2000
   -0.8783    3.3636    4.9115 C   0  0  0  0  0  0  0  0  0  0  0  0
   -1.8913    3.4213    5.8318 O   0  0  0  0  0  0  0  0  0  0  0  0
    0.0391    4.2174    4.9732 O   0  0  0  0  0  0  0  0  0  0  0  0
   -0.8795    2.3617    3.8994 C   0  0  0  0  0  0  0  0  0  0  0  0
   -2.0994    4.4430    6.8189 C   0  0  2  0  0  0  0  0  0  0  0  0
    0.0968    2.3518    2.8714 C   0  0  0  0  0  0  0  0  0  0  0  0
   -1.8808    1.3618    3.8669 C   0  0  0  0  0  0  0  0  0  0  0  0
   -3.3698    4.1830    7.6882 C   0  0  2  0  0  0  0  0  0  0  0  0
    0.0554    1.3975    1.8390 C   0  0  0  0  0  0  0  0  0  0  0  0
   -1.9203    0.4055    2.8366 C   0  0  0  0  0  0  0  0  0  0  0  0
   -4.5838    3.6408    6.8596 C   0  0  2  0  0  0  0  0  0  0  0  0
   -3.6812    5.4495    8.5538 C   0  0  1  0  0  0  0  0  0  0  0  0
   -0.9533    0.4081    1.8065 C   0  0  0  0  0  0  0  0  0  0  0  0
   -5.0946    4.5760    5.7288 C   0  0  1  0  0  0  0  0  0  0  0  0
   -4.8802    5.3291    9.5219 C   0  0  0  0  0  0  0  0  0  0  0  0
   -0.9949   -0.5359    0.8005 N   0  0  0  0  0  0  0  0  0  0  0  0
   -6.2686    3.9606    4.9207 C   0  0  1  0  0  0  0  0  0  0  0  0
   -2.1892   -0.7343    0.0122 C   0  0  0  0  0  0  0  0  0  0  0  0
    0.1592   -1.3531    0.5101 C   0  0  0  0  0  0  0  0  0  0  0  0
   -6.7482    4.8876    3.7809 C   0  0  0  0  0  0  0  0  0  0  0  0
   -2.1999    5.3973    6.2943 H   0  0  0  0  0  0  0  0  0  0  0  0
   -1.2204    4.5032    7.4665 H   0  0  0  0  0  0  0  0  0  0  0  0
    0.8428    3.0504    2.8552 H   0  0  0  0  0  0  0  0  0  0  0  0
   -2.6021    1.3200    4.5889 H   0  0  0  0  0  0  0  0  0  0  0  0
   -3.1029    3.3816    8.3853 H   0  0  0  0  0  0  0  0  0  0  0  0
    0.7622    1.4326    1.1000 H   0  0  0  0  0  0  0  0  0  0  0  0
   -2.6605   -0.2998    2.8431 H   0  0  0  0  0  0  0  0  0  0  0  0
   -5.4119    3.4201    7.5368 H   0  0  0  0  0  0  0  0  0  0  0  0
   -4.2990    2.6833    6.4137 H   0  0  0  0  0  0  0  0  0  0  0  0
   -2.7995    5.6742    9.1605 H   0  0  0  0  0  0  0  0  0  0  0  0
   -3.8542    6.3114    7.9054 H   0  0  0  0  0  0  0  0  0  0  0  0
   -5.4258    5.5210    6.1650 H   0  0  0  0  0  0  0  0  0  0  0  0
   -4.2754    4.7860    5.0370 H   0  0  0  0  0  0  0  0  0  0  0  0
   -4.8977    6.1913   10.1914 H   0  0  0  0  0  0  0  0  0  0  0  0
   -5.8218    5.3108    8.9714 H   0  0  0  0  0  0  0  0  0  0  0  0
   -4.7986    4.4233   10.1244 H   0  0  0  0  0  0  0  0  0  0  0  0
   -5.9529    3.0086    4.4832 H   0  0  0  0  0  0  0  0  0  0  0  0
   -7.1115    3.7652    5.5901 H   0  0  0  0  0  0  0  0  0  0  0  0
   -1.9605   -0.6343   -1.0507 H   0  0  0  0  0  0  0  0  0  0  0  0
   -2.5920   -1.7330    0.1905 H   0  0  0  0  0  0  0  0  0  0  0  0
   -2.9705   -0.0069    0.2460 H   0  0  0  0  0  0  0  0  0  0  0  0
   -0.1041   -2.4087    0.5843 H   0  0  0  0  0  0  0  0  0  0  0  0
    0.9902   -1.1793    1.1984 H   0  0  0  0  0  0  0  0  0  0  0  0
    0.5173   -1.1505   -0.5013 H   0  0  0  0  0  0  0  0  0  0  0  0
   -7.5753    4.4177    3.2446 H   0  0  0  0  0  0  0  0  0  0  0  0
   -7.0923    5.8420    4.1855 H   0  0  0  0  0  0  0  0  0  0  0  0
   -5.9354    5.0726    3.0751 H   0  0  0  0  0  0  0  0  0  0  0  0
  1  2  1  0  0  0  0 
  1  3  2  0  0  0  0 
  1  4  1  0  0  0  0 
  2  5  1  0  0  0  0 
  4  6  2  0  0  0  0 
  4  7  1  0  0  0  0 
  5  8  1  0  0  0  0 
  6  9  1  0  0  0  0 
  7 10  2  0  0  0  0 
  8 11  1  0  0  0  0 
  8 12  1  0  0  0  0 
  9 13  2  0  0  0  0 
 10 13  1  0  0  0  0 
 11 14  1  0  0  0  0 
 12 15  1  0  0  0  0 
 13 16  1  0  0  0  0 
 14 17  1  0  0  0  0 
 16 18  1  0  0  0  0 
 16 19  1  0  0  0  0 
 17 20  1  0  0  0  0 
  5 21  1  0  0  0  0 
  5 22  1  0  0  0  0 
  6 23  1  0  0  0  0 
  7 24  1  0  0  0  0 
  8 25  1  0  0  0  0 
  9 26  1  0  0  0  0 
 10 27  1  0  0  0  0 
 11 28  1  0  0  0  0 
 11 29  1  0  0  0  0 
 12 30  1  0  0  0  0 
 12 31  1  0  0  0  0 
 14 32  1  0  0  0  0 
 14 33  1  0  0  0  0 
 15 34  1  0  0  0  0 
 15 35  1  0  0  0  0 
 15 36  1  0  0  0  0 
 17 37  1  0  0  0  0 
 17 38  1  0  0  0  0 
 18 39  1  0  0  0  0 
 18 40  1  0  0  0  0 
 18 41  1  0  0  0  0 
 19 42  1  0  0  0  0 
 19 43  1  0  0  0  0 
 19 44  1  0  0  0  0 
 20 45  1  0  0  0  0 
 20 46  1  0  0  0  0 
 20 47  1  0  0  0  0 
M  END
> <cdk:Title>
Padimate O

> <Conformer>
1

> <SuperDrugID>
SD003466

$$$$
