vernakalant
  CDK     0628171801

 56 58  0  0  0  0  0  0  0  0999 V2000
   -2.1162    0.4771   -2.0998 O   0  0  0  0  0  0  0  0  0  0  0  0
   -1.7707    0.5744   -3.4962 C   0  0  2  0  0  0  0  0  0  0  0  0
   -3.4186    0.9507   -1.6772 C   0  0  1  0  0  0  0  0  0  0  0  0
   -0.3358    0.0294   -3.6839 C   0  0  1  0  0  0  0  0  0  0  0  0
   -3.6398    0.4247   -0.2098 C   0  0  1  0  0  0  0  0  0  0  0  0
   -3.4725    2.5034   -1.8032 C   0  0  2  0  0  0  0  0  0  0  0  0
   -0.2435   -1.4415   -3.4789 C   0  0  0  0  0  0  0  0  0  0  0  0
   -4.7800    1.2048    0.5314 C   0  0  1  0  0  0  0  0  0  0  0  0
   -3.9624   -1.0524   -0.1678 N   0  0  2  0  0  0  0  0  0  0  0  0
   -4.7192    3.1141   -1.1326 C   0  0  1  0  0  0  0  0  0  0  0  0
   -0.7770   -2.3267   -4.4438 C   0  0  0  0  0  0  0  0  0  0  0  0
    0.3837   -1.9849   -2.3340 C   0  0  0  0  0  0  0  0  0  0  0  0
   -4.7413    2.7423    0.3629 C   0  0  2  0  0  0  0  0  0  0  0  0
   -4.0600   -1.6888    1.1733 C   0  0  1  0  0  0  0  0  0  0  0  0
   -3.1639   -2.0044   -0.9769 C   0  0  1  0  0  0  0  0  0  0  0  0
   -0.6846   -3.7231   -4.2771 C   0  0  0  0  0  0  0  0  0  0  0  0
    0.4554   -3.3766   -2.1507 C   0  0  0  0  0  0  0  0  0  0  0  0
   -4.0243   -3.2142    0.9386 C   0  0  1  0  0  0  0  0  0  0  0  0
   -3.6924   -3.3835   -0.5564 C   0  0  1  0  0  0  0  0  0  0  0  0
   -1.1934   -4.5521   -5.2395 O   0  0  0  0  0  0  0  0  0  0  0  0
   -0.0808   -4.2524   -3.1150 C   0  0  0  0  0  0  0  0  0  0  0  0
   -4.8536   -3.7062   -1.3244 O   0  0  0  0  0  0  0  0  0  0  0  0
   -0.1986   -4.9865   -6.1830 C   0  0  0  0  0  0  0  0  0  0  0  0
    0.0406   -5.6061   -2.9565 O   0  0  0  0  0  0  0  0  0  0  0  0
   -1.0376   -6.2016   -2.2172 C   0  0  0  0  0  0  0  0  0  0  0  0
   -1.7685    1.6141   -3.8266 H   0  0  0  0  0  0  0  0  0  0  0  0
   -2.4830    0.0166   -4.1106 H   0  0  0  0  0  0  0  0  0  0  0  0
   -4.2043    0.5231   -2.3079 H   0  0  0  0  0  0  0  0  0  0  0  0
    0.0197    0.2707   -4.6901 H   0  0  0  0  0  0  0  0  0  0  0  0
    0.3177    0.5597   -2.9833 H   0  0  0  0  0  0  0  0  0  0  0  0
   -2.7113    0.6057    0.3443 H   0  0  0  0  0  0  0  0  0  0  0  0
   -3.4941    2.7891   -2.8565 H   0  0  0  0  0  0  0  0  0  0  0  0
   -2.5719    2.9308   -1.3532 H   0  0  0  0  0  0  0  0  0  0  0  0
   -5.7478    0.8460    0.1714 H   0  0  0  0  0  0  0  0  0  0  0  0
   -4.7239    0.9977    1.6042 H   0  0  0  0  0  0  0  0  0  0  0  0
   -4.6967    4.1998   -1.2418 H   0  0  0  0  0  0  0  0  0  0  0  0
   -5.6240    2.7420   -1.6237 H   0  0  0  0  0  0  0  0  0  0  0  0
   -1.2252   -1.9557   -5.2857 H   0  0  0  0  0  0  0  0  0  0  0  0
    0.7909   -1.3736   -1.6212 H   0  0  0  0  0  0  0  0  0  0  0  0
   -3.8558    3.1485    0.8623 H   0  0  0  0  0  0  0  0  0  0  0  0
   -5.6259    3.1823    0.8304 H   0  0  0  0  0  0  0  0  0  0  0  0
   -3.2230   -1.3869    1.8105 H   0  0  0  0  0  0  0  0  0  0  0  0
   -4.9937   -1.4112    1.6676 H   0  0  0  0  0  0  0  0  0  0  0  0
   -3.3216   -1.8580   -2.0483 H   0  0  0  0  0  0  0  0  0  0  0  0
   -2.0964   -1.9209   -0.7521 H   0  0  0  0  0  0  0  0  0  0  0  0
    0.9073   -3.7514   -1.3146 H   0  0  0  0  0  0  0  0  0  0  0  0
   -3.2510   -3.6820    1.5573 H   0  0  0  0  0  0  0  0  0  0  0  0
   -4.9874   -3.6715    1.1829 H   0  0  0  0  0  0  0  0  0  0  0  0
   -2.9402   -4.1585   -0.7160 H   0  0  0  0  0  0  0  0  0  0  0  0
   -5.1294   -4.5958   -1.0200 H   0  0  0  0  0  0  0  0  0  0  0  0
   -0.6802   -5.6516   -6.8976 H   0  0  0  0  0  0  0  0  0  0  0  0
    0.2245   -4.1430   -6.7333 H   0  0  0  0  0  0  0  0  0  0  0  0
    0.6039   -5.5417   -5.6918 H   0  0  0  0  0  0  0  0  0  0  0  0
   -0.8636   -7.2765   -2.1854 H   0  0  0  0  0  0  0  0  0  0  0  0
   -1.0633   -5.8326   -1.1900 H   0  0  0  0  0  0  0  0  0  0  0  0
   -2.0048   -6.0281   -2.6958 H   0  0  0  0  0  0  0  0  0  0  0  0
  1  2  1  0  0  0  0 
  2  4  1  0  0  0  0 
  3  1  1  0  0  0  0 
  5  3  1  0  0  0  0 
  3  6  1  0  0  0  0 
  4  7  1  0  0  0  0 
  5  8  1  0  0  0  0 
  5  9  1  0  0  0  0 
  6 10  1  0  0  0  0 
  7 11  2  0  0  0  0 
  7 12  1  0  0  0  0 
  8 13  1  0  0  0  0 
  9 14  1  0  0  0  0 
  9 15  1  0  0  0  0 
 10 13  1  0  0  0  0 
 11 16  1  0  0  0  0 
 12 17  2  0  0  0  0 
 14 18  1  0  0  0  0 
 19 15  1  0  0  0  0 
 16 20  1  0  0  0  0 
 16 21  2  0  0  0  0 
 17 21  1  0  0  0  0 
 19 18  1  0  0  0  0 
 19 22  1  0  0  0  0 
 20 23  1  0  0  0  0 
 21 24  1  0  0  0  0 
 24 25  1  0  0  0  0 
  2 26  1  0  0  0  0 
  2 27  1  0  0  0  0 
  3 28  1  0  0  0  0 
  4 29  1  0  0  0  0 
  4 30  1  0  0  0  0 
  5 31  1  0  0  0  0 
  6 32  1  0  0  0  0 
  6 33  1  0  0  0  0 
  8 34  1  0  0  0  0 
  8 35  1  0  0  0  0 
 10 36  1  0  0  0  0 
 10 37  1  0  0  0  0 
 11 38  1  0  0  0  0 
 12 39  1  0  0  0  0 
 13 40  1  0  0  0  0 
 13 41  1  0  0  0  0 
 14 42  1  0  0  0  0 
 14 43  1  0  0  0  0 
 15 44  1  0  0  0  0 
 15 45  1  0  0  0  0 
 17 46  1  0  0  0  0 
 18 47  1  0  0  0  0 
 18 48  1  0  0  0  0 
 19 49  1  0  0  0  0 
 22 50  1  0  0  0  0 
 23 51  1  0  0  0  0 
 23 52  1  0  0  0  0 
 23 53  1  0  0  0  0 
 25 54  1  0  0  0  0 
 25 55  1  0  0  0  0 
 25 56  1  0  0  0  0 
M  END
> <cdk:Title>
vernakalant

> <Conformer>
1

> <SuperDrugID>
SD003520

$$$$
