gestonorone
  CDK     0628171801

 51 54  0  0  0  0  0  0  0  0999 V2000
   -6.5150   -1.5155    4.0255 C   0  0  0  0  0  0  0  0  0  0  0  0
   -5.2321   -1.0607    4.8313 C   0  0  2  0  0  0  0  0  0  0  0  0
   -3.9554   -1.9299    4.5662 C   0  0  2  0  0  0  0  0  0  0  0  0
   -5.4372   -1.3452    6.3723 C   0  0  2  0  0  0  0  0  0  0  0  0
   -4.8679    0.4118    4.4220 C   0  0  2  0  0  0  0  0  0  0  0  0
   -3.4976   -1.9183    3.0711 C   0  0  1  0  0  0  0  0  0  0  0  0
   -4.2545   -3.2725    5.2609 C   0  0  1  0  0  0  0  0  0  0  0  0
   -6.7398   -0.8780    6.9514 C   0  0  0  0  0  0  0  0  0  0  0  0
   -4.4352   -0.6798    7.1592 O   0  0  0  0  0  0  0  0  0  0  0  0
   -5.1143   -2.8758    6.4883 C   0  0  1  0  0  0  0  0  0  0  0  0
   -4.2983    0.5325    2.9709 C   0  0  2  0  0  0  0  0  0  0  0  0
   -3.1136   -0.4513    2.6554 C   0  0  2  0  0  0  0  0  0  0  0  0
   -2.2956   -2.8631    2.8023 C   0  0  1  0  0  0  0  0  0  0  0  0
   -7.7935   -1.7666    7.4864 C   0  0  0  0  0  0  0  0  0  0  0  0
   -6.9679    0.3556    6.9705 O   0  0  0  0  0  0  0  0  0  0  0  0
   -2.6023   -0.3781    1.1608 C   0  0  2  0  0  0  0  0  0  0  0  0
   -1.8952   -2.8156    1.3090 C   0  0  2  0  0  0  0  0  0  0  0  0
   -1.6294   -1.4556    0.8266 C   0  0  0  0  0  0  0  0  0  0  0  0
   -2.0386    1.0506    0.8285 C   0  0  1  0  0  0  0  0  0  0  0  0
   -0.5460   -1.2292    0.0478 C   0  0  0  0  0  0  0  0  0  0  0  0
   -1.2964    1.0719   -0.5275 C   0  0  1  0  0  0  0  0  0  0  0  0
   -0.2804   -0.0020   -0.5387 C   0  0  0  0  0  0  0  0  0  0  0  0
    0.8196    0.1924   -1.1050 O   0  0  0  0  0  0  0  0  0  0  0  0
   -6.8218   -2.5287    4.2853 H   0  0  0  0  0  0  0  0  0  0  0  0
   -7.3547   -0.8546    4.2462 H   0  0  0  0  0  0  0  0  0  0  0  0
   -6.3712   -1.4907    2.9476 H   0  0  0  0  0  0  0  0  0  0  0  0
   -3.1092   -1.5049    5.1270 H   0  0  0  0  0  0  0  0  0  0  0  0
   -4.1183    0.8166    5.1064 H   0  0  0  0  0  0  0  0  0  0  0  0
   -5.7518    1.0494    4.5061 H   0  0  0  0  0  0  0  0  0  0  0  0
   -4.3209   -2.2695    2.4430 H   0  0  0  0  0  0  0  0  0  0  0  0
   -4.8068   -3.9367    4.5890 H   0  0  0  0  0  0  0  0  0  0  0  0
   -3.3329   -3.7743    5.5695 H   0  0  0  0  0  0  0  0  0  0  0  0
   -4.5943    0.2790    7.0507 H   0  0  0  0  0  0  0  0  0  0  0  0
   -4.5750   -3.0906    7.4143 H   0  0  0  0  0  0  0  0  0  0  0  0
   -6.0143   -3.4915    6.4831 H   0  0  0  0  0  0  0  0  0  0  0  0
   -3.9555    1.5638    2.8500 H   0  0  0  0  0  0  0  0  0  0  0  0
   -5.1065    0.3695    2.2521 H   0  0  0  0  0  0  0  0  0  0  0  0
   -2.2753   -0.1413    3.2909 H   0  0  0  0  0  0  0  0  0  0  0  0
   -1.4425   -2.5772    3.4267 H   0  0  0  0  0  0  0  0  0  0  0  0
   -2.5733   -3.8912    3.0516 H   0  0  0  0  0  0  0  0  0  0  0  0
   -8.6175   -1.1970    7.9195 H   0  0  0  0  0  0  0  0  0  0  0  0
   -7.3884   -2.4140    8.2643 H   0  0  0  0  0  0  0  0  0  0  0  0
   -8.1937   -2.3792    6.6794 H   0  0  0  0  0  0  0  0  0  0  0  0
   -3.4663   -0.5443    0.5069 H   0  0  0  0  0  0  0  0  0  0  0  0
   -2.7134   -3.2246    0.7094 H   0  0  0  0  0  0  0  0  0  0  0  0
   -1.0383   -3.4844    1.1812 H   0  0  0  0  0  0  0  0  0  0  0  0
   -2.8488    1.7827    0.7876 H   0  0  0  0  0  0  0  0  0  0  0  0
   -1.3388    1.3641    1.6104 H   0  0  0  0  0  0  0  0  0  0  0  0
    0.0935   -1.9710   -0.1364 H   0  0  0  0  0  0  0  0  0  0  0  0
   -2.0131    0.8933   -1.3346 H   0  0  0  0  0  0  0  0  0  0  0  0
   -0.8351    2.0505   -0.6859 H   0  0  0  0  0  0  0  0  0  0  0  0
  2  1  1  0  0  0  0 
  2  3  1  0  0  0  0 
  2  4  1  0  0  0  0 
  2  5  1  0  0  0  0 
  3  6  1  0  0  0  0 
  3  7  1  0  0  0  0 
  4  8  1  0  0  0  0 
  4  9  1  0  0  0  0 
  4 10  1  0  0  0  0 
  5 11  1  0  0  0  0 
  6 12  1  0  0  0  0 
  6 13  1  0  0  0  0 
  7 10  1  0  0  0  0 
  8 14  1  0  0  0  0 
  8 15  2  0  0  0  0 
 12 11  1  0  0  0  0 
 12 16  1  0  0  0  0 
 13 17  1  0  0  0  0 
 16 18  1  0  0  0  0 
 16 19  1  0  0  0  0 
 17 18  1  0  0  0  0 
 18 20  2  0  0  0  0 
 19 21  1  0  0  0  0 
 20 22  1  0  0  0  0 
 21 22  1  0  0  0  0 
 22 23  2  0  0  0  0 
 24  1  1  0  0  0  0 
 25  1  1  0  0  0  0 
 26  1  1  0  0  0  0 
  3 27  1  0  0  0  0 
 28  5  1  0  0  0  0 
 29  5  1  0  0  0  0 
  6 30  1  0  0  0  0 
 31  7  1  0  0  0  0 
 32  7  1  0  0  0  0 
 33  9  1  0  0  0  0 
 34 10  1  0  0  0  0 
 35 10  1  0  0  0  0 
 36 11  1  0  0  0  0 
 37 11  1  0  0  0  0 
 12 38  1  0  0  0  0 
 39 13  1  0  0  0  0 
 40 13  1  0  0  0  0 
 41 14  1  0  0  0  0 
 42 14  1  0  0  0  0 
 43 14  1  0  0  0  0 
 16 44  1  0  0  0  0 
 45 17  1  0  0  0  0 
 46 17  1  0  0  0  0 
 47 19  1  0  0  0  0 
 48 19  1  0  0  0  0 
 49 20  1  0  0  0  0 
 50 21  1  0  0  0  0 
 51 21  1  0  0  0  0 
M  END
> <cdk:Title>
gestonorone

> <Conformer>
1

> <SuperDrugID>
SD003622

$$$$
