protiofate
  CDK     0628171801

 35 35  0  0  0  0  0  0  0  0999 V2000
   -6.3752    3.7091    1.8398 C   0  0  0  0  0  0  0  0  0  0  0  0
   -6.7260    5.0201    1.9640 O   0  0  0  0  0  0  0  0  0  0  0  0
   -7.1920    2.7923    2.0873 O   0  0  0  0  0  0  0  0  0  0  0  0
   -5.0721    3.3934    1.4319 C   0  0  0  0  0  0  0  0  0  0  0  0
   -7.9835    5.5457    2.3848 C   0  0  2  0  0  0  0  0  0  0  0  0
   -4.0195    4.2760    1.1544 C   0  0  0  0  0  0  0  0  0  0  0  0
   -4.4325    1.7802    1.1916 S   0  0  0  0  0  0  0  0  0  0  0  0
   -7.9018    7.0863    2.3535 C   0  0  1  0  0  0  0  0  0  0  0  0
   -4.1522    5.6214    1.2562 O   0  0  0  0  0  0  0  0  0  0  0  0
   -2.8051    3.6772    0.7705 C   0  0  0  0  0  0  0  0  0  0  0  0
   -2.8183    2.2736    0.7134 C   0  0  0  0  0  0  0  0  0  0  0  0
   -9.2227    7.7465    2.7959 C   0  0  0  0  0  0  0  0  0  0  0  0
   -1.7211    4.4402    0.4866 O   0  0  0  0  0  0  0  0  0  0  0  0
   -1.7897    1.3858    0.3576 C   0  0  0  0  0  0  0  0  0  0  0  0
   -2.0479    0.0486    0.4363 O   0  0  0  0  0  0  0  0  0  0  0  0
   -0.6712    1.8093   -0.0180 O   0  0  0  0  0  0  0  0  0  0  0  0
   -1.1512   -1.0305    0.1574 C   0  0  1  0  0  0  0  0  0  0  0  0
   -1.8695   -2.3808    0.3842 C   0  0  1  0  0  0  0  0  0  0  0  0
   -2.2561   -2.6382    1.8588 C   0  0  0  0  0  0  0  0  0  0  0  0
   -8.1971    5.2008    3.3984 H   0  0  0  0  0  0  0  0  0  0  0  0
   -8.7691    5.1973    1.7106 H   0  0  0  0  0  0  0  0  0  0  0  0
   -7.0999    7.4200    3.0179 H   0  0  0  0  0  0  0  0  0  0  0  0
   -7.6645    7.4118    1.3370 H   0  0  0  0  0  0  0  0  0  0  0  0
   -3.2697    5.9452    1.5366 H   0  0  0  0  0  0  0  0  0  0  0  0
   -9.1223    8.8327    2.7598 H   0  0  0  0  0  0  0  0  0  0  0  0
  -10.0365    7.4469    2.1317 H   0  0  0  0  0  0  0  0  0  0  0  0
   -9.4700    7.4511    3.8181 H   0  0  0  0  0  0  0  0  0  0  0  0
   -0.9503    3.9270    0.7999 H   0  0  0  0  0  0  0  0  0  0  0  0
   -0.8266   -0.9723   -0.8836 H   0  0  0  0  0  0  0  0  0  0  0  0
   -0.2748   -0.9582    0.8048 H   0  0  0  0  0  0  0  0  0  0  0  0
   -2.7736   -2.4105   -0.2315 H   0  0  0  0  0  0  0  0  0  0  0  0
   -1.2129   -3.1905    0.0529 H   0  0  0  0  0  0  0  0  0  0  0  0
   -2.9524   -1.8756    2.2126 H   0  0  0  0  0  0  0  0  0  0  0  0
   -1.3696   -2.6331    2.4956 H   0  0  0  0  0  0  0  0  0  0  0  0
   -2.7369   -3.6147    1.9431 H   0  0  0  0  0  0  0  0  0  0  0  0
  1  2  1  0  0  0  0 
  1  3  2  0  0  0  0 
  1  4  1  0  0  0  0 
  2  5  1  0  0  0  0 
  4  6  2  0  0  0  0 
  4  7  1  0  0  0  0 
  5  8  1  0  0  0  0 
  6  9  1  0  0  0  0 
  6 10  1  0  0  0  0 
  7 11  1  0  0  0  0 
  8 12  1  0  0  0  0 
 10 11  2  0  0  0  0 
 10 13  1  0  0  0  0 
 11 14  1  0  0  0  0 
 14 15  1  0  0  0  0 
 14 16  2  0  0  0  0 
 15 17  1  0  0  0  0 
 17 18  1  0  0  0  0 
 18 19  1  0  0  0  0 
  5 20  1  0  0  0  0 
  5 21  1  0  0  0  0 
  8 22  1  0  0  0  0 
  8 23  1  0  0  0  0 
  9 24  1  0  0  0  0 
 12 25  1  0  0  0  0 
 12 26  1  0  0  0  0 
 12 27  1  0  0  0  0 
 13 28  1  0  0  0  0 
 17 29  1  0  0  0  0 
 17 30  1  0  0  0  0 
 18 31  1  0  0  0  0 
 18 32  1  0  0  0  0 
 19 33  1  0  0  0  0 
 19 34  1  0  0  0  0 
 19 35  1  0  0  0  0 
M  END
> <cdk:Title>
protiofate

> <Conformer>
1

> <SuperDrugID>
SD003015

$$$$
