pimozide
  CDK     0628171801

 63 67  0  0  0  0  0  0  0  0999 V2000
    0.2191    1.8408    0.7216 O   0  0  0  0  0  0  0  0  0  0  0  0
   -0.5829    0.9586    0.3385 C   0  0  0  0  0  0  0  0  0  0  0  0
   -1.3597    0.1562    1.1178 N   0  0  0  0  0  0  0  0  0  0  0  0
   -0.7857    0.6971   -0.9606 N   0  0  0  0  0  0  0  0  0  0  0  0
   -2.0662   -0.6211    0.2601 C   0  0  0  0  0  0  0  0  0  0  0  0
   -1.4294    0.1643    2.5675 C   0  0  2  0  0  0  0  0  0  0  0  0
   -1.6995   -0.2698   -1.0405 C   0  0  0  0  0  0  0  0  0  0  0  0
   -3.0338   -1.6297    0.4639 C   0  0  0  0  0  0  0  0  0  0  0  0
   -2.0609    1.4975    3.0744 C   0  0  2  0  0  0  0  0  0  0  0  0
   -0.0494   -0.1628    3.2258 C   0  0  1  0  0  0  0  0  0  0  0  0
   -2.2619   -0.8832   -2.1701 C   0  0  0  0  0  0  0  0  0  0  0  0
   -3.6120   -2.2598   -0.6588 C   0  0  0  0  0  0  0  0  0  0  0  0
   -1.9356    1.6520    4.6122 C   0  0  1  0  0  0  0  0  0  0  0  0
   -0.0278    0.1101    4.7549 C   0  0  1  0  0  0  0  0  0  0  0  0
   -3.2289   -1.8876   -1.9671 C   0  0  0  0  0  0  0  0  0  0  0  0
   -0.5281    1.4827    5.1003 N   0  0  1  0  0  0  0  0  0  0  0  0
    0.4293    2.5923    4.7574 C   0  0  1  0  0  0  0  0  0  0  0  0
    0.1512    3.9503    5.4639 C   0  0  2  0  0  0  0  0  0  0  0  0
    1.2120    5.0578    5.1716 C   0  0  1  0  0  0  0  0  0  0  0  0
    1.2418    5.6068    3.7023 C   0  0  1  0  0  0  0  0  0  0  0  0
   -0.0412    6.1949    3.1702 C   0  0  0  0  0  0  0  0  0  0  0  0
    2.4031    6.5405    3.4981 C   0  0  0  0  0  0  0  0  0  0  0  0
   -0.3469    6.0747    1.7898 C   0  0  0  0  0  0  0  0  0  0  0  0
   -0.9671    6.8981    3.9852 C   0  0  0  0  0  0  0  0  0  0  0  0
    3.5980    6.0791    2.8861 C   0  0  0  0  0  0  0  0  0  0  0  0
    2.3526    7.8966    3.9129 C   0  0  0  0  0  0  0  0  0  0  0  0
   -1.5364    6.6041    1.2522 C   0  0  0  0  0  0  0  0  0  0  0  0
   -2.1535    7.4353    3.4501 C   0  0  0  0  0  0  0  0  0  0  0  0
    4.6911    6.9416    2.6788 C   0  0  0  0  0  0  0  0  0  0  0  0
    3.4405    8.7642    3.6955 C   0  0  0  0  0  0  0  0  0  0  0  0
   -2.4476    7.2787    2.0846 C   0  0  0  0  0  0  0  0  0  0  0  0
    4.6109    8.2885    3.0757 C   0  0  0  0  0  0  0  0  0  0  0  0
   -3.5584    7.7589    1.5931 F   0  0  0  0  0  0  0  0  0  0  0  0
    5.6206    9.0908    2.8689 F   0  0  0  0  0  0  0  0  0  0  0  0
   -0.3477    1.1373   -1.7055 H   0  0  0  0  0  0  0  0  0  0  0  0
   -2.1076   -0.6214    2.9086 H   0  0  0  0  0  0  0  0  0  0  0  0
   -3.3229   -1.9107    1.4012 H   0  0  0  0  0  0  0  0  0  0  0  0
   -3.1200    1.5206    2.7997 H   0  0  0  0  0  0  0  0  0  0  0  0
   -1.5889    2.3558    2.5949 H   0  0  0  0  0  0  0  0  0  0  0  0
    0.1955   -1.2138    3.0445 H   0  0  0  0  0  0  0  0  0  0  0  0
    0.7410    0.4329    2.7706 H   0  0  0  0  0  0  0  0  0  0  0  0
   -1.9772   -0.6056   -3.1119 H   0  0  0  0  0  0  0  0  0  0  0  0
   -4.3131   -2.9915   -0.5220 H   0  0  0  0  0  0  0  0  0  0  0  0
   -2.3384    2.6189    4.9145 H   0  0  0  0  0  0  0  0  0  0  0  0
   -2.5698    0.8972    5.0881 H   0  0  0  0  0  0  0  0  0  0  0  0
   -0.6454   -0.6374    5.2638 H   0  0  0  0  0  0  0  0  0  0  0  0
    0.9902   -0.0334    5.1295 H   0  0  0  0  0  0  0  0  0  0  0  0
   -3.6494   -2.3518   -2.7747 H   0  0  0  0  0  0  0  0  0  0  0  0
    1.4379    2.2907    5.0496 H   0  0  0  0  0  0  0  0  0  0  0  0
    0.4441    2.7401    3.6790 H   0  0  0  0  0  0  0  0  0  0  0  0
    0.1301    3.7720    6.5421 H   0  0  0  0  0  0  0  0  0  0  0  0
   -0.8314    4.3237    5.1828 H   0  0  0  0  0  0  0  0  0  0  0  0
    1.0502    5.8829    5.8695 H   0  0  0  0  0  0  0  0  0  0  0  0
    2.1952    4.6439    5.4143 H   0  0  0  0  0  0  0  0  0  0  0  0
    1.4345    4.7156    3.0976 H   0  0  0  0  0  0  0  0  0  0  0  0
    0.3003    5.5936    1.1586 H   0  0  0  0  0  0  0  0  0  0  0  0
   -0.7922    7.0270    4.9824 H   0  0  0  0  0  0  0  0  0  0  0  0
    3.6856    5.1032    2.5870 H   0  0  0  0  0  0  0  0  0  0  0  0
    1.5165    8.2696    4.3690 H   0  0  0  0  0  0  0  0  0  0  0  0
   -1.7322    6.5007    0.2529 H   0  0  0  0  0  0  0  0  0  0  0  0
   -2.8013    7.9426    4.0558 H   0  0  0  0  0  0  0  0  0  0  0  0
    5.5444    6.5846    2.2392 H   0  0  0  0  0  0  0  0  0  0  0  0
    3.3759    9.7430    3.9895 H   0  0  0  0  0  0  0  0  0  0  0  0
  1  2  2  0  0  0  0 
  2  3  1  0  0  0  0 
  2  4  1  0  0  0  0 
  3  5  1  0  0  0  0 
  3  6  1  0  0  0  0 
  4  7  1  0  0  0  0 
  5  7  1  0  0  0  0 
  5  8  2  0  0  0  0 
  6  9  1  0  0  0  0 
  6 10  1  0  0  0  0 
  7 11  2  0  0  0  0 
  8 12  1  0  0  0  0 
  9 13  1  0  0  0  0 
 10 14  1  0  0  0  0 
 11 15  1  0  0  0  0 
 12 15  2  0  0  0  0 
 13 16  1  0  0  0  0 
 14 16  1  0  0  0  0 
 16 17  1  0  0  0  0 
 17 18  1  0  0  0  0 
 18 19  1  0  0  0  0 
 19 20  1  0  0  0  0 
 20 21  1  0  0  0  0 
 20 22  1  0  0  0  0 
 21 23  2  0  0  0  0 
 21 24  1  0  0  0  0 
 22 25  2  0  0  0  0 
 22 26  1  0  0  0  0 
 23 27  1  0  0  0  0 
 24 28  2  0  0  0  0 
 25 29  1  0  0  0  0 
 26 30  2  0  0  0  0 
 27 31  2  0  0  0  0 
 28 31  1  0  0  0  0 
 29 32  2  0  0  0  0 
 30 32  1  0  0  0  0 
 31 33  1  0  0  0  0 
 32 34  1  0  0  0  0 
  4 35  1  0  0  0  0 
  6 36  1  0  0  0  0 
  8 37  1  0  0  0  0 
  9 38  1  0  0  0  0 
  9 39  1  0  0  0  0 
 10 40  1  0  0  0  0 
 10 41  1  0  0  0  0 
 11 42  1  0  0  0  0 
 12 43  1  0  0  0  0 
 13 44  1  0  0  0  0 
 13 45  1  0  0  0  0 
 14 46  1  0  0  0  0 
 14 47  1  0  0  0  0 
 15 48  1  0  0  0  0 
 17 49  1  0  0  0  0 
 17 50  1  0  0  0  0 
 18 51  1  0  0  0  0 
 18 52  1  0  0  0  0 
 19 53  1  0  0  0  0 
 19 54  1  0  0  0  0 
 20 55  1  0  0  0  0 
 23 56  1  0  0  0  0 
 24 57  1  0  0  0  0 
 25 58  1  0  0  0  0 
 26 59  1  0  0  0  0 
 27 60  1  0  0  0  0 
 28 61  1  0  0  0  0 
 29 62  1  0  0  0  0 
 30 63  1  0  0  0  0 
M  END
> <cdk:Title>
pimozide

> <Conformer>
1

> <SuperDrugID>
SD001949

$$$$
