varenicline
  CDK     0628171801

 29 32  0  0  0  0  0  0  0  0999 V2000
    0.3026    3.6787    3.8984 N   0  0  0  0  0  0  0  0  0  0  0  0
    0.2883    2.7425    2.9133 C   0  0  0  0  0  0  0  0  0  0  0  0
    1.2706    1.7104    2.9414 C   0  0  0  0  0  0  0  0  0  0  0  0
    2.1713    1.7006    3.9586 N   0  0  0  0  0  0  0  0  0  0  0  0
    2.1701    2.6356    4.9441 C   0  0  0  0  0  0  0  0  0  0  0  0
    1.2080    3.6606    4.9095 C   0  0  0  0  0  0  0  0  0  0  0  0
   -0.6762    2.7862    1.8853 C   0  0  0  0  0  0  0  0  0  0  0  0
   -0.6436    1.7889    0.8938 C   0  0  0  0  0  0  0  0  0  0  0  0
    0.3275    0.7794    0.9154 C   0  0  0  0  0  0  0  0  0  0  0  0
    1.2981    0.7242    1.9316 C   0  0  0  0  0  0  0  0  0  0  0  0
    0.1362   -0.1049   -0.2505 C   0  0  2  0  0  0  0  0  0  0  0  0
    0.8741    0.4732   -1.5019 C   0  0  1  0  0  0  0  0  0  0  0  0
    0.5147    1.8970   -1.7770 N   0  0  2  0  0  0  0  0  0  0  0  0
   -0.9083    2.2891   -1.5464 C   0  0  2  0  0  0  0  0  0  0  0  0
   -1.5192    1.6061   -0.2804 C   0  0  1  0  0  0  0  0  0  0  0  0
   -1.3922    0.0697   -0.4540 C   0  0  1  0  0  0  0  0  0  0  0  0
   -2.5531    1.9139   -0.0975 H   0  0  0  0  0  0  0  0  0  0  0  0
    0.4057   -1.1450   -0.0487 H   0  0  0  0  0  0  0  0  0  0  0  0
    2.8588    2.5888    5.6965 H   0  0  0  0  0  0  0  0  0  0  0  0
    1.1835    4.3829    5.6310 H   0  0  0  0  0  0  0  0  0  0  0  0
   -1.3842    3.5242    1.8571 H   0  0  0  0  0  0  0  0  0  0  0  0
    2.0053   -0.0146    1.9353 H   0  0  0  0  0  0  0  0  0  0  0  0
    1.9535    0.4194   -1.3463 H   0  0  0  0  0  0  0  0  0  0  0  0
    0.6391   -0.1306   -2.3809 H   0  0  0  0  0  0  0  0  0  0  0  0
    0.7423    2.0946   -2.7531 H   0  0  0  0  0  0  0  0  0  0  0  0
   -1.4995    2.0230   -2.4260 H   0  0  0  0  0  0  0  0  0  0  0  0
   -0.9553    3.3748   -1.4370 H   0  0  0  0  0  0  0  0  0  0  0  0
   -1.7354   -0.2786   -1.4326 H   0  0  0  0  0  0  0  0  0  0  0  0
   -1.9626   -0.4681    0.3128 H   0  0  0  0  0  0  0  0  0  0  0  0
  1  2  2  0  0  0  0 
  2  3  1  0  0  0  0 
  3  4  2  0  0  0  0 
  4  5  1  0  0  0  0 
  5  6  2  0  0  0  0 
  1  6  1  0  0  0  0 
  7  8  2  0  0  0  0 
  8  9  1  0  0  0  0 
  9 10  2  0  0  0  0 
  7  2  1  0  0  0  0 
 10  3  1  0  0  0  0 
 11 12  1  0  0  0  0 
 12 13  1  0  0  0  0 
 13 14  1  0  0  0  0 
 15 14  1  0  0  0  0 
 15  8  1  0  0  0  0 
  9 11  1  0  0  0  0 
 15 16  1  0  0  0  0 
 16 11  1  0  0  0  0 
 15 17  1  0  0  0  0 
 11 18  1  0  0  0  0 
  5 19  1  0  0  0  0 
  6 20  1  0  0  0  0 
  7 21  1  0  0  0  0 
 10 22  1  0  0  0  0 
 12 23  1  0  0  0  0 
 12 24  1  0  0  0  0 
 13 25  1  0  0  0  0 
 14 26  1  0  0  0  0 
 14 27  1  0  0  0  0 
 16 28  1  0  0  0  0 
 16 29  1  0  0  0  0 
M  END
> <cdk:Title>
varenicline

> <Conformer>
1

> <SuperDrugID>
SD002533

$$$$
