etoxazene
  CDK     0628171801

 35 36  0  0  0  0  0  0  0  0999 V2000
   -0.7638   -0.9371   -0.0607 C   0  0  0  0  0  0  0  0  0  0  0  0
   -1.7144   -1.8500    0.4377 C   0  0  0  0  0  0  0  0  0  0  0  0
   -1.6072   -2.3138    1.7635 C   0  0  0  0  0  0  0  0  0  0  0  0
   -0.5474   -1.8778    2.5781 C   0  0  0  0  0  0  0  0  0  0  0  0
    0.4204   -0.9676    2.0850 C   0  0  0  0  0  0  0  0  0  0  0  0
    0.2963   -0.4914    0.7561 C   0  0  0  0  0  0  0  0  0  0  0  0
   -2.7215   -2.2770   -0.3493 N   0  0  0  0  0  0  0  0  0  0  0  0
    1.1875    0.3850    0.2386 N   0  0  0  0  0  0  0  0  0  0  0  0
    1.4567   -0.5547    2.8072 N   0  0  0  0  0  0  0  0  0  0  0  0
    1.7717   -0.9119    3.9384 N   0  0  0  0  0  0  0  0  0  0  0  0
    2.8201   -0.4930    4.6345 C   0  0  0  0  0  0  0  0  0  0  0  0
    4.8412    0.8576    4.9530 C   0  0  0  0  0  0  0  0  0  0  0  0
    3.7607    0.4493    4.1505 C   0  0  0  0  0  0  0  0  0  0  0  0
    2.9995   -1.0306    5.9279 C   0  0  0  0  0  0  0  0  0  0  0  0
    4.0802   -0.6205    6.7305 C   0  0  0  0  0  0  0  0  0  0  0  0
    4.9931    0.3431    6.2565 C   0  0  0  0  0  0  0  0  0  0  0  0
    6.0201    0.7780    7.0503 O   0  0  0  0  0  0  0  0  0  0  0  0
    5.6619    1.9479    7.8164 C   0  0  1  0  0  0  0  0  0  0  0  0
    6.8712    2.4159    8.6451 C   0  0  0  0  0  0  0  0  0  0  0  0
   -0.8426   -0.6043   -1.0268 H   0  0  0  0  0  0  0  0  0  0  0  0
   -2.2952   -2.9732    2.1372 H   0  0  0  0  0  0  0  0  0  0  0  0
   -0.4829   -2.2347    3.5349 H   0  0  0  0  0  0  0  0  0  0  0  0
   -3.3643   -2.9227   -0.0146 H   0  0  0  0  0  0  0  0  0  0  0  0
   -2.8077   -1.9357   -1.2530 H   0  0  0  0  0  0  0  0  0  0  0  0
    1.0781    0.7177   -0.6670 H   0  0  0  0  0  0  0  0  0  0  0  0
    1.9406    0.6878    0.7706 H   0  0  0  0  0  0  0  0  0  0  0  0
    5.5149    1.5377    4.5925 H   0  0  0  0  0  0  0  0  0  0  0  0
    3.6631    0.8457    3.2122 H   0  0  0  0  0  0  0  0  0  0  0  0
    2.3424   -1.7228    6.2972 H   0  0  0  0  0  0  0  0  0  0  0  0
    4.1989   -1.0188    7.6665 H   0  0  0  0  0  0  0  0  0  0  0  0
    5.3597    2.7711    7.1596 H   0  0  0  0  0  0  0  0  0  0  0  0
    4.8373    1.7236    8.5014 H   0  0  0  0  0  0  0  0  0  0  0  0
    7.6990    2.6790    7.9840 H   0  0  0  0  0  0  0  0  0  0  0  0
    6.5981    3.2942    9.2345 H   0  0  0  0  0  0  0  0  0  0  0  0
    7.1930    1.6227    9.3219 H   0  0  0  0  0  0  0  0  0  0  0  0
  1  2  2  0  0  0  0 
  2  3  1  0  0  0  0 
  3  4  2  0  0  0  0 
  4  5  1  0  0  0  0 
  5  6  2  0  0  0  0 
  1  6  1  0  0  0  0 
  2  7  1  0  0  0  0 
  6  8  1  0  0  0  0 
  5  9  1  0  0  0  0 
  9 10  2  0  0  0  0 
 10 11  1  0  0  0  0 
 12 13  1  0  0  0  0 
 14 15  2  0  0  0  0 
 15 16  1  0  0  0  0 
 12 16  2  0  0  0  0 
 13 11  2  0  0  0  0 
 11 14  1  0  0  0  0 
 16 17  1  0  0  0  0 
 17 18  1  0  0  0  0 
 18 19  1  0  0  0  0 
  1 20  1  0  0  0  0 
  3 21  1  0  0  0  0 
  4 22  1  0  0  0  0 
  7 23  1  0  0  0  0 
  7 24  1  0  0  0  0 
  8 25  1  0  0  0  0 
  8 26  1  0  0  0  0 
 12 27  1  0  0  0  0 
 13 28  1  0  0  0  0 
 14 29  1  0  0  0  0 
 15 30  1  0  0  0  0 
 18 31  1  0  0  0  0 
 18 32  1  0  0  0  0 
 19 33  1  0  0  0  0 
 19 34  1  0  0  0  0 
 19 35  1  0  0  0  0 
M  END
> <cdk:Title>
etoxazene

> <Conformer>
1

> <SuperDrugID>
SD003195

$$$$
