baicalin
  CDK     0628171801

 50 53  0  0  0  0  0  0  0  0999 V2000
    5.3497   -4.7756    1.9932 O   0  0  0  0  0  0  0  0  0  0  0  0
    4.1167   -4.8693    1.4332 C   0  0  0  0  0  0  0  0  0  0  0  0
    3.1739   -5.8446    1.8480 C   0  0  0  0  0  0  0  0  0  0  0  0
    3.7853   -3.9424    0.4249 C   0  0  0  0  0  0  0  0  0  0  0  0
    1.9036   -5.8806    1.2100 C   0  0  0  0  0  0  0  0  0  0  0  0
    3.4137   -6.7944    2.8737 C   0  0  0  0  0  0  0  0  0  0  0  0
    4.6906   -3.0091    0.0369 O   0  0  0  0  0  0  0  0  0  0  0  0
    2.5080   -3.9598   -0.1720 C   0  0  0  0  0  0  0  0  0  0  0  0
    0.9740   -6.8096    1.5874 O   0  0  0  0  0  0  0  0  0  0  0  0
    1.5809   -4.9507    0.2057 C   0  0  0  0  0  0  0  0  0  0  0  0
    4.5056   -6.8500    3.4873 O   0  0  0  0  0  0  0  0  0  0  0  0
    2.4250   -7.7204    3.2487 C   0  0  0  0  0  0  0  0  0  0  0  0
    2.1581   -3.0119   -1.1010 O   0  0  0  0  0  0  0  0  0  0  0  0
    1.1821   -7.7188    2.5861 C   0  0  0  0  0  0  0  0  0  0  0  0
    1.5908   -1.8258   -0.4962 C   0  0  2  0  0  0  0  0  0  0  0  0
    0.1545   -8.6261    2.9239 C   0  0  0  0  0  0  0  0  0  0  0  0
    0.3560   -2.1738    0.1744 O   0  0  0  0  0  0  0  0  0  0  0  0
    1.3190   -0.7610   -1.5944 C   0  0  2  0  0  0  0  0  0  0  0  0
   -0.3403   -8.7007    4.2478 C   0  0  0  0  0  0  0  0  0  0  0  0
   -0.3924   -9.4844    1.9416 C   0  0  0  0  0  0  0  0  0  0  0  0
   -0.3027   -1.0821    0.8419 C   0  0  2  0  0  0  0  0  0  0  0  0
    2.5500   -0.3344   -2.1805 O   0  0  0  0  0  0  0  0  0  0  0  0
    0.5687    0.4639   -0.9978 C   0  0  2  0  0  0  0  0  0  0  0  0
   -1.3399   -9.6315    4.5876 C   0  0  0  0  0  0  0  0  0  0  0  0
   -1.3824  -10.4244    2.2858 C   0  0  0  0  0  0  0  0  0  0  0  0
   -1.4802   -1.6434    1.5353 C   0  0  0  0  0  0  0  0  0  0  0  0
   -0.6813    0.0250   -0.1848 C   0  0  2  0  0  0  0  0  0  0  0  0
    0.1829    1.3566   -2.0421 O   0  0  0  0  0  0  0  0  0  0  0  0
   -1.8535  -10.4988    3.6078 C   0  0  0  0  0  0  0  0  0  0  0  0
   -1.6207   -1.5075    2.8748 O   0  0  0  0  0  0  0  0  0  0  0  0
   -2.3613   -2.2712    0.9044 O   0  0  0  0  0  0  0  0  0  0  0  0
   -1.2406    1.1526    0.4892 O   0  0  0  0  0  0  0  0  0  0  0  0
    5.2090   -4.2751    2.8245 H   0  0  0  0  0  0  0  0  0  0  0  0
    4.5557   -2.2534    0.6476 H   0  0  0  0  0  0  0  0  0  0  0  0
    0.6613   -4.9832   -0.2413 H   0  0  0  0  0  0  0  0  0  0  0  0
    2.6157   -8.3988    3.9904 H   0  0  0  0  0  0  0  0  0  0  0  0
    2.3010   -1.4030    0.2263 H   0  0  0  0  0  0  0  0  0  0  0  0
    0.6980   -1.2048   -2.3790 H   0  0  0  0  0  0  0  0  0  0  0  0
    0.0201   -8.0767    4.9737 H   0  0  0  0  0  0  0  0  0  0  0  0
   -0.0623   -9.4441    0.9743 H   0  0  0  0  0  0  0  0  0  0  0  0
    0.3696   -0.6573    1.5957 H   0  0  0  0  0  0  0  0  0  0  0  0
    2.9509   -1.1471   -2.5562 H   0  0  0  0  0  0  0  0  0  0  0  0
    1.2489    1.0129   -0.3403 H   0  0  0  0  0  0  0  0  0  0  0  0
   -1.6885   -9.6800    5.5485 H   0  0  0  0  0  0  0  0  0  0  0  0
   -1.7536  -11.0603    1.5746 H   0  0  0  0  0  0  0  0  0  0  0  0
   -1.4289   -0.3662   -0.8820 H   0  0  0  0  0  0  0  0  0  0  0  0
   -0.4248    0.8414   -2.6143 H   0  0  0  0  0  0  0  0  0  0  0  0
   -2.5716  -11.1819    3.8573 H   0  0  0  0  0  0  0  0  0  0  0  0
   -2.4000   -1.8930    3.3314 H   0  0  0  0  0  0  0  0  0  0  0  0
   -2.0199    0.8034    0.9725 H   0  0  0  0  0  0  0  0  0  0  0  0
  1  2  1  0  0  0  0 
  2  3  2  0  0  0  0 
  2  4  1  0  0  0  0 
  3  5  1  0  0  0  0 
  3  6  1  0  0  0  0 
  4  7  1  0  0  0  0 
  4  8  2  0  0  0  0 
  5  9  1  0  0  0  0 
  5 10  2  0  0  0  0 
  6 11  2  0  0  0  0 
  6 12  1  0  0  0  0 
  8 10  1  0  0  0  0 
  8 13  1  0  0  0  0 
  9 14  1  0  0  0  0 
 12 14  2  0  0  0  0 
 14 16  1  0  0  0  0 
 15 13  1  0  0  0  0 
 15 17  1  0  0  0  0 
 18 15  1  0  0  0  0 
 16 19  2  0  0  0  0 
 16 20  1  0  0  0  0 
 21 17  1  0  0  0  0 
 18 22  1  0  0  0  0 
 18 23  1  0  0  0  0 
 19 24  1  0  0  0  0 
 20 25  2  0  0  0  0 
 21 26  1  0  0  0  0 
 27 21  1  0  0  0  0 
 23 27  1  0  0  0  0 
 23 28  1  0  0  0  0 
 24 29  2  0  0  0  0 
 25 29  1  0  0  0  0 
 26 30  1  0  0  0  0 
 26 31  2  0  0  0  0 
 27 32  1  0  0  0  0 
 33  1  1  0  0  0  0 
 34  7  1  0  0  0  0 
 35 10  1  0  0  0  0 
 36 12  1  0  0  0  0 
 15 37  1  0  0  0  0 
 18 38  1  0  0  0  0 
 39 19  1  0  0  0  0 
 40 20  1  0  0  0  0 
 21 41  1  0  0  0  0 
 42 22  1  0  0  0  0 
 23 43  1  0  0  0  0 
 44 24  1  0  0  0  0 
 45 25  1  0  0  0  0 
 27 46  1  0  0  0  0 
 47 28  1  0  0  0  0 
 48 29  1  0  0  0  0 
 49 30  1  0  0  0  0 
 50 32  1  0  0  0  0 
M  END
> <cdk:Title>
baicalin

> <Conformer>
1

> <SuperDrugID>
SD003341

$$$$
