butofilolol
  CDK     0628171801

 48 48  0  0  0  0  0  0  0  0999 V2000
   -2.6709    2.5723    3.3650 C   0  0  0  0  0  0  0  0  0  0  0  0
   -3.0553    3.5229    4.4482 C   0  0  2  0  0  0  0  0  0  0  0  0
   -2.6834    1.3505    3.6507 O   0  0  0  0  0  0  0  0  0  0  0  0
   -2.3245    2.9720    2.0292 C   0  0  0  0  0  0  0  0  0  0  0  0
   -3.2266    2.8945    5.8622 C   0  0  2  0  0  0  0  0  0  0  0  0
   -1.6876    2.0711    1.1252 C   0  0  0  0  0  0  0  0  0  0  0  0
   -2.6302    4.2739    1.5473 C   0  0  0  0  0  0  0  0  0  0  0  0
   -3.7057    3.9038    6.9264 C   0  0  0  0  0  0  0  0  0  0  0  0
   -1.3474    0.7910    1.4758 O   0  0  0  0  0  0  0  0  0  0  0  0
   -1.4367    2.4466   -0.2108 C   0  0  0  0  0  0  0  0  0  0  0  0
   -2.3731    4.6462    0.2120 C   0  0  0  0  0  0  0  0  0  0  0  0
   -0.0011    0.6266    1.9703 C   0  0  1  0  0  0  0  0  0  0  0  0
   -1.7797    3.7271   -0.6691 C   0  0  0  0  0  0  0  0  0  0  0  0
   -2.6978    5.8389   -0.2129 F   0  0  0  0  0  0  0  0  0  0  0  0
    0.2447   -0.8707    2.2927 C   0  0  1  0  0  0  0  0  0  0  0  0
    0.0153   -1.7824    1.0570 C   0  0  2  0  0  0  0  0  0  0  0  0
    1.5754   -1.0165    2.7860 O   0  0  0  0  0  0  0  0  0  0  0  0
    0.2317   -3.2139    1.3727 N   0  0  1  0  0  0  0  0  0  0  0  0
    0.0188   -4.2455    0.3098 C   0  0  2  0  0  0  0  0  0  0  0  0
    0.9897   -4.0429   -0.8992 C   0  0  0  0  0  0  0  0  0  0  0  0
   -1.4694   -4.2854   -0.1602 C   0  0  0  0  0  0  0  0  0  0  0  0
    0.3553   -5.6009    1.0033 C   0  0  0  0  0  0  0  0  0  0  0  0
   -3.9968    4.0007    4.1674 H   0  0  0  0  0  0  0  0  0  0  0  0
   -2.2834    4.2930    4.5167 H   0  0  0  0  0  0  0  0  0  0  0  0
   -2.2686    2.4754    6.1836 H   0  0  0  0  0  0  0  0  0  0  0  0
   -3.9555    2.0805    5.8173 H   0  0  0  0  0  0  0  0  0  0  0  0
   -3.0606    4.9715    2.1577 H   0  0  0  0  0  0  0  0  0  0  0  0
   -3.0023    4.7340    7.0114 H   0  0  0  0  0  0  0  0  0  0  0  0
   -3.7790    3.4069    7.8961 H   0  0  0  0  0  0  0  0  0  0  0  0
   -4.6901    4.2943    6.6613 H   0  0  0  0  0  0  0  0  0  0  0  0
   -1.0047    1.7810   -0.8544 H   0  0  0  0  0  0  0  0  0  0  0  0
    0.7305    0.9590    1.2257 H   0  0  0  0  0  0  0  0  0  0  0  0
    0.1448    1.2108    2.8854 H   0  0  0  0  0  0  0  0  0  0  0  0
   -1.5944    3.9854   -1.6424 H   0  0  0  0  0  0  0  0  0  0  0  0
   -0.4370   -1.1673    3.0936 H   0  0  0  0  0  0  0  0  0  0  0  0
    0.6950   -1.4677    0.2635 H   0  0  0  0  0  0  0  0  0  0  0  0
   -1.0113   -1.6449    0.7159 H   0  0  0  0  0  0  0  0  0  0  0  0
    1.6246   -1.9313    3.1399 H   0  0  0  0  0  0  0  0  0  0  0  0
    1.2039   -3.3078    1.6684 H   0  0  0  0  0  0  0  0  0  0  0  0
    0.9663   -4.9055   -1.5712 H   0  0  0  0  0  0  0  0  0  0  0  0
    0.7187   -3.1608   -1.4851 H   0  0  0  0  0  0  0  0  0  0  0  0
    2.0159   -3.9145   -0.5431 H   0  0  0  0  0  0  0  0  0  0  0  0
   -1.7341   -3.3891   -0.7241 H   0  0  0  0  0  0  0  0  0  0  0  0
   -1.6543   -5.1476   -0.8056 H   0  0  0  0  0  0  0  0  0  0  0  0
   -2.1330   -4.3546    0.7049 H   0  0  0  0  0  0  0  0  0  0  0  0
    0.2372   -6.4383    0.3095 H   0  0  0  0  0  0  0  0  0  0  0  0
    1.3870   -5.5982    1.3665 H   0  0  0  0  0  0  0  0  0  0  0  0
   -0.3073   -5.7663    1.8577 H   0  0  0  0  0  0  0  0  0  0  0  0
  1  2  1  0  0  0  0 
  1  3  2  0  0  0  0 
  1  4  1  0  0  0  0 
  2  5  1  0  0  0  0 
  4  6  2  0  0  0  0 
  4  7  1  0  0  0  0 
  5  8  1  0  0  0  0 
  6  9  1  0  0  0  0 
  6 10  1  0  0  0  0 
  7 11  2  0  0  0  0 
  9 12  1  0  0  0  0 
 10 13  2  0  0  0  0 
 11 13  1  0  0  0  0 
 11 14  1  0  0  0  0 
 12 15  1  0  0  0  0 
 15 16  1  0  0  0  0 
 15 17  1  0  0  0  0 
 16 18  1  0  0  0  0 
 18 19  1  0  0  0  0 
 19 20  1  0  0  0  0 
 19 21  1  0  0  0  0 
 19 22  1  0  0  0  0 
 23  2  1  0  0  0  0 
 24  2  1  0  0  0  0 
 25  5  1  0  0  0  0 
 26  5  1  0  0  0  0 
 27  7  1  0  0  0  0 
 28  8  1  0  0  0  0 
 29  8  1  0  0  0  0 
 30  8  1  0  0  0  0 
 31 10  1  0  0  0  0 
 32 12  1  0  0  0  0 
 33 12  1  0  0  0  0 
 34 13  1  0  0  0  0 
 35 15  1  0  0  0  0 
 36 16  1  0  0  0  0 
 37 16  1  0  0  0  0 
 38 17  1  0  0  0  0 
 39 18  1  0  0  0  0 
 40 20  1  0  0  0  0 
 41 20  1  0  0  0  0 
 42 20  1  0  0  0  0 
 43 21  1  0  0  0  0 
 44 21  1  0  0  0  0 
 45 21  1  0  0  0  0 
 46 22  1  0  0  0  0 
 47 22  1  0  0  0  0 
 48 22  1  0  0  0  0 
M  END
> <cdk:Title>
butofilolol

> <Conformer>
1

> <SuperDrugID>
SD000394

$$$$
