dipiperonylaminoethanol
  CDK     0628171802

 43 46  0  0  0  0  0  0  0  0999 V2000
   -0.3605    0.1616    1.3752 C   0  0  2  0  0  0  0  0  0  0  0  0
   -0.8465   -1.2616    1.2637 N   0  0  2  0  0  0  0  0  0  0  0  0
   -0.2899    0.7191    2.7588 C   0  0  0  0  0  0  0  0  0  0  0  0
   -0.6545   -1.8008   -0.1294 C   0  0  1  0  0  0  0  0  0  0  0  0
   -2.2531   -1.4196    1.7773 C   0  0  1  0  0  0  0  0  0  0  0  0
    0.5755    0.1463    3.7272 C   0  0  0  0  0  0  0  0  0  0  0  0
   -1.0692    1.8499    3.1254 C   0  0  0  0  0  0  0  0  0  0  0  0
    0.7726   -2.0461   -0.4694 C   0  0  0  0  0  0  0  0  0  0  0  0
   -2.7467   -2.8791    1.9189 C   0  0  2  0  0  0  0  0  0  0  0  0
    0.6434    0.7081    5.0154 C   0  0  0  0  0  0  0  0  0  0  0  0
   -0.9986    2.3954    4.4242 C   0  0  0  0  0  0  0  0  0  0  0  0
    1.3974   -1.3401   -1.5278 C   0  0  0  0  0  0  0  0  0  0  0  0
    1.5249   -3.0103    0.2537 C   0  0  0  0  0  0  0  0  0  0  0  0
   -3.9632   -2.9309    2.6542 O   0  0  0  0  0  0  0  0  0  0  0  0
   -0.1308    1.8074    5.3580 C   0  0  0  0  0  0  0  0  0  0  0  0
    1.4146    0.3124    6.0487 O   0  0  0  0  0  0  0  0  0  0  0  0
    2.7425   -1.6056   -1.8363 C   0  0  0  0  0  0  0  0  0  0  0  0
    2.8757   -3.2634   -0.0678 C   0  0  0  0  0  0  0  0  0  0  0  0
    0.0796    2.1896    6.6336 O   0  0  0  0  0  0  0  0  0  0  0  0
    1.2467    1.4131    6.9650 C   0  0  1  0  0  0  0  0  0  0  0  0
    3.4675   -2.5438   -1.1183 C   0  0  0  0  0  0  0  0  0  0  0  0
    3.4865   -1.0330   -2.8015 O   0  0  0  0  0  0  0  0  0  0  0  0
    4.7329   -2.6399   -1.5669 O   0  0  0  0  0  0  0  0  0  0  0  0
    4.8007   -1.5090   -2.4564 C   0  0  1  0  0  0  0  0  0  0  0  0
   -0.9922    0.7948    0.7430 H   0  0  0  0  0  0  0  0  0  0  0  0
    0.6504    0.2384    0.9693 H   0  0  0  0  0  0  0  0  0  0  0  0
   -1.1448   -2.7651   -0.2582 H   0  0  0  0  0  0  0  0  0  0  0  0
   -1.1278   -1.1253   -0.8508 H   0  0  0  0  0  0  0  0  0  0  0  0
   -2.3164   -0.9904    2.7807 H   0  0  0  0  0  0  0  0  0  0  0  0
   -2.9499   -0.8690    1.1373 H   0  0  0  0  0  0  0  0  0  0  0  0
    1.1579   -0.6622    3.4986 H   0  0  0  0  0  0  0  0  0  0  0  0
   -1.6946    2.2917    2.4460 H   0  0  0  0  0  0  0  0  0  0  0  0
   -1.9957   -3.4808    2.4324 H   0  0  0  0  0  0  0  0  0  0  0  0
   -2.9486   -3.3172    0.9431 H   0  0  0  0  0  0  0  0  0  0  0  0
   -1.5618    3.2093    4.6819 H   0  0  0  0  0  0  0  0  0  0  0  0
    0.8889   -0.6386   -2.0725 H   0  0  0  0  0  0  0  0  0  0  0  0
    1.0893   -3.5367    1.0165 H   0  0  0  0  0  0  0  0  0  0  0  0
   -4.2231   -3.8774    2.6382 H   0  0  0  0  0  0  0  0  0  0  0  0
    3.4158   -3.9568    0.4541 H   0  0  0  0  0  0  0  0  0  0  0  0
    1.1614    1.0342    7.9855 H   0  0  0  0  0  0  0  0  0  0  0  0
    2.1286    2.0602    6.9190 H   0  0  0  0  0  0  0  0  0  0  0  0
    5.3375   -1.7895   -3.3641 H   0  0  0  0  0  0  0  0  0  0  0  0
    5.3570   -0.7036   -1.9673 H   0  0  0  0  0  0  0  0  0  0  0  0
  1  2  1  0  0  0  0 
  1  3  1  0  0  0  0 
  2  4  1  0  0  0  0 
  2  5  1  0  0  0  0 
  3  6  2  0  0  0  0 
  3  7  1  0  0  0  0 
  4  8  1  0  0  0  0 
  5  9  1  0  0  0  0 
  6 10  1  0  0  0  0 
  7 11  2  0  0  0  0 
  8 12  2  0  0  0  0 
  8 13  1  0  0  0  0 
  9 14  1  0  0  0  0 
 10 15  2  0  0  0  0 
 10 16  1  0  0  0  0 
 11 15  1  0  0  0  0 
 12 17  1  0  0  0  0 
 13 18  2  0  0  0  0 
 15 19  1  0  0  0  0 
 16 20  1  0  0  0  0 
 17 21  2  0  0  0  0 
 17 22  1  0  0  0  0 
 18 21  1  0  0  0  0 
 19 20  1  0  0  0  0 
 21 23  1  0  0  0  0 
 22 24  1  0  0  0  0 
 23 24  1  0  0  0  0 
  1 25  1  0  0  0  0 
  1 26  1  0  0  0  0 
  4 27  1  0  0  0  0 
  4 28  1  0  0  0  0 
  5 29  1  0  0  0  0 
  5 30  1  0  0  0  0 
  6 31  1  0  0  0  0 
  7 32  1  0  0  0  0 
  9 33  1  0  0  0  0 
  9 34  1  0  0  0  0 
 11 35  1  0  0  0  0 
 12 36  1  0  0  0  0 
 13 37  1  0  0  0  0 
 14 38  1  0  0  0  0 
 18 39  1  0  0  0  0 
 20 40  1  0  0  0  0 
 20 41  1  0  0  0  0 
 24 42  1  0  0  0  0 
 24 43  1  0  0  0  0 
M  END
> <cdk:Title>
dipiperonylaminoethanol

> <Conformer>
1

> <SuperDrugID>
SD003754

$$$$
