cropropamide
  CDK     0628171802

 41 40  0  0  0  0  0  0  0  0999 V2000
    0.5566   -0.9920   -0.0363 C   0  0  0  0  0  0  0  0  0  0  0  0
    0.2558    0.4127    0.1407 C   0  0  0  0  0  0  0  0  0  0  0  0
   -0.9083    0.9625   -0.2409 C   0  0  0  0  0  0  0  0  0  0  0  0
   -1.1633    2.3004   -0.0513 C   0  0  0  0  0  0  0  0  0  0  0  0
   -0.6833    3.3768   -0.8051 N   0  0  0  0  0  0  0  0  0  0  0  0
   -1.8816    2.4989    0.9591 O   0  0  0  0  0  0  0  0  0  0  0  0
   -0.2031    3.3510   -2.2026 C   0  0  1  0  0  0  0  0  0  0  0  0
   -0.6373    4.6757   -0.1231 C   0  0  1  0  0  0  0  0  0  0  0  0
    0.4672    4.7545    0.9694 C   0  0  1  0  0  0  0  0  0  0  0  0
    0.5212    6.1389    1.6561 C   0  0  0  0  0  0  0  0  0  0  0  0
    0.1038    2.0243   -2.9968 C   0  0  1  0  0  0  0  0  0  0  0  0
   -1.0705    4.2444   -3.0559 C   0  0  0  0  0  0  0  0  0  0  0  0
   -2.4350    4.0982   -3.3102 N   0  0  0  0  0  0  0  0  0  0  0  0
   -0.4619    5.2169   -3.5709 O   0  0  0  0  0  0  0  0  0  0  0  0
   -3.1735    5.0820   -4.0819 C   0  0  0  0  0  0  0  0  0  0  0  0
   -3.2307    2.9861   -2.8434 C   0  0  0  0  0  0  0  0  0  0  0  0
    1.5536    1.4899   -2.8447 C   0  0  0  0  0  0  0  0  0  0  0  0
    1.5707   -1.2220    0.3003 H   0  0  0  0  0  0  0  0  0  0  0  0
   -0.1418   -1.5994    0.5401 H   0  0  0  0  0  0  0  0  0  0  0  0
    0.4787   -1.2588   -1.0920 H   0  0  0  0  0  0  0  0  0  0  0  0
    0.9513    0.9892    0.5610 H   0  0  0  0  0  0  0  0  0  0  0  0
   -1.6240    0.3963   -0.6364 H   0  0  0  0  0  0  0  0  0  0  0  0
    0.7829    3.8285   -2.1389 H   0  0  0  0  0  0  0  0  0  0  0  0
   -0.4438    5.4952   -0.8197 H   0  0  0  0  0  0  0  0  0  0  0  0
   -1.6076    4.9052    0.3230 H   0  0  0  0  0  0  0  0  0  0  0  0
    0.2939    4.0004    1.7403 H   0  0  0  0  0  0  0  0  0  0  0  0
    1.4397    4.5500    0.5134 H   0  0  0  0  0  0  0  0  0  0  0  0
    1.3170    6.1572    2.4061 H   0  0  0  0  0  0  0  0  0  0  0  0
    0.7207    6.9170    0.9143 H   0  0  0  0  0  0  0  0  0  0  0  0
   -0.4280    6.3515    2.1548 H   0  0  0  0  0  0  0  0  0  0  0  0
   -0.6022    1.2353   -2.7580 H   0  0  0  0  0  0  0  0  0  0  0  0
   -0.0209    2.1944   -4.0712 H   0  0  0  0  0  0  0  0  0  0  0  0
   -3.4861    4.6430   -5.0316 H   0  0  0  0  0  0  0  0  0  0  0  0
   -2.6060    5.9854   -4.3083 H   0  0  0  0  0  0  0  0  0  0  0  0
   -4.0645    5.4046   -3.5373 H   0  0  0  0  0  0  0  0  0  0  0  0
   -3.7180    2.4987   -3.6900 H   0  0  0  0  0  0  0  0  0  0  0  0
   -3.9981    3.3465   -2.1546 H   0  0  0  0  0  0  0  0  0  0  0  0
   -2.6710    2.2162   -2.3271 H   0  0  0  0  0  0  0  0  0  0  0  0
    1.6435    0.5171   -3.3333 H   0  0  0  0  0  0  0  0  0  0  0  0
    2.2604    2.1763   -3.3154 H   0  0  0  0  0  0  0  0  0  0  0  0
    1.8398    1.3861   -1.8015 H   0  0  0  0  0  0  0  0  0  0  0  0
  1  2  1  0  0  0  0 
  2  3  2  0  0  0  0 
  3  4  1  0  0  0  0 
  4  5  1  0  0  0  0 
  4  6  2  0  0  0  0 
  7  5  1  0  0  0  0 
  5  8  1  0  0  0  0 
  8  9  1  0  0  0  0 
  9 10  1  0  0  0  0 
  7 11  1  0  0  0  0 
  7 12  1  0  0  0  0 
 12 13  1  0  0  0  0 
 12 14  2  0  0  0  0 
 13 15  1  0  0  0  0 
 13 16  1  0  0  0  0 
 11 17  1  0  0  0  0 
  1 18  1  0  0  0  0 
  1 19  1  0  0  0  0 
  1 20  1  0  0  0  0 
  2 21  1  0  0  0  0 
  3 22  1  0  0  0  0 
  7 23  1  0  0  0  0 
  8 24  1  0  0  0  0 
  8 25  1  0  0  0  0 
  9 26  1  0  0  0  0 
  9 27  1  0  0  0  0 
 10 28  1  0  0  0  0 
 10 29  1  0  0  0  0 
 10 30  1  0  0  0  0 
 11 31  1  0  0  0  0 
 11 32  1  0  0  0  0 
 15 33  1  0  0  0  0 
 15 34  1  0  0  0  0 
 15 35  1  0  0  0  0 
 16 36  1  0  0  0  0 
 16 37  1  0  0  0  0 
 16 38  1  0  0  0  0 
 17 39  1  0  0  0  0 
 17 40  1  0  0  0  0 
 17 41  1  0  0  0  0 
M  END
> <cdk:Title>
cropropamide

> <Conformer>
1

> <SuperDrugID>
SD000653

$$$$
