cinchophen
  CDK     0628171801

 30 32  0  0  0  0  0  0  0  0999 V2000
    4.6811    2.9902    0.0394 C   0  0  0  0  0  0  0  0  0  0  0  0
    4.4725    3.7282    1.1600 O   0  0  0  0  0  0  0  0  0  0  0  0
    5.8230    3.0673   -0.4678 O   0  0  0  0  0  0  0  0  0  0  0  0
    3.6667    2.1362   -0.4860 C   0  0  0  0  0  0  0  0  0  0  0  0
    3.5126    1.8122   -1.8712 C   0  0  0  0  0  0  0  0  0  0  0  0
    2.7694    1.5554    0.4456 C   0  0  0  0  0  0  0  0  0  0  0  0
    2.4952    0.8783   -2.2363 C   0  0  0  0  0  0  0  0  0  0  0  0
    4.2934    2.3688   -2.9214 C   0  0  0  0  0  0  0  0  0  0  0  0
    1.7819    0.6398    0.0326 C   0  0  0  0  0  0  0  0  0  0  0  0
    1.6934    0.3339   -1.2850 N   0  0  0  0  0  0  0  0  0  0  0  0
    2.2959    0.5091   -3.5838 C   0  0  0  0  0  0  0  0  0  0  0  0
    4.1044    1.9846   -4.2607 C   0  0  0  0  0  0  0  0  0  0  0  0
    0.9036    0.0345    0.9637 C   0  0  0  0  0  0  0  0  0  0  0  0
    3.1055    1.0567   -4.5928 C   0  0  0  0  0  0  0  0  0  0  0  0
    0.0728    0.8302    1.7892 C   0  0  0  0  0  0  0  0  0  0  0  0
    0.8596   -1.3733    1.1033 C   0  0  0  0  0  0  0  0  0  0  0  0
   -0.7884    0.2306    2.7276 C   0  0  0  0  0  0  0  0  0  0  0  0
    0.0044   -1.9692    2.0512 C   0  0  0  0  0  0  0  0  0  0  0  0
   -0.8227   -1.1689    2.8598 C   0  0  0  0  0  0  0  0  0  0  0  0
    5.1861    4.2962    1.5187 H   0  0  0  0  0  0  0  0  0  0  0  0
    2.8440    1.7718    1.4438 H   0  0  0  0  0  0  0  0  0  0  0  0
    5.0083    3.0704   -2.7441 H   0  0  0  0  0  0  0  0  0  0  0  0
    1.5628   -0.1562   -3.8379 H   0  0  0  0  0  0  0  0  0  0  0  0
    4.6947    2.3847   -4.9965 H   0  0  0  0  0  0  0  0  0  0  0  0
    2.9658    0.7838   -5.5693 H   0  0  0  0  0  0  0  0  0  0  0  0
    0.0874    1.8510    1.7105 H   0  0  0  0  0  0  0  0  0  0  0  0
    1.4615   -1.9727    0.5311 H   0  0  0  0  0  0  0  0  0  0  0  0
   -1.3887    0.8134    3.3144 H   0  0  0  0  0  0  0  0  0  0  0  0
   -0.0134   -2.9857    2.1560 H   0  0  0  0  0  0  0  0  0  0  0  0
   -1.4474   -1.6028    3.5437 H   0  0  0  0  0  0  0  0  0  0  0  0
  1  2  1  0  0  0  0 
  1  3  2  0  0  0  0 
  1  4  1  0  0  0  0 
  4  5  2  0  0  0  0 
  4  6  1  0  0  0  0 
  5  7  1  0  0  0  0 
  5  8  1  0  0  0  0 
  6  9  2  0  0  0  0 
  7 10  2  0  0  0  0 
  7 11  1  0  0  0  0 
  8 12  2  0  0  0  0 
  9 10  1  0  0  0  0 
  9 13  1  0  0  0  0 
 11 14  2  0  0  0  0 
 12 14  1  0  0  0  0 
 13 15  2  0  0  0  0 
 13 16  1  0  0  0  0 
 15 17  1  0  0  0  0 
 16 18  2  0  0  0  0 
 17 19  2  0  0  0  0 
 18 19  1  0  0  0  0 
  2 20  1  0  0  0  0 
  6 21  1  0  0  0  0 
  8 22  1  0  0  0  0 
 11 23  1  0  0  0  0 
 12 24  1  0  0  0  0 
 14 25  1  0  0  0  0 
 15 26  1  0  0  0  0 
 16 27  1  0  0  0  0 
 17 28  1  0  0  0  0 
 18 29  1  0  0  0  0 
 19 30  1  0  0  0  0 
M  END
> <cdk:Title>
cinchophen

> <Conformer>
1

> <SuperDrugID>
SD002690

$$$$
