idanpramine
  CDK     0628171801

 60 63  0  0  0  0  0  0  0  0999 V2000
    0.7282    2.4025    3.7992 O   0  0  0  0  0  0  0  0  0  0  0  0
    0.8985    1.1605    3.8339 C   0  0  0  0  0  0  0  0  0  0  0  0
    2.0777    0.5049    4.4663 C   0  0  2  0  0  0  0  0  0  0  0  0
    0.0692    0.2742    3.2259 N   0  0  0  0  0  0  0  0  0  0  0  0
    1.6957   -0.8422    4.1787 N   0  0  0  0  0  0  0  0  0  0  0  0
    2.2644    0.6473    5.9572 C   0  0  0  0  0  0  0  0  0  0  0  0
    3.3152    0.9589    3.7373 C   0  0  0  0  0  0  0  0  0  0  0  0
   -1.1037    0.5772    2.4419 C   0  0  2  0  0  0  0  0  0  0  0  0
    0.5682   -0.9503    3.4716 C   0  0  0  0  0  0  0  0  0  0  0  0
    1.6836    1.6916    6.7249 C   0  0  0  0  0  0  0  0  0  0  0  0
    3.1275   -0.2559    6.6314 C   0  0  0  0  0  0  0  0  0  0  0  0
    3.8311    2.2606    3.9701 C   0  0  0  0  0  0  0  0  0  0  0  0
    3.9856    0.1476    2.7861 C   0  0  0  0  0  0  0  0  0  0  0  0
   -0.8219    1.5348    1.2488 C   0  0  1  0  0  0  0  0  0  0  0  0
    0.0929   -2.0490    3.1047 O   0  0  0  0  0  0  0  0  0  0  0  0
    1.9792    1.8443    8.0925 C   0  0  0  0  0  0  0  0  0  0  0  0
    3.4011   -0.1245    8.0035 C   0  0  0  0  0  0  0  0  0  0  0  0
    4.9574    2.7346    3.2792 C   0  0  0  0  0  0  0  0  0  0  0  0
    5.1000    0.6269    2.0758 C   0  0  0  0  0  0  0  0  0  0  0  0
    0.4446    1.2252    0.5104 N   0  0  2  0  0  0  0  0  0  0  0  0
    2.8473    0.9423    8.7367 C   0  0  0  0  0  0  0  0  0  0  0  0
    5.5836    1.9283    2.3096 C   0  0  0  0  0  0  0  0  0  0  0  0
    0.9506    2.3755   -0.3044 C   0  0  2  0  0  0  0  0  0  0  0  0
    0.4148   -0.0499   -0.2760 C   0  0  1  0  0  0  0  0  0  0  0  0
    3.1298    1.0965   10.0678 O   0  0  0  0  0  0  0  0  0  0  0  0
    6.6508    2.3981    1.5960 O   0  0  0  0  0  0  0  0  0  0  0  0
    2.3792    2.0895   -0.8273 C   0  0  2  0  0  0  0  0  0  0  0  0
    1.8257   -0.4127   -0.8028 C   0  0  1  0  0  0  0  0  0  0  0  0
    4.3796    1.7699   10.3035 C   0  0  0  0  0  0  0  0  0  0  0  0
    6.2481    3.2356    0.4950 C   0  0  0  0  0  0  0  0  0  0  0  0
    2.4417    0.7558   -1.6108 C   0  0  1  0  0  0  0  0  0  0  0  0
    2.2122   -1.6140    4.4611 H   0  0  0  0  0  0  0  0  0  0  0  0
   -1.8569    1.0285    3.0938 H   0  0  0  0  0  0  0  0  0  0  0  0
   -1.5447   -0.3396    2.0415 H   0  0  0  0  0  0  0  0  0  0  0  0
    1.0567    2.3739    6.2978 H   0  0  0  0  0  0  0  0  0  0  0  0
    3.5768   -1.0196    6.1203 H   0  0  0  0  0  0  0  0  0  0  0  0
    3.3862    2.8844    4.6479 H   0  0  0  0  0  0  0  0  0  0  0  0
    3.6674   -0.8015    2.5840 H   0  0  0  0  0  0  0  0  0  0  0  0
   -1.6718    1.5231    0.5602 H   0  0  0  0  0  0  0  0  0  0  0  0
   -0.7651    2.5452    1.6641 H   0  0  0  0  0  0  0  0  0  0  0  0
    1.5687    2.6217    8.6159 H   0  0  0  0  0  0  0  0  0  0  0  0
    4.0170   -0.7970    8.4650 H   0  0  0  0  0  0  0  0  0  0  0  0
    5.3127    3.6729    3.4786 H   0  0  0  0  0  0  0  0  0  0  0  0
    5.5508    0.0300    1.3777 H   0  0  0  0  0  0  0  0  0  0  0  0
    1.0046    3.2808    0.3065 H   0  0  0  0  0  0  0  0  0  0  0  0
    0.2773    2.5790   -1.1435 H   0  0  0  0  0  0  0  0  0  0  0  0
    0.0775   -0.8806    0.3458 H   0  0  0  0  0  0  0  0  0  0  0  0
   -0.2799    0.0416   -1.1181 H   0  0  0  0  0  0  0  0  0  0  0  0
    3.0669    2.0419    0.0211 H   0  0  0  0  0  0  0  0  0  0  0  0
    2.7028    2.9072   -1.4736 H   0  0  0  0  0  0  0  0  0  0  0  0
    2.4748   -0.6480    0.0441 H   0  0  0  0  0  0  0  0  0  0  0  0
    1.7608   -1.3014   -1.4383 H   0  0  0  0  0  0  0  0  0  0  0  0
    4.5160    1.8650   11.3807 H   0  0  0  0  0  0  0  0  0  0  0  0
    5.2217    1.1995    9.9041 H   0  0  0  0  0  0  0  0  0  0  0  0
    4.3812    2.7722    9.8685 H   0  0  0  0  0  0  0  0  0  0  0  0
    7.1402    3.4988   -0.0727 H   0  0  0  0  0  0  0  0  0  0  0  0
    5.5661    2.7149   -0.1822 H   0  0  0  0  0  0  0  0  0  0  0  0
    5.7760    4.1578    0.8497 H   0  0  0  0  0  0  0  0  0  0  0  0
    1.8991    0.8638   -2.5539 H   0  0  0  0  0  0  0  0  0  0  0  0
    3.4841    0.5249   -1.8454 H   0  0  0  0  0  0  0  0  0  0  0  0
  1  2  2  0  0  0  0 
  2  3  1  0  0  0  0 
  2  4  1  0  0  0  0 
  3  5  1  0  0  0  0 
  3  6  1  0  0  0  0 
  3  7  1  0  0  0  0 
  4  8  1  0  0  0  0 
  4  9  1  0  0  0  0 
  5  9  1  0  0  0  0 
  6 10  2  0  0  0  0 
  6 11  1  0  0  0  0 
  7 12  2  0  0  0  0 
  7 13  1  0  0  0  0 
  8 14  1  0  0  0  0 
  9 15  2  0  0  0  0 
 10 16  1  0  0  0  0 
 11 17  2  0  0  0  0 
 12 18  1  0  0  0  0 
 13 19  2  0  0  0  0 
 14 20  1  0  0  0  0 
 16 21  2  0  0  0  0 
 17 21  1  0  0  0  0 
 18 22  2  0  0  0  0 
 19 22  1  0  0  0  0 
 20 23  1  0  0  0  0 
 20 24  1  0  0  0  0 
 21 25  1  0  0  0  0 
 22 26  1  0  0  0  0 
 23 27  1  0  0  0  0 
 24 28  1  0  0  0  0 
 25 29  1  0  0  0  0 
 26 30  1  0  0  0  0 
 27 31  1  0  0  0  0 
 28 31  1  0  0  0  0 
  5 32  1  0  0  0  0 
  8 33  1  0  0  0  0 
  8 34  1  0  0  0  0 
 10 35  1  0  0  0  0 
 11 36  1  0  0  0  0 
 12 37  1  0  0  0  0 
 13 38  1  0  0  0  0 
 14 39  1  0  0  0  0 
 14 40  1  0  0  0  0 
 16 41  1  0  0  0  0 
 17 42  1  0  0  0  0 
 18 43  1  0  0  0  0 
 19 44  1  0  0  0  0 
 23 45  1  0  0  0  0 
 23 46  1  0  0  0  0 
 24 47  1  0  0  0  0 
 24 48  1  0  0  0  0 
 27 49  1  0  0  0  0 
 27 50  1  0  0  0  0 
 28 51  1  0  0  0  0 
 28 52  1  0  0  0  0 
 29 53  1  0  0  0  0 
 29 54  1  0  0  0  0 
 29 55  1  0  0  0  0 
 30 56  1  0  0  0  0 
 30 57  1  0  0  0  0 
 30 58  1  0  0  0  0 
 31 59  1  0  0  0  0 
 31 60  1  0  0  0  0 
M  END
> <cdk:Title>
idanpramine

> <Conformer>
1

> <SuperDrugID>
SD003631

$$$$
