inositol
  CDK     0628171801

 24 24  0  0  0  0  0  0  0  0999 V2000
   -3.3773   -2.3556    4.2723 O   0  0  0  0  0  0  0  0  0  0  0  0
   -2.5740   -1.2700    3.8089 C   0  0  2  0  0  0  0  0  0  0  0  0
   -1.9804   -1.6382    2.4210 C   0  0  1  0  0  0  0  0  0  0  0  0
   -1.4545   -0.9545    4.8402 C   0  0  2  0  0  0  0  0  0  0  0  0
   -3.0325   -1.8632    1.4839 O   0  0  0  0  0  0  0  0  0  0  0  0
   -1.0235   -0.5306    1.8948 C   0  0  1  0  0  0  0  0  0  0  0  0
   -2.0477   -0.5327    6.0676 O   0  0  0  0  0  0  0  0  0  0  0  0
   -0.4798    0.1420    4.3184 C   0  0  2  0  0  0  0  0  0  0  0  0
   -1.7527    0.6636    1.6041 O   0  0  0  0  0  0  0  0  0  0  0  0
    0.1015   -0.2309    2.9263 C   0  0  2  0  0  0  0  0  0  0  0  0
    0.5797    0.3152    5.2589 O   0  0  0  0  0  0  0  0  0  0  0  0
    0.9350    0.8252    2.4494 O   0  0  0  0  0  0  0  0  0  0  0  0
   -3.7938   -2.0325    5.0986 H   0  0  0  0  0  0  0  0  0  0  0  0
   -3.2259   -0.3973    3.7015 H   0  0  0  0  0  0  0  0  0  0  0  0
   -1.4227   -2.5760    2.5099 H   0  0  0  0  0  0  0  0  0  0  0  0
   -0.8881   -1.8698    5.0442 H   0  0  0  0  0  0  0  0  0  0  0  0
   -2.5800   -2.1521    0.6625 H   0  0  0  0  0  0  0  0  0  0  0  0
   -0.5665   -0.8733    0.9614 H   0  0  0  0  0  0  0  0  0  0  0  0
   -1.2994   -0.4340    6.6944 H   0  0  0  0  0  0  0  0  0  0  0  0
   -1.0158    1.0936    4.2458 H   0  0  0  0  0  0  0  0  0  0  0  0
   -2.4375    0.3978    0.9558 H   0  0  0  0  0  0  0  0  0  0  0  0
    0.7327   -1.1197    3.0304 H   0  0  0  0  0  0  0  0  0  0  0  0
    1.0984    1.0774    4.9218 H   0  0  0  0  0  0  0  0  0  0  0  0
    1.3252    0.4845    1.6171 H   0  0  0  0  0  0  0  0  0  0  0  0
  2  1  1  0  0  0  0 
  3  2  1  0  0  0  0 
  4  2  1  0  0  0  0 
  3  5  1  0  0  0  0 
  6  3  1  0  0  0  0 
  4  7  1  0  0  0  0 
  8  4  1  0  0  0  0 
  6  9  1  0  0  0  0 
 10  6  1  0  0  0  0 
 10  8  1  0  0  0  0 
  8 11  1  0  0  0  0 
 10 12  1  0  0  0  0 
  1 13  1  0  0  0  0 
  2 14  1  0  0  0  0 
  3 15  1  0  0  0  0 
  4 16  1  0  0  0  0 
  5 17  1  0  0  0  0 
  6 18  1  0  0  0  0 
  7 19  1  0  0  0  0 
  8 20  1  0  0  0  0 
  9 21  1  0  0  0  0 
 10 22  1  0  0  0  0 
 11 23  1  0  0  0  0 
 12 24  1  0  0  0  0 
M  END
> <cdk:Title>
inositol

> <Conformer>
1

> <SuperDrugID>
SD001280

$$$$
