terbinafine
  CDK     0628171801

 47 48  0  0  0  0  0  0  0  0999 V2000
    2.6979    6.4702    4.6551 C   0  0  0  0  0  0  0  0  0  0  0  0
    2.7348    7.1009    5.9382 C   0  0  0  0  0  0  0  0  0  0  0  0
    1.7780    8.0838    6.2692 C   0  0  0  0  0  0  0  0  0  0  0  0
    0.7930    8.4517    5.3449 C   0  0  0  0  0  0  0  0  0  0  0  0
    0.7664    7.8603    4.0730 C   0  0  0  0  0  0  0  0  0  0  0  0
    1.7184    6.8810    3.6981 C   0  0  0  0  0  0  0  0  0  0  0  0
    3.7220    6.7411    6.8836 C   0  0  0  0  0  0  0  0  0  0  0  0
    4.6604    5.7401    6.5886 C   0  0  0  0  0  0  0  0  0  0  0  0
    4.6169    5.0869    5.3492 C   0  0  0  0  0  0  0  0  0  0  0  0
    3.6469    5.4460    4.3960 C   0  0  0  0  0  0  0  0  0  0  0  0
    1.6420    6.3184    2.3122 C   0  0  1  0  0  0  0  0  0  0  0  0
    2.8755    6.5317    1.4790 N   0  0  1  0  0  0  0  0  0  0  0  0
    2.8743    5.7360    0.2053 C   0  0  2  0  0  0  0  0  0  0  0  0
    3.2155    7.9692    1.2538 C   0  0  0  0  0  0  0  0  0  0  0  0
    3.0840    4.3195    0.4482 C   0  0  0  0  0  0  0  0  0  0  0  0
    4.2582    3.8406    0.8918 C   0  0  0  0  0  0  0  0  0  0  0  0
    4.4601    2.6078    1.1103 C   0  0  0  0  0  0  0  0  0  0  0  0
    4.6903    1.4537    1.3084 C   0  0  0  0  0  0  0  0  0  0  0  0
    5.0105    0.1275    1.5268 C   0  0  1  0  0  0  0  0  0  0  0  0
    3.7965   -0.7718    1.1358 C   0  0  0  0  0  0  0  0  0  0  0  0
    6.2431   -0.2173    0.6325 C   0  0  0  0  0  0  0  0  0  0  0  0
    5.3561   -0.0598    3.0389 C   0  0  0  0  0  0  0  0  0  0  0  0
    1.7890    8.5387    7.1871 H   0  0  0  0  0  0  0  0  0  0  0  0
    0.0962    9.1573    5.5949 H   0  0  0  0  0  0  0  0  0  0  0  0
    0.0372    8.1572    3.4189 H   0  0  0  0  0  0  0  0  0  0  0  0
    3.7661    7.2019    7.7954 H   0  0  0  0  0  0  0  0  0  0  0  0
    5.3710    5.4877    7.2800 H   0  0  0  0  0  0  0  0  0  0  0  0
    5.2955    4.3503    5.1399 H   0  0  0  0  0  0  0  0  0  0  0  0
    3.6477    4.9377    3.5124 H   0  0  0  0  0  0  0  0  0  0  0  0
    1.4529    5.2491    2.4308 H   0  0  0  0  0  0  0  0  0  0  0  0
    0.7848    6.7202    1.7600 H   0  0  0  0  0  0  0  0  0  0  0  0
    3.6721    6.0667   -0.4680 H   0  0  0  0  0  0  0  0  0  0  0  0
    1.9301    5.8840   -0.3291 H   0  0  0  0  0  0  0  0  0  0  0  0
    2.4225    8.4761    0.7002 H   0  0  0  0  0  0  0  0  0  0  0  0
    4.1473    8.0614    0.6906 H   0  0  0  0  0  0  0  0  0  0  0  0
    3.3691    8.4861    2.2025 H   0  0  0  0  0  0  0  0  0  0  0  0
    2.3186    3.7012    0.2856 H   0  0  0  0  0  0  0  0  0  0  0  0
    5.0188    4.4594    1.0567 H   0  0  0  0  0  0  0  0  0  0  0  0
    4.0471   -1.8262    1.2716 H   0  0  0  0  0  0  0  0  0  0  0  0
    2.9250   -0.5509    1.7574 H   0  0  0  0  0  0  0  0  0  0  0  0
    3.5128   -0.6268    0.0901 H   0  0  0  0  0  0  0  0  0  0  0  0
    6.5186   -1.2689    0.7468 H   0  0  0  0  0  0  0  0  0  0  0  0
    7.1111    0.3917    0.9063 H   0  0  0  0  0  0  0  0  0  0  0  0
    6.0218   -0.0410   -0.4256 H   0  0  0  0  0  0  0  0  0  0  0  0
    6.1442    0.6303    3.3580 H   0  0  0  0  0  0  0  0  0  0  0  0
    4.4772    0.1170    3.6668 H   0  0  0  0  0  0  0  0  0  0  0  0
    5.7050   -1.0781    3.2292 H   0  0  0  0  0  0  0  0  0  0  0  0
  1  2  1  0  0  0  0 
  2  3  2  0  0  0  0 
  3  4  1  0  0  0  0 
  4  5  2  0  0  0  0 
  5  6  1  0  0  0  0 
  1  6  2  0  0  0  0 
  7  8  2  0  0  0  0 
  8  9  1  0  0  0  0 
  9 10  2  0  0  0  0 
  1 10  1  0  0  0  0 
  2  7  1  0  0  0  0 
  6 11  1  0  0  0  0 
 11 12  1  0  0  0  0 
 12 13  1  0  0  0  0 
 12 14  1  0  0  0  0 
 13 15  1  0  0  0  0 
 15 16  2  0  0  0  0 
 16 17  1  0  0  0  0 
 17 18  3  0  0  0  0 
 18 19  1  0  0  0  0 
 19 20  1  0  0  0  0 
 19 21  1  0  0  0  0 
 19 22  1  0  0  0  0 
  3 23  1  0  0  0  0 
  4 24  1  0  0  0  0 
  5 25  1  0  0  0  0 
  7 26  1  0  0  0  0 
  8 27  1  0  0  0  0 
  9 28  1  0  0  0  0 
 10 29  1  0  0  0  0 
 11 30  1  0  0  0  0 
 11 31  1  0  0  0  0 
 13 32  1  0  0  0  0 
 13 33  1  0  0  0  0 
 14 34  1  0  0  0  0 
 14 35  1  0  0  0  0 
 14 36  1  0  0  0  0 
 15 37  1  0  0  0  0 
 16 38  1  0  0  0  0 
 20 39  1  0  0  0  0 
 20 40  1  0  0  0  0 
 20 41  1  0  0  0  0 
 21 42  1  0  0  0  0 
 21 43  1  0  0  0  0 
 21 44  1  0  0  0  0 
 22 45  1  0  0  0  0 
 22 46  1  0  0  0  0 
 22 47  1  0  0  0  0 
M  END
> <cdk:Title>
terbinafine

> <Conformer>
1

> <SuperDrugID>
SD002336

$$$$
