dihydrotachysterol
  CDK     0628171801

 75 77  0  0  0  0  0  0  0  0999 V2000
    0.4382    4.8369    3.1146 C   0  0  0  0  0  0  0  0  0  0  0  0
    1.8959    5.4066    2.9166 C   0  0  2  0  0  0  0  0  0  0  0  0
    2.9269    4.2777    2.5600 C   0  0  2  0  0  0  0  0  0  0  0  0
    2.5020    5.9602    4.2719 C   0  0  1  0  0  0  0  0  0  0  0  0
    1.9169    6.4200    1.7087 C   0  0  2  0  0  0  0  0  0  0  0  0
    2.5407    3.5805    1.3079 C   0  0  0  0  0  0  0  0  0  0  0  0
    3.1692    3.5521    3.9034 C   0  0  1  0  0  0  0  0  0  0  0  0
    1.5732    6.7797    5.2578 C   0  0  1  0  0  0  0  0  0  0  0  0
    3.1578    4.7018    4.9375 C   0  0  1  0  0  0  0  0  0  0  0  0
    1.7150    5.7261    0.3252 C   0  0  1  0  0  0  0  0  0  0  0  0
    2.1176    2.2927    1.2923 C   0  0  0  0  0  0  0  0  0  0  0  0
    2.6101    4.4670    0.1294 C   0  0  2  0  0  0  0  0  0  0  0  0
    2.1954    7.0651    6.5610 C   0  0  0  0  0  0  0  0  0  0  0  0
    0.9997    8.0909    4.6397 C   0  0  0  0  0  0  0  0  0  0  0  0
    1.6573    1.5711    0.2251 C   0  0  0  0  0  0  0  0  0  0  0  0
    3.1832    7.9569    6.7678 C   0  0  0  0  0  0  0  0  0  0  0  0
    1.7197    0.2250    0.0563 C   0  0  0  0  0  0  0  0  0  0  0  0
    3.7720    8.2685    8.0796 C   0  0  1  0  0  0  0  0  0  0  0  0
    1.1023   -0.4787   -1.1032 C   0  0  1  0  0  0  0  0  0  0  0  0
    2.4102   -0.6806    0.9996 C   0  0  1  0  0  0  0  0  0  0  0  0
    2.6344    8.8365    9.0992 C   0  0  1  0  0  0  0  0  0  0  0  0
    4.6066    7.0117    8.5560 C   0  0  0  0  0  0  0  0  0  0  0  0
    0.2284    0.3373   -2.1026 C   0  0  0  0  0  0  0  0  0  0  0  0
    2.1985   -1.2735   -1.8830 C   0  0  2  0  0  0  0  0  0  0  0  0
    3.5219   -1.5004    0.2888 C   0  0  2  0  0  0  0  0  0  0  0  0
    3.2903    9.3017   10.5312 C   0  0  0  0  0  0  0  0  0  0  0  0
    1.8041   10.1188    8.4926 C   0  0  0  0  0  0  0  0  0  0  0  0
    2.9810   -2.2417   -0.9590 C   0  0  1  0  0  0  0  0  0  0  0  0
    4.0810   -2.4471    1.1965 O   0  0  0  0  0  0  0  0  0  0  0  0
    3.9049    4.7381    2.3486 H   0  0  0  0  0  0  0  0  0  0  0  0
    3.3280    6.6289    4.0027 H   0  0  0  0  0  0  0  0  0  0  0  0
   -0.2798    5.6395    3.2770 H   0  0  0  0  0  0  0  0  0  0  0  0
    0.3840    4.1662    3.9718 H   0  0  0  0  0  0  0  0  0  0  0  0
    0.0980    4.2729    2.2483 H   0  0  0  0  0  0  0  0  0  0  0  0
    2.8758    6.9430    1.6803 H   0  0  0  0  0  0  0  0  0  0  0  0
    1.1430    7.1790    1.8194 H   0  0  0  0  0  0  0  0  0  0  0  0
    2.3665    2.8518    4.1428 H   0  0  0  0  0  0  0  0  0  0  0  0
    4.1193    3.0090    3.9071 H   0  0  0  0  0  0  0  0  0  0  0  0
    0.7029    6.1564    5.4888 H   0  0  0  0  0  0  0  0  0  0  0  0
    4.1816    4.9340    5.2456 H   0  0  0  0  0  0  0  0  0  0  0  0
    2.6083    4.3758    5.8247 H   0  0  0  0  0  0  0  0  0  0  0  0
    0.6661    5.4369    0.2192 H   0  0  0  0  0  0  0  0  0  0  0  0
    1.9329    6.4424   -0.4709 H   0  0  0  0  0  0  0  0  0  0  0  0
    2.0819    1.8291    2.1623 H   0  0  0  0  0  0  0  0  0  0  0  0
    2.3281    3.9820   -0.8051 H   0  0  0  0  0  0  0  0  0  0  0  0
    3.6464    4.7909   -0.0082 H   0  0  0  0  0  0  0  0  0  0  0  0
    1.8492    6.5627    7.3479 H   0  0  0  0  0  0  0  0  0  0  0  0
    0.4387    8.6593    5.3855 H   0  0  0  0  0  0  0  0  0  0  0  0
    0.3054    7.8697    3.8336 H   0  0  0  0  0  0  0  0  0  0  0  0
    1.7981    8.7245    4.2460 H   0  0  0  0  0  0  0  0  0  0  0  0
    1.1962    2.0972   -0.4731 H   0  0  0  0  0  0  0  0  0  0  0  0
    3.5339    8.4490    5.9765 H   0  0  0  0  0  0  0  0  0  0  0  0
    4.5827    9.0167    7.8511 H   0  0  0  0  0  0  0  0  0  0  0  0
    0.4064   -1.2145   -0.6819 H   0  0  0  0  0  0  0  0  0  0  0  0
    2.8905   -0.1732    1.8374 H   0  0  0  0  0  0  0  0  0  0  0  0
    1.6724   -1.3633    1.4321 H   0  0  0  0  0  0  0  0  0  0  0  0
    1.9149    8.0456    9.3212 H   0  0  0  0  0  0  0  0  0  0  0  0
    3.9427    6.1852    8.8184 H   0  0  0  0  0  0  0  0  0  0  0  0
    5.2977    6.6819    7.7754 H   0  0  0  0  0  0  0  0  0  0  0  0
    5.1948    7.2685    9.4381 H   0  0  0  0  0  0  0  0  0  0  0  0
   -0.2406   -0.3332   -2.8251 H   0  0  0  0  0  0  0  0  0  0  0  0
    0.8313    1.0632   -2.6504 H   0  0  0  0  0  0  0  0  0  0  0  0
   -0.5704    0.8623   -1.5757 H   0  0  0  0  0  0  0  0  0  0  0  0
    2.8986   -0.5722   -2.3462 H   0  0  0  0  0  0  0  0  0  0  0  0
    1.7380   -1.8616   -2.6821 H   0  0  0  0  0  0  0  0  0  0  0  0
    4.3217   -0.8210   -0.0206 H   0  0  0  0  0  0  0  0  0  0  0  0
    3.7760    8.4784   11.1127 H   0  0  0  0  0  0  0  0  0  0  0  0
    2.5548    9.7332   11.2573 H   0  0  0  0  0  0  0  0  0  0  0  0
    4.0816   10.0894   10.4510 H   0  0  0  0  0  0  0  0  0  0  0  0
    1.2159    9.9014    7.5672 H   0  0  0  0  0  0  0  0  0  0  0  0
    1.0374   10.5428    9.1895 H   0  0  0  0  0  0  0  0  0  0  0  0
    2.4375   10.9996    8.2185 H   0  0  0  0  0  0  0  0  0  0  0  0
    2.3191   -3.0533   -0.6439 H   0  0  0  0  0  0  0  0  0  0  0  0
    3.8126   -2.6814   -1.5139 H   0  0  0  0  0  0  0  0  0  0  0  0
    4.4184   -1.9127    1.9461 H   0  0  0  0  0  0  0  0  0  0  0  0
  2  1  1  0  0  0  0 
  2  3  1  0  0  0  0 
  4  2  1  0  0  0  0 
  2  5  1  0  0  0  0 
  3  6  1  0  0  0  0 
  3  7  1  0  0  0  0 
  3 30  1  0  0  0  0 
  8  4  1  0  0  0  0 
  4  9  1  0  0  0  0 
  4 31  1  0  0  0  0 
  5 10  1  0  0  0  0 
  6 11  2  0  0  0  0 
  6 12  1  0  0  0  0 
  7  9  1  0  0  0  0 
  8 13  1  0  0  0  0 
  8 14  1  0  0  0  0 
 10 12  1  0  0  0  0 
 11 15  1  0  0  0  0 
 13 16  2  0  0  0  0 
 15 17  2  0  0  0  0 
 18 16  1  0  0  0  0 
 19 17  1  0  0  0  0 
 17 20  1  0  0  0  0 
 18 21  1  0  0  0  0 
 18 22  1  0  0  0  0 
 19 23  1  0  0  0  0 
 19 24  1  0  0  0  0 
 25 20  1  0  0  0  0 
 21 26  1  0  0  0  0 
 21 27  1  0  0  0  0 
 24 28  1  0  0  0  0 
 25 28  1  0  0  0  0 
 25 29  1  0  0  0  0 
  1 32  1  0  0  0  0 
  1 33  1  0  0  0  0 
  1 34  1  0  0  0  0 
  5 35  1  0  0  0  0 
  5 36  1  0  0  0  0 
  7 37  1  0  0  0  0 
  7 38  1  0  0  0  0 
  8 39  1  0  0  0  0 
  9 40  1  0  0  0  0 
  9 41  1  0  0  0  0 
 10 42  1  0  0  0  0 
 10 43  1  0  0  0  0 
 11 44  1  0  0  0  0 
 12 45  1  0  0  0  0 
 12 46  1  0  0  0  0 
 13 47  1  0  0  0  0 
 14 48  1  0  0  0  0 
 14 49  1  0  0  0  0 
 14 50  1  0  0  0  0 
 15 51  1  0  0  0  0 
 16 52  1  0  0  0  0 
 18 53  1  0  0  0  0 
 19 54  1  0  0  0  0 
 20 55  1  0  0  0  0 
 20 56  1  0  0  0  0 
 21 57  1  0  0  0  0 
 22 58  1  0  0  0  0 
 22 59  1  0  0  0  0 
 22 60  1  0  0  0  0 
 23 61  1  0  0  0  0 
 23 62  1  0  0  0  0 
 23 63  1  0  0  0  0 
 24 64  1  0  0  0  0 
 24 65  1  0  0  0  0 
 25 66  1  0  0  0  0 
 26 67  1  0  0  0  0 
 26 68  1  0  0  0  0 
 26 69  1  0  0  0  0 
 27 70  1  0  0  0  0 
 27 71  1  0  0  0  0 
 27 72  1  0  0  0  0 
 28 73  1  0  0  0  0 
 28 74  1  0  0  0  0 
 29 75  1  0  0  0  0 
M  END
> <cdk:Title>
dihydrotachysterol

> <Conformer>
1

> <SuperDrugID>
SD002561

$$$$
