veralipride
  CDK     0628171801

 51 52  0  0  0  0  0  0  0  0999 V2000
   -2.9894    0.7909    3.1221 C   0  0  0  0  0  0  0  0  0  0  0  0
   -3.0888   -0.3233    3.9097 N   0  0  0  0  0  0  0  0  0  0  0  0
   -3.4637    1.8798    3.5261 O   0  0  0  0  0  0  0  0  0  0  0  0
   -2.3350    0.7425    1.8592 C   0  0  0  0  0  0  0  0  0  0  0  0
   -3.7218   -0.3939    5.1894 C   0  0  2  0  0  0  0  0  0  0  0  0
   -2.7277    1.5809    0.7787 C   0  0  0  0  0  0  0  0  0  0  0  0
   -1.2459   -0.1404    1.6598 C   0  0  0  0  0  0  0  0  0  0  0  0
   -5.2776   -0.3489    5.1292 C   0  0  1  0  0  0  0  0  0  0  0  0
   -3.8313    2.3933    0.8695 O   0  0  0  0  0  0  0  0  0  0  0  0
   -1.9814    1.6004   -0.4227 C   0  0  0  0  0  0  0  0  0  0  0  0
   -0.5391   -0.1666    0.4426 C   0  0  0  0  0  0  0  0  0  0  0  0
   -5.8828   -1.5074    4.3967 N   0  0  2  0  0  0  0  0  0  0  0  0
   -5.9147   -0.3805    6.5392 C   0  0  2  0  0  0  0  0  0  0  0  0
   -5.0153    1.7995    0.3028 C   0  0  0  0  0  0  0  0  0  0  0  0
   -2.3047    2.4559   -1.4438 O   0  0  0  0  0  0  0  0  0  0  0  0
   -0.9053    0.7123   -0.5923 C   0  0  0  0  0  0  0  0  0  0  0  0
    0.8177   -1.2749    0.2029 S   0  0  1  0  0  0  0  0  0  0  0  0
   -6.1309   -1.2937    2.9358 C   0  0  1  0  0  0  0  0  0  0  0  0
   -7.0666   -1.9719    5.1763 C   0  0  2  0  0  0  0  0  0  0  0  0
   -7.3172   -0.9342    6.2784 C   0  0  2  0  0  0  0  0  0  0  0  0
   -1.7341    3.7677   -1.2705 C   0  0  0  0  0  0  0  0  0  0  0  0
    0.5071   -2.2515   -1.2226 N   0  0  2  0  0  0  0  0  0  0  0  0
    2.1707   -0.4492   -0.0421 O   0  0  0  0  0  0  0  0  0  0  0  0
    1.0165   -2.2584    1.4544 O   0  0  0  0  0  0  0  0  0  0  0  0
   -6.5415   -2.5171    2.2611 C   0  0  0  0  0  0  0  0  0  0  0  0
   -7.7198   -2.6689    1.6416 C   0  0  0  0  0  0  0  0  0  0  0  0
   -2.7117   -1.1505    3.5670 H   0  0  0  0  0  0  0  0  0  0  0  0
   -3.3472    0.4210    5.8155 H   0  0  0  0  0  0  0  0  0  0  0  0
   -3.4101   -1.3312    5.6562 H   0  0  0  0  0  0  0  0  0  0  0  0
   -0.9506   -0.7662    2.4125 H   0  0  0  0  0  0  0  0  0  0  0  0
   -5.5801    0.5971    4.6650 H   0  0  0  0  0  0  0  0  0  0  0  0
   -5.9580    0.6127    6.9950 H   0  0  0  0  0  0  0  0  0  0  0  0
   -5.3693   -1.0586    7.2023 H   0  0  0  0  0  0  0  0  0  0  0  0
   -5.8514    2.4808    0.4557 H   0  0  0  0  0  0  0  0  0  0  0  0
   -4.9059    1.6430   -0.7723 H   0  0  0  0  0  0  0  0  0  0  0  0
   -5.2596    0.8499    0.7820 H   0  0  0  0  0  0  0  0  0  0  0  0
   -0.3872    0.7113   -1.4740 H   0  0  0  0  0  0  0  0  0  0  0  0
   -6.8630   -0.4898    2.7969 H   0  0  0  0  0  0  0  0  0  0  0  0
   -5.2061   -0.9742    2.4559 H   0  0  0  0  0  0  0  0  0  0  0  0
   -6.8204   -2.9371    5.6252 H   0  0  0  0  0  0  0  0  0  0  0  0
   -7.9706   -2.1018    4.5752 H   0  0  0  0  0  0  0  0  0  0  0  0
   -7.9761   -0.1408    5.9112 H   0  0  0  0  0  0  0  0  0  0  0  0
   -7.7546   -1.3843    7.1716 H   0  0  0  0  0  0  0  0  0  0  0  0
   -2.0399    4.3826   -2.1178 H   0  0  0  0  0  0  0  0  0  0  0  0
   -2.0983    4.2477   -0.3572 H   0  0  0  0  0  0  0  0  0  0  0  0
   -0.6404    3.7342   -1.2501 H   0  0  0  0  0  0  0  0  0  0  0  0
    1.3201   -2.8559   -1.3545 H   0  0  0  0  0  0  0  0  0  0  0  0
    0.4785   -1.6055   -2.0140 H   0  0  0  0  0  0  0  0  0  0  0  0
   -5.9108   -3.2864    2.2660 H   0  0  0  0  0  0  0  0  0  0  0  0
   -7.9481   -3.5275    1.1989 H   0  0  0  0  0  0  0  0  0  0  0  0
   -8.3886   -1.9366    1.6168 H   0  0  0  0  0  0  0  0  0  0  0  0
  1  2  1  0  0  0  0 
  1  3  2  0  0  0  0 
  1  4  1  0  0  0  0 
  2  5  1  0  0  0  0 
  4  6  2  0  0  0  0 
  4  7  1  0  0  0  0 
  8  5  1  0  0  0  0 
  6  9  1  0  0  0  0 
  6 10  1  0  0  0  0 
  7 11  2  0  0  0  0 
  8 12  1  0  0  0  0 
  8 13  1  0  0  0  0 
  9 14  1  0  0  0  0 
 10 15  1  0  0  0  0 
 10 16  2  0  0  0  0 
 11 16  1  0  0  0  0 
 11 17  1  0  0  0  0 
 12 18  1  0  0  0  0 
 12 19  1  0  0  0  0 
 13 20  1  0  0  0  0 
 15 21  1  0  0  0  0 
 17 22  1  0  0  0  0 
 17 23  2  0  0  0  0 
 17 24  2  0  0  0  0 
 18 25  1  0  0  0  0 
 19 20  1  0  0  0  0 
 25 26  2  0  0  0  0 
  2 27  1  0  0  0  0 
  5 28  1  0  0  0  0 
  5 29  1  0  0  0  0 
  7 30  1  0  0  0  0 
  8 31  1  0  0  0  0 
 13 32  1  0  0  0  0 
 13 33  1  0  0  0  0 
 14 34  1  0  0  0  0 
 14 35  1  0  0  0  0 
 14 36  1  0  0  0  0 
 16 37  1  0  0  0  0 
 18 38  1  0  0  0  0 
 18 39  1  0  0  0  0 
 19 40  1  0  0  0  0 
 19 41  1  0  0  0  0 
 20 42  1  0  0  0  0 
 20 43  1  0  0  0  0 
 21 44  1  0  0  0  0 
 21 45  1  0  0  0  0 
 21 46  1  0  0  0  0 
 22 47  1  0  0  0  0 
 22 48  1  0  0  0  0 
 25 49  1  0  0  0  0 
 26 50  1  0  0  0  0 
 26 51  1  0  0  0  0 
M  END
> <cdk:Title>
veralipride

> <Conformer>
1

> <SuperDrugID>
SD002539

$$$$
