terfenadine
  CDK     0628171801

 76 79  0  0  0  0  0  0  0  0999 V2000
   -9.6812   -0.9823    0.7928 C   0  0  0  0  0  0  0  0  0  0  0  0
  -10.7255   -1.7036    1.3945 C   0  0  0  0  0  0  0  0  0  0  0  0
  -10.6526   -2.0257    2.7579 C   0  0  0  0  0  0  0  0  0  0  0  0
   -9.5280   -1.6412    3.5105 C   0  0  0  0  0  0  0  0  0  0  0  0
   -8.4310   -0.9522    2.9232 C   0  0  0  0  0  0  0  0  0  0  0  0
   -8.5561   -0.6056    1.5497 C   0  0  0  0  0  0  0  0  0  0  0  0
   -7.2055   -0.6091    3.7495 C   0  0  1  0  0  0  0  0  0  0  0  0
   -5.8085   -0.6725    2.9966 C   0  0  2  0  0  0  0  0  0  0  0  0
   -7.4200    0.7374    4.4051 C   0  0  0  0  0  0  0  0  0  0  0  0
   -7.0828   -1.6267    4.7603 O   0  0  0  0  0  0  0  0  0  0  0  0
   -7.5253    1.9180    3.6227 C   0  0  0  0  0  0  0  0  0  0  0  0
   -7.6484    3.1877    4.2175 C   0  0  0  0  0  0  0  0  0  0  0  0
   -7.6718    3.3101    5.6161 C   0  0  0  0  0  0  0  0  0  0  0  0
   -7.5966    2.1596    6.4168 C   0  0  0  0  0  0  0  0  0  0  0  0
   -7.4816    0.8920    5.8179 C   0  0  0  0  0  0  0  0  0  0  0  0
   -5.5571   -2.0532    2.2916 C   0  0  2  0  0  0  0  0  0  0  0  0
   -4.1276   -2.1649    1.7125 C   0  0  2  0  0  0  0  0  0  0  0  0
   -3.0720   -1.9182    2.7448 N   0  0  1  0  0  0  0  0  0  0  0  0
   -3.2120   -0.5346    3.2945 C   0  0  2  0  0  0  0  0  0  0  0  0
   -4.6047   -0.2802    3.9296 C   0  0  1  0  0  0  0  0  0  0  0  0
   -2.8801   -2.9579    3.8136 C   0  0  2  0  0  0  0  0  0  0  0  0
   -2.6988   -4.4237    3.3499 C   0  0  1  0  0  0  0  0  0  0  0  0
   -1.4937   -4.6682    2.3974 C   0  0  1  0  0  0  0  0  0  0  0  0
   -1.4669   -6.1098    1.8108 C   0  0  2  0  0  0  0  0  0  0  0  0
   -1.4974   -7.1473    2.8787 C   0  0  0  0  0  0  0  0  0  0  0  0
   -0.3491   -7.4573    3.6391 C   0  0  0  0  0  0  0  0  0  0  0  0
   -0.4268   -8.3607    4.7136 C   0  0  0  0  0  0  0  0  0  0  0  0
   -1.6535   -8.9656    5.1047 C   0  0  0  0  0  0  0  0  0  0  0  0
   -2.7871   -8.6662    4.3028 C   0  0  0  0  0  0  0  0  0  0  0  0
   -2.7098   -7.7906    3.2077 C   0  0  0  0  0  0  0  0  0  0  0  0
   -2.3358   -6.2198    1.1555 H   0  0  0  0  0  0  0  0  0  0  0  0
   -0.3250   -6.2718    0.9728 O   0  0  0  0  0  0  0  0  0  0  0  0
   -1.7099   -9.8850    6.3183 C   0  0  1  0  0  0  0  0  0  0  0  0
   -0.8535  -11.1624    6.0226 C   0  0  0  0  0  0  0  0  0  0  0  0
   -1.1508   -9.1441    7.5831 C   0  0  0  0  0  0  0  0  0  0  0  0
   -3.1551  -10.3671    6.7087 C   0  0  0  0  0  0  0  0  0  0  0  0
   -9.7386   -0.7357   -0.1992 H   0  0  0  0  0  0  0  0  0  0  0  0
  -11.5361   -1.9899    0.8423 H   0  0  0  0  0  0  0  0  0  0  0  0
  -11.4147   -2.5439    3.2020 H   0  0  0  0  0  0  0  0  0  0  0  0
   -9.5198   -1.8843    4.5025 H   0  0  0  0  0  0  0  0  0  0  0  0
   -7.8230   -0.0792    1.0737 H   0  0  0  0  0  0  0  0  0  0  0  0
   -5.8084    0.0767    2.1984 H   0  0  0  0  0  0  0  0  0  0  0  0
   -7.1257   -2.4840    4.2891 H   0  0  0  0  0  0  0  0  0  0  0  0
   -7.4981    1.8681    2.6042 H   0  0  0  0  0  0  0  0  0  0  0  0
   -7.7129    4.0249    3.6330 H   0  0  0  0  0  0  0  0  0  0  0  0
   -7.7432    4.2334    6.0507 H   0  0  0  0  0  0  0  0  0  0  0  0
   -7.6188    2.2454    7.4362 H   0  0  0  0  0  0  0  0  0  0  0  0
   -7.4278    0.0843    6.4398 H   0  0  0  0  0  0  0  0  0  0  0  0
   -6.2603   -2.1863    1.4661 H   0  0  0  0  0  0  0  0  0  0  0  0
   -5.7088   -2.8846    2.9814 H   0  0  0  0  0  0  0  0  0  0  0  0
   -4.0183   -1.4305    0.9085 H   0  0  0  0  0  0  0  0  0  0  0  0
   -3.9968   -3.1387    1.2400 H   0  0  0  0  0  0  0  0  0  0  0  0
   -3.0505    0.1834    2.4860 H   0  0  0  0  0  0  0  0  0  0  0  0
   -2.4325   -0.3379    4.0349 H   0  0  0  0  0  0  0  0  0  0  0  0
   -4.6637    0.7825    4.1758 H   0  0  0  0  0  0  0  0  0  0  0  0
   -4.6630   -0.8255    4.8732 H   0  0  0  0  0  0  0  0  0  0  0  0
   -3.7243   -2.9527    4.5060 H   0  0  0  0  0  0  0  0  0  0  0  0
   -1.9895   -2.6964    4.3915 H   0  0  0  0  0  0  0  0  0  0  0  0
   -2.5589   -5.0255    4.2538 H   0  0  0  0  0  0  0  0  0  0  0  0
   -3.6211   -4.7726    2.8796 H   0  0  0  0  0  0  0  0  0  0  0  0
   -1.5449   -3.9663    1.5613 H   0  0  0  0  0  0  0  0  0  0  0  0
   -0.5634   -4.4702    2.9383 H   0  0  0  0  0  0  0  0  0  0  0  0
    0.5477   -7.0149    3.4212 H   0  0  0  0  0  0  0  0  0  0  0  0
    0.4380   -8.5582    5.2216 H   0  0  0  0  0  0  0  0  0  0  0  0
   -3.7025   -9.0714    4.5012 H   0  0  0  0  0  0  0  0  0  0  0  0
   -3.5596   -7.6028    2.6684 H   0  0  0  0  0  0  0  0  0  0  0  0
   -0.4177   -7.1712    0.5936 H   0  0  0  0  0  0  0  0  0  0  0  0
   -0.9249  -11.8518    6.8666 H   0  0  0  0  0  0  0  0  0  0  0  0
    0.2434  -10.8818    5.9549 H   0  0  0  0  0  0  0  0  0  0  0  0
   -1.3054  -11.7045    5.1333 H   0  0  0  0  0  0  0  0  0  0  0  0
   -1.2065   -9.7847    8.4657 H   0  0  0  0  0  0  0  0  0  0  0  0
   -1.7266   -8.2371    7.7840 H   0  0  0  0  0  0  0  0  0  0  0  0
   -0.1049   -8.8588    7.4653 H   0  0  0  0  0  0  0  0  0  0  0  0
   -3.1348  -10.9956    7.6029 H   0  0  0  0  0  0  0  0  0  0  0  0
   -3.8079   -9.5159    6.9205 H   0  0  0  0  0  0  0  0  0  0  0  0
   -3.6100  -10.9575    5.9101 H   0  0  0  0  0  0  0  0  0  0  0  0
  1  2  2  0  0  0  0 
  2  3  1  0  0  0  0 
  3  4  2  0  0  0  0 
  4  5  1  0  0  0  0 
  5  6  2  0  0  0  0 
  1  6  1  0  0  0  0 
  5  7  1  0  0  0  0 
  7  8  1  0  0  0  0 
  7  9  1  0  0  0  0 
  7 10  1  0  0  0  0 
  9 11  2  0  0  0  0 
 11 12  1  0  0  0  0 
 12 13  2  0  0  0  0 
 13 14  1  0  0  0  0 
 14 15  2  0  0  0  0 
  9 15  1  0  0  0  0 
  8 16  1  0  0  0  0 
 16 17  1  0  0  0  0 
 17 18  1  0  0  0  0 
 18 19  1  0  0  0  0 
 19 20  1  0  0  0  0 
 20  8  1  0  0  0  0 
 18 21  1  0  0  0  0 
 21 22  1  0  0  0  0 
 22 23  1  0  0  0  0 
 24 23  1  0  0  0  0 
 24 25  1  0  0  0  0 
 25 26  2  0  0  0  0 
 26 27  1  0  0  0  0 
 27 28  2  0  0  0  0 
 28 29  1  0  0  0  0 
 29 30  2  0  0  0  0 
 30 25  1  0  0  0  0 
 28 33  1  0  0  0  0 
 33 34  1  0  0  0  0 
 33 35  1  0  0  0  0 
 36 33  1  0  0  0  0 
 24 32  1  0  0  0  0 
 24 31  1  0  0  0  0 
  1 37  1  0  0  0  0 
  2 38  1  0  0  0  0 
  3 39  1  0  0  0  0 
  4 40  1  0  0  0  0 
  6 41  1  0  0  0  0 
  8 42  1  0  0  0  0 
 10 43  1  0  0  0  0 
 11 44  1  0  0  0  0 
 12 45  1  0  0  0  0 
 13 46  1  0  0  0  0 
 14 47  1  0  0  0  0 
 15 48  1  0  0  0  0 
 16 49  1  0  0  0  0 
 16 50  1  0  0  0  0 
 17 51  1  0  0  0  0 
 17 52  1  0  0  0  0 
 19 53  1  0  0  0  0 
 19 54  1  0  0  0  0 
 20 55  1  0  0  0  0 
 20 56  1  0  0  0  0 
 21 57  1  0  0  0  0 
 21 58  1  0  0  0  0 
 22 59  1  0  0  0  0 
 22 60  1  0  0  0  0 
 23 61  1  0  0  0  0 
 23 62  1  0  0  0  0 
 26 63  1  0  0  0  0 
 27 64  1  0  0  0  0 
 29 65  1  0  0  0  0 
 30 66  1  0  0  0  0 
 32 67  1  0  0  0  0 
 34 68  1  0  0  0  0 
 34 69  1  0  0  0  0 
 34 70  1  0  0  0  0 
 35 71  1  0  0  0  0 
 35 72  1  0  0  0  0 
 35 73  1  0  0  0  0 
 36 74  1  0  0  0  0 
 36 75  1  0  0  0  0 
 36 76  1  0  0  0  0 
M  END
> <cdk:Title>
terfenadine

> <Conformer>
1

> <SuperDrugID>
SD002339

$$$$
