miglitol
  CDK     0628171801

 31 31  0  0  0  0  0  0  0  0999 V2000
   -1.3473    1.4980   -1.8118 C   0  0  2  0  0  0  0  0  0  0  0  0
   -0.8557    2.7762   -1.0846 C   0  0  2  0  0  0  0  0  0  0  0  0
   -0.9649    1.3561   -3.2656 N   0  0  1  0  0  0  0  0  0  0  0  0
    0.5512    2.9360   -1.2303 O   0  0  0  0  0  0  0  0  0  0  0  0
   -1.2593   -0.0184   -3.8488 C   0  0  2  0  0  0  0  0  0  0  0  0
   -1.5354    2.4828   -4.0822 C   0  0  1  0  0  0  0  0  0  0  0  0
   -0.4910   -1.1738   -3.1278 C   0  0  1  0  0  0  0  0  0  0  0  0
   -0.9549   -0.1009   -5.3869 C   0  0  1  0  0  0  0  0  0  0  0  0
   -1.1661    2.4165   -5.5817 C   0  0  1  0  0  0  0  0  0  0  0  0
    0.9062   -0.9042   -3.0612 O   0  0  0  0  0  0  0  0  0  0  0  0
   -1.4482   -1.3161   -5.9587 O   0  0  0  0  0  0  0  0  0  0  0  0
   -1.5990    1.0617   -6.1797 C   0  0  1  0  0  0  0  0  0  0  0  0
   -1.8072    3.4855   -6.2776 O   0  0  0  0  0  0  0  0  0  0  0  0
   -1.2057    1.0051   -7.5526 O   0  0  0  0  0  0  0  0  0  0  0  0
   -2.4337    1.4367   -1.7071 H   0  0  0  0  0  0  0  0  0  0  0  0
   -0.9226    0.6829   -1.2309 H   0  0  0  0  0  0  0  0  0  0  0  0
   -1.0829    2.6987   -0.0187 H   0  0  0  0  0  0  0  0  0  0  0  0
   -1.3634    3.6638   -1.4617 H   0  0  0  0  0  0  0  0  0  0  0  0
    0.7072    3.0127   -2.1951 H   0  0  0  0  0  0  0  0  0  0  0  0
   -2.3289   -0.2151   -3.7251 H   0  0  0  0  0  0  0  0  0  0  0  0
   -2.6252    2.5058   -3.9839 H   0  0  0  0  0  0  0  0  0  0  0  0
   -1.1456    3.4380   -3.7269 H   0  0  0  0  0  0  0  0  0  0  0  0
   -0.8681   -1.3302   -2.1168 H   0  0  0  0  0  0  0  0  0  0  0  0
   -0.6311   -2.1251   -3.6434 H   0  0  0  0  0  0  0  0  0  0  0  0
    0.1264   -0.0680   -5.5521 H   0  0  0  0  0  0  0  0  0  0  0  0
   -0.0842    2.5398   -5.6943 H   0  0  0  0  0  0  0  0  0  0  0  0
    1.2994   -1.7081   -2.6567 H   0  0  0  0  0  0  0  0  0  0  0  0
   -0.8531   -2.0215   -5.6309 H   0  0  0  0  0  0  0  0  0  0  0  0
   -2.6895    0.9735   -6.1395 H   0  0  0  0  0  0  0  0  0  0  0  0
   -1.4947    3.4094   -7.2038 H   0  0  0  0  0  0  0  0  0  0  0  0
   -1.5603    0.1539   -7.8836 H   0  0  0  0  0  0  0  0  0  0  0  0
  1  2  1  0  0  0  0 
  1  3  1  0  0  0  0 
  2  4  1  0  0  0  0 
  5  3  1  0  0  0  0 
  3  6  1  0  0  0  0 
  5  7  1  0  0  0  0 
  8  5  1  0  0  0  0 
  9  6  1  0  0  0  0 
  7 10  1  0  0  0  0 
  8 11  1  0  0  0  0 
 12  8  1  0  0  0  0 
 12  9  1  0  0  0  0 
  9 13  1  0  0  0  0 
 12 14  1  0  0  0  0 
  1 15  1  0  0  0  0 
  1 16  1  0  0  0  0 
  2 17  1  0  0  0  0 
  2 18  1  0  0  0  0 
  4 19  1  0  0  0  0 
  5 20  1  0  0  0  0 
  6 21  1  0  0  0  0 
  6 22  1  0  0  0  0 
  7 23  1  0  0  0  0 
  7 24  1  0  0  0  0 
  8 25  1  0  0  0  0 
  9 26  1  0  0  0  0 
 10 27  1  0  0  0  0 
 11 28  1  0  0  0  0 
 12 29  1  0  0  0  0 
 13 30  1  0  0  0  0 
 14 31  1  0  0  0  0 
M  END
> <cdk:Title>
miglitol

> <Conformer>
1

> <SuperDrugID>
SD001605

$$$$
