beclamide
  CDK     0628171801

 25 25  0  0  0  0  0  0  0  0999 V2000
   -0.6514   -1.5013    0.0451 C   0  0  1  0  0  0  0  0  0  0  0  0
   -0.6711   -1.8161   -1.3486 N   0  0  0  0  0  0  0  0  0  0  0  0
   -0.8774   -0.0602    0.3383 C   0  0  0  0  0  0  0  0  0  0  0  0
    0.2640   -1.4243   -2.2579 C   0  0  0  0  0  0  0  0  0  0  0  0
   -2.1537    0.5210    0.1452 C   0  0  0  0  0  0  0  0  0  0  0  0
    0.1702    0.7537    0.8328 C   0  0  0  0  0  0  0  0  0  0  0  0
    0.2002   -1.9255   -3.6479 C   0  0  1  0  0  0  0  0  0  0  0  0
    1.2082   -0.6674   -1.9272 O   0  0  0  0  0  0  0  0  0  0  0  0
   -2.3824    1.8727    0.4687 C   0  0  0  0  0  0  0  0  0  0  0  0
   -0.0518    2.1116    1.1275 C   0  0  0  0  0  0  0  0  0  0  0  0
   -1.1412   -1.6310   -4.3579 C   0  0  2  0  0  0  0  0  0  0  0  0
   -1.3306    2.6696    0.9556 C   0  0  0  0  0  0  0  0  0  0  0  0
   -1.0886   -2.1561   -6.0376 Cl  0  0  0  0  0  0  0  0  0  0  0  0
   -1.4364   -2.0845    0.5315 H   0  0  0  0  0  0  0  0  0  0  0  0
    0.2984   -1.8496    0.4623 H   0  0  0  0  0  0  0  0  0  0  0  0
   -1.3959   -2.3764   -1.6687 H   0  0  0  0  0  0  0  0  0  0  0  0
   -2.9274   -0.0401   -0.2220 H   0  0  0  0  0  0  0  0  0  0  0  0
    1.1044    0.3666    0.9828 H   0  0  0  0  0  0  0  0  0  0  0  0
    1.0119   -1.4833   -4.2317 H   0  0  0  0  0  0  0  0  0  0  0  0
    0.3582   -3.0053   -3.6266 H   0  0  0  0  0  0  0  0  0  0  0  0
   -3.3144    2.2760    0.3521 H   0  0  0  0  0  0  0  0  0  0  0  0
    0.7168    2.6913    1.4722 H   0  0  0  0  0  0  0  0  0  0  0  0
   -1.3596   -0.5625   -4.3353 H   0  0  0  0  0  0  0  0  0  0  0  0
   -1.9553   -2.1661   -3.8679 H   0  0  0  0  0  0  0  0  0  0  0  0
   -1.4933    3.6524    1.1880 H   0  0  0  0  0  0  0  0  0  0  0  0
  1  2  1  0  0  0  0 
  1  3  1  0  0  0  0 
  2  4  1  0  0  0  0 
  3  5  2  0  0  0  0 
  3  6  1  0  0  0  0 
  4  7  1  0  0  0  0 
  4  8  2  0  0  0  0 
  5  9  1  0  0  0  0 
  6 10  2  0  0  0  0 
  7 11  1  0  0  0  0 
  9 12  2  0  0  0  0 
 10 12  1  0  0  0  0 
 11 13  1  0  0  0  0 
  1 14  1  0  0  0  0 
  1 15  1  0  0  0  0 
  2 16  1  0  0  0  0 
  5 17  1  0  0  0  0 
  6 18  1  0  0  0  0 
  7 19  1  0  0  0  0 
  7 20  1  0  0  0  0 
  9 21  1  0  0  0  0 
 10 22  1  0  0  0  0 
 11 23  1  0  0  0  0 
 11 24  1  0  0  0  0 
 12 25  1  0  0  0  0 
M  END
> <cdk:Title>
beclamide

> <Conformer>
1

> <SuperDrugID>
SD000244

$$$$
