angiotensinamide
  CDK     0628171801

144147  0  0  0  0  0  0  0  0999 V2000
   -7.8171   -4.7677   -0.4157 N   0  0  2  0  0  0  0  0  0  0  0  0
   -4.9386   -4.1489    0.1818 N   0  0  0  0  0  0  0  0  0  0  0  0
   -3.8672   -6.5186    1.1952 N   0  0  0  0  0  0  0  0  0  0  0  0
   -2.2907   -8.8055    3.3658 N   0  0  0  0  0  0  0  0  0  0  0  0
   -2.7873  -11.6259    3.9495 N   0  0  0  0  0  0  0  0  0  0  0  0
   -2.9005  -14.1069    6.6030 N   0  0  0  0  0  0  0  0  0  0  0  0
   -2.6027  -11.8588    8.6431 N   0  0  0  0  0  0  0  0  0  0  0  0
   -4.4331   -8.9717    9.0383 N   0  0  0  0  0  0  0  0  0  0  0  0
   -4.9972   -6.3145    6.9681 O   0  0  0  0  0  0  0  0  0  0  0  0
   -5.7005   -3.7303   -0.8638 C   0  0  0  0  0  0  0  0  0  0  0  0
   -7.3781   -2.5088    0.5628 C   0  0  1  0  0  0  0  0  0  0  0  0
   -8.7542   -1.9760    0.6377 C   0  0  0  0  0  0  0  0  0  0  0  0
   -9.1678   -1.0068   -0.1982 N   0  0  0  0  0  0  0  0  0  0  0  0
   -9.5533   -2.3920    1.5068 O   0  0  0  0  0  0  0  0  0  0  0  0
   -7.1445   -3.4779   -0.6362 C   0  0  2  0  0  0  0  0  0  0  0  0
   -5.1952   -3.5134   -1.9914 O   0  0  0  0  0  0  0  0  0  0  0  0
   -3.2720   -5.2926    1.2998 C   0  0  0  0  0  0  0  0  0  0  0  0
   -2.8958   -2.8860    0.4002 C   0  0  2  0  0  0  0  0  0  0  0  0
   -1.3523   -2.7929    0.2650 C   0  0  1  0  0  0  0  0  0  0  0  0
   -0.8673   -1.3199    0.3302 C   0  0  2  0  0  0  0  0  0  0  0  0
    0.5166   -1.2393    0.1899 N   0  0  0  0  0  0  0  0  0  0  0  0
    1.2501   -0.1854    0.1387 C   0  0  0  0  0  0  0  0  0  0  0  0
    0.7785    1.0483    0.2065 N   0  0  0  0  0  0  0  0  0  0  0  0
    2.5481   -0.3446    0.0070 N   0  0  0  0  0  0  0  0  0  0  0  0
   -3.5131   -4.3098    0.2092 C   0  0  2  0  0  0  0  0  0  0  0  0
   -2.6132   -4.9829    2.3210 O   0  0  0  0  0  0  0  0  0  0  0  0
   -2.9277   -8.4908    2.2041 C   0  0  0  0  0  0  0  0  0  0  0  0
   -5.7510   -8.9581    0.8900 C   0  0  0  0  0  0  0  0  0  0  0  0
   -4.0267   -7.4919    2.2401 C   0  0  2  0  0  0  0  0  0  0  0  0
   -5.8092   -8.9399    3.4533 C   0  0  0  0  0  0  0  0  0  0  0  0
   -5.4625   -8.1244    2.1725 C   0  0  2  0  0  0  0  0  0  0  0  0
   -2.6189   -9.0413    1.1207 O   0  0  0  0  0  0  0  0  0  0  0  0
   -1.8033  -10.8180    4.4453 C   0  0  0  0  0  0  0  0  0  0  0  0
    0.0261   -8.9889    4.1022 C   0  0  2  0  0  0  0  0  0  0  0  0
    1.3834   -9.6395    4.2115 C   0  0  0  0  0  0  0  0  0  0  0  0
    2.0801  -10.2596    3.0614 C   0  0  0  0  0  0  0  0  0  0  0  0
    3.4118  -10.8281    3.1264 C   0  0  0  0  0  0  0  0  0  0  0  0
    4.1066  -10.7918    4.3561 C   0  0  0  0  0  0  0  0  0  0  0  0
    5.3575  -11.3150    4.4104 O   0  0  0  0  0  0  0  0  0  0  0  0
    3.5390  -10.2232    5.5182 C   0  0  0  0  0  0  0  0  0  0  0  0
    2.2050   -9.6639    5.4433 C   0  0  0  0  0  0  0  0  0  0  0  0
   -1.2471   -9.7689    3.5543 C   0  0  2  0  0  0  0  0  0  0  0  0
   -1.4081  -10.9331    5.6284 O   0  0  0  0  0  0  0  0  0  0  0  0
   -2.7571  -13.6156    5.3389 C   0  0  0  0  0  0  0  0  0  0  0  0
   -6.0306  -13.5278    4.4201 C   0  0  0  0  0  0  0  0  0  0  0  0
   -3.5965  -12.5736    4.6746 C   0  0  2  0  0  0  0  0  0  0  0  0
   -4.2294  -14.3200    2.8002 C   0  0  0  0  0  0  0  0  0  0  0  0
   -4.7030  -13.1454    3.7053 C   0  0  1  0  0  0  0  0  0  0  0  0
   -1.7981  -14.1065    4.7001 O   0  0  0  0  0  0  0  0  0  0  0  0
   -3.7769  -12.4660    8.2083 C   0  0  0  0  0  0  0  0  0  0  0  0
   -4.0376  -14.9841    8.5720 C   0  0  2  0  0  0  0  0  0  0  0  0
   -5.2149  -14.8656    9.4607 C   0  0  0  0  0  0  0  0  0  0  0  0
   -6.4150  -15.5694    9.3844 C   0  0  0  0  0  0  0  0  0  0  0  0
   -7.2278  -15.1568   10.3715 N   0  0  0  0  0  0  0  0  0  0  0  0
   -6.5503  -14.2140   11.0486 C   0  0  0  0  0  0  0  0  0  0  0  0
   -5.3396  -14.0326   10.5025 N   0  0  0  0  0  0  0  0  0  0  0  0
   -3.9203  -13.8067    7.5602 C   0  0  2  0  0  0  0  0  0  0  0  0
   -4.8649  -11.8573    8.3606 O   0  0  0  0  0  0  0  0  0  0  0  0
   -3.3349   -9.5083    8.4385 C   0  0  0  0  0  0  0  0  0  0  0  0
   -2.5434  -10.5187    9.1878 C   0  0  2  0  0  0  0  0  0  0  0  0
   -1.0381  -10.1730    9.2418 C   0  0  2  0  0  0  0  0  0  0  0  0
   -0.3732  -11.5431    9.4099 C   0  0  2  0  0  0  0  0  0  0  0  0
   -1.3178  -12.4967    8.6557 C   0  0  1  0  0  0  0  0  0  0  0  0
   -3.0606   -9.2515    7.2417 O   0  0  0  0  0  0  0  0  0  0  0  0
   -5.1443   -6.8497    8.2031 C   0  0  0  0  0  0  0  0  0  0  0  0
   -6.8159   -8.5117    9.1381 C   0  0  1  0  0  0  0  0  0  0  0  0
   -8.0263   -8.2520    8.3133 C   0  0  0  0  0  0  0  0  0  0  0  0
   -8.4328   -9.1956    7.3387 C   0  0  0  0  0  0  0  0  0  0  0  0
   -9.5971   -8.9864    6.5777 C   0  0  0  0  0  0  0  0  0  0  0  0
  -10.3622   -7.8227    6.7713 C   0  0  0  0  0  0  0  0  0  0  0  0
   -9.9602   -6.8679    7.7233 C   0  0  0  0  0  0  0  0  0  0  0  0
   -8.7972   -7.0794    8.4880 C   0  0  0  0  0  0  0  0  0  0  0  0
   -5.4845   -8.2802    8.3625 C   0  0  2  0  0  0  0  0  0  0  0  0
   -4.9606   -6.1107    9.1972 O   0  0  0  0  0  0  0  0  0  0  0  0
   -8.8028   -4.5680   -0.2338 H   0  0  0  0  0  0  0  0  0  0  0  0
   -7.4339   -5.1746    0.4406 H   0  0  0  0  0  0  0  0  0  0  0  0
   -5.4063   -4.3132    1.0169 H   0  0  0  0  0  0  0  0  0  0  0  0
   -4.2734   -6.7281    0.3401 H   0  0  0  0  0  0  0  0  0  0  0  0
   -2.5825   -8.3275    4.1580 H   0  0  0  0  0  0  0  0  0  0  0  0
   -2.9965  -11.5142    3.0094 H   0  0  0  0  0  0  0  0  0  0  0  0
   -2.2278  -14.7464    6.8885 H   0  0  0  0  0  0  0  0  0  0  0  0
   -4.5467   -9.1317    9.9886 H   0  0  0  0  0  0  0  0  0  0  0  0
   -5.1354   -6.8667    6.1700 H   0  0  0  0  0  0  0  0  0  0  0  0
   -6.6925   -1.6597    0.4963 H   0  0  0  0  0  0  0  0  0  0  0  0
   -7.1447   -3.0291    1.4960 H   0  0  0  0  0  0  0  0  0  0  0  0
   -8.5670   -0.6583   -0.8748 H   0  0  0  0  0  0  0  0  0  0  0  0
  -10.0671   -0.6505   -0.1215 H   0  0  0  0  0  0  0  0  0  0  0  0
   -7.5723   -3.0384   -1.5414 H   0  0  0  0  0  0  0  0  0  0  0  0
   -3.3258   -2.2265   -0.3592 H   0  0  0  0  0  0  0  0  0  0  0  0
   -3.1983   -2.4917    1.3757 H   0  0  0  0  0  0  0  0  0  0  0  0
   -0.8799   -3.3617    1.0691 H   0  0  0  0  0  0  0  0  0  0  0  0
   -1.0493   -3.2305   -0.6911 H   0  0  0  0  0  0  0  0  0  0  0  0
   -1.1473   -0.8878    1.2937 H   0  0  0  0  0  0  0  0  0  0  0  0
   -1.3485   -0.7435   -0.4668 H   0  0  0  0  0  0  0  0  0  0  0  0
    1.3839    1.8029    0.1290 H   0  0  0  0  0  0  0  0  0  0  0  0
   -0.1684    1.2109    0.3471 H   0  0  0  0  0  0  0  0  0  0  0  0
    2.9289   -1.2374   -0.0205 H   0  0  0  0  0  0  0  0  0  0  0  0
    3.1302    0.4304   -0.0606 H   0  0  0  0  0  0  0  0  0  0  0  0
   -3.1566   -4.7402   -0.7337 H   0  0  0  0  0  0  0  0  0  0  0  0
   -5.4976   -8.3918   -0.0094 H   0  0  0  0  0  0  0  0  0  0  0  0
   -6.8139   -9.2054    0.8344 H   0  0  0  0  0  0  0  0  0  0  0  0
   -5.1832   -9.8896    0.8910 H   0  0  0  0  0  0  0  0  0  0  0  0
   -3.9779   -6.9621    3.1979 H   0  0  0  0  0  0  0  0  0  0  0  0
   -5.8398   -8.2851    4.3253 H   0  0  0  0  0  0  0  0  0  0  0  0
   -6.7868   -9.4165    3.3584 H   0  0  0  0  0  0  0  0  0  0  0  0
   -5.0699   -9.7181    3.6352 H   0  0  0  0  0  0  0  0  0  0  0  0
   -6.1724   -7.2899    2.1499 H   0  0  0  0  0  0  0  0  0  0  0  0
    0.1867   -8.1391    3.4319 H   0  0  0  0  0  0  0  0  0  0  0  0
   -0.2307   -8.5685    5.0797 H   0  0  0  0  0  0  0  0  0  0  0  0
    1.6684  -10.3345    2.0747 H   0  0  0  0  0  0  0  0  0  0  0  0
    3.8413  -11.2453    2.2942 H   0  0  0  0  0  0  0  0  0  0  0  0
    5.6146  -11.2951    5.3579 H   0  0  0  0  0  0  0  0  0  0  0  0
    4.0653  -10.2020    6.3942 H   0  0  0  0  0  0  0  0  0  0  0  0
    1.8994   -9.2583    6.3855 H   0  0  0  0  0  0  0  0  0  0  0  0
   -0.9609  -10.2451    2.6117 H   0  0  0  0  0  0  0  0  0  0  0  0
   -5.9003  -14.4057    5.0504 H   0  0  0  0  0  0  0  0  0  0  0  0
   -6.8038  -13.7584    3.6830 H   0  0  0  0  0  0  0  0  0  0  0  0
   -6.3915  -12.6985    5.0334 H   0  0  0  0  0  0  0  0  0  0  0  0
   -4.1011  -11.9810    5.4408 H   0  0  0  0  0  0  0  0  0  0  0  0
   -4.0404  -15.2165    3.3947 H   0  0  0  0  0  0  0  0  0  0  0  0
   -4.9933  -14.5617    2.0581 H   0  0  0  0  0  0  0  0  0  0  0  0
   -3.3165  -14.0488    2.2669 H   0  0  0  0  0  0  0  0  0  0  0  0
   -4.9870  -12.3356    3.0235 H   0  0  0  0  0  0  0  0  0  0  0  0
   -4.1302  -15.9167    8.0060 H   0  0  0  0  0  0  0  0  0  0  0  0
   -3.1371  -15.0667    9.1838 H   0  0  0  0  0  0  0  0  0  0  0  0
   -6.6499  -16.2781    8.6857 H   0  0  0  0  0  0  0  0  0  0  0  0
   -6.9058  -13.7078   11.8616 H   0  0  0  0  0  0  0  0  0  0  0  0
   -4.6673  -13.4029   10.8100 H   0  0  0  0  0  0  0  0  0  0  0  0
   -4.8667  -13.8178    7.0145 H   0  0  0  0  0  0  0  0  0  0  0  0
   -2.9123  -10.5825   10.2192 H   0  0  0  0  0  0  0  0  0  0  0  0
   -0.8022   -9.5034   10.0731 H   0  0  0  0  0  0  0  0  0  0  0  0
   -0.6864   -9.7189    8.3108 H   0  0  0  0  0  0  0  0  0  0  0  0
   -0.3302  -11.8073   10.4702 H   0  0  0  0  0  0  0  0  0  0  0  0
    0.6394  -11.5588    8.9973 H   0  0  0  0  0  0  0  0  0  0  0  0
   -1.3523  -13.4577    9.1726 H   0  0  0  0  0  0  0  0  0  0  0  0
   -0.9489  -12.6469    7.6387 H   0  0  0  0  0  0  0  0  0  0  0  0
   -6.8265   -7.9073   10.0494 H   0  0  0  0  0  0  0  0  0  0  0  0
   -6.8667   -9.5510    9.4746 H   0  0  0  0  0  0  0  0  0  0  0  0
   -7.8866  -10.0468    7.1817 H   0  0  0  0  0  0  0  0  0  0  0  0
   -9.8897   -9.6824    5.8878 H   0  0  0  0  0  0  0  0  0  0  0  0
  -11.2117   -7.6723    6.2220 H   0  0  0  0  0  0  0  0  0  0  0  0
  -10.5157   -6.0210    7.8615 H   0  0  0  0  0  0  0  0  0  0  0  0
   -8.5177   -6.3716    9.1716 H   0  0  0  0  0  0  0  0  0  0  0  0
   -5.6002   -8.7223    7.3665 H   0  0  0  0  0  0  0  0  0  0  0  0
 10  2  1  0  0  0  0 
 17  3  1  0  0  0  0 
 27  4  1  0  0  0  0 
 33  5  1  0  0  0  0 
 44  6  1  0  0  0  0 
 50  7  1  0  0  0  0 
 59  8  1  0  0  0  0 
 65  9  1  0  0  0  0 
 15  1  1  0  0  0  0 
 15 11  1  0  0  0  0 
 11 12  1  0  0  0  0 
 12 13  1  0  0  0  0 
 12 14  2  0  0  0  0 
 15 10  1  0  0  0  0 
 10 16  2  0  0  0  0 
 25  2  1  0  0  0  0 
 25 18  1  0  0  0  0 
 18 19  1  0  0  0  0 
 19 20  1  0  0  0  0 
 20 21  1  0  0  0  0 
 21 22  2  0  0  0  0 
 22 23  1  0  0  0  0 
 22 24  1  0  0  0  0 
 25 17  1  0  0  0  0 
 17 26  2  0  0  0  0 
 30 31  1  0  0  0  0 
 31 28  1  0  0  0  0 
 29 31  1  0  0  0  0 
 29  3  1  0  0  0  0 
 29 27  1  0  0  0  0 
 27 32  2  0  0  0  0 
 42  4  1  0  0  0  0 
 42 34  1  0  0  0  0 
 34 35  1  0  0  0  0 
 35 36  2  0  0  0  0 
 36 37  1  0  0  0  0 
 37 38  2  0  0  0  0 
 38 39  1  0  0  0  0 
 38 40  1  0  0  0  0 
 40 41  2  0  0  0  0 
 35 41  1  0  0  0  0 
 42 33  1  0  0  0  0 
 33 43  2  0  0  0  0 
 47 48  1  0  0  0  0 
 48 45  1  0  0  0  0 
 46 48  1  0  0  0  0 
 46  5  1  0  0  0  0 
 46 44  1  0  0  0  0 
 44 49  2  0  0  0  0 
 57  6  1  0  0  0  0 
 57 51  1  0  0  0  0 
 51 52  1  0  0  0  0 
 52 53  2  0  0  0  0 
 53 54  1  0  0  0  0 
 54 55  2  0  0  0  0 
 55 56  1  0  0  0  0 
 52 56  1  0  0  0  0 
 57 50  1  0  0  0  0 
 50 58  2  0  0  0  0 
 64 59  2  0  0  0  0 
 60 59  1  0  0  0  0 
 60 61  1  0  0  0  0 
 61 62  1  0  0  0  0 
 62 63  1  0  0  0  0 
 63  7  1  0  0  0  0 
 60  7  1  0  0  0  0 
 73  8  1  0  0  0  0 
 73 66  1  0  0  0  0 
 66 67  1  0  0  0  0 
 67 68  2  0  0  0  0 
 68 69  1  0  0  0  0 
 69 70  2  0  0  0  0 
 70 71  1  0  0  0  0 
 71 72  2  0  0  0  0 
 67 72  1  0  0  0  0 
 73 65  1  0  0  0  0 
 65 74  2  0  0  0  0 
 75  1  1  0  0  0  0 
 76  1  1  0  0  0  0 
 77  2  1  0  0  0  0 
 78  3  1  0  0  0  0 
 79  4  1  0  0  0  0 
 80  5  1  0  0  0  0 
 81  6  1  0  0  0  0 
 82  8  1  0  0  0  0 
 83  9  1  0  0  0  0 
 84 11  1  0  0  0  0 
 85 11  1  0  0  0  0 
 86 13  1  0  0  0  0 
 87 13  1  0  0  0  0 
 15 88  1  0  0  0  0 
 89 18  1  0  0  0  0 
 90 18  1  0  0  0  0 
 91 19  1  0  0  0  0 
 92 19  1  0  0  0  0 
 93 20  1  0  0  0  0 
 94 20  1  0  0  0  0 
 95 23  1  0  0  0  0 
 96 23  1  0  0  0  0 
 97 24  1  0  0  0  0 
 98 24  1  0  0  0  0 
 25 99  1  0  0  0  0 
100 28  1  0  0  0  0 
101 28  1  0  0  0  0 
102 28  1  0  0  0  0 
 29103  1  0  0  0  0 
104 30  1  0  0  0  0 
105 30  1  0  0  0  0 
106 30  1  0  0  0  0 
107 31  1  0  0  0  0 
108 34  1  0  0  0  0 
109 34  1  0  0  0  0 
110 36  1  0  0  0  0 
111 37  1  0  0  0  0 
112 39  1  0  0  0  0 
113 40  1  0  0  0  0 
114 41  1  0  0  0  0 
 42115  1  0  0  0  0 
116 45  1  0  0  0  0 
117 45  1  0  0  0  0 
118 45  1  0  0  0  0 
 46119  1  0  0  0  0 
120 47  1  0  0  0  0 
121 47  1  0  0  0  0 
122 47  1  0  0  0  0 
123 48  1  0  0  0  0 
124 51  1  0  0  0  0 
125 51  1  0  0  0  0 
126 53  1  0  0  0  0 
127 55  1  0  0  0  0 
128 56  1  0  0  0  0 
 57129  1  0  0  0  0 
 60130  1  0  0  0  0 
131 61  1  0  0  0  0 
132 61  1  0  0  0  0 
133 62  1  0  0  0  0 
134 62  1  0  0  0  0 
135 63  1  0  0  0  0 
136 63  1  0  0  0  0 
137 66  1  0  0  0  0 
138 66  1  0  0  0  0 
139 68  1  0  0  0  0 
140 69  1  0  0  0  0 
141 70  1  0  0  0  0 
142 71  1  0  0  0  0 
143 72  1  0  0  0  0 
 73144  1  0  0  0  0 
M  END
> <cdk:Title>
angiotensinamide

> <Conformer>
1

> <SuperDrugID>
SD003508

$$$$
