bietaserpine
  CDK     0628171801

104109  0  0  0  0  0  0  0  0999 V2000
    0.3000    5.3088   -0.1482 C   0  0  1  0  0  0  0  0  0  0  0  0
    1.3078    4.2769    0.4501 C   0  0  2  0  0  0  0  0  0  0  0  0
    2.2984    3.6768   -0.5115 N   0  0  2  0  0  0  0  0  0  0  0  0
    3.4873    4.5367   -0.8332 C   0  0  1  0  0  0  0  0  0  0  0  0
    4.4242    4.7608    0.3782 C   0  0  0  0  0  0  0  0  0  0  0  0
    1.6663    2.9719   -1.6803 C   0  0  1  0  0  0  0  0  0  0  0  0
    2.5327    1.8763   -2.3454 C   0  0  0  0  0  0  0  0  0  0  0  0
   -0.5934    5.8854    0.8364 N   0  0  0  0  0  0  0  0  0  0  0  0
   -1.9298    5.6497    1.0256 C   0  0  0  0  0  0  0  0  0  0  0  0
   -2.8635    4.7057    0.3253 C   0  0  2  0  0  0  0  0  0  0  0  0
   -4.3018    4.7812    0.8043 N   0  0  1  0  0  0  0  0  0  0  0  0
   -4.7656    3.7884    1.8293 C   0  0  2  0  0  0  0  0  0  0  0  0
   -4.3291    2.3241    1.5554 C   0  0  2  0  0  0  0  0  0  0  0  0
   -2.7852    2.2888    1.3770 C   0  0  2  0  0  0  0  0  0  0  0  0
   -2.3729    3.2254    0.1991 C   0  0  1  0  0  0  0  0  0  0  0  0
   -2.3144    0.7948    1.2463 C   0  0  2  0  0  0  0  0  0  0  0  0
   -0.8350    0.6586    1.3153 C   0  0  0  0  0  0  0  0  0  0  0  0
   -0.1214    0.0759    0.3072 O   0  0  0  0  0  0  0  0  0  0  0  0
    1.2822   -0.1998    0.3209 C   0  0  0  0  0  0  0  0  0  0  0  0
   -0.2401    1.0589    2.3444 O   0  0  0  0  0  0  0  0  0  0  0  0
   -2.9845    0.0947    0.0138 C   0  0  2  0  0  0  0  0  0  0  0  0
   -4.5515    0.2198    0.0233 C   0  0  1  0  0  0  0  0  0  0  0  0
   -5.0668    1.6569    0.3506 C   0  0  2  0  0  0  0  0  0  0  0  0
   -5.0604   -0.1114   -1.2837 O   0  0  0  0  0  0  0  0  0  0  0  0
   -5.0072   -1.3416   -1.8692 C   0  0  0  0  0  0  0  0  0  0  0  0
   -5.6416   -2.2768   -1.3280 O   0  0  0  0  0  0  0  0  0  0  0  0
   -4.1752   -1.5436   -3.0035 C   0  0  0  0  0  0  0  0  0  0  0  0
   -3.6009   -0.4443   -3.6873 C   0  0  0  0  0  0  0  0  0  0  0  0
   -2.6439   -0.6330   -4.7046 C   0  0  0  0  0  0  0  0  0  0  0  0
   -2.0944    0.4530   -5.3342 O   0  0  0  0  0  0  0  0  0  0  0  0
   -0.8867    0.9261   -4.7105 C   0  0  0  0  0  0  0  0  0  0  0  0
   -2.2685   -1.9411   -5.0746 C   0  0  0  0  0  0  0  0  0  0  0  0
   -2.8568   -3.0490   -4.4289 C   0  0  0  0  0  0  0  0  0  0  0  0
   -3.8177   -2.8486   -3.4186 C   0  0  0  0  0  0  0  0  0  0  0  0
   -2.4974   -4.3233   -4.7724 O   0  0  0  0  0  0  0  0  0  0  0  0
   -1.3777   -4.8020   -4.0056 C   0  0  0  0  0  0  0  0  0  0  0  0
   -1.3007   -2.1410   -6.0228 O   0  0  0  0  0  0  0  0  0  0  0  0
   -1.8299   -2.2343   -7.3538 C   0  0  0  0  0  0  0  0  0  0  0  0
   -2.5090   -1.2489   -0.2578 O   0  0  0  0  0  0  0  0  0  0  0  0
   -2.6712   -2.2779    0.7302 C   0  0  0  0  0  0  0  0  0  0  0  0
   -2.3340    2.7036    2.2870 H   0  0  0  0  0  0  0  0  0  0  0  0
   -4.5853    1.7476    2.4525 H   0  0  0  0  0  0  0  0  0  0  0  0
   -4.7404    6.1780    1.1326 C   0  0  1  0  0  0  0  0  0  0  0  0
   -3.8546    6.8192    2.2374 C   0  0  1  0  0  0  0  0  0  0  0  0
   -2.4246    6.5906    1.9385 C   0  0  0  0  0  0  0  0  0  0  0  0
   -1.3416    7.3291    2.3900 C   0  0  0  0  0  0  0  0  0  0  0  0
   -0.2282    6.8830    1.6810 C   0  0  0  0  0  0  0  0  0  0  0  0
    1.0191    7.5160    1.8708 C   0  0  0  0  0  0  0  0  0  0  0  0
    1.1232    8.5980    2.7738 C   0  0  0  0  0  0  0  0  0  0  0  0
   -0.0129    9.0149    3.5062 C   0  0  0  0  0  0  0  0  0  0  0  0
   -1.2592    8.3838    3.3171 C   0  0  0  0  0  0  0  0  0  0  0  0
    2.3207    9.2372    2.9580 O   0  0  0  0  0  0  0  0  0  0  0  0
    2.6018   10.2127    1.9367 C   0  0  0  0  0  0  0  0  0  0  0  0
   -2.8886    5.0975   -0.6954 H   0  0  0  0  0  0  0  0  0  0  0  0
    0.8589    6.1131   -0.6325 H   0  0  0  0  0  0  0  0  0  0  0  0
   -0.2701    4.8467   -0.9529 H   0  0  0  0  0  0  0  0  0  0  0  0
    0.7571    3.4543    0.9035 H   0  0  0  0  0  0  0  0  0  0  0  0
    1.8348    4.7396    1.2822 H   0  0  0  0  0  0  0  0  0  0  0  0
    4.0993    4.0669   -1.6052 H   0  0  0  0  0  0  0  0  0  0  0  0
    3.1639    5.5044   -1.2243 H   0  0  0  0  0  0  0  0  0  0  0  0
    4.0228    5.5295    1.0389 H   0  0  0  0  0  0  0  0  0  0  0  0
    4.5468    3.8350    0.9431 H   0  0  0  0  0  0  0  0  0  0  0  0
    5.4058    5.0908    0.0369 H   0  0  0  0  0  0  0  0  0  0  0  0
    0.7525    2.4670   -1.3502 H   0  0  0  0  0  0  0  0  0  0  0  0
    1.3821    3.6938   -2.4496 H   0  0  0  0  0  0  0  0  0  0  0  0
    1.9059    1.2722   -3.0074 H   0  0  0  0  0  0  0  0  0  0  0  0
    2.9827    1.2205   -1.6008 H   0  0  0  0  0  0  0  0  0  0  0  0
    3.3279    2.3128   -2.9461 H   0  0  0  0  0  0  0  0  0  0  0  0
   -5.8580    3.8105    1.8859 H   0  0  0  0  0  0  0  0  0  0  0  0
   -4.3837    4.0706    2.8140 H   0  0  0  0  0  0  0  0  0  0  0  0
   -2.7709    2.8446   -0.7402 H   0  0  0  0  0  0  0  0  0  0  0  0
   -1.3030    3.1647    0.0938 H   0  0  0  0  0  0  0  0  0  0  0  0
   -2.6792    0.2660    2.1320 H   0  0  0  0  0  0  0  0  0  0  0  0
    1.5181   -0.9003    1.1240 H   0  0  0  0  0  0  0  0  0  0  0  0
    1.5698   -0.6478   -0.6305 H   0  0  0  0  0  0  0  0  0  0  0  0
    1.8423    0.7243    0.4675 H   0  0  0  0  0  0  0  0  0  0  0  0
   -2.6441    0.6231   -0.8776 H   0  0  0  0  0  0  0  0  0  0  0  0
   -4.9689   -0.4553    0.7744 H   0  0  0  0  0  0  0  0  0  0  0  0
   -4.9720    2.2897   -0.5353 H   0  0  0  0  0  0  0  0  0  0  0  0
   -6.1350    1.6011    0.5767 H   0  0  0  0  0  0  0  0  0  0  0  0
   -3.8571    0.5136   -3.4359 H   0  0  0  0  0  0  0  0  0  0  0  0
   -0.5191    1.7726   -5.2916 H   0  0  0  0  0  0  0  0  0  0  0  0
   -1.0712    1.2694   -3.6898 H   0  0  0  0  0  0  0  0  0  0  0  0
   -0.1096    0.1575   -4.7012 H   0  0  0  0  0  0  0  0  0  0  0  0
   -4.2224   -3.6708   -2.9623 H   0  0  0  0  0  0  0  0  0  0  0  0
   -1.1740   -5.8273   -4.3136 H   0  0  0  0  0  0  0  0  0  0  0  0
   -0.4808   -4.2045   -4.1920 H   0  0  0  0  0  0  0  0  0  0  0  0
   -1.5952   -4.8060   -2.9336 H   0  0  0  0  0  0  0  0  0  0  0  0
   -1.0049   -2.4475   -8.0330 H   0  0  0  0  0  0  0  0  0  0  0  0
   -2.5577   -3.0448   -7.4378 H   0  0  0  0  0  0  0  0  0  0  0  0
   -2.2900   -1.2924   -7.6600 H   0  0  0  0  0  0  0  0  0  0  0  0
   -2.2628   -3.1997    0.3157 H   0  0  0  0  0  0  0  0  0  0  0  0
   -3.7202   -2.4481    0.9658 H   0  0  0  0  0  0  0  0  0  0  0  0
   -2.1200   -2.0478    1.6411 H   0  0  0  0  0  0  0  0  0  0  0  0
   -4.6685    6.7809    0.2219 H   0  0  0  0  0  0  0  0  0  0  0  0
   -5.7896    6.2091    1.4428 H   0  0  0  0  0  0  0  0  0  0  0  0
   -4.0600    7.8921    2.2659 H   0  0  0  0  0  0  0  0  0  0  0  0
   -4.0932    6.4077    3.2191 H   0  0  0  0  0  0  0  0  0  0  0  0
    1.8440    7.2140    1.3510 H   0  0  0  0  0  0  0  0  0  0  0  0
    0.0660    9.7865    4.1733 H   0  0  0  0  0  0  0  0  0  0  0  0
   -2.0812    8.6956    3.8366 H   0  0  0  0  0  0  0  0  0  0  0  0
    3.5302   10.7190    2.1992 H   0  0  0  0  0  0  0  0  0  0  0  0
    2.7384    9.7394    0.9611 H   0  0  0  0  0  0  0  0  0  0  0  0
    1.8122   10.9656    1.8685 H   0  0  0  0  0  0  0  0  0  0  0  0
  1  2  1  0  0  0  0 
  1  8  1  0  0  0  0 
  2  3  1  0  0  0  0 
  3  4  1  0  0  0  0 
  3  6  1  0  0  0  0 
  4  5  1  0  0  0  0 
  6  7  1  0  0  0  0 
  8  9  1  0  0  0  0 
  8 47  1  0  0  0  0 
 10  9  1  0  0  0  0 
  9 45  2  0  0  0  0 
 10 11  1  0  0  0  0 
 10 15  1  0  0  0  0 
 10 54  1  0  0  0  0 
 11 12  1  0  0  0  0 
 11 43  1  0  0  0  0 
 13 12  1  0  0  0  0 
 13 23  1  0  0  0  0 
 13 42  1  0  0  0  0 
 14 13  1  0  0  0  0 
 14 16  1  0  0  0  0 
 14 41  1  0  0  0  0 
 14 15  1  0  0  0  0 
 16 17  1  0  0  0  0 
 21 16  1  0  0  0  0 
 17 18  1  0  0  0  0 
 17 20  2  0  0  0  0 
 18 19  1  0  0  0  0 
 22 21  1  0  0  0  0 
 21 39  1  0  0  0  0 
 22 24  1  0  0  0  0 
 22 23  1  0  0  0  0 
 24 25  1  0  0  0  0 
 25 26  2  0  0  0  0 
 25 27  1  0  0  0  0 
 27 28  2  0  0  0  0 
 27 34  1  0  0  0  0 
 28 29  1  0  0  0  0 
 29 30  1  0  0  0  0 
 29 32  2  0  0  0  0 
 30 31  1  0  0  0  0 
 32 37  1  0  0  0  0 
 33 32  1  0  0  0  0 
 33 35  1  0  0  0  0 
 34 33  2  0  0  0  0 
 35 36  1  0  0  0  0 
 37 38  1  0  0  0  0 
 39 40  1  0  0  0  0 
 44 43  1  0  0  0  0 
 45 44  1  0  0  0  0 
 45 46  1  0  0  0  0 
 46 51  2  0  0  0  0 
 47 46  1  0  0  0  0 
 47 48  2  0  0  0  0 
 48 49  1  0  0  0  0 
 49 50  2  0  0  0  0 
 49 52  1  0  0  0  0 
 51 50  1  0  0  0  0 
 52 53  1  0  0  0  0 
  1 55  1  0  0  0  0 
  1 56  1  0  0  0  0 
  2 57  1  0  0  0  0 
  2 58  1  0  0  0  0 
  4 59  1  0  0  0  0 
  4 60  1  0  0  0  0 
  5 61  1  0  0  0  0 
  5 62  1  0  0  0  0 
  5 63  1  0  0  0  0 
  6 64  1  0  0  0  0 
  6 65  1  0  0  0  0 
  7 66  1  0  0  0  0 
  7 67  1  0  0  0  0 
  7 68  1  0  0  0  0 
 12 69  1  0  0  0  0 
 12 70  1  0  0  0  0 
 15 71  1  0  0  0  0 
 15 72  1  0  0  0  0 
 16 73  1  0  0  0  0 
 19 74  1  0  0  0  0 
 19 75  1  0  0  0  0 
 19 76  1  0  0  0  0 
 21 77  1  0  0  0  0 
 22 78  1  0  0  0  0 
 23 79  1  0  0  0  0 
 23 80  1  0  0  0  0 
 28 81  1  0  0  0  0 
 31 82  1  0  0  0  0 
 31 83  1  0  0  0  0 
 31 84  1  0  0  0  0 
 34 85  1  0  0  0  0 
 36 86  1  0  0  0  0 
 36 87  1  0  0  0  0 
 36 88  1  0  0  0  0 
 38 89  1  0  0  0  0 
 38 90  1  0  0  0  0 
 38 91  1  0  0  0  0 
 40 92  1  0  0  0  0 
 40 93  1  0  0  0  0 
 40 94  1  0  0  0  0 
 43 95  1  0  0  0  0 
 43 96  1  0  0  0  0 
 44 97  1  0  0  0  0 
 44 98  1  0  0  0  0 
 48 99  1  0  0  0  0 
 50100  1  0  0  0  0 
 51101  1  0  0  0  0 
 53102  1  0  0  0  0 
 53103  1  0  0  0  0 
 53104  1  0  0  0  0 
M  END
> <cdk:Title>
bietaserpine

> <Conformer>
1

> <SuperDrugID>
SD003153

$$$$
