furonazide
  CDK     0628171801

 28 29  0  0  0  0  0  0  0  0999 V2000
    3.7909    1.5923    1.8847 C   0  0  0  0  0  0  0  0  0  0  0  0
    4.8747    1.3296    1.2433 N   0  0  0  0  0  0  0  0  0  0  0  0
    3.7487    2.3844    3.1081 C   0  0  0  0  0  0  0  0  0  0  0  0
    2.6385    1.0755    1.3128 C   0  0  0  0  0  0  0  0  0  0  0  0
    6.0554    1.7093    1.4932 N   0  0  0  0  0  0  0  0  0  0  0  0
    1.3618    0.9517    1.8698 C   0  0  0  0  0  0  0  0  0  0  0  0
    2.5928    0.5987    0.0413 O   0  0  0  0  0  0  0  0  0  0  0  0
    6.6385    2.7534    0.8454 C   0  0  0  0  0  0  0  0  0  0  0  0
    0.5450    0.3847    0.9030 C   0  0  0  0  0  0  0  0  0  0  0  0
    1.3340    0.1843   -0.2201 C   0  0  0  0  0  0  0  0  0  0  0  0
    6.0059    3.3836   -0.0384 O   0  0  0  0  0  0  0  0  0  0  0  0
    7.9748    3.1135    1.1432 C   0  0  0  0  0  0  0  0  0  0  0  0
    8.8336    3.5884    0.1235 C   0  0  0  0  0  0  0  0  0  0  0  0
    8.4878    3.0014    2.4580 C   0  0  0  0  0  0  0  0  0  0  0  0
   10.1676    3.9093    0.4304 C   0  0  0  0  0  0  0  0  0  0  0  0
    9.8266    3.3467    2.7142 C   0  0  0  0  0  0  0  0  0  0  0  0
   10.6199    3.7790    1.7032 N   0  0  0  0  0  0  0  0  0  0  0  0
    4.7382    2.7110    3.4354 H   0  0  0  0  0  0  0  0  0  0  0  0
    3.1390    3.2764    2.9446 H   0  0  0  0  0  0  0  0  0  0  0  0
    3.3134    1.7889    3.9129 H   0  0  0  0  0  0  0  0  0  0  0  0
    6.5682    1.2154    2.1540 H   0  0  0  0  0  0  0  0  0  0  0  0
    1.0682    1.2185    2.8127 H   0  0  0  0  0  0  0  0  0  0  0  0
   -0.4459    0.1584    0.9976 H   0  0  0  0  0  0  0  0  0  0  0  0
    1.0239   -0.2102   -1.1073 H   0  0  0  0  0  0  0  0  0  0  0  0
    8.5055    3.6903   -0.8409 H   0  0  0  0  0  0  0  0  0  0  0  0
    7.8976    2.6803    3.2304 H   0  0  0  0  0  0  0  0  0  0  0  0
   10.7988    4.2382   -0.3003 H   0  0  0  0  0  0  0  0  0  0  0  0
   10.2086    3.2759    3.6583 H   0  0  0  0  0  0  0  0  0  0  0  0
  1  2  2  0  0  0  0 
  1  3  1  0  0  0  0 
  1  4  1  0  0  0  0 
  2  5  1  0  0  0  0 
  4  6  2  0  0  0  0 
  4  7  1  0  0  0  0 
  5  8  1  0  0  0  0 
  6  9  1  0  0  0  0 
  7 10  1  0  0  0  0 
  8 11  2  0  0  0  0 
  8 12  1  0  0  0  0 
  9 10  2  0  0  0  0 
 12 13  2  0  0  0  0 
 12 14  1  0  0  0  0 
 13 15  1  0  0  0  0 
 14 16  2  0  0  0  0 
 15 17  2  0  0  0  0 
 16 17  1  0  0  0  0 
 18  3  1  0  0  0  0 
 19  3  1  0  0  0  0 
 20  3  1  0  0  0  0 
 21  5  1  0  0  0  0 
 22  6  1  0  0  0  0 
 23  9  1  0  0  0  0 
 24 10  1  0  0  0  0 
 25 13  1  0  0  0  0 
 26 14  1  0  0  0  0 
 27 15  1  0  0  0  0 
 28 16  1  0  0  0  0 
M  END
> <cdk:Title>
furonazide

> <Conformer>
1

> <SuperDrugID>
SD002813

$$$$
