loflucarban
  CDK     0628171801

 28 29  0  0  0  0  0  0  0  0999 V2000
   -2.3118   -0.8758    1.1008 N   0  0  0  0  0  0  0  0  0  0  0  0
   -1.5582   -0.9965    0.0086 C   0  0  0  0  0  0  0  0  0  0  0  0
   -1.9734   -1.0530    2.4154 C   0  0  0  0  0  0  0  0  0  0  0  0
   -0.2700   -0.6920   -0.1140 N   0  0  0  0  0  0  0  0  0  0  0  0
   -2.3360   -1.6034   -1.3761 S   0  0  0  0  0  0  0  0  0  0  0  0
   -0.7029   -1.4645    2.8884 C   0  0  0  0  0  0  0  0  0  0  0  0
   -3.0082   -0.8581    3.3569 C   0  0  0  0  0  0  0  0  0  0  0  0
    0.3578    0.4450    0.3136 C   0  0  0  0  0  0  0  0  0  0  0  0
   -0.4713   -1.6601    4.2633 C   0  0  0  0  0  0  0  0  0  0  0  0
   -2.7902   -1.0736    4.7310 C   0  0  0  0  0  0  0  0  0  0  0  0
   -0.3176    1.6464    0.6398 C   0  0  0  0  0  0  0  0  0  0  0  0
    1.7683    0.4213    0.3845 C   0  0  0  0  0  0  0  0  0  0  0  0
    1.0607   -2.1346    4.8056 Cl  0  0  0  0  0  0  0  0  0  0  0  0
   -1.5173   -1.4662    5.1839 C   0  0  0  0  0  0  0  0  0  0  0  0
   -4.0608   -0.8759    5.8309 Cl  0  0  0  0  0  0  0  0  0  0  0  0
    0.4042    2.7993    1.0020 C   0  0  0  0  0  0  0  0  0  0  0  0
    2.4909    1.5719    0.7498 C   0  0  0  0  0  0  0  0  0  0  0  0
    1.8101    2.7655    1.0492 C   0  0  0  0  0  0  0  0  0  0  0  0
    2.4815    3.8373    1.3666 F   0  0  0  0  0  0  0  0  0  0  0  0
   -3.2508   -0.6928    0.9351 H   0  0  0  0  0  0  0  0  0  0  0  0
    0.2778   -1.3416   -0.5837 H   0  0  0  0  0  0  0  0  0  0  0  0
    0.0640   -1.6361    2.2395 H   0  0  0  0  0  0  0  0  0  0  0  0
   -3.9375   -0.5701    3.0391 H   0  0  0  0  0  0  0  0  0  0  0  0
   -1.3371    1.6979    0.5940 H   0  0  0  0  0  0  0  0  0  0  0  0
    2.2830   -0.4349    0.1651 H   0  0  0  0  0  0  0  0  0  0  0  0
   -1.3524   -1.6131    6.1824 H   0  0  0  0  0  0  0  0  0  0  0  0
   -0.0970    3.6638    1.2204 H   0  0  0  0  0  0  0  0  0  0  0  0
    3.5123    1.5393    0.7898 H   0  0  0  0  0  0  0  0  0  0  0  0
  1  2  1  0  0  0  0 
  1  3  1  0  0  0  0 
  2  4  1  0  0  0  0 
  2  5  2  0  0  0  0 
  3  6  2  0  0  0  0 
  3  7  1  0  0  0  0 
  4  8  1  0  0  0  0 
  6  9  1  0  0  0  0 
  7 10  2  0  0  0  0 
  8 11  2  0  0  0  0 
  8 12  1  0  0  0  0 
  9 13  1  0  0  0  0 
  9 14  2  0  0  0  0 
 10 14  1  0  0  0  0 
 10 15  1  0  0  0  0 
 11 16  1  0  0  0  0 
 12 17  2  0  0  0  0 
 16 18  2  0  0  0  0 
 17 18  1  0  0  0  0 
 18 19  1  0  0  0  0 
 20  1  1  0  0  0  0 
 21  4  1  0  0  0  0 
 22  6  1  0  0  0  0 
 23  7  1  0  0  0  0 
 24 11  1  0  0  0  0 
 25 12  1  0  0  0  0 
 26 14  1  0  0  0  0 
 27 16  1  0  0  0  0 
 28 17  1  0  0  0  0 
M  END
> <cdk:Title>
loflucarban

> <Conformer>
1

> <SuperDrugID>
SD002871

$$$$
