triflupromazine
  CDK     0628171801

 43 45  0  0  0  0  0  0  0  0999 V2000
   -1.4141   -1.4249    0.7422 C   0  0  0  0  0  0  0  0  0  0  0  0
    0.0382   -1.0811    0.7464 N   0  0  2  0  0  0  0  0  0  0  0  0
    0.8953   -2.2986    0.8785 C   0  0  0  0  0  0  0  0  0  0  0  0
    0.3647   -0.0051    1.7405 C   0  0  1  0  0  0  0  0  0  0  0  0
    1.7148    0.7283    1.5065 C   0  0  2  0  0  0  0  0  0  0  0  0
    1.9245    1.3250    0.0837 C   0  0  1  0  0  0  0  0  0  0  0  0
    0.8628    2.1871   -0.4244 N   0  0  0  0  0  0  0  0  0  0  0  0
    0.3636    1.9722   -1.7095 C   0  0  0  0  0  0  0  0  0  0  0  0
    1.2235    1.7265   -2.8118 C   0  0  0  0  0  0  0  0  0  0  0  0
    0.7082    1.4717   -4.0964 C   0  0  0  0  0  0  0  0  0  0  0  0
   -0.6814    1.4554   -4.3062 C   0  0  0  0  0  0  0  0  0  0  0  0
   -1.5540    1.7277   -3.2385 C   0  0  0  0  0  0  0  0  0  0  0  0
   -1.0322    2.0092   -1.9608 C   0  0  0  0  0  0  0  0  0  0  0  0
   -2.1170    2.4804   -0.6585 S   0  0  0  0  0  0  0  0  0  0  0  0
   -1.0680    3.4605    0.3611 C   0  0  0  0  0  0  0  0  0  0  0  0
    0.3275    3.2099    0.3622 C   0  0  0  0  0  0  0  0  0  0  0  0
    1.1380    4.0227    1.1955 C   0  0  0  0  0  0  0  0  0  0  0  0
    0.5963    5.0351    2.0257 C   0  0  0  0  0  0  0  0  0  0  0  0
   -0.7996    5.2585    1.9763 C   0  0  0  0  0  0  0  0  0  0  0  0
   -1.6260    4.4819    1.1485 C   0  0  0  0  0  0  0  0  0  0  0  0
    1.4959    5.8181    2.9220 C   0  0  2  0  0  0  0  0  0  0  0  0
    2.4345    6.4905    2.1775 F   0  0  0  0  0  0  0  0  0  0  0  0
    2.1444    4.9688    3.7856 F   0  0  0  0  0  0  0  0  0  0  0  0
    0.8537    6.7561    3.6978 F   0  0  0  0  0  0  0  0  0  0  0  0
   -2.0121   -0.5454    0.4978 H   0  0  0  0  0  0  0  0  0  0  0  0
   -1.6336   -2.1801   -0.0140 H   0  0  0  0  0  0  0  0  0  0  0  0
   -1.7308   -1.8035    1.7174 H   0  0  0  0  0  0  0  0  0  0  0  0
    0.6003   -3.0627    0.1558 H   0  0  0  0  0  0  0  0  0  0  0  0
    1.9400   -2.0507    0.6768 H   0  0  0  0  0  0  0  0  0  0  0  0
    0.8199   -2.7241    1.8832 H   0  0  0  0  0  0  0  0  0  0  0  0
   -0.4154    0.7598    1.7299 H   0  0  0  0  0  0  0  0  0  0  0  0
    0.3722   -0.4261    2.7510 H   0  0  0  0  0  0  0  0  0  0  0  0
    2.5380    0.0404    1.7135 H   0  0  0  0  0  0  0  0  0  0  0  0
    1.7941    1.5269    2.2456 H   0  0  0  0  0  0  0  0  0  0  0  0
    2.8569    1.8951    0.0782 H   0  0  0  0  0  0  0  0  0  0  0  0
    2.0899    0.4679   -0.5767 H   0  0  0  0  0  0  0  0  0  0  0  0
    2.2388    1.7383   -2.6905 H   0  0  0  0  0  0  0  0  0  0  0  0
    1.3455    1.2978   -4.8771 H   0  0  0  0  0  0  0  0  0  0  0  0
   -1.0562    1.2571   -5.2367 H   0  0  0  0  0  0  0  0  0  0  0  0
   -2.5644    1.7328   -3.4006 H   0  0  0  0  0  0  0  0  0  0  0  0
    2.1486    3.8725    1.2062 H   0  0  0  0  0  0  0  0  0  0  0  0
   -1.2324    5.9908    2.5424 H   0  0  0  0  0  0  0  0  0  0  0  0
   -2.6331    4.6658    1.1240 H   0  0  0  0  0  0  0  0  0  0  0  0
  1  2  1  0  0  0  0 
  2  3  1  0  0  0  0 
  2  4  1  0  0  0  0 
  4  5  1  0  0  0  0 
  5  6  1  0  0  0  0 
  6  7  1  0  0  0  0 
  7  8  1  0  0  0  0 
  8  9  2  0  0  0  0 
  9 10  1  0  0  0  0 
 10 11  2  0  0  0  0 
 11 12  1  0  0  0  0 
 12 13  2  0  0  0  0 
  8 13  1  0  0  0  0 
 13 14  1  0  0  0  0 
 14 15  1  0  0  0  0 
 15 16  2  0  0  0  0 
  7 16  1  0  0  0  0 
 16 17  1  0  0  0  0 
 17 18  2  0  0  0  0 
 18 19  1  0  0  0  0 
 19 20  2  0  0  0  0 
 15 20  1  0  0  0  0 
 18 21  1  0  0  0  0 
 21 22  1  0  0  0  0 
 21 23  1  0  0  0  0 
 21 24  1  0  0  0  0 
  1 25  1  0  0  0  0 
  1 26  1  0  0  0  0 
  1 27  1  0  0  0  0 
  3 28  1  0  0  0  0 
  3 29  1  0  0  0  0 
  3 30  1  0  0  0  0 
  4 31  1  0  0  0  0 
  4 32  1  0  0  0  0 
  5 33  1  0  0  0  0 
  5 34  1  0  0  0  0 
  6 35  1  0  0  0  0 
  6 36  1  0  0  0  0 
  9 37  1  0  0  0  0 
 10 38  1  0  0  0  0 
 11 39  1  0  0  0  0 
 12 40  1  0  0  0  0 
 17 41  1  0  0  0  0 
 19 42  1  0  0  0  0 
 20 43  1  0  0  0  0 
M  END
> <cdk:Title>
triflupromazine

> <Conformer>
1

> <SuperDrugID>
SD002472

$$$$
