methylnaltrexone
  CDK     0628171802

 52 57  0  0  0  0  0  0  0  0999 V2000
   -0.2055    3.2063    5.4580 O   0  0  0  0  0  0  0  0  0  0  0  0
   -0.1729    1.8672    4.9628 C   0  0  1  0  0  0  0  0  0  0  0  0
    1.2821    1.3144    5.1270 C   0  0  1  0  0  0  0  0  0  0  0  0
   -1.1031    0.8621    5.7914 C   0  0  1  0  0  0  0  0  0  0  0  0
   -0.5289    2.0618    3.4451 C   0  0  1  0  0  0  0  0  0  0  0  0
    1.3424   -0.0464    4.5916 C   0  0  0  0  0  0  0  0  0  0  0  0
    2.3980    1.9263    4.2131 C   0  0  1  0  0  0  0  0  0  0  0  0
    1.6790    1.3189    6.6442 C   0  0  2  0  0  0  0  0  0  0  0  0
   -1.0616   -0.5484    5.0483 C   0  0  2  0  0  0  0  0  0  0  0  0
   -0.7940    0.8185    7.3173 N   0  0  1  0  0  0  0  0  0  0  0  0
    0.5130    2.9463    2.7069 C   0  0  2  0  0  0  0  0  0  0  0  0
    2.5624   -0.2793    3.9751 C   0  0  0  0  0  0  0  0  0  0  0  0
    0.2860   -0.9792    4.5691 C   0  0  0  0  0  0  0  0  0  0  0  0
    3.3331    0.8425    3.9525 O   0  0  0  0  0  0  0  0  0  0  0  0
    1.9112    2.5054    2.9261 C   0  0  0  0  0  0  0  0  0  0  0  0
    0.6857    0.5045    7.5230 C   0  0  2  0  0  0  0  0  0  0  0  0
   -1.1420    2.1180    8.0696 C   0  0  2  0  0  0  0  0  0  0  0  0
   -1.5874   -0.2738    8.0325 C   0  0  0  0  0  0  0  0  0  0  0  0
    2.8383   -1.5399    3.4186 C   0  0  0  0  0  0  0  0  0  0  0  0
    0.5509   -2.2387    3.9836 C   0  0  0  0  0  0  0  0  0  0  0  0
    2.7471    2.7128    2.0146 O   0  0  0  0  0  0  0  0  0  0  0  0
   -2.6475    2.5184    8.1893 C   0  0  1  0  0  0  0  0  0  0  0  0
    4.0449   -1.8115    2.8662 O   0  0  0  0  0  0  0  0  0  0  0  0
    1.8224   -2.5230    3.4320 C   0  0  0  0  0  0  0  0  0  0  0  0
   -2.9883    4.0180    8.2989 C   0  0  2  0  0  0  0  0  0  0  0  0
   -3.4056    3.2278    7.0538 C   0  0  1  0  0  0  0  0  0  0  0  0
    2.9280    2.7245    4.7393 H   0  0  0  0  0  0  0  0  0  0  0  0
   -2.1310    1.2084    5.6772 H   0  0  0  0  0  0  0  0  0  0  0  0
   -1.1137    3.5249    5.2878 H   0  0  0  0  0  0  0  0  0  0  0  0
   -0.5719    1.1098    2.9151 H   0  0  0  0  0  0  0  0  0  0  0  0
   -1.5175    2.5211    3.3568 H   0  0  0  0  0  0  0  0  0  0  0  0
    1.7159    2.3471    7.0103 H   0  0  0  0  0  0  0  0  0  0  0  0
    2.6817    0.9006    6.7781 H   0  0  0  0  0  0  0  0  0  0  0  0
   -1.7096   -0.4927    4.1688 H   0  0  0  0  0  0  0  0  0  0  0  0
   -1.4949   -1.3458    5.6420 H   0  0  0  0  0  0  0  0  0  0  0  0
    0.4282    3.9833    3.0422 H   0  0  0  0  0  0  0  0  0  0  0  0
    0.2813    2.9290    1.6375 H   0  0  0  0  0  0  0  0  0  0  0  0
    0.9754    0.6426    8.5704 H   0  0  0  0  0  0  0  0  0  0  0  0
    0.8881   -0.5511    7.3104 H   0  0  0  0  0  0  0  0  0  0  0  0
   -0.5662    2.9648    7.7150 H   0  0  0  0  0  0  0  0  0  0  0  0
   -0.8182    2.0308    9.1130 H   0  0  0  0  0  0  0  0  0  0  0  0
   -1.5129   -0.1992    9.1221 H   0  0  0  0  0  0  0  0  0  0  0  0
   -1.2402   -1.2824    7.8034 H   0  0  0  0  0  0  0  0  0  0  0  0
   -2.6483   -0.2303    7.7689 H   0  0  0  0  0  0  0  0  0  0  0  0
   -0.1833   -2.9487    3.9405 H   0  0  0  0  0  0  0  0  0  0  0  0
   -3.2698    1.9095    8.8504 H   0  0  0  0  0  0  0  0  0  0  0  0
    4.6360   -1.0852    3.1541 H   0  0  0  0  0  0  0  0  0  0  0  0
    2.0012   -3.4435    3.0243 H   0  0  0  0  0  0  0  0  0  0  0  0
   -2.1929    4.7438    8.1193 H   0  0  0  0  0  0  0  0  0  0  0  0
   -3.8170    4.2934    8.9553 H   0  0  0  0  0  0  0  0  0  0  0  0
   -2.8558    3.4835    6.1499 H   0  0  0  0  0  0  0  0  0  0  0  0
   -4.4681    2.9882    6.9744 H   0  0  0  0  0  0  0  0  0  0  0  0
  2  1  1  0  0  0  0 
  3  2  1  0  0  0  0 
  2  4  1  0  0  0  0 
  2  5  1  0  0  0  0 
  3  6  1  0  0  0  0 
  7  3  1  0  0  0  0 
  3  8  1  0  0  0  0 
  4  9  1  0  0  0  0 
  4 10  1  0  0  0  0 
  4 28  1  0  0  0  0 
  5 11  1  0  0  0  0 
  6 12  2  0  0  0  0 
  6 13  1  0  0  0  0 
  7 14  1  0  0  0  0 
  7 15  1  0  0  0  0 
  7 27  1  0  0  0  0 
  8 16  1  0  0  0  0 
  9 13  1  0  0  0  0 
 10 16  1  0  0  0  0 
 10 17  1  0  0  0  0 
 10 18  1  0  0  0  0 
 11 15  1  0  0  0  0 
 12 14  1  0  0  0  0 
 12 19  1  0  0  0  0 
 13 20  2  0  0  0  0 
 15 21  2  0  0  0  0 
 17 22  1  0  0  0  0 
 19 23  1  0  0  0  0 
 19 24  2  0  0  0  0 
 20 24  1  0  0  0  0 
 22 25  1  0  0  0  0 
 22 26  1  0  0  0  0 
 25 26  1  0  0  0  0 
  1 29  1  0  0  0  0 
  5 30  1  0  0  0  0 
  5 31  1  0  0  0  0 
  8 32  1  0  0  0  0 
  8 33  1  0  0  0  0 
  9 34  1  0  0  0  0 
  9 35  1  0  0  0  0 
 11 36  1  0  0  0  0 
 11 37  1  0  0  0  0 
 16 38  1  0  0  0  0 
 16 39  1  0  0  0  0 
 17 40  1  0  0  0  0 
 17 41  1  0  0  0  0 
 18 42  1  0  0  0  0 
 18 43  1  0  0  0  0 
 18 44  1  0  0  0  0 
 20 45  1  0  0  0  0 
 22 46  1  0  0  0  0 
 23 47  1  0  0  0  0 
 24 48  1  0  0  0  0 
 25 49  1  0  0  0  0 
 25 50  1  0  0  0  0 
 26 51  1  0  0  0  0 
 26 52  1  0  0  0  0 
M  CHG  1  10   1
M  END
> <cdk:Title>
methylnaltrexone

> <Conformer>
1

> <SuperDrugID>
SD003660

$$$$
