pentetrazol
  CDK     0628171801

 20 21  0  0  0  0  0  0  0  0999 V2000
   -1.8137    4.1082    0.0117 C   0  0  1  0  0  0  0  0  0  0  0  0
   -2.3105    2.7977   -0.6580 C   0  0  1  0  0  0  0  0  0  0  0  0
   -1.8204    1.4928    0.0228 C   0  0  1  0  0  0  0  0  0  0  0  0
   -0.4332    1.2368   -0.2123 N   0  0  0  0  0  0  0  0  0  0  0  0
    0.0421    0.1682   -0.7644 N   0  0  0  0  0  0  0  0  0  0  0  0
    1.3326    0.2582   -0.8214 N   0  0  0  0  0  0  0  0  0  0  0  0
    1.7169    1.3829   -0.3142 N   0  0  0  0  0  0  0  0  0  0  0  0
    0.6125    2.0271    0.0833 C   0  0  0  0  0  0  0  0  0  0  0  0
    0.5879    3.3613    0.7136 C   0  0  1  0  0  0  0  0  0  0  0  0
   -0.2867    4.3742   -0.0688 C   0  0  2  0  0  0  0  0  0  0  0  0
   -2.3189    4.9441   -0.4821 H   0  0  0  0  0  0  0  0  0  0  0  0
   -2.1231    4.1181    1.0606 H   0  0  0  0  0  0  0  0  0  0  0  0
   -3.4024    2.8047   -0.6206 H   0  0  0  0  0  0  0  0  0  0  0  0
   -2.0224    2.7906   -1.7123 H   0  0  0  0  0  0  0  0  0  0  0  0
   -1.9966    1.5444    1.1002 H   0  0  0  0  0  0  0  0  0  0  0  0
   -2.4156    0.6592   -0.3644 H   0  0  0  0  0  0  0  0  0  0  0  0
    0.2222    3.2687    1.7388 H   0  0  0  0  0  0  0  0  0  0  0  0
    1.6082    3.7516    0.7594 H   0  0  0  0  0  0  0  0  0  0  0  0
   -0.1037    5.3688    0.3508 H   0  0  0  0  0  0  0  0  0  0  0  0
    0.0243    4.4013   -1.1171 H   0  0  0  0  0  0  0  0  0  0  0  0
  1  2  1  0  0  0  0 
  2  3  1  0  0  0  0 
  3  4  1  0  0  0  0 
  4  5  1  0  0  0  0 
  5  6  2  0  0  0  0 
  6  7  1  0  0  0  0 
  7  8  2  0  0  0  0 
  4  8  1  0  0  0  0 
  8  9  1  0  0  0  0 
  9 10  1  0  0  0  0 
  1 10  1  0  0  0  0 
  1 11  1  0  0  0  0 
  1 12  1  0  0  0  0 
  2 13  1  0  0  0  0 
  2 14  1  0  0  0  0 
  3 15  1  0  0  0  0 
  3 16  1  0  0  0  0 
  9 17  1  0  0  0  0 
  9 18  1  0  0  0  0 
 10 19  1  0  0  0  0 
 10 20  1  0  0  0  0 
M  END
> <cdk:Title>
pentetrazol

> <Conformer>
1

> <SuperDrugID>
SD002953

$$$$
