proglumetacin
  CDK     0628171801

118122  0  0  0  0  0  0  0  0999 V2000
    8.8597  -10.7789   -1.7055 C   0  0  0  0  0  0  0  0  0  0  0  0
   10.0997  -10.9177   -1.5828 O   0  0  0  0  0  0  0  0  0  0  0  0
    8.2739  -10.6627   -2.9666 N   0  0  0  0  0  0  0  0  0  0  0  0
    8.1896  -10.7322   -0.4574 C   0  0  0  0  0  0  0  0  0  0  0  0
    8.9487  -10.3831   -4.1205 C   0  0  0  0  0  0  0  0  0  0  0  0
    6.9537  -10.8315   -3.3080 C   0  0  0  0  0  0  0  0  0  0  0  0
    8.2635  -11.8423    0.4331 C   0  0  0  0  0  0  0  0  0  0  0  0
    7.4971   -9.5418   -0.1120 C   0  0  0  0  0  0  0  0  0  0  0  0
    8.0607  -10.4021   -5.1986 C   0  0  0  0  0  0  0  0  0  0  0  0
   10.3084  -10.0668   -4.3667 C   0  0  0  0  0  0  0  0  0  0  0  0
    5.8224  -11.1427   -2.3939 C   0  0  0  0  0  0  0  0  0  0  0  0
    6.7975  -10.6988   -4.7018 C   0  0  0  0  0  0  0  0  0  0  0  0
    7.6027  -11.7622    1.7154 C   0  0  0  0  0  0  0  0  0  0  0  0
    6.8231   -9.3932    1.1119 C   0  0  0  0  0  0  0  0  0  0  0  0
    8.4839  -10.1404   -6.5177 C   0  0  0  0  0  0  0  0  0  0  0  0
   10.7457   -9.7953   -5.6787 C   0  0  0  0  0  0  0  0  0  0  0  0
    5.5559  -10.8678   -5.5063 C   0  0  2  0  0  0  0  0  0  0  0  0
    6.8817  -10.5181    2.0222 C   0  0  0  0  0  0  0  0  0  0  0  0
    9.8407   -9.8448   -6.7591 C   0  0  0  0  0  0  0  0  0  0  0  0
    4.5574   -9.8135   -5.2475 C   0  0  0  0  0  0  0  0  0  0  0  0
    6.0158  -10.2457    3.4968 Cl  0  0  0  0  0  0  0  0  0  0  0  0
   10.2774   -9.5773   -8.0285 O   0  0  0  0  0  0  0  0  0  0  0  0
    4.7368   -8.5748   -5.7931 O   0  0  0  0  0  0  0  0  0  0  0  0
    3.5304  -10.0760   -4.5781 O   0  0  0  0  0  0  0  0  0  0  0  0
   10.5990  -10.7724   -8.7636 C   0  0  0  0  0  0  0  0  0  0  0  0
    3.8436   -7.4561   -5.6821 C   0  0  2  0  0  0  0  0  0  0  0  0
    4.1995   -6.2488   -6.5996 C   0  0  2  0  0  0  0  0  0  0  0  0
    5.6030   -6.2490   -7.1331 N   0  0  1  0  0  0  0  0  0  0  0  0
    5.7796   -7.1372   -8.3248 C   0  0  1  0  0  0  0  0  0  0  0  0
    6.1288   -4.8816   -7.4391 C   0  0  1  0  0  0  0  0  0  0  0  0
    7.2735   -7.2292   -8.7138 C   0  0  1  0  0  0  0  0  0  0  0  0
    7.6226   -4.9473   -7.8493 C   0  0  2  0  0  0  0  0  0  0  0  0
    7.8677   -5.8846   -8.9960 N   0  0  1  0  0  0  0  0  0  0  0  0
    9.3272   -5.9291   -9.3654 C   0  0  2  0  0  0  0  0  0  0  0  0
    9.6863   -6.7370  -10.6480 C   0  0  1  0  0  0  0  0  0  0  0  0
   11.1918   -6.6763  -11.0051 C   0  0  2  0  0  0  0  0  0  0  0  0
   11.4954   -7.6005  -12.0645 O   0  0  0  0  0  0  0  0  0  0  0  0
   12.7499   -7.9244  -12.5076 C   0  0  0  0  0  0  0  0  0  0  0  0
   12.9339   -8.9601  -13.5464 C   0  0  1  0  0  0  0  0  0  0  0  0
   13.7611   -7.4006  -11.9838 O   0  0  0  0  0  0  0  0  0  0  0  0
   13.8380   -8.5181  -14.7371 C   0  0  1  0  0  0  0  0  0  0  0  0
   14.1750   -9.6586  -15.7554 C   0  0  1  0  0  0  0  0  0  0  0  0
   12.9532  -10.2787  -16.3769 C   0  0  0  0  0  0  0  0  0  0  0  0
   15.2207   -9.4448  -16.7286 N   0  0  0  0  0  0  0  0  0  0  0  0
   12.0561   -9.6967  -17.2885 N   0  0  0  0  0  0  0  0  0  0  0  0
   12.7444  -11.4375  -15.9468 O   0  0  0  0  0  0  0  0  0  0  0  0
   15.9302   -8.3088  -17.0209 C   0  0  0  0  0  0  0  0  0  0  0  0
   10.8239  -10.3393  -17.7605 C   0  0  2  0  0  0  0  0  0  0  0  0
   12.2737   -8.3632  -17.8410 C   0  0  2  0  0  0  0  0  0  0  0  0
   15.5738   -7.1922  -16.5755 O   0  0  0  0  0  0  0  0  0  0  0  0
   17.1198   -8.3694  -17.8041 C   0  0  0  0  0  0  0  0  0  0  0  0
   10.5678  -11.8645  -17.5934 C   0  0  1  0  0  0  0  0  0  0  0  0
   11.3029   -7.2838  -17.2783 C   0  0  1  0  0  0  0  0  0  0  0  0
   17.3097   -9.3504  -18.8091 C   0  0  0  0  0  0  0  0  0  0  0  0
   18.1757   -7.4506  -17.5679 C   0  0  0  0  0  0  0  0  0  0  0  0
    9.2598  -12.3233  -18.2785 C   0  0  0  0  0  0  0  0  0  0  0  0
   11.7251   -5.8510  -17.6714 C   0  0  0  0  0  0  0  0  0  0  0  0
   18.5114   -9.4142  -19.5414 C   0  0  0  0  0  0  0  0  0  0  0  0
   19.3773   -7.5148  -18.2961 C   0  0  0  0  0  0  0  0  0  0  0  0
   19.5457   -8.4978  -19.2843 C   0  0  0  0  0  0  0  0  0  0  0  0
    8.8273  -12.6873    0.0708 H   0  0  0  0  0  0  0  0  0  0  0  0
    7.4756   -8.7550   -0.7676 H   0  0  0  0  0  0  0  0  0  0  0  0
   10.9936  -10.0128   -3.6149 H   0  0  0  0  0  0  0  0  0  0  0  0
    4.9457  -11.5126   -2.9196 H   0  0  0  0  0  0  0  0  0  0  0  0
    6.1023  -11.9145   -1.6798 H   0  0  0  0  0  0  0  0  0  0  0  0
    5.5287  -10.2367   -1.8655 H   0  0  0  0  0  0  0  0  0  0  0  0
    7.6341  -12.5399    2.3798 H   0  0  0  0  0  0  0  0  0  0  0  0
    6.3279   -8.5252    1.3358 H   0  0  0  0  0  0  0  0  0  0  0  0
    7.8257  -10.1577   -7.2982 H   0  0  0  0  0  0  0  0  0  0  0  0
   11.7274   -9.5595   -5.8439 H   0  0  0  0  0  0  0  0  0  0  0  0
    5.1354  -11.8524   -5.2918 H   0  0  0  0  0  0  0  0  0  0  0  0
    5.7666  -10.8639   -6.5758 H   0  0  0  0  0  0  0  0  0  0  0  0
   10.9670  -10.4808   -9.7479 H   0  0  0  0  0  0  0  0  0  0  0  0
   11.3834  -11.3506   -8.2667 H   0  0  0  0  0  0  0  0  0  0  0  0
    9.7173  -11.4038   -8.9065 H   0  0  0  0  0  0  0  0  0  0  0  0
    3.8430   -7.1329   -4.6393 H   0  0  0  0  0  0  0  0  0  0  0  0
    2.8280   -7.7857   -5.9235 H   0  0  0  0  0  0  0  0  0  0  0  0
    4.0150   -5.3436   -6.0110 H   0  0  0  0  0  0  0  0  0  0  0  0
    3.4881   -6.2090   -7.4318 H   0  0  0  0  0  0  0  0  0  0  0  0
    5.4274   -8.1490   -8.1193 H   0  0  0  0  0  0  0  0  0  0  0  0
    5.2035   -6.7532   -9.1743 H   0  0  0  0  0  0  0  0  0  0  0  0
    5.5474   -4.4196   -8.2441 H   0  0  0  0  0  0  0  0  0  0  0  0
    6.0515   -4.2382   -6.5583 H   0  0  0  0  0  0  0  0  0  0  0  0
    7.8200   -7.7122   -7.9007 H   0  0  0  0  0  0  0  0  0  0  0  0
    7.3309   -7.8664   -9.5974 H   0  0  0  0  0  0  0  0  0  0  0  0
    8.2061   -5.2623   -6.9783 H   0  0  0  0  0  0  0  0  0  0  0  0
    7.9430   -3.9387   -8.1235 H   0  0  0  0  0  0  0  0  0  0  0  0
    9.9032   -6.3354   -8.5262 H   0  0  0  0  0  0  0  0  0  0  0  0
    9.6706   -4.9039   -9.5328 H   0  0  0  0  0  0  0  0  0  0  0  0
    9.4324   -7.7866  -10.4960 H   0  0  0  0  0  0  0  0  0  0  0  0
    9.1002   -6.3618  -11.4906 H   0  0  0  0  0  0  0  0  0  0  0  0
   11.7795   -6.9463  -10.1225 H   0  0  0  0  0  0  0  0  0  0  0  0
   11.4617   -5.6634  -11.3141 H   0  0  0  0  0  0  0  0  0  0  0  0
   13.3865   -9.8267  -13.0578 H   0  0  0  0  0  0  0  0  0  0  0  0
   11.9539   -9.2601  -13.9259 H   0  0  0  0  0  0  0  0  0  0  0  0
   13.3654   -7.6873  -15.2548 H   0  0  0  0  0  0  0  0  0  0  0  0
   14.7802   -8.1506  -14.3225 H   0  0  0  0  0  0  0  0  0  0  0  0
   14.6546  -10.4173  -15.1216 H   0  0  0  0  0  0  0  0  0  0  0  0
   15.5053  -10.2434  -17.1982 H   0  0  0  0  0  0  0  0  0  0  0  0
   10.7260  -10.1500  -18.8346 H   0  0  0  0  0  0  0  0  0  0  0  0
    9.9908   -9.8317  -17.2697 H   0  0  0  0  0  0  0  0  0  0  0  0
   12.1636   -8.3899  -18.9311 H   0  0  0  0  0  0  0  0  0  0  0  0
   13.2912   -8.0239  -17.6852 H   0  0  0  0  0  0  0  0  0  0  0  0
   11.4030  -12.4249  -18.0194 H   0  0  0  0  0  0  0  0  0  0  0  0
   10.4790  -12.1147  -16.5340 H   0  0  0  0  0  0  0  0  0  0  0  0
   10.2928   -7.4569  -17.6595 H   0  0  0  0  0  0  0  0  0  0  0  0
   11.2667   -7.3499  -16.1890 H   0  0  0  0  0  0  0  0  0  0  0  0
   16.5743  -10.0274  -19.0223 H   0  0  0  0  0  0  0  0  0  0  0  0
   18.0869   -6.7320  -16.8459 H   0  0  0  0  0  0  0  0  0  0  0  0
    9.2977  -12.1224  -19.3509 H   0  0  0  0  0  0  0  0  0  0  0  0
    8.4042  -11.7979  -17.8490 H   0  0  0  0  0  0  0  0  0  0  0  0
    9.1194  -13.3947  -18.1284 H   0  0  0  0  0  0  0  0  0  0  0  0
   11.7441   -5.7473  -18.7568 H   0  0  0  0  0  0  0  0  0  0  0  0
   12.7169   -5.6253  -17.2777 H   0  0  0  0  0  0  0  0  0  0  0  0
   11.0200   -5.1275  -17.2632 H   0  0  0  0  0  0  0  0  0  0  0  0
   18.6365  -10.1309  -20.2583 H   0  0  0  0  0  0  0  0  0  0  0  0
   20.1286   -6.8498  -18.1008 H   0  0  0  0  0  0  0  0  0  0  0  0
   20.4213   -8.5487  -19.8110 H   0  0  0  0  0  0  0  0  0  0  0  0
  1  2  2  0  0  0  0 
  1  3  1  0  0  0  0 
  1  4  1  0  0  0  0 
  3  5  1  0  0  0  0 
  3  6  1  0  0  0  0 
  4  7  2  0  0  0  0 
  4  8  1  0  0  0  0 
  5  9  1  0  0  0  0 
  5 10  2  0  0  0  0 
  6 11  1  0  0  0  0 
  6 12  2  0  0  0  0 
  7 13  1  0  0  0  0 
  8 14  2  0  0  0  0 
  9 12  1  0  0  0  0 
  9 15  2  0  0  0  0 
 10 16  1  0  0  0  0 
 12 17  1  0  0  0  0 
 13 18  2  0  0  0  0 
 14 18  1  0  0  0  0 
 15 19  1  0  0  0  0 
 16 19  2  0  0  0  0 
 17 20  1  0  0  0  0 
 18 21  1  0  0  0  0 
 19 22  1  0  0  0  0 
 20 23  1  0  0  0  0 
 20 24  2  0  0  0  0 
 22 25  1  0  0  0  0 
 23 26  1  0  0  0  0 
 26 27  1  0  0  0  0 
 27 28  1  0  0  0  0 
 28 29  1  0  0  0  0 
 28 30  1  0  0  0  0 
 29 31  1  0  0  0  0 
 30 32  1  0  0  0  0 
 31 33  1  0  0  0  0 
 32 33  1  0  0  0  0 
 33 34  1  0  0  0  0 
 34 35  1  0  0  0  0 
 35 36  1  0  0  0  0 
 36 37  1  0  0  0  0 
 37 38  1  0  0  0  0 
 38 39  1  0  0  0  0 
 38 40  2  0  0  0  0 
 39 41  1  0  0  0  0 
 42 41  1  0  0  0  0 
 42 43  1  0  0  0  0 
 42 44  1  0  0  0  0 
 43 45  1  0  0  0  0 
 43 46  2  0  0  0  0 
 44 47  1  0  0  0  0 
 45 48  1  0  0  0  0 
 45 49  1  0  0  0  0 
 47 50  2  0  0  0  0 
 47 51  1  0  0  0  0 
 48 52  1  0  0  0  0 
 49 53  1  0  0  0  0 
 51 54  2  0  0  0  0 
 51 55  1  0  0  0  0 
 52 56  1  0  0  0  0 
 53 57  1  0  0  0  0 
 54 58  1  0  0  0  0 
 55 59  2  0  0  0  0 
 58 60  2  0  0  0  0 
 59 60  1  0  0  0  0 
  7 61  1  0  0  0  0 
  8 62  1  0  0  0  0 
 10 63  1  0  0  0  0 
 11 64  1  0  0  0  0 
 11 65  1  0  0  0  0 
 11 66  1  0  0  0  0 
 13 67  1  0  0  0  0 
 14 68  1  0  0  0  0 
 15 69  1  0  0  0  0 
 16 70  1  0  0  0  0 
 17 71  1  0  0  0  0 
 17 72  1  0  0  0  0 
 25 73  1  0  0  0  0 
 25 74  1  0  0  0  0 
 25 75  1  0  0  0  0 
 26 76  1  0  0  0  0 
 26 77  1  0  0  0  0 
 27 78  1  0  0  0  0 
 27 79  1  0  0  0  0 
 29 80  1  0  0  0  0 
 29 81  1  0  0  0  0 
 30 82  1  0  0  0  0 
 30 83  1  0  0  0  0 
 31 84  1  0  0  0  0 
 31 85  1  0  0  0  0 
 32 86  1  0  0  0  0 
 32 87  1  0  0  0  0 
 34 88  1  0  0  0  0 
 34 89  1  0  0  0  0 
 35 90  1  0  0  0  0 
 35 91  1  0  0  0  0 
 36 92  1  0  0  0  0 
 36 93  1  0  0  0  0 
 39 94  1  0  0  0  0 
 39 95  1  0  0  0  0 
 41 96  1  0  0  0  0 
 41 97  1  0  0  0  0 
 42 98  1  0  0  0  0 
 44 99  1  0  0  0  0 
 48100  1  0  0  0  0 
 48101  1  0  0  0  0 
 49102  1  0  0  0  0 
 49103  1  0  0  0  0 
 52104  1  0  0  0  0 
 52105  1  0  0  0  0 
 53106  1  0  0  0  0 
 53107  1  0  0  0  0 
 54108  1  0  0  0  0 
 55109  1  0  0  0  0 
 56110  1  0  0  0  0 
 56111  1  0  0  0  0 
 56112  1  0  0  0  0 
 57113  1  0  0  0  0 
 57114  1  0  0  0  0 
 57115  1  0  0  0  0 
 58116  1  0  0  0  0 
 59117  1  0  0  0  0 
 60118  1  0  0  0  0 
M  END
> <cdk:Title>
proglumetacin

> <Conformer>
1

> <SuperDrugID>
SD002046

$$$$
