tasimelteon
  CDK     0628171802

 37 39  0  0  0  0  0  0  0  0999 V2000
   -0.2316    9.6859    2.4650 C   0  0  0  0  0  0  0  0  0  0  0  0
   -0.6236    8.3547    2.2196 C   0  0  0  0  0  0  0  0  0  0  0  0
   -1.9629    7.9393    2.4133 C   0  0  0  0  0  0  0  0  0  0  0  0
   -2.8887    8.9106    2.8720 C   0  0  0  0  0  0  0  0  0  0  0  0
   -2.5002   10.2278    3.1149 C   0  0  0  0  0  0  0  0  0  0  0  0
   -1.1716   10.6314    2.9147 C   0  0  0  0  0  0  0  0  0  0  0  0
   -4.3024    8.7756    3.1910 C   0  0  1  0  0  0  0  0  0  0  0  0
   -4.6589   10.2186    3.6236 C   0  0  1  0  0  0  0  0  0  0  0  0
   -3.4848   11.0447    3.5632 O   0  0  0  0  0  0  0  0  0  0  0  0
   -2.3270    6.5185    2.1910 C   0  0  1  0  0  0  0  0  0  0  0  0
   -3.4627    6.1272    1.2220 C   0  0  1  0  0  0  0  0  0  0  0  0
   -2.0003    5.9360    0.7981 C   0  0  1  0  0  0  0  0  0  0  0  0
   -4.2898    4.8639    1.5540 C   0  0  1  0  0  0  0  0  0  0  0  0
   -5.2964    5.1711    2.5216 N   0  0  0  0  0  0  0  0  0  0  0  0
   -5.3893    4.6531    3.7803 C   0  0  0  0  0  0  0  0  0  0  0  0
   -6.5377    5.0065    4.6435 C   0  0  1  0  0  0  0  0  0  0  0  0
   -4.5265    3.8609    4.2285 O   0  0  0  0  0  0  0  0  0  0  0  0
   -6.1111    5.7199    5.9467 C   0  0  0  0  0  0  0  0  0  0  0  0
   -3.9622    6.9440    0.6949 H   0  0  0  0  0  0  0  0  0  0  0  0
   -2.1121    5.8189    3.0023 H   0  0  0  0  0  0  0  0  0  0  0  0
    0.7394    9.9652    2.3202 H   0  0  0  0  0  0  0  0  0  0  0  0
    0.0810    7.6848    1.9026 H   0  0  0  0  0  0  0  0  0  0  0  0
   -0.8929   11.5967    3.0996 H   0  0  0  0  0  0  0  0  0  0  0  0
   -4.8815    8.4754    2.3153 H   0  0  0  0  0  0  0  0  0  0  0  0
   -4.4459    8.0627    4.0065 H   0  0  0  0  0  0  0  0  0  0  0  0
   -5.4129   10.6440    2.9565 H   0  0  0  0  0  0  0  0  0  0  0  0
   -5.0518   10.2324    4.6434 H   0  0  0  0  0  0  0  0  0  0  0  0
   -1.6482    6.6308    0.0308 H   0  0  0  0  0  0  0  0  0  0  0  0
   -1.6222    4.9106    0.7866 H   0  0  0  0  0  0  0  0  0  0  0  0
   -4.7901    4.5339    0.6426 H   0  0  0  0  0  0  0  0  0  0  0  0
   -3.6403    4.0487    1.8849 H   0  0  0  0  0  0  0  0  0  0  0  0
   -5.9879    5.7959    2.2514 H   0  0  0  0  0  0  0  0  0  0  0  0
   -7.2324    5.6574    4.1039 H   0  0  0  0  0  0  0  0  0  0  0  0
   -7.0744    4.0881    4.9002 H   0  0  0  0  0  0  0  0  0  0  0  0
   -6.9924    6.0975    6.4676 H   0  0  0  0  0  0  0  0  0  0  0  0
   -5.5929    5.0246    6.6097 H   0  0  0  0  0  0  0  0  0  0  0  0
   -5.4499    6.5594    5.7253 H   0  0  0  0  0  0  0  0  0  0  0  0
  1  2  2  0  0  0  0 
  1  6  1  0  0  0  0 
  2  3  1  0  0  0  0 
  3  4  2  0  0  0  0 
  5  6  2  0  0  0  0 
  4  7  1  0  0  0  0 
  4  5  1  0  0  0  0 
  5  9  1  0  0  0  0 
  7  8  1  0  0  0  0 
  8  9  1  0  0  0  0 
 10  3  1  0  0  0  0 
 10 11  1  0  0  0  0 
 12 10  1  0  0  0  0 
 11 12  1  0  0  0  0 
 11 13  1  0  0  0  0 
 13 14  1  0  0  0  0 
 14 15  1  0  0  0  0 
 15 16  1  0  0  0  0 
 15 17  2  0  0  0  0 
 16 18  1  0  0  0  0 
 11 19  1  0  0  0  0 
 10 20  1  0  0  0  0 
  1 21  1  0  0  0  0 
  2 22  1  0  0  0  0 
  6 23  1  0  0  0  0 
  7 24  1  0  0  0  0 
  7 25  1  0  0  0  0 
  8 26  1  0  0  0  0 
  8 27  1  0  0  0  0 
 12 28  1  0  0  0  0 
 12 29  1  0  0  0  0 
 13 30  1  0  0  0  0 
 13 31  1  0  0  0  0 
 14 32  1  0  0  0  0 
 16 33  1  0  0  0  0 
 16 34  1  0  0  0  0 
 18 35  1  0  0  0  0 
 18 36  1  0  0  0  0 
 18 37  1  0  0  0  0 
M  END
> <cdk:Title>
tasimelteon

> <Conformer>
1

> <SuperDrugID>
SD003782

$$$$
