primaquine
  CDK     0628171801

 40 41  0  0  0  0  0  0  0  0999 V2000
    8.1702   -3.0525   -1.3139 N   0  0  0  0  0  0  0  0  0  0  0  0
    8.4047   -3.1146   -2.7314 C   0  0  1  0  0  0  0  0  0  0  0  0
    7.7020   -1.9821   -0.5995 C   0  0  0  0  0  0  0  0  0  0  0  0
    9.9045   -2.8126   -3.0439 C   0  0  2  0  0  0  0  0  0  0  0  0
    7.9963   -4.5186   -3.2446 C   0  0  0  0  0  0  0  0  0  0  0  0
    8.2039   -1.7861    0.7082 C   0  0  0  0  0  0  0  0  0  0  0  0
    6.7779   -1.0465   -1.1182 C   0  0  0  0  0  0  0  0  0  0  0  0
   10.4064   -1.3946   -2.6405 C   0  0  2  0  0  0  0  0  0  0  0  0
    7.8352   -0.6349    1.4607 C   0  0  0  0  0  0  0  0  0  0  0  0
    9.0728   -2.6795    1.2578 N   0  0  0  0  0  0  0  0  0  0  0  0
    6.4165    0.1001   -0.3847 C   0  0  0  0  0  0  0  0  0  0  0  0
    9.8214   -0.2126   -3.4563 C   0  0  1  0  0  0  0  0  0  0  0  0
    6.9412    0.3013    0.9037 C   0  0  0  0  0  0  0  0  0  0  0  0
    8.3929   -0.4542    2.7452 C   0  0  0  0  0  0  0  0  0  0  0  0
    9.6104   -2.5343    2.4943 C   0  0  0  0  0  0  0  0  0  0  0  0
    5.5488    1.0192   -0.9079 O   0  0  0  0  0  0  0  0  0  0  0  0
   10.2028   -0.2725   -4.8739 N   0  0  1  0  0  0  0  0  0  0  0  0
    9.2818   -1.4090    3.2685 C   0  0  0  0  0  0  0  0  0  0  0  0
    6.1883    1.9409   -1.8102 C   0  0  0  0  0  0  0  0  0  0  0  0
    8.4591   -3.8231   -0.7974 H   0  0  0  0  0  0  0  0  0  0  0  0
    7.7903   -2.3970   -3.2768 H   0  0  0  0  0  0  0  0  0  0  0  0
   10.0878   -2.9533   -4.1131 H   0  0  0  0  0  0  0  0  0  0  0  0
   10.5250   -3.5426   -2.5153 H   0  0  0  0  0  0  0  0  0  0  0  0
    8.5879   -5.2975   -2.7594 H   0  0  0  0  0  0  0  0  0  0  0  0
    8.1481   -4.5872   -4.3248 H   0  0  0  0  0  0  0  0  0  0  0  0
    6.9405   -4.7000   -3.0361 H   0  0  0  0  0  0  0  0  0  0  0  0
    6.3586   -1.1832   -2.0376 H   0  0  0  0  0  0  0  0  0  0  0  0
   11.4945   -1.3735   -2.7492 H   0  0  0  0  0  0  0  0  0  0  0  0
   10.1971   -1.2280   -1.5817 H   0  0  0  0  0  0  0  0  0  0  0  0
    8.7341   -0.2050   -3.3926 H   0  0  0  0  0  0  0  0  0  0  0  0
   10.1864    0.7277   -3.0351 H   0  0  0  0  0  0  0  0  0  0  0  0
    6.6705    1.1379    1.4270 H   0  0  0  0  0  0  0  0  0  0  0  0
    8.1589    0.3708    3.3045 H   0  0  0  0  0  0  0  0  0  0  0  0
   10.2538   -3.2409    2.8552 H   0  0  0  0  0  0  0  0  0  0  0  0
    9.8571    0.5801   -5.3206 H   0  0  0  0  0  0  0  0  0  0  0  0
   11.2232   -0.2388   -4.9203 H   0  0  0  0  0  0  0  0  0  0  0  0
    9.6865   -1.2861    4.1991 H   0  0  0  0  0  0  0  0  0  0  0  0
    5.4436    2.6669   -2.1360 H   0  0  0  0  0  0  0  0  0  0  0  0
    7.0010    2.4848   -1.3224 H   0  0  0  0  0  0  0  0  0  0  0  0
    6.5743    1.4258   -2.6929 H   0  0  0  0  0  0  0  0  0  0  0  0
  2  1  1  0  0  0  0 
  1  3  1  0  0  0  0 
  2  4  1  0  0  0  0 
  2  5  1  0  0  0  0 
  3  6  2  0  0  0  0 
  3  7  1  0  0  0  0 
  4  8  1  0  0  0  0 
  6  9  1  0  0  0  0 
  6 10  1  0  0  0  0 
  7 11  2  0  0  0  0 
  8 12  1  0  0  0  0 
  9 13  2  0  0  0  0 
  9 14  1  0  0  0  0 
 10 15  2  0  0  0  0 
 11 13  1  0  0  0  0 
 11 16  1  0  0  0  0 
 12 17  1  0  0  0  0 
 14 18  2  0  0  0  0 
 15 18  1  0  0  0  0 
 16 19  1  0  0  0  0 
  1 20  1  0  0  0  0 
  2 21  1  0  0  0  0 
  4 22  1  0  0  0  0 
  4 23  1  0  0  0  0 
  5 24  1  0  0  0  0 
  5 25  1  0  0  0  0 
  5 26  1  0  0  0  0 
  7 27  1  0  0  0  0 
  8 28  1  0  0  0  0 
  8 29  1  0  0  0  0 
 12 30  1  0  0  0  0 
 12 31  1  0  0  0  0 
 13 32  1  0  0  0  0 
 14 33  1  0  0  0  0 
 15 34  1  0  0  0  0 
 17 35  1  0  0  0  0 
 17 36  1  0  0  0  0 
 18 37  1  0  0  0  0 
 19 38  1  0  0  0  0 
 19 39  1  0  0  0  0 
 19 40  1  0  0  0  0 
M  END
> <cdk:Title>
primaquine

> <Conformer>
1

> <SuperDrugID>
SD002032

$$$$
