vasopressin
  CDK     0628171801

140143  0  0  0  0  0  0  0  0999 V2000
    4.8431   -7.8253    4.8303 N   0  0  1  0  0  0  0  0  0  0  0  0
    7.8768   -9.8130    3.9719 N   0  0  0  0  0  0  0  0  0  0  0  0
    8.9786  -10.2692    1.1576 N   0  0  0  0  0  0  0  0  0  0  0  0
   11.2996   -8.3839   -0.6535 N   0  0  0  0  0  0  0  0  0  0  0  0
   10.8087   -6.0248   -1.9385 N   0  0  0  0  0  0  0  0  0  0  0  0
    7.5176   -5.2617   -1.1880 N   0  0  0  0  0  0  0  0  0  0  0  0
    8.9507   -4.7886    1.5639 N   0  0  0  0  0  0  0  0  0  0  0  0
   11.0656   -2.4836    2.1018 N   0  0  0  0  0  0  0  0  0  0  0  0
   12.5907   -0.7799    3.8666 N   0  0  0  0  0  0  0  0  0  0  0  0
   13.3527    1.8607    4.3865 N   0  0  0  0  0  0  0  0  0  0  0  0
    7.0226   -8.7836    4.2558 C   0  0  0  0  0  0  0  0  0  0  0  0
    5.6331   -6.0334    2.4614 S   0  0  0  0  0  0  0  0  0  0  0  0
    5.4922   -7.8569    2.4345 C   0  0  2  0  0  0  0  0  0  0  0  0
    5.6226   -8.5570    3.8165 C   0  0  2  0  0  0  0  0  0  0  0  0
    7.5302   -7.9328    5.0204 O   0  0  0  0  0  0  0  0  0  0  0  0
    8.9460  -11.0584    2.2755 C   0  0  0  0  0  0  0  0  0  0  0  0
    6.4955  -11.5591    2.5217 C   0  0  2  0  0  0  0  0  0  0  0  0
    5.3768  -12.1008    3.3633 C   0  0  0  0  0  0  0  0  0  0  0  0
    4.0337  -11.8484    2.9827 C   0  0  0  0  0  0  0  0  0  0  0  0
    2.9544  -12.3162    3.7543 C   0  0  0  0  0  0  0  0  0  0  0  0
    3.1927  -13.0619    4.9231 C   0  0  0  0  0  0  0  0  0  0  0  0
    2.1706  -13.4891    5.7070 O   0  0  0  0  0  0  0  0  0  0  0  0
    4.5138  -13.3740    5.2856 C   0  0  0  0  0  0  0  0  0  0  0  0
    5.5913  -12.9126    4.5073 C   0  0  0  0  0  0  0  0  0  0  0  0
    7.8002  -11.0448    3.2287 C   0  0  2  0  0  0  0  0  0  0  0  0
    9.8979  -11.8427    2.5102 O   0  0  0  0  0  0  0  0  0  0  0  0
   11.0274   -9.3244    0.2955 C   0  0  0  0  0  0  0  0  0  0  0  0
    9.2339  -10.3784   -1.2739 C   0  0  2  0  0  0  0  0  0  0  0  0
   10.1294  -10.5408   -2.4624 C   0  0  0  0  0  0  0  0  0  0  0  0
   10.1403   -9.5834   -3.5066 C   0  0  0  0  0  0  0  0  0  0  0  0
   11.0210   -9.7051   -4.5978 C   0  0  0  0  0  0  0  0  0  0  0  0
   11.8972  -10.8016   -4.6721 C   0  0  0  0  0  0  0  0  0  0  0  0
   11.8841  -11.7765   -3.6609 C   0  0  0  0  0  0  0  0  0  0  0  0
   11.0003  -11.6526   -2.5729 C   0  0  0  0  0  0  0  0  0  0  0  0
    9.9675  -10.3548    0.1094 C   0  0  2  0  0  0  0  0  0  0  0  0
   11.7180   -9.3898    1.3400 O   0  0  0  0  0  0  0  0  0  0  0  0
   11.8543   -6.1012   -1.0684 C   0  0  0  0  0  0  0  0  0  0  0  0
   13.5372   -7.9627   -1.5861 C   0  0  1  0  0  0  0  0  0  0  0  0
   14.9268   -8.0432   -0.8929 C   0  0  2  0  0  0  0  0  0  0  0  0
   15.4516   -6.7270   -0.4679 C   0  0  0  0  0  0  0  0  0  0  0  0
   15.5630   -6.3978    0.8354 N   0  0  0  0  0  0  0  0  0  0  0  0
   15.8027   -5.8859   -1.3255 O   0  0  0  0  0  0  0  0  0  0  0  0
   12.3823   -7.4342   -0.6649 C   0  0  2  0  0  0  0  0  0  0  0  0
   12.3306   -5.0663   -0.5451 O   0  0  0  0  0  0  0  0  0  0  0  0
    8.5374   -5.5668   -2.0368 C   0  0  0  0  0  0  0  0  0  0  0  0
   10.1157   -4.2033   -3.4641 C   0  0  1  0  0  0  0  0  0  0  0  0
   11.4185   -3.5008   -3.5213 C   0  0  0  0  0  0  0  0  0  0  0  0
   11.7318   -2.5312   -2.6401 N   0  0  0  0  0  0  0  0  0  0  0  0
   12.2612   -3.7972   -4.3986 O   0  0  0  0  0  0  0  0  0  0  0  0
    9.8861   -4.9363   -2.1118 C   0  0  2  0  0  0  0  0  0  0  0  0
    8.2735   -6.5145   -2.8131 O   0  0  0  0  0  0  0  0  0  0  0  0
    8.2221   -3.8752    0.8195 C   0  0  0  0  0  0  0  0  0  0  0  0
    4.9754   -5.5485    0.5259 S   0  0  0  0  0  0  0  0  0  0  0  0
    5.8244   -4.0056    0.0527 C   0  0  2  0  0  0  0  0  0  0  0  0
    7.3319   -4.1083   -0.3581 C   0  0  2  0  0  0  0  0  0  0  0  0
    8.2605   -2.6703    1.1736 O   0  0  0  0  0  0  0  0  0  0  0  0
   11.0074   -3.8148    2.3734 C   0  0  0  0  0  0  0  0  0  0  0  0
    9.6910   -4.4057    2.7432 C   0  0  2  0  0  0  0  0  0  0  0  0
    9.7561   -5.7183    3.5492 C   0  0  2  0  0  0  0  0  0  0  0  0
    9.8927   -6.7791    2.4535 C   0  0  2  0  0  0  0  0  0  0  0  0
    9.0472   -6.1975    1.3062 C   0  0  1  0  0  0  0  0  0  0  0  0
   12.0403   -4.5221    2.2888 O   0  0  0  0  0  0  0  0  0  0  0  0
   13.0916   -1.4546    2.7917 C   0  0  0  0  0  0  0  0  0  0  0  0
   11.7009   -0.5016    0.8704 C   0  0  1  0  0  0  0  0  0  0  0  0
   12.8045    0.3418    0.1715 C   0  0  2  0  0  0  0  0  0  0  0  0
   12.2295    1.5290   -0.6669 C   0  0  1  0  0  0  0  0  0  0  0  0
   12.5974    1.4459   -2.0139 N   0  0  0  0  0  0  0  0  0  0  0  0
   11.8920    1.2311   -3.0667 C   0  0  0  0  0  0  0  0  0  0  0  0
   12.5119    1.2262   -4.2250 N   0  0  0  0  0  0  0  0  0  0  0  0
   10.5903    1.0112   -3.0653 N   0  0  0  0  0  0  0  0  0  0  0  0
   12.2110   -1.7598    1.6349 C   0  0  2  0  0  0  0  0  0  0  0  0
   14.2794   -1.8582    2.7702 O   0  0  0  0  0  0  0  0  0  0  0  0
   13.5886    0.9106    5.3098 C   0  0  0  0  0  0  0  0  0  0  0  0
   13.2712   -0.5155    5.0985 C   0  0  2  0  0  0  0  0  0  0  0  0
   14.1087    1.2657    6.3918 O   0  0  0  0  0  0  0  0  0  0  0  0
    3.8892   -7.7406    4.4699 H   0  0  0  0  0  0  0  0  0  0  0  0
    4.7991   -8.4169    5.6631 H   0  0  0  0  0  0  0  0  0  0  0  0
    8.7461   -9.6950    4.3889 H   0  0  0  0  0  0  0  0  0  0  0  0
    8.2576   -9.6297    1.0402 H   0  0  0  0  0  0  0  0  0  0  0  0
   10.7171   -8.3733   -1.4262 H   0  0  0  0  0  0  0  0  0  0  0  0
   10.6014   -6.8374   -2.4246 H   0  0  0  0  0  0  0  0  0  0  0  0
    6.7801   -5.8882   -1.2010 H   0  0  0  0  0  0  0  0  0  0  0  0
   10.2546   -1.9700    2.2440 H   0  0  0  0  0  0  0  0  0  0  0  0
   11.6727   -0.4703    3.8023 H   0  0  0  0  0  0  0  0  0  0  0  0
   12.9504    1.6263    3.5367 H   0  0  0  0  0  0  0  0  0  0  0  0
   13.5872    2.7836    4.5701 H   0  0  0  0  0  0  0  0  0  0  0  0
    6.2307   -8.2523    1.7342 H   0  0  0  0  0  0  0  0  0  0  0  0
    4.5040   -8.0929    2.0331 H   0  0  0  0  0  0  0  0  0  0  0  0
    5.1294   -9.5164    3.7643 H   0  0  0  0  0  0  0  0  0  0  0  0
    6.1372  -10.7640    1.8655 H   0  0  0  0  0  0  0  0  0  0  0  0
    6.7643  -12.3902    1.8639 H   0  0  0  0  0  0  0  0  0  0  0  0
    3.8293  -11.3139    2.1341 H   0  0  0  0  0  0  0  0  0  0  0  0
    1.9966  -12.1108    3.4614 H   0  0  0  0  0  0  0  0  0  0  0  0
    1.3696  -13.0320    5.3766 H   0  0  0  0  0  0  0  0  0  0  0  0
    4.6930  -13.9397    6.1186 H   0  0  0  0  0  0  0  0  0  0  0  0
    6.5311  -13.1829    4.7964 H   0  0  0  0  0  0  0  0  0  0  0  0
    8.0477  -11.7880    3.9877 H   0  0  0  0  0  0  0  0  0  0  0  0
    8.5330  -11.2183   -1.2811 H   0  0  0  0  0  0  0  0  0  0  0  0
    8.6346   -9.4667   -1.3650 H   0  0  0  0  0  0  0  0  0  0  0  0
    9.5111   -8.7796   -3.4793 H   0  0  0  0  0  0  0  0  0  0  0  0
   11.0247   -8.9969   -5.3366 H   0  0  0  0  0  0  0  0  0  0  0  0
   12.5400  -10.8923   -5.4620 H   0  0  0  0  0  0  0  0  0  0  0  0
   12.5206  -12.5758   -3.7146 H   0  0  0  0  0  0  0  0  0  0  0  0
   11.0053  -12.3819   -1.8574 H   0  0  0  0  0  0  0  0  0  0  0  0
   10.4838  -11.3154    0.1815 H   0  0  0  0  0  0  0  0  0  0  0  0
   13.6206   -7.3602   -2.4941 H   0  0  0  0  0  0  0  0  0  0  0  0
   13.3067   -8.9792   -1.9229 H   0  0  0  0  0  0  0  0  0  0  0  0
   15.6431   -8.4913   -1.5867 H   0  0  0  0  0  0  0  0  0  0  0  0
   14.8542   -8.7160   -0.0322 H   0  0  0  0  0  0  0  0  0  0  0  0
   15.9057   -5.5259    1.0907 H   0  0  0  0  0  0  0  0  0  0  0  0
   15.2997   -7.0291    1.5233 H   0  0  0  0  0  0  0  0  0  0  0  0
   12.7558   -7.3255    0.3585 H   0  0  0  0  0  0  0  0  0  0  0  0
    9.3257   -3.4608   -3.6149 H   0  0  0  0  0  0  0  0  0  0  0  0
   10.0496   -4.9237   -4.2877 H   0  0  0  0  0  0  0  0  0  0  0  0
   11.1073   -2.2884   -1.9380 H   0  0  0  0  0  0  0  0  0  0  0  0
   12.5870   -2.0783   -2.7038 H   0  0  0  0  0  0  0  0  0  0  0  0
    9.9886   -4.2086   -1.3029 H   0  0  0  0  0  0  0  0  0  0  0  0
    5.6729   -3.2691    0.8457 H   0  0  0  0  0  0  0  0  0  0  0  0
    5.2698   -3.6420   -0.8154 H   0  0  0  0  0  0  0  0  0  0  0  0
    7.5105   -3.2642   -1.0373 H   0  0  0  0  0  0  0  0  0  0  0  0
    9.1366   -3.6825    3.3520 H   0  0  0  0  0  0  0  0  0  0  0  0
    8.8127   -5.8645    4.0842 H   0  0  0  0  0  0  0  0  0  0  0  0
   10.5801   -5.7404    4.2686 H   0  0  0  0  0  0  0  0  0  0  0  0
    9.5390   -7.7584    2.7786 H   0  0  0  0  0  0  0  0  0  0  0  0
   10.9386   -6.8685    2.1521 H   0  0  0  0  0  0  0  0  0  0  0  0
    8.0694   -6.6681    1.2921 H   0  0  0  0  0  0  0  0  0  0  0  0
    9.5300   -6.4018    0.3595 H   0  0  0  0  0  0  0  0  0  0  0  0
   11.1476    0.1432    1.5597 H   0  0  0  0  0  0  0  0  0  0  0  0
   11.0016   -0.8369    0.0969 H   0  0  0  0  0  0  0  0  0  0  0  0
   13.4034   -0.3184   -0.4649 H   0  0  0  0  0  0  0  0  0  0  0  0
   13.4724    0.7428    0.9383 H   0  0  0  0  0  0  0  0  0  0  0  0
   11.1442    1.6054   -0.5511 H   0  0  0  0  0  0  0  0  0  0  0  0
   12.6410    2.4684   -0.2905 H   0  0  0  0  0  0  0  0  0  0  0  0
   13.4682    1.3846   -4.2676 H   0  0  0  0  0  0  0  0  0  0  0  0
   12.0147    1.0674   -5.0426 H   0  0  0  0  0  0  0  0  0  0  0  0
   10.0946    0.9991   -2.2299 H   0  0  0  0  0  0  0  0  0  0  0  0
   10.1257    0.8568   -3.9057 H   0  0  0  0  0  0  0  0  0  0  0  0
   12.7518   -2.3806    0.9101 H   0  0  0  0  0  0  0  0  0  0  0  0
   14.1964   -1.0910    5.1835 H   0  0  0  0  0  0  0  0  0  0  0  0
   12.6082   -0.8425    5.9020 H   0  0  0  0  0  0  0  0  0  0  0  0
 11  2  1  0  0  0  0 
 16  3  1  0  0  0  0 
 27  4  1  0  0  0  0 
 37  5  1  0  0  0  0 
 45  6  1  0  0  0  0 
 52  7  1  0  0  0  0 
 57  8  1  0  0  0  0 
 63  9  1  0  0  0  0 
 73 10  1  0  0  0  0 
 12 53  1  0  0  0  0 
 14  1  1  0  0  0  0 
 14 13  1  0  0  0  0 
 13 12  1  0  0  0  0 
 14 11  1  0  0  0  0 
 11 15  2  0  0  0  0 
 25  2  1  0  0  0  0 
 25 17  1  0  0  0  0 
 17 18  1  0  0  0  0 
 18 19  2  0  0  0  0 
 19 20  1  0  0  0  0 
 20 21  2  0  0  0  0 
 21 22  1  0  0  0  0 
 21 23  1  0  0  0  0 
 23 24  2  0  0  0  0 
 18 24  1  0  0  0  0 
 25 16  1  0  0  0  0 
 16 26  2  0  0  0  0 
 35  3  1  0  0  0  0 
 35 28  1  0  0  0  0 
 28 29  1  0  0  0  0 
 29 30  2  0  0  0  0 
 30 31  1  0  0  0  0 
 31 32  2  0  0  0  0 
 32 33  1  0  0  0  0 
 33 34  2  0  0  0  0 
 29 34  1  0  0  0  0 
 35 27  1  0  0  0  0 
 27 36  2  0  0  0  0 
 43  4  1  0  0  0  0 
 43 38  1  0  0  0  0 
 38 39  1  0  0  0  0 
 39 40  1  0  0  0  0 
 40 41  1  0  0  0  0 
 40 42  2  0  0  0  0 
 43 37  1  0  0  0  0 
 37 44  2  0  0  0  0 
 50  5  1  0  0  0  0 
 50 46  1  0  0  0  0 
 46 47  1  0  0  0  0 
 47 48  1  0  0  0  0 
 47 49  2  0  0  0  0 
 50 45  1  0  0  0  0 
 45 51  2  0  0  0  0 
 55  6  1  0  0  0  0 
 55 54  1  0  0  0  0 
 54 53  1  0  0  0  0 
 55 52  1  0  0  0  0 
 52 56  2  0  0  0  0 
 62 57  2  0  0  0  0 
 58 57  1  0  0  0  0 
 58 59  1  0  0  0  0 
 59 60  1  0  0  0  0 
 60 61  1  0  0  0  0 
 61  7  1  0  0  0  0 
 58  7  1  0  0  0  0 
 71  8  1  0  0  0  0 
 71 64  1  0  0  0  0 
 64 65  1  0  0  0  0 
 65 66  1  0  0  0  0 
 66 67  1  0  0  0  0 
 67 68  2  0  0  0  0 
 68 69  1  0  0  0  0 
 68 70  1  0  0  0  0 
 71 63  1  0  0  0  0 
 63 72  2  0  0  0  0 
  9 74  1  0  0  0  0 
 74 73  1  0  0  0  0 
 73 75  2  0  0  0  0 
 76  1  1  0  0  0  0 
 77  1  1  0  0  0  0 
 78  2  1  0  0  0  0 
 79  3  1  0  0  0  0 
 80  4  1  0  0  0  0 
 81  5  1  0  0  0  0 
 82  6  1  0  0  0  0 
 83  8  1  0  0  0  0 
 84  9  1  0  0  0  0 
 85 10  1  0  0  0  0 
 86 10  1  0  0  0  0 
 87 13  1  0  0  0  0 
 88 13  1  0  0  0  0 
 14 89  1  0  0  0  0 
 90 17  1  0  0  0  0 
 91 17  1  0  0  0  0 
 92 19  1  0  0  0  0 
 93 20  1  0  0  0  0 
 94 22  1  0  0  0  0 
 95 23  1  0  0  0  0 
 96 24  1  0  0  0  0 
 25 97  1  0  0  0  0 
 98 28  1  0  0  0  0 
 99 28  1  0  0  0  0 
100 30  1  0  0  0  0 
101 31  1  0  0  0  0 
102 32  1  0  0  0  0 
103 33  1  0  0  0  0 
104 34  1  0  0  0  0 
 35105  1  0  0  0  0 
106 38  1  0  0  0  0 
107 38  1  0  0  0  0 
108 39  1  0  0  0  0 
109 39  1  0  0  0  0 
110 41  1  0  0  0  0 
111 41  1  0  0  0  0 
 43112  1  0  0  0  0 
113 46  1  0  0  0  0 
114 46  1  0  0  0  0 
115 48  1  0  0  0  0 
116 48  1  0  0  0  0 
 50117  1  0  0  0  0 
118 54  1  0  0  0  0 
119 54  1  0  0  0  0 
 55120  1  0  0  0  0 
 58121  1  0  0  0  0 
122 59  1  0  0  0  0 
123 59  1  0  0  0  0 
124 60  1  0  0  0  0 
125 60  1  0  0  0  0 
126 61  1  0  0  0  0 
127 61  1  0  0  0  0 
128 64  1  0  0  0  0 
129 64  1  0  0  0  0 
130 65  1  0  0  0  0 
131 65  1  0  0  0  0 
132 66  1  0  0  0  0 
133 66  1  0  0  0  0 
134 69  1  0  0  0  0 
135 69  1  0  0  0  0 
136 70  1  0  0  0  0 
137 70  1  0  0  0  0 
 71138  1  0  0  0  0 
139 74  1  0  0  0  0 
140 74  1  0  0  0  0 
M  END
> <cdk:Title>
vasopressin

> <Conformer>
1

> <SuperDrugID>
SD002535

$$$$
