meticrane
  CDK     0628171801

 30 31  0  0  0  0  0  0  0  0999 V2000
    2.2633   -5.9289   -0.9266 O   0  0  0  0  0  0  0  0  0  0  0  0
    3.4711   -5.2514   -0.1173 S   0  0  2  0  0  0  0  0  0  0  0  0
    3.4846   -5.8132    1.3855 O   0  0  0  0  0  0  0  0  0  0  0  0
    3.2940   -3.4849   -0.0930 C   0  0  0  0  0  0  0  0  0  0  0  0
    5.0647   -5.6798   -0.9283 C   0  0  2  0  0  0  0  0  0  0  0  0
    4.4296   -2.6612   -0.2685 C   0  0  0  0  0  0  0  0  0  0  0  0
    2.0170   -2.9116    0.0397 C   0  0  0  0  0  0  0  0  0  0  0  0
    5.7754   -4.4128   -1.4676 C   0  0  2  0  0  0  0  0  0  0  0  0
    4.2457   -1.2617   -0.3335 C   0  0  0  0  0  0  0  0  0  0  0  0
    5.7845   -3.2684   -0.4150 C   0  0  1  0  0  0  0  0  0  0  0  0
    1.8334   -1.5138   -0.0372 C   0  0  0  0  0  0  0  0  0  0  0  0
    2.9637   -0.6701   -0.2241 C   0  0  0  0  0  0  0  0  0  0  0  0
    0.1751   -0.8820    0.0943 S   0  0  2  0  0  0  0  0  0  0  0  0
    2.8333    0.8089   -0.3246 C   0  0  0  0  0  0  0  0  0  0  0  0
   -0.2209    0.1022   -1.3076 N   0  0  2  0  0  0  0  0  0  0  0  0
    0.0269    0.0343    1.4027 O   0  0  0  0  0  0  0  0  0  0  0  0
   -0.9064   -2.0647    0.1637 O   0  0  0  0  0  0  0  0  0  0  0  0
    4.8825   -6.3823   -1.7432 H   0  0  0  0  0  0  0  0  0  0  0  0
    5.7062   -6.1721   -0.1956 H   0  0  0  0  0  0  0  0  0  0  0  0
    1.2143   -3.5277    0.1823 H   0  0  0  0  0  0  0  0  0  0  0  0
    5.2721   -4.0746   -2.3797 H   0  0  0  0  0  0  0  0  0  0  0  0
    6.8016   -4.6708   -1.7402 H   0  0  0  0  0  0  0  0  0  0  0  0
    5.0632   -0.6623   -0.4729 H   0  0  0  0  0  0  0  0  0  0  0  0
    6.5274   -2.5223   -0.7060 H   0  0  0  0  0  0  0  0  0  0  0  0
    6.0944   -3.6695    0.5544 H   0  0  0  0  0  0  0  0  0  0  0  0
    2.3306    1.2073    0.5573 H   0  0  0  0  0  0  0  0  0  0  0  0
    3.7961    1.3148   -0.4130 H   0  0  0  0  0  0  0  0  0  0  0  0
    2.2531    1.0630   -1.2099 H   0  0  0  0  0  0  0  0  0  0  0  0
   -1.1919    0.4026   -1.2005 H   0  0  0  0  0  0  0  0  0  0  0  0
   -0.1833   -0.5104   -2.1245 H   0  0  0  0  0  0  0  0  0  0  0  0
  1  2  2  0  0  0  0 
  2  3  2  0  0  0  0 
  2  4  1  0  0  0  0 
  2  5  1  0  0  0  0 
  4  6  2  0  0  0  0 
  4  7  1  0  0  0  0 
  5  8  1  0  0  0  0 
  6  9  1  0  0  0  0 
  6 10  1  0  0  0  0 
  7 11  2  0  0  0  0 
  8 10  1  0  0  0  0 
  9 12  2  0  0  0  0 
 11 12  1  0  0  0  0 
 11 13  1  0  0  0  0 
 12 14  1  0  0  0  0 
 13 15  1  0  0  0  0 
 13 16  2  0  0  0  0 
 13 17  2  0  0  0  0 
  5 18  1  0  0  0  0 
  5 19  1  0  0  0  0 
  7 20  1  0  0  0  0 
  8 21  1  0  0  0  0 
  8 22  1  0  0  0  0 
  9 23  1  0  0  0  0 
 10 24  1  0  0  0  0 
 10 25  1  0  0  0  0 
 14 26  1  0  0  0  0 
 14 27  1  0  0  0  0 
 14 28  1  0  0  0  0 
 15 29  1  0  0  0  0 
 15 30  1  0  0  0  0 
M  END
> <cdk:Title>
meticrane

> <Conformer>
1

> <SuperDrugID>
SD001577

$$$$
