prilocaine
  CDK     0628171801

 36 36  0  0  0  0  0  0  0  0999 V2000
    0.1025    2.2375    1.6325 N   0  0  0  0  0  0  0  0  0  0  0  0
   -0.8477    1.4672    2.2447 C   0  0  0  0  0  0  0  0  0  0  0  0
    1.3157    2.7104    2.0744 C   0  0  0  0  0  0  0  0  0  0  0  0
   -2.0737    1.1111    1.4859 C   0  0  2  0  0  0  0  0  0  0  0  0
   -0.7421    1.0564    3.4246 O   0  0  0  0  0  0  0  0  0  0  0  0
    1.9321    3.7593    1.3281 C   0  0  0  0  0  0  0  0  0  0  0  0
    1.9929    2.2030    3.2136 C   0  0  0  0  0  0  0  0  0  0  0  0
   -1.6456    0.4344    0.2353 N   0  0  1  0  0  0  0  0  0  0  0  0
   -2.9393    2.3693    1.2098 C   0  0  0  0  0  0  0  0  0  0  0  0
    1.2957    4.3236    0.1062 C   0  0  0  0  0  0  0  0  0  0  0  0
    3.1769    4.2832    1.7586 C   0  0  0  0  0  0  0  0  0  0  0  0
    3.2179    2.7469    3.6348 C   0  0  0  0  0  0  0  0  0  0  0  0
   -2.6376   -0.4159   -0.4608 C   0  0  2  0  0  0  0  0  0  0  0  0
    3.8084    3.7904    2.9107 C   0  0  0  0  0  0  0  0  0  0  0  0
   -1.9119   -1.2310   -1.5570 C   0  0  1  0  0  0  0  0  0  0  0  0
   -2.8544   -2.1467   -2.3705 C   0  0  0  0  0  0  0  0  0  0  0  0
   -0.1366    2.5113    0.7333 H   0  0  0  0  0  0  0  0  0  0  0  0
   -2.6715    0.4168    2.0861 H   0  0  0  0  0  0  0  0  0  0  0  0
    1.6158    1.4238    3.7517 H   0  0  0  0  0  0  0  0  0  0  0  0
   -1.3398    1.1575   -0.4217 H   0  0  0  0  0  0  0  0  0  0  0  0
   -3.8191    2.1048    0.6234 H   0  0  0  0  0  0  0  0  0  0  0  0
   -3.2785    2.8063    2.1527 H   0  0  0  0  0  0  0  0  0  0  0  0
   -2.3716    3.1214    0.6585 H   0  0  0  0  0  0  0  0  0  0  0  0
    0.3011    4.7037    0.3473 H   0  0  0  0  0  0  0  0  0  0  0  0
    1.8689    5.1475   -0.3267 H   0  0  0  0  0  0  0  0  0  0  0  0
    1.2035    3.5456   -0.6538 H   0  0  0  0  0  0  0  0  0  0  0  0
    3.6372    5.0331    1.2360 H   0  0  0  0  0  0  0  0  0  0  0  0
    3.6805    2.3787    4.4700 H   0  0  0  0  0  0  0  0  0  0  0  0
   -3.4122    0.2064   -0.9158 H   0  0  0  0  0  0  0  0  0  0  0  0
   -3.1079   -1.1049    0.2467 H   0  0  0  0  0  0  0  0  0  0  0  0
    4.6998    4.1914    3.2168 H   0  0  0  0  0  0  0  0  0  0  0  0
   -1.4166   -0.5439   -2.2482 H   0  0  0  0  0  0  0  0  0  0  0  0
   -1.1432   -1.8494   -1.0851 H   0  0  0  0  0  0  0  0  0  0  0  0
   -2.2680   -2.7539   -3.0625 H   0  0  0  0  0  0  0  0  0  0  0  0
   -3.4120   -2.8155   -1.7102 H   0  0  0  0  0  0  0  0  0  0  0  0
   -3.5599   -1.5464   -2.9468 H   0  0  0  0  0  0  0  0  0  0  0  0
  1  2  1  0  0  0  0 
  1  3  1  0  0  0  0 
  4  2  1  0  0  0  0 
  2  5  2  0  0  0  0 
  3  6  2  0  0  0  0 
  3  7  1  0  0  0  0 
  4  8  1  0  0  0  0 
  4  9  1  0  0  0  0 
  6 10  1  0  0  0  0 
  6 11  1  0  0  0  0 
  7 12  2  0  0  0  0 
  8 13  1  0  0  0  0 
 11 14  2  0  0  0  0 
 12 14  1  0  0  0  0 
 13 15  1  0  0  0  0 
 15 16  1  0  0  0  0 
  1 17  1  0  0  0  0 
  4 18  1  0  0  0  0 
  7 19  1  0  0  0  0 
  8 20  1  0  0  0  0 
  9 21  1  0  0  0  0 
  9 22  1  0  0  0  0 
  9 23  1  0  0  0  0 
 10 24  1  0  0  0  0 
 10 25  1  0  0  0  0 
 10 26  1  0  0  0  0 
 11 27  1  0  0  0  0 
 12 28  1  0  0  0  0 
 13 29  1  0  0  0  0 
 13 30  1  0  0  0  0 
 14 31  1  0  0  0  0 
 15 32  1  0  0  0  0 
 15 33  1  0  0  0  0 
 16 34  1  0  0  0  0 
 16 35  1  0  0  0  0 
 16 36  1  0  0  0  0 
M  END
> <cdk:Title>
prilocaine

> <Conformer>
1

> <SuperDrugID>
SD002031

$$$$
