methylergometrine
  CDK     0628171801

 50 53  0  0  0  0  0  0  0  0999 V2000
   -1.8347    0.9163    0.6752 C   0  0  0  0  0  0  0  0  0  0  0  0
   -0.7616   -0.0717    1.0148 N   0  0  2  0  0  0  0  0  0  0  0  0
    0.2289   -0.3896   -0.0772 C   0  0  1  0  0  0  0  0  0  0  0  0
   -1.3220   -1.3418    1.5729 C   0  0  1  0  0  0  0  0  0  0  0  0
   -0.4057   -1.1637   -1.1912 C   0  0  0  0  0  0  0  0  0  0  0  0
    1.1521    0.8499   -0.4297 C   0  0  1  0  0  0  0  0  0  0  0  0
   -1.9696   -2.2266    0.4586 C   0  0  1  0  0  0  0  0  0  0  0  0
   -0.0011   -0.9482   -2.5343 C   0  0  0  0  0  0  0  0  0  0  0  0
   -1.3938   -2.0378   -0.8769 C   0  0  0  0  0  0  0  0  0  0  0  0
    1.3288    1.0461   -1.8751 C   0  0  0  0  0  0  0  0  0  0  0  0
   -2.0131   -3.6550    0.8694 C   0  0  0  0  0  0  0  0  0  0  0  0
    0.7959    0.1767   -2.8005 C   0  0  0  0  0  0  0  0  0  0  0  0
   -0.3316   -1.7230   -3.6857 C   0  0  0  0  0  0  0  0  0  0  0  0
    2.0227    2.0092   -2.6085 C   0  0  0  0  0  0  0  0  0  0  0  0
   -3.2118   -4.2300    1.1813 N   0  0  0  0  0  0  0  0  0  0  0  0
   -0.9413   -4.3019    0.9446 O   0  0  0  0  0  0  0  0  0  0  0  0
    1.1877    0.5956   -4.0646 C   0  0  0  0  0  0  0  0  0  0  0  0
    0.0630   -1.3300   -4.9893 C   0  0  0  0  0  0  0  0  0  0  0  0
    1.9124    1.7195   -3.9222 N   0  0  0  0  0  0  0  0  0  0  0  0
   -3.4287   -5.5656    1.6671 C   0  0  1  0  0  0  0  0  0  0  0  0
    0.8148   -0.1522   -5.1928 C   0  0  0  0  0  0  0  0  0  0  0  0
   -4.1012   -5.5007    3.0724 C   0  0  2  0  0  0  0  0  0  0  0  0
   -4.3097   -6.3469    0.6551 C   0  0  2  0  0  0  0  0  0  0  0  0
   -3.1831   -4.9410    4.1841 C   0  0  0  0  0  0  0  0  0  0  0  0
   -3.6750   -6.4167   -0.6180 O   0  0  0  0  0  0  0  0  0  0  0  0
    0.9405   -1.1068    0.3540 H   0  0  0  0  0  0  0  0  0  0  0  0
   -2.5148    0.5325   -0.0876 H   0  0  0  0  0  0  0  0  0  0  0  0
   -1.4250    1.8573    0.3153 H   0  0  0  0  0  0  0  0  0  0  0  0
   -2.4125    1.1452    1.5720 H   0  0  0  0  0  0  0  0  0  0  0  0
   -0.5067   -1.8778    2.0686 H   0  0  0  0  0  0  0  0  0  0  0  0
   -2.0587   -1.1304    2.3541 H   0  0  0  0  0  0  0  0  0  0  0  0
    0.7746    1.7789   -0.0064 H   0  0  0  0  0  0  0  0  0  0  0  0
    2.1473    0.7013   -0.0004 H   0  0  0  0  0  0  0  0  0  0  0  0
   -3.0023   -1.8790    0.3568 H   0  0  0  0  0  0  0  0  0  0  0  0
   -1.8293   -2.5648   -1.5969 H   0  0  0  0  0  0  0  0  0  0  0  0
   -0.8665   -2.5868   -3.6015 H   0  0  0  0  0  0  0  0  0  0  0  0
    2.5398    2.7990   -2.2185 H   0  0  0  0  0  0  0  0  0  0  0  0
   -4.0011   -3.6720    1.0800 H   0  0  0  0  0  0  0  0  0  0  0  0
   -0.2006   -1.9050   -5.7934 H   0  0  0  0  0  0  0  0  0  0  0  0
    2.3023    2.2349   -4.6446 H   0  0  0  0  0  0  0  0  0  0  0  0
   -2.4858   -6.1139    1.7624 H   0  0  0  0  0  0  0  0  0  0  0  0
    1.0920    0.1395   -6.1314 H   0  0  0  0  0  0  0  0  0  0  0  0
   -4.4098   -6.5041    3.3754 H   0  0  0  0  0  0  0  0  0  0  0  0
   -5.0035   -4.8841    3.0209 H   0  0  0  0  0  0  0  0  0  0  0  0
   -5.2865   -5.8695    0.5361 H   0  0  0  0  0  0  0  0  0  0  0  0
   -4.4651   -7.3701    1.0063 H   0  0  0  0  0  0  0  0  0  0  0  0
   -2.8676   -3.9223    3.9536 H   0  0  0  0  0  0  0  0  0  0  0  0
   -3.7210   -4.9279    5.1341 H   0  0  0  0  0  0  0  0  0  0  0  0
   -2.2985   -5.5695    4.2969 H   0  0  0  0  0  0  0  0  0  0  0  0
   -4.2503   -7.0000   -1.1555 H   0  0  0  0  0  0  0  0  0  0  0  0
  1  2  1  0  0  0  0 
  3  2  1  0  0  0  0 
  2  4  1  0  0  0  0 
  3  5  1  0  0  0  0 
  3  6  1  0  0  0  0 
  3 26  1  0  0  0  0 
  7  4  1  0  0  0  0 
  5  8  1  0  0  0  0 
  5  9  2  0  0  0  0 
  6 10  1  0  0  0  0 
  7  9  1  0  0  0  0 
  7 11  1  0  0  0  0 
  8 12  2  0  0  0  0 
  8 13  1  0  0  0  0 
 10 12  1  0  0  0  0 
 10 14  2  0  0  0  0 
 11 15  1  0  0  0  0 
 11 16  2  0  0  0  0 
 12 17  1  0  0  0  0 
 13 18  2  0  0  0  0 
 14 19  1  0  0  0  0 
 20 15  1  0  0  0  0 
 17 19  1  0  0  0  0 
 17 21  2  0  0  0  0 
 18 21  1  0  0  0  0 
 20 22  1  0  0  0  0 
 20 23  1  0  0  0  0 
 22 24  1  0  0  0  0 
 23 25  1  0  0  0  0 
  1 27  1  0  0  0  0 
  1 28  1  0  0  0  0 
  1 29  1  0  0  0  0 
  4 30  1  0  0  0  0 
  4 31  1  0  0  0  0 
  6 32  1  0  0  0  0 
  6 33  1  0  0  0  0 
  7 34  1  0  0  0  0 
  9 35  1  0  0  0  0 
 13 36  1  0  0  0  0 
 14 37  1  0  0  0  0 
 15 38  1  0  0  0  0 
 18 39  1  0  0  0  0 
 19 40  1  0  0  0  0 
 20 41  1  0  0  0  0 
 21 42  1  0  0  0  0 
 22 43  1  0  0  0  0 
 22 44  1  0  0  0  0 
 23 45  1  0  0  0  0 
 23 46  1  0  0  0  0 
 24 47  1  0  0  0  0 
 24 48  1  0  0  0  0 
 24 49  1  0  0  0  0 
 25 50  1  0  0  0  0 
M  END
> <cdk:Title>
methylergometrine

> <Conformer>
1

> <SuperDrugID>
SD001564

$$$$
