lividomycin
  CDK     0628171801

107111  0  0  0  0  0  0  0  0999 V2000
    0.7219   -5.1139   -6.7970 O   0  0  0  0  0  0  0  0  0  0  0  0
   -0.4011   -5.3515   -7.6782 C   0  0  2  0  0  0  0  0  0  0  0  0
    1.2917   -6.1743   -5.9948 C   0  0  1  0  0  0  0  0  0  0  0  0
   -0.2193   -6.3983   -8.8110 C   0  0  1  0  0  0  0  0  0  0  0  0
   -0.6983   -4.0717   -8.4827 C   0  0  1  0  0  0  0  0  0  0  0  0
    2.6356   -5.7556   -5.6548 O   0  0  0  0  0  0  0  0  0  0  0  0
    0.5476   -6.5943   -4.6907 C   0  0  2  0  0  0  0  0  0  0  0  0
   -0.9604   -7.7338   -8.5583 C   0  0  2  0  0  0  0  0  0  0  0  0
   -0.6862   -5.8309  -10.0444 O   0  0  0  0  0  0  0  0  0  0  0  0
    0.5013   -3.3723   -8.8075 O   0  0  0  0  0  0  0  0  0  0  0  0
   -1.3625   -4.5998   -9.7685 C   0  0  1  0  0  0  0  0  0  0  0  0
    2.7913   -4.6828   -4.6867 C   0  0  1  0  0  0  0  0  0  0  0  0
   -0.8364   -7.0214   -4.9231 N   0  0  1  0  0  0  0  0  0  0  0  0
    0.6031   -5.4729   -3.6189 C   0  0  2  0  0  0  0  0  0  0  0  0
   -0.7560   -8.6366   -9.6390 O   0  0  0  0  0  0  0  0  0  0  0  0
   -2.7858   -4.7520   -9.5737 O   0  0  0  0  0  0  0  0  0  0  0  0
    2.4474   -3.2723   -5.2507 C   0  0  1  0  0  0  0  0  0  0  0  0
    2.0685   -5.0315   -3.3468 C   0  0  2  0  0  0  0  0  0  0  0  0
    0.0159   -5.9297   -2.3986 O   0  0  0  0  0  0  0  0  0  0  0  0
   -3.5745   -5.5037  -10.5273 C   0  0  1  0  0  0  0  0  0  0  0  0
    3.0706   -3.0594   -6.5616 N   0  0  1  0  0  0  0  0  0  0  0  0
    2.0313   -3.9637   -2.3665 O   0  0  0  0  0  0  0  0  0  0  0  0
   -4.9926   -5.6574   -9.8820 C   0  0  2  0  0  0  0  0  0  0  0  0
   -3.6583   -4.8065  -11.9258 C   0  0  1  0  0  0  0  0  0  0  0  0
    3.2629   -3.5180   -1.7401 C   0  0  1  0  0  0  0  0  0  0  0  0
   -4.9770   -6.4727   -8.6837 O   0  0  0  0  0  0  0  0  0  0  0  0
   -5.9966   -6.3463  -10.8501 C   0  0  1  0  0  0  0  0  0  0  0  0
   -2.3905   -4.8767  -12.5795 O   0  0  0  0  0  0  0  0  0  0  0  0
   -4.7185   -5.4432  -12.8718 C   0  0  1  0  0  0  0  0  0  0  0  0
    2.9773   -2.3555   -0.9245 O   0  0  0  0  0  0  0  0  0  0  0  0
    3.9927   -4.5768   -0.8638 C   0  0  1  0  0  0  0  0  0  0  0  0
   -4.6731   -5.8445   -7.4194 C   0  0  1  0  0  0  0  0  0  0  0  0
   -7.3324   -6.4309  -10.2354 N   0  0  2  0  0  0  0  0  0  0  0  0
   -6.1062   -5.5784  -12.1910 C   0  0  1  0  0  0  0  0  0  0  0  0
   -4.8545   -4.6491  -14.1034 N   0  0  1  0  0  0  0  0  0  0  0  0
    2.1275   -2.5822    0.2301 C   0  0  2  0  0  0  0  0  0  0  0  0
    5.2485   -4.0547   -0.4262 O   0  0  0  0  0  0  0  0  0  0  0  0
    3.1150   -4.9521    0.3572 C   0  0  2  0  0  0  0  0  0  0  0  0
   -5.5052   -4.6847   -7.1723 O   0  0  0  0  0  0  0  0  0  0  0  0
   -4.8686   -6.8804   -6.2843 C   0  0  2  0  0  0  0  0  0  0  0  0
    1.9622   -1.2374    0.9852 C   0  0  2  0  0  0  0  0  0  0  0  0
    2.7137   -3.6879    1.1643 C   0  0  2  0  0  0  0  0  0  0  0  0
    3.8200   -5.8703    1.1919 O   0  0  0  0  0  0  0  0  0  0  0  0
   -5.2394   -3.9562   -5.9476 C   0  0  2  0  0  0  0  0  0  0  0  0
   -6.2411   -7.4093   -6.2969 N   0  0  2  0  0  0  0  0  0  0  0  0
   -4.5482   -6.2204   -4.9147 C   0  0  2  0  0  0  0  0  0  0  0  0
    1.4164   -0.2359    0.1351 O   0  0  0  0  0  0  0  0  0  0  0  0
    1.7702   -4.0631    2.1690 O   0  0  0  0  0  0  0  0  0  0  0  0
   -3.9435   -3.1042   -6.0192 C   0  0  2  0  0  0  0  0  0  0  0  0
   -5.3142   -4.8879   -4.6961 C   0  0  2  0  0  0  0  0  0  0  0  0
   -3.8993   -2.3631   -7.2372 O   0  0  0  0  0  0  0  0  0  0  0  0
   -6.6795   -5.1774   -4.3944 O   0  0  0  0  0  0  0  0  0  0  0  0
    1.4186   -7.0650   -6.6123 H   0  0  0  0  0  0  0  0  0  0  0  0
    3.9559   -3.1805   -2.5125 H   0  0  0  0  0  0  0  0  0  0  0  0
   -3.1556   -6.5075  -10.6513 H   0  0  0  0  0  0  0  0  0  0  0  0
   -3.6238   -5.5647   -7.4275 H   0  0  0  0  0  0  0  0  0  0  0  0
   -1.2819   -5.5846   -7.0814 H   0  0  0  0  0  0  0  0  0  0  0  0
    0.8436   -6.6068   -8.9459 H   0  0  0  0  0  0  0  0  0  0  0  0
   -1.3540   -3.3926   -7.9327 H   0  0  0  0  0  0  0  0  0  0  0  0
    1.0715   -7.4676   -4.2866 H   0  0  0  0  0  0  0  0  0  0  0  0
   -2.0338   -7.5572   -8.4562 H   0  0  0  0  0  0  0  0  0  0  0  0
   -0.5954   -8.1998   -7.6424 H   0  0  0  0  0  0  0  0  0  0  0  0
    0.2079   -2.6030   -9.3364 H   0  0  0  0  0  0  0  0  0  0  0  0
   -1.1944   -3.8973  -10.5873 H   0  0  0  0  0  0  0  0  0  0  0  0
    3.8626   -4.6701   -4.4755 H   0  0  0  0  0  0  0  0  0  0  0  0
   -1.1877   -7.3762   -4.0289 H   0  0  0  0  0  0  0  0  0  0  0  0
   -1.3716   -6.1779   -5.1346 H   0  0  0  0  0  0  0  0  0  0  0  0
    0.0173   -4.6154   -3.9608 H   0  0  0  0  0  0  0  0  0  0  0  0
   -1.2767   -9.4312   -9.3990 H   0  0  0  0  0  0  0  0  0  0  0  0
    1.3709   -3.1358   -5.3497 H   0  0  0  0  0  0  0  0  0  0  0  0
    2.8163   -2.4962   -4.5801 H   0  0  0  0  0  0  0  0  0  0  0  0
    2.5684   -5.9011   -2.9158 H   0  0  0  0  0  0  0  0  0  0  0  0
    0.5715   -6.6848   -2.1108 H   0  0  0  0  0  0  0  0  0  0  0  0
    2.8577   -2.0984   -6.8408 H   0  0  0  0  0  0  0  0  0  0  0  0
    4.0832   -3.1089   -6.4254 H   0  0  0  0  0  0  0  0  0  0  0  0
   -5.3873   -4.6579   -9.6721 H   0  0  0  0  0  0  0  0  0  0  0  0
   -3.9028   -3.7510  -11.7694 H   0  0  0  0  0  0  0  0  0  0  0  0
   -5.6621   -7.3685  -11.0492 H   0  0  0  0  0  0  0  0  0  0  0  0
   -2.5044   -4.3751  -13.4128 H   0  0  0  0  0  0  0  0  0  0  0  0
   -4.3750   -6.4411  -13.1625 H   0  0  0  0  0  0  0  0  0  0  0  0
    4.2167   -5.4734   -1.4424 H   0  0  0  0  0  0  0  0  0  0  0  0
   -7.2308   -6.9699   -9.3727 H   0  0  0  0  0  0  0  0  0  0  0  0
   -7.9163   -6.9860  -10.8648 H   0  0  0  0  0  0  0  0  0  0  0  0
   -6.7805   -6.1162  -12.8625 H   0  0  0  0  0  0  0  0  0  0  0  0
   -6.5325   -4.5868  -12.0125 H   0  0  0  0  0  0  0  0  0  0  0  0
   -5.5435   -5.1210  -14.6933 H   0  0  0  0  0  0  0  0  0  0  0  0
   -5.2575   -3.7477  -13.8391 H   0  0  0  0  0  0  0  0  0  0  0  0
    1.1356   -2.8956   -0.1131 H   0  0  0  0  0  0  0  0  0  0  0  0
    5.7472   -3.8655   -1.2490 H   0  0  0  0  0  0  0  0  0  0  0  0
    2.2101   -5.4557    0.0031 H   0  0  0  0  0  0  0  0  0  0  0  0
   -4.1872   -7.7199   -6.4424 H   0  0  0  0  0  0  0  0  0  0  0  0
    2.9292   -0.8880    1.3541 H   0  0  0  0  0  0  0  0  0  0  0  0
    1.2889   -1.3600    1.8357 H   0  0  0  0  0  0  0  0  0  0  0  0
    3.6052   -3.3039    1.6695 H   0  0  0  0  0  0  0  0  0  0  0  0
    3.2059   -6.0665    1.9296 H   0  0  0  0  0  0  0  0  0  0  0  0
   -6.0550   -3.2339   -5.8654 H   0  0  0  0  0  0  0  0  0  0  0  0
   -6.2772   -8.1666   -5.6105 H   0  0  0  0  0  0  0  0  0  0  0  0
   -6.3928   -7.8329   -7.2143 H   0  0  0  0  0  0  0  0  0  0  0  0
   -3.4763   -6.0140   -4.8664 H   0  0  0  0  0  0  0  0  0  0  0  0
   -4.7738   -6.9208   -4.1053 H   0  0  0  0  0  0  0  0  0  0  0  0
    1.3413    0.5599    0.7032 H   0  0  0  0  0  0  0  0  0  0  0  0
    1.6257   -3.2562    2.7059 H   0  0  0  0  0  0  0  0  0  0  0  0
   -3.0593   -3.7374   -5.9492 H   0  0  0  0  0  0  0  0  0  0  0  0
   -3.9151   -2.3931   -5.1924 H   0  0  0  0  0  0  0  0  0  0  0  0
   -4.9011   -4.3810   -3.8191 H   0  0  0  0  0  0  0  0  0  0  0  0
   -3.0733   -1.8383   -7.1876 H   0  0  0  0  0  0  0  0  0  0  0  0
   -7.0860   -4.3054   -4.2055 H   0  0  0  0  0  0  0  0  0  0  0  0
  3  1  1  0  0  0  0 
  2  1  1  0  0  0  0 
  2  4  1  0  0  0  0 
  5  2  1  0  0  0  0 
  3  6  1  0  0  0  0 
  7  3  1  0  0  0  0 
  3 53  1  0  0  0  0 
  4  8  1  0  0  0  0 
  4  9  1  0  0  0  0 
  5 10  1  0  0  0  0 
 11  5  1  0  0  0  0 
 12  6  1  0  0  0  0 
  7 13  1  0  0  0  0 
 14  7  1  0  0  0  0 
  8 15  1  0  0  0  0 
 11  9  1  0  0  0  0 
 11 16  1  0  0  0  0 
 12 17  1  0  0  0  0 
 18 12  1  0  0  0  0 
 18 14  1  0  0  0  0 
 14 19  1  0  0  0  0 
 20 16  1  0  0  0  0 
 17 21  1  0  0  0  0 
 18 22  1  0  0  0  0 
 20 23  1  0  0  0  0 
 24 20  1  0  0  0  0 
 20 55  1  0  0  0  0 
 25 22  1  0  0  0  0 
 23 26  1  0  0  0  0 
 23 27  1  0  0  0  0 
 24 28  1  0  0  0  0 
 29 24  1  0  0  0  0 
 25 30  1  0  0  0  0 
 31 25  1  0  0  0  0 
 25 54  1  0  0  0  0 
 32 26  1  0  0  0  0 
 27 33  1  0  0  0  0 
 27 34  1  0  0  0  0 
 29 34  1  0  0  0  0 
 29 35  1  0  0  0  0 
 36 30  1  0  0  0  0 
 31 37  1  0  0  0  0 
 31 38  1  0  0  0  0 
 32 39  1  0  0  0  0 
 32 40  1  0  0  0  0 
 32 56  1  0  0  0  0 
 36 41  1  0  0  0  0 
 42 36  1  0  0  0  0 
 38 42  1  0  0  0  0 
 38 43  1  0  0  0  0 
 44 39  1  0  0  0  0 
 40 45  1  0  0  0  0 
 40 46  1  0  0  0  0 
 41 47  1  0  0  0  0 
 42 48  1  0  0  0  0 
 44 49  1  0  0  0  0 
 50 44  1  0  0  0  0 
 50 46  1  0  0  0  0 
 49 51  1  0  0  0  0 
 50 52  1  0  0  0  0 
  2 57  1  0  0  0  0 
  4 58  1  0  0  0  0 
  5 59  1  0  0  0  0 
  7 60  1  0  0  0  0 
  8 61  1  0  0  0  0 
  8 62  1  0  0  0  0 
 10 63  1  0  0  0  0 
 11 64  1  0  0  0  0 
 12 65  1  0  0  0  0 
 13 66  1  0  0  0  0 
 13 67  1  0  0  0  0 
 14 68  1  0  0  0  0 
 15 69  1  0  0  0  0 
 17 70  1  0  0  0  0 
 17 71  1  0  0  0  0 
 18 72  1  0  0  0  0 
 19 73  1  0  0  0  0 
 21 74  1  0  0  0  0 
 21 75  1  0  0  0  0 
 23 76  1  0  0  0  0 
 24 77  1  0  0  0  0 
 27 78  1  0  0  0  0 
 28 79  1  0  0  0  0 
 29 80  1  0  0  0  0 
 31 81  1  0  0  0  0 
 33 82  1  0  0  0  0 
 33 83  1  0  0  0  0 
 34 84  1  0  0  0  0 
 34 85  1  0  0  0  0 
 35 86  1  0  0  0  0 
 35 87  1  0  0  0  0 
 36 88  1  0  0  0  0 
 37 89  1  0  0  0  0 
 38 90  1  0  0  0  0 
 40 91  1  0  0  0  0 
 41 92  1  0  0  0  0 
 41 93  1  0  0  0  0 
 42 94  1  0  0  0  0 
 43 95  1  0  0  0  0 
 44 96  1  0  0  0  0 
 45 97  1  0  0  0  0 
 45 98  1  0  0  0  0 
 46 99  1  0  0  0  0 
 46100  1  0  0  0  0 
 47101  1  0  0  0  0 
 48102  1  0  0  0  0 
 49103  1  0  0  0  0 
 49104  1  0  0  0  0 
 50105  1  0  0  0  0 
 51106  1  0  0  0  0 
 52107  1  0  0  0  0 
M  END
> <cdk:Title>
lividomycin

> <Conformer>
1

> <SuperDrugID>
SD001404

$$$$
