encainide
  CDK     0628171801

 54 56  0  0  0  0  0  0  0  0999 V2000
   -0.6106   -1.4403   -0.2303 C   0  0  0  0  0  0  0  0  0  0  0  0
   -0.0942   -1.4885    1.1100 O   0  0  0  0  0  0  0  0  0  0  0  0
   -0.4958   -0.4459    1.9046 C   0  0  0  0  0  0  0  0  0  0  0  0
    0.2099    0.7718    1.8924 C   0  0  0  0  0  0  0  0  0  0  0  0
   -0.1525    1.8131    2.7659 C   0  0  0  0  0  0  0  0  0  0  0  0
   -1.2267    1.6719    3.6834 C   0  0  0  0  0  0  0  0  0  0  0  0
   -1.9374    0.4442    3.6685 C   0  0  0  0  0  0  0  0  0  0  0  0
   -1.5761   -0.6008    2.7946 C   0  0  0  0  0  0  0  0  0  0  0  0
   -1.5528    2.7247    4.5957 C   0  0  0  0  0  0  0  0  0  0  0  0
   -0.7117    3.6391    4.7793 O   0  0  0  0  0  0  0  0  0  0  0  0
   -2.7346    2.7283    5.2952 N   0  0  0  0  0  0  0  0  0  0  0  0
   -3.1889    3.6338    6.2233 C   0  0  0  0  0  0  0  0  0  0  0  0
   -2.8528    5.0112    6.1599 C   0  0  0  0  0  0  0  0  0  0  0  0
   -3.2551    5.9053    7.1657 C   0  0  0  0  0  0  0  0  0  0  0  0
   -4.0054    5.4382    8.2538 C   0  0  0  0  0  0  0  0  0  0  0  0
   -4.3983    4.0913    8.3051 C   0  0  0  0  0  0  0  0  0  0  0  0
   -4.0445    3.1852    7.2741 C   0  0  0  0  0  0  0  0  0  0  0  0
   -4.6119    1.8017    7.3245 C   0  0  2  0  0  0  0  0  0  0  0  0
   -3.6451    0.7414    7.9266 C   0  0  2  0  0  0  0  0  0  0  0  0
   -4.2790   -0.6730    8.1837 C   0  0  2  0  0  0  0  0  0  0  0  0
   -4.5098   -1.4074    6.8214 C   0  0  2  0  0  0  0  0  0  0  0  0
   -5.1579   -2.7992    7.0031 C   0  0  2  0  0  0  0  0  0  0  0  0
   -6.4666   -2.6763    7.8135 C   0  0  2  0  0  0  0  0  0  0  0  0
   -6.1823   -2.0083    9.1775 C   0  0  2  0  0  0  0  0  0  0  0  0
   -5.5355   -0.6604    9.0312 N   0  0  1  0  0  0  0  0  0  0  0  0
   -5.3729   -0.0274   10.3780 C   0  0  0  0  0  0  0  0  0  0  0  0
   -3.5236   -1.2565    8.7237 H   0  0  0  0  0  0  0  0  0  0  0  0
   -0.3167   -0.5220   -0.7435 H   0  0  0  0  0  0  0  0  0  0  0  0
   -0.1938   -2.2853   -0.7800 H   0  0  0  0  0  0  0  0  0  0  0  0
   -1.6986   -1.5286   -0.2387 H   0  0  0  0  0  0  0  0  0  0  0  0
    0.9963    0.9011    1.2521 H   0  0  0  0  0  0  0  0  0  0  0  0
    0.3880    2.6802    2.7241 H   0  0  0  0  0  0  0  0  0  0  0  0
   -2.7188    0.2826    4.3061 H   0  0  0  0  0  0  0  0  0  0  0  0
   -2.0950   -1.4815    2.8182 H   0  0  0  0  0  0  0  0  0  0  0  0
   -3.3087    1.9659    5.1450 H   0  0  0  0  0  0  0  0  0  0  0  0
   -2.3187    5.3873    5.3729 H   0  0  0  0  0  0  0  0  0  0  0  0
   -3.0029    6.8945    7.1044 H   0  0  0  0  0  0  0  0  0  0  0  0
   -4.2803    6.0814    8.9999 H   0  0  0  0  0  0  0  0  0  0  0  0
   -4.9582    3.7783    9.1036 H   0  0  0  0  0  0  0  0  0  0  0  0
   -4.9136    1.5065    6.3182 H   0  0  0  0  0  0  0  0  0  0  0  0
   -5.5349    1.8055    7.9094 H   0  0  0  0  0  0  0  0  0  0  0  0
   -3.2502    1.1221    8.8713 H   0  0  0  0  0  0  0  0  0  0  0  0
   -2.7850    0.6318    7.2600 H   0  0  0  0  0  0  0  0  0  0  0  0
   -3.5558   -1.5364    6.3030 H   0  0  0  0  0  0  0  0  0  0  0  0
   -5.1613   -0.8150    6.1758 H   0  0  0  0  0  0  0  0  0  0  0  0
   -4.4629   -3.4653    7.5230 H   0  0  0  0  0  0  0  0  0  0  0  0
   -5.3740   -3.2362    6.0251 H   0  0  0  0  0  0  0  0  0  0  0  0
   -6.8966   -3.6693    7.9712 H   0  0  0  0  0  0  0  0  0  0  0  0
   -7.1936   -2.0756    7.2582 H   0  0  0  0  0  0  0  0  0  0  0  0
   -5.5462   -2.6723    9.7731 H   0  0  0  0  0  0  0  0  0  0  0  0
   -7.1414   -1.9117    9.6959 H   0  0  0  0  0  0  0  0  0  0  0  0
   -4.5973   -0.5351   10.9559 H   0  0  0  0  0  0  0  0  0  0  0  0
   -6.3061   -0.0625   10.9449 H   0  0  0  0  0  0  0  0  0  0  0  0
   -5.1106    1.0251   10.2893 H   0  0  0  0  0  0  0  0  0  0  0  0
  1  2  1  0  0  0  0 
  2  3  1  0  0  0  0 
  3  4  2  0  0  0  0 
  4  5  1  0  0  0  0 
  5  6  2  0  0  0  0 
  6  7  1  0  0  0  0 
  7  8  2  0  0  0  0 
  3  8  1  0  0  0  0 
  6  9  1  0  0  0  0 
  9 10  2  0  0  0  0 
  9 11  1  0  0  0  0 
 11 12  1  0  0  0  0 
 12 13  2  0  0  0  0 
 13 14  1  0  0  0  0 
 14 15  2  0  0  0  0 
 15 16  1  0  0  0  0 
 16 17  2  0  0  0  0 
 12 17  1  0  0  0  0 
 17 18  1  0  0  0  0 
 18 19  1  0  0  0  0 
 20 19  1  0  0  0  0 
 20 21  1  0  0  0  0 
 21 22  1  0  0  0  0 
 22 23  1  0  0  0  0 
 23 24  1  0  0  0  0 
 24 25  1  0  0  0  0 
 20 25  1  0  0  0  0 
 25 26  1  0  0  0  0 
 20 27  1  0  0  0  0 
  1 28  1  0  0  0  0 
  1 29  1  0  0  0  0 
  1 30  1  0  0  0  0 
  4 31  1  0  0  0  0 
  5 32  1  0  0  0  0 
  7 33  1  0  0  0  0 
  8 34  1  0  0  0  0 
 11 35  1  0  0  0  0 
 13 36  1  0  0  0  0 
 14 37  1  0  0  0  0 
 15 38  1  0  0  0  0 
 16 39  1  0  0  0  0 
 18 40  1  0  0  0  0 
 18 41  1  0  0  0  0 
 19 42  1  0  0  0  0 
 19 43  1  0  0  0  0 
 21 44  1  0  0  0  0 
 21 45  1  0  0  0  0 
 22 46  1  0  0  0  0 
 22 47  1  0  0  0  0 
 23 48  1  0  0  0  0 
 23 49  1  0  0  0  0 
 24 50  1  0  0  0  0 
 24 51  1  0  0  0  0 
 26 52  1  0  0  0  0 
 26 53  1  0  0  0  0 
 26 54  1  0  0  0  0 
M  END
> <cdk:Title>
encainide

> <Conformer>
1

> <SuperDrugID>
SD000895

$$$$
