tinofedrine
  CDK     0628171801

 45 47  0  0  0  0  0  0  0  0999 V2000
    7.1762    2.1694    1.4748 C   0  0  0  0  0  0  0  0  0  0  0  0
    6.3868    1.8354    0.4251 C   0  0  0  0  0  0  0  0  0  0  0  0
    5.6306    2.7362   -0.4284 C   0  0  2  0  0  0  0  0  0  0  0  0
    4.2079    2.6463   -0.0291 N   0  0  2  0  0  0  0  0  0  0  0  0
    3.2776    3.6506   -0.6090 C   0  0  2  0  0  0  0  0  0  0  0  0
    1.9644    3.6944    0.2350 C   0  0  2  0  0  0  0  0  0  0  0  0
    2.2724    4.1607    1.5507 O   0  0  0  0  0  0  0  0  0  0  0  0
    1.2187    2.3994    0.3055 C   0  0  0  0  0  0  0  0  0  0  0  0
    0.1341    2.1417   -0.5709 C   0  0  0  0  0  0  0  0  0  0  0  0
   -0.5779    0.9289   -0.5046 C   0  0  0  0  0  0  0  0  0  0  0  0
   -0.2237   -0.0449    0.4444 C   0  0  0  0  0  0  0  0  0  0  0  0
    0.8460    0.1921    1.3241 C   0  0  0  0  0  0  0  0  0  0  0  0
    1.5616    1.4020    1.2537 C   0  0  0  0  0  0  0  0  0  0  0  0
    3.0172    3.3831   -2.1158 C   0  0  0  0  0  0  0  0  0  0  0  0
    7.8569    1.1726    2.1934 C   0  0  0  0  0  0  0  0  0  0  0  0
    8.4756    0.0411    1.6002 C   0  0  0  0  0  0  0  0  0  0  0  0
    9.1014   -0.8573    2.4688 C   0  0  0  0  0  0  0  0  0  0  0  0
    8.8880   -0.2235    4.0872 S   0  0  0  0  0  0  0  0  0  0  0  0
    7.9846    1.1975    3.5956 C   0  0  0  0  0  0  0  0  0  0  0  0
    7.3354    3.4947    1.8844 C   0  0  0  0  0  0  0  0  0  0  0  0
    6.2760    4.3142    2.3479 C   0  0  0  0  0  0  0  0  0  0  0  0
    6.6206    5.6261    2.6855 C   0  0  0  0  0  0  0  0  0  0  0  0
    8.3477    5.7774    2.4288 S   0  0  0  0  0  0  0  0  0  0  0  0
    8.5865    4.1335    1.8685 C   0  0  0  0  0  0  0  0  0  0  0  0
    6.2861    0.8721    0.1946 H   0  0  0  0  0  0  0  0  0  0  0  0
    5.7469    2.4153   -1.4659 H   0  0  0  0  0  0  0  0  0  0  0  0
    5.9909    3.7633   -0.3621 H   0  0  0  0  0  0  0  0  0  0  0  0
    4.1841    2.7819    0.9829 H   0  0  0  0  0  0  0  0  0  0  0  0
    3.7335    4.6431   -0.5290 H   0  0  0  0  0  0  0  0  0  0  0  0
    1.3117    4.4621   -0.1910 H   0  0  0  0  0  0  0  0  0  0  0  0
    1.4191    4.1604    2.0311 H   0  0  0  0  0  0  0  0  0  0  0  0
   -0.1448    2.8369   -1.2689 H   0  0  0  0  0  0  0  0  0  0  0  0
   -1.3547    0.7550   -1.1471 H   0  0  0  0  0  0  0  0  0  0  0  0
   -0.7429   -0.9235    0.4950 H   0  0  0  0  0  0  0  0  0  0  0  0
    1.1019   -0.5151    2.0174 H   0  0  0  0  0  0  0  0  0  0  0  0
    2.3335    1.5527    1.9088 H   0  0  0  0  0  0  0  0  0  0  0  0
    2.2762    4.0825   -2.5072 H   0  0  0  0  0  0  0  0  0  0  0  0
    2.6592    2.3646   -2.2716 H   0  0  0  0  0  0  0  0  0  0  0  0
    3.9354    3.5191   -2.6891 H   0  0  0  0  0  0  0  0  0  0  0  0
    8.4755   -0.1216    0.5913 H   0  0  0  0  0  0  0  0  0  0  0  0
    9.5887   -1.7170    2.2123 H   0  0  0  0  0  0  0  0  0  0  0  0
    7.6117    1.9051    4.2326 H   0  0  0  0  0  0  0  0  0  0  0  0
    5.3142    3.9777    2.4299 H   0  0  0  0  0  0  0  0  0  0  0  0
    5.9904    6.3591    3.0190 H   0  0  0  0  0  0  0  0  0  0  0  0
    9.4779    3.7288    1.5708 H   0  0  0  0  0  0  0  0  0  0  0  0
  1  2  2  0  0  0  0 
  1 15  1  0  0  0  0 
  1 20  1  0  0  0  0 
  2  3  1  0  0  0  0 
  3  4  1  0  0  0  0 
  5  4  1  0  0  0  0 
  6  5  1  0  0  0  0 
  5 14  1  0  0  0  0 
  6  7  1  0  0  0  0 
  6  8  1  0  0  0  0 
  8  9  2  0  0  0  0 
  8 13  1  0  0  0  0 
  9 10  1  0  0  0  0 
 10 11  2  0  0  0  0 
 12 11  1  0  0  0  0 
 13 12  2  0  0  0  0 
 15 16  1  0  0  0  0 
 15 19  2  0  0  0  0 
 16 17  2  0  0  0  0 
 17 18  1  0  0  0  0 
 19 18  1  0  0  0  0 
 20 21  1  0  0  0  0 
 20 24  2  0  0  0  0 
 21 22  2  0  0  0  0 
 22 23  1  0  0  0  0 
 24 23  1  0  0  0  0 
  2 25  1  0  0  0  0 
  3 26  1  0  0  0  0 
  3 27  1  0  0  0  0 
  4 28  1  0  0  0  0 
  5 29  1  0  0  0  0 
  6 30  1  0  0  0  0 
  7 31  1  0  0  0  0 
  9 32  1  0  0  0  0 
 10 33  1  0  0  0  0 
 11 34  1  0  0  0  0 
 12 35  1  0  0  0  0 
 13 36  1  0  0  0  0 
 14 37  1  0  0  0  0 
 14 38  1  0  0  0  0 
 14 39  1  0  0  0  0 
 16 40  1  0  0  0  0 
 17 41  1  0  0  0  0 
 19 42  1  0  0  0  0 
 21 43  1  0  0  0  0 
 22 44  1  0  0  0  0 
 24 45  1  0  0  0  0 
M  END
> <cdk:Title>
tinofedrine

> <Conformer>
1

> <SuperDrugID>
SD003277

$$$$
