cridanimod
  CDK     0628171802

 30 32  0  0  0  0  0  0  0  0999 V2000
    1.4634    0.4612    2.1701 C   0  0  0  0  0  0  0  0  0  0  0  0
    2.2436    1.5755    1.8479 C   0  0  0  0  0  0  0  0  0  0  0  0
    1.7413    2.5309    0.9559 C   0  0  0  0  0  0  0  0  0  0  0  0
    0.4444    2.3972    0.3915 C   0  0  0  0  0  0  0  0  0  0  0  0
   -0.3869    1.2824    0.7287 C   0  0  0  0  0  0  0  0  0  0  0  0
    0.1850    0.3126    1.6086 C   0  0  0  0  0  0  0  0  0  0  0  0
   -0.0449    3.3722   -0.5037 C   0  0  0  0  0  0  0  0  0  0  0  0
   -1.3154    3.2258   -1.0990 C   0  0  0  0  0  0  0  0  0  0  0  0
   -2.1095    2.0840   -0.7676 C   0  0  0  0  0  0  0  0  0  0  0  0
   -1.6768    1.1867    0.2067 N   0  0  0  0  0  0  0  0  0  0  0  0
   -1.7996    4.2021   -2.0117 C   0  0  0  0  0  0  0  0  0  0  0  0
   -3.0486    4.0550   -2.6291 C   0  0  0  0  0  0  0  0  0  0  0  0
   -3.8097    2.9086   -2.3786 C   0  0  0  0  0  0  0  0  0  0  0  0
   -3.3390    1.9393   -1.4787 C   0  0  0  0  0  0  0  0  0  0  0  0
    0.6594    4.3752   -0.7824 O   0  0  0  0  0  0  0  0  0  0  0  0
   -2.6109    0.1760    0.7206 C   0  0  2  0  0  0  0  0  0  0  0  0
   -2.6314   -1.0635   -0.0815 C   0  0  0  0  0  0  0  0  0  0  0  0
   -3.7990   -1.5534   -0.5596 O   0  0  0  0  0  0  0  0  0  0  0  0
   -1.5806   -1.7021   -0.3119 O   0  0  0  0  0  0  0  0  0  0  0  0
    1.8292   -0.2454    2.8131 H   0  0  0  0  0  0  0  0  0  0  0  0
    3.1754    1.6874    2.2555 H   0  0  0  0  0  0  0  0  0  0  0  0
    2.3411    3.3270    0.7240 H   0  0  0  0  0  0  0  0  0  0  0  0
   -0.3091   -0.5387    1.8677 H   0  0  0  0  0  0  0  0  0  0  0  0
   -1.2498    5.0358   -2.2404 H   0  0  0  0  0  0  0  0  0  0  0  0
   -3.3925    4.7731   -3.2703 H   0  0  0  0  0  0  0  0  0  0  0  0
   -4.7065    2.7746   -2.8522 H   0  0  0  0  0  0  0  0  0  0  0  0
   -3.9299    1.1150   -1.3673 H   0  0  0  0  0  0  0  0  0  0  0  0
   -3.6233    0.5794    0.7906 H   0  0  0  0  0  0  0  0  0  0  0  0
   -2.4130   -0.0897    1.7587 H   0  0  0  0  0  0  0  0  0  0  0  0
   -3.8107   -2.3934   -1.0648 H   0  0  0  0  0  0  0  0  0  0  0  0
  1  2  2  0  0  0  0 
  1  6  1  0  0  0  0 
  2  3  1  0  0  0  0 
  3  4  2  0  0  0  0 
  5  6  2  0  0  0  0 
  5 10  1  0  0  0  0 
  4  5  1  0  0  0  0 
  4  7  1  0  0  0  0 
  7  8  1  0  0  0  0 
  9 10  1  0  0  0  0 
  9 14  2  0  0  0  0 
  9  8  1  0  0  0  0 
  8 11  2  0  0  0  0 
 11 12  1  0  0  0  0 
 12 13  2  0  0  0  0 
 13 14  1  0  0  0  0 
  7 15  2  0  0  0  0 
 10 16  1  0  0  0  0 
 16 17  1  0  0  0  0 
 17 18  1  0  0  0  0 
 17 19  2  0  0  0  0 
  1 20  1  0  0  0  0 
  2 21  1  0  0  0  0 
  3 22  1  0  0  0  0 
  6 23  1  0  0  0  0 
 11 24  1  0  0  0  0 
 12 25  1  0  0  0  0 
 13 26  1  0  0  0  0 
 14 27  1  0  0  0  0 
 16 28  1  0  0  0  0 
 16 29  1  0  0  0  0 
 18 30  1  0  0  0  0 
M  END
> <cdk:Title>
cridanimod

> <Conformer>
1

> <SuperDrugID>
SD003800

$$$$
