levocetirizine
  CDK     0628171801

 52 54  0  0  0  0  0  0  0  0999 V2000
    2.0780   -1.0552   -1.6304 C   0  0  1  0  0  0  0  0  0  0  0  0
    3.2366   -0.4007   -2.3526 N   0  0  1  0  0  0  0  0  0  0  0  0
    2.3001   -2.5092   -1.3200 C   0  0  0  0  0  0  0  0  0  0  0  0
    1.6702   -0.3552   -0.3647 C   0  0  0  0  0  0  0  0  0  0  0  0
    3.6640   -1.1088   -3.6073 C   0  0  1  0  0  0  0  0  0  0  0  0
    3.0349    1.0588   -2.6448 C   0  0  1  0  0  0  0  0  0  0  0  0
    1.3316   -3.4802   -1.6781 C   0  0  0  0  0  0  0  0  0  0  0  0
    3.4956   -2.9613   -0.7070 C   0  0  0  0  0  0  0  0  0  0  0  0
    2.6235    0.0197    0.6161 C   0  0  0  0  0  0  0  0  0  0  0  0
    0.3119   -0.0202   -0.1335 C   0  0  0  0  0  0  0  0  0  0  0  0
    4.9610   -0.4916   -4.1853 C   0  0  1  0  0  0  0  0  0  0  0  0
    4.3170    1.6961   -3.2321 C   0  0  2  0  0  0  0  0  0  0  0  0
    1.5693   -4.8534   -1.4784 C   0  0  0  0  0  0  0  0  0  0  0  0
    3.7318   -4.3328   -0.4970 C   0  0  0  0  0  0  0  0  0  0  0  0
    2.2350    0.7170    1.7753 C   0  0  0  0  0  0  0  0  0  0  0  0
   -0.0756    0.6859    1.0211 C   0  0  0  0  0  0  0  0  0  0  0  0
    4.8027    0.9722   -4.4491 N   0  0  1  0  0  0  0  0  0  0  0  0
    2.7742   -5.2848   -0.8930 C   0  0  0  0  0  0  0  0  0  0  0  0
    0.8852    1.0513    1.9786 C   0  0  0  0  0  0  0  0  0  0  0  0
    6.0139    1.6395   -5.0348 C   0  0  1  0  0  0  0  0  0  0  0  0
    3.0735   -6.9369   -0.6662 Cl  0  0  0  0  0  0  0  0  0  0  0  0
    6.5032    1.0776   -6.3910 C   0  0  1  0  0  0  0  0  0  0  0  0
    5.4149    1.0316   -7.3358 O   0  0  0  0  0  0  0  0  0  0  0  0
    5.7655    0.4470   -8.6058 C   0  0  2  0  0  0  0  0  0  0  0  0
    4.6417    0.6022   -9.5398 C   0  0  0  0  0  0  0  0  0  0  0  0
    3.9788   -0.4764  -10.0169 O   0  0  0  0  0  0  0  0  0  0  0  0
    4.2848    1.7423   -9.9131 O   0  0  0  0  0  0  0  0  0  0  0  0
    1.2406   -0.9874   -2.3340 H   0  0  0  0  0  0  0  0  0  0  0  0
    3.8728   -2.1629   -3.4143 H   0  0  0  0  0  0  0  0  0  0  0  0
    2.8700   -1.0653   -4.3610 H   0  0  0  0  0  0  0  0  0  0  0  0
    2.2003    1.1989   -3.3405 H   0  0  0  0  0  0  0  0  0  0  0  0
    2.7991    1.6101   -1.7321 H   0  0  0  0  0  0  0  0  0  0  0  0
    0.4444   -3.1941   -2.0988 H   0  0  0  0  0  0  0  0  0  0  0  0
    4.2184   -2.2989   -0.4244 H   0  0  0  0  0  0  0  0  0  0  0  0
    3.6124   -0.1984    0.4898 H   0  0  0  0  0  0  0  0  0  0  0  0
   -0.4104   -0.2847   -0.8078 H   0  0  0  0  0  0  0  0  0  0  0  0
    5.7838   -0.6722   -3.4861 H   0  0  0  0  0  0  0  0  0  0  0  0
    5.1823   -1.0187   -5.1156 H   0  0  0  0  0  0  0  0  0  0  0  0
    5.0901    1.6988   -2.4556 H   0  0  0  0  0  0  0  0  0  0  0  0
    4.0856    2.7346   -3.4867 H   0  0  0  0  0  0  0  0  0  0  0  0
    0.8640   -5.5336   -1.7705 H   0  0  0  0  0  0  0  0  0  0  0  0
    4.6066   -4.6341   -0.0601 H   0  0  0  0  0  0  0  0  0  0  0  0
    2.9351    0.9838    2.4708 H   0  0  0  0  0  0  0  0  0  0  0  0
   -1.0558    0.9379    1.1616 H   0  0  0  0  0  0  0  0  0  0  0  0
    0.6033    1.5578    2.8221 H   0  0  0  0  0  0  0  0  0  0  0  0
    5.7809    2.6943   -5.2053 H   0  0  0  0  0  0  0  0  0  0  0  0
    6.8468    1.5998   -4.3258 H   0  0  0  0  0  0  0  0  0  0  0  0
    7.2919    1.7348   -6.7704 H   0  0  0  0  0  0  0  0  0  0  0  0
    6.9400    0.0869   -6.2375 H   0  0  0  0  0  0  0  0  0  0  0  0
    5.9918   -0.6149   -8.4763 H   0  0  0  0  0  0  0  0  0  0  0  0
    6.6383    0.9399   -9.0424 H   0  0  0  0  0  0  0  0  0  0  0  0
    3.2401   -0.3583  -10.6504 H   0  0  0  0  0  0  0  0  0  0  0  0
  1  2  1  0  0  0  0 
  1  3  1  0  0  0  0 
  1  4  1  0  0  0  0 
  2  5  1  0  0  0  0 
  2  6  1  0  0  0  0 
  3  7  2  0  0  0  0 
  3  8  1  0  0  0  0 
  4  9  2  0  0  0  0 
  4 10  1  0  0  0  0 
  5 11  1  0  0  0  0 
  6 12  1  0  0  0  0 
  7 13  1  0  0  0  0 
  8 14  2  0  0  0  0 
  9 15  1  0  0  0  0 
 10 16  2  0  0  0  0 
 11 17  1  0  0  0  0 
 12 17  1  0  0  0  0 
 13 18  2  0  0  0  0 
 14 18  1  0  0  0  0 
 15 19  2  0  0  0  0 
 16 19  1  0  0  0  0 
 17 20  1  0  0  0  0 
 18 21  1  0  0  0  0 
 20 22  1  0  0  0  0 
 22 23  1  0  0  0  0 
 23 24  1  0  0  0  0 
 24 25  1  0  0  0  0 
 25 26  1  0  0  0  0 
 25 27  2  0  0  0  0 
  1 28  1  0  0  0  0 
  5 29  1  0  0  0  0 
  5 30  1  0  0  0  0 
  6 31  1  0  0  0  0 
  6 32  1  0  0  0  0 
  7 33  1  0  0  0  0 
  8 34  1  0  0  0  0 
  9 35  1  0  0  0  0 
 10 36  1  0  0  0  0 
 11 37  1  0  0  0  0 
 11 38  1  0  0  0  0 
 12 39  1  0  0  0  0 
 12 40  1  0  0  0  0 
 13 41  1  0  0  0  0 
 14 42  1  0  0  0  0 
 15 43  1  0  0  0  0 
 16 44  1  0  0  0  0 
 19 45  1  0  0  0  0 
 20 46  1  0  0  0  0 
 20 47  1  0  0  0  0 
 22 48  1  0  0  0  0 
 22 49  1  0  0  0  0 
 24 50  1  0  0  0  0 
 24 51  1  0  0  0  0 
 26 52  1  0  0  0  0 
M  END
> <cdk:Title>
levocetirizine

> <Conformer>
1

> <SuperDrugID>
SD001382

$$$$
