quinestradol
  CDK     0628171801

 58 62  0  0  0  0  0  0  0  0999 V2000
    4.8780   -6.2354   -8.0595 C   0  0  0  0  0  0  0  0  0  0  0  0
    6.2130   -5.4979   -7.6581 C   0  0  1  0  0  0  0  0  0  0  0  0
    6.2126   -3.9440   -7.8284 C   0  0  2  0  0  0  0  0  0  0  0  0
    6.5429   -5.7952   -6.1583 C   0  0  2  0  0  0  0  0  0  0  0  0
    7.3405   -5.8717   -8.6754 C   0  0  1  0  0  0  0  0  0  0  0  0
    5.1292   -3.2323   -6.9515 C   0  0  1  0  0  0  0  0  0  0  0  0
    6.2429   -3.7379   -9.3573 C   0  0  2  0  0  0  0  0  0  0  0  0
    5.5792   -5.0669   -5.1678 C   0  0  2  0  0  0  0  0  0  0  0  0
    7.3363   -7.2379   -9.0984 O   0  0  0  0  0  0  0  0  0  0  0  0
    7.1416   -4.8965   -9.8722 C   0  0  1  0  0  0  0  0  0  0  0  0
    5.4250   -3.5233   -5.4312 C   0  0  2  0  0  0  0  0  0  0  0  0
    5.0800   -1.6977   -7.1879 C   0  0  1  0  0  0  0  0  0  0  0  0
    8.4013   -4.4223  -10.3481 O   0  0  0  0  0  0  0  0  0  0  0  0
    4.5102   -2.7576   -4.5037 C   0  0  0  0  0  0  0  0  0  0  0  0
    3.9831   -1.0326   -6.3243 C   0  0  2  0  0  0  0  0  0  0  0  0
    3.9004   -1.5363   -4.9248 C   0  0  0  0  0  0  0  0  0  0  0  0
    4.3154   -3.1614   -3.1565 C   0  0  0  0  0  0  0  0  0  0  0  0
    3.1860   -0.7447   -3.9941 C   0  0  0  0  0  0  0  0  0  0  0  0
    3.6159   -2.3605   -2.2403 C   0  0  0  0  0  0  0  0  0  0  0  0
    3.0822   -1.1260   -2.6449 C   0  0  0  0  0  0  0  0  0  0  0  0
    2.5489   -0.2670   -1.7215 O   0  0  0  0  0  0  0  0  0  0  0  0
    1.1178   -0.3339   -1.5528 C   0  0  1  0  0  0  0  0  0  0  0  0
    0.6357   -1.5816   -0.7836 C   0  0  2  0  0  0  0  0  0  0  0  0
    0.6457    0.8286   -0.6560 C   0  0  2  0  0  0  0  0  0  0  0  0
   -0.6964   -1.1778   -0.1230 C   0  0  2  0  0  0  0  0  0  0  0  0
   -0.6817    0.3632   -0.0239 C   0  0  2  0  0  0  0  0  0  0  0  0
    4.1426   -3.6257   -7.2099 H   0  0  0  0  0  0  0  0  0  0  0  0
    6.4126   -3.1018   -5.2112 H   0  0  0  0  0  0  0  0  0  0  0  0
    7.1761   -3.5476   -7.4728 H   0  0  0  0  0  0  0  0  0  0  0  0
    4.6232   -6.0674   -9.1066 H   0  0  0  0  0  0  0  0  0  0  0  0
    4.9866   -7.3140   -7.9179 H   0  0  0  0  0  0  0  0  0  0  0  0
    4.0282   -5.9165   -7.4579 H   0  0  0  0  0  0  0  0  0  0  0  0
    7.5633   -5.4715   -5.9350 H   0  0  0  0  0  0  0  0  0  0  0  0
    6.5111   -6.8730   -5.9741 H   0  0  0  0  0  0  0  0  0  0  0  0
    8.3201   -5.6869   -8.2198 H   0  0  0  0  0  0  0  0  0  0  0  0
    6.6538   -2.7586   -9.6109 H   0  0  0  0  0  0  0  0  0  0  0  0
    5.2341   -3.8128   -9.7733 H   0  0  0  0  0  0  0  0  0  0  0  0
    5.9952   -5.2373   -4.1715 H   0  0  0  0  0  0  0  0  0  0  0  0
    4.5962   -5.5392   -5.1911 H   0  0  0  0  0  0  0  0  0  0  0  0
    7.4327   -7.7560   -8.2715 H   0  0  0  0  0  0  0  0  0  0  0  0
    6.6397   -5.4102  -10.6969 H   0  0  0  0  0  0  0  0  0  0  0  0
    6.0492   -1.2510   -6.9469 H   0  0  0  0  0  0  0  0  0  0  0  0
    4.8657   -1.4851   -8.2365 H   0  0  0  0  0  0  0  0  0  0  0  0
    8.1901   -3.8650  -11.1265 H   0  0  0  0  0  0  0  0  0  0  0  0
    3.0085   -1.1965   -6.7912 H   0  0  0  0  0  0  0  0  0  0  0  0
    4.1720    0.0457   -6.3207 H   0  0  0  0  0  0  0  0  0  0  0  0
    4.7029   -4.0344   -2.8006 H   0  0  0  0  0  0  0  0  0  0  0  0
    2.7565    0.1367   -4.2881 H   0  0  0  0  0  0  0  0  0  0  0  0
    3.5171   -2.6650   -1.2704 H   0  0  0  0  0  0  0  0  0  0  0  0
    0.6013   -0.2617   -2.5181 H   0  0  0  0  0  0  0  0  0  0  0  0
    1.3613   -1.8443   -0.0083 H   0  0  0  0  0  0  0  0  0  0  0  0
    0.5093   -2.4353   -1.4538 H   0  0  0  0  0  0  0  0  0  0  0  0
    0.5126    1.7471   -1.2340 H   0  0  0  0  0  0  0  0  0  0  0  0
    1.3790    1.0188    0.1341 H   0  0  0  0  0  0  0  0  0  0  0  0
   -0.7888   -1.6360    0.8655 H   0  0  0  0  0  0  0  0  0  0  0  0
   -1.5381   -1.5084   -0.7385 H   0  0  0  0  0  0  0  0  0  0  0  0
   -1.5285    0.7842   -0.5734 H   0  0  0  0  0  0  0  0  0  0  0  0
   -0.7483    0.6891    1.0180 H   0  0  0  0  0  0  0  0  0  0  0  0
  2  1  1  0  0  0  0 
  3  2  1  0  0  0  0 
  2  4  1  0  0  0  0 
  2  5  1  0  0  0  0 
  6  3  1  0  0  0  0 
  3  7  1  0  0  0  0 
  3 29  1  0  0  0  0 
  4  8  1  0  0  0  0 
  5  9  1  0  0  0  0 
  5 10  1  0  0  0  0 
 11  6  1  0  0  0  0 
  6 12  1  0  0  0  0 
  6 27  1  0  0  0  0 
 10  7  1  0  0  0  0 
 11  8  1  0  0  0  0 
 10 13  1  0  0  0  0 
 11 14  1  0  0  0  0 
 11 28  1  0  0  0  0 
 12 15  1  0  0  0  0 
 14 16  2  0  0  0  0 
 14 17  1  0  0  0  0 
 15 16  1  0  0  0  0 
 16 18  1  0  0  0  0 
 17 19  2  0  0  0  0 
 18 20  2  0  0  0  0 
 19 20  1  0  0  0  0 
 20 21  1  0  0  0  0 
 21 22  1  0  0  0  0 
 22 23  1  0  0  0  0 
 22 24  1  0  0  0  0 
 23 25  1  0  0  0  0 
 24 26  1  0  0  0  0 
 25 26  1  0  0  0  0 
  1 30  1  0  0  0  0 
  1 31  1  0  0  0  0 
  1 32  1  0  0  0  0 
  4 33  1  0  0  0  0 
  4 34  1  0  0  0  0 
  5 35  1  0  0  0  0 
  7 36  1  0  0  0  0 
  7 37  1  0  0  0  0 
  8 38  1  0  0  0  0 
  8 39  1  0  0  0  0 
  9 40  1  0  0  0  0 
 10 41  1  0  0  0  0 
 12 42  1  0  0  0  0 
 12 43  1  0  0  0  0 
 13 44  1  0  0  0  0 
 15 45  1  0  0  0  0 
 15 46  1  0  0  0  0 
 17 47  1  0  0  0  0 
 18 48  1  0  0  0  0 
 19 49  1  0  0  0  0 
 22 50  1  0  0  0  0 
 23 51  1  0  0  0  0 
 23 52  1  0  0  0  0 
 24 53  1  0  0  0  0 
 24 54  1  0  0  0  0 
 25 55  1  0  0  0  0 
 25 56  1  0  0  0  0 
 26 57  1  0  0  0  0 
 26 58  1  0  0  0  0 
M  END
> <cdk:Title>
quinestradol

> <Conformer>
1

> <SuperDrugID>
SD002105

$$$$
