fenpentadiol
  CDK     0628171801

 32 32  0  0  0  0  0  0  0  0999 V2000
    0.0074   -0.2474   -2.6137 C   0  0  2  0  0  0  0  0  0  0  0  0
   -0.5518    0.2215   -1.2206 C   0  0  2  0  0  0  0  0  0  0  0  0
   -0.6236    0.5758   -3.7794 C   0  0  0  0  0  0  0  0  0  0  0  0
   -0.4673   -1.5810   -2.8443 O   0  0  0  0  0  0  0  0  0  0  0  0
    1.5132   -0.1675   -2.6596 C   0  0  0  0  0  0  0  0  0  0  0  0
   -0.0353   -0.4925    0.0853 C   0  0  1  0  0  0  0  0  0  0  0  0
    2.3204   -1.3316   -2.7325 C   0  0  0  0  0  0  0  0  0  0  0  0
    2.1787    1.0831   -2.5640 C   0  0  0  0  0  0  0  0  0  0  0  0
   -0.6194    0.2176    1.3420 C   0  0  0  0  0  0  0  0  0  0  0  0
   -0.3822   -2.0100    0.1408 C   0  0  0  0  0  0  0  0  0  0  0  0
    1.3848   -0.3783    0.1983 O   0  0  0  0  0  0  0  0  0  0  0  0
    3.7237   -1.2532   -2.6696 C   0  0  0  0  0  0  0  0  0  0  0  0
    3.5820    1.1661   -2.5117 C   0  0  0  0  0  0  0  0  0  0  0  0
    4.3587   -0.0048   -2.5477 C   0  0  0  0  0  0  0  0  0  0  0  0
    6.0462    0.0865   -2.4423 Cl  0  0  0  0  0  0  0  0  0  0  0  0
   -1.6413    0.1236   -1.2422 H   0  0  0  0  0  0  0  0  0  0  0  0
   -0.3525    1.2923   -1.1215 H   0  0  0  0  0  0  0  0  0  0  0  0
   -0.2365    0.2277   -4.7401 H   0  0  0  0  0  0  0  0  0  0  0  0
   -1.7113    0.4667   -3.7891 H   0  0  0  0  0  0  0  0  0  0  0  0
   -0.4009    1.6391   -3.6860 H   0  0  0  0  0  0  0  0  0  0  0  0
   -1.4454   -1.5348   -2.7725 H   0  0  0  0  0  0  0  0  0  0  0  0
    1.8948   -2.2566   -2.8113 H   0  0  0  0  0  0  0  0  0  0  0  0
    1.6449    1.9530   -2.5145 H   0  0  0  0  0  0  0  0  0  0  0  0
   -0.2410   -0.2442    2.2575 H   0  0  0  0  0  0  0  0  0  0  0  0
   -1.7098    0.1569    1.3481 H   0  0  0  0  0  0  0  0  0  0  0  0
   -0.3296    1.2708    1.3541 H   0  0  0  0  0  0  0  0  0  0  0  0
   -0.1224   -2.4368    1.1119 H   0  0  0  0  0  0  0  0  0  0  0  0
   -1.4495   -2.1690   -0.0275 H   0  0  0  0  0  0  0  0  0  0  0  0
    0.1804   -2.5672   -0.6079 H   0  0  0  0  0  0  0  0  0  0  0  0
    1.5712    0.5837    0.1683 H   0  0  0  0  0  0  0  0  0  0  0  0
    4.2794   -2.1104   -2.7056 H   0  0  0  0  0  0  0  0  0  0  0  0
    4.0320    2.0814   -2.4395 H   0  0  0  0  0  0  0  0  0  0  0  0
  1  2  1  0  0  0  0 
  1  3  1  0  0  0  0 
  1  4  1  0  0  0  0 
  1  5  1  0  0  0  0 
  2  6  1  0  0  0  0 
  5  7  2  0  0  0  0 
  5  8  1  0  0  0  0 
  6  9  1  0  0  0  0 
  6 10  1  0  0  0  0 
  6 11  1  0  0  0  0 
  7 12  1  0  0  0  0 
  8 13  2  0  0  0  0 
 12 14  2  0  0  0  0 
 13 14  1  0  0  0  0 
 14 15  1  0  0  0  0 
  2 16  1  0  0  0  0 
  2 17  1  0  0  0  0 
  3 18  1  0  0  0  0 
  3 19  1  0  0  0  0 
  3 20  1  0  0  0  0 
  4 21  1  0  0  0  0 
  7 22  1  0  0  0  0 
  8 23  1  0  0  0  0 
  9 24  1  0  0  0  0 
  9 25  1  0  0  0  0 
  9 26  1  0  0  0  0 
 10 27  1  0  0  0  0 
 10 28  1  0  0  0  0 
 10 29  1  0  0  0  0 
 11 30  1  0  0  0  0 
 12 31  1  0  0  0  0 
 13 32  1  0  0  0  0 
M  END
> <cdk:Title>
fenpentadiol

> <Conformer>
1

> <SuperDrugID>
SD001035

$$$$
