pentostatin
  CDK     0628171801

 35 37  0  0  0  0  0  0  0  0999 V2000
    0.6536   -0.1280    0.7675 O   0  0  0  0  0  0  0  0  0  0  0  0
   -0.2143    0.6862    1.5559 C   0  0  1  0  0  0  0  0  0  0  0  0
   -1.1917   -0.1394    2.2918 C   0  0  0  0  0  0  0  0  0  0  0  0
    0.6138    1.5450    2.5409 C   0  0  1  0  0  0  0  0  0  0  0  0
   -2.0153    0.2912    3.3351 C   0  0  0  0  0  0  0  0  0  0  0  0
   -1.4408   -1.4366    2.0608 N   0  0  0  0  0  0  0  0  0  0  0  0
   -0.1240    2.5899    3.0941 N   0  0  0  0  0  0  0  0  0  0  0  0
   -2.7620   -0.7718    3.7063 N   0  0  0  0  0  0  0  0  0  0  0  0
   -2.0749    1.5348    3.8984 N   0  0  0  0  0  0  0  0  0  0  0  0
   -2.3974   -1.8064    2.9215 C   0  0  0  0  0  0  0  0  0  0  0  0
   -1.2664    2.5773    3.6867 C   0  0  0  0  0  0  0  0  0  0  0  0
   -3.7556   -0.8026    4.7504 C   0  0  2  0  0  0  0  0  0  0  0  0
   -3.8870   -2.1212    5.3112 O   0  0  0  0  0  0  0  0  0  0  0  0
   -5.1504   -0.3580    4.2563 C   0  0  1  0  0  0  0  0  0  0  0  0
   -5.2360   -2.5838    5.1544 C   0  0  1  0  0  0  0  0  0  0  0  0
   -5.9090   -1.6793    4.0975 C   0  0  1  0  0  0  0  0  0  0  0  0
   -5.2193   -4.0870    4.7898 C   0  0  2  0  0  0  0  0  0  0  0  0
   -7.3091   -1.5100    4.3218 O   0  0  0  0  0  0  0  0  0  0  0  0
   -6.5421   -4.5902    4.6348 O   0  0  0  0  0  0  0  0  0  0  0  0
    1.2221    0.5038    0.2786 H   0  0  0  0  0  0  0  0  0  0  0  0
   -0.7610    1.3403    0.8734 H   0  0  0  0  0  0  0  0  0  0  0  0
    1.0339    0.9177    3.3344 H   0  0  0  0  0  0  0  0  0  0  0  0
    1.4497    1.9977    2.0054 H   0  0  0  0  0  0  0  0  0  0  0  0
   -2.8054    1.6862    4.5199 H   0  0  0  0  0  0  0  0  0  0  0  0
   -2.7883   -2.7494    2.9567 H   0  0  0  0  0  0  0  0  0  0  0  0
   -1.5846    3.4518    4.0289 H   0  0  0  0  0  0  0  0  0  0  0  0
   -3.4364   -0.1555    5.5735 H   0  0  0  0  0  0  0  0  0  0  0  0
   -5.6309    0.2634    5.0189 H   0  0  0  0  0  0  0  0  0  0  0  0
   -5.1149    0.1999    3.3146 H   0  0  0  0  0  0  0  0  0  0  0  0
   -5.7425   -2.4595    6.1174 H   0  0  0  0  0  0  0  0  0  0  0  0
   -5.7521   -2.0713    3.0883 H   0  0  0  0  0  0  0  0  0  0  0  0
   -4.7229   -4.6486    5.5846 H   0  0  0  0  0  0  0  0  0  0  0  0
   -4.6692   -4.2470    3.8597 H   0  0  0  0  0  0  0  0  0  0  0  0
   -7.6956   -2.4073    4.2501 H   0  0  0  0  0  0  0  0  0  0  0  0
   -6.4272   -5.5387    4.4141 H   0  0  0  0  0  0  0  0  0  0  0  0
  2  1  1  0  0  0  0 
  2  3  1  0  0  0  0 
  2  4  1  0  0  0  0 
  3  5  2  0  0  0  0 
  3  6  1  0  0  0  0 
  4  7  1  0  0  0  0 
  5  8  1  0  0  0  0 
  5  9  1  0  0  0  0 
  6 10  2  0  0  0  0 
  7 11  2  0  0  0  0 
  8 10  1  0  0  0  0 
  9 11  1  0  0  0  0 
 12  8  1  0  0  0  0 
 12 13  1  0  0  0  0 
 12 14  1  0  0  0  0 
 15 13  1  0  0  0  0 
 16 14  1  0  0  0  0 
 15 16  1  0  0  0  0 
 15 17  1  0  0  0  0 
 16 18  1  0  0  0  0 
 17 19  1  0  0  0  0 
 20  1  1  0  0  0  0 
  2 21  1  0  0  0  0 
 22  4  1  0  0  0  0 
 23  4  1  0  0  0  0 
 24  9  1  0  0  0  0 
 25 10  1  0  0  0  0 
 26 11  1  0  0  0  0 
 12 27  1  0  0  0  0 
 28 14  1  0  0  0  0 
 29 14  1  0  0  0  0 
 15 30  1  0  0  0  0 
 16 31  1  0  0  0  0 
 32 17  1  0  0  0  0 
 33 17  1  0  0  0  0 
 34 18  1  0  0  0  0 
 35 19  1  0  0  0  0 
M  END
> <cdk:Title>
pentostatin

> <Conformer>
1

> <SuperDrugID>
SD001880

$$$$
