isoxepac
  CDK     0628171801

 32 34  0  0  0  0  0  0  0  0999 V2000
   -9.7884    6.8622   -0.6411 O   0  0  0  0  0  0  0  0  0  0  0  0
   -8.5459    6.9857   -0.4948 C   0  0  0  0  0  0  0  0  0  0  0  0
   -7.7756    5.7772   -0.3088 C   0  0  0  0  0  0  0  0  0  0  0  0
   -8.0613    8.3371   -0.5623 C   0  0  0  0  0  0  0  0  0  0  0  0
   -6.3513    5.7229   -0.3552 C   0  0  0  0  0  0  0  0  0  0  0  0
   -8.4566    4.5488   -0.0688 C   0  0  0  0  0  0  0  0  0  0  0  0
   -6.8008    8.6909   -1.1264 C   0  0  0  0  0  0  0  0  0  0  0  0
   -8.8878    9.3875   -0.0726 C   0  0  0  0  0  0  0  0  0  0  0  0
   -5.5251    6.7926   -0.5715 O   0  0  0  0  0  0  0  0  0  0  0  0
   -5.6681    4.5036   -0.1741 C   0  0  0  0  0  0  0  0  0  0  0  0
   -7.7811    3.3214    0.1227 C   0  0  0  0  0  0  0  0  0  0  0  0
   -5.8866    7.6544   -1.6575 C   0  0  1  0  0  0  0  0  0  0  0  0
   -6.4090   10.0520   -1.1834 C   0  0  0  0  0  0  0  0  0  0  0  0
   -8.4897   10.7326   -0.1379 C   0  0  0  0  0  0  0  0  0  0  0  0
   -6.3734    3.3152    0.0580 C   0  0  0  0  0  0  0  0  0  0  0  0
   -8.5275    2.0587    0.3812 C   0  0  2  0  0  0  0  0  0  0  0  0
   -7.2476   11.0651   -0.6938 C   0  0  0  0  0  0  0  0  0  0  0  0
   -8.2396    1.5083    1.7199 C   0  0  0  0  0  0  0  0  0  0  0  0
   -8.4789    2.2459    2.8308 O   0  0  0  0  0  0  0  0  0  0  0  0
   -7.7807    0.3509    1.8512 O   0  0  0  0  0  0  0  0  0  0  0  0
   -9.4804    4.5365   -0.0244 H   0  0  0  0  0  0  0  0  0  0  0  0
   -9.7996    9.1863    0.3472 H   0  0  0  0  0  0  0  0  0  0  0  0
   -4.6462    4.4748   -0.2132 H   0  0  0  0  0  0  0  0  0  0  0  0
   -6.3508    7.1280   -2.4982 H   0  0  0  0  0  0  0  0  0  0  0  0
   -4.9555    8.0850   -2.0313 H   0  0  0  0  0  0  0  0  0  0  0  0
   -5.5065   10.3208   -1.5820 H   0  0  0  0  0  0  0  0  0  0  0  0
   -9.1020   11.4692    0.2226 H   0  0  0  0  0  0  0  0  0  0  0  0
   -5.8541    2.4434    0.1880 H   0  0  0  0  0  0  0  0  0  0  0  0
   -8.2660    1.3338   -0.3978 H   0  0  0  0  0  0  0  0  0  0  0  0
   -9.6075    2.2149    0.3203 H   0  0  0  0  0  0  0  0  0  0  0  0
   -6.9517   12.0429   -0.7401 H   0  0  0  0  0  0  0  0  0  0  0  0
   -8.2836    1.8788    3.7192 H   0  0  0  0  0  0  0  0  0  0  0  0
  1  2  2  0  0  0  0 
  2  3  1  0  0  0  0 
  2  4  1  0  0  0  0 
  3  5  2  0  0  0  0 
  3  6  1  0  0  0  0 
  4  7  2  0  0  0  0 
  4  8  1  0  0  0  0 
  5  9  1  0  0  0  0 
  5 10  1  0  0  0  0 
  6 11  2  0  0  0  0 
  7 12  1  0  0  0  0 
  7 13  1  0  0  0  0 
  8 14  2  0  0  0  0 
  9 12  1  0  0  0  0 
 10 15  2  0  0  0  0 
 11 15  1  0  0  0  0 
 11 16  1  0  0  0  0 
 13 17  2  0  0  0  0 
 14 17  1  0  0  0  0 
 16 18  1  0  0  0  0 
 18 19  1  0  0  0  0 
 18 20  2  0  0  0  0 
  6 21  1  0  0  0  0 
  8 22  1  0  0  0  0 
 10 23  1  0  0  0  0 
 12 24  1  0  0  0  0 
 12 25  1  0  0  0  0 
 13 26  1  0  0  0  0 
 14 27  1  0  0  0  0 
 15 28  1  0  0  0  0 
 16 29  1  0  0  0  0 
 16 30  1  0  0  0  0 
 17 31  1  0  0  0  0 
 19 32  1  0  0  0  0 
M  END
> <cdk:Title>
isoxepac

> <Conformer>
1

> <SuperDrugID>
SD002859

$$$$
