dixanthogen
  CDK     0628171801

 22 21  0  0  0  0  0  0  0  0999 V2000
    1.6345    4.4473    6.5566 C   0  0  0  0  0  0  0  0  0  0  0  0
    1.4022    3.7190    5.2203 C   0  0  1  0  0  0  0  0  0  0  0  0
    0.1586    2.9940    5.2946 O   0  0  0  0  0  0  0  0  0  0  0  0
   -0.1617    2.3440    4.1710 C   0  0  0  0  0  0  0  0  0  0  0  0
   -1.0846    3.1093    2.9632 S   0  0  0  0  0  0  0  0  0  0  0  0
    0.2630    0.6902    3.9655 S   0  0  0  0  0  0  0  0  0  0  0  0
    2.2499    0.7412    3.2661 S   0  0  0  0  0  0  0  0  0  0  0  0
    2.1435    1.5021    1.7275 C   0  0  0  0  0  0  0  0  0  0  0  0
    2.5347    3.1536    1.6011 S   0  0  0  0  0  0  0  0  0  0  0  0
    1.8364    0.7919    0.6372 O   0  0  0  0  0  0  0  0  0  0  0  0
    0.4327    0.7947    0.3097 C   0  0  2  0  0  0  0  0  0  0  0  0
    0.2200   -0.0230   -0.9772 C   0  0  0  0  0  0  0  0  0  0  0  0
    0.8337    5.1687    6.7317 H   0  0  0  0  0  0  0  0  0  0  0  0
    2.5889    4.9776    6.5344 H   0  0  0  0  0  0  0  0  0  0  0  0
    1.6514    3.7291    7.3799 H   0  0  0  0  0  0  0  0  0  0  0  0
    1.3774    4.4612    4.4165 H   0  0  0  0  0  0  0  0  0  0  0  0
    2.2452    3.0443    5.0529 H   0  0  0  0  0  0  0  0  0  0  0  0
    0.0701    1.8134    0.1414 H   0  0  0  0  0  0  0  0  0  0  0  0
   -0.1607    0.3347    1.1036 H   0  0  0  0  0  0  0  0  0  0  0  0
   -0.8425   -0.0618   -1.2263 H   0  0  0  0  0  0  0  0  0  0  0  0
    0.7604    0.4392   -1.8058 H   0  0  0  0  0  0  0  0  0  0  0  0
    0.5857   -1.0437   -0.8406 H   0  0  0  0  0  0  0  0  0  0  0  0
  1  2  1  0  0  0  0 
  2  3  1  0  0  0  0 
  3  4  1  0  0  0  0 
  4  5  2  0  0  0  0 
  4  6  1  0  0  0  0 
  6  7  1  0  0  0  0 
  7  8  1  0  0  0  0 
  8  9  2  0  0  0  0 
  8 10  1  0  0  0  0 
 10 11  1  0  0  0  0 
 11 12  1  0  0  0  0 
  1 13  1  0  0  0  0 
  1 14  1  0  0  0  0 
  1 15  1  0  0  0  0 
  2 16  1  0  0  0  0 
  2 17  1  0  0  0  0 
 11 18  1  0  0  0  0 
 11 19  1  0  0  0  0 
 12 20  1  0  0  0  0 
 12 21  1  0  0  0  0 
 12 22  1  0  0  0  0 
M  END
> <cdk:Title>
dixanthogen

> <Conformer>
1

> <SuperDrugID>
SD002739

$$$$
