eslicarbazepine acetate
  CDK     0628171801

 38 40  0  0  0  0  0  0  0  0999 V2000
   -0.4602    1.6872   -2.9262 O   0  0  0  0  0  0  0  0  0  0  0  0
    0.3542    1.8619   -4.0084 C   0  0  0  0  0  0  0  0  0  0  0  0
   -0.1319    1.5762   -1.5283 C   0  0  2  0  0  0  0  0  0  0  0  0
   -0.2545    1.8902   -5.3462 C   0  0  0  0  0  0  0  0  0  0  0  0
    1.5951    1.9891   -3.8889 O   0  0  0  0  0  0  0  0  0  0  0  0
   -1.3451    1.2302   -0.7262 C   0  0  0  0  0  0  0  0  0  0  0  0
    0.5129    2.8858   -0.9791 C   0  0  2  0  0  0  0  0  0  0  0  0
   -1.1753    0.8093    0.6178 C   0  0  0  0  0  0  0  0  0  0  0  0
   -2.6620    1.3239   -1.2404 C   0  0  0  0  0  0  0  0  0  0  0  0
    0.9084    2.9614    0.4691 C   0  0  0  0  0  0  0  0  0  0  0  0
    0.0824    0.7349    1.1498 N   0  0  0  0  0  0  0  0  0  0  0  0
   -2.2949    0.4775    1.4120 C   0  0  0  0  0  0  0  0  0  0  0  0
   -3.7736    0.9958   -0.4436 C   0  0  0  0  0  0  0  0  0  0  0  0
    0.7017    1.9307    1.4403 C   0  0  0  0  0  0  0  0  0  0  0  0
    1.5307    4.1658    0.8869 C   0  0  0  0  0  0  0  0  0  0  0  0
    0.6774   -0.4974    1.3532 C   0  0  0  0  0  0  0  0  0  0  0  0
   -3.5909    0.5677    0.8808 C   0  0  0  0  0  0  0  0  0  0  0  0
    1.1014    2.1518    2.7824 C   0  0  0  0  0  0  0  0  0  0  0  0
    1.9455    4.3535    2.2154 C   0  0  0  0  0  0  0  0  0  0  0  0
    1.9474   -0.6334    1.7822 N   0  0  0  0  0  0  0  0  0  0  0  0
    0.0728   -1.5715    1.1230 O   0  0  0  0  0  0  0  0  0  0  0  0
    1.7293    3.3464    3.1657 C   0  0  0  0  0  0  0  0  0  0  0  0
    0.5896    0.7555   -1.4474 H   0  0  0  0  0  0  0  0  0  0  0  0
   -1.3195    1.6593   -5.2827 H   0  0  0  0  0  0  0  0  0  0  0  0
   -0.1344    2.8795   -5.7904 H   0  0  0  0  0  0  0  0  0  0  0  0
    0.2200    1.1488   -5.9904 H   0  0  0  0  0  0  0  0  0  0  0  0
   -0.1835    3.7058   -1.1850 H   0  0  0  0  0  0  0  0  0  0  0  0
    1.4149    3.0802   -1.5643 H   0  0  0  0  0  0  0  0  0  0  0  0
   -2.8304    1.6385   -2.1973 H   0  0  0  0  0  0  0  0  0  0  0  0
   -2.1718    0.1732    2.3801 H   0  0  0  0  0  0  0  0  0  0  0  0
   -4.7185    1.0724   -0.8266 H   0  0  0  0  0  0  0  0  0  0  0  0
    1.6914    4.9260    0.2188 H   0  0  0  0  0  0  0  0  0  0  0  0
   -4.3990    0.3222    1.4588 H   0  0  0  0  0  0  0  0  0  0  0  0
    0.9281    1.4400    3.4969 H   0  0  0  0  0  0  0  0  0  0  0  0
    2.4009    5.2247    2.4935 H   0  0  0  0  0  0  0  0  0  0  0  0
    2.3281   -1.5168    1.9033 H   0  0  0  0  0  0  0  0  0  0  0  0
    2.4838    0.1512    1.9680 H   0  0  0  0  0  0  0  0  0  0  0  0
    2.0233    3.4833    4.1355 H   0  0  0  0  0  0  0  0  0  0  0  0
  1  2  1  0  0  0  0 
  2  4  1  0  0  0  0 
  2  5  2  0  0  0  0 
  3  1  1  0  0  0  0 
  3  6  1  0  0  0  0 
  3  7  1  0  0  0  0 
  6  8  2  0  0  0  0 
  6  9  1  0  0  0  0 
  7 10  1  0  0  0  0 
  8 11  1  0  0  0  0 
  8 12  1  0  0  0  0 
  9 13  2  0  0  0  0 
 10 14  2  0  0  0  0 
 10 15  1  0  0  0  0 
 11 14  1  0  0  0  0 
 11 16  1  0  0  0  0 
 12 17  2  0  0  0  0 
 13 17  1  0  0  0  0 
 14 18  1  0  0  0  0 
 15 19  2  0  0  0  0 
 16 20  1  0  0  0  0 
 16 21  2  0  0  0  0 
 18 22  2  0  0  0  0 
 19 22  1  0  0  0  0 
  3 23  1  0  0  0  0 
  4 24  1  0  0  0  0 
  4 25  1  0  0  0  0 
  4 26  1  0  0  0  0 
  7 27  1  0  0  0  0 
  7 28  1  0  0  0  0 
  9 29  1  0  0  0  0 
 12 30  1  0  0  0  0 
 13 31  1  0  0  0  0 
 15 32  1  0  0  0  0 
 17 33  1  0  0  0  0 
 18 34  1  0  0  0  0 
 19 35  1  0  0  0  0 
 20 36  1  0  0  0  0 
 20 37  1  0  0  0  0 
 22 38  1  0  0  0  0 
M  END
> <cdk:Title>
eslicarbazepine acetate

> <Conformer>
1

> <SuperDrugID>
SD003486

$$$$
