tribromometacresol
  CDK     0628171801

 16 16  0  0  0  0  0  0  0  0999 V2000
    1.5063    0.0085    1.3351 C   0  0  0  0  0  0  0  0  0  0  0  0
    0.6441   -0.9015    0.5381 C   0  0  0  0  0  0  0  0  0  0  0  0
   -0.7233   -1.0536    0.8999 C   0  0  0  0  0  0  0  0  0  0  0  0
    1.1361   -1.6291   -0.5785 C   0  0  0  0  0  0  0  0  0  0  0  0
   -1.4630   -0.1403    2.3525 Br  0  0  0  0  0  0  0  0  0  0  0  0
   -1.5710   -1.9078    0.1634 C   0  0  0  0  0  0  0  0  0  0  0  0
    2.8984   -1.5368   -1.1838 Br  0  0  0  0  0  0  0  0  0  0  0  0
    0.2814   -2.4774   -1.3048 C   0  0  0  0  0  0  0  0  0  0  0  0
   -2.8786   -2.0397    0.5030 O   0  0  0  0  0  0  0  0  0  0  0  0
   -1.0660   -2.6198   -0.9387 C   0  0  0  0  0  0  0  0  0  0  0  0
   -2.1608   -3.7567   -1.9310 Br  0  0  0  0  0  0  0  0  0  0  0  0
    1.5297   -0.3308    2.3716 H   0  0  0  0  0  0  0  0  0  0  0  0
    2.5352    0.0628    0.9849 H   0  0  0  0  0  0  0  0  0  0  0  0
    1.0946    1.0180    1.3014 H   0  0  0  0  0  0  0  0  0  0  0  0
    0.6419   -2.9974   -2.1091 H   0  0  0  0  0  0  0  0  0  0  0  0
   -2.9026   -2.7802    1.1445 H   0  0  0  0  0  0  0  0  0  0  0  0
  1  2  1  0  0  0  0 
  2  3  2  0  0  0  0 
  2  4  1  0  0  0  0 
  3  5  1  0  0  0  0 
  3  6  1  0  0  0  0 
  4  7  1  0  0  0  0 
  4  8  2  0  0  0  0 
  6  9  1  0  0  0  0 
  6 10  2  0  0  0  0 
  8 10  1  0  0  0  0 
 10 11  1  0  0  0  0 
  1 12  1  0  0  0  0 
  1 13  1  0  0  0  0 
  1 14  1  0  0  0  0 
  8 15  1  0  0  0  0 
  9 16  1  0  0  0  0 
M  END
> <cdk:Title>
tribromometacresol

> <Conformer>
1

> <SuperDrugID>
SD003106

$$$$
