oxamarin
  CDK     0628171801

 62 63  0  0  0  0  0  0  0  0999 V2000
   -0.9737    8.7554    1.6652 C   0  0  0  0  0  0  0  0  0  0  0  0
   -0.5824    8.0320    2.9063 C   0  0  0  0  0  0  0  0  0  0  0  0
   -1.2507    6.8448    3.3263 C   0  0  0  0  0  0  0  0  0  0  0  0
    0.4732    8.5524    3.6938 C   0  0  0  0  0  0  0  0  0  0  0  0
   -0.8505    6.2523    4.5566 C   0  0  0  0  0  0  0  0  0  0  0  0
   -2.2922    6.2169    2.5957 C   0  0  0  0  0  0  0  0  0  0  0  0
    0.8449    7.9095    4.8841 C   0  0  0  0  0  0  0  0  0  0  0  0
   -1.5013    5.1121    5.0606 C   0  0  0  0  0  0  0  0  0  0  0  0
    0.1717    6.7946    5.2784 O   0  0  0  0  0  0  0  0  0  0  0  0
   -2.9301    5.0603    3.0880 C   0  0  0  0  0  0  0  0  0  0  0  0
    1.7845    8.3407    5.5895 O   0  0  0  0  0  0  0  0  0  0  0  0
   -2.5510    4.5189    4.3361 C   0  0  0  0  0  0  0  0  0  0  0  0
   -3.8982    4.4392    2.3456 O   0  0  0  0  0  0  0  0  0  0  0  0
   -3.2504    3.4721    4.8801 O   0  0  0  0  0  0  0  0  0  0  0  0
   -5.2425    4.8710    2.6384 C   0  0  1  0  0  0  0  0  0  0  0  0
   -2.8608    2.1483    4.4592 C   0  0  1  0  0  0  0  0  0  0  0  0
   -6.2322    3.8544    2.0186 C   0  0  1  0  0  0  0  0  0  0  0  0
   -1.6144    1.6164    5.2107 C   0  0  2  0  0  0  0  0  0  0  0  0
   -7.6661    4.3160    2.0626 N   0  0  2  0  0  0  0  0  0  0  0  0
   -1.6960    1.7766    6.7017 N   0  0  2  0  0  0  0  0  0  0  0  0
   -8.2899    4.1299    3.4215 C   0  0  2  0  0  0  0  0  0  0  0  0
   -8.4917    3.7562    0.9359 C   0  0  2  0  0  0  0  0  0  0  0  0
   -0.3699    1.7964    7.4036 C   0  0  1  0  0  0  0  0  0  0  0  0
   -2.7569    0.9572    7.3910 C   0  0  1  0  0  0  0  0  0  0  0  0
   -9.5716    4.9597    3.6787 C   0  0  0  0  0  0  0  0  0  0  0  0
   -8.2110    4.4397   -0.4242 C   0  0  0  0  0  0  0  0  0  0  0  0
   -0.3743    2.7102    8.6497 C   0  0  0  0  0  0  0  0  0  0  0  0
   -3.8542    1.8737    7.9721 C   0  0  0  0  0  0  0  0  0  0  0  0
   -0.8339    8.1111    0.7961 H   0  0  0  0  0  0  0  0  0  0  0  0
   -0.3884    9.6634    1.5043 H   0  0  0  0  0  0  0  0  0  0  0  0
   -2.0237    9.0482    1.7254 H   0  0  0  0  0  0  0  0  0  0  0  0
    0.9725    9.4008    3.4128 H   0  0  0  0  0  0  0  0  0  0  0  0
   -2.6043    6.5898    1.6968 H   0  0  0  0  0  0  0  0  0  0  0  0
   -1.2193    4.7238    5.9630 H   0  0  0  0  0  0  0  0  0  0  0  0
   -5.4105    4.9222    3.7177 H   0  0  0  0  0  0  0  0  0  0  0  0
   -5.4140    5.8598    2.2030 H   0  0  0  0  0  0  0  0  0  0  0  0
   -3.7074    1.4930    4.6731 H   0  0  0  0  0  0  0  0  0  0  0  0
   -2.6902    2.0925    3.3787 H   0  0  0  0  0  0  0  0  0  0  0  0
   -5.9028    3.6925    0.9903 H   0  0  0  0  0  0  0  0  0  0  0  0
   -6.1267    2.8926    2.5307 H   0  0  0  0  0  0  0  0  0  0  0  0
   -0.7618    2.1730    4.8155 H   0  0  0  0  0  0  0  0  0  0  0  0
   -1.4572    0.5651    4.9552 H   0  0  0  0  0  0  0  0  0  0  0  0
   -7.5895    4.4428    4.1975 H   0  0  0  0  0  0  0  0  0  0  0  0
   -8.5073    3.0711    3.5930 H   0  0  0  0  0  0  0  0  0  0  0  0
   -9.5546    3.9104    1.1210 H   0  0  0  0  0  0  0  0  0  0  0  0
   -8.3364    2.6757    0.8450 H   0  0  0  0  0  0  0  0  0  0  0  0
   -0.0767    0.7820    7.6899 H   0  0  0  0  0  0  0  0  0  0  0  0
    0.4130    2.1823    6.7482 H   0  0  0  0  0  0  0  0  0  0  0  0
   -3.2348    0.2453    6.7097 H   0  0  0  0  0  0  0  0  0  0  0  0
   -2.3516    0.3590    8.2159 H   0  0  0  0  0  0  0  0  0  0  0  0
   -9.8220    4.9287    4.7421 H   0  0  0  0  0  0  0  0  0  0  0  0
  -10.4212    4.5552    3.1281 H   0  0  0  0  0  0  0  0  0  0  0  0
   -9.4160    6.0005    3.3878 H   0  0  0  0  0  0  0  0  0  0  0  0
   -8.9586    4.1278   -1.1566 H   0  0  0  0  0  0  0  0  0  0  0  0
   -7.2300    4.1642   -0.8106 H   0  0  0  0  0  0  0  0  0  0  0  0
   -8.2590    5.5255   -0.3188 H   0  0  0  0  0  0  0  0  0  0  0  0
    0.6216    2.7325    9.0946 H   0  0  0  0  0  0  0  0  0  0  0  0
   -1.0731    2.3459    9.4028 H   0  0  0  0  0  0  0  0  0  0  0  0
   -0.6528    3.7280    8.3705 H   0  0  0  0  0  0  0  0  0  0  0  0
   -4.5698    1.2746    8.5402 H   0  0  0  0  0  0  0  0  0  0  0  0
   -4.3891    2.3840    7.1702 H   0  0  0  0  0  0  0  0  0  0  0  0
   -3.4201    2.6225    8.6376 H   0  0  0  0  0  0  0  0  0  0  0  0
  1  2  1  0  0  0  0 
  2  3  1  0  0  0  0 
  2  4  2  0  0  0  0 
  3  5  1  0  0  0  0 
  3  6  2  0  0  0  0 
  4  7  1  0  0  0  0 
  5  8  2  0  0  0  0 
  5  9  1  0  0  0  0 
  6 10  1  0  0  0  0 
  7  9  1  0  0  0  0 
  7 11  2  0  0  0  0 
  8 12  1  0  0  0  0 
 10 12  2  0  0  0  0 
 10 13  1  0  0  0  0 
 12 14  1  0  0  0  0 
 13 15  1  0  0  0  0 
 14 16  1  0  0  0  0 
 15 17  1  0  0  0  0 
 16 18  1  0  0  0  0 
 17 19  1  0  0  0  0 
 18 20  1  0  0  0  0 
 19 21  1  0  0  0  0 
 19 22  1  0  0  0  0 
 20 23  1  0  0  0  0 
 20 24  1  0  0  0  0 
 21 25  1  0  0  0  0 
 22 26  1  0  0  0  0 
 23 27  1  0  0  0  0 
 24 28  1  0  0  0  0 
  1 29  1  0  0  0  0 
  1 30  1  0  0  0  0 
  1 31  1  0  0  0  0 
  4 32  1  0  0  0  0 
  6 33  1  0  0  0  0 
  8 34  1  0  0  0  0 
 15 35  1  0  0  0  0 
 15 36  1  0  0  0  0 
 16 37  1  0  0  0  0 
 16 38  1  0  0  0  0 
 17 39  1  0  0  0  0 
 17 40  1  0  0  0  0 
 18 41  1  0  0  0  0 
 18 42  1  0  0  0  0 
 21 43  1  0  0  0  0 
 21 44  1  0  0  0  0 
 22 45  1  0  0  0  0 
 22 46  1  0  0  0  0 
 23 47  1  0  0  0  0 
 23 48  1  0  0  0  0 
 24 49  1  0  0  0  0 
 24 50  1  0  0  0  0 
 25 51  1  0  0  0  0 
 25 52  1  0  0  0  0 
 25 53  1  0  0  0  0 
 26 54  1  0  0  0  0 
 26 55  1  0  0  0  0 
 26 56  1  0  0  0  0 
 27 57  1  0  0  0  0 
 27 58  1  0  0  0  0 
 27 59  1  0  0  0  0 
 28 60  1  0  0  0  0 
 28 61  1  0  0  0  0 
 28 62  1  0  0  0  0 
M  END
> <cdk:Title>
oxamarin

> <Conformer>
1

> <SuperDrugID>
SD002930

$$$$
