diperodon
  CDK     0628171801

 56 58  0  0  0  0  0  0  0  0999 V2000
   -1.6636    2.7832    2.2754 C   0  0  2  0  0  0  0  0  0  0  0  0
   -1.0555    1.5958    1.4540 C   0  0  2  0  0  0  0  0  0  0  0  0
   -0.9340    3.0407    3.4921 O   0  0  0  0  0  0  0  0  0  0  0  0
   -3.1304    2.4785    2.6897 C   0  0  1  0  0  0  0  0  0  0  0  0
    0.4112    1.7286    1.1457 N   0  0  2  0  0  0  0  0  0  0  0  0
    0.2811    3.6446    3.6420 C   0  0  0  0  0  0  0  0  0  0  0  0
   -3.7511    3.5852    3.3746 O   0  0  0  0  0  0  0  0  0  0  0  0
    0.7211    2.5560   -0.0673 C   0  0  2  0  0  0  0  0  0  0  0  0
    1.1636    0.4307    1.1413 C   0  0  1  0  0  0  0  0  0  0  0  0
    0.8139    3.6891    4.8912 N   0  0  0  0  0  0  0  0  0  0  0  0
    0.8581    4.1703    2.6622 O   0  0  0  0  0  0  0  0  0  0  0  0
   -4.8927    4.2518    3.0048 C   0  0  0  0  0  0  0  0  0  0  0  0
    2.2424    2.8375   -0.1991 C   0  0  2  0  0  0  0  0  0  0  0  0
    2.6937    0.6701    1.0717 C   0  0  1  0  0  0  0  0  0  0  0  0
    2.0823    4.0703    5.2377 C   0  0  0  0  0  0  0  0  0  0  0  0
   -5.4750    5.2200    3.7551 N   0  0  0  0  0  0  0  0  0  0  0  0
   -5.4941    3.9675    1.9436 O   0  0  0  0  0  0  0  0  0  0  0  0
    3.0673    1.5270   -0.1628 C   0  0  1  0  0  0  0  0  0  0  0  0
    2.2682    4.7442    6.4662 C   0  0  0  0  0  0  0  0  0  0  0  0
    3.2198    3.7732    4.4457 C   0  0  0  0  0  0  0  0  0  0  0  0
   -5.0733    5.7078    4.9605 C   0  0  0  0  0  0  0  0  0  0  0  0
    3.5557    5.1356    6.8817 C   0  0  0  0  0  0  0  0  0  0  0  0
    4.5095    4.1438    4.8680 C   0  0  0  0  0  0  0  0  0  0  0  0
   -6.0801    5.9904    5.9114 C   0  0  0  0  0  0  0  0  0  0  0  0
   -3.7249    5.9842    5.2871 C   0  0  0  0  0  0  0  0  0  0  0  0
    4.6744    4.8361    6.0810 C   0  0  0  0  0  0  0  0  0  0  0  0
   -5.7502    6.5393    7.1644 C   0  0  0  0  0  0  0  0  0  0  0  0
   -3.3960    6.5492    6.5337 C   0  0  0  0  0  0  0  0  0  0  0  0
   -4.4082    6.8303    7.4701 C   0  0  0  0  0  0  0  0  0  0  0  0
   -1.6729    3.6820    1.6535 H   0  0  0  0  0  0  0  0  0  0  0  0
   -1.6176    1.4722    0.5214 H   0  0  0  0  0  0  0  0  0  0  0  0
   -1.2307    0.6861    2.0359 H   0  0  0  0  0  0  0  0  0  0  0  0
   -3.7092    2.1955    1.8063 H   0  0  0  0  0  0  0  0  0  0  0  0
   -3.1396    1.6269    3.3743 H   0  0  0  0  0  0  0  0  0  0  0  0
    0.2039    3.5158   -0.0120 H   0  0  0  0  0  0  0  0  0  0  0  0
    0.3732    2.0459   -0.9693 H   0  0  0  0  0  0  0  0  0  0  0  0
    0.9623   -0.1292    2.0591 H   0  0  0  0  0  0  0  0  0  0  0  0
    0.8468   -0.1892    0.2966 H   0  0  0  0  0  0  0  0  0  0  0  0
    0.2226    3.4278    5.6142 H   0  0  0  0  0  0  0  0  0  0  0  0
    2.5683    3.4880    0.6170 H   0  0  0  0  0  0  0  0  0  0  0  0
    2.4378    3.3586   -1.1390 H   0  0  0  0  0  0  0  0  0  0  0  0
    3.0212    1.1834    1.9800 H   0  0  0  0  0  0  0  0  0  0  0  0
    3.2149   -0.2891    1.0225 H   0  0  0  0  0  0  0  0  0  0  0  0
   -6.3076    5.5767    3.4076 H   0  0  0  0  0  0  0  0  0  0  0  0
    2.8779    0.9520   -1.0752 H   0  0  0  0  0  0  0  0  0  0  0  0
    4.1349    1.7637   -0.1350 H   0  0  0  0  0  0  0  0  0  0  0  0
    1.4655    4.9606    7.0647 H   0  0  0  0  0  0  0  0  0  0  0  0
    3.1213    3.2657    3.5664 H   0  0  0  0  0  0  0  0  0  0  0  0
    3.6814    5.6268    7.7702 H   0  0  0  0  0  0  0  0  0  0  0  0
    5.3263    3.9002    4.2996 H   0  0  0  0  0  0  0  0  0  0  0  0
   -7.0628    5.7926    5.6997 H   0  0  0  0  0  0  0  0  0  0  0  0
   -2.9789    5.7996    4.6143 H   0  0  0  0  0  0  0  0  0  0  0  0
    5.6110    5.1124    6.3860 H   0  0  0  0  0  0  0  0  0  0  0  0
   -6.4864    6.7292    7.8494 H   0  0  0  0  0  0  0  0  0  0  0  0
   -2.4204    6.7631    6.7556 H   0  0  0  0  0  0  0  0  0  0  0  0
   -4.1693    7.2504    8.3706 H   0  0  0  0  0  0  0  0  0  0  0  0
  1  2  1  0  0  0  0 
  1  3  1  0  0  0  0 
  1  4  1  0  0  0  0 
  2  5  1  0  0  0  0 
  3  6  1  0  0  0  0 
  4  7  1  0  0  0  0 
  5  8  1  0  0  0  0 
  5  9  1  0  0  0  0 
  6 10  1  0  0  0  0 
  6 11  2  0  0  0  0 
  7 12  1  0  0  0  0 
  8 13  1  0  0  0  0 
  9 14  1  0  0  0  0 
 10 15  1  0  0  0  0 
 12 16  1  0  0  0  0 
 12 17  2  0  0  0  0 
 13 18  1  0  0  0  0 
 14 18  1  0  0  0  0 
 15 19  2  0  0  0  0 
 15 20  1  0  0  0  0 
 16 21  1  0  0  0  0 
 19 22  1  0  0  0  0 
 20 23  2  0  0  0  0 
 21 24  2  0  0  0  0 
 21 25  1  0  0  0  0 
 22 26  2  0  0  0  0 
 23 26  1  0  0  0  0 
 24 27  1  0  0  0  0 
 25 28  2  0  0  0  0 
 27 29  2  0  0  0  0 
 28 29  1  0  0  0  0 
 30  1  1  0  0  0  0 
 31  2  1  0  0  0  0 
 32  2  1  0  0  0  0 
 33  4  1  0  0  0  0 
 34  4  1  0  0  0  0 
 35  8  1  0  0  0  0 
 36  8  1  0  0  0  0 
 37  9  1  0  0  0  0 
 38  9  1  0  0  0  0 
 39 10  1  0  0  0  0 
 40 13  1  0  0  0  0 
 41 13  1  0  0  0  0 
 42 14  1  0  0  0  0 
 43 14  1  0  0  0  0 
 44 16  1  0  0  0  0 
 45 18  1  0  0  0  0 
 46 18  1  0  0  0  0 
 47 19  1  0  0  0  0 
 48 20  1  0  0  0  0 
 49 22  1  0  0  0  0 
 50 23  1  0  0  0  0 
 51 24  1  0  0  0  0 
 52 25  1  0  0  0  0 
 53 26  1  0  0  0  0 
 54 27  1  0  0  0  0 
 55 28  1  0  0  0  0 
 56 29  1  0  0  0  0 
M  END
> <cdk:Title>
diperodon

> <Conformer>
1

> <SuperDrugID>
SD003191

$$$$
