orthocaine
  CDK     0628171801

 21 21  0  0  0  0  0  0  0  0999 V2000
   -1.9739    0.8875    2.7850 C   0  0  0  0  0  0  0  0  0  0  0  0
   -0.8225    1.6187    2.9109 O   0  0  0  0  0  0  0  0  0  0  0  0
   -2.8626    1.0008    3.6639 O   0  0  0  0  0  0  0  0  0  0  0  0
   -2.1432   -0.0008    1.6858 C   0  0  0  0  0  0  0  0  0  0  0  0
   -0.4887    2.5218    3.9684 C   0  0  0  0  0  0  0  0  0  0  0  0
   -3.3154   -0.7859    1.5377 C   0  0  0  0  0  0  0  0  0  0  0  0
   -1.1271   -0.1350    0.7070 C   0  0  0  0  0  0  0  0  0  0  0  0
   -3.4604   -1.6918    0.4662 C   0  0  0  0  0  0  0  0  0  0  0  0
   -1.2683   -1.0304   -0.3683 C   0  0  0  0  0  0  0  0  0  0  0  0
   -4.5874   -2.4277    0.3638 N   0  0  0  0  0  0  0  0  0  0  0  0
   -2.4259   -1.8186   -0.4852 C   0  0  0  0  0  0  0  0  0  0  0  0
   -2.5261   -2.6922   -1.5172 O   0  0  0  0  0  0  0  0  0  0  0  0
   -0.4912    2.0015    4.9264 H   0  0  0  0  0  0  0  0  0  0  0  0
    0.5098    2.9163    3.7867 H   0  0  0  0  0  0  0  0  0  0  0  0
   -1.1976    3.3502    4.0040 H   0  0  0  0  0  0  0  0  0  0  0  0
   -4.0751   -0.7108    2.2211 H   0  0  0  0  0  0  0  0  0  0  0  0
   -0.2637    0.4086    0.7691 H   0  0  0  0  0  0  0  0  0  0  0  0
   -0.5219   -1.1094   -1.0632 H   0  0  0  0  0  0  0  0  0  0  0  0
   -4.6832   -3.0841   -0.3458 H   0  0  0  0  0  0  0  0  0  0  0  0
   -5.3081   -2.3028    1.0033 H   0  0  0  0  0  0  0  0  0  0  0  0
   -2.2074   -3.5440   -1.1490 H   0  0  0  0  0  0  0  0  0  0  0  0
  1  2  1  0  0  0  0 
  1  3  2  0  0  0  0 
  1  4  1  0  0  0  0 
  2  5  1  0  0  0  0 
  4  6  2  0  0  0  0 
  4  7  1  0  0  0  0 
  6  8  1  0  0  0  0 
  7  9  2  0  0  0  0 
  8 10  1  0  0  0  0 
  8 11  2  0  0  0  0 
  9 11  1  0  0  0  0 
 11 12  1  0  0  0  0 
  5 13  1  0  0  0  0 
  5 14  1  0  0  0  0 
  5 15  1  0  0  0  0 
  6 16  1  0  0  0  0 
  7 17  1  0  0  0  0 
  9 18  1  0  0  0  0 
 10 19  1  0  0  0  0 
 10 20  1  0  0  0  0 
 12 21  1  0  0  0  0 
M  END
> <cdk:Title>
orthocaine

> <Conformer>
1

> <SuperDrugID>
SD002929

$$$$
