cefminox
  CDK     0628171802

 54 56  0  0  0  0  0  0  0  0999 V2000
    1.3065   -0.9511   -2.2970 N   0  0  0  0  0  0  0  0  0  0  0  0
    0.9862    0.2611   -1.7660 C   0  0  0  0  0  0  0  0  0  0  0  0
    1.8493   -1.1342   -3.6092 C   0  0  1  0  0  0  0  0  0  0  0  0
    0.2982    0.3349   -0.4683 C   0  0  1  0  0  0  0  0  0  0  0  0
    1.2271    1.3264   -2.3815 O   0  0  0  0  0  0  0  0  0  0  0  0
    1.0370   -0.6282   -4.6956 O   0  0  0  0  0  0  0  0  0  0  0  0
    3.3552   -0.7402   -3.7978 C   0  0  2  0  0  0  0  0  0  0  0  0
    2.3422   -2.4947   -3.8449 C   0  0  0  0  0  0  0  0  0  0  0  0
   -1.4635    0.6597   -0.7937 S   0  0  0  0  0  0  0  0  0  0  0  0
   -0.3189   -1.1101   -4.7544 C   0  0  0  0  0  0  0  0  0  0  0  0
    3.6086   -2.1139   -4.0152 N   0  0  0  0  0  0  0  0  0  0  0  0
    4.3715   -0.2250   -2.3777 S   0  0  0  0  0  0  0  0  0  0  0  0
    1.7805   -3.6124   -3.8617 O   0  0  0  0  0  0  0  0  0  0  0  0
   -2.2669    0.5609    0.8375 C   0  0  1  0  0  0  0  0  0  0  0  0
    4.7669   -2.7397   -4.2571 C   0  0  0  0  0  0  0  0  0  0  0  0
    5.7062   -1.4778   -2.3423 C   0  0  1  0  0  0  0  0  0  0  0  0
   -1.8861    1.7263    1.7891 C   0  0  2  0  0  0  0  0  0  0  0  0
    4.7406   -3.7096   -5.2674 C   0  0  0  0  0  0  0  0  0  0  0  0
    5.8527   -2.3634   -3.5229 C   0  0  0  0  0  0  0  0  0  0  0  0
   -2.5680    1.5979    3.0937 C   0  0  0  0  0  0  0  0  0  0  0  0
   -2.2197    3.0332    1.2042 N   0  0  1  0  0  0  0  0  0  0  0  0
    3.7936   -3.6831   -6.2365 O   0  0  0  0  0  0  0  0  0  0  0  0
    5.5375   -4.6737   -5.3282 O   0  0  0  0  0  0  0  0  0  0  0  0
    7.2094   -2.8615   -3.7996 C   0  0  1  0  0  0  0  0  0  0  0  0
   -1.8490    1.4540    4.2313 O   0  0  0  0  0  0  0  0  0  0  0  0
   -3.8184    1.6151    3.1764 O   0  0  0  0  0  0  0  0  0  0  0  0
    7.5364   -4.4201   -2.9046 S   0  0  0  0  0  0  0  0  0  0  0  0
    9.0943   -4.9378   -3.5231 C   0  0  0  0  0  0  0  0  0  0  0  0
   10.3020   -4.7574   -2.9686 N   0  0  0  0  0  0  0  0  0  0  0  0
    9.2759   -5.5950   -4.6736 N   0  0  0  0  0  0  0  0  0  0  0  0
   10.6049   -4.1063   -1.7389 C   0  0  0  0  0  0  0  0  0  0  0  0
   11.1694   -5.2913   -3.7654 N   0  0  0  0  0  0  0  0  0  0  0  0
   10.5484   -5.7958   -4.7841 N   0  0  0  0  0  0  0  0  0  0  0  0
    3.5566   -0.1382   -4.6914 H   0  0  0  0  0  0  0  0  0  0  0  0
    1.1179   -1.7422   -1.7657 H   0  0  0  0  0  0  0  0  0  0  0  0
    0.3936   -0.6056    0.0788 H   0  0  0  0  0  0  0  0  0  0  0  0
    0.7277    1.1376    0.1368 H   0  0  0  0  0  0  0  0  0  0  0  0
   -0.7853   -0.7055   -5.6516 H   0  0  0  0  0  0  0  0  0  0  0  0
   -0.8981   -0.7737   -3.8930 H   0  0  0  0  0  0  0  0  0  0  0  0
   -0.3523   -2.1984   -4.8167 H   0  0  0  0  0  0  0  0  0  0  0  0
   -3.3453    0.5613    0.6644 H   0  0  0  0  0  0  0  0  0  0  0  0
   -1.9981   -0.3944    1.2926 H   0  0  0  0  0  0  0  0  0  0  0  0
    6.6222   -0.9196   -2.1368 H   0  0  0  0  0  0  0  0  0  0  0  0
    5.5168   -2.1133   -1.4743 H   0  0  0  0  0  0  0  0  0  0  0  0
   -0.8071    1.7069    1.9577 H   0  0  0  0  0  0  0  0  0  0  0  0
   -1.8524    3.7489    1.8367 H   0  0  0  0  0  0  0  0  0  0  0  0
   -1.6964    3.1171    0.3300 H   0  0  0  0  0  0  0  0  0  0  0  0
    3.7633   -4.3889   -6.9161 H   0  0  0  0  0  0  0  0  0  0  0  0
    7.3655   -3.0134   -4.8695 H   0  0  0  0  0  0  0  0  0  0  0  0
    7.9724   -2.1395   -3.4978 H   0  0  0  0  0  0  0  0  0  0  0  0
   -2.3064    1.3608    5.0936 H   0  0  0  0  0  0  0  0  0  0  0  0
   10.2575   -3.0726   -1.7719 H   0  0  0  0  0  0  0  0  0  0  0  0
   10.1079   -4.6233   -0.9167 H   0  0  0  0  0  0  0  0  0  0  0  0
   11.6806   -4.1059   -1.5500 H   0  0  0  0  0  0  0  0  0  0  0  0
  1  2  1  0  0  0  0 
  3  1  1  0  0  0  0 
  2  4  1  0  0  0  0 
  2  5  2  0  0  0  0 
  3  6  1  0  0  0  0 
  7  3  1  0  0  0  0 
  3  8  1  0  0  0  0 
  4  9  1  0  0  0  0 
  6 10  1  0  0  0  0 
  7 11  1  0  0  0  0 
  7 12  1  0  0  0  0 
  7 34  1  0  0  0  0 
  8 11  1  0  0  0  0 
  8 13  2  0  0  0  0 
  9 14  1  0  0  0  0 
 11 15  1  0  0  0  0 
 12 16  1  0  0  0  0 
 17 14  1  0  0  0  0 
 15 18  1  0  0  0  0 
 15 19  2  0  0  0  0 
 16 19  1  0  0  0  0 
 17 20  1  0  0  0  0 
 17 21  1  0  0  0  0 
 18 22  1  0  0  0  0 
 18 23  2  0  0  0  0 
 19 24  1  0  0  0  0 
 20 25  1  0  0  0  0 
 20 26  2  0  0  0  0 
 24 27  1  0  0  0  0 
 27 28  1  0  0  0  0 
 28 29  1  0  0  0  0 
 28 30  2  0  0  0  0 
 29 31  1  0  0  0  0 
 29 32  1  0  0  0  0 
 30 33  1  0  0  0  0 
 32 33  2  0  0  0  0 
  1 35  1  0  0  0  0 
  4 36  1  0  0  0  0 
  4 37  1  0  0  0  0 
 10 38  1  0  0  0  0 
 10 39  1  0  0  0  0 
 10 40  1  0  0  0  0 
 14 41  1  0  0  0  0 
 14 42  1  0  0  0  0 
 16 43  1  0  0  0  0 
 16 44  1  0  0  0  0 
 17 45  1  0  0  0  0 
 21 46  1  0  0  0  0 
 21 47  1  0  0  0  0 
 22 48  1  0  0  0  0 
 24 49  1  0  0  0  0 
 24 50  1  0  0  0  0 
 25 51  1  0  0  0  0 
 31 52  1  0  0  0  0 
 31 53  1  0  0  0  0 
 31 54  1  0  0  0  0 
M  END
> <cdk:Title>
cefminox

> <Conformer>
1

> <SuperDrugID>
SD000468

$$$$
