sorbitol
  CDK     0628171801

 26 25  0  0  0  0  0  0  0  0999 V2000
   -1.0445    4.6139    0.7212 C   0  0  1  0  0  0  0  0  0  0  0  0
   -1.6168    4.2697    2.1336 C   0  0  1  0  0  0  0  0  0  0  0  0
   -1.9542    4.2137   -0.4820 C   0  0  2  0  0  0  0  0  0  0  0  0
   -0.7377    6.0055    0.6213 O   0  0  0  0  0  0  0  0  0  0  0  0
   -0.6570    4.5412    3.3325 C   0  0  1  0  0  0  0  0  0  0  0  0
   -2.8181    4.9943    2.3922 O   0  0  0  0  0  0  0  0  0  0  0  0
   -1.2594    4.4219   -1.8528 C   0  0  2  0  0  0  0  0  0  0  0  0
   -3.1590    4.9784   -0.5114 O   0  0  0  0  0  0  0  0  0  0  0  0
    0.6536    3.7153    3.3081 C   0  0  2  0  0  0  0  0  0  0  0  0
   -0.3356    5.9287    3.4423 O   0  0  0  0  0  0  0  0  0  0  0  0
   -0.0729    3.6439   -1.9748 O   0  0  0  0  0  0  0  0  0  0  0  0
    1.3872    3.9262    4.5086 O   0  0  0  0  0  0  0  0  0  0  0  0
   -0.1117    4.0610    0.6070 H   0  0  0  0  0  0  0  0  0  0  0  0
   -1.8707    3.2063    2.1524 H   0  0  0  0  0  0  0  0  0  0  0  0
   -2.2272    3.1591   -0.3950 H   0  0  0  0  0  0  0  0  0  0  0  0
    0.0284    6.1478    1.2147 H   0  0  0  0  0  0  0  0  0  0  0  0
   -1.1856    4.2632    4.2507 H   0  0  0  0  0  0  0  0  0  0  0  0
   -3.4911    4.5972    1.8065 H   0  0  0  0  0  0  0  0  0  0  0  0
   -1.0008    5.4740   -1.9844 H   0  0  0  0  0  0  0  0  0  0  0  0
   -1.9355    4.1366   -2.6609 H   0  0  0  0  0  0  0  0  0  0  0  0
   -3.7056    4.6386    0.2247 H   0  0  0  0  0  0  0  0  0  0  0  0
    1.2877    4.0131    2.4706 H   0  0  0  0  0  0  0  0  0  0  0  0
    0.4259    2.6493    3.2249 H   0  0  0  0  0  0  0  0  0  0  0  0
   -1.1972    6.3881    3.5416 H   0  0  0  0  0  0  0  0  0  0  0  0
    0.2996    3.8921   -2.8478 H   0  0  0  0  0  0  0  0  0  0  0  0
    2.2244    3.4295    4.3834 H   0  0  0  0  0  0  0  0  0  0  0  0
  2  1  1  0  0  0  0 
  1  3  1  0  0  0  0 
  1  4  1  0  0  0  0 
  5  2  1  0  0  0  0 
  2  6  1  0  0  0  0 
  3  7  1  0  0  0  0 
  3  8  1  0  0  0  0 
  5  9  1  0  0  0  0 
  5 10  1  0  0  0  0 
  7 11  1  0  0  0  0 
  9 12  1  0  0  0  0 
  1 13  1  0  0  0  0 
  2 14  1  0  0  0  0 
  3 15  1  0  0  0  0 
  4 16  1  0  0  0  0 
  5 17  1  0  0  0  0 
  6 18  1  0  0  0  0 
  7 19  1  0  0  0  0 
  7 20  1  0  0  0  0 
  8 21  1  0  0  0  0 
  9 22  1  0  0  0  0 
  9 23  1  0  0  0  0 
 10 24  1  0  0  0  0 
 11 25  1  0  0  0  0 
 12 26  1  0  0  0  0 
M  END
> <cdk:Title>
sorbitol

> <Conformer>
1

> <SuperDrugID>
SD002210

$$$$
