eprozinol
  CDK     0628171801

 56 58  0  0  0  0  0  0  0  0999 V2000
   -0.5542   -0.4274    0.6469 C   0  0  1  0  0  0  0  0  0  0  0  0
   -0.0374   -1.6734    1.4407 C   0  0  2  0  0  0  0  0  0  0  0  0
    0.0097   -0.3288   -0.6869 O   0  0  0  0  0  0  0  0  0  0  0  0
   -2.0522   -0.4524    0.5579 C   0  0  0  0  0  0  0  0  0  0  0  0
    1.4361   -1.7171    1.7303 N   0  0  1  0  0  0  0  0  0  0  0  0
    1.3430    0.1979   -0.8164 C   0  0  0  0  0  0  0  0  0  0  0  0
   -2.7388   -0.8347   -0.6242 C   0  0  0  0  0  0  0  0  0  0  0  0
   -2.8299   -0.0809    1.6835 C   0  0  0  0  0  0  0  0  0  0  0  0
    1.8998   -0.6650    2.6889 C   0  0  1  0  0  0  0  0  0  0  0  0
    1.8981   -3.0792    2.1516 C   0  0  1  0  0  0  0  0  0  0  0  0
   -4.1444   -0.8000   -0.6905 C   0  0  0  0  0  0  0  0  0  0  0  0
   -4.2356   -0.0478    1.6204 C   0  0  0  0  0  0  0  0  0  0  0  0
    3.4302   -0.7166    2.8980 C   0  0  1  0  0  0  0  0  0  0  0  0
    3.4288   -3.1265    2.3846 C   0  0  2  0  0  0  0  0  0  0  0  0
   -4.8918   -0.3988    0.4290 C   0  0  0  0  0  0  0  0  0  0  0  0
    3.8763   -2.0728    3.3508 N   0  0  1  0  0  0  0  0  0  0  0  0
    5.3417   -2.1773    3.6692 C   0  0  2  0  0  0  0  0  0  0  0  0
    5.8447   -1.3550    4.8942 C   0  0  1  0  0  0  0  0  0  0  0  0
    5.3425   -1.8565    6.2792 C   0  0  1  0  0  0  0  0  0  0  0  0
    5.9637   -1.1000    7.3203 O   0  0  0  0  0  0  0  0  0  0  0  0
    3.8597   -1.7900    6.4382 C   0  0  0  0  0  0  0  0  0  0  0  0
    3.1893   -0.5472    6.5629 C   0  0  0  0  0  0  0  0  0  0  0  0
    3.0856   -2.9757    6.4586 C   0  0  0  0  0  0  0  0  0  0  0  0
    1.7903   -0.4927    6.7156 C   0  0  0  0  0  0  0  0  0  0  0  0
    1.6871   -2.9221    6.6047 C   0  0  0  0  0  0  0  0  0  0  0  0
    1.0394   -1.6816    6.7441 C   0  0  0  0  0  0  0  0  0  0  0  0
   -0.3083    0.4879    1.1931 H   0  0  0  0  0  0  0  0  0  0  0  0
   -0.3101   -2.5488    0.8433 H   0  0  0  0  0  0  0  0  0  0  0  0
   -0.5783   -1.7488    2.3916 H   0  0  0  0  0  0  0  0  0  0  0  0
    2.0804   -0.5372   -0.5000 H   0  0  0  0  0  0  0  0  0  0  0  0
    1.5268    0.4193   -1.8687 H   0  0  0  0  0  0  0  0  0  0  0  0
    1.4746    1.1196   -0.2455 H   0  0  0  0  0  0  0  0  0  0  0  0
   -2.2225   -1.1427   -1.4509 H   0  0  0  0  0  0  0  0  0  0  0  0
   -2.3739    0.1750    2.5632 H   0  0  0  0  0  0  0  0  0  0  0  0
    1.6708    0.3342    2.3187 H   0  0  0  0  0  0  0  0  0  0  0  0
    1.3998   -0.7819    3.6534 H   0  0  0  0  0  0  0  0  0  0  0  0
    1.3895   -3.3868    3.0717 H   0  0  0  0  0  0  0  0  0  0  0  0
    1.6597   -3.8102    1.3721 H   0  0  0  0  0  0  0  0  0  0  0  0
   -4.6214   -1.0627   -1.5567 H   0  0  0  0  0  0  0  0  0  0  0  0
   -4.7780    0.2373    2.4391 H   0  0  0  0  0  0  0  0  0  0  0  0
    3.9318   -0.4396    1.9653 H   0  0  0  0  0  0  0  0  0  0  0  0
    3.6714    0.0391    3.6464 H   0  0  0  0  0  0  0  0  0  0  0  0
    3.9422   -2.9980    1.4265 H   0  0  0  0  0  0  0  0  0  0  0  0
    3.6740   -4.1222    2.7679 H   0  0  0  0  0  0  0  0  0  0  0  0
   -5.9109   -0.3627    0.3769 H   0  0  0  0  0  0  0  0  0  0  0  0
    5.9186   -1.8749    2.7899 H   0  0  0  0  0  0  0  0  0  0  0  0
    5.5954   -3.2241    3.8693 H   0  0  0  0  0  0  0  0  0  0  0  0
    6.9361   -1.4246    4.8990 H   0  0  0  0  0  0  0  0  0  0  0  0
    5.6086   -0.2975    4.7670 H   0  0  0  0  0  0  0  0  0  0  0  0
    5.6939   -2.8851    6.4095 H   0  0  0  0  0  0  0  0  0  0  0  0
    6.9274   -1.2388    7.2035 H   0  0  0  0  0  0  0  0  0  0  0  0
    3.7171    0.3307    6.5450 H   0  0  0  0  0  0  0  0  0  0  0  0
    3.5346   -3.8891    6.3583 H   0  0  0  0  0  0  0  0  0  0  0  0
    1.3178    0.4107    6.8076 H   0  0  0  0  0  0  0  0  0  0  0  0
    1.1400   -3.7862    6.6060 H   0  0  0  0  0  0  0  0  0  0  0  0
    0.0242   -1.6443    6.8626 H   0  0  0  0  0  0  0  0  0  0  0  0
  1  2  1  0  0  0  0 
  1  3  1  0  0  0  0 
  1  4  1  0  0  0  0 
  2  5  1  0  0  0  0 
  3  6  1  0  0  0  0 
  4  7  2  0  0  0  0 
  4  8  1  0  0  0  0 
  5  9  1  0  0  0  0 
  5 10  1  0  0  0  0 
  7 11  1  0  0  0  0 
  8 12  2  0  0  0  0 
  9 13  1  0  0  0  0 
 10 14  1  0  0  0  0 
 11 15  2  0  0  0  0 
 12 15  1  0  0  0  0 
 13 16  1  0  0  0  0 
 14 16  1  0  0  0  0 
 16 17  1  0  0  0  0 
 17 18  1  0  0  0  0 
 18 19  1  0  0  0  0 
 19 20  1  0  0  0  0 
 19 21  1  0  0  0  0 
 21 22  2  0  0  0  0 
 21 23  1  0  0  0  0 
 22 24  1  0  0  0  0 
 23 25  2  0  0  0  0 
 24 26  2  0  0  0  0 
 25 26  1  0  0  0  0 
  1 27  1  0  0  0  0 
  2 28  1  0  0  0  0 
  2 29  1  0  0  0  0 
  6 30  1  0  0  0  0 
  6 31  1  0  0  0  0 
  6 32  1  0  0  0  0 
  7 33  1  0  0  0  0 
  8 34  1  0  0  0  0 
  9 35  1  0  0  0  0 
  9 36  1  0  0  0  0 
 10 37  1  0  0  0  0 
 10 38  1  0  0  0  0 
 11 39  1  0  0  0  0 
 12 40  1  0  0  0  0 
 13 41  1  0  0  0  0 
 13 42  1  0  0  0  0 
 14 43  1  0  0  0  0 
 14 44  1  0  0  0  0 
 15 45  1  0  0  0  0 
 17 46  1  0  0  0  0 
 17 47  1  0  0  0  0 
 18 48  1  0  0  0  0 
 18 49  1  0  0  0  0 
 19 50  1  0  0  0  0 
 20 51  1  0  0  0  0 
 22 52  1  0  0  0  0 
 23 53  1  0  0  0  0 
 24 54  1  0  0  0  0 
 25 55  1  0  0  0  0 
 26 56  1  0  0  0  0 
M  END
> <cdk:Title>
eprozinol

> <Conformer>
1

> <SuperDrugID>
SD000924

$$$$
