clindamycin palmitate
  CDK     0628171802

107108  0  0  0  0  0  0  0  0999 V2000
    1.2568   -4.8685   -1.3411 C   0  0  2  0  0  0  0  0  0  0  0  0
    2.3589   -5.4353   -0.6057 N   0  0  0  0  0  0  0  0  0  0  0  0
   -0.0614   -5.6105   -0.9371 C   0  0  2  0  0  0  0  0  0  0  0  0
    1.5979   -4.9422   -2.8764 C   0  0  1  0  0  0  0  0  0  0  0  0
    3.2696   -4.7758    0.1618 C   0  0  0  0  0  0  0  0  0  0  0  0
   -0.4214   -5.4365    0.5608 C   0  0  0  0  0  0  0  0  0  0  0  0
   -0.0096   -7.3325   -1.3278 Cl  0  0  0  0  0  0  0  0  0  0  0  0
    0.4327   -4.9326   -3.7447 O   0  0  0  0  0  0  0  0  0  0  0  0
    2.6757   -3.9189   -3.3836 C   0  0  2  0  0  0  0  0  0  0  0  0
    3.1448   -3.5524    0.4064 O   0  0  0  0  0  0  0  0  0  0  0  0
    4.4756   -5.4861    0.6629 C   0  0  2  0  0  0  0  0  0  0  0  0
   -0.1566   -3.6477   -4.0384 C   0  0  2  0  0  0  0  0  0  0  0  0
    3.7929   -3.7603   -2.5155 O   0  0  0  0  0  0  0  0  0  0  0  0
    2.0690   -2.5235   -3.7165 C   0  0  1  0  0  0  0  0  0  0  0  0
    5.2373   -6.2586   -0.4411 C   0  0  2  0  0  0  0  0  0  0  0  0
    4.2006   -6.5353    1.6737 N   0  0  2  0  0  0  0  0  0  0  0  0
   -1.5837   -3.8746   -5.1496 S   0  0  0  0  0  0  0  0  0  0  0  0
    0.8743   -2.6944   -4.6960 C   0  0  1  0  0  0  0  0  0  0  0  0
    1.6712   -1.8188   -2.5432 O   0  0  0  0  0  0  0  0  0  0  0  0
    6.0139   -7.3862    0.2855 C   0  0  2  0  0  0  0  0  0  0  0  0
    3.7481   -6.0309    3.0021 C   0  0  0  0  0  0  0  0  0  0  0  0
    5.4497   -7.3395    1.7303 C   0  0  1  0  0  0  0  0  0  0  0  0
   -2.8776   -4.5213   -4.0491 C   0  0  0  0  0  0  0  0  0  0  0  0
    1.3784   -3.2524   -5.9274 O   0  0  0  0  0  0  0  0  0  0  0  0
    7.5679   -7.2417    0.2284 C   0  0  1  0  0  0  0  0  0  0  0  0
    2.1667   -2.5870   -6.8238 C   0  0  0  0  0  0  0  0  0  0  0  0
    8.1890   -7.4582   -1.1794 C   0  0  1  0  0  0  0  0  0  0  0  0
    3.3372   -3.3126   -7.4671 C   0  0  2  0  0  0  0  0  0  0  0  0
    1.9978   -1.3654   -7.0453 O   0  0  0  0  0  0  0  0  0  0  0  0
    9.7260   -7.2975   -1.1588 C   0  0  0  0  0  0  0  0  0  0  0  0
    4.6491   -2.7093   -6.8013 C   0  0  1  0  0  0  0  0  0  0  0  0
    5.9120   -3.6128   -6.8703 C   0  0  2  0  0  0  0  0  0  0  0  0
    6.9626   -3.1836   -5.8062 C   0  0  2  0  0  0  0  0  0  0  0  0
    8.2677   -4.0276   -5.7886 C   0  0  2  0  0  0  0  0  0  0  0  0
    9.1557   -3.6617   -4.5625 C   0  0  1  0  0  0  0  0  0  0  0  0
   10.5189   -4.4047   -4.5197 C   0  0  1  0  0  0  0  0  0  0  0  0
   11.3516   -4.0563   -3.2513 C   0  0  1  0  0  0  0  0  0  0  0  0
   12.7079   -4.8157   -3.1742 C   0  0  2  0  0  0  0  0  0  0  0  0
   13.5265   -4.4910   -1.8888 C   0  0  1  0  0  0  0  0  0  0  0  0
   14.8860   -5.2480   -1.7979 C   0  0  2  0  0  0  0  0  0  0  0  0
   15.6622   -4.9343   -0.4853 C   0  0  2  0  0  0  0  0  0  0  0  0
   17.0258   -5.6723   -0.3735 C   0  0  1  0  0  0  0  0  0  0  0  0
   17.7911   -5.3530    0.9414 C   0  0  1  0  0  0  0  0  0  0  0  0
   19.0895   -6.1791    1.0921 C   0  0  0  0  0  0  0  0  0  0  0  0
    1.1134   -3.8171   -1.0796 H   0  0  0  0  0  0  0  0  0  0  0  0
    2.0239   -5.9359   -3.0445 H   0  0  0  0  0  0  0  0  0  0  0  0
    2.4903   -6.3900   -0.7047 H   0  0  0  0  0  0  0  0  0  0  0  0
   -0.8910   -5.1857   -1.5060 H   0  0  0  0  0  0  0  0  0  0  0  0
   -1.3767   -5.9168    0.7806 H   0  0  0  0  0  0  0  0  0  0  0  0
   -0.5095   -4.3759    0.8047 H   0  0  0  0  0  0  0  0  0  0  0  0
    0.3428   -5.8797    1.2021 H   0  0  0  0  0  0  0  0  0  0  0  0
    3.0957   -4.3318   -4.3061 H   0  0  0  0  0  0  0  0  0  0  0  0
    5.1688   -4.7463    1.0876 H   0  0  0  0  0  0  0  0  0  0  0  0
   -0.5351   -3.1940   -3.1200 H   0  0  0  0  0  0  0  0  0  0  0  0
    4.1659   -4.6612   -2.4181 H   0  0  0  0  0  0  0  0  0  0  0  0
    2.8324   -1.9005   -4.1844 H   0  0  0  0  0  0  0  0  0  0  0  0
    5.8869   -5.5804   -0.9946 H   0  0  0  0  0  0  0  0  0  0  0  0
    4.5519   -6.7173   -1.1577 H   0  0  0  0  0  0  0  0  0  0  0  0
    0.4021   -1.7244   -4.8845 H   0  0  0  0  0  0  0  0  0  0  0  0
    1.3363   -0.9567   -2.8699 H   0  0  0  0  0  0  0  0  0  0  0  0
    5.7396   -8.3533   -0.1531 H   0  0  0  0  0  0  0  0  0  0  0  0
    2.8196   -5.4652    2.8964 H   0  0  0  0  0  0  0  0  0  0  0  0
    3.5543   -6.8709    3.6727 H   0  0  0  0  0  0  0  0  0  0  0  0
    4.5023   -5.3844    3.4624 H   0  0  0  0  0  0  0  0  0  0  0  0
    6.1756   -6.8740    2.4031 H   0  0  0  0  0  0  0  0  0  0  0  0
    5.2394   -8.3435    2.1020 H   0  0  0  0  0  0  0  0  0  0  0  0
   -3.7734   -4.7339   -4.6332 H   0  0  0  0  0  0  0  0  0  0  0  0
   -3.1124   -3.7810   -3.2827 H   0  0  0  0  0  0  0  0  0  0  0  0
   -2.5290   -5.4385   -3.5746 H   0  0  0  0  0  0  0  0  0  0  0  0
    7.8538   -6.2508    0.5918 H   0  0  0  0  0  0  0  0  0  0  0  0
    8.0015   -7.9777    0.9101 H   0  0  0  0  0  0  0  0  0  0  0  0
    7.9431   -8.4632   -1.5337 H   0  0  0  0  0  0  0  0  0  0  0  0
    7.7819   -6.7342   -1.8895 H   0  0  0  0  0  0  0  0  0  0  0  0
    3.3544   -3.3921   -8.6235 H   0  0  0  0  0  0  0  0  0  0  0  0
    3.2659   -4.3499   -7.1295 H   0  0  0  0  0  0  0  0  0  0  0  0
    9.9978   -6.3185   -0.7597 H   0  0  0  0  0  0  0  0  0  0  0  0
   10.1733   -8.0664   -0.5275 H   0  0  0  0  0  0  0  0  0  0  0  0
   10.1298   -7.3876   -2.1700 H   0  0  0  0  0  0  0  0  0  0  0  0
    4.8733   -1.7532   -7.2813 H   0  0  0  0  0  0  0  0  0  0  0  0
    4.4552   -2.5017   -5.7469 H   0  0  0  0  0  0  0  0  0  0  0  0
    6.3449   -3.5558   -7.8710 H   0  0  0  0  0  0  0  0  0  0  0  0
    5.6310   -4.6496   -6.6786 H   0  0  0  0  0  0  0  0  0  0  0  0
    6.4954   -3.2517   -4.8157 H   0  0  0  0  0  0  0  0  0  0  0  0
    7.2244   -2.1368   -5.9832 H   0  0  0  0  0  0  0  0  0  0  0  0
    8.8192   -3.8573   -6.7186 H   0  0  0  0  0  0  0  0  0  0  0  0
    8.0093   -5.0891   -5.7355 H   0  0  0  0  0  0  0  0  0  0  0  0
    9.3474   -2.5856   -4.5758 H   0  0  0  0  0  0  0  0  0  0  0  0
    8.5963   -3.8965   -3.6501 H   0  0  0  0  0  0  0  0  0  0  0  0
   10.3311   -5.4809   -4.5384 H   0  0  0  0  0  0  0  0  0  0  0  0
   11.0950   -4.1367   -5.4104 H   0  0  0  0  0  0  0  0  0  0  0  0
   11.5504   -2.9822   -3.2505 H   0  0  0  0  0  0  0  0  0  0  0  0
   10.7630   -4.2919   -2.3593 H   0  0  0  0  0  0  0  0  0  0  0  0
   13.3041   -4.5600   -4.0544 H   0  0  0  0  0  0  0  0  0  0  0  0
   12.5080   -5.8899   -3.1995 H   0  0  0  0  0  0  0  0  0  0  0  0
   13.7185   -3.4150   -1.8551 H   0  0  0  0  0  0  0  0  0  0  0  0
   12.9232   -4.7533   -1.0143 H   0  0  0  0  0  0  0  0  0  0  0  0
   15.5098   -4.9719   -2.6521 H   0  0  0  0  0  0  0  0  0  0  0  0
   14.6974   -6.3239   -1.8530 H   0  0  0  0  0  0  0  0  0  0  0  0
   15.0383   -5.2177    0.3661 H   0  0  0  0  0  0  0  0  0  0  0  0
   15.8410   -3.8584   -0.4268 H   0  0  0  0  0  0  0  0  0  0  0  0
   16.8452   -6.7491   -0.4206 H   0  0  0  0  0  0  0  0  0  0  0  0
   17.6549   -5.3916   -1.2233 H   0  0  0  0  0  0  0  0  0  0  0  0
   18.0482   -4.2897    0.9653 H   0  0  0  0  0  0  0  0  0  0  0  0
   17.1506   -5.5669    1.8013 H   0  0  0  0  0  0  0  0  0  0  0  0
   19.5966   -5.9124    2.0214 H   0  0  0  0  0  0  0  0  0  0  0  0
   18.8628   -7.2469    1.1189 H   0  0  0  0  0  0  0  0  0  0  0  0
   19.7646   -5.9817    0.2575 H   0  0  0  0  0  0  0  0  0  0  0  0
  1  2  1  0  0  0  0 
  1  3  1  0  0  0  0 
  4  1  1  0  0  0  0 
  1 45  1  0  0  0  0 
  2  5  1  0  0  0  0 
  3  6  1  0  0  0  0 
  3  7  1  0  0  0  0 
  4  8  1  0  0  0  0 
  9  4  1  0  0  0  0 
  4 46  1  0  0  0  0 
  5 10  2  0  0  0  0 
 12  8  1  0  0  0  0 
  9 13  1  0  0  0  0 
 14  9  1  0  0  0  0 
 11  5  1  0  0  0  0 
 11 15  1  0  0  0  0 
 11 16  1  0  0  0  0 
 12 17  1  0  0  0  0 
 18 12  1  0  0  0  0 
 14 18  1  0  0  0  0 
 14 19  1  0  0  0  0 
 20 15  1  0  0  0  0 
 16 21  1  0  0  0  0 
 16 22  1  0  0  0  0 
 17 23  1  0  0  0  0 
 18 24  1  0  0  0  0 
 20 22  1  0  0  0  0 
 20 25  1  0  0  0  0 
 24 26  1  0  0  0  0 
 25 27  1  0  0  0  0 
 26 28  1  0  0  0  0 
 26 29  2  0  0  0  0 
 27 30  1  0  0  0  0 
 28 31  1  0  0  0  0 
 31 32  1  0  0  0  0 
 32 33  1  0  0  0  0 
 33 34  1  0  0  0  0 
 34 35  1  0  0  0  0 
 35 36  1  0  0  0  0 
 36 37  1  0  0  0  0 
 37 38  1  0  0  0  0 
 38 39  1  0  0  0  0 
 39 40  1  0  0  0  0 
 40 41  1  0  0  0  0 
 41 42  1  0  0  0  0 
 42 43  1  0  0  0  0 
 43 44  1  0  0  0  0 
  2 47  1  0  0  0  0 
  3 48  1  0  0  0  0 
  6 49  1  0  0  0  0 
  6 50  1  0  0  0  0 
  6 51  1  0  0  0  0 
  9 52  1  0  0  0  0 
 11 53  1  0  0  0  0 
 12 54  1  0  0  0  0 
 13 55  1  0  0  0  0 
 14 56  1  0  0  0  0 
 15 57  1  0  0  0  0 
 15 58  1  0  0  0  0 
 18 59  1  0  0  0  0 
 19 60  1  0  0  0  0 
 20 61  1  0  0  0  0 
 21 62  1  0  0  0  0 
 21 63  1  0  0  0  0 
 21 64  1  0  0  0  0 
 22 65  1  0  0  0  0 
 22 66  1  0  0  0  0 
 23 67  1  0  0  0  0 
 23 68  1  0  0  0  0 
 23 69  1  0  0  0  0 
 25 70  1  0  0  0  0 
 25 71  1  0  0  0  0 
 27 72  1  0  0  0  0 
 27 73  1  0  0  0  0 
 28 74  1  0  0  0  0 
 28 75  1  0  0  0  0 
 30 76  1  0  0  0  0 
 30 77  1  0  0  0  0 
 30 78  1  0  0  0  0 
 31 79  1  0  0  0  0 
 31 80  1  0  0  0  0 
 32 81  1  0  0  0  0 
 32 82  1  0  0  0  0 
 33 83  1  0  0  0  0 
 33 84  1  0  0  0  0 
 34 85  1  0  0  0  0 
 34 86  1  0  0  0  0 
 35 87  1  0  0  0  0 
 35 88  1  0  0  0  0 
 36 89  1  0  0  0  0 
 36 90  1  0  0  0  0 
 37 91  1  0  0  0  0 
 37 92  1  0  0  0  0 
 38 93  1  0  0  0  0 
 38 94  1  0  0  0  0 
 39 95  1  0  0  0  0 
 39 96  1  0  0  0  0 
 40 97  1  0  0  0  0 
 40 98  1  0  0  0  0 
 41 99  1  0  0  0  0 
 41100  1  0  0  0  0 
 42101  1  0  0  0  0 
 42102  1  0  0  0  0 
 43103  1  0  0  0  0 
 43104  1  0  0  0  0 
 44105  1  0  0  0  0 
 44106  1  0  0  0  0 
 44107  1  0  0  0  0 
M  END
> <cdk:Title>
clindamycin palmitate

> <Conformer>
1

> <SuperDrugID>
SD000598

$$$$
