Streptomycin B
  CDK     0628171801

100103  0  0  0  0  0  0  0  0999 V2000
    0.1288  -14.0228   -3.9131 O   0  0  0  0  0  0  0  0  0  0  0  0
   -1.0971  -13.2435   -3.9452 C   0  0  1  0  0  0  0  0  0  0  0  0
    0.3673  -14.9939   -4.9614 C   0  0  1  0  0  0  0  0  0  0  0  0
   -1.2699  -12.6337   -2.5379 C   0  0  2  0  0  0  0  0  0  0  0  0
   -1.0654  -11.9867   -4.8706 C   0  0  2  0  0  0  0  0  0  0  0  0
    1.6812  -15.7816   -4.6635 C   0  0  1  0  0  0  0  0  0  0  0  0
   -0.7474  -15.8757   -5.2100 O   0  0  0  0  0  0  0  0  0  0  0  0
   -2.6690  -12.4504   -2.1928 O   0  0  0  0  0  0  0  0  0  0  0  0
   -0.5261  -11.4158   -2.5997 O   0  0  0  0  0  0  0  0  0  0  0  0
   -2.3324  -11.8681   -5.6422 C   0  0  0  0  0  0  0  0  0  0  0  0
   -0.0107  -12.0691   -5.8325 O   0  0  0  0  0  0  0  0  0  0  0  0
   -0.8279  -10.8110   -3.8621 C   0  0  1  0  0  0  0  0  0  0  0  0
    2.8020  -14.8922   -4.2476 N   0  0  2  0  0  0  0  0  0  0  0  0
    1.4149  -16.8650   -3.5333 C   0  0  2  0  0  0  0  0  0  0  0  0
   -1.0983  -16.8084   -4.1278 C   0  0  2  0  0  0  0  0  0  0  0  0
   -3.0416  -11.8095   -0.9385 C   0  0  2  0  0  0  0  0  0  0  0  0
   -2.6464  -12.7290   -6.4970 O   0  0  0  0  0  0  0  0  0  0  0  0
    0.3005   -9.8078   -4.2013 C   0  0  0  0  0  0  0  0  0  0  0  0
    3.3643  -14.0010   -5.2815 C   0  0  0  0  0  0  0  0  0  0  0  0
    2.6694  -17.5760   -3.3523 O   0  0  0  0  0  0  0  0  0  0  0  0
    0.1276  -17.8480   -3.7897 C   0  0  2  0  0  0  0  0  0  0  0  0
   -2.4677  -17.4107   -4.6250 C   0  0  2  0  0  0  0  0  0  0  0  0
   -3.1286  -10.2496   -1.0736 C   0  0  1  0  0  0  0  0  0  0  0  0
   -2.2062  -12.2733    0.3024 C   0  0  2  0  0  0  0  0  0  0  0  0
   -0.0164  -18.6865   -2.6157 O   0  0  0  0  0  0  0  0  0  0  0  0
   -3.3245  -16.4252   -5.1989 O   0  0  0  0  0  0  0  0  0  0  0  0
   -3.9949   -9.7226   -2.0492 N   0  0  0  0  0  0  0  0  0  0  0  0
   -3.5275   -9.5615    0.2730 C   0  0  2  0  0  0  0  0  0  0  0  0
   -2.3712  -13.6817    0.4886 O   0  0  0  0  0  0  0  0  0  0  0  0
   -2.6076  -11.5538    1.6158 C   0  0  2  0  0  0  0  0  0  0  0  0
   -0.8484  -19.8696   -2.7092 C   0  0  1  0  0  0  0  0  0  0  0  0
   -4.8764  -10.1514   -2.8809 C   0  0  0  0  0  0  0  0  0  0  0  0
   -3.4592   -8.1355    0.1451 O   0  0  0  0  0  0  0  0  0  0  0  0
   -2.5902  -10.0045    1.4377 C   0  0  2  0  0  0  0  0  0  0  0  0
   -1.7001  -11.9389    2.6516 O   0  0  0  0  0  0  0  0  0  0  0  0
   -0.4616  -20.8074   -3.7449 O   0  0  0  0  0  0  0  0  0  0  0  0
   -0.9689  -20.5641   -1.3213 C   0  0  1  0  0  0  0  0  0  0  0  0
   -5.2448  -11.4002   -3.0845 N   0  0  0  0  0  0  0  0  0  0  0  0
   -5.4911   -9.2306   -3.5898 N   0  0  0  0  0  0  0  0  0  0  0  0
   -2.7997   -9.3148    2.6386 N   0  0  0  0  0  0  0  0  0  0  0  0
    0.7002  -21.6443   -3.5213 C   0  0  1  0  0  0  0  0  0  0  0  0
   -2.1195  -21.4139   -1.3013 O   0  0  0  0  0  0  0  0  0  0  0  0
    0.2944  -21.4026   -0.9935 C   0  0  2  0  0  0  0  0  0  0  0  0
   -3.7876   -9.2806    3.4582 C   0  0  0  0  0  0  0  0  0  0  0  0
    2.0227  -20.8734   -3.7805 C   0  0  1  0  0  0  0  0  0  0  0  0
    0.6151  -22.3855   -2.1506 C   0  0  2  0  0  0  0  0  0  0  0  0
    0.0986  -22.1231    0.2238 O   0  0  0  0  0  0  0  0  0  0  0  0
   -3.6358   -8.5508    4.5370 N   0  0  0  0  0  0  0  0  0  0  0  0
   -4.9178   -9.9391    3.2928 N   0  0  0  0  0  0  0  0  0  0  0  0
    3.1279  -21.7563   -3.9416 O   0  0  0  0  0  0  0  0  0  0  0  0
    1.8044  -23.1184   -1.8600 O   0  0  0  0  0  0  0  0  0  0  0  0
   -1.9549  -13.8972   -4.1391 H   0  0  0  0  0  0  0  0  0  0  0  0
    0.5177  -14.4655   -5.9029 H   0  0  0  0  0  0  0  0  0  0  0  0
   -0.8090  -13.2983   -1.8018 H   0  0  0  0  0  0  0  0  0  0  0  0
    1.9713  -16.3240   -5.5692 H   0  0  0  0  0  0  0  0  0  0  0  0
   -2.9844  -11.0997   -5.4755 H   0  0  0  0  0  0  0  0  0  0  0  0
   -0.0702  -11.2405   -6.3520 H   0  0  0  0  0  0  0  0  0  0  0  0
   -1.7375  -10.2181   -3.7281 H   0  0  0  0  0  0  0  0  0  0  0  0
    3.5702  -15.5011   -3.9582 H   0  0  0  0  0  0  0  0  0  0  0  0
    1.3334  -16.2656   -2.5845 H   0  0  0  0  0  0  0  0  0  0  0  0
   -1.3994  -16.1640   -3.2583 H   0  0  0  0  0  0  0  0  0  0  0  0
   -4.0600  -12.1497   -0.7382 H   0  0  0  0  0  0  0  0  0  0  0  0
    0.0602   -9.2690   -5.1185 H   0  0  0  0  0  0  0  0  0  0  0  0
    0.4020   -9.0846   -3.3903 H   0  0  0  0  0  0  0  0  0  0  0  0
    1.2557  -10.3207   -4.3284 H   0  0  0  0  0  0  0  0  0  0  0  0
    4.2057  -13.4597   -4.8480 H   0  0  0  0  0  0  0  0  0  0  0  0
    3.7245  -14.5760   -6.1359 H   0  0  0  0  0  0  0  0  0  0  0  0
    2.6266  -13.2715   -5.6145 H   0  0  0  0  0  0  0  0  0  0  0  0
    2.8173  -18.0535   -4.1955 H   0  0  0  0  0  0  0  0  0  0  0  0
    0.3357  -18.4459   -4.6778 H   0  0  0  0  0  0  0  0  0  0  0  0
   -3.0128  -17.8430   -3.7875 H   0  0  0  0  0  0  0  0  0  0  0  0
   -2.2801  -18.1869   -5.3693 H   0  0  0  0  0  0  0  0  0  0  0  0
   -2.1285   -9.8851   -1.3218 H   0  0  0  0  0  0  0  0  0  0  0  0
   -1.1476  -12.0642    0.1310 H   0  0  0  0  0  0  0  0  0  0  0  0
   -4.1308  -16.9168   -5.4630 H   0  0  0  0  0  0  0  0  0  0  0  0
   -4.5617   -9.8231    0.5175 H   0  0  0  0  0  0  0  0  0  0  0  0
   -2.1172  -14.0931   -0.3622 H   0  0  0  0  0  0  0  0  0  0  0  0
   -3.6087  -11.8898    1.8994 H   0  0  0  0  0  0  0  0  0  0  0  0
   -1.8532  -19.5485   -2.9640 H   0  0  0  0  0  0  0  0  0  0  0  0
   -4.0751   -7.9053   -0.5833 H   0  0  0  0  0  0  0  0  0  0  0  0
   -1.5705   -9.7268    1.1533 H   0  0  0  0  0  0  0  0  0  0  0  0
   -2.0251  -11.4869    3.4588 H   0  0  0  0  0  0  0  0  0  0  0  0
   -1.1101  -19.8065   -0.5451 H   0  0  0  0  0  0  0  0  0  0  0  0
   -4.8520  -12.1325   -2.5904 H   0  0  0  0  0  0  0  0  0  0  0  0
   -5.9243  -11.5942   -3.7487 H   0  0  0  0  0  0  0  0  0  0  0  0
   -6.1863   -9.4869   -4.2168 H   0  0  0  0  0  0  0  0  0  0  0  0
   -5.2611   -8.2928   -3.4796 H   0  0  0  0  0  0  0  0  0  0  0  0
    0.6454  -22.4125   -4.2983 H   0  0  0  0  0  0  0  0  0  0  0  0
   -2.8824  -20.8235   -1.4755 H   0  0  0  0  0  0  0  0  0  0  0  0
    1.1399  -20.7282   -0.8362 H   0  0  0  0  0  0  0  0  0  0  0  0
    1.9308  -20.2969   -4.7022 H   0  0  0  0  0  0  0  0  0  0  0  0
    2.2409  -20.1916   -2.9599 H   0  0  0  0  0  0  0  0  0  0  0  0
   -0.1954  -23.1189   -2.2107 H   0  0  0  0  0  0  0  0  0  0  0  0
    0.9494  -22.5822    0.3897 H   0  0  0  0  0  0  0  0  0  0  0  0
   -2.8165   -8.0474    4.6727 H   0  0  0  0  0  0  0  0  0  0  0  0
   -4.3373   -8.5089    5.2032 H   0  0  0  0  0  0  0  0  0  0  0  0
   -5.5962   -9.9178    3.9854 H   0  0  0  0  0  0  0  0  0  0  0  0
   -5.0763  -10.4443    2.4810 H   0  0  0  0  0  0  0  0  0  0  0  0
    3.8942  -21.1686   -4.1123 H   0  0  0  0  0  0  0  0  0  0  0  0
    1.8920  -23.7618   -2.5950 H   0  0  0  0  0  0  0  0  0  0  0  0
  3  1  1  0  0  0  0 
  2  1  1  0  0  0  0 
  2  4  1  0  0  0  0 
  2  5  1  0  0  0  0 
  6  3  1  0  0  0  0 
  3  7  1  0  0  0  0 
  4  8  1  0  0  0  0 
  4  9  1  0  0  0  0 
  5 10  1  0  0  0  0 
  5 11  1  0  0  0  0 
  5 12  1  0  0  0  0 
  6 13  1  0  0  0  0 
  6 14  1  0  0  0  0 
 15  7  1  0  0  0  0 
 16  8  1  0  0  0  0 
 12  9  1  0  0  0  0 
 10 17  2  0  0  0  0 
 12 18  1  0  0  0  0 
 13 19  1  0  0  0  0 
 14 20  1  0  0  0  0 
 14 21  1  0  0  0  0 
 21 15  1  0  0  0  0 
 15 22  1  0  0  0  0 
 16 23  1  0  0  0  0 
 16 24  1  0  0  0  0 
 21 25  1  0  0  0  0 
 22 26  1  0  0  0  0 
 23 27  1  0  0  0  0 
 23 28  1  0  0  0  0 
 24 29  1  0  0  0  0 
 24 30  1  0  0  0  0 
 31 25  1  0  0  0  0 
 27 32  2  0  0  0  0 
 28 33  1  0  0  0  0 
 28 34  1  0  0  0  0 
 30 34  1  0  0  0  0 
 30 35  1  0  0  0  0 
 31 36  1  0  0  0  0 
 37 31  1  0  0  0  0 
 32 38  1  0  0  0  0 
 32 39  1  0  0  0  0 
 34 40  1  0  0  0  0 
 41 36  1  0  0  0  0 
 37 42  1  0  0  0  0 
 37 43  1  0  0  0  0 
 40 44  2  0  0  0  0 
 41 45  1  0  0  0  0 
 46 41  1  0  0  0  0 
 43 46  1  0  0  0  0 
 43 47  1  0  0  0  0 
 44 48  1  0  0  0  0 
 44 49  1  0  0  0  0 
 45 50  1  0  0  0  0 
 46 51  1  0  0  0  0 
  2 52  1  0  0  0  0 
  3 53  1  0  0  0  0 
  4 54  1  0  0  0  0 
  6 55  1  0  0  0  0 
 56 10  1  0  0  0  0 
 57 11  1  0  0  0  0 
 12 58  1  0  0  0  0 
 59 13  1  0  0  0  0 
 14 60  1  0  0  0  0 
 15 61  1  0  0  0  0 
 16 62  1  0  0  0  0 
 63 18  1  0  0  0  0 
 64 18  1  0  0  0  0 
 65 18  1  0  0  0  0 
 66 19  1  0  0  0  0 
 67 19  1  0  0  0  0 
 68 19  1  0  0  0  0 
 69 20  1  0  0  0  0 
 21 70  1  0  0  0  0 
 71 22  1  0  0  0  0 
 72 22  1  0  0  0  0 
 23 73  1  0  0  0  0 
 24 74  1  0  0  0  0 
 75 26  1  0  0  0  0 
 28 76  1  0  0  0  0 
 77 29  1  0  0  0  0 
 30 78  1  0  0  0  0 
 31 79  1  0  0  0  0 
 80 33  1  0  0  0  0 
 34 81  1  0  0  0  0 
 82 35  1  0  0  0  0 
 37 83  1  0  0  0  0 
 84 38  1  0  0  0  0 
 85 38  1  0  0  0  0 
 86 39  1  0  0  0  0 
 87 39  1  0  0  0  0 
 41 88  1  0  0  0  0 
 89 42  1  0  0  0  0 
 43 90  1  0  0  0  0 
 91 45  1  0  0  0  0 
 92 45  1  0  0  0  0 
 46 93  1  0  0  0  0 
 94 47  1  0  0  0  0 
 95 48  1  0  0  0  0 
 96 48  1  0  0  0  0 
 97 49  1  0  0  0  0 
 98 49  1  0  0  0  0 
 99 50  1  0  0  0  0 
100 51  1  0  0  0  0 
M  END
> <cdk:Title>
Streptomycin B

> <Conformer>
1

> <SuperDrugID>
SD002230

$$$$
