venlafaxine
  CDK     0628171801

 47 48  0  0  0  0  0  0  0  0999 V2000
    1.1734   -2.0259    2.4519 C   0  0  0  0  0  0  0  0  0  0  0  0
    0.5780   -2.4363    3.6600 C   0  0  0  0  0  0  0  0  0  0  0  0
    0.2961   -1.4975    4.6698 C   0  0  0  0  0  0  0  0  0  0  0  0
    0.6118   -0.1431    4.4568 C   0  0  0  0  0  0  0  0  0  0  0  0
    1.2013    0.2650    3.2479 C   0  0  0  0  0  0  0  0  0  0  0  0
    1.5039   -0.6658    2.2217 C   0  0  0  0  0  0  0  0  0  0  0  0
   -0.2372   -1.9075    5.8609 O   0  0  0  0  0  0  0  0  0  0  0  0
   -1.6736   -1.8679    5.8955 C   0  0  0  0  0  0  0  0  0  0  0  0
    2.1427   -0.2336    0.9241 C   0  0  2  0  0  0  0  0  0  0  0  0
    3.6385    0.2783    1.0799 C   0  0  2  0  0  0  0  0  0  0  0  0
    1.1875    0.7489    0.1665 C   0  0  2  0  0  0  0  0  0  0  0  0
   -0.2029    0.2294   -0.0667 N   0  0  1  0  0  0  0  0  0  0  0  0
   -1.1263    1.3111   -0.5195 C   0  0  0  0  0  0  0  0  0  0  0  0
   -0.2733   -0.9664   -0.9664 C   0  0  0  0  0  0  0  0  0  0  0  0
    5.4612   -1.6013   -0.5146 C   0  0  1  0  0  0  0  0  0  0  0  0
    4.6302   -0.4931   -1.2132 C   0  0  1  0  0  0  0  0  0  0  0  0
    4.3509    0.6972   -0.2572 C   0  0  1  0  0  0  0  0  0  0  0  0
    4.5670   -0.7831    1.7658 C   0  0  2  0  0  0  0  0  0  0  0  0
    4.8730   -2.0107    0.8617 C   0  0  2  0  0  0  0  0  0  0  0  0
    3.6556    1.4424    1.9101 O   0  0  0  0  0  0  0  0  0  0  0  0
    1.3690   -2.7366    1.7433 H   0  0  0  0  0  0  0  0  0  0  0  0
    0.3520   -3.4224    3.8054 H   0  0  0  0  0  0  0  0  0  0  0  0
    0.4132    0.5527    5.1821 H   0  0  0  0  0  0  0  0  0  0  0  0
    1.4065    1.2590    3.1304 H   0  0  0  0  0  0  0  0  0  0  0  0
   -1.9945   -2.2488    6.8655 H   0  0  0  0  0  0  0  0  0  0  0  0
   -2.0455   -0.8457    5.7924 H   0  0  0  0  0  0  0  0  0  0  0  0
   -2.1146   -2.4997    5.1201 H   0  0  0  0  0  0  0  0  0  0  0  0
    2.2089   -1.1046    0.2747 H   0  0  0  0  0  0  0  0  0  0  0  0
    1.6073    1.0106   -0.8061 H   0  0  0  0  0  0  0  0  0  0  0  0
    1.1435    1.6719    0.7488 H   0  0  0  0  0  0  0  0  0  0  0  0
   -1.1357    2.1318    0.2016 H   0  0  0  0  0  0  0  0  0  0  0  0
   -2.1496    0.9350   -0.5929 H   0  0  0  0  0  0  0  0  0  0  0  0
   -0.8239    1.7028   -1.4956 H   0  0  0  0  0  0  0  0  0  0  0  0
    0.1658   -1.8371   -0.4806 H   0  0  0  0  0  0  0  0  0  0  0  0
   -1.3085   -1.2299   -1.1949 H   0  0  0  0  0  0  0  0  0  0  0  0
    0.2523   -0.7918   -1.9089 H   0  0  0  0  0  0  0  0  0  0  0  0
    5.5021   -2.4798   -1.1634 H   0  0  0  0  0  0  0  0  0  0  0  0
    6.4846   -1.2421   -0.3706 H   0  0  0  0  0  0  0  0  0  0  0  0
    5.1851   -0.1261   -2.0802 H   0  0  0  0  0  0  0  0  0  0  0  0
    3.6890   -0.9070   -1.5823 H   0  0  0  0  0  0  0  0  0  0  0  0
    3.7847    1.4638   -0.7854 H   0  0  0  0  0  0  0  0  0  0  0  0
    5.3127    1.1616   -0.0187 H   0  0  0  0  0  0  0  0  0  0  0  0
    4.1265   -1.1255    2.7046 H   0  0  0  0  0  0  0  0  0  0  0  0
    5.5202   -0.3112    2.0241 H   0  0  0  0  0  0  0  0  0  0  0  0
    5.5892   -2.6540    1.3765 H   0  0  0  0  0  0  0  0  0  0  0  0
    3.9657   -2.5989    0.7133 H   0  0  0  0  0  0  0  0  0  0  0  0
    3.1865    2.1361    1.4008 H   0  0  0  0  0  0  0  0  0  0  0  0
  1  2  2  0  0  0  0 
  2  3  1  0  0  0  0 
  3  4  2  0  0  0  0 
  4  5  1  0  0  0  0 
  5  6  2  0  0  0  0 
  1  6  1  0  0  0  0 
  3  7  1  0  0  0  0 
  7  8  1  0  0  0  0 
  9  6  1  0  0  0  0 
  9 10  1  0  0  0  0 
  9 11  1  0  0  0  0 
 11 12  1  0  0  0  0 
 12 13  1  0  0  0  0 
 12 14  1  0  0  0  0 
 17 10  1  0  0  0  0 
 10 18  1  0  0  0  0 
 15 16  1  0  0  0  0 
 16 17  1  0  0  0  0 
 18 19  1  0  0  0  0 
 15 19  1  0  0  0  0 
 10 20  1  0  0  0  0 
  1 21  1  0  0  0  0 
  2 22  1  0  0  0  0 
  4 23  1  0  0  0  0 
  5 24  1  0  0  0  0 
  8 25  1  0  0  0  0 
  8 26  1  0  0  0  0 
  8 27  1  0  0  0  0 
  9 28  1  0  0  0  0 
 11 29  1  0  0  0  0 
 11 30  1  0  0  0  0 
 13 31  1  0  0  0  0 
 13 32  1  0  0  0  0 
 13 33  1  0  0  0  0 
 14 34  1  0  0  0  0 
 14 35  1  0  0  0  0 
 14 36  1  0  0  0  0 
 15 37  1  0  0  0  0 
 15 38  1  0  0  0  0 
 16 39  1  0  0  0  0 
 16 40  1  0  0  0  0 
 17 41  1  0  0  0  0 
 17 42  1  0  0  0  0 
 18 43  1  0  0  0  0 
 18 44  1  0  0  0  0 
 19 45  1  0  0  0  0 
 19 46  1  0  0  0  0 
 20 47  1  0  0  0  0 
M  END
> <cdk:Title>
venlafaxine

> <Conformer>
1

> <SuperDrugID>
SD002538

$$$$
