mepivacaine
  CDK     0628171801

 40 41  0  0  0  0  0  0  0  0999 V2000
    1.6336    2.2905   -0.4166 N   0  0  0  0  0  0  0  0  0  0  0  0
    2.1045    1.1674    0.2067 C   0  0  0  0  0  0  0  0  0  0  0  0
    2.1657    3.5513   -0.3446 C   0  0  0  0  0  0  0  0  0  0  0  0
    3.1308    1.2339    0.9266 O   0  0  0  0  0  0  0  0  0  0  0  0
    1.4704   -0.1762    0.0320 C   0  0  1  0  0  0  0  0  0  0  0  0
    2.3636    4.2341    0.8943 C   0  0  0  0  0  0  0  0  0  0  0  0
    2.5156    4.1890   -1.5700 C   0  0  0  0  0  0  0  0  0  0  0  0
    0.0968   -0.1536   -0.6050 N   0  0  2  0  0  0  0  0  0  0  0  0
    2.4837   -1.0697   -0.7583 C   0  0  1  0  0  0  0  0  0  0  0  0
    1.8958    3.7149    2.2075 C   0  0  0  0  0  0  0  0  0  0  0  0
    3.0151    5.4893    0.8950 C   0  0  0  0  0  0  0  0  0  0  0  0
    2.2640    3.5358   -2.8855 C   0  0  0  0  0  0  0  0  0  0  0  0
    3.1282    5.4642   -1.5310 C   0  0  0  0  0  0  0  0  0  0  0  0
   -0.9420    0.5220    0.2402 C   0  0  0  0  0  0  0  0  0  0  0  0
   -0.4212   -1.5026   -1.0278 C   0  0  1  0  0  0  0  0  0  0  0  0
    1.9164   -2.4673   -1.0999 C   0  0  2  0  0  0  0  0  0  0  0  0
    3.3953    6.0993   -0.3083 C   0  0  0  0  0  0  0  0  0  0  0  0
    0.5851   -2.3233   -1.8665 C   0  0  2  0  0  0  0  0  0  0  0  0
    1.3650   -0.6173    1.0302 H   0  0  0  0  0  0  0  0  0  0  0  0
    0.8776    2.1789   -1.0123 H   0  0  0  0  0  0  0  0  0  0  0  0
    2.7682   -0.5732   -1.6919 H   0  0  0  0  0  0  0  0  0  0  0  0
    3.3950   -1.2151   -0.1682 H   0  0  0  0  0  0  0  0  0  0  0  0
    2.7530    3.3792    2.7958 H   0  0  0  0  0  0  0  0  0  0  0  0
    1.1949    2.8883    2.1024 H   0  0  0  0  0  0  0  0  0  0  0  0
    1.3727    4.4985    2.7606 H   0  0  0  0  0  0  0  0  0  0  0  0
    3.2052    5.9804    1.7755 H   0  0  0  0  0  0  0  0  0  0  0  0
    1.1977    3.3260   -2.9906 H   0  0  0  0  0  0  0  0  0  0  0  0
    2.5648    4.1617   -3.7292 H   0  0  0  0  0  0  0  0  0  0  0  0
    2.8166    2.5952   -2.9527 H   0  0  0  0  0  0  0  0  0  0  0  0
    3.3914    5.9432   -2.3963 H   0  0  0  0  0  0  0  0  0  0  0  0
   -1.0951   -0.0216    1.1754 H   0  0  0  0  0  0  0  0  0  0  0  0
   -1.8941    0.5732   -0.2923 H   0  0  0  0  0  0  0  0  0  0  0  0
   -0.6630    1.5432    0.4896 H   0  0  0  0  0  0  0  0  0  0  0  0
   -0.7012   -2.0935   -0.1485 H   0  0  0  0  0  0  0  0  0  0  0  0
   -1.3171   -1.3724   -1.6429 H   0  0  0  0  0  0  0  0  0  0  0  0
    1.7535   -3.0365   -0.1787 H   0  0  0  0  0  0  0  0  0  0  0  0
    2.6341   -3.0218   -1.7127 H   0  0  0  0  0  0  0  0  0  0  0  0
    3.8562    7.0133   -0.2938 H   0  0  0  0  0  0  0  0  0  0  0  0
    0.7624   -1.8254   -2.8260 H   0  0  0  0  0  0  0  0  0  0  0  0
    0.1735   -3.3161   -2.0689 H   0  0  0  0  0  0  0  0  0  0  0  0
  1  2  1  0  0  0  0 
  1  3  1  0  0  0  0 
  2  4  2  0  0  0  0 
  5  2  1  0  0  0  0 
  3  6  2  0  0  0  0 
  3  7  1  0  0  0  0 
  5  8  1  0  0  0  0 
  5  9  1  0  0  0  0 
  6 10  1  0  0  0  0 
  6 11  1  0  0  0  0 
  7 12  1  0  0  0  0 
  7 13  2  0  0  0  0 
  8 14  1  0  0  0  0 
  8 15  1  0  0  0  0 
  9 16  1  0  0  0  0 
 11 17  2  0  0  0  0 
 13 17  1  0  0  0  0 
 15 18  1  0  0  0  0 
 16 18  1  0  0  0  0 
  5 19  1  0  0  0  0 
  1 20  1  0  0  0  0 
  9 21  1  0  0  0  0 
  9 22  1  0  0  0  0 
 10 23  1  0  0  0  0 
 10 24  1  0  0  0  0 
 10 25  1  0  0  0  0 
 11 26  1  0  0  0  0 
 12 27  1  0  0  0  0 
 12 28  1  0  0  0  0 
 12 29  1  0  0  0  0 
 13 30  1  0  0  0  0 
 14 31  1  0  0  0  0 
 14 32  1  0  0  0  0 
 14 33  1  0  0  0  0 
 15 34  1  0  0  0  0 
 15 35  1  0  0  0  0 
 16 36  1  0  0  0  0 
 16 37  1  0  0  0  0 
 17 38  1  0  0  0  0 
 18 39  1  0  0  0  0 
 18 40  1  0  0  0  0 
M  END
> <cdk:Title>
mepivacaine

> <Conformer>
1

> <SuperDrugID>
SD001504

$$$$
