propyliodone
  CDK     0628171801

 27 27  0  0  0  0  0  0  0  0999 V2000
    0.9959   -1.1159    1.1162 C   0  0  2  0  0  0  0  0  0  0  0  0
   -0.4264   -0.7166    1.1057 C   0  0  0  0  0  0  0  0  0  0  0  0
    1.7132   -0.6191   -0.0398 N   0  0  0  0  0  0  0  0  0  0  0  0
   -1.4014   -1.6695    0.9866 O   0  0  0  0  0  0  0  0  0  0  0  0
   -0.7187    0.4995    1.1955 O   0  0  0  0  0  0  0  0  0  0  0  0
    2.6176    0.4072    0.0780 C   0  0  0  0  0  0  0  0  0  0  0  0
    1.4882   -1.1904   -1.2662 C   0  0  0  0  0  0  0  0  0  0  0  0
   -2.8165   -1.4343    0.9543 C   0  0  2  0  0  0  0  0  0  0  0  0
    3.3286    0.8861   -1.0399 C   0  0  0  0  0  0  0  0  0  0  0  0
    2.1714   -0.7519   -2.4143 C   0  0  0  0  0  0  0  0  0  0  0  0
   -3.5644   -2.7574    0.6671 C   0  0  2  0  0  0  0  0  0  0  0  0
    4.6714    2.4268   -0.8090 I   0  0  0  0  0  0  0  0  0  0  0  0
    3.1006    0.2976   -2.2979 C   0  0  0  0  0  0  0  0  0  0  0  0
    1.7970   -1.6486   -4.2247 I   0  0  0  0  0  0  0  0  0  0  0  0
   -5.0799   -2.5684    0.4350 C   0  0  0  0  0  0  0  0  0  0  0  0
    3.7211    0.7032   -3.3072 O   0  0  0  0  0  0  0  0  0  0  0  0
    1.0705   -2.2062    1.1415 H   0  0  0  0  0  0  0  0  0  0  0  0
    1.4348   -0.7624    2.0532 H   0  0  0  0  0  0  0  0  0  0  0  0
    2.7925    0.8496    0.9851 H   0  0  0  0  0  0  0  0  0  0  0  0
    0.8168   -1.9556   -1.3664 H   0  0  0  0  0  0  0  0  0  0  0  0
   -3.0403   -0.7073    0.1697 H   0  0  0  0  0  0  0  0  0  0  0  0
   -3.1398   -1.0266    1.9159 H   0  0  0  0  0  0  0  0  0  0  0  0
   -3.4194   -3.4378    1.5100 H   0  0  0  0  0  0  0  0  0  0  0  0
   -3.1353   -3.2248   -0.2218 H   0  0  0  0  0  0  0  0  0  0  0  0
   -5.5437   -3.5338    0.2263 H   0  0  0  0  0  0  0  0  0  0  0  0
   -5.2628   -1.9101   -0.4159 H   0  0  0  0  0  0  0  0  0  0  0  0
   -5.5512   -2.1405    1.3207 H   0  0  0  0  0  0  0  0  0  0  0  0
  1  2  1  0  0  0  0 
  1  3  1  0  0  0  0 
  2  4  1  0  0  0  0 
  2  5  2  0  0  0  0 
  3  6  1  0  0  0  0 
  3  7  1  0  0  0  0 
  4  8  1  0  0  0  0 
  6  9  2  0  0  0  0 
  7 10  2  0  0  0  0 
  8 11  1  0  0  0  0 
  9 12  1  0  0  0  0 
  9 13  1  0  0  0  0 
 10 13  1  0  0  0  0 
 10 14  1  0  0  0  0 
 11 15  1  0  0  0  0 
 13 16  2  0  0  0  0 
  1 17  1  0  0  0  0 
  1 18  1  0  0  0  0 
  6 19  1  0  0  0  0 
  7 20  1  0  0  0  0 
  8 21  1  0  0  0  0 
  8 22  1  0  0  0  0 
 11 23  1  0  0  0  0 
 11 24  1  0  0  0  0 
 15 25  1  0  0  0  0 
 15 26  1  0  0  0  0 
 15 27  1  0  0  0  0 
M  END
> <cdk:Title>
propyliodone

> <Conformer>
1

> <SuperDrugID>
SD002070

$$$$
