methylparaben
  CDK     0628171801

 19 19  0  0  0  0  0  0  0  0999 V2000
    1.6107    0.1179   -0.1213 C   0  0  0  0  0  0  0  0  0  0  0  0
    0.2772   -0.1724    0.3083 O   0  0  0  0  0  0  0  0  0  0  0  0
   -0.4247    0.4560    1.3028 C   0  0  0  0  0  0  0  0  0  0  0  0
    0.1294    1.3804    1.9471 O   0  0  0  0  0  0  0  0  0  0  0  0
   -1.7645    0.0638    1.5846 C   0  0  0  0  0  0  0  0  0  0  0  0
   -2.3716   -1.0003    0.8696 C   0  0  0  0  0  0  0  0  0  0  0  0
   -3.6946   -1.3968    1.1371 C   0  0  0  0  0  0  0  0  0  0  0  0
   -4.4396   -0.7399    2.1322 C   0  0  0  0  0  0  0  0  0  0  0  0
   -5.7104   -1.1384    2.3886 O   0  0  0  0  0  0  0  0  0  0  0  0
   -3.8575    0.3194    2.8516 C   0  0  0  0  0  0  0  0  0  0  0  0
   -2.5339    0.7154    2.5825 C   0  0  0  0  0  0  0  0  0  0  0  0
    2.3082   -0.0067    0.7071 H   0  0  0  0  0  0  0  0  0  0  0  0
    1.8869   -0.5695   -0.9212 H   0  0  0  0  0  0  0  0  0  0  0  0
    1.6684    1.1381   -0.5013 H   0  0  0  0  0  0  0  0  0  0  0  0
   -1.8561   -1.5062    0.1460 H   0  0  0  0  0  0  0  0  0  0  0  0
   -4.1126   -2.1670    0.6086 H   0  0  0  0  0  0  0  0  0  0  0  0
   -6.0114   -0.5967    3.1461 H   0  0  0  0  0  0  0  0  0  0  0  0
   -4.3958    0.8017    3.5751 H   0  0  0  0  0  0  0  0  0  0  0  0
   -2.1398    1.4853    3.1300 H   0  0  0  0  0  0  0  0  0  0  0  0
  1  2  1  0  0  0  0 
  2  3  1  0  0  0  0 
  3  4  2  0  0  0  0 
  3  5  1  0  0  0  0 
  5  6  2  0  0  0  0 
  6  7  1  0  0  0  0 
  7  8  2  0  0  0  0 
  8  9  1  0  0  0  0 
  8 10  1  0  0  0  0 
 10 11  2  0  0  0  0 
  5 11  1  0  0  0  0 
  1 12  1  0  0  0  0 
  1 13  1  0  0  0  0 
  1 14  1  0  0  0  0 
  6 15  1  0  0  0  0 
  7 16  1  0  0  0  0 
  9 17  1  0  0  0  0 
 10 18  1  0  0  0  0 
 11 19  1  0  0  0  0 
M  END
> <cdk:Title>
methylparaben

> <Conformer>
1

> <SuperDrugID>
SD001566

$$$$
