prochlorperazine
  CDK     0628171801

 49 52  0  0  0  0  0  0  0  0999 V2000
   -1.4305   -7.4118    2.6747 C   0  0  0  0  0  0  0  0  0  0  0  0
   -1.0616   -6.0560    2.1815 N   0  0  1  0  0  0  0  0  0  0  0  0
   -2.2056   -5.0994    2.2117 C   0  0  1  0  0  0  0  0  0  0  0  0
   -1.8025   -3.7506    1.5707 C   0  0  1  0  0  0  0  0  0  0  0  0
   -0.5533   -3.1748    2.1660 N   0  0  2  0  0  0  0  0  0  0  0  0
   -0.1203   -1.8953    1.5108 C   0  0  1  0  0  0  0  0  0  0  0  0
   -1.0845   -0.6939    1.6952 C   0  0  2  0  0  0  0  0  0  0  0  0
   -1.4282   -0.3656    3.1767 C   0  0  2  0  0  0  0  0  0  0  0  0
   -0.2877   -0.1447    4.0656 N   0  0  0  0  0  0  0  0  0  0  0  0
    0.7395    0.7253    3.6930 C   0  0  0  0  0  0  0  0  0  0  0  0
    0.4792    1.9673    3.0584 C   0  0  0  0  0  0  0  0  0  0  0  0
    1.5253    2.8049    2.6282 C   0  0  0  0  0  0  0  0  0  0  0  0
    2.8618    2.4222    2.8292 C   0  0  0  0  0  0  0  0  0  0  0  0
    3.1508    1.2141    3.4835 C   0  0  0  0  0  0  0  0  0  0  0  0
    2.0996    0.3836    3.9188 C   0  0  0  0  0  0  0  0  0  0  0  0
    2.4848   -1.1012    4.7781 S   0  0  0  0  0  0  0  0  0  0  0  0
    1.0290   -1.3777    5.7248 C   0  0  0  0  0  0  0  0  0  0  0  0
   -0.2039   -0.8404    5.2725 C   0  0  0  0  0  0  0  0  0  0  0  0
   -1.3417   -1.0290    6.1002 C   0  0  0  0  0  0  0  0  0  0  0  0
   -1.2650   -1.7602    7.3027 C   0  0  0  0  0  0  0  0  0  0  0  0
   -2.6502   -1.9927    8.2503 Cl  0  0  0  0  0  0  0  0  0  0  0  0
   -0.0312   -2.2975    7.7144 C   0  0  0  0  0  0  0  0  0  0  0  0
    1.1174   -2.0985    6.9308 C   0  0  0  0  0  0  0  0  0  0  0  0
    0.5681   -4.1667    2.2252 C   0  0  2  0  0  0  0  0  0  0  0  0
    0.1349   -5.5002    2.8773 C   0  0  1  0  0  0  0  0  0  0  0  0
   -2.2710   -7.8102    2.1026 H   0  0  0  0  0  0  0  0  0  0  0  0
   -0.5922   -8.0995    2.5455 H   0  0  0  0  0  0  0  0  0  0  0  0
   -1.7051   -7.3838    3.7325 H   0  0  0  0  0  0  0  0  0  0  0  0
   -3.0479   -5.5050    1.6420 H   0  0  0  0  0  0  0  0  0  0  0  0
   -2.5392   -4.9311    3.2422 H   0  0  0  0  0  0  0  0  0  0  0  0
   -1.6736   -3.8961    0.4938 H   0  0  0  0  0  0  0  0  0  0  0  0
   -2.6384   -3.0662    1.7260 H   0  0  0  0  0  0  0  0  0  0  0  0
    0.8492   -1.5869    1.9088 H   0  0  0  0  0  0  0  0  0  0  0  0
    0.0213   -2.0593    0.4385 H   0  0  0  0  0  0  0  0  0  0  0  0
   -2.0129   -0.8869    1.1529 H   0  0  0  0  0  0  0  0  0  0  0  0
   -0.6383    0.1820    1.2205 H   0  0  0  0  0  0  0  0  0  0  0  0
   -2.0523   -1.1953    3.5231 H   0  0  0  0  0  0  0  0  0  0  0  0
   -2.0678    0.5195    3.1939 H   0  0  0  0  0  0  0  0  0  0  0  0
   -0.4813    2.2749    2.8964 H   0  0  0  0  0  0  0  0  0  0  0  0
    1.3144    3.6924    2.1662 H   0  0  0  0  0  0  0  0  0  0  0  0
    3.6232    3.0226    2.5038 H   0  0  0  0  0  0  0  0  0  0  0  0
    4.1260    0.9466    3.6436 H   0  0  0  0  0  0  0  0  0  0  0  0
   -2.2411   -0.6235    5.8292 H   0  0  0  0  0  0  0  0  0  0  0  0
    0.0401   -2.8316    8.5846 H   0  0  0  0  0  0  0  0  0  0  0  0
    2.0150   -2.4760    7.2458 H   0  0  0  0  0  0  0  0  0  0  0  0
    1.3900   -3.7591    2.8202 H   0  0  0  0  0  0  0  0  0  0  0  0
    0.9493   -4.3712    1.2200 H   0  0  0  0  0  0  0  0  0  0  0  0
   -0.0807   -5.3306    3.9370 H   0  0  0  0  0  0  0  0  0  0  0  0
    0.9678   -6.2058    2.8100 H   0  0  0  0  0  0  0  0  0  0  0  0
  1  2  1  0  0  0  0 
  2  3  1  0  0  0  0 
  3  4  1  0  0  0  0 
  4  5  1  0  0  0  0 
  5  6  1  0  0  0  0 
  6  7  1  0  0  0  0 
  7  8  1  0  0  0  0 
  8  9  1  0  0  0  0 
  9 10  1  0  0  0  0 
 10 11  2  0  0  0  0 
 11 12  1  0  0  0  0 
 12 13  2  0  0  0  0 
 13 14  1  0  0  0  0 
 14 15  2  0  0  0  0 
 10 15  1  0  0  0  0 
 15 16  1  0  0  0  0 
 16 17  1  0  0  0  0 
 17 18  2  0  0  0  0 
  9 18  1  0  0  0  0 
 18 19  1  0  0  0  0 
 19 20  2  0  0  0  0 
 20 21  1  0  0  0  0 
 20 22  1  0  0  0  0 
 22 23  2  0  0  0  0 
 17 23  1  0  0  0  0 
  5 24  1  0  0  0  0 
 24 25  1  0  0  0  0 
  2 25  1  0  0  0  0 
  1 26  1  0  0  0  0 
  1 27  1  0  0  0  0 
  1 28  1  0  0  0  0 
  3 29  1  0  0  0  0 
  3 30  1  0  0  0  0 
  4 31  1  0  0  0  0 
  4 32  1  0  0  0  0 
  6 33  1  0  0  0  0 
  6 34  1  0  0  0  0 
  7 35  1  0  0  0  0 
  7 36  1  0  0  0  0 
  8 37  1  0  0  0  0 
  8 38  1  0  0  0  0 
 11 39  1  0  0  0  0 
 12 40  1  0  0  0  0 
 13 41  1  0  0  0  0 
 14 42  1  0  0  0  0 
 19 43  1  0  0  0  0 
 22 44  1  0  0  0  0 
 23 45  1  0  0  0  0 
 24 46  1  0  0  0  0 
 24 47  1  0  0  0  0 
 25 48  1  0  0  0  0 
 25 49  1  0  0  0  0 
M  END
> <cdk:Title>
prochlorperazine

> <Conformer>
1

> <SuperDrugID>
SD002040

$$$$
