ceftaroline fosamil
  CDK     0628171801

 64 68  0  0  0  0  0  0  0  0999 V2000
    0.2454   -0.6296   -0.2853 C   0  0  0  0  0  0  0  0  0  0  0  0
    1.3515    0.0075    0.5758 C   0  0  2  0  0  0  0  0  0  0  0  0
    1.3605    1.4253    0.3578 O   0  0  0  0  0  0  0  0  0  0  0  0
    2.2874    1.9928    1.0423 N   0  0  0  0  0  0  0  0  0  0  0  0
    2.6389    3.2293    0.9577 C   0  0  0  0  0  0  0  0  0  0  0  0
    2.0357    4.0738    0.0371 C   0  0  0  0  0  0  0  0  0  0  0  0
    2.1615    3.7821   -1.1743 O   0  0  0  0  0  0  0  0  0  0  0  0
    1.2857    5.1779    0.2876 N   0  0  0  0  0  0  0  0  0  0  0  0
    0.9432    5.7727    1.5426 C   0  0  1  0  0  0  0  0  0  0  0  0
    0.6437    7.3030    1.4551 C   0  0  1  0  0  0  0  0  0  0  0  0
    0.5821    8.1134   -0.1740 S   0  0  0  0  0  0  0  0  0  0  0  0
   -0.7825    9.2973    0.0975 C   0  0  1  0  0  0  0  0  0  0  0  0
   -1.8642    8.8759    1.0036 C   0  0  0  0  0  0  0  0  0  0  0  0
   -1.8068    7.7751    1.8047 C   0  0  0  0  0  0  0  0  0  0  0  0
   -0.7052    6.9972    1.7713 N   0  0  0  0  0  0  0  0  0  0  0  0
   -0.4772    5.6779    1.8703 C   0  0  0  0  0  0  0  0  0  0  0  0
   -1.2151    4.6928    2.1002 O   0  0  0  0  0  0  0  0  0  0  0  0
   -2.8245    7.3695    2.6723 C   0  0  0  0  0  0  0  0  0  0  0  0
   -4.0432    7.4735    2.4047 O   0  0  0  0  0  0  0  0  0  0  0  0
   -2.5252    6.8047    3.8662 O   0  0  0  0  0  0  0  0  0  0  0  0
   -3.2678    9.9154    0.9557 S   0  0  0  0  0  0  0  0  0  0  0  0
   -2.7193   11.5483    1.2789 C   0  0  0  0  0  0  0  0  0  0  0  0
   -2.7300   12.1716    2.4758 N   0  0  0  0  0  0  0  0  0  0  0  0
   -2.2400   13.4465    2.5300 C   0  0  0  0  0  0  0  0  0  0  0  0
   -1.7857   13.9523    1.2981 C   0  0  0  0  0  0  0  0  0  0  0  0
   -2.0531   12.6839    0.1195 S   0  0  0  0  0  0  0  0  0  0  0  0
   -2.2146   14.1739    3.7507 C   0  0  0  0  0  0  0  0  0  0  0  0
   -1.2316   15.1552    4.0148 C   0  0  0  0  0  0  0  0  0  0  0  0
   -1.2445   15.8561    5.2337 C   0  0  0  0  0  0  0  0  0  0  0  0
   -2.1986   15.6046    6.1824 N   0  0  0  0  0  0  0  0  0  0  0  0
   -2.1650   16.3461    7.4169 C   0  0  0  0  0  0  0  0  0  0  0  0
   -3.1604   14.6575    5.9521 C   0  0  0  0  0  0  0  0  0  0  0  0
   -3.1844   13.9289    4.7494 C   0  0  0  0  0  0  0  0  0  0  0  0
    3.6725    3.6656    1.7675 C   0  0  0  0  0  0  0  0  0  0  0  0
    4.4643    2.8238    2.5721 N   0  0  0  0  0  0  0  0  0  0  0  0
    5.7370    3.6101    3.5055 S   0  0  0  0  0  0  0  0  0  0  0  0
    5.1525    5.1500    2.7799 C   0  0  0  0  0  0  0  0  0  0  0  0
    5.7144    6.3319    3.1133 N   0  0  0  0  0  0  0  0  0  0  0  0
    5.0885    7.7667    2.8159 P   0  0  2  0  0  0  0  0  0  0  0  0
    3.8759    8.0144    3.6086 O   0  0  0  0  0  0  0  0  0  0  0  0
    4.7636    7.9054    1.2675 O   0  0  0  0  0  0  0  0  0  0  0  0
    6.1801    8.8646    3.1747 O   0  0  0  0  0  0  0  0  0  0  0  0
    4.0867    4.9733    1.8955 N   0  0  0  0  0  0  0  0  0  0  0  0
    0.4243   -0.4172   -1.3412 H   0  0  0  0  0  0  0  0  0  0  0  0
    0.2367   -1.7116   -0.1390 H   0  0  0  0  0  0  0  0  0  0  0  0
   -0.7292   -0.2268   -0.0030 H   0  0  0  0  0  0  0  0  0  0  0  0
    2.3125   -0.4316    0.2922 H   0  0  0  0  0  0  0  0  0  0  0  0
    1.1551   -0.2187    1.6280 H   0  0  0  0  0  0  0  0  0  0  0  0
    0.9216    5.6155   -0.4975 H   0  0  0  0  0  0  0  0  0  0  0  0
    1.5635    5.4981    2.3979 H   0  0  0  0  0  0  0  0  0  0  0  0
    1.1325    7.9100    2.2229 H   0  0  0  0  0  0  0  0  0  0  0  0
   -0.3240   10.2019    0.4999 H   0  0  0  0  0  0  0  0  0  0  0  0
   -1.1905    9.5280   -0.8901 H   0  0  0  0  0  0  0  0  0  0  0  0
   -1.3921   14.8743    1.1073 H   0  0  0  0  0  0  0  0  0  0  0  0
   -0.4941   15.3640    3.3385 H   0  0  0  0  0  0  0  0  0  0  0  0
   -0.5178   16.5609    5.3957 H   0  0  0  0  0  0  0  0  0  0  0  0
   -2.2323   17.4169    7.2125 H   0  0  0  0  0  0  0  0  0  0  0  0
   -2.9818   16.0882    8.0947 H   0  0  0  0  0  0  0  0  0  0  0  0
   -1.2268   16.1488    7.9397 H   0  0  0  0  0  0  0  0  0  0  0  0
   -3.8829   14.4599    6.6509 H   0  0  0  0  0  0  0  0  0  0  0  0
   -3.9199   13.2314    4.6116 H   0  0  0  0  0  0  0  0  0  0  0  0
    6.5413    6.3053    3.6153 H   0  0  0  0  0  0  0  0  0  0  0  0
    5.6015    7.6724    0.8161 H   0  0  0  0  0  0  0  0  0  0  0  0
    5.7192    9.7214    3.0702 H   0  0  0  0  0  0  0  0  0  0  0  0
  1  2  1  0  0  0  0 
  2  3  1  0  0  0  0 
  3  4  1  0  0  0  0 
  4  5  2  0  0  0  0 
  5  6  1  0  0  0  0 
  6  7  2  0  0  0  0 
  6  8  1  0  0  0  0 
  9  8  1  0  0  0  0 
  9 10  1  0  0  0  0 
 10 11  1  0  0  0  0 
 11 12  1  0  0  0  0 
 12 13  1  0  0  0  0 
 13 14  2  0  0  0  0 
 14 15  1  0  0  0  0 
 10 15  1  0  0  0  0 
 15 16  1  0  0  0  0 
  9 16  1  0  0  0  0 
 16 17  2  0  0  0  0 
 14 18  1  0  0  0  0 
 18 19  2  0  0  0  0 
 18 20  1  0  0  0  0 
 13 21  1  0  0  0  0 
 21 22  1  0  0  0  0 
 22 23  2  0  0  0  0 
 23 24  1  0  0  0  0 
 24 25  2  0  0  0  0 
 25 26  1  0  0  0  0 
 22 26  1  0  0  0  0 
 24 27  1  0  0  0  0 
 27 28  2  0  0  0  0 
 28 29  1  0  0  0  0 
 29 30  2  0  0  0  0 
 30 31  1  0  0  0  0 
 30 32  1  0  0  0  0 
 32 33  2  0  0  0  0 
 27 33  1  0  0  0  0 
  5 34  1  0  0  0  0 
 34 35  2  0  0  0  0 
 35 36  1  0  0  0  0 
 36 37  1  0  0  0  0 
 37 38  1  0  0  0  0 
 38 39  1  0  0  0  0 
 39 40  2  0  0  0  0 
 39 41  1  0  0  0  0 
 39 42  1  0  0  0  0 
 37 43  2  0  0  0  0 
 34 43  1  0  0  0  0 
 44  1  1  0  0  0  0 
 45  1  1  0  0  0  0 
 46  1  1  0  0  0  0 
 47  2  1  0  0  0  0 
 48  2  1  0  0  0  0 
 49  8  1  0  0  0  0 
  9 50  1  0  0  0  0 
 10 51  1  0  0  0  0 
 52 12  1  0  0  0  0 
 53 12  1  0  0  0  0 
 54 25  1  0  0  0  0 
 55 28  1  0  0  0  0 
 56 29  1  0  0  0  0 
 57 31  1  0  0  0  0 
 58 31  1  0  0  0  0 
 59 31  1  0  0  0  0 
 60 32  1  0  0  0  0 
 61 33  1  0  0  0  0 
 62 38  1  0  0  0  0 
 63 41  1  0  0  0  0 
 64 42  1  0  0  0  0 
M  CHG  1  20  -1
M  CHG  1  30   1
M  END
> <cdk:Title>
ceftaroline fosamil

> <Conformer>
1

> <SuperDrugID>
SD003401

$$$$
