ambroxol
  CDK     0628171801

 36 37  0  0  0  0  0  0  0  0999 V2000
    3.1016    3.2125    2.2807 C   0  0  1  0  0  0  0  0  0  0  0  0
    2.1661    2.1503    1.8423 N   0  0  2  0  0  0  0  0  0  0  0  0
    3.3200    4.2144    1.1953 C   0  0  0  0  0  0  0  0  0  0  0  0
    1.8341    1.1030    2.8475 C   0  0  1  0  0  0  0  0  0  0  0  0
    4.1475    3.9410    0.0724 C   0  0  0  0  0  0  0  0  0  0  0  0
    2.7066    5.4875    1.2839 C   0  0  0  0  0  0  0  0  0  0  0  0
    0.4981    0.4329    2.4169 C   0  0  1  0  0  0  0  0  0  0  0  0
    2.9686    0.0430    2.9854 C   0  0  1  0  0  0  0  0  0  0  0  0
    4.7300    2.7338   -0.0811 N   0  0  0  0  0  0  0  0  0  0  0  0
    4.3837    4.9410   -0.9008 C   0  0  0  0  0  0  0  0  0  0  0  0
    2.9222    6.4721    0.3020 C   0  0  0  0  0  0  0  0  0  0  0  0
    0.0968   -0.7453    3.3441 C   0  0  1  0  0  0  0  0  0  0  0  0
    2.5696   -1.1259    3.9243 C   0  0  2  0  0  0  0  0  0  0  0  0
    5.5064    4.6595   -2.3640 Br  0  0  0  0  0  0  0  0  0  0  0  0
    3.7659    6.1994   -0.7843 C   0  0  0  0  0  0  0  0  0  0  0  0
    2.1012    8.1367    0.4380 Br  0  0  0  0  0  0  0  0  0  0  0  0
    1.2374   -1.7893    3.4867 C   0  0  1  0  0  0  0  0  0  0  0  0
    0.8691   -2.7878    4.4379 O   0  0  0  0  0  0  0  0  0  0  0  0
    2.6828    3.6938    3.1694 H   0  0  0  0  0  0  0  0  0  0  0  0
    4.0637    2.7832    2.5715 H   0  0  0  0  0  0  0  0  0  0  0  0
    2.5716    1.6820    1.0298 H   0  0  0  0  0  0  0  0  0  0  0  0
    1.6687    1.5745    3.8226 H   0  0  0  0  0  0  0  0  0  0  0  0
    2.0971    5.7139    2.0706 H   0  0  0  0  0  0  0  0  0  0  0  0
   -0.3007    1.1795    2.4336 H   0  0  0  0  0  0  0  0  0  0  0  0
    0.5850    0.0641    1.3911 H   0  0  0  0  0  0  0  0  0  0  0  0
    3.2149   -0.3593    1.9990 H   0  0  0  0  0  0  0  0  0  0  0  0
    3.8678    0.5140    3.3876 H   0  0  0  0  0  0  0  0  0  0  0  0
    4.5746    2.0318    0.5687 H   0  0  0  0  0  0  0  0  0  0  0  0
    5.3008    2.5624   -0.8461 H   0  0  0  0  0  0  0  0  0  0  0  0
   -0.1694   -0.3551    4.3311 H   0  0  0  0  0  0  0  0  0  0  0  0
   -0.7894   -1.2372    2.9303 H   0  0  0  0  0  0  0  0  0  0  0  0
    2.4746   -0.7554    4.9498 H   0  0  0  0  0  0  0  0  0  0  0  0
    3.3626   -1.8795    3.9158 H   0  0  0  0  0  0  0  0  0  0  0  0
    3.9296    6.9206   -1.4898 H   0  0  0  0  0  0  0  0  0  0  0  0
    1.3886   -2.2862    2.5235 H   0  0  0  0  0  0  0  0  0  0  0  0
    0.0496   -3.1915    4.0822 H   0  0  0  0  0  0  0  0  0  0  0  0
  1  2  1  0  0  0  0 
  1  3  1  0  0  0  0 
  3  5  2  0  0  0  0 
  3  6  1  0  0  0  0 
  4  2  1  0  0  0  0 
  4  7  1  0  0  0  0 
  4  8  1  0  0  0  0 
  5  9  1  0  0  0  0 
  5 10  1  0  0  0  0 
  6 11  2  0  0  0  0 
  7 12  1  0  0  0  0 
  8 13  1  0  0  0  0 
 10 14  1  0  0  0  0 
 10 15  2  0  0  0  0 
 11 15  1  0  0  0  0 
 11 16  1  0  0  0  0 
 17 12  1  0  0  0  0 
 17 13  1  0  0  0  0 
 17 18  1  0  0  0  0 
  1 19  1  0  0  0  0 
  1 20  1  0  0  0  0 
  2 21  1  0  0  0  0 
  4 22  1  0  0  0  0 
  6 23  1  0  0  0  0 
  7 24  1  0  0  0  0 
  7 25  1  0  0  0  0 
  8 26  1  0  0  0  0 
  8 27  1  0  0  0  0 
  9 28  1  0  0  0  0 
  9 29  1  0  0  0  0 
 12 30  1  0  0  0  0 
 12 31  1  0  0  0  0 
 13 32  1  0  0  0  0 
 13 33  1  0  0  0  0 
 15 34  1  0  0  0  0 
 17 35  1  0  0  0  0 
 18 36  1  0  0  0  0 
M  END
> <cdk:Title>
ambroxol

> <Conformer>
1

> <SuperDrugID>
SD000116

$$$$
