sulfasymazine
  CDK     0628171801

 38 39  0  0  0  0  0  0  0  0999 V2000
    5.2943   -1.5873   -0.0389 N   0  0  0  0  0  0  0  0  0  0  0  0
    4.3646   -0.1556   -0.2338 S   0  0  1  0  0  0  0  0  0  0  0  0
    5.6288   -2.4031   -1.0665 C   0  0  0  0  0  0  0  0  0  0  0  0
    3.9296    0.3722    1.2181 O   0  0  0  0  0  0  0  0  0  0  0  0
    5.2683    0.9662   -0.9417 O   0  0  0  0  0  0  0  0  0  0  0  0
    2.9145   -0.5058   -1.1920 C   0  0  0  0  0  0  0  0  0  0  0  0
    6.0500   -3.6625   -0.7869 N   0  0  0  0  0  0  0  0  0  0  0  0
    5.5405   -2.0139   -2.3663 N   0  0  0  0  0  0  0  0  0  0  0  0
    2.4820    0.3892   -2.1916 C   0  0  0  0  0  0  0  0  0  0  0  0
    2.1875   -1.6929   -0.9622 C   0  0  0  0  0  0  0  0  0  0  0  0
    6.3620   -4.5379   -1.7800 C   0  0  0  0  0  0  0  0  0  0  0  0
    5.8545   -2.8635   -3.3788 C   0  0  0  0  0  0  0  0  0  0  0  0
    1.3359    0.0991   -2.9556 C   0  0  0  0  0  0  0  0  0  0  0  0
    1.0456   -1.9866   -1.7297 C   0  0  0  0  0  0  0  0  0  0  0  0
    6.7740   -5.9224   -1.4615 C   0  0  1  0  0  0  0  0  0  0  0  0
    6.2604   -4.1249   -3.0719 N   0  0  0  0  0  0  0  0  0  0  0  0
    5.7574   -2.4168   -4.7856 C   0  0  2  0  0  0  0  0  0  0  0  0
    0.6099   -1.0878   -2.7238 C   0  0  0  0  0  0  0  0  0  0  0  0
    8.2076   -6.2520   -1.9348 C   0  0  0  0  0  0  0  0  0  0  0  0
    4.3226   -1.9938   -5.1760 C   0  0  0  0  0  0  0  0  0  0  0  0
   -0.5039   -1.3536   -3.4364 N   0  0  0  0  0  0  0  0  0  0  0  0
    5.5592   -1.8407    0.8611 H   0  0  0  0  0  0  0  0  0  0  0  0
    2.9945    1.2565   -2.3687 H   0  0  0  0  0  0  0  0  0  0  0  0
    2.4848   -2.3495   -0.2369 H   0  0  0  0  0  0  0  0  0  0  0  0
    1.0328    0.7626   -3.6743 H   0  0  0  0  0  0  0  0  0  0  0  0
    0.5318   -2.8524   -1.5525 H   0  0  0  0  0  0  0  0  0  0  0  0
    6.7247   -6.0827   -0.3809 H   0  0  0  0  0  0  0  0  0  0  0  0
    6.0697   -6.6158   -1.9292 H   0  0  0  0  0  0  0  0  0  0  0  0
    6.0743   -3.2230   -5.4532 H   0  0  0  0  0  0  0  0  0  0  0  0
    6.4369   -1.5735   -4.9392 H   0  0  0  0  0  0  0  0  0  0  0  0
    8.4675   -7.2721   -1.6446 H   0  0  0  0  0  0  0  0  0  0  0  0
    8.9230   -5.5690   -1.4730 H   0  0  0  0  0  0  0  0  0  0  0  0
    8.2872   -6.1724   -3.0213 H   0  0  0  0  0  0  0  0  0  0  0  0
    4.3020   -1.6674   -6.2179 H   0  0  0  0  0  0  0  0  0  0  0  0
    3.9821   -1.1661   -4.5505 H   0  0  0  0  0  0  0  0  0  0  0  0
    3.6358   -2.8355   -5.0611 H   0  0  0  0  0  0  0  0  0  0  0  0
   -0.8096   -0.7282   -4.1140 H   0  0  0  0  0  0  0  0  0  0  0  0
   -1.0108   -2.1643   -3.2648 H   0  0  0  0  0  0  0  0  0  0  0  0
  1  2  1  0  0  0  0 
  1  3  1  0  0  0  0 
  2  4  2  0  0  0  0 
  2  5  2  0  0  0  0 
  2  6  1  0  0  0  0 
  3  7  2  0  0  0  0 
  3  8  1  0  0  0  0 
  6  9  2  0  0  0  0 
  6 10  1  0  0  0  0 
  7 11  1  0  0  0  0 
  8 12  2  0  0  0  0 
  9 13  1  0  0  0  0 
 10 14  2  0  0  0  0 
 11 15  1  0  0  0  0 
 11 16  2  0  0  0  0 
 12 16  1  0  0  0  0 
 12 17  1  0  0  0  0 
 13 18  2  0  0  0  0 
 14 18  1  0  0  0  0 
 15 19  1  0  0  0  0 
 17 20  1  0  0  0  0 
 18 21  1  0  0  0  0 
  1 22  1  0  0  0  0 
  9 23  1  0  0  0  0 
 10 24  1  0  0  0  0 
 13 25  1  0  0  0  0 
 14 26  1  0  0  0  0 
 15 27  1  0  0  0  0 
 15 28  1  0  0  0  0 
 17 29  1  0  0  0  0 
 17 30  1  0  0  0  0 
 19 31  1  0  0  0  0 
 19 32  1  0  0  0  0 
 19 33  1  0  0  0  0 
 20 34  1  0  0  0  0 
 20 35  1  0  0  0  0 
 20 36  1  0  0  0  0 
 21 37  1  0  0  0  0 
 21 38  1  0  0  0  0 
M  END
> <cdk:Title>
sulfasymazine

> <Conformer>
1

> <SuperDrugID>
SD003272

$$$$
