unithiol
  CDK     0628171801

 17 16  0  0  0  0  0  0  0  0999 V2000
    0.3597   -0.2168    0.2869 C   0  0  1  0  0  0  0  0  0  0  0  0
    1.1383   -1.8622    0.4973 S   0  0  1  0  0  0  0  0  0  0  0  0
    1.3469    0.9835    0.4242 C   0  0  2  0  0  0  0  0  0  0  0  0
    0.0148   -3.0040    0.4806 O   0  0  0  0  0  0  0  0  0  0  0  0
    2.2067   -2.1557   -0.6607 O   0  0  0  0  0  0  0  0  0  0  0  0
    1.9460   -1.9194    2.0034 O   0  0  0  0  0  0  0  0  0  0  0  0
    0.6342    2.3659    0.4246 C   0  0  2  0  0  0  0  0  0  0  0  0
    2.5514    0.9933   -0.9315 S   0  0  0  0  0  0  0  0  0  0  0  0
   -0.4467    2.6299    1.8489 S   0  0  0  0  0  0  0  0  0  0  0  0
   -0.1365   -0.1906   -0.6865 H   0  0  0  0  0  0  0  0  0  0  0  0
   -0.4109   -0.1519    1.0581 H   0  0  0  0  0  0  0  0  0  0  0  0
    1.9156    0.8815    1.3529 H   0  0  0  0  0  0  0  0  0  0  0  0
    1.2464   -1.7796    2.6758 H   0  0  0  0  0  0  0  0  0  0  0  0
    0.0341    2.4762   -0.4826 H   0  0  0  0  0  0  0  0  0  0  0  0
    1.3751    3.1708    0.4474 H   0  0  0  0  0  0  0  0  0  0  0  0
    3.2718    2.0152   -0.3900 H   0  0  0  0  0  0  0  0  0  0  0  0
   -0.9335    3.8035    1.3567 H   0  0  0  0  0  0  0  0  0  0  0  0
  1  2  1  0  0  0  0 
  1  3  1  0  0  0  0 
  2  4  2  0  0  0  0 
  2  5  2  0  0  0  0 
  2  6  1  0  0  0  0 
  3  7  1  0  0  0  0 
  3  8  1  0  0  0  0 
  7  9  1  0  0  0  0 
  1 10  1  0  0  0  0 
  1 11  1  0  0  0  0 
  3 12  1  0  0  0  0 
  6 13  1  0  0  0  0 
  7 14  1  0  0  0  0 
  7 15  1  0  0  0  0 
  8 16  1  0  0  0  0 
  9 17  1  0  0  0  0 
M  END
> <cdk:Title>
unithiol

> <Conformer>
1

> <SuperDrugID>
SD002518

$$$$
