sulfamonomethoxine
  CDK     0628171801

 31 32  0  0  0  0  0  0  0  0999 V2000
   -0.2729    4.1666    0.7353 S   0  0  1  0  0  0  0  0  0  0  0  0
    0.5224    2.9852    1.7010 N   0  0  0  0  0  0  0  0  0  0  0  0
    0.4827    4.2549   -0.6783 O   0  0  0  0  0  0  0  0  0  0  0  0
   -1.7704    3.6523    0.4690 O   0  0  0  0  0  0  0  0  0  0  0  0
   -0.3337    5.7481    1.5334 C   0  0  0  0  0  0  0  0  0  0  0  0
    1.6172    3.1989    2.4746 C   0  0  0  0  0  0  0  0  0  0  0  0
    0.1237    6.9086    0.8738 C   0  0  0  0  0  0  0  0  0  0  0  0
   -0.8225    5.8507    2.8522 C   0  0  0  0  0  0  0  0  0  0  0  0
    2.2299    2.0984    3.1086 C   0  0  0  0  0  0  0  0  0  0  0  0
    2.1551    4.4354    2.6472 N   0  0  0  0  0  0  0  0  0  0  0  0
    0.1337    8.1472    1.5417 C   0  0  0  0  0  0  0  0  0  0  0  0
   -0.8064    7.0886    3.5214 C   0  0  0  0  0  0  0  0  0  0  0  0
    3.3948    2.3255    3.8674 C   0  0  0  0  0  0  0  0  0  0  0  0
    3.2628    4.6397    3.4010 C   0  0  0  0  0  0  0  0  0  0  0  0
   -0.3128    8.2394    2.8749 C   0  0  0  0  0  0  0  0  0  0  0  0
    4.0632    1.2819    4.4404 O   0  0  0  0  0  0  0  0  0  0  0  0
    3.8793    3.5886    3.9941 N   0  0  0  0  0  0  0  0  0  0  0  0
   -0.2675    9.4201    3.5258 N   0  0  0  0  0  0  0  0  0  0  0  0
    3.7422    1.1095    5.8292 C   0  0  0  0  0  0  0  0  0  0  0  0
    0.1775    2.0785    1.6572 H   0  0  0  0  0  0  0  0  0  0  0  0
    0.4616    6.8620   -0.0901 H   0  0  0  0  0  0  0  0  0  0  0  0
   -1.1772    5.0241    3.3377 H   0  0  0  0  0  0  0  0  0  0  0  0
    1.8504    1.1533    3.0158 H   0  0  0  0  0  0  0  0  0  0  0  0
    0.4729    8.9794    1.0545 H   0  0  0  0  0  0  0  0  0  0  0  0
   -1.1478    7.1450    4.4828 H   0  0  0  0  0  0  0  0  0  0  0  0
    3.6315    5.5807    3.5149 H   0  0  0  0  0  0  0  0  0  0  0  0
   -0.5700    9.4828    4.4461 H   0  0  0  0  0  0  0  0  0  0  0  0
    0.0747   10.2100    3.0776 H   0  0  0  0  0  0  0  0  0  0  0  0
    4.3395    0.2827    6.2132 H   0  0  0  0  0  0  0  0  0  0  0  0
    3.9832    2.0021    6.4125 H   0  0  0  0  0  0  0  0  0  0  0  0
    2.6861    0.8624    5.9653 H   0  0  0  0  0  0  0  0  0  0  0  0
  1  2  1  0  0  0  0 
  1  3  2  0  0  0  0 
  1  4  2  0  0  0  0 
  1  5  1  0  0  0  0 
  2  6  1  0  0  0  0 
  5  7  2  0  0  0  0 
  5  8  1  0  0  0  0 
  6  9  2  0  0  0  0 
  6 10  1  0  0  0  0 
  7 11  1  0  0  0  0 
  8 12  2  0  0  0  0 
  9 13  1  0  0  0  0 
 10 14  2  0  0  0  0 
 11 15  2  0  0  0  0 
 12 15  1  0  0  0  0 
 13 16  1  0  0  0  0 
 13 17  2  0  0  0  0 
 14 17  1  0  0  0  0 
 15 18  1  0  0  0  0 
 16 19  1  0  0  0  0 
  2 20  1  0  0  0  0 
  7 21  1  0  0  0  0 
  8 22  1  0  0  0  0 
  9 23  1  0  0  0  0 
 11 24  1  0  0  0  0 
 12 25  1  0  0  0  0 
 14 26  1  0  0  0  0 
 18 27  1  0  0  0  0 
 18 28  1  0  0  0  0 
 19 29  1  0  0  0  0 
 19 30  1  0  0  0  0 
 19 31  1  0  0  0  0 
M  END
> <cdk:Title>
sulfamonomethoxine

> <Conformer>
1

> <SuperDrugID>
SD002265

$$$$
