estazolam
  CDK     0628171801

 32 35  0  0  0  0  0  0  0  0999 V2000
   -3.0460    1.8904   -4.3230 Cl  0  0  0  0  0  0  0  0  0  0  0  0
   -2.9506    2.9112   -2.9743 C   0  0  0  0  0  0  0  0  0  0  0  0
   -1.8312    2.8662   -2.1235 C   0  0  0  0  0  0  0  0  0  0  0  0
   -3.9906    3.8139   -2.7062 C   0  0  0  0  0  0  0  0  0  0  0  0
   -1.7279    3.7062   -0.9799 C   0  0  0  0  0  0  0  0  0  0  0  0
   -3.9048    4.6690   -1.5975 C   0  0  0  0  0  0  0  0  0  0  0  0
   -2.7917    4.6335   -0.7203 C   0  0  0  0  0  0  0  0  0  0  0  0
   -0.5857    3.5889   -0.1492 C   0  0  0  0  0  0  0  0  0  0  0  0
   -2.7745    5.5260    0.3346 N   0  0  0  0  0  0  0  0  0  0  0  0
   -0.0193    4.6082    0.4103 N   0  0  0  0  0  0  0  0  0  0  0  0
    0.0153    2.3476    0.1292 C   0  0  0  0  0  0  0  0  0  0  0  0
   -1.7007    6.1620    0.8328 C   0  0  0  0  0  0  0  0  0  0  0  0
   -3.8021    5.9725    1.0830 C   0  0  0  0  0  0  0  0  0  0  0  0
   -0.3264    5.9642    0.3532 C   0  0  1  0  0  0  0  0  0  0  0  0
   -0.7651    1.2057    0.4501 C   0  0  0  0  0  0  0  0  0  0  0  0
    1.4269    2.1932    0.0946 C   0  0  0  0  0  0  0  0  0  0  0  0
   -2.0780    6.9756    1.8331 N   0  0  0  0  0  0  0  0  0  0  0  0
   -3.3569    6.8607    1.9841 N   0  0  0  0  0  0  0  0  0  0  0  0
   -0.1608   -0.0398    0.7112 C   0  0  0  0  0  0  0  0  0  0  0  0
    2.0323    0.9480    0.3484 C   0  0  0  0  0  0  0  0  0  0  0  0
    1.2373   -0.1706    0.6501 C   0  0  0  0  0  0  0  0  0  0  0  0
   -1.0811    2.2068   -2.3528 H   0  0  0  0  0  0  0  0  0  0  0  0
   -4.8097    3.8621   -3.3184 H   0  0  0  0  0  0  0  0  0  0  0  0
   -4.6659    5.3352   -1.4445 H   0  0  0  0  0  0  0  0  0  0  0  0
   -4.7804    5.6867    0.9965 H   0  0  0  0  0  0  0  0  0  0  0  0
    0.3754    6.5117    0.9830 H   0  0  0  0  0  0  0  0  0  0  0  0
   -0.2310    6.3323   -0.6720 H   0  0  0  0  0  0  0  0  0  0  0  0
   -1.7846    1.2698    0.5004 H   0  0  0  0  0  0  0  0  0  0  0  0
    2.0316    2.9884   -0.1294 H   0  0  0  0  0  0  0  0  0  0  0  0
   -0.7380   -0.8520    0.9482 H   0  0  0  0  0  0  0  0  0  0  0  0
    3.0509    0.8554    0.3114 H   0  0  0  0  0  0  0  0  0  0  0  0
    1.6752   -1.0782    0.8267 H   0  0  0  0  0  0  0  0  0  0  0  0
  1  2  1  0  0  0  0 
  2  3  2  0  0  0  0 
  2  4  1  0  0  0  0 
  3  5  1  0  0  0  0 
  4  6  2  0  0  0  0 
  5  7  2  0  0  0  0 
  5  8  1  0  0  0  0 
  6  7  1  0  0  0  0 
  7  9  1  0  0  0  0 
  8 10  2  0  0  0  0 
  8 11  1  0  0  0  0 
  9 12  1  0  0  0  0 
  9 13  1  0  0  0  0 
 10 14  1  0  0  0  0 
 11 15  2  0  0  0  0 
 11 16  1  0  0  0  0 
 12 14  1  0  0  0  0 
 12 17  2  0  0  0  0 
 13 18  2  0  0  0  0 
 15 19  1  0  0  0  0 
 16 20  2  0  0  0  0 
 17 18  1  0  0  0  0 
 19 21  2  0  0  0  0 
 20 21  1  0  0  0  0 
  3 22  1  0  0  0  0 
  4 23  1  0  0  0  0 
  6 24  1  0  0  0  0 
 13 25  1  0  0  0  0 
 14 26  1  0  0  0  0 
 14 27  1  0  0  0  0 
 15 28  1  0  0  0  0 
 16 29  1  0  0  0  0 
 19 30  1  0  0  0  0 
 20 31  1  0  0  0  0 
 21 32  1  0  0  0  0 
M  END
> <cdk:Title>
estazolam

> <Conformer>
1

> <SuperDrugID>
SD000941

$$$$
