bisoprolol
  CDK     0628171801

 54 54  0  0  0  0  0  0  0  0999 V2000
    1.0460   -2.8178    9.5014 O   0  0  0  0  0  0  0  0  0  0  0  0
    0.6194   -1.5856   10.1155 C   0  0  1  0  0  0  0  0  0  0  0  0
    0.0381   -3.7279    9.3304 C   0  0  0  0  0  0  0  0  0  0  0  0
    1.8516   -0.6970   10.4206 C   0  0  2  0  0  0  0  0  0  0  0  0
   -0.2388   -4.6814   10.3305 C   0  0  0  0  0  0  0  0  0  0  0  0
   -0.7010   -3.7422    8.1328 C   0  0  0  0  0  0  0  0  0  0  0  0
    2.8707   -1.4135   11.3451 C   0  0  2  0  0  0  0  0  0  0  0  0
    1.4077    0.5101   11.0380 O   0  0  0  0  0  0  0  0  0  0  0  0
   -1.2543   -5.6369   10.1363 C   0  0  0  0  0  0  0  0  0  0  0  0
   -1.7163   -4.6974    7.9389 C   0  0  0  0  0  0  0  0  0  0  0  0
    4.0035   -0.5282   11.7000 N   0  0  1  0  0  0  0  0  0  0  0  0
   -2.0120   -5.6527    8.9402 C   0  0  0  0  0  0  0  0  0  0  0  0
    5.0803   -1.1450   12.5222 C   0  0  1  0  0  0  0  0  0  0  0  0
   -3.1081   -6.6346    8.7504 C   0  0  2  0  0  0  0  0  0  0  0  0
    6.2652   -0.1499   12.5846 C   0  0  0  0  0  0  0  0  0  0  0  0
    4.5992   -1.5250   13.9493 C   0  0  0  0  0  0  0  0  0  0  0  0
   -4.3320   -6.0550    9.2407 O   0  0  0  0  0  0  0  0  0  0  0  0
   -5.4809   -6.9146    9.1236 C   0  0  2  0  0  0  0  0  0  0  0  0
   -6.7558   -6.1558    9.5345 C   0  0  1  0  0  0  0  0  0  0  0  0
   -6.6396   -5.6891   10.8907 O   0  0  0  0  0  0  0  0  0  0  0  0
   -7.8300   -5.1120   11.4792 C   0  0  1  0  0  0  0  0  0  0  0  0
   -7.5642   -4.9931   12.9993 C   0  0  0  0  0  0  0  0  0  0  0  0
   -8.2027   -3.7335   10.8704 C   0  0  0  0  0  0  0  0  0  0  0  0
   -0.0530   -1.0456    9.4418 H   0  0  0  0  0  0  0  0  0  0  0  0
    0.0913   -1.7749   11.0558 H   0  0  0  0  0  0  0  0  0  0  0  0
    2.3428   -0.4312    9.4804 H   0  0  0  0  0  0  0  0  0  0  0  0
    0.2995   -4.6818   11.2018 H   0  0  0  0  0  0  0  0  0  0  0  0
   -0.4989   -3.0564    7.4004 H   0  0  0  0  0  0  0  0  0  0  0  0
    3.2571   -2.3020   10.8386 H   0  0  0  0  0  0  0  0  0  0  0  0
    2.3537   -1.7262   12.2545 H   0  0  0  0  0  0  0  0  0  0  0  0
    0.7727    0.9012   10.4024 H   0  0  0  0  0  0  0  0  0  0  0  0
   -1.4383   -6.3237   10.8722 H   0  0  0  0  0  0  0  0  0  0  0  0
   -2.2383   -4.6914    7.0588 H   0  0  0  0  0  0  0  0  0  0  0  0
    4.4343   -0.2409   10.8175 H   0  0  0  0  0  0  0  0  0  0  0  0
    5.4387   -2.0501   12.0230 H   0  0  0  0  0  0  0  0  0  0  0  0
   -2.8809   -7.5637    9.2820 H   0  0  0  0  0  0  0  0  0  0  0  0
   -3.2101   -6.8782    7.6888 H   0  0  0  0  0  0  0  0  0  0  0  0
    6.6308    0.0634   11.5782 H   0  0  0  0  0  0  0  0  0  0  0  0
    5.9529    0.7872   13.0498 H   0  0  0  0  0  0  0  0  0  0  0  0
    7.0900   -0.5711   13.1629 H   0  0  0  0  0  0  0  0  0  0  0  0
    4.0858   -0.6817   14.4138 H   0  0  0  0  0  0  0  0  0  0  0  0
    3.9128   -2.3715   13.9067 H   0  0  0  0  0  0  0  0  0  0  0  0
    5.4412   -1.8147   14.5811 H   0  0  0  0  0  0  0  0  0  0  0  0
   -5.3623   -7.7872    9.7707 H   0  0  0  0  0  0  0  0  0  0  0  0
   -5.6001   -7.2541    8.0915 H   0  0  0  0  0  0  0  0  0  0  0  0
   -6.8923   -5.3111    8.8582 H   0  0  0  0  0  0  0  0  0  0  0  0
   -7.6072   -6.8321    9.4367 H   0  0  0  0  0  0  0  0  0  0  0  0
   -8.6778   -5.7934   11.3506 H   0  0  0  0  0  0  0  0  0  0  0  0
   -8.4405   -4.5947   13.5153 H   0  0  0  0  0  0  0  0  0  0  0  0
   -6.7144   -4.3334   13.1843 H   0  0  0  0  0  0  0  0  0  0  0  0
   -7.3397   -5.9776   13.4152 H   0  0  0  0  0  0  0  0  0  0  0  0
   -9.0035   -3.2591   11.4418 H   0  0  0  0  0  0  0  0  0  0  0  0
   -8.5476   -3.8547    9.8431 H   0  0  0  0  0  0  0  0  0  0  0  0
   -7.3343   -3.0752   10.8717 H   0  0  0  0  0  0  0  0  0  0  0  0
  1  2  1  0  0  0  0 
  1  3  1  0  0  0  0 
  4  2  1  0  0  0  0 
  3  5  2  0  0  0  0 
  3  6  1  0  0  0  0 
  4  7  1  0  0  0  0 
  4  8  1  0  0  0  0 
  5  9  1  0  0  0  0 
  6 10  2  0  0  0  0 
  7 11  1  0  0  0  0 
  9 12  2  0  0  0  0 
 10 12  1  0  0  0  0 
 11 13  1  0  0  0  0 
 12 14  1  0  0  0  0 
 13 15  1  0  0  0  0 
 13 16  1  0  0  0  0 
 14 17  1  0  0  0  0 
 17 18  1  0  0  0  0 
 18 19  1  0  0  0  0 
 19 20  1  0  0  0  0 
 20 21  1  0  0  0  0 
 21 22  1  0  0  0  0 
 21 23  1  0  0  0  0 
  2 24  1  0  0  0  0 
  2 25  1  0  0  0  0 
  4 26  1  0  0  0  0 
  5 27  1  0  0  0  0 
  6 28  1  0  0  0  0 
  7 29  1  0  0  0  0 
  7 30  1  0  0  0  0 
  8 31  1  0  0  0  0 
  9 32  1  0  0  0  0 
 10 33  1  0  0  0  0 
 11 34  1  0  0  0  0 
 13 35  1  0  0  0  0 
 14 36  1  0  0  0  0 
 14 37  1  0  0  0  0 
 15 38  1  0  0  0  0 
 15 39  1  0  0  0  0 
 15 40  1  0  0  0  0 
 16 41  1  0  0  0  0 
 16 42  1  0  0  0  0 
 16 43  1  0  0  0  0 
 18 44  1  0  0  0  0 
 18 45  1  0  0  0  0 
 19 46  1  0  0  0  0 
 19 47  1  0  0  0  0 
 21 48  1  0  0  0  0 
 22 49  1  0  0  0  0 
 22 50  1  0  0  0  0 
 22 51  1  0  0  0  0 
 23 52  1  0  0  0  0 
 23 53  1  0  0  0  0 
 23 54  1  0  0  0  0 
M  END
> <cdk:Title>
bisoprolol

> <Conformer>
1

> <SuperDrugID>
SD000324

$$$$
