lidofenin
  CDK     0628171801

 39 39  0  0  0  0  0  0  0  0999 V2000
    0.7838    1.4897    0.1242 N   0  0  0  0  0  0  0  0  0  0  0  0
   -0.5705    1.5975    0.0314 C   0  0  0  0  0  0  0  0  0  0  0  0
    1.6796    1.2459   -0.8775 C   0  0  0  0  0  0  0  0  0  0  0  0
   -1.3438    1.8056    1.2737 C   0  0  2  0  0  0  0  0  0  0  0  0
   -1.1839    1.4793   -1.0551 O   0  0  0  0  0  0  0  0  0  0  0  0
    1.8577    2.1269   -1.9849 C   0  0  0  0  0  0  0  0  0  0  0  0
    2.5082    0.0949   -0.7408 C   0  0  0  0  0  0  0  0  0  0  0  0
   -0.6672    2.7711    2.2042 N   0  0  2  0  0  0  0  0  0  0  0  0
    1.1001    3.3998   -2.1219 C   0  0  0  0  0  0  0  0  0  0  0  0
    2.8214    1.8042   -2.9687 C   0  0  0  0  0  0  0  0  0  0  0  0
    2.3902   -0.8051    0.4382 C   0  0  0  0  0  0  0  0  0  0  0  0
    3.4660   -0.1909   -1.7417 C   0  0  0  0  0  0  0  0  0  0  0  0
   -1.0256    2.5935    3.6492 C   0  0  2  0  0  0  0  0  0  0  0  0
   -0.7016    4.1978    1.7460 C   0  0  2  0  0  0  0  0  0  0  0  0
    3.6219    0.6594   -2.8463 C   0  0  0  0  0  0  0  0  0  0  0  0
   -0.4865    1.3362    4.1995 C   0  0  0  0  0  0  0  0  0  0  0  0
    0.4720    4.9450    2.2324 C   0  0  0  0  0  0  0  0  0  0  0  0
   -1.3120    0.4260    4.7679 O   0  0  0  0  0  0  0  0  0  0  0  0
    0.7413    1.0953    4.1414 O   0  0  0  0  0  0  0  0  0  0  0  0
    0.3251    6.0353    3.0185 O   0  0  0  0  0  0  0  0  0  0  0  0
    1.6273    4.5752    1.9223 O   0  0  0  0  0  0  0  0  0  0  0  0
    1.1566    1.5357    1.0186 H   0  0  0  0  0  0  0  0  0  0  0  0
   -1.4300    0.8174    1.7334 H   0  0  0  0  0  0  0  0  0  0  0  0
   -2.3584    2.1503    1.0504 H   0  0  0  0  0  0  0  0  0  0  0  0
    1.0448    3.9107   -1.1603 H   0  0  0  0  0  0  0  0  0  0  0  0
    0.0915    3.1995   -2.4842 H   0  0  0  0  0  0  0  0  0  0  0  0
    1.5793    4.0872   -2.8228 H   0  0  0  0  0  0  0  0  0  0  0  0
    2.9614    2.4070   -3.7837 H   0  0  0  0  0  0  0  0  0  0  0  0
    1.3688   -1.1850    0.5118 H   0  0  0  0  0  0  0  0  0  0  0  0
    3.0658   -1.6623    0.3836 H   0  0  0  0  0  0  0  0  0  0  0  0
    2.6287   -0.2463    1.3473 H   0  0  0  0  0  0  0  0  0  0  0  0
    4.0641   -1.0178   -1.6734 H   0  0  0  0  0  0  0  0  0  0  0  0
   -2.1116    2.6276    3.7736 H   0  0  0  0  0  0  0  0  0  0  0  0
   -0.6031    3.3976    4.2563 H   0  0  0  0  0  0  0  0  0  0  0  0
   -1.6275    4.6777    2.0755 H   0  0  0  0  0  0  0  0  0  0  0  0
   -0.6800    4.2591    0.6569 H   0  0  0  0  0  0  0  0  0  0  0  0
    4.3267    0.4486   -3.5590 H   0  0  0  0  0  0  0  0  0  0  0  0
   -0.9503   -0.4103    5.1273 H   0  0  0  0  0  0  0  0  0  0  0  0
    1.1119    6.5165    3.3542 H   0  0  0  0  0  0  0  0  0  0  0  0
  1  2  1  0  0  0  0 
  1  3  1  0  0  0  0 
  2  4  1  0  0  0  0 
  2  5  2  0  0  0  0 
  3  6  2  0  0  0  0 
  3  7  1  0  0  0  0 
  4  8  1  0  0  0  0 
  6  9  1  0  0  0  0 
  6 10  1  0  0  0  0 
  7 11  1  0  0  0  0 
  7 12  2  0  0  0  0 
  8 13  1  0  0  0  0 
  8 14  1  0  0  0  0 
 10 15  2  0  0  0  0 
 12 15  1  0  0  0  0 
 13 16  1  0  0  0  0 
 14 17  1  0  0  0  0 
 16 18  1  0  0  0  0 
 16 19  2  0  0  0  0 
 17 20  1  0  0  0  0 
 17 21  2  0  0  0  0 
  1 22  1  0  0  0  0 
  4 23  1  0  0  0  0 
  4 24  1  0  0  0  0 
  9 25  1  0  0  0  0 
  9 26  1  0  0  0  0 
  9 27  1  0  0  0  0 
 10 28  1  0  0  0  0 
 11 29  1  0  0  0  0 
 11 30  1  0  0  0  0 
 11 31  1  0  0  0  0 
 12 32  1  0  0  0  0 
 13 33  1  0  0  0  0 
 13 34  1  0  0  0  0 
 14 35  1  0  0  0  0 
 14 36  1  0  0  0  0 
 15 37  1  0  0  0  0 
 18 38  1  0  0  0  0 
 20 39  1  0  0  0  0 
M  END
> <cdk:Title>
lidofenin

> <Conformer>
1

> <SuperDrugID>
SD002868

$$$$
