anidulafungin
  CDK     0628171801

155161  0  0  0  0  0  0  0  0999 V2000
    6.6299    5.1904    4.7740 O   0  0  0  0  0  0  0  0  0  0  0  0
    7.6791    5.8550    4.5859 C   0  0  0  0  0  0  0  0  0  0  0  0
    8.8808    5.3283    5.0466 N   0  0  0  0  0  0  0  0  0  0  0  0
    7.4878    7.1255    3.8100 C   0  0  2  0  0  0  0  0  0  0  0  0
    9.0243    3.9971    5.5916 C   0  0  1  0  0  0  0  0  0  0  0  0
   10.1603    5.9423    4.8530 C   0  0  2  0  0  0  0  0  0  0  0  0
    8.2752    7.1993    2.4588 C   0  0  1  0  0  0  0  0  0  0  0  0
    7.7621    8.2907    4.6234 N   0  0  0  0  0  0  0  0  0  0  0  0
   10.4772    3.8948    6.1398 C   0  0  2  0  0  0  0  0  0  0  0  0
    8.0236    3.4969    6.5828 C   0  0  0  0  0  0  0  0  0  0  0  0
   11.1025    5.2860    5.8819 C   0  0  1  0  0  0  0  0  0  0  0  0
    8.1958    5.9215    1.5849 C   0  0  0  0  0  0  0  0  0  0  0  0
    7.7570    8.2615    1.6609 O   0  0  0  0  0  0  0  0  0  0  0  0
    6.8756    9.2902    4.9332 C   0  0  0  0  0  0  0  0  0  0  0  0
   11.1792    2.8288    5.4967 O   0  0  0  0  0  0  0  0  0  0  0  0
    7.4384    2.4225    6.3042 O   0  0  0  0  0  0  0  0  0  0  0  0
    7.7638    4.1205    7.7720 N   0  0  0  0  0  0  0  0  0  0  0  0
   12.5958    5.2954    5.4662 C   0  0  0  0  0  0  0  0  0  0  0  0
    5.6798    9.1972    4.5626 O   0  0  0  0  0  0  0  0  0  0  0  0
    7.2917   10.5389    5.6458 C   0  0  1  0  0  0  0  0  0  0  0  0
    6.9260    3.5674    8.8065 C   0  0  2  0  0  0  0  0  0  0  0  0
    7.3036   11.7633    4.6618 C   0  0  1  0  0  0  0  0  0  0  0  0
    6.3368   10.8169    6.6797 N   0  0  0  0  0  0  0  0  0  0  0  0
    5.6118    3.2832    8.3130 O   0  0  0  0  0  0  0  0  0  0  0  0
    6.8123    4.4543   10.0853 C   0  0  2  0  0  0  0  0  0  0  0  0
    8.3887   11.7039    3.5439 C   0  0  1  0  0  0  0  0  0  0  0  0
    6.0241   11.9191    4.0424 O   0  0  0  0  0  0  0  0  0  0  0  0
    6.4664   11.4104    7.9042 C   0  0  0  0  0  0  0  0  0  0  0  0
    5.9960    3.6748   11.0186 O   0  0  0  0  0  0  0  0  0  0  0  0
    6.0869    5.8098    9.8131 C   0  0  2  0  0  0  0  0  0  0  0  0
    8.2092   12.7764    2.6162 O   0  0  0  0  0  0  0  0  0  0  0  0
    9.7943   11.7518    4.0409 C   0  0  0  0  0  0  0  0  0  0  0  0
    5.3487   11.6142    8.4348 O   0  0  0  0  0  0  0  0  0  0  0  0
    7.6741   11.8233    8.6982 C   0  0  1  0  0  0  0  0  0  0  0  0
    5.8350    6.7309   11.0506 C   0  0  2  0  0  0  0  0  0  0  0  0
   10.6398   10.6200    3.9435 C   0  0  0  0  0  0  0  0  0  0  0  0
   10.3250   12.9412    4.5967 C   0  0  0  0  0  0  0  0  0  0  0  0
    8.4994   10.7619    9.2264 N   0  0  0  0  0  0  0  0  0  0  0  0
    8.6561   12.8087    8.0273 C   0  0  1  0  0  0  0  0  0  0  0  0
    5.0426    7.9265   10.9119 N   0  0  0  0  0  0  0  0  0  0  0  0
    7.0611    7.0684   11.8491 C   0  0  0  0  0  0  0  0  0  0  0  0
   11.9802   10.6824    4.3672 C   0  0  0  0  0  0  0  0  0  0  0  0
   11.6633   13.0038    5.0236 C   0  0  0  0  0  0  0  0  0  0  0  0
    7.9817    9.7029    9.9632 C   0  0  0  0  0  0  0  0  0  0  0  0
    9.8978   11.0426    9.0432 C   0  0  2  0  0  0  0  0  0  0  0  0
    9.9574   12.5638    8.7997 C   0  0  2  0  0  0  0  0  0  0  0  0
    4.1075    8.3096    9.9905 C   0  0  0  0  0  0  0  0  0  0  0  0
    7.0906    6.6139   13.0170 O   0  0  0  0  0  0  0  0  0  0  0  0
    8.1931    7.8109   11.5824 N   0  0  0  0  0  0  0  0  0  0  0  0
   12.4988   11.8778    4.8986 C   0  0  0  0  0  0  0  0  0  0  0  0
    6.7868    9.7927   10.3122 O   0  0  0  0  0  0  0  0  0  0  0  0
    8.7307    8.4966   10.4262 C   0  0  1  0  0  0  0  0  0  0  0  0
    9.9443   13.2955   10.0287 O   0  0  0  0  0  0  0  0  0  0  0  0
    3.5781    9.4326   10.1537 O   0  0  0  0  0  0  0  0  0  0  0  0
    3.6837    7.5600    8.8821 C   0  0  0  0  0  0  0  0  0  0  0  0
   13.8010   11.9365    5.2774 O   0  0  0  0  0  0  0  0  0  0  0  0
    9.2393    7.4902    9.3353 C   0  0  1  0  0  0  0  0  0  0  0  0
    4.3804    7.6443    7.6596 C   0  0  0  0  0  0  0  0  0  0  0  0
    2.5920    6.6753    8.9977 C   0  0  0  0  0  0  0  0  0  0  0  0
    8.8920    7.7896    7.8581 C   0  0  0  0  0  0  0  0  0  0  0  0
   10.6499    7.3086    9.4610 O   0  0  0  0  0  0  0  0  0  0  0  0
    4.0376    6.7981    6.5912 C   0  0  0  0  0  0  0  0  0  0  0  0
    2.2524    5.8330    7.9242 C   0  0  0  0  0  0  0  0  0  0  0  0
    2.9926    5.8505    6.7158 C   0  0  0  0  0  0  0  0  0  0  0  0
    2.7013    4.9284    5.6667 C   0  0  0  0  0  0  0  0  0  0  0  0
    2.6704    5.3316    4.3108 C   0  0  0  0  0  0  0  0  0  0  0  0
    2.4333    3.5697    5.9579 C   0  0  0  0  0  0  0  0  0  0  0  0
    2.3573    4.4159    3.2894 C   0  0  0  0  0  0  0  0  0  0  0  0
    2.1041    2.6591    4.9400 C   0  0  0  0  0  0  0  0  0  0  0  0
    2.0447    3.0666    3.5854 C   0  0  0  0  0  0  0  0  0  0  0  0
    1.6381    2.1531    2.5621 C   0  0  0  0  0  0  0  0  0  0  0  0
    2.0831    0.8063    2.5489 C   0  0  0  0  0  0  0  0  0  0  0  0
    0.7425    2.5626    1.5403 C   0  0  0  0  0  0  0  0  0  0  0  0
    1.6150   -0.1052    1.5844 C   0  0  0  0  0  0  0  0  0  0  0  0
    0.2838    1.6560    0.5679 C   0  0  0  0  0  0  0  0  0  0  0  0
    0.7038    0.3119    0.5954 C   0  0  0  0  0  0  0  0  0  0  0  0
    0.2602   -0.5777   -0.3477 O   0  0  0  0  0  0  0  0  0  0  0  0
   -1.0557   -1.1005   -0.0730 C   0  0  2  0  0  0  0  0  0  0  0  0
   -1.4675   -2.0619   -1.2128 C   0  0  2  0  0  0  0  0  0  0  0  0
   -2.9091   -2.6092   -1.0379 C   0  0  1  0  0  0  0  0  0  0  0  0
   -3.3205   -3.5697   -2.1836 C   0  0  1  0  0  0  0  0  0  0  0  0
   -4.7505   -4.1208   -1.9996 C   0  0  0  0  0  0  0  0  0  0  0  0
    7.3001   12.3492    9.5881 H   0  0  0  0  0  0  0  0  0  0  0  0
    6.4374    7.1490    3.4978 H   0  0  0  0  0  0  0  0  0  0  0  0
    8.9565    3.3463    4.7104 H   0  0  0  0  0  0  0  0  0  0  0  0
   10.1419    7.0215    5.0065 H   0  0  0  0  0  0  0  0  0  0  0  0
   10.5050    5.7328    3.8362 H   0  0  0  0  0  0  0  0  0  0  0  0
    9.3254    7.4296    2.6407 H   0  0  0  0  0  0  0  0  0  0  0  0
    8.6669    8.3980    4.9518 H   0  0  0  0  0  0  0  0  0  0  0  0
   10.5044    3.6890    7.2160 H   0  0  0  0  0  0  0  0  0  0  0  0
   11.0344    5.8576    6.8124 H   0  0  0  0  0  0  0  0  0  0  0  0
    8.7155    6.0822    0.6366 H   0  0  0  0  0  0  0  0  0  0  0  0
    8.6689    5.0790    2.0887 H   0  0  0  0  0  0  0  0  0  0  0  0
    7.1554    5.6653    1.3728 H   0  0  0  0  0  0  0  0  0  0  0  0
    7.8323    9.0614    2.2147 H   0  0  0  0  0  0  0  0  0  0  0  0
   10.7007    2.0158    5.7646 H   0  0  0  0  0  0  0  0  0  0  0  0
    8.2014    4.9682    7.9428 H   0  0  0  0  0  0  0  0  0  0  0  0
   12.7440    4.7780    4.5170 H   0  0  0  0  0  0  0  0  0  0  0  0
   12.9504    6.3223    5.3613 H   0  0  0  0  0  0  0  0  0  0  0  0
   13.1946    4.8014    6.2328 H   0  0  0  0  0  0  0  0  0  0  0  0
    8.2820   10.4008    6.0829 H   0  0  0  0  0  0  0  0  0  0  0  0
    7.3671    2.6146    9.1192 H   0  0  0  0  0  0  0  0  0  0  0  0
    7.4511   12.6840    5.2260 H   0  0  0  0  0  0  0  0  0  0  0  0
    5.4212   10.5903    6.4479 H   0  0  0  0  0  0  0  0  0  0  0  0
    5.7090    2.5771    7.6394 H   0  0  0  0  0  0  0  0  0  0  0  0
    7.8543    4.6673   10.4408 H   0  0  0  0  0  0  0  0  0  0  0  0
    8.2272   10.7951    2.9668 H   0  0  0  0  0  0  0  0  0  0  0  0
    5.3890   12.0093    4.7831 H   0  0  0  0  0  0  0  0  0  0  0  0
    5.9703    4.1941   11.8475 H   0  0  0  0  0  0  0  0  0  0  0  0
    5.1197    5.5245    9.4138 H   0  0  0  0  0  0  0  0  0  0  0  0
    6.5954    6.3728    9.0335 H   0  0  0  0  0  0  0  0  0  0  0  0
    7.3155   12.6425    2.2353 H   0  0  0  0  0  0  0  0  0  0  0  0
    5.1857    6.1310   11.6975 H   0  0  0  0  0  0  0  0  0  0  0  0
   10.2887    9.7424    3.5547 H   0  0  0  0  0  0  0  0  0  0  0  0
    9.7421   13.7764    4.6869 H   0  0  0  0  0  0  0  0  0  0  0  0
    8.8328   12.5612    6.9875 H   0  0  0  0  0  0  0  0  0  0  0  0
    8.3191   13.8452    8.0997 H   0  0  0  0  0  0  0  0  0  0  0  0
    5.1764    8.5753   11.6226 H   0  0  0  0  0  0  0  0  0  0  0  0
   12.5779    9.8568    4.2822 H   0  0  0  0  0  0  0  0  0  0  0  0
   12.0288   13.8734    5.4181 H   0  0  0  0  0  0  0  0  0  0  0  0
   10.2872   10.5199    8.1698 H   0  0  0  0  0  0  0  0  0  0  0  0
   10.5066   10.7880    9.9114 H   0  0  0  0  0  0  0  0  0  0  0  0
   10.8355   12.8552    8.2187 H   0  0  0  0  0  0  0  0  0  0  0  0
    8.7841    7.8667   12.3500 H   0  0  0  0  0  0  0  0  0  0  0  0
    9.6284    8.9306   10.8705 H   0  0  0  0  0  0  0  0  0  0  0  0
   10.7673   13.0388   10.4954 H   0  0  0  0  0  0  0  0  0  0  0  0
   13.9870   12.8862    5.4391 H   0  0  0  0  0  0  0  0  0  0  0  0
    8.8305    6.5100    9.5504 H   0  0  0  0  0  0  0  0  0  0  0  0
    5.1635    8.2929    7.5540 H   0  0  0  0  0  0  0  0  0  0  0  0
    2.0558    6.6183    9.8681 H   0  0  0  0  0  0  0  0  0  0  0  0
    8.8961    6.8670    7.2860 H   0  0  0  0  0  0  0  0  0  0  0  0
    7.8956    8.2205    7.7684 H   0  0  0  0  0  0  0  0  0  0  0  0
    9.6238    8.4574    7.4082 H   0  0  0  0  0  0  0  0  0  0  0  0
   10.8720    6.5428    8.8918 H   0  0  0  0  0  0  0  0  0  0  0  0
    4.5775    6.8696    5.7287 H   0  0  0  0  0  0  0  0  0  0  0  0
    1.4614    5.1962    8.0408 H   0  0  0  0  0  0  0  0  0  0  0  0
    2.8616    6.3019    4.0467 H   0  0  0  0  0  0  0  0  0  0  0  0
    2.4686    3.2236    6.9201 H   0  0  0  0  0  0  0  0  0  0  0  0
    2.3537    4.7527    2.3217 H   0  0  0  0  0  0  0  0  0  0  0  0
    1.8866    1.6957    5.2092 H   0  0  0  0  0  0  0  0  0  0  0  0
    2.7531    0.4691    3.2445 H   0  0  0  0  0  0  0  0  0  0  0  0
    0.3945    3.5234    1.5030 H   0  0  0  0  0  0  0  0  0  0  0  0
    1.9403   -1.0739    1.6065 H   0  0  0  0  0  0  0  0  0  0  0  0
   -0.3645    1.9766   -0.1547 H   0  0  0  0  0  0  0  0  0  0  0  0
   -1.7899   -0.2900   -0.0162 H   0  0  0  0  0  0  0  0  0  0  0  0
   -1.0601   -1.6485    0.8749 H   0  0  0  0  0  0  0  0  0  0  0  0
   -0.7622   -2.8977   -1.2403 H   0  0  0  0  0  0  0  0  0  0  0  0
   -1.4021   -1.5281   -2.1655 H   0  0  0  0  0  0  0  0  0  0  0  0
   -2.9778   -3.1376   -0.0826 H   0  0  0  0  0  0  0  0  0  0  0  0
   -3.6084   -1.7684   -1.0115 H   0  0  0  0  0  0  0  0  0  0  0  0
   -3.2697   -3.0391   -3.1382 H   0  0  0  0  0  0  0  0  0  0  0  0
   -2.6220   -4.4098   -2.2236 H   0  0  0  0  0  0  0  0  0  0  0  0
   -4.9923   -4.8047   -2.8149 H   0  0  0  0  0  0  0  0  0  0  0  0
   -4.8301   -4.6613   -1.0548 H   0  0  0  0  0  0  0  0  0  0  0  0
   -5.4734   -3.3028   -2.0038 H   0  0  0  0  0  0  0  0  0  0  0  0
  1  2  2  0  0  0  0 
  2  3  1  0  0  0  0 
  4  2  1  0  0  0  0 
  5  3  1  0  0  0  0 
  3  6  1  0  0  0  0 
  7  4  1  0  0  0  0 
  4  8  1  0  0  0  0 
  4 84  1  0  0  0  0 
  9  5  1  0  0  0  0 
  5 10  1  0  0  0  0 
  5 85  1  0  0  0  0 
 11  6  1  0  0  0  0 
  7 12  1  0  0  0  0 
  7 13  1  0  0  0  0 
  8 14  1  0  0  0  0 
 11  9  1  0  0  0  0 
  9 15  1  0  0  0  0 
 10 16  2  0  0  0  0 
 10 17  1  0  0  0  0 
 11 18  1  0  0  0  0 
 14 19  2  0  0  0  0 
 14 20  1  0  0  0  0 
 21 17  1  0  0  0  0 
 22 20  1  0  0  0  0 
 20 23  1  0  0  0  0 
 21 24  1  0  0  0  0 
 25 21  1  0  0  0  0 
 26 22  1  0  0  0  0 
 22 27  1  0  0  0  0 
 23 28  1  0  0  0  0 
 25 29  1  0  0  0  0 
 25 30  1  0  0  0  0 
 26 31  1  0  0  0  0 
 26 32  1  0  0  0  0 
 28 33  2  0  0  0  0 
 34 28  1  0  0  0  0 
 35 30  1  0  0  0  0 
 32 36  2  0  0  0  0 
 32 37  1  0  0  0  0 
 34 38  1  0  0  0  0 
 34 39  1  0  0  0  0 
 34 83  1  0  0  0  0 
 35 40  1  0  0  0  0 
 35 41  1  0  0  0  0 
 36 42  1  0  0  0  0 
 37 43  2  0  0  0  0 
 38 44  1  0  0  0  0 
 38 45  1  0  0  0  0 
 46 39  1  0  0  0  0 
 40 47  1  0  0  0  0 
 41 48  2  0  0  0  0 
 41 49  1  0  0  0  0 
 42 50  2  0  0  0  0 
 43 50  1  0  0  0  0 
 44 51  2  0  0  0  0 
 44 52  1  0  0  0  0 
 46 45  1  0  0  0  0 
 46 53  1  0  0  0  0 
 47 54  2  0  0  0  0 
 47 55  1  0  0  0  0 
 49 52  1  0  0  0  0 
 50 56  1  0  0  0  0 
 57 52  1  0  0  0  0 
 55 58  2  0  0  0  0 
 55 59  1  0  0  0  0 
 57 60  1  0  0  0  0 
 57 61  1  0  0  0  0 
 58 62  1  0  0  0  0 
 59 63  2  0  0  0  0 
 62 64  2  0  0  0  0 
 63 64  1  0  0  0  0 
 64 65  1  0  0  0  0 
 65 66  2  0  0  0  0 
 65 67  1  0  0  0  0 
 66 68  1  0  0  0  0 
 67 69  2  0  0  0  0 
 68 70  2  0  0  0  0 
 69 70  1  0  0  0  0 
 70 71  1  0  0  0  0 
 71 72  2  0  0  0  0 
 71 73  1  0  0  0  0 
 72 74  1  0  0  0  0 
 73 75  2  0  0  0  0 
 74 76  2  0  0  0  0 
 75 76  1  0  0  0  0 
 76 77  1  0  0  0  0 
 77 78  1  0  0  0  0 
 78 79  1  0  0  0  0 
 79 80  1  0  0  0  0 
 80 81  1  0  0  0  0 
 81 82  1  0  0  0  0 
  6 86  1  0  0  0  0 
  6 87  1  0  0  0  0 
  7 88  1  0  0  0  0 
  8 89  1  0  0  0  0 
  9 90  1  0  0  0  0 
 11 91  1  0  0  0  0 
 12 92  1  0  0  0  0 
 12 93  1  0  0  0  0 
 12 94  1  0  0  0  0 
 13 95  1  0  0  0  0 
 15 96  1  0  0  0  0 
 17 97  1  0  0  0  0 
 18 98  1  0  0  0  0 
 18 99  1  0  0  0  0 
 18100  1  0  0  0  0 
 20101  1  0  0  0  0 
 21102  1  0  0  0  0 
 22103  1  0  0  0  0 
 23104  1  0  0  0  0 
 24105  1  0  0  0  0 
 25106  1  0  0  0  0 
 26107  1  0  0  0  0 
 27108  1  0  0  0  0 
 29109  1  0  0  0  0 
 30110  1  0  0  0  0 
 30111  1  0  0  0  0 
 31112  1  0  0  0  0 
 35113  1  0  0  0  0 
 36114  1  0  0  0  0 
 37115  1  0  0  0  0 
 39116  1  0  0  0  0 
 39117  1  0  0  0  0 
 40118  1  0  0  0  0 
 42119  1  0  0  0  0 
 43120  1  0  0  0  0 
 45121  1  0  0  0  0 
 45122  1  0  0  0  0 
 46123  1  0  0  0  0 
 49124  1  0  0  0  0 
 52125  1  0  0  0  0 
 53126  1  0  0  0  0 
 56127  1  0  0  0  0 
 57128  1  0  0  0  0 
 58129  1  0  0  0  0 
 59130  1  0  0  0  0 
 60131  1  0  0  0  0 
 60132  1  0  0  0  0 
 60133  1  0  0  0  0 
 61134  1  0  0  0  0 
 62135  1  0  0  0  0 
 63136  1  0  0  0  0 
 66137  1  0  0  0  0 
 67138  1  0  0  0  0 
 68139  1  0  0  0  0 
 69140  1  0  0  0  0 
 72141  1  0  0  0  0 
 73142  1  0  0  0  0 
 74143  1  0  0  0  0 
 75144  1  0  0  0  0 
 78145  1  0  0  0  0 
 78146  1  0  0  0  0 
 79147  1  0  0  0  0 
 79148  1  0  0  0  0 
 80149  1  0  0  0  0 
 80150  1  0  0  0  0 
 81151  1  0  0  0  0 
 81152  1  0  0  0  0 
 82153  1  0  0  0  0 
 82154  1  0  0  0  0 
 82155  1  0  0  0  0 
M  END
> <cdk:Title>
anidulafungin

> <Conformer>
1

> <SuperDrugID>
SD003516

$$$$
