ecamsule
  CDK     0628171801

 72 76  0  0  0  0  0  0  0  0999 V2000
   64.8826  105.8183 -155.9184 C   0  0  0  0  0  0  0  0  0  0  0  0
   64.4094  106.8635 -156.7395 C   0  0  0  0  0  0  0  0  0  0  0  0
   64.6240  106.8469 -158.1401 C   0  0  0  0  0  0  0  0  0  0  0  0
   65.2714  105.7150 -158.6915 C   0  0  0  0  0  0  0  0  0  0  0  0
   65.7271  104.6652 -157.8742 C   0  0  0  0  0  0  0  0  0  0  0  0
   65.5812  104.7157 -156.4689 C   0  0  0  0  0  0  0  0  0  0  0  0
   64.3184  107.9148 -158.9876 C   0  0  0  0  0  0  0  0  0  0  0  0
   66.0474  103.6915 -155.6443 C   0  0  0  0  0  0  0  0  0  0  0  0
   67.2228  103.0319 -155.7258 C   0  0  0  0  0  0  0  0  0  0  0  0
   63.2340  108.7161 -158.9955 C   0  0  0  0  0  0  0  0  0  0  0  0
   63.0312  109.7942 -159.8461 C   0  0  0  0  0  0  0  0  0  0  0  0
   61.6899  110.3776 -159.5415 C   0  0  2  0  0  0  0  0  0  0  0  0
   60.9094  109.0449 -159.2349 C   0  0  1  0  0  0  0  0  0  0  0  0
   62.0098  108.6425 -158.1946 C   0  0  2  0  0  0  0  0  0  0  0  0
   68.3358  103.2308 -156.5325 C   0  0  0  0  0  0  0  0  0  0  0  0
   69.2953  102.1123 -156.2669 C   0  0  2  0  0  0  0  0  0  0  0  0
   69.1068  101.9883 -154.7089 C   0  0  1  0  0  0  0  0  0  0  0  0
   67.5647  101.8548 -154.9200 C   0  0  2  0  0  0  0  0  0  0  0  0
   69.7813  100.7518 -153.9997 C   0  0  0  0  0  0  0  0  0  0  0  0
   69.5280  103.2338 -153.8320 C   0  0  0  0  0  0  0  0  0  0  0  0
   70.7712  102.3529 -156.7324 C   0  0  1  0  0  0  0  0  0  0  0  0
   71.0810  102.1464 -158.5543 S   0  0  1  0  0  0  0  0  0  0  0  0
   68.5662  104.2276 -157.2552 O   0  0  0  0  0  0  0  0  0  0  0  0
   63.8154  110.1702 -160.7485 O   0  0  0  0  0  0  0  0  0  0  0  0
   61.0601  111.2931 -160.6437 C   0  0  2  0  0  0  0  0  0  0  0  0
   61.8228  112.9432 -160.8846 S   0  0  1  0  0  0  0  0  0  0  0  0
   59.4555  109.1877 -158.6417 C   0  0  0  0  0  0  0  0  0  0  0  0
   60.7442  108.0292 -160.4353 C   0  0  0  0  0  0  0  0  0  0  0  0
   61.8268  111.0508 -158.1287 C   0  0  1  0  0  0  0  0  0  0  0  0
   62.0350  109.8327 -157.1804 C   0  0  2  0  0  0  0  0  0  0  0  0
   67.4024  100.6189 -155.8623 C   0  0  2  0  0  0  0  0  0  0  0  0
   68.6104  100.8102 -156.8276 C   0  0  1  0  0  0  0  0  0  0  0  0
   61.7041  113.8436 -159.5652 O   0  0  0  0  0  0  0  0  0  0  0  0
   63.3525  112.8467 -161.3480 O   0  0  0  0  0  0  0  0  0  0  0  0
   60.9695  113.7467 -162.1304 O   0  0  0  0  0  0  0  0  0  0  0  0
   72.5884  102.5855 -158.8737 O   0  0  0  0  0  0  0  0  0  0  0  0
   70.8839  100.6207 -159.0017 O   0  0  0  0  0  0  0  0  0  0  0  0
   70.0314  103.1354 -159.4678 O   0  0  0  0  0  0  0  0  0  0  0  0
   64.7219  105.8829 -154.9081 H   0  0  0  0  0  0  0  0  0  0  0  0
   63.9374  107.6496 -156.2896 H   0  0  0  0  0  0  0  0  0  0  0  0
   65.4239  105.6432 -159.7030 H   0  0  0  0  0  0  0  0  0  0  0  0
   66.1681  103.8573 -158.3199 H   0  0  0  0  0  0  0  0  0  0  0  0
   65.0022  108.1066 -159.6851 H   0  0  0  0  0  0  0  0  0  0  0  0
   65.4275  103.4056 -154.9204 H   0  0  0  0  0  0  0  0  0  0  0  0
   61.8242  107.6698 -157.7283 H   0  0  0  0  0  0  0  0  0  0  0  0
   67.0003  101.7618 -153.9865 H   0  0  0  0  0  0  0  0  0  0  0  0
   69.6696   99.8147 -154.5385 H   0  0  0  0  0  0  0  0  0  0  0  0
   69.3408  100.6089 -153.0110 H   0  0  0  0  0  0  0  0  0  0  0  0
   70.8541  100.9102 -153.8742 H   0  0  0  0  0  0  0  0  0  0  0  0
   70.6147  103.3337 -153.7964 H   0  0  0  0  0  0  0  0  0  0  0  0
   69.1337  104.1794 -154.2009 H   0  0  0  0  0  0  0  0  0  0  0  0
   69.1649  103.1124 -152.8096 H   0  0  0  0  0  0  0  0  0  0  0  0
   71.1044  103.3326 -156.3173 H   0  0  0  0  0  0  0  0  0  0  0  0
   71.4062  101.5995 -156.2646 H   0  0  0  0  0  0  0  0  0  0  0  0
   60.0154  111.4781 -160.3948 H   0  0  0  0  0  0  0  0  0  0  0  0
   61.0801  110.7812 -161.6063 H   0  0  0  0  0  0  0  0  0  0  0  0
   58.7529  109.5051 -159.4160 H   0  0  0  0  0  0  0  0  0  0  0  0
   59.1177  108.2273 -158.2434 H   0  0  0  0  0  0  0  0  0  0  0  0
   59.3745  109.9119 -157.8363 H   0  0  0  0  0  0  0  0  0  0  0  0
   60.3509  107.0764 -160.0745 H   0  0  0  0  0  0  0  0  0  0  0  0
   61.6758  107.8092 -160.9548 H   0  0  0  0  0  0  0  0  0  0  0  0
   60.0514  108.4265 -161.1797 H   0  0  0  0  0  0  0  0  0  0  0  0
   62.6829  111.7300 -158.0856 H   0  0  0  0  0  0  0  0  0  0  0  0
   60.9331  111.6168 -157.8572 H   0  0  0  0  0  0  0  0  0  0  0  0
   62.9843  109.9056 -156.6407 H   0  0  0  0  0  0  0  0  0  0  0  0
   61.2307  109.7482 -156.4444 H   0  0  0  0  0  0  0  0  0  0  0  0
   66.4486  100.6289 -156.3994 H   0  0  0  0  0  0  0  0  0  0  0  0
   67.4682   99.6816 -155.3054 H   0  0  0  0  0  0  0  0  0  0  0  0
   68.2684  100.9406 -157.8589 H   0  0  0  0  0  0  0  0  0  0  0  0
   69.2793   99.9469 -156.7995 H   0  0  0  0  0  0  0  0  0  0  0  0
   60.0847  113.9310 -161.7514 H   0  0  0  0  0  0  0  0  0  0  0  0
   70.2939  104.0495 -159.2314 H   0  0  0  0  0  0  0  0  0  0  0  0
  1  2  2  0  0  0  0 
  1  6  1  0  0  0  0 
  2  3  1  0  0  0  0 
  3  4  2  0  0  0  0 
  4  5  1  0  0  0  0 
  5  6  2  0  0  0  0 
  3  7  1  0  0  0  0 
  6  8  1  0  0  0  0 
  8  9  2  0  0  0  0 
  7 10  2  0  0  0  0 
 11 12  1  0  0  0  0 
 12 13  1  0  0  0  0 
 13 14  1  0  0  0  0 
 10 11  1  0  0  0  0 
 10 14  1  0  0  0  0 
 15 16  1  0  0  0  0 
 16 17  1  0  0  0  0 
 17 18  1  0  0  0  0 
  9 15  1  0  0  0  0 
  9 18  1  0  0  0  0 
 17 19  1  0  0  0  0 
 17 20  1  0  0  0  0 
 16 21  1  0  0  0  0 
 21 22  1  0  0  0  0 
 15 23  2  0  0  0  0 
 11 24  2  0  0  0  0 
 12 25  1  0  0  0  0 
 25 26  1  0  0  0  0 
 13 27  1  0  0  0  0 
 13 28  1  0  0  0  0 
 12 29  1  0  0  0  0 
 14 30  1  0  0  0  0 
 29 30  1  0  0  0  0 
 18 31  1  0  0  0  0 
 16 32  1  0  0  0  0 
 31 32  1  0  0  0  0 
 26 33  2  0  0  0  0 
 26 34  2  0  0  0  0 
 26 35  1  0  0  0  0 
 22 36  2  0  0  0  0 
 22 37  2  0  0  0  0 
 22 38  1  0  0  0  0 
  1 39  1  0  0  0  0 
  2 40  1  0  0  0  0 
  4 41  1  0  0  0  0 
  5 42  1  0  0  0  0 
  7 43  1  0  0  0  0 
  8 44  1  0  0  0  0 
 14 45  1  0  0  0  0 
 18 46  1  0  0  0  0 
 19 47  1  0  0  0  0 
 19 48  1  0  0  0  0 
 19 49  1  0  0  0  0 
 20 50  1  0  0  0  0 
 20 51  1  0  0  0  0 
 20 52  1  0  0  0  0 
 21 53  1  0  0  0  0 
 21 54  1  0  0  0  0 
 25 55  1  0  0  0  0 
 25 56  1  0  0  0  0 
 27 57  1  0  0  0  0 
 27 58  1  0  0  0  0 
 27 59  1  0  0  0  0 
 28 60  1  0  0  0  0 
 28 61  1  0  0  0  0 
 28 62  1  0  0  0  0 
 29 63  1  0  0  0  0 
 29 64  1  0  0  0  0 
 30 65  1  0  0  0  0 
 30 66  1  0  0  0  0 
 31 67  1  0  0  0  0 
 31 68  1  0  0  0  0 
 32 69  1  0  0  0  0 
 32 70  1  0  0  0  0 
 35 71  1  0  0  0  0 
 38 72  1  0  0  0  0 
M  END
> <cdk:Title>
ecamsule

> <Conformer>
1

> <SuperDrugID>
SD002746

$$$$
