glutamic acid
  CDK     0628171801

 19 18  0  0  0  0  0  0  0  0999 V2000
   -1.3917   -0.6059    3.3017 N   0  0  1  0  0  0  0  0  0  0  0  0
   -1.9022    0.2755    2.2408 C   0  0  1  0  0  0  0  0  0  0  0  0
   -1.7602   -0.3738    0.8339 C   0  0  1  0  0  0  0  0  0  0  0  0
   -0.2923   -0.6843    0.4281 C   0  0  2  0  0  0  0  0  0  0  0  0
   -0.1956   -1.3279   -0.8973 C   0  0  0  0  0  0  0  0  0  0  0  0
    0.3004   -2.5832   -1.0218 O   0  0  0  0  0  0  0  0  0  0  0  0
   -0.5583   -0.7220   -1.9307 O   0  0  0  0  0  0  0  0  0  0  0  0
   -3.3109    0.6045    2.5480 C   0  0  0  0  0  0  0  0  0  0  0  0
   -3.6879    1.8875    2.7531 O   0  0  0  0  0  0  0  0  0  0  0  0
   -4.1803   -0.2927    2.6310 O   0  0  0  0  0  0  0  0  0  0  0  0
   -0.4016   -0.7706    3.1117 H   0  0  0  0  0  0  0  0  0  0  0  0
   -1.4350   -0.0819    4.1775 H   0  0  0  0  0  0  0  0  0  0  0  0
   -1.3130    1.1965    2.2633 H   0  0  0  0  0  0  0  0  0  0  0  0
   -2.3383   -1.3016    0.8059 H   0  0  0  0  0  0  0  0  0  0  0  0
   -2.1871    0.3093    0.0936 H   0  0  0  0  0  0  0  0  0  0  0  0
    0.1612   -1.3461    1.1699 H   0  0  0  0  0  0  0  0  0  0  0  0
    0.2857    0.2425    0.4059 H   0  0  0  0  0  0  0  0  0  0  0  0
    0.3661   -3.0026   -1.9060 H   0  0  0  0  0  0  0  0  0  0  0  0
   -4.6233    2.1028    2.9517 H   0  0  0  0  0  0  0  0  0  0  0  0
  2  1  1  0  0  0  0 
  2  3  1  0  0  0  0 
  3  4  1  0  0  0  0 
  4  5  1  0  0  0  0 
  5  6  1  0  0  0  0 
  5  7  2  0  0  0  0 
  2  8  1  0  0  0  0 
  8  9  1  0  0  0  0 
  8 10  2  0  0  0  0 
  1 11  1  0  0  0  0 
  1 12  1  0  0  0  0 
  2 13  1  0  0  0  0 
  3 14  1  0  0  0  0 
  3 15  1  0  0  0  0 
  4 16  1  0  0  0  0 
  4 17  1  0  0  0  0 
  6 18  1  0  0  0  0 
  9 19  1  0  0  0  0 
M  END
> <cdk:Title>
glutamic acid

> <Conformer>
1

> <SuperDrugID>
SD001166

$$$$
