treosulfan
  CDK     0628171801

 30 29  0  0  0  0  0  0  0  0999 V2000
   -1.6964   -0.7340    4.3233 C   0  0  2  0  0  0  0  0  0  0  0  0
   -1.3762   -2.2605    4.4141 C   0  0  2  0  0  0  0  0  0  0  0  0
   -3.1533   -0.3702    4.7068 C   0  0  1  0  0  0  0  0  0  0  0  0
   -1.4605   -0.2454    3.0028 O   0  0  0  0  0  0  0  0  0  0  0  0
    0.0938   -2.6187    4.0787 C   0  0  2  0  0  0  0  0  0  0  0  0
   -2.2163   -3.0066    3.5333 O   0  0  0  0  0  0  0  0  0  0  0  0
   -3.4377   -0.8030    6.0466 O   0  0  0  0  0  0  0  0  0  0  0  0
    0.9887   -1.9256    4.9631 O   0  0  0  0  0  0  0  0  0  0  0  0
   -5.0753   -0.5256    6.4928 S   0  0  2  0  0  0  0  0  0  0  0  0
    2.6411   -2.1968    4.5706 S   0  0  1  0  0  0  0  0  0  0  0  0
   -5.3125   -1.1240    8.2030 C   0  0  0  0  0  0  0  0  0  0  0  0
   -6.0383   -1.3393    5.5039 O   0  0  0  0  0  0  0  0  0  0  0  0
   -5.3951    1.0428    6.4203 O   0  0  0  0  0  0  0  0  0  0  0  0
    3.6721   -1.2599    5.7531 C   0  0  0  0  0  0  0  0  0  0  0  0
    2.9726   -3.7601    4.6857 O   0  0  0  0  0  0  0  0  0  0  0  0
    2.9243   -1.6728    3.0831 O   0  0  0  0  0  0  0  0  0  0  0  0
   -1.0324   -0.1934    5.0027 H   0  0  0  0  0  0  0  0  0  0  0  0
   -1.5741   -2.6024    5.4333 H   0  0  0  0  0  0  0  0  0  0  0  0
   -3.2707    0.7145    4.6386 H   0  0  0  0  0  0  0  0  0  0  0  0
   -3.8349   -0.8317    3.9883 H   0  0  0  0  0  0  0  0  0  0  0  0
   -0.5031   -0.3741    2.8402 H   0  0  0  0  0  0  0  0  0  0  0  0
    0.2918   -2.3633    3.0349 H   0  0  0  0  0  0  0  0  0  0  0  0
    0.2246   -3.6976    4.1956 H   0  0  0  0  0  0  0  0  0  0  0  0
   -3.1308   -2.8596    3.8522 H   0  0  0  0  0  0  0  0  0  0  0  0
   -5.1026   -2.1934    8.2486 H   0  0  0  0  0  0  0  0  0  0  0  0
   -6.3431   -0.9446    8.5099 H   0  0  0  0  0  0  0  0  0  0  0  0
   -4.6371   -0.5933    8.8752 H   0  0  0  0  0  0  0  0  0  0  0  0
    3.4602   -1.5929    6.7698 H   0  0  0  0  0  0  0  0  0  0  0  0
    3.4512   -0.1951    5.6672 H   0  0  0  0  0  0  0  0  0  0  0  0
    4.7255   -1.4296    5.5289 H   0  0  0  0  0  0  0  0  0  0  0  0
  2  1  1  0  0  0  0 
  1  3  1  0  0  0  0 
  1  4  1  0  0  0  0 
  2  5  1  0  0  0  0 
  2  6  1  0  0  0  0 
  3  7  1  0  0  0  0 
  5  8  1  0  0  0  0 
  7  9  1  0  0  0  0 
  8 10  1  0  0  0  0 
  9 11  1  0  0  0  0 
  9 12  2  0  0  0  0 
  9 13  2  0  0  0  0 
 10 14  1  0  0  0  0 
 10 15  2  0  0  0  0 
 10 16  2  0  0  0  0 
  1 17  1  0  0  0  0 
  2 18  1  0  0  0  0 
  3 19  1  0  0  0  0 
  3 20  1  0  0  0  0 
  4 21  1  0  0  0  0 
  5 22  1  0  0  0  0 
  5 23  1  0  0  0  0 
  6 24  1  0  0  0  0 
 11 25  1  0  0  0  0 
 11 26  1  0  0  0  0 
 11 27  1  0  0  0  0 
 14 28  1  0  0  0  0 
 14 29  1  0  0  0  0 
 14 30  1  0  0  0  0 
M  END
> <cdk:Title>
treosulfan

> <Conformer>
1

> <SuperDrugID>
SD002449

$$$$
