alpiropride
  CDK     0628171801

 52 53  0  0  0  0  0  0  0  0999 V2000
    4.5890   -2.6315    1.0182 C   0  0  0  0  0  0  0  0  0  0  0  0
    4.5497   -2.1079   -0.2442 N   0  0  0  0  0  0  0  0  0  0  0  0
    4.1017   -3.7677    1.2333 O   0  0  0  0  0  0  0  0  0  0  0  0
    5.1817   -1.9088    2.0933 C   0  0  0  0  0  0  0  0  0  0  0  0
    3.9765   -2.7387   -1.3905 C   0  0  2  0  0  0  0  0  0  0  0  0
    4.7092   -2.0259    3.4280 C   0  0  0  0  0  0  0  0  0  0  0  0
    6.2875   -1.0570    1.8480 C   0  0  0  0  0  0  0  0  0  0  0  0
    2.4208   -2.7616   -1.3785 C   0  0  1  0  0  0  0  0  0  0  0  0
    3.6271   -2.8101    3.7446 O   0  0  0  0  0  0  0  0  0  0  0  0
    5.3639   -1.3466    4.4740 C   0  0  0  0  0  0  0  0  0  0  0  0
    6.9218   -0.3444    2.8880 C   0  0  0  0  0  0  0  0  0  0  0  0
    1.8060   -1.3958   -1.3787 N   0  0  2  0  0  0  0  0  0  0  0  0
    1.8405   -3.4764   -2.6217 C   0  0  2  0  0  0  0  0  0  0  0  0
    2.3878   -2.0812    3.8345 C   0  0  0  0  0  0  0  0  0  0  0  0
    6.4647   -0.5091    4.2149 C   0  0  0  0  0  0  0  0  0  0  0  0
    8.2731    0.7408    2.5024 S   0  0  2  0  0  0  0  0  0  0  0  0
    1.5078   -0.8329   -0.0225 C   0  0  1  0  0  0  0  0  0  0  0  0
    0.6407   -1.4329   -2.3099 C   0  0  2  0  0  0  0  0  0  0  0  0
    0.4291   -2.8930   -2.7315 C   0  0  2  0  0  0  0  0  0  0  0  0
    7.0473    0.1112    5.2618 N   0  0  0  0  0  0  0  0  0  0  0  0
    7.9207    2.3551    3.1246 N   0  0  2  0  0  0  0  0  0  0  0  0
    8.5126    0.8339    0.9185 O   0  0  0  0  0  0  0  0  0  0  0  0
    9.6143    0.2089    3.2015 O   0  0  0  0  0  0  0  0  0  0  0  0
    1.0378    0.5420   -0.0832 C   0  0  0  0  0  0  0  0  0  0  0  0
    8.9707    3.3268    2.7811 C   0  0  0  0  0  0  0  0  0  0  0  0
   -0.1955    0.9260    0.2695 C   0  0  0  0  0  0  0  0  0  0  0  0
    4.9199   -1.2201   -0.3725 H   0  0  0  0  0  0  0  0  0  0  0  0
    4.3609   -3.7601   -1.4639 H   0  0  0  0  0  0  0  0  0  0  0  0
    4.3205   -2.1904   -2.2699 H   0  0  0  0  0  0  0  0  0  0  0  0
    6.6481   -0.9625    0.8962 H   0  0  0  0  0  0  0  0  0  0  0  0
    2.0880   -3.3283   -0.5016 H   0  0  0  0  0  0  0  0  0  0  0  0
    5.0253   -1.4653    5.4315 H   0  0  0  0  0  0  0  0  0  0  0  0
    1.8151   -4.5629   -2.4994 H   0  0  0  0  0  0  0  0  0  0  0  0
    2.4071   -3.2279   -3.5260 H   0  0  0  0  0  0  0  0  0  0  0  0
    1.5931   -2.8006    4.0324 H   0  0  0  0  0  0  0  0  0  0  0  0
    2.4049   -1.3590    4.6542 H   0  0  0  0  0  0  0  0  0  0  0  0
    2.1540   -1.5612    2.9038 H   0  0  0  0  0  0  0  0  0  0  0  0
    0.7919   -1.4823    0.4947 H   0  0  0  0  0  0  0  0  0  0  0  0
    2.4183   -0.8159    0.5760 H   0  0  0  0  0  0  0  0  0  0  0  0
    0.8959   -0.8250   -3.1818 H   0  0  0  0  0  0  0  0  0  0  0  0
   -0.2874   -1.0458   -1.8819 H   0  0  0  0  0  0  0  0  0  0  0  0
   -0.2504   -3.3972   -2.0364 H   0  0  0  0  0  0  0  0  0  0  0  0
    0.0308   -2.9662   -3.7466 H   0  0  0  0  0  0  0  0  0  0  0  0
    7.8182    0.6832    5.1290 H   0  0  0  0  0  0  0  0  0  0  0  0
    6.6944   -0.0155    6.1564 H   0  0  0  0  0  0  0  0  0  0  0  0
    7.8999    2.2863    4.1443 H   0  0  0  0  0  0  0  0  0  0  0  0
    1.6696    1.2341   -0.4177 H   0  0  0  0  0  0  0  0  0  0  0  0
    9.9463    2.9965    3.1427 H   0  0  0  0  0  0  0  0  0  0  0  0
    8.7293    4.2795    3.2532 H   0  0  0  0  0  0  0  0  0  0  0  0
    9.0141    3.4746    1.7006 H   0  0  0  0  0  0  0  0  0  0  0  0
   -0.4561    1.8805    0.1970 H   0  0  0  0  0  0  0  0  0  0  0  0
   -0.8704    0.2744    0.5974 H   0  0  0  0  0  0  0  0  0  0  0  0
  1  2  1  0  0  0  0 
  1  3  2  0  0  0  0 
  1  4  1  0  0  0  0 
  2  5  1  0  0  0  0 
  4  6  2  0  0  0  0 
  4  7  1  0  0  0  0 
  8  5  1  0  0  0  0 
  6  9  1  0  0  0  0 
  6 10  1  0  0  0  0 
  7 11  2  0  0  0  0 
  8 12  1  0  0  0  0 
  8 13  1  0  0  0  0 
  9 14  1  0  0  0  0 
 10 15  2  0  0  0  0 
 11 15  1  0  0  0  0 
 11 16  1  0  0  0  0 
 12 17  1  0  0  0  0 
 12 18  1  0  0  0  0 
 13 19  1  0  0  0  0 
 15 20  1  0  0  0  0 
 16 21  1  0  0  0  0 
 16 22  2  0  0  0  0 
 16 23  2  0  0  0  0 
 17 24  1  0  0  0  0 
 18 19  1  0  0  0  0 
 21 25  1  0  0  0  0 
 24 26  2  0  0  0  0 
  2 27  1  0  0  0  0 
  5 28  1  0  0  0  0 
  5 29  1  0  0  0  0 
  7 30  1  0  0  0  0 
  8 31  1  0  0  0  0 
 10 32  1  0  0  0  0 
 13 33  1  0  0  0  0 
 13 34  1  0  0  0  0 
 14 35  1  0  0  0  0 
 14 36  1  0  0  0  0 
 14 37  1  0  0  0  0 
 17 38  1  0  0  0  0 
 17 39  1  0  0  0  0 
 18 40  1  0  0  0  0 
 18 41  1  0  0  0  0 
 19 42  1  0  0  0  0 
 19 43  1  0  0  0  0 
 20 44  1  0  0  0  0 
 20 45  1  0  0  0  0 
 21 46  1  0  0  0  0 
 24 47  1  0  0  0  0 
 25 48  1  0  0  0  0 
 25 49  1  0  0  0  0 
 25 50  1  0  0  0  0 
 26 51  1  0  0  0  0 
 26 52  1  0  0  0  0 
M  END
> <cdk:Title>
alpiropride

> <Conformer>
1

> <SuperDrugID>
SD000104

$$$$
