cetraxate
  CDK     0628171802

 45 46  0  0  0  0  0  0  0  0999 V2000
   -6.4828   -3.5681   -0.0223 O   0  0  0  0  0  0  0  0  0  0  0  0
   -7.5983   -4.3506   -0.2090 C   0  0  0  0  0  0  0  0  0  0  0  0
   -8.1279   -5.1999    0.7868 C   0  0  0  0  0  0  0  0  0  0  0  0
   -8.2261   -4.3198   -1.4707 C   0  0  0  0  0  0  0  0  0  0  0  0
   -9.2731   -5.9760    0.5368 C   0  0  0  0  0  0  0  0  0  0  0  0
   -9.3701   -5.1039   -1.7270 C   0  0  0  0  0  0  0  0  0  0  0  0
   -9.9020   -5.9530   -0.7298 C   0  0  0  0  0  0  0  0  0  0  0  0
  -11.0969   -6.8060   -0.9867 C   0  0  2  0  0  0  0  0  0  0  0  0
  -12.4237   -6.0295   -0.7781 C   0  0  2  0  0  0  0  0  0  0  0  0
  -13.6096   -6.9064   -0.8661 C   0  0  0  0  0  0  0  0  0  0  0  0
  -13.9361   -7.4982   -2.0393 O   0  0  0  0  0  0  0  0  0  0  0  0
  -14.3375   -7.1085    0.1319 O   0  0  0  0  0  0  0  0  0  0  0  0
   -5.9554   -3.0313    1.1261 C   0  0  0  0  0  0  0  0  0  0  0  0
   -4.6395   -2.3428    1.0904 C   0  0  2  0  0  0  0  0  0  0  0  0
   -6.5913   -3.0591    2.2073 O   0  0  0  0  0  0  0  0  0  0  0  0
   -4.6573   -1.1139    0.1339 C   0  0  1  0  0  0  0  0  0  0  0  0
   -3.2595   -0.4431    0.0231 C   0  0  2  0  0  0  0  0  0  0  0  0
   -2.1422   -1.4578   -0.3781 C   0  0  2  0  0  0  0  0  0  0  0  0
   -2.1240   -2.6589    0.6172 C   0  0  1  0  0  0  0  0  0  0  0  0
   -3.5101   -3.3472    0.7147 C   0  0  1  0  0  0  0  0  0  0  0  0
   -0.7496   -0.7690   -0.4857 C   0  0  2  0  0  0  0  0  0  0  0  0
    0.2644   -1.6664   -1.0580 N   0  0  1  0  0  0  0  0  0  0  0  0
   -2.3900   -1.8461   -1.3717 H   0  0  0  0  0  0  0  0  0  0  0  0
   -4.4140   -1.9677    2.0961 H   0  0  0  0  0  0  0  0  0  0  0  0
   -7.6784   -5.2757    1.7001 H   0  0  0  0  0  0  0  0  0  0  0  0
   -7.8545   -3.7188   -2.2094 H   0  0  0  0  0  0  0  0  0  0  0  0
   -9.6462   -6.5591    1.2880 H   0  0  0  0  0  0  0  0  0  0  0  0
   -9.8135   -5.0486   -2.6478 H   0  0  0  0  0  0  0  0  0  0  0  0
  -11.0845   -7.6699   -0.3146 H   0  0  0  0  0  0  0  0  0  0  0  0
  -11.0530   -7.2023   -2.0056 H   0  0  0  0  0  0  0  0  0  0  0  0
  -12.5157   -5.2481   -1.5358 H   0  0  0  0  0  0  0  0  0  0  0  0
  -12.4063   -5.5452    0.2032 H   0  0  0  0  0  0  0  0  0  0  0  0
  -14.7342   -8.0645   -2.1026 H   0  0  0  0  0  0  0  0  0  0  0  0
   -4.9831   -1.4204   -0.8643 H   0  0  0  0  0  0  0  0  0  0  0  0
   -5.3737   -0.3745    0.5074 H   0  0  0  0  0  0  0  0  0  0  0  0
   -3.0103    0.0199    0.9824 H   0  0  0  0  0  0  0  0  0  0  0  0
   -3.3163    0.3549   -0.7232 H   0  0  0  0  0  0  0  0  0  0  0  0
   -1.3951   -3.4051    0.2896 H   0  0  0  0  0  0  0  0  0  0  0  0
   -1.8214   -2.3129    1.6109 H   0  0  0  0  0  0  0  0  0  0  0  0
   -3.4539   -4.1362    1.4709 H   0  0  0  0  0  0  0  0  0  0  0  0
   -3.7339   -3.8190   -0.2464 H   0  0  0  0  0  0  0  0  0  0  0  0
   -0.4086   -0.4333    0.4974 H   0  0  0  0  0  0  0  0  0  0  0  0
   -0.8185    0.1025   -1.1407 H   0  0  0  0  0  0  0  0  0  0  0  0
    1.1263   -1.1248   -1.1506 H   0  0  0  0  0  0  0  0  0  0  0  0
    0.4497   -2.3985   -0.3678 H   0  0  0  0  0  0  0  0  0  0  0  0
  1  2  1  0  0  0  0 
  2  3  2  0  0  0  0 
  2  4  1  0  0  0  0 
  3  5  1  0  0  0  0 
  4  6  2  0  0  0  0 
  5  7  2  0  0  0  0 
  6  7  1  0  0  0  0 
  7  8  1  0  0  0  0 
  8  9  1  0  0  0  0 
  9 10  1  0  0  0  0 
 10 11  1  0  0  0  0 
 10 12  2  0  0  0  0 
  1 13  1  0  0  0  0 
 14 13  1  0  0  0  0 
 13 15  2  0  0  0  0 
 16 17  1  0  0  0  0 
 17 18  1  0  0  0  0 
 18 19  1  0  0  0  0 
 19 20  1  0  0  0  0 
 14 16  1  0  0  0  0 
 14 20  1  0  0  0  0 
 18 21  1  0  0  0  0 
 21 22  1  0  0  0  0 
 18 23  1  0  0  0  0 
 14 24  1  0  0  0  0 
  3 25  1  0  0  0  0 
  4 26  1  0  0  0  0 
  5 27  1  0  0  0  0 
  6 28  1  0  0  0  0 
  8 29  1  0  0  0  0 
  8 30  1  0  0  0  0 
  9 31  1  0  0  0  0 
  9 32  1  0  0  0  0 
 11 33  1  0  0  0  0 
 16 34  1  0  0  0  0 
 16 35  1  0  0  0  0 
 17 36  1  0  0  0  0 
 17 37  1  0  0  0  0 
 19 38  1  0  0  0  0 
 19 39  1  0  0  0  0 
 20 40  1  0  0  0  0 
 20 41  1  0  0  0  0 
 21 42  1  0  0  0  0 
 21 43  1  0  0  0  0 
 22 44  1  0  0  0  0 
 22 45  1  0  0  0  0 
M  END
> <cdk:Title>
cetraxate

> <Conformer>
1

> <SuperDrugID>
SD000509

$$$$
