difurazone
  Mrv0541 09131710103D              62.03257

 38 39  0  0  0  0            999 V2000
   -0.1659    2.9406   -0.5117 N   0  0  0  0  0  0  0  0  0  0  0  0
   -0.7292    1.7472   -0.4931 C   0  0  0  0  0  0  0  0  0  0  0  0
   -1.8623    1.5922   -1.0591 N   0  0  0  0  0  0  0  0  0  0  0  0
   -0.1804    0.6921    0.0887 N   0  0  0  0  0  0  0  0  0  0  0  0
    0.9656    0.7172    0.6374 N   0  0  0  0  0  0  0  0  0  0  0  0
    1.6049   -0.2268    1.2429 C   0  0  0  0  0  0  0  0  0  0  0  0
    2.8568    0.0324    1.7508 C   0  0  0  0  0  0  0  0  0  0  0  0
    3.5425    1.1881    1.6392 C   0  0  0  0  0  0  0  0  0  0  0  0
    4.7866    1.3790    2.2133 C   0  0  0  0  0  0  0  0  0  0  0  0
    5.4917    0.4380    2.8902 O   0  0  0  0  0  0  0  0  0  0  0  0
    6.6500    0.9815    3.3386 C   0  0  0  0  0  0  0  0  0  0  0  0
    6.6875    2.3133    2.9276 C   0  0  0  0  0  0  0  0  0  0  0  0
    5.5231    2.5607    2.2174 C   0  0  0  0  0  0  0  0  0  0  0  0
    7.5570    0.3304    4.0474 N   0  3  0  0  0  0  0  0  0  0  0  0
    7.4286   -0.8083    4.2675 O   0  0  0  0  0  0  0  0  0  0  0  0
    8.5853    0.9076    4.5164 O   0  5  0  0  0  0  0  0  0  0  0  0
    1.0998   -1.4929    1.4005 C   0  0  0  0  0  0  0  0  0  0  0  0
   -0.0975   -1.7839    1.9419 C   0  0  0  0  0  0  0  0  0  0  0  0
   -0.5266   -3.0805    2.1628 C   0  0  0  0  0  0  0  0  0  0  0  0
    0.2592   -4.1865    2.1318 O   0  0  0  0  0  0  0  0  0  0  0  0
   -0.4898   -5.2815    2.4190 C   0  0  0  0  0  0  0  0  0  0  0  0
   -1.8020   -4.8600    2.6303 C   0  0  0  0  0  0  0  0  0  0  0  0
   -1.8217   -3.4820    2.4798 C   0  0  0  0  0  0  0  0  0  0  0  0
   -0.0196   -6.5181    2.4849 N   0  3  0  0  0  0  0  0  0  0  0  0
    1.1188   -6.7287    2.3369 O   0  0  0  0  0  0  0  0  0  0  0  0
   -0.7737   -7.5124    2.7147 O   0  5  0  0  0  0  0  0  0  0  0  0
   -0.6260    3.6921   -0.9182 H   0  0  0  0  0  0  0  0  0  0  0  0
    0.7099    3.0710   -0.1145 H   0  0  0  0  0  0  0  0  0  0  0  0
   -2.2858    2.3097   -1.4822 H   0  0  0  0  0  0  0  0  0  0  0  0
   -0.6804   -0.1385    0.0953 H   0  0  0  0  0  0  0  0  0  0  0  0
    3.3037   -0.7026    2.2582 H   0  0  0  0  0  0  0  0  0  0  0  0
    3.1464    1.9521    1.1412 H   0  0  0  0  0  0  0  0  0  0  0  0
    7.4310    2.9884    3.1128 H   0  0  0  0  0  0  0  0  0  0  0  0
    5.2536    3.4479    1.7866 H   0  0  0  0  0  0  0  0  0  0  0  0
    1.6904   -2.2442    1.1176 H   0  0  0  0  0  0  0  0  0  0  0  0
   -0.7047   -1.0434    2.2115 H   0  0  0  0  0  0  0  0  0  0  0  0
   -2.6038   -5.4521    2.8564 H   0  0  0  0  0  0  0  0  0  0  0  0
   -2.6398   -2.8782    2.5782 H   0  0  0  0  0  0  0  0  0  0  0  0
  1  2  1  0  0  0  0
  2  3  2  0  0  0  0
  2  4  1  0  0  0  0
  4  5  1  0  0  0  0
  5  6  2  0  0  0  0
  6  7  1  0  0  0  0
  7  8  2  0  0  0  0
  8  9  1  0  0  0  0
  9 10  1  0  0  0  0
 10 11  1  0  0  0  0
 11 12  2  0  0  0  0
 12 13  1  0  0  0  0
 11 14  1  0  0  0  0
 14 15  2  0  0  0  0
 14 16  1  0  0  0  0
  6 17  1  0  0  0  0
 17 18  2  0  0  0  0
 18 19  1  0  0  0  0
 19 20  1  0  0  0  0
 20 21  1  0  0  0  0
 21 22  2  0  0  0  0
 22 23  1  0  0  0  0
 21 24  1  0  0  0  0
 24 25  2  0  0  0  0
 24 26  1  0  0  0  0
 13  9  2  0  0  0  0
 23 19  2  0  0  0  0
  1 27  1  0  0  0  0
  1 28  1  0  0  0  0
  3 29  1  0  0  0  0
  4 30  1  0  0  0  0
  7 31  1  0  0  0  0
  8 32  1  0  0  0  0
 12 33  1  0  0  0  0
 13 34  1  0  0  0  0
 17 35  1  0  0  0  0
 18 36  1  0  0  0  0
 22 37  1  0  0  0  0
 23 38  1  0  0  0  0
M  CHG  4  14   1  16  -1  24   1  26  -1
M  END
>  <SuperDrugID>
SD006022

>  <_MOLCOUNT>
1

$$$$
