alanine
  CDK     0628171801

 13 12  0  0  0  0  0  0  0  0999 V2000
   -0.0371   -0.2160    0.0153 C   0  0  1  0  0  0  0  0  0  0  0  0
    1.0158    0.7632   -0.3197 C   0  0  0  0  0  0  0  0  0  0  0  0
    1.8543    0.5424   -1.3592 O   0  0  0  0  0  0  0  0  0  0  0  0
    1.1504    1.8155    0.3447 O   0  0  0  0  0  0  0  0  0  0  0  0
   -0.9904   -0.2793   -1.0993 N   0  0  2  0  0  0  0  0  0  0  0  0
    0.5441   -1.6202    0.3036 C   0  0  0  0  0  0  0  0  0  0  0  0
   -0.5872    0.1185    0.8992 H   0  0  0  0  0  0  0  0  0  0  0  0
    2.5575    1.1899   -1.5767 H   0  0  0  0  0  0  0  0  0  0  0  0
   -1.7012   -0.9716   -0.8543 H   0  0  0  0  0  0  0  0  0  0  0  0
   -0.4850   -0.6393   -1.9097 H   0  0  0  0  0  0  0  0  0  0  0  0
   -0.2567   -2.3061    0.5869 H   0  0  0  0  0  0  0  0  0  0  0  0
    1.0453   -2.0204   -0.5817 H   0  0  0  0  0  0  0  0  0  0  0  0
    1.2650   -1.5718    1.1239 H   0  0  0  0  0  0  0  0  0  0  0  0
  1  2  1  0  0  0  0 
  2  3  1  0  0  0  0 
  2  4  2  0  0  0  0 
  1  5  1  0  0  0  0 
  1  6  1  0  0  0  0 
  1  7  1  0  0  0  0 
  3  8  1  0  0  0  0 
  5  9  1  0  0  0  0 
  5 10  1  0  0  0  0 
  6 11  1  0  0  0  0 
  6 12  1  0  0  0  0 
  6 13  1  0  0  0  0 
M  END
> <cdk:Title>
alanine

> <Conformer>
1

> <SuperDrugID>
SD003455

$$$$
