pirlindole
  CDK     0628171801

 35 38  0  0  0  0  0  0  0  0999 V2000
    1.3053   -0.9188   -0.0426 C   0  0  0  0  0  0  0  0  0  0  0  0
   -0.0513   -0.3164   -0.0633 C   0  0  0  0  0  0  0  0  0  0  0  0
   -0.4503    0.5624   -1.1035 C   0  0  0  0  0  0  0  0  0  0  0  0
   -0.9707   -0.6168    0.9762 C   0  0  0  0  0  0  0  0  0  0  0  0
   -1.7360    1.1318   -1.0623 C   0  0  0  0  0  0  0  0  0  0  0  0
   -2.2619   -0.0446    1.0009 C   0  0  0  0  0  0  0  0  0  0  0  0
   -2.3835    2.0125   -1.9246 C   0  0  0  0  0  0  0  0  0  0  0  0
   -2.6317    0.8417   -0.0267 C   0  0  0  0  0  0  0  0  0  0  0  0
   -3.6068    2.2851   -1.3271 C   0  0  0  0  0  0  0  0  0  0  0  0
   -2.0018    2.5831   -3.2320 C   0  0  1  0  0  0  0  0  0  0  0  0
   -3.7851    1.5178   -0.2342 N   0  0  0  0  0  0  0  0  0  0  0  0
   -4.6047    3.2474   -1.8369 C   0  0  1  0  0  0  0  0  0  0  0  0
   -3.2750    2.8358   -4.0942 C   0  0  2  0  0  0  0  0  0  0  0  0
   -5.0307    1.4278    0.4802 C   0  0  2  0  0  0  0  0  0  0  0  0
   -4.3922    3.6289   -3.3433 C   0  0  1  0  0  0  0  0  0  0  0  0
   -5.9511    2.6984   -1.5241 N   0  0  2  0  0  0  0  0  0  0  0  0
   -6.1237    2.3984   -0.0715 C   0  0  2  0  0  0  0  0  0  0  0  0
    1.8259   -0.6428    0.8761 H   0  0  0  0  0  0  0  0  0  0  0  0
    1.9146   -0.5908   -0.8866 H   0  0  0  0  0  0  0  0  0  0  0  0
    1.2313   -2.0049   -0.0896 H   0  0  0  0  0  0  0  0  0  0  0  0
    0.1790    0.7908   -1.8757 H   0  0  0  0  0  0  0  0  0  0  0  0
   -0.6984   -1.2579    1.7252 H   0  0  0  0  0  0  0  0  0  0  0  0
   -2.9145   -0.2671    1.7553 H   0  0  0  0  0  0  0  0  0  0  0  0
   -1.4693    3.5213   -3.0665 H   0  0  0  0  0  0  0  0  0  0  0  0
   -1.3434    1.8944   -3.7665 H   0  0  0  0  0  0  0  0  0  0  0  0
   -4.4854    4.1654   -1.2500 H   0  0  0  0  0  0  0  0  0  0  0  0
   -3.6863    1.8706   -4.4057 H   0  0  0  0  0  0  0  0  0  0  0  0
   -2.9921    3.3816   -5.0001 H   0  0  0  0  0  0  0  0  0  0  0  0
   -4.8697    1.6298    1.5432 H   0  0  0  0  0  0  0  0  0  0  0  0
   -5.3961    0.4012    0.3813 H   0  0  0  0  0  0  0  0  0  0  0  0
   -5.3317    3.5121   -3.8906 H   0  0  0  0  0  0  0  0  0  0  0  0
   -4.1291    4.6902   -3.3986 H   0  0  0  0  0  0  0  0  0  0  0  0
   -6.0354    1.8114   -2.0261 H   0  0  0  0  0  0  0  0  0  0  0  0
   -6.0884    3.3376    0.4901 H   0  0  0  0  0  0  0  0  0  0  0  0
   -7.1137    1.9605    0.0740 H   0  0  0  0  0  0  0  0  0  0  0  0
  1  2  1  0  0  0  0 
  2  3  1  0  0  0  0 
  2  4  2  0  0  0  0 
  3  5  2  0  0  0  0 
  4  6  1  0  0  0  0 
  5  7  1  0  0  0  0 
  5  8  1  0  0  0  0 
  6  8  2  0  0  0  0 
  7  9  2  0  0  0  0 
  7 10  1  0  0  0  0 
  8 11  1  0  0  0  0 
  9 11  1  0  0  0  0 
  9 12  1  0  0  0  0 
 10 13  1  0  0  0  0 
 11 14  1  0  0  0  0 
 12 15  1  0  0  0  0 
 12 16  1  0  0  0  0 
 13 15  1  0  0  0  0 
 14 17  1  0  0  0  0 
 16 17  1  0  0  0  0 
  1 18  1  0  0  0  0 
  1 19  1  0  0  0  0 
  1 20  1  0  0  0  0 
  3 21  1  0  0  0  0 
  4 22  1  0  0  0  0 
  6 23  1  0  0  0  0 
 10 24  1  0  0  0  0 
 10 25  1  0  0  0  0 
 12 26  1  0  0  0  0 
 13 27  1  0  0  0  0 
 13 28  1  0  0  0  0 
 14 29  1  0  0  0  0 
 14 30  1  0  0  0  0 
 15 31  1  0  0  0  0 
 15 32  1  0  0  0  0 
 16 33  1  0  0  0  0 
 17 34  1  0  0  0  0 
 17 35  1  0  0  0  0 
M  END
> <cdk:Title>
pirlindole

> <Conformer>
1

> <SuperDrugID>
SD001980

$$$$
