tolciclate
  CDK     0628171801

 44 47  0  0  0  0  0  0  0  0999 V2000
    0.2569    0.8488    0.8191 O   0  0  0  0  0  0  0  0  0  0  0  0
   -0.4094    0.8349   -0.3486 C   0  0  0  0  0  0  0  0  0  0  0  0
    0.4587   -0.3976    1.3516 C   0  0  0  0  0  0  0  0  0  0  0  0
   -1.7511    0.9221   -0.3858 N   0  0  0  0  0  0  0  0  0  0  0  0
    0.4773    0.8223   -1.8056 S   0  0  0  0  0  0  0  0  0  0  0  0
    1.4928   -1.2412    0.8746 C   0  0  0  0  0  0  0  0  0  0  0  0
   -0.3692   -0.8323    2.4170 C   0  0  0  0  0  0  0  0  0  0  0  0
   -2.3546    2.1692   -0.7993 C   0  0  0  0  0  0  0  0  0  0  0  0
   -2.5290   -0.1699   -0.0293 C   0  0  0  0  0  0  0  0  0  0  0  0
    1.6228   -2.5229    1.4325 C   0  0  0  0  0  0  0  0  0  0  0  0
   -0.2191   -2.1186    2.9770 C   0  0  0  0  0  0  0  0  0  0  0  0
   -3.6944   -0.0319    0.7678 C   0  0  0  0  0  0  0  0  0  0  0  0
   -2.1743   -1.4763   -0.4526 C   0  0  0  0  0  0  0  0  0  0  0  0
    0.7760   -2.9574    2.4518 C   0  0  0  0  0  0  0  0  0  0  0  0
    2.5482   -3.6426    1.1481 C   0  0  1  0  0  0  0  0  0  0  0  0
   -4.4703   -1.1482    1.1581 C   0  0  0  0  0  0  0  0  0  0  0  0
   -2.9263   -2.5968   -0.0659 C   0  0  0  0  0  0  0  0  0  0  0  0
    1.1803   -4.3434    2.7700 C   0  0  2  0  0  0  0  0  0  0  0  0
    2.7097   -4.2179    2.5749 C   0  0  2  0  0  0  0  0  0  0  0  0
    1.7582   -4.7894    0.4480 C   0  0  2  0  0  0  0  0  0  0  0  0
   -5.6818   -0.9470    1.9897 C   0  0  0  0  0  0  0  0  0  0  0  0
   -4.0635   -2.4354    0.7427 C   0  0  0  0  0  0  0  0  0  0  0  0
    0.7912   -5.2707    1.5780 C   0  0  1  0  0  0  0  0  0  0  0  0
    2.1246   -0.9359    0.1335 H   0  0  0  0  0  0  0  0  0  0  0  0
   -1.0950   -0.2115    2.7809 H   0  0  0  0  0  0  0  0  0  0  0  0
   -3.1013    1.9865   -1.5746 H   0  0  0  0  0  0  0  0  0  0  0  0
   -1.6299    2.8836   -1.2008 H   0  0  0  0  0  0  0  0  0  0  0  0
   -2.8391    2.6550    0.0480 H   0  0  0  0  0  0  0  0  0  0  0  0
   -0.8223   -2.4342    3.7369 H   0  0  0  0  0  0  0  0  0  0  0  0
   -3.9838    0.8942    1.0887 H   0  0  0  0  0  0  0  0  0  0  0  0
   -1.3562   -1.6234   -1.0491 H   0  0  0  0  0  0  0  0  0  0  0  0
    3.4836   -3.3580    0.6575 H   0  0  0  0  0  0  0  0  0  0  0  0
   -2.6423   -3.5306   -0.3743 H   0  0  0  0  0  0  0  0  0  0  0  0
    0.8694   -4.7025    3.7544 H   0  0  0  0  0  0  0  0  0  0  0  0
    3.1963   -3.5300    3.2800 H   0  0  0  0  0  0  0  0  0  0  0  0
    3.2345   -5.1808    2.6018 H   0  0  0  0  0  0  0  0  0  0  0  0
    2.4404   -5.5898    0.1421 H   0  0  0  0  0  0  0  0  0  0  0  0
    1.2182   -4.4288   -0.4330 H   0  0  0  0  0  0  0  0  0  0  0  0
   -6.3979   -0.3237    1.4512 H   0  0  0  0  0  0  0  0  0  0  0  0
   -6.1722   -1.8891    2.2430 H   0  0  0  0  0  0  0  0  0  0  0  0
   -5.4118   -0.4457    2.9203 H   0  0  0  0  0  0  0  0  0  0  0  0
   -4.5936   -3.2648    1.0200 H   0  0  0  0  0  0  0  0  0  0  0  0
    0.9755   -6.3189    1.8322 H   0  0  0  0  0  0  0  0  0  0  0  0
   -0.2605   -5.1514    1.2984 H   0  0  0  0  0  0  0  0  0  0  0  0
  1  2  1  0  0  0  0 
  1  3  1  0  0  0  0 
  2  4  1  0  0  0  0 
  2  5  2  0  0  0  0 
  3  6  2  0  0  0  0 
  3  7  1  0  0  0  0 
  4  8  1  0  0  0  0 
  4  9  1  0  0  0  0 
  6 10  1  0  0  0  0 
  7 11  2  0  0  0  0 
  9 12  2  0  0  0  0 
  9 13  1  0  0  0  0 
 10 14  2  0  0  0  0 
 10 15  1  0  0  0  0 
 11 14  1  0  0  0  0 
 12 16  1  0  0  0  0 
 13 17  2  0  0  0  0 
 14 18  1  0  0  0  0 
 15 19  1  0  0  0  0 
 15 20  1  0  0  0  0 
 16 21  1  0  0  0  0 
 16 22  2  0  0  0  0 
 17 22  1  0  0  0  0 
 18 19  1  0  0  0  0 
 18 23  1  0  0  0  0 
 20 23  1  0  0  0  0 
  6 24  1  0  0  0  0 
  7 25  1  0  0  0  0 
  8 26  1  0  0  0  0 
  8 27  1  0  0  0  0 
  8 28  1  0  0  0  0 
 11 29  1  0  0  0  0 
 12 30  1  0  0  0  0 
 13 31  1  0  0  0  0 
 15 32  1  0  0  0  0 
 17 33  1  0  0  0  0 
 18 34  1  0  0  0  0 
 19 35  1  0  0  0  0 
 19 36  1  0  0  0  0 
 20 37  1  0  0  0  0 
 20 38  1  0  0  0  0 
 21 39  1  0  0  0  0 
 21 40  1  0  0  0  0 
 21 41  1  0  0  0  0 
 22 42  1  0  0  0  0 
 23 43  1  0  0  0  0 
 23 44  1  0  0  0  0 
M  END
> <cdk:Title>
tolciclate

> <Conformer>
1

> <SuperDrugID>
SD003095

$$$$
