sumatriptan
  CDK     0628171801

 41 42  0  0  0  0  0  0  0  0999 V2000
    6.2736    1.2465   -6.8958 C   0  0  1  0  0  0  0  0  0  0  0  0
    6.0617    2.3972   -5.8773 C   0  0  2  0  0  0  0  0  0  0  0  0
    7.2820    0.2539   -6.4522 C   0  0  0  0  0  0  0  0  0  0  0  0
    5.5220    1.9204   -4.5625 N   0  0  1  0  0  0  0  0  0  0  0  0
    7.0960   -0.8916   -5.6748 C   0  0  0  0  0  0  0  0  0  0  0  0
    8.6463    0.2748   -6.7591 C   0  0  0  0  0  0  0  0  0  0  0  0
    5.9997    2.7166   -3.3966 C   0  0  0  0  0  0  0  0  0  0  0  0
    4.0424    1.7179   -4.5409 C   0  0  0  0  0  0  0  0  0  0  0  0
    8.3368   -1.5158   -5.5543 C   0  0  0  0  0  0  0  0  0  0  0  0
    5.9564   -1.4505   -5.0700 C   0  0  0  0  0  0  0  0  0  0  0  0
    9.2508   -0.7921   -6.2108 N   0  0  0  0  0  0  0  0  0  0  0  0
    8.4885   -2.7115   -4.8385 C   0  0  0  0  0  0  0  0  0  0  0  0
    6.0709   -2.6676   -4.3498 C   0  0  0  0  0  0  0  0  0  0  0  0
    7.3474   -3.2840   -4.2399 C   0  0  0  0  0  0  0  0  0  0  0  0
    4.8753   -3.2904   -3.7225 C   0  0  1  0  0  0  0  0  0  0  0  0
    3.5312   -3.6313   -4.9214 S   0  0  2  0  0  0  0  0  0  0  0  0
    4.1699   -4.0750   -6.5034 N   0  0  2  0  0  0  0  0  0  0  0  0
    2.6428   -2.3091   -5.1045 O   0  0  0  0  0  0  0  0  0  0  0  0
    2.5890   -4.8045   -4.3677 O   0  0  0  0  0  0  0  0  0  0  0  0
    4.8741   -5.3659   -6.5185 C   0  0  0  0  0  0  0  0  0  0  0  0
    5.3284    0.7413   -7.1040 H   0  0  0  0  0  0  0  0  0  0  0  0
    6.6100    1.6903   -7.8390 H   0  0  0  0  0  0  0  0  0  0  0  0
    5.3917    3.1474   -6.3099 H   0  0  0  0  0  0  0  0  0  0  0  0
    7.0316    2.8886   -5.7511 H   0  0  0  0  0  0  0  0  0  0  0  0
    9.1196    0.9886   -7.3172 H   0  0  0  0  0  0  0  0  0  0  0  0
    7.0904    2.6895   -3.3486 H   0  0  0  0  0  0  0  0  0  0  0  0
    5.6239    2.2960   -2.4613 H   0  0  0  0  0  0  0  0  0  0  0  0
    5.6750    3.7578   -3.4706 H   0  0  0  0  0  0  0  0  0  0  0  0
    3.7125    1.1146   -5.3863 H   0  0  0  0  0  0  0  0  0  0  0  0
    3.7535    1.1836   -3.6330 H   0  0  0  0  0  0  0  0  0  0  0  0
    3.5089    2.6709   -4.5766 H   0  0  0  0  0  0  0  0  0  0  0  0
    5.0530   -0.9861   -5.1654 H   0  0  0  0  0  0  0  0  0  0  0  0
   10.1945   -1.0055   -6.2781 H   0  0  0  0  0  0  0  0  0  0  0  0
    9.4041   -3.1580   -4.7552 H   0  0  0  0  0  0  0  0  0  0  0  0
    7.4578   -4.1591   -3.7235 H   0  0  0  0  0  0  0  0  0  0  0  0
    5.1321   -4.2370   -3.2444 H   0  0  0  0  0  0  0  0  0  0  0  0
    4.4858   -2.6273   -2.9486 H   0  0  0  0  0  0  0  0  0  0  0  0
    4.8472   -3.3567   -6.7675 H   0  0  0  0  0  0  0  0  0  0  0  0
    5.2137   -5.5574   -7.5361 H   0  0  0  0  0  0  0  0  0  0  0  0
    4.2048   -6.1734   -6.2193 H   0  0  0  0  0  0  0  0  0  0  0  0
    5.7437   -5.3491   -5.8613 H   0  0  0  0  0  0  0  0  0  0  0  0
  1  2  1  0  0  0  0 
  1  3  1  0  0  0  0 
  2  4  1  0  0  0  0 
  3  5  1  0  0  0  0 
  3  6  2  0  0  0  0 
  4  7  1  0  0  0  0 
  4  8  1  0  0  0  0 
  5  9  1  0  0  0  0 
  5 10  2  0  0  0  0 
  6 11  1  0  0  0  0 
  9 11  1  0  0  0  0 
  9 12  2  0  0  0  0 
 10 13  1  0  0  0  0 
 12 14  1  0  0  0  0 
 13 14  2  0  0  0  0 
 13 15  1  0  0  0  0 
 15 16  1  0  0  0  0 
 16 17  1  0  0  0  0 
 16 18  2  0  0  0  0 
 16 19  2  0  0  0  0 
 17 20  1  0  0  0  0 
  1 21  1  0  0  0  0 
  1 22  1  0  0  0  0 
  2 23  1  0  0  0  0 
  2 24  1  0  0  0  0 
  6 25  1  0  0  0  0 
  7 26  1  0  0  0  0 
  7 27  1  0  0  0  0 
  7 28  1  0  0  0  0 
  8 29  1  0  0  0  0 
  8 30  1  0  0  0  0 
  8 31  1  0  0  0  0 
 10 32  1  0  0  0  0 
 11 33  1  0  0  0  0 
 12 34  1  0  0  0  0 
 14 35  1  0  0  0  0 
 15 36  1  0  0  0  0 
 15 37  1  0  0  0  0 
 17 38  1  0  0  0  0 
 20 39  1  0  0  0  0 
 20 40  1  0  0  0  0 
 20 41  1  0  0  0  0 
M  END
> <cdk:Title>
sumatriptan

> <Conformer>
1

> <SuperDrugID>
SD002288

$$$$
