temocillin
  CDK     0628171801

 45 47  0  0  0  0  0  0  0  0999 V2000
   -1.5039    2.4971    0.0912 N   0  0  0  0  0  0  0  0  0  0  0  0
   -2.6003    3.1891   -0.3420 C   0  0  0  0  0  0  0  0  0  0  0  0
   -1.1999    2.2157    1.4663 C   0  0  1  0  0  0  0  0  0  0  0  0
   -2.7572    3.6638   -1.7476 C   0  0  1  0  0  0  0  0  0  0  0  0
   -3.4902    3.5137    0.4824 O   0  0  0  0  0  0  0  0  0  0  0  0
   -0.9379    3.3842    2.2772 O   0  0  0  0  0  0  0  0  0  0  0  0
   -2.1898    1.2336    2.1863 C   0  0  2  0  0  0  0  0  0  0  0  0
   -0.2225    1.1357    1.6470 C   0  0  0  0  0  0  0  0  0  0  0  0
   -2.1309    5.0034   -1.8746 C   0  0  0  0  0  0  0  0  0  0  0  0
   -2.2854    2.7429   -2.8293 C   0  0  0  0  0  0  0  0  0  0  0  0
    0.2220    4.1587    1.9210 C   0  0  0  0  0  0  0  0  0  0  0  0
   -1.1024    0.3411    2.2479 N   0  0  0  0  0  0  0  0  0  0  0  0
   -3.3178    0.1008    1.3092 S   0  0  0  0  0  0  0  0  0  0  0  0
    0.9474    0.9641    1.2359 O   0  0  0  0  0  0  0  0  0  0  0  0
   -0.8282    5.1997   -1.5609 O   0  0  0  0  0  0  0  0  0  0  0  0
   -2.7913    5.9973   -2.2574 O   0  0  0  0  0  0  0  0  0  0  0  0
   -3.1531    2.2228   -3.8238 C   0  0  0  0  0  0  0  0  0  0  0  0
   -0.9483    2.3436   -3.0072 C   0  0  0  0  0  0  0  0  0  0  0  0
   -1.1824   -1.0533    2.5105 C   0  0  2  0  0  0  0  0  0  0  0  0
   -2.3895   -1.4677    1.5849 C   0  0  1  0  0  0  0  0  0  0  0  0
   -2.5716    1.4230   -4.8123 C   0  0  0  0  0  0  0  0  0  0  0  0
   -0.8663    1.3228   -4.4314 S   0  0  0  0  0  0  0  0  0  0  0  0
   -1.2956   -1.2948    3.9688 C   0  0  0  0  0  0  0  0  0  0  0  0
   -0.3585   -2.0334    4.6095 O   0  0  0  0  0  0  0  0  0  0  0  0
   -2.2291   -0.8124    4.6489 O   0  0  0  0  0  0  0  0  0  0  0  0
   -2.5427    1.5438    3.1759 H   0  0  0  0  0  0  0  0  0  0  0  0
   -3.3633   -2.5354    2.1663 C   0  0  0  0  0  0  0  0  0  0  0  0
   -1.8533   -1.9324    0.1953 C   0  0  0  0  0  0  0  0  0  0  0  0
   -0.8562    2.2123   -0.5704 H   0  0  0  0  0  0  0  0  0  0  0  0
   -3.8326    3.8093   -1.9032 H   0  0  0  0  0  0  0  0  0  0  0  0
    0.2430    5.0531    2.5455 H   0  0  0  0  0  0  0  0  0  0  0  0
    0.1887    4.4706    0.8779 H   0  0  0  0  0  0  0  0  0  0  0  0
    1.1387    3.5962    2.0965 H   0  0  0  0  0  0  0  0  0  0  0  0
   -0.4354    6.0941   -1.6235 H   0  0  0  0  0  0  0  0  0  0  0  0
   -4.1540    2.4292   -3.8405 H   0  0  0  0  0  0  0  0  0  0  0  0
   -0.1475    2.6070   -2.4321 H   0  0  0  0  0  0  0  0  0  0  0  0
   -0.2590   -1.5336    2.1741 H   0  0  0  0  0  0  0  0  0  0  0  0
   -3.0418    0.9890   -5.6081 H   0  0  0  0  0  0  0  0  0  0  0  0
   -0.4183   -2.1780    5.5769 H   0  0  0  0  0  0  0  0  0  0  0  0
   -3.8540   -2.1697    3.0703 H   0  0  0  0  0  0  0  0  0  0  0  0
   -2.8258   -3.4548    2.4079 H   0  0  0  0  0  0  0  0  0  0  0  0
   -4.1466   -2.7716    1.4416 H   0  0  0  0  0  0  0  0  0  0  0  0
   -1.2048   -1.1710   -0.2476 H   0  0  0  0  0  0  0  0  0  0  0  0
   -1.2735   -2.8530    0.3002 H   0  0  0  0  0  0  0  0  0  0  0  0
   -2.6744   -2.1219   -0.4983 H   0  0  0  0  0  0  0  0  0  0  0  0
  1  2  1  0  0  0  0 
  3  1  1  0  0  0  0 
  2  4  1  0  0  0  0 
  2  5  2  0  0  0  0 
  3  6  1  0  0  0  0 
  7  3  1  0  0  0  0 
  3  8  1  0  0  0  0 
  4  9  1  0  0  0  0 
  4 10  1  0  0  0  0 
  6 11  1  0  0  0  0 
  7 12  1  0  0  0  0 
  7 13  1  0  0  0  0 
  7 26  1  0  0  0  0 
  8 12  1  0  0  0  0 
  8 14  2  0  0  0  0 
  9 15  1  0  0  0  0 
  9 16  2  0  0  0  0 
 10 17  1  0  0  0  0 
 10 18  2  0  0  0  0 
 19 12  1  0  0  0  0 
 13 20  1  0  0  0  0 
 17 21  2  0  0  0  0 
 18 22  1  0  0  0  0 
 19 20  1  0  0  0  0 
 19 23  1  0  0  0  0 
 21 22  1  0  0  0  0 
 23 24  1  0  0  0  0 
 23 25  2  0  0  0  0 
 20 27  1  0  0  0  0 
 20 28  1  0  0  0  0 
  1 29  1  0  0  0  0 
  4 30  1  0  0  0  0 
 11 31  1  0  0  0  0 
 11 32  1  0  0  0  0 
 11 33  1  0  0  0  0 
 15 34  1  0  0  0  0 
 17 35  1  0  0  0  0 
 18 36  1  0  0  0  0 
 19 37  1  0  0  0  0 
 21 38  1  0  0  0  0 
 24 39  1  0  0  0  0 
 27 40  1  0  0  0  0 
 27 41  1  0  0  0  0 
 27 42  1  0  0  0  0 
 28 43  1  0  0  0  0 
 28 44  1  0  0  0  0 
 28 45  1  0  0  0  0 
M  END
> <cdk:Title>
temocillin

> <Conformer>
1

> <SuperDrugID>
SD002326

$$$$
