amisometradine
  CDK     0628171801

 27 27  0  0  0  0  0  0  0  0999 V2000
    2.8892   -2.6301   -2.9847 C   0  0  2  0  0  0  0  0  0  0  0  0
    3.0846   -1.8808   -4.2342 C   0  0  0  0  0  0  0  0  0  0  0  0
    2.7084   -1.7606   -1.8212 N   0  0  0  0  0  0  0  0  0  0  0  0
    4.2851   -1.0584   -4.3711 C   0  0  0  0  0  0  0  0  0  0  0  0
    2.1934   -1.9622   -5.2391 C   0  0  0  0  0  0  0  0  0  0  0  0
    3.7358   -1.5345   -0.9257 C   0  0  0  0  0  0  0  0  0  0  0  0
    1.4977   -1.1415   -1.6041 C   0  0  0  0  0  0  0  0  0  0  0  0
    4.8477   -2.0964   -1.1020 O   0  0  0  0  0  0  0  0  0  0  0  0
    3.5893   -0.6991    0.1619 N   0  0  0  0  0  0  0  0  0  0  0  0
    0.4054   -1.3472   -2.3770 N   0  0  0  0  0  0  0  0  0  0  0  0
    1.3306   -0.2510   -0.5325 C   0  0  0  0  0  0  0  0  0  0  0  0
    4.6787   -0.5496    1.1090 C   0  0  0  0  0  0  0  0  0  0  0  0
    2.4027   -0.0371    0.3422 C   0  0  0  0  0  0  0  0  0  0  0  0
    2.2053    0.7676    1.2858 O   0  0  0  0  0  0  0  0  0  0  0  0
    3.7478   -3.2977   -2.8760 H   0  0  0  0  0  0  0  0  0  0  0  0
    2.0415   -3.3186   -3.0516 H   0  0  0  0  0  0  0  0  0  0  0  0
    5.1731   -1.6521   -4.1429 H   0  0  0  0  0  0  0  0  0  0  0  0
    4.4109   -0.6527   -5.3785 H   0  0  0  0  0  0  0  0  0  0  0  0
    4.2388   -0.2184   -3.6754 H   0  0  0  0  0  0  0  0  0  0  0  0
    2.3230   -1.4628   -6.0862 H   0  0  0  0  0  0  0  0  0  0  0  0
    1.3787   -2.5214   -5.1593 H   0  0  0  0  0  0  0  0  0  0  0  0
   -0.4202   -0.8731   -2.1823 H   0  0  0  0  0  0  0  0  0  0  0  0
    0.4357   -1.9789   -3.1133 H   0  0  0  0  0  0  0  0  0  0  0  0
    0.4405    0.2356   -0.3843 H   0  0  0  0  0  0  0  0  0  0  0  0
    4.8692   -1.5093    1.5942 H   0  0  0  0  0  0  0  0  0  0  0  0
    5.5886   -0.2330    0.5949 H   0  0  0  0  0  0  0  0  0  0  0  0
    4.4837    0.1795    1.8981 H   0  0  0  0  0  0  0  0  0  0  0  0
  1  2  1  0  0  0  0 
  1  3  1  0  0  0  0 
  2  4  1  0  0  0  0 
  2  5  2  0  0  0  0 
  3  6  1  0  0  0  0 
  3  7  1  0  0  0  0 
  6  8  2  0  0  0  0 
  6  9  1  0  0  0  0 
  7 10  1  0  0  0  0 
  7 11  2  0  0  0  0 
  9 12  1  0  0  0  0 
  9 13  1  0  0  0  0 
 11 13  1  0  0  0  0 
 13 14  2  0  0  0  0 
  1 15  1  0  0  0  0 
  1 16  1  0  0  0  0 
  4 17  1  0  0  0  0 
  4 18  1  0  0  0  0 
  4 19  1  0  0  0  0 
  5 20  1  0  0  0  0 
  5 21  1  0  0  0  0 
 10 22  1  0  0  0  0 
 10 23  1  0  0  0  0 
 11 24  1  0  0  0  0 
 12 25  1  0  0  0  0 
 12 26  1  0  0  0  0 
 12 27  1  0  0  0  0 
M  END
> <cdk:Title>
amisometradine

> <Conformer>
1

> <SuperDrugID>
SD003140

$$$$
