oxyphencyclimine
  CDK     0628171801

 53 55  0  0  0  0  0  0  0  0999 V2000
   -0.5367   -0.5911    1.0008 C   0  0  2  0  0  0  0  0  0  0  0  0
   -0.8662   -1.8898    1.6601 C   0  0  0  0  0  0  0  0  0  0  0  0
   -1.7892    0.0343    0.6761 O   0  0  0  0  0  0  0  0  0  0  0  0
    0.2024   -0.8448   -0.3710 C   0  0  2  0  0  0  0  0  0  0  0  0
    0.2530    0.2670    1.9650 C   0  0  0  0  0  0  0  0  0  0  0  0
   -2.1708   -2.2503    1.8368 O   0  0  0  0  0  0  0  0  0  0  0  0
    0.0436   -2.6751    2.0215 O   0  0  0  0  0  0  0  0  0  0  0  0
    0.6576    0.4649   -1.0971 C   0  0  1  0  0  0  0  0  0  0  0  0
   -0.6359   -1.7101   -1.3750 C   0  0  2  0  0  0  0  0  0  0  0  0
   -0.2846    1.4569    2.5248 C   0  0  0  0  0  0  0  0  0  0  0  0
    1.5760   -0.0866    2.3489 C   0  0  0  0  0  0  0  0  0  0  0  0
   -2.6491   -3.5000    2.3394 C   0  0  2  0  0  0  0  0  0  0  0  0
    1.4690    0.1577   -2.3853 C   0  0  2  0  0  0  0  0  0  0  0  0
    0.1696   -2.0485   -2.6556 C   0  0  2  0  0  0  0  0  0  0  0  0
    0.4535    2.2481    3.4224 C   0  0  0  0  0  0  0  0  0  0  0  0
    2.3173    0.7002    3.2485 C   0  0  0  0  0  0  0  0  0  0  0  0
   -4.0924   -3.4386    2.4880 C   0  0  0  0  0  0  0  0  0  0  0  0
    0.6876   -0.7657   -3.3562 C   0  0  2  0  0  0  0  0  0  0  0  0
    1.7548    1.8680    3.7867 C   0  0  0  0  0  0  0  0  0  0  0  0
   -4.9980   -4.2437    1.8480 N   0  0  0  0  0  0  0  0  0  0  0  0
   -4.4892   -2.5452    3.3327 N   0  0  0  0  0  0  0  0  0  0  0  0
   -4.6546   -5.0454    0.6948 C   0  0  0  0  0  0  0  0  0  0  0  0
   -6.3736   -4.3099    2.3193 C   0  0  2  0  0  0  0  0  0  0  0  0
   -5.8107   -2.2681    3.6677 C   0  0  1  0  0  0  0  0  0  0  0  0
   -6.6245   -3.5814    3.6680 C   0  0  2  0  0  0  0  0  0  0  0  0
   -1.5605    0.8907    0.2631 H   0  0  0  0  0  0  0  0  0  0  0  0
    1.1111   -1.4137   -0.1521 H   0  0  0  0  0  0  0  0  0  0  0  0
   -0.2156    1.0705   -1.3618 H   0  0  0  0  0  0  0  0  0  0  0  0
    1.2912    1.0629   -0.4378 H   0  0  0  0  0  0  0  0  0  0  0  0
   -1.5489   -1.1764   -1.6591 H   0  0  0  0  0  0  0  0  0  0  0  0
   -0.9357   -2.6522   -0.9096 H   0  0  0  0  0  0  0  0  0  0  0  0
   -1.2288    1.7685    2.2923 H   0  0  0  0  0  0  0  0  0  0  0  0
    2.0194   -0.9277    1.9788 H   0  0  0  0  0  0  0  0  0  0  0  0
   -2.1992   -3.7079    3.3119 H   0  0  0  0  0  0  0  0  0  0  0  0
   -2.3295   -4.2851    1.6566 H   0  0  0  0  0  0  0  0  0  0  0  0
    2.4156   -0.3198   -2.1132 H   0  0  0  0  0  0  0  0  0  0  0  0
    1.7067    1.0950   -2.8966 H   0  0  0  0  0  0  0  0  0  0  0  0
   -0.4656   -2.6067   -3.3498 H   0  0  0  0  0  0  0  0  0  0  0  0
    1.0147   -2.6910   -2.3876 H   0  0  0  0  0  0  0  0  0  0  0  0
    0.0409    3.1009    3.8103 H   0  0  0  0  0  0  0  0  0  0  0  0
    3.2648    0.4231    3.5117 H   0  0  0  0  0  0  0  0  0  0  0  0
    1.3378   -1.0508   -4.1869 H   0  0  0  0  0  0  0  0  0  0  0  0
   -0.1621   -0.2130   -3.7677 H   0  0  0  0  0  0  0  0  0  0  0  0
    2.2919    2.4409    4.4414 H   0  0  0  0  0  0  0  0  0  0  0  0
   -4.0225   -5.8810    0.9950 H   0  0  0  0  0  0  0  0  0  0  0  0
   -4.1264   -4.4444   -0.0463 H   0  0  0  0  0  0  0  0  0  0  0  0
   -5.5332   -5.4629    0.1970 H   0  0  0  0  0  0  0  0  0  0  0  0
   -6.6777   -5.3537    2.4399 H   0  0  0  0  0  0  0  0  0  0  0  0
   -7.0142   -3.8548    1.5575 H   0  0  0  0  0  0  0  0  0  0  0  0
   -5.8485   -1.7911    4.6516 H   0  0  0  0  0  0  0  0  0  0  0  0
   -6.2216   -1.5726    2.9295 H   0  0  0  0  0  0  0  0  0  0  0  0
   -6.2865   -4.2122    4.4953 H   0  0  0  0  0  0  0  0  0  0  0  0
   -7.6868   -3.3752    3.8066 H   0  0  0  0  0  0  0  0  0  0  0  0
  1  2  1  0  0  0  0 
  1  3  1  0  0  0  0 
  1  4  1  0  0  0  0 
  1  5  1  0  0  0  0 
  2  6  1  0  0  0  0 
  2  7  2  0  0  0  0 
  4  8  1  0  0  0  0 
  4  9  1  0  0  0  0 
  5 10  2  0  0  0  0 
  5 11  1  0  0  0  0 
  6 12  1  0  0  0  0 
  8 13  1  0  0  0  0 
  9 14  1  0  0  0  0 
 10 15  1  0  0  0  0 
 11 16  2  0  0  0  0 
 12 17  1  0  0  0  0 
 13 18  1  0  0  0  0 
 14 18  1  0  0  0  0 
 15 19  2  0  0  0  0 
 16 19  1  0  0  0  0 
 17 20  1  0  0  0  0 
 17 21  2  0  0  0  0 
 20 22  1  0  0  0  0 
 20 23  1  0  0  0  0 
 21 24  1  0  0  0  0 
 23 25  1  0  0  0  0 
 24 25  1  0  0  0  0 
 26  3  1  0  0  0  0 
 27  4  1  0  0  0  0 
 28  8  1  0  0  0  0 
 29  8  1  0  0  0  0 
 30  9  1  0  0  0  0 
 31  9  1  0  0  0  0 
 32 10  1  0  0  0  0 
 33 11  1  0  0  0  0 
 34 12  1  0  0  0  0 
 35 12  1  0  0  0  0 
 36 13  1  0  0  0  0 
 37 13  1  0  0  0  0 
 38 14  1  0  0  0  0 
 39 14  1  0  0  0  0 
 40 15  1  0  0  0  0 
 41 16  1  0  0  0  0 
 42 18  1  0  0  0  0 
 43 18  1  0  0  0  0 
 44 19  1  0  0  0  0 
 45 22  1  0  0  0  0 
 46 22  1  0  0  0  0 
 47 22  1  0  0  0  0 
 48 23  1  0  0  0  0 
 49 23  1  0  0  0  0 
 50 24  1  0  0  0  0 
 51 24  1  0  0  0  0 
 52 25  1  0  0  0  0 
 53 25  1  0  0  0  0 
M  END
> <cdk:Title>
oxyphencyclimine

> <Conformer>
1

> <SuperDrugID>
SD001813

$$$$
