hydrocortisone
  CDK     0628171801

 56 59  0  0  0  0  0  0  0  0999 V2000
   -4.8142    6.3143    0.3170 C   0  0  2  0  0  0  0  0  0  0  0  0
   -5.5375    7.5532    0.8942 C   0  0  2  0  0  0  0  0  0  0  0  0
   -5.0268    7.8752    2.2412 C   0  0  0  0  0  0  0  0  0  0  0  0
   -3.7473    7.5298    2.6395 C   0  0  0  0  0  0  0  0  0  0  0  0
   -2.8777    6.8384    1.8650 C   0  0  0  0  0  0  0  0  0  0  0  0
   -3.2414    6.3420    0.4994 C   0  0  1  0  0  0  0  0  0  0  0  0
   -1.5057    6.6297    2.3554 C   0  0  2  0  0  0  0  0  0  0  0  0
   -1.0587    5.1561    2.2381 C   0  0  2  0  0  0  0  0  0  0  0  0
   -1.2066    4.6432    0.7786 C   0  0  2  0  0  0  0  0  0  0  0  0
   -2.6950    4.8519    0.2974 C   0  0  2  0  0  0  0  0  0  0  0  0
   -0.8106    3.1330    0.6448 C   0  0  1  0  0  0  0  0  0  0  0  0
   -0.9058    2.6017   -0.8210 C   0  0  1  0  0  0  0  0  0  0  0  0
   -2.4124    2.7376   -1.2477 C   0  0  2  0  0  0  0  0  0  0  0  0
   -2.9841    4.1841   -1.1049 C   0  0  2  0  0  0  0  0  0  0  0  0
   -5.7601    8.5232    3.0250 O   0  0  0  0  0  0  0  0  0  0  0  0
   -2.5401    4.9681   -2.2080 O   0  0  0  0  0  0  0  0  0  0  0  0
    0.0256    3.3746   -1.8399 C   0  0  0  0  0  0  0  0  0  0  0  0
   -2.6342    7.3709   -0.5241 C   0  0  0  0  0  0  0  0  0  0  0  0
    0.5677    2.6446    1.1417 C   0  0  1  0  0  0  0  0  0  0  0  0
    0.8032    1.3056    0.3939 C   0  0  2  0  0  0  0  0  0  0  0  0
   -0.3771    1.1276   -0.6226 C   0  0  1  0  0  0  0  0  0  0  0  0
   -1.3552    0.3202    0.0532 O   0  0  0  0  0  0  0  0  0  0  0  0
   -0.0892    0.3875   -1.8948 C   0  0  0  0  0  0  0  0  0  0  0  0
   -1.0558    0.1361   -2.6537 O   0  0  0  0  0  0  0  0  0  0  0  0
    1.2520   -0.0307   -2.3604 C   0  0  1  0  0  0  0  0  0  0  0  0
    1.8010   -1.0111   -1.4883 O   0  0  0  0  0  0  0  0  0  0  0  0
   -5.0870    6.2191   -0.7372 H   0  0  0  0  0  0  0  0  0  0  0  0
   -5.2343    5.4435    0.8308 H   0  0  0  0  0  0  0  0  0  0  0  0
   -6.6115    7.3497    0.9385 H   0  0  0  0  0  0  0  0  0  0  0  0
   -5.3862    8.4158    0.2430 H   0  0  0  0  0  0  0  0  0  0  0  0
   -3.4630    7.8386    3.5417 H   0  0  0  0  0  0  0  0  0  0  0  0
   -1.3791    6.9273    3.4007 H   0  0  0  0  0  0  0  0  0  0  0  0
   -0.8261    7.2576    1.7722 H   0  0  0  0  0  0  0  0  0  0  0  0
   -1.6561    4.5436    2.9190 H   0  0  0  0  0  0  0  0  0  0  0  0
   -0.0157    5.0857    2.5553 H   0  0  0  0  0  0  0  0  0  0  0  0
   -0.5347    5.2468    0.1696 H   0  0  0  0  0  0  0  0  0  0  0  0
   -3.2788    4.2398    0.9967 H   0  0  0  0  0  0  0  0  0  0  0  0
   -1.5360    2.5904    1.2681 H   0  0  0  0  0  0  0  0  0  0  0  0
   -3.0360    2.0862   -0.6296 H   0  0  0  0  0  0  0  0  0  0  0  0
   -2.5401    2.3979   -2.2779 H   0  0  0  0  0  0  0  0  0  0  0  0
   -4.0663    4.1012   -1.2310 H   0  0  0  0  0  0  0  0  0  0  0  0
   -2.8982    4.5222   -3.0050 H   0  0  0  0  0  0  0  0  0  0  0  0
   -0.1747    4.4417   -1.8773 H   0  0  0  0  0  0  0  0  0  0  0  0
    1.0806    3.2697   -1.5864 H   0  0  0  0  0  0  0  0  0  0  0  0
   -0.1103    2.9913   -2.8524 H   0  0  0  0  0  0  0  0  0  0  0  0
   -1.5563    7.2427   -0.6232 H   0  0  0  0  0  0  0  0  0  0  0  0
   -2.8179    8.4017   -0.2105 H   0  0  0  0  0  0  0  0  0  0  0  0
   -3.0716    7.2713   -1.5179 H   0  0  0  0  0  0  0  0  0  0  0  0
    1.3461    3.3702    0.8925 H   0  0  0  0  0  0  0  0  0  0  0  0
    0.5665    2.4966    2.2249 H   0  0  0  0  0  0  0  0  0  0  0  0
    0.8526    0.4675    1.0952 H   0  0  0  0  0  0  0  0  0  0  0  0
    1.7731    1.3611   -0.1006 H   0  0  0  0  0  0  0  0  0  0  0  0
   -2.0987    0.2143   -0.5773 H   0  0  0  0  0  0  0  0  0  0  0  0
    1.2026   -0.4621   -3.3636 H   0  0  0  0  0  0  0  0  0  0  0  0
    1.9173    0.8323   -2.4055 H   0  0  0  0  0  0  0  0  0  0  0  0
    2.6881   -1.2047   -1.8593 H   0  0  0  0  0  0  0  0  0  0  0  0
  1  2  1  0  0  0  0 
  2  3  1  0  0  0  0 
  3  4  1  0  0  0  0 
  4  5  2  0  0  0  0 
  6  5  1  0  0  0  0 
  6  1  1  0  0  0  0 
  5  7  1  0  0  0  0 
  7  8  1  0  0  0  0 
  9  8  1  0  0  0  0 
 10  9  1  0  0  0  0 
 10  6  1  0  0  0  0 
  9 11  1  0  0  0  0 
 11 12  1  0  0  0  0 
 12 13  1  0  0  0  0 
 14 13  1  0  0  0  0 
 10 14  1  0  0  0  0 
  3 15  2  0  0  0  0 
 14 16  1  0  0  0  0 
 12 17  1  0  0  0  0 
  6 18  1  0  0  0  0 
 11 19  1  0  0  0  0 
 19 20  1  0  0  0  0 
 21 20  1  0  0  0  0 
 12 21  1  0  0  0  0 
 21 22  1  0  0  0  0 
 21 23  1  0  0  0  0 
 23 24  2  0  0  0  0 
 23 25  1  0  0  0  0 
 25 26  1  0  0  0  0 
 27  1  1  0  0  0  0 
 28  1  1  0  0  0  0 
 29  2  1  0  0  0  0 
 30  2  1  0  0  0  0 
 31  4  1  0  0  0  0 
 32  7  1  0  0  0  0 
 33  7  1  0  0  0  0 
 34  8  1  0  0  0  0 
 35  8  1  0  0  0  0 
  9 36  1  0  0  0  0 
 10 37  1  0  0  0  0 
 11 38  1  0  0  0  0 
 39 13  1  0  0  0  0 
 40 13  1  0  0  0  0 
 14 41  1  0  0  0  0 
 42 16  1  0  0  0  0 
 43 17  1  0  0  0  0 
 44 17  1  0  0  0  0 
 45 17  1  0  0  0  0 
 46 18  1  0  0  0  0 
 47 18  1  0  0  0  0 
 48 18  1  0  0  0  0 
 49 19  1  0  0  0  0 
 50 19  1  0  0  0  0 
 51 20  1  0  0  0  0 
 52 20  1  0  0  0  0 
 53 22  1  0  0  0  0 
 54 25  1  0  0  0  0 
 55 25  1  0  0  0  0 
 56 26  1  0  0  0  0 
M  END
> <cdk:Title>
hydrocortisone

> <Conformer>
1

> <SuperDrugID>
SD001234

$$$$
