oxendolone
  CDK     0628171801

 52 55  0  0  0  0  0  0  0  0999 V2000
   -5.5171   -0.7737    5.5149 C   0  0  0  0  0  0  0  0  0  0  0  0
   -4.1455   -0.0178    5.6955 C   0  0  2  0  0  0  0  0  0  0  0  0
   -2.8715   -0.8639    5.3696 C   0  0  2  0  0  0  0  0  0  0  0  0
   -3.9031    0.2744    7.2220 C   0  0  1  0  0  0  0  0  0  0  0  0
   -4.1186    1.2336    4.7460 C   0  0  2  0  0  0  0  0  0  0  0  0
   -2.8382   -1.3792    3.8940 C   0  0  1  0  0  0  0  0  0  0  0  0
   -2.7659   -1.8442    6.5564 C   0  0  1  0  0  0  0  0  0  0  0  0
   -5.0986    0.5067    7.9768 O   0  0  0  0  0  0  0  0  0  0  0  0
   -3.0370   -0.9151    7.7752 C   0  0  2  0  0  0  0  0  0  0  0  0
   -3.9682    0.8623    3.2314 C   0  0  2  0  0  0  0  0  0  0  0  0
   -2.7905   -0.1336    2.9253 C   0  0  2  0  0  0  0  0  0  0  0  0
   -1.6406   -2.3314    3.6132 C   0  0  1  0  0  0  0  0  0  0  0  0
   -3.5937   -1.6499    9.0333 C   0  0  1  0  0  0  0  0  0  0  0  0
   -2.6709   -0.5638    1.4073 C   0  0  2  0  0  0  0  0  0  0  0  0
   -1.6002   -2.7338    2.1199 C   0  0  2  0  0  0  0  0  0  0  0  0
   -2.6280   -2.7054    9.6212 C   0  0  0  0  0  0  0  0  0  0  0  0
   -1.5749   -1.5571    1.2496 C   0  0  0  0  0  0  0  0  0  0  0  0
   -2.5352    0.6840    0.4528 C   0  0  1  0  0  0  0  0  0  0  0  0
   -0.5813   -1.4080    0.3461 C   0  0  0  0  0  0  0  0  0  0  0  0
   -1.8164    0.3470   -0.8763 C   0  0  1  0  0  0  0  0  0  0  0  0
   -0.5647   -0.3774   -0.5708 C   0  0  0  0  0  0  0  0  0  0  0  0
    0.5042   -0.0712   -1.1484 O   0  0  0  0  0  0  0  0  0  0  0  0
   -5.5908   -1.6399    6.1730 H   0  0  0  0  0  0  0  0  0  0  0  0
   -6.3487   -0.1103    5.7618 H   0  0  0  0  0  0  0  0  0  0  0  0
   -5.6753   -1.1127    4.4923 H   0  0  0  0  0  0  0  0  0  0  0  0
   -1.9828   -0.2210    5.4665 H   0  0  0  0  0  0  0  0  0  0  0  0
   -3.3164    1.1940    7.3189 H   0  0  0  0  0  0  0  0  0  0  0  0
   -3.2820    1.8842    5.0203 H   0  0  0  0  0  0  0  0  0  0  0  0
   -5.0330    1.8211    4.8769 H   0  0  0  0  0  0  0  0  0  0  0  0
   -3.7426   -1.9564    3.6901 H   0  0  0  0  0  0  0  0  0  0  0  0
   -3.5063   -2.6442    6.4739 H   0  0  0  0  0  0  0  0  0  0  0  0
   -1.7711   -2.2949    6.6215 H   0  0  0  0  0  0  0  0  0  0  0  0
   -5.5127    1.2988    7.5749 H   0  0  0  0  0  0  0  0  0  0  0  0
   -2.0707   -0.4907    8.0719 H   0  0  0  0  0  0  0  0  0  0  0  0
   -3.8001    1.7977    2.6901 H   0  0  0  0  0  0  0  0  0  0  0  0
   -4.9078    0.4418    2.8638 H   0  0  0  0  0  0  0  0  0  0  0  0
   -1.8700    0.4175    3.1545 H   0  0  0  0  0  0  0  0  0  0  0  0
   -0.6972   -1.8518    3.8894 H   0  0  0  0  0  0  0  0  0  0  0  0
   -1.7454   -3.2416    4.2088 H   0  0  0  0  0  0  0  0  0  0  0  0
   -3.7861   -0.9069    9.8124 H   0  0  0  0  0  0  0  0  0  0  0  0
   -4.5435   -2.1317    8.7886 H   0  0  0  0  0  0  0  0  0  0  0  0
   -3.5955   -1.0766    1.1224 H   0  0  0  0  0  0  0  0  0  0  0  0
   -2.4934   -3.3152    1.8780 H   0  0  0  0  0  0  0  0  0  0  0  0
   -0.7410   -3.3944    1.9697 H   0  0  0  0  0  0  0  0  0  0  0  0
   -3.0403   -3.1093   10.5472 H   0  0  0  0  0  0  0  0  0  0  0  0
   -1.6577   -2.2580    9.8433 H   0  0  0  0  0  0  0  0  0  0  0  0
   -2.4855   -3.5285    8.9207 H   0  0  0  0  0  0  0  0  0  0  0  0
   -3.5285    1.0827    0.2209 H   0  0  0  0  0  0  0  0  0  0  0  0
   -1.9689    1.4805    0.9447 H   0  0  0  0  0  0  0  0  0  0  0  0
    0.1727   -2.0564    0.3189 H   0  0  0  0  0  0  0  0  0  0  0  0
   -2.4603   -0.2993   -1.4820 H   0  0  0  0  0  0  0  0  0  0  0  0
   -1.6137    1.2581   -1.4444 H   0  0  0  0  0  0  0  0  0  0  0  0
  2  1  1  0  0  0  0 
  2  3  1  0  0  0  0 
  2  4  1  0  0  0  0 
  2  5  1  0  0  0  0 
  3  6  1  0  0  0  0 
  3  7  1  0  0  0  0 
  4  8  1  0  0  0  0 
  4  9  1  0  0  0  0 
  5 10  1  0  0  0  0 
  6 11  1  0  0  0  0 
  6 12  1  0  0  0  0 
  9  7  1  0  0  0  0 
  9 13  1  0  0  0  0 
 11 10  1  0  0  0  0 
 11 14  1  0  0  0  0 
 12 15  1  0  0  0  0 
 13 16  1  0  0  0  0 
 14 17  1  0  0  0  0 
 14 18  1  0  0  0  0 
 15 17  1  0  0  0  0 
 17 19  2  0  0  0  0 
 18 20  1  0  0  0  0 
 19 21  1  0  0  0  0 
 20 21  1  0  0  0  0 
 21 22  2  0  0  0  0 
 23  1  1  0  0  0  0 
 24  1  1  0  0  0  0 
 25  1  1  0  0  0  0 
  3 26  1  0  0  0  0 
  4 27  1  0  0  0  0 
 28  5  1  0  0  0  0 
 29  5  1  0  0  0  0 
  6 30  1  0  0  0  0 
 31  7  1  0  0  0  0 
 32  7  1  0  0  0  0 
 33  8  1  0  0  0  0 
  9 34  1  0  0  0  0 
 35 10  1  0  0  0  0 
 36 10  1  0  0  0  0 
 11 37  1  0  0  0  0 
 38 12  1  0  0  0  0 
 39 12  1  0  0  0  0 
 40 13  1  0  0  0  0 
 41 13  1  0  0  0  0 
 14 42  1  0  0  0  0 
 43 15  1  0  0  0  0 
 44 15  1  0  0  0  0 
 45 16  1  0  0  0  0 
 46 16  1  0  0  0  0 
 47 16  1  0  0  0  0 
 48 18  1  0  0  0  0 
 49 18  1  0  0  0  0 
 50 19  1  0  0  0  0 
 51 20  1  0  0  0  0 
 52 20  1  0  0  0  0 
M  END
> <cdk:Title>
oxendolone

> <Conformer>
1

> <SuperDrugID>
SD002932

$$$$
