cefmenoxime
  CDK     0628171802

 50 53  0  0  0  0  0  0  0  0999 V2000
    2.1683   -8.2178    1.0225 N   0  0  0  0  0  0  0  0  0  0  0  0
    1.5532   -8.0835    2.3098 C   0  0  1  0  0  0  0  0  0  0  0  0
    1.9128   -6.7451    3.0362 C   0  0  2  0  0  0  0  0  0  0  0  0
    0.5901   -6.3113    2.7557 N   0  0  0  0  0  0  0  0  0  0  0  0
    0.2147   -7.4960    2.2522 C   0  0  0  0  0  0  0  0  0  0  0  0
   -0.8660   -7.9233    1.7871 O   0  0  0  0  0  0  0  0  0  0  0  0
    2.0852   -6.8533    4.1128 H   0  0  0  0  0  0  0  0  0  0  0  0
    1.6138   -8.9686    2.9490 H   0  0  0  0  0  0  0  0  0  0  0  0
    3.0514   -5.5596    2.2518 S   0  0  0  0  0  0  0  0  0  0  0  0
    2.2487   -3.9897    2.7267 C   0  0  1  0  0  0  0  0  0  0  0  0
    0.7725   -3.9645    2.6361 C   0  0  0  0  0  0  0  0  0  0  0  0
    0.0133   -5.0931    2.7468 C   0  0  0  0  0  0  0  0  0  0  0  0
    0.1819   -2.6397    2.3931 C   0  0  2  0  0  0  0  0  0  0  0  0
   -1.3744   -5.0952    2.7870 C   0  0  0  0  0  0  0  0  0  0  0  0
    0.0495   -2.4317    0.5840 S   0  0  0  0  0  0  0  0  0  0  0  0
    1.7434   -8.9893   -0.0142 C   0  0  0  0  0  0  0  0  0  0  0  0
    2.3187   -8.8575   -1.2807 C   0  0  0  0  0  0  0  0  0  0  0  0
    0.8162   -9.8169    0.1555 O   0  0  0  0  0  0  0  0  0  0  0  0
    2.6296   -9.9011   -1.9707 N   0  0  0  0  0  0  0  0  0  0  0  0
    0.0800    0.2561   -0.1284 N   0  0  0  0  0  0  0  0  0  0  0  0
   -0.5642   -0.8072    0.3753 C   0  0  0  0  0  0  0  0  0  0  0  0
   -1.8042   -0.4190    0.6863 N   0  0  0  0  0  0  0  0  0  0  0  0
   -1.8857    0.8312    0.3672 N   0  0  0  0  0  0  0  0  0  0  0  0
   -0.7582    1.2403   -0.1227 N   0  0  0  0  0  0  0  0  0  0  0  0
    1.4242    0.3216   -0.5972 C   0  0  0  0  0  0  0  0  0  0  0  0
    2.5696   -7.6005   -1.8546 C   0  0  0  0  0  0  0  0  0  0  0  0
    2.5344   -6.4362   -1.1312 N   0  0  0  0  0  0  0  0  0  0  0  0
    2.7944   -5.2720   -1.7654 C   0  0  0  0  0  0  0  0  0  0  0  0
    3.0939   -5.6757   -3.4432 S   0  0  0  0  0  0  0  0  0  0  0  0
    2.8760   -7.4002   -3.2179 C   0  0  0  0  0  0  0  0  0  0  0  0
    2.8347   -4.0443   -1.2265 N   0  0  0  0  0  0  0  0  0  0  0  0
    2.4898  -11.1260   -1.6218 O   0  0  0  0  0  0  0  0  0  0  0  0
    3.6148  -11.8941   -2.0684 C   0  0  0  0  0  0  0  0  0  0  0  0
   -2.0710   -4.5851    1.8806 O   0  0  0  0  0  0  0  0  0  0  0  0
   -1.9968   -5.7193    3.8149 O   0  0  0  0  0  0  0  0  0  0  0  0
    2.9501   -7.6683    0.8573 H   0  0  0  0  0  0  0  0  0  0  0  0
    2.5235   -3.7790    3.7626 H   0  0  0  0  0  0  0  0  0  0  0  0
    2.7067   -3.2189    2.0989 H   0  0  0  0  0  0  0  0  0  0  0  0
    0.8117   -1.8355    2.7815 H   0  0  0  0  0  0  0  0  0  0  0  0
   -0.8026   -2.5134    2.8513 H   0  0  0  0  0  0  0  0  0  0  0  0
    1.6572    1.3186   -0.9786 H   0  0  0  0  0  0  0  0  0  0  0  0
    1.5688   -0.4020   -1.4026 H   0  0  0  0  0  0  0  0  0  0  0  0
    2.1134    0.0961    0.2188 H   0  0  0  0  0  0  0  0  0  0  0  0
    2.9566   -8.1073   -3.9514 H   0  0  0  0  0  0  0  0  0  0  0  0
    3.0209   -3.2754   -1.7902 H   0  0  0  0  0  0  0  0  0  0  0  0
    2.6859   -3.9220   -0.2767 H   0  0  0  0  0  0  0  0  0  0  0  0
    3.5053  -12.9108   -1.6904 H   0  0  0  0  0  0  0  0  0  0  0  0
    3.6600  -11.9336   -3.1613 H   0  0  0  0  0  0  0  0  0  0  0  0
    4.5520  -11.4870   -1.6749 H   0  0  0  0  0  0  0  0  0  0  0  0
   -2.9742   -5.7542    3.8611 H   0  0  0  0  0  0  0  0  0  0  0  0
  2  1  1  0  0  0  0 
  2  3  1  0  0  0  0 
  3  4  1  0  0  0  0 
  4  5  1  0  0  0  0 
  2  5  1  0  0  0  0 
  5  6  2  0  0  0  0 
  3  7  1  0  0  0  0 
  2  8  1  0  0  0  0 
  3  9  1  0  0  0  0 
  9 10  1  0  0  0  0 
 10 11  1  0  0  0  0 
 11 12  2  0  0  0  0 
  4 12  1  0  0  0  0 
 11 13  1  0  0  0  0 
 12 14  1  0  0  0  0 
 13 15  1  0  0  0  0 
  1 16  1  0  0  0  0 
 16 17  1  0  0  0  0 
 16 18  2  0  0  0  0 
 17 19  2  0  0  0  0 
 20 21  1  0  0  0  0 
 21 22  2  0  0  0  0 
 22 23  1  0  0  0  0 
 23 24  2  0  0  0  0 
 20 24  1  0  0  0  0 
 15 21  1  0  0  0  0 
 20 25  1  0  0  0  0 
 17 26  1  0  0  0  0 
 26 27  1  0  0  0  0 
 27 28  2  0  0  0  0 
 28 29  1  0  0  0  0 
 29 30  1  0  0  0  0 
 26 30  2  0  0  0  0 
 28 31  1  0  0  0  0 
 19 32  1  0  0  0  0 
 32 33  1  0  0  0  0 
 14 34  2  0  0  0  0 
 14 35  1  0  0  0  0 
  1 36  1  0  0  0  0 
 10 37  1  0  0  0  0 
 10 38  1  0  0  0  0 
 13 39  1  0  0  0  0 
 13 40  1  0  0  0  0 
 25 41  1  0  0  0  0 
 25 42  1  0  0  0  0 
 25 43  1  0  0  0  0 
 30 44  1  0  0  0  0 
 31 45  1  0  0  0  0 
 31 46  1  0  0  0  0 
 33 47  1  0  0  0  0 
 33 48  1  0  0  0  0 
 33 49  1  0  0  0  0 
 35 50  1  0  0  0  0 
M  END
> <cdk:Title>
cefmenoxime

> <Conformer>
1

> <SuperDrugID>
SD000466

$$$$
