aceclofenac
  CDK     0628171801

 36 37  0  0  0  0  0  0  0  0999 V2000
   -3.9886   -0.2796    1.2719 N   0  0  0  0  0  0  0  0  0  0  0  0
   -5.1711   -0.7230    0.7315 C   0  0  0  0  0  0  0  0  0  0  0  0
   -2.7495   -0.2499    0.7002 C   0  0  0  0  0  0  0  0  0  0  0  0
   -6.3269   -0.8155    1.5637 C   0  0  0  0  0  0  0  0  0  0  0  0
   -5.2821   -1.0668   -0.6398 C   0  0  0  0  0  0  0  0  0  0  0  0
   -2.0896    1.0005    0.5936 C   0  0  0  0  0  0  0  0  0  0  0  0
   -2.0822   -1.4223    0.2567 C   0  0  0  0  0  0  0  0  0  0  0  0
   -6.3083   -0.4141    3.0043 C   0  0  1  0  0  0  0  0  0  0  0  0
   -7.5328   -1.3149    1.0092 C   0  0  0  0  0  0  0  0  0  0  0  0
   -6.4868   -1.5557   -1.1684 C   0  0  0  0  0  0  0  0  0  0  0  0
   -2.8025    2.4444    1.1326 Cl  0  0  0  0  0  0  0  0  0  0  0  0
   -0.8056    1.0771    0.0193 C   0  0  0  0  0  0  0  0  0  0  0  0
   -2.7430   -2.9729    0.4466 Cl  0  0  0  0  0  0  0  0  0  0  0  0
   -0.8028   -1.3277   -0.3255 C   0  0  0  0  0  0  0  0  0  0  0  0
   -6.0568    1.0309    3.1801 C   0  0  0  0  0  0  0  0  0  0  0  0
   -7.6106   -1.6907   -0.3415 C   0  0  0  0  0  0  0  0  0  0  0  0
   -0.1660   -0.0826   -0.4455 C   0  0  0  0  0  0  0  0  0  0  0  0
   -6.9521    1.9323    2.6780 O   0  0  0  0  0  0  0  0  0  0  0  0
   -5.0333    1.4124    3.7956 O   0  0  0  0  0  0  0  0  0  0  0  0
   -6.8294    3.3596    2.7159 C   0  0  2  0  0  0  0  0  0  0  0  0
   -8.0146    3.9685    2.0993 C   0  0  0  0  0  0  0  0  0  0  0  0
   -7.8943    4.7279    0.9844 O   0  0  0  0  0  0  0  0  0  0  0  0
   -9.1476    3.7889    2.5998 O   0  0  0  0  0  0  0  0  0  0  0  0
   -4.0390    0.1108    2.1563 H   0  0  0  0  0  0  0  0  0  0  0  0
   -4.4855   -0.9681   -1.2720 H   0  0  0  0  0  0  0  0  0  0  0  0
   -7.2573   -0.6357    3.4997 H   0  0  0  0  0  0  0  0  0  0  0  0
   -5.5462   -1.0021    3.5219 H   0  0  0  0  0  0  0  0  0  0  0  0
   -8.3723   -1.4104    1.5856 H   0  0  0  0  0  0  0  0  0  0  0  0
   -6.5436   -1.8098   -2.1565 H   0  0  0  0  0  0  0  0  0  0  0  0
   -0.3270    1.9762   -0.0646 H   0  0  0  0  0  0  0  0  0  0  0  0
   -0.3194   -2.1650   -0.6568 H   0  0  0  0  0  0  0  0  0  0  0  0
   -8.4874   -2.0536   -0.7234 H   0  0  0  0  0  0  0  0  0  0  0  0
    0.7650   -0.0217   -0.8641 H   0  0  0  0  0  0  0  0  0  0  0  0
   -5.9316    3.6580    2.1690 H   0  0  0  0  0  0  0  0  0  0  0  0
   -6.7455    3.7081    3.7481 H   0  0  0  0  0  0  0  0  0  0  0  0
   -8.6879    5.1260    0.5676 H   0  0  0  0  0  0  0  0  0  0  0  0
  1  2  1  0  0  0  0 
  1  3  1  0  0  0  0 
  2  4  2  0  0  0  0 
  2  5  1  0  0  0  0 
  3  6  2  0  0  0  0 
  3  7  1  0  0  0  0 
  4  8  1  0  0  0  0 
  4  9  1  0  0  0  0 
  5 10  2  0  0  0  0 
  6 11  1  0  0  0  0 
  6 12  1  0  0  0  0 
  7 13  1  0  0  0  0 
  7 14  2  0  0  0  0 
  8 15  1  0  0  0  0 
  9 16  2  0  0  0  0 
 10 16  1  0  0  0  0 
 12 17  2  0  0  0  0 
 14 17  1  0  0  0  0 
 15 18  1  0  0  0  0 
 15 19  2  0  0  0  0 
 18 20  1  0  0  0  0 
 20 21  1  0  0  0  0 
 21 22  1  0  0  0  0 
 21 23  2  0  0  0  0 
  1 24  1  0  0  0  0 
  5 25  1  0  0  0  0 
  8 26  1  0  0  0  0 
  8 27  1  0  0  0  0 
  9 28  1  0  0  0  0 
 10 29  1  0  0  0  0 
 12 30  1  0  0  0  0 
 14 31  1  0  0  0  0 
 16 32  1  0  0  0  0 
 17 33  1  0  0  0  0 
 20 34  1  0  0  0  0 
 20 35  1  0  0  0  0 
 22 36  1  0  0  0  0 
M  END
> <cdk:Title>
aceclofenac

> <Conformer>
1

> <SuperDrugID>
SD000020

$$$$
