bicalutamide
  CDK     0628171801

 43 44  0  0  0  0  0  0  0  0999 V2000
    3.4215   -4.1700   -3.0190 C   0  0  2  0  0  0  0  0  0  0  0  0
    4.7130   -4.6358   -2.9660 F   0  0  0  0  0  0  0  0  0  0  0  0
    2.6377   -5.0934   -3.6709 F   0  0  0  0  0  0  0  0  0  0  0  0
    3.4374   -3.0550   -3.8243 F   0  0  0  0  0  0  0  0  0  0  0  0
    2.9103   -3.9477   -1.6283 C   0  0  0  0  0  0  0  0  0  0  0  0
    2.7437   -5.0332   -0.7168 C   0  0  0  0  0  0  0  0  0  0  0  0
    2.5875   -2.6383   -1.1792 C   0  0  0  0  0  0  0  0  0  0  0  0
    3.0629   -6.2686   -1.0192 C   0  0  0  0  0  0  0  0  0  0  0  0
    2.2247   -4.7984    0.5732 C   0  0  0  0  0  0  0  0  0  0  0  0
    2.0704   -2.3984    0.1155 C   0  0  0  0  0  0  0  0  0  0  0  0
    3.3494   -7.3498   -1.2830 N   0  0  0  0  0  0  0  0  0  0  0  0
    1.8927   -3.4968    0.9781 C   0  0  0  0  0  0  0  0  0  0  0  0
    1.7656   -1.1696    0.6364 N   0  0  0  0  0  0  0  0  0  0  0  0
    1.4211   -0.0031    0.0091 C   0  0  0  0  0  0  0  0  0  0  0  0
    1.2658    1.2371    0.8322 C   0  0  2  0  0  0  0  0  0  0  0  0
    1.2534    0.0466   -1.2329 O   0  0  0  0  0  0  0  0  0  0  0  0
    0.3478    2.3384    0.1919 C   0  0  2  0  0  0  0  0  0  0  0  0
    2.6814    1.8141    1.1324 C   0  0  0  0  0  0  0  0  0  0  0  0
    0.6984    0.8843    2.0969 O   0  0  0  0  0  0  0  0  0  0  0  0
   -1.4464    1.9249    0.1270 S   0  0  2  0  0  0  0  0  0  0  0  0
   -1.9868    1.7938    1.6343 O   0  0  0  0  0  0  0  0  0  0  0  0
   -1.6416    0.5022   -0.5902 O   0  0  0  0  0  0  0  0  0  0  0  0
   -2.4319    3.1552   -0.6990 C   0  0  0  0  0  0  0  0  0  0  0  0
   -1.9940    4.4894   -0.8528 C   0  0  0  0  0  0  0  0  0  0  0  0
   -3.7160    2.8002   -1.1698 C   0  0  0  0  0  0  0  0  0  0  0  0
   -2.8261    5.4483   -1.4624 C   0  0  0  0  0  0  0  0  0  0  0  0
   -4.5494    3.7571   -1.7780 C   0  0  0  0  0  0  0  0  0  0  0  0
   -4.1077    5.0858   -1.9199 C   0  0  0  0  0  0  0  0  0  0  0  0
   -4.8877    5.9777   -2.4697 F   0  0  0  0  0  0  0  0  0  0  0  0
    2.7562   -1.8422   -1.7955 H   0  0  0  0  0  0  0  0  0  0  0  0
    2.0816   -5.5682    1.2362 H   0  0  0  0  0  0  0  0  0  0  0  0
    1.5189   -3.3583    1.9208 H   0  0  0  0  0  0  0  0  0  0  0  0
    1.7846   -1.1226    1.6059 H   0  0  0  0  0  0  0  0  0  0  0  0
    0.6845    2.5688   -0.8223 H   0  0  0  0  0  0  0  0  0  0  0  0
    0.4268    3.2551    0.7823 H   0  0  0  0  0  0  0  0  0  0  0  0
    2.6094    2.6679    1.8106 H   0  0  0  0  0  0  0  0  0  0  0  0
    3.3165    1.0645    1.6110 H   0  0  0  0  0  0  0  0  0  0  0  0
    3.1668    2.1461    0.2122 H   0  0  0  0  0  0  0  0  0  0  0  0
    0.6610    1.7253    2.5989 H   0  0  0  0  0  0  0  0  0  0  0  0
   -1.0756    4.7780   -0.5139 H   0  0  0  0  0  0  0  0  0  0  0  0
   -4.0611    1.8438   -1.0631 H   0  0  0  0  0  0  0  0  0  0  0  0
   -2.4995    6.4115   -1.5668 H   0  0  0  0  0  0  0  0  0  0  0  0
   -5.4783    3.4854   -2.1107 H   0  0  0  0  0  0  0  0  0  0  0  0
  1  2  1  0  0  0  0 
  1  3  1  0  0  0  0 
  1  4  1  0  0  0  0 
  1  5  1  0  0  0  0 
  5  6  2  0  0  0  0 
  5  7  1  0  0  0  0 
  6  8  1  0  0  0  0 
  6  9  1  0  0  0  0 
  7 10  2  0  0  0  0 
  8 11  3  0  0  0  0 
  9 12  2  0  0  0  0 
 10 12  1  0  0  0  0 
 10 13  1  0  0  0  0 
 13 14  1  0  0  0  0 
 15 14  1  0  0  0  0 
 14 16  2  0  0  0  0 
 15 17  1  0  0  0  0 
 15 18  1  0  0  0  0 
 15 19  1  0  0  0  0 
 17 20  1  0  0  0  0 
 20 21  2  0  0  0  0 
 20 22  2  0  0  0  0 
 20 23  1  0  0  0  0 
 23 24  2  0  0  0  0 
 23 25  1  0  0  0  0 
 24 26  1  0  0  0  0 
 25 27  2  0  0  0  0 
 26 28  2  0  0  0  0 
 27 28  1  0  0  0  0 
 28 29  1  0  0  0  0 
  7 30  1  0  0  0  0 
  9 31  1  0  0  0  0 
 12 32  1  0  0  0  0 
 13 33  1  0  0  0  0 
 17 34  1  0  0  0  0 
 17 35  1  0  0  0  0 
 18 36  1  0  0  0  0 
 18 37  1  0  0  0  0 
 18 38  1  0  0  0  0 
 19 39  1  0  0  0  0 
 24 40  1  0  0  0  0 
 25 41  1  0  0  0  0 
 26 42  1  0  0  0  0 
 27 43  1  0  0  0  0 
M  END
> <cdk:Title>
bicalutamide

> <Conformer>
1

> <SuperDrugID>
SD000312

$$$$
