estriol
  CDK     0628171801

 45 48  0  0  0  0  0  0  0  0999 V2000
   -7.2175    1.7768   -0.0682 C   0  0  0  0  0  0  0  0  0  0  0  0
   -6.6612    2.4330    1.2541 C   0  0  2  0  0  0  0  0  0  0  0  0
   -6.0151    1.4489    2.2794 C   0  0  2  0  0  0  0  0  0  0  0  0
   -7.8535    2.9585    2.1151 C   0  0  1  0  0  0  0  0  0  0  0  0
   -5.5694    3.4968    0.9064 C   0  0  2  0  0  0  0  0  0  0  0  0
   -4.7924    0.6747    1.6922 C   0  0  1  0  0  0  0  0  0  0  0  0
   -7.2140    0.6654    2.8581 C   0  0  1  0  0  0  0  0  0  0  0  0
   -8.8813    3.6030    1.3596 O   0  0  0  0  0  0  0  0  0  0  0  0
   -8.3685    1.7042    2.8799 C   0  0  1  0  0  0  0  0  0  0  0  0
   -4.2586    2.8534    0.3567 C   0  0  2  0  0  0  0  0  0  0  0  0
   -3.6748    1.6848    1.2315 C   0  0  2  0  0  0  0  0  0  0  0  0
   -4.1708   -0.3093    2.7211 C   0  0  1  0  0  0  0  0  0  0  0  0
   -8.7403    2.0248    4.2202 O   0  0  0  0  0  0  0  0  0  0  0  0
   -2.4854    0.9509    0.6543 C   0  0  0  0  0  0  0  0  0  0  0  0
   -2.9943   -1.1040    2.1024 C   0  0  2  0  0  0  0  0  0  0  0  0
   -2.1535   -0.3576    1.1248 C   0  0  0  0  0  0  0  0  0  0  0  0
   -1.6411    1.5301   -0.3321 C   0  0  0  0  0  0  0  0  0  0  0  0
   -1.0087   -1.0224    0.6269 C   0  0  0  0  0  0  0  0  0  0  0  0
   -0.5168    0.8523   -0.8299 C   0  0  0  0  0  0  0  0  0  0  0  0
   -0.1918   -0.4248   -0.3466 C   0  0  0  0  0  0  0  0  0  0  0  0
    0.8954   -1.0914   -0.8088 O   0  0  0  0  0  0  0  0  0  0  0  0
   -5.1269    0.0856    0.8335 H   0  0  0  0  0  0  0  0  0  0  0  0
   -3.2884    2.1719    2.1332 H   0  0  0  0  0  0  0  0  0  0  0  0
   -5.6143    2.0265    3.1277 H   0  0  0  0  0  0  0  0  0  0  0  0
   -7.9976    1.0421    0.1331 H   0  0  0  0  0  0  0  0  0  0  0  0
   -7.6527    2.5434   -0.7129 H   0  0  0  0  0  0  0  0  0  0  0  0
   -6.4432    1.2726   -0.6431 H   0  0  0  0  0  0  0  0  0  0  0  0
   -7.4896    3.6956    2.8378 H   0  0  0  0  0  0  0  0  0  0  0  0
   -5.3162    4.0724    1.8023 H   0  0  0  0  0  0  0  0  0  0  0  0
   -5.9611    4.2063    0.1727 H   0  0  0  0  0  0  0  0  0  0  0  0
   -7.4656   -0.1860    2.2188 H   0  0  0  0  0  0  0  0  0  0  0  0
   -6.9913    0.2882    3.8609 H   0  0  0  0  0  0  0  0  0  0  0  0
   -9.5463    3.8920    2.0212 H   0  0  0  0  0  0  0  0  0  0  0  0
   -9.2436    1.2862    2.3751 H   0  0  0  0  0  0  0  0  0  0  0  0
   -3.5212    3.6589    0.2990 H   0  0  0  0  0  0  0  0  0  0  0  0
   -4.4305    2.4928   -0.6600 H   0  0  0  0  0  0  0  0  0  0  0  0
   -3.8097    0.2493    3.5906 H   0  0  0  0  0  0  0  0  0  0  0  0
   -4.9257   -1.0190    3.0700 H   0  0  0  0  0  0  0  0  0  0  0  0
   -9.4805    2.6616    4.1360 H   0  0  0  0  0  0  0  0  0  0  0  0
   -3.4033   -1.9760    1.5828 H   0  0  0  0  0  0  0  0  0  0  0  0
   -2.3690   -1.4704    2.9220 H   0  0  0  0  0  0  0  0  0  0  0  0
   -1.8244    2.4600   -0.7093 H   0  0  0  0  0  0  0  0  0  0  0  0
   -0.7648   -1.9546    0.9711 H   0  0  0  0  0  0  0  0  0  0  0  0
    0.0690    1.2910   -1.5453 H   0  0  0  0  0  0  0  0  0  0  0  0
    1.4139   -0.4301   -1.3117 H   0  0  0  0  0  0  0  0  0  0  0  0
  2  1  1  0  0  0  0 
  3  2  1  0  0  0  0 
  2  4  1  0  0  0  0 
  2  5  1  0  0  0  0 
  6  3  1  0  0  0  0 
  3  7  1  0  0  0  0 
  3 24  1  0  0  0  0 
  4  8  1  0  0  0  0 
  4  9  1  0  0  0  0 
  5 10  1  0  0  0  0 
 11  6  1  0  0  0  0 
  6 12  1  0  0  0  0 
  6 22  1  0  0  0  0 
  9  7  1  0  0  0  0 
  9 13  1  0  0  0  0 
 11 10  1  0  0  0  0 
 11 14  1  0  0  0  0 
 11 23  1  0  0  0  0 
 12 15  1  0  0  0  0 
 14 16  2  0  0  0  0 
 14 17  1  0  0  0  0 
 15 16  1  0  0  0  0 
 16 18  1  0  0  0  0 
 17 19  2  0  0  0  0 
 18 20  2  0  0  0  0 
 19 20  1  0  0  0  0 
 20 21  1  0  0  0  0 
  1 25  1  0  0  0  0 
  1 26  1  0  0  0  0 
  1 27  1  0  0  0  0 
  4 28  1  0  0  0  0 
  5 29  1  0  0  0  0 
  5 30  1  0  0  0  0 
  7 31  1  0  0  0  0 
  7 32  1  0  0  0  0 
  8 33  1  0  0  0  0 
  9 34  1  0  0  0  0 
 10 35  1  0  0  0  0 
 10 36  1  0  0  0  0 
 12 37  1  0  0  0  0 
 12 38  1  0  0  0  0 
 13 39  1  0  0  0  0 
 15 40  1  0  0  0  0 
 15 41  1  0  0  0  0 
 17 42  1  0  0  0  0 
 18 43  1  0  0  0  0 
 19 44  1  0  0  0  0 
 21 45  1  0  0  0  0 
M  END
> <cdk:Title>
estriol

> <Conformer>
1

> <SuperDrugID>
SD002759

$$$$
