mivotilate
  CDK     0628171801

 34 35  0  0  0  0  0  0  0  0999 V2000
    5.8974   -1.6540   -0.6507 C   0  0  0  0  0  0  0  0  0  0  0  0
    4.6286   -1.2340   -0.2490 C   0  0  0  0  0  0  0  0  0  0  0  0
    6.6320   -2.5133    0.1630 C   0  0  0  0  0  0  0  0  0  0  0  0
    6.4094   -1.2376   -1.8267 C   0  0  0  0  0  0  0  0  0  0  0  0
    3.7528   -2.1457    0.2614 N   0  0  0  0  0  0  0  0  0  0  0  0
    4.2953   -0.0315   -0.3909 O   0  0  0  0  0  0  0  0  0  0  0  0
    6.6069   -2.3477    1.5212 O   0  0  0  0  0  0  0  0  0  0  0  0
    7.3254   -3.4331   -0.3364 O   0  0  0  0  0  0  0  0  0  0  0  0
    5.7883   -0.2555   -3.1184 S   0  0  0  0  0  0  0  0  0  0  0  0
    7.9394   -1.4862   -2.6132 S   0  0  0  0  0  0  0  0  0  0  0  0
    2.4406   -1.9476    0.5467 C   0  0  0  0  0  0  0  0  0  0  0  0
    7.3631   -3.0685    2.5123 C   0  0  2  0  0  0  0  0  0  0  0  0
    7.3764   -0.4559   -4.0336 C   0  0  1  0  0  0  0  0  0  0  0  0
    1.3621   -3.2160    1.0995 S   0  0  0  0  0  0  0  0  0  0  0  0
    1.6871   -0.8264    0.4278 N   0  0  0  0  0  0  0  0  0  0  0  0
    6.4034   -3.6340    3.5838 C   0  0  0  0  0  0  0  0  0  0  0  0
    8.3938   -2.0961    3.1278 C   0  0  0  0  0  0  0  0  0  0  0  0
   -0.0672   -2.2057    1.1260 C   0  0  0  0  0  0  0  0  0  0  0  0
    0.3567   -0.9319    0.7199 C   0  0  0  0  0  0  0  0  0  0  0  0
   -0.5519    0.2230    0.6041 C   0  0  0  0  0  0  0  0  0  0  0  0
    4.0945   -3.0427    0.4016 H   0  0  0  0  0  0  0  0  0  0  0  0
    7.9132   -3.9023    2.0640 H   0  0  0  0  0  0  0  0  0  0  0  0
    7.2711   -1.0264   -4.9584 H   0  0  0  0  0  0  0  0  0  0  0  0
    7.9358    0.4760   -4.1334 H   0  0  0  0  0  0  0  0  0  0  0  0
    6.9685   -4.1703    4.3507 H   0  0  0  0  0  0  0  0  0  0  0  0
    5.8498   -2.8201    4.0596 H   0  0  0  0  0  0  0  0  0  0  0  0
    5.6936   -4.3273    3.1270 H   0  0  0  0  0  0  0  0  0  0  0  0
    8.9771   -2.6037    3.8987 H   0  0  0  0  0  0  0  0  0  0  0  0
    7.8848   -1.2386    3.5751 H   0  0  0  0  0  0  0  0  0  0  0  0
    9.0790   -1.7351    2.3569 H   0  0  0  0  0  0  0  0  0  0  0  0
   -1.0072   -2.4970    1.3968 H   0  0  0  0  0  0  0  0  0  0  0  0
   -1.5932   -0.0629    0.7821 H   0  0  0  0  0  0  0  0  0  0  0  0
   -0.2660    0.9795    1.3370 H   0  0  0  0  0  0  0  0  0  0  0  0
   -0.4749    0.6496   -0.3980 H   0  0  0  0  0  0  0  0  0  0  0  0
  1  2  1  0  0  0  0 
  1  3  1  0  0  0  0 
  1  4  2  0  0  0  0 
  2  5  1  0  0  0  0 
  2  6  2  0  0  0  0 
  3  7  1  0  0  0  0 
  3  8  2  0  0  0  0 
  4  9  1  0  0  0  0 
  4 10  1  0  0  0  0 
  5 11  1  0  0  0  0 
  7 12  1  0  0  0  0 
  9 13  1  0  0  0  0 
 10 13  1  0  0  0  0 
 11 14  1  0  0  0  0 
 11 15  2  0  0  0  0 
 12 16  1  0  0  0  0 
 12 17  1  0  0  0  0 
 14 18  1  0  0  0  0 
 15 19  1  0  0  0  0 
 18 19  2  0  0  0  0 
 19 20  1  0  0  0  0 
  5 21  1  0  0  0  0 
 12 22  1  0  0  0  0 
 13 23  1  0  0  0  0 
 13 24  1  0  0  0  0 
 16 25  1  0  0  0  0 
 16 26  1  0  0  0  0 
 16 27  1  0  0  0  0 
 17 28  1  0  0  0  0 
 17 29  1  0  0  0  0 
 17 30  1  0  0  0  0 
 18 31  1  0  0  0  0 
 20 32  1  0  0  0  0 
 20 33  1  0  0  0  0 
 20 34  1  0  0  0  0 
M  END
> <cdk:Title>
mivotilate

> <Conformer>
1

> <SuperDrugID>
SD001622

$$$$
