epirizole
  CDK     0628171801

 31 32  0  0  0  0  0  0  0  0999 V2000
   -2.3522    1.1040    2.9177 O   0  0  0  0  0  0  0  0  0  0  0  0
   -1.9596    0.4778    4.1507 C   0  0  0  0  0  0  0  0  0  0  0  0
   -1.9661    2.4149    2.8230 C   0  0  0  0  0  0  0  0  0  0  0  0
   -1.1438    2.9466    1.8925 N   0  0  0  0  0  0  0  0  0  0  0  0
   -2.3870    3.4624    3.6312 C   0  0  0  0  0  0  0  0  0  0  0  0
   -0.5031    2.2886    0.8906 C   0  0  0  0  0  0  0  0  0  0  0  0
   -1.0242    4.2284    2.0822 N   0  0  0  0  0  0  0  0  0  0  0  0
   -1.7493    4.5968    3.1517 C   0  0  0  0  0  0  0  0  0  0  0  0
    0.0227    1.0453    1.0684 N   0  0  0  0  0  0  0  0  0  0  0  0
   -0.3580    2.8894   -0.3199 N   0  0  0  0  0  0  0  0  0  0  0  0
   -1.8191    5.9566    3.7051 C   0  0  0  0  0  0  0  0  0  0  0  0
    0.6883    0.3910    0.0767 C   0  0  0  0  0  0  0  0  0  0  0  0
    0.2776    2.2930   -1.3619 C   0  0  0  0  0  0  0  0  0  0  0  0
    1.2560   -0.8368    0.2897 O   0  0  0  0  0  0  0  0  0  0  0  0
    0.8317    1.0085   -1.1795 C   0  0  0  0  0  0  0  0  0  0  0  0
    0.3667    2.9899   -2.6571 C   0  0  0  0  0  0  0  0  0  0  0  0
    0.3010   -1.8940    0.4790 C   0  0  0  0  0  0  0  0  0  0  0  0
   -2.2631   -0.5682    4.1097 H   0  0  0  0  0  0  0  0  0  0  0  0
   -0.8764    0.5123    4.2906 H   0  0  0  0  0  0  0  0  0  0  0  0
   -2.4533    0.9415    5.0087 H   0  0  0  0  0  0  0  0  0  0  0  0
   -3.0312    3.4053    4.4225 H   0  0  0  0  0  0  0  0  0  0  0  0
   -2.4852    5.9903    4.5697 H   0  0  0  0  0  0  0  0  0  0  0  0
   -0.8223    6.2700    4.0200 H   0  0  0  0  0  0  0  0  0  0  0  0
   -2.1876    6.6462    2.9440 H   0  0  0  0  0  0  0  0  0  0  0  0
    1.3264    0.5329   -1.9394 H   0  0  0  0  0  0  0  0  0  0  0  0
   -0.1260    2.3907   -3.4249 H   0  0  0  0  0  0  0  0  0  0  0  0
   -0.1234    3.9657   -2.6153 H   0  0  0  0  0  0  0  0  0  0  0  0
    1.4135    3.1381   -2.9307 H   0  0  0  0  0  0  0  0  0  0  0  0
    0.8495   -2.8262    0.6152 H   0  0  0  0  0  0  0  0  0  0  0  0
   -0.3052   -1.7255    1.3726 H   0  0  0  0  0  0  0  0  0  0  0  0
   -0.3480   -2.0086   -0.3933 H   0  0  0  0  0  0  0  0  0  0  0  0
  1  2  1  0  0  0  0 
  1  3  1  0  0  0  0 
  3  4  1  0  0  0  0 
  3  5  2  0  0  0  0 
  4  6  1  0  0  0  0 
  4  7  1  0  0  0  0 
  5  8  1  0  0  0  0 
  6  9  2  0  0  0  0 
  6 10  1  0  0  0  0 
  7  8  2  0  0  0  0 
  8 11  1  0  0  0  0 
  9 12  1  0  0  0  0 
 10 13  2  0  0  0  0 
 12 14  1  0  0  0  0 
 12 15  2  0  0  0  0 
 13 15  1  0  0  0  0 
 13 16  1  0  0  0  0 
 14 17  1  0  0  0  0 
  2 18  1  0  0  0  0 
  2 19  1  0  0  0  0 
  2 20  1  0  0  0  0 
  5 21  1  0  0  0  0 
 11 22  1  0  0  0  0 
 11 23  1  0  0  0  0 
 11 24  1  0  0  0  0 
 15 25  1  0  0  0  0 
 16 26  1  0  0  0  0 
 16 27  1  0  0  0  0 
 16 28  1  0  0  0  0 
 17 29  1  0  0  0  0 
 17 30  1  0  0  0  0 
 17 31  1  0  0  0  0 
M  END
> <cdk:Title>
epirizole

> <Conformer>
1

> <SuperDrugID>
SD000916

$$$$
