difenpiramide
  CDK     0628171802

 38 40  0  0  0  0  0  0  0  0999 V2000
    1.7981   -0.3658   -0.7591 C   0  0  1  0  0  0  0  0  0  0  0  0
    1.9382   -1.5238   -1.6668 C   0  0  0  0  0  0  0  0  0  0  0  0
    0.9603   -0.6152    0.4487 C   0  0  0  0  0  0  0  0  0  0  0  0
    3.1726   -2.0654   -1.8867 N   0  0  0  0  0  0  0  0  0  0  0  0
    0.9120   -1.9452   -2.2509 O   0  0  0  0  0  0  0  0  0  0  0  0
   -0.3940   -0.2086    0.4972 C   0  0  0  0  0  0  0  0  0  0  0  0
    1.5235   -1.1975    1.6068 C   0  0  0  0  0  0  0  0  0  0  0  0
    3.5189   -2.9835   -2.8328 C   0  0  0  0  0  0  0  0  0  0  0  0
   -1.1358   -0.3047    1.6908 C   0  0  0  0  0  0  0  0  0  0  0  0
    0.7851   -1.2896    2.8027 C   0  0  0  0  0  0  0  0  0  0  0  0
    4.6975   -3.7418   -2.6615 C   0  0  0  0  0  0  0  0  0  0  0  0
    2.7875   -3.1612   -3.9689 N   0  0  0  0  0  0  0  0  0  0  0  0
   -0.5450   -0.8107    2.8747 C   0  0  0  0  0  0  0  0  0  0  0  0
    5.0772   -4.6646   -3.6564 C   0  0  0  0  0  0  0  0  0  0  0  0
    3.1324   -4.0336   -4.9503 C   0  0  0  0  0  0  0  0  0  0  0  0
   -1.2483   -0.7915    4.1161 C   0  0  0  0  0  0  0  0  0  0  0  0
    4.2964   -4.8102   -4.8181 C   0  0  0  0  0  0  0  0  0  0  0  0
   -1.8712    0.4026    4.5598 C   0  0  0  0  0  0  0  0  0  0  0  0
   -1.3209   -1.9314    4.9575 C   0  0  0  0  0  0  0  0  0  0  0  0
   -2.5470    0.4571    5.7935 C   0  0  0  0  0  0  0  0  0  0  0  0
   -1.9997   -1.8785    6.1924 C   0  0  0  0  0  0  0  0  0  0  0  0
   -2.6174   -0.6858    6.6072 C   0  0  0  0  0  0  0  0  0  0  0  0
    2.7874   -0.0280   -0.4377 H   0  0  0  0  0  0  0  0  0  0  0  0
    1.3765    0.4616   -1.3376 H   0  0  0  0  0  0  0  0  0  0  0  0
    3.8884   -1.7425   -1.3180 H   0  0  0  0  0  0  0  0  0  0  0  0
   -0.8455    0.1822   -0.3342 H   0  0  0  0  0  0  0  0  0  0  0  0
    2.4916   -1.5291    1.5964 H   0  0  0  0  0  0  0  0  0  0  0  0
   -2.1088    0.0150    1.6913 H   0  0  0  0  0  0  0  0  0  0  0  0
    1.2433   -1.6793    3.6304 H   0  0  0  0  0  0  0  0  0  0  0  0
    5.2730   -3.6334   -1.8222 H   0  0  0  0  0  0  0  0  0  0  0  0
    5.9222   -5.2282   -3.5372 H   0  0  0  0  0  0  0  0  0  0  0  0
    2.5464   -4.1139   -5.7801 H   0  0  0  0  0  0  0  0  0  0  0  0
    4.5693   -5.4706   -5.5521 H   0  0  0  0  0  0  0  0  0  0  0  0
   -1.8248    1.2539    3.9937 H   0  0  0  0  0  0  0  0  0  0  0  0
   -0.8806   -2.8128    4.6796 H   0  0  0  0  0  0  0  0  0  0  0  0
   -2.9833    1.3309    6.0990 H   0  0  0  0  0  0  0  0  0  0  0  0
   -2.0445   -2.7075    6.7907 H   0  0  0  0  0  0  0  0  0  0  0  0
   -3.1173   -0.6484    7.4974 H   0  0  0  0  0  0  0  0  0  0  0  0
  1  2  1  0  0  0  0 
  1  3  1  0  0  0  0 
  2  4  1  0  0  0  0 
  2  5  2  0  0  0  0 
  3  6  2  0  0  0  0 
  3  7  1  0  0  0  0 
  4  8  1  0  0  0  0 
  6  9  1  0  0  0  0 
  7 10  2  0  0  0  0 
  8 11  2  0  0  0  0 
  8 12  1  0  0  0  0 
  9 13  2  0  0  0  0 
 10 13  1  0  0  0  0 
 11 14  1  0  0  0  0 
 12 15  2  0  0  0  0 
 13 16  1  0  0  0  0 
 14 17  2  0  0  0  0 
 15 17  1  0  0  0  0 
 16 18  2  0  0  0  0 
 16 19  1  0  0  0  0 
 18 20  1  0  0  0  0 
 19 21  2  0  0  0  0 
 20 22  2  0  0  0  0 
 21 22  1  0  0  0  0 
  1 23  1  0  0  0  0 
  1 24  1  0  0  0  0 
  4 25  1  0  0  0  0 
  6 26  1  0  0  0  0 
  7 27  1  0  0  0  0 
  9 28  1  0  0  0  0 
 10 29  1  0  0  0  0 
 11 30  1  0  0  0  0 
 14 31  1  0  0  0  0 
 15 32  1  0  0  0  0 
 17 33  1  0  0  0  0 
 18 34  1  0  0  0  0 
 19 35  1  0  0  0  0 
 20 36  1  0  0  0  0 
 21 37  1  0  0  0  0 
 22 38  1  0  0  0  0 
M  END
> <cdk:Title>
difenpiramide

> <Conformer>
1

> <SuperDrugID>
SD000816

$$$$
