spectinomycin
  CDK     0628171801

 47 49  0  0  0  0  0  0  0  0999 V2000
   -1.5477    5.3696    1.6215 N   0  0  1  0  0  0  0  0  0  0  0  0
   -1.4697    6.2249    2.8226 C   0  0  0  0  0  0  0  0  0  0  0  0
   -2.6225    4.3431    1.6152 C   0  0  2  0  0  0  0  0  0  0  0  0
   -2.4215    3.4312    0.3703 C   0  0  2  0  0  0  0  0  0  0  0  0
   -4.0725    4.9372    1.6302 C   0  0  1  0  0  0  0  0  0  0  0  0
   -3.4751    2.2831    0.3761 C   0  0  2  0  0  0  0  0  0  0  0  0
   -1.0901    2.8650    0.3532 O   0  0  0  0  0  0  0  0  0  0  0  0
   -4.2473    5.8737    0.5639 O   0  0  0  0  0  0  0  0  0  0  0  0
   -5.1630    3.8179    1.5500 C   0  0  2  0  0  0  0  0  0  0  0  0
   -3.2423    1.4074   -0.7492 O   0  0  0  0  0  0  0  0  0  0  0  0
   -4.9142    2.8659    0.3377 C   0  0  2  0  0  0  0  0  0  0  0  0
   -0.8404    1.9550   -0.7449 C   0  0  1  0  0  0  0  0  0  0  0  0
   -6.5521    4.3471    1.4669 N   0  0  1  0  0  0  0  0  0  0  0  0
   -1.9185    0.8259   -0.7594 C   0  0  1  0  0  0  0  0  0  0  0  0
   -5.8469    1.7850    0.3542 O   0  0  0  0  0  0  0  0  0  0  0  0
   -0.8769    2.6583   -1.9925 O   0  0  0  0  0  0  0  0  0  0  0  0
    0.4889    1.3353   -0.5267 C   0  0  0  0  0  0  0  0  0  0  0  0
   -7.0478    5.0960    2.6419 C   0  0  0  0  0  0  0  0  0  0  0  0
   -1.7815   -0.0736    0.3692 O   0  0  0  0  0  0  0  0  0  0  0  0
    1.4497    1.5669   -1.2969 O   0  0  0  0  0  0  0  0  0  0  0  0
    0.6502    0.3707    0.5812 C   0  0  1  0  0  0  0  0  0  0  0  0
   -0.4821   -0.6930    0.5102 C   0  0  1  0  0  0  0  0  0  0  0  0
   -0.5134   -1.5673    1.7861 C   0  0  0  0  0  0  0  0  0  0  0  0
   -2.5502    4.0438   -0.5317 H   0  0  0  0  0  0  0  0  0  0  0  0
   -3.3767    1.7066    1.3026 H   0  0  0  0  0  0  0  0  0  0  0  0
   -1.8305    0.2470   -1.6844 H   0  0  0  0  0  0  0  0  0  0  0  0
   -1.6848    5.9791    0.8128 H   0  0  0  0  0  0  0  0  0  0  0  0
   -0.5153    6.7509    2.8061 H   0  0  0  0  0  0  0  0  0  0  0  0
   -2.2767    6.9598    2.8214 H   0  0  0  0  0  0  0  0  0  0  0  0
   -1.5200    5.6295    3.7363 H   0  0  0  0  0  0  0  0  0  0  0  0
   -2.4923    3.7200    2.5080 H   0  0  0  0  0  0  0  0  0  0  0  0
   -4.2096    5.4798    2.5671 H   0  0  0  0  0  0  0  0  0  0  0  0
   -3.5576    6.5553    0.7069 H   0  0  0  0  0  0  0  0  0  0  0  0
   -5.0918    3.2098    2.4593 H   0  0  0  0  0  0  0  0  0  0  0  0
   -5.0536    3.4100   -0.6025 H   0  0  0  0  0  0  0  0  0  0  0  0
   -6.6069    4.9679    0.6572 H   0  0  0  0  0  0  0  0  0  0  0  0
   -6.7242    2.2012    0.2113 H   0  0  0  0  0  0  0  0  0  0  0  0
   -0.1828    3.3455   -1.9240 H   0  0  0  0  0  0  0  0  0  0  0  0
   -8.1281    5.2085    2.5439 H   0  0  0  0  0  0  0  0  0  0  0  0
   -6.5946    6.0883    2.6845 H   0  0  0  0  0  0  0  0  0  0  0  0
   -6.8416    4.5615    3.5714 H   0  0  0  0  0  0  0  0  0  0  0  0
    1.6272   -0.1203    0.5285 H   0  0  0  0  0  0  0  0  0  0  0  0
    0.5935    0.9220    1.5243 H   0  0  0  0  0  0  0  0  0  0  0  0
   -0.3068   -1.3524   -0.3480 H   0  0  0  0  0  0  0  0  0  0  0  0
   -1.2992   -2.3201    1.7064 H   0  0  0  0  0  0  0  0  0  0  0  0
    0.4428   -2.0754    1.9228 H   0  0  0  0  0  0  0  0  0  0  0  0
   -0.7132   -0.9512    2.6656 H   0  0  0  0  0  0  0  0  0  0  0  0
  1  2  1  0  0  0  0 
  3  1  1  0  0  0  0 
  4  3  1  0  0  0  0 
  5  3  1  0  0  0  0 
  6  4  1  0  0  0  0 
  4  7  1  0  0  0  0 
  4 24  1  0  0  0  0 
  5  8  1  0  0  0  0 
  9  5  1  0  0  0  0 
  6 10  1  0  0  0  0 
 11  6  1  0  0  0  0 
  6 25  1  0  0  0  0 
 12  7  1  0  0  0  0 
 11  9  1  0  0  0  0 
  9 13  1  0  0  0  0 
 14 10  1  0  0  0  0 
 11 15  1  0  0  0  0 
 14 12  1  0  0  0  0 
 12 16  1  0  0  0  0 
 12 17  1  0  0  0  0 
 13 18  1  0  0  0  0 
 14 19  1  0  0  0  0 
 14 26  1  0  0  0  0 
 17 20  2  0  0  0  0 
 17 21  1  0  0  0  0 
 22 19  1  0  0  0  0 
 22 21  1  0  0  0  0 
 22 23  1  0  0  0  0 
  1 27  1  0  0  0  0 
  2 28  1  0  0  0  0 
  2 29  1  0  0  0  0 
  2 30  1  0  0  0  0 
  3 31  1  0  0  0  0 
  5 32  1  0  0  0  0 
  8 33  1  0  0  0  0 
  9 34  1  0  0  0  0 
 11 35  1  0  0  0  0 
 13 36  1  0  0  0  0 
 15 37  1  0  0  0  0 
 16 38  1  0  0  0  0 
 18 39  1  0  0  0  0 
 18 40  1  0  0  0  0 
 18 41  1  0  0  0  0 
 21 42  1  0  0  0  0 
 21 43  1  0  0  0  0 
 22 44  1  0  0  0  0 
 23 45  1  0  0  0  0 
 23 46  1  0  0  0  0 
 23 47  1  0  0  0  0 
M  END
> <cdk:Title>
spectinomycin

> <Conformer>
1

> <SuperDrugID>
SD002216

$$$$
