piroxicam
  CDK     0628171801

 36 38  0  0  0  0  0  0  0  0999 V2000
    2.4034    5.4434    2.6897 C   0  0  0  0  0  0  0  0  0  0  0  0
    2.9515    5.8976    1.3801 N   0  0  1  0  0  0  0  0  0  0  0  0
    1.9755    6.0304    0.2432 C   0  0  2  0  0  0  0  0  0  0  0  0
    1.1290    4.8024    0.1168 C   0  0  0  0  0  0  0  0  0  0  0  0
   -0.1143    4.9163    0.2372 O   0  0  0  0  0  0  0  0  0  0  0  0
    1.7257    3.5858   -0.0661 N   0  0  0  0  0  0  0  0  0  0  0  0
    1.1418    2.3487   -0.0784 C   0  0  0  0  0  0  0  0  0  0  0  0
    1.9799    1.2127   -0.1190 C   0  0  0  0  0  0  0  0  0  0  0  0
    1.4161   -0.0760   -0.0734 C   0  0  0  0  0  0  0  0  0  0  0  0
    0.0203   -0.2280   -0.0077 C   0  0  0  0  0  0  0  0  0  0  0  0
   -0.7850    0.9239    0.0119 C   0  0  0  0  0  0  0  0  0  0  0  0
   -0.2071    2.1533   -0.0233 N   0  0  0  0  0  0  0  0  0  0  0  0
    2.6565    6.3993   -1.0470 C   0  0  0  0  0  0  0  0  0  0  0  0
    2.2873    5.8262   -2.1027 O   0  0  0  0  0  0  0  0  0  0  0  0
    3.6753    7.4096   -1.1435 C   0  0  0  0  0  0  0  0  0  0  0  0
    4.1293    7.8714   -2.4084 C   0  0  0  0  0  0  0  0  0  0  0  0
    5.1372    8.8475   -2.5167 C   0  0  0  0  0  0  0  0  0  0  0  0
    5.7192    9.3911   -1.3607 C   0  0  0  0  0  0  0  0  0  0  0  0
    5.2936    8.9561   -0.0965 C   0  0  0  0  0  0  0  0  0  0  0  0
    4.2850    7.9762    0.0075 C   0  0  0  0  0  0  0  0  0  0  0  0
    3.8027    7.4326    1.6130 S   0  0  2  0  0  0  0  0  0  0  0  0
    5.0857    7.2064    2.5478 O   0  0  0  0  0  0  0  0  0  0  0  0
    2.8164    8.5064    2.2823 O   0  0  0  0  0  0  0  0  0  0  0  0
    1.5923    6.0946    3.0226 H   0  0  0  0  0  0  0  0  0  0  0  0
    3.1848    5.4276    3.4517 H   0  0  0  0  0  0  0  0  0  0  0  0
    2.0239    4.4247    2.6133 H   0  0  0  0  0  0  0  0  0  0  0  0
    1.3077    6.8697    0.4691 H   0  0  0  0  0  0  0  0  0  0  0  0
    2.6903    3.6003   -0.1636 H   0  0  0  0  0  0  0  0  0  0  0  0
    2.9958    1.3137   -0.1650 H   0  0  0  0  0  0  0  0  0  0  0  0
    2.0177   -0.9027   -0.0838 H   0  0  0  0  0  0  0  0  0  0  0  0
   -0.4019   -1.1587    0.0325 H   0  0  0  0  0  0  0  0  0  0  0  0
   -1.8012    0.8421    0.0614 H   0  0  0  0  0  0  0  0  0  0  0  0
    3.7326    7.5007   -3.2753 H   0  0  0  0  0  0  0  0  0  0  0  0
    5.4484    9.1599   -3.4389 H   0  0  0  0  0  0  0  0  0  0  0  0
    6.4528   10.0989   -1.4386 H   0  0  0  0  0  0  0  0  0  0  0  0
    5.7272    9.3521    0.7425 H   0  0  0  0  0  0  0  0  0  0  0  0
  1  2  1  0  0  0  0 
  2  3  1  0  0  0  0 
  3  4  1  0  0  0  0 
  4  5  2  0  0  0  0 
  4  6  1  0  0  0  0 
  6  7  1  0  0  0  0 
  7  8  2  0  0  0  0 
  8  9  1  0  0  0  0 
  9 10  2  0  0  0  0 
 10 11  1  0  0  0  0 
 11 12  2  0  0  0  0 
  7 12  1  0  0  0  0 
  3 13  1  0  0  0  0 
 13 14  2  0  0  0  0 
 13 15  1  0  0  0  0 
 15 16  2  0  0  0  0 
 16 17  1  0  0  0  0 
 17 18  2  0  0  0  0 
 18 19  1  0  0  0  0 
 19 20  2  0  0  0  0 
 15 20  1  0  0  0  0 
 20 21  1  0  0  0  0 
  2 21  1  0  0  0  0 
 21 22  2  0  0  0  0 
 21 23  2  0  0  0  0 
 24  1  1  0  0  0  0 
 25  1  1  0  0  0  0 
 26  1  1  0  0  0  0 
 27  3  1  0  0  0  0 
 28  6  1  0  0  0  0 
 29  8  1  0  0  0  0 
 30  9  1  0  0  0  0 
 31 10  1  0  0  0  0 
 32 11  1  0  0  0  0 
 33 16  1  0  0  0  0 
 34 17  1  0  0  0  0 
 35 18  1  0  0  0  0 
 36 19  1  0  0  0  0 
M  END
> <cdk:Title>
piroxicam

> <Conformer>
1

> <SuperDrugID>
SD001984

$$$$
