triparanol
  CDK     0628171801

 63 65  0  0  0  0  0  0  0  0999 V2000
    1.9049   -1.2673   -0.4150 C   0  0  1  0  0  0  0  0  0  0  0  0
    0.3999   -1.2835   -0.8905 C   0  0  1  0  0  0  0  0  0  0  0  0
    1.8201   -1.0951    1.0101 O   0  0  0  0  0  0  0  0  0  0  0  0
    2.6745   -2.5508   -0.6297 C   0  0  0  0  0  0  0  0  0  0  0  0
    2.7099   -0.1759   -1.0771 C   0  0  0  0  0  0  0  0  0  0  0  0
   -0.4687   -0.1501   -0.4400 C   0  0  0  0  0  0  0  0  0  0  0  0
    2.2394   -3.5753   -1.5108 C   0  0  0  0  0  0  0  0  0  0  0  0
    3.9136   -2.7499    0.0381 C   0  0  0  0  0  0  0  0  0  0  0  0
    3.3682    0.8306   -0.3279 C   0  0  0  0  0  0  0  0  0  0  0  0
    2.8666   -0.1451   -2.4878 C   0  0  0  0  0  0  0  0  0  0  0  0
   -1.5376   -0.3764    0.4634 C   0  0  0  0  0  0  0  0  0  0  0  0
   -0.2688    1.1664   -0.9221 C   0  0  0  0  0  0  0  0  0  0  0  0
    3.0039   -4.7347   -1.7185 C   0  0  0  0  0  0  0  0  0  0  0  0
    4.6828   -3.9085   -0.1699 C   0  0  0  0  0  0  0  0  0  0  0  0
    4.1387    1.8260   -0.9565 C   0  0  0  0  0  0  0  0  0  0  0  0
    3.6405    0.8448   -3.1190 C   0  0  0  0  0  0  0  0  0  0  0  0
   -2.3636    0.6802    0.8886 C   0  0  0  0  0  0  0  0  0  0  0  0
   -1.0925    2.2261   -0.4960 C   0  0  0  0  0  0  0  0  0  0  0  0
    4.2388   -4.8992   -1.0656 C   0  0  0  0  0  0  0  0  0  0  0  0
    4.2861    1.8447   -2.3608 C   0  0  0  0  0  0  0  0  0  0  0  0
   -2.1447    1.9844    0.4081 C   0  0  0  0  0  0  0  0  0  0  0  0
    4.9961   -6.0153   -1.3065 O   0  0  0  0  0  0  0  0  0  0  0  0
    5.1076    2.8761   -3.0372 C   0  0  0  0  0  0  0  0  0  0  0  0
   -3.1438    3.2506    0.9225 Cl  0  0  0  0  0  0  0  0  0  0  0  0
    5.8745   -5.8480   -2.4414 C   0  0  1  0  0  0  0  0  0  0  0  0
    6.6295   -7.1676   -2.7471 C   0  0  2  0  0  0  0  0  0  0  0  0
    7.8296   -7.0394   -3.6544 N   0  0  1  0  0  0  0  0  0  0  0  0
    8.6574   -8.3029   -3.7268 C   0  0  2  0  0  0  0  0  0  0  0  0
    7.5022   -6.4491   -5.0042 C   0  0  2  0  0  0  0  0  0  0  0  0
    9.2758   -8.7301   -2.3262 C   0  0  0  0  0  0  0  0  0  0  0  0
    8.7259   -5.9763   -5.8265 C   0  0  0  0  0  0  0  0  0  0  0  0
    0.3375   -1.3287   -1.9799 H   0  0  0  0  0  0  0  0  0  0  0  0
   -0.0343   -2.2214   -0.5269 H   0  0  0  0  0  0  0  0  0  0  0  0
    1.3652   -1.8965    1.3448 H   0  0  0  0  0  0  0  0  0  0  0  0
    1.3659   -3.4942   -2.0309 H   0  0  0  0  0  0  0  0  0  0  0  0
    4.2701   -2.0390    0.6829 H   0  0  0  0  0  0  0  0  0  0  0  0
    3.3051    0.8489    0.6909 H   0  0  0  0  0  0  0  0  0  0  0  0
    2.4182   -0.8534   -3.0742 H   0  0  0  0  0  0  0  0  0  0  0  0
   -1.7300   -1.3182    0.8196 H   0  0  0  0  0  0  0  0  0  0  0  0
    0.4727    1.3642   -1.5950 H   0  0  0  0  0  0  0  0  0  0  0  0
    2.6653   -5.4546   -2.3598 H   0  0  0  0  0  0  0  0  0  0  0  0
    5.5706   -4.0233    0.3245 H   0  0  0  0  0  0  0  0  0  0  0  0
    4.6003    2.5306   -0.3757 H   0  0  0  0  0  0  0  0  0  0  0  0
    3.7270    0.8338   -4.1389 H   0  0  0  0  0  0  0  0  0  0  0  0
   -3.1240    0.4935    1.5492 H   0  0  0  0  0  0  0  0  0  0  0  0
   -0.9201    3.1694   -0.8496 H   0  0  0  0  0  0  0  0  0  0  0  0
    4.5469    3.3336   -3.8549 H   0  0  0  0  0  0  0  0  0  0  0  0
    6.0071    2.4121   -3.4442 H   0  0  0  0  0  0  0  0  0  0  0  0
    5.4078    3.6697   -2.3498 H   0  0  0  0  0  0  0  0  0  0  0  0
    5.2863   -5.5657   -3.3203 H   0  0  0  0  0  0  0  0  0  0  0  0
    6.6120   -5.0664   -2.2315 H   0  0  0  0  0  0  0  0  0  0  0  0
    5.9240   -7.8982   -3.1562 H   0  0  0  0  0  0  0  0  0  0  0  0
    6.9550   -7.5353   -1.7740 H   0  0  0  0  0  0  0  0  0  0  0  0
    9.4178   -8.1886   -4.5522 H   0  0  0  0  0  0  0  0  0  0  0  0
    8.0143   -9.1244   -4.0560 H   0  0  0  0  0  0  0  0  0  0  0  0
    6.9014   -5.5492   -4.8779 H   0  0  0  0  0  0  0  0  0  0  0  0
    6.9121   -7.1538   -5.5979 H   0  0  0  0  0  0  0  0  0  0  0  0
   10.0945   -9.4303   -2.5078 H   0  0  0  0  0  0  0  0  0  0  0  0
    8.5334   -9.2292   -1.7003 H   0  0  0  0  0  0  0  0  0  0  0  0
    9.6720   -7.8604   -1.7959 H   0  0  0  0  0  0  0  0  0  0  0  0
    8.4210   -5.2302   -6.5623 H   0  0  0  0  0  0  0  0  0  0  0  0
    9.1775   -6.8127   -6.3627 H   0  0  0  0  0  0  0  0  0  0  0  0
    9.4719   -5.5297   -5.1649 H   0  0  0  0  0  0  0  0  0  0  0  0
  1  2  1  0  0  0  0 
  1  3  1  0  0  0  0 
  1  4  1  0  0  0  0 
  1  5  1  0  0  0  0 
  2  6  1  0  0  0  0 
  4  7  2  0  0  0  0 
  4  8  1  0  0  0  0 
  5  9  2  0  0  0  0 
  5 10  1  0  0  0  0 
  6 11  2  0  0  0  0 
  6 12  1  0  0  0  0 
  7 13  1  0  0  0  0 
  8 14  2  0  0  0  0 
  9 15  1  0  0  0  0 
 10 16  2  0  0  0  0 
 11 17  1  0  0  0  0 
 12 18  2  0  0  0  0 
 13 19  2  0  0  0  0 
 14 19  1  0  0  0  0 
 15 20  2  0  0  0  0 
 16 20  1  0  0  0  0 
 17 21  2  0  0  0  0 
 18 21  1  0  0  0  0 
 19 22  1  0  0  0  0 
 20 23  1  0  0  0  0 
 21 24  1  0  0  0  0 
 22 25  1  0  0  0  0 
 25 26  1  0  0  0  0 
 26 27  1  0  0  0  0 
 27 28  1  0  0  0  0 
 27 29  1  0  0  0  0 
 28 30  1  0  0  0  0 
 29 31  1  0  0  0  0 
  2 32  1  0  0  0  0 
  2 33  1  0  0  0  0 
  3 34  1  0  0  0  0 
  7 35  1  0  0  0  0 
  8 36  1  0  0  0  0 
  9 37  1  0  0  0  0 
 10 38  1  0  0  0  0 
 11 39  1  0  0  0  0 
 12 40  1  0  0  0  0 
 13 41  1  0  0  0  0 
 14 42  1  0  0  0  0 
 15 43  1  0  0  0  0 
 16 44  1  0  0  0  0 
 17 45  1  0  0  0  0 
 18 46  1  0  0  0  0 
 23 47  1  0  0  0  0 
 23 48  1  0  0  0  0 
 23 49  1  0  0  0  0 
 25 50  1  0  0  0  0 
 25 51  1  0  0  0  0 
 26 52  1  0  0  0  0 
 26 53  1  0  0  0  0 
 28 54  1  0  0  0  0 
 28 55  1  0  0  0  0 
 29 56  1  0  0  0  0 
 29 57  1  0  0  0  0 
 30 58  1  0  0  0  0 
 30 59  1  0  0  0  0 
 30 60  1  0  0  0  0 
 31 61  1  0  0  0  0 
 31 62  1  0  0  0  0 
 31 63  1  0  0  0  0 
M  END
> <cdk:Title>
triparanol

> <Conformer>
1

> <SuperDrugID>
SD002490

$$$$
