oxagrelate
  CDK     0628171801

 36 37  0  0  0  0  0  0  0  0999 V2000
   -4.5627    1.6788    0.9602 C   0  0  0  0  0  0  0  0  0  0  0  0
   -3.7364    2.8812    0.6113 C   0  0  0  0  0  0  0  0  0  0  0  0
   -4.3641    4.1422    0.3310 C   0  0  0  0  0  0  0  0  0  0  0  0
   -2.3121    2.7674    0.5265 C   0  0  0  0  0  0  0  0  0  0  0  0
   -3.5746    5.2332   -0.1528 C   0  0  0  0  0  0  0  0  0  0  0  0
   -5.7547    4.4103    0.5016 C   0  0  0  0  0  0  0  0  0  0  0  0
   -1.6386    1.6256    1.0447 C   0  0  0  0  0  0  0  0  0  0  0  0
   -1.5459    3.8287   -0.0307 C   0  0  0  0  0  0  0  0  0  0  0  0
   -4.1881    6.4920   -0.4279 C   0  0  0  0  0  0  0  0  0  0  0  0
   -2.1925    5.0376   -0.3595 C   0  0  0  0  0  0  0  0  0  0  0  0
   -6.5931    3.6077    0.9681 O   0  0  0  0  0  0  0  0  0  0  0  0
   -6.2708    5.6157    0.1726 N   0  0  0  0  0  0  0  0  0  0  0  0
   -0.8596    0.8340    0.2461 O   0  0  0  0  0  0  0  0  0  0  0  0
   -1.7820    1.3489    2.2594 O   0  0  0  0  0  0  0  0  0  0  0  0
   -0.0759    3.7206   -0.2667 C   0  0  0  0  0  0  0  0  0  0  0  0
   -3.4931    7.7236   -0.8820 C   0  0  1  0  0  0  0  0  0  0  0  0
   -5.5269    6.5925   -0.2513 N   0  0  0  0  0  0  0  0  0  0  0  0
   -0.0778   -0.3099    0.6335 C   0  0  1  0  0  0  0  0  0  0  0  0
   -2.5814    8.1701    0.1170 O   0  0  0  0  0  0  0  0  0  0  0  0
    1.1373    0.0649    1.5087 C   0  0  0  0  0  0  0  0  0  0  0  0
   -5.3888    1.5699    0.2557 H   0  0  0  0  0  0  0  0  0  0  0  0
   -4.0190    0.7353    0.9033 H   0  0  0  0  0  0  0  0  0  0  0  0
   -4.9554    1.7817    1.9733 H   0  0  0  0  0  0  0  0  0  0  0  0
   -1.6309    5.7980   -0.7502 H   0  0  0  0  0  0  0  0  0  0  0  0
   -7.2247    5.7616    0.2643 H   0  0  0  0  0  0  0  0  0  0  0  0
    0.3551    4.6324   -0.6842 H   0  0  0  0  0  0  0  0  0  0  0  0
    0.4370    3.5082    0.6723 H   0  0  0  0  0  0  0  0  0  0  0  0
    0.1229    2.9147   -0.9746 H   0  0  0  0  0  0  0  0  0  0  0  0
   -2.9583    7.5334   -1.8141 H   0  0  0  0  0  0  0  0  0  0  0  0
   -4.2042    8.5330   -1.0668 H   0  0  0  0  0  0  0  0  0  0  0  0
   -0.7060   -1.0364    1.1568 H   0  0  0  0  0  0  0  0  0  0  0  0
    0.2875   -0.7821   -0.2804 H   0  0  0  0  0  0  0  0  0  0  0  0
   -2.1717    8.9798   -0.2572 H   0  0  0  0  0  0  0  0  0  0  0  0
    1.7209   -0.8320    1.7275 H   0  0  0  0  0  0  0  0  0  0  0  0
    1.7773    0.7752    0.9805 H   0  0  0  0  0  0  0  0  0  0  0  0
    0.8157    0.5087    2.4504 H   0  0  0  0  0  0  0  0  0  0  0  0
  1  2  1  0  0  0  0 
  2  3  2  0  0  0  0 
  2  4  1  0  0  0  0 
  3  5  1  0  0  0  0 
  3  6  1  0  0  0  0 
  4  7  1  0  0  0  0 
  4  8  2  0  0  0  0 
  5  9  1  0  0  0  0 
  5 10  2  0  0  0  0 
  6 11  2  0  0  0  0 
  6 12  1  0  0  0  0 
  7 13  1  0  0  0  0 
  7 14  2  0  0  0  0 
  8 10  1  0  0  0  0 
  8 15  1  0  0  0  0 
  9 16  1  0  0  0  0 
  9 17  2  0  0  0  0 
 12 17  1  0  0  0  0 
 13 18  1  0  0  0  0 
 16 19  1  0  0  0  0 
 18 20  1  0  0  0  0 
 21  1  1  0  0  0  0 
 22  1  1  0  0  0  0 
 23  1  1  0  0  0  0 
 24 10  1  0  0  0  0 
 25 12  1  0  0  0  0 
 26 15  1  0  0  0  0 
 27 15  1  0  0  0  0 
 28 15  1  0  0  0  0 
 29 16  1  0  0  0  0 
 30 16  1  0  0  0  0 
 31 18  1  0  0  0  0 
 32 18  1  0  0  0  0 
 33 19  1  0  0  0  0 
 34 20  1  0  0  0  0 
 35 20  1  0  0  0  0 
 36 20  1  0  0  0  0 
M  END
> <cdk:Title>
oxagrelate

> <Conformer>
1

> <SuperDrugID>
SD001935

$$$$
