micafungin
  CDK     0628171801

160166  0  0  0  0  0  0  0  0999 V2000
   -1.7578   -9.0192  -10.7208 O   0  0  0  0  0  0  0  0  0  0  0  0
   -2.2201  -10.1818  -10.7585 C   0  0  0  0  0  0  0  0  0  0  0  0
   -2.1100  -10.8721  -11.9648 N   0  0  0  0  0  0  0  0  0  0  0  0
   -2.9618  -10.6176   -9.5305 C   0  0  2  0  0  0  0  0  0  0  0  0
   -2.2275  -12.2937  -12.2142 C   0  0  1  0  0  0  0  0  0  0  0  0
   -2.0831  -10.1440  -13.2086 C   0  0  2  0  0  0  0  0  0  0  0  0
   -4.4748  -10.2447   -9.6885 C   0  0  1  0  0  0  0  0  0  0  0  0
   -2.4028  -10.0044   -8.3383 N   0  0  0  0  0  0  0  0  0  0  0  0
   -3.3375  -12.2362  -13.3054 C   0  0  2  0  0  0  0  0  0  0  0  0
   -0.9607  -12.9338  -12.7375 C   0  0  0  0  0  0  0  0  0  0  0  0
   -2.9631  -10.9906  -14.1664 C   0  0  1  0  0  0  0  0  0  0  0  0
   -5.4200  -11.0211   -8.7221 C   0  0  1  0  0  0  0  0  0  0  0  0
   -4.6719   -8.8370   -9.5478 O   0  0  0  0  0  0  0  0  0  0  0  0
   -2.1316  -10.6100   -7.1413 C   0  0  0  0  0  0  0  0  0  0  0  0
   -4.6168  -12.1256  -12.6843 O   0  0  0  0  0  0  0  0  0  0  0  0
   -0.7116  -12.9056  -13.9651 O   0  0  0  0  0  0  0  0  0  0  0  0
    0.0352  -13.6141  -12.1021 N   0  0  0  0  0  0  0  0  0  0  0  0
   -4.1467  -10.2222  -14.8142 C   0  0  0  0  0  0  0  0  0  0  0  0
   -6.8475  -10.8735   -9.0891 C   0  0  0  0  0  0  0  0  0  0  0  0
   -2.4470  -11.8156   -6.9869 O   0  0  0  0  0  0  0  0  0  0  0  0
   -1.5238   -9.8462   -5.9999 C   0  0  1  0  0  0  0  0  0  0  0  0
    0.2639  -13.9263  -10.7327 C   0  0  2  0  0  0  0  0  0  0  0  0
   -7.4967   -9.7082   -8.9267 N   0  0  0  0  0  0  0  0  0  0  0  0
   -7.4873  -11.8325   -9.5778 O   0  0  0  0  0  0  0  0  0  0  0  0
   -2.6322   -9.1116   -5.1563 C   0  0  1  0  0  0  0  0  0  0  0  0
   -0.8291  -10.7639   -5.1314 N   0  0  0  0  0  0  0  0  0  0  0  0
   -0.8567  -14.6045  -10.1699 O   0  0  0  0  0  0  0  0  0  0  0  0
    0.7299  -12.7422   -9.8414 C   0  0  2  0  0  0  0  0  0  0  0  0
   -3.2202   -7.8092   -5.7967 C   0  0  1  0  0  0  0  0  0  0  0  0
   -3.7012  -10.0202   -4.8668 O   0  0  0  0  0  0  0  0  0  0  0  0
    0.2644  -10.6293   -4.3095 C   0  0  0  0  0  0  0  0  0  0  0  0
   -0.4207  -12.0097   -9.4761 O   0  0  0  0  0  0  0  0  0  0  0  0
    1.8238  -11.8031  -10.4496 C   0  0  2  0  0  0  0  0  0  0  0  0
   -4.4925   -7.5051   -5.2214 O   0  0  0  0  0  0  0  0  0  0  0  0
   -2.3794   -6.5774   -5.6556 C   0  0  0  0  0  0  0  0  0  0  0  0
    0.4313  -11.6563   -3.6107 O   0  0  0  0  0  0  0  0  0  0  0  0
    1.2750   -9.5303   -4.1090 C   0  0  1  0  0  0  0  0  0  0  0  0
    2.0507  -10.4360   -9.7174 C   0  0  2  0  0  0  0  0  0  0  0  0
   -1.8593   -5.9130   -6.7931 C   0  0  0  0  0  0  0  0  0  0  0  0
   -2.1457   -5.9977   -4.3832 C   0  0  0  0  0  0  0  0  0  0  0  0
    2.3278   -9.4689   -5.0966 N   0  0  0  0  0  0  0  0  0  0  0  0
    0.7480   -8.0818   -3.9865 C   0  0  1  0  0  0  0  0  0  0  0  0
    3.0847   -9.7125  -10.4102 N   0  0  0  0  0  0  0  0  0  0  0  0
    2.4058  -10.5970   -8.2793 C   0  0  0  0  0  0  0  0  0  0  0  0
   -1.1601   -4.6910   -6.6795 C   0  0  0  0  0  0  0  0  0  0  0  0
   -1.4416   -4.7865   -4.2557 C   0  0  0  0  0  0  0  0  0  0  0  0
    3.1964  -10.5188   -5.3635 C   0  0  0  0  0  0  0  0  0  0  0  0
    2.4226   -8.1670   -5.6886 C   0  0  2  0  0  0  0  0  0  0  0  0
    1.8700   -7.2311   -4.5987 C   0  0  2  0  0  0  0  0  0  0  0  0
    3.0106   -8.5848  -11.1754 C   0  0  0  0  0  0  0  0  0  0  0  0
    1.5295  -11.0505   -7.5074 O   0  0  0  0  0  0  0  0  0  0  0  0
    3.6432  -10.2699   -7.7945 N   0  0  0  0  0  0  0  0  0  0  0  0
   -0.7754   -4.0507   -7.8252 O   0  0  0  0  0  0  0  0  0  0  0  0
   -0.9608   -4.1223   -5.3991 C   0  0  0  0  0  0  0  0  0  0  0  0
    3.1420  -11.5311   -4.6240 O   0  0  0  0  0  0  0  0  0  0  0  0
    4.1908  -10.5224   -6.4872 C   0  0  2  0  0  0  0  0  0  0  0  0
    2.8596   -6.9227   -3.6135 O   0  0  0  0  0  0  0  0  0  0  0  0
    4.1024   -8.2330  -11.6781 O   0  0  0  0  0  0  0  0  0  0  0  0
    1.8584   -7.8263  -11.5040 C   0  0  0  0  0  0  0  0  0  0  0  0
    0.9154   -4.1430   -8.1115 S   0  0  1  0  0  0  0  0  0  0  0  0
   -0.3335   -2.9300   -5.2311 O   0  0  0  0  0  0  0  0  0  0  0  0
    5.1380  -11.7705   -6.5621 C   0  0  1  0  0  0  0  0  0  0  0  0
    0.9721   -7.3242  -10.5252 C   0  0  0  0  0  0  0  0  0  0  0  0
    1.5907   -7.5371  -12.8622 C   0  0  0  0  0  0  0  0  0  0  0  0
    1.6540   -2.9127   -7.4044 O   0  0  0  0  0  0  0  0  0  0  0  0
    1.5173   -5.5414   -7.6188 O   0  0  0  0  0  0  0  0  0  0  0  0
    1.1670   -4.0126   -9.7954 O   0  0  0  0  0  0  0  0  0  0  0  0
    4.4649  -13.0969   -7.0070 C   0  0  0  0  0  0  0  0  0  0  0  0
    6.2225  -11.5082   -7.4548 O   0  0  0  0  0  0  0  0  0  0  0  0
   -0.1930   -6.6256  -10.8986 C   0  0  0  0  0  0  0  0  0  0  0  0
    0.4264   -6.8445  -13.2362 C   0  0  0  0  0  0  0  0  0  0  0  0
   -0.5048   -6.4279  -12.2601 C   0  0  0  0  0  0  0  0  0  0  0  0
   -1.7562   -5.9377  -12.6876 C   0  0  0  0  0  0  0  0  0  0  0  0
   -2.9981   -6.4484  -12.3346 C   0  0  0  0  0  0  0  0  0  0  0  0
   -1.9614   -5.0249  -13.6509 N   0  0  0  0  0  0  0  0  0  0  0  0
   -3.9181   -5.9054  -13.2241 C   0  0  0  0  0  0  0  0  0  0  0  0
   -3.2311   -4.9991  -13.9610 O   0  0  0  0  0  0  0  0  0  0  0  0
   -5.2620   -6.3068  -13.4613 C   0  0  0  0  0  0  0  0  0  0  0  0
   -5.9290   -7.2465  -12.6373 C   0  0  0  0  0  0  0  0  0  0  0  0
   -5.9266   -5.8548  -14.6273 C   0  0  0  0  0  0  0  0  0  0  0  0
   -7.1562   -7.8120  -13.0330 C   0  0  0  0  0  0  0  0  0  0  0  0
   -7.1527   -6.4211  -15.0252 C   0  0  0  0  0  0  0  0  0  0  0  0
   -7.7516   -7.4358  -14.2543 C   0  0  0  0  0  0  0  0  0  0  0  0
   -8.8342   -8.1120  -14.7556 O   0  0  0  0  0  0  0  0  0  0  0  0
  -10.1155   -7.7939  -14.1799 C   0  0  2  0  0  0  0  0  0  0  0  0
  -11.1520   -8.7547  -14.8153 C   0  0  2  0  0  0  0  0  0  0  0  0
  -12.6000   -8.6079  -14.2729 C   0  0  1  0  0  0  0  0  0  0  0  0
  -13.5542   -9.6632  -14.8995 C   0  0  1  0  0  0  0  0  0  0  0  0
  -15.0039   -9.5724  -14.3781 C   0  0  0  0  0  0  0  0  0  0  0  0
    1.7840   -9.7248   -3.1542 H   0  0  0  0  0  0  0  0  0  0  0  0
   -2.8931  -11.7015   -9.4551 H   0  0  0  0  0  0  0  0  0  0  0  0
   -2.5846  -12.8671  -11.3582 H   0  0  0  0  0  0  0  0  0  0  0  0
   -1.0553  -10.0646  -13.5747 H   0  0  0  0  0  0  0  0  0  0  0  0
   -2.4923   -9.1362  -13.1174 H   0  0  0  0  0  0  0  0  0  0  0  0
   -4.7856  -10.4954  -10.7058 H   0  0  0  0  0  0  0  0  0  0  0  0
   -2.1973   -9.0578   -8.3968 H   0  0  0  0  0  0  0  0  0  0  0  0
   -3.3586  -13.1412  -13.9186 H   0  0  0  0  0  0  0  0  0  0  0  0
   -2.3402  -11.3182  -15.0048 H   0  0  0  0  0  0  0  0  0  0  0  0
   -5.1658  -12.0850   -8.7543 H   0  0  0  0  0  0  0  0  0  0  0  0
   -5.2792  -10.6809   -7.6920 H   0  0  0  0  0  0  0  0  0  0  0  0
   -4.4415   -8.6385   -8.6178 H   0  0  0  0  0  0  0  0  0  0  0  0
   -5.2560  -12.0805  -13.4263 H   0  0  0  0  0  0  0  0  0  0  0  0
    0.7284  -13.9456  -12.6967 H   0  0  0  0  0  0  0  0  0  0  0  0
   -3.7603   -9.4029  -15.4272 H   0  0  0  0  0  0  0  0  0  0  0  0
   -4.7199  -10.8938  -15.4591 H   0  0  0  0  0  0  0  0  0  0  0  0
   -4.8081   -9.8062  -14.0531 H   0  0  0  0  0  0  0  0  0  0  0  0
   -0.8066   -9.1357   -6.4191 H   0  0  0  0  0  0  0  0  0  0  0  0
    1.0783  -14.6540  -10.7373 H   0  0  0  0  0  0  0  0  0  0  0  0
   -8.4279   -9.6271   -9.1881 H   0  0  0  0  0  0  0  0  0  0  0  0
   -7.0347   -8.9476   -8.5464 H   0  0  0  0  0  0  0  0  0  0  0  0
   -2.2243   -8.8471   -4.1786 H   0  0  0  0  0  0  0  0  0  0  0  0
   -1.2410  -11.6428   -5.0825 H   0  0  0  0  0  0  0  0  0  0  0  0
   -0.9935  -15.3899  -10.7428 H   0  0  0  0  0  0  0  0  0  0  0  0
    1.1263  -13.1722   -8.9162 H   0  0  0  0  0  0  0  0  0  0  0  0
   -3.4264   -8.0075   -6.8489 H   0  0  0  0  0  0  0  0  0  0  0  0
   -3.2948  -10.7280   -4.3253 H   0  0  0  0  0  0  0  0  0  0  0  0
   -0.1240  -11.3615   -8.8062 H   0  0  0  0  0  0  0  0  0  0  0  0
    1.5562  -11.5663  -11.4838 H   0  0  0  0  0  0  0  0  0  0  0  0
    2.7661  -12.3589  -10.4766 H   0  0  0  0  0  0  0  0  0  0  0  0
   -4.8192   -6.7272   -5.7209 H   0  0  0  0  0  0  0  0  0  0  0  0
    1.1117   -9.8863   -9.7556 H   0  0  0  0  0  0  0  0  0  0  0  0
   -2.0130   -6.3051   -7.7246 H   0  0  0  0  0  0  0  0  0  0  0  0
   -2.4989   -6.4487   -3.5352 H   0  0  0  0  0  0  0  0  0  0  0  0
   -0.1426   -7.9276   -4.5801 H   0  0  0  0  0  0  0  0  0  0  0  0
    0.5355   -7.8036   -2.9491 H   0  0  0  0  0  0  0  0  0  0  0  0
    3.9742  -10.0937  -10.3300 H   0  0  0  0  0  0  0  0  0  0  0  0
   -1.2952   -4.3797   -3.3270 H   0  0  0  0  0  0  0  0  0  0  0  0
    1.7961   -8.1264   -6.5846 H   0  0  0  0  0  0  0  0  0  0  0  0
    3.4400   -7.8660   -5.9472 H   0  0  0  0  0  0  0  0  0  0  0  0
    1.4856   -6.3004   -5.0221 H   0  0  0  0  0  0  0  0  0  0  0  0
    4.2501   -9.8531   -8.4249 H   0  0  0  0  0  0  0  0  0  0  0  0
    4.8559   -9.6807   -6.2858 H   0  0  0  0  0  0  0  0  0  0  0  0
    3.5427   -6.4025   -4.0872 H   0  0  0  0  0  0  0  0  0  0  0  0
   -0.2459   -2.5426   -6.1266 H   0  0  0  0  0  0  0  0  0  0  0  0
    5.5913  -11.9246   -5.5780 H   0  0  0  0  0  0  0  0  0  0  0  0
    1.1618   -7.4750   -9.5321 H   0  0  0  0  0  0  0  0  0  0  0  0
    2.2256   -7.8555  -13.6000 H   0  0  0  0  0  0  0  0  0  0  0  0
    2.0785   -4.3475   -9.9359 H   0  0  0  0  0  0  0  0  0  0  0  0
    5.1881  -13.9141   -6.9523 H   0  0  0  0  0  0  0  0  0  0  0  0
    3.6192  -13.3501   -6.3668 H   0  0  0  0  0  0  0  0  0  0  0  0
    4.1103  -13.0213   -8.0369 H   0  0  0  0  0  0  0  0  0  0  0  0
    5.8138  -11.4111   -8.3413 H   0  0  0  0  0  0  0  0  0  0  0  0
   -0.8251   -6.2903  -10.1697 H   0  0  0  0  0  0  0  0  0  0  0  0
    0.2435   -6.6906  -14.2325 H   0  0  0  0  0  0  0  0  0  0  0  0
   -3.1817   -7.1568  -11.6265 H   0  0  0  0  0  0  0  0  0  0  0  0
   -5.5179   -7.5567  -11.7565 H   0  0  0  0  0  0  0  0  0  0  0  0
   -5.5071   -5.1363  -15.2231 H   0  0  0  0  0  0  0  0  0  0  0  0
   -7.5995   -8.5220  -12.4452 H   0  0  0  0  0  0  0  0  0  0  0  0
   -7.5895   -6.1155  -15.8979 H   0  0  0  0  0  0  0  0  0  0  0  0
  -10.3840   -6.7571  -14.4038 H   0  0  0  0  0  0  0  0  0  0  0  0
  -10.1036   -7.9433  -13.0957 H   0  0  0  0  0  0  0  0  0  0  0  0
  -10.8154   -9.7803  -14.6375 H   0  0  0  0  0  0  0  0  0  0  0  0
  -11.1611   -8.5882  -15.8964 H   0  0  0  0  0  0  0  0  0  0  0  0
  -12.5906   -8.7334  -13.1866 H   0  0  0  0  0  0  0  0  0  0  0  0
  -12.9706   -7.6040  -14.4985 H   0  0  0  0  0  0  0  0  0  0  0  0
  -13.5698   -9.5380  -15.9852 H   0  0  0  0  0  0  0  0  0  0  0  0
  -13.1752  -10.6649  -14.6821 H   0  0  0  0  0  0  0  0  0  0  0  0
  -15.6089  -10.3547  -14.8400 H   0  0  0  0  0  0  0  0  0  0  0  0
  -15.0304   -9.7076  -13.2958 H   0  0  0  0  0  0  0  0  0  0  0  0
  -15.4391   -8.6039  -14.6281 H   0  0  0  0  0  0  0  0  0  0  0  0
  1  2  2  0  0  0  0 
  2  3  1  0  0  0  0 
  4  2  1  0  0  0  0 
  5  3  1  0  0  0  0 
  3  6  1  0  0  0  0 
  7  4  1  0  0  0  0 
  4  8  1  0  0  0  0 
  4 91  1  0  0  0  0 
  9  5  1  0  0  0  0 
  5 10  1  0  0  0  0 
  5 92  1  0  0  0  0 
 11  6  1  0  0  0  0 
  7 12  1  0  0  0  0 
  7 13  1  0  0  0  0 
  8 14  1  0  0  0  0 
 11  9  1  0  0  0  0 
  9 15  1  0  0  0  0 
 10 16  2  0  0  0  0 
 10 17  1  0  0  0  0 
 11 18  1  0  0  0  0 
 12 19  1  0  0  0  0 
 14 20  2  0  0  0  0 
 14 21  1  0  0  0  0 
 22 17  1  0  0  0  0 
 19 23  1  0  0  0  0 
 19 24  2  0  0  0  0 
 25 21  1  0  0  0  0 
 21 26  1  0  0  0  0 
 22 27  1  0  0  0  0 
 28 22  1  0  0  0  0 
 29 25  1  0  0  0  0 
 25 30  1  0  0  0  0 
 26 31  1  0  0  0  0 
 28 32  1  0  0  0  0 
 28 33  1  0  0  0  0 
 29 34  1  0  0  0  0 
 29 35  1  0  0  0  0 
 31 36  2  0  0  0  0 
 37 31  1  0  0  0  0 
 38 33  1  0  0  0  0 
 35 39  2  0  0  0  0 
 35 40  1  0  0  0  0 
 37 41  1  0  0  0  0 
 37 42  1  0  0  0  0 
 37 90  1  0  0  0  0 
 38 43  1  0  0  0  0 
 38 44  1  0  0  0  0 
 39 45  1  0  0  0  0 
 40 46  2  0  0  0  0 
 41 47  1  0  0  0  0 
 41 48  1  0  0  0  0 
 49 42  1  0  0  0  0 
 43 50  1  0  0  0  0 
 44 51  2  0  0  0  0 
 44 52  1  0  0  0  0 
 45 53  1  0  0  0  0 
 45 54  2  0  0  0  0 
 46 54  1  0  0  0  0 
 47 55  2  0  0  0  0 
 47 56  1  0  0  0  0 
 49 48  1  0  0  0  0 
 49 57  1  0  0  0  0 
 50 58  2  0  0  0  0 
 50 59  1  0  0  0  0 
 52 56  1  0  0  0  0 
 53 60  1  0  0  0  0 
 54 61  1  0  0  0  0 
 62 56  1  0  0  0  0 
 59 63  2  0  0  0  0 
 59 64  1  0  0  0  0 
 60 65  2  0  0  0  0 
 60 66  2  0  0  0  0 
 60 67  1  0  0  0  0 
 62 68  1  0  0  0  0 
 62 69  1  0  0  0  0 
 63 70  1  0  0  0  0 
 64 71  2  0  0  0  0 
 70 72  2  0  0  0  0 
 71 72  1  0  0  0  0 
 72 73  1  0  0  0  0 
 73 74  1  0  0  0  0 
 73 75  2  0  0  0  0 
 74 76  2  0  0  0  0 
 75 77  1  0  0  0  0 
 76 77  1  0  0  0  0 
 76 78  1  0  0  0  0 
 78 79  2  0  0  0  0 
 78 80  1  0  0  0  0 
 79 81  1  0  0  0  0 
 80 82  2  0  0  0  0 
 81 83  2  0  0  0  0 
 82 83  1  0  0  0  0 
 83 84  1  0  0  0  0 
 84 85  1  0  0  0  0 
 85 86  1  0  0  0  0 
 86 87  1  0  0  0  0 
 87 88  1  0  0  0  0 
 88 89  1  0  0  0  0 
  6 93  1  0  0  0  0 
  6 94  1  0  0  0  0 
  7 95  1  0  0  0  0 
  8 96  1  0  0  0  0 
  9 97  1  0  0  0  0 
 11 98  1  0  0  0  0 
 12 99  1  0  0  0  0 
 12100  1  0  0  0  0 
 13101  1  0  0  0  0 
 15102  1  0  0  0  0 
 17103  1  0  0  0  0 
 18104  1  0  0  0  0 
 18105  1  0  0  0  0 
 18106  1  0  0  0  0 
 21107  1  0  0  0  0 
 22108  1  0  0  0  0 
 23109  1  0  0  0  0 
 23110  1  0  0  0  0 
 25111  1  0  0  0  0 
 26112  1  0  0  0  0 
 27113  1  0  0  0  0 
 28114  1  0  0  0  0 
 29115  1  0  0  0  0 
 30116  1  0  0  0  0 
 32117  1  0  0  0  0 
 33118  1  0  0  0  0 
 33119  1  0  0  0  0 
 34120  1  0  0  0  0 
 38121  1  0  0  0  0 
 39122  1  0  0  0  0 
 40123  1  0  0  0  0 
 42124  1  0  0  0  0 
 42125  1  0  0  0  0 
 43126  1  0  0  0  0 
 46127  1  0  0  0  0 
 48128  1  0  0  0  0 
 48129  1  0  0  0  0 
 49130  1  0  0  0  0 
 52131  1  0  0  0  0 
 56132  1  0  0  0  0 
 57133  1  0  0  0  0 
 61134  1  0  0  0  0 
 62135  1  0  0  0  0 
 63136  1  0  0  0  0 
 64137  1  0  0  0  0 
 67138  1  0  0  0  0 
 68139  1  0  0  0  0 
 68140  1  0  0  0  0 
 68141  1  0  0  0  0 
 69142  1  0  0  0  0 
 70143  1  0  0  0  0 
 71144  1  0  0  0  0 
 74145  1  0  0  0  0 
 79146  1  0  0  0  0 
 80147  1  0  0  0  0 
 81148  1  0  0  0  0 
 82149  1  0  0  0  0 
 85150  1  0  0  0  0 
 85151  1  0  0  0  0 
 86152  1  0  0  0  0 
 86153  1  0  0  0  0 
 87154  1  0  0  0  0 
 87155  1  0  0  0  0 
 88156  1  0  0  0  0 
 88157  1  0  0  0  0 
 89158  1  0  0  0  0 
 89159  1  0  0  0  0 
 89160  1  0  0  0  0 
M  END
> <cdk:Title>
micafungin

> <Conformer>
1

> <SuperDrugID>
SD001598

$$$$
