anastrozole
  CDK     0628171801

 41 42  0  0  0  0  0  0  0  0999 V2000
   -3.9741    4.0356   -0.7491 C   0  0  1  0  0  0  0  0  0  0  0  0
   -3.1872    3.1373    0.1973 C   0  0  0  0  0  0  0  0  0  0  0  0
   -3.5243    3.0041    1.5708 C   0  0  0  0  0  0  0  0  0  0  0  0
   -2.0948    2.3507   -0.2507 C   0  0  0  0  0  0  0  0  0  0  0  0
   -2.7778    2.2327    2.5029 C   0  0  0  0  0  0  0  0  0  0  0  0
   -1.3084    1.5721    0.6238 C   0  0  0  0  0  0  0  0  0  0  0  0
   -3.1792    2.2008    3.9694 C   0  0  1  0  0  0  0  0  0  0  0  0
   -1.6594    1.5312    1.9883 C   0  0  0  0  0  0  0  0  0  0  0  0
   -0.1262    0.8258    0.1094 C   0  0  1  0  0  0  0  0  0  0  0  0
   -2.3049    1.2861    4.8993 C   0  0  0  0  0  0  0  0  0  0  0  0
   -3.1335    3.6466    4.5698 C   0  0  0  0  0  0  0  0  0  0  0  0
    0.8472    1.7409   -0.4036 N   0  0  0  0  0  0  0  0  0  0  0  0
    1.7919    2.3921    0.2998 C   0  0  0  0  0  0  0  0  0  0  0  0
    0.9256    2.1152   -1.6411 N   0  0  0  0  0  0  0  0  0  0  0  0
    2.4708    3.2069   -0.5167 N   0  0  0  0  0  0  0  0  0  0  0  0
    1.9121    3.0203   -1.7196 C   0  0  0  0  0  0  0  0  0  0  0  0
   -3.1158    4.6161   -1.9333 C   0  0  0  0  0  0  0  0  0  0  0  0
   -4.9836    3.2581   -1.2821 C   0  0  0  0  0  0  0  0  0  0  0  0
   -4.6334    5.2812   -0.0502 C   0  0  0  0  0  0  0  0  0  0  0  0
   -5.8247    2.6097   -1.7207 N   0  0  0  0  0  0  0  0  0  0  0  0
   -4.4732    1.7132    4.0583 C   0  0  0  0  0  0  0  0  0  0  0  0
   -5.5458    1.3096    4.1363 N   0  0  0  0  0  0  0  0  0  0  0  0
   -4.3532    3.4805    1.9170 H   0  0  0  0  0  0  0  0  0  0  0  0
   -1.8525    2.3345   -1.2402 H   0  0  0  0  0  0  0  0  0  0  0  0
   -1.0770    0.9705    2.6087 H   0  0  0  0  0  0  0  0  0  0  0  0
    0.3338    0.2058    0.8841 H   0  0  0  0  0  0  0  0  0  0  0  0
   -0.4512    0.1428   -0.6796 H   0  0  0  0  0  0  0  0  0  0  0  0
   -2.6682    1.2981    5.9319 H   0  0  0  0  0  0  0  0  0  0  0  0
   -2.3120    0.2466    4.5600 H   0  0  0  0  0  0  0  0  0  0  0  0
   -1.2680    1.6304    4.9197 H   0  0  0  0  0  0  0  0  0  0  0  0
   -3.3969    3.6426    5.6302 H   0  0  0  0  0  0  0  0  0  0  0  0
   -3.8270    4.3235    4.0669 H   0  0  0  0  0  0  0  0  0  0  0  0
   -2.1291    4.0667    4.4731 H   0  0  0  0  0  0  0  0  0  0  0  0
    1.9674    2.2919    1.3005 H   0  0  0  0  0  0  0  0  0  0  0  0
    2.1916    3.5006   -2.5756 H   0  0  0  0  0  0  0  0  0  0  0  0
   -3.6878    5.3316   -2.5330 H   0  0  0  0  0  0  0  0  0  0  0  0
   -2.7743    3.8424   -2.6248 H   0  0  0  0  0  0  0  0  0  0  0  0
   -2.2374    5.1369   -1.5432 H   0  0  0  0  0  0  0  0  0  0  0  0
   -5.1029    5.9511   -0.7774 H   0  0  0  0  0  0  0  0  0  0  0  0
   -5.4175    5.0008    0.6564 H   0  0  0  0  0  0  0  0  0  0  0  0
   -3.8757    5.8545    0.4894 H   0  0  0  0  0  0  0  0  0  0  0  0
  1  2  1  0  0  0  0 
  2  3  2  0  0  0  0 
  2  4  1  0  0  0  0 
  3  5  1  0  0  0  0 
  4  6  2  0  0  0  0 
  5  7  1  0  0  0  0 
  5  8  2  0  0  0  0 
  6  8  1  0  0  0  0 
  6  9  1  0  0  0  0 
  7 10  1  0  0  0  0 
  7 11  1  0  0  0  0 
  9 12  1  0  0  0  0 
 12 13  1  0  0  0  0 
 12 14  1  0  0  0  0 
 13 15  2  0  0  0  0 
 14 16  2  0  0  0  0 
 15 16  1  0  0  0  0 
  1 17  1  0  0  0  0 
  1 18  1  0  0  0  0 
  1 19  1  0  0  0  0 
 18 20  3  0  0  0  0 
  7 21  1  0  0  0  0 
 21 22  3  0  0  0  0 
  3 23  1  0  0  0  0 
  4 24  1  0  0  0  0 
  8 25  1  0  0  0  0 
  9 26  1  0  0  0  0 
  9 27  1  0  0  0  0 
 10 28  1  0  0  0  0 
 10 29  1  0  0  0  0 
 10 30  1  0  0  0  0 
 11 31  1  0  0  0  0 
 11 32  1  0  0  0  0 
 11 33  1  0  0  0  0 
 13 34  1  0  0  0  0 
 16 35  1  0  0  0  0 
 17 36  1  0  0  0  0 
 17 37  1  0  0  0  0 
 17 38  1  0  0  0  0 
 19 39  1  0  0  0  0 
 19 40  1  0  0  0  0 
 19 41  1  0  0  0  0 
M  END
> <cdk:Title>
anastrozole

> <Conformer>
1

> <SuperDrugID>
SD000173

$$$$
