atrolactamide
  CDK     0628171801

 23 23  0  0  0  0  0  0  0  0999 V2000
    1.8778    4.9429   -0.9288 C   0  0  0  0  0  0  0  0  0  0  0  0
    2.3728    3.6715   -0.1735 C   0  0  2  0  0  0  0  0  0  0  0  0
    2.9065    4.1516    1.0669 O   0  0  0  0  0  0  0  0  0  0  0  0
    3.5326    3.0367   -0.8702 C   0  0  0  0  0  0  0  0  0  0  0  0
    4.6142    3.7558   -1.2282 N   0  0  0  0  0  0  0  0  0  0  0  0
    3.5762    1.8119   -1.1308 O   0  0  0  0  0  0  0  0  0  0  0  0
    1.2119    2.7252    0.0497 C   0  0  0  0  0  0  0  0  0  0  0  0
    0.7113    2.4234    1.3433 C   0  0  0  0  0  0  0  0  0  0  0  0
   -0.3673    1.5360    1.5222 C   0  0  0  0  0  0  0  0  0  0  0  0
   -0.9810    0.9384    0.4091 C   0  0  0  0  0  0  0  0  0  0  0  0
   -0.5092    1.2226   -0.8826 C   0  0  0  0  0  0  0  0  0  0  0  0
    0.5725    2.1065   -1.0576 C   0  0  0  0  0  0  0  0  0  0  0  0
    1.0399    5.3986   -0.3947 H   0  0  0  0  0  0  0  0  0  0  0  0
    1.5543    4.7037   -1.9437 H   0  0  0  0  0  0  0  0  0  0  0  0
    2.6714    5.6917   -0.9954 H   0  0  0  0  0  0  0  0  0  0  0  0
    3.2148    3.3494    1.5407 H   0  0  0  0  0  0  0  0  0  0  0  0
    5.3576    3.3240   -1.6777 H   0  0  0  0  0  0  0  0  0  0  0  0
    4.6554    4.7058   -1.0392 H   0  0  0  0  0  0  0  0  0  0  0  0
    1.1238    2.8454    2.1781 H   0  0  0  0  0  0  0  0  0  0  0  0
   -0.7067    1.3262    2.4638 H   0  0  0  0  0  0  0  0  0  0  0  0
   -1.7693    0.3008    0.5381 H   0  0  0  0  0  0  0  0  0  0  0  0
   -0.9518    0.7862   -1.6932 H   0  0  0  0  0  0  0  0  0  0  0  0
    0.8987    2.2932   -2.0085 H   0  0  0  0  0  0  0  0  0  0  0  0
  1  2  1  0  0  0  0 
  2  3  1  0  0  0  0 
  2  4  1  0  0  0  0 
  4  5  1  0  0  0  0 
  4  6  2  0  0  0  0 
  2  7  1  0  0  0  0 
  7  8  2  0  0  0  0 
  8  9  1  0  0  0  0 
  9 10  2  0  0  0  0 
 10 11  1  0  0  0  0 
 11 12  2  0  0  0  0 
  7 12  1  0  0  0  0 
  1 13  1  0  0  0  0 
  1 14  1  0  0  0  0 
  1 15  1  0  0  0  0 
  3 16  1  0  0  0  0 
  5 17  1  0  0  0  0 
  5 18  1  0  0  0  0 
  8 19  1  0  0  0  0 
  9 20  1  0  0  0  0 
 10 21  1  0  0  0  0 
 11 22  1  0  0  0  0 
 12 23  1  0  0  0  0 
M  END
> <cdk:Title>
atrolactamide

> <Conformer>
1

> <SuperDrugID>
SD003147

$$$$
