cetalkonium chloride
  CDK     0628171801

 72 72  0  0  0  0  0  0  0  0999 V2000
   -1.3429   -2.0661   -0.7877 C   0  0  2  0  0  0  0  0  0  0  0  0
   -0.7666   -0.8054   -0.1433 N   0  0  2  0  0  0  0  0  0  0  0  0
   -1.3806   -3.3154    0.0356 C   0  0  0  0  0  0  0  0  0  0  0  0
    0.6682   -0.9713    0.3484 C   0  0  1  0  0  0  0  0  0  0  0  0
   -1.6136   -0.4080    1.0500 C   0  0  0  0  0  0  0  0  0  0  0  0
   -0.8431    0.3242   -1.1506 C   0  0  0  0  0  0  0  0  0  0  0  0
   -2.5320   -3.6520    0.7874 C   0  0  0  0  0  0  0  0  0  0  0  0
   -0.2752   -4.2008    0.0674 C   0  0  0  0  0  0  0  0  0  0  0  0
    1.7902   -1.1955   -0.7102 C   0  0  2  0  0  0  0  0  0  0  0  0
   -2.5677   -4.8207    1.5734 C   0  0  0  0  0  0  0  0  0  0  0  0
   -0.3068   -5.3656    0.8574 C   0  0  0  0  0  0  0  0  0  0  0  0
    3.1205   -1.7212   -0.1005 C   0  0  1  0  0  0  0  0  0  0  0  0
   -1.4562   -5.6803    1.6047 C   0  0  0  0  0  0  0  0  0  0  0  0
    4.1438   -2.0947   -1.2058 C   0  0  2  0  0  0  0  0  0  0  0  0
    5.5327   -2.4947   -0.6492 C   0  0  2  0  0  0  0  0  0  0  0  0
    6.5217   -2.8264   -1.7968 C   0  0  1  0  0  0  0  0  0  0  0  0
    7.9419   -3.1696   -1.2857 C   0  0  2  0  0  0  0  0  0  0  0  0
    8.9227   -3.4737   -2.4485 C   0  0  2  0  0  0  0  0  0  0  0  0
   10.3433   -3.8106   -1.9277 C   0  0  1  0  0  0  0  0  0  0  0  0
   11.3491   -4.1231   -3.0648 C   0  0  2  0  0  0  0  0  0  0  0  0
   12.7584   -4.4597   -2.5119 C   0  0  2  0  0  0  0  0  0  0  0  0
   13.7702   -4.7758   -3.6409 C   0  0  2  0  0  0  0  0  0  0  0  0
   15.1794   -5.1136   -3.0919 C   0  0  1  0  0  0  0  0  0  0  0  0
   16.1824   -5.4281   -4.2312 C   0  0  1  0  0  0  0  0  0  0  0  0
   17.5974   -5.7681   -3.6966 C   0  0  2  0  0  0  0  0  0  0  0  0
   18.5942   -6.0809   -4.8341 C   0  0  0  0  0  0  0  0  0  0  0  0
   -0.8141   -2.3055   -1.7146 H   0  0  0  0  0  0  0  0  0  0  0  0
   -2.3671   -1.8633   -1.1199 H   0  0  0  0  0  0  0  0  0  0  0  0
    0.9717   -0.0797    0.9096 H   0  0  0  0  0  0  0  0  0  0  0  0
    0.7096   -1.7964    1.0653 H   0  0  0  0  0  0  0  0  0  0  0  0
   -2.6737   -0.3222    0.7931 H   0  0  0  0  0  0  0  0  0  0  0  0
   -1.5312   -1.1358    1.8612 H   0  0  0  0  0  0  0  0  0  0  0  0
   -1.3006    0.5577    1.4596 H   0  0  0  0  0  0  0  0  0  0  0  0
   -0.3529    0.0642   -2.0910 H   0  0  0  0  0  0  0  0  0  0  0  0
   -1.8771    0.5685   -1.4058 H   0  0  0  0  0  0  0  0  0  0  0  0
   -0.3712    1.2381   -0.7750 H   0  0  0  0  0  0  0  0  0  0  0  0
   -3.3572   -3.0468    0.7708 H   0  0  0  0  0  0  0  0  0  0  0  0
    0.5618   -4.0003   -0.4850 H   0  0  0  0  0  0  0  0  0  0  0  0
    1.9977   -0.2461   -1.2105 H   0  0  0  0  0  0  0  0  0  0  0  0
    1.4520   -1.8989   -1.4690 H   0  0  0  0  0  0  0  0  0  0  0  0
   -3.4036   -5.0413    2.1221 H   0  0  0  0  0  0  0  0  0  0  0  0
    0.5058   -5.9865    0.8891 H   0  0  0  0  0  0  0  0  0  0  0  0
    3.5464   -0.9520    0.5505 H   0  0  0  0  0  0  0  0  0  0  0  0
    2.9231   -2.6070    0.5113 H   0  0  0  0  0  0  0  0  0  0  0  0
   -1.4875   -6.5357    2.1643 H   0  0  0  0  0  0  0  0  0  0  0  0
    4.2690   -1.2427   -1.8796 H   0  0  0  0  0  0  0  0  0  0  0  0
    3.7461   -2.9293   -1.7909 H   0  0  0  0  0  0  0  0  0  0  0  0
    5.4256   -3.3663    0.0030 H   0  0  0  0  0  0  0  0  0  0  0  0
    5.9319   -1.6677   -0.0550 H   0  0  0  0  0  0  0  0  0  0  0  0
    6.1316   -3.6748   -2.3667 H   0  0  0  0  0  0  0  0  0  0  0  0
    6.5871   -1.9653   -2.4681 H   0  0  0  0  0  0  0  0  0  0  0  0
    7.8841   -4.0397   -0.6257 H   0  0  0  0  0  0  0  0  0  0  0  0
    8.3261   -2.3258   -0.7055 H   0  0  0  0  0  0  0  0  0  0  0  0
    8.9791   -2.6038   -3.1095 H   0  0  0  0  0  0  0  0  0  0  0  0
    8.5415   -4.3183   -3.0297 H   0  0  0  0  0  0  0  0  0  0  0  0
   10.7178   -2.9624   -1.3474 H   0  0  0  0  0  0  0  0  0  0  0  0
   10.2797   -4.6769   -1.2632 H   0  0  0  0  0  0  0  0  0  0  0  0
   11.4209   -3.2573   -3.7296 H   0  0  0  0  0  0  0  0  0  0  0  0
   10.9796   -4.9715   -3.6483 H   0  0  0  0  0  0  0  0  0  0  0  0
   12.6850   -5.3240   -1.8456 H   0  0  0  0  0  0  0  0  0  0  0  0
   13.1269   -3.6108   -1.9289 H   0  0  0  0  0  0  0  0  0  0  0  0
   13.8442   -3.9112   -4.3063 H   0  0  0  0  0  0  0  0  0  0  0  0
   13.4014   -5.6246   -4.2234 H   0  0  0  0  0  0  0  0  0  0  0  0
   15.5520   -4.2657   -2.5098 H   0  0  0  0  0  0  0  0  0  0  0  0
   15.1090   -5.9792   -2.4268 H   0  0  0  0  0  0  0  0  0  0  0  0
   15.8078   -6.2755   -4.8134 H   0  0  0  0  0  0  0  0  0  0  0  0
   16.2509   -4.5621   -4.8964 H   0  0  0  0  0  0  0  0  0  0  0  0
   17.5378   -6.6362   -3.0339 H   0  0  0  0  0  0  0  0  0  0  0  0
   17.9806   -4.9234   -3.1169 H   0  0  0  0  0  0  0  0  0  0  0  0
   19.5730   -6.3134   -4.4108 H   0  0  0  0  0  0  0  0  0  0  0  0
   18.2510   -6.9397   -5.4150 H   0  0  0  0  0  0  0  0  0  0  0  0
   18.6956   -5.2199   -5.4984 H   0  0  0  0  0  0  0  0  0  0  0  0
  1  2  1  0  0  0  0 
  1  3  1  0  0  0  0 
  2  4  1  0  0  0  0 
  2  5  1  0  0  0  0 
  2  6  1  0  0  0  0 
  3  7  2  0  0  0  0 
  3  8  1  0  0  0  0 
  4  9  1  0  0  0  0 
  7 10  1  0  0  0  0 
  8 11  2  0  0  0  0 
  9 12  1  0  0  0  0 
 10 13  2  0  0  0  0 
 11 13  1  0  0  0  0 
 12 14  1  0  0  0  0 
 14 15  1  0  0  0  0 
 15 16  1  0  0  0  0 
 16 17  1  0  0  0  0 
 17 18  1  0  0  0  0 
 18 19  1  0  0  0  0 
 19 20  1  0  0  0  0 
 20 21  1  0  0  0  0 
 21 22  1  0  0  0  0 
 22 23  1  0  0  0  0 
 23 24  1  0  0  0  0 
 24 25  1  0  0  0  0 
 25 26  1  0  0  0  0 
  1 27  1  0  0  0  0 
  1 28  1  0  0  0  0 
  4 29  1  0  0  0  0 
  4 30  1  0  0  0  0 
  5 31  1  0  0  0  0 
  5 32  1  0  0  0  0 
  5 33  1  0  0  0  0 
  6 34  1  0  0  0  0 
  6 35  1  0  0  0  0 
  6 36  1  0  0  0  0 
  7 37  1  0  0  0  0 
  8 38  1  0  0  0  0 
  9 39  1  0  0  0  0 
  9 40  1  0  0  0  0 
 10 41  1  0  0  0  0 
 11 42  1  0  0  0  0 
 12 43  1  0  0  0  0 
 12 44  1  0  0  0  0 
 13 45  1  0  0  0  0 
 14 46  1  0  0  0  0 
 14 47  1  0  0  0  0 
 15 48  1  0  0  0  0 
 15 49  1  0  0  0  0 
 16 50  1  0  0  0  0 
 16 51  1  0  0  0  0 
 17 52  1  0  0  0  0 
 17 53  1  0  0  0  0 
 18 54  1  0  0  0  0 
 18 55  1  0  0  0  0 
 19 56  1  0  0  0  0 
 19 57  1  0  0  0  0 
 20 58  1  0  0  0  0 
 20 59  1  0  0  0  0 
 21 60  1  0  0  0  0 
 21 61  1  0  0  0  0 
 22 62  1  0  0  0  0 
 22 63  1  0  0  0  0 
 23 64  1  0  0  0  0 
 23 65  1  0  0  0  0 
 24 66  1  0  0  0  0 
 24 67  1  0  0  0  0 
 25 68  1  0  0  0  0 
 25 69  1  0  0  0  0 
 26 70  1  0  0  0  0 
 26 71  1  0  0  0  0 
 26 72  1  0  0  0  0 
M  CHG  1   2   1
M  END
> <cdk:Title>
cetalkonium chloride

> <Conformer>
1

> <SuperDrugID>
SD002673

$$$$
