abacavir
  CDK     0628171801

 39 42  0  0  0  0  0  0  0  0999 V2000
   -0.3480   -4.4301    5.0053 C   0  0  0  0  0  0  0  0  0  0  0  0
   -0.2062   -4.0675    3.6689 C   0  0  0  0  0  0  0  0  0  0  0  0
   -1.2605   -3.5841    2.9627 N   0  0  0  0  0  0  0  0  0  0  0  0
   -2.4753   -3.4628    3.5655 C   0  0  0  0  0  0  0  0  0  0  0  0
   -2.6287   -3.8219    4.8714 N   0  0  0  0  0  0  0  0  0  0  0  0
   -1.6026   -4.3087    5.6296 C   0  0  0  0  0  0  0  0  0  0  0  0
    1.0696   -4.3165    3.3089 N   0  0  0  0  0  0  0  0  0  0  0  0
    1.6760   -4.7892    4.4238 C   0  0  0  0  0  0  0  0  0  0  0  0
    0.8296   -4.8659    5.4687 N   0  0  0  0  0  0  0  0  0  0  0  0
    1.6913   -4.1552    2.0126 C   0  0  2  0  0  0  0  0  0  0  0  0
   -1.7533   -4.6694    6.9302 N   0  0  0  0  0  0  0  0  0  0  0  0
   -2.9594   -4.5079    7.6727 C   0  0  1  0  0  0  0  0  0  0  0  0
   -3.6950   -5.7830    8.1007 C   0  0  1  0  0  0  0  0  0  0  0  0
   -2.9066   -4.9735    9.1367 C   0  0  1  0  0  0  0  0  0  0  0  0
   -3.5241   -2.9862    2.8784 N   0  0  0  0  0  0  0  0  0  0  0  0
    2.0346   -2.6868    1.6409 C   0  0  1  0  0  0  0  0  0  0  0  0
    1.3482   -2.4034    0.2726 C   0  0  1  0  0  0  0  0  0  0  0  0
    0.6648   -3.6404   -0.0043 C   0  0  0  0  0  0  0  0  0  0  0  0
    0.8572   -4.5786    0.9186 C   0  0  0  0  0  0  0  0  0  0  0  0
    0.4139   -1.1617    0.2754 C   0  0  2  0  0  0  0  0  0  0  0  0
   -0.1695   -0.9569   -1.0085 O   0  0  0  0  0  0  0  0  0  0  0  0
    2.6594   -5.0628    4.4790 H   0  0  0  0  0  0  0  0  0  0  0  0
    2.6070   -4.7561    1.9706 H   0  0  0  0  0  0  0  0  0  0  0  0
   -0.9887   -5.0596    7.3834 H   0  0  0  0  0  0  0  0  0  0  0  0
   -3.5905   -3.6338    7.4976 H   0  0  0  0  0  0  0  0  0  0  0  0
   -4.7807   -5.7082    8.1861 H   0  0  0  0  0  0  0  0  0  0  0  0
   -3.2393   -6.7341    7.8138 H   0  0  0  0  0  0  0  0  0  0  0  0
   -1.9675   -5.4169    9.4755 H   0  0  0  0  0  0  0  0  0  0  0  0
   -3.4984   -4.3859    9.8386 H   0  0  0  0  0  0  0  0  0  0  0  0
   -3.4231   -2.7406    1.9467 H   0  0  0  0  0  0  0  0  0  0  0  0
   -4.3861   -2.8883    3.3125 H   0  0  0  0  0  0  0  0  0  0  0  0
    1.6943   -1.9945    2.4150 H   0  0  0  0  0  0  0  0  0  0  0  0
    3.1200   -2.5704    1.5470 H   0  0  0  0  0  0  0  0  0  0  0  0
    2.1110   -2.2561   -0.5003 H   0  0  0  0  0  0  0  0  0  0  0  0
    0.1120   -3.7882   -0.8174 H   0  0  0  0  0  0  0  0  0  0  0  0
    0.4601   -5.4871    0.8599 H   0  0  0  0  0  0  0  0  0  0  0  0
    0.9967   -0.2731    0.5282 H   0  0  0  0  0  0  0  0  0  0  0  0
   -0.3843   -1.2756    1.0125 H   0  0  0  0  0  0  0  0  0  0  0  0
   -0.7331   -0.1615   -0.9077 H   0  0  0  0  0  0  0  0  0  0  0  0
  1  6  2  0  0  0  0 
  2  3  2  0  0  0  0 
  3  4  1  0  0  0  0 
  4  5  2  0  0  0  0 
  5  6  1  0  0  0  0 
  1  9  1  0  0  0  0 
  1  2  1  0  0  0  0 
  2  7  1  0  0  0  0 
  7  8  1  0  0  0  0 
  8  9  2  0  0  0  0 
 10  7  1  0  0  0  0 
  6 11  1  0  0  0  0 
 11 12  1  0  0  0  0 
 12 13  1  0  0  0  0 
 14 12  1  0  0  0  0 
 13 14  1  0  0  0  0 
  4 15  1  0  0  0  0 
 19 10  1  0  0  0  0 
 16 10  1  0  0  0  0 
 16 17  1  0  0  0  0 
 17 18  1  0  0  0  0 
 18 19  2  0  0  0  0 
 17 20  1  0  0  0  0 
 20 21  1  0  0  0  0 
  8 22  1  0  0  0  0 
 10 23  1  0  0  0  0 
 11 24  1  0  0  0  0 
 12 25  1  0  0  0  0 
 13 26  1  0  0  0  0 
 13 27  1  0  0  0  0 
 14 28  1  0  0  0  0 
 14 29  1  0  0  0  0 
 15 30  1  0  0  0  0 
 15 31  1  0  0  0  0 
 16 32  1  0  0  0  0 
 16 33  1  0  0  0  0 
 17 34  1  0  0  0  0 
 18 35  1  0  0  0  0 
 19 36  1  0  0  0  0 
 20 37  1  0  0  0  0 
 20 38  1  0  0  0  0 
 21 39  1  0  0  0  0 
M  END
> <cdk:Title>
abacavir

> <Conformer>
1

> <SuperDrugID>
SD000013

$$$$
