nicotinic acid
  CDK     0628171801

 14 14  0  0  0  0  0  0  0  0999 V2000
   -2.7320    2.0750   -0.2618 O   0  0  0  0  0  0  0  0  0  0  0  0
   -2.0073    0.9314   -0.1906 C   0  0  0  0  0  0  0  0  0  0  0  0
   -2.6563   -0.1404   -0.2106 O   0  0  0  0  0  0  0  0  0  0  0  0
   -0.5901    0.9504   -0.0972 C   0  0  0  0  0  0  0  0  0  0  0  0
    0.1677   -0.2444   -0.0059 C   0  0  0  0  0  0  0  0  0  0  0  0
    1.5212   -0.2039    0.0943 N   0  0  0  0  0  0  0  0  0  0  0  0
    2.2180    0.9588    0.1105 C   0  0  0  0  0  0  0  0  0  0  0  0
    1.5334    2.1819    0.0158 C   0  0  0  0  0  0  0  0  0  0  0  0
    0.1306    2.1703   -0.0925 C   0  0  0  0  0  0  0  0  0  0  0  0
   -3.7107    2.0353   -0.3181 H   0  0  0  0  0  0  0  0  0  0  0  0
   -0.2843   -1.1612   -0.0141 H   0  0  0  0  0  0  0  0  0  0  0  0
    3.2355    0.9405    0.1898 H   0  0  0  0  0  0  0  0  0  0  0  0
    2.0461    3.0657    0.0253 H   0  0  0  0  0  0  0  0  0  0  0  0
   -0.3568    3.0671   -0.1688 H   0  0  0  0  0  0  0  0  0  0  0  0
  1  2  1  0  0  0  0 
  2  3  2  0  0  0  0 
  2  4  1  0  0  0  0 
  4  5  2  0  0  0  0 
  5  6  1  0  0  0  0 
  6  7  2  0  0  0  0 
  7  8  1  0  0  0  0 
  8  9  2  0  0  0  0 
  4  9  1  0  0  0  0 
  1 10  1  0  0  0  0 
  5 11  1  0  0  0  0 
  7 12  1  0  0  0  0 
  8 13  1  0  0  0  0 
  9 14  1  0  0  0  0 
M  END
> <cdk:Title>
nicotinic acid

> <Conformer>
1

> <SuperDrugID>
SD002557

$$$$
