benmoxin
  CDK     0628171801

 34 35  0  0  0  0  0  0  0  0999 V2000
   -0.2149   -1.0662   -0.2740 C   0  0  1  0  0  0  0  0  0  0  0  0
   -0.3952   -1.0942    1.1999 N   0  0  2  0  0  0  0  0  0  0  0  0
    1.2911   -1.2741   -0.5879 C   0  0  0  0  0  0  0  0  0  0  0  0
   -1.1172   -2.0559   -0.9554 C   0  0  0  0  0  0  0  0  0  0  0  0
   -1.6889   -0.9415    1.5815 N   0  0  0  0  0  0  0  0  0  0  0  0
   -2.2661   -1.6052   -1.6532 C   0  0  0  0  0  0  0  0  0  0  0  0
   -0.9052   -3.4526   -0.8425 C   0  0  0  0  0  0  0  0  0  0  0  0
   -2.3959   -1.9494    2.1539 C   0  0  0  0  0  0  0  0  0  0  0  0
   -3.1859   -2.5195   -2.1995 C   0  0  0  0  0  0  0  0  0  0  0  0
   -1.8164   -4.3671   -1.4026 C   0  0  0  0  0  0  0  0  0  0  0  0
   -1.7930   -3.0176    2.4230 O   0  0  0  0  0  0  0  0  0  0  0  0
   -3.7958   -1.8365    2.3936 C   0  0  0  0  0  0  0  0  0  0  0  0
   -2.9640   -3.9018   -2.0683 C   0  0  0  0  0  0  0  0  0  0  0  0
   -4.5901   -2.9972    2.5777 C   0  0  0  0  0  0  0  0  0  0  0  0
   -4.4471   -0.5766    2.4338 C   0  0  0  0  0  0  0  0  0  0  0  0
   -5.9782   -2.9056    2.7856 C   0  0  0  0  0  0  0  0  0  0  0  0
   -5.8376   -0.4825    2.6390 C   0  0  0  0  0  0  0  0  0  0  0  0
   -6.6060   -1.6478    2.8127 C   0  0  0  0  0  0  0  0  0  0  0  0
   -0.4619   -0.0512   -0.6064 H   0  0  0  0  0  0  0  0  0  0  0  0
    0.1596   -0.3509    1.6309 H   0  0  0  0  0  0  0  0  0  0  0  0
    1.4512   -1.3593   -1.6633 H   0  0  0  0  0  0  0  0  0  0  0  0
    1.8752   -0.4282   -0.2144 H   0  0  0  0  0  0  0  0  0  0  0  0
    1.6704   -2.1791   -0.1091 H   0  0  0  0  0  0  0  0  0  0  0  0
   -2.1326   -0.1021    1.3845 H   0  0  0  0  0  0  0  0  0  0  0  0
   -2.4563   -0.6036   -1.7453 H   0  0  0  0  0  0  0  0  0  0  0  0
   -0.0932   -3.8148   -0.3385 H   0  0  0  0  0  0  0  0  0  0  0  0
   -4.0211   -2.1773   -2.6816 H   0  0  0  0  0  0  0  0  0  0  0  0
   -1.6498   -5.3719   -1.3170 H   0  0  0  0  0  0  0  0  0  0  0  0
   -3.6369   -4.5668   -2.4576 H   0  0  0  0  0  0  0  0  0  0  0  0
   -4.1667   -3.9289    2.5523 H   0  0  0  0  0  0  0  0  0  0  0  0
   -3.9182    0.2910    2.3178 H   0  0  0  0  0  0  0  0  0  0  0  0
   -6.5307   -3.7563    2.9097 H   0  0  0  0  0  0  0  0  0  0  0  0
   -6.2896    0.4343    2.6529 H   0  0  0  0  0  0  0  0  0  0  0  0
   -7.6187   -1.5817    2.9513 H   0  0  0  0  0  0  0  0  0  0  0  0
  1  2  1  0  0  0  0 
  1  3  1  0  0  0  0 
  1  4  1  0  0  0  0 
  2  5  1  0  0  0  0 
  4  6  2  0  0  0  0 
  4  7  1  0  0  0  0 
  5  8  1  0  0  0  0 
  6  9  1  0  0  0  0 
  7 10  2  0  0  0  0 
  8 11  2  0  0  0  0 
  8 12  1  0  0  0  0 
  9 13  2  0  0  0  0 
 10 13  1  0  0  0  0 
 12 14  2  0  0  0  0 
 12 15  1  0  0  0  0 
 14 16  1  0  0  0  0 
 15 17  2  0  0  0  0 
 16 18  2  0  0  0  0 
 17 18  1  0  0  0  0 
 19  1  1  0  0  0  0 
 20  2  1  0  0  0  0 
 21  3  1  0  0  0  0 
 22  3  1  0  0  0  0 
 23  3  1  0  0  0  0 
 24  5  1  0  0  0  0 
 25  6  1  0  0  0  0 
 26  7  1  0  0  0  0 
 27  9  1  0  0  0  0 
 28 10  1  0  0  0  0 
 29 13  1  0  0  0  0 
 30 14  1  0  0  0  0 
 31 15  1  0  0  0  0 
 32 16  1  0  0  0  0 
 33 17  1  0  0  0  0 
 34 18  1  0  0  0  0 
M  END
> <cdk:Title>
benmoxin

> <Conformer>
1

> <SuperDrugID>
SD003149

$$$$
