chlorfenethazine
  CDK     0628171802

 37 39  0  0  0  0  0  0  0  0999 V2000
    2.4022    0.8124   -4.6451 C   0  0  0  0  0  0  0  0  0  0  0  0
    2.0195    0.0986   -3.3922 N   0  0  2  0  0  0  0  0  0  0  0  0
    0.8470   -0.8045   -3.5935 C   0  0  0  0  0  0  0  0  0  0  0  0
    1.9333    1.0188   -2.2095 C   0  0  2  0  0  0  0  0  0  0  0  0
    1.7981    0.2921   -0.8388 C   0  0  2  0  0  0  0  0  0  0  0  0
    2.1940    1.0705    0.3316 N   0  0  0  0  0  0  0  0  0  0  0  0
    1.7766    2.3886    0.4966 C   0  0  0  0  0  0  0  0  0  0  0  0
    0.4462    2.7879    0.2160 C   0  0  0  0  0  0  0  0  0  0  0  0
    0.0411    4.1269    0.3731 C   0  0  0  0  0  0  0  0  0  0  0  0
    0.9606    5.0971    0.8087 C   0  0  0  0  0  0  0  0  0  0  0  0
    2.2828    4.7258    1.1036 C   0  0  0  0  0  0  0  0  0  0  0  0
    2.6785    3.3819    0.9614 C   0  0  0  0  0  0  0  0  0  0  0  0
    4.3122    2.9093    1.4127 S   0  0  0  0  0  0  0  0  0  0  0  0
    4.1102    1.2149    1.8454 C   0  0  0  0  0  0  0  0  0  0  0  0
    3.0310    0.4899    1.2808 C   0  0  0  0  0  0  0  0  0  0  0  0
    2.8302   -0.8449    1.7161 C   0  0  0  0  0  0  0  0  0  0  0  0
    3.7260   -1.4653    2.6084 C   0  0  0  0  0  0  0  0  0  0  0  0
    3.4978   -3.0833    3.0529 Cl  0  0  0  0  0  0  0  0  0  0  0  0
    4.8152   -0.7372    3.1209 C   0  0  0  0  0  0  0  0  0  0  0  0
    4.9948    0.6089    2.7595 C   0  0  0  0  0  0  0  0  0  0  0  0
    2.6198    0.0948   -5.4380 H   0  0  0  0  0  0  0  0  0  0  0  0
    3.3070    1.4048   -4.4900 H   0  0  0  0  0  0  0  0  0  0  0  0
    1.6014    1.4750   -4.9824 H   0  0  0  0  0  0  0  0  0  0  0  0
    1.0269   -1.4758   -4.4360 H   0  0  0  0  0  0  0  0  0  0  0  0
   -0.0656   -0.2361   -3.7900 H   0  0  0  0  0  0  0  0  0  0  0  0
    0.6897   -1.4373   -2.7187 H   0  0  0  0  0  0  0  0  0  0  0  0
    1.1016    1.7161   -2.3440 H   0  0  0  0  0  0  0  0  0  0  0  0
    2.8536    1.6095   -2.1599 H   0  0  0  0  0  0  0  0  0  0  0  0
    2.4158   -0.6094   -0.9265 H   0  0  0  0  0  0  0  0  0  0  0  0
    0.7662   -0.0393   -0.6998 H   0  0  0  0  0  0  0  0  0  0  0  0
   -0.2437    2.1065   -0.1059 H   0  0  0  0  0  0  0  0  0  0  0  0
   -0.9236    4.3982    0.1668 H   0  0  0  0  0  0  0  0  0  0  0  0
    0.6661    6.0704    0.9203 H   0  0  0  0  0  0  0  0  0  0  0  0
    2.9472    5.4316    1.4301 H   0  0  0  0  0  0  0  0  0  0  0  0
    2.0238   -1.3753    1.3742 H   0  0  0  0  0  0  0  0  0  0  0  0
    5.4748   -1.1796    3.7644 H   0  0  0  0  0  0  0  0  0  0  0  0
    5.7692    1.1401    3.1660 H   0  0  0  0  0  0  0  0  0  0  0  0
  1  2  1  0  0  0  0 
  2  3  1  0  0  0  0 
  2  4  1  0  0  0  0 
  4  5  1  0  0  0  0 
  5  6  1  0  0  0  0 
  6  7  1  0  0  0  0 
  7  8  2  0  0  0  0 
  8  9  1  0  0  0  0 
  9 10  2  0  0  0  0 
 10 11  1  0  0  0  0 
 11 12  2  0  0  0  0 
  7 12  1  0  0  0  0 
 12 13  1  0  0  0  0 
 13 14  1  0  0  0  0 
 14 15  2  0  0  0  0 
  6 15  1  0  0  0  0 
 15 16  1  0  0  0  0 
 16 17  2  0  0  0  0 
 17 18  1  0  0  0  0 
 17 19  1  0  0  0  0 
 19 20  2  0  0  0  0 
 14 20  1  0  0  0  0 
  1 21  1  0  0  0  0 
  1 22  1  0  0  0  0 
  1 23  1  0  0  0  0 
  3 24  1  0  0  0  0 
  3 25  1  0  0  0  0 
  3 26  1  0  0  0  0 
  4 27  1  0  0  0  0 
  4 28  1  0  0  0  0 
  5 29  1  0  0  0  0 
  5 30  1  0  0  0  0 
  8 31  1  0  0  0  0 
  9 32  1  0  0  0  0 
 10 33  1  0  0  0  0 
 11 34  1  0  0  0  0 
 16 35  1  0  0  0  0 
 19 36  1  0  0  0  0 
 20 37  1  0  0  0  0 
M  END
> <cdk:Title>
chlorfenethazine

> <Conformer>
1

> <SuperDrugID>
SD000536

$$$$
