profenamine
  CDK     0628171801

 46 48  0  0  0  0  0  0  0  0999 V2000
   -3.1108   -2.5271    2.9044 C   0  0  0  0  0  0  0  0  0  0  0  0
   -2.0917   -2.7484    4.0468 C   0  0  1  0  0  0  0  0  0  0  0  0
   -0.9214   -1.7959    4.0631 N   0  0  1  0  0  0  0  0  0  0  0  0
   -1.3515   -0.3624    4.2779 C   0  0  2  0  0  0  0  0  0  0  0  0
   -0.2648    0.7203    4.4819 C   0  0  0  0  0  0  0  0  0  0  0  0
    0.3019   -2.2963    4.8057 C   0  0  1  0  0  0  0  0  0  0  0  0
   -0.0033   -2.7109    6.2729 C   0  0  0  0  0  0  0  0  0  0  0  0
    1.0991   -3.4005    4.0207 C   0  0  2  0  0  0  0  0  0  0  0  0
    1.9268   -2.8636    2.9460 N   0  0  0  0  0  0  0  0  0  0  0  0
    1.3458   -2.1474    1.9095 C   0  0  0  0  0  0  0  0  0  0  0  0
    0.2346   -2.6447    1.1879 C   0  0  0  0  0  0  0  0  0  0  0  0
   -0.4021   -1.8608    0.2069 C   0  0  0  0  0  0  0  0  0  0  0  0
    0.0681   -0.5666   -0.0721 C   0  0  0  0  0  0  0  0  0  0  0  0
    1.2014   -0.0717    0.5958 C   0  0  0  0  0  0  0  0  0  0  0  0
    1.8487   -0.8668    1.5615 C   0  0  0  0  0  0  0  0  0  0  0  0
    3.3188   -0.2872    2.3418 S   0  0  0  0  0  0  0  0  0  0  0  0
    4.1085   -1.7870    2.8239 C   0  0  0  0  0  0  0  0  0  0  0  0
    3.3123   -2.9442    3.0228 C   0  0  0  0  0  0  0  0  0  0  0  0
    3.9724   -4.1658    3.3054 C   0  0  0  0  0  0  0  0  0  0  0  0
    5.3731   -4.2202    3.4335 C   0  0  0  0  0  0  0  0  0  0  0  0
    6.1388   -3.0509    3.2836 C   0  0  0  0  0  0  0  0  0  0  0  0
    5.5081   -1.8329    2.9740 C   0  0  0  0  0  0  0  0  0  0  0  0
   -3.6473   -1.5866    3.0338 H   0  0  0  0  0  0  0  0  0  0  0  0
   -2.6074   -2.5183    1.9388 H   0  0  0  0  0  0  0  0  0  0  0  0
   -3.8426   -3.3370    2.9044 H   0  0  0  0  0  0  0  0  0  0  0  0
   -2.6296   -2.6943    4.9976 H   0  0  0  0  0  0  0  0  0  0  0  0
   -1.7455   -3.7766    3.9410 H   0  0  0  0  0  0  0  0  0  0  0  0
   -2.0452   -0.2949    5.1222 H   0  0  0  0  0  0  0  0  0  0  0  0
   -1.8983   -0.0511    3.3847 H   0  0  0  0  0  0  0  0  0  0  0  0
   -0.7094    1.7137    4.3977 H   0  0  0  0  0  0  0  0  0  0  0  0
    0.5168    0.6321    3.7279 H   0  0  0  0  0  0  0  0  0  0  0  0
    0.1766    0.6346    5.4753 H   0  0  0  0  0  0  0  0  0  0  0  0
    1.0248   -1.4860    4.8979 H   0  0  0  0  0  0  0  0  0  0  0  0
   -0.5820   -1.9336    6.7739 H   0  0  0  0  0  0  0  0  0  0  0  0
   -0.5625   -3.6460    6.3047 H   0  0  0  0  0  0  0  0  0  0  0  0
    0.9276   -2.8478    6.8261 H   0  0  0  0  0  0  0  0  0  0  0  0
    0.4368   -4.1659    3.6215 H   0  0  0  0  0  0  0  0  0  0  0  0
    1.7257   -3.9187    4.7519 H   0  0  0  0  0  0  0  0  0  0  0  0
   -0.1267   -3.5814    1.3735 H   0  0  0  0  0  0  0  0  0  0  0  0
   -1.2103   -2.2295   -0.2990 H   0  0  0  0  0  0  0  0  0  0  0  0
   -0.4099    0.0125   -0.7673 H   0  0  0  0  0  0  0  0  0  0  0  0
    1.5494    0.8639    0.3739 H   0  0  0  0  0  0  0  0  0  0  0  0
    3.4350   -5.0283    3.4192 H   0  0  0  0  0  0  0  0  0  0  0  0
    5.8357   -5.1100    3.6367 H   0  0  0  0  0  0  0  0  0  0  0  0
    7.1551   -3.0867    3.3879 H   0  0  0  0  0  0  0  0  0  0  0  0
    6.0722   -0.9882    2.8522 H   0  0  0  0  0  0  0  0  0  0  0  0
  1  2  1  0  0  0  0 
  2  3  1  0  0  0  0 
  3  4  1  0  0  0  0 
  4  5  1  0  0  0  0 
  6  3  1  0  0  0  0 
  6  7  1  0  0  0  0 
  6  8  1  0  0  0  0 
  8  9  1  0  0  0  0 
  9 10  1  0  0  0  0 
 10 11  2  0  0  0  0 
 11 12  1  0  0  0  0 
 12 13  2  0  0  0  0 
 13 14  1  0  0  0  0 
 14 15  2  0  0  0  0 
 10 15  1  0  0  0  0 
 15 16  1  0  0  0  0 
 16 17  1  0  0  0  0 
 17 18  2  0  0  0  0 
  9 18  1  0  0  0  0 
 18 19  1  0  0  0  0 
 19 20  2  0  0  0  0 
 20 21  1  0  0  0  0 
 21 22  2  0  0  0  0 
 17 22  1  0  0  0  0 
  1 23  1  0  0  0  0 
  1 24  1  0  0  0  0 
  1 25  1  0  0  0  0 
  2 26  1  0  0  0  0 
  2 27  1  0  0  0  0 
  4 28  1  0  0  0  0 
  4 29  1  0  0  0  0 
  5 30  1  0  0  0  0 
  5 31  1  0  0  0  0 
  5 32  1  0  0  0  0 
  6 33  1  0  0  0  0 
  7 34  1  0  0  0  0 
  7 35  1  0  0  0  0 
  7 36  1  0  0  0  0 
  8 37  1  0  0  0  0 
  8 38  1  0  0  0  0 
 11 39  1  0  0  0  0 
 12 40  1  0  0  0  0 
 13 41  1  0  0  0  0 
 14 42  1  0  0  0  0 
 19 43  1  0  0  0  0 
 20 44  1  0  0  0  0 
 21 45  1  0  0  0  0 
 22 46  1  0  0  0  0 
M  END
> <cdk:Title>
profenamine

> <Conformer>
1

> <SuperDrugID>
SD000970

$$$$
