ketorolac
  CDK     0628171801

 32 34  0  0  0  0  0  0  0  0999 V2000
    1.5359   -5.0686    0.1282 C   0  0  0  0  0  0  0  0  0  0  0  0
    1.1165   -5.3831    1.2670 O   0  0  0  0  0  0  0  0  0  0  0  0
    1.6363   -3.6805   -0.1747 C   0  0  0  0  0  0  0  0  0  0  0  0
    1.8488   -6.1374   -0.7632 C   0  0  0  0  0  0  0  0  0  0  0  0
    1.4435   -2.6397    0.6737 N   0  0  0  0  0  0  0  0  0  0  0  0
    1.9208   -3.0966   -1.4197 C   0  0  0  0  0  0  0  0  0  0  0  0
    3.0017   -6.1248   -1.5894 C   0  0  0  0  0  0  0  0  0  0  0  0
    1.0085   -7.2799   -0.8153 C   0  0  0  0  0  0  0  0  0  0  0  0
    1.6375   -1.4845    0.0551 C   0  0  0  0  0  0  0  0  0  0  0  0
    1.0908   -2.4914    2.0389 C   0  0  2  0  0  0  0  0  0  0  0  0
    1.9393   -1.7140   -1.2762 C   0  0  0  0  0  0  0  0  0  0  0  0
    3.2887   -7.2018   -2.4519 C   0  0  0  0  0  0  0  0  0  0  0  0
    1.3058   -8.3644   -1.6632 C   0  0  0  0  0  0  0  0  0  0  0  0
    1.5016   -0.2967    0.8904 C   0  0  1  0  0  0  0  0  0  0  0  0
    0.9950   -0.9457    2.2148 C   0  0  2  0  0  0  0  0  0  0  0  0
    2.4501   -8.3293   -2.4784 C   0  0  0  0  0  0  0  0  0  0  0  0
    2.7868    0.4235    1.0221 C   0  0  0  0  0  0  0  0  0  0  0  0
    2.9027    1.7066    0.6132 O   0  0  0  0  0  0  0  0  0  0  0  0
    3.7964   -0.1323    1.5126 O   0  0  0  0  0  0  0  0  0  0  0  0
    2.0795   -3.5879   -2.2996 H   0  0  0  0  0  0  0  0  0  0  0  0
    3.6558   -5.3389   -1.5637 H   0  0  0  0  0  0  0  0  0  0  0  0
    0.1677   -7.3355   -0.2329 H   0  0  0  0  0  0  0  0  0  0  0  0
    1.8615   -2.9150    2.6900 H   0  0  0  0  0  0  0  0  0  0  0  0
    0.1258   -2.9666    2.2401 H   0  0  0  0  0  0  0  0  0  0  0  0
    2.1278   -1.0165   -1.9958 H   0  0  0  0  0  0  0  0  0  0  0  0
    4.1094   -7.1692   -3.0597 H   0  0  0  0  0  0  0  0  0  0  0  0
    0.6884   -9.1792   -1.6842 H   0  0  0  0  0  0  0  0  0  0  0  0
    0.7362    0.3616    0.4700 H   0  0  0  0  0  0  0  0  0  0  0  0
    1.5716   -0.6151    3.0842 H   0  0  0  0  0  0  0  0  0  0  0  0
   -0.0464   -0.6599    2.3863 H   0  0  0  0  0  0  0  0  0  0  0  0
    2.6685   -9.1194   -3.0918 H   0  0  0  0  0  0  0  0  0  0  0  0
    3.7582    2.1729    0.7139 H   0  0  0  0  0  0  0  0  0  0  0  0
  1  2  2  0  0  0  0 
  1  3  1  0  0  0  0 
  1  4  1  0  0  0  0 
  3  5  1  0  0  0  0 
  3  6  2  0  0  0  0 
  4  7  2  0  0  0  0 
  4  8  1  0  0  0  0 
  5  9  1  0  0  0  0 
  5 10  1  0  0  0  0 
  6 11  1  0  0  0  0 
  7 12  1  0  0  0  0 
  8 13  2  0  0  0  0 
  9 11  2  0  0  0  0 
 14  9  1  0  0  0  0 
 10 15  1  0  0  0  0 
 12 16  2  0  0  0  0 
 13 16  1  0  0  0  0 
 14 15  1  0  0  0  0 
 14 17  1  0  0  0  0 
 17 18  1  0  0  0  0 
 17 19  2  0  0  0  0 
  6 20  1  0  0  0  0 
  7 21  1  0  0  0  0 
  8 22  1  0  0  0  0 
 10 23  1  0  0  0  0 
 10 24  1  0  0  0  0 
 11 25  1  0  0  0  0 
 12 26  1  0  0  0  0 
 13 27  1  0  0  0  0 
 14 28  1  0  0  0  0 
 15 29  1  0  0  0  0 
 15 30  1  0  0  0  0 
 16 31  1  0  0  0  0 
 18 32  1  0  0  0  0 
M  END
> <cdk:Title>
ketorolac

> <Conformer>
1

> <SuperDrugID>
SD001352

$$$$
