gonadorelin
  CDK     0628171801

160165  0  0  0  0  0  0  0  0999 V2000
   -8.2926    1.8147   -0.9378 C   0  0  1  0  0  0  0  0  0  0  0  0
   -7.3320    1.2915    0.1821 C   0  0  2  0  0  0  0  0  0  0  0  0
   -8.5452    3.2713   -0.8145 C   0  0  0  0  0  0  0  0  0  0  0  0
   -6.7448    0.0044   -0.0758 N   0  0  0  0  0  0  0  0  0  0  0  0
   -7.9377    1.1966    1.5412 C   0  0  0  0  0  0  0  0  0  0  0  0
   -7.6469    4.3120   -1.0653 C   0  0  0  0  0  0  0  0  0  0  0  0
   -9.7325    3.8920   -0.4144 C   0  0  0  0  0  0  0  0  0  0  0  0
   -5.8870   -0.3343   -1.0858 C   0  0  0  0  0  0  0  0  0  0  0  0
   -9.2859    1.1935    1.7643 N   0  0  0  0  0  0  0  0  0  0  0  0
   -7.1483    1.0621    2.5070 O   0  0  0  0  0  0  0  0  0  0  0  0
   -8.3065    5.5093   -0.7864 C   0  0  0  0  0  0  0  0  0  0  0  0
   -6.3130    4.3181   -1.5190 C   0  0  0  0  0  0  0  0  0  0  0  0
   -9.5606    5.2279   -0.4000 N   0  0  0  0  0  0  0  0  0  0  0  0
   -5.0624   -1.5691   -1.0017 C   0  0  2  0  0  0  0  0  0  0  0  0
   -5.6710    0.4437   -2.0448 O   0  0  0  0  0  0  0  0  0  0  0  0
   -9.9407    0.9420    3.0178 C   0  0  2  0  0  0  0  0  0  0  0  0
   -7.6625    6.7509   -0.9327 C   0  0  0  0  0  0  0  0  0  0  0  0
   -5.6506    5.5558   -1.6632 C   0  0  0  0  0  0  0  0  0  0  0  0
   -5.8119   -2.8131   -0.4313 C   0  0  2  0  0  0  0  0  0  0  0  0
   -3.9618   -1.1734   -0.1673 N   0  0  0  0  0  0  0  0  0  0  0  0
  -10.6299   -0.3628    2.8626 C   0  0  0  0  0  0  0  0  0  0  0  0
  -10.8652    2.1319    3.3844 C   0  0  2  0  0  0  0  0  0  0  0  0
   -6.3226    6.7647   -1.3748 C   0  0  0  0  0  0  0  0  0  0  0  0
   -4.9746   -4.0306   -0.3499 C   0  0  0  0  0  0  0  0  0  0  0  0
   -2.6450   -1.1211   -0.5193 C   0  0  0  0  0  0  0  0  0  0  0  0
  -11.6810   -0.4820    2.0033 N   0  0  0  0  0  0  0  0  0  0  0  0
  -10.1619   -1.3655    3.4542 O   0  0  0  0  0  0  0  0  0  0  0  0
  -10.0864    3.3124    3.5753 O   0  0  0  0  0  0  0  0  0  0  0  0
   -4.6366   -4.7349    0.8023 C   0  0  0  0  0  0  0  0  0  0  0  0
   -4.3887   -4.6851   -1.3628 N   0  0  0  0  0  0  0  0  0  0  0  0
   -2.2383   -1.5854   -1.6116 O   0  0  0  0  0  0  0  0  0  0  0  0
   -1.7078   -0.4190    0.3914 C   0  0  1  0  0  0  0  0  0  0  0  0
  -12.2288   -1.7104    1.4954 C   0  0  1  0  0  0  0  0  0  0  0  0
   -3.8420   -5.7657    0.4740 N   0  0  0  0  0  0  0  0  0  0  0  0
   -3.6957   -5.7180   -0.8599 C   0  0  0  0  0  0  0  0  0  0  0  0
   -0.3440   -0.7009    0.1243 N   0  0  0  0  0  0  0  0  0  0  0  0
   -1.7945    1.1302    0.2522 C   0  0  1  0  0  0  0  0  0  0  0  0
  -12.9875   -2.5919    2.5362 C   0  0  2  0  0  0  0  0  0  0  0  0
  -13.0942   -1.3456    0.3449 C   0  0  0  0  0  0  0  0  0  0  0  0
    0.3922    0.3750   -0.1667 C   0  0  0  0  0  0  0  0  0  0  0  0
   -0.3769    1.6128   -0.1286 C   0  0  1  0  0  0  0  0  0  0  0  0
  -13.3019   -3.9315    1.9642 C   0  0  0  0  0  0  0  0  0  0  0  0
  -14.1973   -0.5658    0.5438 N   0  0  0  0  0  0  0  0  0  0  0  0
  -12.7611   -1.7234   -0.8035 O   0  0  0  0  0  0  0  0  0  0  0  0
    1.6092    0.3158   -0.4508 O   0  0  0  0  0  0  0  0  0  0  0  0
  -12.2780   -4.8983    1.8267 C   0  0  0  0  0  0  0  0  0  0  0  0
  -14.5980   -4.2482    1.4952 C   0  0  0  0  0  0  0  0  0  0  0  0
  -14.9230    0.1335   -0.4670 C   0  0  2  0  0  0  0  0  0  0  0  0
  -12.5379   -6.1440    1.2272 C   0  0  0  0  0  0  0  0  0  0  0  0
  -14.8586   -5.4947    0.8939 C   0  0  0  0  0  0  0  0  0  0  0  0
  -16.3552   -0.2197   -0.5499 C   0  0  0  0  0  0  0  0  0  0  0  0
  -13.8313   -6.4483    0.7620 C   0  0  0  0  0  0  0  0  0  0  0  0
  -17.2894    0.7252   -0.2344 N   0  0  0  0  0  0  0  0  0  0  0  0
  -16.6727   -1.3429   -1.0058 O   0  0  0  0  0  0  0  0  0  0  0  0
  -14.1018   -7.6476    0.1860 O   0  0  0  0  0  0  0  0  0  0  0  0
  -18.6770    0.7335   -0.6048 C   0  0  2  0  0  0  0  0  0  0  0  0
  -19.1875    2.1155   -0.3726 C   0  0  0  0  0  0  0  0  0  0  0  0
  -19.6007   -0.4240   -0.0896 C   0  0  2  0  0  0  0  0  0  0  0  0
  -19.4992    2.5716    0.8789 N   0  0  0  0  0  0  0  0  0  0  0  0
  -19.2591    2.8758   -1.3665 O   0  0  0  0  0  0  0  0  0  0  0  0
  -19.8421   -0.6307    1.4422 C   0  0  1  0  0  0  0  0  0  0  0  0
  -19.8773    3.8989    1.2989 C   0  0  2  0  0  0  0  0  0  0  0  0
  -20.8653   -1.7790    1.6903 C   0  0  0  0  0  0  0  0  0  0  0  0
  -18.5329   -0.8831    2.2392 C   0  0  0  0  0  0  0  0  0  0  0  0
  -20.9791    4.5304    0.5000 C   0  0  0  0  0  0  0  0  0  0  0  0
  -18.6177    4.8111    1.4354 C   0  0  2  0  0  0  0  0  0  0  0  0
  -20.6444    5.0092   -0.6114 O   0  0  0  0  0  0  0  0  0  0  0  0
  -22.3103    4.6632    0.8884 N   0  0  0  0  0  0  0  0  0  0  0  0
  -17.5757    4.2705    2.4574 C   0  0  2  0  0  0  0  0  0  0  0  0
  -22.9022    4.2143    2.1262 C   0  0  2  0  0  0  0  0  0  0  0  0
  -23.2743    5.3242    0.0523 C   0  0  2  0  0  0  0  0  0  0  0  0
  -16.3892    5.2404    2.6774 C   0  0  2  0  0  0  0  0  0  0  0  0
  -22.7139    2.7793    2.4492 C   0  0  0  0  0  0  0  0  0  0  0  0
  -24.4124    4.5524    2.0189 C   0  0  2  0  0  0  0  0  0  0  0  0
  -24.4670    5.6575    0.9604 C   0  0  1  0  0  0  0  0  0  0  0  0
  -15.4794    4.6781    3.5714 N   0  0  0  0  0  0  0  0  0  0  0  0
  -22.4667    2.4027    3.7812 N   0  0  0  0  0  0  0  0  0  0  0  0
  -22.7809    1.9092    1.5503 O   0  0  0  0  0  0  0  0  0  0  0  0
  -14.3856    5.1723    4.0286 C   0  0  0  0  0  0  0  0  0  0  0  0
  -22.2110    1.0765    4.3959 C   0  0  1  0  0  0  0  0  0  0  0  0
  -13.9262    6.3668    3.7099 N   0  0  0  0  0  0  0  0  0  0  0  0
  -13.6904    4.4389    4.8651 N   0  0  0  0  0  0  0  0  0  0  0  0
  -22.1884    1.2075    5.9443 C   0  0  0  0  0  0  0  0  0  0  0  0
  -21.3370    2.0424    6.6424 N   0  0  0  0  0  0  0  0  0  0  0  0
  -22.9450    0.5669    6.7428 O   0  0  0  0  0  0  0  0  0  0  0  0
   -7.8628    1.6507   -1.9244 H   0  0  0  0  0  0  0  0  0  0  0  0
   -9.2358    1.2627   -0.9227 H   0  0  0  0  0  0  0  0  0  0  0  0
   -6.4938    1.9909    0.2659 H   0  0  0  0  0  0  0  0  0  0  0  0
   -6.9142   -0.6800    0.5888 H   0  0  0  0  0  0  0  0  0  0  0  0
  -10.6005    3.4100   -0.1679 H   0  0  0  0  0  0  0  0  0  0  0  0
   -9.8651    1.3412    1.0021 H   0  0  0  0  0  0  0  0  0  0  0  0
   -5.8317    3.4484   -1.7475 H   0  0  0  0  0  0  0  0  0  0  0  0
  -10.2368    5.8825   -0.1558 H   0  0  0  0  0  0  0  0  0  0  0  0
   -4.7202   -1.8245   -2.0120 H   0  0  0  0  0  0  0  0  0  0  0  0
   -9.2121    0.8487    3.8309 H   0  0  0  0  0  0  0  0  0  0  0  0
   -8.1537    7.6225   -0.7242 H   0  0  0  0  0  0  0  0  0  0  0  0
   -4.6785    5.5765   -1.9784 H   0  0  0  0  0  0  0  0  0  0  0  0
   -6.6765   -3.0348   -1.0637 H   0  0  0  0  0  0  0  0  0  0  0  0
   -6.1880   -2.5841    0.5686 H   0  0  0  0  0  0  0  0  0  0  0  0
   -4.1877   -0.8503    0.7208 H   0  0  0  0  0  0  0  0  0  0  0  0
  -11.4005    1.9183    4.3120 H   0  0  0  0  0  0  0  0  0  0  0  0
  -11.5941    2.3202    2.5940 H   0  0  0  0  0  0  0  0  0  0  0  0
   -5.8351    7.6557   -1.4842 H   0  0  0  0  0  0  0  0  0  0  0  0
  -12.0432    0.3433    1.6461 H   0  0  0  0  0  0  0  0  0  0  0  0
  -10.7296    4.0063    3.8315 H   0  0  0  0  0  0  0  0  0  0  0  0
   -4.9389   -4.5065    1.7511 H   0  0  0  0  0  0  0  0  0  0  0  0
   -4.4524   -4.4538   -2.3024 H   0  0  0  0  0  0  0  0  0  0  0  0
   -1.9172   -0.7215    1.4234 H   0  0  0  0  0  0  0  0  0  0  0  0
  -11.3745   -2.2858    1.1199 H   0  0  0  0  0  0  0  0  0  0  0  0
   -3.1363   -6.3718   -1.4094 H   0  0  0  0  0  0  0  0  0  0  0  0
    0.0241   -1.5988    0.1566 H   0  0  0  0  0  0  0  0  0  0  0  0
   -2.5123    1.4422   -0.5132 H   0  0  0  0  0  0  0  0  0  0  0  0
   -2.0985    1.5782    1.2014 H   0  0  0  0  0  0  0  0  0  0  0  0
  -13.8956   -2.0764    2.8605 H   0  0  0  0  0  0  0  0  0  0  0  0
  -12.3779   -2.7296    3.4334 H   0  0  0  0  0  0  0  0  0  0  0  0
   -0.3643    2.0947   -1.1087 H   0  0  0  0  0  0  0  0  0  0  0  0
    0.0326    2.2941    0.6198 H   0  0  0  0  0  0  0  0  0  0  0  0
  -14.4664   -0.4048    1.4614 H   0  0  0  0  0  0  0  0  0  0  0  0
  -11.3297   -4.6964    2.1556 H   0  0  0  0  0  0  0  0  0  0  0  0
  -15.3587   -3.5670    1.5743 H   0  0  0  0  0  0  0  0  0  0  0  0
  -14.4814   -0.0018   -1.4569 H   0  0  0  0  0  0  0  0  0  0  0  0
  -14.8184    1.1916   -0.2248 H   0  0  0  0  0  0  0  0  0  0  0  0
  -11.7826   -6.8249    1.1275 H   0  0  0  0  0  0  0  0  0  0  0  0
  -15.7974   -5.7057    0.5491 H   0  0  0  0  0  0  0  0  0  0  0  0
  -16.9564    1.5205    0.2101 H   0  0  0  0  0  0  0  0  0  0  0  0
  -13.2932   -8.1895    0.2888 H   0  0  0  0  0  0  0  0  0  0  0  0
  -18.6600    0.5940   -1.6932 H   0  0  0  0  0  0  0  0  0  0  0  0
  -19.2184   -1.3646   -0.4942 H   0  0  0  0  0  0  0  0  0  0  0  0
  -20.5789   -0.2694   -0.5575 H   0  0  0  0  0  0  0  0  0  0  0  0
  -19.3981    1.9303    1.5960 H   0  0  0  0  0  0  0  0  0  0  0  0
  -20.3107    0.2675    1.8416 H   0  0  0  0  0  0  0  0  0  0  0  0
  -20.2413    3.7755    2.3176 H   0  0  0  0  0  0  0  0  0  0  0  0
  -20.4798   -2.7306    1.3158 H   0  0  0  0  0  0  0  0  0  0  0  0
  -21.0742   -1.8830    2.7587 H   0  0  0  0  0  0  0  0  0  0  0  0
  -21.8115   -1.5620    1.1871 H   0  0  0  0  0  0  0  0  0  0  0  0
  -17.9695   -1.7118    1.8038 H   0  0  0  0  0  0  0  0  0  0  0  0
  -18.7558   -1.1238    3.2809 H   0  0  0  0  0  0  0  0  0  0  0  0
  -17.9090    0.0111    2.2383 H   0  0  0  0  0  0  0  0  0  0  0  0
  -18.9372    5.8069    1.7585 H   0  0  0  0  0  0  0  0  0  0  0  0
  -18.1345    4.9165    0.4598 H   0  0  0  0  0  0  0  0  0  0  0  0
  -17.1885    3.3110    2.1012 H   0  0  0  0  0  0  0  0  0  0  0  0
  -18.0719    4.0991    3.4180 H   0  0  0  0  0  0  0  0  0  0  0  0
  -22.4754    4.8243    2.9303 H   0  0  0  0  0  0  0  0  0  0  0  0
  -23.5820    4.6464   -0.7492 H   0  0  0  0  0  0  0  0  0  0  0  0
  -22.8830    6.2471   -0.3866 H   0  0  0  0  0  0  0  0  0  0  0  0
  -16.7657    6.1857    3.0799 H   0  0  0  0  0  0  0  0  0  0  0  0
  -15.8933    5.4325    1.7215 H   0  0  0  0  0  0  0  0  0  0  0  0
  -24.8195    4.8975    2.9734 H   0  0  0  0  0  0  0  0  0  0  0  0
  -25.0071    3.7000    1.6727 H   0  0  0  0  0  0  0  0  0  0  0  0
  -24.3236    6.6339    1.4322 H   0  0  0  0  0  0  0  0  0  0  0  0
  -25.4122    5.6575    0.4102 H   0  0  0  0  0  0  0  0  0  0  0  0
  -22.4523    3.1694    4.3921 H   0  0  0  0  0  0  0  0  0  0  0  0
  -22.9886    0.3719    4.0965 H   0  0  0  0  0  0  0  0  0  0  0  0
  -21.2447    0.7051    4.0560 H   0  0  0  0  0  0  0  0  0  0  0  0
  -13.0926    6.6837    4.0926 H   0  0  0  0  0  0  0  0  0  0  0  0
  -14.4186    6.9338    3.0961 H   0  0  0  0  0  0  0  0  0  0  0  0
  -12.8558    4.7730    5.2287 H   0  0  0  0  0  0  0  0  0  0  0  0
  -14.0103    3.5600    5.1227 H   0  0  0  0  0  0  0  0  0  0  0  0
  -21.3669    2.0728    7.6116 H   0  0  0  0  0  0  0  0  0  0  0  0
  -20.7069    2.6016    6.1606 H   0  0  0  0  0  0  0  0  0  0  0  0
  2  1  1  0  0  0  0 
  1  3  1  0  0  0  0 
  2  4  1  0  0  0  0 
  2  5  1  0  0  0  0 
  3  6  1  0  0  0  0 
  3  7  2  0  0  0  0 
  4  8  1  0  0  0  0 
  5  9  1  0  0  0  0 
  5 10  2  0  0  0  0 
  6 11  1  0  0  0  0 
  6 12  2  0  0  0  0 
  7 13  1  0  0  0  0 
 14  8  1  0  0  0  0 
  8 15  2  0  0  0  0 
 16  9  1  0  0  0  0 
 11 13  1  0  0  0  0 
 11 17  2  0  0  0  0 
 12 18  1  0  0  0  0 
 14 19  1  0  0  0  0 
 14 20  1  0  0  0  0 
 16 21  1  0  0  0  0 
 16 22  1  0  0  0  0 
 17 23  1  0  0  0  0 
 18 23  2  0  0  0  0 
 19 24  1  0  0  0  0 
 20 25  1  0  0  0  0 
 21 26  1  0  0  0  0 
 21 27  2  0  0  0  0 
 22 28  1  0  0  0  0 
 24 29  2  0  0  0  0 
 24 30  1  0  0  0  0 
 25 31  2  0  0  0  0 
 33 26  1  0  0  0  0 
 29 34  1  0  0  0  0 
 30 35  1  0  0  0  0 
 32 25  1  0  0  0  0 
 32 36  1  0  0  0  0 
 32 37  1  0  0  0  0 
 33 38  1  0  0  0  0 
 33 39  1  0  0  0  0 
 34 35  2  0  0  0  0 
 36 40  1  0  0  0  0 
 37 41  1  0  0  0  0 
 38 42  1  0  0  0  0 
 39 43  1  0  0  0  0 
 39 44  2  0  0  0  0 
 40 41  1  0  0  0  0 
 40 45  2  0  0  0  0 
 42 46  2  0  0  0  0 
 42 47  1  0  0  0  0 
 43 48  1  0  0  0  0 
 46 49  1  0  0  0  0 
 47 50  2  0  0  0  0 
 48 51  1  0  0  0  0 
 49 52  2  0  0  0  0 
 50 52  1  0  0  0  0 
 51 53  1  0  0  0  0 
 51 54  2  0  0  0  0 
 52 55  1  0  0  0  0 
 56 53  1  0  0  0  0 
 56 57  1  0  0  0  0 
 56 58  1  0  0  0  0 
 57 59  1  0  0  0  0 
 57 60  2  0  0  0  0 
 58 61  1  0  0  0  0 
 62 59  1  0  0  0  0 
 61 63  1  0  0  0  0 
 61 64  1  0  0  0  0 
 62 65  1  0  0  0  0 
 62 66  1  0  0  0  0 
 65 67  2  0  0  0  0 
 65 68  1  0  0  0  0 
 66 69  1  0  0  0  0 
 70 68  1  0  0  0  0 
 68 71  1  0  0  0  0 
 69 72  1  0  0  0  0 
 70 73  1  0  0  0  0 
 70 74  1  0  0  0  0 
 71 75  1  0  0  0  0 
 72 76  1  0  0  0  0 
 73 77  1  0  0  0  0 
 73 78  2  0  0  0  0 
 74 75  1  0  0  0  0 
 76 79  2  0  0  0  0 
 77 80  1  0  0  0  0 
 79 81  1  0  0  0  0 
 79 82  1  0  0  0  0 
 80 83  1  0  0  0  0 
 83 84  1  0  0  0  0 
 83 85  2  0  0  0  0 
 86  1  1  0  0  0  0 
 87  1  1  0  0  0  0 
  2 88  1  0  0  0  0 
 89  4  1  0  0  0  0 
 90  7  1  0  0  0  0 
 91  9  1  0  0  0  0 
 92 12  1  0  0  0  0 
 93 13  1  0  0  0  0 
 14 94  1  0  0  0  0 
 16 95  1  0  0  0  0 
 96 17  1  0  0  0  0 
 97 18  1  0  0  0  0 
 98 19  1  0  0  0  0 
 99 19  1  0  0  0  0 
100 20  1  0  0  0  0 
101 22  1  0  0  0  0 
102 22  1  0  0  0  0 
103 23  1  0  0  0  0 
104 26  1  0  0  0  0 
105 28  1  0  0  0  0 
106 29  1  0  0  0  0 
107 30  1  0  0  0  0 
 32108  1  0  0  0  0 
 33109  1  0  0  0  0 
110 35  1  0  0  0  0 
111 36  1  0  0  0  0 
112 37  1  0  0  0  0 
113 37  1  0  0  0  0 
114 38  1  0  0  0  0 
115 38  1  0  0  0  0 
116 41  1  0  0  0  0 
117 41  1  0  0  0  0 
118 43  1  0  0  0  0 
119 46  1  0  0  0  0 
120 47  1  0  0  0  0 
121 48  1  0  0  0  0 
122 48  1  0  0  0  0 
123 49  1  0  0  0  0 
124 50  1  0  0  0  0 
125 53  1  0  0  0  0 
126 55  1  0  0  0  0 
 56127  1  0  0  0  0 
128 58  1  0  0  0  0 
129 58  1  0  0  0  0 
130 59  1  0  0  0  0 
131 61  1  0  0  0  0 
 62132  1  0  0  0  0 
133 63  1  0  0  0  0 
134 63  1  0  0  0  0 
135 63  1  0  0  0  0 
136 64  1  0  0  0  0 
137 64  1  0  0  0  0 
138 64  1  0  0  0  0 
139 66  1  0  0  0  0 
140 66  1  0  0  0  0 
141 69  1  0  0  0  0 
142 69  1  0  0  0  0 
 70143  1  0  0  0  0 
144 71  1  0  0  0  0 
145 71  1  0  0  0  0 
146 72  1  0  0  0  0 
147 72  1  0  0  0  0 
148 74  1  0  0  0  0 
149 74  1  0  0  0  0 
150 75  1  0  0  0  0 
151 75  1  0  0  0  0 
152 77  1  0  0  0  0 
153 80  1  0  0  0  0 
154 80  1  0  0  0  0 
155 81  1  0  0  0  0 
156 81  1  0  0  0  0 
157 82  1  0  0  0  0 
158 82  1  0  0  0  0 
159 84  1  0  0  0  0 
160 84  1  0  0  0  0 
M  END
> <cdk:Title>
gonadorelin

> <Conformer>
1

> <SuperDrugID>
SD002598

$$$$
