nifuradene
  CDK     0628171801

 24 25  0  0  0  0  0  0  0  0999 V2000
    1.3813    1.5871    0.5572 C   0  0  0  0  0  0  0  0  0  0  0  0
    0.6228    0.5833    0.3066 N   0  0  0  0  0  0  0  0  0  0  0  0
    2.0703    1.6462    1.7443 C   0  0  0  0  0  0  0  0  0  0  0  0
   -0.0638    0.4254   -0.7529 N   0  0  0  0  0  0  0  0  0  0  0  0
    2.0117    0.7158    2.7308 O   0  0  0  0  0  0  0  0  0  0  0  0
    2.9327    2.6608    2.1498 C   0  0  0  0  0  0  0  0  0  0  0  0
    0.3393   -0.2501   -1.8443 C   0  0  0  0  0  0  0  0  0  0  0  0
   -1.3855    0.9271   -0.9125 C   0  0  1  0  0  0  0  0  0  0  0  0
    2.8061    1.1075    3.7604 C   0  0  0  0  0  0  0  0  0  0  0  0
    3.3971    2.3226    3.4118 C   0  0  0  0  0  0  0  0  0  0  0  0
    1.4478   -0.8110   -2.0047 O   0  0  0  0  0  0  0  0  0  0  0  0
   -0.6293   -0.2449   -2.7640 N   0  0  0  0  0  0  0  0  0  0  0  0
   -1.7721    0.4666   -2.3367 C   0  0  1  0  0  0  0  0  0  0  0  0
    2.9570    0.4316    4.8898 N   0  0  0  0  0  0  0  0  0  0  0  0
    2.4195   -0.5918    5.0425 O   0  0  0  0  0  0  0  0  0  0  0  0
    3.6694    0.8648    5.8473 O   0  0  0  0  0  0  0  0  0  0  0  0
    1.4696    2.3287   -0.1013 H   0  0  0  0  0  0  0  0  0  0  0  0
    3.1789    3.5013    1.6223 H   0  0  0  0  0  0  0  0  0  0  0  0
   -2.0585    0.5041   -0.1600 H   0  0  0  0  0  0  0  0  0  0  0  0
   -1.3877    2.0182   -0.8391 H   0  0  0  0  0  0  0  0  0  0  0  0
    4.0476    2.8701    3.9795 H   0  0  0  0  0  0  0  0  0  0  0  0
   -0.5554   -0.6764   -3.6308 H   0  0  0  0  0  0  0  0  0  0  0  0
   -2.6424   -0.1925   -2.3277 H   0  0  0  0  0  0  0  0  0  0  0  0
   -1.9514    1.3188   -2.9962 H   0  0  0  0  0  0  0  0  0  0  0  0
  1  2  2  0  0  0  0 
  1  3  1  0  0  0  0 
  2  4  1  0  0  0  0 
  3  5  1  0  0  0  0 
  3  6  2  0  0  0  0 
  4  7  1  0  0  0  0 
  4  8  1  0  0  0  0 
  5  9  1  0  0  0  0 
  6 10  1  0  0  0  0 
  7 11  2  0  0  0  0 
  7 12  1  0  0  0  0 
  8 13  1  0  0  0  0 
  9 10  2  0  0  0  0 
  9 14  1  0  0  0  0 
 12 13  1  0  0  0  0 
 14 15  2  0  0  0  0 
 14 16  1  0  0  0  0 
 17  1  1  0  0  0  0 
 18  6  1  0  0  0  0 
 19  8  1  0  0  0  0 
 20  8  1  0  0  0  0 
 21 10  1  0  0  0  0 
 22 12  1  0  0  0  0 
 23 13  1  0  0  0  0 
 24 13  1  0  0  0  0 
M  CHG  1  14   1
M  CHG  1  16  -1
M  END
> <cdk:Title>
nifuradene

> <Conformer>
1

> <SuperDrugID>
SD003237

$$$$
