ranimustine
  CDK     0628171801

 39 39  0  0  0  0  0  0  0  0999 V2000
    0.2894    4.1012   -2.7131 C   0  0  1  0  0  0  0  0  0  0  0  0
   -0.6999    3.7952   -1.7227 N   0  0  0  0  0  0  0  0  0  0  0  0
    0.4839    5.6399   -2.8510 C   0  0  1  0  0  0  0  0  0  0  0  0
   -0.7286    2.6888   -0.9207 C   0  0  0  0  0  0  0  0  0  0  0  0
    0.8553    6.2839   -1.6068 O   0  0  0  0  0  0  0  0  0  0  0  0
    1.4483    6.0618   -4.0048 C   0  0  1  0  0  0  0  0  0  0  0  0
   -1.7457    2.4894   -0.0014 N   0  0  0  0  0  0  0  0  0  0  0  0
    0.1896    1.8387   -1.0281 O   0  0  0  0  0  0  0  0  0  0  0  0
    2.2163    6.0839   -1.1521 C   0  0  2  0  0  0  0  0  0  0  0  0
    1.1904    7.4216   -4.3607 O   0  0  0  0  0  0  0  0  0  0  0  0
    2.9449    5.9254   -3.6083 C   0  0  1  0  0  0  0  0  0  0  0  0
   -2.8497    3.4211    0.1272 C   0  0  2  0  0  0  0  0  0  0  0  0
   -1.7078    1.4471    0.7364 N   0  0  0  0  0  0  0  0  0  0  0  0
    2.4721    6.8402    0.0498 O   0  0  0  0  0  0  0  0  0  0  0  0
    3.2350    6.5615   -2.2229 C   0  0  1  0  0  0  0  0  0  0  0  0
    3.3430    4.5560   -3.5936 O   0  0  0  0  0  0  0  0  0  0  0  0
   -3.9559    3.0646    1.1574 C   0  0  1  0  0  0  0  0  0  0  0  0
   -1.1721    1.4501    1.7759 O   0  0  0  0  0  0  0  0  0  0  0  0
    1.6497    6.5171    1.1806 C   0  0  0  0  0  0  0  0  0  0  0  0
    3.2053    7.9852   -2.3348 O   0  0  0  0  0  0  0  0  0  0  0  0
   -5.2271    4.2829    1.1843 Cl  0  0  0  0  0  0  0  0  0  0  0  0
    1.2399    3.6224   -2.4779 H   0  0  0  0  0  0  0  0  0  0  0  0
   -0.0580    3.6955   -3.6659 H   0  0  0  0  0  0  0  0  0  0  0  0
   -1.4255    4.4293   -1.6226 H   0  0  0  0  0  0  0  0  0  0  0  0
   -0.5046    6.0402   -3.1010 H   0  0  0  0  0  0  0  0  0  0  0  0
    1.2525    5.4613   -4.8971 H   0  0  0  0  0  0  0  0  0  0  0  0
    2.3957    5.0252   -0.9392 H   0  0  0  0  0  0  0  0  0  0  0  0
    0.2494    7.4452   -4.6377 H   0  0  0  0  0  0  0  0  0  0  0  0
    3.5615    6.4188   -4.3650 H   0  0  0  0  0  0  0  0  0  0  0  0
   -3.3333    3.5171   -0.8505 H   0  0  0  0  0  0  0  0  0  0  0  0
   -2.4396    4.3978    0.4001 H   0  0  0  0  0  0  0  0  0  0  0  0
    4.2440    6.2801   -1.9092 H   0  0  0  0  0  0  0  0  0  0  0  0
    3.1896    4.2321   -4.5057 H   0  0  0  0  0  0  0  0  0  0  0  0
   -4.4074    2.1015    0.9042 H   0  0  0  0  0  0  0  0  0  0  0  0
   -3.5285    2.9998    2.1598 H   0  0  0  0  0  0  0  0  0  0  0  0
    1.9886    7.1170    2.0246 H   0  0  0  0  0  0  0  0  0  0  0  0
    1.7393    5.4636    1.4492 H   0  0  0  0  0  0  0  0  0  0  0  0
    0.6046    6.7602    0.9851 H   0  0  0  0  0  0  0  0  0  0  0  0
    3.4851    8.3166   -1.4551 H   0  0  0  0  0  0  0  0  0  0  0  0
  1  2  1  0  0  0  0 
  2  4  1  0  0  0  0 
  3  1  1  0  0  0  0 
  3  5  1  0  0  0  0 
  6  3  1  0  0  0  0 
  4  7  1  0  0  0  0 
  4  8  2  0  0  0  0 
  9  5  1  0  0  0  0 
  6 10  1  0  0  0  0 
  6 11  1  0  0  0  0 
  7 12  1  0  0  0  0 
  7 13  1  0  0  0  0 
  9 14  1  0  0  0  0 
 15  9  1  0  0  0  0 
 11 15  1  0  0  0  0 
 11 16  1  0  0  0  0 
 12 17  1  0  0  0  0 
 13 18  2  0  0  0  0 
 14 19  1  0  0  0  0 
 15 20  1  0  0  0  0 
 17 21  1  0  0  0  0 
 22  1  1  0  0  0  0 
 23  1  1  0  0  0  0 
 24  2  1  0  0  0  0 
  3 25  1  0  0  0  0 
  6 26  1  0  0  0  0 
  9 27  1  0  0  0  0 
 28 10  1  0  0  0  0 
 11 29  1  0  0  0  0 
 30 12  1  0  0  0  0 
 31 12  1  0  0  0  0 
 15 32  1  0  0  0  0 
 33 16  1  0  0  0  0 
 34 17  1  0  0  0  0 
 35 17  1  0  0  0  0 
 36 19  1  0  0  0  0 
 37 19  1  0  0  0  0 
 38 19  1  0  0  0  0 
 39 20  1  0  0  0  0 
M  END
> <cdk:Title>
ranimustine

> <Conformer>
1

> <SuperDrugID>
SD003028

$$$$
