piminodine
  CDK     0628171801

 57 59  0  0  0  0  0  0  0  0999 V2000
   -2.0915    0.9327    0.1065 C   0  0  0  0  0  0  0  0  0  0  0  0
   -0.7367    1.0812    0.2434 O   0  0  0  0  0  0  0  0  0  0  0  0
   -2.5716   -0.2230    0.0039 O   0  0  0  0  0  0  0  0  0  0  0  0
   -3.0125    2.1157    0.0746 C   0  0  1  0  0  0  0  0  0  0  0  0
    0.2388    0.0381    0.3935 C   0  0  1  0  0  0  0  0  0  0  0  0
   -3.9151    2.0257    1.3700 C   0  0  2  0  0  0  0  0  0  0  0  0
   -2.2456    3.4994    0.1240 C   0  0  1  0  0  0  0  0  0  0  0  0
   -3.7875    2.0525   -1.2393 C   0  0  0  0  0  0  0  0  0  0  0  0
    0.1694   -0.6078    1.7946 C   0  0  0  0  0  0  0  0  0  0  0  0
   -3.1717    2.3962    2.6858 C   0  0  1  0  0  0  0  0  0  0  0  0
   -1.6543    3.9045    1.5062 C   0  0  1  0  0  0  0  0  0  0  0  0
   -5.1901    1.8161   -1.3156 C   0  0  0  0  0  0  0  0  0  0  0  0
   -3.1119    2.2372   -2.4795 C   0  0  0  0  0  0  0  0  0  0  0  0
   -2.6331    3.7916    2.6352 N   0  0  1  0  0  0  0  0  0  0  0  0
   -5.8848    1.8533   -2.5400 C   0  0  0  0  0  0  0  0  0  0  0  0
   -3.8027    2.2872   -3.7047 C   0  0  0  0  0  0  0  0  0  0  0  0
   -3.6913    4.8614    2.6964 C   0  0  1  0  0  0  0  0  0  0  0  0
   -5.1937    2.1127   -3.7334 C   0  0  0  0  0  0  0  0  0  0  0  0
   -3.2035    6.2422    3.2131 C   0  0  2  0  0  0  0  0  0  0  0  0
   -4.3126    7.3182    3.0782 C   0  0  2  0  0  0  0  0  0  0  0  0
   -3.8645    8.6164    3.4670 N   0  0  0  0  0  0  0  0  0  0  0  0
   -4.5199    9.7948    3.2219 C   0  0  0  0  0  0  0  0  0  0  0  0
   -3.8423   10.9956    3.5292 C   0  0  0  0  0  0  0  0  0  0  0  0
   -5.8203    9.8789    2.6625 C   0  0  0  0  0  0  0  0  0  0  0  0
   -4.4308   12.2473    3.2604 C   0  0  0  0  0  0  0  0  0  0  0  0
   -6.4105   11.1280    2.3932 C   0  0  0  0  0  0  0  0  0  0  0  0
   -5.7142   12.3132    2.6884 C   0  0  0  0  0  0  0  0  0  0  0  0
    0.1002   -0.7233   -0.3788 H   0  0  0  0  0  0  0  0  0  0  0  0
    1.2304    0.4772    0.2605 H   0  0  0  0  0  0  0  0  0  0  0  0
   -4.3510    1.0269    1.4869 H   0  0  0  0  0  0  0  0  0  0  0  0
   -4.7542    2.7168    1.2774 H   0  0  0  0  0  0  0  0  0  0  0  0
   -1.4226    3.5065   -0.5952 H   0  0  0  0  0  0  0  0  0  0  0  0
   -2.9286    4.2939   -0.1857 H   0  0  0  0  0  0  0  0  0  0  0  0
    0.8920   -1.4222    1.8665 H   0  0  0  0  0  0  0  0  0  0  0  0
    0.4014    0.1323    2.5607 H   0  0  0  0  0  0  0  0  0  0  0  0
   -0.8274   -1.0061    1.9881 H   0  0  0  0  0  0  0  0  0  0  0  0
   -3.8498    2.2871    3.5343 H   0  0  0  0  0  0  0  0  0  0  0  0
   -2.3542    1.6908    2.8632 H   0  0  0  0  0  0  0  0  0  0  0  0
   -0.7915    3.2685    1.7245 H   0  0  0  0  0  0  0  0  0  0  0  0
   -1.2603    4.9177    1.4297 H   0  0  0  0  0  0  0  0  0  0  0  0
   -5.7423    1.6140   -0.4818 H   0  0  0  0  0  0  0  0  0  0  0  0
   -2.0962    2.3501   -2.5030 H   0  0  0  0  0  0  0  0  0  0  0  0
   -6.8936    1.6889   -2.5625 H   0  0  0  0  0  0  0  0  0  0  0  0
   -3.2932    2.4484   -4.5762 H   0  0  0  0  0  0  0  0  0  0  0  0
   -4.1445    4.9925    1.7117 H   0  0  0  0  0  0  0  0  0  0  0  0
   -4.4894    4.5470    3.3767 H   0  0  0  0  0  0  0  0  0  0  0  0
   -5.7013    2.1633   -4.6206 H   0  0  0  0  0  0  0  0  0  0  0  0
   -2.3340    6.5704    2.6421 H   0  0  0  0  0  0  0  0  0  0  0  0
   -2.9103    6.1457    4.2622 H   0  0  0  0  0  0  0  0  0  0  0  0
   -5.1676    7.0427    3.6967 H   0  0  0  0  0  0  0  0  0  0  0  0
   -4.6346    7.3486    2.0340 H   0  0  0  0  0  0  0  0  0  0  0  0
   -3.0212    8.6670    3.9448 H   0  0  0  0  0  0  0  0  0  0  0  0
   -2.9063   10.9694    3.9438 H   0  0  0  0  0  0  0  0  0  0  0  0
   -6.3541    9.0362    2.4417 H   0  0  0  0  0  0  0  0  0  0  0  0
   -3.9268   13.1117    3.4762 H   0  0  0  0  0  0  0  0  0  0  0  0
   -7.3459   11.1723    1.9815 H   0  0  0  0  0  0  0  0  0  0  0  0
   -6.1424   13.2206    2.4916 H   0  0  0  0  0  0  0  0  0  0  0  0
  1  2  1  0  0  0  0 
  1  3  2  0  0  0  0 
  1  4  1  0  0  0  0 
  2  5  1  0  0  0  0 
  4  6  1  0  0  0  0 
  4  7  1  0  0  0  0 
  4  8  1  0  0  0  0 
  5  9  1  0  0  0  0 
  6 10  1  0  0  0  0 
  7 11  1  0  0  0  0 
  8 12  2  0  0  0  0 
  8 13  1  0  0  0  0 
 10 14  1  0  0  0  0 
 11 14  1  0  0  0  0 
 12 15  1  0  0  0  0 
 13 16  2  0  0  0  0 
 14 17  1  0  0  0  0 
 15 18  2  0  0  0  0 
 16 18  1  0  0  0  0 
 17 19  1  0  0  0  0 
 19 20  1  0  0  0  0 
 20 21  1  0  0  0  0 
 21 22  1  0  0  0  0 
 22 23  2  0  0  0  0 
 22 24  1  0  0  0  0 
 23 25  1  0  0  0  0 
 24 26  2  0  0  0  0 
 25 27  2  0  0  0  0 
 26 27  1  0  0  0  0 
  5 28  1  0  0  0  0 
  5 29  1  0  0  0  0 
  6 30  1  0  0  0  0 
  6 31  1  0  0  0  0 
  7 32  1  0  0  0  0 
  7 33  1  0  0  0  0 
  9 34  1  0  0  0  0 
  9 35  1  0  0  0  0 
  9 36  1  0  0  0  0 
 10 37  1  0  0  0  0 
 10 38  1  0  0  0  0 
 11 39  1  0  0  0  0 
 11 40  1  0  0  0  0 
 12 41  1  0  0  0  0 
 13 42  1  0  0  0  0 
 15 43  1  0  0  0  0 
 16 44  1  0  0  0  0 
 17 45  1  0  0  0  0 
 17 46  1  0  0  0  0 
 18 47  1  0  0  0  0 
 19 48  1  0  0  0  0 
 19 49  1  0  0  0  0 
 20 50  1  0  0  0  0 
 20 51  1  0  0  0  0 
 21 52  1  0  0  0  0 
 23 53  1  0  0  0  0 
 24 54  1  0  0  0  0 
 25 55  1  0  0  0  0 
 26 56  1  0  0  0  0 
 27 57  1  0  0  0  0 
M  END
> <cdk:Title>
piminodine

> <Conformer>
1

> <SuperDrugID>
SD001947

$$$$
