clofibrate
  CDK     0628171802

 31 31  0  0  0  0  0  0  0  0999 V2000
    6.2823   -1.0305    0.1242 C   0  0  0  0  0  0  0  0  0  0  0  0
    5.5164   -0.4150   -1.0586 C   0  0  1  0  0  0  0  0  0  0  0  0
    4.1261   -0.3208   -0.7245 O   0  0  0  0  0  0  0  0  0  0  0  0
    3.1207    0.1007   -1.5489 C   0  0  0  0  0  0  0  0  0  0  0  0
    3.3831    0.3845   -2.7436 O   0  0  0  0  0  0  0  0  0  0  0  0
    1.7188    0.2069   -1.0470 C   0  0  2  0  0  0  0  0  0  0  0  0
    0.8459   -0.8197   -1.8330 C   0  0  0  0  0  0  0  0  0  0  0  0
    1.2169    1.6690   -1.2830 C   0  0  0  0  0  0  0  0  0  0  0  0
    1.7740   -0.1457    0.3679 O   0  0  0  0  0  0  0  0  0  0  0  0
    0.6783    0.0760    1.1649 C   0  0  0  0  0  0  0  0  0  0  0  0
    0.6358    1.2299    1.9761 C   0  0  0  0  0  0  0  0  0  0  0  0
   -0.4669    1.4692    2.8170 C   0  0  0  0  0  0  0  0  0  0  0  0
   -1.5333    0.5496    2.8654 C   0  0  0  0  0  0  0  0  0  0  0  0
   -2.8632    0.8361    3.8737 Cl  0  0  0  0  0  0  0  0  0  0  0  0
   -1.4851   -0.6129    2.0738 C   0  0  0  0  0  0  0  0  0  0  0  0
   -0.3773   -0.8567    1.2417 C   0  0  0  0  0  0  0  0  0  0  0  0
    5.8876   -2.0218    0.3492 H   0  0  0  0  0  0  0  0  0  0  0  0
    7.3433   -1.1195   -0.1164 H   0  0  0  0  0  0  0  0  0  0  0  0
    6.1729   -0.4004    1.0065 H   0  0  0  0  0  0  0  0  0  0  0  0
    5.9176    0.5810   -1.2662 H   0  0  0  0  0  0  0  0  0  0  0  0
    5.6456   -1.0449   -1.9440 H   0  0  0  0  0  0  0  0  0  0  0  0
   -0.2065   -0.7249   -1.5670 H   0  0  0  0  0  0  0  0  0  0  0  0
    0.9256   -0.6654   -2.9097 H   0  0  0  0  0  0  0  0  0  0  0  0
    1.1669   -1.8395   -1.6081 H   0  0  0  0  0  0  0  0  0  0  0  0
    0.1716    1.7717   -0.9875 H   0  0  0  0  0  0  0  0  0  0  0  0
    1.8099    2.3727   -0.6957 H   0  0  0  0  0  0  0  0  0  0  0  0
    1.2888    1.9506   -2.3360 H   0  0  0  0  0  0  0  0  0  0  0  0
    1.4091    1.8991    1.9550 H   0  0  0  0  0  0  0  0  0  0  0  0
   -0.4860    2.3119    3.3939 H   0  0  0  0  0  0  0  0  0  0  0  0
   -2.2502   -1.2910    2.1012 H   0  0  0  0  0  0  0  0  0  0  0  0
   -0.3444   -1.7158    0.6916 H   0  0  0  0  0  0  0  0  0  0  0  0
  1  2  1  0  0  0  0 
  2  3  1  0  0  0  0 
  3  4  1  0  0  0  0 
  4  5  2  0  0  0  0 
  4  6  1  0  0  0  0 
  6  7  1  0  0  0  0 
  6  8  1  0  0  0  0 
  6  9  1  0  0  0  0 
  9 10  1  0  0  0  0 
 10 11  2  0  0  0  0 
 11 12  1  0  0  0  0 
 12 13  2  0  0  0  0 
 13 14  1  0  0  0  0 
 13 15  1  0  0  0  0 
 15 16  2  0  0  0  0 
 10 16  1  0  0  0  0 
  1 17  1  0  0  0  0 
  1 18  1  0  0  0  0 
  1 19  1  0  0  0  0 
  2 20  1  0  0  0  0 
  2 21  1  0  0  0  0 
  7 22  1  0  0  0  0 
  7 23  1  0  0  0  0 
  7 24  1  0  0  0  0 
  8 25  1  0  0  0  0 
  8 26  1  0  0  0  0 
  8 27  1  0  0  0  0 
 11 28  1  0  0  0  0 
 12 29  1  0  0  0  0 
 15 30  1  0  0  0  0 
 16 31  1  0  0  0  0 
M  END
> <cdk:Title>
clofibrate

> <Conformer>
1

> <SuperDrugID>
SD000611

$$$$
