acemetacin
  CDK     0628171802

 47 49  0  0  0  0  0  0  0  0999 V2000
    0.5437   -0.7191    0.4316 C   0  0  0  0  0  0  0  0  0  0  0  0
    1.0695    0.4106    0.2892 O   0  0  0  0  0  0  0  0  0  0  0  0
   -0.6944   -0.8432    1.0503 N   0  0  0  0  0  0  0  0  0  0  0  0
    1.3487   -1.8113    0.0043 C   0  0  0  0  0  0  0  0  0  0  0  0
   -1.5853   -1.8605    0.8805 C   0  0  0  0  0  0  0  0  0  0  0  0
   -1.2361    0.0292    1.9574 C   0  0  0  0  0  0  0  0  0  0  0  0
    1.5073   -2.9499    0.8325 C   0  0  0  0  0  0  0  0  0  0  0  0
    2.0475   -1.7734   -1.2268 C   0  0  0  0  0  0  0  0  0  0  0  0
   -2.6610   -1.6791    1.7521 C   0  0  0  0  0  0  0  0  0  0  0  0
   -1.6016   -2.9565   -0.0176 C   0  0  0  0  0  0  0  0  0  0  0  0
   -0.6296    1.3111    2.4021 C   0  0  0  0  0  0  0  0  0  0  0  0
   -2.4382   -0.5014    2.4608 C   0  0  0  0  0  0  0  0  0  0  0  0
    2.3362   -4.0173    0.4411 C   0  0  0  0  0  0  0  0  0  0  0  0
    2.8912   -2.8335   -1.6099 C   0  0  0  0  0  0  0  0  0  0  0  0
   -3.7380   -2.5883    1.7948 C   0  0  0  0  0  0  0  0  0  0  0  0
   -2.6664   -3.8794    0.0196 C   0  0  0  0  0  0  0  0  0  0  0  0
   -3.2954    0.0437    3.5490 C   0  0  1  0  0  0  0  0  0  0  0  0
    3.0368   -3.9590   -0.7775 C   0  0  0  0  0  0  0  0  0  0  0  0
   -3.7303   -3.7043    0.9312 C   0  0  0  0  0  0  0  0  0  0  0  0
   -4.0216    1.2708    3.1814 C   0  0  0  0  0  0  0  0  0  0  0  0
    4.0581   -5.2293   -1.2338 Cl  0  0  0  0  0  0  0  0  0  0  0  0
   -4.7793   -4.5840    0.9280 O   0  0  0  0  0  0  0  0  0  0  0  0
   -3.9659    2.3362    4.0347 O   0  0  0  0  0  0  0  0  0  0  0  0
   -4.7161    1.2966    2.1381 O   0  0  0  0  0  0  0  0  0  0  0  0
   -4.6898   -5.5995    1.9434 C   0  0  0  0  0  0  0  0  0  0  0  0
   -4.5535    3.6339    3.8850 C   0  0  2  0  0  0  0  0  0  0  0  0
   -3.4874    4.6398    3.9731 C   0  0  0  0  0  0  0  0  0  0  0  0
   -3.4729    5.5437    4.9787 O   0  0  0  0  0  0  0  0  0  0  0  0
   -2.5654    4.6580    3.1269 O   0  0  0  0  0  0  0  0  0  0  0  0
    1.0226   -3.0110    1.7333 H   0  0  0  0  0  0  0  0  0  0  0  0
    1.9470   -0.9719   -1.8541 H   0  0  0  0  0  0  0  0  0  0  0  0
   -0.8684   -3.0878   -0.7133 H   0  0  0  0  0  0  0  0  0  0  0  0
   -0.5055    1.9731    1.5450 H   0  0  0  0  0  0  0  0  0  0  0  0
    0.3449    1.1195    2.8512 H   0  0  0  0  0  0  0  0  0  0  0  0
   -1.2349    1.8382    3.1363 H   0  0  0  0  0  0  0  0  0  0  0  0
    2.4319   -4.8305    1.0544 H   0  0  0  0  0  0  0  0  0  0  0  0
    3.3986   -2.7774   -2.4957 H   0  0  0  0  0  0  0  0  0  0  0  0
   -4.5251   -2.4472    2.4299 H   0  0  0  0  0  0  0  0  0  0  0  0
   -2.6732   -4.6751   -0.6242 H   0  0  0  0  0  0  0  0  0  0  0  0
   -4.0403   -0.6885    3.8609 H   0  0  0  0  0  0  0  0  0  0  0  0
   -2.6651    0.2313    4.4216 H   0  0  0  0  0  0  0  0  0  0  0  0
   -5.5619   -6.2487    1.8475 H   0  0  0  0  0  0  0  0  0  0  0  0
   -3.7930   -6.2106    1.8152 H   0  0  0  0  0  0  0  0  0  0  0  0
   -4.6966   -5.1660    2.9474 H   0  0  0  0  0  0  0  0  0  0  0  0
   -5.2744    3.7778    4.6934 H   0  0  0  0  0  0  0  0  0  0  0  0
   -5.0766    3.7448    2.9333 H   0  0  0  0  0  0  0  0  0  0  0  0
   -2.7429    6.1950    5.0465 H   0  0  0  0  0  0  0  0  0  0  0  0
  1  2  2  0  0  0  0 
  1  3  1  0  0  0  0 
  1  4  1  0  0  0  0 
  3  5  1  0  0  0  0 
  3  6  1  0  0  0  0 
  4  7  2  0  0  0  0 
  4  8  1  0  0  0  0 
  5  9  1  0  0  0  0 
  5 10  2  0  0  0  0 
  6 11  1  0  0  0  0 
  6 12  2  0  0  0  0 
  7 13  1  0  0  0  0 
  8 14  2  0  0  0  0 
  9 12  1  0  0  0  0 
  9 15  2  0  0  0  0 
 10 16  1  0  0  0  0 
 12 17  1  0  0  0  0 
 13 18  2  0  0  0  0 
 14 18  1  0  0  0  0 
 15 19  1  0  0  0  0 
 16 19  2  0  0  0  0 
 17 20  1  0  0  0  0 
 18 21  1  0  0  0  0 
 19 22  1  0  0  0  0 
 20 23  1  0  0  0  0 
 20 24  2  0  0  0  0 
 22 25  1  0  0  0  0 
 23 26  1  0  0  0  0 
 26 27  1  0  0  0  0 
 27 28  1  0  0  0  0 
 27 29  2  0  0  0  0 
  7 30  1  0  0  0  0 
  8 31  1  0  0  0  0 
 10 32  1  0  0  0  0 
 11 33  1  0  0  0  0 
 11 34  1  0  0  0  0 
 11 35  1  0  0  0  0 
 13 36  1  0  0  0  0 
 14 37  1  0  0  0  0 
 15 38  1  0  0  0  0 
 16 39  1  0  0  0  0 
 17 40  1  0  0  0  0 
 17 41  1  0  0  0  0 
 25 42  1  0  0  0  0 
 25 43  1  0  0  0  0 
 25 44  1  0  0  0  0 
 26 45  1  0  0  0  0 
 26 46  1  0  0  0  0 
 28 47  1  0  0  0  0 
M  END
> <cdk:Title>
acemetacin

> <Conformer>
1

> <SuperDrugID>
SD000024

$$$$
