cefuroxime
  CDK     0628171802

 45 47  0  0  0  0  0  0  0  0999 V2000
   -2.4283    0.7357   -3.5687 C   0  0  0  0  0  0  0  0  0  0  0  0
   -1.2169    0.1383   -3.5130 N   0  0  0  0  0  0  0  0  0  0  0  0
   -0.8011   -1.2043   -3.7207 C   0  0  2  0  0  0  0  0  0  0  0  0
   -1.9928   -2.2466   -2.8242 S   0  0  0  0  0  0  0  0  0  0  0  0
   -3.5469   -1.4895   -3.4124 C   0  0  1  0  0  0  0  0  0  0  0  0
   -3.5658   -0.0133   -3.4761 C   0  0  0  0  0  0  0  0  0  0  0  0
    0.5607   -0.8181   -3.0581 C   0  0  1  0  0  0  0  0  0  0  0  0
   -0.0233    0.5239   -3.0402 C   0  0  0  0  0  0  0  0  0  0  0  0
   -2.4201    2.1272   -3.6665 C   0  0  0  0  0  0  0  0  0  0  0  0
   -3.1599    2.9183   -2.8539 O   0  0  0  0  0  0  0  0  0  0  0  0
   -1.6765    2.6996   -4.4967 O   0  0  0  0  0  0  0  0  0  0  0  0
   -4.9055    0.5835   -3.4014 C   0  0  2  0  0  0  0  0  0  0  0  0
   -5.1490    0.8636   -2.0158 O   0  0  0  0  0  0  0  0  0  0  0  0
   -6.2695    1.3984   -1.4600 C   0  0  0  0  0  0  0  0  0  0  0  0
   -6.3030    1.5555   -0.1289 N   0  0  0  0  0  0  0  0  0  0  0  0
   -7.2599    1.7399   -2.1444 O   0  0  0  0  0  0  0  0  0  0  0  0
    0.4100    1.6208   -2.6197 O   0  0  0  0  0  0  0  0  0  0  0  0
    0.7532   -1.3491   -1.7420 N   0  0  0  0  0  0  0  0  0  0  0  0
    1.5708   -0.8331   -0.7786 C   0  0  0  0  0  0  0  0  0  0  0  0
    1.4812   -1.2353    0.5625 C   0  0  0  0  0  0  0  0  0  0  0  0
    2.3796    0.0670   -1.1124 O   0  0  0  0  0  0  0  0  0  0  0  0
    2.4769   -0.9113    1.4844 C   0  0  0  0  0  0  0  0  0  0  0  0
    0.4712   -1.8746    1.0458 N   0  0  0  0  0  0  0  0  0  0  0  0
   -0.5946   -2.2623    0.4533 O   0  0  0  0  0  0  0  0  0  0  0  0
   -1.4960   -2.8580    1.3929 C   0  0  0  0  0  0  0  0  0  0  0  0
    3.7558   -0.5736    1.1675 O   0  0  0  0  0  0  0  0  0  0  0  0
    4.4285   -0.2961    2.3093 C   0  0  0  0  0  0  0  0  0  0  0  0
    3.5763   -0.4556    3.3910 C   0  0  0  0  0  0  0  0  0  0  0  0
    2.3502   -0.8405    2.8758 C   0  0  0  0  0  0  0  0  0  0  0  0
   -0.7333   -1.4551   -4.7853 H   0  0  0  0  0  0  0  0  0  0  0  0
   -3.7425   -1.8738   -4.4156 H   0  0  0  0  0  0  0  0  0  0  0  0
   -4.3277   -1.8673   -2.7486 H   0  0  0  0  0  0  0  0  0  0  0  0
    1.4225   -0.9103   -3.7237 H   0  0  0  0  0  0  0  0  0  0  0  0
   -3.1060    3.8935   -2.9411 H   0  0  0  0  0  0  0  0  0  0  0  0
   -5.6743   -0.1010   -3.7734 H   0  0  0  0  0  0  0  0  0  0  0  0
   -4.9895    1.4936   -3.9993 H   0  0  0  0  0  0  0  0  0  0  0  0
   -7.0942    1.9112    0.3026 H   0  0  0  0  0  0  0  0  0  0  0  0
   -5.5324    1.3095    0.4050 H   0  0  0  0  0  0  0  0  0  0  0  0
    0.2184   -2.1208   -1.5050 H   0  0  0  0  0  0  0  0  0  0  0  0
   -2.3737   -3.2033    0.8443 H   0  0  0  0  0  0  0  0  0  0  0  0
   -1.0404   -3.7175    1.8952 H   0  0  0  0  0  0  0  0  0  0  0  0
   -1.8306   -2.1327    2.1399 H   0  0  0  0  0  0  0  0  0  0  0  0
    5.4087   -0.0143    2.3627 H   0  0  0  0  0  0  0  0  0  0  0  0
    3.8080   -0.3153    4.3752 H   0  0  0  0  0  0  0  0  0  0  0  0
    1.5052   -1.0202    3.4220 H   0  0  0  0  0  0  0  0  0  0  0  0
  1  2  1  0  0  0  0 
  3  2  1  0  0  0  0 
  3  4  1  0  0  0  0 
  4  5  1  0  0  0  0 
  5  6  1  0  0  0  0 
  1  6  2  0  0  0  0 
  7  8  1  0  0  0  0 
  8  2  1  0  0  0  0 
  3  7  1  0  0  0  0 
  1  9  1  0  0  0  0 
  9 10  1  0  0  0  0 
  9 11  2  0  0  0  0 
  6 12  1  0  0  0  0 
 12 13  1  0  0  0  0 
 13 14  1  0  0  0  0 
 14 15  1  0  0  0  0 
 14 16  2  0  0  0  0 
  8 17  2  0  0  0  0 
  7 18  1  0  0  0  0 
 18 19  1  0  0  0  0 
 19 20  1  0  0  0  0 
 19 21  2  0  0  0  0 
 20 22  1  0  0  0  0 
 20 23  2  0  0  0  0 
 23 24  1  0  0  0  0 
 24 25  1  0  0  0  0 
 26 27  1  0  0  0  0 
 27 28  2  0  0  0  0 
 28 29  1  0  0  0  0 
 22 26  1  0  0  0  0 
 22 29  2  0  0  0  0 
  3 30  1  0  0  0  0 
 31  5  1  0  0  0  0 
 32  5  1  0  0  0  0 
  7 33  1  0  0  0  0 
 34 10  1  0  0  0  0 
 35 12  1  0  0  0  0 
 36 12  1  0  0  0  0 
 37 15  1  0  0  0  0 
 38 15  1  0  0  0  0 
 39 18  1  0  0  0  0 
 40 25  1  0  0  0  0 
 41 25  1  0  0  0  0 
 42 25  1  0  0  0  0 
 43 27  1  0  0  0  0 
 44 28  1  0  0  0  0 
 45 29  1  0  0  0  0 
M  END
> <cdk:Title>
cefuroxime

> <Conformer>
1

> <SuperDrugID>
SD000492

$$$$
