bunaftine
  CDK     0628171801

 54 55  0  0  0  0  0  0  0  0999 V2000
   -0.5019    3.9611    2.8106 C   0  0  0  0  0  0  0  0  0  0  0  0
   -0.2229    2.6779    3.2851 N   0  0  0  0  0  0  0  0  0  0  0  0
   -0.3093    4.9671    3.5374 O   0  0  0  0  0  0  0  0  0  0  0  0
   -1.0498    4.2655    1.5384 C   0  0  0  0  0  0  0  0  0  0  0  0
   -0.2376    1.4948    2.4319 C   0  0  1  0  0  0  0  0  0  0  0  0
    0.1236    2.5022    4.6876 C   0  0  2  0  0  0  0  0  0  0  0  0
   -0.3914    5.0849    0.5722 C   0  0  0  0  0  0  0  0  0  0  0  0
   -2.3357    3.7514    1.2562 C   0  0  0  0  0  0  0  0  0  0  0  0
   -1.3436    0.4681    2.8187 C   0  0  2  0  0  0  0  0  0  0  0  0
   -1.0976    2.7026    5.6290 C   0  0  2  0  0  0  0  0  0  0  0  0
   -1.0508    5.3651   -0.6657 C   0  0  0  0  0  0  0  0  0  0  0  0
    0.8983    5.6432    0.7797 C   0  0  0  0  0  0  0  0  0  0  0  0
   -2.9624    4.0138    0.0310 C   0  0  0  0  0  0  0  0  0  0  0  0
   -1.7034   -0.5174    1.7383 N   0  0  1  0  0  0  0  0  0  0  0  0
   -0.7094    2.5881    7.1244 C   0  0  2  0  0  0  0  0  0  0  0  0
   -2.3263    4.8176   -0.9252 C   0  0  0  0  0  0  0  0  0  0  0  0
   -0.4303    6.1915   -1.6313 C   0  0  0  0  0  0  0  0  0  0  0  0
    1.4983    6.4763   -0.1808 C   0  0  0  0  0  0  0  0  0  0  0  0
   -0.6246   -1.5251    1.4458 C   0  0  1  0  0  0  0  0  0  0  0  0
   -3.0549   -1.1523    1.9440 C   0  0  1  0  0  0  0  0  0  0  0  0
   -1.9222    2.7162    8.0721 C   0  0  0  0  0  0  0  0  0  0  0  0
    0.8336    6.7507   -1.3855 C   0  0  0  0  0  0  0  0  0  0  0  0
   -0.6697   -2.0388   -0.0141 C   0  0  0  0  0  0  0  0  0  0  0  0
   -4.2465   -0.2155    1.6315 C   0  0  0  0  0  0  0  0  0  0  0  0
   -0.3607    1.7448    1.3764 H   0  0  0  0  0  0  0  0  0  0  0  0
    0.7443    1.0210    2.5102 H   0  0  0  0  0  0  0  0  0  0  0  0
    0.9168    3.2056    4.9594 H   0  0  0  0  0  0  0  0  0  0  0  0
    0.5298    1.5036    4.8807 H   0  0  0  0  0  0  0  0  0  0  0  0
   -2.8376    3.1853    1.9458 H   0  0  0  0  0  0  0  0  0  0  0  0
   -2.2231    1.0587    3.0687 H   0  0  0  0  0  0  0  0  0  0  0  0
   -1.0443   -0.0642    3.7267 H   0  0  0  0  0  0  0  0  0  0  0  0
   -1.8546    1.9491    5.3970 H   0  0  0  0  0  0  0  0  0  0  0  0
   -1.5424    3.6862    5.4619 H   0  0  0  0  0  0  0  0  0  0  0  0
    1.4253    5.4525    1.6337 H   0  0  0  0  0  0  0  0  0  0  0  0
   -3.8867    3.6242   -0.1602 H   0  0  0  0  0  0  0  0  0  0  0  0
    0.0110    3.3731    7.3658 H   0  0  0  0  0  0  0  0  0  0  0  0
   -0.2345    1.6205    7.3085 H   0  0  0  0  0  0  0  0  0  0  0  0
   -2.8042    4.9988   -1.8128 H   0  0  0  0  0  0  0  0  0  0  0  0
   -0.8912    6.3935   -2.5218 H   0  0  0  0  0  0  0  0  0  0  0  0
    2.4197    6.8841   -0.0023 H   0  0  0  0  0  0  0  0  0  0  0  0
    0.3649   -1.0853    1.5738 H   0  0  0  0  0  0  0  0  0  0  0  0
   -0.6861   -2.3744    2.1349 H   0  0  0  0  0  0  0  0  0  0  0  0
   -3.1827   -2.0123    1.2832 H   0  0  0  0  0  0  0  0  0  0  0  0
   -3.1494   -1.5263    2.9678 H   0  0  0  0  0  0  0  0  0  0  0  0
   -1.5879    2.6220    9.1075 H   0  0  0  0  0  0  0  0  0  0  0  0
   -2.6482    1.9272    7.8674 H   0  0  0  0  0  0  0  0  0  0  0  0
   -2.4076    3.6867    7.9496 H   0  0  0  0  0  0  0  0  0  0  0  0
    1.2719    7.3546   -2.0832 H   0  0  0  0  0  0  0  0  0  0  0  0
   -1.5594   -2.6402   -0.2021 H   0  0  0  0  0  0  0  0  0  0  0  0
   -0.6635   -1.1936   -0.7050 H   0  0  0  0  0  0  0  0  0  0  0  0
    0.2044   -2.6604   -0.2171 H   0  0  0  0  0  0  0  0  0  0  0  0
   -5.1762   -0.7904    1.6382 H   0  0  0  0  0  0  0  0  0  0  0  0
   -4.1238    0.2361    0.6457 H   0  0  0  0  0  0  0  0  0  0  0  0
   -4.3391    0.5753    2.3760 H   0  0  0  0  0  0  0  0  0  0  0  0
  1  2  1  0  0  0  0 
  1  3  2  0  0  0  0 
  1  4  1  0  0  0  0 
  2  5  1  0  0  0  0 
  2  6  1  0  0  0  0 
  4  7  2  0  0  0  0 
  4  8  1  0  0  0  0 
  5  9  1  0  0  0  0 
  6 10  1  0  0  0  0 
  7 11  1  0  0  0  0 
  7 12  1  0  0  0  0 
  8 13  2  0  0  0  0 
  9 14  1  0  0  0  0 
 10 15  1  0  0  0  0 
 11 16  2  0  0  0  0 
 11 17  1  0  0  0  0 
 12 18  2  0  0  0  0 
 13 16  1  0  0  0  0 
 14 19  1  0  0  0  0 
 14 20  1  0  0  0  0 
 15 21  1  0  0  0  0 
 17 22  2  0  0  0  0 
 18 22  1  0  0  0  0 
 19 23  1  0  0  0  0 
 20 24  1  0  0  0  0 
  5 25  1  0  0  0  0 
  5 26  1  0  0  0  0 
  6 27  1  0  0  0  0 
  6 28  1  0  0  0  0 
  8 29  1  0  0  0  0 
  9 30  1  0  0  0  0 
  9 31  1  0  0  0  0 
 10 32  1  0  0  0  0 
 10 33  1  0  0  0  0 
 12 34  1  0  0  0  0 
 13 35  1  0  0  0  0 
 15 36  1  0  0  0  0 
 15 37  1  0  0  0  0 
 16 38  1  0  0  0  0 
 17 39  1  0  0  0  0 
 18 40  1  0  0  0  0 
 19 41  1  0  0  0  0 
 19 42  1  0  0  0  0 
 20 43  1  0  0  0  0 
 20 44  1  0  0  0  0 
 21 45  1  0  0  0  0 
 21 46  1  0  0  0  0 
 21 47  1  0  0  0  0 
 22 48  1  0  0  0  0 
 23 49  1  0  0  0  0 
 23 50  1  0  0  0  0 
 23 51  1  0  0  0  0 
 24 52  1  0  0  0  0 
 24 53  1  0  0  0  0 
 24 54  1  0  0  0  0 
M  END
> <cdk:Title>
bunaftine

> <Conformer>
1

> <SuperDrugID>
SD000370

$$$$
