aprobarbital
  CDK     0628171801

 29 29  0  0  0  0  0  0  0  0999 V2000
    2.4286   -1.1383    0.0145 C   0  0  1  0  0  0  0  0  0  0  0  0
    1.7237    0.0953    0.3494 C   0  0  0  0  0  0  0  0  0  0  0  0
    2.3067   -1.6302   -1.4838 C   0  0  1  0  0  0  0  0  0  0  0  0
    2.3340    1.2565    0.6220 C   0  0  0  0  0  0  0  0  0  0  0  0
    0.8149   -1.7685   -2.0245 C   0  0  1  0  0  0  0  0  0  0  0  0
    3.0457   -0.6279   -2.3446 C   0  0  0  0  0  0  0  0  0  0  0  0
    3.0145   -2.9631   -1.5611 C   0  0  0  0  0  0  0  0  0  0  0  0
    0.7330   -2.2635   -3.5050 C   0  0  0  0  0  0  0  0  0  0  0  0
   -0.1565   -2.6320   -1.1591 C   0  0  0  0  0  0  0  0  0  0  0  0
    2.6357    0.5508   -2.4657 O   0  0  0  0  0  0  0  0  0  0  0  0
    4.1665   -0.9365   -3.0457 N   0  0  0  0  0  0  0  0  0  0  0  0
    2.6112   -3.9564   -0.9130 O   0  0  0  0  0  0  0  0  0  0  0  0
    4.1280   -3.1696   -2.3085 N   0  0  0  0  0  0  0  0  0  0  0  0
    4.6922   -2.1816   -3.0390 C   0  0  0  0  0  0  0  0  0  0  0  0
    5.7177   -2.4222   -3.7118 O   0  0  0  0  0  0  0  0  0  0  0  0
    3.4916   -1.0359    0.2662 H   0  0  0  0  0  0  0  0  0  0  0  0
    2.0466   -1.9055    0.6950 H   0  0  0  0  0  0  0  0  0  0  0  0
    0.7316    0.0722    0.3867 H   0  0  0  0  0  0  0  0  0  0  0  0
    3.3221    1.3372    0.6013 H   0  0  0  0  0  0  0  0  0  0  0  0
    1.7995    2.0610    0.8472 H   0  0  0  0  0  0  0  0  0  0  0  0
    0.3739   -0.7668   -2.0270 H   0  0  0  0  0  0  0  0  0  0  0  0
    1.3043   -1.6140   -4.1700 H   0  0  0  0  0  0  0  0  0  0  0  0
   -0.3006   -2.2615   -3.8576 H   0  0  0  0  0  0  0  0  0  0  0  0
    1.1227   -3.2795   -3.6003 H   0  0  0  0  0  0  0  0  0  0  0  0
   -0.1291   -2.3368   -0.1125 H   0  0  0  0  0  0  0  0  0  0  0  0
   -1.1840   -2.4993   -1.5050 H   0  0  0  0  0  0  0  0  0  0  0  0
    0.0810   -3.6939   -1.2262 H   0  0  0  0  0  0  0  0  0  0  0  0
    4.6023   -0.2449   -3.5676 H   0  0  0  0  0  0  0  0  0  0  0  0
    4.5335   -4.0531   -2.3138 H   0  0  0  0  0  0  0  0  0  0  0  0
  1  2  1  0  0  0  0 
  1  3  1  0  0  0  0 
  2  4  2  0  0  0  0 
  3  5  1  0  0  0  0 
  3  6  1  0  0  0  0 
  3  7  1  0  0  0  0 
  5  8  1  0  0  0  0 
  5  9  1  0  0  0  0 
  6 10  2  0  0  0  0 
  6 11  1  0  0  0  0 
  7 12  2  0  0  0  0 
  7 13  1  0  0  0  0 
 11 14  1  0  0  0  0 
 13 14  1  0  0  0  0 
 14 15  2  0  0  0  0 
 16  1  1  0  0  0  0 
 17  1  1  0  0  0  0 
 18  2  1  0  0  0  0 
 19  4  1  0  0  0  0 
 20  4  1  0  0  0  0 
 21  5  1  0  0  0  0 
 22  8  1  0  0  0  0 
 23  8  1  0  0  0  0 
 24  8  1  0  0  0  0 
 25  9  1  0  0  0  0 
 26  9  1  0  0  0  0 
 27  9  1  0  0  0  0 
 28 11  1  0  0  0  0 
 29 13  1  0  0  0  0 
M  END
> <cdk:Title>
aprobarbital

> <Conformer>
1

> <SuperDrugID>
SD000194

$$$$
