femoxetine
  CDK     0628171801

 48 50  0  0  0  0  0  0  0  0999 V2000
    1.7396    6.0050    4.1580 C   0  0  2  0  0  0  0  0  0  0  0  0
    0.3603    5.7659    4.5137 O   0  0  0  0  0  0  0  0  0  0  0  0
    2.7146    5.2919    5.1435 C   0  0  2  0  0  0  0  0  0  0  0  0
   -0.5261    6.3479    3.6473 C   0  0  0  0  0  0  0  0  0  0  0  0
    2.6015    3.7227    5.1140 C   0  0  2  0  0  0  0  0  0  0  0  0
    2.5433    5.8301    6.6033 C   0  0  1  0  0  0  0  0  0  0  0  0
   -0.9568    7.6786    3.8362 C   0  0  0  0  0  0  0  0  0  0  0  0
   -1.0320    5.6023    2.5635 C   0  0  0  0  0  0  0  0  0  0  0  0
    3.5262    3.0721    6.1961 C   0  0  1  0  0  0  0  0  0  0  0  0
    2.8746    3.0891    3.7768 C   0  0  0  0  0  0  0  0  0  0  0  0
    3.4300    5.1604    7.6068 N   0  0  1  0  0  0  0  0  0  0  0  0
   -1.8547    8.2686    2.9262 C   0  0  0  0  0  0  0  0  0  0  0  0
   -1.9331    6.1908    1.6573 C   0  0  0  0  0  0  0  0  0  0  0  0
    3.2809    3.6762    7.6040 C   0  0  1  0  0  0  0  0  0  0  0  0
    1.9454    2.1803    3.2112 C   0  0  0  0  0  0  0  0  0  0  0  0
    4.0764    3.3355    3.0634 C   0  0  0  0  0  0  0  0  0  0  0  0
    4.8422    5.6421    7.6432 C   0  0  0  0  0  0  0  0  0  0  0  0
   -2.3379    7.5315    1.8249 C   0  0  0  0  0  0  0  0  0  0  0  0
    2.2341    1.4953    2.0167 C   0  0  0  0  0  0  0  0  0  0  0  0
    4.3573    2.6678    1.8566 C   0  0  0  0  0  0  0  0  0  0  0  0
   -3.2176    8.1011    0.9437 O   0  0  0  0  0  0  0  0  0  0  0  0
    3.4423    1.7345    1.3400 C   0  0  0  0  0  0  0  0  0  0  0  0
   -2.5652    8.7356   -0.1701 C   0  0  0  0  0  0  0  0  0  0  0  0
    1.9517    7.0787    4.1830 H   0  0  0  0  0  0  0  0  0  0  0  0
    1.9417    5.6546    3.1398 H   0  0  0  0  0  0  0  0  0  0  0  0
    3.7213    5.5723    4.8240 H   0  0  0  0  0  0  0  0  0  0  0  0
    1.5714    3.4837    5.4100 H   0  0  0  0  0  0  0  0  0  0  0  0
    2.7170    6.9093    6.6198 H   0  0  0  0  0  0  0  0  0  0  0  0
    1.5081    5.6781    6.9217 H   0  0  0  0  0  0  0  0  0  0  0  0
   -0.6159    8.2204    4.6339 H   0  0  0  0  0  0  0  0  0  0  0  0
   -0.7426    4.6303    2.4327 H   0  0  0  0  0  0  0  0  0  0  0  0
    3.3501    1.9928    6.2489 H   0  0  0  0  0  0  0  0  0  0  0  0
    4.5771    3.2179    5.9304 H   0  0  0  0  0  0  0  0  0  0  0  0
   -2.1556    9.2361    3.0653 H   0  0  0  0  0  0  0  0  0  0  0  0
   -2.2924    5.6416    0.8736 H   0  0  0  0  0  0  0  0  0  0  0  0
    2.2687    3.4253    7.9322 H   0  0  0  0  0  0  0  0  0  0  0  0
    3.9623    3.2197    8.3282 H   0  0  0  0  0  0  0  0  0  0  0  0
    1.0528    1.9955    3.6740 H   0  0  0  0  0  0  0  0  0  0  0  0
    4.7670    3.9998    3.4161 H   0  0  0  0  0  0  0  0  0  0  0  0
    4.8698    6.7233    7.7906 H   0  0  0  0  0  0  0  0  0  0  0  0
    5.3746    5.1863    8.4807 H   0  0  0  0  0  0  0  0  0  0  0  0
    5.3778    5.4024    6.7232 H   0  0  0  0  0  0  0  0  0  0  0  0
    1.5671    0.8168    1.6433 H   0  0  0  0  0  0  0  0  0  0  0  0
    5.2310    2.8577    1.3598 H   0  0  0  0  0  0  0  0  0  0  0  0
    3.6551    1.2311    0.4750 H   0  0  0  0  0  0  0  0  0  0  0  0
   -3.3343    9.1502   -0.8204 H   0  0  0  0  0  0  0  0  0  0  0  0
   -1.9204    9.5537    0.1574 H   0  0  0  0  0  0  0  0  0  0  0  0
   -1.9785    8.0215   -0.7519 H   0  0  0  0  0  0  0  0  0  0  0  0
  1  2  1  0  0  0  0 
  2  4  1  0  0  0  0 
  3  1  1  0  0  0  0 
  5  3  1  0  0  0  0 
  3  6  1  0  0  0  0 
  4  7  2  0  0  0  0 
  4  8  1  0  0  0  0 
  5  9  1  0  0  0  0 
  5 10  1  0  0  0  0 
  6 11  1  0  0  0  0 
  7 12  1  0  0  0  0 
  8 13  2  0  0  0  0 
  9 14  1  0  0  0  0 
 10 15  2  0  0  0  0 
 10 16  1  0  0  0  0 
 11 14  1  0  0  0  0 
 11 17  1  0  0  0  0 
 12 18  2  0  0  0  0 
 13 18  1  0  0  0  0 
 15 19  1  0  0  0  0 
 16 20  2  0  0  0  0 
 18 21  1  0  0  0  0 
 19 22  2  0  0  0  0 
 20 22  1  0  0  0  0 
 21 23  1  0  0  0  0 
  1 24  1  0  0  0  0 
  1 25  1  0  0  0  0 
  3 26  1  0  0  0  0 
  5 27  1  0  0  0  0 
  6 28  1  0  0  0  0 
  6 29  1  0  0  0  0 
  7 30  1  0  0  0  0 
  8 31  1  0  0  0  0 
  9 32  1  0  0  0  0 
  9 33  1  0  0  0  0 
 12 34  1  0  0  0  0 
 13 35  1  0  0  0  0 
 14 36  1  0  0  0  0 
 14 37  1  0  0  0  0 
 15 38  1  0  0  0  0 
 16 39  1  0  0  0  0 
 17 40  1  0  0  0  0 
 17 41  1  0  0  0  0 
 17 42  1  0  0  0  0 
 19 43  1  0  0  0  0 
 20 44  1  0  0  0  0 
 22 45  1  0  0  0  0 
 23 46  1  0  0  0  0 
 23 47  1  0  0  0  0 
 23 48  1  0  0  0  0 
M  END
> <cdk:Title>
femoxetine

> <Conformer>
1

> <SuperDrugID>
SD002787

$$$$
