cyclopenthiazide
  CDK     0628171802

 41 43  0  0  0  0  0  0  0  0999 V2000
   -3.2250    3.1388    1.7534 O   0  0  0  0  0  0  0  0  0  0  0  0
   -2.5999    2.4435    3.0552 S   0  0  2  0  0  0  0  0  0  0  0  0
   -1.4825    3.3831    3.7169 O   0  0  0  0  0  0  0  0  0  0  0  0
   -1.9567    0.8457    2.6866 C   0  0  0  0  0  0  0  0  0  0  0  0
   -3.8881    2.1647    4.2197 N   0  0  2  0  0  0  0  0  0  0  0  0
   -2.1938   -0.1857    3.6177 C   0  0  0  0  0  0  0  0  0  0  0  0
   -1.2533    0.5951    1.4938 C   0  0  0  0  0  0  0  0  0  0  0  0
   -3.4496    1.2252    5.2790 C   0  0  2  0  0  0  0  0  0  0  0  0
   -2.8695    0.0007    4.7904 N   0  0  0  0  0  0  0  0  0  0  0  0
   -1.7195   -1.4799    3.3259 C   0  0  0  0  0  0  0  0  0  0  0  0
   -0.7971   -0.7084    1.1934 C   0  0  0  0  0  0  0  0  0  0  0  0
   -4.7099    0.9020    6.1284 C   0  0  2  0  0  0  0  0  0  0  0  0
   -1.0414   -1.7523    2.1206 C   0  0  0  0  0  0  0  0  0  0  0  0
    0.0503   -1.0181   -0.3389 S   0  0  2  0  0  0  0  0  0  0  0  0
   -4.4786   -0.0047    7.3755 C   0  0  2  0  0  0  0  0  0  0  0  0
   -0.5562   -3.3556    1.8370 Cl  0  0  0  0  0  0  0  0  0  0  0  0
    0.2786    0.4529   -1.2716 N   0  0  2  0  0  0  0  0  0  0  0  0
   -0.7905   -2.0494   -1.2373 O   0  0  0  0  0  0  0  0  0  0  0  0
    1.4980   -1.6509   -0.0563 O   0  0  0  0  0  0  0  0  0  0  0  0
   -5.7957   -0.3790    8.0896 C   0  0  2  0  0  0  0  0  0  0  0  0
   -3.6344    0.6114    8.5165 C   0  0  2  0  0  0  0  0  0  0  0  0
   -5.3445   -0.9202    9.4587 C   0  0  2  0  0  0  0  0  0  0  0  0
   -4.0357   -0.1669    9.7924 C   0  0  2  0  0  0  0  0  0  0  0  0
   -4.6280    1.6844    3.7024 H   0  0  0  0  0  0  0  0  0  0  0  0
   -1.0908    1.3671    0.8440 H   0  0  0  0  0  0  0  0  0  0  0  0
   -2.7142    1.7294    5.9123 H   0  0  0  0  0  0  0  0  0  0  0  0
   -2.9471   -0.7780    5.3645 H   0  0  0  0  0  0  0  0  0  0  0  0
   -1.8770   -2.2399    3.9933 H   0  0  0  0  0  0  0  0  0  0  0  0
   -5.4340    0.3998    5.4786 H   0  0  0  0  0  0  0  0  0  0  0  0
   -5.1657    1.8408    6.4564 H   0  0  0  0  0  0  0  0  0  0  0  0
   -4.0055   -0.9392    7.0546 H   0  0  0  0  0  0  0  0  0  0  0  0
    0.8453    1.0800   -0.6946 H   0  0  0  0  0  0  0  0  0  0  0  0
   -0.6447    0.8812   -1.3698 H   0  0  0  0  0  0  0  0  0  0  0  0
   -6.3594   -1.1296    7.5272 H   0  0  0  0  0  0  0  0  0  0  0  0
   -6.4261    0.5052    8.2323 H   0  0  0  0  0  0  0  0  0  0  0  0
   -3.8734    1.6732    8.6426 H   0  0  0  0  0  0  0  0  0  0  0  0
   -2.5646    0.5120    8.3110 H   0  0  0  0  0  0  0  0  0  0  0  0
   -5.1468   -1.9955    9.3844 H   0  0  0  0  0  0  0  0  0  0  0  0
   -6.1138   -0.7518   10.2188 H   0  0  0  0  0  0  0  0  0  0  0  0
   -4.1893    0.5218   10.6292 H   0  0  0  0  0  0  0  0  0  0  0  0
   -3.2488   -0.8771   10.0663 H   0  0  0  0  0  0  0  0  0  0  0  0
  1  2  2  0  0  0  0 
  2  3  2  0  0  0  0 
  2  4  1  0  0  0  0 
  2  5  1  0  0  0  0 
  4  6  2  0  0  0  0 
  4  7  1  0  0  0  0 
  5  8  1  0  0  0  0 
  6  9  1  0  0  0  0 
  6 10  1  0  0  0  0 
  7 11  2  0  0  0  0 
  8  9  1  0  0  0  0 
  8 12  1  0  0  0  0 
 10 13  2  0  0  0  0 
 11 13  1  0  0  0  0 
 11 14  1  0  0  0  0 
 12 15  1  0  0  0  0 
 13 16  1  0  0  0  0 
 14 17  1  0  0  0  0 
 14 18  2  0  0  0  0 
 14 19  2  0  0  0  0 
 15 20  1  0  0  0  0 
 15 21  1  0  0  0  0 
 20 22  1  0  0  0  0 
 21 23  1  0  0  0  0 
 22 23  1  0  0  0  0 
  5 24  1  0  0  0  0 
  7 25  1  0  0  0  0 
  8 26  1  0  0  0  0 
  9 27  1  0  0  0  0 
 10 28  1  0  0  0  0 
 12 29  1  0  0  0  0 
 12 30  1  0  0  0  0 
 15 31  1  0  0  0  0 
 17 32  1  0  0  0  0 
 17 33  1  0  0  0  0 
 20 34  1  0  0  0  0 
 20 35  1  0  0  0  0 
 21 36  1  0  0  0  0 
 21 37  1  0  0  0  0 
 22 38  1  0  0  0  0 
 22 39  1  0  0  0  0 
 23 40  1  0  0  0  0 
 23 41  1  0  0  0  0 
M  END
> <cdk:Title>
cyclopenthiazide

> <Conformer>
1

> <SuperDrugID>
SD000665

$$$$
