lubiprostone
  CDK     0628171801

 59 60  0  0  0  0  0  0  0  0999 V2000
   -4.5773    2.4482   -2.6031 H   0  0  0  0  0  0  0  0  0  0  0  0
   -5.6014    2.3732   -2.2109 C   0  0  2  0  0  0  0  0  0  0  0  0
   -5.5760    2.7644   -0.7246 C   0  0  2  0  0  0  0  0  0  0  0  0
   -5.6202    4.2337   -0.8073 C   0  0  0  0  0  0  0  0  0  0  0  0
   -5.2293    4.9473    0.1448 O   0  0  0  0  0  0  0  0  0  0  0  0
   -6.0921    4.7678   -2.1080 C   0  0  2  0  0  0  0  0  0  0  0  0
   -5.2405    5.2193   -2.6266 H   0  0  0  0  0  0  0  0  0  0  0  0
   -7.2700    5.7898   -2.0277 C   0  0  1  0  0  0  0  0  0  0  0  0
   -6.9230    7.1686   -1.4035 C   0  0  1  0  0  0  0  0  0  0  0  0
   -8.1190    8.1604   -1.4546 C   0  0  2  0  0  0  0  0  0  0  0  0
   -7.8929    9.4353   -0.5967 C   0  0  2  0  0  0  0  0  0  0  0  0
   -9.1189   10.3901   -0.6023 C   0  0  1  0  0  0  0  0  0  0  0  0
   -8.9344   11.6218    0.3254 C   0  0  2  0  0  0  0  0  0  0  0  0
  -10.0885   12.5425    0.2777 C   0  0  0  0  0  0  0  0  0  0  0  0
   -9.9414   13.8162   -0.1565 O   0  0  0  0  0  0  0  0  0  0  0  0
  -11.2229   12.1634    0.6463 O   0  0  0  0  0  0  0  0  0  0  0  0
   -6.5201    3.4517   -2.8146 C   0  0  1  0  0  0  0  0  0  0  0  0
   -7.5539    3.2218   -2.5179 H   0  0  0  0  0  0  0  0  0  0  0  0
   -6.4452    3.3428   -4.3581 C   0  0  1  0  0  0  0  0  0  0  0  0
   -6.8916    1.9125   -4.7826 C   0  0  1  0  0  0  0  0  0  0  0  0
   -6.2303    0.7581   -3.9333 C   0  0  1  0  0  0  0  0  0  0  0  0
   -4.9036    0.5700   -4.4406 O   0  0  0  0  0  0  0  0  0  0  0  0
   -6.1496    1.0777   -2.5119 O   0  0  0  0  0  0  0  0  0  0  0  0
   -7.0236   -0.5933   -4.0539 C   0  0  2  0  0  0  0  0  0  0  0  0
   -7.0703   -0.9807   -5.3759 F   0  0  0  0  0  0  0  0  0  0  0  0
   -8.3229   -0.3772   -3.6477 F   0  0  0  0  0  0  0  0  0  0  0  0
   -6.4425   -1.7669   -3.1984 C   0  0  1  0  0  0  0  0  0  0  0  0
   -7.2810   -3.0792   -3.2510 C   0  0  2  0  0  0  0  0  0  0  0  0
   -6.7814   -4.1659   -2.2588 C   0  0  1  0  0  0  0  0  0  0  0  0
   -7.5356   -5.5083   -2.4046 C   0  0  0  0  0  0  0  0  0  0  0  0
   -4.6668    2.4058   -0.2347 H   0  0  0  0  0  0  0  0  0  0  0  0
   -6.4573    2.3924   -0.1941 H   0  0  0  0  0  0  0  0  0  0  0  0
   -7.6339    5.9625   -3.0424 H   0  0  0  0  0  0  0  0  0  0  0  0
   -8.0921    5.3488   -1.4591 H   0  0  0  0  0  0  0  0  0  0  0  0
   -6.6375    7.0194   -0.3609 H   0  0  0  0  0  0  0  0  0  0  0  0
   -6.0731    7.6050   -1.9366 H   0  0  0  0  0  0  0  0  0  0  0  0
   -9.0187    7.6577   -1.0921 H   0  0  0  0  0  0  0  0  0  0  0  0
   -8.2950    8.4522   -2.4937 H   0  0  0  0  0  0  0  0  0  0  0  0
   -7.0177    9.9690   -0.9761 H   0  0  0  0  0  0  0  0  0  0  0  0
   -7.6877    9.1346    0.4336 H   0  0  0  0  0  0  0  0  0  0  0  0
   -9.2925   10.7354   -1.6257 H   0  0  0  0  0  0  0  0  0  0  0  0
  -10.0030    9.8336   -0.2758 H   0  0  0  0  0  0  0  0  0  0  0  0
   -8.0323   12.1649    0.0319 H   0  0  0  0  0  0  0  0  0  0  0  0
   -8.8051   11.2904    1.3585 H   0  0  0  0  0  0  0  0  0  0  0  0
  -10.7129   14.4220   -0.1734 H   0  0  0  0  0  0  0  0  0  0  0  0
   -7.1070    4.0816   -4.8167 H   0  0  0  0  0  0  0  0  0  0  0  0
   -5.4263    3.5327   -4.7070 H   0  0  0  0  0  0  0  0  0  0  0  0
   -7.9780    1.8746   -4.6800 H   0  0  0  0  0  0  0  0  0  0  0  0
   -6.6685    1.7691   -5.8439 H   0  0  0  0  0  0  0  0  0  0  0  0
   -4.5108   -0.1342   -3.8873 H   0  0  0  0  0  0  0  0  0  0  0  0
   -5.4295   -1.9952   -3.5397 H   0  0  0  0  0  0  0  0  0  0  0  0
   -6.3750   -1.4477   -2.1556 H   0  0  0  0  0  0  0  0  0  0  0  0
   -7.2458   -3.4785   -4.2676 H   0  0  0  0  0  0  0  0  0  0  0  0
   -8.3240   -2.8564   -3.0110 H   0  0  0  0  0  0  0  0  0  0  0  0
   -5.7160   -4.3479   -2.4199 H   0  0  0  0  0  0  0  0  0  0  0  0
   -6.9129   -3.8053   -1.2345 H   0  0  0  0  0  0  0  0  0  0  0  0
   -7.3887   -5.9207   -3.4041 H   0  0  0  0  0  0  0  0  0  0  0  0
   -8.6044   -5.3699   -2.2311 H   0  0  0  0  0  0  0  0  0  0  0  0
   -7.1564   -6.2263   -1.6748 H   0  0  0  0  0  0  0  0  0  0  0  0
  2  1  1  0  0  0  0 
  2  3  1  0  0  0  0 
  3  4  1  0  0  0  0 
  4  5  2  0  0  0  0 
  4  6  1  0  0  0  0 
  6  7  1  0  0  0  0 
  6  8  1  0  0  0  0 
  8  9  1  0  0  0  0 
  9 10  1  0  0  0  0 
 10 11  1  0  0  0  0 
 11 12  1  0  0  0  0 
 12 13  1  0  0  0  0 
 13 14  1  0  0  0  0 
 14 15  1  0  0  0  0 
 14 16  2  0  0  0  0 
  6 17  1  0  0  0  0 
  2 17  1  0  0  0  0 
 17 18  1  0  0  0  0 
 17 19  1  0  0  0  0 
 19 20  1  0  0  0  0 
 20 21  1  0  0  0  0 
 21 22  1  0  0  0  0 
 21 23  1  0  0  0  0 
  2 23  1  0  0  0  0 
 21 24  1  0  0  0  0 
 24 25  1  0  0  0  0 
 24 26  1  0  0  0  0 
 24 27  1  0  0  0  0 
 27 28  1  0  0  0  0 
 28 29  1  0  0  0  0 
 29 30  1  0  0  0  0 
  3 31  1  0  0  0  0 
  3 32  1  0  0  0  0 
  8 33  1  0  0  0  0 
  8 34  1  0  0  0  0 
  9 35  1  0  0  0  0 
  9 36  1  0  0  0  0 
 10 37  1  0  0  0  0 
 10 38  1  0  0  0  0 
 11 39  1  0  0  0  0 
 11 40  1  0  0  0  0 
 12 41  1  0  0  0  0 
 12 42  1  0  0  0  0 
 13 43  1  0  0  0  0 
 13 44  1  0  0  0  0 
 15 45  1  0  0  0  0 
 19 46  1  0  0  0  0 
 19 47  1  0  0  0  0 
 20 48  1  0  0  0  0 
 20 49  1  0  0  0  0 
 22 50  1  0  0  0  0 
 27 51  1  0  0  0  0 
 27 52  1  0  0  0  0 
 28 53  1  0  0  0  0 
 28 54  1  0  0  0  0 
 29 55  1  0  0  0  0 
 29 56  1  0  0  0  0 
 30 57  1  0  0  0  0 
 30 58  1  0  0  0  0 
 30 59  1  0  0  0  0 
M  END
> <cdk:Title>
lubiprostone

> <Conformer>
1

> <SuperDrugID>
SD003366

$$$$
