fludarabine phosphate
  CDK     0628171801

 37 39  0  0  0  0  0  0  0  0999 V2000
    9.1026   -1.2171   -4.4812 N   0  0  0  0  0  0  0  0  0  0  0  0
    8.7601   -1.3319   -3.1871 C   0  0  0  0  0  0  0  0  0  0  0  0
    7.4597   -1.0460   -2.7340 C   0  0  0  0  0  0  0  0  0  0  0  0
    9.6912   -1.7089   -2.2671 N   0  0  0  0  0  0  0  0  0  0  0  0
    7.1782   -1.1536   -1.3764 C   0  0  0  0  0  0  0  0  0  0  0  0
    6.3521   -0.6500   -3.3764 N   0  0  0  0  0  0  0  0  0  0  0  0
    9.3930   -1.8108   -0.9403 C   0  0  0  0  0  0  0  0  0  0  0  0
    5.8896   -0.8090   -1.1937 N   0  0  0  0  0  0  0  0  0  0  0  0
    8.1373   -1.5344   -0.4948 N   0  0  0  0  0  0  0  0  0  0  0  0
    5.4099   -0.5115   -2.4228 C   0  0  0  0  0  0  0  0  0  0  0  0
   10.3147   -2.1655   -0.0930 F   0  0  0  0  0  0  0  0  0  0  0  0
    5.1517   -0.7387    0.0417 C   0  0  2  0  0  0  0  0  0  0  0  0
    6.0389   -0.4380    1.1338 O   0  0  0  0  0  0  0  0  0  0  0  0
    4.3792   -2.0368    0.3942 C   0  0  1  0  0  0  0  0  0  0  0  0
    5.8371   -1.3820    2.1936 C   0  0  1  0  0  0  0  0  0  0  0  0
    4.2361   -2.9623   -0.6843 O   0  0  0  0  0  0  0  0  0  0  0  0
    5.1997   -2.6307    1.5449 C   0  0  1  0  0  0  0  0  0  0  0  0
    7.1814   -1.6795    2.9048 C   0  0  1  0  0  0  0  0  0  0  0  0
    4.4075   -3.3762    2.4658 O   0  0  0  0  0  0  0  0  0  0  0  0
    7.7901   -0.4418    3.3261 O   0  0  0  0  0  0  0  0  0  0  0  0
    9.2899   -0.5767    3.8587 P   0  0  1  0  0  0  0  0  0  0  0  0
   10.1986   -0.9772    2.7805 O   0  0  0  0  0  0  0  0  0  0  0  0
    9.7263    0.8351    4.4261 O   0  0  0  0  0  0  0  0  0  0  0  0
    9.3342   -1.6180    5.0502 O   0  0  0  0  0  0  0  0  0  0  0  0
    8.4436   -0.9355   -5.1342 H   0  0  0  0  0  0  0  0  0  0  0  0
   10.0120   -1.4064   -4.7637 H   0  0  0  0  0  0  0  0  0  0  0  0
    4.4533   -0.2115   -2.6150 H   0  0  0  0  0  0  0  0  0  0  0  0
    4.4427    0.0950   -0.0175 H   0  0  0  0  0  0  0  0  0  0  0  0
    3.3765   -1.7797    0.7477 H   0  0  0  0  0  0  0  0  0  0  0  0
    5.1398   -0.9360    2.9125 H   0  0  0  0  0  0  0  0  0  0  0  0
    3.7490   -3.7245   -0.3007 H   0  0  0  0  0  0  0  0  0  0  0  0
    5.9670   -3.2924    1.1342 H   0  0  0  0  0  0  0  0  0  0  0  0
    6.9892   -2.3209    3.7704 H   0  0  0  0  0  0  0  0  0  0  0  0
    7.8281   -2.2204    2.2072 H   0  0  0  0  0  0  0  0  0  0  0  0
    5.0429   -3.6667    3.1546 H   0  0  0  0  0  0  0  0  0  0  0  0
    9.0939    1.0069    5.1530 H   0  0  0  0  0  0  0  0  0  0  0  0
    8.6943   -1.2666    5.7051 H   0  0  0  0  0  0  0  0  0  0  0  0
  1  2  1  0  0  0  0 
  2  3  2  0  0  0  0 
  2  4  1  0  0  0  0 
  3  5  1  0  0  0  0 
  3  6  1  0  0  0  0 
  4  7  2  0  0  0  0 
  5  8  1  0  0  0  0 
  5  9  2  0  0  0  0 
  6 10  2  0  0  0  0 
  7  9  1  0  0  0  0 
  7 11  1  0  0  0  0 
  8 10  1  0  0  0  0 
 12  8  1  0  0  0  0 
 12 13  1  0  0  0  0 
 14 12  1  0  0  0  0 
 15 13  1  0  0  0  0 
 14 16  1  0  0  0  0 
 17 14  1  0  0  0  0 
 15 17  1  0  0  0  0 
 15 18  1  0  0  0  0 
 17 19  1  0  0  0  0 
 18 20  1  0  0  0  0 
 20 21  1  0  0  0  0 
 21 22  2  0  0  0  0 
 21 23  1  0  0  0  0 
 21 24  1  0  0  0  0 
  1 25  1  0  0  0  0 
  1 26  1  0  0  0  0 
 10 27  1  0  0  0  0 
 12 28  1  0  0  0  0 
 14 29  1  0  0  0  0 
 15 30  1  0  0  0  0 
 16 31  1  0  0  0  0 
 17 32  1  0  0  0  0 
 18 33  1  0  0  0  0 
 18 34  1  0  0  0  0 
 19 35  1  0  0  0  0 
 23 36  1  0  0  0  0 
 24 37  1  0  0  0  0 
M  END
> <cdk:Title>
fludarabine phosphate

> <Conformer>
1

> <SuperDrugID>
SD001064

$$$$
