oxprenolol
  CDK     0628171801

 42 42  0  0  0  0  0  0  0  0999 V2000
    2.4317   -1.0146   -1.6287 O   0  0  0  0  0  0  0  0  0  0  0  0
    1.3391   -0.0755   -1.7199 C   0  0  1  0  0  0  0  0  0  0  0  0
    3.3743   -0.8460   -2.6106 C   0  0  0  0  0  0  0  0  0  0  0  0
    0.2400   -0.4027   -0.6739 C   0  0  2  0  0  0  0  0  0  0  0  0
    3.3108   -1.6044   -3.8042 C   0  0  0  0  0  0  0  0  0  0  0  0
    4.4353    0.0650   -2.4202 C   0  0  0  0  0  0  0  0  0  0  0  0
   -0.3483   -1.8251   -0.8436 C   0  0  2  0  0  0  0  0  0  0  0  0
   -0.8132    0.5515   -0.8106 O   0  0  0  0  0  0  0  0  0  0  0  0
    2.3149   -2.5255   -3.9998 O   0  0  0  0  0  0  0  0  0  0  0  0
    4.2773   -1.4058   -4.8131 C   0  0  0  0  0  0  0  0  0  0  0  0
    5.4070    0.2441   -3.4223 C   0  0  0  0  0  0  0  0  0  0  0  0
   -1.4612   -2.0746    0.1070 N   0  0  1  0  0  0  0  0  0  0  0  0
    2.7142   -3.8599   -3.6221 C   0  0  1  0  0  0  0  0  0  0  0  0
    5.3274   -0.4911   -4.6190 C   0  0  0  0  0  0  0  0  0  0  0  0
   -2.0178   -3.4568    0.1079 C   0  0  1  0  0  0  0  0  0  0  0  0
    1.6572   -4.8000   -3.9326 C   0  0  0  0  0  0  0  0  0  0  0  0
   -2.8751   -3.6573    1.3843 C   0  0  0  0  0  0  0  0  0  0  0  0
   -2.8605   -3.7476   -1.1630 C   0  0  0  0  0  0  0  0  0  0  0  0
    0.4554   -4.7664   -3.3471 C   0  0  0  0  0  0  0  0  0  0  0  0
    1.7051    0.9400   -1.5328 H   0  0  0  0  0  0  0  0  0  0  0  0
    0.8914   -0.1018   -2.7202 H   0  0  0  0  0  0  0  0  0  0  0  0
    0.6598   -0.3038    0.3314 H   0  0  0  0  0  0  0  0  0  0  0  0
    4.5025    0.5969   -1.5502 H   0  0  0  0  0  0  0  0  0  0  0  0
    0.4459   -2.5585   -0.6822 H   0  0  0  0  0  0  0  0  0  0  0  0
   -0.7154   -1.9200   -1.8669 H   0  0  0  0  0  0  0  0  0  0  0  0
   -0.3961    1.4233   -0.6456 H   0  0  0  0  0  0  0  0  0  0  0  0
    4.2206   -1.9331   -5.6867 H   0  0  0  0  0  0  0  0  0  0  0  0
    6.1717    0.9071   -3.2804 H   0  0  0  0  0  0  0  0  0  0  0  0
   -1.0864   -1.9017    1.0428 H   0  0  0  0  0  0  0  0  0  0  0  0
    3.6139   -4.1629   -4.1679 H   0  0  0  0  0  0  0  0  0  0  0  0
    2.9314   -3.9063   -2.5505 H   0  0  0  0  0  0  0  0  0  0  0  0
    6.0337   -0.3633   -5.3463 H   0  0  0  0  0  0  0  0  0  0  0  0
   -1.1990   -4.1831    0.1561 H   0  0  0  0  0  0  0  0  0  0  0  0
    1.8315   -5.5056   -4.6126 H   0  0  0  0  0  0  0  0  0  0  0  0
   -2.2718   -3.4822    2.2764 H   0  0  0  0  0  0  0  0  0  0  0  0
   -3.7239   -2.9706    1.3969 H   0  0  0  0  0  0  0  0  0  0  0  0
   -3.2554   -4.6810    1.4299 H   0  0  0  0  0  0  0  0  0  0  0  0
   -3.6636   -3.0148   -1.2661 H   0  0  0  0  0  0  0  0  0  0  0  0
   -2.2358   -3.7131   -2.0553 H   0  0  0  0  0  0  0  0  0  0  0  0
   -3.3015   -4.7446   -1.1067 H   0  0  0  0  0  0  0  0  0  0  0  0
    0.2414   -4.0818   -2.6649 H   0  0  0  0  0  0  0  0  0  0  0  0
   -0.2409   -5.4329   -3.5882 H   0  0  0  0  0  0  0  0  0  0  0  0
  1  2  1  0  0  0  0 
  1  3  1  0  0  0  0 
  4  2  1  0  0  0  0 
  3  5  2  0  0  0  0 
  3  6  1  0  0  0  0 
  4  7  1  0  0  0  0 
  4  8  1  0  0  0  0 
  5  9  1  0  0  0  0 
  5 10  1  0  0  0  0 
  6 11  2  0  0  0  0 
  7 12  1  0  0  0  0 
  9 13  1  0  0  0  0 
 10 14  2  0  0  0  0 
 11 14  1  0  0  0  0 
 12 15  1  0  0  0  0 
 13 16  1  0  0  0  0 
 15 17  1  0  0  0  0 
 15 18  1  0  0  0  0 
 16 19  2  0  0  0  0 
  2 20  1  0  0  0  0 
  2 21  1  0  0  0  0 
  4 22  1  0  0  0  0 
  6 23  1  0  0  0  0 
  7 24  1  0  0  0  0 
  7 25  1  0  0  0  0 
  8 26  1  0  0  0  0 
 10 27  1  0  0  0  0 
 11 28  1  0  0  0  0 
 12 29  1  0  0  0  0 
 13 30  1  0  0  0  0 
 13 31  1  0  0  0  0 
 14 32  1  0  0  0  0 
 15 33  1  0  0  0  0 
 16 34  1  0  0  0  0 
 17 35  1  0  0  0  0 
 17 36  1  0  0  0  0 
 17 37  1  0  0  0  0 
 18 38  1  0  0  0  0 
 18 39  1  0  0  0  0 
 18 40  1  0  0  0  0 
 19 41  1  0  0  0  0 
 19 42  1  0  0  0  0 
M  END
> <cdk:Title>
oxprenolol

> <Conformer>
1

> <SuperDrugID>
SD001814

$$$$
