prednisolone steaglate
  CDK     0628171801

113116  0  0  0  0  0  0  0  0999 V2000
   -0.4668   -4.1107   -4.6508 C   0  0  0  0  0  0  0  0  0  0  0  0
    0.7806   -4.3784   -3.7241 C   0  0  2  0  0  0  0  0  0  0  0  0
    2.0547   -4.8746   -4.4890 C   0  0  2  0  0  0  0  0  0  0  0  0
    0.4827   -5.6462   -2.8181 C   0  0  2  0  0  0  0  0  0  0  0  0
    1.2130   -3.0446   -3.0049 C   0  0  2  0  0  0  0  0  0  0  0  0
    2.5945   -3.8713   -5.5671 C   0  0  1  0  0  0  0  0  0  0  0  0
    1.7242   -6.3212   -4.9121 C   0  0  1  0  0  0  0  0  0  0  0  0
   -0.8861   -5.7506   -2.1888 C   0  0  0  0  0  0  0  0  0  0  0  0
    1.4285   -5.7127   -1.7397 O   0  0  0  0  0  0  0  0  0  0  0  0
    0.8310   -6.8539   -3.7662 C   0  0  2  0  0  0  0  0  0  0  0  0
    1.8710   -1.9685   -3.9410 C   0  0  1  0  0  0  0  0  0  0  0  0
    3.0191   -2.5189   -4.8720 C   0  0  2  0  0  0  0  0  0  0  0  0
    3.7934   -4.4792   -6.3580 C   0  0  1  0  0  0  0  0  0  0  0  0
   -1.3024   -5.1056   -0.9215 C   0  0  2  0  0  0  0  0  0  0  0  0
   -1.7575   -6.4991   -2.6937 O   0  0  0  0  0  0  0  0  0  0  0  0
    0.8521   -1.3118   -4.6865 O   0  0  0  0  0  0  0  0  0  0  0  0
    3.7051   -1.4854   -5.8821 C   0  0  2  0  0  0  0  0  0  0  0  0
    4.4283   -3.4636   -7.3352 C   0  0  2  0  0  0  0  0  0  0  0  0
   -0.4398   -4.0398   -0.5281 O   0  0  0  0  0  0  0  0  0  0  0  0
    2.7282   -0.8698   -6.9497 C   0  0  0  0  0  0  0  0  0  0  0  0
    4.7755   -2.2189   -6.6379 C   0  0  0  0  0  0  0  0  0  0  0  0
    4.2504   -0.3191   -5.1395 C   0  0  0  0  0  0  0  0  0  0  0  0
   -0.4872   -3.3523    0.6464 C   0  0  0  0  0  0  0  0  0  0  0  0
    6.0511   -1.7698   -6.6674 C   0  0  0  0  0  0  0  0  0  0  0  0
    5.5310    0.0777   -5.2193 C   0  0  0  0  0  0  0  0  0  0  0  0
    0.4339   -2.2232    0.8143 C   0  0  2  0  0  0  0  0  0  0  0  0
   -1.2747   -3.6778    1.5673 O   0  0  0  0  0  0  0  0  0  0  0  0
    6.4348   -0.6247   -5.9908 C   0  0  0  0  0  0  0  0  0  0  0  0
    0.0909   -1.2071   -0.1340 O   0  0  0  0  0  0  0  0  0  0  0  0
    7.6177   -0.2213   -6.0747 O   0  0  0  0  0  0  0  0  0  0  0  0
    0.7025    0.0038   -0.2810 C   0  0  0  0  0  0  0  0  0  0  0  0
    0.1927    0.9459   -1.2978 C   0  0  1  0  0  0  0  0  0  0  0  0
    1.6759    0.3266    0.4396 O   0  0  0  0  0  0  0  0  0  0  0  0
   -0.4063    2.2321   -0.6649 C   0  0  1  0  0  0  0  0  0  0  0  0
   -1.1737    3.1256   -1.6813 C   0  0  2  0  0  0  0  0  0  0  0  0
   -1.7083    4.4291   -1.0241 C   0  0  1  0  0  0  0  0  0  0  0  0
   -2.3723    5.4238   -2.0183 C   0  0  1  0  0  0  0  0  0  0  0  0
   -2.7911    6.7523   -1.3263 C   0  0  2  0  0  0  0  0  0  0  0  0
   -3.3800    7.8104   -2.3005 C   0  0  2  0  0  0  0  0  0  0  0  0
   -3.7569    9.1333   -1.5745 C   0  0  1  0  0  0  0  0  0  0  0  0
   -4.3469   10.2102   -2.5254 C   0  0  2  0  0  0  0  0  0  0  0  0
   -4.7329   11.5249   -1.7905 C   0  0  2  0  0  0  0  0  0  0  0  0
   -5.3329   12.5907   -2.7487 C   0  0  2  0  0  0  0  0  0  0  0  0
   -5.7302   13.9081   -2.0271 C   0  0  2  0  0  0  0  0  0  0  0  0
   -6.3308   14.9621   -2.9975 C   0  0  2  0  0  0  0  0  0  0  0  0
   -6.7316   16.2827   -2.2864 C   0  0  2  0  0  0  0  0  0  0  0  0
   -7.3299   17.3285   -3.2659 C   0  0  1  0  0  0  0  0  0  0  0  0
   -7.7298   18.6484   -2.5547 C   0  0  1  0  0  0  0  0  0  0  0  0
   -8.3257   19.6942   -3.5230 C   0  0  0  0  0  0  0  0  0  0  0  0
   -1.3091   -3.7487   -4.0599 H   0  0  0  0  0  0  0  0  0  0  0  0
   -0.7901   -5.0201   -5.1602 H   0  0  0  0  0  0  0  0  0  0  0  0
   -0.2752   -3.3671   -5.4189 H   0  0  0  0  0  0  0  0  0  0  0  0
    2.8764   -4.9813   -3.7631 H   0  0  0  0  0  0  0  0  0  0  0  0
    1.9366   -3.2672   -2.2171 H   0  0  0  0  0  0  0  0  0  0  0  0
    0.3501   -2.5929   -2.5144 H   0  0  0  0  0  0  0  0  0  0  0  0
    1.8065   -3.6652   -6.2915 H   0  0  0  0  0  0  0  0  0  0  0  0
    1.1857   -6.3328   -5.8647 H   0  0  0  0  0  0  0  0  0  0  0  0
    2.6333   -6.9234   -5.0171 H   0  0  0  0  0  0  0  0  0  0  0  0
    1.2717   -6.5791   -1.3058 H   0  0  0  0  0  0  0  0  0  0  0  0
   -0.0546   -7.3076   -4.2171 H   0  0  0  0  0  0  0  0  0  0  0  0
    1.3551   -7.6427   -3.2191 H   0  0  0  0  0  0  0  0  0  0  0  0
    2.2980   -1.2003   -3.2882 H   0  0  0  0  0  0  0  0  0  0  0  0
    3.8148   -2.7940   -4.1686 H   0  0  0  0  0  0  0  0  0  0  0  0
    4.5619   -4.8247   -5.6603 H   0  0  0  0  0  0  0  0  0  0  0  0
    3.4598   -5.3446   -6.9361 H   0  0  0  0  0  0  0  0  0  0  0  0
   -1.3405   -5.8702   -0.1377 H   0  0  0  0  0  0  0  0  0  0  0  0
   -2.3018   -4.6777   -1.0403 H   0  0  0  0  0  0  0  0  0  0  0  0
    0.2416   -0.9343   -4.0192 H   0  0  0  0  0  0  0  0  0  0  0  0
    3.7310   -3.2501   -8.1480 H   0  0  0  0  0  0  0  0  0  0  0  0
    5.2977   -3.9456   -7.7934 H   0  0  0  0  0  0  0  0  0  0  0  0
    3.2910   -0.3323   -7.7202 H   0  0  0  0  0  0  0  0  0  0  0  0
    2.1310   -1.6360   -7.4459 H   0  0  0  0  0  0  0  0  0  0  0  0
    2.0356   -0.1510   -6.5095 H   0  0  0  0  0  0  0  0  0  0  0  0
    3.6406    0.2196   -4.5697 H   0  0  0  0  0  0  0  0  0  0  0  0
    6.7472   -2.2648   -7.1772 H   0  0  0  0  0  0  0  0  0  0  0  0
    5.8265    0.8866   -4.7206 H   0  0  0  0  0  0  0  0  0  0  0  0
    1.4553   -2.5690    0.6349 H   0  0  0  0  0  0  0  0  0  0  0  0
    0.3629   -1.8198    1.8282 H   0  0  0  0  0  0  0  0  0  0  0  0
    1.0125    1.2090   -1.9717 H   0  0  0  0  0  0  0  0  0  0  0  0
   -0.5797    0.4449   -1.8873 H   0  0  0  0  0  0  0  0  0  0  0  0
   -1.0997    1.9473    0.1319 H   0  0  0  0  0  0  0  0  0  0  0  0
    0.4052    2.8138   -0.2155 H   0  0  0  0  0  0  0  0  0  0  0  0
   -2.0175    2.5594   -2.0856 H   0  0  0  0  0  0  0  0  0  0  0  0
   -0.5073    3.3813   -2.5097 H   0  0  0  0  0  0  0  0  0  0  0  0
   -2.4370    4.1591   -0.2543 H   0  0  0  0  0  0  0  0  0  0  0  0
   -0.8725    4.9357   -0.5344 H   0  0  0  0  0  0  0  0  0  0  0  0
   -1.6652    5.6506   -2.8205 H   0  0  0  0  0  0  0  0  0  0  0  0
   -3.2550    4.9556   -2.4629 H   0  0  0  0  0  0  0  0  0  0  0  0
   -1.9145    7.1851   -0.8356 H   0  0  0  0  0  0  0  0  0  0  0  0
   -3.5342    6.5293   -0.5552 H   0  0  0  0  0  0  0  0  0  0  0  0
   -4.2709    7.3970   -2.7815 H   0  0  0  0  0  0  0  0  0  0  0  0
   -2.6434    8.0288   -3.0789 H   0  0  0  0  0  0  0  0  0  0  0  0
   -4.4899    8.9112   -0.7940 H   0  0  0  0  0  0  0  0  0  0  0  0
   -2.8625    9.5404   -1.0943 H   0  0  0  0  0  0  0  0  0  0  0  0
   -5.2369    9.8023   -3.0123 H   0  0  0  0  0  0  0  0  0  0  0  0
   -3.6100   10.4406   -3.2999 H   0  0  0  0  0  0  0  0  0  0  0  0
   -3.8427   11.9402   -1.3092 H   0  0  0  0  0  0  0  0  0  0  0  0
   -5.4651   11.2964   -1.0108 H   0  0  0  0  0  0  0  0  0  0  0  0
   -6.2200   12.1718   -3.2324 H   0  0  0  0  0  0  0  0  0  0  0  0
   -4.5987   12.8209   -3.5261 H   0  0  0  0  0  0  0  0  0  0  0  0
   -4.8444   14.3317   -1.5453 H   0  0  0  0  0  0  0  0  0  0  0  0
   -6.4653   13.6808   -1.2497 H   0  0  0  0  0  0  0  0  0  0  0  0
   -7.2161   14.5374   -3.4793 H   0  0  0  0  0  0  0  0  0  0  0  0
   -5.5957   15.1883   -3.7751 H   0  0  0  0  0  0  0  0  0  0  0  0
   -5.8479   16.7109   -1.8049 H   0  0  0  0  0  0  0  0  0  0  0  0
   -7.4688   16.0601   -1.5097 H   0  0  0  0  0  0  0  0  0  0  0  0
   -6.5934   17.5522   -4.0431 H   0  0  0  0  0  0  0  0  0  0  0  0
   -8.2144   16.9017   -3.7475 H   0  0  0  0  0  0  0  0  0  0  0  0
   -8.4693   18.4325   -1.7787 H   0  0  0  0  0  0  0  0  0  0  0  0
   -6.8488   19.0825   -2.0739 H   0  0  0  0  0  0  0  0  0  0  0  0
   -8.5882   20.5992   -2.9717 H   0  0  0  0  0  0  0  0  0  0  0  0
   -7.5997   19.9556   -4.2955 H   0  0  0  0  0  0  0  0  0  0  0  0
   -9.2270   19.3029   -3.9990 H   0  0  0  0  0  0  0  0  0  0  0  0
  2  1  1  0  0  0  0 
  3  2  1  0  0  0  0 
  2  4  1  0  0  0  0 
  2  5  1  0  0  0  0 
  6  3  1  0  0  0  0 
  3  7  1  0  0  0  0 
  4  8  1  0  0  0  0 
  4  9  1  0  0  0  0 
  4 10  1  0  0  0  0 
 11  5  1  0  0  0  0 
 12  6  1  0  0  0  0 
  6 13  1  0  0  0  0 
  7 10  1  0  0  0  0 
  8 14  1  0  0  0  0 
  8 15  2  0  0  0  0 
 12 11  1  0  0  0  0 
 11 16  1  0  0  0  0 
 12 17  1  0  0  0  0 
 13 18  1  0  0  0  0 
 14 19  1  0  0  0  0 
 17 20  1  0  0  0  0 
 17 21  1  0  0  0  0 
 17 22  1  0  0  0  0 
 18 21  1  0  0  0  0 
 19 23  1  0  0  0  0 
 21 24  2  0  0  0  0 
 22 25  2  0  0  0  0 
 23 26  1  0  0  0  0 
 23 27  2  0  0  0  0 
 24 28  1  0  0  0  0 
 25 28  1  0  0  0  0 
 26 29  1  0  0  0  0 
 28 30  2  0  0  0  0 
 29 31  1  0  0  0  0 
 31 32  1  0  0  0  0 
 31 33  2  0  0  0  0 
 32 34  1  0  0  0  0 
 34 35  1  0  0  0  0 
 35 36  1  0  0  0  0 
 36 37  1  0  0  0  0 
 37 38  1  0  0  0  0 
 38 39  1  0  0  0  0 
 39 40  1  0  0  0  0 
 40 41  1  0  0  0  0 
 41 42  1  0  0  0  0 
 42 43  1  0  0  0  0 
 43 44  1  0  0  0  0 
 44 45  1  0  0  0  0 
 45 46  1  0  0  0  0 
 46 47  1  0  0  0  0 
 47 48  1  0  0  0  0 
 48 49  1  0  0  0  0 
 50  1  1  0  0  0  0 
 51  1  1  0  0  0  0 
 52  1  1  0  0  0  0 
  3 53  1  0  0  0  0 
 54  5  1  0  0  0  0 
 55  5  1  0  0  0  0 
  6 56  1  0  0  0  0 
 57  7  1  0  0  0  0 
 58  7  1  0  0  0  0 
 59  9  1  0  0  0  0 
 60 10  1  0  0  0  0 
 61 10  1  0  0  0  0 
 11 62  1  0  0  0  0 
 12 63  1  0  0  0  0 
 64 13  1  0  0  0  0 
 65 13  1  0  0  0  0 
 66 14  1  0  0  0  0 
 67 14  1  0  0  0  0 
 68 16  1  0  0  0  0 
 69 18  1  0  0  0  0 
 70 18  1  0  0  0  0 
 71 20  1  0  0  0  0 
 72 20  1  0  0  0  0 
 73 20  1  0  0  0  0 
 74 22  1  0  0  0  0 
 75 24  1  0  0  0  0 
 76 25  1  0  0  0  0 
 77 26  1  0  0  0  0 
 78 26  1  0  0  0  0 
 79 32  1  0  0  0  0 
 80 32  1  0  0  0  0 
 81 34  1  0  0  0  0 
 82 34  1  0  0  0  0 
 83 35  1  0  0  0  0 
 84 35  1  0  0  0  0 
 85 36  1  0  0  0  0 
 86 36  1  0  0  0  0 
 87 37  1  0  0  0  0 
 88 37  1  0  0  0  0 
 89 38  1  0  0  0  0 
 90 38  1  0  0  0  0 
 91 39  1  0  0  0  0 
 92 39  1  0  0  0  0 
 93 40  1  0  0  0  0 
 94 40  1  0  0  0  0 
 95 41  1  0  0  0  0 
 96 41  1  0  0  0  0 
 97 42  1  0  0  0  0 
 98 42  1  0  0  0  0 
 99 43  1  0  0  0  0 
100 43  1  0  0  0  0 
101 44  1  0  0  0  0 
102 44  1  0  0  0  0 
103 45  1  0  0  0  0 
104 45  1  0  0  0  0 
105 46  1  0  0  0  0 
106 46  1  0  0  0  0 
107 47  1  0  0  0  0 
108 47  1  0  0  0  0 
109 48  1  0  0  0  0 
110 48  1  0  0  0  0 
111 49  1  0  0  0  0 
112 49  1  0  0  0  0 
113 49  1  0  0  0  0 
M  END
> <cdk:Title>
prednisolone steaglate

> <Conformer>
1

> <SuperDrugID>
SD002017

$$$$
