ascorbic acid
  CDK     0628171801

 20 20  0  0  0  0  0  0  0  0999 V2000
   -0.9497    1.4984    1.3731 O   0  0  0  0  0  0  0  0  0  0  0  0
   -0.0959    0.7105    0.5491 C   0  0  1  0  0  0  0  0  0  0  0  0
   -0.4092    0.9192   -0.9519 C   0  0  2  0  0  0  0  0  0  0  0  0
    0.4268    0.0537   -1.7232 O   0  0  0  0  0  0  0  0  0  0  0  0
   -0.2234    2.4012   -1.3865 C   0  0  1  0  0  0  0  0  0  0  0  0
    1.1336    2.8368   -1.2460 O   0  0  0  0  0  0  0  0  0  0  0  0
    1.6153    3.2355   -2.4435 C   0  0  0  0  0  0  0  0  0  0  0  0
    2.7680    3.6821   -2.6348 O   0  0  0  0  0  0  0  0  0  0  0  0
    0.6560    3.0831   -3.3891 C   0  0  0  0  0  0  0  0  0  0  0  0
    0.7958    3.3493   -4.6798 O   0  0  0  0  0  0  0  0  0  0  0  0
   -0.4431    2.6199   -2.7979 C   0  0  0  0  0  0  0  0  0  0  0  0
   -1.5886    2.3783   -3.4220 O   0  0  0  0  0  0  0  0  0  0  0  0
   -1.8586    1.2100    1.1450 H   0  0  0  0  0  0  0  0  0  0  0  0
    0.9412    0.9821    0.7572 H   0  0  0  0  0  0  0  0  0  0  0  0
   -0.2373   -0.3394    0.8132 H   0  0  0  0  0  0  0  0  0  0  0  0
   -1.4474    0.6249   -1.1332 H   0  0  0  0  0  0  0  0  0  0  0  0
    0.2209   -0.8515   -1.4054 H   0  0  0  0  0  0  0  0  0  0  0  0
   -0.8768    3.0592   -0.8048 H   0  0  0  0  0  0  0  0  0  0  0  0
    0.1324    2.7794   -5.1261 H   0  0  0  0  0  0  0  0  0  0  0  0
   -2.2770    2.4272   -2.7229 H   0  0  0  0  0  0  0  0  0  0  0  0
  1  2  1  0  0  0  0 
  3  2  1  0  0  0  0 
  3  4  1  0  0  0  0 
  3  5  1  0  0  0  0 
  5  6  1  0  0  0  0 
  6  7  1  0  0  0  0 
  7  8  2  0  0  0  0 
  7  9  1  0  0  0  0 
  9 10  1  0  0  0  0 
  9 11  2  0  0  0  0 
  5 11  1  0  0  0  0 
 11 12  1  0  0  0  0 
 13  1  1  0  0  0  0 
 14  2  1  0  0  0  0 
 15  2  1  0  0  0  0 
  3 16  1  0  0  0  0 
 17  4  1  0  0  0  0 
  5 18  1  0  0  0  0 
 19 10  1  0  0  0  0 
 20 12  1  0  0  0  0 
M  END
> <cdk:Title>
ascorbic acid

> <Conformer>
1

> <SuperDrugID>
SD003348

$$$$
