pifarnine
  CDK     0628171801

 71 73  0  0  0  0  0  0  0  0999 V2000
   -2.4351   -1.1231   -1.3938 C   0  0  2  0  0  0  0  0  0  0  0  0
   -1.6059   -0.5139   -2.4659 C   0  0  0  0  0  0  0  0  0  0  0  0
   -3.7753   -1.5874   -1.8799 N   0  0  1  0  0  0  0  0  0  0  0  0
   -0.5977   -1.2792   -3.1043 C   0  0  0  0  0  0  0  0  0  0  0  0
   -1.8236    0.8254   -2.8830 C   0  0  0  0  0  0  0  0  0  0  0  0
   -3.7180   -2.6576   -2.9288 C   0  0  2  0  0  0  0  0  0  0  0  0
   -4.6662   -1.9923   -0.7473 C   0  0  1  0  0  0  0  0  0  0  0  0
    0.1643   -0.6984   -4.1303 C   0  0  0  0  0  0  0  0  0  0  0  0
   -1.0331    1.4001   -3.9011 C   0  0  0  0  0  0  0  0  0  0  0  0
   -5.1320   -3.0121   -3.4449 C   0  0  2  0  0  0  0  0  0  0  0  0
   -6.0815   -2.3615   -1.2515 C   0  0  2  0  0  0  0  0  0  0  0  0
   -0.0393    0.6174   -4.5136 C   0  0  0  0  0  0  0  0  0  0  0  0
    1.1339   -1.2860   -4.8559 O   0  0  0  0  0  0  0  0  0  0  0  0
   -6.0134   -3.4182   -2.3098 N   0  0  1  0  0  0  0  0  0  0  0  0
    0.8061    0.9785   -5.4984 O   0  0  0  0  0  0  0  0  0  0  0  0
    1.3515   -0.2994   -5.8821 C   0  0  1  0  0  0  0  0  0  0  0  0
   -7.3530   -3.9343   -2.7406 C   0  0  2  0  0  0  0  0  0  0  0  0
   -7.9986   -4.6893   -1.6728 C   0  0  0  0  0  0  0  0  0  0  0  0
   -7.5800   -5.8637   -1.1456 C   0  0  0  0  0  0  0  0  0  0  0  0
   -6.4128   -6.5984   -1.6377 C   0  0  0  0  0  0  0  0  0  0  0  0
   -8.2960   -6.4342    0.0084 C   0  0  2  0  0  0  0  0  0  0  0  0
   -8.0130   -5.6582    1.3288 C   0  0  2  0  0  0  0  0  0  0  0  0
   -8.5673   -6.3192    2.5054 C   0  0  0  0  0  0  0  0  0  0  0  0
   -7.9637   -7.2153    3.3237 C   0  0  0  0  0  0  0  0  0  0  0  0
   -8.6994   -7.6886    4.5100 C   0  0  2  0  0  0  0  0  0  0  0  0
   -6.6144   -7.7445    3.1128 C   0  0  0  0  0  0  0  0  0  0  0  0
   -8.9145   -6.5812    5.5882 C   0  0  1  0  0  0  0  0  0  0  0  0
   -9.7705   -7.0280    6.6845 C   0  0  0  0  0  0  0  0  0  0  0  0
  -11.1227   -6.9775    6.7306 C   0  0  0  0  0  0  0  0  0  0  0  0
  -11.8413   -7.5068    7.8884 C   0  0  0  0  0  0  0  0  0  0  0  0
  -11.9247   -6.4070    5.6482 C   0  0  0  0  0  0  0  0  0  0  0  0
   -2.5623   -0.3706   -0.6087 H   0  0  0  0  0  0  0  0  0  0  0  0
   -1.9016   -1.9597   -0.9312 H   0  0  0  0  0  0  0  0  0  0  0  0
   -0.4300   -2.2528   -2.8405 H   0  0  0  0  0  0  0  0  0  0  0  0
   -2.5577    1.3893   -2.4455 H   0  0  0  0  0  0  0  0  0  0  0  0
   -3.2463   -3.5593   -2.5236 H   0  0  0  0  0  0  0  0  0  0  0  0
   -3.1345   -2.3273   -3.7913 H   0  0  0  0  0  0  0  0  0  0  0  0
   -4.2392   -2.8488   -0.2152 H   0  0  0  0  0  0  0  0  0  0  0  0
   -4.7689   -1.1703   -0.0340 H   0  0  0  0  0  0  0  0  0  0  0  0
   -1.1839    2.3674   -4.1933 H   0  0  0  0  0  0  0  0  0  0  0  0
   -5.0333   -3.8319   -4.1646 H   0  0  0  0  0  0  0  0  0  0  0  0
   -5.5544   -2.1462   -3.9659 H   0  0  0  0  0  0  0  0  0  0  0  0
   -6.5725   -1.4651   -1.6434 H   0  0  0  0  0  0  0  0  0  0  0  0
   -6.6574   -2.7171   -0.3928 H   0  0  0  0  0  0  0  0  0  0  0  0
    2.4233   -0.1998   -6.0604 H   0  0  0  0  0  0  0  0  0  0  0  0
    0.8780   -0.6317   -6.8131 H   0  0  0  0  0  0  0  0  0  0  0  0
   -7.2626   -4.5868   -3.6122 H   0  0  0  0  0  0  0  0  0  0  0  0
   -7.9901   -3.0979   -3.0454 H   0  0  0  0  0  0  0  0  0  0  0  0
   -8.8067   -4.2644   -1.2778 H   0  0  0  0  0  0  0  0  0  0  0  0
   -5.7042   -6.7460   -0.8218 H   0  0  0  0  0  0  0  0  0  0  0  0
   -5.8757   -6.1051   -2.4476 H   0  0  0  0  0  0  0  0  0  0  0  0
   -6.7320   -7.5766   -2.0032 H   0  0  0  0  0  0  0  0  0  0  0  0
   -8.0126   -7.4828    0.1528 H   0  0  0  0  0  0  0  0  0  0  0  0
   -9.3732   -6.4299   -0.1884 H   0  0  0  0  0  0  0  0  0  0  0  0
   -8.4665   -4.6630    1.2594 H   0  0  0  0  0  0  0  0  0  0  0  0
   -6.9422   -5.4864    1.4562 H   0  0  0  0  0  0  0  0  0  0  0  0
   -9.5047   -6.0628    2.7242 H   0  0  0  0  0  0  0  0  0  0  0  0
   -8.1763   -8.5216    4.9904 H   0  0  0  0  0  0  0  0  0  0  0  0
   -9.6609   -8.0907    4.1835 H   0  0  0  0  0  0  0  0  0  0  0  0
   -5.9595   -7.4064    3.9195 H   0  0  0  0  0  0  0  0  0  0  0  0
   -6.1668   -7.4554    2.1627 H   0  0  0  0  0  0  0  0  0  0  0  0
   -6.6423   -8.8361    3.1246 H   0  0  0  0  0  0  0  0  0  0  0  0
   -7.9373   -6.3142    6.0002 H   0  0  0  0  0  0  0  0  0  0  0  0
   -9.3112   -5.6666    5.1436 H   0  0  0  0  0  0  0  0  0  0  0  0
   -9.2915   -7.4275    7.4605 H   0  0  0  0  0  0  0  0  0  0  0  0
  -12.4738   -6.7266    8.3180 H   0  0  0  0  0  0  0  0  0  0  0  0
  -11.1835   -7.8707    8.6818 H   0  0  0  0  0  0  0  0  0  0  0  0
  -12.4723   -8.3414    7.5721 H   0  0  0  0  0  0  0  0  0  0  0  0
  -12.9985   -6.4876    5.8371 H   0  0  0  0  0  0  0  0  0  0  0  0
  -11.7216   -6.9218    4.7081 H   0  0  0  0  0  0  0  0  0  0  0  0
  -11.6948   -5.3465    5.5361 H   0  0  0  0  0  0  0  0  0  0  0  0
  1  2  1  0  0  0  0 
  1  3  1  0  0  0  0 
  2  4  2  0  0  0  0 
  2  5  1  0  0  0  0 
  3  6  1  0  0  0  0 
  3  7  1  0  0  0  0 
  4  8  1  0  0  0  0 
  5  9  2  0  0  0  0 
  6 10  1  0  0  0  0 
  7 11  1  0  0  0  0 
  8 12  2  0  0  0  0 
  8 13  1  0  0  0  0 
  9 12  1  0  0  0  0 
 10 14  1  0  0  0  0 
 11 14  1  0  0  0  0 
 12 15  1  0  0  0  0 
 13 16  1  0  0  0  0 
 14 17  1  0  0  0  0 
 15 16  1  0  0  0  0 
 17 18  1  0  0  0  0 
 18 19  2  0  0  0  0 
 19 20  1  0  0  0  0 
 19 21  1  0  0  0  0 
 21 22  1  0  0  0  0 
 22 23  1  0  0  0  0 
 23 24  2  0  0  0  0 
 24 25  1  0  0  0  0 
 24 26  1  0  0  0  0 
 25 27  1  0  0  0  0 
 27 28  1  0  0  0  0 
 28 29  2  0  0  0  0 
 29 30  1  0  0  0  0 
 29 31  1  0  0  0  0 
  1 32  1  0  0  0  0 
  1 33  1  0  0  0  0 
  4 34  1  0  0  0  0 
  5 35  1  0  0  0  0 
  6 36  1  0  0  0  0 
  6 37  1  0  0  0  0 
  7 38  1  0  0  0  0 
  7 39  1  0  0  0  0 
  9 40  1  0  0  0  0 
 10 41  1  0  0  0  0 
 10 42  1  0  0  0  0 
 11 43  1  0  0  0  0 
 11 44  1  0  0  0  0 
 16 45  1  0  0  0  0 
 16 46  1  0  0  0  0 
 17 47  1  0  0  0  0 
 17 48  1  0  0  0  0 
 18 49  1  0  0  0  0 
 20 50  1  0  0  0  0 
 20 51  1  0  0  0  0 
 20 52  1  0  0  0  0 
 21 53  1  0  0  0  0 
 21 54  1  0  0  0  0 
 22 55  1  0  0  0  0 
 22 56  1  0  0  0  0 
 23 57  1  0  0  0  0 
 25 58  1  0  0  0  0 
 25 59  1  0  0  0  0 
 26 60  1  0  0  0  0 
 26 61  1  0  0  0  0 
 26 62  1  0  0  0  0 
 27 63  1  0  0  0  0 
 27 64  1  0  0  0  0 
 28 65  1  0  0  0  0 
 30 66  1  0  0  0  0 
 30 67  1  0  0  0  0 
 30 68  1  0  0  0  0 
 31 69  1  0  0  0  0 
 31 70  1  0  0  0  0 
 31 71  1  0  0  0  0 
M  END
> <cdk:Title>
pifarnine

> <Conformer>
1

> <SuperDrugID>
SD002991

$$$$
