vecuronium
  CDK     0628171801

 97102  0  0  0  0  0  0  0  0999 V2000
    6.3267    4.6765    5.9537 C   0  0  0  0  0  0  0  0  0  0  0  0
    7.4539    4.1854    4.9576 C   0  0  2  0  0  0  0  0  0  0  0  0
    6.9619    3.7747    3.5351 C   0  0  2  0  0  0  0  0  0  0  0  0
    8.0677    2.8240    5.4347 C   0  0  1  0  0  0  0  0  0  0  0  0
    8.4841    5.3496    4.7722 C   0  0  2  0  0  0  0  0  0  0  0  0
    6.1952    4.9215    2.8033 C   0  0  1  0  0  0  0  0  0  0  0  0
    6.2495    2.4284    3.7961 C   0  0  1  0  0  0  0  0  0  0  0  0
    8.2575    2.8262    6.8599 O   0  0  0  0  0  0  0  0  0  0  0  0
    7.1649    1.6729    4.8215 C   0  0  2  0  0  0  0  0  0  0  0  0
    7.8608    6.5756    4.0378 C   0  0  2  0  0  0  0  0  0  0  0  0
    7.0953    6.2226    2.7110 C   0  0  2  0  0  0  0  0  0  0  0  0
    5.6964    4.5097    1.3808 C   0  0  2  0  0  0  0  0  0  0  0  0
    9.3823    3.1299    7.5764 C   0  0  0  0  0  0  0  0  0  0  0  0
    6.4957    0.5939    5.7101 N   0  0  2  0  0  0  0  0  0  0  0  0
    6.3081    7.4349    2.0367 C   0  0  2  0  0  0  0  0  0  0  0  0
    5.0157    5.6733    0.6034 C   0  0  1  0  0  0  0  0  0  0  0  0
    9.2938    3.1457    9.0443 C   0  0  0  0  0  0  0  0  0  0  0  0
   10.4684    3.4024    7.0150 O   0  0  0  0  0  0  0  0  0  0  0  0
    5.5794    1.2128    6.7475 C   0  0  0  0  0  0  0  0  0  0  0  0
    7.5735   -0.2450    6.3978 C   0  0  2  0  0  0  0  0  0  0  0  0
    5.6829   -0.3503    4.8222 C   0  0  1  0  0  0  0  0  0  0  0  0
    5.0470    7.8642    2.9388 C   0  0  0  0  0  0  0  0  0  0  0  0
    5.9077    6.9527    0.5834 C   0  0  1  0  0  0  0  0  0  0  0  0
    7.2353    8.7008    1.8622 C   0  0  2  0  0  0  0  0  0  0  0  0
    7.0855   -1.5317    7.1315 C   0  0  2  0  0  0  0  0  0  0  0  0
    5.1118   -1.6266    5.5044 C   0  0  1  0  0  0  0  0  0  0  0  0
    5.3254    8.0858   -0.3140 C   0  0  2  0  0  0  0  0  0  0  0  0
    6.6292    9.8936    1.0311 C   0  0  1  0  0  0  0  0  0  0  0  0
    6.2281   -2.4288    6.2092 C   0  0  1  0  0  0  0  0  0  0  0  0
    6.2763    9.3225   -0.3895 C   0  0  1  0  0  0  0  0  0  0  0  0
    5.5467   10.6533    1.7832 N   0  0  2  0  0  0  0  0  0  0  0  0
    7.5252    9.0228   -1.0475 O   0  0  0  0  0  0  0  0  0  0  0  0
    4.5359   11.4133    0.9697 C   0  0  2  0  0  0  0  0  0  0  0  0
    6.0474   11.4941    2.9308 C   0  0  1  0  0  0  0  0  0  0  0  0
    7.7691    8.7318   -2.3571 C   0  0  0  0  0  0  0  0  0  0  0  0
    3.3633   11.9723    1.8153 C   0  0  2  0  0  0  0  0  0  0  0  0
    4.8981   11.9951    3.8406 C   0  0  1  0  0  0  0  0  0  0  0  0
    9.1559    8.5290   -2.8006 C   0  0  0  0  0  0  0  0  0  0  0  0
    6.8383    8.6484   -3.1900 O   0  0  0  0  0  0  0  0  0  0  0  0
    3.8634   12.8002    3.0206 C   0  0  1  0  0  0  0  0  0  0  0  0
    5.3048    5.1048    3.4006 H   0  0  0  0  0  0  0  0  0  0  0  0
    7.9118    5.9570    2.0301 H   0  0  0  0  0  0  0  0  0  0  0  0
    7.8288    3.5390    2.9006 H   0  0  0  0  0  0  0  0  0  0  0  0
    6.8260    6.6459    0.0668 H   0  0  0  0  0  0  0  0  0  0  0  0
    5.8075    5.5648    5.5985 H   0  0  0  0  0  0  0  0  0  0  0  0
    6.7548    4.9251    6.9279 H   0  0  0  0  0  0  0  0  0  0  0  0
    5.5622    3.9242    6.1120 H   0  0  0  0  0  0  0  0  0  0  0  0
    9.0611    2.7286    4.9780 H   0  0  0  0  0  0  0  0  0  0  0  0
    9.3438    5.0015    4.1924 H   0  0  0  0  0  0  0  0  0  0  0  0
    8.8673    5.6686    5.7450 H   0  0  0  0  0  0  0  0  0  0  0  0
    5.2476    2.6061    4.1886 H   0  0  0  0  0  0  0  0  0  0  0  0
    6.1481    1.8614    2.8659 H   0  0  0  0  0  0  0  0  0  0  0  0
    7.8514    1.1180    4.1667 H   0  0  0  0  0  0  0  0  0  0  0  0
    8.6888    7.2513    3.8089 H   0  0  0  0  0  0  0  0  0  0  0  0
    7.2039    7.1155    4.7207 H   0  0  0  0  0  0  0  0  0  0  0  0
    4.9818    3.6858    1.4618 H   0  0  0  0  0  0  0  0  0  0  0  0
    6.5447    4.1520    0.7907 H   0  0  0  0  0  0  0  0  0  0  0  0
    4.8349    5.3376   -0.4228 H   0  0  0  0  0  0  0  0  0  0  0  0
    4.0389    5.8941    1.0410 H   0  0  0  0  0  0  0  0  0  0  0  0
   10.2642    3.3587    9.4954 H   0  0  0  0  0  0  0  0  0  0  0  0
    8.5876    3.9157    9.3584 H   0  0  0  0  0  0  0  0  0  0  0  0
    8.9422    2.1788    9.4046 H   0  0  0  0  0  0  0  0  0  0  0  0
    6.1001    1.9072    7.4035 H   0  0  0  0  0  0  0  0  0  0  0  0
    5.1272    0.4743    7.4078 H   0  0  0  0  0  0  0  0  0  0  0  0
    4.7497    1.7466    6.2837 H   0  0  0  0  0  0  0  0  0  0  0  0
    8.1234    0.3483    7.1306 H   0  0  0  0  0  0  0  0  0  0  0  0
    8.3145   -0.5813    5.6631 H   0  0  0  0  0  0  0  0  0  0  0  0
    4.8305    0.1720    4.3792 H   0  0  0  0  0  0  0  0  0  0  0  0
    6.2983   -0.6960    3.9839 H   0  0  0  0  0  0  0  0  0  0  0  0
    4.3394    6.9948    3.0562 H   0  0  0  0  0  0  0  0  0  0  0  0
    5.3073    8.4356    3.9160 H   0  0  0  0  0  0  0  0  0  0  0  0
    4.4282    8.5597    2.3823 H   0  0  0  0  0  0  0  0  0  0  0  0
    8.1596    8.3841    1.3684 H   0  0  0  0  0  0  0  0  0  0  0  0
    7.5519    9.0611    2.8362 H   0  0  0  0  0  0  0  0  0  0  0  0
    6.5121   -1.2669    8.0228 H   0  0  0  0  0  0  0  0  0  0  0  0
    7.9505   -2.1093    7.4704 H   0  0  0  0  0  0  0  0  0  0  0  0
    4.3360   -1.3562    6.2234 H   0  0  0  0  0  0  0  0  0  0  0  0
    4.6421   -2.2629    4.7497 H   0  0  0  0  0  0  0  0  0  0  0  0
    4.3473    8.3871    0.0603 H   0  0  0  0  0  0  0  0  0  0  0  0
    5.1655    7.6995   -1.3237 H   0  0  0  0  0  0  0  0  0  0  0  0
    7.4351   10.6164    0.8645 H   0  0  0  0  0  0  0  0  0  0  0  0
    6.8710   -2.8857    5.4512 H   0  0  0  0  0  0  0  0  0  0  0  0
    5.7805   -3.2348    6.7972 H   0  0  0  0  0  0  0  0  0  0  0  0
    5.8102   10.0970   -1.0008 H   0  0  0  0  0  0  0  0  0  0  0  0
    4.0643   10.7615    0.2361 H   0  0  0  0  0  0  0  0  0  0  0  0
    5.0303   12.2285    0.4332 H   0  0  0  0  0  0  0  0  0  0  0  0
    6.7219   10.9345    3.5768 H   0  0  0  0  0  0  0  0  0  0  0  0
    6.6066   12.3539    2.5475 H   0  0  0  0  0  0  0  0  0  0  0  0
    2.7564   11.1400    2.1826 H   0  0  0  0  0  0  0  0  0  0  0  0
    2.7272   12.5999    1.1856 H   0  0  0  0  0  0  0  0  0  0  0  0
    4.4091   11.1365    4.3112 H   0  0  0  0  0  0  0  0  0  0  0  0
    5.3067   12.6270    4.6345 H   0  0  0  0  0  0  0  0  0  0  0  0
    9.8555    8.7203   -1.9862 H   0  0  0  0  0  0  0  0  0  0  0  0
    9.3846    9.2116   -3.6198 H   0  0  0  0  0  0  0  0  0  0  0  0
    9.2877    7.5021   -3.1398 H   0  0  0  0  0  0  0  0  0  0  0  0
    4.3228   13.7270    2.6635 H   0  0  0  0  0  0  0  0  0  0  0  0
    3.0170   13.0677    3.6592 H   0  0  0  0  0  0  0  0  0  0  0  0
  2  1  1  0  0  0  0 
  3  2  1  0  0  0  0 
  2  4  1  0  0  0  0 
  2  5  1  0  0  0  0 
  6  3  1  0  0  0  0 
  3  7  1  0  0  0  0 
  3 43  1  0  0  0  0 
  4  8  1  0  0  0  0 
  4  9  1  0  0  0  0 
  5 10  1  0  0  0  0 
 11  6  1  0  0  0  0 
  6 12  1  0  0  0  0 
  6 41  1  0  0  0  0 
  9  7  1  0  0  0  0 
  8 13  1  0  0  0  0 
  9 14  1  0  0  0  0 
 11 10  1  0  0  0  0 
 15 11  1  0  0  0  0 
 11 42  1  0  0  0  0 
 12 16  1  0  0  0  0 
 13 17  1  0  0  0  0 
 13 18  2  0  0  0  0 
 14 19  1  0  0  0  0 
 14 20  1  0  0  0  0 
 14 21  1  0  0  0  0 
 15 22  1  0  0  0  0 
 15 23  1  0  0  0  0 
 15 24  1  0  0  0  0 
 23 16  1  0  0  0  0 
 20 25  1  0  0  0  0 
 21 26  1  0  0  0  0 
 23 27  1  0  0  0  0 
 23 44  1  0  0  0  0 
 28 24  1  0  0  0  0 
 25 29  1  0  0  0  0 
 26 29  1  0  0  0  0 
 30 27  1  0  0  0  0 
 30 28  1  0  0  0  0 
 28 31  1  0  0  0  0 
 30 32  1  0  0  0  0 
 31 33  1  0  0  0  0 
 31 34  1  0  0  0  0 
 32 35  1  0  0  0  0 
 33 36  1  0  0  0  0 
 34 37  1  0  0  0  0 
 35 38  1  0  0  0  0 
 35 39  2  0  0  0  0 
 36 40  1  0  0  0  0 
 37 40  1  0  0  0  0 
  1 45  1  0  0  0  0 
  1 46  1  0  0  0  0 
  1 47  1  0  0  0  0 
  4 48  1  0  0  0  0 
  5 49  1  0  0  0  0 
  5 50  1  0  0  0  0 
  7 51  1  0  0  0  0 
  7 52  1  0  0  0  0 
  9 53  1  0  0  0  0 
 10 54  1  0  0  0  0 
 10 55  1  0  0  0  0 
 12 56  1  0  0  0  0 
 12 57  1  0  0  0  0 
 16 58  1  0  0  0  0 
 16 59  1  0  0  0  0 
 17 60  1  0  0  0  0 
 17 61  1  0  0  0  0 
 17 62  1  0  0  0  0 
 19 63  1  0  0  0  0 
 19 64  1  0  0  0  0 
 19 65  1  0  0  0  0 
 20 66  1  0  0  0  0 
 20 67  1  0  0  0  0 
 21 68  1  0  0  0  0 
 21 69  1  0  0  0  0 
 22 70  1  0  0  0  0 
 22 71  1  0  0  0  0 
 22 72  1  0  0  0  0 
 24 73  1  0  0  0  0 
 24 74  1  0  0  0  0 
 25 75  1  0  0  0  0 
 25 76  1  0  0  0  0 
 26 77  1  0  0  0  0 
 26 78  1  0  0  0  0 
 27 79  1  0  0  0  0 
 27 80  1  0  0  0  0 
 28 81  1  0  0  0  0 
 29 82  1  0  0  0  0 
 29 83  1  0  0  0  0 
 30 84  1  0  0  0  0 
 33 85  1  0  0  0  0 
 33 86  1  0  0  0  0 
 34 87  1  0  0  0  0 
 34 88  1  0  0  0  0 
 36 89  1  0  0  0  0 
 36 90  1  0  0  0  0 
 37 91  1  0  0  0  0 
 37 92  1  0  0  0  0 
 38 93  1  0  0  0  0 
 38 94  1  0  0  0  0 
 38 95  1  0  0  0  0 
 40 96  1  0  0  0  0 
 40 97  1  0  0  0  0 
M  CHG  1  14   1
M  END
> <cdk:Title>
vecuronium

> <Conformer>
1

> <SuperDrugID>
SD002536

$$$$
