tazobactam
  CDK     0628171801

 32 34  0  0  0  0  0  0  0  0999 V2000
   -4.3867    2.8358   -2.5032 N   0  0  0  0  0  0  0  0  0  0  0  0
   -4.8433    2.7739   -3.7522 C   0  0  0  0  0  0  0  0  0  0  0  0
   -5.4544    1.4658   -3.5385 C   0  0  1  0  0  0  0  0  0  0  0  0
   -4.9526    1.6146   -2.0704 C   0  0  1  0  0  0  0  0  0  0  0  0
   -3.3656    0.9481   -1.4477 S   0  0  2  0  0  0  0  0  0  0  0  0
   -2.2811    2.4517   -1.5366 C   0  0  2  0  0  0  0  0  0  0  0  0
   -3.3509    3.5731   -1.8517 C   0  0  2  0  0  0  0  0  0  0  0  0
   -4.6743    3.4823   -4.7696 O   0  0  0  0  0  0  0  0  0  0  0  0
   -2.8505   -0.2517   -2.3767 O   0  0  0  0  0  0  0  0  0  0  0  0
   -3.5780    0.4483    0.0599 O   0  0  0  0  0  0  0  0  0  0  0  0
   -1.2842    2.2638   -2.7402 C   0  0  1  0  0  0  0  0  0  0  0  0
   -0.4355    3.3880   -3.0137 N   0  0  0  0  0  0  0  0  0  0  0  0
   -1.4978    2.6362   -0.1991 C   0  0  0  0  0  0  0  0  0  0  0  0
   -0.5697    4.2766   -4.0127 C   0  0  0  0  0  0  0  0  0  0  0  0
    0.4788    5.1662   -3.8787 C   0  0  0  0  0  0  0  0  0  0  0  0
    1.1963    4.7663   -2.8220 N   0  0  0  0  0  0  0  0  0  0  0  0
    0.6260    3.7068   -2.3349 N   0  0  0  0  0  0  0  0  0  0  0  0
   -3.9015    4.3373   -0.7011 C   0  0  0  0  0  0  0  0  0  0  0  0
   -3.7563    5.5788   -0.6307 O   0  0  0  0  0  0  0  0  0  0  0  0
   -4.5719    3.7330    0.3066 O   0  0  0  0  0  0  0  0  0  0  0  0
   -5.7257    1.7650   -1.3117 H   0  0  0  0  0  0  0  0  0  0  0  0
   -6.5398    1.4868   -3.6455 H   0  0  0  0  0  0  0  0  0  0  0  0
   -4.9737    0.6598   -4.0982 H   0  0  0  0  0  0  0  0  0  0  0  0
   -2.9411    4.3013   -2.5542 H   0  0  0  0  0  0  0  0  0  0  0  0
   -0.6445    1.3960   -2.5530 H   0  0  0  0  0  0  0  0  0  0  0  0
   -1.8560    2.0333   -3.6449 H   0  0  0  0  0  0  0  0  0  0  0  0
   -2.1694    2.6131    0.6593 H   0  0  0  0  0  0  0  0  0  0  0  0
   -0.9767    3.5925   -0.1830 H   0  0  0  0  0  0  0  0  0  0  0  0
   -0.7632    1.8390   -0.0711 H   0  0  0  0  0  0  0  0  0  0  0  0
   -1.3016    4.3052   -4.7262 H   0  0  0  0  0  0  0  0  0  0  0  0
    0.6699    5.9762   -4.4709 H   0  0  0  0  0  0  0  0  0  0  0  0
   -4.9039    4.2689    1.0572 H   0  0  0  0  0  0  0  0  0  0  0  0
  1  2  1  0  0  0  0 
  4  1  1  0  0  0  0 
  2  3  1  0  0  0  0 
  3  4  1  0  0  0  0 
  5  6  1  0  0  0  0 
  6  7  1  0  0  0  0 
  4  5  1  0  0  0  0 
  1  7  1  0  0  0  0 
  2  8  2  0  0  0  0 
  5  9  2  0  0  0  0 
  5 10  2  0  0  0  0 
  6 11  1  0  0  0  0 
 11 12  1  0  0  0  0 
  6 13  1  0  0  0  0 
 14 15  2  0  0  0  0 
 15 16  1  0  0  0  0 
 16 17  2  0  0  0  0 
 12 14  1  0  0  0  0 
 12 17  1  0  0  0  0 
  7 18  1  0  0  0  0 
 18 19  2  0  0  0  0 
 18 20  1  0  0  0  0 
  4 21  1  0  0  0  0 
  3 22  1  0  0  0  0 
  3 23  1  0  0  0  0 
  7 24  1  0  0  0  0 
 11 25  1  0  0  0  0 
 11 26  1  0  0  0  0 
 13 27  1  0  0  0  0 
 13 28  1  0  0  0  0 
 13 29  1  0  0  0  0 
 14 30  1  0  0  0  0 
 15 31  1  0  0  0  0 
 20 32  1  0  0  0  0 
M  END
> <cdk:Title>
tazobactam

> <Conformer>
1

> <SuperDrugID>
SD002314

$$$$
