biriperone
  CDK     0628171801

 55 59  0  0  0  0  0  0  0  0999 V2000
   -1.3686   -1.5871    1.3267 C   0  0  1  0  0  0  0  0  0  0  0  0
   -0.4687   -0.6483    0.4724 C   0  0  2  0  0  0  0  0  0  0  0  0
   -1.0491   -3.0475    1.2182 N   0  0  1  0  0  0  0  0  0  0  0  0
    1.0542   -0.9430    0.6077 C   0  0  2  0  0  0  0  0  0  0  0  0
   -1.7106   -3.8811    2.2707 C   0  0  1  0  0  0  0  0  0  0  0  0
   -1.2281   -3.6419   -0.1422 C   0  0  1  0  0  0  0  0  0  0  0  0
    1.8954   -0.0688   -0.2571 C   0  0  0  0  0  0  0  0  0  0  0  0
   -1.1379   -5.3267    2.2691 C   0  0  2  0  0  0  0  0  0  0  0  0
   -0.6343   -5.0690   -0.1783 C   0  0  2  0  0  0  0  0  0  0  0  0
    2.4166   -0.6282   -1.2535 O   0  0  0  0  0  0  0  0  0  0  0  0
    2.1471    1.3246   -0.0237 C   0  0  0  0  0  0  0  0  0  0  0  0
    0.3065   -5.3929    2.8749 C   0  0  2  0  0  0  0  0  0  0  0  0
   -1.2267   -5.9301    0.8915 N   0  0  1  0  0  0  0  0  0  0  0  0
    2.8763    2.0929   -0.9707 C   0  0  0  0  0  0  0  0  0  0  0  0
    1.7037    1.9917    1.1494 C   0  0  0  0  0  0  0  0  0  0  0  0
    1.0205   -6.6188    2.4647 C   0  0  0  0  0  0  0  0  0  0  0  0
   -0.7607   -7.3568    0.8509 C   0  0  2  0  0  0  0  0  0  0  0  0
    3.1511    3.4564   -0.7553 C   0  0  0  0  0  0  0  0  0  0  0  0
    1.9638    3.3582    1.3604 C   0  0  0  0  0  0  0  0  0  0  0  0
    2.2600   -7.1018    2.8722 C   0  0  0  0  0  0  0  0  0  0  0  0
    0.5438   -7.5253    1.5174 C   0  0  0  0  0  0  0  0  0  0  0  0
    2.6944    4.0920    0.4113 C   0  0  0  0  0  0  0  0  0  0  0  0
    2.4929   -8.2776    2.1552 C   0  0  0  0  0  0  0  0  0  0  0  0
    3.1991   -6.6186    3.8012 C   0  0  0  0  0  0  0  0  0  0  0  0
    1.4422   -8.5128    1.3505 N   0  0  0  0  0  0  0  0  0  0  0  0
    2.9460    5.3570    0.6109 F   0  0  0  0  0  0  0  0  0  0  0  0
    3.6785   -9.0107    2.3323 C   0  0  0  0  0  0  0  0  0  0  0  0
    4.3900   -7.3505    3.9929 C   0  0  0  0  0  0  0  0  0  0  0  0
    4.6297   -8.5370    3.2622 C   0  0  0  0  0  0  0  0  0  0  0  0
   -1.2421   -1.2723    2.3676 H   0  0  0  0  0  0  0  0  0  0  0  0
   -2.4171   -1.4171    1.0586 H   0  0  0  0  0  0  0  0  0  0  0  0
   -0.6739    0.3788    0.7835 H   0  0  0  0  0  0  0  0  0  0  0  0
   -0.7642   -0.7262   -0.5761 H   0  0  0  0  0  0  0  0  0  0  0  0
    1.2254   -1.9876    0.3305 H   0  0  0  0  0  0  0  0  0  0  0  0
    1.3716   -0.8495    1.6489 H   0  0  0  0  0  0  0  0  0  0  0  0
   -1.5536   -3.4468    3.2627 H   0  0  0  0  0  0  0  0  0  0  0  0
   -2.7904   -3.9156    2.0916 H   0  0  0  0  0  0  0  0  0  0  0  0
   -2.2875   -3.6698   -0.4158 H   0  0  0  0  0  0  0  0  0  0  0  0
   -0.7047   -3.0542   -0.8982 H   0  0  0  0  0  0  0  0  0  0  0  0
   -1.7910   -5.9206    2.9191 H   0  0  0  0  0  0  0  0  0  0  0  0
    0.4528   -5.0038   -0.0626 H   0  0  0  0  0  0  0  0  0  0  0  0
   -0.8431   -5.4989   -1.1608 H   0  0  0  0  0  0  0  0  0  0  0  0
    0.2418   -5.3616    3.9650 H   0  0  0  0  0  0  0  0  0  0  0  0
    0.9034   -4.5386    2.5453 H   0  0  0  0  0  0  0  0  0  0  0  0
    3.2215    1.6666   -1.8341 H   0  0  0  0  0  0  0  0  0  0  0  0
    1.1858    1.4967    1.8768 H   0  0  0  0  0  0  0  0  0  0  0  0
   -0.7019   -7.7269   -0.1751 H   0  0  0  0  0  0  0  0  0  0  0  0
   -1.4868   -7.9785    1.3787 H   0  0  0  0  0  0  0  0  0  0  0  0
    3.6828    3.9851   -1.4516 H   0  0  0  0  0  0  0  0  0  0  0  0
    1.6205    3.8141    2.2092 H   0  0  0  0  0  0  0  0  0  0  0  0
    3.0245   -5.7593    4.3272 H   0  0  0  0  0  0  0  0  0  0  0  0
    1.3502   -9.2667    0.7474 H   0  0  0  0  0  0  0  0  0  0  0  0
    3.8490   -9.8665    1.7999 H   0  0  0  0  0  0  0  0  0  0  0  0
    5.0850   -7.0204    4.6662 H   0  0  0  0  0  0  0  0  0  0  0  0
    5.4981   -9.0568    3.4092 H   0  0  0  0  0  0  0  0  0  0  0  0
  1  2  1  0  0  0  0 
  1  3  1  0  0  0  0 
  2  4  1  0  0  0  0 
  3  5  1  0  0  0  0 
  3  6  1  0  0  0  0 
  4  7  1  0  0  0  0 
  8  5  1  0  0  0  0 
  6  9  1  0  0  0  0 
  7 10  2  0  0  0  0 
  7 11  1  0  0  0  0 
  8 12  1  0  0  0  0 
  8 13  1  0  0  0  0 
  9 13  1  0  0  0  0 
 11 14  2  0  0  0  0 
 11 15  1  0  0  0  0 
 12 16  1  0  0  0  0 
 13 17  1  0  0  0  0 
 14 18  1  0  0  0  0 
 15 19  2  0  0  0  0 
 16 20  1  0  0  0  0 
 16 21  2  0  0  0  0 
 17 21  1  0  0  0  0 
 18 22  2  0  0  0  0 
 19 22  1  0  0  0  0 
 20 23  1  0  0  0  0 
 20 24  2  0  0  0  0 
 21 25  1  0  0  0  0 
 22 26  1  0  0  0  0 
 23 25  1  0  0  0  0 
 23 27  2  0  0  0  0 
 24 28  1  0  0  0  0 
 27 29  1  0  0  0  0 
 28 29  2  0  0  0  0 
 30  1  1  0  0  0  0 
 31  1  1  0  0  0  0 
 32  2  1  0  0  0  0 
 33  2  1  0  0  0  0 
 34  4  1  0  0  0  0 
 35  4  1  0  0  0  0 
 36  5  1  0  0  0  0 
 37  5  1  0  0  0  0 
 38  6  1  0  0  0  0 
 39  6  1  0  0  0  0 
 40  8  1  0  0  0  0 
 41  9  1  0  0  0  0 
 42  9  1  0  0  0  0 
 43 12  1  0  0  0  0 
 44 12  1  0  0  0  0 
 45 14  1  0  0  0  0 
 46 15  1  0  0  0  0 
 47 17  1  0  0  0  0 
 48 17  1  0  0  0  0 
 49 18  1  0  0  0  0 
 50 19  1  0  0  0  0 
 51 24  1  0  0  0  0 
 52 25  1  0  0  0  0 
 53 27  1  0  0  0  0 
 54 28  1  0  0  0  0 
 55 29  1  0  0  0  0 
M  END
> <cdk:Title>
biriperone

> <Conformer>
1

> <SuperDrugID>
SD003291

$$$$
