ritodrine
  CDK     0628171801

 42 43  0  0  0  0  0  0  0  0999 V2000
    3.2965   -6.5501    1.9660 C   0  0  1  0  0  0  0  0  0  0  0  0
    2.5732   -5.4020    1.1803 C   0  0  2  0  0  0  0  0  0  0  0  0
    4.6419   -6.1791    2.2723 O   0  0  0  0  0  0  0  0  0  0  0  0
    2.5590   -7.0090    3.1836 C   0  0  0  0  0  0  0  0  0  0  0  0
    3.2803   -5.0173   -0.0701 N   0  0  2  0  0  0  0  0  0  0  0  0
    2.4420   -4.0959    2.0119 C   0  0  0  0  0  0  0  0  0  0  0  0
    1.4996   -7.9439    3.0611 C   0  0  0  0  0  0  0  0  0  0  0  0
    2.8784   -6.5327    4.4797 C   0  0  0  0  0  0  0  0  0  0  0  0
    3.3200   -5.9969   -1.1801 C   0  0  1  0  0  0  0  0  0  0  0  0
    0.7887   -8.3905    4.1918 C   0  0  0  0  0  0  0  0  0  0  0  0
    2.1715   -6.9770    5.6131 C   0  0  0  0  0  0  0  0  0  0  0  0
    4.0194   -5.3946   -2.4228 C   0  0  1  0  0  0  0  0  0  0  0  0
    1.1203   -7.8999    5.4674 C   0  0  0  0  0  0  0  0  0  0  0  0
    3.2837   -4.2269   -2.9843 C   0  0  0  0  0  0  0  0  0  0  0  0
    0.4229   -8.3100    6.5524 O   0  0  0  0  0  0  0  0  0  0  0  0
    2.2298   -4.4131   -3.9115 C   0  0  0  0  0  0  0  0  0  0  0  0
    3.6078   -2.9076   -2.5856 C   0  0  0  0  0  0  0  0  0  0  0  0
    1.5238   -3.3111   -4.4297 C   0  0  0  0  0  0  0  0  0  0  0  0
    2.9004   -1.8054   -3.1003 C   0  0  0  0  0  0  0  0  0  0  0  0
    1.8543   -2.0080   -4.0176 C   0  0  0  0  0  0  0  0  0  0  0  0
    1.1638   -0.9505   -4.5012 O   0  0  0  0  0  0  0  0  0  0  0  0
    3.3901   -7.4221    1.3153 H   0  0  0  0  0  0  0  0  0  0  0  0
    1.5631   -5.7323    0.9138 H   0  0  0  0  0  0  0  0  0  0  0  0
    5.0719   -6.0332    1.4043 H   0  0  0  0  0  0  0  0  0  0  0  0
    4.2420   -4.7785    0.1781 H   0  0  0  0  0  0  0  0  0  0  0  0
    1.8083   -4.2541    2.8859 H   0  0  0  0  0  0  0  0  0  0  0  0
    1.9877   -3.3045    1.4100 H   0  0  0  0  0  0  0  0  0  0  0  0
    3.4254   -3.7523    2.3442 H   0  0  0  0  0  0  0  0  0  0  0  0
    1.2365   -8.3080    2.1414 H   0  0  0  0  0  0  0  0  0  0  0  0
    3.6280   -5.8514    4.6120 H   0  0  0  0  0  0  0  0  0  0  0  0
    3.8866   -6.8757   -0.8690 H   0  0  0  0  0  0  0  0  0  0  0  0
    2.3080   -6.3128   -1.4452 H   0  0  0  0  0  0  0  0  0  0  0  0
    0.0276   -9.0691    4.0828 H   0  0  0  0  0  0  0  0  0  0  0  0
    2.4181   -6.6247    6.5421 H   0  0  0  0  0  0  0  0  0  0  0  0
    5.0401   -5.1109   -2.1498 H   0  0  0  0  0  0  0  0  0  0  0  0
    4.1131   -6.1745   -3.1839 H   0  0  0  0  0  0  0  0  0  0  0  0
   -0.3121   -7.6654    6.6269 H   0  0  0  0  0  0  0  0  0  0  0  0
    1.9669   -5.3545   -4.2146 H   0  0  0  0  0  0  0  0  0  0  0  0
    4.3587   -2.7402   -1.9110 H   0  0  0  0  0  0  0  0  0  0  0  0
    0.7694   -3.4580   -5.1045 H   0  0  0  0  0  0  0  0  0  0  0  0
    3.1462   -0.8575   -2.8058 H   0  0  0  0  0  0  0  0  0  0  0  0
    1.6669   -0.6711   -5.2940 H   0  0  0  0  0  0  0  0  0  0  0  0
  2  1  1  0  0  0  0 
  1  3  1  0  0  0  0 
  1  4  1  0  0  0  0 
  2  5  1  0  0  0  0 
  2  6  1  0  0  0  0 
  4  7  2  0  0  0  0 
  4  8  1  0  0  0  0 
  5  9  1  0  0  0  0 
  7 10  1  0  0  0  0 
  8 11  2  0  0  0  0 
  9 12  1  0  0  0  0 
 10 13  2  0  0  0  0 
 11 13  1  0  0  0  0 
 12 14  1  0  0  0  0 
 13 15  1  0  0  0  0 
 14 16  2  0  0  0  0 
 14 17  1  0  0  0  0 
 16 18  1  0  0  0  0 
 17 19  2  0  0  0  0 
 18 20  2  0  0  0  0 
 19 20  1  0  0  0  0 
 20 21  1  0  0  0  0 
  1 22  1  0  0  0  0 
  2 23  1  0  0  0  0 
  3 24  1  0  0  0  0 
  5 25  1  0  0  0  0 
  6 26  1  0  0  0  0 
  6 27  1  0  0  0  0 
  6 28  1  0  0  0  0 
  7 29  1  0  0  0  0 
  8 30  1  0  0  0  0 
  9 31  1  0  0  0  0 
  9 32  1  0  0  0  0 
 10 33  1  0  0  0  0 
 11 34  1  0  0  0  0 
 12 35  1  0  0  0  0 
 12 36  1  0  0  0  0 
 15 37  1  0  0  0  0 
 16 38  1  0  0  0  0 
 17 39  1  0  0  0  0 
 18 40  1  0  0  0  0 
 19 41  1  0  0  0  0 
 21 42  1  0  0  0  0 
M  END
> <cdk:Title>
ritodrine

> <Conformer>
1

> <SuperDrugID>
SD002151

$$$$
