dodeclonium bromide
  CDK     0628171801

 64 64  0  0  0  0  0  0  0  0999 V2000
    0.0565   -0.6556   -0.3550 O   0  0  0  0  0  0  0  0  0  0  0  0
    0.7471    0.3679   -1.1077 C   0  0  2  0  0  0  0  0  0  0  0  0
    0.4739   -0.6903    0.9473 C   0  0  0  0  0  0  0  0  0  0  0  0
    0.1530    0.4488   -2.5379 C   0  0  1  0  0  0  0  0  0  0  0  0
   -0.2195    0.0545    1.9226 C   0  0  0  0  0  0  0  0  0  0  0  0
    1.6085   -1.4414    1.3154 C   0  0  0  0  0  0  0  0  0  0  0  0
    0.6717    1.5237   -3.4871 N   0  0  2  0  0  0  0  0  0  0  0  0
    0.2521    0.0959    3.2471 C   0  0  0  0  0  0  0  0  0  0  0  0
    2.0833   -1.3998    2.6394 C   0  0  0  0  0  0  0  0  0  0  0  0
   -0.0026    1.3797   -4.8535 C   0  0  1  0  0  0  0  0  0  0  0  0
    2.1637    1.3536   -3.6945 C   0  0  0  0  0  0  0  0  0  0  0  0
    0.4350    2.9119   -2.9295 C   0  0  0  0  0  0  0  0  0  0  0  0
    1.4129   -0.6201    3.6036 C   0  0  0  0  0  0  0  0  0  0  0  0
   -1.5559    1.5315   -4.9377 C   0  0  2  0  0  0  0  0  0  0  0  0
    2.0028   -0.5393    5.1870 Cl  0  0  0  0  0  0  0  0  0  0  0  0
   -2.1194    1.4978   -6.3880 C   0  0  2  0  0  0  0  0  0  0  0  0
   -3.6673    1.6453   -6.4176 C   0  0  2  0  0  0  0  0  0  0  0  0
   -4.2752    1.5921   -7.8464 C   0  0  1  0  0  0  0  0  0  0  0  0
   -5.8199    1.7818   -7.8392 C   0  0  2  0  0  0  0  0  0  0  0  0
   -6.4647    1.7231   -9.2516 C   0  0  1  0  0  0  0  0  0  0  0  0
   -8.0476    1.8461   -9.1665 C   0  0  2  0  0  0  0  0  0  0  0  0
   -8.7109    1.8147  -10.5693 C   0  0  1  0  0  0  0  0  0  0  0  0
  -10.2579    1.9779  -10.5382 C   0  0  1  0  0  0  0  0  0  0  0  0
  -10.8884    1.9306  -11.9592 C   0  0  2  0  0  0  0  0  0  0  0  0
  -12.4257    2.0996  -11.9645 C   0  0  0  0  0  0  0  0  0  0  0  0
    1.8097    0.1212   -1.1668 H   0  0  0  0  0  0  0  0  0  0  0  0
    0.6319    1.3385   -0.6162 H   0  0  0  0  0  0  0  0  0  0  0  0
    0.2934   -0.5404   -2.9889 H   0  0  0  0  0  0  0  0  0  0  0  0
   -0.9217    0.5785   -2.3856 H   0  0  0  0  0  0  0  0  0  0  0  0
   -1.0571    0.5801    1.6629 H   0  0  0  0  0  0  0  0  0  0  0  0
    2.0987   -2.0026    0.6153 H   0  0  0  0  0  0  0  0  0  0  0  0
   -0.2476    0.6544    3.9430 H   0  0  0  0  0  0  0  0  0  0  0  0
    2.9199   -1.9312    2.8915 H   0  0  0  0  0  0  0  0  0  0  0  0
    0.4213    2.1177   -5.5437 H   0  0  0  0  0  0  0  0  0  0  0  0
    0.2348    0.3954   -5.2739 H   0  0  0  0  0  0  0  0  0  0  0  0
    2.5583    2.0786   -4.4106 H   0  0  0  0  0  0  0  0  0  0  0  0
    2.4073    0.3564   -4.0692 H   0  0  0  0  0  0  0  0  0  0  0  0
    2.7260    1.4988   -2.7706 H   0  0  0  0  0  0  0  0  0  0  0  0
    0.6651    3.6858   -3.6673 H   0  0  0  0  0  0  0  0  0  0  0  0
    1.0624    3.1159   -2.0582 H   0  0  0  0  0  0  0  0  0  0  0  0
   -0.6017    3.0514   -2.6147 H   0  0  0  0  0  0  0  0  0  0  0  0
   -1.8539    2.4779   -4.4828 H   0  0  0  0  0  0  0  0  0  0  0  0
   -2.0278    0.7198   -4.3799 H   0  0  0  0  0  0  0  0  0  0  0  0
   -1.8422    0.5504   -6.8581 H   0  0  0  0  0  0  0  0  0  0  0  0
   -1.6728    2.3112   -6.9686 H   0  0  0  0  0  0  0  0  0  0  0  0
   -3.9345    2.6012   -5.9569 H   0  0  0  0  0  0  0  0  0  0  0  0
   -4.1119    0.8419   -5.8214 H   0  0  0  0  0  0  0  0  0  0  0  0
   -3.8205    2.3775   -8.4559 H   0  0  0  0  0  0  0  0  0  0  0  0
   -4.0335    0.6256   -8.2996 H   0  0  0  0  0  0  0  0  0  0  0  0
   -6.0549    2.7515   -7.3917 H   0  0  0  0  0  0  0  0  0  0  0  0
   -6.2662    1.0037   -7.2137 H   0  0  0  0  0  0  0  0  0  0  0  0
   -5.9317    2.4783   -9.8918 H   0  0  0  0  0  0  0  0  0  0  0  0
   -6.2393    0.7434   -9.6806 H   0  0  0  0  0  0  0  0  0  0  0  0
   -8.3024    2.7884   -8.6744 H   0  0  0  0  0  0  0  0  0  0  0  0
   -8.4444    1.0256   -8.5625 H   0  0  0  0  0  0  0  0  0  0  0  0
   -8.2866    2.6205  -11.1739 H   0  0  0  0  0  0  0  0  0  0  0  0
   -8.4659    0.8631  -11.0497 H   0  0  0  0  0  0  0  0  0  0  0  0
  -10.6905    1.1774   -9.9317 H   0  0  0  0  0  0  0  0  0  0  0  0
  -10.5087    2.9335  -10.0693 H   0  0  0  0  0  0  0  0  0  0  0  0
  -10.6492    0.9721  -12.4284 H   0  0  0  0  0  0  0  0  0  0  0  0
  -10.4553    2.7251  -12.5729 H   0  0  0  0  0  0  0  0  0  0  0  0
  -12.7972    2.0539  -12.9917 H   0  0  0  0  0  0  0  0  0  0  0  0
  -12.9019    1.3027  -11.3892 H   0  0  0  0  0  0  0  0  0  0  0  0
  -12.7069    3.0651  -11.5381 H   0  0  0  0  0  0  0  0  0  0  0  0
  1  2  1  0  0  0  0 
  1  3  1  0  0  0  0 
  2  4  1  0  0  0  0 
  3  5  2  0  0  0  0 
  3  6  1  0  0  0  0 
  4  7  1  0  0  0  0 
  5  8  1  0  0  0  0 
  6  9  2  0  0  0  0 
  7 10  1  0  0  0  0 
  7 11  1  0  0  0  0 
  7 12  1  0  0  0  0 
  8 13  2  0  0  0  0 
  9 13  1  0  0  0  0 
 10 14  1  0  0  0  0 
 13 15  1  0  0  0  0 
 14 16  1  0  0  0  0 
 16 17  1  0  0  0  0 
 17 18  1  0  0  0  0 
 18 19  1  0  0  0  0 
 19 20  1  0  0  0  0 
 20 21  1  0  0  0  0 
 21 22  1  0  0  0  0 
 22 23  1  0  0  0  0 
 23 24  1  0  0  0  0 
 24 25  1  0  0  0  0 
  2 26  1  0  0  0  0 
  2 27  1  0  0  0  0 
  4 28  1  0  0  0  0 
  4 29  1  0  0  0  0 
  5 30  1  0  0  0  0 
  6 31  1  0  0  0  0 
  8 32  1  0  0  0  0 
  9 33  1  0  0  0  0 
 10 34  1  0  0  0  0 
 10 35  1  0  0  0  0 
 11 36  1  0  0  0  0 
 11 37  1  0  0  0  0 
 11 38  1  0  0  0  0 
 12 39  1  0  0  0  0 
 12 40  1  0  0  0  0 
 12 41  1  0  0  0  0 
 14 42  1  0  0  0  0 
 14 43  1  0  0  0  0 
 16 44  1  0  0  0  0 
 16 45  1  0  0  0  0 
 17 46  1  0  0  0  0 
 17 47  1  0  0  0  0 
 18 48  1  0  0  0  0 
 18 49  1  0  0  0  0 
 19 50  1  0  0  0  0 
 19 51  1  0  0  0  0 
 20 52  1  0  0  0  0 
 20 53  1  0  0  0  0 
 21 54  1  0  0  0  0 
 21 55  1  0  0  0  0 
 22 56  1  0  0  0  0 
 22 57  1  0  0  0  0 
 23 58  1  0  0  0  0 
 23 59  1  0  0  0  0 
 24 60  1  0  0  0  0 
 24 61  1  0  0  0  0 
 25 62  1  0  0  0  0 
 25 63  1  0  0  0  0 
 25 64  1  0  0  0  0 
M  CHG  1   7   1
M  END
> <cdk:Title>
dodeclonium bromide

> <Conformer>
1

> <SuperDrugID>
SD003578

$$$$
