quifenadine
  CDK     0628171802

 45 48  0  0  0  0  0  0  0  0999 V2000
   -2.2884   -1.9191    1.8462 C   0  0  0  0  0  0  0  0  0  0  0  0
   -2.6169   -2.9356    2.7613 C   0  0  0  0  0  0  0  0  0  0  0  0
   -1.6803   -3.9314    3.0754 C   0  0  0  0  0  0  0  0  0  0  0  0
   -0.4060   -3.8922    2.4870 C   0  0  0  0  0  0  0  0  0  0  0  0
   -0.0788   -2.8651    1.5798 C   0  0  0  0  0  0  0  0  0  0  0  0
   -1.0174   -1.8616    1.2079 C   0  0  0  0  0  0  0  0  0  0  0  0
   -0.6604   -0.7903    0.1877 C   0  0  1  0  0  0  0  0  0  0  0  0
   -1.8632   -0.2980   -0.7310 C   0  0  1  0  0  0  0  0  0  0  0  0
   -0.0132    0.3783    0.8994 C   0  0  0  0  0  0  0  0  0  0  0  0
    0.2828   -1.3954   -0.7118 O   0  0  0  0  0  0  0  0  0  0  0  0
   -1.5503    0.8338   -1.7944 C   0  0  1  0  0  0  0  0  0  0  0  0
   -2.6163   -1.4616   -1.4925 C   0  0  1  0  0  0  0  0  0  0  0  0
   -2.7565   -1.1768   -2.9636 N   0  0  2  0  0  0  0  0  0  0  0  0
   -1.3911   -0.9830   -3.5681 C   0  0  1  0  0  0  0  0  0  0  0  0
   -0.6891    0.2864   -2.9809 C   0  0  2  0  0  0  0  0  0  0  0  0
   -2.5921    0.1638   -0.0585 H   0  0  0  0  0  0  0  0  0  0  0  0
    1.1498    2.6382    2.2012 C   0  0  0  0  0  0  0  0  0  0  0  0
   -0.1535    2.2303    2.5260 C   0  0  0  0  0  0  0  0  0  0  0  0
   -0.7247    1.1158    1.8839 C   0  0  0  0  0  0  0  0  0  0  0  0
    1.3079    0.8104    0.5997 C   0  0  0  0  0  0  0  0  0  0  0  0
    1.8807    1.9265    1.2369 C   0  0  0  0  0  0  0  0  0  0  0  0
   -3.5729    0.0712   -3.1569 C   0  0  1  0  0  0  0  0  0  0  0  0
   -2.9134    1.2904   -2.4267 C   0  0  2  0  0  0  0  0  0  0  0  0
   -3.0034   -1.2189    1.6547 H   0  0  0  0  0  0  0  0  0  0  0  0
   -3.5414   -2.9502    3.1979 H   0  0  0  0  0  0  0  0  0  0  0  0
   -1.9235   -4.6802    3.7290 H   0  0  0  0  0  0  0  0  0  0  0  0
    0.2815   -4.6130    2.7203 H   0  0  0  0  0  0  0  0  0  0  0  0
    0.8662   -2.8688    1.1854 H   0  0  0  0  0  0  0  0  0  0  0  0
   -0.1627   -2.1796   -1.0864 H   0  0  0  0  0  0  0  0  0  0  0  0
   -1.0600    1.6940   -1.3309 H   0  0  0  0  0  0  0  0  0  0  0  0
   -2.1089   -2.4217   -1.3736 H   0  0  0  0  0  0  0  0  0  0  0  0
   -3.6089   -1.6045   -1.0543 H   0  0  0  0  0  0  0  0  0  0  0  0
   -0.7762   -1.8695   -3.3868 H   0  0  0  0  0  0  0  0  0  0  0  0
   -1.4845   -0.8869   -4.6529 H   0  0  0  0  0  0  0  0  0  0  0  0
    0.3317    0.0646   -2.6679 H   0  0  0  0  0  0  0  0  0  0  0  0
   -0.6060    1.0508   -3.7598 H   0  0  0  0  0  0  0  0  0  0  0  0
    1.5640    3.4522    2.6615 H   0  0  0  0  0  0  0  0  0  0  0  0
   -0.6885    2.7466    3.2271 H   0  0  0  0  0  0  0  0  0  0  0  0
   -1.6774    0.8535    2.1421 H   0  0  0  0  0  0  0  0  0  0  0  0
    1.8741    0.3254   -0.0988 H   0  0  0  0  0  0  0  0  0  0  0  0
    2.8285    2.2231    0.9954 H   0  0  0  0  0  0  0  0  0  0  0  0
   -3.6638    0.2840   -4.2262 H   0  0  0  0  0  0  0  0  0  0  0  0
   -4.5869   -0.0904   -2.7819 H   0  0  0  0  0  0  0  0  0  0  0  0
   -2.7476    2.1089   -3.1346 H   0  0  0  0  0  0  0  0  0  0  0  0
   -3.5865    1.6706   -1.6529 H   0  0  0  0  0  0  0  0  0  0  0  0
  1  2  2  0  0  0  0 
  1  6  1  0  0  0  0 
  2  3  1  0  0  0  0 
  3  4  2  0  0  0  0 
  4  5  1  0  0  0  0 
  5  6  2  0  0  0  0 
  6  7  1  0  0  0  0 
  8  7  1  0  0  0  0 
  7  9  1  0  0  0  0 
  7 10  1  0  0  0  0 
  8 11  1  0  0  0  0 
  8 12  1  0  0  0  0 
 11 15  1  0  0  0  0 
 12 13  1  0  0  0  0 
 13 14  1  0  0  0  0 
 14 15  1  0  0  0  0 
  8 16  1  0  0  0  0 
 19  9  2  0  0  0  0 
  9 20  1  0  0  0  0 
 17 18  2  0  0  0  0 
 17 21  1  0  0  0  0 
 18 19  1  0  0  0  0 
 20 21  2  0  0  0  0 
 13 22  1  0  0  0  0 
 22 23  1  0  0  0  0 
 11 23  1  0  0  0  0 
  1 24  1  0  0  0  0 
  2 25  1  0  0  0  0 
  3 26  1  0  0  0  0 
  4 27  1  0  0  0  0 
  5 28  1  0  0  0  0 
 10 29  1  0  0  0  0 
 11 30  1  0  0  0  0 
 12 31  1  0  0  0  0 
 12 32  1  0  0  0  0 
 14 33  1  0  0  0  0 
 14 34  1  0  0  0  0 
 15 35  1  0  0  0  0 
 15 36  1  0  0  0  0 
 17 37  1  0  0  0  0 
 18 38  1  0  0  0  0 
 19 39  1  0  0  0  0 
 20 40  1  0  0  0  0 
 21 41  1  0  0  0  0 
 22 42  1  0  0  0  0 
 22 43  1  0  0  0  0 
 23 44  1  0  0  0  0 
 23 45  1  0  0  0  0 
M  END
> <cdk:Title>
quifenadine

> <Conformer>
1

> <SuperDrugID>
SD003744

$$$$
