desonide
  CDK     0628171801

 62 66  0  0  0  0  0  0  0  0999 V2000
   -0.7458    1.6534    1.9184 C   0  0  0  0  0  0  0  0  0  0  0  0
   -1.1038    1.7910    0.4850 C   0  0  1  0  0  0  0  0  0  0  0  0
   -0.6863    2.6960    2.6130 O   0  0  0  0  0  0  0  0  0  0  0  0
   -0.3761    0.3615    2.5911 C   0  0  2  0  0  0  0  0  0  0  0  0
   -1.1609    3.1483    0.0524 O   0  0  0  0  0  0  0  0  0  0  0  0
    1.1706    0.1852    2.8795 C   0  0  2  0  0  0  0  0  0  0  0  0
   -0.8000   -0.9761    1.9089 C   0  0  1  0  0  0  0  0  0  0  0  0
   -1.1319    0.3448    3.8113 O   0  0  0  0  0  0  0  0  0  0  0  0
    2.0024    0.6812    1.6309 C   0  0  0  0  0  0  0  0  0  0  0  0
    1.2645   -1.3560    3.1216 C   0  0  1  0  0  0  0  0  0  0  0  0
    1.7135    0.8704    4.1844 C   0  0  1  0  0  0  0  0  0  0  0  0
    0.4079   -1.9479    1.9836 C   0  0  1  0  0  0  0  0  0  0  0  0
   -1.8894   -1.5186    2.6638 O   0  0  0  0  0  0  0  0  0  0  0  0
   -2.2342   -0.5593    3.6682 C   0  0  2  0  0  0  0  0  0  0  0  0
    2.7254   -1.8693    3.3554 C   0  0  1  0  0  0  0  0  0  0  0  0
    3.1642    0.4253    4.5712 C   0  0  1  0  0  0  0  0  0  0  0  0
    3.3698   -1.1425    4.6043 C   0  0  2  0  0  0  0  0  0  0  0  0
    2.7654   -3.4126    3.5617 C   0  0  1  0  0  0  0  0  0  0  0  0
    4.1036    1.0920    3.7350 O   0  0  0  0  0  0  0  0  0  0  0  0
    4.8356   -1.6865    4.9355 C   0  0  2  0  0  0  0  0  0  0  0  0
    4.1975   -3.9261    3.8498 C   0  0  2  0  0  0  0  0  0  0  0  0
    5.9294   -1.2932    3.8751 C   0  0  0  0  0  0  0  0  0  0  0  0
    4.7733   -3.1886    4.9882 C   0  0  0  0  0  0  0  0  0  0  0  0
    5.3110   -1.1060    6.2176 C   0  0  0  0  0  0  0  0  0  0  0  0
    5.2088   -3.8734    6.0720 C   0  0  0  0  0  0  0  0  0  0  0  0
    5.7134   -1.8459    7.2637 C   0  0  0  0  0  0  0  0  0  0  0  0
    5.6939   -3.2260    7.1972 C   0  0  0  0  0  0  0  0  0  0  0  0
    6.1054   -3.8964    8.1732 O   0  0  0  0  0  0  0  0  0  0  0  0
    0.7245   -1.6081    4.0448 H   0  0  0  0  0  0  0  0  0  0  0  0
    3.3141   -1.6652    2.4614 H   0  0  0  0  0  0  0  0  0  0  0  0
    2.7523   -1.4542    5.4572 H   0  0  0  0  0  0  0  0  0  0  0  0
   -1.1119   -0.8605    0.8691 H   0  0  0  0  0  0  0  0  0  0  0  0
   -3.5452    0.1698    3.2603 C   0  0  0  0  0  0  0  0  0  0  0  0
   -2.4072   -1.2724    5.0331 C   0  0  0  0  0  0  0  0  0  0  0  0
   -0.3639    1.2914   -0.1384 H   0  0  0  0  0  0  0  0  0  0  0  0
   -2.0753    1.3303    0.3045 H   0  0  0  0  0  0  0  0  0  0  0  0
   -1.8653    3.5587    0.5958 H   0  0  0  0  0  0  0  0  0  0  0  0
    1.6051    0.2827    0.6992 H   0  0  0  0  0  0  0  0  0  0  0  0
    1.9783    1.7703    1.5673 H   0  0  0  0  0  0  0  0  0  0  0  0
    3.0468    0.3907    1.6655 H   0  0  0  0  0  0  0  0  0  0  0  0
    1.6803    1.9572    4.0692 H   0  0  0  0  0  0  0  0  0  0  0  0
    1.0652    0.6276    5.0325 H   0  0  0  0  0  0  0  0  0  0  0  0
    0.0899   -2.9686    2.2078 H   0  0  0  0  0  0  0  0  0  0  0  0
    0.9616   -1.9614    1.0413 H   0  0  0  0  0  0  0  0  0  0  0  0
    3.3478    0.8181    5.5749 H   0  0  0  0  0  0  0  0  0  0  0  0
    2.1072   -3.6947    4.3896 H   0  0  0  0  0  0  0  0  0  0  0  0
    2.3990   -3.9131    2.6619 H   0  0  0  0  0  0  0  0  0  0  0  0
    3.9275    2.0464    3.8699 H   0  0  0  0  0  0  0  0  0  0  0  0
    4.8263   -3.6977    2.9304 H   0  0  0  0  0  0  0  0  0  0  0  0
    4.0690   -5.0300    4.1061 H   0  0  0  0  0  0  0  0  0  0  0  0
    6.1798   -0.2322    3.9111 H   0  0  0  0  0  0  0  0  0  0  0  0
    5.6111   -1.5109    2.8563 H   0  0  0  0  0  0  0  0  0  0  0  0
    6.8587   -1.8431    4.0548 H   0  0  0  0  0  0  0  0  0  0  0  0
    5.3642   -0.1186    6.3152 H   0  0  0  0  0  0  0  0  0  0  0  0
    5.1757   -4.8684    6.0866 H   0  0  0  0  0  0  0  0  0  0  0  0
    6.0358   -1.3924    8.0906 H   0  0  0  0  0  0  0  0  0  0  0  0
   -3.4519    0.6037    2.2654 H   0  0  0  0  0  0  0  0  0  0  0  0
   -3.7752    0.9716    3.9641 H   0  0  0  0  0  0  0  0  0  0  0  0
   -4.3800   -0.5349    3.2454 H   0  0  0  0  0  0  0  0  0  0  0  0
   -1.4701   -1.7427    5.3365 H   0  0  0  0  0  0  0  0  0  0  0  0
   -2.6925   -0.5520    5.8032 H   0  0  0  0  0  0  0  0  0  0  0  0
   -3.1772   -2.0436    4.9703 H   0  0  0  0  0  0  0  0  0  0  0  0
  1  2  1  0  0  0  0 
  1  3  2  0  0  0  0 
  2  5  1  0  0  0  0 
  4  1  1  0  0  0  0 
  6  4  1  0  0  0  0 
  4  7  1  0  0  0  0 
  4  8  1  0  0  0  0 
  6  9  1  0  0  0  0 
 10  6  1  0  0  0  0 
  6 11  1  0  0  0  0 
  7 12  1  0  0  0  0 
  7 13  1  0  0  0  0 
  7 32  1  0  0  0  0 
  8 14  1  0  0  0  0 
 10 12  1  0  0  0  0 
 15 10  1  0  0  0  0 
 10 29  1  0  0  0  0 
 16 11  1  0  0  0  0 
 13 14  1  0  0  0  0 
 15 17  1  0  0  0  0 
 15 18  1  0  0  0  0 
 15 30  1  0  0  0  0 
 17 16  1  0  0  0  0 
 16 19  1  0  0  0  0 
 17 20  1  0  0  0  0 
 17 31  1  0  0  0  0 
 18 21  1  0  0  0  0 
 20 22  1  0  0  0  0 
 20 23  1  0  0  0  0 
 20 24  1  0  0  0  0 
 21 23  1  0  0  0  0 
 23 25  2  0  0  0  0 
 24 26  2  0  0  0  0 
 25 27  1  0  0  0  0 
 26 27  1  0  0  0  0 
 27 28  2  0  0  0  0 
 14 33  1  0  0  0  0 
 14 34  1  0  0  0  0 
  2 35  1  0  0  0  0 
  2 36  1  0  0  0  0 
  5 37  1  0  0  0  0 
  9 38  1  0  0  0  0 
  9 39  1  0  0  0  0 
  9 40  1  0  0  0  0 
 11 41  1  0  0  0  0 
 11 42  1  0  0  0  0 
 12 43  1  0  0  0  0 
 12 44  1  0  0  0  0 
 16 45  1  0  0  0  0 
 18 46  1  0  0  0  0 
 18 47  1  0  0  0  0 
 19 48  1  0  0  0  0 
 21 49  1  0  0  0  0 
 21 50  1  0  0  0  0 
 22 51  1  0  0  0  0 
 22 52  1  0  0  0  0 
 22 53  1  0  0  0  0 
 24 54  1  0  0  0  0 
 25 55  1  0  0  0  0 
 26 56  1  0  0  0  0 
 33 57  1  0  0  0  0 
 33 58  1  0  0  0  0 
 33 59  1  0  0  0  0 
 34 60  1  0  0  0  0 
 34 61  1  0  0  0  0 
 34 62  1  0  0  0  0 
M  END
> <cdk:Title>
desonide

> <Conformer>
1

> <SuperDrugID>
SD002718

$$$$
