iloprost
  CDK     0628171801

 58 59  0  0  0  0  0  0  0  0999 V2000
   -0.8785   -4.3303   -3.3743 C   0  0  2  0  0  0  0  0  0  0  0  0
    0.2269   -4.1908   -4.4531 C   0  0  1  0  0  0  0  0  0  0  0  0
   -1.2788   -5.8351   -3.4141 C   0  0  1  0  0  0  0  0  0  0  0  0
   -0.5954   -6.3611   -4.5769 C   0  0  0  0  0  0  0  0  0  0  0  0
    0.6414   -5.6426   -4.7736 C   0  0  2  0  0  0  0  0  0  0  0  0
   -2.0039   -3.3268   -3.7839 C   0  0  2  0  0  0  0  0  0  0  0  0
   -1.9199   -3.2935   -5.3349 C   0  0  1  0  0  0  0  0  0  0  0  0
   -0.4142   -3.4257   -5.6488 C   0  0  1  0  0  0  0  0  0  0  0  0
   -2.6592   -4.3699   -5.9136 O   0  0  0  0  0  0  0  0  0  0  0  0
   -1.8083   -1.9843   -3.2348 C   0  0  0  0  0  0  0  0  0  0  0  0
   -2.7878   -1.0625   -3.2077 C   0  0  0  0  0  0  0  0  0  0  0  0
   -2.5848    0.3152   -2.7789 C   0  0  2  0  0  0  0  0  0  0  0  0
   -3.1415    0.6494   -1.3527 C   0  0  1  0  0  0  0  0  0  0  0  0
   -3.1710    1.1570   -3.7720 O   0  0  0  0  0  0  0  0  0  0  0  0
   -4.6921    0.5526   -1.2867 C   0  0  0  0  0  0  0  0  0  0  0  0
   -2.4987   -0.1801   -0.1922 C   0  0  2  0  0  0  0  0  0  0  0  0
   -1.1286   -0.1231   -0.1449 C   0  0  0  0  0  0  0  0  0  0  0  0
    0.0660   -0.0960   -0.1154 C   0  0  0  0  0  0  0  0  0  0  0  0
    1.4288   -0.0811   -0.0897 C   0  0  0  0  0  0  0  0  0  0  0  0
   -1.1167   -7.3081   -5.3822 C   0  0  0  0  0  0  0  0  0  0  0  0
   -0.5107   -7.7847   -6.6192 C   0  0  2  0  0  0  0  0  0  0  0  0
   -1.4153   -8.7285   -7.4619 C   0  0  2  0  0  0  0  0  0  0  0  0
   -2.7196   -8.0501   -7.9673 C   0  0  2  0  0  0  0  0  0  0  0  0
   -3.5156   -8.9377   -8.8320 C   0  0  0  0  0  0  0  0  0  0  0  0
   -3.9937  -10.0044   -8.3808 O   0  0  0  0  0  0  0  0  0  0  0  0
   -3.7546   -8.6063  -10.1222 O   0  0  0  0  0  0  0  0  0  0  0  0
    1.0883   -3.6316   -4.0700 H   0  0  0  0  0  0  0  0  0  0  0  0
   -0.4810   -4.0980   -2.3774 H   0  0  0  0  0  0  0  0  0  0  0  0
   -0.9057   -6.3468   -2.5233 H   0  0  0  0  0  0  0  0  0  0  0  0
   -2.3630   -5.9695   -3.4596 H   0  0  0  0  0  0  0  0  0  0  0  0
    1.3814   -5.9970   -4.0489 H   0  0  0  0  0  0  0  0  0  0  0  0
    1.0771   -5.7265   -5.7699 H   0  0  0  0  0  0  0  0  0  0  0  0
   -2.9798   -3.6966   -3.4491 H   0  0  0  0  0  0  0  0  0  0  0  0
   -2.3189   -2.3670   -5.7620 H   0  0  0  0  0  0  0  0  0  0  0  0
    0.0312   -2.4292   -5.7187 H   0  0  0  0  0  0  0  0  0  0  0  0
   -0.2589   -3.9281   -6.6075 H   0  0  0  0  0  0  0  0  0  0  0  0
   -3.5970   -4.1554   -5.7227 H   0  0  0  0  0  0  0  0  0  0  0  0
   -0.9005   -1.7303   -2.9179 H   0  0  0  0  0  0  0  0  0  0  0  0
   -3.6965   -1.3228   -3.5235 H   0  0  0  0  0  0  0  0  0  0  0  0
   -1.5188    0.5657   -2.7928 H   0  0  0  0  0  0  0  0  0  0  0  0
   -2.8953    1.7012   -1.1674 H   0  0  0  0  0  0  0  0  0  0  0  0
   -2.9690    2.0716   -3.4842 H   0  0  0  0  0  0  0  0  0  0  0  0
   -5.0223   -0.4789   -1.4207 H   0  0  0  0  0  0  0  0  0  0  0  0
   -5.0528    0.9079   -0.3211 H   0  0  0  0  0  0  0  0  0  0  0  0
   -5.1496    1.1704   -2.0615 H   0  0  0  0  0  0  0  0  0  0  0  0
   -2.7894   -1.2290   -0.2772 H   0  0  0  0  0  0  0  0  0  0  0  0
   -2.8710    0.1921    0.7654 H   0  0  0  0  0  0  0  0  0  0  0  0
    1.7770    0.9443    0.0357 H   0  0  0  0  0  0  0  0  0  0  0  0
    1.7869   -0.6896    0.7422 H   0  0  0  0  0  0  0  0  0  0  0  0
    1.8123   -0.4862   -1.0277 H   0  0  0  0  0  0  0  0  0  0  0  0
   -1.9840   -7.7084   -5.1097 H   0  0  0  0  0  0  0  0  0  0  0  0
    0.4090   -8.3188   -6.3657 H   0  0  0  0  0  0  0  0  0  0  0  0
   -0.2445   -6.9328   -7.2539 H   0  0  0  0  0  0  0  0  0  0  0  0
   -1.6618   -9.6148   -6.8685 H   0  0  0  0  0  0  0  0  0  0  0  0
   -0.8414   -9.0643   -8.3311 H   0  0  0  0  0  0  0  0  0  0  0  0
   -2.4626   -7.1464   -8.5275 H   0  0  0  0  0  0  0  0  0  0  0  0
   -3.3433   -7.7593   -7.1199 H   0  0  0  0  0  0  0  0  0  0  0  0
   -4.2990   -9.1979  -10.6824 H   0  0  0  0  0  0  0  0  0  0  0  0
  1  2  1  0  0  0  0 
  3  4  1  0  0  0  0 
  4  5  1  0  0  0  0 
  1  3  1  0  0  0  0 
  2  5  1  0  0  0  0 
  6  7  1  0  0  0  0 
  7  8  1  0  0  0  0 
  1  6  1  0  0  0  0 
  2  8  1  0  0  0  0 
  7  9  1  0  0  0  0 
  6 10  1  0  0  0  0 
 10 11  2  0  0  0  0 
 12 11  1  0  0  0  0 
 13 12  1  0  0  0  0 
 12 14  1  0  0  0  0 
 13 15  1  0  0  0  0 
 13 16  1  0  0  0  0 
 16 17  1  0  0  0  0 
 17 18  3  0  0  0  0 
 18 19  1  0  0  0  0 
  4 20  2  0  0  0  0 
 20 21  1  0  0  0  0 
 21 22  1  0  0  0  0 
 22 23  1  0  0  0  0 
 23 24  1  0  0  0  0 
 24 25  2  0  0  0  0 
 24 26  1  0  0  0  0 
  2 27  1  0  0  0  0 
  1 28  1  0  0  0  0 
  3 29  1  0  0  0  0 
  3 30  1  0  0  0  0 
  5 31  1  0  0  0  0 
  5 32  1  0  0  0  0 
  6 33  1  0  0  0  0 
  7 34  1  0  0  0  0 
  8 35  1  0  0  0  0 
  8 36  1  0  0  0  0 
  9 37  1  0  0  0  0 
 10 38  1  0  0  0  0 
 11 39  1  0  0  0  0 
 12 40  1  0  0  0  0 
 13 41  1  0  0  0  0 
 14 42  1  0  0  0  0 
 15 43  1  0  0  0  0 
 15 44  1  0  0  0  0 
 15 45  1  0  0  0  0 
 16 46  1  0  0  0  0 
 16 47  1  0  0  0  0 
 19 48  1  0  0  0  0 
 19 49  1  0  0  0  0 
 19 50  1  0  0  0  0 
 20 51  1  0  0  0  0 
 21 52  1  0  0  0  0 
 21 53  1  0  0  0  0 
 22 54  1  0  0  0  0 
 22 55  1  0  0  0  0 
 23 56  1  0  0  0  0 
 23 57  1  0  0  0  0 
 26 58  1  0  0  0  0 
M  END
> <cdk:Title>
iloprost

> <Conformer>
1

> <SuperDrugID>
SD001262

$$$$
