demexiptiline
  CDK     0628171802

 39 41  0  0  0  0  0  0  0  0999 V2000
    0.1258    0.2665   -0.2780 N   0  0  0  0  0  0  0  0  0  0  0  0
    0.2494    1.4482   -0.7560 O   0  0  0  0  0  0  0  0  0  0  0  0
    1.0761   -0.5931   -0.1454 C   0  0  0  0  0  0  0  0  0  0  0  0
   -0.9506    2.2136   -0.5680 C   0  0  2  0  0  0  0  0  0  0  0  0
    0.7461   -1.8123    0.3945 C   0  0  0  0  0  0  0  0  0  0  0  0
    2.3652   -0.3396   -0.5608 C   0  0  0  0  0  0  0  0  0  0  0  0
   -0.6331    3.6931   -0.8651 C   0  0  1  0  0  0  0  0  0  0  0  0
    0.8003   -2.9987   -0.3907 C   0  0  0  0  0  0  0  0  0  0  0  0
    0.2687   -1.8658    1.7281 C   0  0  0  0  0  0  0  0  0  0  0  0
    2.9448   -1.0538   -1.6477 C   0  0  0  0  0  0  0  0  0  0  0  0
    3.0816    0.7081    0.0648 C   0  0  0  0  0  0  0  0  0  0  0  0
   -1.8274    4.5443   -0.6647 N   0  0  2  0  0  0  0  0  0  0  0  0
    1.4109   -3.0813   -1.6660 C   0  0  0  0  0  0  0  0  0  0  0  0
    0.2373   -4.1838    0.1499 C   0  0  0  0  0  0  0  0  0  0  0  0
   -0.2173   -3.0693    2.2630 C   0  0  0  0  0  0  0  0  0  0  0  0
    2.3734   -2.2143   -2.2259 C   0  0  0  0  0  0  0  0  0  0  0  0
    4.1880   -0.5948   -2.1581 C   0  0  0  0  0  0  0  0  0  0  0  0
    4.3343    1.1059   -0.4278 C   0  0  0  0  0  0  0  0  0  0  0  0
   -1.5364    5.9913   -0.6841 C   0  0  0  0  0  0  0  0  0  0  0  0
   -0.2526   -4.2238    1.4664 C   0  0  0  0  0  0  0  0  0  0  0  0
    4.8802    0.4658   -1.5488 C   0  0  0  0  0  0  0  0  0  0  0  0
   -1.3125    2.1352    0.4633 H   0  0  0  0  0  0  0  0  0  0  0  0
   -1.7291    1.8570   -1.2499 H   0  0  0  0  0  0  0  0  0  0  0  0
    0.1754    4.0100   -0.2001 H   0  0  0  0  0  0  0  0  0  0  0  0
   -0.2950    3.7868   -1.9010 H   0  0  0  0  0  0  0  0  0  0  0  0
    0.2495   -1.0269    2.3176 H   0  0  0  0  0  0  0  0  0  0  0  0
    2.6877    1.2061    0.8704 H   0  0  0  0  0  0  0  0  0  0  0  0
   -2.1959    4.3359    0.2654 H   0  0  0  0  0  0  0  0  0  0  0  0
    1.2075   -3.9158   -2.2276 H   0  0  0  0  0  0  0  0  0  0  0  0
    0.1996   -5.0458   -0.4010 H   0  0  0  0  0  0  0  0  0  0  0  0
   -0.5571   -3.1026    3.2266 H   0  0  0  0  0  0  0  0  0  0  0  0
    2.7552   -2.5280   -3.1238 H   0  0  0  0  0  0  0  0  0  0  0  0
    4.6263   -1.0465   -2.9659 H   0  0  0  0  0  0  0  0  0  0  0  0
    4.8462    1.8668    0.0232 H   0  0  0  0  0  0  0  0  0  0  0  0
   -2.4764    6.5415   -0.6668 H   0  0  0  0  0  0  0  0  0  0  0  0
   -0.9549    6.2715    0.1969 H   0  0  0  0  0  0  0  0  0  0  0  0
   -0.9871    6.2696   -1.5858 H   0  0  0  0  0  0  0  0  0  0  0  0
   -0.6279   -5.0978    1.8445 H   0  0  0  0  0  0  0  0  0  0  0  0
    5.7881    0.7657   -1.9105 H   0  0  0  0  0  0  0  0  0  0  0  0
  1  2  1  0  0  0  0 
  1  3  2  0  0  0  0 
  2  4  1  0  0  0  0 
  3  5  1  0  0  0  0 
  3  6  1  0  0  0  0 
  4  7  1  0  0  0  0 
  5  8  1  0  0  0  0 
  5  9  2  0  0  0  0 
  6 10  1  0  0  0  0 
  6 11  2  0  0  0  0 
  7 12  1  0  0  0  0 
  8 13  1  0  0  0  0 
  8 14  2  0  0  0  0 
  9 15  1  0  0  0  0 
 10 16  1  0  0  0  0 
 10 17  2  0  0  0  0 
 11 18  1  0  0  0  0 
 12 19  1  0  0  0  0 
 13 16  2  0  0  0  0 
 14 20  1  0  0  0  0 
 15 20  2  0  0  0  0 
 17 21  1  0  0  0  0 
 18 21  2  0  0  0  0 
  4 22  1  0  0  0  0 
  4 23  1  0  0  0  0 
  7 24  1  0  0  0  0 
  7 25  1  0  0  0  0 
  9 26  1  0  0  0  0 
 11 27  1  0  0  0  0 
 12 28  1  0  0  0  0 
 13 29  1  0  0  0  0 
 14 30  1  0  0  0  0 
 15 31  1  0  0  0  0 
 16 32  1  0  0  0  0 
 17 33  1  0  0  0  0 
 18 34  1  0  0  0  0 
 19 35  1  0  0  0  0 
 19 36  1  0  0  0  0 
 19 37  1  0  0  0  0 
 20 38  1  0  0  0  0 
 21 39  1  0  0  0  0 
M  END
> <cdk:Title>
demexiptiline

> <Conformer>
1

> <SuperDrugID>
SD000710

$$$$
