brigatinib
  Mrv0541 09131710093D             243.41791

 79 83  0  0  0  0            999 V2000
    1.7090   -0.0804    1.4303 C   0  0  0  0  0  0  0  0  0  0  0  0
    0.3741    0.3079    1.0671 O   0  0  0  0  0  0  0  0  0  0  0  0
   -0.3377    0.8855    2.0897 C   0  0  0  0  0  0  0  0  0  0  0  0
   -1.2275    0.1159    2.8767 C   0  0  0  0  0  0  0  0  0  0  0  0
   -1.3380   -1.2143    2.5850 N   0  0  0  0  0  0  0  0  0  0  0  0
   -1.7435   -2.2387    3.3795 C   0  0  0  0  0  0  0  0  0  0  0  0
   -1.7763   -2.1968    4.7377 N   0  0  0  0  0  0  0  0  0  0  0  0
   -2.1634   -3.2669    5.4764 C   0  0  0  0  0  0  0  0  0  0  0  0
   -2.5470   -4.4640    4.8412 C   0  0  0  0  0  0  0  0  0  0  0  0
   -3.0246   -5.7916    5.7854 Cl  0  0  0  0  0  0  0  0  0  0  0  0
   -2.5107   -4.5038    3.4284 C   0  0  0  0  0  0  0  0  0  0  0  0
   -2.9234   -5.6248    2.7665 N   0  0  0  0  0  0  0  0  0  0  0  0
   -2.8456   -5.9003    1.4281 C   0  0  0  0  0  0  0  0  0  0  0  0
   -1.6907   -5.5509    0.6895 C   0  0  0  0  0  0  0  0  0  0  0  0
   -1.6102   -5.8169   -0.6830 C   0  0  0  0  0  0  0  0  0  0  0  0
   -2.6708   -6.4526   -1.3354 C   0  0  0  0  0  0  0  0  0  0  0  0
   -3.8138   -6.8208   -0.6107 C   0  0  0  0  0  0  0  0  0  0  0  0
   -3.9831   -6.5769    0.8122 C   0  0  0  0  0  0  0  0  0  0  0  0
   -5.4379   -7.0267    1.6906 P   0  0  1  0  0  0  0  0  0  0  0  0
   -6.7161   -7.6359    0.5588 C   0  0  0  0  0  0  0  0  0  0  0  0
   -5.0539   -8.3698    2.8458 C   0  0  0  0  0  0  0  0  0  0  0  0
   -5.9670   -5.8746    2.4277 O   0  0  0  0  0  0  0  0  0  0  0  0
   -2.1096   -3.3879    2.7592 N   0  0  0  0  0  0  0  0  0  0  0  0
   -1.9965    0.7685    3.8668 C   0  0  0  0  0  0  0  0  0  0  0  0
   -1.8974    2.1582    4.0546 C   0  0  0  0  0  0  0  0  0  0  0  0
   -1.0210    2.9411    3.2672 C   0  0  0  0  0  0  0  0  0  0  0  0
   -0.2271    2.2759    2.3023 C   0  0  0  0  0  0  0  0  0  0  0  0
   -1.0019    4.3206    3.3967 N   0  0  0  0  0  0  0  0  0  0  0  0
   -0.9365    4.9663    4.6991 C   0  0  2  0  0  0  0  0  0  0  0  0
   -0.0019    6.2098    4.7155 C   0  0  1  0  0  0  0  0  0  0  0  0
   -0.3560    7.1738    3.5430 C   0  0  2  0  0  0  0  0  0  0  0  0
   -0.2339    6.3836    2.2111 C   0  0  2  0  0  0  0  0  0  0  0  0
   -1.1894    5.1618    2.2261 C   0  0  2  0  0  0  0  0  0  0  0  0
    0.4064    8.4699    3.4747 N   0  0  1  0  0  0  0  0  0  0  0  0
   -0.2433    9.6328    4.1591 C   0  0  2  0  0  0  0  0  0  0  0  0
    0.4448   10.9611    3.7643 C   0  0  2  0  0  0  0  0  0  0  0  0
    1.9104   10.8924    4.0424 N   0  0  2  0  0  0  0  0  0  0  0  0
    2.6051   12.1893    3.8088 C   0  0  0  0  0  0  0  0  0  0  0  0
    2.5609    9.7504    3.3305 C   0  0  1  0  0  0  0  0  0  0  0  0
    1.8838    8.4067    3.6952 C   0  0  2  0  0  0  0  0  0  0  0  0
    1.7103   -0.7873    2.2629 H   0  0  0  0  0  0  0  0  0  0  0  0
    2.1646   -0.5708    0.5687 H   0  0  0  0  0  0  0  0  0  0  0  0
    2.3149    0.7907    1.6877 H   0  0  0  0  0  0  0  0  0  0  0  0
   -1.0821   -1.4652    1.6833 H   0  0  0  0  0  0  0  0  0  0  0  0
   -2.1712   -3.1908    6.4965 H   0  0  0  0  0  0  0  0  0  0  0  0
   -3.3830   -6.2846    3.3071 H   0  0  0  0  0  0  0  0  0  0  0  0
   -0.8909   -5.1064    1.1469 H   0  0  0  0  0  0  0  0  0  0  0  0
   -0.7747   -5.5516   -1.2081 H   0  0  0  0  0  0  0  0  0  0  0  0
   -2.6110   -6.6486   -2.3380 H   0  0  0  0  0  0  0  0  0  0  0  0
   -4.5617   -7.2829   -1.1300 H   0  0  0  0  0  0  0  0  0  0  0  0
   -7.7025   -7.8724    1.0404 H   0  0  0  0  0  0  0  0  0  0  0  0
   -6.4563   -8.5823    0.0126 H   0  0  0  0  0  0  0  0  0  0  0  0
   -6.9988   -6.9297   -0.2664 H   0  0  0  0  0  0  0  0  0  0  0  0
   -5.9180   -8.7156    3.4746 H   0  0  0  0  0  0  0  0  0  0  0  0
   -4.6829   -9.3146    2.3656 H   0  0  0  0  0  0  0  0  0  0  0  0
   -4.2606   -8.1430    3.6051 H   0  0  0  0  0  0  0  0  0  0  0  0
   -2.6624    0.2459    4.4368 H   0  0  0  0  0  0  0  0  0  0  0  0
   -2.4988    2.6012    4.7530 H   0  0  0  0  0  0  0  0  0  0  0  0
    0.4275    2.8108    1.7268 H   0  0  0  0  0  0  0  0  0  0  0  0
   -0.5921    4.2763    5.4758 H   0  0  0  0  0  0  0  0  0  0  0  0
   -1.9459    5.2902    4.9705 H   0  0  0  0  0  0  0  0  0  0  0  0
   -0.1057    6.7307    5.6707 H   0  0  0  0  0  0  0  0  0  0  0  0
    1.0351    5.8702    4.6251 H   0  0  0  0  0  0  0  0  0  0  0  0
   -1.4192    7.4193    3.6474 H   0  0  0  0  0  0  0  0  0  0  0  0
    0.7925    6.0342    2.0668 H   0  0  0  0  0  0  0  0  0  0  0  0
   -0.4901    7.0337    1.3706 H   0  0  0  0  0  0  0  0  0  0  0  0
   -2.2237    5.5187    2.2364 H   0  0  0  0  0  0  0  0  0  0  0  0
   -1.0616    4.6220    1.2840 H   0  0  0  0  0  0  0  0  0  0  0  0
   -0.2042    9.5059    5.2451 H   0  0  0  0  0  0  0  0  0  0  0  0
   -1.2933    9.7120    3.8606 H   0  0  0  0  0  0  0  0  0  0  0  0
   -0.0124   11.7689    4.3435 H   0  0  0  0  0  0  0  0  0  0  0  0
    0.2626   11.1597    2.7024 H   0  0  0  0  0  0  0  0  0  0  0  0
    3.6430   12.1200    4.1401 H   0  0  0  0  0  0  0  0  0  0  0  0
    2.1319   12.9891    4.3828 H   0  0  0  0  0  0  0  0  0  0  0  0
    2.5899   12.4620    2.7505 H   0  0  0  0  0  0  0  0  0  0  0  0
    2.5055    9.8966    2.2467 H   0  0  0  0  0  0  0  0  0  0  0  0
    3.6167    9.6870    3.6116 H   0  0  0  0  0  0  0  0  0  0  0  0
    2.3273    7.6249    3.0730 H   0  0  0  0  0  0  0  0  0  0  0  0
    2.0982    8.1752    4.7430 H   0  0  0  0  0  0  0  0  0  0  0  0
  1  2  1  0  0  0  0
  2  3  1  0  0  0  0
  3  4  2  0  0  0  0
  4  5  1  0  0  0  0
  5  6  1  0  0  0  0
  6  7  2  0  0  0  0
  7  8  1  0  0  0  0
  8  9  2  0  0  0  0
  9 10  1  0  0  0  0
  9 11  1  0  0  0  0
 11 12  1  0  0  0  0
 12 13  1  0  0  0  0
 13 14  2  0  0  0  0
 14 15  1  0  0  0  0
 15 16  2  0  0  0  0
 16 17  1  0  0  0  0
 17 18  2  0  0  0  0
 18 19  1  0  0  0  0
 19 20  1  0  0  0  0
 19 21  1  0  0  0  0
 19 22  2  0  0  0  0
 11 23  2  0  0  0  0
  4 24  1  0  0  0  0
 24 25  2  0  0  0  0
 25 26  1  0  0  0  0
 26 27  2  0  0  0  0
 26 28  1  0  0  0  0
 28 29  1  0  0  0  0
 29 30  1  0  0  0  0
 30 31  1  0  0  0  0
 31 32  1  0  0  0  0
 32 33  1  0  0  0  0
 31 34  1  0  0  0  0
 34 35  1  0  0  0  0
 35 36  1  0  0  0  0
 36 37  1  0  0  0  0
 37 38  1  0  0  0  0
 37 39  1  0  0  0  0
 39 40  1  0  0  0  0
 27  3  1  0  0  0  0
 33 28  1  0  0  0  0
 40 34  1  0  0  0  0
 23  6  1  0  0  0  0
 18 13  1  0  0  0  0
  1 41  1  0  0  0  0
  1 42  1  0  0  0  0
  1 43  1  0  0  0  0
  5 44  1  0  0  0  0
  8 45  1  0  0  0  0
 12 46  1  0  0  0  0
 14 47  1  0  0  0  0
 15 48  1  0  0  0  0
 16 49  1  0  0  0  0
 17 50  1  0  0  0  0
 20 51  1  0  0  0  0
 20 52  1  0  0  0  0
 20 53  1  0  0  0  0
 21 54  1  0  0  0  0
 21 55  1  0  0  0  0
 21 56  1  0  0  0  0
 24 57  1  0  0  0  0
 25 58  1  0  0  0  0
 27 59  1  0  0  0  0
 29 60  1  0  0  0  0
 29 61  1  0  0  0  0
 30 62  1  0  0  0  0
 30 63  1  0  0  0  0
 31 64  1  0  0  0  0
 32 65  1  0  0  0  0
 32 66  1  0  0  0  0
 33 67  1  0  0  0  0
 33 68  1  0  0  0  0
 35 69  1  0  0  0  0
 35 70  1  0  0  0  0
 36 71  1  0  0  0  0
 36 72  1  0  0  0  0
 38 73  1  0  0  0  0
 38 74  1  0  0  0  0
 38 75  1  0  0  0  0
 39 76  1  0  0  0  0
 39 77  1  0  0  0  0
 40 78  1  0  0  0  0
 40 79  1  0  0  0  0
M  END
>  <SuperDrugID>
SD006003

>  <_MOLCOUNT>
1

$$$$
