pralatrexate
  CDK     0628171801

 58 60  0  0  0  0  0  0  0  0999 V2000
    6.6817    4.2497    3.2821 N   0  0  0  0  0  0  0  0  0  0  0  0
    5.9168    5.2560    2.8215 C   0  0  0  0  0  0  0  0  0  0  0  0
    4.6532    5.0272    2.2373 C   0  0  0  0  0  0  0  0  0  0  0  0
    6.3773    6.5300    2.9299 N   0  0  0  0  0  0  0  0  0  0  0  0
    3.9221    6.1522    1.7852 C   0  0  0  0  0  0  0  0  0  0  0  0
    4.0997    3.7956    2.0897 N   0  0  0  0  0  0  0  0  0  0  0  0
    5.6564    7.5956    2.4933 C   0  0  0  0  0  0  0  0  0  0  0  0
    2.7036    5.9574    1.2227 N   0  0  0  0  0  0  0  0  0  0  0  0
    4.4389    7.3997    1.9239 N   0  0  0  0  0  0  0  0  0  0  0  0
    2.8775    3.5882    1.5261 C   0  0  0  0  0  0  0  0  0  0  0  0
    6.1422    8.8395    2.6258 N   0  0  0  0  0  0  0  0  0  0  0  0
    2.1588    4.7209    1.0786 C   0  0  0  0  0  0  0  0  0  0  0  0
    2.3485    2.2036    1.4238 C   0  0  2  0  0  0  0  0  0  0  0  0
    2.9340    1.3686    0.2332 C   0  0  2  0  0  0  0  0  0  0  0  0
    2.4103   -0.1070    0.2016 C   0  0  2  0  0  0  0  0  0  0  0  0
    4.4356    1.3567    0.1921 C   0  0  0  0  0  0  0  0  0  0  0  0
    1.0577   -0.2223    0.0108 C   0  0  0  0  0  0  0  0  0  0  0  0
    5.1993    0.8541    1.2713 C   0  0  0  0  0  0  0  0  0  0  0  0
    5.1324    1.8358   -0.9415 C   0  0  0  0  0  0  0  0  0  0  0  0
   -0.1196   -0.3305   -0.1571 C   0  0  0  0  0  0  0  0  0  0  0  0
    6.6049    0.8279    1.2176 C   0  0  0  0  0  0  0  0  0  0  0  0
    6.5372    1.8048   -0.9985 C   0  0  0  0  0  0  0  0  0  0  0  0
    7.3051    1.2978    0.0787 C   0  0  0  0  0  0  0  0  0  0  0  0
    8.7291    1.2557    0.0046 C   0  0  0  0  0  0  0  0  0  0  0  0
    9.4940    1.1462    1.1318 N   0  0  0  0  0  0  0  0  0  0  0  0
    9.2965    1.3207   -1.1139 O   0  0  0  0  0  0  0  0  0  0  0  0
   10.9237    1.0461    1.1748 C   0  0  1  0  0  0  0  0  0  0  0  0
   11.4529    1.3832    2.5992 C   0  0  2  0  0  0  0  0  0  0  0  0
   11.3314   -0.3173    0.7614 C   0  0  0  0  0  0  0  0  0  0  0  0
   11.1483    2.8412    3.0415 C   0  0  1  0  0  0  0  0  0  0  0  0
   10.9733   -1.3988    1.4921 O   0  0  0  0  0  0  0  0  0  0  0  0
   12.0045   -0.5013   -0.2784 O   0  0  0  0  0  0  0  0  0  0  0  0
   11.6552    3.1376    4.3961 C   0  0  0  0  0  0  0  0  0  0  0  0
   10.7931    3.3891    5.4103 O   0  0  0  0  0  0  0  0  0  0  0  0
   12.8856    3.1713    4.6296 O   0  0  0  0  0  0  0  0  0  0  0  0
    7.5432    4.4417    3.6850 H   0  0  0  0  0  0  0  0  0  0  0  0
    6.3740    3.3316    3.2170 H   0  0  0  0  0  0  0  0  0  0  0  0
    7.0118    8.9810    3.0328 H   0  0  0  0  0  0  0  0  0  0  0  0
    5.6232    9.5994    2.3177 H   0  0  0  0  0  0  0  0  0  0  0  0
    1.2379    4.6305    0.6484 H   0  0  0  0  0  0  0  0  0  0  0  0
    1.2619    2.2502    1.3093 H   0  0  0  0  0  0  0  0  0  0  0  0
    2.5336    1.6934    2.3721 H   0  0  0  0  0  0  0  0  0  0  0  0
    2.5634    1.8509   -0.6799 H   0  0  0  0  0  0  0  0  0  0  0  0
    2.6598   -0.6230    1.1312 H   0  0  0  0  0  0  0  0  0  0  0  0
    2.8868   -0.6486   -0.6200 H   0  0  0  0  0  0  0  0  0  0  0  0
    4.7340    0.4974    2.1095 H   0  0  0  0  0  0  0  0  0  0  0  0
    4.6219    2.2091   -1.7457 H   0  0  0  0  0  0  0  0  0  0  0  0
   -1.0304   -0.4124   -0.2869 H   0  0  0  0  0  0  0  0  0  0  0  0
    7.1063    0.4435    2.0223 H   0  0  0  0  0  0  0  0  0  0  0  0
    6.9952    2.1610   -1.8428 H   0  0  0  0  0  0  0  0  0  0  0  0
    9.0281    1.1251    1.9812 H   0  0  0  0  0  0  0  0  0  0  0  0
   11.3579    1.7765    0.4837 H   0  0  0  0  0  0  0  0  0  0  0  0
   12.5371    1.2352    2.6174 H   0  0  0  0  0  0  0  0  0  0  0  0
   11.0122    0.6931    3.3251 H   0  0  0  0  0  0  0  0  0  0  0  0
   11.5988    3.5445    2.3372 H   0  0  0  0  0  0  0  0  0  0  0  0
   10.0670    3.0045    3.0318 H   0  0  0  0  0  0  0  0  0  0  0  0
   11.2432   -2.2961    1.2036 H   0  0  0  0  0  0  0  0  0  0  0  0
   11.1341    3.5843    6.3092 H   0  0  0  0  0  0  0  0  0  0  0  0
  1  2  1  0  0  0  0 
  2  3  2  0  0  0  0 
  2  4  1  0  0  0  0 
  3  5  1  0  0  0  0 
  3  6  1  0  0  0  0 
  4  7  2  0  0  0  0 
  5  8  1  0  0  0  0 
  5  9  2  0  0  0  0 
  6 10  2  0  0  0  0 
  7  9  1  0  0  0  0 
  7 11  1  0  0  0  0 
  8 12  2  0  0  0  0 
 10 12  1  0  0  0  0 
 10 13  1  0  0  0  0 
 13 14  1  0  0  0  0 
 14 15  1  0  0  0  0 
 14 16  1  0  0  0  0 
 15 17  1  0  0  0  0 
 16 18  2  0  0  0  0 
 16 19  1  0  0  0  0 
 17 20  3  0  0  0  0 
 18 21  1  0  0  0  0 
 19 22  2  0  0  0  0 
 21 23  2  0  0  0  0 
 22 23  1  0  0  0  0 
 23 24  1  0  0  0  0 
 24 25  1  0  0  0  0 
 24 26  2  0  0  0  0 
 27 25  1  0  0  0  0 
 27 28  1  0  0  0  0 
 27 29  1  0  0  0  0 
 28 30  1  0  0  0  0 
 29 31  1  0  0  0  0 
 29 32  2  0  0  0  0 
 30 33  1  0  0  0  0 
 33 34  1  0  0  0  0 
 33 35  2  0  0  0  0 
  1 36  1  0  0  0  0 
  1 37  1  0  0  0  0 
 11 38  1  0  0  0  0 
 11 39  1  0  0  0  0 
 12 40  1  0  0  0  0 
 13 41  1  0  0  0  0 
 13 42  1  0  0  0  0 
 14 43  1  0  0  0  0 
 15 44  1  0  0  0  0 
 15 45  1  0  0  0  0 
 18 46  1  0  0  0  0 
 19 47  1  0  0  0  0 
 20 48  1  0  0  0  0 
 21 49  1  0  0  0  0 
 22 50  1  0  0  0  0 
 25 51  1  0  0  0  0 
 27 52  1  0  0  0  0 
 28 53  1  0  0  0  0 
 28 54  1  0  0  0  0 
 30 55  1  0  0  0  0 
 30 56  1  0  0  0  0 
 31 57  1  0  0  0  0 
 34 58  1  0  0  0  0 
M  END
> <cdk:Title>
pralatrexate

> <Conformer>
1

> <SuperDrugID>
SD003362

$$$$
