dimethoxanate
  CDK     0628171802

 47 49  0  0  0  0  0  0  0  0999 V2000
   -8.4975    0.7021   -3.7213 C   0  0  0  0  0  0  0  0  0  0  0  0
   -8.3319   -0.2529   -2.5919 N   0  0  2  0  0  0  0  0  0  0  0  0
   -8.9139    0.2406   -1.3122 C   0  0  0  0  0  0  0  0  0  0  0  0
   -6.9751   -0.8742   -2.4857 C   0  0  1  0  0  0  0  0  0  0  0  0
   -5.7942    0.0933   -2.2191 C   0  0  1  0  0  0  0  0  0  0  0  0
   -4.5977   -0.6933   -2.0672 O   0  0  0  0  0  0  0  0  0  0  0  0
   -3.4168    0.0503   -1.7175 C   0  0  1  0  0  0  0  0  0  0  0  0
   -2.2676   -0.9523   -1.5044 C   0  0  2  0  0  0  0  0  0  0  0  0
   -1.1041   -0.2762   -1.0162 O   0  0  0  0  0  0  0  0  0  0  0  0
    0.0884   -0.8527   -0.6713 C   0  0  0  0  0  0  0  0  0  0  0  0
    0.1844   -2.0960   -0.8203 O   0  0  0  0  0  0  0  0  0  0  0  0
    1.1587   -0.0832   -0.2394 N   0  0  0  0  0  0  0  0  0  0  0  0
    2.3930   -0.6735    0.0033 C   0  0  0  0  0  0  0  0  0  0  0  0
    2.5281   -1.8224    0.8213 C   0  0  0  0  0  0  0  0  0  0  0  0
    3.7721   -2.4600    0.9777 C   0  0  0  0  0  0  0  0  0  0  0  0
    4.9087   -1.9520    0.3271 C   0  0  0  0  0  0  0  0  0  0  0  0
    4.8082   -0.7875   -0.4545 C   0  0  0  0  0  0  0  0  0  0  0  0
    3.5635   -0.1397   -0.5940 C   0  0  0  0  0  0  0  0  0  0  0  0
    3.4484    1.3751   -1.4880 S   0  0  0  0  0  0  0  0  0  0  0  0
    2.0303    2.1308   -0.7631 C   0  0  0  0  0  0  0  0  0  0  0  0
    1.0454    1.3028   -0.1627 C   0  0  0  0  0  0  0  0  0  0  0  0
   -0.0369    1.9358    0.5029 C   0  0  0  0  0  0  0  0  0  0  0  0
   -0.1617    3.3372    0.5184 C   0  0  0  0  0  0  0  0  0  0  0  0
    0.8014    4.1361   -0.1207 C   0  0  0  0  0  0  0  0  0  0  0  0
    1.9023    3.5341   -0.7570 C   0  0  0  0  0  0  0  0  0  0  0  0
   -7.9981    1.6495   -3.5064 H   0  0  0  0  0  0  0  0  0  0  0  0
   -9.5584    0.8946   -3.8908 H   0  0  0  0  0  0  0  0  0  0  0  0
   -8.0862    0.2876   -4.6443 H   0  0  0  0  0  0  0  0  0  0  0  0
   -8.3880    1.1271   -0.9525 H   0  0  0  0  0  0  0  0  0  0  0  0
   -8.8630   -0.5351   -0.5460 H   0  0  0  0  0  0  0  0  0  0  0  0
   -9.9669    0.4938   -1.4520 H   0  0  0  0  0  0  0  0  0  0  0  0
   -6.9928   -1.6297   -1.6960 H   0  0  0  0  0  0  0  0  0  0  0  0
   -6.7731   -1.4086   -3.4169 H   0  0  0  0  0  0  0  0  0  0  0  0
   -5.6857    0.7800   -3.0629 H   0  0  0  0  0  0  0  0  0  0  0  0
   -5.9895    0.6669   -1.3100 H   0  0  0  0  0  0  0  0  0  0  0  0
   -3.1493    0.7448   -2.5189 H   0  0  0  0  0  0  0  0  0  0  0  0
   -3.5745    0.6149   -0.7930 H   0  0  0  0  0  0  0  0  0  0  0  0
   -2.0280   -1.4484   -2.4489 H   0  0  0  0  0  0  0  0  0  0  0  0
   -2.5752   -1.7051   -0.7736 H   0  0  0  0  0  0  0  0  0  0  0  0
    1.7166   -2.2097    1.3066 H   0  0  0  0  0  0  0  0  0  0  0  0
    3.8477   -3.2973    1.5615 H   0  0  0  0  0  0  0  0  0  0  0  0
    5.8100   -2.4241    0.4295 H   0  0  0  0  0  0  0  0  0  0  0  0
    5.6420   -0.4133   -0.9128 H   0  0  0  0  0  0  0  0  0  0  0  0
   -0.7470    1.3778    0.9839 H   0  0  0  0  0  0  0  0  0  0  0  0
   -0.9539    3.7775    0.9937 H   0  0  0  0  0  0  0  0  0  0  0  0
    0.7054    5.1552   -0.1155 H   0  0  0  0  0  0  0  0  0  0  0  0
    2.6057    4.1225   -1.2066 H   0  0  0  0  0  0  0  0  0  0  0  0
  1  2  1  0  0  0  0 
  2  3  1  0  0  0  0 
  2  4  1  0  0  0  0 
  4  5  1  0  0  0  0 
  5  6  1  0  0  0  0 
  6  7  1  0  0  0  0 
  7  8  1  0  0  0  0 
  8  9  1  0  0  0  0 
  9 10  1  0  0  0  0 
 10 11  2  0  0  0  0 
 10 12  1  0  0  0  0 
 12 13  1  0  0  0  0 
 13 14  2  0  0  0  0 
 14 15  1  0  0  0  0 
 15 16  2  0  0  0  0 
 16 17  1  0  0  0  0 
 17 18  2  0  0  0  0 
 13 18  1  0  0  0  0 
 18 19  1  0  0  0  0 
 19 20  1  0  0  0  0 
 20 21  2  0  0  0  0 
 12 21  1  0  0  0  0 
 21 22  1  0  0  0  0 
 22 23  2  0  0  0  0 
 23 24  1  0  0  0  0 
 24 25  2  0  0  0  0 
 20 25  1  0  0  0  0 
  1 26  1  0  0  0  0 
  1 27  1  0  0  0  0 
  1 28  1  0  0  0  0 
  3 29  1  0  0  0  0 
  3 30  1  0  0  0  0 
  3 31  1  0  0  0  0 
  4 32  1  0  0  0  0 
  4 33  1  0  0  0  0 
  5 34  1  0  0  0  0 
  5 35  1  0  0  0  0 
  7 36  1  0  0  0  0 
  7 37  1  0  0  0  0 
  8 38  1  0  0  0  0 
  8 39  1  0  0  0  0 
 14 40  1  0  0  0  0 
 15 41  1  0  0  0  0 
 16 42  1  0  0  0  0 
 17 43  1  0  0  0  0 
 22 44  1  0  0  0  0 
 23 45  1  0  0  0  0 
 24 46  1  0  0  0  0 
 25 47  1  0  0  0  0 
M  END
> <cdk:Title>
dimethoxanate

> <Conformer>
1

> <SuperDrugID>
SD000805

$$$$
