iopronic acid
  CDK     0628171801

 42 42  0  0  0  0  0  0  0  0999 V2000
    3.9259    7.8018   -4.6408 N   0  0  0  0  0  0  0  0  0  0  0  0
    3.4613    8.1570   -5.8707 C   0  0  0  0  0  0  0  0  0  0  0  0
    3.2435    7.0919   -3.7044 C   0  0  0  0  0  0  0  0  0  0  0  0
    4.3510    8.9066   -6.7701 C   0  0  0  0  0  0  0  0  0  0  0  0
    2.3010    7.8762   -6.2567 O   0  0  0  0  0  0  0  0  0  0  0  0
    2.9308    5.7207   -3.8764 C   0  0  0  0  0  0  0  0  0  0  0  0
    2.8938    7.7349   -2.4958 C   0  0  0  0  0  0  0  0  0  0  0  0
    3.4030    4.7353   -5.6214 I   0  0  0  0  0  0  0  0  0  0  0  0
    2.3092    4.9979   -2.8315 C   0  0  0  0  0  0  0  0  0  0  0  0
    3.3487    9.7125   -2.1627 I   0  0  0  0  0  0  0  0  0  0  0  0
    2.2146    7.0299   -1.4878 C   0  0  0  0  0  0  0  0  0  0  0  0
    2.0732    3.6543   -2.9501 O   0  0  0  0  0  0  0  0  0  0  0  0
    1.9193    5.6680   -1.6551 C   0  0  0  0  0  0  0  0  0  0  0  0
    3.1968    2.8367   -2.5490 C   0  0  1  0  0  0  0  0  0  0  0  0
    0.9279    4.6767   -0.1558 I   0  0  0  0  0  0  0  0  0  0  0  0
    2.8541    1.3574   -2.8053 C   0  0  1  0  0  0  0  0  0  0  0  0
    2.3684    1.2107   -4.1540 O   0  0  0  0  0  0  0  0  0  0  0  0
    2.0150   -0.1416   -4.4986 C   0  0  2  0  0  0  0  0  0  0  0  0
    1.3647   -0.1983   -5.9101 C   0  0  1  0  0  0  0  0  0  0  0  0
    1.1841   -1.6120   -6.3265 C   0  0  0  0  0  0  0  0  0  0  0  0
    0.0304    0.6122   -5.9701 C   0  0  1  0  0  0  0  0  0  0  0  0
    1.8372   -2.0978   -7.4082 O   0  0  0  0  0  0  0  0  0  0  0  0
    0.4261   -2.3828   -5.6944 O   0  0  0  0  0  0  0  0  0  0  0  0
   -0.6284    0.6538   -7.3690 C   0  0  0  0  0  0  0  0  0  0  0  0
    4.8147    8.1061   -4.3928 H   0  0  0  0  0  0  0  0  0  0  0  0
    5.2564    8.3263   -6.9621 H   0  0  0  0  0  0  0  0  0  0  0  0
    4.6259    9.8559   -6.3084 H   0  0  0  0  0  0  0  0  0  0  0  0
    3.8606    9.1172   -7.7233 H   0  0  0  0  0  0  0  0  0  0  0  0
    1.9409    7.5094   -0.6294 H   0  0  0  0  0  0  0  0  0  0  0  0
    4.0960    3.0853   -3.1206 H   0  0  0  0  0  0  0  0  0  0  0  0
    3.4209    2.9706   -1.4863 H   0  0  0  0  0  0  0  0  0  0  0  0
    3.7498    0.7479   -2.6505 H   0  0  0  0  0  0  0  0  0  0  0  0
    2.0886    1.0431   -2.0898 H   0  0  0  0  0  0  0  0  0  0  0  0
    1.3112   -0.5491   -3.7647 H   0  0  0  0  0  0  0  0  0  0  0  0
    2.9244   -0.7511   -4.4986 H   0  0  0  0  0  0  0  0  0  0  0  0
    2.0659    0.2717   -6.6082 H   0  0  0  0  0  0  0  0  0  0  0  0
   -0.6900    0.1986   -5.2595 H   0  0  0  0  0  0  0  0  0  0  0  0
    0.2299    1.6446   -5.6703 H   0  0  0  0  0  0  0  0  0  0  0  0
    1.7040   -3.0256   -7.6941 H   0  0  0  0  0  0  0  0  0  0  0  0
   -1.4989    1.3100   -7.3425 H   0  0  0  0  0  0  0  0  0  0  0  0
   -0.9554   -0.3424   -7.6705 H   0  0  0  0  0  0  0  0  0  0  0  0
    0.0719    1.0368   -8.1124 H   0  0  0  0  0  0  0  0  0  0  0  0
  1  2  1  0  0  0  0 
  1  3  1  0  0  0  0 
  2  4  1  0  0  0  0 
  2  5  2  0  0  0  0 
  3  6  2  0  0  0  0 
  3  7  1  0  0  0  0 
  6  8  1  0  0  0  0 
  6  9  1  0  0  0  0 
  7 10  1  0  0  0  0 
  7 11  2  0  0  0  0 
  9 12  1  0  0  0  0 
  9 13  2  0  0  0  0 
 11 13  1  0  0  0  0 
 12 14  1  0  0  0  0 
 13 15  1  0  0  0  0 
 14 16  1  0  0  0  0 
 16 17  1  0  0  0  0 
 17 18  1  0  0  0  0 
 19 18  1  0  0  0  0 
 19 20  1  0  0  0  0 
 19 21  1  0  0  0  0 
 20 22  1  0  0  0  0 
 20 23  2  0  0  0  0 
 21 24  1  0  0  0  0 
  1 25  1  0  0  0  0 
  4 26  1  0  0  0  0 
  4 27  1  0  0  0  0 
  4 28  1  0  0  0  0 
 11 29  1  0  0  0  0 
 14 30  1  0  0  0  0 
 14 31  1  0  0  0  0 
 16 32  1  0  0  0  0 
 16 33  1  0  0  0  0 
 18 34  1  0  0  0  0 
 18 35  1  0  0  0  0 
 19 36  1  0  0  0  0 
 21 37  1  0  0  0  0 
 21 38  1  0  0  0  0 
 22 39  1  0  0  0  0 
 24 40  1  0  0  0  0 
 24 41  1  0  0  0  0 
 24 42  1  0  0  0  0 
M  END
> <cdk:Title>
iopronic acid

> <Conformer>
1

> <SuperDrugID>
SD002768

$$$$
