levofacetoperane
  CDK     0628171801

 36 37  0  0  0  0  0  0  0  0999 V2000
   -3.1325   -0.7186    0.8385 N   0  0  1  0  0  0  0  0  0  0  0  0
   -4.5689   -0.4331    0.6224 C   0  0  2  0  0  0  0  0  0  0  0  0
   -5.4429   -1.5237    1.2876 C   0  0  1  0  0  0  0  0  0  0  0  0
   -5.0342   -2.9384    0.8000 C   0  0  2  0  0  0  0  0  0  0  0  0
   -3.5056   -3.1780    0.9315 C   0  0  2  0  0  0  0  0  0  0  0  0
   -2.6814   -2.0228    0.2808 C   0  0  2  0  0  0  0  0  0  0  0  0
   -1.1438   -2.1575    0.5113 C   0  0  2  0  0  0  0  0  0  0  0  0
   -0.4839   -1.0046   -0.0518 O   0  0  0  0  0  0  0  0  0  0  0  0
   -0.5571   -3.3740   -0.1301 C   0  0  0  0  0  0  0  0  0  0  0  0
   -0.1581   -4.4887    0.6462 C   0  0  0  0  0  0  0  0  0  0  0  0
   -0.3833   -3.4363   -1.5358 C   0  0  0  0  0  0  0  0  0  0  0  0
    0.1763   -4.5730   -2.1448 C   0  0  0  0  0  0  0  0  0  0  0  0
    0.5593   -5.6724   -1.3595 C   0  0  0  0  0  0  0  0  0  0  0  0
    0.3903   -5.6316    0.0355 C   0  0  0  0  0  0  0  0  0  0  0  0
   -2.8685   -2.0170   -0.7978 H   0  0  0  0  0  0  0  0  0  0  0  0
    0.2535   -0.0415    0.5732 C   0  0  0  0  0  0  0  0  0  0  0  0
    0.4540   -0.0617    1.8095 O   0  0  0  0  0  0  0  0  0  0  0  0
    0.8067    1.0610   -0.2268 C   0  0  0  0  0  0  0  0  0  0  0  0
   -2.6077    0.0172    0.3606 H   0  0  0  0  0  0  0  0  0  0  0  0
   -4.7836   -0.3740   -0.4493 H   0  0  0  0  0  0  0  0  0  0  0  0
   -4.8004    0.5372    1.0660 H   0  0  0  0  0  0  0  0  0  0  0  0
   -5.3281   -1.4636    2.3733 H   0  0  0  0  0  0  0  0  0  0  0  0
   -6.4943   -1.3468    1.0477 H   0  0  0  0  0  0  0  0  0  0  0  0
   -5.3242   -3.0561   -0.2488 H   0  0  0  0  0  0  0  0  0  0  0  0
   -5.5724   -3.6938    1.3810 H   0  0  0  0  0  0  0  0  0  0  0  0
   -3.2586   -4.1272    0.4475 H   0  0  0  0  0  0  0  0  0  0  0  0
   -3.2502   -3.2634    1.9927 H   0  0  0  0  0  0  0  0  0  0  0  0
   -0.9750   -2.1853    1.5946 H   0  0  0  0  0  0  0  0  0  0  0  0
   -0.2696   -4.4813    1.6620 H   0  0  0  0  0  0  0  0  0  0  0  0
   -0.6547   -2.6490   -2.1277 H   0  0  0  0  0  0  0  0  0  0  0  0
    0.3034   -4.5967   -3.1582 H   0  0  0  0  0  0  0  0  0  0  0  0
    0.9623   -6.5016   -1.8032 H   0  0  0  0  0  0  0  0  0  0  0  0
    0.6663   -6.4318    0.6064 H   0  0  0  0  0  0  0  0  0  0  0  0
    0.3570    2.0021    0.0947 H   0  0  0  0  0  0  0  0  0  0  0  0
    0.5972    0.9188   -1.2899 H   0  0  0  0  0  0  0  0  0  0  0  0
    1.8880    1.1127   -0.0909 H   0  0  0  0  0  0  0  0  0  0  0  0
  1  2  1  0  0  0  0 
  2  3  1  0  0  0  0 
  3  4  1  0  0  0  0 
  4  5  1  0  0  0  0 
  5  6  1  0  0  0  0 
  1  6  1  0  0  0  0 
  6  7  1  0  0  0  0 
  7  8  1  0  0  0  0 
  7  9  1  0  0  0  0 
 10  9  2  0  0  0  0 
  9 11  1  0  0  0  0 
 11 12  2  0  0  0  0 
 12 13  1  0  0  0  0 
 13 14  2  0  0  0  0 
 10 14  1  0  0  0  0 
  6 15  1  0  0  0  0 
  8 16  1  0  0  0  0 
 16 17  2  0  0  0  0 
 16 18  1  0  0  0  0 
  1 19  1  0  0  0  0 
  2 20  1  0  0  0  0 
  2 21  1  0  0  0  0 
  3 22  1  0  0  0  0 
  3 23  1  0  0  0  0 
  4 24  1  0  0  0  0 
  4 25  1  0  0  0  0 
  5 26  1  0  0  0  0 
  5 27  1  0  0  0  0 
  7 28  1  0  0  0  0 
 10 29  1  0  0  0  0 
 11 30  1  0  0  0  0 
 12 31  1  0  0  0  0 
 13 32  1  0  0  0  0 
 14 33  1  0  0  0  0 
 18 34  1  0  0  0  0 
 18 35  1  0  0  0  0 
 18 36  1  0  0  0  0 
M  END
> <cdk:Title>
levofacetoperane

> <Conformer>
1

> <SuperDrugID>
SD002867

$$$$
