levofolinic acid
  CDK     0628171801

 57 59  0  0  0  0  0  0  0  0999 V2000
   -3.2219    1.5251   -2.9152 C   0  0  0  0  0  0  0  0  0  0  0  0
   -4.1369    1.8103   -3.7213 O   0  0  0  0  0  0  0  0  0  0  0  0
   -2.0217    2.2049   -2.8515 N   0  0  0  0  0  0  0  0  0  0  0  0
   -1.0623    1.8724   -1.9015 C   0  0  0  0  0  0  0  0  0  0  0  0
   -1.6857    3.2410   -3.8260 C   0  0  1  0  0  0  0  0  0  0  0  0
    0.3029    1.9534   -2.2742 C   0  0  0  0  0  0  0  0  0  0  0  0
   -1.3135    1.4487   -0.5705 C   0  0  0  0  0  0  0  0  0  0  0  0
   -1.7979    4.6684   -3.2064 C   0  0  1  0  0  0  0  0  0  0  0  0
   -0.2734    2.9514   -4.4367 C   0  0  1  0  0  0  0  0  0  0  0  0
    0.6629    2.4362   -3.4885 N   0  0  0  0  0  0  0  0  0  0  0  0
    1.2820    1.5460   -1.4290 N   0  0  0  0  0  0  0  0  0  0  0  0
   -2.4631    1.4340   -0.0762 O   0  0  0  0  0  0  0  0  0  0  0  0
   -0.2932    1.0565    0.2354 N   0  0  0  0  0  0  0  0  0  0  0  0
   -3.1274    4.9114   -2.7254 N   0  0  0  0  0  0  0  0  0  0  0  0
    0.9932    1.0819   -0.1899 C   0  0  0  0  0  0  0  0  0  0  0  0
   -3.8264    6.0898   -2.6877 C   0  0  0  0  0  0  0  0  0  0  0  0
    1.9763    0.6520    0.6151 N   0  0  0  0  0  0  0  0  0  0  0  0
   -3.3724    7.3297   -3.1961 C   0  0  0  0  0  0  0  0  0  0  0  0
   -5.0982    6.0518   -2.0778 C   0  0  0  0  0  0  0  0  0  0  0  0
   -4.1559    8.4930   -3.0720 C   0  0  0  0  0  0  0  0  0  0  0  0
   -5.8765    7.2176   -1.9479 C   0  0  0  0  0  0  0  0  0  0  0  0
   -5.4188    8.4716   -2.4269 C   0  0  0  0  0  0  0  0  0  0  0  0
   -6.1909    9.6605   -2.2293 C   0  0  0  0  0  0  0  0  0  0  0  0
   -5.7083   10.8980   -2.5595 N   0  0  0  0  0  0  0  0  0  0  0  0
   -7.3268    9.5884   -1.6991 O   0  0  0  0  0  0  0  0  0  0  0  0
   -6.3238   12.1608   -2.2611 C   0  0  1  0  0  0  0  0  0  0  0  0
   -5.3164   13.3253   -2.5083 C   0  0  2  0  0  0  0  0  0  0  0  0
   -7.5669   12.3617   -3.0452 C   0  0  0  0  0  0  0  0  0  0  0  0
   -4.0655   13.2632   -1.5849 C   0  0  1  0  0  0  0  0  0  0  0  0
   -7.5433   12.4830   -4.3940 O   0  0  0  0  0  0  0  0  0  0  0  0
   -8.6783   12.4243   -2.4727 O   0  0  0  0  0  0  0  0  0  0  0  0
   -3.0791   14.3209   -1.8756 C   0  0  0  0  0  0  0  0  0  0  0  0
   -1.8161   14.0078   -2.2507 O   0  0  0  0  0  0  0  0  0  0  0  0
   -3.3883   15.5283   -1.7585 O   0  0  0  0  0  0  0  0  0  0  0  0
   -3.4093    0.7302   -2.3017 H   0  0  0  0  0  0  0  0  0  0  0  0
   -2.3785    3.2332   -4.6757 H   0  0  0  0  0  0  0  0  0  0  0  0
   -1.1030    4.7731   -2.3680 H   0  0  0  0  0  0  0  0  0  0  0  0
   -1.5200    5.3907   -3.9755 H   0  0  0  0  0  0  0  0  0  0  0  0
   -0.3683    2.2053   -5.2302 H   0  0  0  0  0  0  0  0  0  0  0  0
    0.1489    3.8562   -4.8817 H   0  0  0  0  0  0  0  0  0  0  0  0
    1.6035    2.4297   -3.7272 H   0  0  0  0  0  0  0  0  0  0  0  0
   -0.4869    0.7516    1.1360 H   0  0  0  0  0  0  0  0  0  0  0  0
   -3.5834    4.1399   -2.3533 H   0  0  0  0  0  0  0  0  0  0  0  0
    2.8974    0.6600    0.3090 H   0  0  0  0  0  0  0  0  0  0  0  0
    1.7647    0.3230    1.5030 H   0  0  0  0  0  0  0  0  0  0  0  0
   -2.4676    7.4107   -3.6608 H   0  0  0  0  0  0  0  0  0  0  0  0
   -5.4681    5.1689   -1.7126 H   0  0  0  0  0  0  0  0  0  0  0  0
   -3.7767    9.3593   -3.4600 H   0  0  0  0  0  0  0  0  0  0  0  0
   -6.7856    7.1358   -1.4843 H   0  0  0  0  0  0  0  0  0  0  0  0
   -4.8505   10.9335   -3.0069 H   0  0  0  0  0  0  0  0  0  0  0  0
   -6.5769   12.1691   -1.1939 H   0  0  0  0  0  0  0  0  0  0  0  0
   -5.8288   14.2760   -2.3238 H   0  0  0  0  0  0  0  0  0  0  0  0
   -4.9879   13.3119   -3.5541 H   0  0  0  0  0  0  0  0  0  0  0  0
   -4.3765   13.3739   -0.5448 H   0  0  0  0  0  0  0  0  0  0  0  0
   -3.5789   12.2902   -1.6819 H   0  0  0  0  0  0  0  0  0  0  0  0
   -8.3748   12.6400   -4.8924 H   0  0  0  0  0  0  0  0  0  0  0  0
   -1.1584   14.7177   -2.4094 H   0  0  0  0  0  0  0  0  0  0  0  0
  1  2  2  0  0  0  0 
  1  3  1  0  0  0  0 
  3  4  1  0  0  0  0 
  5  3  1  0  0  0  0 
  4  6  2  0  0  0  0 
  4  7  1  0  0  0  0 
  5  8  1  0  0  0  0 
  5  9  1  0  0  0  0 
  6 10  1  0  0  0  0 
  6 11  1  0  0  0  0 
  7 12  2  0  0  0  0 
  7 13  1  0  0  0  0 
  8 14  1  0  0  0  0 
  9 10  1  0  0  0  0 
 11 15  2  0  0  0  0 
 13 15  1  0  0  0  0 
 14 16  1  0  0  0  0 
 15 17  1  0  0  0  0 
 16 18  2  0  0  0  0 
 16 19  1  0  0  0  0 
 18 20  1  0  0  0  0 
 19 21  2  0  0  0  0 
 20 22  2  0  0  0  0 
 21 22  1  0  0  0  0 
 22 23  1  0  0  0  0 
 23 24  1  0  0  0  0 
 23 25  2  0  0  0  0 
 26 24  1  0  0  0  0 
 26 27  1  0  0  0  0 
 26 28  1  0  0  0  0 
 27 29  1  0  0  0  0 
 28 30  1  0  0  0  0 
 28 31  2  0  0  0  0 
 29 32  1  0  0  0  0 
 32 33  1  0  0  0  0 
 32 34  2  0  0  0  0 
 35  1  1  0  0  0  0 
  5 36  1  0  0  0  0 
 37  8  1  0  0  0  0 
 38  8  1  0  0  0  0 
 39  9  1  0  0  0  0 
 40  9  1  0  0  0  0 
 41 10  1  0  0  0  0 
 42 13  1  0  0  0  0 
 43 14  1  0  0  0  0 
 44 17  1  0  0  0  0 
 45 17  1  0  0  0  0 
 46 18  1  0  0  0  0 
 47 19  1  0  0  0  0 
 48 20  1  0  0  0  0 
 49 21  1  0  0  0  0 
 50 24  1  0  0  0  0 
 26 51  1  0  0  0  0 
 52 27  1  0  0  0  0 
 53 27  1  0  0  0  0 
 54 29  1  0  0  0  0 
 55 29  1  0  0  0  0 
 56 30  1  0  0  0  0 
 57 33  1  0  0  0  0 
M  END
> <cdk:Title>
levofolinic acid

> <Conformer>
1

> <SuperDrugID>
SD003536

$$$$
