salicylsulfuric acid
  CDK     0628171801

 20 20  0  0  0  0  0  0  0  0999 V2000
    2.8937   -1.6956    1.5289 C   0  0  0  0  0  0  0  0  0  0  0  0
    3.8865   -2.4121    2.1140 O   0  0  0  0  0  0  0  0  0  0  0  0
    2.6508   -1.9932    0.3369 O   0  0  0  0  0  0  0  0  0  0  0  0
    2.1952   -0.6712    2.2307 C   0  0  0  0  0  0  0  0  0  0  0  0
    1.2766    0.2075    1.5876 C   0  0  0  0  0  0  0  0  0  0  0  0
    2.4195   -0.5023    3.6219 C   0  0  0  0  0  0  0  0  0  0  0  0
    0.9982    0.1200    0.2522 O   0  0  0  0  0  0  0  0  0  0  0  0
    0.6533    1.2405    2.3198 C   0  0  0  0  0  0  0  0  0  0  0  0
    1.7709    0.5118    4.3484 C   0  0  0  0  0  0  0  0  0  0  0  0
   -0.4611   -0.7382   -0.0559 S   0  0  1  0  0  0  0  0  0  0  0  0
    0.8904    1.3875    3.6966 C   0  0  0  0  0  0  0  0  0  0  0  0
   -1.0024   -1.5160    1.2355 O   0  0  0  0  0  0  0  0  0  0  0  0
   -1.5773    0.2816   -0.5834 O   0  0  0  0  0  0  0  0  0  0  0  0
   -0.1502   -1.8786   -1.2897 O   0  0  0  0  0  0  0  0  0  0  0  0
    4.3615   -3.1060    1.6104 H   0  0  0  0  0  0  0  0  0  0  0  0
    3.0588   -1.1175    4.1305 H   0  0  0  0  0  0  0  0  0  0  0  0
    0.0192    1.8898    1.8496 H   0  0  0  0  0  0  0  0  0  0  0  0
    1.9428    0.6150    5.3507 H   0  0  0  0  0  0  0  0  0  0  0  0
    0.4246    2.1287    4.2230 H   0  0  0  0  0  0  0  0  0  0  0  0
   -0.3533   -1.4076   -2.1244 H   0  0  0  0  0  0  0  0  0  0  0  0
  1  2  1  0  0  0  0 
  1  3  2  0  0  0  0 
  1  4  1  0  0  0  0 
  4  5  2  0  0  0  0 
  4  6  1  0  0  0  0 
  5  7  1  0  0  0  0 
  5  8  1  0  0  0  0 
  6  9  2  0  0  0  0 
  7 10  1  0  0  0  0 
  8 11  2  0  0  0  0 
  9 11  1  0  0  0  0 
 10 12  2  0  0  0  0 
 10 13  2  0  0  0  0 
 10 14  1  0  0  0  0 
  2 15  1  0  0  0  0 
  6 16  1  0  0  0  0 
  8 17  1  0  0  0  0 
  9 18  1  0  0  0  0 
 11 19  1  0  0  0  0 
 14 20  1  0  0  0  0 
M  END
> <cdk:Title>
salicylsulfuric acid

> <Conformer>
1

> <SuperDrugID>
SD003047

$$$$
