droxicam
  CDK     0628171802

 36 39  0  0  0  0  0  0  0  0999 V2000
    2.3482    3.8364   -3.3236 O   0  0  0  0  0  0  0  0  0  0  0  0
    1.5635    4.0021   -4.2900 C   0  0  0  0  0  0  0  0  0  0  0  0
    1.4556    5.3045   -4.8635 C   0  0  0  0  0  0  0  0  0  0  0  0
    0.8119    2.9295   -4.7205 N   0  0  0  0  0  0  0  0  0  0  0  0
    0.4280    5.4773   -5.8357 C   0  0  0  0  0  0  0  0  0  0  0  0
    2.2882    6.3619   -4.5096 N   0  0  0  0  0  0  0  0  0  0  0  0
   -0.1104    3.1358   -5.7083 C   0  0  0  0  0  0  0  0  0  0  0  0
    0.9872    1.6563   -4.2053 C   0  0  0  0  0  0  0  0  0  0  0  0
    0.0633    6.7214   -6.4494 C   0  0  0  0  0  0  0  0  0  0  0  0
   -0.2860    4.3800   -6.2130 O   0  0  0  0  0  0  0  0  0  0  0  0
    3.6816    6.2413   -4.1634 C   0  0  0  0  0  0  0  0  0  0  0  0
    1.6298    7.9538   -4.5709 S   0  0  2  0  0  0  0  0  0  0  0  0
   -0.8240    2.2384   -6.2178 O   0  0  0  0  0  0  0  0  0  0  0  0
   -0.0880    0.8646   -3.7314 C   0  0  0  0  0  0  0  0  0  0  0  0
    2.2403    1.1184   -4.1754 N   0  0  0  0  0  0  0  0  0  0  0  0
    0.5264    7.9640   -5.9492 C   0  0  0  0  0  0  0  0  0  0  0  0
   -0.8090    6.7499   -7.5698 C   0  0  0  0  0  0  0  0  0  0  0  0
    2.7688    9.0661   -4.7721 O   0  0  0  0  0  0  0  0  0  0  0  0
    0.8238    8.2541   -3.2165 O   0  0  0  0  0  0  0  0  0  0  0  0
    0.1529   -0.4472   -3.2826 C   0  0  0  0  0  0  0  0  0  0  0  0
    2.5113   -0.1353   -3.7322 C   0  0  0  0  0  0  0  0  0  0  0  0
    0.1288    9.1857   -6.5313 C   0  0  0  0  0  0  0  0  0  0  0  0
   -1.2000    7.9660   -8.1595 C   0  0  0  0  0  0  0  0  0  0  0  0
    1.4629   -0.9557   -3.2827 C   0  0  0  0  0  0  0  0  0  0  0  0
   -0.7328    9.1844   -7.6403 C   0  0  0  0  0  0  0  0  0  0  0  0
    4.2892    6.9497   -4.7313 H   0  0  0  0  0  0  0  0  0  0  0  0
    4.0852    5.2533   -4.3858 H   0  0  0  0  0  0  0  0  0  0  0  0
    3.8066    6.4422   -3.0976 H   0  0  0  0  0  0  0  0  0  0  0  0
   -1.0422    1.2302   -3.7146 H   0  0  0  0  0  0  0  0  0  0  0  0
   -1.1761    5.8854   -7.9746 H   0  0  0  0  0  0  0  0  0  0  0  0
   -0.6212   -1.0292   -2.9529 H   0  0  0  0  0  0  0  0  0  0  0  0
    3.4733   -0.4763   -3.7343 H   0  0  0  0  0  0  0  0  0  0  0  0
    0.4622   10.0752   -6.1547 H   0  0  0  0  0  0  0  0  0  0  0  0
   -1.8274    7.9639   -8.9676 H   0  0  0  0  0  0  0  0  0  0  0  0
    1.6518   -1.9074   -2.9606 H   0  0  0  0  0  0  0  0  0  0  0  0
   -1.0165   10.0678   -8.0716 H   0  0  0  0  0  0  0  0  0  0  0  0
  1  2  2  0  0  0  0 
  2  3  1  0  0  0  0 
  2  4  1  0  0  0  0 
  3  5  2  0  0  0  0 
  3  6  1  0  0  0  0 
  4  7  1  0  0  0  0 
  4  8  1  0  0  0  0 
  5  9  1  0  0  0  0 
  5 10  1  0  0  0  0 
  6 11  1  0  0  0  0 
  6 12  1  0  0  0  0 
  7 10  1  0  0  0  0 
  7 13  2  0  0  0  0 
  8 14  2  0  0  0  0 
  8 15  1  0  0  0  0 
  9 16  2  0  0  0  0 
  9 17  1  0  0  0  0 
 12 16  1  0  0  0  0 
 12 18  2  0  0  0  0 
 12 19  2  0  0  0  0 
 14 20  1  0  0  0  0 
 15 21  2  0  0  0  0 
 16 22  1  0  0  0  0 
 17 23  2  0  0  0  0 
 20 24  2  0  0  0  0 
 21 24  1  0  0  0  0 
 22 25  2  0  0  0  0 
 23 25  1  0  0  0  0 
 11 26  1  0  0  0  0 
 11 27  1  0  0  0  0 
 11 28  1  0  0  0  0 
 14 29  1  0  0  0  0 
 17 30  1  0  0  0  0 
 20 31  1  0  0  0  0 
 21 32  1  0  0  0  0 
 22 33  1  0  0  0  0 
 23 34  1  0  0  0  0 
 24 35  1  0  0  0  0 
 25 36  1  0  0  0  0 
M  END
> <cdk:Title>
droxicam

> <Conformer>
1

> <SuperDrugID>
SD000860

$$$$
