methylchromone
  CDK     0628171801

 20 21  0  0  0  0  0  0  0  0999 V2000
    1.4065   -0.4045    0.1777 C   0  0  0  0  0  0  0  0  0  0  0  0
   -0.0260   -0.0454    0.0228 C   0  0  0  0  0  0  0  0  0  0  0  0
   -0.4148    1.1888   -0.5398 C   0  0  0  0  0  0  0  0  0  0  0  0
   -1.7360    1.4965   -0.6719 O   0  0  0  0  0  0  0  0  0  0  0  0
   -2.7392    0.6583   -0.2815 C   0  0  0  0  0  0  0  0  0  0  0  0
   -2.4177   -0.5993    0.2922 C   0  0  0  0  0  0  0  0  0  0  0  0
   -3.4742   -1.4544    0.6907 C   0  0  0  0  0  0  0  0  0  0  0  0
   -4.8162   -1.0625    0.5201 C   0  0  0  0  0  0  0  0  0  0  0  0
   -5.1217    0.1862   -0.0496 C   0  0  0  0  0  0  0  0  0  0  0  0
   -4.0831    1.0454   -0.4498 C   0  0  0  0  0  0  0  0  0  0  0  0
   -1.0497   -0.9339    0.4363 C   0  0  0  0  0  0  0  0  0  0  0  0
   -0.7351   -2.0392    0.9403 O   0  0  0  0  0  0  0  0  0  0  0  0
    1.6180   -1.3178   -0.3811 H   0  0  0  0  0  0  0  0  0  0  0  0
    2.0736    0.3790   -0.1855 H   0  0  0  0  0  0  0  0  0  0  0  0
    1.6287   -0.5793    1.2318 H   0  0  0  0  0  0  0  0  0  0  0  0
    0.2763    1.8707   -0.8566 H   0  0  0  0  0  0  0  0  0  0  0  0
   -3.2775   -2.3681    1.1078 H   0  0  0  0  0  0  0  0  0  0  0  0
   -5.5722   -1.6868    0.8110 H   0  0  0  0  0  0  0  0  0  0  0  0
   -6.0972    0.4682   -0.1722 H   0  0  0  0  0  0  0  0  0  0  0  0
   -4.3078    1.9523   -0.8635 H   0  0  0  0  0  0  0  0  0  0  0  0
  1  2  1  0  0  0  0 
  2  3  2  0  0  0  0 
  3  4  1  0  0  0  0 
  4  5  1  0  0  0  0 
  5  6  1  0  0  0  0 
  6  7  2  0  0  0  0 
  7  8  1  0  0  0  0 
  8  9  2  0  0  0  0 
  9 10  1  0  0  0  0 
  5 10  2  0  0  0  0 
  6 11  1  0  0  0  0 
  2 11  1  0  0  0  0 
 11 12  2  0  0  0  0 
  1 13  1  0  0  0  0 
  1 14  1  0  0  0  0 
  1 15  1  0  0  0  0 
  3 16  1  0  0  0  0 
  7 17  1  0  0  0  0 
  8 18  1  0  0  0  0 
  9 19  1  0  0  0  0 
 10 20  1  0  0  0  0 
M  END
> <cdk:Title>
methylchromone

> <Conformer>
1

> <SuperDrugID>
SD003112

$$$$
