sulfiram
  CDK     0628171801

 35 34  0  0  0  0  0  0  0  0999 V2000
    5.0702    1.6156   -1.0938 N   0  0  0  0  0  0  0  0  0  0  0  0
    4.4310    0.4638   -1.3522 C   0  0  0  0  0  0  0  0  0  0  0  0
    5.9922    2.1582   -2.0715 C   0  0  2  0  0  0  0  0  0  0  0  0
    4.8136    2.3123    0.1496 C   0  0  2  0  0  0  0  0  0  0  0  0
    3.3060    0.3359   -2.6610 S   0  0  0  0  0  0  0  0  0  0  0  0
    4.6640   -0.9176   -0.3834 S   0  0  0  0  0  0  0  0  0  0  0  0
    7.2508    1.2781   -2.2508 C   0  0  0  0  0  0  0  0  0  0  0  0
    6.0194    2.2735    1.1146 C   0  0  0  0  0  0  0  0  0  0  0  0
    1.7550    0.7169   -1.9842 C   0  0  0  0  0  0  0  0  0  0  0  0
    0.8903   -0.2352   -1.5535 N   0  0  0  0  0  0  0  0  0  0  0  0
    1.4249    2.3890   -1.9269 S   0  0  0  0  0  0  0  0  0  0  0  0
    0.1275   -0.0626   -0.3303 C   0  0  2  0  0  0  0  0  0  0  0  0
    0.7405   -1.4814   -2.2884 C   0  0  2  0  0  0  0  0  0  0  0  0
    0.9071   -0.6268    0.8761 C   0  0  0  0  0  0  0  0  0  0  0  0
    0.1279   -1.2525   -3.6873 C   0  0  0  0  0  0  0  0  0  0  0  0
    6.3273    3.1589   -1.7840 H   0  0  0  0  0  0  0  0  0  0  0  0
    5.4946    2.2689   -3.0387 H   0  0  0  0  0  0  0  0  0  0  0  0
    3.9504    1.8923    0.6775 H   0  0  0  0  0  0  0  0  0  0  0  0
    4.5619    3.3538   -0.0669 H   0  0  0  0  0  0  0  0  0  0  0  0
    7.7926    1.1953   -1.3068 H   0  0  0  0  0  0  0  0  0  0  0  0
    6.9737    0.2774   -2.5877 H   0  0  0  0  0  0  0  0  0  0  0  0
    7.9120    1.7243   -2.9955 H   0  0  0  0  0  0  0  0  0  0  0  0
    6.8676    2.8168    0.6940 H   0  0  0  0  0  0  0  0  0  0  0  0
    6.3181    1.2412    1.3059 H   0  0  0  0  0  0  0  0  0  0  0  0
    5.7484    2.7404    2.0632 H   0  0  0  0  0  0  0  0  0  0  0  0
   -0.8365   -0.5767   -0.4007 H   0  0  0  0  0  0  0  0  0  0  0  0
   -0.1146    0.9815   -0.1227 H   0  0  0  0  0  0  0  0  0  0  0  0
    0.0937   -2.1924   -1.7629 H   0  0  0  0  0  0  0  0  0  0  0  0
    1.7049   -1.9832   -2.3882 H   0  0  0  0  0  0  0  0  0  0  0  0
    1.1479   -1.6795    0.7168 H   0  0  0  0  0  0  0  0  0  0  0  0
    1.8339   -0.0681    1.0171 H   0  0  0  0  0  0  0  0  0  0  0  0
    0.3067   -0.5394    1.7827 H   0  0  0  0  0  0  0  0  0  0  0  0
    0.7953   -0.6450   -4.3018 H   0  0  0  0  0  0  0  0  0  0  0  0
   -0.8305   -0.7371   -3.5899 H   0  0  0  0  0  0  0  0  0  0  0  0
   -0.0340   -2.2080   -4.1905 H   0  0  0  0  0  0  0  0  0  0  0  0
  1  2  1  0  0  0  0 
  1  3  1  0  0  0  0 
  1  4  1  0  0  0  0 
  2  5  1  0  0  0  0 
  2  6  2  0  0  0  0 
  3  7  1  0  0  0  0 
  4  8  1  0  0  0  0 
  5  9  1  0  0  0  0 
  9 10  1  0  0  0  0 
  9 11  2  0  0  0  0 
 10 12  1  0  0  0  0 
 10 13  1  0  0  0  0 
 12 14  1  0  0  0  0 
 13 15  1  0  0  0  0 
  3 16  1  0  0  0  0 
  3 17  1  0  0  0  0 
  4 18  1  0  0  0  0 
  4 19  1  0  0  0  0 
  7 20  1  0  0  0  0 
  7 21  1  0  0  0  0 
  7 22  1  0  0  0  0 
  8 23  1  0  0  0  0 
  8 24  1  0  0  0  0 
  8 25  1  0  0  0  0 
 12 26  1  0  0  0  0 
 12 27  1  0  0  0  0 
 13 28  1  0  0  0  0 
 13 29  1  0  0  0  0 
 14 30  1  0  0  0  0 
 14 31  1  0  0  0  0 
 14 32  1  0  0  0  0 
 15 33  1  0  0  0  0 
 15 34  1  0  0  0  0 
 15 35  1  0  0  0  0 
M  END
> <cdk:Title>
sulfiram

> <Conformer>
1

> <SuperDrugID>
SD003068

$$$$
