cefuzonam
  CDK     0628171801

 47 50  0  0  0  0  0  0  0  0999 V2000
   -3.2027    5.0262    0.9291 C   0  0  0  0  0  0  0  0  0  0  0  0
   -1.8798    4.7789    0.7900 O   0  0  0  0  0  0  0  0  0  0  0  0
   -3.4991    6.1030    1.4955 O   0  0  0  0  0  0  0  0  0  0  0  0
   -4.2170    4.1667    0.4880 C   0  0  0  0  0  0  0  0  0  0  0  0
   -5.2728    4.7602   -0.1193 N   0  0  0  0  0  0  0  0  0  0  0  0
   -4.1874    2.8047    0.6021 C   0  0  0  0  0  0  0  0  0  0  0  0
   -6.6181    4.3469   -0.3217 C   0  0  1  0  0  0  0  0  0  0  0  0
   -5.3957    5.8360   -0.9118 C   0  0  0  0  0  0  0  0  0  0  0  0
   -3.0017    2.0660    1.0597 C   0  0  2  0  0  0  0  0  0  0  0  0
   -5.3535    1.9556    0.2671 C   0  0  2  0  0  0  0  0  0  0  0  0
   -6.7820    5.5599   -1.2903 C   0  0  1  0  0  0  0  0  0  0  0  0
   -6.5052    2.6489   -0.9688 S   0  0  0  0  0  0  0  0  0  0  0  0
   -4.5904    6.7231   -1.2757 O   0  0  0  0  0  0  0  0  0  0  0  0
   -1.9723    1.7436   -0.4143 S   0  0  0  0  0  0  0  0  0  0  0  0
   -6.9637    5.2112   -2.6630 N   0  0  0  0  0  0  0  0  0  0  0  0
   -0.4986    1.0285    0.1914 C   0  0  0  0  0  0  0  0  0  0  0  0
   -6.7369    6.0186   -3.7361 C   0  0  0  0  0  0  0  0  0  0  0  0
   -0.1010   -0.3000    0.0836 C   0  0  0  0  0  0  0  0  0  0  0  0
    0.8255    1.8406    0.9882 S   0  0  0  0  0  0  0  0  0  0  0  0
   -6.8008    5.5066   -5.0356 C   0  0  0  0  0  0  0  0  0  0  0  0
   -6.4433    7.2260   -3.5598 O   0  0  0  0  0  0  0  0  0  0  0  0
    1.1312   -0.5602    0.5855 N   0  0  0  0  0  0  0  0  0  0  0  0
    1.7880    0.4385    1.1045 N   0  0  0  0  0  0  0  0  0  0  0  0
   -7.3226    6.2001   -5.9890 N   0  0  0  0  0  0  0  0  0  0  0  0
   -6.2840    4.2411   -5.3590 C   0  0  0  0  0  0  0  0  0  0  0  0
   -7.8557    7.3624   -5.9130 O   0  0  0  0  0  0  0  0  0  0  0  0
   -6.2686    3.6889   -6.6581 C   0  0  0  0  0  0  0  0  0  0  0  0
   -5.7139    3.4261   -4.4166 N   0  0  0  0  0  0  0  0  0  0  0  0
   -8.0948    7.8710   -7.2284 C   0  0  0  0  0  0  0  0  0  0  0  0
   -5.4906    2.1236   -6.5325 S   0  0  0  0  0  0  0  0  0  0  0  0
   -5.2241    2.2308   -4.8049 C   0  0  0  0  0  0  0  0  0  0  0  0
   -4.6488    1.3009   -4.0290 N   0  0  0  0  0  0  0  0  0  0  0  0
   -7.2161    4.4153    0.5920 H   0  0  0  0  0  0  0  0  0  0  0  0
   -1.2194    5.4102    1.1463 H   0  0  0  0  0  0  0  0  0  0  0  0
   -3.2649    1.1059    1.5110 H   0  0  0  0  0  0  0  0  0  0  0  0
   -2.4295    2.6035    1.8163 H   0  0  0  0  0  0  0  0  0  0  0  0
   -5.9213    1.7987    1.1861 H   0  0  0  0  0  0  0  0  0  0  0  0
   -5.0555    0.9756   -0.1127 H   0  0  0  0  0  0  0  0  0  0  0  0
   -7.4782    6.3211   -0.9306 H   0  0  0  0  0  0  0  0  0  0  0  0
   -7.2599    4.3071   -2.8507 H   0  0  0  0  0  0  0  0  0  0  0  0
   -0.6843   -1.0211   -0.3437 H   0  0  0  0  0  0  0  0  0  0  0  0
   -6.6239    4.1021   -7.5230 H   0  0  0  0  0  0  0  0  0  0  0  0
   -8.5795    8.8431   -7.1301 H   0  0  0  0  0  0  0  0  0  0  0  0
   -7.1545    8.0086   -7.7708 H   0  0  0  0  0  0  0  0  0  0  0  0
   -8.7583    7.2120   -7.7971 H   0  0  0  0  0  0  0  0  0  0  0  0
   -4.3006    0.4887   -4.4299 H   0  0  0  0  0  0  0  0  0  0  0  0
   -4.5845    1.4348   -3.0694 H   0  0  0  0  0  0  0  0  0  0  0  0
  1  2  1  0  0  0  0 
  1  3  2  0  0  0  0 
  1  4  1  0  0  0  0 
  4  5  1  0  0  0  0 
  4  6  2  0  0  0  0 
  7  5  1  0  0  0  0 
  5  8  1  0  0  0  0 
  6  9  1  0  0  0  0 
  6 10  1  0  0  0  0 
 11  7  1  0  0  0  0 
  7 12  1  0  0  0  0 
  7 33  1  0  0  0  0 
 11  8  1  0  0  0  0 
  8 13  2  0  0  0  0 
  9 14  1  0  0  0  0 
 10 12  1  0  0  0  0 
 11 15  1  0  0  0  0 
 14 16  1  0  0  0  0 
 15 17  1  0  0  0  0 
 16 18  2  0  0  0  0 
 16 19  1  0  0  0  0 
 17 20  1  0  0  0  0 
 17 21  2  0  0  0  0 
 18 22  1  0  0  0  0 
 19 23  1  0  0  0  0 
 20 24  2  0  0  0  0 
 20 25  1  0  0  0  0 
 22 23  2  0  0  0  0 
 24 26  1  0  0  0  0 
 25 27  2  0  0  0  0 
 25 28  1  0  0  0  0 
 26 29  1  0  0  0  0 
 27 30  1  0  0  0  0 
 28 31  2  0  0  0  0 
 30 31  1  0  0  0  0 
 31 32  1  0  0  0  0 
  2 34  1  0  0  0  0 
  9 35  1  0  0  0  0 
  9 36  1  0  0  0  0 
 10 37  1  0  0  0  0 
 10 38  1  0  0  0  0 
 11 39  1  0  0  0  0 
 15 40  1  0  0  0  0 
 18 41  1  0  0  0  0 
 27 42  1  0  0  0  0 
 29 43  1  0  0  0  0 
 29 44  1  0  0  0  0 
 29 45  1  0  0  0  0 
 32 46  1  0  0  0  0 
 32 47  1  0  0  0  0 
M  END
> <cdk:Title>
cefuzonam

> <Conformer>
1

> <SuperDrugID>
SD002672

$$$$
