gliquidone
  CDK     0628171801

 70 73  0  0  0  0  0  0  0  0999 V2000
    6.6760   -0.6308   -3.1132 C   0  0  2  0  0  0  0  0  0  0  0  0
    6.8691   -1.7508   -2.1152 C   0  0  0  0  0  0  0  0  0  0  0  0
    7.0066    0.7235   -2.5401 C   0  0  0  0  0  0  0  0  0  0  0  0
    7.2692   -1.4847   -0.7765 C   0  0  0  0  0  0  0  0  0  0  0  0
    6.6479   -3.1050   -2.4907 C   0  0  0  0  0  0  0  0  0  0  0  0
    6.9430    1.7079   -3.3217 O   0  0  0  0  0  0  0  0  0  0  0  0
    7.3408    0.9398   -1.2111 N   0  0  0  0  0  0  0  0  0  0  0  0
    7.4675   -0.1405   -0.3525 C   0  0  0  0  0  0  0  0  0  0  0  0
    7.4621   -2.5653    0.1239 C   0  0  0  0  0  0  0  0  0  0  0  0
    6.8434   -4.1623   -1.5883 C   0  0  0  0  0  0  0  0  0  0  0  0
    7.5463    2.3084   -0.7288 C   0  0  1  0  0  0  0  0  0  0  0  0
    7.7617    0.0509    0.8542 O   0  0  0  0  0  0  0  0  0  0  0  0
    7.2476   -3.8958   -0.2716 C   0  0  0  0  0  0  0  0  0  0  0  0
    6.3065    3.2542   -0.8175 C   0  0  1  0  0  0  0  0  0  0  0  0
    7.4614   -4.9189    0.6111 O   0  0  0  0  0  0  0  0  0  0  0  0
    4.9752    2.5888   -0.7252 C   0  0  0  0  0  0  0  0  0  0  0  0
    6.2841   -5.2860    1.3515 C   0  0  0  0  0  0  0  0  0  0  0  0
    4.5944    1.8548    0.4256 C   0  0  0  0  0  0  0  0  0  0  0  0
    4.0472    2.7024   -1.7879 C   0  0  0  0  0  0  0  0  0  0  0  0
    3.3162    1.2708    0.5199 C   0  0  0  0  0  0  0  0  0  0  0  0
    2.7686    2.1299   -1.6912 C   0  0  0  0  0  0  0  0  0  0  0  0
    2.3900    1.4284   -0.5305 C   0  0  0  0  0  0  0  0  0  0  0  0
    0.7469    0.7874   -0.3917 S   0  0  2  0  0  0  0  0  0  0  0  0
    0.7459   -0.9251   -0.5228 N   0  0  0  0  0  0  0  0  0  0  0  0
   -0.1855    1.3820   -1.5568 O   0  0  0  0  0  0  0  0  0  0  0  0
    0.1105    1.2002    1.0230 O   0  0  0  0  0  0  0  0  0  0  0  0
   -0.3998   -1.6491   -0.5287 C   0  0  0  0  0  0  0  0  0  0  0  0
   -0.3309   -2.9906   -0.7482 N   0  0  0  0  0  0  0  0  0  0  0  0
   -1.5111   -1.0881   -0.3651 O   0  0  0  0  0  0  0  0  0  0  0  0
   -1.4745   -3.8317   -0.9574 C   0  0  2  0  0  0  0  0  0  0  0  0
   -1.0431   -5.3248   -0.9009 C   0  0  1  0  0  0  0  0  0  0  0  0
   -2.0824   -3.5394   -2.3991 C   0  0  2  0  0  0  0  0  0  0  0  0
   -2.2272   -6.2834   -1.2052 C   0  0  2  0  0  0  0  0  0  0  0  0
   -3.3508   -4.4958   -2.6930 C   0  0  2  0  0  0  0  0  0  0  0  0
   -2.9003   -5.9751   -2.5700 C   0  0  2  0  0  0  0  0  0  0  0  0
    5.1700   -0.5924   -3.5439 C   0  0  0  0  0  0  0  0  0  0  0  0
    7.6061   -0.8639   -4.3549 C   0  0  0  0  0  0  0  0  0  0  0  0
    6.3397   -3.3459   -3.4353 H   0  0  0  0  0  0  0  0  0  0  0  0
    7.7653   -2.3990    1.0870 H   0  0  0  0  0  0  0  0  0  0  0  0
    6.6884   -5.1264   -1.8916 H   0  0  0  0  0  0  0  0  0  0  0  0
    7.8820    2.3421    0.3106 H   0  0  0  0  0  0  0  0  0  0  0  0
    8.3667    2.7515   -1.3018 H   0  0  0  0  0  0  0  0  0  0  0  0
    6.3603    3.9943   -0.0141 H   0  0  0  0  0  0  0  0  0  0  0  0
    6.3823    3.8238   -1.7498 H   0  0  0  0  0  0  0  0  0  0  0  0
    6.5444   -6.1186    2.0053 H   0  0  0  0  0  0  0  0  0  0  0  0
    5.9277   -4.4621    1.9754 H   0  0  0  0  0  0  0  0  0  0  0  0
    5.4811   -5.6149    0.6875 H   0  0  0  0  0  0  0  0  0  0  0  0
    5.2421    1.7452    1.2099 H   0  0  0  0  0  0  0  0  0  0  0  0
    4.2879    3.2146   -2.6415 H   0  0  0  0  0  0  0  0  0  0  0  0
    3.0647    0.7439    1.3615 H   0  0  0  0  0  0  0  0  0  0  0  0
    2.1158    2.2395   -2.4707 H   0  0  0  0  0  0  0  0  0  0  0  0
    1.5951   -1.3855   -0.6321 H   0  0  0  0  0  0  0  0  0  0  0  0
    0.5494   -3.3977   -0.8076 H   0  0  0  0  0  0  0  0  0  0  0  0
   -2.1553   -3.6755   -0.0735 H   0  0  0  0  0  0  0  0  0  0  0  0
   -0.2395   -5.5113   -1.6228 H   0  0  0  0  0  0  0  0  0  0  0  0
   -0.6569   -5.5523    0.0975 H   0  0  0  0  0  0  0  0  0  0  0  0
   -1.3220   -3.6870   -3.1733 H   0  0  0  0  0  0  0  0  0  0  0  0
   -2.4305   -2.5076   -2.4563 H   0  0  0  0  0  0  0  0  0  0  0  0
   -2.9727   -6.2029   -0.4087 H   0  0  0  0  0  0  0  0  0  0  0  0
   -1.8614   -7.3140   -1.2155 H   0  0  0  0  0  0  0  0  0  0  0  0
   -3.8057   -4.3903   -3.7156 H   0  0  0  0  0  0  0  0  0  0  0  0
   -4.2214   -4.3716   -1.9922 H   0  0  0  0  0  0  0  0  0  0  0  0
   -3.7724   -6.6250   -2.6896 H   0  0  0  0  0  0  0  0  0  0  0  0
   -2.2024   -6.2077   -3.3799 H   0  0  0  0  0  0  0  0  0  0  0  0
    4.5238   -0.4528   -2.6738 H   0  0  0  0  0  0  0  0  0  0  0  0
    4.8660   -1.5166   -4.0379 H   0  0  0  0  0  0  0  0  0  0  0  0
    4.9764    0.2271   -4.2399 H   0  0  0  0  0  0  0  0  0  0  0  0
    8.6539   -0.8939   -4.0476 H   0  0  0  0  0  0  0  0  0  0  0  0
    7.3821   -1.8022   -4.8637 H   0  0  0  0  0  0  0  0  0  0  0  0
    7.4911   -0.0662   -5.0936 H   0  0  0  0  0  0  0  0  0  0  0  0
  1  2  1  0  0  0  0 
  1  3  1  0  0  0  0 
  2  4  2  0  0  0  0 
  2  5  1  0  0  0  0 
  3  6  2  0  0  0  0 
  3  7  1  0  0  0  0 
  4  8  1  0  0  0  0 
  4  9  1  0  0  0  0 
  5 10  2  0  0  0  0 
  7  8  1  0  0  0  0 
  7 11  1  0  0  0  0 
  8 12  2  0  0  0  0 
  9 13  2  0  0  0  0 
 10 13  1  0  0  0  0 
 11 14  1  0  0  0  0 
 13 15  1  0  0  0  0 
 14 16  1  0  0  0  0 
 15 17  1  0  0  0  0 
 16 18  2  0  0  0  0 
 16 19  1  0  0  0  0 
 18 20  1  0  0  0  0 
 19 21  2  0  0  0  0 
 20 22  2  0  0  0  0 
 21 22  1  0  0  0  0 
 22 23  1  0  0  0  0 
 23 24  1  0  0  0  0 
 23 25  2  0  0  0  0 
 23 26  2  0  0  0  0 
 24 27  1  0  0  0  0 
 27 28  1  0  0  0  0 
 27 29  2  0  0  0  0 
 28 30  1  0  0  0  0 
 30 31  1  0  0  0  0 
 30 32  1  0  0  0  0 
 31 33  1  0  0  0  0 
 32 34  1  0  0  0  0 
 33 35  1  0  0  0  0 
 34 35  1  0  0  0  0 
  1 36  1  0  0  0  0 
  1 37  1  0  0  0  0 
  5 38  1  0  0  0  0 
  9 39  1  0  0  0  0 
 10 40  1  0  0  0  0 
 11 41  1  0  0  0  0 
 11 42  1  0  0  0  0 
 14 43  1  0  0  0  0 
 14 44  1  0  0  0  0 
 17 45  1  0  0  0  0 
 17 46  1  0  0  0  0 
 17 47  1  0  0  0  0 
 18 48  1  0  0  0  0 
 19 49  1  0  0  0  0 
 20 50  1  0  0  0  0 
 21 51  1  0  0  0  0 
 24 52  1  0  0  0  0 
 28 53  1  0  0  0  0 
 30 54  1  0  0  0  0 
 31 55  1  0  0  0  0 
 31 56  1  0  0  0  0 
 32 57  1  0  0  0  0 
 32 58  1  0  0  0  0 
 33 59  1  0  0  0  0 
 33 60  1  0  0  0  0 
 34 61  1  0  0  0  0 
 34 62  1  0  0  0  0 
 35 63  1  0  0  0  0 
 35 64  1  0  0  0  0 
 36 65  1  0  0  0  0 
 36 66  1  0  0  0  0 
 36 67  1  0  0  0  0 
 37 68  1  0  0  0  0 
 37 69  1  0  0  0  0 
 37 70  1  0  0  0  0 
M  END
> <cdk:Title>
gliquidone

> <Conformer>
1

> <SuperDrugID>
SD001158

$$$$
