lomerizine
  CDK     0628171801

 64 67  0  0  0  0  0  0  0  0999 V2000
    2.1516    4.0042   -0.2081 C   0  0  1  0  0  0  0  0  0  0  0  0
    1.5056    3.5919   -1.5140 N   0  0  1  0  0  0  0  0  0  0  0  0
    2.1763    5.4907    0.0210 C   0  0  0  0  0  0  0  0  0  0  0  0
    1.5598    3.3396    1.0041 C   0  0  0  0  0  0  0  0  0  0  0  0
    2.1462    4.2090   -2.7256 C   0  0  2  0  0  0  0  0  0  0  0  0
    1.3796    2.1077   -1.7264 C   0  0  1  0  0  0  0  0  0  0  0  0
    3.3335    6.1084    0.5583 C   0  0  0  0  0  0  0  0  0  0  0  0
    1.0761    6.3217   -0.3128 C   0  0  0  0  0  0  0  0  0  0  0  0
    0.2097    3.5401    1.3877 C   0  0  0  0  0  0  0  0  0  0  0  0
    2.3433    2.4511    1.7815 C   0  0  0  0  0  0  0  0  0  0  0  0
    1.2895    3.9366   -3.9825 C   0  0  2  0  0  0  0  0  0  0  0  0
    0.5812    1.7817   -3.0177 C   0  0  2  0  0  0  0  0  0  0  0  0
    3.3996    7.5025    0.7356 C   0  0  0  0  0  0  0  0  0  0  0  0
    1.1380    7.7157   -0.1337 C   0  0  0  0  0  0  0  0  0  0  0  0
   -0.3347    2.8767    2.5042 C   0  0  0  0  0  0  0  0  0  0  0  0
    1.7989    1.7768    2.8890 C   0  0  0  0  0  0  0  0  0  0  0  0
    1.1492    2.4645   -4.2239 N   0  0  1  0  0  0  0  0  0  0  0  0
    2.3029    8.3085    0.3860 C   0  0  0  0  0  0  0  0  0  0  0  0
    0.4572    1.9856    3.2497 C   0  0  0  0  0  0  0  0  0  0  0  0
    0.4183    2.1147   -5.4880 C   0  0  2  0  0  0  0  0  0  0  0  0
    2.3684    9.6031    0.5396 F   0  0  0  0  0  0  0  0  0  0  0  0
   -0.0501    1.3505    4.2696 F   0  0  0  0  0  0  0  0  0  0  0  0
    1.1122    2.6117   -6.7156 C   0  0  0  0  0  0  0  0  0  0  0  0
    2.2302    1.9368   -7.2757 C   0  0  0  0  0  0  0  0  0  0  0  0
    0.6822    3.8199   -7.3131 C   0  0  0  0  0  0  0  0  0  0  0  0
    2.6310    0.7210   -6.7814 O   0  0  0  0  0  0  0  0  0  0  0  0
    2.9571    2.5248   -8.3399 C   0  0  0  0  0  0  0  0  0  0  0  0
    1.3828    4.3817   -8.3915 C   0  0  0  0  0  0  0  0  0  0  0  0
    2.1521   -0.3871   -7.5715 C   0  0  0  0  0  0  0  0  0  0  0  0
    4.0669    1.9012   -8.8465 O   0  0  0  0  0  0  0  0  0  0  0  0
    2.5241    3.7420   -8.9083 C   0  0  0  0  0  0  0  0  0  0  0  0
    5.2877    2.2912   -8.1950 C   0  0  0  0  0  0  0  0  0  0  0  0
    3.2378    4.3288   -9.9212 O   0  0  0  0  0  0  0  0  0  0  0  0
    2.7066    4.0745  -11.2318 C   0  0  0  0  0  0  0  0  0  0  0  0
    3.1950    3.6789   -0.3017 H   0  0  0  0  0  0  0  0  0  0  0  0
    3.1567    3.8094   -2.8806 H   0  0  0  0  0  0  0  0  0  0  0  0
    2.2306    5.2939   -2.6270 H   0  0  0  0  0  0  0  0  0  0  0  0
    2.3708    1.6411   -1.7848 H   0  0  0  0  0  0  0  0  0  0  0  0
    0.8413    1.6402   -0.8965 H   0  0  0  0  0  0  0  0  0  0  0  0
    4.1450    5.5435    0.8209 H   0  0  0  0  0  0  0  0  0  0  0  0
    0.2220    5.9196   -0.7059 H   0  0  0  0  0  0  0  0  0  0  0  0
   -0.3964    4.1668    0.8560 H   0  0  0  0  0  0  0  0  0  0  0  0
    3.3223    2.2765    1.5420 H   0  0  0  0  0  0  0  0  0  0  0  0
    1.7973    4.4182   -4.8214 H   0  0  0  0  0  0  0  0  0  0  0  0
    0.3082    4.4078   -3.8580 H   0  0  0  0  0  0  0  0  0  0  0  0
   -0.4617    2.0804   -2.8647 H   0  0  0  0  0  0  0  0  0  0  0  0
    0.6038    0.6973   -3.1623 H   0  0  0  0  0  0  0  0  0  0  0  0
    4.2506    7.9235    1.1144 H   0  0  0  0  0  0  0  0  0  0  0  0
    0.3350    8.2987   -0.3867 H   0  0  0  0  0  0  0  0  0  0  0  0
   -1.3100    3.0412    2.7683 H   0  0  0  0  0  0  0  0  0  0  0  0
    2.3839    1.1314    3.4268 H   0  0  0  0  0  0  0  0  0  0  0  0
   -0.6034    2.5074   -5.4432 H   0  0  0  0  0  0  0  0  0  0  0  0
    0.3189    1.0292   -5.5662 H   0  0  0  0  0  0  0  0  0  0  0  0
   -0.1353    4.3150   -6.9516 H   0  0  0  0  0  0  0  0  0  0  0  0
    1.0660    5.2657   -8.7940 H   0  0  0  0  0  0  0  0  0  0  0  0
    2.5246   -1.3085   -7.1244 H   0  0  0  0  0  0  0  0  0  0  0  0
    1.0602   -0.4321   -7.5842 H   0  0  0  0  0  0  0  0  0  0  0  0
    2.5189   -0.3396   -8.5997 H   0  0  0  0  0  0  0  0  0  0  0  0
    6.1137    1.7719   -8.6822 H   0  0  0  0  0  0  0  0  0  0  0  0
    5.4633    3.3656   -8.2856 H   0  0  0  0  0  0  0  0  0  0  0  0
    5.2829    2.0085   -7.1398 H   0  0  0  0  0  0  0  0  0  0  0  0
    3.3266    4.6084  -11.9510 H   0  0  0  0  0  0  0  0  0  0  0  0
    2.7392    3.0105  -11.4745 H   0  0  0  0  0  0  0  0  0  0  0  0
    1.6829    4.4417  -11.3284 H   0  0  0  0  0  0  0  0  0  0  0  0
  1  2  1  0  0  0  0 
  1  3  1  0  0  0  0 
  1  4  1  0  0  0  0 
  2  5  1  0  0  0  0 
  2  6  1  0  0  0  0 
  3  7  2  0  0  0  0 
  3  8  1  0  0  0  0 
  4  9  2  0  0  0  0 
  4 10  1  0  0  0  0 
  5 11  1  0  0  0  0 
  6 12  1  0  0  0  0 
  7 13  1  0  0  0  0 
  8 14  2  0  0  0  0 
  9 15  1  0  0  0  0 
 10 16  2  0  0  0  0 
 11 17  1  0  0  0  0 
 12 17  1  0  0  0  0 
 13 18  2  0  0  0  0 
 14 18  1  0  0  0  0 
 15 19  2  0  0  0  0 
 16 19  1  0  0  0  0 
 17 20  1  0  0  0  0 
 18 21  1  0  0  0  0 
 19 22  1  0  0  0  0 
 20 23  1  0  0  0  0 
 23 24  2  0  0  0  0 
 23 25  1  0  0  0  0 
 24 26  1  0  0  0  0 
 24 27  1  0  0  0  0 
 25 28  2  0  0  0  0 
 26 29  1  0  0  0  0 
 27 30  1  0  0  0  0 
 27 31  2  0  0  0  0 
 28 31  1  0  0  0  0 
 30 32  1  0  0  0  0 
 31 33  1  0  0  0  0 
 33 34  1  0  0  0  0 
  1 35  1  0  0  0  0 
  5 36  1  0  0  0  0 
  5 37  1  0  0  0  0 
  6 38  1  0  0  0  0 
  6 39  1  0  0  0  0 
  7 40  1  0  0  0  0 
  8 41  1  0  0  0  0 
  9 42  1  0  0  0  0 
 10 43  1  0  0  0  0 
 11 44  1  0  0  0  0 
 11 45  1  0  0  0  0 
 12 46  1  0  0  0  0 
 12 47  1  0  0  0  0 
 13 48  1  0  0  0  0 
 14 49  1  0  0  0  0 
 15 50  1  0  0  0  0 
 16 51  1  0  0  0  0 
 20 52  1  0  0  0  0 
 20 53  1  0  0  0  0 
 25 54  1  0  0  0  0 
 28 55  1  0  0  0  0 
 29 56  1  0  0  0  0 
 29 57  1  0  0  0  0 
 29 58  1  0  0  0  0 
 32 59  1  0  0  0  0 
 32 60  1  0  0  0  0 
 32 61  1  0  0  0  0 
 34 62  1  0  0  0  0 
 34 63  1  0  0  0  0 
 34 64  1  0  0  0  0 
M  END
> <cdk:Title>
lomerizine

> <Conformer>
1

> <SuperDrugID>
SD001409

$$$$
