ziconotide
  CDK     0628171801

349352  0  0  0  0  0  0  0  0999 V2000
  -16.3187   -2.3123    1.1972 N   0  0  2  0  0  0  0  0  0  0  0  0
  -12.8208   -2.6239    1.8297 N   0  0  0  0  0  0  0  0  0  0  0  0
  -10.3731   -3.4832    0.0886 N   0  0  0  0  0  0  0  0  0  0  0  0
   -9.4649   -4.4788   -3.0207 N   0  0  0  0  0  0  0  0  0  0  0  0
  -10.2489   -3.5024   -6.0518 N   0  0  0  0  0  0  0  0  0  0  0  0
   -9.6101   -0.7835   -7.1197 N   0  0  0  0  0  0  0  0  0  0  0  0
   -6.2472    0.0726   -8.3963 N   0  0  0  0  0  0  0  0  0  0  0  0
   -3.2981    0.3546   -7.0898 N   0  0  0  0  0  0  0  0  0  0  0  0
   -3.3418    0.9196   -3.7655 N   0  0  0  0  0  0  0  0  0  0  0  0
   -3.4564    1.0715   -0.3467 N   0  0  0  0  0  0  0  0  0  0  0  0
   -3.0734    1.1033    3.0310 N   0  0  0  0  0  0  0  0  0  0  0  0
   -3.5834    0.7928    6.3541 N   0  0  0  0  0  0  0  0  0  0  0  0
   -4.6649   -0.7065    8.8322 N   0  0  0  0  0  0  0  0  0  0  0  0
   -6.0297   -2.4551    6.0779 N   0  0  0  0  0  0  0  0  0  0  0  0
   -8.0088   -4.6013    4.1941 N   0  0  0  0  0  0  0  0  0  0  0  0
  -10.3329   -6.0757    2.0335 N   0  0  0  0  0  0  0  0  0  0  0  0
  -12.6200   -5.4131   -0.0498 N   0  0  0  0  0  0  0  0  0  0  0  0
  -12.1839   -2.9502   -2.2305 N   0  0  0  0  0  0  0  0  0  0  0  0
   -9.6808   -1.2296   -2.5875 N   0  0  0  0  0  0  0  0  0  0  0  0
   -6.7422   -2.6064   -3.1450 N   0  0  0  0  0  0  0  0  0  0  0  0
   -3.6957   -3.7142   -1.3558 N   0  0  0  0  0  0  0  0  0  0  0  0
   -2.3634   -6.1205   -1.1445 N   0  0  0  0  0  0  0  0  0  0  0  0
   -0.2820   -8.3015    0.5727 N   0  0  0  0  0  0  0  0  0  0  0  0
    1.8730   -6.7417    1.8889 N   0  0  0  0  0  0  0  0  0  0  0  0
   -0.2061   -6.0382    3.5224 N   0  0  0  0  0  0  0  0  0  0  0  0
   -1.0723   -6.3761    6.6906 N   0  0  0  0  0  0  0  0  0  0  0  0
  -14.0152   -1.9332    1.8492 C   0  0  0  0  0  0  0  0  0  0  0  0
  -15.2151   -5.2254    1.6445 S   0  0  0  0  0  0  0  0  0  0  0  0
  -15.3888   -3.9094    2.8835 C   0  0  1  0  0  0  0  0  0  0  0  0
  -15.3358   -2.4771    2.2812 C   0  0  2  0  0  0  0  0  0  0  0  0
  -14.0196   -0.7158    1.5405 O   0  0  0  0  0  0  0  0  0  0  0  0
  -10.3516   -2.7852    1.2638 C   0  0  0  0  0  0  0  0  0  0  0  0
  -12.3164   -2.3872    5.3766 C   0  0  2  0  0  0  0  0  0  0  0  0
  -11.1585   -2.4275    4.3445 C   0  0  2  0  0  0  0  0  0  0  0  0
  -11.2712   -1.3687    3.1948 C   0  0  1  0  0  0  0  0  0  0  0  0
  -11.5213   -1.9836    1.7712 C   0  0  2  0  0  0  0  0  0  0  0  0
  -11.0999   -3.6558    7.1686 N   0  0  2  0  0  0  0  0  0  0  0  0
  -12.3231   -3.5855    6.3603 C   0  0  1  0  0  0  0  0  0  0  0  0
   -9.2616   -2.7365    1.8834 O   0  0  0  0  0  0  0  0  0  0  0  0
   -9.5093   -4.9349   -1.7250 C   0  0  0  0  0  0  0  0  0  0  0  0
   -9.2227   -4.0401   -0.5781 C   0  0  2  0  0  0  0  0  0  0  0  0
   -9.7381   -6.1320   -1.4446 O   0  0  0  0  0  0  0  0  0  0  0  0
  -10.6846   -4.3001   -5.0362 C   0  0  0  0  0  0  0  0  0  0  0  0
  -11.8464   -8.1718   -5.5188 C   0  0  2  0  0  0  0  0  0  0  0  0
  -10.5252   -7.3524   -5.5668 C   0  0  2  0  0  0  0  0  0  0  0  0
  -10.2111   -6.6469   -4.2083 C   0  0  1  0  0  0  0  0  0  0  0  0
   -9.7338   -5.1557   -4.2745 C   0  0  2  0  0  0  0  0  0  0  0  0
  -13.5231   -9.4889   -6.7776 N   0  0  2  0  0  0  0  0  0  0  0  0
  -12.2012   -8.8556   -6.8590 C   0  0  1  0  0  0  0  0  0  0  0  0
  -11.9047   -4.3366   -4.7522 O   0  0  0  0  0  0  0  0  0  0  0  0
  -10.2739   -1.8122   -7.7237 C   0  0  0  0  0  0  0  0  0  0  0  0
  -11.0949   -2.7236   -6.9050 C   0  0  2  0  0  0  0  0  0  0  0  0
  -10.1719   -2.0202   -8.9568 O   0  0  0  0  0  0  0  0  0  0  0  0
   -7.3562   -0.6217   -8.0005 C   0  0  0  0  0  0  0  0  0  0  0  0
   -8.4653    1.3480   -6.8756 C   0  0  0  0  0  0  0  0  0  0  0  0
   -8.6468    0.0806   -7.7496 C   0  0  2  0  0  0  0  0  0  0  0  0
   -7.3032   -1.8711   -7.8946 O   0  0  0  0  0  0  0  0  0  0  0  0
   -3.8637    0.3370   -8.3349 C   0  0  0  0  0  0  0  0  0  0  0  0
   -4.0997   -2.4123  -12.1170 C   0  0  1  0  0  0  0  0  0  0  0  0
   -3.7939   -1.5376  -10.8723 C   0  0  2  0  0  0  0  0  0  0  0  0
   -5.0528   -0.8071  -10.3182 C   0  0  2  0  0  0  0  0  0  0  0  0
   -4.9985   -0.5155   -8.7862 C   0  0  2  0  0  0  0  0  0  0  0  0
   -3.1941   -4.1066  -13.6864 N   0  0  1  0  0  0  0  0  0  0  0  0
   -2.8423   -3.1494  -12.6342 C   0  0  1  0  0  0  0  0  0  0  0  0
   -3.3395    1.1348   -9.1465 O   0  0  0  0  0  0  0  0  0  0  0  0
   -2.8180    0.1946   -4.8023 C   0  0  0  0  0  0  0  0  0  0  0  0
   -5.1188   -2.8029   -5.8135 S   0  0  0  0  0  0  0  0  0  0  0  0
   -3.5320   -1.9157   -5.9721 C   0  0  2  0  0  0  0  0  0  0  0  0
   -3.6772   -0.3518   -5.8936 C   0  0  2  0  0  0  0  0  0  0  0  0
   -1.5847   -0.0367   -4.8486 O   0  0  0  0  0  0  0  0  0  0  0  0
   -3.5228    1.7578   -1.5296 C   0  0  0  0  0  0  0  0  0  0  0  0
   -1.7072    2.6379   -3.0254 C   0  0  1  0  0  0  0  0  0  0  0  0
   -0.9580    3.1112   -1.9075 O   0  0  0  0  0  0  0  0  0  0  0  0
   -2.5955    1.4201   -2.6420 C   0  0  2  0  0  0  0  0  0  0  0  0
   -4.3327    2.7030   -1.6861 O   0  0  0  0  0  0  0  0  0  0  0  0
   -3.6577    0.5145    1.9452 C   0  0  0  0  0  0  0  0  0  0  0  0
   -5.7454    1.0475    0.6512 C   0  0  1  0  0  0  0  0  0  0  0  0
   -6.6533    1.6400    1.7659 C   0  0  2  0  0  0  0  0  0  0  0  0
   -8.1470    1.2662    1.5588 C   0  0  1  0  0  0  0  0  0  0  0  0
   -8.9880    1.8118    2.5282 N   0  0  0  0  0  0  0  0  0  0  0  0
   -9.4049    3.0182    2.6736 C   0  0  0  0  0  0  0  0  0  0  0  0
  -10.1970    3.2767    3.6892 N   0  0  0  0  0  0  0  0  0  0  0  0
   -9.0945    4.0065    1.8573 N   0  0  0  0  0  0  0  0  0  0  0  0
   -4.2238    1.3349    0.8411 C   0  0  2  0  0  0  0  0  0  0  0  0
   -3.7291   -0.7351    1.8592 O   0  0  0  0  0  0  0  0  0  0  0  0
   -2.7311    1.2218    5.3700 C   0  0  0  0  0  0  0  0  0  0  0  0
    1.3657   -0.4048    4.7882 C   0  0  0  0  0  0  0  0  0  0  0  0
   -0.9807    0.1481    3.8957 C   0  0  2  0  0  0  0  0  0  0  0  0
   -2.5016    0.4073    4.1523 C   0  0  2  0  0  0  0  0  0  0  0  0
   -0.5890   -1.9584    5.3538 C   0  0  0  0  0  0  0  0  0  0  0  0
   -0.1627   -0.4928    5.0673 C   0  0  1  0  0  0  0  0  0  0  0  0
   -2.1012    2.3020    5.4831 O   0  0  0  0  0  0  0  0  0  0  0  0
   -4.3156    0.6089    8.7326 C   0  0  0  0  0  0  0  0  0  0  0  0
   -6.0507    2.6052    7.0132 C   0  0  1  0  0  0  0  0  0  0  0  0
   -4.5732    2.7734    7.4451 C   0  0  2  0  0  0  0  0  0  0  0  0
   -3.7645    1.4439    7.6208 C   0  0  2  0  0  0  0  0  0  0  0  0
   -8.5795    3.9345    7.4045 C   0  0  0  0  0  0  0  0  0  0  0  0
   -6.8500    4.2444    6.9417 S   0  0  0  0  0  0  0  0  0  0  0  0
   -4.4888    1.1957    9.8263 O   0  0  0  0  0  0  0  0  0  0  0  0
   -5.8930   -2.1240    7.3946 C   0  0  0  0  0  0  0  0  0  0  0  0
   -3.9485   -3.0304    8.7940 C   0  0  1  0  0  0  0  0  0  0  0  0
   -4.5725   -4.3723    8.5970 C   0  0  0  0  0  0  0  0  0  0  0  0
   -4.1055   -5.2559    7.6001 C   0  0  0  0  0  0  0  0  0  0  0  0
   -4.6985   -6.5206    7.4215 C   0  0  0  0  0  0  0  0  0  0  0  0
   -5.7951   -6.9074    8.2150 C   0  0  0  0  0  0  0  0  0  0  0  0
   -6.3984   -8.1097    8.0347 O   0  0  0  0  0  0  0  0  0  0  0  0
   -6.2735   -6.0325    9.2073 C   0  0  0  0  0  0  0  0  0  0  0  0
   -5.6640   -4.7798    9.4004 C   0  0  0  0  0  0  0  0  0  0  0  0
   -4.5477   -1.8413    7.9590 C   0  0  2  0  0  0  0  0  0  0  0  0
   -6.8914   -2.0773    8.1521 O   0  0  0  0  0  0  0  0  0  0  0  0
   -7.1888   -3.4990    4.2327 C   0  0  0  0  0  0  0  0  0  0  0  0
   -7.6135   -1.0869    4.8642 C   0  0  1  0  0  0  0  0  0  0  0  0
   -8.3755   -0.2300    5.7985 C   0  0  0  0  0  0  0  0  0  0  0  0
   -8.5592    1.0720    5.5045 O   0  0  0  0  0  0  0  0  0  0  0  0
   -8.9013   -0.6558    6.8519 O   0  0  0  0  0  0  0  0  0  0  0  0
   -7.2724   -2.5333    5.3631 C   0  0  2  0  0  0  0  0  0  0  0  0
   -6.3950   -3.2497    3.2950 O   0  0  0  0  0  0  0  0  0  0  0  0
   -9.4883   -6.1779    3.1182 C   0  0  0  0  0  0  0  0  0  0  0  0
   -5.4701   -6.1526    2.3992 S   0  0  0  0  0  0  0  0  0  0  0  0
   -7.0360   -6.6642    3.1719 C   0  0  2  0  0  0  0  0  0  0  0  0
   -8.1299   -5.5560    3.1188 C   0  0  2  0  0  0  0  0  0  0  0  0
   -9.8189   -6.8577    4.1186 O   0  0  0  0  0  0  0  0  0  0  0  0
  -12.0825   -6.5773    0.4432 C   0  0  0  0  0  0  0  0  0  0  0  0
  -14.3604   -6.8152    2.7158 S   0  0  0  0  0  0  0  0  0  0  0  0
  -12.6360   -6.2732    2.9444 C   0  0  1  0  0  0  0  0  0  0  0  0
  -11.6128   -6.7269    1.8612 C   0  0  2  0  0  0  0  0  0  0  0  0
  -11.9512   -7.5698   -0.3123 O   0  0  0  0  0  0  0  0  0  0  0  0
  -13.1385   -3.6453   -1.5421 C   0  0  0  0  0  0  0  0  0  0  0  0
  -14.2534   -7.2547   -1.7630 O   0  0  0  0  0  0  0  0  0  0  0  0
  -13.0451   -5.1277   -1.4031 C   0  0  2  0  0  0  0  0  0  0  0  0
  -14.8142   -5.4996   -3.2937 C   0  0  0  0  0  0  0  0  0  0  0  0
  -14.3691   -5.8357   -1.8474 C   0  0  1  0  0  0  0  0  0  0  0  0
  -14.0924   -3.0352   -1.0036 O   0  0  0  0  0  0  0  0  0  0  0  0
  -10.9264   -1.0999   -3.1346 C   0  0  0  0  0  0  0  0  0  0  0  0
  -12.1355   -1.5305   -2.3894 C   0  0  2  0  0  0  0  0  0  0  0  0
  -11.0742   -0.5814   -4.2660 O   0  0  0  0  0  0  0  0  0  0  0  0
   -7.3369   -1.5555   -2.5196 C   0  0  0  0  0  0  0  0  0  0  0  0
   -8.2407    0.7308   -3.0239 C   0  0  2  0  0  0  0  0  0  0  0  0
   -6.9596    1.1308   -3.5151 O   0  0  0  0  0  0  0  0  0  0  0  0
   -8.4379   -0.8023   -3.1787 C   0  0  2  0  0  0  0  0  0  0  0  0
   -7.0031   -1.2658   -1.3461 O   0  0  0  0  0  0  0  0  0  0  0  0
   -4.4758   -2.9806   -2.1955 C   0  0  0  0  0  0  0  0  0  0  0  0
   -4.5759   -4.6255   -4.9277 S   0  0  0  0  0  0  0  0  0  0  0  0
   -5.6612   -4.7846   -3.4646 C   0  0  2  0  0  0  0  0  0  0  0  0
   -5.8133   -3.5300   -2.5447 C   0  0  2  0  0  0  0  0  0  0  0  0
   -4.0632   -1.9306   -2.7362 O   0  0  0  0  0  0  0  0  0  0  0  0
   -1.8902   -4.9637   -0.5963 C   0  0  0  0  0  0  0  0  0  0  0  0
   -1.7520   -2.3792   -0.5202 C   0  0  1  0  0  0  0  0  0  0  0  0
   -0.1999   -2.2454   -0.4472 C   0  0  2  0  0  0  0  0  0  0  0  0
    0.2898   -0.7956   -0.2154 C   0  0  1  0  0  0  0  0  0  0  0  0
    1.6746   -0.7916   -0.0399 N   0  0  0  0  0  0  0  0  0  0  0  0
    2.4704    0.2073    0.1015 C   0  0  0  0  0  0  0  0  0  0  0  0
    2.0694    1.4656    0.0945 N   0  0  0  0  0  0  0  0  0  0  0  0
    3.7514   -0.0467    0.2523 N   0  0  0  0  0  0  0  0  0  0  0  0
   -2.2646   -3.6723   -1.2332 C   0  0  2  0  0  0  0  0  0  0  0  0
   -1.1835   -5.0021    0.4364 O   0  0  0  0  0  0  0  0  0  0  0  0
   -0.8721   -7.9338   -0.5984 C   0  0  0  0  0  0  0  0  0  0  0  0
   -3.2509   -8.3742   -1.3221 C   0  0  2  0  0  0  0  0  0  0  0  0
   -3.2900   -9.6625   -0.7169 O   0  0  0  0  0  0  0  0  0  0  0  0
   -2.2689   -7.4315   -0.5777 C   0  0  2  0  0  0  0  0  0  0  0  0
   -0.2623   -8.0009   -1.6920 O   0  0  0  0  0  0  0  0  0  0  0  0
    1.6341   -8.0830    1.9302 C   0  0  0  0  0  0  0  0  0  0  0  0
    1.0632   -8.7507    0.7471 C   0  0  2  0  0  0  0  0  0  0  0  0
    1.8486   -8.7516    2.9697 O   0  0  0  0  0  0  0  0  0  0  0  0
    1.0478   -5.6306    3.8753 C   0  0  0  0  0  0  0  0  0  0  0  0
    5.0776   -3.5290    1.5908 C   0  0  1  0  0  0  0  0  0  0  0  0
    4.3865   -4.8437    2.0455 C   0  0  2  0  0  0  0  0  0  0  0  0
    2.9210   -4.6176    2.5143 C   0  0  2  0  0  0  0  0  0  0  0  0
    2.2299   -5.9241    3.0166 C   0  0  2  0  0  0  0  0  0  0  0  0
    7.2052   -2.4098    0.9863 N   0  0  1  0  0  0  0  0  0  0  0  0
    6.6073   -3.6805    1.4100 C   0  0  1  0  0  0  0  0  0  0  0  0
    1.2343   -5.0228    4.9570 O   0  0  0  0  0  0  0  0  0  0  0  0
   -1.3431   -6.8233    5.4510 C   0  0  0  0  0  0  0  0  0  0  0  0
   -4.2315   -5.7030    4.0374 S   0  0  0  0  0  0  0  0  0  0  0  0
   -2.6045   -6.1334    3.3528 C   0  0  2  0  0  0  0  0  0  0  0  0
   -1.3986   -5.8889    4.2992 C   0  0  2  0  0  0  0  0  0  0  0  0
   -1.4950   -8.0565    5.2950 O   0  0  0  0  0  0  0  0  0  0  0  0
  -17.2354   -2.5732    1.5696 H   0  0  0  0  0  0  0  0  0  0  0  0
  -16.0924   -2.9894    0.4656 H   0  0  0  0  0  0  0  0  0  0  0  0
  -12.8469   -3.5796    1.9686 H   0  0  0  0  0  0  0  0  0  0  0  0
  -11.2217   -3.5583   -0.3548 H   0  0  0  0  0  0  0  0  0  0  0  0
   -9.2147   -3.5464   -3.1104 H   0  0  0  0  0  0  0  0  0  0  0  0
   -9.2952   -3.4854   -6.2313 H   0  0  0  0  0  0  0  0  0  0  0  0
   -9.7684   -0.6539   -6.1716 H   0  0  0  0  0  0  0  0  0  0  0  0
   -6.3214    1.0380   -8.4558 H   0  0  0  0  0  0  0  0  0  0  0  0
   -2.5352    0.9499   -6.9994 H   0  0  0  0  0  0  0  0  0  0  0  0
   -4.2932    1.1095   -3.7924 H   0  0  0  0  0  0  0  0  0  0  0  0
   -2.8106    0.3499   -0.2978 H   0  0  0  0  0  0  0  0  0  0  0  0
   -3.0240    2.0756    3.0374 H   0  0  0  0  0  0  0  0  0  0  0  0
   -4.1097    0.0012    6.1703 H   0  0  0  0  0  0  0  0  0  0  0  0
   -5.0632   -0.9303    9.6898 H   0  0  0  0  0  0  0  0  0  0  0  0
   -5.2169   -2.5793    5.5647 H   0  0  0  0  0  0  0  0  0  0  0  0
   -8.5729   -4.7432    4.9704 H   0  0  0  0  0  0  0  0  0  0  0  0
  -10.0270   -5.5284    1.2971 H   0  0  0  0  0  0  0  0  0  0  0  0
  -12.7162   -4.6912    0.5877 H   0  0  0  0  0  0  0  0  0  0  0  0
  -11.4657   -3.4623   -2.6285 H   0  0  0  0  0  0  0  0  0  0  0  0
   -9.6387   -1.6349   -1.7059 H   0  0  0  0  0  0  0  0  0  0  0  0
   -7.0063   -2.7742   -4.0627 H   0  0  0  0  0  0  0  0  0  0  0  0
   -4.1534   -4.4103   -0.8550 H   0  0  0  0  0  0  0  0  0  0  0  0
   -2.8428   -6.0419   -1.9846 H   0  0  0  0  0  0  0  0  0  0  0  0
   -0.8309   -8.2520    1.3719 H   0  0  0  0  0  0  0  0  0  0  0  0
    1.7245   -6.2893    1.0432 H   0  0  0  0  0  0  0  0  0  0  0  0
   -0.2950   -6.4968    2.6726 H   0  0  0  0  0  0  0  0  0  0  0  0
   -0.9174   -5.4299    6.8430 H   0  0  0  0  0  0  0  0  0  0  0  0
   -1.0279   -6.9981    7.4337 H   0  0  0  0  0  0  0  0  0  0  0  0
  -16.3541   -4.0653    3.3734 H   0  0  0  0  0  0  0  0  0  0  0  0
  -14.6218   -4.0103    3.6489 H   0  0  0  0  0  0  0  0  0  0  0  0
  -15.6691   -1.8192    3.0897 H   0  0  0  0  0  0  0  0  0  0  0  0
  -13.2699   -2.3739    4.8514 H   0  0  0  0  0  0  0  0  0  0  0  0
  -12.2381   -1.4605    5.9469 H   0  0  0  0  0  0  0  0  0  0  0  0
  -11.0843   -3.4333    3.9247 H   0  0  0  0  0  0  0  0  0  0  0  0
  -10.2308   -2.2556    4.8876 H   0  0  0  0  0  0  0  0  0  0  0  0
  -12.0629   -0.6473    3.4250 H   0  0  0  0  0  0  0  0  0  0  0  0
  -10.3591   -0.7666    3.1615 H   0  0  0  0  0  0  0  0  0  0  0  0
  -11.5791   -1.1506    1.0643 H   0  0  0  0  0  0  0  0  0  0  0  0
  -10.3314   -3.8705    6.5285 H   0  0  0  0  0  0  0  0  0  0  0  0
  -11.1947   -4.4683    7.7860 H   0  0  0  0  0  0  0  0  0  0  0  0
  -13.1753   -3.4880    7.0336 H   0  0  0  0  0  0  0  0  0  0  0  0
  -12.4337   -4.5234    5.8130 H   0  0  0  0  0  0  0  0  0  0  0  0
   -8.5993   -4.5979    0.1136 H   0  0  0  0  0  0  0  0  0  0  0  0
   -8.6151   -3.2134   -0.9114 H   0  0  0  0  0  0  0  0  0  0  0  0
  -12.6667   -7.5009   -5.2513 H   0  0  0  0  0  0  0  0  0  0  0  0
  -11.7701   -8.9364   -4.7404 H   0  0  0  0  0  0  0  0  0  0  0  0
  -10.6037   -6.6208   -6.3736 H   0  0  0  0  0  0  0  0  0  0  0  0
   -9.6995   -8.0238   -5.8210 H   0  0  0  0  0  0  0  0  0  0  0  0
  -11.0978   -6.6817   -3.5782 H   0  0  0  0  0  0  0  0  0  0  0  0
   -9.4428   -7.2364   -3.7017 H   0  0  0  0  0  0  0  0  0  0  0  0
   -8.7850   -5.1603   -4.8141 H   0  0  0  0  0  0  0  0  0  0  0  0
  -13.4639  -10.2277   -6.0733 H   0  0  0  0  0  0  0  0  0  0  0  0
  -13.6939   -9.9457   -7.6760 H   0  0  0  0  0  0  0  0  0  0  0  0
  -12.2272   -8.1151   -7.6611 H   0  0  0  0  0  0  0  0  0  0  0  0
  -11.4568   -9.6166   -7.1030 H   0  0  0  0  0  0  0  0  0  0  0  0
  -11.8095   -2.1343   -6.3255 H   0  0  0  0  0  0  0  0  0  0  0  0
  -11.6616   -3.4036   -7.5467 H   0  0  0  0  0  0  0  0  0  0  0  0
   -7.9092    2.1117   -7.4242 H   0  0  0  0  0  0  0  0  0  0  0  0
   -7.9178    1.1090   -5.9648 H   0  0  0  0  0  0  0  0  0  0  0  0
   -9.4358    1.7699   -6.6036 H   0  0  0  0  0  0  0  0  0  0  0  0
   -9.0436    0.4128   -8.7144 H   0  0  0  0  0  0  0  0  0  0  0  0
   -4.8553   -3.1570  -11.8492 H   0  0  0  0  0  0  0  0  0  0  0  0
   -4.5066   -1.7855  -12.9161 H   0  0  0  0  0  0  0  0  0  0  0  0
   -3.0368   -0.7924  -11.1315 H   0  0  0  0  0  0  0  0  0  0  0  0
   -3.3719   -2.1842  -10.0978 H   0  0  0  0  0  0  0  0  0  0  0  0
   -5.9320   -1.4332  -10.4992 H   0  0  0  0  0  0  0  0  0  0  0  0
   -5.2026    0.1247  -10.8730 H   0  0  0  0  0  0  0  0  0  0  0  0
   -4.8796   -1.4880   -8.3178 H   0  0  0  0  0  0  0  0  0  0  0  0
   -2.3342   -4.6025  -13.9297 H   0  0  0  0  0  0  0  0  0  0  0  0
   -3.8186   -4.7955  -13.2610 H   0  0  0  0  0  0  0  0  0  0  0  0
   -2.1269   -2.4300  -13.0376 H   0  0  0  0  0  0  0  0  0  0  0  0
   -2.3672   -3.7005  -11.8197 H   0  0  0  0  0  0  0  0  0  0  0  0
   -3.0778   -2.2139   -6.9186 H   0  0  0  0  0  0  0  0  0  0  0  0
   -2.8790   -2.2969   -5.1840 H   0  0  0  0  0  0  0  0  0  0  0  0
   -4.7153   -0.0790   -5.6775 H   0  0  0  0  0  0  0  0  0  0  0  0
   -2.3249    3.4555   -3.4034 H   0  0  0  0  0  0  0  0  0  0  0  0
   -0.9949    2.3659   -3.8075 H   0  0  0  0  0  0  0  0  0  0  0  0
   -0.4512    3.8802   -2.2472 H   0  0  0  0  0  0  0  0  0  0  0  0
   -1.9249    0.6277   -2.3012 H   0  0  0  0  0  0  0  0  0  0  0  0
   -5.8975   -0.0317    0.5904 H   0  0  0  0  0  0  0  0  0  0  0  0
   -6.0783    1.4689   -0.2982 H   0  0  0  0  0  0  0  0  0  0  0  0
   -6.5478    2.7287    1.7686 H   0  0  0  0  0  0  0  0  0  0  0  0
   -6.3279    1.2624    2.7385 H   0  0  0  0  0  0  0  0  0  0  0  0
   -8.4850    1.5765    0.5665 H   0  0  0  0  0  0  0  0  0  0  0  0
   -8.2450    0.1799    1.6260 H   0  0  0  0  0  0  0  0  0  0  0  0
  -10.4378    2.5722    4.3108 H   0  0  0  0  0  0  0  0  0  0  0  0
  -10.5428    4.1733    3.8232 H   0  0  0  0  0  0  0  0  0  0  0  0
   -8.5173    3.8450    1.0947 H   0  0  0  0  0  0  0  0  0  0  0  0
   -9.4455    4.8981    2.0137 H   0  0  0  0  0  0  0  0  0  0  0  0
   -4.0980    2.3935    1.0839 H   0  0  0  0  0  0  0  0  0  0  0  0
    1.6739    0.6358    4.6545 H   0  0  0  0  0  0  0  0  0  0  0  0
    1.6335   -0.9641    3.8885 H   0  0  0  0  0  0  0  0  0  0  0  0
    1.9274   -0.8120    5.6318 H   0  0  0  0  0  0  0  0  0  0  0  0
   -0.5210    1.1044    3.6307 H   0  0  0  0  0  0  0  0  0  0  0  0
   -0.8837   -0.4979    3.0217 H   0  0  0  0  0  0  0  0  0  0  0  0
   -3.0005   -0.5593    4.2800 H   0  0  0  0  0  0  0  0  0  0  0  0
   -0.4296   -2.5809    4.4713 H   0  0  0  0  0  0  0  0  0  0  0  0
   -1.6420   -2.0113    5.6345 H   0  0  0  0  0  0  0  0  0  0  0  0
   -0.0029   -2.3663    6.1801 H   0  0  0  0  0  0  0  0  0  0  0  0
   -0.3394    0.0826    5.9806 H   0  0  0  0  0  0  0  0  0  0  0  0
   -6.1075    2.1438    6.0247 H   0  0  0  0  0  0  0  0  0  0  0  0
   -6.5773    1.9731    7.7314 H   0  0  0  0  0  0  0  0  0  0  0  0
   -4.5518    3.3277    8.3879 H   0  0  0  0  0  0  0  0  0  0  0  0
   -4.0760    3.4070    6.7096 H   0  0  0  0  0  0  0  0  0  0  0  0
   -2.7672    1.7259    7.9766 H   0  0  0  0  0  0  0  0  0  0  0  0
   -9.0892    4.8900    7.5260 H   0  0  0  0  0  0  0  0  0  0  0  0
   -8.6155    3.3861    8.3460 H   0  0  0  0  0  0  0  0  0  0  0  0
   -9.0795    3.3631    6.6256 H   0  0  0  0  0  0  0  0  0  0  0  0
   -3.9853   -2.8061    9.8645 H   0  0  0  0  0  0  0  0  0  0  0  0
   -2.8811   -3.0987    8.5695 H   0  0  0  0  0  0  0  0  0  0  0  0
   -3.3305   -4.9794    6.9963 H   0  0  0  0  0  0  0  0  0  0  0  0
   -4.3346   -7.1596    6.7116 H   0  0  0  0  0  0  0  0  0  0  0  0
   -5.9315   -8.5323    7.2850 H   0  0  0  0  0  0  0  0  0  0  0  0
   -7.0660   -6.3052    9.7926 H   0  0  0  0  0  0  0  0  0  0  0  0
   -6.0278   -4.1613   10.1291 H   0  0  0  0  0  0  0  0  0  0  0  0
   -3.8545   -1.6378    7.1416 H   0  0  0  0  0  0  0  0  0  0  0  0
   -8.2020   -1.1312    3.9514 H   0  0  0  0  0  0  0  0  0  0  0  0
   -6.6888   -0.5615    4.6054 H   0  0  0  0  0  0  0  0  0  0  0  0
   -8.1682    1.4584    4.6941 H   0  0  0  0  0  0  0  0  0  0  0  0
   -8.0626   -2.8944    6.0285 H   0  0  0  0  0  0  0  0  0  0  0  0
   -6.8653   -6.9839    4.2021 H   0  0  0  0  0  0  0  0  0  0  0  0
   -7.3609   -7.5396    2.6029 H   0  0  0  0  0  0  0  0  0  0  0  0
   -8.0138   -5.0225    2.1803 H   0  0  0  0  0  0  0  0  0  0  0  0
  -12.6047   -5.1929    3.0487 H   0  0  0  0  0  0  0  0  0  0  0  0
  -12.3396   -6.6922    3.9056 H   0  0  0  0  0  0  0  0  0  0  0  0
  -11.4337   -7.7952    2.0340 H   0  0  0  0  0  0  0  0  0  0  0  0
  -15.1478   -7.5957   -1.9801 H   0  0  0  0  0  0  0  0  0  0  0  0
  -12.2605   -5.4749   -2.0697 H   0  0  0  0  0  0  0  0  0  0  0  0
  -15.7326   -6.0362   -3.5388 H   0  0  0  0  0  0  0  0  0  0  0  0
  -15.0111   -4.4311   -3.4009 H   0  0  0  0  0  0  0  0  0  0  0  0
  -14.0433   -5.7887   -4.0077 H   0  0  0  0  0  0  0  0  0  0  0  0
  -15.1785   -5.5388   -1.1816 H   0  0  0  0  0  0  0  0  0  0  0  0
  -12.1298   -1.0434   -1.4117 H   0  0  0  0  0  0  0  0  0  0  0  0
  -13.0360   -1.2094   -2.9197 H   0  0  0  0  0  0  0  0  0  0  0  0
   -9.0126    1.2702   -3.5784 H   0  0  0  0  0  0  0  0  0  0  0  0
   -8.3192    1.0120   -1.9699 H   0  0  0  0  0  0  0  0  0  0  0  0
   -6.8739    2.0850   -3.2895 H   0  0  0  0  0  0  0  0  0  0  0  0
   -8.4449   -1.0483   -4.2489 H   0  0  0  0  0  0  0  0  0  0  0  0
   -5.2614   -5.6110   -2.8710 H   0  0  0  0  0  0  0  0  0  0  0  0
   -6.6423   -5.1035   -3.8138 H   0  0  0  0  0  0  0  0  0  0  0  0
   -6.2773   -3.8776   -1.6165 H   0  0  0  0  0  0  0  0  0  0  0  0
   -2.1612   -2.3405    0.4931 H   0  0  0  0  0  0  0  0  0  0  0  0
   -2.1432   -1.5199   -1.0672 H   0  0  0  0  0  0  0  0  0  0  0  0
    0.2488   -2.6048   -1.3769 H   0  0  0  0  0  0  0  0  0  0  0  0
    0.1787   -2.8687    0.3658 H   0  0  0  0  0  0  0  0  0  0  0  0
    0.0277   -0.1898   -1.0845 H   0  0  0  0  0  0  0  0  0  0  0  0
   -0.1984   -0.3766    0.6660 H   0  0  0  0  0  0  0  0  0  0  0  0
    2.7178    2.1839    0.1805 H   0  0  0  0  0  0  0  0  0  0  0  0
    1.1281    1.6817    0.0041 H   0  0  0  0  0  0  0  0  0  0  0  0
    4.3863    0.6838    0.3321 H   0  0  0  0  0  0  0  0  0  0  0  0
    4.0706   -0.9626    0.2810 H   0  0  0  0  0  0  0  0  0  0  0  0
   -1.8439   -3.6967   -2.2429 H   0  0  0  0  0  0  0  0  0  0  0  0
   -4.2616   -7.9591   -1.2838 H   0  0  0  0  0  0  0  0  0  0  0  0
   -2.9667   -8.4846   -2.3709 H   0  0  0  0  0  0  0  0  0  0  0  0
   -3.9537  -10.1634   -1.2380 H   0  0  0  0  0  0  0  0  0  0  0  0
   -2.6263   -7.3695    0.4542 H   0  0  0  0  0  0  0  0  0  0  0  0
    1.6935   -8.5467   -0.1215 H   0  0  0  0  0  0  0  0  0  0  0  0
    1.0366   -9.8315    0.9007 H   0  0  0  0  0  0  0  0  0  0  0  0
    4.6335   -3.2045    0.6462 H   0  0  0  0  0  0  0  0  0  0  0  0
    4.8995   -2.7481    2.3355 H   0  0  0  0  0  0  0  0  0  0  0  0
    4.9529   -5.2742    2.8762 H   0  0  0  0  0  0  0  0  0  0  0  0
    4.4011   -5.5609    1.2204 H   0  0  0  0  0  0  0  0  0  0  0  0
    2.3371   -4.1832    1.6967 H   0  0  0  0  0  0  0  0  0  0  0  0
    2.9467   -3.8821    3.3244 H   0  0  0  0  0  0  0  0  0  0  0  0
    2.9454   -6.4687    3.6423 H   0  0  0  0  0  0  0  0  0  0  0  0
    8.2152   -2.5564    0.9326 H   0  0  0  0  0  0  0  0  0  0  0  0
    6.8798   -2.2281    0.0345 H   0  0  0  0  0  0  0  0  0  0  0  0
    7.0668   -3.9730    2.3566 H   0  0  0  0  0  0  0  0  0  0  0  0
    6.8302   -4.4433    0.6612 H   0  0  0  0  0  0  0  0  0  0  0  0
   -2.4923   -5.5015    2.4749 H   0  0  0  0  0  0  0  0  0  0  0  0
   -2.6267   -7.1746    3.0233 H   0  0  0  0  0  0  0  0  0  0  0  0
   -1.4589   -4.8570    4.6557 H   0  0  0  0  0  0  0  0  0  0  0  0
 27  2  1  0  0  0  0 
 32  3  1  0  0  0  0 
 40  4  1  0  0  0  0 
 43  5  1  0  0  0  0 
 51  6  1  0  0  0  0 
 54  7  1  0  0  0  0 
 58  8  1  0  0  0  0 
 66  9  1  0  0  0  0 
 71 10  1  0  0  0  0 
 76 11  1  0  0  0  0 
 86 12  1  0  0  0  0 
 93 13  1  0  0  0  0 
100 14  1  0  0  0  0 
111 15  1  0  0  0  0 
118 16  1  0  0  0  0 
123 17  1  0  0  0  0 
128 18  1  0  0  0  0 
134 19  1  0  0  0  0 
137 20  1  0  0  0  0 
142 21  1  0  0  0  0 
147 22  1  0  0  0  0 
157 23  1  0  0  0  0 
162 24  1  0  0  0  0 
165 25  1  0  0  0  0 
173 26  1  0  0  0  0 
124 28  1  0  0  0  0 
119174  1  0  0  0  0 
143 67  1  0  0  0  0 
 30  1  1  0  0  0  0 
 30 29  1  0  0  0  0 
 29 28  1  0  0  0  0 
 30 27  1  0  0  0  0 
 27 31  2  0  0  0  0 
 37 38  1  0  0  0  0 
 38 33  1  0  0  0  0 
 33 34  1  0  0  0  0 
 34 35  1  0  0  0  0 
 36 35  1  0  0  0  0 
 36  2  1  0  0  0  0 
 36 32  1  0  0  0  0 
 32 39  2  0  0  0  0 
  3 41  1  0  0  0  0 
 41 40  1  0  0  0  0 
 40 42  2  0  0  0  0 
 48 49  1  0  0  0  0 
 49 44  1  0  0  0  0 
 44 45  1  0  0  0  0 
 45 46  1  0  0  0  0 
 47 46  1  0  0  0  0 
 47  4  1  0  0  0  0 
 47 43  1  0  0  0  0 
 43 50  2  0  0  0  0 
  5 52  1  0  0  0  0 
 52 51  1  0  0  0  0 
 51 53  2  0  0  0  0 
 56 55  1  0  0  0  0 
 56  6  1  0  0  0  0 
 56 54  1  0  0  0  0 
 54 57  2  0  0  0  0 
 63 64  1  0  0  0  0 
 64 59  1  0  0  0  0 
 59 60  1  0  0  0  0 
 60 61  1  0  0  0  0 
 62 61  1  0  0  0  0 
 62  7  1  0  0  0  0 
 62 58  1  0  0  0  0 
 58 65  2  0  0  0  0 
 69  8  1  0  0  0  0 
 69 68  1  0  0  0  0 
 68 67  1  0  0  0  0 
 69 66  1  0  0  0  0 
 66 70  2  0  0  0  0 
 74  9  1  0  0  0  0 
 74 72  1  0  0  0  0 
 72 73  1  0  0  0  0 
 74 71  1  0  0  0  0 
 71 75  2  0  0  0  0 
 84 10  1  0  0  0  0 
 84 77  1  0  0  0  0 
 77 78  1  0  0  0  0 
 78 79  1  0  0  0  0 
 79 80  1  0  0  0  0 
 80 81  2  0  0  0  0 
 81 82  1  0  0  0  0 
 81 83  1  0  0  0  0 
 84 76  1  0  0  0  0 
 76 85  2  0  0  0  0 
 90 91  1  0  0  0  0 
 91 87  1  0  0  0  0 
 91 88  1  0  0  0  0 
 89 88  1  0  0  0  0 
 89 11  1  0  0  0  0 
 89 86  1  0  0  0  0 
 86 92  2  0  0  0  0 
 97 98  1  0  0  0  0 
 98 94  1  0  0  0  0 
 94 95  1  0  0  0  0 
 96 95  1  0  0  0  0 
 96 12  1  0  0  0  0 
 96 93  1  0  0  0  0 
 93 99  2  0  0  0  0 
109 13  1  0  0  0  0 
109101  1  0  0  0  0 
101102  1  0  0  0  0 
102103  2  0  0  0  0 
103104  1  0  0  0  0 
104105  2  0  0  0  0 
105106  1  0  0  0  0 
105107  1  0  0  0  0 
107108  2  0  0  0  0 
102108  1  0  0  0  0 
109100  1  0  0  0  0 
100110  2  0  0  0  0 
116 14  1  0  0  0  0 
116112  1  0  0  0  0 
112113  1  0  0  0  0 
113114  1  0  0  0  0 
113115  2  0  0  0  0 
116111  1  0  0  0  0 
111117  2  0  0  0  0 
121 15  1  0  0  0  0 
121120  1  0  0  0  0 
120119  1  0  0  0  0 
121118  1  0  0  0  0 
118122  2  0  0  0  0 
126 16  1  0  0  0  0 
126125  1  0  0  0  0 
125124  1  0  0  0  0 
126123  1  0  0  0  0 
123127  2  0  0  0  0 
132131  1  0  0  0  0 
132129  1  0  0  0  0 
130132  1  0  0  0  0 
130 17  1  0  0  0  0 
130128  1  0  0  0  0 
128133  2  0  0  0  0 
 18135  1  0  0  0  0 
135134  1  0  0  0  0 
134136  2  0  0  0  0 
140 19  1  0  0  0  0 
140138  1  0  0  0  0 
138139  1  0  0  0  0 
140137  1  0  0  0  0 
137141  2  0  0  0  0 
145 20  1  0  0  0  0 
145144  1  0  0  0  0 
144143  1  0  0  0  0 
145142  1  0  0  0  0 
142146  2  0  0  0  0 
155 21  1  0  0  0  0 
155148  1  0  0  0  0 
148149  1  0  0  0  0 
149150  1  0  0  0  0 
150151  1  0  0  0  0 
151152  2  0  0  0  0 
152153  1  0  0  0  0 
152154  1  0  0  0  0 
155147  1  0  0  0  0 
147156  2  0  0  0  0 
160 22  1  0  0  0  0 
160158  1  0  0  0  0 
158159  1  0  0  0  0 
160157  1  0  0  0  0 
157161  2  0  0  0  0 
 23163  1  0  0  0  0 
163162  1  0  0  0  0 
162164  2  0  0  0  0 
170171  1  0  0  0  0 
171166  1  0  0  0  0 
166167  1  0  0  0  0 
167168  1  0  0  0  0 
169168  1  0  0  0  0 
169 24  1  0  0  0  0 
169165  1  0  0  0  0 
165172  2  0  0  0  0 
176 25  1  0  0  0  0 
176175  1  0  0  0  0 
175174  1  0  0  0  0 
176173  1  0  0  0  0 
173177  2  0  0  0  0 
178  1  1  0  0  0  0 
179  1  1  0  0  0  0 
180  2  1  0  0  0  0 
181  3  1  0  0  0  0 
182  4  1  0  0  0  0 
183  5  1  0  0  0  0 
184  6  1  0  0  0  0 
185  7  1  0  0  0  0 
186  8  1  0  0  0  0 
187  9  1  0  0  0  0 
188 10  1  0  0  0  0 
189 11  1  0  0  0  0 
190 12  1  0  0  0  0 
191 13  1  0  0  0  0 
192 14  1  0  0  0  0 
193 15  1  0  0  0  0 
194 16  1  0  0  0  0 
195 17  1  0  0  0  0 
196 18  1  0  0  0  0 
197 19  1  0  0  0  0 
198 20  1  0  0  0  0 
199 21  1  0  0  0  0 
200 22  1  0  0  0  0 
201 23  1  0  0  0  0 
202 24  1  0  0  0  0 
203 25  1  0  0  0  0 
204 26  1  0  0  0  0 
205 26  1  0  0  0  0 
206 29  1  0  0  0  0 
207 29  1  0  0  0  0 
 30208  1  0  0  0  0 
209 33  1  0  0  0  0 
210 33  1  0  0  0  0 
211 34  1  0  0  0  0 
212 34  1  0  0  0  0 
213 35  1  0  0  0  0 
214 35  1  0  0  0  0 
 36215  1  0  0  0  0 
216 37  1  0  0  0  0 
217 37  1  0  0  0  0 
218 38  1  0  0  0  0 
219 38  1  0  0  0  0 
220 41  1  0  0  0  0 
221 41  1  0  0  0  0 
222 44  1  0  0  0  0 
223 44  1  0  0  0  0 
224 45  1  0  0  0  0 
225 45  1  0  0  0  0 
226 46  1  0  0  0  0 
227 46  1  0  0  0  0 
 47228  1  0  0  0  0 
229 48  1  0  0  0  0 
230 48  1  0  0  0  0 
231 49  1  0  0  0  0 
232 49  1  0  0  0  0 
233 52  1  0  0  0  0 
234 52  1  0  0  0  0 
235 55  1  0  0  0  0 
236 55  1  0  0  0  0 
237 55  1  0  0  0  0 
 56238  1  0  0  0  0 
239 59  1  0  0  0  0 
240 59  1  0  0  0  0 
241 60  1  0  0  0  0 
242 60  1  0  0  0  0 
243 61  1  0  0  0  0 
244 61  1  0  0  0  0 
 62245  1  0  0  0  0 
246 63  1  0  0  0  0 
247 63  1  0  0  0  0 
248 64  1  0  0  0  0 
249 64  1  0  0  0  0 
250 68  1  0  0  0  0 
251 68  1  0  0  0  0 
 69252  1  0  0  0  0 
253 72  1  0  0  0  0 
254 72  1  0  0  0  0 
255 73  1  0  0  0  0 
 74256  1  0  0  0  0 
257 77  1  0  0  0  0 
258 77  1  0  0  0  0 
259 78  1  0  0  0  0 
260 78  1  0  0  0  0 
261 79  1  0  0  0  0 
262 79  1  0  0  0  0 
263 82  1  0  0  0  0 
264 82  1  0  0  0  0 
265 83  1  0  0  0  0 
266 83  1  0  0  0  0 
 84267  1  0  0  0  0 
268 87  1  0  0  0  0 
269 87  1  0  0  0  0 
270 87  1  0  0  0  0 
271 88  1  0  0  0  0 
272 88  1  0  0  0  0 
 89273  1  0  0  0  0 
274 90  1  0  0  0  0 
275 90  1  0  0  0  0 
276 90  1  0  0  0  0 
277 91  1  0  0  0  0 
278 94  1  0  0  0  0 
279 94  1  0  0  0  0 
280 95  1  0  0  0  0 
281 95  1  0  0  0  0 
 96282  1  0  0  0  0 
283 97  1  0  0  0  0 
284 97  1  0  0  0  0 
285 97  1  0  0  0  0 
286101  1  0  0  0  0 
287101  1  0  0  0  0 
288103  1  0  0  0  0 
289104  1  0  0  0  0 
290106  1  0  0  0  0 
291107  1  0  0  0  0 
292108  1  0  0  0  0 
109293  1  0  0  0  0 
294112  1  0  0  0  0 
295112  1  0  0  0  0 
296114  1  0  0  0  0 
116297  1  0  0  0  0 
298120  1  0  0  0  0 
299120  1  0  0  0  0 
121300  1  0  0  0  0 
301125  1  0  0  0  0 
302125  1  0  0  0  0 
126303  1  0  0  0  0 
304129  1  0  0  0  0 
130305  1  0  0  0  0 
306131  1  0  0  0  0 
307131  1  0  0  0  0 
308131  1  0  0  0  0 
132309  1  0  0  0  0 
310135  1  0  0  0  0 
311135  1  0  0  0  0 
312138  1  0  0  0  0 
313138  1  0  0  0  0 
314139  1  0  0  0  0 
140315  1  0  0  0  0 
316144  1  0  0  0  0 
317144  1  0  0  0  0 
145318  1  0  0  0  0 
319148  1  0  0  0  0 
320148  1  0  0  0  0 
321149  1  0  0  0  0 
322149  1  0  0  0  0 
323150  1  0  0  0  0 
324150  1  0  0  0  0 
325153  1  0  0  0  0 
326153  1  0  0  0  0 
327154  1  0  0  0  0 
328154  1  0  0  0  0 
155329  1  0  0  0  0 
330158  1  0  0  0  0 
331158  1  0  0  0  0 
332159  1  0  0  0  0 
160333  1  0  0  0  0 
334163  1  0  0  0  0 
335163  1  0  0  0  0 
336166  1  0  0  0  0 
337166  1  0  0  0  0 
338167  1  0  0  0  0 
339167  1  0  0  0  0 
340168  1  0  0  0  0 
341168  1  0  0  0  0 
169342  1  0  0  0  0 
343170  1  0  0  0  0 
344170  1  0  0  0  0 
345171  1  0  0  0  0 
346171  1  0  0  0  0 
347175  1  0  0  0  0 
348175  1  0  0  0  0 
176349  1  0  0  0  0 
M  END
> <cdk:Title>
ziconotide

> <Conformer>
1

> <SuperDrugID>
SD002594

$$$$
