tiamiprine
  CDK     0628171801

 28 30  0  0  0  0  0  0  0  0999 V2000
   -3.2396    2.1215    0.1936 S   0  0  0  0  0  0  0  0  0  0  0  0
   -1.7475    1.9575   -0.7136 C   0  0  0  0  0  0  0  0  0  0  0  0
   -3.1762    3.7354    0.9043 C   0  0  0  0  0  0  0  0  0  0  0  0
   -1.7406    1.9270   -2.1187 C   0  0  0  0  0  0  0  0  0  0  0  0
   -0.5492    1.8669   -0.0692 N   0  0  0  0  0  0  0  0  0  0  0  0
   -2.9255    4.0475    2.2474 C   0  0  0  0  0  0  0  0  0  0  0  0
   -3.4038    4.8933    0.2474 N   0  0  0  0  0  0  0  0  0  0  0  0
   -0.5266    1.8163   -2.7861 C   0  0  0  0  0  0  0  0  0  0  0  0
   -2.6979    1.9949   -3.0503 N   0  0  0  0  0  0  0  0  0  0  0  0
    0.6309    1.7473   -0.7459 C   0  0  0  0  0  0  0  0  0  0  0  0
   -2.6316    3.2297    3.2586 N   0  0  0  0  0  0  0  0  0  0  0  0
   -3.0350    5.3852    2.3661 N   0  0  0  0  0  0  0  0  0  0  0  0
   -3.6696    5.0610   -1.1507 C   0  0  0  0  0  0  0  0  0  0  0  0
   -3.3280    5.8824    1.1559 C   0  0  0  0  0  0  0  0  0  0  0  0
    0.6429    1.7240   -2.1078 N   0  0  0  0  0  0  0  0  0  0  0  0
   -0.7551    1.8243   -4.1077 N   0  0  0  0  0  0  0  0  0  0  0  0
   -2.0905    1.9382   -4.2484 C   0  0  0  0  0  0  0  0  0  0  0  0
    1.7898    1.6590   -0.0756 N   0  0  0  0  0  0  0  0  0  0  0  0
   -2.4433    1.9849    3.1067 O   0  0  0  0  0  0  0  0  0  0  0  0
   -2.5207    3.6367    4.3472 O   0  0  0  0  0  0  0  0  0  0  0  0
   -3.6519    2.0791   -2.8945 H   0  0  0  0  0  0  0  0  0  0  0  0
   -3.8749    6.1030   -1.4111 H   0  0  0  0  0  0  0  0  0  0  0  0
   -4.5336    4.4606   -1.4397 H   0  0  0  0  0  0  0  0  0  0  0  0
   -2.8008    4.7348   -1.7245 H   0  0  0  0  0  0  0  0  0  0  0  0
   -3.4651    6.8775    0.9623 H   0  0  0  0  0  0  0  0  0  0  0  0
   -2.5722    1.9785   -5.1456 H   0  0  0  0  0  0  0  0  0  0  0  0
    1.7977    1.7042    0.8932 H   0  0  0  0  0  0  0  0  0  0  0  0
    2.6240    1.5468   -0.5598 H   0  0  0  0  0  0  0  0  0  0  0  0
  1  2  1  0  0  0  0 
  1  3  1  0  0  0  0 
  2  4  2  0  0  0  0 
  2  5  1  0  0  0  0 
  3  6  2  0  0  0  0 
  3  7  1  0  0  0  0 
  4  8  1  0  0  0  0 
  4  9  1  0  0  0  0 
  5 10  2  0  0  0  0 
  6 11  1  0  0  0  0 
  6 12  1  0  0  0  0 
  7 13  1  0  0  0  0 
  7 14  1  0  0  0  0 
  8 15  2  0  0  0  0 
  8 16  1  0  0  0  0 
  9 17  1  0  0  0  0 
 10 15  1  0  0  0  0 
 10 18  1  0  0  0  0 
 11 19  1  0  0  0  0 
 11 20  2  0  0  0  0 
 12 14  2  0  0  0  0 
 16 17  2  0  0  0  0 
 21  9  1  0  0  0  0 
 22 13  1  0  0  0  0 
 23 13  1  0  0  0  0 
 24 13  1  0  0  0  0 
 25 14  1  0  0  0  0 
 26 17  1  0  0  0  0 
 27 18  1  0  0  0  0 
 28 18  1  0  0  0  0 
M  CHG  1  11   1
M  CHG  1  19  -1
M  END
> <cdk:Title>
tiamiprine

> <Conformer>
1

> <SuperDrugID>
SD003085

$$$$
