melinamide
  CDK     0628171801

 69 69  0  0  0  0  0  0  0  0999 V2000
   -4.7169   -6.6875   -0.7366 N   0  0  0  0  0  0  0  0  0  0  0  0
   -3.4600   -6.1671   -0.8740 C   0  0  0  0  0  0  0  0  0  0  0  0
   -2.9154   -5.2428    0.1451 C   0  0  1  0  0  0  0  0  0  0  0  0
   -2.7659   -6.3951   -1.8933 O   0  0  0  0  0  0  0  0  0  0  0  0
   -1.5277   -5.6511    0.7158 C   0  0  1  0  0  0  0  0  0  0  0  0
   -1.0557   -4.6623    1.8166 C   0  0  2  0  0  0  0  0  0  0  0  0
    0.3458   -4.9882    2.4136 C   0  0  2  0  0  0  0  0  0  0  0  0
    0.5813   -4.1900    3.7254 C   0  0  1  0  0  0  0  0  0  0  0  0
    1.9419   -4.4406    4.4326 C   0  0  2  0  0  0  0  0  0  0  0  0
    1.9760   -3.7236    5.8146 C   0  0  2  0  0  0  0  0  0  0  0  0
    3.1402   -4.0509    6.6201 C   0  0  0  0  0  0  0  0  0  0  0  0
    3.1958   -4.9580    7.6154 C   0  0  0  0  0  0  0  0  0  0  0  0
    2.1214   -5.8355    8.0689 C   0  0  1  0  0  0  0  0  0  0  0  0
    1.6516   -6.7892    7.0690 C   0  0  0  0  0  0  0  0  0  0  0  0
    2.3710   -7.7700    6.4884 C   0  0  0  0  0  0  0  0  0  0  0  0
    3.7695   -8.0825    6.7358 C   0  0  1  0  0  0  0  0  0  0  0  0
    4.6840   -7.5106    5.6161 C   0  0  2  0  0  0  0  0  0  0  0  0
    6.1839   -7.7065    5.9578 C   0  0  1  0  0  0  0  0  0  0  0  0
    7.1286   -7.0234    4.9350 C   0  0  1  0  0  0  0  0  0  0  0  0
    8.6115   -7.1435    5.3508 C   0  0  0  0  0  0  0  0  0  0  0  0
   -5.4566   -7.4073   -1.7425 C   0  0  1  0  0  0  0  0  0  0  0  0
   -5.8863   -8.7901   -1.3460 C   0  0  0  0  0  0  0  0  0  0  0  0
   -6.6679   -6.5087   -2.1151 C   0  0  0  0  0  0  0  0  0  0  0  0
   -6.5507   -9.6089   -2.2970 C   0  0  0  0  0  0  0  0  0  0  0  0
   -5.6474   -9.3389   -0.0601 C   0  0  0  0  0  0  0  0  0  0  0  0
   -6.0547  -10.6495    0.2589 C   0  0  0  0  0  0  0  0  0  0  0  0
   -6.7148  -11.4377   -0.7007 C   0  0  0  0  0  0  0  0  0  0  0  0
   -6.9672  -10.9145   -1.9802 C   0  0  0  0  0  0  0  0  0  0  0  0
   -5.1782   -6.5112    0.0997 H   0  0  0  0  0  0  0  0  0  0  0  0
   -2.8133   -4.2624   -0.3292 H   0  0  0  0  0  0  0  0  0  0  0  0
   -3.6270   -5.1378    0.9710 H   0  0  0  0  0  0  0  0  0  0  0  0
   -1.5900   -6.6564    1.1424 H   0  0  0  0  0  0  0  0  0  0  0  0
   -0.7892   -5.6655   -0.0911 H   0  0  0  0  0  0  0  0  0  0  0  0
   -1.8002   -4.6808    2.6199 H   0  0  0  0  0  0  0  0  0  0  0  0
   -1.0316   -3.6461    1.4081 H   0  0  0  0  0  0  0  0  0  0  0  0
    1.1240   -4.7409    1.6845 H   0  0  0  0  0  0  0  0  0  0  0  0
    0.4129   -6.0579    2.6332 H   0  0  0  0  0  0  0  0  0  0  0  0
    0.4968   -3.1194    3.5125 H   0  0  0  0  0  0  0  0  0  0  0  0
   -0.2154   -4.4662    4.4230 H   0  0  0  0  0  0  0  0  0  0  0  0
    2.7580   -4.0606    3.8094 H   0  0  0  0  0  0  0  0  0  0  0  0
    2.0884   -5.5160    4.5629 H   0  0  0  0  0  0  0  0  0  0  0  0
    1.0626   -3.9432    6.3728 H   0  0  0  0  0  0  0  0  0  0  0  0
    1.9866   -2.6435    5.6419 H   0  0  0  0  0  0  0  0  0  0  0  0
    3.9741   -3.5449    6.4186 H   0  0  0  0  0  0  0  0  0  0  0  0
    4.0652   -5.0456    8.0921 H   0  0  0  0  0  0  0  0  0  0  0  0
    2.4513   -6.3996    8.9459 H   0  0  0  0  0  0  0  0  0  0  0  0
    1.2885   -5.2163    8.4119 H   0  0  0  0  0  0  0  0  0  0  0  0
    0.6999   -6.7034    6.7883 H   0  0  0  0  0  0  0  0  0  0  0  0
    1.9060   -8.3400    5.8182 H   0  0  0  0  0  0  0  0  0  0  0  0
    4.0862   -7.7090    7.7114 H   0  0  0  0  0  0  0  0  0  0  0  0
    3.8790   -9.1691    6.7698 H   0  0  0  0  0  0  0  0  0  0  0  0
    4.5040   -6.3901    5.5698 H   0  0  0  0  0  0  0  0  0  0  0  0
    4.4735   -8.1129    4.6734 H   0  0  0  0  0  0  0  0  0  0  0  0
    6.3832   -7.2822    6.9446 H   0  0  0  0  0  0  0  0  0  0  0  0
    6.4006   -8.7779    5.9945 H   0  0  0  0  0  0  0  0  0  0  0  0
    6.9925   -7.4770    3.9494 H   0  0  0  0  0  0  0  0  0  0  0  0
    6.8774   -5.9615    4.8532 H   0  0  0  0  0  0  0  0  0  0  0  0
    9.2440   -6.6478    4.6142 H   0  0  0  0  0  0  0  0  0  0  0  0
    8.7734   -6.6709    6.3218 H   0  0  0  0  0  0  0  0  0  0  0  0
    8.9067   -8.1918    5.4164 H   0  0  0  0  0  0  0  0  0  0  0  0
   -4.8457   -7.5159   -2.6447 H   0  0  0  0  0  0  0  0  0  0  0  0
   -6.3317   -5.4995   -2.3691 H   0  0  0  0  0  0  0  0  0  0  0  0
   -7.3671   -6.4432   -1.2785 H   0  0  0  0  0  0  0  0  0  0  0  0
   -7.1963   -6.9056   -2.9831 H   0  0  0  0  0  0  0  0  0  0  0  0
   -6.7377   -9.2604   -3.2398 H   0  0  0  0  0  0  0  0  0  0  0  0
   -5.1721   -8.7949    0.6632 H   0  0  0  0  0  0  0  0  0  0  0  0
   -5.8695  -11.0331    1.1893 H   0  0  0  0  0  0  0  0  0  0  0  0
   -7.0095  -12.3889   -0.4684 H   0  0  0  0  0  0  0  0  0  0  0  0
   -7.4502  -11.4822   -2.6827 H   0  0  0  0  0  0  0  0  0  0  0  0
  1  2  1  0  0  0  0 
  2  3  1  0  0  0  0 
  2  4  2  0  0  0  0 
  3  5  1  0  0  0  0 
  5  6  1  0  0  0  0 
  6  7  1  0  0  0  0 
  7  8  1  0  0  0  0 
  8  9  1  0  0  0  0 
  9 10  1  0  0  0  0 
 10 11  1  0  0  0  0 
 11 12  2  0  0  0  0 
 12 13  1  0  0  0  0 
 13 14  1  0  0  0  0 
 14 15  2  0  0  0  0 
 15 16  1  0  0  0  0 
 16 17  1  0  0  0  0 
 17 18  1  0  0  0  0 
 18 19  1  0  0  0  0 
 19 20  1  0  0  0  0 
 21  1  1  0  0  0  0 
 21 22  1  0  0  0  0 
 21 23  1  0  0  0  0 
 25 26  2  0  0  0  0 
 26 27  1  0  0  0  0 
 27 28  2  0  0  0  0 
 24 28  1  0  0  0  0 
 24 22  2  0  0  0  0 
 22 25  1  0  0  0  0 
  1 29  1  0  0  0  0 
  3 30  1  0  0  0  0 
  3 31  1  0  0  0  0 
  5 32  1  0  0  0  0 
  5 33  1  0  0  0  0 
  6 34  1  0  0  0  0 
  6 35  1  0  0  0  0 
  7 36  1  0  0  0  0 
  7 37  1  0  0  0  0 
  8 38  1  0  0  0  0 
  8 39  1  0  0  0  0 
  9 40  1  0  0  0  0 
  9 41  1  0  0  0  0 
 10 42  1  0  0  0  0 
 10 43  1  0  0  0  0 
 11 44  1  0  0  0  0 
 12 45  1  0  0  0  0 
 13 46  1  0  0  0  0 
 13 47  1  0  0  0  0 
 14 48  1  0  0  0  0 
 15 49  1  0  0  0  0 
 16 50  1  0  0  0  0 
 16 51  1  0  0  0  0 
 17 52  1  0  0  0  0 
 17 53  1  0  0  0  0 
 18 54  1  0  0  0  0 
 18 55  1  0  0  0  0 
 19 56  1  0  0  0  0 
 19 57  1  0  0  0  0 
 20 58  1  0  0  0  0 
 20 59  1  0  0  0  0 
 20 60  1  0  0  0  0 
 21 61  1  0  0  0  0 
 23 62  1  0  0  0  0 
 23 63  1  0  0  0  0 
 23 64  1  0  0  0  0 
 24 65  1  0  0  0  0 
 25 66  1  0  0  0  0 
 26 67  1  0  0  0  0 
 27 68  1  0  0  0  0 
 28 69  1  0  0  0  0 
M  END
> <cdk:Title>
melinamide

> <Conformer>
1

> <SuperDrugID>
SD001480

$$$$
