tiocarlide
  CDK     0628171801

 60 61  0  0  0  0  0  0  0  0999 V2000
    1.1726    5.7273   -2.6452 N   0  0  0  0  0  0  0  0  0  0  0  0
    1.6257    5.4443   -1.4222 C   0  0  0  0  0  0  0  0  0  0  0  0
    0.6170    4.8752   -3.5596 C   0  0  0  0  0  0  0  0  0  0  0  0
    1.0819    4.5968   -0.5435 N   0  0  0  0  0  0  0  0  0  0  0  0
    3.0111    6.2865   -0.9086 S   0  0  0  0  0  0  0  0  0  0  0  0
   -0.2228    5.4455   -4.5410 C   0  0  0  0  0  0  0  0  0  0  0  0
    0.8410    3.4778   -3.5868 C   0  0  0  0  0  0  0  0  0  0  0  0
   -0.2388    4.2733   -0.3882 C   0  0  0  0  0  0  0  0  0  0  0  0
   -0.8252    4.6435   -5.5260 C   0  0  0  0  0  0  0  0  0  0  0  0
    0.2583    2.6780   -4.5893 C   0  0  0  0  0  0  0  0  0  0  0  0
   -0.5431    3.1579    0.4211 C   0  0  0  0  0  0  0  0  0  0  0  0
   -1.3110    5.0061   -0.9534 C   0  0  0  0  0  0  0  0  0  0  0  0
   -0.5597    3.2597   -5.5800 C   0  0  0  0  0  0  0  0  0  0  0  0
   -1.8778    2.7673    0.6350 C   0  0  0  0  0  0  0  0  0  0  0  0
   -2.6403    4.5924   -0.7729 C   0  0  0  0  0  0  0  0  0  0  0  0
   -1.0976    2.4727   -6.5674 O   0  0  0  0  0  0  0  0  0  0  0  0
   -2.9358    3.4724    0.0301 C   0  0  0  0  0  0  0  0  0  0  0  0
   -0.4808    2.6624   -7.8600 C   0  0  2  0  0  0  0  0  0  0  0  0
   -4.2174    3.0221    0.2075 O   0  0  0  0  0  0  0  0  0  0  0  0
   -1.0844    1.6813   -8.9007 C   0  0  1  0  0  0  0  0  0  0  0  0
   -5.1048    3.9158    0.9133 C   0  0  2  0  0  0  0  0  0  0  0  0
   -0.7453    2.0026  -10.3948 C   0  0  2  0  0  0  0  0  0  0  0  0
   -6.4778    3.2217    1.1075 C   0  0  2  0  0  0  0  0  0  0  0  0
   -1.5237    1.0641  -11.3608 C   0  0  0  0  0  0  0  0  0  0  0  0
    0.7796    1.9481  -10.6973 C   0  0  0  0  0  0  0  0  0  0  0  0
   -6.4559    1.9019    1.9468 C   0  0  2  0  0  0  0  0  0  0  0  0
   -7.8592    1.2314    1.9518 C   0  0  0  0  0  0  0  0  0  0  0  0
   -5.9744    2.1283    3.4075 C   0  0  0  0  0  0  0  0  0  0  0  0
    1.2388    6.6561   -2.9158 H   0  0  0  0  0  0  0  0  0  0  0  0
    1.6946    4.1869    0.0901 H   0  0  0  0  0  0  0  0  0  0  0  0
   -0.4063    6.4525   -4.5392 H   0  0  0  0  0  0  0  0  0  0  0  0
    1.4401    3.0361   -2.8862 H   0  0  0  0  0  0  0  0  0  0  0  0
   -1.4506    5.0709   -6.2123 H   0  0  0  0  0  0  0  0  0  0  0  0
    0.4361    1.6711   -4.6005 H   0  0  0  0  0  0  0  0  0  0  0  0
    0.2102    2.6222    0.8607 H   0  0  0  0  0  0  0  0  0  0  0  0
   -1.1437    5.8560   -1.4938 H   0  0  0  0  0  0  0  0  0  0  0  0
   -2.0751    1.9613    1.2290 H   0  0  0  0  0  0  0  0  0  0  0  0
   -3.3914    5.1161   -1.2248 H   0  0  0  0  0  0  0  0  0  0  0  0
    0.5957    2.4809   -7.7839 H   0  0  0  0  0  0  0  0  0  0  0  0
   -0.6484    3.6875   -8.2037 H   0  0  0  0  0  0  0  0  0  0  0  0
   -0.7469    0.6694   -8.6601 H   0  0  0  0  0  0  0  0  0  0  0  0
   -2.1717    1.7009   -8.7833 H   0  0  0  0  0  0  0  0  0  0  0  0
   -5.2742    4.8250    0.3294 H   0  0  0  0  0  0  0  0  0  0  0  0
   -4.6879    4.2128    1.8800 H   0  0  0  0  0  0  0  0  0  0  0  0
   -1.0903    3.0200  -10.6069 H   0  0  0  0  0  0  0  0  0  0  0  0
   -6.8667    2.9940    0.1095 H   0  0  0  0  0  0  0  0  0  0  0  0
   -7.1671    3.9341    1.5749 H   0  0  0  0  0  0  0  0  0  0  0  0
   -2.5996    1.1675  -11.2137 H   0  0  0  0  0  0  0  0  0  0  0  0
   -1.2491    0.0205  -11.1986 H   0  0  0  0  0  0  0  0  0  0  0  0
   -1.3059    1.3202  -12.3998 H   0  0  0  0  0  0  0  0  0  0  0  0
    1.2755    2.8312  -10.1878 H   0  0  0  0  0  0  0  0  0  0  0  0
    1.1633    0.9097  -10.4502 H   0  0  0  0  0  0  0  0  0  0  0  0
    0.9380    2.0949  -11.7695 H   0  0  0  0  0  0  0  0  0  0  0  0
   -5.7653    1.1957    1.4719 H   0  0  0  0  0  0  0  0  0  0  0  0
   -7.8320    0.2945    2.5142 H   0  0  0  0  0  0  0  0  0  0  0  0
   -8.6011    1.8908    2.4097 H   0  0  0  0  0  0  0  0  0  0  0  0
   -8.1769    1.0001    0.9330 H   0  0  0  0  0  0  0  0  0  0  0  0
   -6.1223    1.2282    4.0079 H   0  0  0  0  0  0  0  0  0  0  0  0
   -6.5285    2.9460    3.8717 H   0  0  0  0  0  0  0  0  0  0  0  0
   -4.9104    2.3678    3.4276 H   0  0  0  0  0  0  0  0  0  0  0  0
  1  2  1  0  0  0  0 
  1  3  1  0  0  0  0 
  2  4  1  0  0  0  0 
  2  5  2  0  0  0  0 
  3  6  2  0  0  0  0 
  3  7  1  0  0  0  0 
  4  8  1  0  0  0  0 
  6  9  1  0  0  0  0 
  7 10  2  0  0  0  0 
  8 11  2  0  0  0  0 
  8 12  1  0  0  0  0 
  9 13  2  0  0  0  0 
 10 13  1  0  0  0  0 
 11 14  1  0  0  0  0 
 12 15  2  0  0  0  0 
 13 16  1  0  0  0  0 
 14 17  2  0  0  0  0 
 15 17  1  0  0  0  0 
 16 18  1  0  0  0  0 
 17 19  1  0  0  0  0 
 18 20  1  0  0  0  0 
 19 21  1  0  0  0  0 
 20 22  1  0  0  0  0 
 21 23  1  0  0  0  0 
 22 24  1  0  0  0  0 
 22 25  1  0  0  0  0 
 23 26  1  0  0  0  0 
 26 27  1  0  0  0  0 
 26 28  1  0  0  0  0 
 29  1  1  0  0  0  0 
 30  4  1  0  0  0  0 
 31  6  1  0  0  0  0 
 32  7  1  0  0  0  0 
 33  9  1  0  0  0  0 
 34 10  1  0  0  0  0 
 35 11  1  0  0  0  0 
 36 12  1  0  0  0  0 
 37 14  1  0  0  0  0 
 38 15  1  0  0  0  0 
 39 18  1  0  0  0  0 
 40 18  1  0  0  0  0 
 41 20  1  0  0  0  0 
 42 20  1  0  0  0  0 
 43 21  1  0  0  0  0 
 44 21  1  0  0  0  0 
 45 22  1  0  0  0  0 
 46 23  1  0  0  0  0 
 47 23  1  0  0  0  0 
 48 24  1  0  0  0  0 
 49 24  1  0  0  0  0 
 50 24  1  0  0  0  0 
 51 25  1  0  0  0  0 
 52 25  1  0  0  0  0 
 53 25  1  0  0  0  0 
 54 26  1  0  0  0  0 
 55 27  1  0  0  0  0 
 56 27  1  0  0  0  0 
 57 27  1  0  0  0  0 
 58 28  1  0  0  0  0 
 59 28  1  0  0  0  0 
 60 28  1  0  0  0  0 
M  END
> <cdk:Title>
tiocarlide

> <Conformer>
1

> <SuperDrugID>
SD002405

$$$$
