clopidogrel
  CDK     0628171802

 37 39  0  0  0  0  0  0  0  0999 V2000
    0.8927    6.3093    5.5512 C   0  0  1  0  0  0  0  0  0  0  0  0
    0.7712    5.3079    6.6514 C   0  0  0  0  0  0  0  0  0  0  0  0
    1.1019    7.7051    6.0851 N   0  0  2  0  0  0  0  0  0  0  0  0
    1.8263    5.9057    4.4297 C   0  0  0  0  0  0  0  0  0  0  0  0
   -0.4686    4.8948    7.0586 O   0  0  0  0  0  0  0  0  0  0  0  0
    1.7800    4.8509    7.2384 O   0  0  0  0  0  0  0  0  0  0  0  0
    0.7209    8.8151    5.1413 C   0  0  1  0  0  0  0  0  0  0  0  0
    2.3334    8.0127    6.8871 C   0  0  1  0  0  0  0  0  0  0  0  0
    1.4127    5.7919    3.0656 C   0  0  0  0  0  0  0  0  0  0  0  0
    3.1909    5.6349    4.7133 C   0  0  0  0  0  0  0  0  0  0  0  0
   -0.7486    3.9982    8.1403 C   0  0  0  0  0  0  0  0  0  0  0  0
    0.7884   10.1599    5.7659 C   0  0  0  0  0  0  0  0  0  0  0  0
    2.1305    9.2882    7.7502 C   0  0  2  0  0  0  0  0  0  0  0  0
   -0.1597    6.1319    2.5199 Cl  0  0  0  0  0  0  0  0  0  0  0  0
    2.3261    5.3940    2.0639 C   0  0  0  0  0  0  0  0  0  0  0  0
    4.0936    5.2297    3.7153 C   0  0  0  0  0  0  0  0  0  0  0  0
    1.4510   10.3467    6.9873 C   0  0  0  0  0  0  0  0  0  0  0  0
    0.2206   11.3319    5.2182 C   0  0  0  0  0  0  0  0  0  0  0  0
    3.6592    5.1021    2.3893 C   0  0  0  0  0  0  0  0  0  0  0  0
    1.2952   12.0423    7.4110 S   0  0  0  0  0  0  0  0  0  0  0  0
    0.3878   12.4930    5.9799 C   0  0  0  0  0  0  0  0  0  0  0  0
   -0.1213    6.3288    5.1514 H   0  0  0  0  0  0  0  0  0  0  0  0
    1.3771    8.8018    4.2667 H   0  0  0  0  0  0  0  0  0  0  0  0
   -0.3067    8.6560    4.8028 H   0  0  0  0  0  0  0  0  0  0  0  0
    2.5873    7.2004    7.5687 H   0  0  0  0  0  0  0  0  0  0  0  0
    3.1828    8.1654    6.2155 H   0  0  0  0  0  0  0  0  0  0  0  0
    3.5539    5.7260    5.6611 H   0  0  0  0  0  0  0  0  0  0  0  0
   -1.8288    3.8711    8.2253 H   0  0  0  0  0  0  0  0  0  0  0  0
   -0.3673    4.4095    9.0781 H   0  0  0  0  0  0  0  0  0  0  0  0
   -0.2858    3.0260    7.9557 H   0  0  0  0  0  0  0  0  0  0  0  0
    3.1007    9.6518    8.0970 H   0  0  0  0  0  0  0  0  0  0  0  0
    1.5145    9.0563    8.6225 H   0  0  0  0  0  0  0  0  0  0  0  0
    2.0328    5.3133    1.0861 H   0  0  0  0  0  0  0  0  0  0  0  0
    5.0678    5.0321    3.9550 H   0  0  0  0  0  0  0  0  0  0  0  0
   -0.2837   11.3402    4.3300 H   0  0  0  0  0  0  0  0  0  0  0  0
    4.3147    4.8048    1.6623 H   0  0  0  0  0  0  0  0  0  0  0  0
    0.0482   13.4286    5.7521 H   0  0  0  0  0  0  0  0  0  0  0  0
  1  2  1  0  0  0  0 
  1  3  1  0  0  0  0 
  1  4  1  0  0  0  0 
  2  5  1  0  0  0  0 
  2  6  2  0  0  0  0 
  3  7  1  0  0  0  0 
  3  8  1  0  0  0  0 
  4  9  2  0  0  0  0 
  4 10  1  0  0  0  0 
  5 11  1  0  0  0  0 
  7 12  1  0  0  0  0 
  8 13  1  0  0  0  0 
  9 14  1  0  0  0  0 
  9 15  1  0  0  0  0 
 10 16  2  0  0  0  0 
 12 17  2  0  0  0  0 
 12 18  1  0  0  0  0 
 13 17  1  0  0  0  0 
 15 19  2  0  0  0  0 
 16 19  1  0  0  0  0 
 17 20  1  0  0  0  0 
 18 21  2  0  0  0  0 
 20 21  1  0  0  0  0 
  1 22  1  0  0  0  0 
  7 23  1  0  0  0  0 
  7 24  1  0  0  0  0 
  8 25  1  0  0  0  0 
  8 26  1  0  0  0  0 
 10 27  1  0  0  0  0 
 11 28  1  0  0  0  0 
 11 29  1  0  0  0  0 
 11 30  1  0  0  0  0 
 13 31  1  0  0  0  0 
 13 32  1  0  0  0  0 
 15 33  1  0  0  0  0 
 16 34  1  0  0  0  0 
 18 35  1  0  0  0  0 
 19 36  1  0  0  0  0 
 21 37  1  0  0  0  0 
M  END
> <cdk:Title>
clopidogrel

> <Conformer>
1

> <SuperDrugID>
SD000625

$$$$
