xenazoic acid
  Mrv0541 09131710093D              74.31582

 49 51  0  0  0  0            999 V2000
   -5.4295   -2.0432   -0.9494 C   0  0  0  0  0  0  0  0  0  0  0  0
   -4.3924   -3.1819   -0.9580 C   0  0  1  0  0  0  0  0  0  0  0  0
   -3.0691   -2.6323   -0.7664 O   0  0  0  0  0  0  0  0  0  0  0  0
   -1.9856   -3.5855   -0.6820 C   0  0  1  0  0  0  0  0  0  0  0  0
   -0.7489   -2.8673   -0.7738 N   0  0  0  0  0  0  0  0  0  0  0  0
    0.4871   -3.4388   -0.8621 C   0  0  0  0  0  0  0  0  0  0  0  0
    1.4813   -3.0434    0.0571 C   0  0  0  0  0  0  0  0  0  0  0  0
    2.7625   -3.6259    0.0233 C   0  0  0  0  0  0  0  0  0  0  0  0
    3.0921   -4.6055   -0.9435 C   0  0  0  0  0  0  0  0  0  0  0  0
    2.0982   -4.9729   -1.8843 C   0  0  0  0  0  0  0  0  0  0  0  0
    0.8096   -4.4052   -1.8391 C   0  0  0  0  0  0  0  0  0  0  0  0
    4.3847   -5.1956   -0.9565 C   0  0  0  0  0  0  0  0  0  0  0  0
    4.7973   -5.8685   -1.9292 O   0  0  0  0  0  0  0  0  0  0  0  0
    5.2349   -5.0608    0.0946 O   0  0  0  0  0  0  0  0  0  0  0  0
   -2.0297   -4.3409    0.6036 C   0  0  0  0  0  0  0  0  0  0  0  0
   -2.1446   -5.5858    0.4959 O   0  0  0  0  0  0  0  0  0  0  0  0
   -1.9488   -3.7456    1.9061 C   0  0  0  0  0  0  0  0  0  0  0  0
   -1.8715   -2.3430    2.1041 C   0  0  0  0  0  0  0  0  0  0  0  0
   -1.8085   -1.7826    3.3910 C   0  0  0  0  0  0  0  0  0  0  0  0
   -1.8323   -2.6056    4.5391 C   0  0  0  0  0  0  0  0  0  0  0  0
   -1.8931   -4.0055    4.3550 C   0  0  0  0  0  0  0  0  0  0  0  0
   -1.9473   -4.5612    3.0655 C   0  0  0  0  0  0  0  0  0  0  0  0
   -1.8146   -2.0426    5.8471 C   0  0  0  0  0  0  0  0  0  0  0  0
   -2.7517   -2.4611    6.8235 C   0  0  0  0  0  0  0  0  0  0  0  0
   -2.7456   -1.9125    8.1186 C   0  0  0  0  0  0  0  0  0  0  0  0
   -1.8005   -0.9299    8.4583 C   0  0  0  0  0  0  0  0  0  0  0  0
   -0.8682   -0.4920    7.5016 C   0  0  0  0  0  0  0  0  0  0  0  0
   -0.8733   -1.0476    6.2077 C   0  0  0  0  0  0  0  0  0  0  0  0
   -5.4368   -1.5411    0.0211 H   0  0  0  0  0  0  0  0  0  0  0  0
   -6.4239   -2.4521   -1.1433 H   0  0  0  0  0  0  0  0  0  0  0  0
   -5.1930   -1.3093   -1.7221 H   0  0  0  0  0  0  0  0  0  0  0  0
   -4.6523   -3.8885   -0.1640 H   0  0  0  0  0  0  0  0  0  0  0  0
   -4.4476   -3.6989   -1.9193 H   0  0  0  0  0  0  0  0  0  0  0  0
   -2.0557   -4.2648   -1.5382 H   0  0  0  0  0  0  0  0  0  0  0  0
   -0.7889   -1.9039   -0.6656 H   0  0  0  0  0  0  0  0  0  0  0  0
    1.2770   -2.3356    0.7679 H   0  0  0  0  0  0  0  0  0  0  0  0
    3.4576   -3.3194    0.7099 H   0  0  0  0  0  0  0  0  0  0  0  0
    2.2985   -5.6612   -2.6144 H   0  0  0  0  0  0  0  0  0  0  0  0
    0.1138   -4.6912   -2.5334 H   0  0  0  0  0  0  0  0  0  0  0  0
    6.1132   -5.4996    0.0868 H   0  0  0  0  0  0  0  0  0  0  0  0
   -1.8703   -1.6945    1.3163 H   0  0  0  0  0  0  0  0  0  0  0  0
   -1.7649   -0.7633    3.4783 H   0  0  0  0  0  0  0  0  0  0  0  0
   -1.8952   -4.6368    5.1602 H   0  0  0  0  0  0  0  0  0  0  0  0
   -1.9874   -5.5805    2.9900 H   0  0  0  0  0  0  0  0  0  0  0  0
   -3.4560   -3.1661    6.5973 H   0  0  0  0  0  0  0  0  0  0  0  0
   -3.4298   -2.2255    8.8110 H   0  0  0  0  0  0  0  0  0  0  0  0
   -1.7933   -0.5329    9.3997 H   0  0  0  0  0  0  0  0  0  0  0  0
   -0.1872    0.2297    7.7487 H   0  0  0  0  0  0  0  0  0  0  0  0
   -0.1767   -0.7243    5.5324 H   0  0  0  0  0  0  0  0  0  0  0  0
  1  2  1  0  0  0  0
  2  3  1  0  0  0  0
  3  4  1  0  0  0  0
  4  5  1  0  0  0  0
  5  6  1  0  0  0  0
  6  7  2  0  0  0  0
  7  8  1  0  0  0  0
  8  9  2  0  0  0  0
  9 10  1  0  0  0  0
 10 11  2  0  0  0  0
  9 12  1  0  0  0  0
 12 13  2  0  0  0  0
 12 14  1  0  0  0  0
  4 15  1  0  0  0  0
 15 16  2  0  0  0  0
 15 17  1  0  0  0  0
 17 18  2  0  0  0  0
 18 19  1  0  0  0  0
 19 20  2  0  0  0  0
 20 21  1  0  0  0  0
 21 22  2  0  0  0  0
 20 23  1  0  0  0  0
 23 24  2  0  0  0  0
 24 25  1  0  0  0  0
 25 26  2  0  0  0  0
 26 27  1  0  0  0  0
 27 28  2  0  0  0  0
 11  6  1  0  0  0  0
 22 17  1  0  0  0  0
 28 23  1  0  0  0  0
  1 29  1  0  0  0  0
  1 30  1  0  0  0  0
  1 31  1  0  0  0  0
  2 32  1  0  0  0  0
  2 33  1  0  0  0  0
  4 34  1  0  0  0  0
  5 35  1  0  0  0  0
  7 36  1  0  0  0  0
  8 37  1  0  0  0  0
 10 38  1  0  0  0  0
 11 39  1  0  0  0  0
 14 40  1  0  0  0  0
 18 41  1  0  0  0  0
 19 42  1  0  0  0  0
 21 43  1  0  0  0  0
 22 44  1  0  0  0  0
 24 45  1  0  0  0  0
 25 46  1  0  0  0  0
 26 47  1  0  0  0  0
 27 48  1  0  0  0  0
 28 49  1  0  0  0  0
M  END
>  <SuperDrugID>
SD006036

>  <_MOLCOUNT>
1

$$$$
