lornoxicam
  CDK     0628171801

 33 35  0  0  0  0  0  0  0  0999 V2000
    2.2856    5.9108   -2.1497 O   0  0  0  0  0  0  0  0  0  0  0  0
    2.6501    6.4073   -1.0573 C   0  0  0  0  0  0  0  0  0  0  0  0
    3.6748    7.3788   -1.1003 C   0  0  0  0  0  0  0  0  0  0  0  0
    1.9792    6.0306    0.2339 C   0  0  1  0  0  0  0  0  0  0  0  0
    4.3073    7.9604    0.0029 C   0  0  0  0  0  0  0  0  0  0  0  0
    4.4352    8.0885   -2.5147 S   0  0  0  0  0  0  0  0  0  0  0  0
    1.1517    4.7950    0.0882 C   0  0  0  0  0  0  0  0  0  0  0  0
    2.9526    5.9147    1.3819 N   0  0  1  0  0  0  0  0  0  0  0  0
    3.8278    7.4451    1.6138 S   0  0  1  0  0  0  0  0  0  0  0  0
    5.3124    8.9046   -0.2685 C   0  0  0  0  0  0  0  0  0  0  0  0
    5.5394    9.1256   -1.6297 C   0  0  0  0  0  0  0  0  0  0  0  0
    1.7557    3.5825   -0.0993 N   0  0  0  0  0  0  0  0  0  0  0  0
   -0.0931    4.9020    0.1960 O   0  0  0  0  0  0  0  0  0  0  0  0
    2.3953    5.4587    2.6873 C   0  0  0  0  0  0  0  0  0  0  0  0
    5.1104    7.2110    2.5456 O   0  0  0  0  0  0  0  0  0  0  0  0
    2.8545    8.5325    2.2785 O   0  0  0  0  0  0  0  0  0  0  0  0
    6.6605   10.1896   -2.3097 Cl  0  0  0  0  0  0  0  0  0  0  0  0
    1.1678    2.3480   -0.1093 C   0  0  0  0  0  0  0  0  0  0  0  0
    1.9953    1.2038   -0.1315 C   0  0  0  0  0  0  0  0  0  0  0  0
   -0.1825    2.1667   -0.0519 N   0  0  0  0  0  0  0  0  0  0  0  0
    1.4138   -0.0765   -0.0644 C   0  0  0  0  0  0  0  0  0  0  0  0
   -0.7768    0.9465    0.0068 C   0  0  0  0  0  0  0  0  0  0  0  0
    0.0170   -0.2130    0.0083 C   0  0  0  0  0  0  0  0  0  0  0  0
    1.3026    6.8634    0.4656 H   0  0  0  0  0  0  0  0  0  0  0  0
    5.8349    9.3828    0.4696 H   0  0  0  0  0  0  0  0  0  0  0  0
    2.7213    3.5979   -0.1887 H   0  0  0  0  0  0  0  0  0  0  0  0
    1.5923    6.1198    3.0216 H   0  0  0  0  0  0  0  0  0  0  0  0
    3.1758    5.4305    3.4505 H   0  0  0  0  0  0  0  0  0  0  0  0
    2.0029    4.4442    2.6050 H   0  0  0  0  0  0  0  0  0  0  0  0
    3.0133    1.2954   -0.1847 H   0  0  0  0  0  0  0  0  0  0  0  0
    2.0076   -0.9074   -0.0643 H   0  0  0  0  0  0  0  0  0  0  0  0
   -1.7951    0.8771    0.0633 H   0  0  0  0  0  0  0  0  0  0  0  0
   -0.4119   -1.1394    0.0633 H   0  0  0  0  0  0  0  0  0  0  0  0
  1  2  2  0  0  0  0 
  2  3  1  0  0  0  0 
  2  4  1  0  0  0  0 
  3  5  2  0  0  0  0 
  3  6  1  0  0  0  0 
  4  7  1  0  0  0  0 
  4  8  1  0  0  0  0 
  5  9  1  0  0  0  0 
  5 10  1  0  0  0  0 
  6 11  1  0  0  0  0 
  7 12  1  0  0  0  0 
  7 13  2  0  0  0  0 
  8  9  1  0  0  0  0 
  8 14  1  0  0  0  0 
  9 15  2  0  0  0  0 
  9 16  2  0  0  0  0 
 10 11  2  0  0  0  0 
 11 17  1  0  0  0  0 
 12 18  1  0  0  0  0 
 18 19  2  0  0  0  0 
 18 20  1  0  0  0  0 
 19 21  1  0  0  0  0 
 20 22  2  0  0  0  0 
 21 23  2  0  0  0  0 
 22 23  1  0  0  0  0 
 24  4  1  0  0  0  0 
 25 10  1  0  0  0  0 
 26 12  1  0  0  0  0 
 27 14  1  0  0  0  0 
 28 14  1  0  0  0  0 
 29 14  1  0  0  0  0 
 30 19  1  0  0  0  0 
 31 21  1  0  0  0  0 
 32 22  1  0  0  0  0 
 33 23  1  0  0  0  0 
M  END
> <cdk:Title>
lornoxicam

> <Conformer>
1

> <SuperDrugID>
SD001423

$$$$
