enallylpropymal
  CDK     0628171801

 32 32  0  0  0  0  0  0  0  0999 V2000
    1.1011   -1.7934   -2.5721 C   0  0  2  0  0  0  0  0  0  0  0  0
    0.1008   -2.8359   -2.3521 C   0  0  0  0  0  0  0  0  0  0  0  0
    2.2558   -1.7066   -1.4964 C   0  0  1  0  0  0  0  0  0  0  0  0
   -0.0380   -3.9208   -3.1240 C   0  0  0  0  0  0  0  0  0  0  0  0
    1.7386   -1.5850    0.0073 C   0  0  2  0  0  0  0  0  0  0  0  0
    3.1043   -2.9574   -1.6263 C   0  0  0  0  0  0  0  0  0  0  0  0
    3.0760   -0.5023   -1.8610 C   0  0  0  0  0  0  0  0  0  0  0  0
    0.6516   -0.4991    0.2865 C   0  0  0  0  0  0  0  0  0  0  0  0
    2.8899   -1.4320    1.0518 C   0  0  0  0  0  0  0  0  0  0  0  0
    2.5710   -4.0554   -1.3222 O   0  0  0  0  0  0  0  0  0  0  0  0
    4.4295   -2.9571   -2.0414 N   0  0  0  0  0  0  0  0  0  0  0  0
    2.5922    0.6518   -1.8248 O   0  0  0  0  0  0  0  0  0  0  0  0
    4.3584   -0.5845   -2.2742 N   0  0  0  0  0  0  0  0  0  0  0  0
    5.1707   -4.2038   -2.0959 C   0  0  0  0  0  0  0  0  0  0  0  0
    5.0184   -1.7578   -2.3798 C   0  0  0  0  0  0  0  0  0  0  0  0
    6.1978   -1.6735   -2.7940 O   0  0  0  0  0  0  0  0  0  0  0  0
    0.5518   -0.8485   -2.6116 H   0  0  0  0  0  0  0  0  0  0  0  0
    1.5519   -1.9066   -3.5658 H   0  0  0  0  0  0  0  0  0  0  0  0
   -0.5228   -2.7357   -1.5844 H   0  0  0  0  0  0  0  0  0  0  0  0
    0.5541   -4.0747   -3.9047 H   0  0  0  0  0  0  0  0  0  0  0  0
   -0.7378   -4.5957   -2.9196 H   0  0  0  0  0  0  0  0  0  0  0  0
    1.2457   -2.5300    0.2591 H   0  0  0  0  0  0  0  0  0  0  0  0
   -0.1917   -0.5920   -0.3949 H   0  0  0  0  0  0  0  0  0  0  0  0
    0.2556   -0.6174    1.2971 H   0  0  0  0  0  0  0  0  0  0  0  0
    1.0582    0.5076    0.2012 H   0  0  0  0  0  0  0  0  0  0  0  0
    3.6270   -2.2284    0.9434 H   0  0  0  0  0  0  0  0  0  0  0  0
    2.4945   -1.4912    2.0680 H   0  0  0  0  0  0  0  0  0  0  0  0
    3.3999   -0.4744    0.9402 H   0  0  0  0  0  0  0  0  0  0  0  0
    4.8275    0.2337   -2.5041 H   0  0  0  0  0  0  0  0  0  0  0  0
    4.6766   -4.9093   -2.7699 H   0  0  0  0  0  0  0  0  0  0  0  0
    5.2106   -4.6471   -1.0976 H   0  0  0  0  0  0  0  0  0  0  0  0
    6.2013   -4.0946   -2.4394 H   0  0  0  0  0  0  0  0  0  0  0  0
  1  2  1  0  0  0  0 
  1  3  1  0  0  0  0 
  2  4  2  0  0  0  0 
  3  5  1  0  0  0  0 
  3  6  1  0  0  0  0 
  3  7  1  0  0  0  0 
  5  8  1  0  0  0  0 
  5  9  1  0  0  0  0 
  6 10  2  0  0  0  0 
  6 11  1  0  0  0  0 
  7 12  2  0  0  0  0 
  7 13  1  0  0  0  0 
 11 14  1  0  0  0  0 
 11 15  1  0  0  0  0 
 13 15  1  0  0  0  0 
 15 16  2  0  0  0  0 
 17  1  1  0  0  0  0 
 18  1  1  0  0  0  0 
 19  2  1  0  0  0  0 
 20  4  1  0  0  0  0 
 21  4  1  0  0  0  0 
 22  5  1  0  0  0  0 
 23  8  1  0  0  0  0 
 24  8  1  0  0  0  0 
 25  8  1  0  0  0  0 
 26  9  1  0  0  0  0 
 27  9  1  0  0  0  0 
 28  9  1  0  0  0  0 
 29 13  1  0  0  0  0 
 30 14  1  0  0  0  0 
 31 14  1  0  0  0  0 
 32 14  1  0  0  0  0 
M  END
> <cdk:Title>
enallylpropymal

> <Conformer>
1

> <SuperDrugID>
SD002970

$$$$
