octamoxin
  CDK     0628171801

 30 29  0  0  0  0  0  0  0  0999 V2000
    4.9042   -3.6871    6.6921 C   0  0  0  0  0  0  0  0  0  0  0  0
    5.0518   -2.4739    5.7460 C   0  0  2  0  0  0  0  0  0  0  0  0
    4.0526   -2.5254    4.5567 C   0  0  1  0  0  0  0  0  0  0  0  0
    4.1841   -1.3185    3.5896 C   0  0  2  0  0  0  0  0  0  0  0  0
    3.1652   -1.3839    2.4192 C   0  0  1  0  0  0  0  0  0  0  0  0
    3.2655   -0.1634    1.4628 C   0  0  2  0  0  0  0  0  0  0  0  0
    2.2635   -0.2011    0.2679 C   0  0  2  0  0  0  0  0  0  0  0  0
    2.4984    1.0097   -0.6740 C   0  0  0  0  0  0  0  0  0  0  0  0
    0.8741   -0.1981    0.7888 N   0  0  1  0  0  0  0  0  0  0  0  0
   -0.0880   -0.4329   -0.2022 N   0  0  1  0  0  0  0  0  0  0  0  0
    5.0899   -4.6176    6.1519 H   0  0  0  0  0  0  0  0  0  0  0  0
    3.8990   -3.7193    7.1171 H   0  0  0  0  0  0  0  0  0  0  0  0
    5.6243   -3.6109    7.5097 H   0  0  0  0  0  0  0  0  0  0  0  0
    6.0758   -2.4524    5.3624 H   0  0  0  0  0  0  0  0  0  0  0  0
    4.8866   -1.5595    6.3237 H   0  0  0  0  0  0  0  0  0  0  0  0
    4.2222   -3.4481    3.9941 H   0  0  0  0  0  0  0  0  0  0  0  0
    3.0345   -2.5534    4.9567 H   0  0  0  0  0  0  0  0  0  0  0  0
    5.1974   -1.2963    3.1787 H   0  0  0  0  0  0  0  0  0  0  0  0
    4.0220   -0.3939    4.1492 H   0  0  0  0  0  0  0  0  0  0  0  0
    3.3355   -2.2984    1.8449 H   0  0  0  0  0  0  0  0  0  0  0  0
    2.1600   -1.4301    2.8422 H   0  0  0  0  0  0  0  0  0  0  0  0
    4.2840   -0.1237    1.0660 H   0  0  0  0  0  0  0  0  0  0  0  0
    3.0986    0.7529    2.0374 H   0  0  0  0  0  0  0  0  0  0  0  0
    2.4343   -1.1215   -0.3017 H   0  0  0  0  0  0  0  0  0  0  0  0
    1.8501    0.9487   -1.5491 H   0  0  0  0  0  0  0  0  0  0  0  0
    3.5338    1.0326   -1.0179 H   0  0  0  0  0  0  0  0  0  0  0  0
    2.2854    1.9419   -0.1485 H   0  0  0  0  0  0  0  0  0  0  0  0
    0.8019   -0.9890    1.4284 H   0  0  0  0  0  0  0  0  0  0  0  0
   -0.9897   -0.4712    0.2772 H   0  0  0  0  0  0  0  0  0  0  0  0
   -0.1107    0.3924   -0.8058 H   0  0  0  0  0  0  0  0  0  0  0  0
  1  2  1  0  0  0  0 
  2  3  1  0  0  0  0 
  3  4  1  0  0  0  0 
  4  5  1  0  0  0  0 
  5  6  1  0  0  0  0 
  7  6  1  0  0  0  0 
  7  8  1  0  0  0  0 
  7  9  1  0  0  0  0 
  9 10  1  0  0  0  0 
  1 11  1  0  0  0  0 
  1 12  1  0  0  0  0 
  1 13  1  0  0  0  0 
  2 14  1  0  0  0  0 
  2 15  1  0  0  0  0 
  3 16  1  0  0  0  0 
  3 17  1  0  0  0  0 
  4 18  1  0  0  0  0 
  4 19  1  0  0  0  0 
  5 20  1  0  0  0  0 
  5 21  1  0  0  0  0 
  6 22  1  0  0  0  0 
  6 23  1  0  0  0  0 
  7 24  1  0  0  0  0 
  8 25  1  0  0  0  0 
  8 26  1  0  0  0  0 
  8 27  1  0  0  0  0 
  9 28  1  0  0  0  0 
 10 29  1  0  0  0  0 
 10 30  1  0  0  0  0 
M  END
> <cdk:Title>
octamoxin

> <Conformer>
1

> <SuperDrugID>
SD003240

$$$$
