guacetisal
  CDK     0628171801

 35 36  0  0  0  0  0  0  0  0999 V2000
    2.9633   -1.8310   -0.5023 C   0  0  0  0  0  0  0  0  0  0  0  0
    1.9198   -1.3439    0.2525 O   0  0  0  0  0  0  0  0  0  0  0  0
    3.8300   -1.0241   -0.9145 O   0  0  0  0  0  0  0  0  0  0  0  0
    3.0331   -3.2093   -0.8697 C   0  0  0  0  0  0  0  0  0  0  0  0
    1.7209   -0.0889    0.7794 C   0  0  0  0  0  0  0  0  0  0  0  0
    3.9822   -3.7102   -1.8116 C   0  0  0  0  0  0  0  0  0  0  0  0
    2.1342   -4.1308   -0.2702 C   0  0  0  0  0  0  0  0  0  0  0  0
    0.3917    0.3754    0.9150 C   0  0  0  0  0  0  0  0  0  0  0  0
    2.7830    0.7532    1.1814 C   0  0  0  0  0  0  0  0  0  0  0  0
    4.8426   -2.8568   -2.4626 O   0  0  0  0  0  0  0  0  0  0  0  0
    4.0008   -5.0879   -2.1266 C   0  0  0  0  0  0  0  0  0  0  0  0
    2.1720   -5.4997   -0.5861 C   0  0  0  0  0  0  0  0  0  0  0  0
   -0.6566   -0.4413    0.5916 O   0  0  0  0  0  0  0  0  0  0  0  0
    0.1386    1.6800    1.3916 C   0  0  0  0  0  0  0  0  0  0  0  0
    2.5287    2.0544    1.6503 C   0  0  0  0  0  0  0  0  0  0  0  0
    6.1366   -3.0365   -2.8719 C   0  0  0  0  0  0  0  0  0  0  0  0
    3.1118   -5.9804   -1.5084 C   0  0  0  0  0  0  0  0  0  0  0  0
   -1.0995   -0.2641   -0.7643 C   0  0  0  0  0  0  0  0  0  0  0  0
    1.2067    2.5203    1.7488 C   0  0  0  0  0  0  0  0  0  0  0  0
    6.7860   -2.0002   -3.6879 C   0  0  0  0  0  0  0  0  0  0  0  0
    6.8140   -4.0260   -2.5059 O   0  0  0  0  0  0  0  0  0  0  0  0
    1.4370   -3.8210    0.4118 H   0  0  0  0  0  0  0  0  0  0  0  0
    3.7489    0.4264    1.1389 H   0  0  0  0  0  0  0  0  0  0  0  0
    4.6484   -5.4470   -2.8298 H   0  0  0  0  0  0  0  0  0  0  0  0
    1.5110   -6.1471   -0.1502 H   0  0  0  0  0  0  0  0  0  0  0  0
   -0.8230    2.0188    1.4741 H   0  0  0  0  0  0  0  0  0  0  0  0
    3.3045    2.6625    1.9195 H   0  0  0  0  0  0  0  0  0  0  0  0
    3.1436   -6.9764   -1.7374 H   0  0  0  0  0  0  0  0  0  0  0  0
   -1.8654   -1.0099   -0.9675 H   0  0  0  0  0  0  0  0  0  0  0  0
   -1.5409    0.7239   -0.9115 H   0  0  0  0  0  0  0  0  0  0  0  0
   -0.2863   -0.4110   -1.4792 H   0  0  0  0  0  0  0  0  0  0  0  0
    1.0241    3.4683    2.0848 H   0  0  0  0  0  0  0  0  0  0  0  0
    7.5685   -1.5058   -3.1082 H   0  0  0  0  0  0  0  0  0  0  0  0
    6.0617   -1.2504   -4.0123 H   0  0  0  0  0  0  0  0  0  0  0  0
    7.2291   -2.4583   -4.5747 H   0  0  0  0  0  0  0  0  0  0  0  0
  1  2  1  0  0  0  0 
  1  3  2  0  0  0  0 
  1  4  1  0  0  0  0 
  2  5  1  0  0  0  0 
  4  6  2  0  0  0  0 
  4  7  1  0  0  0  0 
  5  8  2  0  0  0  0 
  5  9  1  0  0  0  0 
  6 10  1  0  0  0  0 
  6 11  1  0  0  0  0 
  7 12  2  0  0  0  0 
  8 13  1  0  0  0  0 
  8 14  1  0  0  0  0 
  9 15  2  0  0  0  0 
 10 16  1  0  0  0  0 
 11 17  2  0  0  0  0 
 12 17  1  0  0  0  0 
 13 18  1  0  0  0  0 
 14 19  2  0  0  0  0 
 15 19  1  0  0  0  0 
 16 20  1  0  0  0  0 
 16 21  2  0  0  0  0 
  7 22  1  0  0  0  0 
  9 23  1  0  0  0  0 
 11 24  1  0  0  0  0 
 12 25  1  0  0  0  0 
 14 26  1  0  0  0  0 
 15 27  1  0  0  0  0 
 17 28  1  0  0  0  0 
 18 29  1  0  0  0  0 
 18 30  1  0  0  0  0 
 18 31  1  0  0  0  0 
 19 32  1  0  0  0  0 
 20 33  1  0  0  0  0 
 20 34  1  0  0  0  0 
 20 35  1  0  0  0  0 
M  END
> <cdk:Title>
guacetisal

> <Conformer>
1

> <SuperDrugID>
SD001184

$$$$
