etymemazine
  CDK     0628171801

 49 51  0  0  0  0  0  0  0  0999 V2000
    0.3634   -0.0513    0.5416 C   0  0  0  0  0  0  0  0  0  0  0  0
    1.6335    0.2286   -0.2926 C   0  0  2  0  0  0  0  0  0  0  0  0
    1.8414   -0.7866   -1.3632 C   0  0  0  0  0  0  0  0  0  0  0  0
    2.8138   -1.8034   -1.2275 C   0  0  0  0  0  0  0  0  0  0  0  0
    3.0369   -2.7241   -2.2659 C   0  0  0  0  0  0  0  0  0  0  0  0
    2.2909   -2.6357   -3.4550 C   0  0  0  0  0  0  0  0  0  0  0  0
    2.6794   -3.6701   -4.8250 S   0  0  0  0  0  0  0  0  0  0  0  0
    2.1003   -2.7180   -6.1920 C   0  0  0  0  0  0  0  0  0  0  0  0
    2.6895   -2.8820   -7.4599 C   0  0  0  0  0  0  0  0  0  0  0  0
    2.2797   -2.0724   -8.5330 C   0  0  0  0  0  0  0  0  0  0  0  0
    1.2754   -1.1091   -8.3418 C   0  0  0  0  0  0  0  0  0  0  0  0
    0.6687   -0.9633   -7.0799 C   0  0  0  0  0  0  0  0  0  0  0  0
    1.0613   -1.7713   -5.9832 C   0  0  0  0  0  0  0  0  0  0  0  0
    0.4602   -1.6595   -4.7333 N   0  0  0  0  0  0  0  0  0  0  0  0
   -0.9909   -1.5901   -4.6000 C   0  0  1  0  0  0  0  0  0  0  0  0
   -1.7923   -2.7465   -5.2932 C   0  0  1  0  0  0  0  0  0  0  0  0
   -1.2608   -4.1427   -4.8499 C   0  0  0  0  0  0  0  0  0  0  0  0
   -3.3376   -2.5974   -5.0323 C   0  0  2  0  0  0  0  0  0  0  0  0
   -4.2606   -2.8831   -6.1785 N   0  0  1  0  0  0  0  0  0  0  0  0
   -4.2787   -1.8593   -7.2599 C   0  0  0  0  0  0  0  0  0  0  0  0
   -4.2783   -4.2885   -6.6668 C   0  0  0  0  0  0  0  0  0  0  0  0
    1.2552   -1.6807   -3.5937 C   0  0  0  0  0  0  0  0  0  0  0  0
    1.0626   -0.7499   -2.5434 C   0  0  0  0  0  0  0  0  0  0  0  0
   -0.5288    0.0170   -0.0830 H   0  0  0  0  0  0  0  0  0  0  0  0
    0.4137   -1.0465    0.9870 H   0  0  0  0  0  0  0  0  0  0  0  0
    0.2798    0.6818    1.3464 H   0  0  0  0  0  0  0  0  0  0  0  0
    2.4901    0.2517    0.3871 H   0  0  0  0  0  0  0  0  0  0  0  0
    1.5603    1.2254   -0.7403 H   0  0  0  0  0  0  0  0  0  0  0  0
    3.3764   -1.8752   -0.3761 H   0  0  0  0  0  0  0  0  0  0  0  0
    3.7511   -3.4489   -2.1557 H   0  0  0  0  0  0  0  0  0  0  0  0
    3.4243   -3.5769   -7.6074 H   0  0  0  0  0  0  0  0  0  0  0  0
    2.7184   -2.1827   -9.4505 H   0  0  0  0  0  0  0  0  0  0  0  0
    0.9896   -0.5124   -9.1209 H   0  0  0  0  0  0  0  0  0  0  0  0
   -0.0558   -0.2524   -6.9680 H   0  0  0  0  0  0  0  0  0  0  0  0
   -1.2881   -1.6007   -3.5466 H   0  0  0  0  0  0  0  0  0  0  0  0
   -1.3303   -0.6306   -4.9974 H   0  0  0  0  0  0  0  0  0  0  0  0
   -1.6185   -2.6652   -6.3674 H   0  0  0  0  0  0  0  0  0  0  0  0
   -0.2510   -4.3060   -5.2215 H   0  0  0  0  0  0  0  0  0  0  0  0
   -1.2449   -4.2234   -3.7627 H   0  0  0  0  0  0  0  0  0  0  0  0
   -1.8833   -4.9436   -5.2452 H   0  0  0  0  0  0  0  0  0  0  0  0
   -3.5646   -1.5811   -4.6966 H   0  0  0  0  0  0  0  0  0  0  0  0
   -3.6260   -3.2394   -4.1956 H   0  0  0  0  0  0  0  0  0  0  0  0
   -5.0954   -2.0546   -7.9558 H   0  0  0  0  0  0  0  0  0  0  0  0
   -4.4405   -0.8659   -6.8398 H   0  0  0  0  0  0  0  0  0  0  0  0
   -3.3425   -1.8570   -7.8171 H   0  0  0  0  0  0  0  0  0  0  0  0
   -4.3398   -4.9871   -5.8303 H   0  0  0  0  0  0  0  0  0  0  0  0
   -5.1532   -4.4563   -7.2973 H   0  0  0  0  0  0  0  0  0  0  0  0
   -3.3825   -4.5115   -7.2479 H   0  0  0  0  0  0  0  0  0  0  0  0
    0.3502   -0.0221   -2.6489 H   0  0  0  0  0  0  0  0  0  0  0  0
  1  2  1  0  0  0  0 
  2  3  1  0  0  0  0 
  3  4  2  0  0  0  0 
  4  5  1  0  0  0  0 
  5  6  2  0  0  0  0 
  6  7  1  0  0  0  0 
  7  8  1  0  0  0  0 
  8  9  2  0  0  0  0 
  9 10  1  0  0  0  0 
 10 11  2  0  0  0  0 
 11 12  1  0  0  0  0 
 12 13  2  0  0  0  0 
  8 13  1  0  0  0  0 
 13 14  1  0  0  0  0 
 14 15  1  0  0  0  0 
 16 15  1  0  0  0  0 
 16 17  1  0  0  0  0 
 16 18  1  0  0  0  0 
 18 19  1  0  0  0  0 
 19 20  1  0  0  0  0 
 19 21  1  0  0  0  0 
 14 22  1  0  0  0  0 
  6 22  1  0  0  0  0 
 22 23  2  0  0  0  0 
  3 23  1  0  0  0  0 
  1 24  1  0  0  0  0 
  1 25  1  0  0  0  0 
  1 26  1  0  0  0  0 
  2 27  1  0  0  0  0 
  2 28  1  0  0  0  0 
  4 29  1  0  0  0  0 
  5 30  1  0  0  0  0 
  9 31  1  0  0  0  0 
 10 32  1  0  0  0  0 
 11 33  1  0  0  0  0 
 12 34  1  0  0  0  0 
 15 35  1  0  0  0  0 
 15 36  1  0  0  0  0 
 16 37  1  0  0  0  0 
 17 38  1  0  0  0  0 
 17 39  1  0  0  0  0 
 17 40  1  0  0  0  0 
 18 41  1  0  0  0  0 
 18 42  1  0  0  0  0 
 20 43  1  0  0  0  0 
 20 44  1  0  0  0  0 
 20 45  1  0  0  0  0 
 21 46  1  0  0  0  0 
 21 47  1  0  0  0  0 
 21 48  1  0  0  0  0 
 23 49  1  0  0  0  0 
M  END
> <cdk:Title>
etymemazine

> <Conformer>
1

> <SuperDrugID>
SD003198

$$$$
