chlorpromazine
  CDK     0628171802

 40 42  0  0  0  0  0  0  0  0999 V2000
   -1.6934    6.6291   -5.5155 C   0  0  0  0  0  0  0  0  0  0  0  0
   -2.8887    5.8936   -6.0212 N   0  0  2  0  0  0  0  0  0  0  0  0
   -3.0529    6.0403   -7.4978 C   0  0  0  0  0  0  0  0  0  0  0  0
   -4.1274    6.2195   -5.2405 C   0  0  1  0  0  0  0  0  0  0  0  0
   -5.3125    5.2384   -5.4478 C   0  0  2  0  0  0  0  0  0  0  0  0
   -4.9660    3.7394   -5.2115 C   0  0  1  0  0  0  0  0  0  0  0  0
   -4.3178    3.4203   -3.9407 N   0  0  0  0  0  0  0  0  0  0  0  0
   -4.8522    3.8713   -2.7338 C   0  0  0  0  0  0  0  0  0  0  0  0
   -6.2459    3.8422   -2.4731 C   0  0  0  0  0  0  0  0  0  0  0  0
   -6.7712    4.3277   -1.2614 C   0  0  0  0  0  0  0  0  0  0  0  0
   -5.9138    4.8516   -0.2788 C   0  0  0  0  0  0  0  0  0  0  0  0
   -4.5280    4.8806   -0.5058 C   0  0  0  0  0  0  0  0  0  0  0  0
   -4.0058    4.3868   -1.7153 C   0  0  0  0  0  0  0  0  0  0  0  0
   -2.2642    4.3797   -1.9631 S   0  0  0  0  0  0  0  0  0  0  0  0
   -2.0613    3.0299   -3.0712 C   0  0  0  0  0  0  0  0  0  0  0  0
   -3.1343    2.6811   -3.9309 C   0  0  0  0  0  0  0  0  0  0  0  0
   -2.9655    1.5427   -4.7605 C   0  0  0  0  0  0  0  0  0  0  0  0
   -1.7637    0.8061   -4.7586 C   0  0  0  0  0  0  0  0  0  0  0  0
   -1.5806   -0.5294   -5.7812 Cl  0  0  0  0  0  0  0  0  0  0  0  0
   -0.7139    1.1808   -3.9008 C   0  0  0  0  0  0  0  0  0  0  0  0
   -0.8626    2.2919   -3.0563 C   0  0  0  0  0  0  0  0  0  0  0  0
   -1.5216    6.3964   -4.4630 H   0  0  0  0  0  0  0  0  0  0  0  0
   -0.7967    6.3300   -6.0612 H   0  0  0  0  0  0  0  0  0  0  0  0
   -1.8243    7.7089   -5.6189 H   0  0  0  0  0  0  0  0  0  0  0  0
   -2.1176    5.8233   -8.0196 H   0  0  0  0  0  0  0  0  0  0  0  0
   -3.7961    5.3343   -7.8702 H   0  0  0  0  0  0  0  0  0  0  0  0
   -3.3685    7.0546   -7.7545 H   0  0  0  0  0  0  0  0  0  0  0  0
   -3.9000    6.2127   -4.1720 H   0  0  0  0  0  0  0  0  0  0  0  0
   -4.4628    7.2331   -5.4814 H   0  0  0  0  0  0  0  0  0  0  0  0
   -5.6988    5.3469   -6.4655 H   0  0  0  0  0  0  0  0  0  0  0  0
   -6.1246    5.5334   -4.7781 H   0  0  0  0  0  0  0  0  0  0  0  0
   -5.8838    3.1542   -5.3006 H   0  0  0  0  0  0  0  0  0  0  0  0
   -4.3418    3.4456   -6.0601 H   0  0  0  0  0  0  0  0  0  0  0  0
   -6.8958    3.4609   -3.1631 H   0  0  0  0  0  0  0  0  0  0  0  0
   -7.7778    4.2966   -1.0924 H   0  0  0  0  0  0  0  0  0  0  0  0
   -6.2960    5.2089    0.6003 H   0  0  0  0  0  0  0  0  0  0  0  0
   -3.9058    5.2567    0.2135 H   0  0  0  0  0  0  0  0  0  0  0  0
   -3.7290    1.2393   -5.3708 H   0  0  0  0  0  0  0  0  0  0  0  0
    0.1589    0.6474   -3.8817 H   0  0  0  0  0  0  0  0  0  0  0  0
   -0.1010    2.5532   -2.4268 H   0  0  0  0  0  0  0  0  0  0  0  0
  1  2  1  0  0  0  0 
  2  3  1  0  0  0  0 
  2  4  1  0  0  0  0 
  4  5  1  0  0  0  0 
  5  6  1  0  0  0  0 
  6  7  1  0  0  0  0 
  7  8  1  0  0  0  0 
  8  9  2  0  0  0  0 
  9 10  1  0  0  0  0 
 10 11  2  0  0  0  0 
 11 12  1  0  0  0  0 
 12 13  2  0  0  0  0 
  8 13  1  0  0  0  0 
 13 14  1  0  0  0  0 
 14 15  1  0  0  0  0 
 15 16  2  0  0  0  0 
  7 16  1  0  0  0  0 
 16 17  1  0  0  0  0 
 17 18  2  0  0  0  0 
 18 19  1  0  0  0  0 
 18 20  1  0  0  0  0 
 20 21  2  0  0  0  0 
 15 21  1  0  0  0  0 
  1 22  1  0  0  0  0 
  1 23  1  0  0  0  0 
  1 24  1  0  0  0  0 
  3 25  1  0  0  0  0 
  3 26  1  0  0  0  0 
  3 27  1  0  0  0  0 
  4 28  1  0  0  0  0 
  4 29  1  0  0  0  0 
  5 30  1  0  0  0  0 
  5 31  1  0  0  0  0 
  6 32  1  0  0  0  0 
  6 33  1  0  0  0  0 
  9 34  1  0  0  0  0 
 10 35  1  0  0  0  0 
 11 36  1  0  0  0  0 
 12 37  1  0  0  0  0 
 17 38  1  0  0  0  0 
 20 39  1  0  0  0  0 
 21 40  1  0  0  0  0 
M  END
> <cdk:Title>
chlorpromazine

> <Conformer>
1

> <SuperDrugID>
SD000542

$$$$
