fluciclovine (18F)
  CDK     0628171802

 17 17  0  0  0  0  0  0  0  0999 V2000
    1.5863   -1.6784    1.0666 C   0  0  1  0  0  0  0  0  0  0  0  0
    0.4063   -2.0703    0.1556 C   0  0  1  0  0  0  0  0  0  0  0  0
    1.3485   -2.0625   -1.0641 C   0  0  2  0  0  0  0  0  0  0  0  0
    2.5451   -1.6764   -0.1519 C   0  0  1  0  0  0  0  0  0  0  0  0
    3.0619   -0.3317   -0.4588 N   0  0  1  0  0  0  0  0  0  0  0  0
    3.6670   -2.6412   -0.0398 C   0  0  0  0  0  0  0  0  0  0  0  0
   -0.3650   -1.2969    0.1026 H   0  0  0  0  0  0  0  0  0  0  0  0
   -0.1276   -3.3085    0.4385 F   0  0  0  0  0  0  0  0  0  0  0  0
    4.6144   -2.4550    0.9089 O   0  0  0  0  0  0  0  0  0  0  0  0
    3.7903   -3.6287   -0.7997 O   0  0  0  0  0  0  0  0  0  0  0  0
    1.4514   -0.6924    1.5216 H   0  0  0  0  0  0  0  0  0  0  0  0
    1.8141   -2.4389    1.8209 H   0  0  0  0  0  0  0  0  0  0  0  0
    1.0783   -1.2877   -1.7884 H   0  0  0  0  0  0  0  0  0  0  0  0
    1.4294   -3.0427   -1.5429 H   0  0  0  0  0  0  0  0  0  0  0  0
    3.7254   -0.0865    0.2785 H   0  0  0  0  0  0  0  0  0  0  0  0
    3.5959   -0.4047   -1.3267 H   0  0  0  0  0  0  0  0  0  0  0  0
    5.3619   -3.0845    0.9874 H   0  0  0  0  0  0  0  0  0  0  0  0
  1  2  1  0  0  0  0 
  4  1  1  0  0  0  0 
  2  3  1  0  0  0  0 
  3  4  1  0  0  0  0 
  4  5  1  0  0  0  0 
  4  6  1  0  0  0  0 
  2  7  1  0  0  0  0 
  2  8  1  0  0  0  0 
  6  9  1  0  0  0  0 
  6 10  2  0  0  0  0 
  1 11  1  0  0  0  0 
  1 12  1  0  0  0  0 
  3 13  1  0  0  0  0 
  3 14  1  0  0  0  0 
  5 15  1  0  0  0  0 
  5 16  1  0  0  0  0 
  9 17  1  0  0  0  0 
M  ISO  1   8  18
M  END
> <cdk:Title>
fluciclovine (18F)

> <Conformer>
1

> <SuperDrugID>
SD003922

$$$$
