bendazol
  CDK     0628171801

 28 30  0  0  0  0  0  0  0  0999 V2000
   -1.7464    1.9035   -0.1121 C   0  0  2  0  0  0  0  0  0  0  0  0
   -0.3722    1.3787   -0.0335 C   0  0  0  0  0  0  0  0  0  0  0  0
   -2.3346    1.5623   -1.4338 C   0  0  0  0  0  0  0  0  0  0  0  0
   -0.0456    0.0704   -0.1338 N   0  0  0  0  0  0  0  0  0  0  0  0
    0.7341    2.1284    0.1325 N   0  0  0  0  0  0  0  0  0  0  0  0
   -3.0283    0.3424   -1.6161 C   0  0  0  0  0  0  0  0  0  0  0  0
   -2.1746    2.4269   -2.5428 C   0  0  0  0  0  0  0  0  0  0  0  0
    1.2911    0.0118   -0.0342 C   0  0  0  0  0  0  0  0  0  0  0  0
    1.7833    1.3018    0.1402 C   0  0  0  0  0  0  0  0  0  0  0  0
   -3.5645    0.0051   -2.8725 C   0  0  0  0  0  0  0  0  0  0  0  0
   -2.7151    2.0875   -3.7977 C   0  0  0  0  0  0  0  0  0  0  0  0
    2.1609   -1.0911   -0.0786 C   0  0  0  0  0  0  0  0  0  0  0  0
    3.1578    1.5505    0.2890 C   0  0  0  0  0  0  0  0  0  0  0  0
   -3.4148    0.8797   -3.9623 C   0  0  0  0  0  0  0  0  0  0  0  0
    3.5461   -0.8629    0.0737 C   0  0  0  0  0  0  0  0  0  0  0  0
    4.0405    0.4491    0.2590 C   0  0  0  0  0  0  0  0  0  0  0  0
   -1.7395    2.9874    0.0360 H   0  0  0  0  0  0  0  0  0  0  0  0
   -2.3365    1.4738    0.7031 H   0  0  0  0  0  0  0  0  0  0  0  0
    0.7642    3.0942    0.2254 H   0  0  0  0  0  0  0  0  0  0  0  0
   -3.1366   -0.3115   -0.8356 H   0  0  0  0  0  0  0  0  0  0  0  0
   -1.6562    3.3045   -2.4439 H   0  0  0  0  0  0  0  0  0  0  0  0
   -4.0588   -0.8804   -2.9942 H   0  0  0  0  0  0  0  0  0  0  0  0
   -2.5940    2.7173   -4.5930 H   0  0  0  0  0  0  0  0  0  0  0  0
    1.7989   -2.0361   -0.2160 H   0  0  0  0  0  0  0  0  0  0  0  0
    3.5078    2.5019    0.4203 H   0  0  0  0  0  0  0  0  0  0  0  0
   -3.8064    0.6340   -4.8735 H   0  0  0  0  0  0  0  0  0  0  0  0
    4.1961   -1.6522    0.0513 H   0  0  0  0  0  0  0  0  0  0  0  0
    5.0454    0.6013    0.3728 H   0  0  0  0  0  0  0  0  0  0  0  0
  1  2  1  0  0  0  0 
  1  3  1  0  0  0  0 
  2  4  2  0  0  0  0 
  2  5  1  0  0  0  0 
  3  6  2  0  0  0  0 
  3  7  1  0  0  0  0 
  4  8  1  0  0  0  0 
  5  9  1  0  0  0  0 
  6 10  1  0  0  0  0 
  7 11  2  0  0  0  0 
  8  9  1  0  0  0  0 
  8 12  2  0  0  0  0 
  9 13  2  0  0  0  0 
 10 14  2  0  0  0  0 
 11 14  1  0  0  0  0 
 12 15  1  0  0  0  0 
 13 16  1  0  0  0  0 
 15 16  2  0  0  0  0 
  1 17  1  0  0  0  0 
  1 18  1  0  0  0  0 
  5 19  1  0  0  0  0 
  6 20  1  0  0  0  0 
  7 21  1  0  0  0  0 
 10 22  1  0  0  0  0 
 11 23  1  0  0  0  0 
 12 24  1  0  0  0  0 
 13 25  1  0  0  0  0 
 14 26  1  0  0  0  0 
 15 27  1  0  0  0  0 
 16 28  1  0  0  0  0 
M  END
> <cdk:Title>
bendazol

> <Conformer>
1

> <SuperDrugID>
SD000255

$$$$
