dichloroacetic acid
  CDK     0628171802

  8  7  0  0  0  0  0  0  0  0999 V2000
   -0.8461   -0.5697   -0.1962 O   0  0  0  0  0  0  0  0  0  0  0  0
    0.1113   -0.0218    0.5892 C   0  0  0  0  0  0  0  0  0  0  0  0
   -0.2343    0.5011    1.6732 O   0  0  0  0  0  0  0  0  0  0  0  0
    1.5241   -0.0343    0.1772 C   0  0  1  0  0  0  0  0  0  0  0  0
    2.0918   -1.6885   -0.0106 Cl  0  0  0  0  0  0  0  0  0  0  0  0
    1.7152    0.8245   -1.3477 Cl  0  0  0  0  0  0  0  0  0  0  0  0
   -1.7854   -0.5519    0.0832 H   0  0  0  0  0  0  0  0  0  0  0  0
    2.1513    0.4567    0.9256 H   0  0  0  0  0  0  0  0  0  0  0  0
  1  2  1  0  0  0  0 
  2  3  2  0  0  0  0 
  2  4  1  0  0  0  0 
  4  5  1  0  0  0  0 
  4  6  1  0  0  0  0 
  1  7  1  0  0  0  0 
  4  8  1  0  0  0  0 
M  END
> <cdk:Title>
dichloroacetic acid

> <Conformer>
1

> <SuperDrugID>
SD000765

$$$$
