kebuzone
  CDK     0628171801

 42 44  0  0  0  0  0  0  0  0999 V2000
    1.1756   -3.8759    2.2922 O   0  0  0  0  0  0  0  0  0  0  0  0
    1.2000   -3.7762    0.9385 C   0  0  0  0  0  0  0  0  0  0  0  0
    1.9509   -4.5105    0.0845 N   0  0  0  0  0  0  0  0  0  0  0  0
    0.4068   -2.9121    0.1955 C   0  0  0  0  0  0  0  0  0  0  0  0
    1.7036   -4.1244   -1.1479 N   0  0  0  0  0  0  0  0  0  0  0  0
    2.8020   -5.5197    0.4685 C   0  0  0  0  0  0  0  0  0  0  0  0
   -0.5551   -1.9040    0.7006 C   0  0  2  0  0  0  0  0  0  0  0  0
    0.7394   -3.1759   -1.1278 C   0  0  0  0  0  0  0  0  0  0  0  0
    2.3975   -4.4810   -2.2799 C   0  0  0  0  0  0  0  0  0  0  0  0
    2.7137   -6.8072   -0.1142 C   0  0  0  0  0  0  0  0  0  0  0  0
    3.8170   -5.2731    1.4219 C   0  0  0  0  0  0  0  0  0  0  0  0
    0.1256   -0.6250    1.2611 C   0  0  1  0  0  0  0  0  0  0  0  0
    0.2706   -2.5676   -2.1185 O   0  0  0  0  0  0  0  0  0  0  0  0
    3.8045   -4.3419   -2.3151 C   0  0  0  0  0  0  0  0  0  0  0  0
    1.7328   -4.9859   -3.4215 C   0  0  0  0  0  0  0  0  0  0  0  0
    3.6306   -7.8158    0.2381 C   0  0  0  0  0  0  0  0  0  0  0  0
    4.7311   -6.2820    1.7744 C   0  0  0  0  0  0  0  0  0  0  0  0
    0.8655    0.1519    0.2354 C   0  0  0  0  0  0  0  0  0  0  0  0
    4.5311   -4.7013   -3.4641 C   0  0  0  0  0  0  0  0  0  0  0  0
    2.4614   -5.3421   -4.5720 C   0  0  0  0  0  0  0  0  0  0  0  0
    4.6412   -7.5536    1.1810 C   0  0  0  0  0  0  0  0  0  0  0  0
    0.2965    1.3702   -0.3751 C   0  0  0  0  0  0  0  0  0  0  0  0
    1.9839   -0.2635   -0.1505 O   0  0  0  0  0  0  0  0  0  0  0  0
    3.8605   -5.1994   -4.5949 C   0  0  0  0  0  0  0  0  0  0  0  0
    1.9740   -3.3949    2.5952 H   0  0  0  0  0  0  0  0  0  0  0  0
   -1.1553   -2.3633    1.4914 H   0  0  0  0  0  0  0  0  0  0  0  0
   -1.2430   -1.6202   -0.1021 H   0  0  0  0  0  0  0  0  0  0  0  0
    1.9848   -7.0174   -0.8021 H   0  0  0  0  0  0  0  0  0  0  0  0
    3.9067   -4.3492    1.8508 H   0  0  0  0  0  0  0  0  0  0  0  0
   -0.6545    0.0044    1.6968 H   0  0  0  0  0  0  0  0  0  0  0  0
    0.8096   -0.8889    2.0723 H   0  0  0  0  0  0  0  0  0  0  0  0
    4.3080   -3.9721   -1.5049 H   0  0  0  0  0  0  0  0  0  0  0  0
    0.7168   -5.1029   -3.4182 H   0  0  0  0  0  0  0  0  0  0  0  0
    3.5647   -8.7401   -0.1936 H   0  0  0  0  0  0  0  0  0  0  0  0
    5.4652   -6.0871    2.4572 H   0  0  0  0  0  0  0  0  0  0  0  0
    5.5473   -4.5979   -3.4768 H   0  0  0  0  0  0  0  0  0  0  0  0
    1.9736   -5.7074   -5.3916 H   0  0  0  0  0  0  0  0  0  0  0  0
    5.3115   -8.2845    1.4327 H   0  0  0  0  0  0  0  0  0  0  0  0
    0.9172    1.7292   -1.2006 H   0  0  0  0  0  0  0  0  0  0  0  0
    0.2344    2.1563    0.3802 H   0  0  0  0  0  0  0  0  0  0  0  0
   -0.7052    1.1586   -0.7575 H   0  0  0  0  0  0  0  0  0  0  0  0
    4.3893   -5.4571   -5.4317 H   0  0  0  0  0  0  0  0  0  0  0  0
  1  2  1  0  0  0  0 
  2  3  1  0  0  0  0 
  2  4  2  0  0  0  0 
  3  5  1  0  0  0  0 
  3  6  1  0  0  0  0 
  4  7  1  0  0  0  0 
  4  8  1  0  0  0  0 
  5  8  1  0  0  0  0 
  5  9  1  0  0  0  0 
  6 10  2  0  0  0  0 
  6 11  1  0  0  0  0 
  7 12  1  0  0  0  0 
  8 13  2  0  0  0  0 
  9 14  2  0  0  0  0 
  9 15  1  0  0  0  0 
 10 16  1  0  0  0  0 
 11 17  2  0  0  0  0 
 12 18  1  0  0  0  0 
 14 19  1  0  0  0  0 
 15 20  2  0  0  0  0 
 16 21  2  0  0  0  0 
 17 21  1  0  0  0  0 
 18 22  1  0  0  0  0 
 18 23  2  0  0  0  0 
 19 24  2  0  0  0  0 
 20 24  1  0  0  0  0 
 25  1  1  0  0  0  0 
 26  7  1  0  0  0  0 
 27  7  1  0  0  0  0 
 28 10  1  0  0  0  0 
 29 11  1  0  0  0  0 
 30 12  1  0  0  0  0 
 31 12  1  0  0  0  0 
 32 14  1  0  0  0  0 
 33 15  1  0  0  0  0 
 34 16  1  0  0  0  0 
 35 17  1  0  0  0  0 
 36 19  1  0  0  0  0 
 37 20  1  0  0  0  0 
 38 21  1  0  0  0  0 
 39 22  1  0  0  0  0 
 40 22  1  0  0  0  0 
 41 22  1  0  0  0  0 
 42 24  1  0  0  0  0 
M  END
> <cdk:Title>
kebuzone

> <Conformer>
1

> <SuperDrugID>
SD001345

$$$$
