phencyclidine
  CDK     0628171801

 43 45  0  0  0  0  0  0  0  0999 V2000
   -1.6723    3.2719   -1.6758 C   0  0  0  0  0  0  0  0  0  0  0  0
   -2.8986    3.9083   -1.9379 C   0  0  0  0  0  0  0  0  0  0  0  0
   -3.9676    3.1791   -2.4781 C   0  0  0  0  0  0  0  0  0  0  0  0
   -3.8006    1.8151   -2.7608 C   0  0  0  0  0  0  0  0  0  0  0  0
   -2.5654    1.1887   -2.5150 C   0  0  0  0  0  0  0  0  0  0  0  0
   -1.4544    1.8987   -1.9759 C   0  0  0  0  0  0  0  0  0  0  0  0
   -0.0976    1.2537   -1.6882 C   0  0  1  0  0  0  0  0  0  0  0  0
    0.0820    1.1181   -0.1773 N   0  0  2  0  0  0  0  0  0  0  0  0
    2.4907    0.0495   -2.9465 C   0  0  1  0  0  0  0  0  0  0  0  0
    1.4773   -0.8192   -2.1686 C   0  0  1  0  0  0  0  0  0  0  0  0
    0.0510   -0.2123   -2.2761 C   0  0  1  0  0  0  0  0  0  0  0  0
    1.0204    2.0895   -2.4512 C   0  0  1  0  0  0  0  0  0  0  0  0
    2.4611    1.4973   -2.4148 C   0  0  1  0  0  0  0  0  0  0  0  0
   -1.0668    0.5368    0.6131 C   0  0  2  0  0  0  0  0  0  0  0  0
   -0.5726   -0.0927    1.9380 C   0  0  1  0  0  0  0  0  0  0  0  0
    0.2227    0.9292    2.7876 C   0  0  1  0  0  0  0  0  0  0  0  0
    1.3095    1.6440    1.9478 C   0  0  2  0  0  0  0  0  0  0  0  0
    0.7394    2.2068    0.6196 C   0  0  2  0  0  0  0  0  0  0  0  0
   -0.9313    3.8386   -1.2627 H   0  0  0  0  0  0  0  0  0  0  0  0
   -3.0136    4.9022   -1.7309 H   0  0  0  0  0  0  0  0  0  0  0  0
   -4.8643    3.6382   -2.6603 H   0  0  0  0  0  0  0  0  0  0  0  0
   -4.5793    1.2760   -3.1434 H   0  0  0  0  0  0  0  0  0  0  0  0
   -2.5063    0.1948   -2.7330 H   0  0  0  0  0  0  0  0  0  0  0  0
    3.4986   -0.3623   -2.8400 H   0  0  0  0  0  0  0  0  0  0  0  0
    2.2340    0.0443   -4.0110 H   0  0  0  0  0  0  0  0  0  0  0  0
    1.4756   -1.8277   -2.5919 H   0  0  0  0  0  0  0  0  0  0  0  0
    1.7776   -0.8966   -1.1188 H   0  0  0  0  0  0  0  0  0  0  0  0
   -0.6254   -0.9131   -1.7890 H   0  0  0  0  0  0  0  0  0  0  0  0
   -0.2221   -0.2081   -3.3362 H   0  0  0  0  0  0  0  0  0  0  0  0
    0.7337    2.1818   -3.5051 H   0  0  0  0  0  0  0  0  0  0  0  0
    1.0898    3.1122   -2.0775 H   0  0  0  0  0  0  0  0  0  0  0  0
    2.8540    1.5048   -1.3973 H   0  0  0  0  0  0  0  0  0  0  0  0
    3.1234    2.1132   -3.0276 H   0  0  0  0  0  0  0  0  0  0  0  0
   -1.5941   -0.2431    0.0670 H   0  0  0  0  0  0  0  0  0  0  0  0
   -1.8061    1.3111    0.8411 H   0  0  0  0  0  0  0  0  0  0  0  0
   -1.4320   -0.4470    2.5158 H   0  0  0  0  0  0  0  0  0  0  0  0
    0.0633   -0.9533    1.7089 H   0  0  0  0  0  0  0  0  0  0  0  0
   -0.4654    1.6742    3.1962 H   0  0  0  0  0  0  0  0  0  0  0  0
    0.6907    0.4096    3.6275 H   0  0  0  0  0  0  0  0  0  0  0  0
    2.1133    0.9380    1.7173 H   0  0  0  0  0  0  0  0  0  0  0  0
    1.7343    2.4607    2.5383 H   0  0  0  0  0  0  0  0  0  0  0  0
    0.0248    3.0038    0.8371 H   0  0  0  0  0  0  0  0  0  0  0  0
    1.5770    2.6584    0.0977 H   0  0  0  0  0  0  0  0  0  0  0  0
  1  2  2  0  0  0  0 
  2  3  1  0  0  0  0 
  3  4  2  0  0  0  0 
  4  5  1  0  0  0  0 
  5  6  2  0  0  0  0 
  1  6  1  0  0  0  0 
  6  7  1  0  0  0  0 
  7  8  1  0  0  0  0 
  9 10  1  0  0  0  0 
 10 11  1  0  0  0  0 
 12 13  1  0  0  0  0 
  9 13  1  0  0  0  0 
 11  7  1  0  0  0  0 
  7 12  1  0  0  0  0 
 14 15  1  0  0  0  0 
 15 16  1  0  0  0  0 
 16 17  1  0  0  0  0 
 17 18  1  0  0  0  0 
  8 14  1  0  0  0  0 
  8 18  1  0  0  0  0 
  1 19  1  0  0  0  0 
  2 20  1  0  0  0  0 
  3 21  1  0  0  0  0 
  4 22  1  0  0  0  0 
  5 23  1  0  0  0  0 
  9 24  1  0  0  0  0 
  9 25  1  0  0  0  0 
 10 26  1  0  0  0  0 
 10 27  1  0  0  0  0 
 11 28  1  0  0  0  0 
 11 29  1  0  0  0  0 
 12 30  1  0  0  0  0 
 12 31  1  0  0  0  0 
 13 32  1  0  0  0  0 
 13 33  1  0  0  0  0 
 14 34  1  0  0  0  0 
 14 35  1  0  0  0  0 
 15 36  1  0  0  0  0 
 15 37  1  0  0  0  0 
 16 38  1  0  0  0  0 
 16 39  1  0  0  0  0 
 17 40  1  0  0  0  0 
 17 41  1  0  0  0  0 
 18 42  1  0  0  0  0 
 18 43  1  0  0  0  0 
M  END
> <cdk:Title>
phencyclidine

> <Conformer>
1

> <SuperDrugID>
SD001901

$$$$
