sulfamoxole
  CDK     0628171801

 31 32  0  0  0  0  0  0  0  0999 V2000
    1.2967   -1.8940    3.0450 N   0  0  0  0  0  0  0  0  0  0  0  0
    1.0383   -0.6971    4.2458 S   0  0  1  0  0  0  0  0  0  0  0  0
    0.3278   -2.7102    2.5872 C   0  0  0  0  0  0  0  0  0  0  0  0
    0.4370   -1.4040    5.5552 O   0  0  0  0  0  0  0  0  0  0  0  0
    2.4694   -0.0699    4.6208 O   0  0  0  0  0  0  0  0  0  0  0  0
   -0.0380    0.5913    3.6766 C   0  0  0  0  0  0  0  0  0  0  0  0
    0.5700   -3.7256    1.7437 N   0  0  0  0  0  0  0  0  0  0  0  0
   -0.9866   -2.6554    2.9070 O   0  0  0  0  0  0  0  0  0  0  0  0
    0.1748    1.1842    2.4147 C   0  0  0  0  0  0  0  0  0  0  0  0
   -1.0896    1.0637    4.4907 C   0  0  0  0  0  0  0  0  0  0  0  0
   -0.5981   -4.3454    1.5209 C   0  0  0  0  0  0  0  0  0  0  0  0
   -1.5810   -3.6747    2.2485 C   0  0  0  0  0  0  0  0  0  0  0  0
   -0.6445    2.2426    1.9780 C   0  0  0  0  0  0  0  0  0  0  0  0
   -1.9104    2.1217    4.0565 C   0  0  0  0  0  0  0  0  0  0  0  0
   -0.7650   -5.5207    0.6515 C   0  0  0  0  0  0  0  0  0  0  0  0
   -3.0144   -3.9951    2.3185 C   0  0  0  0  0  0  0  0  0  0  0  0
   -1.6866    2.7190    2.8002 C   0  0  0  0  0  0  0  0  0  0  0  0
   -2.4575    3.7446    2.3860 N   0  0  0  0  0  0  0  0  0  0  0  0
    2.1962   -2.0125    2.7042 H   0  0  0  0  0  0  0  0  0  0  0  0
    0.9333    0.8571    1.8106 H   0  0  0  0  0  0  0  0  0  0  0  0
   -1.2602    0.6499    5.4094 H   0  0  0  0  0  0  0  0  0  0  0  0
   -0.4767    2.6653    1.0614 H   0  0  0  0  0  0  0  0  0  0  0  0
   -2.6651    2.4520    4.6611 H   0  0  0  0  0  0  0  0  0  0  0  0
   -1.1654   -6.3579    1.2236 H   0  0  0  0  0  0  0  0  0  0  0  0
    0.1927   -5.8181    0.2221 H   0  0  0  0  0  0  0  0  0  0  0  0
   -1.4505   -5.2831   -0.1611 H   0  0  0  0  0  0  0  0  0  0  0  0
   -3.1523   -4.9692    2.7906 H   0  0  0  0  0  0  0  0  0  0  0  0
   -3.5336   -3.2377    2.9063 H   0  0  0  0  0  0  0  0  0  0  0  0
   -3.4438   -4.0175    1.3159 H   0  0  0  0  0  0  0  0  0  0  0  0
   -2.2937    4.1578    1.5225 H   0  0  0  0  0  0  0  0  0  0  0  0
   -3.1723    4.0803    2.9515 H   0  0  0  0  0  0  0  0  0  0  0  0
  1  2  1  0  0  0  0 
  1  3  1  0  0  0  0 
  2  4  2  0  0  0  0 
  2  5  2  0  0  0  0 
  2  6  1  0  0  0  0 
  3  7  2  0  0  0  0 
  3  8  1  0  0  0  0 
  6  9  2  0  0  0  0 
  6 10  1  0  0  0  0 
  7 11  1  0  0  0  0 
  8 12  1  0  0  0  0 
  9 13  1  0  0  0  0 
 10 14  2  0  0  0  0 
 11 12  2  0  0  0  0 
 11 15  1  0  0  0  0 
 12 16  1  0  0  0  0 
 13 17  2  0  0  0  0 
 14 17  1  0  0  0  0 
 17 18  1  0  0  0  0 
  1 19  1  0  0  0  0 
  9 20  1  0  0  0  0 
 10 21  1  0  0  0  0 
 13 22  1  0  0  0  0 
 14 23  1  0  0  0  0 
 15 24  1  0  0  0  0 
 15 25  1  0  0  0  0 
 15 26  1  0  0  0  0 
 16 27  1  0  0  0  0 
 16 28  1  0  0  0  0 
 16 29  1  0  0  0  0 
 18 30  1  0  0  0  0 
 18 31  1  0  0  0  0 
M  END
> <cdk:Title>
sulfamoxole

> <Conformer>
1

> <SuperDrugID>
SD002266

$$$$
