acetylcarnitine
  CDK     0628171802

 31 30  0  0  0  0  0  0  0  0999 V2000
   -0.5094   -2.0905   -1.8059 C   0  0  2  0  0  0  0  0  0  0  0  0
   -0.4259   -3.0039   -0.5331 C   0  0  1  0  0  0  0  0  0  0  0  0
    0.7568   -1.6910   -2.5583 N   0  0  2  0  0  0  0  0  0  0  0  0
   -1.8054   -3.1836    0.1708 C   0  0  2  0  0  0  0  0  0  0  0  0
    0.0086   -4.3285   -0.8988 O   0  0  0  0  0  0  0  0  0  0  0  0
    0.3577   -0.7644   -3.6914 C   0  0  0  0  0  0  0  0  0  0  0  0
    1.4626   -2.8772   -3.1741 C   0  0  0  0  0  0  0  0  0  0  0  0
    1.7239   -0.9514   -1.6633 C   0  0  0  0  0  0  0  0  0  0  0  0
   -2.3813   -1.9421    0.7264 C   0  0  0  0  0  0  0  0  0  0  0  0
    1.0548   -5.0536   -0.3981 C   0  0  0  0  0  0  0  0  0  0  0  0
   -3.5685   -1.4724    0.2795 O   0  0  0  0  0  0  0  0  0  0  0  0
   -1.7878   -1.3030    1.6233 O   0  0  0  0  0  0  0  0  0  0  0  0
    1.3709   -6.3692   -0.9712 C   0  0  0  0  0  0  0  0  0  0  0  0
    1.7741   -4.6111    0.5286 O   0  0  0  0  0  0  0  0  0  0  0  0
   -1.0110   -1.1705   -1.4907 H   0  0  0  0  0  0  0  0  0  0  0  0
   -1.1976   -2.5843   -2.4995 H   0  0  0  0  0  0  0  0  0  0  0  0
    0.2593   -2.5535    0.1888 H   0  0  0  0  0  0  0  0  0  0  0  0
   -1.6993   -3.8928    0.9970 H   0  0  0  0  0  0  0  0  0  0  0  0
   -2.5151   -3.6188   -0.5380 H   0  0  0  0  0  0  0  0  0  0  0  0
   -0.1452    0.1314   -3.3166 H   0  0  0  0  0  0  0  0  0  0  0  0
   -0.3261   -1.2565   -4.3909 H   0  0  0  0  0  0  0  0  0  0  0  0
    1.2241   -0.4275   -4.2706 H   0  0  0  0  0  0  0  0  0  0  0  0
    0.7737   -3.4984   -3.7553 H   0  0  0  0  0  0  0  0  0  0  0  0
    2.2680   -2.5609   -3.8436 H   0  0  0  0  0  0  0  0  0  0  0  0
    1.9363   -3.5057   -2.4218 H   0  0  0  0  0  0  0  0  0  0  0  0
    2.5937   -0.5924   -2.2229 H   0  0  0  0  0  0  0  0  0  0  0  0
    1.2491   -0.0832   -1.1980 H   0  0  0  0  0  0  0  0  0  0  0  0
    2.1051   -1.5923   -0.8654 H   0  0  0  0  0  0  0  0  0  0  0  0
    0.6298   -6.6587   -1.7187 H   0  0  0  0  0  0  0  0  0  0  0  0
    2.3508   -6.3290   -1.4498 H   0  0  0  0  0  0  0  0  0  0  0  0
    1.3900   -7.1236   -0.1834 H   0  0  0  0  0  0  0  0  0  0  0  0
  2  1  1  0  0  0  0 
  1  3  1  0  0  0  0 
  2  4  1  0  0  0  0 
  2  5  1  0  0  0  0 
  3  6  1  0  0  0  0 
  3  7  1  0  0  0  0 
  3  8  1  0  0  0  0 
  4  9  1  0  0  0  0 
  5 10  1  0  0  0  0 
  9 11  1  0  0  0  0 
  9 12  2  0  0  0  0 
 10 13  1  0  0  0  0 
 10 14  2  0  0  0  0 
  1 15  1  0  0  0  0 
  1 16  1  0  0  0  0 
  2 17  1  0  0  0  0 
  4 18  1  0  0  0  0 
  4 19  1  0  0  0  0 
  6 20  1  0  0  0  0 
  6 21  1  0  0  0  0 
  6 22  1  0  0  0  0 
  7 23  1  0  0  0  0 
  7 24  1  0  0  0  0 
  7 25  1  0  0  0  0 
  8 26  1  0  0  0  0 
  8 27  1  0  0  0  0 
  8 28  1  0  0  0  0 
 13 29  1  0  0  0  0 
 13 30  1  0  0  0  0 
 13 31  1  0  0  0  0 
M  CHG  1   3   1
M  CHG  1  11  -1
M  END
> <cdk:Title>
acetylcarnitine

> <Conformer>
1

> <SuperDrugID>
SD000041

$$$$
