clocinizine
  CDK     0628171802

 56 59  0  0  0  0  0  0  0  0999 V2000
   -2.6001   -4.6284    4.5028 C   0  0  2  0  0  0  0  0  0  0  0  0
   -3.9962   -4.9019    5.0195 N   0  0  1  0  0  0  0  0  0  0  0  0
   -1.5172   -4.8587    5.5199 C   0  0  0  0  0  0  0  0  0  0  0  0
   -2.4156   -3.2603    3.9128 C   0  0  0  0  0  0  0  0  0  0  0  0
   -5.0790   -4.7406    3.9851 C   0  0  2  0  0  0  0  0  0  0  0  0
   -4.1504   -6.2264    5.7166 C   0  0  1  0  0  0  0  0  0  0  0  0
   -1.4309   -4.0897    6.7079 C   0  0  0  0  0  0  0  0  0  0  0  0
   -0.5628   -5.8884    5.3250 C   0  0  0  0  0  0  0  0  0  0  0  0
   -3.0101   -2.1117    4.4942 C   0  0  0  0  0  0  0  0  0  0  0  0
   -1.6397   -3.0892    2.7397 C   0  0  0  0  0  0  0  0  0  0  0  0
   -6.4871   -4.8830    4.6105 C   0  0  2  0  0  0  0  0  0  0  0  0
   -5.5590   -6.3818    6.3369 C   0  0  2  0  0  0  0  0  0  0  0  0
   -0.4256   -4.3387    7.6607 C   0  0  0  0  0  0  0  0  0  0  0  0
    0.4351   -6.1459    6.2808 C   0  0  0  0  0  0  0  0  0  0  0  0
   -2.8521   -0.8423    3.9094 C   0  0  0  0  0  0  0  0  0  0  0  0
   -1.4859   -1.8204    2.1514 C   0  0  0  0  0  0  0  0  0  0  0  0
   -6.6292   -6.1998    5.3065 N   0  0  1  0  0  0  0  0  0  0  0  0
    0.5068   -5.3727    7.4536 C   0  0  0  0  0  0  0  0  0  0  0  0
   -2.0962   -0.6962    2.7330 C   0  0  0  0  0  0  0  0  0  0  0  0
   -8.0235   -6.4377    5.8027 C   0  0  1  0  0  0  0  0  0  0  0  0
    1.7009   -5.6934    8.6107 Cl  0  0  0  0  0  0  0  0  0  0  0  0
   -8.2355   -7.7710    6.3514 C   0  0  0  0  0  0  0  0  0  0  0  0
   -8.2497   -8.8898    5.6025 C   0  0  0  0  0  0  0  0  0  0  0  0
   -8.3635  -10.2081    6.0736 C   0  0  0  0  0  0  0  0  0  0  0  0
   -8.7580  -11.2297    5.1694 C   0  0  0  0  0  0  0  0  0  0  0  0
   -8.0642  -10.5931    7.4087 C   0  0  0  0  0  0  0  0  0  0  0  0
   -8.8229  -12.5780    5.5725 C   0  0  0  0  0  0  0  0  0  0  0  0
   -8.1308  -11.9395    7.8117 C   0  0  0  0  0  0  0  0  0  0  0  0
   -8.4992  -12.9349    6.8923 C   0  0  0  0  0  0  0  0  0  0  0  0
   -2.4619   -5.3507    3.6893 H   0  0  0  0  0  0  0  0  0  0  0  0
   -4.9611   -5.4896    3.1981 H   0  0  0  0  0  0  0  0  0  0  0  0
   -5.0392   -3.7585    3.5078 H   0  0  0  0  0  0  0  0  0  0  0  0
   -3.9709   -7.0477    5.0164 H   0  0  0  0  0  0  0  0  0  0  0  0
   -3.4359   -6.3303    6.5370 H   0  0  0  0  0  0  0  0  0  0  0  0
   -2.1006   -3.3409    6.8949 H   0  0  0  0  0  0  0  0  0  0  0  0
   -0.5887   -6.4700    4.4833 H   0  0  0  0  0  0  0  0  0  0  0  0
   -3.5771   -2.1892    5.3418 H   0  0  0  0  0  0  0  0  0  0  0  0
   -1.1791   -3.8916    2.3009 H   0  0  0  0  0  0  0  0  0  0  0  0
   -7.2240   -4.7954    3.8082 H   0  0  0  0  0  0  0  0  0  0  0  0
   -6.6523   -4.0562    5.3103 H   0  0  0  0  0  0  0  0  0  0  0  0
   -5.6838   -5.6523    7.1424 H   0  0  0  0  0  0  0  0  0  0  0  0
   -5.6136   -7.3823    6.7719 H   0  0  0  0  0  0  0  0  0  0  0  0
   -0.3819   -3.7661    8.5063 H   0  0  0  0  0  0  0  0  0  0  0  0
    1.1028   -6.9021    6.1164 H   0  0  0  0  0  0  0  0  0  0  0  0
   -3.2944   -0.0252    4.3365 H   0  0  0  0  0  0  0  0  0  0  0  0
   -0.9312   -1.7175    1.2999 H   0  0  0  0  0  0  0  0  0  0  0  0
   -1.9942    0.2251    2.3024 H   0  0  0  0  0  0  0  0  0  0  0  0
   -8.2618   -5.6936    6.5700 H   0  0  0  0  0  0  0  0  0  0  0  0
   -8.7349   -6.2898    4.9870 H   0  0  0  0  0  0  0  0  0  0  0  0
   -8.3475   -7.8348    7.3356 H   0  0  0  0  0  0  0  0  0  0  0  0
   -8.1646   -8.7650    4.6188 H   0  0  0  0  0  0  0  0  0  0  0  0
   -9.0031  -11.0020    4.1993 H   0  0  0  0  0  0  0  0  0  0  0  0
   -7.7761   -9.9052    8.1076 H   0  0  0  0  0  0  0  0  0  0  0  0
   -9.1030  -13.2983    4.9036 H   0  0  0  0  0  0  0  0  0  0  0  0
   -7.9040  -12.1990    8.7731 H   0  0  0  0  0  0  0  0  0  0  0  0
   -8.5302  -13.9153    7.1826 H   0  0  0  0  0  0  0  0  0  0  0  0
  1  2  1  0  0  0  0 
  1  3  1  0  0  0  0 
  1  4  1  0  0  0  0 
  2  5  1  0  0  0  0 
  2  6  1  0  0  0  0 
  3  7  2  0  0  0  0 
  3  8  1  0  0  0  0 
  4  9  2  0  0  0  0 
  4 10  1  0  0  0  0 
  5 11  1  0  0  0  0 
  6 12  1  0  0  0  0 
  7 13  1  0  0  0  0 
  8 14  2  0  0  0  0 
  9 15  1  0  0  0  0 
 10 16  2  0  0  0  0 
 11 17  1  0  0  0  0 
 12 17  1  0  0  0  0 
 13 18  2  0  0  0  0 
 14 18  1  0  0  0  0 
 15 19  2  0  0  0  0 
 16 19  1  0  0  0  0 
 17 20  1  0  0  0  0 
 18 21  1  0  0  0  0 
 20 22  1  0  0  0  0 
 22 23  2  0  0  0  0 
 23 24  1  0  0  0  0 
 24 25  2  0  0  0  0 
 24 26  1  0  0  0  0 
 25 27  1  0  0  0  0 
 26 28  2  0  0  0  0 
 27 29  2  0  0  0  0 
 28 29  1  0  0  0  0 
  1 30  1  0  0  0  0 
  5 31  1  0  0  0  0 
  5 32  1  0  0  0  0 
  6 33  1  0  0  0  0 
  6 34  1  0  0  0  0 
  7 35  1  0  0  0  0 
  8 36  1  0  0  0  0 
  9 37  1  0  0  0  0 
 10 38  1  0  0  0  0 
 11 39  1  0  0  0  0 
 11 40  1  0  0  0  0 
 12 41  1  0  0  0  0 
 12 42  1  0  0  0  0 
 13 43  1  0  0  0  0 
 14 44  1  0  0  0  0 
 15 45  1  0  0  0  0 
 16 46  1  0  0  0  0 
 19 47  1  0  0  0  0 
 20 48  1  0  0  0  0 
 20 49  1  0  0  0  0 
 22 50  1  0  0  0  0 
 23 51  1  0  0  0  0 
 25 52  1  0  0  0  0 
 26 53  1  0  0  0  0 
 27 54  1  0  0  0  0 
 28 55  1  0  0  0  0 
 29 56  1  0  0  0  0 
M  END
> <cdk:Title>
clocinizine

> <Conformer>
1

> <SuperDrugID>
SD000606

$$$$
