chloramphenicol succinate
  CDK     0628171802

 43 43  0  0  0  0  0  0  0  0999 V2000
    1.7303   -1.0895    0.2096 C   0  0  2  0  0  0  0  0  0  0  0  0
    3.2734   -1.2325   -0.0040 C   0  0  2  0  0  0  0  0  0  0  0  0
    1.3501    0.2448   -0.1652 N   0  0  0  0  0  0  0  0  0  0  0  0
    1.2143   -1.4238    1.6450 C   0  0  2  0  0  0  0  0  0  0  0  0
    3.5608   -1.0218   -1.3875 O   0  0  0  0  0  0  0  0  0  0  0  0
    3.8723   -2.5487    0.3753 C   0  0  0  0  0  0  0  0  0  0  0  0
    0.1070    0.6586   -0.5389 C   0  0  0  0  0  0  0  0  0  0  0  0
    1.1753   -0.2682    2.5001 O   0  0  0  0  0  0  0  0  0  0  0  0
    3.3599   -3.7639   -0.1342 C   0  0  0  0  0  0  0  0  0  0  0  0
    4.9858   -2.6080    1.2446 C   0  0  0  0  0  0  0  0  0  0  0  0
   -0.1187    2.0810   -0.8624 C   0  0  2  0  0  0  0  0  0  0  0  0
   -0.8496   -0.1486   -0.6081 O   0  0  0  0  0  0  0  0  0  0  0  0
    0.5981   -0.2123    3.7384 C   0  0  0  0  0  0  0  0  0  0  0  0
    3.9093   -4.9986    0.2564 C   0  0  0  0  0  0  0  0  0  0  0  0
    5.5392   -3.8429    1.6258 C   0  0  0  0  0  0  0  0  0  0  0  0
    0.8676    2.5824   -2.2312 Cl  0  0  0  0  0  0  0  0  0  0  0  0
    0.2653    3.0939    0.5242 Cl  0  0  0  0  0  0  0  0  0  0  0  0
    0.5032    1.0790    4.4442 C   0  0  1  0  0  0  0  0  0  0  0  0
    0.1115   -1.2393    4.2686 O   0  0  0  0  0  0  0  0  0  0  0  0
    5.0040   -5.0700    1.1543 C   0  0  0  0  0  0  0  0  0  0  0  0
    1.8155    1.4919    5.1524 C   0  0  2  0  0  0  0  0  0  0  0  0
    5.5056   -6.2563    1.5434 N   0  0  0  0  0  0  0  0  0  0  0  0
    1.6614    2.7636    5.8869 C   0  0  0  0  0  0  0  0  0  0  0  0
    6.3553   -6.3585    2.3401 O   0  0  0  0  0  0  0  0  0  0  0  0
    5.0894   -7.3646    1.0801 O   0  0  0  0  0  0  0  0  0  0  0  0
    2.3647    3.8592    5.5159 O   0  0  0  0  0  0  0  0  0  0  0  0
    0.8949    2.8472    6.8737 O   0  0  0  0  0  0  0  0  0  0  0  0
    1.2502   -1.7862   -0.4852 H   0  0  0  0  0  0  0  0  0  0  0  0
    3.7660   -0.4242    0.5442 H   0  0  0  0  0  0  0  0  0  0  0  0
    2.0424    0.9243   -0.1222 H   0  0  0  0  0  0  0  0  0  0  0  0
    1.8068   -2.2125    2.1115 H   0  0  0  0  0  0  0  0  0  0  0  0
    0.1906   -1.7997    1.5539 H   0  0  0  0  0  0  0  0  0  0  0  0
    4.5360   -1.0796   -1.4685 H   0  0  0  0  0  0  0  0  0  0  0  0
    2.5763   -3.7617   -0.7924 H   0  0  0  0  0  0  0  0  0  0  0  0
    5.4086   -1.7480    1.6064 H   0  0  0  0  0  0  0  0  0  0  0  0
   -1.1628    2.2562   -1.1253 H   0  0  0  0  0  0  0  0  0  0  0  0
    3.4917   -5.8527   -0.1218 H   0  0  0  0  0  0  0  0  0  0  0  0
    6.3426   -3.8352    2.2595 H   0  0  0  0  0  0  0  0  0  0  0  0
    0.2267    1.8436    3.7154 H   0  0  0  0  0  0  0  0  0  0  0  0
   -0.3025    1.0230    5.1803 H   0  0  0  0  0  0  0  0  0  0  0  0
    2.6043    1.6026    4.4049 H   0  0  0  0  0  0  0  0  0  0  0  0
    2.1221    0.7153    5.8585 H   0  0  0  0  0  0  0  0  0  0  0  0
    2.2772    4.6964    6.0164 H   0  0  0  0  0  0  0  0  0  0  0  0
  2  1  1  0  0  0  0 
  1  3  1  0  0  0  0 
  1  4  1  0  0  0  0 
  2  5  1  0  0  0  0 
  2  6  1  0  0  0  0 
  3  7  1  0  0  0  0 
  4  8  1  0  0  0  0 
  6  9  2  0  0  0  0 
  6 10  1  0  0  0  0 
  7 11  1  0  0  0  0 
  7 12  2  0  0  0  0 
  8 13  1  0  0  0  0 
  9 14  1  0  0  0  0 
 10 15  2  0  0  0  0 
 11 16  1  0  0  0  0 
 11 17  1  0  0  0  0 
 13 18  1  0  0  0  0 
 13 19  2  0  0  0  0 
 14 20  2  0  0  0  0 
 15 20  1  0  0  0  0 
 18 21  1  0  0  0  0 
 20 22  1  0  0  0  0 
 21 23  1  0  0  0  0 
 22 24  2  0  0  0  0 
 22 25  1  0  0  0  0 
 23 26  1  0  0  0  0 
 23 27  2  0  0  0  0 
  1 28  1  0  0  0  0 
  2 29  1  0  0  0  0 
  3 30  1  0  0  0  0 
  4 31  1  0  0  0  0 
  4 32  1  0  0  0  0 
  5 33  1  0  0  0  0 
  9 34  1  0  0  0  0 
 10 35  1  0  0  0  0 
 11 36  1  0  0  0  0 
 14 37  1  0  0  0  0 
 15 38  1  0  0  0  0 
 18 39  1  0  0  0  0 
 18 40  1  0  0  0  0 
 21 41  1  0  0  0  0 
 21 42  1  0  0  0  0 
 26 43  1  0  0  0  0 
M  CHG  1  22   1
M  CHG  1  25  -1
M  END
> <cdk:Title>
chloramphenicol succinate

> <Conformer>
1

> <SuperDrugID>
SD003687

$$$$
