nystatin
  CDK     0628171801

140142  0  0  0  0  0  0  0  0999 V2000
   -2.9432    1.1515    5.7441 C   0  0  1  0  0  0  0  0  0  0  0  0
   -4.4352    1.1474    6.2643 C   0  0  2  0  0  0  0  0  0  0  0  0
   -2.8633    1.2259    4.1854 C   0  0  0  0  0  0  0  0  0  0  0  0
   -5.1808    2.5123    6.5488 C   0  0  2  0  0  0  0  0  0  0  0  0
   -4.4203    0.3805    7.4731 O   0  0  0  0  0  0  0  0  0  0  0  0
   -2.0494    2.0653    6.4711 C   0  0  0  0  0  0  0  0  0  0  0  0
   -0.7608    2.2898    6.1522 C   0  0  0  0  0  0  0  0  0  0  0  0
    0.0646    3.0805    6.8767 C   0  0  0  0  0  0  0  0  0  0  0  0
    0.8014    4.0632    6.3289 C   0  0  0  0  0  0  0  0  0  0  0  0
    1.7540    4.8392    7.1164 C   0  0  2  0  0  0  0  0  0  0  0  0
   -6.7179    2.2932    6.8783 C   0  0  1  0  0  0  0  0  0  0  0  0
   -4.9149    3.5975    5.4635 C   0  0  0  0  0  0  0  0  0  0  0  0
   -7.0962    2.9004    8.1296 O   0  0  0  0  0  0  0  0  0  0  0  0
   -7.7538    2.8030    5.8410 C   0  0  0  0  0  0  0  0  0  0  0  0
   -6.7804    2.4814    9.3915 C   0  0  0  0  0  0  0  0  0  0  0  0
   -7.3402    3.2000   10.5554 C   0  0  1  0  0  0  0  0  0  0  0  0
   -6.0528    1.4771    9.5714 O   0  0  0  0  0  0  0  0  0  0  0  0
   -6.5955    4.5137   10.9240 C   0  0  1  0  0  0  0  0  0  0  0  0
   -6.7533    5.6338    9.8548 C   0  0  1  0  0  0  0  0  0  0  0  0
   -7.1167    4.9381   12.1834 O   0  0  0  0  0  0  0  0  0  0  0  0
   -5.9697    6.9515   10.1294 C   0  0  1  0  0  0  0  0  0  0  0  0
   -6.0279    7.9652    8.9450 C   0  0  2  0  0  0  0  0  0  0  0  0
   -6.5079    7.6211   11.2693 O   0  0  0  0  0  0  0  0  0  0  0  0
   -5.2253    7.5808    7.6633 C   0  0  1  0  0  0  0  0  0  0  0  0
   -5.3476    8.6385    6.5225 C   0  0  1  0  0  0  0  0  0  0  0  0
   -3.8385    7.4576    7.9876 O   0  0  0  0  0  0  0  0  0  0  0  0
   -6.6924    8.6789    5.7316 C   0  0  1  0  0  0  0  0  0  0  0  0
   -7.1190    7.4439    4.8577 C   0  0  2  0  0  0  0  0  0  0  0  0
   -6.5974    7.3757    3.3743 C   0  0  1  0  0  0  0  0  0  0  0  0
   -8.5491    7.4768    4.7970 O   0  0  0  0  0  0  0  0  0  0  0  0
   -5.1375    6.8362    3.2465 C   0  0  1  0  0  0  0  0  0  0  0  0
   -7.4525    6.4185    2.6693 O   0  0  0  0  0  0  0  0  0  0  0  0
   -4.3918    6.9712    1.8688 C   0  0  2  0  0  0  0  0  0  0  0  0
   -2.9128    6.4794    1.9682 C   0  0  2  0  0  0  0  0  0  0  0  0
   -4.4622    8.2574    1.1920 O   0  0  0  0  0  0  0  0  0  0  0  0
   -3.6215    9.3707    1.6007 C   0  0  2  0  0  0  0  0  0  0  0  0
   -2.1203    8.9277    1.7598 C   0  0  1  0  0  0  0  0  0  0  0  0
   -1.9445    7.5670    2.4986 C   0  0  1  0  0  0  0  0  0  0  0  0
   -2.0957    7.7312    3.9082 O   0  0  0  0  0  0  0  0  0  0  0  0
   -5.0387    6.0824    0.9559 O   0  0  0  0  0  0  0  0  0  0  0  0
   -4.3470   10.1420    2.7510 C   0  0  1  0  0  0  0  0  0  0  0  0
   -1.4206    8.9185    0.4450 C   0  0  0  0  0  0  0  0  0  0  0  0
   -1.8272    8.1198   -0.5679 O   0  0  0  0  0  0  0  0  0  0  0  0
   -0.4371    9.6642    0.2340 O   0  0  0  0  0  0  0  0  0  0  0  0
   -3.9019   11.5855    3.1807 C   0  0  1  0  0  0  0  0  0  0  0  0
   -4.7786   12.1984    4.1653 O   0  0  0  0  0  0  0  0  0  0  0  0
   -2.6325   11.4761    3.8706 C   0  0  0  0  0  0  0  0  0  0  0  0
   -6.1561   12.4499    3.8106 C   0  0  2  0  0  0  0  0  0  0  0  0
   -6.2550   13.4003    2.7271 O   0  0  0  0  0  0  0  0  0  0  0  0
   -7.6064   13.6085    2.2465 C   0  0  1  0  0  0  0  0  0  0  0  0
   -8.5545   14.0881    3.3931 C   0  0  2  0  0  0  0  0  0  0  0  0
   -8.4303   13.1680    4.6431 C   0  0  1  0  0  0  0  0  0  0  0  0
   -6.9386   12.9738    5.0422 C   0  0  2  0  0  0  0  0  0  0  0  0
   -1.4714   12.0400    3.4868 C   0  0  0  0  0  0  0  0  0  0  0  0
   -0.2788   11.6110    3.9826 C   0  0  0  0  0  0  0  0  0  0  0  0
   -0.0656   11.2665    5.2667 C   0  0  0  0  0  0  0  0  0  0  0  0
    0.9633   10.4634    5.6269 C   0  0  0  0  0  0  0  0  0  0  0  0
    0.7188    9.3558    6.3527 C   0  0  0  0  0  0  0  0  0  0  0  0
    1.6472    8.4079    6.5962 C   0  0  0  0  0  0  0  0  0  0  0  0
    1.4708    7.1477    6.1578 C   0  0  0  0  0  0  0  0  0  0  0  0
    2.4032    6.0586    6.4009 C   0  0  1  0  0  0  0  0  0  0  0  0
   -6.3705   14.1977    5.5085 O   0  0  0  0  0  0  0  0  0  0  0  0
   -9.2107   13.6941    5.7719 N   0  0  1  0  0  0  0  0  0  0  0  0
   -9.9084   14.1111    2.9392 O   0  0  0  0  0  0  0  0  0  0  0  0
   -7.5394   14.6148    1.0730 C   0  0  0  0  0  0  0  0  0  0  0  0
   -2.5386    0.1597    5.9717 H   0  0  0  0  0  0  0  0  0  0  0  0
   -5.0462    0.5721    5.5603 H   0  0  0  0  0  0  0  0  0  0  0  0
   -1.8553    0.9966    3.8339 H   0  0  0  0  0  0  0  0  0  0  0  0
   -3.5249    0.4804    3.7385 H   0  0  0  0  0  0  0  0  0  0  0  0
   -3.1409    2.2087    3.8078 H   0  0  0  0  0  0  0  0  0  0  0  0
   -4.7306    2.9208    7.4593 H   0  0  0  0  0  0  0  0  0  0  0  0
   -5.3555    0.1717    7.6610 H   0  0  0  0  0  0  0  0  0  0  0  0
   -2.4073    2.5176    7.2826 H   0  0  0  0  0  0  0  0  0  0  0  0
   -0.3650    1.8488    5.3569 H   0  0  0  0  0  0  0  0  0  0  0  0
    0.1359    2.9044    7.8533 H   0  0  0  0  0  0  0  0  0  0  0  0
    0.7153    4.2512    5.3522 H   0  0  0  0  0  0  0  0  0  0  0  0
    2.5615    4.1625    7.4076 H   0  0  0  0  0  0  0  0  0  0  0  0
    1.2718    5.1913    8.0326 H   0  0  0  0  0  0  0  0  0  0  0  0
   -6.9299    1.2219    6.9675 H   0  0  0  0  0  0  0  0  0  0  0  0
   -5.4313    4.5217    5.7159 H   0  0  0  0  0  0  0  0  0  0  0  0
   -5.2546    3.2536    4.4852 H   0  0  0  0  0  0  0  0  0  0  0  0
   -3.8566    3.8486    5.3934 H   0  0  0  0  0  0  0  0  0  0  0  0
   -7.7427    3.8943    5.7822 H   0  0  0  0  0  0  0  0  0  0  0  0
   -7.5492    2.3859    4.8556 H   0  0  0  0  0  0  0  0  0  0  0  0
   -8.7603    2.4898    6.1322 H   0  0  0  0  0  0  0  0  0  0  0  0
   -8.3979    3.4166   10.3670 H   0  0  0  0  0  0  0  0  0  0  0  0
   -7.2925    2.5368   11.4242 H   0  0  0  0  0  0  0  0  0  0  0  0
   -5.5350    4.2918   11.0643 H   0  0  0  0  0  0  0  0  0  0  0  0
   -6.3979    5.2311    8.9096 H   0  0  0  0  0  0  0  0  0  0  0  0
   -7.8140    5.8712    9.7370 H   0  0  0  0  0  0  0  0  0  0  0  0
   -6.4655    5.5753   12.5405 H   0  0  0  0  0  0  0  0  0  0  0  0
   -4.9257    6.7233   10.3563 H   0  0  0  0  0  0  0  0  0  0  0  0
   -5.6337    8.9237    9.2971 H   0  0  0  0  0  0  0  0  0  0  0  0
   -7.0755    8.1270    8.6838 H   0  0  0  0  0  0  0  0  0  0  0  0
   -6.1627    7.1368   12.0468 H   0  0  0  0  0  0  0  0  0  0  0  0
   -5.5495    6.6136    7.2847 H   0  0  0  0  0  0  0  0  0  0  0  0
   -5.1914    9.6289    6.9616 H   0  0  0  0  0  0  0  0  0  0  0  0
   -4.5262    8.5019    5.8260 H   0  0  0  0  0  0  0  0  0  0  0  0
   -3.7715    6.6919    8.5954 H   0  0  0  0  0  0  0  0  0  0  0  0
   -7.4768    8.8757    6.4670 H   0  0  0  0  0  0  0  0  0  0  0  0
   -6.6711    9.5585    5.0871 H   0  0  0  0  0  0  0  0  0  0  0  0
   -6.8675    6.5145    5.3680 H   0  0  0  0  0  0  0  0  0  0  0  0
   -6.6338    8.4176    2.9704 H   0  0  0  0  0  0  0  0  0  0  0  0
   -8.8506    7.3736    5.7244 H   0  0  0  0  0  0  0  0  0  0  0  0
   -4.5322    7.3020    4.0070 H   0  0  0  0  0  0  0  0  0  0  0  0
   -5.1614    5.7752    3.5059 H   0  0  0  0  0  0  0  0  0  0  0  0
   -7.2297    6.5180    1.7225 H   0  0  0  0  0  0  0  0  0  0  0  0
   -2.5661    6.1758    0.9771 H   0  0  0  0  0  0  0  0  0  0  0  0
   -2.8434    5.5940    2.6062 H   0  0  0  0  0  0  0  0  0  0  0  0
   -3.6672   10.0720    0.7603 H   0  0  0  0  0  0  0  0  0  0  0  0
   -1.5944    9.6580    2.3587 H   0  0  0  0  0  0  0  0  0  0  0  0
   -0.9195    7.2061    2.3632 H   0  0  0  0  0  0  0  0  0  0  0  0
   -1.3537    8.3100    4.1832 H   0  0  0  0  0  0  0  0  0  0  0  0
   -5.8868    6.5166    0.7296 H   0  0  0  0  0  0  0  0  0  0  0  0
   -5.3632   10.2334    2.3786 H   0  0  0  0  0  0  0  0  0  0  0  0
   -4.3830    9.5203    3.6387 H   0  0  0  0  0  0  0  0  0  0  0  0
   -1.3427    8.1208   -1.4199 H   0  0  0  0  0  0  0  0  0  0  0  0
   -3.8263   12.2276    2.2975 H   0  0  0  0  0  0  0  0  0  0  0  0
   -2.6321   10.8575    4.6523 H   0  0  0  0  0  0  0  0  0  0  0  0
   -6.6318   11.5107    3.5294 H   0  0  0  0  0  0  0  0  0  0  0  0
   -7.9875   12.6644    1.8403 H   0  0  0  0  0  0  0  0  0  0  0  0
   -8.2837   15.1083    3.6795 H   0  0  0  0  0  0  0  0  0  0  0  0
   -8.8560   12.1876    4.4021 H   0  0  0  0  0  0  0  0  0  0  0  0
   -6.8721   12.2410    5.8511 H   0  0  0  0  0  0  0  0  0  0  0  0
   -1.4619   12.6844    2.7309 H   0  0  0  0  0  0  0  0  0  0  0  0
    0.4344   11.4426    3.3058 H   0  0  0  0  0  0  0  0  0  0  0  0
   -0.7474   11.4926    5.9597 H   0  0  0  0  0  0  0  0  0  0  0  0
    1.8798   10.6523    5.2827 H   0  0  0  0  0  0  0  0  0  0  0  0
   -0.2043    9.1787    6.6946 H   0  0  0  0  0  0  0  0  0  0  0  0
    2.4644    8.6598    7.1066 H   0  0  0  0  0  0  0  0  0  0  0  0
    0.6550    6.9289    5.6250 H   0  0  0  0  0  0  0  0  0  0  0  0
    3.2378    6.3981    7.0220 H   0  0  0  0  0  0  0  0  0  0  0  0
    2.8237    5.7466    5.4417 H   0  0  0  0  0  0  0  0  0  0  0  0
   -5.4557   13.9682    5.7753 H   0  0  0  0  0  0  0  0  0  0  0  0
  -10.1897   13.6987    5.4757 H   0  0  0  0  0  0  0  0  0  0  0  0
   -9.1385   13.0050    6.5239 H   0  0  0  0  0  0  0  0  0  0  0  0
  -10.1047   13.1880    2.6725 H   0  0  0  0  0  0  0  0  0  0  0  0
   -6.8744   14.2336    0.2947 H   0  0  0  0  0  0  0  0  0  0  0  0
   -7.1559   15.5780    1.4161 H   0  0  0  0  0  0  0  0  0  0  0  0
   -8.5299   14.7622    0.6367 H   0  0  0  0  0  0  0  0  0  0  0  0
  1  2  1  0  0  0  0 
  1  3  1  0  0  0  0 
  2  4  1  0  0  0  0 
  2  5  1  0  0  0  0 
  1  6  1  0  0  0  0 
  6  7  2  0  0  0  0 
  7  8  1  0  0  0  0 
  8  9  2  0  0  0  0 
  9 10  1  0  0  0  0 
  4 11  1  0  0  0  0 
  4 12  1  0  0  0  0 
 11 13  1  0  0  0  0 
 11 14  1  0  0  0  0 
 13 15  1  0  0  0  0 
 15 16  1  0  0  0  0 
 15 17  2  0  0  0  0 
 16 18  1  0  0  0  0 
 18 19  1  0  0  0  0 
 18 20  1  0  0  0  0 
 19 21  1  0  0  0  0 
 21 22  1  0  0  0  0 
 21 23  1  0  0  0  0 
 22 24  1  0  0  0  0 
 24 25  1  0  0  0  0 
 24 26  1  0  0  0  0 
 25 27  1  0  0  0  0 
 27 28  1  0  0  0  0 
 28 29  1  0  0  0  0 
 28 30  1  0  0  0  0 
 29 31  1  0  0  0  0 
 29 32  1  0  0  0  0 
 33 31  1  0  0  0  0 
 35 36  1  0  0  0  0 
 36 37  1  0  0  0  0 
 37 38  1  0  0  0  0 
 34 38  1  0  0  0  0 
 34 33  1  0  0  0  0 
 33 35  1  0  0  0  0 
 38 39  1  0  0  0  0 
 33 40  1  0  0  0  0 
 36 41  1  0  0  0  0 
 37 42  1  0  0  0  0 
 42 43  1  0  0  0  0 
 42 44  2  0  0  0  0 
 41 45  1  0  0  0  0 
 45 46  1  0  0  0  0 
 45 47  1  0  0  0  0 
 48 46  1  0  0  0  0 
 49 50  1  0  0  0  0 
 50 51  1  0  0  0  0 
 51 52  1  0  0  0  0 
 52 53  1  0  0  0  0 
 48 49  1  0  0  0  0 
 48 53  1  0  0  0  0 
 47 54  2  0  0  0  0 
 54 55  1  0  0  0  0 
 55 56  2  0  0  0  0 
 56 57  1  0  0  0  0 
 57 58  2  0  0  0  0 
 58 59  1  0  0  0  0 
 59 60  2  0  0  0  0 
 60 61  1  0  0  0  0 
 10 61  1  0  0  0  0 
 53 62  1  0  0  0  0 
 52 63  1  0  0  0  0 
 51 64  1  0  0  0  0 
 50 65  1  0  0  0  0 
  1 66  1  0  0  0  0 
  2 67  1  0  0  0  0 
  3 68  1  0  0  0  0 
  3 69  1  0  0  0  0 
  3 70  1  0  0  0  0 
  4 71  1  0  0  0  0 
  5 72  1  0  0  0  0 
  6 73  1  0  0  0  0 
  7 74  1  0  0  0  0 
  8 75  1  0  0  0  0 
  9 76  1  0  0  0  0 
 10 77  1  0  0  0  0 
 10 78  1  0  0  0  0 
 11 79  1  0  0  0  0 
 12 80  1  0  0  0  0 
 12 81  1  0  0  0  0 
 12 82  1  0  0  0  0 
 14 83  1  0  0  0  0 
 14 84  1  0  0  0  0 
 14 85  1  0  0  0  0 
 16 86  1  0  0  0  0 
 16 87  1  0  0  0  0 
 18 88  1  0  0  0  0 
 19 89  1  0  0  0  0 
 19 90  1  0  0  0  0 
 20 91  1  0  0  0  0 
 21 92  1  0  0  0  0 
 22 93  1  0  0  0  0 
 22 94  1  0  0  0  0 
 23 95  1  0  0  0  0 
 24 96  1  0  0  0  0 
 25 97  1  0  0  0  0 
 25 98  1  0  0  0  0 
 26 99  1  0  0  0  0 
 27100  1  0  0  0  0 
 27101  1  0  0  0  0 
 28102  1  0  0  0  0 
 29103  1  0  0  0  0 
 30104  1  0  0  0  0 
 31105  1  0  0  0  0 
 31106  1  0  0  0  0 
 32107  1  0  0  0  0 
 34108  1  0  0  0  0 
 34109  1  0  0  0  0 
 36110  1  0  0  0  0 
 37111  1  0  0  0  0 
 38112  1  0  0  0  0 
 39113  1  0  0  0  0 
 40114  1  0  0  0  0 
 41115  1  0  0  0  0 
 41116  1  0  0  0  0 
 43117  1  0  0  0  0 
 45118  1  0  0  0  0 
 47119  1  0  0  0  0 
 48120  1  0  0  0  0 
 50121  1  0  0  0  0 
 51122  1  0  0  0  0 
 52123  1  0  0  0  0 
 53124  1  0  0  0  0 
 54125  1  0  0  0  0 
 55126  1  0  0  0  0 
 56127  1  0  0  0  0 
 57128  1  0  0  0  0 
 58129  1  0  0  0  0 
 59130  1  0  0  0  0 
 60131  1  0  0  0  0 
 61132  1  0  0  0  0 
 61133  1  0  0  0  0 
 62134  1  0  0  0  0 
 63135  1  0  0  0  0 
 63136  1  0  0  0  0 
 64137  1  0  0  0  0 
 65138  1  0  0  0  0 
 65139  1  0  0  0  0 
 65140  1  0  0  0  0 
M  END
> <cdk:Title>
nystatin

> <Conformer>
1

> <SuperDrugID>
SD001768

$$$$
