flopropione
  CDK     0628171801

 23 23  0  0  0  0  0  0  0  0999 V2000
    2.1965    1.1434    0.3334 C   0  0  0  0  0  0  0  0  0  0  0  0
    1.4127    0.3424   -0.6492 C   0  0  2  0  0  0  0  0  0  0  0  0
    3.2844    0.6325    0.6953 O   0  0  0  0  0  0  0  0  0  0  0  0
    1.8264    2.4265    0.8664 C   0  0  0  0  0  0  0  0  0  0  0  0
   -0.0043   -0.0166   -0.1504 C   0  0  0  0  0  0  0  0  0  0  0  0
    1.0798    3.3826    0.1186 C   0  0  0  0  0  0  0  0  0  0  0  0
    2.2382    2.8014    2.1796 C   0  0  0  0  0  0  0  0  0  0  0  0
    0.6335    3.1353   -1.1386 O   0  0  0  0  0  0  0  0  0  0  0  0
    0.8018    4.6604    0.6456 C   0  0  0  0  0  0  0  0  0  0  0  0
    2.9073    1.9653    3.0211 O   0  0  0  0  0  0  0  0  0  0  0  0
    1.9663    4.0856    2.6905 C   0  0  0  0  0  0  0  0  0  0  0  0
    1.2558    5.0222    1.9237 C   0  0  0  0  0  0  0  0  0  0  0  0
    1.0198    6.2632    2.4242 O   0  0  0  0  0  0  0  0  0  0  0  0
    1.9291   -0.5994   -0.8665 H   0  0  0  0  0  0  0  0  0  0  0  0
    1.3499    0.8725   -1.6002 H   0  0  0  0  0  0  0  0  0  0  0  0
    0.0514   -0.6174    0.7612 H   0  0  0  0  0  0  0  0  0  0  0  0
   -0.5188   -0.5952   -0.9214 H   0  0  0  0  0  0  0  0  0  0  0  0
   -0.5844    0.8866    0.0526 H   0  0  0  0  0  0  0  0  0  0  0  0
   -0.0052    3.8456   -1.3555 H   0  0  0  0  0  0  0  0  0  0  0  0
    0.2757    5.3373    0.0893 H   0  0  0  0  0  0  0  0  0  0  0  0
    2.6218    1.0596    2.7846 H   0  0  0  0  0  0  0  0  0  0  0  0
    2.2889    4.3446    3.6281 H   0  0  0  0  0  0  0  0  0  0  0  0
    0.4286    6.7088    1.7810 H   0  0  0  0  0  0  0  0  0  0  0  0
  1  2  1  0  0  0  0 
  1  3  2  0  0  0  0 
  1  4  1  0  0  0  0 
  2  5  1  0  0  0  0 
  4  6  2  0  0  0  0 
  4  7  1  0  0  0  0 
  6  8  1  0  0  0  0 
  6  9  1  0  0  0  0 
  7 10  1  0  0  0  0 
  7 11  2  0  0  0  0 
  9 12  2  0  0  0  0 
 11 12  1  0  0  0  0 
 12 13  1  0  0  0  0 
 14  2  1  0  0  0  0 
 15  2  1  0  0  0  0 
 16  5  1  0  0  0  0 
 17  5  1  0  0  0  0 
 18  5  1  0  0  0  0 
 19  8  1  0  0  0  0 
 20  9  1  0  0  0  0 
 21 10  1  0  0  0  0 
 22 11  1  0  0  0  0 
 23 13  1  0  0  0  0 
M  END
> <cdk:Title>
flopropione

> <Conformer>
1

> <SuperDrugID>
SD001056

$$$$
