carbocysteine-lysine
  CDK     0628171801

 41 40  0  0  0  0  0  0  0  0999 V2000
   -6.9526   -3.2370    0.9531 C   0  0  1  0  0  0  0  0  0  0  0  0
   -5.5432   -3.1969    1.2226 N   0  0  0  0  0  0  0  0  0  0  0  0
   -7.6217   -4.4932    1.5845 C   0  0  1  0  0  0  0  0  0  0  0  0
   -7.5680   -1.9866    1.4617 C   0  0  0  0  0  0  0  0  0  0  0  0
   -4.6152   -2.5233    0.4829 C   0  0  0  0  0  0  0  0  0  0  0  0
   -7.0747   -5.8487    1.0483 C   0  0  1  0  0  0  0  0  0  0  0  0
   -7.4478   -1.6354    2.7655 O   0  0  0  0  0  0  0  0  0  0  0  0
   -8.1840   -1.2129    0.6936 O   0  0  0  0  0  0  0  0  0  0  0  0
   -3.2075   -2.4775    0.9546 C   0  0  2  0  0  0  0  0  0  0  0  0
   -4.9608   -1.9277   -0.5671 O   0  0  0  0  0  0  0  0  0  0  0  0
   -7.8245   -7.0700    1.6526 C   0  0  1  0  0  0  0  0  0  0  0  0
   -2.2831   -1.5685    0.0969 C   0  0  1  0  0  0  0  0  0  0  0  0
   -2.6766   -3.8488    1.0059 N   0  0  2  0  0  0  0  0  0  0  0  0
   -7.2669   -8.4417    1.1957 C   0  0  1  0  0  0  0  0  0  0  0  0
   -0.6028   -1.3997    0.7834 S   0  0  0  0  0  0  0  0  0  0  0  0
   -8.0356   -9.5334    1.8088 N   0  0  1  0  0  0  0  0  0  0  0  0
    0.2259   -0.3160   -0.4235 C   0  0  1  0  0  0  0  0  0  0  0  0
    1.6543   -0.1966   -0.1031 C   0  0  0  0  0  0  0  0  0  0  0  0
    2.5755   -0.8128   -0.8783 O   0  0  0  0  0  0  0  0  0  0  0  0
    2.0408    0.4775    0.8780 O   0  0  0  0  0  0  0  0  0  0  0  0
   -7.1141   -3.2940   -0.1285 H   0  0  0  0  0  0  0  0  0  0  0  0
   -5.2264   -3.6601    2.0145 H   0  0  0  0  0  0  0  0  0  0  0  0
   -7.4926   -4.4684    2.6700 H   0  0  0  0  0  0  0  0  0  0  0  0
   -8.6949   -4.4497    1.3749 H   0  0  0  0  0  0  0  0  0  0  0  0
   -7.1735   -5.8736   -0.0409 H   0  0  0  0  0  0  0  0  0  0  0  0
   -6.0124   -5.9258    1.2962 H   0  0  0  0  0  0  0  0  0  0  0  0
   -7.8180   -0.7865    3.0906 H   0  0  0  0  0  0  0  0  0  0  0  0
   -3.2189   -2.0846    1.9745 H   0  0  0  0  0  0  0  0  0  0  0  0
   -7.7641   -7.0194    2.7438 H   0  0  0  0  0  0  0  0  0  0  0  0
   -8.8798   -7.0124    1.3698 H   0  0  0  0  0  0  0  0  0  0  0  0
   -2.2043   -1.9729   -0.9145 H   0  0  0  0  0  0  0  0  0  0  0  0
   -2.7136   -0.5670    0.0361 H   0  0  0  0  0  0  0  0  0  0  0  0
   -1.7381   -3.8000    1.4090 H   0  0  0  0  0  0  0  0  0  0  0  0
   -2.5683   -4.1725    0.0425 H   0  0  0  0  0  0  0  0  0  0  0  0
   -7.3380   -8.5367    0.1098 H   0  0  0  0  0  0  0  0  0  0  0  0
   -6.2199   -8.5428    1.4892 H   0  0  0  0  0  0  0  0  0  0  0  0
   -7.6026  -10.4146    1.5244 H   0  0  0  0  0  0  0  0  0  0  0  0
   -7.9143   -9.4567    2.8210 H   0  0  0  0  0  0  0  0  0  0  0  0
    0.1040   -0.7499   -1.4178 H   0  0  0  0  0  0  0  0  0  0  0  0
   -0.2405    0.6708   -0.4172 H   0  0  0  0  0  0  0  0  0  0  0  0
    3.5269   -0.7404   -0.6581 H   0  0  0  0  0  0  0  0  0  0  0  0
  1  2  1  0  0  0  0 
  1  3  1  0  0  0  0 
  1  4  1  0  0  0  0 
  2  5  1  0  0  0  0 
  3  6  1  0  0  0  0 
  4  7  1  0  0  0  0 
  4  8  2  0  0  0  0 
  9  5  1  0  0  0  0 
  5 10  2  0  0  0  0 
  6 11  1  0  0  0  0 
  9 12  1  0  0  0  0 
  9 13  1  0  0  0  0 
 11 14  1  0  0  0  0 
 12 15  1  0  0  0  0 
 14 16  1  0  0  0  0 
 15 17  1  0  0  0  0 
 17 18  1  0  0  0  0 
 18 19  1  0  0  0  0 
 18 20  2  0  0  0  0 
  1 21  1  0  0  0  0 
  2 22  1  0  0  0  0 
  3 23  1  0  0  0  0 
  3 24  1  0  0  0  0 
  6 25  1  0  0  0  0 
  6 26  1  0  0  0  0 
  7 27  1  0  0  0  0 
  9 28  1  0  0  0  0 
 11 29  1  0  0  0  0 
 11 30  1  0  0  0  0 
 12 31  1  0  0  0  0 
 12 32  1  0  0  0  0 
 13 33  1  0  0  0  0 
 13 34  1  0  0  0  0 
 14 35  1  0  0  0  0 
 14 36  1  0  0  0  0 
 16 37  1  0  0  0  0 
 16 38  1  0  0  0  0 
 17 39  1  0  0  0  0 
 17 40  1  0  0  0  0 
 19 41  1  0  0  0  0 
M  END
> <cdk:Title>
carbocysteine-lysine

> <Conformer>
1

> <SuperDrugID>
SD003293

$$$$
