eperisone
  CDK     0628171801

 44 45  0  0  0  0  0  0  0  0999 V2000
    4.6114    1.3963   -0.8465 C   0  0  0  0  0  0  0  0  0  0  0  0
    3.3333    1.2295   -0.0757 C   0  0  1  0  0  0  0  0  0  0  0  0
    5.5700    0.6514   -0.5235 O   0  0  0  0  0  0  0  0  0  0  0  0
    4.8253    2.3690   -1.8884 C   0  0  0  0  0  0  0  0  0  0  0  0
    3.2366   -0.0991    0.7579 C   0  0  1  0  0  0  0  0  0  0  0  0
    3.0992    2.4512    0.8643 C   0  0  0  0  0  0  0  0  0  0  0  0
    3.7856    3.1866   -2.4068 C   0  0  0  0  0  0  0  0  0  0  0  0
    6.1196    2.5564   -2.4430 C   0  0  0  0  0  0  0  0  0  0  0  0
    3.5450   -1.3804    0.0291 N   0  0  2  0  0  0  0  0  0  0  0  0
    4.0304    4.1560   -3.3971 C   0  0  0  0  0  0  0  0  0  0  0  0
    6.3703    3.5300   -3.4278 C   0  0  0  0  0  0  0  0  0  0  0  0
    2.6076   -1.6799   -1.1022 C   0  0  2  0  0  0  0  0  0  0  0  0
    3.7035   -2.5445    0.9681 C   0  0  1  0  0  0  0  0  0  0  0  0
    5.3293    4.3491   -3.9132 C   0  0  0  0  0  0  0  0  0  0  0  0
    2.9896   -2.9746   -1.8635 C   0  0  2  0  0  0  0  0  0  0  0  0
    4.1083   -3.8517    0.2379 C   0  0  1  0  0  0  0  0  0  0  0  0
    5.5870    5.3948   -4.9389 C   0  0  2  0  0  0  0  0  0  0  0  0
    3.1113   -4.1779   -0.8989 C   0  0  1  0  0  0  0  0  0  0  0  0
    5.2147    4.9205   -6.3608 C   0  0  0  0  0  0  0  0  0  0  0  0
    2.5047    1.2079   -0.7867 H   0  0  0  0  0  0  0  0  0  0  0  0
    3.9354   -0.0030    1.5955 H   0  0  0  0  0  0  0  0  0  0  0  0
    2.2311   -0.1698    1.1856 H   0  0  0  0  0  0  0  0  0  0  0  0
    2.1313    2.3593    1.3635 H   0  0  0  0  0  0  0  0  0  0  0  0
    3.8832    2.5018    1.6243 H   0  0  0  0  0  0  0  0  0  0  0  0
    3.0980    3.3943    0.3145 H   0  0  0  0  0  0  0  0  0  0  0  0
    2.8262    3.0963   -2.0729 H   0  0  0  0  0  0  0  0  0  0  0  0
    6.9114    1.9878   -2.1292 H   0  0  0  0  0  0  0  0  0  0  0  0
    3.2530    4.7285   -3.7386 H   0  0  0  0  0  0  0  0  0  0  0  0
    7.3218    3.6385   -3.7874 H   0  0  0  0  0  0  0  0  0  0  0  0
    2.6372   -0.8709   -1.8341 H   0  0  0  0  0  0  0  0  0  0  0  0
    1.5817   -1.7670   -0.7298 H   0  0  0  0  0  0  0  0  0  0  0  0
    4.4856   -2.3246    1.7007 H   0  0  0  0  0  0  0  0  0  0  0  0
    2.7717   -2.7183    1.5168 H   0  0  0  0  0  0  0  0  0  0  0  0
    3.9462   -2.8242   -2.3726 H   0  0  0  0  0  0  0  0  0  0  0  0
    2.2342   -3.1906   -2.6231 H   0  0  0  0  0  0  0  0  0  0  0  0
    5.1111   -3.7352   -0.1829 H   0  0  0  0  0  0  0  0  0  0  0  0
    4.1363   -4.6836    0.9478 H   0  0  0  0  0  0  0  0  0  0  0  0
    6.6425    5.6826   -4.9359 H   0  0  0  0  0  0  0  0  0  0  0  0
    5.0127    6.2942   -4.6969 H   0  0  0  0  0  0  0  0  0  0  0  0
    2.1302   -4.4130   -0.4738 H   0  0  0  0  0  0  0  0  0  0  0  0
    3.4569   -5.0554   -1.4511 H   0  0  0  0  0  0  0  0  0  0  0  0
    5.3912    5.7269   -7.0759 H   0  0  0  0  0  0  0  0  0  0  0  0
    4.1604    4.6384   -6.4080 H   0  0  0  0  0  0  0  0  0  0  0  0
    5.8289    4.0626   -6.6453 H   0  0  0  0  0  0  0  0  0  0  0  0
  2  1  1  0  0  0  0 
  1  3  2  0  0  0  0 
  1  4  1  0  0  0  0 
  2  5  1  0  0  0  0 
  2  6  1  0  0  0  0 
  4  7  2  0  0  0  0 
  4  8  1  0  0  0  0 
  5  9  1  0  0  0  0 
  7 10  1  0  0  0  0 
  8 11  2  0  0  0  0 
  9 12  1  0  0  0  0 
  9 13  1  0  0  0  0 
 10 14  2  0  0  0  0 
 11 14  1  0  0  0  0 
 12 15  1  0  0  0  0 
 13 16  1  0  0  0  0 
 14 17  1  0  0  0  0 
 15 18  1  0  0  0  0 
 16 18  1  0  0  0  0 
 17 19  1  0  0  0  0 
 20  2  1  0  0  0  0 
 21  5  1  0  0  0  0 
 22  5  1  0  0  0  0 
 23  6  1  0  0  0  0 
 24  6  1  0  0  0  0 
 25  6  1  0  0  0  0 
 26  7  1  0  0  0  0 
 27  8  1  0  0  0  0 
 28 10  1  0  0  0  0 
 29 11  1  0  0  0  0 
 30 12  1  0  0  0  0 
 31 12  1  0  0  0  0 
 32 13  1  0  0  0  0 
 33 13  1  0  0  0  0 
 34 15  1  0  0  0  0 
 35 15  1  0  0  0  0 
 36 16  1  0  0  0  0 
 37 16  1  0  0  0  0 
 38 17  1  0  0  0  0 
 39 17  1  0  0  0  0 
 40 18  1  0  0  0  0 
 41 18  1  0  0  0  0 
 42 19  1  0  0  0  0 
 43 19  1  0  0  0  0 
 44 19  1  0  0  0  0 
M  END
> <cdk:Title>
eperisone

> <Conformer>
1

> <SuperDrugID>
SD000909

$$$$
