thiamylal
  CDK     0628171801

 35 35  0  0  0  0  0  0  0  0999 V2000
    1.3092   -1.2297   -2.6547 C   0  0  1  0  0  0  0  0  0  0  0  0
    1.2927   -0.4630   -1.2791 C   0  0  1  0  0  0  0  0  0  0  0  0
    0.7268   -0.3253   -3.7915 C   0  0  0  0  0  0  0  0  0  0  0  0
    2.7140   -1.9101   -2.9876 C   0  0  1  0  0  0  0  0  0  0  0  0
   -0.1217   -0.0382   -0.7880 C   0  0  1  0  0  0  0  0  0  0  0  0
    2.7605   -2.7119   -4.3515 C   0  0  1  0  0  0  0  0  0  0  0  0
    3.7998   -0.8628   -3.0488 C   0  0  0  0  0  0  0  0  0  0  0  0
    3.0608   -2.9014   -1.8989 C   0  0  0  0  0  0  0  0  0  0  0  0
   -0.1528    0.4442    0.6793 C   0  0  0  0  0  0  0  0  0  0  0  0
    1.6964   -3.6942   -4.5431 C   0  0  0  0  0  0  0  0  0  0  0  0
    3.7486    0.0875   -3.8629 O   0  0  0  0  0  0  0  0  0  0  0  0
    4.8978   -0.8942   -2.2486 N   0  0  0  0  0  0  0  0  0  0  0  0
    2.2901   -3.8456   -1.6084 O   0  0  0  0  0  0  0  0  0  0  0  0
    4.2084   -2.8305   -1.1748 N   0  0  0  0  0  0  0  0  0  0  0  0
    1.8890   -5.0179   -4.6028 C   0  0  0  0  0  0  0  0  0  0  0  0
    5.0951   -1.8594   -1.3584 C   0  0  0  0  0  0  0  0  0  0  0  0
    6.5236   -1.8479   -0.4361 S   0  0  0  0  0  0  0  0  0  0  0  0
    0.5865   -2.0452   -2.5461 H   0  0  0  0  0  0  0  0  0  0  0  0
    1.7204   -1.1073   -0.5080 H   0  0  0  0  0  0  0  0  0  0  0  0
    1.9266    0.4260   -1.3470 H   0  0  0  0  0  0  0  0  0  0  0  0
    0.7928   -0.8005   -4.7681 H   0  0  0  0  0  0  0  0  0  0  0  0
   -0.3326   -0.1292   -3.6141 H   0  0  0  0  0  0  0  0  0  0  0  0
    1.2458    0.6323   -3.8417 H   0  0  0  0  0  0  0  0  0  0  0  0
   -0.5023    0.7711   -1.4154 H   0  0  0  0  0  0  0  0  0  0  0  0
   -0.8004   -0.8897   -0.8758 H   0  0  0  0  0  0  0  0  0  0  0  0
    2.7043   -2.0224   -5.1975 H   0  0  0  0  0  0  0  0  0  0  0  0
    3.7416   -3.1945   -4.4459 H   0  0  0  0  0  0  0  0  0  0  0  0
   -1.1692    0.7429    0.9445 H   0  0  0  0  0  0  0  0  0  0  0  0
    0.5097    1.3006    0.8212 H   0  0  0  0  0  0  0  0  0  0  0  0
    0.1571   -0.3624    1.3467 H   0  0  0  0  0  0  0  0  0  0  0  0
    0.7656   -3.3609   -4.6396 H   0  0  0  0  0  0  0  0  0  0  0  0
    5.5628   -0.1929   -2.3414 H   0  0  0  0  0  0  0  0  0  0  0  0
    4.3769   -3.5086   -0.5005 H   0  0  0  0  0  0  0  0  0  0  0  0
    2.7942   -5.4120   -4.5134 H   0  0  0  0  0  0  0  0  0  0  0  0
    1.1186   -5.6283   -4.7350 H   0  0  0  0  0  0  0  0  0  0  0  0
  1  2  1  0  0  0  0 
  1  3  1  0  0  0  0 
  1  4  1  0  0  0  0 
  2  5  1  0  0  0  0 
  4  6  1  0  0  0  0 
  4  7  1  0  0  0  0 
  4  8  1  0  0  0  0 
  5  9  1  0  0  0  0 
  6 10  1  0  0  0  0 
  7 11  2  0  0  0  0 
  7 12  1  0  0  0  0 
  8 13  2  0  0  0  0 
  8 14  1  0  0  0  0 
 10 15  2  0  0  0  0 
 12 16  1  0  0  0  0 
 14 16  1  0  0  0  0 
 16 17  2  0  0  0  0 
 18  1  1  0  0  0  0 
 19  2  1  0  0  0  0 
 20  2  1  0  0  0  0 
 21  3  1  0  0  0  0 
 22  3  1  0  0  0  0 
 23  3  1  0  0  0  0 
 24  5  1  0  0  0  0 
 25  5  1  0  0  0  0 
 26  6  1  0  0  0  0 
 27  6  1  0  0  0  0 
 28  9  1  0  0  0  0 
 29  9  1  0  0  0  0 
 30  9  1  0  0  0  0 
 31 10  1  0  0  0  0 
 32 12  1  0  0  0  0 
 33 14  1  0  0  0  0 
 34 15  1  0  0  0  0 
 35 15  1  0  0  0  0 
M  END
> <cdk:Title>
thiamylal

> <Conformer>
1

> <SuperDrugID>
SD002362

$$$$
