troglitazone
  CDK     0628171801

 58 61  0  0  0  0  0  0  0  0999 V2000
    3.3362    9.0548    6.6802 C   0  0  0  0  0  0  0  0  0  0  0  0
    2.7799    8.0185    7.6055 C   0  0  0  0  0  0  0  0  0  0  0  0
    3.3418    6.7131    7.6463 C   0  0  0  0  0  0  0  0  0  0  0  0
    1.6719    8.3322    8.4480 C   0  0  0  0  0  0  0  0  0  0  0  0
    2.7777    5.7055    8.4779 C   0  0  0  0  0  0  0  0  0  0  0  0
    4.4655    6.4755    6.8682 O   0  0  0  0  0  0  0  0  0  0  0  0
    1.1300    9.7241    8.5154 C   0  0  0  0  0  0  0  0  0  0  0  0
    1.0944    7.3100    9.2424 C   0  0  0  0  0  0  0  0  0  0  0  0
    3.4070    4.3487    8.5115 C   0  0  1  0  0  0  0  0  0  0  0  0
    1.6118    5.9899    9.2443 C   0  0  0  0  0  0  0  0  0  0  0  0
    4.8671    5.1237    6.5501 C   0  0  1  0  0  0  0  0  0  0  0  0
    0.0365    7.6139   10.0453 O   0  0  0  0  0  0  0  0  0  0  0  0
    4.8060    4.2748    7.8564 C   0  0  1  0  0  0  0  0  0  0  0  0
    0.9501    4.9213   10.0536 C   0  0  0  0  0  0  0  0  0  0  0  0
    3.9808    4.5317    5.4040 C   0  0  2  0  0  0  0  0  0  0  0  0
    6.3523    5.2140    6.0839 C   0  0  0  0  0  0  0  0  0  0  0  0
    4.0874    5.3292    4.2047 O   0  0  0  0  0  0  0  0  0  0  0  0
    3.5878    4.7235    3.0819 C   0  0  0  0  0  0  0  0  0  0  0  0
    4.4278    3.9009    2.3056 C   0  0  0  0  0  0  0  0  0  0  0  0
    2.2578    4.9386    2.6693 C   0  0  0  0  0  0  0  0  0  0  0  0
    3.9437    3.2921    1.1336 C   0  0  0  0  0  0  0  0  0  0  0  0
    1.7731    4.3302    1.4946 C   0  0  0  0  0  0  0  0  0  0  0  0
    2.6099    3.4989    0.7110 C   0  0  0  0  0  0  0  0  0  0  0  0
    2.1033    2.8501   -0.5279 C   0  0  2  0  0  0  0  0  0  0  0  0
    2.4052    3.6550   -1.7273 C   0  0  0  0  0  0  0  0  0  0  0  0
    1.5896    4.5860   -2.3950 C   0  0  0  0  0  0  0  0  0  0  0  0
    3.9007    3.6265   -2.6470 S   0  0  0  0  0  0  0  0  0  0  0  0
    0.3362    4.9092   -2.0038 O   0  0  0  0  0  0  0  0  0  0  0  0
    2.1282    5.1776   -3.4952 N   0  0  0  0  0  0  0  0  0  0  0  0
    3.3753    4.7979   -3.8414 C   0  0  0  0  0  0  0  0  0  0  0  0
    4.0282    5.1984   -4.8312 O   0  0  0  0  0  0  0  0  0  0  0  0
    3.5892    9.9666    7.2222 H   0  0  0  0  0  0  0  0  0  0  0  0
    2.5927    9.2941    5.9183 H   0  0  0  0  0  0  0  0  0  0  0  0
    4.2400    8.7416    6.1603 H   0  0  0  0  0  0  0  0  0  0  0  0
    0.2505    9.8212    9.1515 H   0  0  0  0  0  0  0  0  0  0  0  0
    1.8924   10.3913    8.9216 H   0  0  0  0  0  0  0  0  0  0  0  0
    0.8425   10.0720    7.5224 H   0  0  0  0  0  0  0  0  0  0  0  0
    3.5186    4.0058    9.5441 H   0  0  0  0  0  0  0  0  0  0  0  0
    2.7404    3.6500    8.0005 H   0  0  0  0  0  0  0  0  0  0  0  0
   -0.7298    7.1728    9.6263 H   0  0  0  0  0  0  0  0  0  0  0  0
    5.5375    4.6647    8.5743 H   0  0  0  0  0  0  0  0  0  0  0  0
    5.0637    3.2309    7.6554 H   0  0  0  0  0  0  0  0  0  0  0  0
    1.5980    4.6216   10.8787 H   0  0  0  0  0  0  0  0  0  0  0  0
    0.7450    4.0498    9.4309 H   0  0  0  0  0  0  0  0  0  0  0  0
   -0.0036    5.2294   10.4795 H   0  0  0  0  0  0  0  0  0  0  0  0
    2.9323    4.5171    5.7095 H   0  0  0  0  0  0  0  0  0  0  0  0
    4.2988    3.4984    5.2262 H   0  0  0  0  0  0  0  0  0  0  0  0
    6.4491    5.8535    5.2043 H   0  0  0  0  0  0  0  0  0  0  0  0
    6.7394    4.2223    5.8365 H   0  0  0  0  0  0  0  0  0  0  0  0
    6.9782    5.6409    6.8726 H   0  0  0  0  0  0  0  0  0  0  0  0
    5.3950    3.7425    2.5949 H   0  0  0  0  0  0  0  0  0  0  0  0
    1.6413    5.5378    3.2221 H   0  0  0  0  0  0  0  0  0  0  0  0
    4.5717    2.6937    0.5909 H   0  0  0  0  0  0  0  0  0  0  0  0
    0.8035    4.4987    1.2148 H   0  0  0  0  0  0  0  0  0  0  0  0
    1.0266    2.6878   -0.4536 H   0  0  0  0  0  0  0  0  0  0  0  0
    2.5497    1.8594   -0.6476 H   0  0  0  0  0  0  0  0  0  0  0  0
    0.0649    4.2088   -1.3775 H   0  0  0  0  0  0  0  0  0  0  0  0
    1.6364    5.8383   -4.0092 H   0  0  0  0  0  0  0  0  0  0  0  0
  1  2  1  0  0  0  0 
  2  3  2  0  0  0  0 
  2  4  1  0  0  0  0 
  3  5  1  0  0  0  0 
  3  6  1  0  0  0  0 
  4  7  1  0  0  0  0 
  4  8  2  0  0  0  0 
  5  9  1  0  0  0  0 
  5 10  2  0  0  0  0 
 11  6  1  0  0  0  0 
  8 10  1  0  0  0  0 
  8 12  1  0  0  0  0 
  9 13  1  0  0  0  0 
 10 14  1  0  0  0  0 
 11 13  1  0  0  0  0 
 11 15  1  0  0  0  0 
 11 16  1  0  0  0  0 
 15 17  1  0  0  0  0 
 17 18  1  0  0  0  0 
 18 19  2  0  0  0  0 
 18 20  1  0  0  0  0 
 19 21  1  0  0  0  0 
 20 22  2  0  0  0  0 
 21 23  2  0  0  0  0 
 22 23  1  0  0  0  0 
 23 24  1  0  0  0  0 
 25 24  1  0  0  0  0 
 25 26  2  0  0  0  0 
 25 27  1  0  0  0  0 
 26 28  1  0  0  0  0 
 26 29  1  0  0  0  0 
 27 30  1  0  0  0  0 
 29 30  1  0  0  0  0 
 30 31  2  0  0  0  0 
 32  1  1  0  0  0  0 
 33  1  1  0  0  0  0 
 34  1  1  0  0  0  0 
 35  7  1  0  0  0  0 
 36  7  1  0  0  0  0 
 37  7  1  0  0  0  0 
 38  9  1  0  0  0  0 
 39  9  1  0  0  0  0 
 40 12  1  0  0  0  0 
 41 13  1  0  0  0  0 
 42 13  1  0  0  0  0 
 43 14  1  0  0  0  0 
 44 14  1  0  0  0  0 
 45 14  1  0  0  0  0 
 46 15  1  0  0  0  0 
 47 15  1  0  0  0  0 
 48 16  1  0  0  0  0 
 49 16  1  0  0  0  0 
 50 16  1  0  0  0  0 
 51 19  1  0  0  0  0 
 52 20  1  0  0  0  0 
 53 21  1  0  0  0  0 
 54 22  1  0  0  0  0 
 55 24  1  0  0  0  0 
 56 24  1  0  0  0  0 
 57 28  1  0  0  0  0 
 58 29  1  0  0  0  0 
M  END
> <cdk:Title>
troglitazone

> <Conformer>
1

> <SuperDrugID>
SD002496

$$$$
