pyrazinamide
  CDK     0628171801

 14 14  0  0  0  0  0  0  0  0999 V2000
    4.0663    0.8199   -0.1935 N   0  0  0  0  0  0  0  0  0  0  0  0
    3.5921    2.0766   -0.1135 C   0  0  0  0  0  0  0  0  0  0  0  0
    4.4394    2.9980   -0.0534 O   0  0  0  0  0  0  0  0  0  0  0  0
    2.2030    2.3432   -0.0994 C   0  0  0  0  0  0  0  0  0  0  0  0
    1.3129    1.3130   -0.1724 N   0  0  0  0  0  0  0  0  0  0  0  0
   -0.0330    1.4829   -0.1627 C   0  0  0  0  0  0  0  0  0  0  0  0
   -0.5459    2.7871   -0.0720 C   0  0  0  0  0  0  0  0  0  0  0  0
    0.3238    3.8262    0.0005 N   0  0  0  0  0  0  0  0  0  0  0  0
    1.6705    3.6518   -0.0108 C   0  0  0  0  0  0  0  0  0  0  0  0
    5.0240    0.6604   -0.2019 H   0  0  0  0  0  0  0  0  0  0  0  0
    3.4533    0.0696   -0.2438 H   0  0  0  0  0  0  0  0  0  0  0  0
   -0.6558    0.6750   -0.2199 H   0  0  0  0  0  0  0  0  0  0  0  0
   -1.5530    2.9569   -0.0612 H   0  0  0  0  0  0  0  0  0  0  0  0
    2.2753    4.4728    0.0448 H   0  0  0  0  0  0  0  0  0  0  0  0
  1  2  1  0  0  0  0 
  2  3  2  0  0  0  0 
  2  4  1  0  0  0  0 
  4  5  2  0  0  0  0 
  5  6  1  0  0  0  0 
  6  7  2  0  0  0  0 
  7  8  1  0  0  0  0 
  8  9  2  0  0  0  0 
  4  9  1  0  0  0  0 
  1 10  1  0  0  0  0 
  1 11  1  0  0  0  0 
  6 12  1  0  0  0  0 
  7 13  1  0  0  0  0 
  9 14  1  0  0  0  0 
M  END
> <cdk:Title>
pyrazinamide

> <Conformer>
1

> <SuperDrugID>
SD002092

$$$$
