olmesartan medoxomil
  CDK     0628171801

 71 75  0  0  0  0  0  0  0  0999 V2000
   -2.1755   -4.2895   -7.1629 C   0  0  0  0  0  0  0  0  0  0  0  0
   -2.8077   -5.1195   -6.1780 C   0  0  0  0  0  0  0  0  0  0  0  0
   -3.0094   -6.5087   -6.4046 C   0  0  0  0  0  0  0  0  0  0  0  0
   -2.5646   -7.1545   -7.5708 C   0  0  0  0  0  0  0  0  0  0  0  0
   -1.8752   -6.3268   -8.5303 C   0  0  0  0  0  0  0  0  0  0  0  0
   -1.6601   -4.8770   -8.3432 C   0  0  0  0  0  0  0  0  0  0  0  0
   -2.0642   -2.8783   -7.0247 C   0  0  0  0  0  0  0  0  0  0  0  0
   -3.2078   -4.6016   -4.9128 C   0  0  0  0  0  0  0  0  0  0  0  0
   -4.5628   -4.5925   -4.5114 C   0  0  0  0  0  0  0  0  0  0  0  0
   -4.9381   -4.0381   -3.2724 C   0  0  0  0  0  0  0  0  0  0  0  0
   -3.9740   -3.4665   -2.4080 C   0  0  0  0  0  0  0  0  0  0  0  0
   -2.6178   -3.5058   -2.8021 C   0  0  0  0  0  0  0  0  0  0  0  0
   -2.2385   -4.0685   -4.0322 C   0  0  0  0  0  0  0  0  0  0  0  0
   -4.3529   -2.8497   -1.1049 C   0  0  2  0  0  0  0  0  0  0  0  0
   -4.0661   -1.4249   -1.0705 N   0  0  0  0  0  0  0  0  0  0  0  0
   -2.9499   -0.7826   -0.6040 C   0  0  0  0  0  0  0  0  0  0  0  0
   -3.1175    0.5870   -0.9069 C   0  0  0  0  0  0  0  0  0  0  0  0
   -4.3216    0.7179   -1.4820 N   0  0  0  0  0  0  0  0  0  0  0  0
   -4.9034   -0.4798   -1.5694 C   0  0  0  0  0  0  0  0  0  0  0  0
   -1.8482   -1.3803    0.0810 C   0  0  0  0  0  0  0  0  0  0  0  0
   -6.2746   -0.6267   -2.1198 C   0  0  1  0  0  0  0  0  0  0  0  0
   -2.2551    1.7992   -0.7031 C   0  0  2  0  0  0  0  0  0  0  0  0
   -1.0567    1.8033   -1.6901 C   0  0  0  0  0  0  0  0  0  0  0  0
   -1.8289    2.0286    0.7752 C   0  0  0  0  0  0  0  0  0  0  0  0
   -3.0269    2.9592   -1.0473 O   0  0  0  0  0  0  0  0  0  0  0  0
   -0.5837   -0.8625    0.0427 O   0  0  0  0  0  0  0  0  0  0  0  0
   -2.0250   -2.3990    0.7854 O   0  0  0  0  0  0  0  0  0  0  0  0
    0.5846   -1.3459    0.7228 C   0  0  2  0  0  0  0  0  0  0  0  0
    1.5640   -0.2528    0.8342 C   0  0  0  0  0  0  0  0  0  0  0  0
    1.7490    0.4750    1.9586 O   0  0  0  0  0  0  0  0  0  0  0  0
    2.7017    1.3894    1.6748 C   0  0  0  0  0  0  0  0  0  0  0  0
    3.1354    1.2607    0.4024 O   0  0  0  0  0  0  0  0  0  0  0  0
    2.4351    0.2399   -0.1402 C   0  0  0  0  0  0  0  0  0  0  0  0
    3.1253    2.2445    2.4828 O   0  0  0  0  0  0  0  0  0  0  0  0
    2.6124   -0.2367   -1.5197 C   0  0  0  0  0  0  0  0  0  0  0  0
   -7.3528   -0.6182   -1.0011 C   0  0  2  0  0  0  0  0  0  0  0  0
   -8.7878   -0.8431   -1.5302 C   0  0  0  0  0  0  0  0  0  0  0  0
   -2.9067   -2.0677   -6.3654 N   0  0  0  0  0  0  0  0  0  0  0  0
   -2.4570   -0.8593   -6.4770 N   0  0  0  0  0  0  0  0  0  0  0  0
   -1.3698   -0.8604   -7.1817 N   0  0  0  0  0  0  0  0  0  0  0  0
   -1.1166   -2.0771   -7.5282 N   0  0  0  0  0  0  0  0  0  0  0  0
   -3.4788   -7.0828   -5.6993 H   0  0  0  0  0  0  0  0  0  0  0  0
   -2.7136   -8.1537   -7.7265 H   0  0  0  0  0  0  0  0  0  0  0  0
   -1.5487   -6.8860   -9.3847 H   0  0  0  0  0  0  0  0  0  0  0  0
   -1.1723   -4.3398   -9.0640 H   0  0  0  0  0  0  0  0  0  0  0  0
   -5.2862   -4.9796   -5.1232 H   0  0  0  0  0  0  0  0  0  0  0  0
   -5.9266   -4.0505   -3.0095 H   0  0  0  0  0  0  0  0  0  0  0  0
   -1.8896   -3.1248   -2.1948 H   0  0  0  0  0  0  0  0  0  0  0  0
   -1.2465   -4.0778   -4.2835 H   0  0  0  0  0  0  0  0  0  0  0  0
   -3.8386   -3.3980   -0.3210 H   0  0  0  0  0  0  0  0  0  0  0  0
   -5.4100   -3.0151   -0.8902 H   0  0  0  0  0  0  0  0  0  0  0  0
   -6.4752    0.2068   -2.7995 H   0  0  0  0  0  0  0  0  0  0  0  0
   -6.3424   -1.5409   -2.7089 H   0  0  0  0  0  0  0  0  0  0  0  0
   -0.4865    2.7308   -1.6064 H   0  0  0  0  0  0  0  0  0  0  0  0
   -1.4130    1.7149   -2.7192 H   0  0  0  0  0  0  0  0  0  0  0  0
   -0.3806    0.9792   -1.4992 H   0  0  0  0  0  0  0  0  0  0  0  0
   -1.3357    2.9981    0.8841 H   0  0  0  0  0  0  0  0  0  0  0  0
   -2.7041    2.0194    1.4289 H   0  0  0  0  0  0  0  0  0  0  0  0
   -1.1354    1.2702    1.1251 H   0  0  0  0  0  0  0  0  0  0  0  0
   -2.4178    3.7218   -0.9534 H   0  0  0  0  0  0  0  0  0  0  0  0
    1.0144   -2.1926    0.1857 H   0  0  0  0  0  0  0  0  0  0  0  0
    0.3243   -1.6743    1.7312 H   0  0  0  0  0  0  0  0  0  0  0  0
    2.8746   -1.2954   -1.5194 H   0  0  0  0  0  0  0  0  0  0  0  0
    3.4147    0.3205   -2.0074 H   0  0  0  0  0  0  0  0  0  0  0  0
    1.6933   -0.0941   -2.0855 H   0  0  0  0  0  0  0  0  0  0  0  0
   -7.3261    0.3447   -0.4830 H   0  0  0  0  0  0  0  0  0  0  0  0
   -7.1349   -1.3992   -0.2696 H   0  0  0  0  0  0  0  0  0  0  0  0
   -8.8657   -1.8200   -2.0102 H   0  0  0  0  0  0  0  0  0  0  0  0
   -9.4989   -0.8071   -0.7017 H   0  0  0  0  0  0  0  0  0  0  0  0
   -9.0573   -0.0685   -2.2497 H   0  0  0  0  0  0  0  0  0  0  0  0
   -0.3567   -2.3608   -8.0604 H   0  0  0  0  0  0  0  0  0  0  0  0
  1  2  2  0  0  0  0 
  1  6  1  0  0  0  0 
  2  3  1  0  0  0  0 
  3  4  2  0  0  0  0 
  4  5  1  0  0  0  0 
  5  6  2  0  0  0  0 
  1  7  1  0  0  0  0 
  2  8  1  0  0  0  0 
  9 10  1  0  0  0  0 
 10 11  2  0  0  0  0 
 11 12  1  0  0  0  0 
 12 13  2  0  0  0  0 
  8  9  2  0  0  0  0 
  8 13  1  0  0  0  0 
 11 14  1  0  0  0  0 
 14 15  1  0  0  0  0 
 16 17  2  0  0  0  0 
 17 18  1  0  0  0  0 
 18 19  2  0  0  0  0 
 15 16  1  0  0  0  0 
 15 19  1  0  0  0  0 
 16 20  1  0  0  0  0 
 19 21  1  0  0  0  0 
 17 22  1  0  0  0  0 
 22 23  1  0  0  0  0 
 22 24  1  0  0  0  0 
 22 25  1  0  0  0  0 
 20 26  1  0  0  0  0 
 20 27  2  0  0  0  0 
 26 28  1  0  0  0  0 
 28 29  1  0  0  0  0 
 30 31  1  0  0  0  0 
 31 32  1  0  0  0  0 
 32 33  1  0  0  0  0 
 29 30  1  0  0  0  0 
 29 33  2  0  0  0  0 
 31 34  2  0  0  0  0 
 33 35  1  0  0  0  0 
 21 36  1  0  0  0  0 
 36 37  1  0  0  0  0 
 38 39  1  0  0  0  0 
 39 40  2  0  0  0  0 
 40 41  1  0  0  0  0 
  7 38  2  0  0  0  0 
  7 41  1  0  0  0  0 
 42  3  1  0  0  0  0 
 43  4  1  0  0  0  0 
 44  5  1  0  0  0  0 
 45  6  1  0  0  0  0 
 46  9  1  0  0  0  0 
 47 10  1  0  0  0  0 
 48 12  1  0  0  0  0 
 49 13  1  0  0  0  0 
 50 14  1  0  0  0  0 
 51 14  1  0  0  0  0 
 52 21  1  0  0  0  0 
 53 21  1  0  0  0  0 
 54 23  1  0  0  0  0 
 55 23  1  0  0  0  0 
 56 23  1  0  0  0  0 
 57 24  1  0  0  0  0 
 58 24  1  0  0  0  0 
 59 24  1  0  0  0  0 
 60 25  1  0  0  0  0 
 61 28  1  0  0  0  0 
 62 28  1  0  0  0  0 
 63 35  1  0  0  0  0 
 64 35  1  0  0  0  0 
 65 35  1  0  0  0  0 
 66 36  1  0  0  0  0 
 67 36  1  0  0  0  0 
 68 37  1  0  0  0  0 
 69 37  1  0  0  0  0 
 70 37  1  0  0  0  0 
 71 41  1  0  0  0  0 
M  END
> <cdk:Title>
olmesartan medoxomil

> <Conformer>
1

> <SuperDrugID>
SD001775

$$$$
