iclaprim
  CDK     0628171801

 48 51  0  0  0  0  0  0  0  0999 V2000
    0.2689    1.5134    1.2264 C   0  0  1  0  0  0  0  0  0  0  0  0
    0.8238    2.4155    0.1673 C   0  0  0  0  0  0  0  0  0  0  0  0
   -0.7155    2.2262    2.0937 C   0  0  0  0  0  0  0  0  0  0  0  0
    1.9921    3.2222    0.3254 C   0  0  0  0  0  0  0  0  0  0  0  0
    0.1225    2.4840   -1.0619 C   0  0  0  0  0  0  0  0  0  0  0  0
   -2.1222    2.1623    1.9023 C   0  0  0  0  0  0  0  0  0  0  0  0
   -0.2747    3.0244    3.1763 C   0  0  0  0  0  0  0  0  0  0  0  0
    2.3843    4.0969   -0.7277 C   0  0  0  0  0  0  0  0  0  0  0  0
    2.7969    3.2344    1.4705 C   0  0  0  0  0  0  0  0  0  0  0  0
    0.5357    3.3250   -2.1103 C   0  0  0  0  0  0  0  0  0  0  0  0
   -2.7039    1.4755    0.9013 N   0  0  0  0  0  0  0  0  0  0  0  0
   -2.9582    2.8279    2.7408 N   0  0  0  0  0  0  0  0  0  0  0  0
   -1.1577    3.6662    3.9792 N   0  0  0  0  0  0  0  0  0  0  0  0
    1.6481    4.1693   -1.9268 C   0  0  0  0  0  0  0  0  0  0  0  0
    3.5240    4.8708   -0.6243 O   0  0  0  0  0  0  0  0  0  0  0  0
    3.7140    4.1900    1.6927 C   0  0  0  0  0  0  0  0  0  0  0  0
   -0.1631    3.3382   -3.2891 O   0  0  0  0  0  0  0  0  0  0  0  0
   -2.4928    3.5733    3.7714 C   0  0  0  0  0  0  0  0  0  0  0  0
    2.0375    5.0224   -2.9282 O   0  0  0  0  0  0  0  0  0  0  0  0
    3.9277    5.2457    0.7159 C   0  0  2  0  0  0  0  0  0  0  0  0
    0.3241    2.3779   -4.2460 C   0  0  0  0  0  0  0  0  0  0  0  0
   -3.3437    4.2282    4.5746 N   0  0  0  0  0  0  0  0  0  0  0  0
    1.4019    6.3121   -2.8529 C   0  0  0  0  0  0  0  0  0  0  0  0
    3.1864    6.5382    1.1434 C   0  0  1  0  0  0  0  0  0  0  0  0
    3.8604    7.4634    2.1703 C   0  0  2  0  0  0  0  0  0  0  0  0
    3.7784    7.8858    0.6963 C   0  0  1  0  0  0  0  0  0  0  0  0
   -0.1943    0.6384    0.7624 H   0  0  0  0  0  0  0  0  0  0  0  0
    1.0565    1.0795    1.8431 H   0  0  0  0  0  0  0  0  0  0  0  0
   -0.7112    1.9126   -1.2118 H   0  0  0  0  0  0  0  0  0  0  0  0
    0.7173    3.1341    3.3826 H   0  0  0  0  0  0  0  0  0  0  0  0
    2.7045    2.5323    2.1611 H   0  0  0  0  0  0  0  0  0  0  0  0
   -3.6702    1.4939    0.7968 H   0  0  0  0  0  0  0  0  0  0  0  0
   -2.1624    0.9690    0.2766 H   0  0  0  0  0  0  0  0  0  0  0  0
    4.2514    4.1817    2.5309 H   0  0  0  0  0  0  0  0  0  0  0  0
    5.0036    5.4300    0.6671 H   0  0  0  0  0  0  0  0  0  0  0  0
   -0.2778    2.4709   -5.1497 H   0  0  0  0  0  0  0  0  0  0  0  0
    1.3670    2.5672   -4.5136 H   0  0  0  0  0  0  0  0  0  0  0  0
    0.2247    1.3534   -3.8771 H   0  0  0  0  0  0  0  0  0  0  0  0
   -4.2988    4.1887    4.4050 H   0  0  0  0  0  0  0  0  0  0  0  0
   -3.0037    4.7497    5.3198 H   0  0  0  0  0  0  0  0  0  0  0  0
    1.7645    6.9124   -3.6872 H   0  0  0  0  0  0  0  0  0  0  0  0
    0.3154    6.2304   -2.9408 H   0  0  0  0  0  0  0  0  0  0  0  0
    1.6536    6.8322   -1.9250 H   0  0  0  0  0  0  0  0  0  0  0  0
    2.0938    6.5166    1.1868 H   0  0  0  0  0  0  0  0  0  0  0  0
    4.8481    7.1614    2.5254 H   0  0  0  0  0  0  0  0  0  0  0  0
    3.1839    7.9786    2.8538 H   0  0  0  0  0  0  0  0  0  0  0  0
    4.7225    7.8570    0.1482 H   0  0  0  0  0  0  0  0  0  0  0  0
    3.0605    8.6767    0.4752 H   0  0  0  0  0  0  0  0  0  0  0  0
  1  2  1  0  0  0  0 
  1  3  1  0  0  0  0 
  2  4  2  0  0  0  0 
  2  5  1  0  0  0  0 
  3  6  2  0  0  0  0 
  3  7  1  0  0  0  0 
  4  8  1  0  0  0  0 
  4  9  1  0  0  0  0 
  5 10  2  0  0  0  0 
  6 11  1  0  0  0  0 
  6 12  1  0  0  0  0 
  7 13  2  0  0  0  0 
  8 14  2  0  0  0  0 
  8 15  1  0  0  0  0 
  9 16  2  0  0  0  0 
 10 14  1  0  0  0  0 
 10 17  1  0  0  0  0 
 12 18  2  0  0  0  0 
 13 18  1  0  0  0  0 
 14 19  1  0  0  0  0 
 20 15  1  0  0  0  0 
 20 16  1  0  0  0  0 
 17 21  1  0  0  0  0 
 18 22  1  0  0  0  0 
 19 23  1  0  0  0  0 
 20 24  1  0  0  0  0 
 24 25  1  0  0  0  0 
 24 26  1  0  0  0  0 
 25 26  1  0  0  0  0 
  1 27  1  0  0  0  0 
  1 28  1  0  0  0  0 
  5 29  1  0  0  0  0 
  7 30  1  0  0  0  0 
  9 31  1  0  0  0  0 
 11 32  1  0  0  0  0 
 11 33  1  0  0  0  0 
 16 34  1  0  0  0  0 
 20 35  1  0  0  0  0 
 21 36  1  0  0  0  0 
 21 37  1  0  0  0  0 
 21 38  1  0  0  0  0 
 22 39  1  0  0  0  0 
 22 40  1  0  0  0  0 
 23 41  1  0  0  0  0 
 23 42  1  0  0  0  0 
 23 43  1  0  0  0  0 
 24 44  1  0  0  0  0 
 25 45  1  0  0  0  0 
 25 46  1  0  0  0  0 
 26 47  1  0  0  0  0 
 26 48  1  0  0  0  0 
M  END
> <cdk:Title>
iclaprim

> <Conformer>
1

> <SuperDrugID>
SD003630

$$$$
