hydroquinine
  CDK     0628171801

 50 53  0  0  0  0  0  0  0  0999 V2000
    5.0131    0.3215    0.0981 C   0  0  2  0  0  0  0  0  0  0  0  0
    5.8693    1.4648    0.0499 O   0  0  0  0  0  0  0  0  0  0  0  0
    5.5337   -0.8058   -0.7521 C   0  0  0  0  0  0  0  0  0  0  0  0
    3.5210    0.6416   -0.2629 C   0  0  1  0  0  0  0  0  0  0  0  0
    6.0203   -0.6582   -2.0906 C   0  0  0  0  0  0  0  0  0  0  0  0
    5.4913   -2.1097   -0.1972 C   0  0  0  0  0  0  0  0  0  0  0  0
    2.5995   -0.5337    0.0197 N   0  0  2  0  0  0  0  0  0  0  0  0
    2.9315    1.9427    0.3970 C   0  0  2  0  0  0  0  0  0  0  0  0
    6.4593   -1.8233   -2.7900 C   0  0  0  0  0  0  0  0  0  0  0  0
    6.0977    0.5800   -2.7795 C   0  0  0  0  0  0  0  0  0  0  0  0
    5.9093   -3.2182   -0.9469 C   0  0  0  0  0  0  0  0  0  0  0  0
    1.2979   -0.3317   -0.7129 C   0  0  1  0  0  0  0  0  0  0  0  0
    2.2936   -0.6646    1.4943 C   0  0  1  0  0  0  0  0  0  0  0  0
    1.4648    1.6650    0.8685 C   0  0  1  0  0  0  0  0  0  0  0  0
    6.9733   -1.7405   -4.0993 C   0  0  0  0  0  0  0  0  0  0  0  0
    6.3838   -3.0416   -2.1997 N   0  0  0  0  0  0  0  0  0  0  0  0
    6.6151    0.6699   -4.0874 C   0  0  0  0  0  0  0  0  0  0  0  0
    0.6082    1.0243   -0.2906 C   0  0  1  0  0  0  0  0  0  0  0  0
    1.5611    0.6128    2.0242 C   0  0  2  0  0  0  0  0  0  0  0  0
    7.0523   -0.4951   -4.7451 C   0  0  0  0  0  0  0  0  0  0  0  0
    6.7323    1.8918   -4.6956 O   0  0  0  0  0  0  0  0  0  0  0  0
    0.3363    1.9469   -1.5233 C   0  0  1  0  0  0  0  0  0  0  0  0
    5.5296    2.3109   -5.3614 C   0  0  0  0  0  0  0  0  0  0  0  0
   -0.4624    3.2371   -1.2270 C   0  0  0  0  0  0  0  0  0  0  0  0
    3.5214    0.8251   -1.3448 H   0  0  0  0  0  0  0  0  0  0  0  0
    5.0642    0.0457    1.1507 H   0  0  0  0  0  0  0  0  0  0  0  0
    5.5036    2.0992    0.7025 H   0  0  0  0  0  0  0  0  0  0  0  0
    5.1487   -2.2701    0.7523 H   0  0  0  0  0  0  0  0  0  0  0  0
    2.9520    2.7739   -0.3139 H   0  0  0  0  0  0  0  0  0  0  0  0
    3.5291    2.2504    1.2612 H   0  0  0  0  0  0  0  0  0  0  0  0
    5.7726    1.4477   -2.3549 H   0  0  0  0  0  0  0  0  0  0  0  0
    5.8552   -4.1591   -0.5545 H   0  0  0  0  0  0  0  0  0  0  0  0
    1.4896   -0.3681   -1.7889 H   0  0  0  0  0  0  0  0  0  0  0  0
    0.6282   -1.1714   -0.5030 H   0  0  0  0  0  0  0  0  0  0  0  0
    1.6774   -1.5501    1.6691 H   0  0  0  0  0  0  0  0  0  0  0  0
    3.2082   -0.8265    2.0663 H   0  0  0  0  0  0  0  0  0  0  0  0
    1.0026    2.5833    1.2396 H   0  0  0  0  0  0  0  0  0  0  0  0
    7.2892   -2.5832   -4.5874 H   0  0  0  0  0  0  0  0  0  0  0  0
   -0.3762    0.7835    0.1281 H   0  0  0  0  0  0  0  0  0  0  0  0
    2.1036    1.0336    2.8754 H   0  0  0  0  0  0  0  0  0  0  0  0
    0.5597    0.3565    2.3797 H   0  0  0  0  0  0  0  0  0  0  0  0
    7.4290   -0.4381   -5.6942 H   0  0  0  0  0  0  0  0  0  0  0  0
    1.2771    2.2268   -2.0016 H   0  0  0  0  0  0  0  0  0  0  0  0
   -0.2373    1.3676   -2.2540 H   0  0  0  0  0  0  0  0  0  0  0  0
    5.7184    3.2910   -5.7996 H   0  0  0  0  0  0  0  0  0  0  0  0
    5.2646    1.6206   -6.1659 H   0  0  0  0  0  0  0  0  0  0  0  0
    4.6895    2.4037   -4.6666 H   0  0  0  0  0  0  0  0  0  0  0  0
   -0.7107    3.7288   -2.1698 H   0  0  0  0  0  0  0  0  0  0  0  0
    0.1243    3.9298   -0.6209 H   0  0  0  0  0  0  0  0  0  0  0  0
   -1.3906    3.0014   -0.7049 H   0  0  0  0  0  0  0  0  0  0  0  0
  1  2  1  0  0  0  0 
  1  3  1  0  0  0  0 
  4  1  1  0  0  0  0 
  3  5  2  0  0  0  0 
  3  6  1  0  0  0  0 
  7  4  1  0  0  0  0 
  4  8  1  0  0  0  0 
  4 25  1  0  0  0  0 
  5  9  1  0  0  0  0 
  5 10  1  0  0  0  0 
  6 11  2  0  0  0  0 
  7 12  1  0  0  0  0 
  7 13  1  0  0  0  0 
 14  8  1  0  0  0  0 
  9 15  1  0  0  0  0 
  9 16  2  0  0  0  0 
 10 17  2  0  0  0  0 
 11 16  1  0  0  0  0 
 18 12  1  0  0  0  0 
 13 19  1  0  0  0  0 
 14 18  1  0  0  0  0 
 14 19  1  0  0  0  0 
 15 20  2  0  0  0  0 
 17 20  1  0  0  0  0 
 17 21  1  0  0  0  0 
 18 22  1  0  0  0  0 
 21 23  1  0  0  0  0 
 22 24  1  0  0  0  0 
  1 26  1  0  0  0  0 
  2 27  1  0  0  0  0 
  6 28  1  0  0  0  0 
  8 29  1  0  0  0  0 
  8 30  1  0  0  0  0 
 10 31  1  0  0  0  0 
 11 32  1  0  0  0  0 
 12 33  1  0  0  0  0 
 12 34  1  0  0  0  0 
 13 35  1  0  0  0  0 
 13 36  1  0  0  0  0 
 14 37  1  0  0  0  0 
 15 38  1  0  0  0  0 
 18 39  1  0  0  0  0 
 19 40  1  0  0  0  0 
 19 41  1  0  0  0  0 
 20 42  1  0  0  0  0 
 22 43  1  0  0  0  0 
 22 44  1  0  0  0  0 
 23 45  1  0  0  0  0 
 23 46  1  0  0  0  0 
 23 47  1  0  0  0  0 
 24 48  1  0  0  0  0 
 24 49  1  0  0  0  0 
 24 50  1  0  0  0  0 
M  END
> <cdk:Title>
hydroquinine

> <Conformer>
1

> <SuperDrugID>
SD003627

$$$$
