progesterone
  CDK     0628171801

 53 56  0  0  0  0  0  0  0  0999 V2000
   -3.7738    0.0661   -0.0949 C   0  0  0  0  0  0  0  0  0  0  0  0
   -2.6888   -0.1588    1.0194 C   0  0  1  0  0  0  0  0  0  0  0  0
   -3.3295   -0.4293    2.4594 C   0  0  2  0  0  0  0  0  0  0  0  0
   -1.8560   -1.3248    0.5832 C   0  0  0  0  0  0  0  0  0  0  0  0
   -1.7938    1.1430    1.1202 C   0  0  1  0  0  0  0  0  0  0  0  0
   -3.9350   -1.8765    2.6296 C   0  0  2  0  0  0  0  0  0  0  0  0
   -4.3191    0.6821    2.9709 C   0  0  1  0  0  0  0  0  0  0  0  0
   -2.3744   -2.6889    0.7911 C   0  0  2  0  0  0  0  0  0  0  0  0
   -0.6739   -1.1663   -0.0604 C   0  0  0  0  0  0  0  0  0  0  0  0
   -0.8033    1.3338   -0.0530 C   0  0  1  0  0  0  0  0  0  0  0  0
   -4.4672   -2.0621    4.0899 C   0  0  1  0  0  0  0  0  0  0  0  0
   -2.8547   -2.9252    2.2423 C   0  0  2  0  0  0  0  0  0  0  0  0
   -4.9326    0.3967    4.3774 C   0  0  1  0  0  0  0  0  0  0  0  0
   -0.1365    0.0640   -0.4030 C   0  0  0  0  0  0  0  0  0  0  0  0
   -5.5817   -1.0289    4.4691 C   0  0  1  0  0  0  0  0  0  0  0  0
   -5.0539   -3.4223    4.5337 C   0  0  1  0  0  0  0  0  0  0  0  0
    0.9244    0.1105   -1.0691 O   0  0  0  0  0  0  0  0  0  0  0  0
   -6.8684   -1.0800    3.5571 C   0  0  0  0  0  0  0  0  0  0  0  0
   -5.9177   -1.5257    5.9220 C   0  0  2  0  0  0  0  0  0  0  0  0
   -5.8330   -3.0846    5.8318 C   0  0  2  0  0  0  0  0  0  0  0  0
   -7.1782   -1.0131    6.5416 C   0  0  0  0  0  0  0  0  0  0  0  0
   -7.1835    0.1299    7.4773 C   0  0  0  0  0  0  0  0  0  0  0  0
   -8.2804   -1.5388    6.2572 O   0  0  0  0  0  0  0  0  0  0  0  0
   -3.3217    0.0866   -1.0898 H   0  0  0  0  0  0  0  0  0  0  0  0
   -4.5243   -0.7244   -0.0908 H   0  0  0  0  0  0  0  0  0  0  0  0
   -4.2917    1.0165    0.0384 H   0  0  0  0  0  0  0  0  0  0  0  0
   -2.4939   -0.3970    3.1702 H   0  0  0  0  0  0  0  0  0  0  0  0
   -2.4116    2.0424    1.1903 H   0  0  0  0  0  0  0  0  0  0  0  0
   -1.1881    1.1001    2.0312 H   0  0  0  0  0  0  0  0  0  0  0  0
   -4.7661   -2.0172    1.9372 H   0  0  0  0  0  0  0  0  0  0  0  0
   -3.7971    1.6390    3.0355 H   0  0  0  0  0  0  0  0  0  0  0  0
   -5.1323    0.8107    2.2555 H   0  0  0  0  0  0  0  0  0  0  0  0
   -1.6394   -3.4654    0.5535 H   0  0  0  0  0  0  0  0  0  0  0  0
   -3.2170   -2.8435    0.1098 H   0  0  0  0  0  0  0  0  0  0  0  0
   -0.1548   -1.9694   -0.3342 H   0  0  0  0  0  0  0  0  0  0  0  0
   -1.3257    1.7191   -0.9302 H   0  0  0  0  0  0  0  0  0  0  0  0
   -0.0552    2.0747    0.2408 H   0  0  0  0  0  0  0  0  0  0  0  0
   -3.5931   -1.9046    4.7408 H   0  0  0  0  0  0  0  0  0  0  0  0
   -3.2666   -3.9355    2.3144 H   0  0  0  0  0  0  0  0  0  0  0  0
   -1.9988   -2.8631    2.9215 H   0  0  0  0  0  0  0  0  0  0  0  0
   -4.1415    0.5030    5.1266 H   0  0  0  0  0  0  0  0  0  0  0  0
   -5.6790    1.1634    4.5978 H   0  0  0  0  0  0  0  0  0  0  0  0
   -5.7235   -3.8231    3.7671 H   0  0  0  0  0  0  0  0  0  0  0  0
   -4.2691   -4.1590    4.7278 H   0  0  0  0  0  0  0  0  0  0  0  0
   -7.5630   -0.2856    3.8375 H   0  0  0  0  0  0  0  0  0  0  0  0
   -7.3936   -2.0308    3.6531 H   0  0  0  0  0  0  0  0  0  0  0  0
   -6.6440   -0.9445    2.5018 H   0  0  0  0  0  0  0  0  0  0  0  0
   -5.0958   -1.2127    6.5774 H   0  0  0  0  0  0  0  0  0  0  0  0
   -5.3086   -3.4832    6.7052 H   0  0  0  0  0  0  0  0  0  0  0  0
   -6.8188   -3.5569    5.7947 H   0  0  0  0  0  0  0  0  0  0  0  0
   -6.8784    1.0378    6.9544 H   0  0  0  0  0  0  0  0  0  0  0  0
   -6.4939   -0.0602    8.3013 H   0  0  0  0  0  0  0  0  0  0  0  0
   -8.1808    0.2894    7.8968 H   0  0  0  0  0  0  0  0  0  0  0  0
  2  1  1  0  0  0  0 
  3  2  1  0  0  0  0 
  2  4  1  0  0  0  0 
  2  5  1  0  0  0  0 
  3  6  1  0  0  0  0 
  3  7  1  0  0  0  0 
  4  8  1  0  0  0  0 
  4  9  2  0  0  0  0 
  5 10  1  0  0  0  0 
  6 11  1  0  0  0  0 
  6 12  1  0  0  0  0 
  7 13  1  0  0  0  0 
  8 12  1  0  0  0  0 
  9 14  1  0  0  0  0 
 10 14  1  0  0  0  0 
 11 15  1  0  0  0  0 
 11 16  1  0  0  0  0 
 15 13  1  0  0  0  0 
 14 17  2  0  0  0  0 
 15 18  1  0  0  0  0 
 15 19  1  0  0  0  0 
 16 20  1  0  0  0  0 
 19 20  1  0  0  0  0 
 19 21  1  0  0  0  0 
 21 22  1  0  0  0  0 
 21 23  2  0  0  0  0 
 24  1  1  0  0  0  0 
 25  1  1  0  0  0  0 
 26  1  1  0  0  0  0 
  3 27  1  0  0  0  0 
 28  5  1  0  0  0  0 
 29  5  1  0  0  0  0 
  6 30  1  0  0  0  0 
 31  7  1  0  0  0  0 
 32  7  1  0  0  0  0 
 33  8  1  0  0  0  0 
 34  8  1  0  0  0  0 
 35  9  1  0  0  0  0 
 36 10  1  0  0  0  0 
 37 10  1  0  0  0  0 
 11 38  1  0  0  0  0 
 39 12  1  0  0  0  0 
 40 12  1  0  0  0  0 
 41 13  1  0  0  0  0 
 42 13  1  0  0  0  0 
 43 16  1  0  0  0  0 
 44 16  1  0  0  0  0 
 45 18  1  0  0  0  0 
 46 18  1  0  0  0  0 
 47 18  1  0  0  0  0 
 19 48  1  0  0  0  0 
 49 20  1  0  0  0  0 
 50 20  1  0  0  0  0 
 51 22  1  0  0  0  0 
 52 22  1  0  0  0  0 
 53 22  1  0  0  0  0 
M  END
> <cdk:Title>
progesterone

> <Conformer>
1

> <SuperDrugID>
SD002045

$$$$
