atovaquone
  CDK     0628171801

 45 48  0  0  0  0  0  0  0  0999 V2000
    2.0165    0.3786    0.0365 O   0  0  0  0  0  0  0  0  0  0  0  0
    0.7134    0.0924    0.0263 C   0  0  0  0  0  0  0  0  0  0  0  0
    0.1723   -0.5712   -1.0348 C   0  0  0  0  0  0  0  0  0  0  0  0
   -0.0463    0.5278    1.1312 C   0  0  0  0  0  0  0  0  0  0  0  0
   -1.2300   -0.7700   -1.0424 C   0  0  0  0  0  0  0  0  0  0  0  0
    1.0450   -0.9991   -2.1681 C   0  0  1  0  0  0  0  0  0  0  0  0
   -1.4425    0.2502    1.1755 C   0  0  0  0  0  0  0  0  0  0  0  0
    0.5378    1.2442    2.2084 C   0  0  0  0  0  0  0  0  0  0  0  0
   -1.8434   -1.1888   -2.0515 O   0  0  0  0  0  0  0  0  0  0  0  0
   -2.0315   -0.4395    0.0826 C   0  0  0  0  0  0  0  0  0  0  0  0
    0.7227   -2.3618   -2.8744 C   0  0  2  0  0  0  0  0  0  0  0  0
    1.1742    0.1527   -3.2145 C   0  0  1  0  0  0  0  0  0  0  0  0
   -2.2100    0.6753    2.2879 C   0  0  0  0  0  0  0  0  0  0  0  0
   -0.2361    1.6661    3.3025 C   0  0  0  0  0  0  0  0  0  0  0  0
   -3.2498   -0.7446    0.0939 O   0  0  0  0  0  0  0  0  0  0  0  0
    1.7513   -2.6928   -3.9894 C   0  0  2  0  0  0  0  0  0  0  0  0
    2.1808   -0.1837   -4.3491 C   0  0  2  0  0  0  0  0  0  0  0  0
   -1.6093    1.3802    3.3445 C   0  0  0  0  0  0  0  0  0  0  0  0
    1.8464   -1.5406   -5.0379 C   0  0  1  0  0  0  0  0  0  0  0  0
    2.8006   -1.8775   -6.1442 C   0  0  0  0  0  0  0  0  0  0  0  0
    4.1763   -2.1148   -5.8973 C   0  0  0  0  0  0  0  0  0  0  0  0
    2.3375   -1.9885   -7.4779 C   0  0  0  0  0  0  0  0  0  0  0  0
    5.0496   -2.4746   -6.9414 C   0  0  0  0  0  0  0  0  0  0  0  0
    3.2081   -2.3427   -8.5238 C   0  0  0  0  0  0  0  0  0  0  0  0
    4.5669   -2.5914   -8.2582 C   0  0  0  0  0  0  0  0  0  0  0  0
    5.6112   -3.0304   -9.5169 Cl  0  0  0  0  0  0  0  0  0  0  0  0
    2.0902    1.2261   -0.4527 H   0  0  0  0  0  0  0  0  0  0  0  0
    2.0524   -1.1742   -1.7706 H   0  0  0  0  0  0  0  0  0  0  0  0
    1.5365    1.4694    2.2126 H   0  0  0  0  0  0  0  0  0  0  0  0
   -0.2533   -2.3458   -3.3591 H   0  0  0  0  0  0  0  0  0  0  0  0
    0.7228   -3.1693   -2.1361 H   0  0  0  0  0  0  0  0  0  0  0  0
    0.1941    0.3636   -3.6511 H   0  0  0  0  0  0  0  0  0  0  0  0
    1.5184    1.0663   -2.7216 H   0  0  0  0  0  0  0  0  0  0  0  0
   -3.2137    0.4814    2.3386 H   0  0  0  0  0  0  0  0  0  0  0  0
    0.2032    2.1797    4.0701 H   0  0  0  0  0  0  0  0  0  0  0  0
    1.4462   -3.6175   -4.4904 H   0  0  0  0  0  0  0  0  0  0  0  0
    2.7263   -2.8643   -3.5264 H   0  0  0  0  0  0  0  0  0  0  0  0
    3.1891   -0.2149   -3.9257 H   0  0  0  0  0  0  0  0  0  0  0  0
    2.1568    0.6215   -5.0897 H   0  0  0  0  0  0  0  0  0  0  0  0
   -2.1702    1.6863    4.1434 H   0  0  0  0  0  0  0  0  0  0  0  0
    0.8430   -1.4241   -5.4640 H   0  0  0  0  0  0  0  0  0  0  0  0
    4.5552   -2.0352   -4.9506 H   0  0  0  0  0  0  0  0  0  0  0  0
    1.3543   -1.8169   -7.7016 H   0  0  0  0  0  0  0  0  0  0  0  0
    6.0352   -2.6531   -6.7360 H   0  0  0  0  0  0  0  0  0  0  0  0
    2.8443   -2.4207   -9.4759 H   0  0  0  0  0  0  0  0  0  0  0  0
  1  2  1  0  0  0  0 
  2  3  2  0  0  0  0 
  2  4  1  0  0  0  0 
  3  5  1  0  0  0  0 
  4  7  2  0  0  0  0 
  4  8  1  0  0  0  0 
  5  9  2  0  0  0  0 
  5 10  1  0  0  0  0 
  6  3  1  0  0  0  0 
  6 11  1  0  0  0  0 
  6 12  1  0  0  0  0 
  7 10  1  0  0  0  0 
  7 13  1  0  0  0  0 
  8 14  2  0  0  0  0 
 10 15  2  0  0  0  0 
 11 16  1  0  0  0  0 
 12 17  1  0  0  0  0 
 13 18  2  0  0  0  0 
 14 18  1  0  0  0  0 
 19 16  1  0  0  0  0 
 19 17  1  0  0  0  0 
 19 20  1  0  0  0  0 
 20 21  2  0  0  0  0 
 20 22  1  0  0  0  0 
 21 23  1  0  0  0  0 
 22 24  2  0  0  0  0 
 23 25  2  0  0  0  0 
 24 25  1  0  0  0  0 
 25 26  1  0  0  0  0 
 27  1  1  0  0  0  0 
  6 28  1  0  0  0  0 
 29  8  1  0  0  0  0 
 30 11  1  0  0  0  0 
 31 11  1  0  0  0  0 
 32 12  1  0  0  0  0 
 33 12  1  0  0  0  0 
 34 13  1  0  0  0  0 
 35 14  1  0  0  0  0 
 36 16  1  0  0  0  0 
 37 16  1  0  0  0  0 
 38 17  1  0  0  0  0 
 39 17  1  0  0  0  0 
 40 18  1  0  0  0  0 
 19 41  1  0  0  0  0 
 42 21  1  0  0  0  0 
 43 22  1  0  0  0  0 
 44 23  1  0  0  0  0 
 45 24  1  0  0  0  0 
M  END
> <cdk:Title>
atovaquone

> <Conformer>
1

> <SuperDrugID>
SD000214

$$$$
