roxithromycin
  CDK     0628171801

134136  0  0  0  0  0  0  0  0999 V2000
   -6.6493    0.8372    4.1509 O   0  0  0  0  0  0  0  0  0  0  0  0
   -5.8153    0.2635    3.1068 C   0  0  1  0  0  0  0  0  0  0  0  0
   -6.1960    1.6914    5.2126 C   0  0  1  0  0  0  0  0  0  0  0  0
   -4.7483   -0.8097    3.6009 C   0  0  2  0  0  0  0  0  0  0  0  0
   -6.9299   -0.2550    2.1079 C   0  0  1  0  0  0  0  0  0  0  0  0
   -5.5289    3.0314    4.7881 C   0  0  2  0  0  0  0  0  0  0  0  0
   -7.4239    1.9842    5.9084 O   0  0  0  0  0  0  0  0  0  0  0  0
   -5.4458   -1.8659    4.5112 C   0  0  0  0  0  0  0  0  0  0  0  0
   -3.3996   -0.2263    4.2247 C   0  0  1  0  0  0  0  0  0  0  0  0
   -7.7351    0.9229    1.4714 C   0  0  0  0  0  0  0  0  0  0  0  0
   -6.5394   -1.1645    0.9964 C   0  0  0  0  0  0  0  0  0  0  0  0
   -5.2185    3.9638    6.0130 C   0  0  2  0  0  0  0  0  0  0  0  0
   -7.3202    2.7694    7.1141 C   0  0  2  0  0  0  0  0  0  0  0  0
   -2.8812   -1.0690    5.3078 O   0  0  0  0  0  0  0  0  0  0  0  0
   -2.1732    0.0286    3.2521 C   0  0  2  0  0  0  0  0  0  0  0  0
   -7.0247   -2.3191    0.9665 O   0  0  0  0  0  0  0  0  0  0  0  0
   -5.7830   -0.6940   -0.0410 O   0  0  0  0  0  0  0  0  0  0  0  0
   -4.8752    5.2467    5.4079 O   0  0  0  0  0  0  0  0  0  0  0  0
   -3.9805    3.4377    6.8218 C   0  0  0  0  0  0  0  0  0  0  0  0
   -6.5234    4.0952    6.8853 C   0  0  2  0  0  0  0  0  0  0  0  0
   -6.8703    1.9124    8.3259 C   0  0  0  0  0  0  0  0  0  0  0  0
   -2.9070   -0.5828    6.6738 C   0  0  1  0  0  0  0  0  0  0  0  0
   -1.4137   -1.2749    2.8665 C   0  0  0  0  0  0  0  0  0  0  0  0
   -1.2497    0.7511    4.0718 O   0  0  0  0  0  0  0  0  0  0  0  0
   -2.4242    1.0121    2.0457 C   0  0  1  0  0  0  0  0  0  0  0  0
   -5.5977   -1.1592   -1.3943 C   0  0  2  0  0  0  0  0  0  0  0  0
   -4.4754    6.3506    6.2503 C   0  0  0  0  0  0  0  0  0  0  0  0
   -7.4136    5.0201    6.2543 O   0  0  0  0  0  0  0  0  0  0  0  0
   -2.9317   -1.7641    7.6880 C   0  0  2  0  0  0  0  0  0  0  0  0
   -1.8826    0.4050    6.9629 O   0  0  0  0  0  0  0  0  0  0  0  0
   -2.8336    0.4613    0.6244 C   0  0  1  0  0  0  0  0  0  0  0  0
   -6.9890   -1.0489   -2.1067 C   0  0  2  0  0  0  0  0  0  0  0  0
   -4.7243   -2.4596   -1.6009 C   0  0  1  0  0  0  0  0  0  0  0  0
   -3.5108   -1.3145    8.9192 O   0  0  0  0  0  0  0  0  0  0  0  0
   -1.5136   -2.3814    7.9367 C   0  0  1  0  0  0  0  0  0  0  0  0
   -0.5803   -0.0051    7.4619 C   0  0  1  0  0  0  0  0  0  0  0  0
   -3.4318    1.6415   -0.2006 C   0  0  0  0  0  0  0  0  0  0  0  0
   -1.8504   -0.2651   -0.2202 C   0  0  0  0  0  0  0  0  0  0  0  0
   -6.9922   -1.1471   -3.6507 C   0  0  0  0  0  0  0  0  0  0  0  0
   -5.4860   -3.7845   -1.2547 C   0  0  0  0  0  0  0  0  0  0  0  0
   -4.4812   -2.5709   -3.0072 O   0  0  0  0  0  0  0  0  0  0  0  0
   -3.3006   -2.4549   -0.9031 C   0  0  1  0  0  0  0  0  0  0  0  0
   -0.9224   -3.1473    6.7644 N   0  0  1  0  0  0  0  0  0  0  0  0
   -0.6262   -1.2042    8.4549 C   0  0  1  0  0  0  0  0  0  0  0  0
    0.4801   -0.1708    6.3454 C   0  0  0  0  0  0  0  0  0  0  0  0
   -0.6052    0.0835   -0.2740 N   0  0  0  0  0  0  0  0  0  0  0  0
   -2.1744   -1.3624   -1.1858 C   0  0  1  0  0  0  0  0  0  0  0  0
   -3.4269   -2.7297    0.4862 O   0  0  0  0  0  0  0  0  0  0  0  0
    0.4314   -3.7380    7.0309 C   0  0  0  0  0  0  0  0  0  0  0  0
   -1.8172   -4.2000    6.1820 C   0  0  0  0  0  0  0  0  0  0  0  0
    0.0379    0.9595    0.3869 O   0  0  0  0  0  0  0  0  0  0  0  0
   -2.1422   -0.8410   -2.6561 C   0  0  0  0  0  0  0  0  0  0  0  0
    0.5362    2.0325   -0.4176 C   0  0  2  0  0  0  0  0  0  0  0  0
    1.3272    2.7896    0.5053 O   0  0  0  0  0  0  0  0  0  0  0  0
    1.6058    4.1508    0.1390 C   0  0  1  0  0  0  0  0  0  0  0  0
    2.6344    4.6766    1.1592 C   0  0  1  0  0  0  0  0  0  0  0  0
    2.9101    6.0710    0.9272 O   0  0  0  0  0  0  0  0  0  0  0  0
    3.9332    6.6014    1.7865 C   0  0  0  0  0  0  0  0  0  0  0  0
   -5.5523    1.1093    5.8605 H   0  0  0  0  0  0  0  0  0  0  0  0
   -3.8564   -0.0693    6.8167 H   0  0  0  0  0  0  0  0  0  0  0  0
   -5.2922    1.0698    2.6032 H   0  0  0  0  0  0  0  0  0  0  0  0
   -4.4394   -1.3778    2.7264 H   0  0  0  0  0  0  0  0  0  0  0  0
   -7.6623   -0.8077    2.7089 H   0  0  0  0  0  0  0  0  0  0  0  0
   -6.2153    3.5373    4.1019 H   0  0  0  0  0  0  0  0  0  0  0  0
   -4.6097    2.8431    4.2336 H   0  0  0  0  0  0  0  0  0  0  0  0
   -6.3167   -2.2996    4.0183 H   0  0  0  0  0  0  0  0  0  0  0  0
   -5.7700   -1.4193    5.4512 H   0  0  0  0  0  0  0  0  0  0  0  0
   -4.7680   -2.6904    4.7334 H   0  0  0  0  0  0  0  0  0  0  0  0
   -3.6393    0.7536    4.6307 H   0  0  0  0  0  0  0  0  0  0  0  0
   -8.5499    0.5474    0.8455 H   0  0  0  0  0  0  0  0  0  0  0  0
   -8.1806    1.5527    2.2426 H   0  0  0  0  0  0  0  0  0  0  0  0
   -7.0859    1.5494    0.8541 H   0  0  0  0  0  0  0  0  0  0  0  0
   -8.3513    3.0543    7.3529 H   0  0  0  0  0  0  0  0  0  0  0  0
   -3.8867    4.0328    7.7835 H   0  0  0  0  0  0  0  0  0  0  0  0
   -3.0849    3.4215    6.1251 H   0  0  0  0  0  0  0  0  0  0  0  0
   -4.1241    2.4100    7.1357 H   0  0  0  0  0  0  0  0  0  0  0  0
   -6.2786    4.5308    7.8567 H   0  0  0  0  0  0  0  0  0  0  0  0
   -7.5857    1.1040    8.4884 H   0  0  0  0  0  0  0  0  0  0  0  0
   -6.8319    2.5227    9.2293 H   0  0  0  0  0  0  0  0  0  0  0  0
   -5.8937    1.4645    8.1699 H   0  0  0  0  0  0  0  0  0  0  0  0
   -1.0504   -1.7993    3.7492 H   0  0  0  0  0  0  0  0  0  0  0  0
   -0.5458   -1.0579    2.2446 H   0  0  0  0  0  0  0  0  0  0  0  0
   -2.0658   -1.9554    2.3359 H   0  0  0  0  0  0  0  0  0  0  0  0
   -0.4388    0.8506    3.5287 H   0  0  0  0  0  0  0  0  0  0  0  0
   -3.1841    1.7165    2.3858 H   0  0  0  0  0  0  0  0  0  0  0  0
   -1.5613    1.6640    1.9188 H   0  0  0  0  0  0  0  0  0  0  0  0
   -5.0201   -0.3615   -1.8495 H   0  0  0  0  0  0  0  0  0  0  0  0
   -4.4139    7.2448    5.6305 H   0  0  0  0  0  0  0  0  0  0  0  0
   -3.4899    6.1739    6.6837 H   0  0  0  0  0  0  0  0  0  0  0  0
   -5.1928    6.5453    7.0488 H   0  0  0  0  0  0  0  0  0  0  0  0
   -7.6542    4.6023    5.4021 H   0  0  0  0  0  0  0  0  0  0  0  0
   -3.6255   -2.5293    7.3404 H   0  0  0  0  0  0  0  0  0  0  0  0
   -3.6405   -0.2151    0.8282 H   0  0  0  0  0  0  0  0  0  0  0  0
   -7.4046   -0.0659   -1.8608 H   0  0  0  0  0  0  0  0  0  0  0  0
   -7.6829   -1.7876   -1.7047 H   0  0  0  0  0  0  0  0  0  0  0  0
   -3.0054   -0.5154    9.1768 H   0  0  0  0  0  0  0  0  0  0  0  0
   -1.6175   -3.0925    8.7636 H   0  0  0  0  0  0  0  0  0  0  0  0
   -0.2335    0.8532    8.0449 H   0  0  0  0  0  0  0  0  0  0  0  0
   -3.7318    1.3446   -1.2007 H   0  0  0  0  0  0  0  0  0  0  0  0
   -4.3154    2.0449    0.3003 H   0  0  0  0  0  0  0  0  0  0  0  0
   -2.7022    2.4442   -0.3065 H   0  0  0  0  0  0  0  0  0  0  0  0
   -7.9602   -0.8225   -4.0400 H   0  0  0  0  0  0  0  0  0  0  0  0
   -6.8280   -2.1780   -3.9675 H   0  0  0  0  0  0  0  0  0  0  0  0
   -6.2187   -0.5068   -4.0810 H   0  0  0  0  0  0  0  0  0  0  0  0
   -6.4781   -3.8132   -1.7041 H   0  0  0  0  0  0  0  0  0  0  0  0
   -5.5916   -3.9270   -0.1806 H   0  0  0  0  0  0  0  0  0  0  0  0
   -4.9380   -4.6508   -1.6322 H   0  0  0  0  0  0  0  0  0  0  0  0
   -3.9312   -3.3767   -3.1201 H   0  0  0  0  0  0  0  0  0  0  0  0
   -2.8561   -3.3901   -1.2673 H   0  0  0  0  0  0  0  0  0  0  0  0
   -1.0341   -0.8426    9.4033 H   0  0  0  0  0  0  0  0  0  0  0  0
    0.3805   -1.5380    8.7057 H   0  0  0  0  0  0  0  0  0  0  0  0
    1.4486   -0.4436    6.7712 H   0  0  0  0  0  0  0  0  0  0  0  0
    0.6116    0.7736    5.8150 H   0  0  0  0  0  0  0  0  0  0  0  0
    0.1822   -0.9392    5.6355 H   0  0  0  0  0  0  0  0  0  0  0  0
   -1.2699   -1.9906   -1.1490 H   0  0  0  0  0  0  0  0  0  0  0  0
   -4.0852   -2.0927    0.8181 H   0  0  0  0  0  0  0  0  0  0  0  0
    1.1763   -2.9640    7.1994 H   0  0  0  0  0  0  0  0  0  0  0  0
    0.7975   -4.3076    6.1734 H   0  0  0  0  0  0  0  0  0  0  0  0
    0.4067   -4.3996    7.9005 H   0  0  0  0  0  0  0  0  0  0  0  0
   -2.6816   -3.7499    5.7007 H   0  0  0  0  0  0  0  0  0  0  0  0
   -1.3156   -4.7730    5.3985 H   0  0  0  0  0  0  0  0  0  0  0  0
   -2.1590   -4.8959    6.9522 H   0  0  0  0  0  0  0  0  0  0  0  0
   -2.1339   -1.6769   -3.3583 H   0  0  0  0  0  0  0  0  0  0  0  0
   -2.9988   -0.2106   -2.8772 H   0  0  0  0  0  0  0  0  0  0  0  0
   -1.2400   -0.2566   -2.8495 H   0  0  0  0  0  0  0  0  0  0  0  0
   -0.2933    2.6193   -0.8271 H   0  0  0  0  0  0  0  0  0  0  0  0
    1.1764    1.6733   -1.2291 H   0  0  0  0  0  0  0  0  0  0  0  0
    2.0240    4.2268   -0.8719 H   0  0  0  0  0  0  0  0  0  0  0  0
    0.6854    4.7408    0.1986 H   0  0  0  0  0  0  0  0  0  0  0  0
    2.2297    4.5401    2.1684 H   0  0  0  0  0  0  0  0  0  0  0  0
    3.5458    4.0764    1.0542 H   0  0  0  0  0  0  0  0  0  0  0  0
    4.0424    7.6635    1.5747 H   0  0  0  0  0  0  0  0  0  0  0  0
    4.8883    6.1113    1.5920 H   0  0  0  0  0  0  0  0  0  0  0  0
    3.6736    6.4857    2.8416 H   0  0  0  0  0  0  0  0  0  0  0  0
  3  1  1  0  0  0  0 
  2  1  1  0  0  0  0 
  4  2  1  0  0  0  0 
  2  5  1  0  0  0  0 
  2 61  1  0  0  0  0 
  3  6  1  0  0  0  0 
  3  7  1  0  0  0  0 
  3 59  1  0  0  0  0 
  4  8  1  0  0  0  0 
  9  4  1  0  0  0  0 
  5 10  1  0  0  0  0 
  5 11  1  0  0  0  0 
 12  6  1  0  0  0  0 
 13  7  1  0  0  0  0 
  9 14  1  0  0  0  0 
 15  9  1  0  0  0  0 
 11 16  2  0  0  0  0 
 11 17  1  0  0  0  0 
 12 18  1  0  0  0  0 
 12 19  1  0  0  0  0 
 20 12  1  0  0  0  0 
 20 13  1  0  0  0  0 
 13 21  1  0  0  0  0 
 22 14  1  0  0  0  0 
 15 23  1  0  0  0  0 
 15 24  1  0  0  0  0 
 15 25  1  0  0  0  0 
 26 17  1  0  0  0  0 
 18 27  1  0  0  0  0 
 20 28  1  0  0  0  0 
 29 22  1  0  0  0  0 
 22 30  1  0  0  0  0 
 22 60  1  0  0  0  0 
 31 25  1  0  0  0  0 
 26 32  1  0  0  0  0 
 26 33  1  0  0  0  0 
 29 34  1  0  0  0  0 
 29 35  1  0  0  0  0 
 36 30  1  0  0  0  0 
 31 37  1  0  0  0  0 
 31 38  1  0  0  0  0 
 32 39  1  0  0  0  0 
 33 40  1  0  0  0  0 
 33 41  1  0  0  0  0 
 33 42  1  0  0  0  0 
 35 43  1  0  0  0  0 
 35 44  1  0  0  0  0 
 36 44  1  0  0  0  0 
 36 45  1  0  0  0  0 
 38 46  2  0  0  0  0 
 47 38  1  0  0  0  0 
 42 47  1  0  0  0  0 
 42 48  1  0  0  0  0 
 43 49  1  0  0  0  0 
 43 50  1  0  0  0  0 
 46 51  1  0  0  0  0 
 47 52  1  0  0  0  0 
 51 53  1  0  0  0  0 
 53 54  1  0  0  0  0 
 54 55  1  0  0  0  0 
 55 56  1  0  0  0  0 
 56 57  1  0  0  0  0 
 57 58  1  0  0  0  0 
  4 62  1  0  0  0  0 
  5 63  1  0  0  0  0 
  6 64  1  0  0  0  0 
  6 65  1  0  0  0  0 
  8 66  1  0  0  0  0 
  8 67  1  0  0  0  0 
  8 68  1  0  0  0  0 
  9 69  1  0  0  0  0 
 10 70  1  0  0  0  0 
 10 71  1  0  0  0  0 
 10 72  1  0  0  0  0 
 13 73  1  0  0  0  0 
 19 74  1  0  0  0  0 
 19 75  1  0  0  0  0 
 19 76  1  0  0  0  0 
 20 77  1  0  0  0  0 
 21 78  1  0  0  0  0 
 21 79  1  0  0  0  0 
 21 80  1  0  0  0  0 
 23 81  1  0  0  0  0 
 23 82  1  0  0  0  0 
 23 83  1  0  0  0  0 
 24 84  1  0  0  0  0 
 25 85  1  0  0  0  0 
 25 86  1  0  0  0  0 
 26 87  1  0  0  0  0 
 27 88  1  0  0  0  0 
 27 89  1  0  0  0  0 
 27 90  1  0  0  0  0 
 28 91  1  0  0  0  0 
 29 92  1  0  0  0  0 
 31 93  1  0  0  0  0 
 32 94  1  0  0  0  0 
 32 95  1  0  0  0  0 
 34 96  1  0  0  0  0 
 35 97  1  0  0  0  0 
 36 98  1  0  0  0  0 
 37 99  1  0  0  0  0 
 37100  1  0  0  0  0 
 37101  1  0  0  0  0 
 39102  1  0  0  0  0 
 39103  1  0  0  0  0 
 39104  1  0  0  0  0 
 40105  1  0  0  0  0 
 40106  1  0  0  0  0 
 40107  1  0  0  0  0 
 41108  1  0  0  0  0 
 42109  1  0  0  0  0 
 44110  1  0  0  0  0 
 44111  1  0  0  0  0 
 45112  1  0  0  0  0 
 45113  1  0  0  0  0 
 45114  1  0  0  0  0 
 47115  1  0  0  0  0 
 48116  1  0  0  0  0 
 49117  1  0  0  0  0 
 49118  1  0  0  0  0 
 49119  1  0  0  0  0 
 50120  1  0  0  0  0 
 50121  1  0  0  0  0 
 50122  1  0  0  0  0 
 52123  1  0  0  0  0 
 52124  1  0  0  0  0 
 52125  1  0  0  0  0 
 53126  1  0  0  0  0 
 53127  1  0  0  0  0 
 55128  1  0  0  0  0 
 55129  1  0  0  0  0 
 56130  1  0  0  0  0 
 56131  1  0  0  0  0 
 58132  1  0  0  0  0 
 58133  1  0  0  0  0 
 58134  1  0  0  0  0 
M  END
> <cdk:Title>
roxithromycin

> <Conformer>
1

> <SuperDrugID>
SD002169

$$$$
