mosapride
  CDK     0628171801

 54 56  0  0  0  0  0  0  0  0999 V2000
    0.5511   -2.0745    8.2628 C   0  0  0  0  0  0  0  0  0  0  0  0
   -0.4254   -1.2970    7.7044 N   0  0  0  0  0  0  0  0  0  0  0  0
    1.7541   -1.7288    8.1717 O   0  0  0  0  0  0  0  0  0  0  0  0
    0.2290   -3.2686    8.9659 C   0  0  0  0  0  0  0  0  0  0  0  0
   -0.2085   -0.0573    7.0236 C   0  0  1  0  0  0  0  0  0  0  0  0
    1.0611   -4.4218    8.9119 C   0  0  0  0  0  0  0  0  0  0  0  0
   -0.9337   -3.3173    9.7714 C   0  0  0  0  0  0  0  0  0  0  0  0
    0.3372   -0.2607    5.5841 C   0  0  2  0  0  0  0  0  0  0  0  0
    2.2035   -4.4668    8.1504 O   0  0  0  0  0  0  0  0  0  0  0  0
    0.7480   -5.5607    9.6822 C   0  0  0  0  0  0  0  0  0  0  0  0
   -1.2446   -4.4544   10.5422 C   0  0  0  0  0  0  0  0  0  0  0  0
    0.6798    1.0951    4.9043 C   0  0  2  0  0  0  0  0  0  0  0  0
   -0.6429   -0.9702    4.7937 O   0  0  0  0  0  0  0  0  0  0  0  0
    1.9977   -4.7743    6.7541 C   0  0  2  0  0  0  0  0  0  0  0  0
   -0.4005   -5.5854   10.4940 C   0  0  0  0  0  0  0  0  0  0  0  0
   -2.6237   -4.4161   11.5275 Cl  0  0  0  0  0  0  0  0  0  0  0  0
    1.1538    0.8757    3.4979 N   0  0  2  0  0  0  0  0  0  0  0  0
   -0.2102   -1.2353    3.4430 C   0  0  1  0  0  0  0  0  0  0  0  0
    1.6679   -6.2558    6.4677 C   0  0  0  0  0  0  0  0  0  0  0  0
   -0.6675   -6.6944   11.2127 N   0  0  0  0  0  0  0  0  0  0  0  0
    1.5819    2.1333    2.8019 C   0  0  2  0  0  0  0  0  0  0  0  0
    0.1648    0.0760    2.7058 C   0  0  1  0  0  0  0  0  0  0  0  0
    2.7568    2.7774    3.4508 C   0  0  0  0  0  0  0  0  0  0  0  0
    2.6063    3.9600    4.2122 C   0  0  0  0  0  0  0  0  0  0  0  0
    4.0443    2.2027    3.3365 C   0  0  0  0  0  0  0  0  0  0  0  0
    3.7166    4.5559    4.8408 C   0  0  0  0  0  0  0  0  0  0  0  0
    5.1575    2.8037    3.9555 C   0  0  0  0  0  0  0  0  0  0  0  0
    4.9927    3.9789    4.7126 C   0  0  0  0  0  0  0  0  0  0  0  0
    6.0190    4.5357    5.2963 F   0  0  0  0  0  0  0  0  0  0  0  0
   -1.3401   -1.6179    7.7580 H   0  0  0  0  0  0  0  0  0  0  0  0
   -1.1612    0.4733    6.9744 H   0  0  0  0  0  0  0  0  0  0  0  0
    0.4792    0.5684    7.5998 H   0  0  0  0  0  0  0  0  0  0  0  0
   -1.5558   -2.5071    9.8135 H   0  0  0  0  0  0  0  0  0  0  0  0
    1.2543   -0.8600    5.6442 H   0  0  0  0  0  0  0  0  0  0  0  0
    1.3669   -6.3773    9.6451 H   0  0  0  0  0  0  0  0  0  0  0  0
    1.4638    1.5751    5.4955 H   0  0  0  0  0  0  0  0  0  0  0  0
   -0.2001    1.7476    4.9118 H   0  0  0  0  0  0  0  0  0  0  0  0
    2.9408   -4.5454    6.2563 H   0  0  0  0  0  0  0  0  0  0  0  0
    1.2295   -4.1341    6.3072 H   0  0  0  0  0  0  0  0  0  0  0  0
    0.6421   -1.9203    3.4508 H   0  0  0  0  0  0  0  0  0  0  0  0
   -1.0280   -1.7274    2.9114 H   0  0  0  0  0  0  0  0  0  0  0  0
    0.6674   -6.4974    6.8276 H   0  0  0  0  0  0  0  0  0  0  0  0
    1.7018   -6.4365    5.3915 H   0  0  0  0  0  0  0  0  0  0  0  0
    2.3922   -6.9114    6.9547 H   0  0  0  0  0  0  0  0  0  0  0  0
   -0.0829   -7.4675   11.1555 H   0  0  0  0  0  0  0  0  0  0  0  0
   -1.4417   -6.7191   11.7953 H   0  0  0  0  0  0  0  0  0  0  0  0
    0.7399    2.8313    2.7493 H   0  0  0  0  0  0  0  0  0  0  0  0
    1.8634    1.9113    1.7687 H   0  0  0  0  0  0  0  0  0  0  0  0
   -0.7461    0.6604    2.5403 H   0  0  0  0  0  0  0  0  0  0  0  0
    0.5845   -0.1864    1.7297 H   0  0  0  0  0  0  0  0  0  0  0  0
    1.6828    4.3864    4.3227 H   0  0  0  0  0  0  0  0  0  0  0  0
    4.1769    1.3426    2.7996 H   0  0  0  0  0  0  0  0  0  0  0  0
    3.5948    5.4087    5.3918 H   0  0  0  0  0  0  0  0  0  0  0  0
    6.0851    2.3836    3.8544 H   0  0  0  0  0  0  0  0  0  0  0  0
  1  2  1  0  0  0  0 
  1  3  2  0  0  0  0 
  1  4  1  0  0  0  0 
  2  5  1  0  0  0  0 
  4  6  2  0  0  0  0 
  4  7  1  0  0  0  0 
  8  5  1  0  0  0  0 
  6  9  1  0  0  0  0 
  6 10  1  0  0  0  0 
  7 11  2  0  0  0  0 
  8 12  1  0  0  0  0 
  8 13  1  0  0  0  0 
  9 14  1  0  0  0  0 
 10 15  2  0  0  0  0 
 11 15  1  0  0  0  0 
 11 16  1  0  0  0  0 
 12 17  1  0  0  0  0 
 13 18  1  0  0  0  0 
 14 19  1  0  0  0  0 
 15 20  1  0  0  0  0 
 17 21  1  0  0  0  0 
 17 22  1  0  0  0  0 
 18 22  1  0  0  0  0 
 21 23  1  0  0  0  0 
 23 24  2  0  0  0  0 
 23 25  1  0  0  0  0 
 24 26  1  0  0  0  0 
 25 27  2  0  0  0  0 
 26 28  2  0  0  0  0 
 27 28  1  0  0  0  0 
 28 29  1  0  0  0  0 
  2 30  1  0  0  0  0 
  5 31  1  0  0  0  0 
  5 32  1  0  0  0  0 
  7 33  1  0  0  0  0 
  8 34  1  0  0  0  0 
 10 35  1  0  0  0  0 
 12 36  1  0  0  0  0 
 12 37  1  0  0  0  0 
 14 38  1  0  0  0  0 
 14 39  1  0  0  0  0 
 18 40  1  0  0  0  0 
 18 41  1  0  0  0  0 
 19 42  1  0  0  0  0 
 19 43  1  0  0  0  0 
 19 44  1  0  0  0  0 
 20 45  1  0  0  0  0 
 20 46  1  0  0  0  0 
 21 47  1  0  0  0  0 
 21 48  1  0  0  0  0 
 22 49  1  0  0  0  0 
 22 50  1  0  0  0  0 
 24 51  1  0  0  0  0 
 25 52  1  0  0  0  0 
 26 53  1  0  0  0  0 
 27 54  1  0  0  0  0 
M  END
> <cdk:Title>
mosapride

> <Conformer>
1

> <SuperDrugID>
SD001645

$$$$
