pecilocin
  CDK     0628171801

 46 46  0  0  0  0  0  0  0  0999 V2000
    0.5247    5.9859   -9.1336 C   0  0  0  0  0  0  0  0  0  0  0  0
    0.4547    5.0693   -8.0763 C   0  0  0  0  0  0  0  0  0  0  0  0
   -0.5438    6.5382   -9.4995 O   0  0  0  0  0  0  0  0  0  0  0  0
    1.7070    6.3350   -9.7807 N   0  0  0  0  0  0  0  0  0  0  0  0
   -0.6722    4.7400   -7.4146 C   0  0  0  0  0  0  0  0  0  0  0  0
    1.8244    7.2993  -10.7394 C   0  0  0  0  0  0  0  0  0  0  0  0
    2.9945    5.7603   -9.5162 C   0  0  2  0  0  0  0  0  0  0  0  0
   -0.7062    3.8883   -6.3550 C   0  0  0  0  0  0  0  0  0  0  0  0
    0.8901    7.9998  -11.1945 O   0  0  0  0  0  0  0  0  0  0  0  0
    3.1882    7.5112  -11.2165 C   0  0  2  0  0  0  0  0  0  0  0  0
    3.9827    6.3968  -10.5196 C   0  0  2  0  0  0  0  0  0  0  0  0
   -1.7777    3.1256   -6.0643 C   0  0  0  0  0  0  0  0  0  0  0  0
   -1.8841    2.2909   -4.9752 C   0  0  0  0  0  0  0  0  0  0  0  0
   -0.8831    1.4308   -4.6641 C   0  0  0  0  0  0  0  0  0  0  0  0
   -3.1415    2.3989   -4.2257 C   0  0  0  0  0  0  0  0  0  0  0  0
   -0.8489    0.4678   -3.5653 C   0  0  1  0  0  0  0  0  0  0  0  0
   -1.5716   -0.8533   -3.9593 C   0  0  1  0  0  0  0  0  0  0  0  0
    0.5143    0.2076   -3.2324 O   0  0  0  0  0  0  0  0  0  0  0  0
   -1.6297   -1.9211   -2.8313 C   0  0  1  0  0  0  0  0  0  0  0  0
   -2.3836   -3.2030   -3.2817 C   0  0  2  0  0  0  0  0  0  0  0  0
   -2.4754   -4.2704   -2.1695 C   0  0  0  0  0  0  0  0  0  0  0  0
    1.2996    4.6368   -7.7836 H   0  0  0  0  0  0  0  0  0  0  0  0
   -1.5349    5.1472   -7.6974 H   0  0  0  0  0  0  0  0  0  0  0  0
    2.9772    4.6752   -9.6546 H   0  0  0  0  0  0  0  0  0  0  0  0
    3.3005    5.9852   -8.4911 H   0  0  0  0  0  0  0  0  0  0  0  0
    0.0933    3.8399   -5.7628 H   0  0  0  0  0  0  0  0  0  0  0  0
    3.5424    8.5009  -10.9166 H   0  0  0  0  0  0  0  0  0  0  0  0
    3.2392    7.4120  -12.3047 H   0  0  0  0  0  0  0  0  0  0  0  0
    4.3100    5.6581  -11.2575 H   0  0  0  0  0  0  0  0  0  0  0  0
    4.8653    6.7978  -10.0123 H   0  0  0  0  0  0  0  0  0  0  0  0
   -2.5672    3.1763   -6.6710 H   0  0  0  0  0  0  0  0  0  0  0  0
   -0.0826    1.4134   -5.2587 H   0  0  0  0  0  0  0  0  0  0  0  0
   -3.2543    3.4166   -3.8443 H   0  0  0  0  0  0  0  0  0  0  0  0
   -3.2235    1.7287   -3.3709 H   0  0  0  0  0  0  0  0  0  0  0  0
   -3.9876    2.1758   -4.8811 H   0  0  0  0  0  0  0  0  0  0  0  0
   -1.2935    0.8897   -2.6613 H   0  0  0  0  0  0  0  0  0  0  0  0
   -2.5986   -0.6194   -4.2553 H   0  0  0  0  0  0  0  0  0  0  0  0
   -1.0641   -1.2893   -4.8258 H   0  0  0  0  0  0  0  0  0  0  0  0
    0.4749   -0.3536   -2.4311 H   0  0  0  0  0  0  0  0  0  0  0  0
   -0.6118   -2.1930   -2.5400 H   0  0  0  0  0  0  0  0  0  0  0  0
   -2.1332   -1.4960   -1.9582 H   0  0  0  0  0  0  0  0  0  0  0  0
   -1.8655   -3.6435   -4.1382 H   0  0  0  0  0  0  0  0  0  0  0  0
   -3.3975   -2.9380   -3.5961 H   0  0  0  0  0  0  0  0  0  0  0  0
   -3.0201   -5.1424   -2.5379 H   0  0  0  0  0  0  0  0  0  0  0  0
   -1.4760   -4.5876   -1.8668 H   0  0  0  0  0  0  0  0  0  0  0  0
   -3.0028   -3.8711   -1.3010 H   0  0  0  0  0  0  0  0  0  0  0  0
  1  2  1  0  0  0  0 
  1  3  2  0  0  0  0 
  1  4  1  0  0  0  0 
  2  5  2  0  0  0  0 
  4  6  1  0  0  0  0 
  4  7  1  0  0  0  0 
  5  8  1  0  0  0  0 
  6  9  2  0  0  0  0 
  6 10  1  0  0  0  0 
  7 11  1  0  0  0  0 
  8 12  2  0  0  0  0 
 10 11  1  0  0  0  0 
 12 13  1  0  0  0  0 
 13 14  2  0  0  0  0 
 13 15  1  0  0  0  0 
 16 14  1  0  0  0  0 
 16 17  1  0  0  0  0 
 16 18  1  0  0  0  0 
 17 19  1  0  0  0  0 
 19 20  1  0  0  0  0 
 20 21  1  0  0  0  0 
  2 22  1  0  0  0  0 
  5 23  1  0  0  0  0 
  7 24  1  0  0  0  0 
  7 25  1  0  0  0  0 
  8 26  1  0  0  0  0 
 10 27  1  0  0  0  0 
 10 28  1  0  0  0  0 
 11 29  1  0  0  0  0 
 11 30  1  0  0  0  0 
 12 31  1  0  0  0  0 
 14 32  1  0  0  0  0 
 15 33  1  0  0  0  0 
 15 34  1  0  0  0  0 
 15 35  1  0  0  0  0 
 16 36  1  0  0  0  0 
 17 37  1  0  0  0  0 
 17 38  1  0  0  0  0 
 18 39  1  0  0  0  0 
 19 40  1  0  0  0  0 
 19 41  1  0  0  0  0 
 20 42  1  0  0  0  0 
 20 43  1  0  0  0  0 
 21 44  1  0  0  0  0 
 21 45  1  0  0  0  0 
 21 46  1  0  0  0  0 
M  END
> <cdk:Title>
pecilocin

> <Conformer>
1

> <SuperDrugID>
SD002945

$$$$
