mopidamol
  CDK     0628171801

 61 63  0  0  0  0  0  0  0  0999 V2000
   -3.6724    2.7638    7.6435 N   0  0  0  0  0  0  0  0  0  0  0  0
   -4.8655    3.3329    7.0174 C   0  0  2  0  0  0  0  0  0  0  0  0
   -3.2424    3.1391    8.9860 C   0  0  1  0  0  0  0  0  0  0  0  0
   -2.8771    1.8813    6.9104 C   0  0  0  0  0  0  0  0  0  0  0  0
   -5.6696    4.4330    7.7656 C   0  0  1  0  0  0  0  0  0  0  0  0
   -2.0728    4.1518    8.9418 C   0  0  2  0  0  0  0  0  0  0  0  0
   -3.0292    1.7125    5.5644 N   0  0  0  0  0  0  0  0  0  0  0  0
   -1.8700    1.1770    7.5058 N   0  0  0  0  0  0  0  0  0  0  0  0
   -6.7149    4.9544    6.9531 O   0  0  0  0  0  0  0  0  0  0  0  0
   -1.7142    4.5499   10.2599 O   0  0  0  0  0  0  0  0  0  0  0  0
   -2.2086    0.9399    4.8027 C   0  0  0  0  0  0  0  0  0  0  0  0
   -1.0011    0.3603    6.8606 C   0  0  0  0  0  0  0  0  0  0  0  0
   -2.3376    0.7942    3.4007 C   0  0  0  0  0  0  0  0  0  0  0  0
   -1.1513    0.2478    5.4350 C   0  0  0  0  0  0  0  0  0  0  0  0
   -1.4121    0.0329    2.7525 N   0  0  0  0  0  0  0  0  0  0  0  0
   -3.3294    1.3791    2.6469 N   0  0  0  0  0  0  0  0  0  0  0  0
   -0.2865   -0.4966    4.7048 N   0  0  0  0  0  0  0  0  0  0  0  0
   -0.3719   -0.6160    3.3498 C   0  0  0  0  0  0  0  0  0  0  0  0
   -3.6579    2.7871    2.7593 C   0  0  2  0  0  0  0  0  0  0  0  0
   -4.0512    0.6032    1.6574 C   0  0  1  0  0  0  0  0  0  0  0  0
    0.5664   -1.3449    2.6191 N   0  0  0  0  0  0  0  0  0  0  0  0
   -3.5448    3.4980    1.3840 C   0  0  2  0  0  0  0  0  0  0  0  0
   -3.8873    1.2357    0.2524 C   0  0  1  0  0  0  0  0  0  0  0  0
    1.5883   -2.0862    3.3538 C   0  0  2  0  0  0  0  0  0  0  0  0
    0.5248   -1.3266    1.1634 C   0  0  1  0  0  0  0  0  0  0  0  0
   -4.3080    2.7267    0.2770 C   0  0  1  0  0  0  0  0  0  0  0  0
    2.7294   -2.8162    2.5979 C   0  0  1  0  0  0  0  0  0  0  0  0
    1.3463   -0.1534    0.5779 C   0  0  2  0  0  0  0  0  0  0  0  0
    3.6216   -3.4171    3.5300 O   0  0  0  0  0  0  0  0  0  0  0  0
    0.7844    1.1100    0.9174 O   0  0  0  0  0  0  0  0  0  0  0  0
   -5.5611    2.5140    6.8095 H   0  0  0  0  0  0  0  0  0  0  0  0
   -4.5739    3.7726    6.0570 H   0  0  0  0  0  0  0  0  0  0  0  0
   -4.0450    3.5718    9.5816 H   0  0  0  0  0  0  0  0  0  0  0  0
   -2.9265    2.2564    9.5492 H   0  0  0  0  0  0  0  0  0  0  0  0
   -6.1292    4.0263    8.6693 H   0  0  0  0  0  0  0  0  0  0  0  0
   -5.0109    5.2612    8.0351 H   0  0  0  0  0  0  0  0  0  0  0  0
   -2.3593    5.0383    8.3710 H   0  0  0  0  0  0  0  0  0  0  0  0
   -1.1980    3.6987    8.4703 H   0  0  0  0  0  0  0  0  0  0  0  0
   -7.1302    5.6531    7.5034 H   0  0  0  0  0  0  0  0  0  0  0  0
   -0.9602    5.1635   10.1366 H   0  0  0  0  0  0  0  0  0  0  0  0
   -0.2710   -0.1134    7.4882 H   0  0  0  0  0  0  0  0  0  0  0  0
   -2.9976    3.3155    3.4518 H   0  0  0  0  0  0  0  0  0  0  0  0
   -4.6783    2.8871    3.1398 H   0  0  0  0  0  0  0  0  0  0  0  0
   -3.7220   -0.4397    1.6085 H   0  0  0  0  0  0  0  0  0  0  0  0
   -5.1107    0.5847    1.9263 H   0  0  0  0  0  0  0  0  0  0  0  0
   -2.4888    3.5759    1.1064 H   0  0  0  0  0  0  0  0  0  0  0  0
   -3.9472    4.5108    1.4614 H   0  0  0  0  0  0  0  0  0  0  0  0
   -2.8407    1.1535   -0.0617 H   0  0  0  0  0  0  0  0  0  0  0  0
   -4.5033    0.6935   -0.4694 H   0  0  0  0  0  0  0  0  0  0  0  0
    1.0781   -2.8445    3.9526 H   0  0  0  0  0  0  0  0  0  0  0  0
    2.0822   -1.3960    4.0455 H   0  0  0  0  0  0  0  0  0  0  0  0
    0.9031   -2.2582    0.7438 H   0  0  0  0  0  0  0  0  0  0  0  0
   -0.5009   -1.2591    0.7899 H   0  0  0  0  0  0  0  0  0  0  0  0
   -5.3843    2.7983    0.4590 H   0  0  0  0  0  0  0  0  0  0  0  0
   -4.1019    3.1813   -0.6944 H   0  0  0  0  0  0  0  0  0  0  0  0
    2.3326   -3.6065    1.9573 H   0  0  0  0  0  0  0  0  0  0  0  0
    3.3011   -2.1119    1.9926 H   0  0  0  0  0  0  0  0  0  0  0  0
    1.3723   -0.2352   -0.5098 H   0  0  0  0  0  0  0  0  0  0  0  0
    2.3721   -0.1824    0.9497 H   0  0  0  0  0  0  0  0  0  0  0  0
    4.3274   -3.8114    2.9760 H   0  0  0  0  0  0  0  0  0  0  0  0
   -0.0939    1.1245    0.4839 H   0  0  0  0  0  0  0  0  0  0  0  0
  1  2  1  0  0  0  0 
  1  3  1  0  0  0  0 
  1  4  1  0  0  0  0 
  2  5  1  0  0  0  0 
  3  6  1  0  0  0  0 
  4  7  1  0  0  0  0 
  4  8  2  0  0  0  0 
  5  9  1  0  0  0  0 
  6 10  1  0  0  0  0 
  7 11  2  0  0  0  0 
  8 12  1  0  0  0  0 
 11 13  1  0  0  0  0 
 11 14  1  0  0  0  0 
 12 14  2  0  0  0  0 
 13 15  2  0  0  0  0 
 13 16  1  0  0  0  0 
 14 17  1  0  0  0  0 
 15 18  1  0  0  0  0 
 16 19  1  0  0  0  0 
 16 20  1  0  0  0  0 
 17 18  2  0  0  0  0 
 18 21  1  0  0  0  0 
 19 22  1  0  0  0  0 
 20 23  1  0  0  0  0 
 21 24  1  0  0  0  0 
 21 25  1  0  0  0  0 
 22 26  1  0  0  0  0 
 23 26  1  0  0  0  0 
 24 27  1  0  0  0  0 
 25 28  1  0  0  0  0 
 27 29  1  0  0  0  0 
 28 30  1  0  0  0  0 
  2 31  1  0  0  0  0 
  2 32  1  0  0  0  0 
  3 33  1  0  0  0  0 
  3 34  1  0  0  0  0 
  5 35  1  0  0  0  0 
  5 36  1  0  0  0  0 
  6 37  1  0  0  0  0 
  6 38  1  0  0  0  0 
  9 39  1  0  0  0  0 
 10 40  1  0  0  0  0 
 12 41  1  0  0  0  0 
 19 42  1  0  0  0  0 
 19 43  1  0  0  0  0 
 20 44  1  0  0  0  0 
 20 45  1  0  0  0  0 
 22 46  1  0  0  0  0 
 22 47  1  0  0  0  0 
 23 48  1  0  0  0  0 
 23 49  1  0  0  0  0 
 24 50  1  0  0  0  0 
 24 51  1  0  0  0  0 
 25 52  1  0  0  0  0 
 25 53  1  0  0  0  0 
 26 54  1  0  0  0  0 
 26 55  1  0  0  0  0 
 27 56  1  0  0  0  0 
 27 57  1  0  0  0  0 
 28 58  1  0  0  0  0 
 28 59  1  0  0  0  0 
 29 60  1  0  0  0  0 
 30 61  1  0  0  0  0 
M  END
> <cdk:Title>
mopidamol

> <Conformer>
1

> <SuperDrugID>
SD001636

$$$$
