iodol
  CDK     0628171801

 10 10  0  0  0  0  0  0  0  0999 V2000
   -3.6765    1.9975    0.0000 I   0  0  0  0  0  0  0  0  0  0  0  0
   -2.0709    0.7229    0.0000 C   0  0  0  0  0  0  0  0  0  0  0  0
   -2.1287   -0.6662    0.0000 C   0  0  0  0  0  0  0  0  0  0  0  0
   -3.8251   -1.8233    0.0000 I   0  0  0  0  0  0  0  0  0  0  0  0
   -0.8175   -1.1229    0.0000 C   0  0  0  0  0  0  0  0  0  0  0  0
   -0.2055   -3.0810    0.0000 I   0  0  0  0  0  0  0  0  0  0  0  0
   -0.0021    0.0033    0.0000 C   0  0  0  0  0  0  0  0  0  0  0  0
    2.0486    0.0086    0.0000 I   0  0  0  0  0  0  0  0  0  0  0  0
   -0.7818    1.0956    0.0000 N   0  0  0  0  0  0  0  0  0  0  0  0
   -0.4642    2.0121    0.0000 H   0  0  0  0  0  0  0  0  0  0  0  0
  1  2  1  0  0  0  0 
  2  3  2  0  0  0  0 
  3  4  1  0  0  0  0 
  3  5  1  0  0  0  0 
  5  6  1  0  0  0  0 
  5  7  2  0  0  0  0 
  7  8  1  0  0  0  0 
  7  9  1  0  0  0  0 
  2  9  1  0  0  0  0 
  9 10  1  0  0  0  0 
M  END
> <cdk:Title>
iodol

> <Conformer>
1

> <SuperDrugID>
SD002854

$$$$
