guaiacol benzoate
  CDK     0628171801

 29 30  0  0  0  0  0  0  0  0999 V2000
    0.8929    0.8459    2.1173 O   0  0  0  0  0  0  0  0  0  0  0  0
    0.2622    0.3262    3.2161 C   0  0  0  0  0  0  0  0  0  0  0  0
    1.2005    0.3831    0.8652 C   0  0  0  0  0  0  0  0  0  0  0  0
   -0.2876   -0.8000    3.1732 O   0  0  0  0  0  0  0  0  0  0  0  0
    0.2105    1.1148    4.3985 C   0  0  0  0  0  0  0  0  0  0  0  0
    1.7635    1.3335   -0.0189 C   0  0  0  0  0  0  0  0  0  0  0  0
    1.0212   -0.9486    0.4217 C   0  0  0  0  0  0  0  0  0  0  0  0
    1.0652    2.2370    4.5454 C   0  0  0  0  0  0  0  0  0  0  0  0
   -0.6866    0.8226    5.4580 C   0  0  0  0  0  0  0  0  0  0  0  0
    1.9356    2.6325    0.3863 O   0  0  0  0  0  0  0  0  0  0  0  0
    2.1224    0.9571   -1.3297 C   0  0  0  0  0  0  0  0  0  0  0  0
    1.3999   -1.3234   -0.8809 C   0  0  0  0  0  0  0  0  0  0  0  0
    1.0102    3.0501    5.6907 C   0  0  0  0  0  0  0  0  0  0  0  0
   -0.7375    1.6326    6.6092 C   0  0  0  0  0  0  0  0  0  0  0  0
    3.2771    2.9178    0.8202 C   0  0  0  0  0  0  0  0  0  0  0  0
    1.9491   -0.3707   -1.7569 C   0  0  0  0  0  0  0  0  0  0  0  0
    0.1091    2.7485    6.7245 C   0  0  0  0  0  0  0  0  0  0  0  0
    0.6253   -1.6591    1.0364 H   0  0  0  0  0  0  0  0  0  0  0  0
    1.7438    2.4793    3.8197 H   0  0  0  0  0  0  0  0  0  0  0  0
   -1.3201    0.0217    5.3987 H   0  0  0  0  0  0  0  0  0  0  0  0
    2.5164    1.6481   -1.9727 H   0  0  0  0  0  0  0  0  0  0  0  0
    1.2782   -2.2907   -1.1908 H   0  0  0  0  0  0  0  0  0  0  0  0
    1.6266    3.8615    5.7694 H   0  0  0  0  0  0  0  0  0  0  0  0
   -1.3926    1.4120    7.3631 H   0  0  0  0  0  0  0  0  0  0  0  0
    3.3037    3.9419    1.1892 H   0  0  0  0  0  0  0  0  0  0  0  0
    3.5889    2.2559    1.6313 H   0  0  0  0  0  0  0  0  0  0  0  0
    3.9842    2.8372   -0.0084 H   0  0  0  0  0  0  0  0  0  0  0  0
    2.2242   -0.6435   -2.7030 H   0  0  0  0  0  0  0  0  0  0  0  0
    0.0707    3.3392    7.5578 H   0  0  0  0  0  0  0  0  0  0  0  0
  1  2  1  0  0  0  0 
  1  3  1  0  0  0  0 
  2  4  2  0  0  0  0 
  2  5  1  0  0  0  0 
  3  6  2  0  0  0  0 
  3  7  1  0  0  0  0 
  5  8  2  0  0  0  0 
  5  9  1  0  0  0  0 
  6 10  1  0  0  0  0 
  6 11  1  0  0  0  0 
  7 12  2  0  0  0  0 
  8 13  1  0  0  0  0 
  9 14  2  0  0  0  0 
 10 15  1  0  0  0  0 
 11 16  2  0  0  0  0 
 12 16  1  0  0  0  0 
 13 17  2  0  0  0  0 
 14 17  1  0  0  0  0 
  7 18  1  0  0  0  0 
  8 19  1  0  0  0  0 
  9 20  1  0  0  0  0 
 11 21  1  0  0  0  0 
 12 22  1  0  0  0  0 
 13 23  1  0  0  0  0 
 14 24  1  0  0  0  0 
 15 25  1  0  0  0  0 
 15 26  1  0  0  0  0 
 15 27  1  0  0  0  0 
 16 28  1  0  0  0  0 
 17 29  1  0  0  0  0 
M  END
> <cdk:Title>
guaiacol benzoate

> <Conformer>
1

> <SuperDrugID>
SD002972

$$$$
