sultiame
  CDK     0628171801

 32 33  0  0  0  0  0  0  0  0999 V2000
   -0.7505   -1.4825   -0.5124 O   0  0  0  0  0  0  0  0  0  0  0  0
    0.2874   -0.9111    0.5687 S   0  0  2  0  0  0  0  0  0  0  0  0
   -0.4742    0.0956    1.5552 O   0  0  0  0  0  0  0  0  0  0  0  0
    1.5922   -0.1625   -0.2694 N   0  0  0  0  0  0  0  0  0  0  0  0
    1.0017   -2.3023    1.5216 C   0  0  2  0  0  0  0  0  0  0  0  0
    1.6305    1.1998   -0.4408 C   0  0  0  0  0  0  0  0  0  0  0  0
    2.5589   -1.0430   -0.8832 C   0  0  1  0  0  0  0  0  0  0  0  0
    2.0090   -3.0747    0.6394 C   0  0  1  0  0  0  0  0  0  0  0  0
    1.6235    2.0939    0.6548 C   0  0  0  0  0  0  0  0  0  0  0  0
    1.6768    1.7426   -1.7468 C   0  0  0  0  0  0  0  0  0  0  0  0
    3.1119   -2.1431    0.0657 C   0  0  2  0  0  0  0  0  0  0  0  0
    1.6521    3.4862    0.4485 C   0  0  0  0  0  0  0  0  0  0  0  0
    1.7307    3.1314   -1.9552 C   0  0  0  0  0  0  0  0  0  0  0  0
    1.7136    4.0139   -0.8576 C   0  0  0  0  0  0  0  0  0  0  0  0
    1.7892    5.7643   -1.1089 S   0  0  1  0  0  0  0  0  0  0  0  0
    3.3257    6.3644   -0.5028 N   0  0  2  0  0  0  0  0  0  0  0  0
    1.6786    6.1415   -2.6636 O   0  0  0  0  0  0  0  0  0  0  0  0
    0.6116    6.5030   -0.3089 O   0  0  0  0  0  0  0  0  0  0  0  0
    0.2052   -2.9640    1.8651 H   0  0  0  0  0  0  0  0  0  0  0  0
    1.5175   -1.8935    2.3928 H   0  0  0  0  0  0  0  0  0  0  0  0
    2.0883   -1.5257   -1.7448 H   0  0  0  0  0  0  0  0  0  0  0  0
    3.4175   -0.4772   -1.2587 H   0  0  0  0  0  0  0  0  0  0  0  0
    2.4787   -3.8573    1.2406 H   0  0  0  0  0  0  0  0  0  0  0  0
    1.4779   -3.5674   -0.1800 H   0  0  0  0  0  0  0  0  0  0  0  0
    1.6059    1.7378    1.6133 H   0  0  0  0  0  0  0  0  0  0  0  0
    1.6684    1.1249   -2.5613 H   0  0  0  0  0  0  0  0  0  0  0  0
    3.6529   -1.6688    0.8903 H   0  0  0  0  0  0  0  0  0  0  0  0
    3.8263   -2.7542   -0.4931 H   0  0  0  0  0  0  0  0  0  0  0  0
    1.6344    4.1100    1.2589 H   0  0  0  0  0  0  0  0  0  0  0  0
    1.7812    3.4902   -2.9106 H   0  0  0  0  0  0  0  0  0  0  0  0
    3.3648    7.3618   -0.7209 H   0  0  0  0  0  0  0  0  0  0  0  0
    4.0542    5.9123   -1.0580 H   0  0  0  0  0  0  0  0  0  0  0  0
  1  2  2  0  0  0  0 
  2  3  2  0  0  0  0 
  2  4  1  0  0  0  0 
  2  5  1  0  0  0  0 
  4  6  1  0  0  0  0 
  4  7  1  0  0  0  0 
  5  8  1  0  0  0  0 
  6  9  2  0  0  0  0 
  6 10  1  0  0  0  0 
  7 11  1  0  0  0  0 
  8 11  1  0  0  0  0 
  9 12  1  0  0  0  0 
 10 13  2  0  0  0  0 
 12 14  2  0  0  0  0 
 13 14  1  0  0  0  0 
 14 15  1  0  0  0  0 
 15 16  1  0  0  0  0 
 15 17  2  0  0  0  0 
 15 18  2  0  0  0  0 
  5 19  1  0  0  0  0 
  5 20  1  0  0  0  0 
  7 21  1  0  0  0  0 
  7 22  1  0  0  0  0 
  8 23  1  0  0  0  0 
  8 24  1  0  0  0  0 
  9 25  1  0  0  0  0 
 10 26  1  0  0  0  0 
 11 27  1  0  0  0  0 
 11 28  1  0  0  0  0 
 12 29  1  0  0  0  0 
 13 30  1  0  0  0  0 
 16 31  1  0  0  0  0 
 16 32  1  0  0  0  0 
M  END
> <cdk:Title>
sultiame

> <Conformer>
1

> <SuperDrugID>
SD002285

$$$$
