capobenic acid
  CDK     0628171802

 46 46  0  0  0  0  0  0  0  0999 V2000
    5.4323   -0.4440   -0.4283 O   0  0  0  0  0  0  0  0  0  0  0  0
    5.9494   -1.2433   -1.5059 C   0  0  0  0  0  0  0  0  0  0  0  0
    4.0733   -0.5486   -0.2864 C   0  0  0  0  0  0  0  0  0  0  0  0
    3.5249   -1.5455    0.5466 C   0  0  0  0  0  0  0  0  0  0  0  0
    3.2158    0.3588   -0.9437 C   0  0  0  0  0  0  0  0  0  0  0  0
    4.3439   -2.4107    1.2219 O   0  0  0  0  0  0  0  0  0  0  0  0
    2.1273   -1.6563    0.6812 C   0  0  0  0  0  0  0  0  0  0  0  0
    3.7373    1.3427   -1.7391 O   0  0  0  0  0  0  0  0  0  0  0  0
    1.8184    0.2417   -0.7969 C   0  0  0  0  0  0  0  0  0  0  0  0
    4.6480   -1.9485    2.5511 C   0  0  0  0  0  0  0  0  0  0  0  0
    1.2468   -0.7670    0.0160 C   0  0  0  0  0  0  0  0  0  0  0  0
    3.9882    2.5632   -1.0191 C   0  0  0  0  0  0  0  0  0  0  0  0
   -0.1637   -0.8963    0.1708 C   0  0  0  0  0  0  0  0  0  0  0  0
   -1.0263    0.1341   -0.0857 N   0  0  0  0  0  0  0  0  0  0  0  0
   -0.6365   -1.9894    0.5698 O   0  0  0  0  0  0  0  0  0  0  0  0
   -2.4389    0.0619    0.1259 C   0  0  2  0  0  0  0  0  0  0  0  0
   -3.1648    1.3670   -0.2814 C   0  0  2  0  0  0  0  0  0  0  0  0
   -4.6855    1.2877    0.0175 C   0  0  1  0  0  0  0  0  0  0  0  0
   -5.4701    2.5526   -0.4142 C   0  0  2  0  0  0  0  0  0  0  0  0
   -6.9787    2.4547   -0.0617 C   0  0  1  0  0  0  0  0  0  0  0  0
   -7.6952    3.6856   -0.4414 C   0  0  0  0  0  0  0  0  0  0  0  0
   -8.2163    4.5034    0.5014 O   0  0  0  0  0  0  0  0  0  0  0  0
   -7.8278    3.9986   -1.6459 O   0  0  0  0  0  0  0  0  0  0  0  0
    7.0299   -1.0998   -1.5423 H   0  0  0  0  0  0  0  0  0  0  0  0
    5.7505   -2.3062   -1.3449 H   0  0  0  0  0  0  0  0  0  0  0  0
    5.5295   -0.9329   -2.4662 H   0  0  0  0  0  0  0  0  0  0  0  0
    1.7593   -2.3918    1.2898 H   0  0  0  0  0  0  0  0  0  0  0  0
    1.2223    0.9042   -1.2973 H   0  0  0  0  0  0  0  0  0  0  0  0
    5.3010   -2.6791    3.0286 H   0  0  0  0  0  0  0  0  0  0  0  0
    5.1706   -0.9884    2.5296 H   0  0  0  0  0  0  0  0  0  0  0  0
    3.7419   -1.8567    3.1562 H   0  0  0  0  0  0  0  0  0  0  0  0
    4.4062    3.2905   -1.7156 H   0  0  0  0  0  0  0  0  0  0  0  0
    3.0641    2.9776   -0.6082 H   0  0  0  0  0  0  0  0  0  0  0  0
    4.7107    2.4126   -0.2124 H   0  0  0  0  0  0  0  0  0  0  0  0
   -0.6610    0.9721   -0.4091 H   0  0  0  0  0  0  0  0  0  0  0  0
   -2.6275   -0.1378    1.1843 H   0  0  0  0  0  0  0  0  0  0  0  0
   -2.8449   -0.7676   -0.4566 H   0  0  0  0  0  0  0  0  0  0  0  0
   -3.0086    1.5377   -1.3492 H   0  0  0  0  0  0  0  0  0  0  0  0
   -2.7334    2.2088    0.2661 H   0  0  0  0  0  0  0  0  0  0  0  0
   -5.1058    0.4251   -0.5068 H   0  0  0  0  0  0  0  0  0  0  0  0
   -4.8271    1.1366    1.0906 H   0  0  0  0  0  0  0  0  0  0  0  0
   -5.3689    2.6829   -1.4957 H   0  0  0  0  0  0  0  0  0  0  0  0
   -5.0378    3.4288    0.0805 H   0  0  0  0  0  0  0  0  0  0  0  0
   -7.4354    1.6053   -0.5775 H   0  0  0  0  0  0  0  0  0  0  0  0
   -7.0913    2.2806    1.0121 H   0  0  0  0  0  0  0  0  0  0  0  0
   -8.6631    5.3361    0.2402 H   0  0  0  0  0  0  0  0  0  0  0  0
  1  2  1  0  0  0  0 
  1  3  1  0  0  0  0 
  3  4  2  0  0  0  0 
  3  5  1  0  0  0  0 
  4  6  1  0  0  0  0 
  4  7  1  0  0  0  0 
  5  8  1  0  0  0  0 
  5  9  2  0  0  0  0 
  6 10  1  0  0  0  0 
  7 11  2  0  0  0  0 
  8 12  1  0  0  0  0 
  9 11  1  0  0  0  0 
 11 13  1  0  0  0  0 
 13 14  1  0  0  0  0 
 13 15  2  0  0  0  0 
 14 16  1  0  0  0  0 
 16 17  1  0  0  0  0 
 17 18  1  0  0  0  0 
 18 19  1  0  0  0  0 
 19 20  1  0  0  0  0 
 20 21  1  0  0  0  0 
 21 22  1  0  0  0  0 
 21 23  2  0  0  0  0 
  2 24  1  0  0  0  0 
  2 25  1  0  0  0  0 
  2 26  1  0  0  0  0 
  7 27  1  0  0  0  0 
  9 28  1  0  0  0  0 
 10 29  1  0  0  0  0 
 10 30  1  0  0  0  0 
 10 31  1  0  0  0  0 
 12 32  1  0  0  0  0 
 12 33  1  0  0  0  0 
 12 34  1  0  0  0  0 
 14 35  1  0  0  0  0 
 16 36  1  0  0  0  0 
 16 37  1  0  0  0  0 
 17 38  1  0  0  0  0 
 17 39  1  0  0  0  0 
 18 40  1  0  0  0  0 
 18 41  1  0  0  0  0 
 19 42  1  0  0  0  0 
 19 43  1  0  0  0  0 
 20 44  1  0  0  0  0 
 20 45  1  0  0  0  0 
 22 46  1  0  0  0  0 
M  END
> <cdk:Title>
capobenic acid

> <Conformer>
1

> <SuperDrugID>
SD000416

$$$$
