talniflumate
  CDK     0628171801

 43 46  0  0  0  0  0  0  0  0999 V2000
    4.6263    7.0236    1.6070 O   0  0  0  0  0  0  0  0  0  0  0  0
    5.4033    5.9316    1.8557 C   0  0  0  0  0  0  0  0  0  0  0  0
    4.9708    8.4078    1.7090 C   0  0  2  0  0  0  0  0  0  0  0  0
    6.5720    6.1282    2.2722 O   0  0  0  0  0  0  0  0  0  0  0  0
    4.8994    4.6062    1.6581 C   0  0  0  0  0  0  0  0  0  0  0  0
    3.7891    9.2205    1.4139 C   0  0  0  0  0  0  0  0  0  0  0  0
    5.8685    8.8212    0.6668 O   0  0  0  0  0  0  0  0  0  0  0  0
    3.7056    4.3069    0.9295 C   0  0  0  0  0  0  0  0  0  0  0  0
    5.6135    3.5080    2.2038 C   0  0  0  0  0  0  0  0  0  0  0  0
    4.0200   10.0284    0.3038 C   0  0  0  0  0  0  0  0  0  0  0  0
    2.5525    9.2453    2.0839 C   0  0  0  0  0  0  0  0  0  0  0  0
    5.3177    9.7793   -0.1221 C   0  0  0  0  0  0  0  0  0  0  0  0
    2.9107    5.2919    0.4189 N   0  0  0  0  0  0  0  0  0  0  0  0
    3.3235    3.0075    0.7788 N   0  0  0  0  0  0  0  0  0  0  0  0
    5.1750    2.1864    2.0232 C   0  0  0  0  0  0  0  0  0  0  0  0
    3.0205   10.8898   -0.1865 C   0  0  0  0  0  0  0  0  0  0  0  0
    1.5369   10.0950    1.5999 C   0  0  0  0  0  0  0  0  0  0  0  0
    5.9086   10.3360   -1.0743 O   0  0  0  0  0  0  0  0  0  0  0  0
    2.1391    5.3236   -0.7102 C   0  0  0  0  0  0  0  0  0  0  0  0
    4.0078    1.9537    1.2840 C   0  0  0  0  0  0  0  0  0  0  0  0
    1.7691   10.9098    0.4688 C   0  0  0  0  0  0  0  0  0  0  0  0
    2.1214    4.3540   -1.7435 C   0  0  0  0  0  0  0  0  0  0  0  0
    1.3271    6.4689   -0.8482 C   0  0  0  0  0  0  0  0  0  0  0  0
    1.3258    4.5233   -2.9068 C   0  0  0  0  0  0  0  0  0  0  0  0
    0.5277    6.6537   -1.9871 C   0  0  0  0  0  0  0  0  0  0  0  0
    1.3369    3.4838   -3.9768 C   0  0  1  0  0  0  0  0  0  0  0  0
    0.5299    5.6903   -3.0092 C   0  0  0  0  0  0  0  0  0  0  0  0
    0.7157    2.3483   -3.5204 F   0  0  0  0  0  0  0  0  0  0  0  0
    0.6957    3.8534   -5.1380 F   0  0  0  0  0  0  0  0  0  0  0  0
    2.6269    3.1653   -4.3310 F   0  0  0  0  0  0  0  0  0  0  0  0
    5.3773    8.6531    2.6938 H   0  0  0  0  0  0  0  0  0  0  0  0
    6.4642    3.6594    2.7537 H   0  0  0  0  0  0  0  0  0  0  0  0
    2.3911    8.6561    2.9030 H   0  0  0  0  0  0  0  0  0  0  0  0
    2.8992    6.1142    0.9266 H   0  0  0  0  0  0  0  0  0  0  0  0
    5.6978    1.4079    2.4273 H   0  0  0  0  0  0  0  0  0  0  0  0
    3.1928   11.4865   -0.9992 H   0  0  0  0  0  0  0  0  0  0  0  0
    0.6270   10.1195    2.0689 H   0  0  0  0  0  0  0  0  0  0  0  0
    3.6704    1.0022    1.1286 H   0  0  0  0  0  0  0  0  0  0  0  0
    1.0237   11.5178    0.1242 H   0  0  0  0  0  0  0  0  0  0  0  0
    2.7031    3.5187   -1.6650 H   0  0  0  0  0  0  0  0  0  0  0  0
    1.3092    7.1851   -0.1165 H   0  0  0  0  0  0  0  0  0  0  0  0
   -0.0548    7.4916   -2.0705 H   0  0  0  0  0  0  0  0  0  0  0  0
   -0.0594    5.8548   -3.8290 H   0  0  0  0  0  0  0  0  0  0  0  0
  1  2  1  0  0  0  0 
  3  1  1  0  0  0  0 
  2  4  2  0  0  0  0 
  2  5  1  0  0  0  0 
  3  6  1  0  0  0  0 
  3  7  1  0  0  0  0 
  5  8  2  0  0  0  0 
  5  9  1  0  0  0  0 
  6 10  2  0  0  0  0 
  6 11  1  0  0  0  0 
  7 12  1  0  0  0  0 
  8 13  1  0  0  0  0 
  8 14  1  0  0  0  0 
  9 15  2  0  0  0  0 
 10 12  1  0  0  0  0 
 10 16  1  0  0  0  0 
 11 17  2  0  0  0  0 
 12 18  2  0  0  0  0 
 13 19  1  0  0  0  0 
 14 20  2  0  0  0  0 
 15 20  1  0  0  0  0 
 16 21  2  0  0  0  0 
 17 21  1  0  0  0  0 
 19 22  2  0  0  0  0 
 19 23  1  0  0  0  0 
 22 24  1  0  0  0  0 
 23 25  2  0  0  0  0 
 24 26  1  0  0  0  0 
 24 27  2  0  0  0  0 
 25 27  1  0  0  0  0 
 26 28  1  0  0  0  0 
 26 29  1  0  0  0  0 
 26 30  1  0  0  0  0 
  3 31  1  0  0  0  0 
  9 32  1  0  0  0  0 
 11 33  1  0  0  0  0 
 13 34  1  0  0  0  0 
 15 35  1  0  0  0  0 
 16 36  1  0  0  0  0 
 17 37  1  0  0  0  0 
 20 38  1  0  0  0  0 
 21 39  1  0  0  0  0 
 22 40  1  0  0  0  0 
 23 41  1  0  0  0  0 
 25 42  1  0  0  0  0 
 27 43  1  0  0  0  0 
M  END
> <cdk:Title>
talniflumate

> <Conformer>
1

> <SuperDrugID>
SD002303

$$$$
