glybuzole
  CDK     0628171801

 34 35  0  0  0  0  0  0  0  0999 V2000
    2.1836    2.4463   -2.3126 N   0  0  0  0  0  0  0  0  0  0  0  0
    2.7487    4.0613   -2.1873 S   0  0  1  0  0  0  0  0  0  0  0  0
    2.9984    1.3837   -2.1594 C   0  0  0  0  0  0  0  0  0  0  0  0
    4.1090    4.1888   -3.0285 O   0  0  0  0  0  0  0  0  0  0  0  0
    1.6551    5.0279   -2.8554 O   0  0  0  0  0  0  0  0  0  0  0  0
    3.0005    4.5274   -0.4960 C   0  0  0  0  0  0  0  0  0  0  0  0
    2.6848   -0.2455   -2.7219 S   0  0  0  0  0  0  0  0  0  0  0  0
    4.2255    1.3357   -1.5933 N   0  0  0  0  0  0  0  0  0  0  0  0
    4.0959    5.3365   -0.1243 C   0  0  0  0  0  0  0  0  0  0  0  0
    2.0830    4.1107    0.4904 C   0  0  0  0  0  0  0  0  0  0  0  0
    4.2601   -0.8624   -2.2437 C   0  0  0  0  0  0  0  0  0  0  0  0
    4.8618    0.1877   -1.6323 N   0  0  0  0  0  0  0  0  0  0  0  0
    4.2692    5.7255    1.2181 C   0  0  0  0  0  0  0  0  0  0  0  0
    2.2548    4.4980    1.8324 C   0  0  0  0  0  0  0  0  0  0  0  0
    4.8346   -2.2158   -2.5078 C   0  0  2  0  0  0  0  0  0  0  0  0
    3.3483    5.3049    2.1949 C   0  0  0  0  0  0  0  0  0  0  0  0
    6.2774   -2.3243   -1.9179 C   0  0  0  0  0  0  0  0  0  0  0  0
    4.8987   -2.4477   -4.0513 C   0  0  0  0  0  0  0  0  0  0  0  0
    3.9396   -3.3076   -1.8464 C   0  0  0  0  0  0  0  0  0  0  0  0
    1.2531    2.2954   -2.5422 H   0  0  0  0  0  0  0  0  0  0  0  0
    4.7682    5.6530   -0.8257 H   0  0  0  0  0  0  0  0  0  0  0  0
    1.2823    3.5297    0.2367 H   0  0  0  0  0  0  0  0  0  0  0  0
    5.0592    6.3190    1.4851 H   0  0  0  0  0  0  0  0  0  0  0  0
    1.5817    4.1989    2.5427 H   0  0  0  0  0  0  0  0  0  0  0  0
    3.4695    5.5910    3.1677 H   0  0  0  0  0  0  0  0  0  0  0  0
    6.7029   -3.3100   -2.1172 H   0  0  0  0  0  0  0  0  0  0  0  0
    6.9369   -1.5745   -2.3633 H   0  0  0  0  0  0  0  0  0  0  0  0
    6.2673   -2.1713   -0.8349 H   0  0  0  0  0  0  0  0  0  0  0  0
    5.3382   -3.4226   -4.2735 H   0  0  0  0  0  0  0  0  0  0  0  0
    5.5090   -1.6810   -4.5378 H   0  0  0  0  0  0  0  0  0  0  0  0
    3.9005   -2.4217   -4.4968 H   0  0  0  0  0  0  0  0  0  0  0  0
    4.3573   -4.3015   -2.0230 H   0  0  0  0  0  0  0  0  0  0  0  0
    2.9290   -3.2909   -2.2606 H   0  0  0  0  0  0  0  0  0  0  0  0
    3.8713   -3.1539   -0.7660 H   0  0  0  0  0  0  0  0  0  0  0  0
  1  2  1  0  0  0  0 
  1  3  1  0  0  0  0 
  2  4  2  0  0  0  0 
  2  5  2  0  0  0  0 
  2  6  1  0  0  0  0 
  3  7  1  0  0  0  0 
  3  8  2  0  0  0  0 
  6  9  2  0  0  0  0 
  6 10  1  0  0  0  0 
  7 11  1  0  0  0  0 
  8 12  1  0  0  0  0 
  9 13  1  0  0  0  0 
 10 14  2  0  0  0  0 
 11 12  2  0  0  0  0 
 11 15  1  0  0  0  0 
 13 16  2  0  0  0  0 
 14 16  1  0  0  0  0 
 15 17  1  0  0  0  0 
 15 18  1  0  0  0  0 
 15 19  1  0  0  0  0 
  1 20  1  0  0  0  0 
  9 21  1  0  0  0  0 
 10 22  1  0  0  0  0 
 13 23  1  0  0  0  0 
 14 24  1  0  0  0  0 
 16 25  1  0  0  0  0 
 17 26  1  0  0  0  0 
 17 27  1  0  0  0  0 
 17 28  1  0  0  0  0 
 18 29  1  0  0  0  0 
 18 30  1  0  0  0  0 
 18 31  1  0  0  0  0 
 19 32  1  0  0  0  0 
 19 33  1  0  0  0  0 
 19 34  1  0  0  0  0 
M  END
> <cdk:Title>
glybuzole

> <Conformer>
1

> <SuperDrugID>
SD001171

$$$$
