methylprednisolone succinate
  CDK     0628171801

 68 71  0  0  0  0  0  0  0  0999 V2000
   -3.4836   -1.1051   -0.4114 C   0  0  0  0  0  0  0  0  0  0  0  0
   -2.9199   -2.5704   -0.5841 C   0  0  2  0  0  0  0  0  0  0  0  0
   -3.9976   -3.6984   -0.4694 C   0  0  2  0  0  0  0  0  0  0  0  0
   -2.0086   -2.9388    0.6574 C   0  0  2  0  0  0  0  0  0  0  0  0
   -2.2817   -2.7253   -2.0126 C   0  0  2  0  0  0  0  0  0  0  0  0
   -5.1480   -3.6039   -1.5264 C   0  0  1  0  0  0  0  0  0  0  0  0
   -4.3610   -3.7304    1.0307 C   0  0  1  0  0  0  0  0  0  0  0  0
   -1.0200   -1.8864    1.0712 C   0  0  0  0  0  0  0  0  0  0  0  0
   -1.2442   -4.1288    0.3998 O   0  0  0  0  0  0  0  0  0  0  0  0
   -3.0526   -3.3349    1.7612 C   0  0  2  0  0  0  0  0  0  0  0  0
   -3.3207   -2.7136   -3.1892 C   0  0  1  0  0  0  0  0  0  0  0  0
   -4.5533   -3.6847   -2.9872 C   0  0  2  0  0  0  0  0  0  0  0  0
   -6.2044   -4.7339   -1.3165 C   0  0  1  0  0  0  0  0  0  0  0  0
    0.2507   -1.6399    0.3552 C   0  0  2  0  0  0  0  0  0  0  0  0
   -1.2613   -1.1227    2.0362 O   0  0  0  0  0  0  0  0  0  0  0  0
   -3.7125   -1.3749   -3.4745 O   0  0  0  0  0  0  0  0  0  0  0  0
   -5.7007   -3.6834   -4.1008 C   0  0  2  0  0  0  0  0  0  0  0  0
   -7.3165   -4.7468   -2.4062 C   0  0  1  0  0  0  0  0  0  0  0  0
    0.1305   -0.4256   -0.3898 O   0  0  0  0  0  0  0  0  0  0  0  0
   -6.4931   -2.3268   -4.2223 C   0  0  0  0  0  0  0  0  0  0  0  0
   -6.6806   -4.7787   -3.7499 C   0  0  0  0  0  0  0  0  0  0  0  0
   -5.0878   -3.8767   -5.4405 C   0  0  0  0  0  0  0  0  0  0  0  0
   -8.3649   -5.8488   -2.0497 C   0  0  0  0  0  0  0  0  0  0  0  0
    1.0194    0.6041   -0.4897 C   0  0  0  0  0  0  0  0  0  0  0  0
   -6.9342   -5.7742   -4.6354 C   0  0  0  0  0  0  0  0  0  0  0  0
   -5.3998   -4.8929   -6.2592 C   0  0  0  0  0  0  0  0  0  0  0  0
    0.6573    1.7291   -1.3714 C   0  0  2  0  0  0  0  0  0  0  0  0
    2.1130    0.6027    0.1242 O   0  0  0  0  0  0  0  0  0  0  0  0
   -6.3238   -5.8412   -5.8758 C   0  0  0  0  0  0  0  0  0  0  0  0
    0.3871    1.2663   -2.8294 C   0  0  2  0  0  0  0  0  0  0  0  0
   -6.6077   -6.7796   -6.6574 O   0  0  0  0  0  0  0  0  0  0  0  0
   -0.1583    2.3511   -3.6656 C   0  0  0  0  0  0  0  0  0  0  0  0
   -1.3804    2.2300   -4.2344 O   0  0  0  0  0  0  0  0  0  0  0  0
    0.4988    3.3985   -3.8624 O   0  0  0  0  0  0  0  0  0  0  0  0
   -2.6909   -0.3705   -0.5649 H   0  0  0  0  0  0  0  0  0  0  0  0
   -3.8909   -0.9405    0.5860 H   0  0  0  0  0  0  0  0  0  0  0  0
   -4.2764   -0.8749   -1.1158 H   0  0  0  0  0  0  0  0  0  0  0  0
   -3.5121   -4.6645   -0.6686 H   0  0  0  0  0  0  0  0  0  0  0  0
   -1.7363   -3.6714   -2.0680 H   0  0  0  0  0  0  0  0  0  0  0  0
   -1.5431   -1.9376   -2.1762 H   0  0  0  0  0  0  0  0  0  0  0  0
   -5.6668   -2.6544   -1.3859 H   0  0  0  0  0  0  0  0  0  0  0  0
   -5.1583   -3.0131    1.2479 H   0  0  0  0  0  0  0  0  0  0  0  0
   -4.6937   -4.7270    1.3348 H   0  0  0  0  0  0  0  0  0  0  0  0
   -0.7792   -4.3308    1.2406 H   0  0  0  0  0  0  0  0  0  0  0  0
   -3.2735   -2.5070    2.4411 H   0  0  0  0  0  0  0  0  0  0  0  0
   -2.6903   -4.1663    2.3749 H   0  0  0  0  0  0  0  0  0  0  0  0
   -2.7770   -3.0436   -4.0775 H   0  0  0  0  0  0  0  0  0  0  0  0
   -4.0939   -4.6818   -3.0564 H   0  0  0  0  0  0  0  0  0  0  0  0
   -5.6979   -5.7050   -1.3150 H   0  0  0  0  0  0  0  0  0  0  0  0
   -6.6737   -4.5996   -0.3368 H   0  0  0  0  0  0  0  0  0  0  0  0
    0.4639   -2.4362   -0.3587 H   0  0  0  0  0  0  0  0  0  0  0  0
    1.0799   -1.6029    1.0695 H   0  0  0  0  0  0  0  0  0  0  0  0
   -2.8813   -0.9148   -3.7169 H   0  0  0  0  0  0  0  0  0  0  0  0
   -7.8737   -3.8098   -2.3238 H   0  0  0  0  0  0  0  0  0  0  0  0
   -7.3826   -2.4543   -4.8469 H   0  0  0  0  0  0  0  0  0  0  0  0
   -6.8250   -1.9537   -3.2554 H   0  0  0  0  0  0  0  0  0  0  0  0
   -5.8968   -1.5323   -4.6763 H   0  0  0  0  0  0  0  0  0  0  0  0
   -4.4255   -3.2135   -5.7742 H   0  0  0  0  0  0  0  0  0  0  0  0
   -9.1896   -5.8373   -2.7641 H   0  0  0  0  0  0  0  0  0  0  0  0
   -7.9058   -6.8395   -2.0525 H   0  0  0  0  0  0  0  0  0  0  0  0
   -8.7853   -5.6731   -1.0578 H   0  0  0  0  0  0  0  0  0  0  0  0
   -7.5699   -6.5024   -4.4178 H   0  0  0  0  0  0  0  0  0  0  0  0
   -4.9652   -4.9576   -7.1528 H   0  0  0  0  0  0  0  0  0  0  0  0
    1.4589    2.4738   -1.3707 H   0  0  0  0  0  0  0  0  0  0  0  0
   -0.2404    2.2009   -0.9639 H   0  0  0  0  0  0  0  0  0  0  0  0
   -0.3280    0.4382   -2.8286 H   0  0  0  0  0  0  0  0  0  0  0  0
    1.3180    0.9064   -3.2772 H   0  0  0  0  0  0  0  0  0  0  0  0
   -1.7406    2.9562   -4.7838 H   0  0  0  0  0  0  0  0  0  0  0  0
  2  1  1  0  0  0  0 
  3  2  1  0  0  0  0 
  2  4  1  0  0  0  0 
  2  5  1  0  0  0  0 
  6  3  1  0  0  0  0 
  3  7  1  0  0  0  0 
  4  8  1  0  0  0  0 
  4  9  1  0  0  0  0 
  4 10  1  0  0  0  0 
 11  5  1  0  0  0  0 
 12  6  1  0  0  0  0 
  6 13  1  0  0  0  0 
  7 10  1  0  0  0  0 
  8 14  1  0  0  0  0 
  8 15  2  0  0  0  0 
 12 11  1  0  0  0  0 
 11 16  1  0  0  0  0 
 12 17  1  0  0  0  0 
 18 13  1  0  0  0  0 
 14 19  1  0  0  0  0 
 17 20  1  0  0  0  0 
 17 21  1  0  0  0  0 
 17 22  1  0  0  0  0 
 18 21  1  0  0  0  0 
 18 23  1  0  0  0  0 
 19 24  1  0  0  0  0 
 21 25  2  0  0  0  0 
 22 26  2  0  0  0  0 
 24 27  1  0  0  0  0 
 24 28  2  0  0  0  0 
 25 29  1  0  0  0  0 
 26 29  1  0  0  0  0 
 27 30  1  0  0  0  0 
 29 31  2  0  0  0  0 
 30 32  1  0  0  0  0 
 32 33  1  0  0  0  0 
 32 34  2  0  0  0  0 
 35  1  1  0  0  0  0 
 36  1  1  0  0  0  0 
 37  1  1  0  0  0  0 
  3 38  1  0  0  0  0 
 39  5  1  0  0  0  0 
 40  5  1  0  0  0  0 
  6 41  1  0  0  0  0 
 42  7  1  0  0  0  0 
 43  7  1  0  0  0  0 
 44  9  1  0  0  0  0 
 45 10  1  0  0  0  0 
 46 10  1  0  0  0  0 
 11 47  1  0  0  0  0 
 12 48  1  0  0  0  0 
 49 13  1  0  0  0  0 
 50 13  1  0  0  0  0 
 51 14  1  0  0  0  0 
 52 14  1  0  0  0  0 
 53 16  1  0  0  0  0 
 18 54  1  0  0  0  0 
 55 20  1  0  0  0  0 
 56 20  1  0  0  0  0 
 57 20  1  0  0  0  0 
 58 22  1  0  0  0  0 
 59 23  1  0  0  0  0 
 60 23  1  0  0  0  0 
 61 23  1  0  0  0  0 
 62 25  1  0  0  0  0 
 63 26  1  0  0  0  0 
 64 27  1  0  0  0  0 
 65 27  1  0  0  0  0 
 66 30  1  0  0  0  0 
 67 30  1  0  0  0  0 
 68 33  1  0  0  0  0 
M  END
> <cdk:Title>
methylprednisolone succinate

> <Conformer>
1

> <SuperDrugID>
SD001571

$$$$
