biphenylol
  CDK     0628171802

 23 24  0  0  0  0  0  0  0  0999 V2000
   -0.4652   -0.0250   -0.2824 C   0  0  0  0  0  0  0  0  0  0  0  0
   -0.4392    1.3229    0.1237 C   0  0  0  0  0  0  0  0  0  0  0  0
   -0.6427    2.3514   -0.8116 C   0  0  0  0  0  0  0  0  0  0  0  0
   -0.8654    2.0332   -2.1624 C   0  0  0  0  0  0  0  0  0  0  0  0
   -0.8842    0.6886   -2.5774 C   0  0  0  0  0  0  0  0  0  0  0  0
   -0.6813   -0.3592   -1.6459 C   0  0  0  0  0  0  0  0  0  0  0  0
   -0.6926   -1.7119   -2.0866 C   0  0  0  0  0  0  0  0  0  0  0  0
    0.4273   -3.8796   -2.3345 C   0  0  0  0  0  0  0  0  0  0  0  0
    0.4448   -2.5366   -1.9144 C   0  0  0  0  0  0  0  0  0  0  0  0
   -1.8411   -2.2604   -2.7060 C   0  0  0  0  0  0  0  0  0  0  0  0
   -1.8574   -3.6041   -3.1257 C   0  0  0  0  0  0  0  0  0  0  0  0
   -0.7243   -4.4152   -2.9383 C   0  0  0  0  0  0  0  0  0  0  0  0
   -0.2982   -0.9701    0.6788 O   0  0  0  0  0  0  0  0  0  0  0  0
   -0.2782    1.5585    1.1052 H   0  0  0  0  0  0  0  0  0  0  0  0
   -0.6324    3.3278   -0.5079 H   0  0  0  0  0  0  0  0  0  0  0  0
   -1.0168    2.7816   -2.8415 H   0  0  0  0  0  0  0  0  0  0  0  0
   -1.0425    0.4829   -3.5686 H   0  0  0  0  0  0  0  0  0  0  0  0
    1.2519   -4.4685   -2.2008 H   0  0  0  0  0  0  0  0  0  0  0  0
    1.2960   -2.1653   -1.4849 H   0  0  0  0  0  0  0  0  0  0  0  0
   -2.6791   -1.6900   -2.8464 H   0  0  0  0  0  0  0  0  0  0  0  0
   -2.6946   -3.9936   -3.5642 H   0  0  0  0  0  0  0  0  0  0  0  0
   -0.7365   -5.3921   -3.2429 H   0  0  0  0  0  0  0  0  0  0  0  0
   -1.0168   -1.6171    0.5262 H   0  0  0  0  0  0  0  0  0  0  0  0
  1  2  2  0  0  0  0 
  1  6  1  0  0  0  0 
  2  3  1  0  0  0  0 
  3  4  2  0  0  0  0 
  4  5  1  0  0  0  0 
  5  6  2  0  0  0  0 
  6  7  1  0  0  0  0 
  9  7  2  0  0  0  0 
  7 10  1  0  0  0  0 
  8  9  1  0  0  0  0 
  8 12  2  0  0  0  0 
 10 11  2  0  0  0  0 
 11 12  1  0  0  0  0 
  1 13  1  0  0  0  0 
  2 14  1  0  0  0  0 
  3 15  1  0  0  0  0 
  4 16  1  0  0  0  0 
  5 17  1  0  0  0  0 
  8 18  1  0  0  0  0 
  9 19  1  0  0  0  0 
 10 20  1  0  0  0  0 
 11 21  1  0  0  0  0 
 12 22  1  0  0  0  0 
 13 23  1  0  0  0  0 
M  END
> <cdk:Title>
biphenylol

> <Conformer>
1

> <SuperDrugID>
SD003750

$$$$
