thiamazole
  CDK     0628171801

 13 13  0  0  0  0  0  0  0  0999 V2000
    1.4266   -0.3035    0.0555 C   0  0  0  0  0  0  0  0  0  0  0  0
    0.0163   -0.0722    0.0698 N   0  0  0  0  0  0  0  0  0  0  0  0
   -0.6180    1.0271   -0.3828 C   0  0  0  0  0  0  0  0  0  0  0  0
   -1.9791    0.8514   -0.1850 C   0  0  0  0  0  0  0  0  0  0  0  0
   -2.1403   -0.3478    0.3819 N   0  0  0  0  0  0  0  0  0  0  0  0
   -0.9329   -0.9137    0.5394 C   0  0  0  0  0  0  0  0  0  0  0  0
   -0.6935   -2.4809    1.2416 S   0  0  0  0  0  0  0  0  0  0  0  0
    1.6450   -1.1961   -0.5331 H   0  0  0  0  0  0  0  0  0  0  0  0
    1.9768    0.5342   -0.3781 H   0  0  0  0  0  0  0  0  0  0  0  0
    1.7830   -0.4540    1.0759 H   0  0  0  0  0  0  0  0  0  0  0  0
   -0.1846    1.8511   -0.8000 H   0  0  0  0  0  0  0  0  0  0  0  0
   -2.7187    1.5111   -0.4258 H   0  0  0  0  0  0  0  0  0  0  0  0
   -2.9895   -0.7430    0.6371 H   0  0  0  0  0  0  0  0  0  0  0  0
  1  2  1  0  0  0  0 
  2  3  1  0  0  0  0 
  3  4  2  0  0  0  0 
  4  5  1  0  0  0  0 
  5  6  1  0  0  0  0 
  2  6  1  0  0  0  0 
  6  7  2  0  0  0  0 
  8  1  1  0  0  0  0 
  9  1  1  0  0  0  0 
 10  1  1  0  0  0  0 
 11  3  1  0  0  0  0 
 12  4  1  0  0  0  0 
 13  5  1  0  0  0  0 
M  END
> <cdk:Title>
thiamazole

> <Conformer>
1

> <SuperDrugID>
SD001545

$$$$
