dixyrazine
  CDK     0628171802

 63 66  0  0  0  0  0  0  0  0999 V2000
    0.2553   -0.1445    7.8161 C   0  0  0  0  0  0  0  0  0  0  0  0
    0.0605   -0.2806    6.2779 C   0  0  2  0  0  0  0  0  0  0  0  0
   -0.7845    0.9183    5.7359 C   0  0  1  0  0  0  0  0  0  0  0  0
   -1.2119    0.7969    4.3045 N   0  0  1  0  0  0  0  0  0  0  0  0
   -2.3437    1.7117    3.9634 C   0  0  1  0  0  0  0  0  0  0  0  0
   -2.8879    1.3993    2.5506 C   0  0  1  0  0  0  0  0  0  0  0  0
   -1.8080    1.4281    1.5132 N   0  0  2  0  0  0  0  0  0  0  0  0
   -2.3575    1.2088    0.1350 C   0  0  1  0  0  0  0  0  0  0  0  0
   -1.3385    1.3409   -1.0231 C   0  0  2  0  0  0  0  0  0  0  0  0
   -0.5890    2.5653   -0.8904 O   0  0  0  0  0  0  0  0  0  0  0  0
    0.4931    2.6958   -1.8338 C   0  0  1  0  0  0  0  0  0  0  0  0
    1.1112    4.1022   -1.7345 C   0  0  2  0  0  0  0  0  0  0  0  0
    0.1649    5.0963   -2.1041 O   0  0  0  0  0  0  0  0  0  0  0  0
   -0.6495    0.5529    1.8846 C   0  0  2  0  0  0  0  0  0  0  0  0
   -0.1123    0.9062    3.2948 C   0  0  1  0  0  0  0  0  0  0  0  0
   -0.5630   -1.6710    5.9056 C   0  0  2  0  0  0  0  0  0  0  0  0
    0.1991   -2.8424    6.3379 N   0  0  0  0  0  0  0  0  0  0  0  0
    1.5602   -2.9366    6.0327 C   0  0  0  0  0  0  0  0  0  0  0  0
    2.0791   -2.5211    4.7787 C   0  0  0  0  0  0  0  0  0  0  0  0
    3.4628   -2.5066    4.5226 C   0  0  0  0  0  0  0  0  0  0  0  0
    4.3637   -2.9535    5.5022 C   0  0  0  0  0  0  0  0  0  0  0  0
    3.8772   -3.4301    6.7301 C   0  0  0  0  0  0  0  0  0  0  0  0
    2.4914   -3.4226    6.9880 C   0  0  0  0  0  0  0  0  0  0  0  0
    1.9062   -4.0399    8.5261 S   0  0  0  0  0  0  0  0  0  0  0  0
    0.2505   -4.4934    8.1524 C   0  0  0  0  0  0  0  0  0  0  0  0
   -0.4239   -3.8447    7.0855 C   0  0  0  0  0  0  0  0  0  0  0  0
   -1.7484   -4.2713    6.8021 C   0  0  0  0  0  0  0  0  0  0  0  0
   -2.3798   -5.2706    7.5655 C   0  0  0  0  0  0  0  0  0  0  0  0
   -1.6834   -5.8995    8.6097 C   0  0  0  0  0  0  0  0  0  0  0  0
   -0.3662   -5.5136    8.9027 C   0  0  0  0  0  0  0  0  0  0  0  0
    0.6612    0.8389    8.0663 H   0  0  0  0  0  0  0  0  0  0  0  0
    0.9470   -0.9004    8.1927 H   0  0  0  0  0  0  0  0  0  0  0  0
   -0.7007   -0.2650    8.3289 H   0  0  0  0  0  0  0  0  0  0  0  0
    1.0514   -0.1978    5.8278 H   0  0  0  0  0  0  0  0  0  0  0  0
   -1.6793    0.9798    6.3642 H   0  0  0  0  0  0  0  0  0  0  0  0
   -0.2254    1.8525    5.8709 H   0  0  0  0  0  0  0  0  0  0  0  0
   -3.1694    1.5768    4.6704 H   0  0  0  0  0  0  0  0  0  0  0  0
   -2.0206    2.7585    4.0068 H   0  0  0  0  0  0  0  0  0  0  0  0
   -3.3722    0.4181    2.5653 H   0  0  0  0  0  0  0  0  0  0  0  0
   -3.6507    2.1463    2.3170 H   0  0  0  0  0  0  0  0  0  0  0  0
   -2.8250    0.2214    0.0692 H   0  0  0  0  0  0  0  0  0  0  0  0
   -3.1374    1.9553   -0.0457 H   0  0  0  0  0  0  0  0  0  0  0  0
   -1.8850    1.3417   -1.9709 H   0  0  0  0  0  0  0  0  0  0  0  0
   -0.6829    0.4667   -1.0221 H   0  0  0  0  0  0  0  0  0  0  0  0
    1.2698    1.9571   -1.6135 H   0  0  0  0  0  0  0  0  0  0  0  0
    0.1416    2.5454   -2.8593 H   0  0  0  0  0  0  0  0  0  0  0  0
    1.9670    4.1714   -2.4080 H   0  0  0  0  0  0  0  0  0  0  0  0
    1.4477    4.2979   -0.7151 H   0  0  0  0  0  0  0  0  0  0  0  0
    0.6504    5.9416   -2.0029 H   0  0  0  0  0  0  0  0  0  0  0  0
    0.1773    0.6850    1.1786 H   0  0  0  0  0  0  0  0  0  0  0  0
   -0.9463   -0.5026    1.8715 H   0  0  0  0  0  0  0  0  0  0  0  0
    0.3106    1.9165    3.2838 H   0  0  0  0  0  0  0  0  0  0  0  0
    0.6996    0.2140    3.5227 H   0  0  0  0  0  0  0  0  0  0  0  0
   -0.6963   -1.7428    4.8249 H   0  0  0  0  0  0  0  0  0  0  0  0
   -1.5717   -1.6624    6.3285 H   0  0  0  0  0  0  0  0  0  0  0  0
    1.4536   -2.2132    4.0334 H   0  0  0  0  0  0  0  0  0  0  0  0
    3.8138   -2.1717    3.6222 H   0  0  0  0  0  0  0  0  0  0  0  0
    5.3697   -2.9395    5.3176 H   0  0  0  0  0  0  0  0  0  0  0  0
    4.5352   -3.7841    7.4293 H   0  0  0  0  0  0  0  0  0  0  0  0
   -2.2679   -3.8631    6.0233 H   0  0  0  0  0  0  0  0  0  0  0  0
   -3.3411   -5.5487    7.3555 H   0  0  0  0  0  0  0  0  0  0  0  0
   -2.1299   -6.6451    9.1488 H   0  0  0  0  0  0  0  0  0  0  0  0
    0.1395   -5.9866    9.6548 H   0  0  0  0  0  0  0  0  0  0  0  0
  2  1  1  0  0  0  0 
  2  3  1  0  0  0  0 
  3  4  1  0  0  0  0 
  4  5  1  0  0  0  0 
  5  6  1  0  0  0  0 
  6  7  1  0  0  0  0 
  7  8  1  0  0  0  0 
  8  9  1  0  0  0  0 
  9 10  1  0  0  0  0 
 10 11  1  0  0  0  0 
 11 12  1  0  0  0  0 
 12 13  1  0  0  0  0 
  7 14  1  0  0  0  0 
 14 15  1  0  0  0  0 
  4 15  1  0  0  0  0 
  2 16  1  0  0  0  0 
 16 17  1  0  0  0  0 
 17 18  1  0  0  0  0 
 18 19  2  0  0  0  0 
 19 20  1  0  0  0  0 
 20 21  2  0  0  0  0 
 21 22  1  0  0  0  0 
 22 23  2  0  0  0  0 
 18 23  1  0  0  0  0 
 23 24  1  0  0  0  0 
 24 25  1  0  0  0  0 
 25 26  2  0  0  0  0 
 17 26  1  0  0  0  0 
 26 27  1  0  0  0  0 
 27 28  2  0  0  0  0 
 28 29  1  0  0  0  0 
 29 30  2  0  0  0  0 
 25 30  1  0  0  0  0 
  1 31  1  0  0  0  0 
  1 32  1  0  0  0  0 
  1 33  1  0  0  0  0 
  2 34  1  0  0  0  0 
  3 35  1  0  0  0  0 
  3 36  1  0  0  0  0 
  5 37  1  0  0  0  0 
  5 38  1  0  0  0  0 
  6 39  1  0  0  0  0 
  6 40  1  0  0  0  0 
  8 41  1  0  0  0  0 
  8 42  1  0  0  0  0 
  9 43  1  0  0  0  0 
  9 44  1  0  0  0  0 
 11 45  1  0  0  0  0 
 11 46  1  0  0  0  0 
 12 47  1  0  0  0  0 
 12 48  1  0  0  0  0 
 13 49  1  0  0  0  0 
 14 50  1  0  0  0  0 
 14 51  1  0  0  0  0 
 15 52  1  0  0  0  0 
 15 53  1  0  0  0  0 
 16 54  1  0  0  0  0 
 16 55  1  0  0  0  0 
 19 56  1  0  0  0  0 
 20 57  1  0  0  0  0 
 21 58  1  0  0  0  0 
 22 59  1  0  0  0  0 
 27 60  1  0  0  0  0 
 28 61  1  0  0  0  0 
 29 62  1  0  0  0  0 
 30 63  1  0  0  0  0 
M  END
> <cdk:Title>
dixyrazine

> <Conformer>
1

> <SuperDrugID>
SD000829

$$$$
