homarylamine
  CDK     0628171801

 26 27  0  0  0  0  0  0  0  0999 V2000
   -2.0479    1.2654   -0.6663 C   0  0  1  0  0  0  0  0  0  0  0  0
   -0.5300    1.1320   -0.9474 C   0  0  1  0  0  0  0  0  0  0  0  0
   -2.3149    1.7044    0.7289 C   0  0  0  0  0  0  0  0  0  0  0  0
    0.0901    0.1456   -0.0329 N   0  0  2  0  0  0  0  0  0  0  0  0
   -2.3567    3.0835    1.0503 C   0  0  0  0  0  0  0  0  0  0  0  0
   -2.4878    0.7484    1.7640 C   0  0  0  0  0  0  0  0  0  0  0  0
    1.5412   -0.0475   -0.2081 C   0  0  0  0  0  0  0  0  0  0  0  0
   -2.5579    3.4753    2.3846 C   0  0  0  0  0  0  0  0  0  0  0  0
   -2.6799    1.1581    3.0983 C   0  0  0  0  0  0  0  0  0  0  0  0
   -2.7160    2.5322    3.3873 C   0  0  0  0  0  0  0  0  0  0  0  0
   -2.6091    4.7317    2.8649 O   0  0  0  0  0  0  0  0  0  0  0  0
   -2.8863    3.1055    4.5931 O   0  0  0  0  0  0  0  0  0  0  0  0
   -2.8304    4.5090    4.2709 C   0  0  1  0  0  0  0  0  0  0  0  0
   -2.4748    1.9862   -1.3677 H   0  0  0  0  0  0  0  0  0  0  0  0
   -2.5374    0.3090   -0.8650 H   0  0  0  0  0  0  0  0  0  0  0  0
   -0.3847    0.8126   -1.9836 H   0  0  0  0  0  0  0  0  0  0  0  0
   -0.0541    2.1080   -0.8184 H   0  0  0  0  0  0  0  0  0  0  0  0
   -0.3595   -0.7569   -0.2073 H   0  0  0  0  0  0  0  0  0  0  0  0
   -2.2337    3.7961    0.3268 H   0  0  0  0  0  0  0  0  0  0  0  0
   -2.4622   -0.2524    1.5511 H   0  0  0  0  0  0  0  0  0  0  0  0
    1.8737   -0.7969    0.5098 H   0  0  0  0  0  0  0  0  0  0  0  0
    1.7673   -0.4027   -1.2143 H   0  0  0  0  0  0  0  0  0  0  0  0
    2.0806    0.8807   -0.0166 H   0  0  0  0  0  0  0  0  0  0  0  0
   -2.7843    0.4691    3.8456 H   0  0  0  0  0  0  0  0  0  0  0  0
   -2.0222    4.9753    4.8402 H   0  0  0  0  0  0  0  0  0  0  0  0
   -3.7723    4.9808    4.5607 H   0  0  0  0  0  0  0  0  0  0  0  0
  1  2  1  0  0  0  0 
  1  3  1  0  0  0  0 
  2  4  1  0  0  0  0 
  3  5  2  0  0  0  0 
  3  6  1  0  0  0  0 
  4  7  1  0  0  0  0 
  5  8  1  0  0  0  0 
  6  9  2  0  0  0  0 
  8 10  2  0  0  0  0 
  8 11  1  0  0  0  0 
  9 10  1  0  0  0  0 
 10 12  1  0  0  0  0 
 11 13  1  0  0  0  0 
 12 13  1  0  0  0  0 
  1 14  1  0  0  0  0 
  1 15  1  0  0  0  0 
  2 16  1  0  0  0  0 
  2 17  1  0  0  0  0 
  4 18  1  0  0  0  0 
  5 19  1  0  0  0  0 
  6 20  1  0  0  0  0 
  7 21  1  0  0  0  0 
  7 22  1  0  0  0  0 
  7 23  1  0  0  0  0 
  9 24  1  0  0  0  0 
 13 25  1  0  0  0  0 
 13 26  1  0  0  0  0 
M  END
> <cdk:Title>
homarylamine

> <Conformer>
1

> <SuperDrugID>
SD001224

$$$$
