mercuric iodide
  CDK     0628171802

  3  2  0  0  0  0  0  0  0  0999 V2000
    0.6143    0.8687    0.0000 Hg  0  0  0  0  0  0  0  0  0  0  0  0
   -1.6850    2.5552    0.0000 I   0  0  0  0  0  0  0  0  0  0  0  0
    2.9708   -0.7369    0.0000 I   0  0  0  0  0  0  0  0  0  0  0  0
  1  2  1  0  0  0  0 
  1  3  1  0  0  0  0 
M  END
> <cdk:Title>
mercuric iodide

> <Conformer>
1

> <SuperDrugID>
SD003761

$$$$
