methotrexate
  CDK     0628171801

 55 57  0  0  0  0  0  0  0  0999 V2000
    6.3471   -4.6249   -8.8876 N   0  0  0  0  0  0  0  0  0  0  0  0
    5.7411   -5.8220   -8.9758 C   0  0  0  0  0  0  0  0  0  0  0  0
    4.8009   -6.2591   -8.0221 C   0  0  0  0  0  0  0  0  0  0  0  0
    6.0513   -6.6305  -10.0213 N   0  0  0  0  0  0  0  0  0  0  0  0
    4.2216   -7.5395   -8.1991 C   0  0  0  0  0  0  0  0  0  0  0  0
    4.4236   -5.5219   -6.9466 N   0  0  0  0  0  0  0  0  0  0  0  0
    5.4797   -7.8529  -10.1744 C   0  0  0  0  0  0  0  0  0  0  0  0
    3.3217   -7.9813   -7.2843 N   0  0  0  0  0  0  0  0  0  0  0  0
    4.5733   -8.3009   -9.2665 N   0  0  0  0  0  0  0  0  0  0  0  0
    3.5162   -5.9526   -6.0266 C   0  0  0  0  0  0  0  0  0  0  0  0
    5.8168   -8.6103  -11.2287 N   0  0  0  0  0  0  0  0  0  0  0  0
    2.9536   -7.2371   -6.2082 C   0  0  0  0  0  0  0  0  0  0  0  0
    3.1559   -5.0647   -4.8892 C   0  0  1  0  0  0  0  0  0  0  0  0
    1.8471   -4.4092   -4.8392 N   0  0  0  0  0  0  0  0  0  0  0  0
    0.9025   -4.5680   -5.9372 C   0  0  0  0  0  0  0  0  0  0  0  0
    1.5087   -3.5876   -3.7360 C   0  0  0  0  0  0  0  0  0  0  0  0
    2.4626   -3.1752   -2.7607 C   0  0  0  0  0  0  0  0  0  0  0  0
    0.1875   -3.0989   -3.5289 C   0  0  0  0  0  0  0  0  0  0  0  0
    2.1379   -2.3161   -1.6947 C   0  0  0  0  0  0  0  0  0  0  0  0
   -0.1455   -2.2391   -2.4649 C   0  0  0  0  0  0  0  0  0  0  0  0
    0.8262   -1.8149   -1.5287 C   0  0  0  0  0  0  0  0  0  0  0  0
    0.5117   -0.9355   -0.4486 C   0  0  0  0  0  0  0  0  0  0  0  0
   -0.7809   -0.7143   -0.0675 N   0  0  0  0  0  0  0  0  0  0  0  0
    1.4365   -0.3714    0.1861 O   0  0  0  0  0  0  0  0  0  0  0  0
   -1.2101    0.0376    1.0775 C   0  0  1  0  0  0  0  0  0  0  0  0
   -2.5520    0.7754    0.7989 C   0  0  2  0  0  0  0  0  0  0  0  0
   -1.3322   -0.9111    2.2076 C   0  0  0  0  0  0  0  0  0  0  0  0
   -2.4343    1.8587   -0.3076 C   0  0  2  0  0  0  0  0  0  0  0  0
   -2.2339   -1.9203    2.1729 O   0  0  0  0  0  0  0  0  0  0  0  0
   -0.5932   -0.8122    3.2133 O   0  0  0  0  0  0  0  0  0  0  0  0
   -3.7195    2.5345   -0.5746 C   0  0  0  0  0  0  0  0  0  0  0  0
   -4.3019    2.4500   -1.7940 O   0  0  0  0  0  0  0  0  0  0  0  0
   -4.2851    3.2119    0.3138 O   0  0  0  0  0  0  0  0  0  0  0  0
    6.1465   -4.0276   -8.1501 H   0  0  0  0  0  0  0  0  0  0  0  0
    6.9900   -4.3578   -9.5629 H   0  0  0  0  0  0  0  0  0  0  0  0
    5.4087   -9.4819  -11.3523 H   0  0  0  0  0  0  0  0  0  0  0  0
    6.4675   -8.2848  -11.8723 H   0  0  0  0  0  0  0  0  0  0  0  0
    2.2708   -7.6123   -5.5477 H   0  0  0  0  0  0  0  0  0  0  0  0
    3.2875   -5.6582   -3.9797 H   0  0  0  0  0  0  0  0  0  0  0  0
    3.9081   -4.2711   -4.8707 H   0  0  0  0  0  0  0  0  0  0  0  0
    0.5656   -3.5908   -6.2880 H   0  0  0  0  0  0  0  0  0  0  0  0
    1.2958   -5.0711   -6.8177 H   0  0  0  0  0  0  0  0  0  0  0  0
    0.0385   -5.1444   -5.6014 H   0  0  0  0  0  0  0  0  0  0  0  0
    3.4331   -3.4867   -2.8011 H   0  0  0  0  0  0  0  0  0  0  0  0
   -0.5738   -3.3591   -4.1573 H   0  0  0  0  0  0  0  0  0  0  0  0
    2.8804   -2.0649   -1.0326 H   0  0  0  0  0  0  0  0  0  0  0  0
   -1.1151   -1.9204   -2.3929 H   0  0  0  0  0  0  0  0  0  0  0  0
   -1.4768   -1.1259   -0.6015 H   0  0  0  0  0  0  0  0  0  0  0  0
   -0.4678    0.7990    1.3398 H   0  0  0  0  0  0  0  0  0  0  0  0
   -2.8908    1.2493    1.7254 H   0  0  0  0  0  0  0  0  0  0  0  0
   -3.3113    0.0488    0.4993 H   0  0  0  0  0  0  0  0  0  0  0  0
   -2.0787    1.3915   -1.2305 H   0  0  0  0  0  0  0  0  0  0  0  0
   -1.6981    2.6097   -0.0107 H   0  0  0  0  0  0  0  0  0  0  0  0
   -2.2760   -2.5690    2.9053 H   0  0  0  0  0  0  0  0  0  0  0  0
   -5.1460    2.9159   -1.9698 H   0  0  0  0  0  0  0  0  0  0  0  0
  1  2  1  0  0  0  0 
  2  3  2  0  0  0  0 
  2  4  1  0  0  0  0 
  3  5  1  0  0  0  0 
  3  6  1  0  0  0  0 
  4  7  2  0  0  0  0 
  5  8  1  0  0  0  0 
  5  9  2  0  0  0  0 
  6 10  2  0  0  0  0 
  7  9  1  0  0  0  0 
  7 11  1  0  0  0  0 
  8 12  2  0  0  0  0 
 10 12  1  0  0  0  0 
 10 13  1  0  0  0  0 
 13 14  1  0  0  0  0 
 14 15  1  0  0  0  0 
 14 16  1  0  0  0  0 
 16 17  2  0  0  0  0 
 16 18  1  0  0  0  0 
 17 19  1  0  0  0  0 
 18 20  2  0  0  0  0 
 19 21  2  0  0  0  0 
 20 21  1  0  0  0  0 
 21 22  1  0  0  0  0 
 22 23  1  0  0  0  0 
 22 24  2  0  0  0  0 
 25 23  1  0  0  0  0 
 25 26  1  0  0  0  0 
 25 27  1  0  0  0  0 
 26 28  1  0  0  0  0 
 27 29  1  0  0  0  0 
 27 30  2  0  0  0  0 
 28 31  1  0  0  0  0 
 31 32  1  0  0  0  0 
 31 33  2  0  0  0  0 
  1 34  1  0  0  0  0 
  1 35  1  0  0  0  0 
 11 36  1  0  0  0  0 
 11 37  1  0  0  0  0 
 12 38  1  0  0  0  0 
 13 39  1  0  0  0  0 
 13 40  1  0  0  0  0 
 15 41  1  0  0  0  0 
 15 42  1  0  0  0  0 
 15 43  1  0  0  0  0 
 17 44  1  0  0  0  0 
 18 45  1  0  0  0  0 
 19 46  1  0  0  0  0 
 20 47  1  0  0  0  0 
 23 48  1  0  0  0  0 
 25 49  1  0  0  0  0 
 26 50  1  0  0  0  0 
 26 51  1  0  0  0  0 
 28 52  1  0  0  0  0 
 28 53  1  0  0  0  0 
 29 54  1  0  0  0  0 
 32 55  1  0  0  0  0 
M  END
> <cdk:Title>
methotrexate

> <Conformer>
1

> <SuperDrugID>
SD001551

$$$$
