pregabalin
  CDK     0628171801

 28 27  0  0  0  0  0  0  0  0999 V2000
    2.9282    5.9313   -0.8058 C   0  0  0  0  0  0  0  0  0  0  0  0
    2.4224    4.5762   -0.2324 C   0  0  1  0  0  0  0  0  0  0  0  0
    3.3387    4.1013    0.9307 C   0  0  0  0  0  0  0  0  0  0  0  0
    0.9148    4.6630    0.1776 C   0  0  2  0  0  0  0  0  0  0  0  0
    0.2168    3.3942    0.7954 C   0  0  2  0  0  0  0  0  0  0  0  0
    0.1093    2.1766   -0.1805 C   0  0  1  0  0  0  0  0  0  0  0  0
    1.3880    1.5081   -0.4491 N   0  0  1  0  0  0  0  0  0  0  0  0
   -1.2167    3.7612    1.3152 C   0  0  1  0  0  0  0  0  0  0  0  0
   -1.2301    4.7394    2.4259 C   0  0  0  0  0  0  0  0  0  0  0  0
   -1.7905    5.9614    2.2642 O   0  0  0  0  0  0  0  0  0  0  0  0
   -0.7216    4.4551    3.5344 O   0  0  0  0  0  0  0  0  0  0  0  0
    2.3155    6.2393   -1.6562 H   0  0  0  0  0  0  0  0  0  0  0  0
    3.9579    5.8324   -1.1582 H   0  0  0  0  0  0  0  0  0  0  0  0
    2.8948    6.7182   -0.0485 H   0  0  0  0  0  0  0  0  0  0  0  0
    2.5183    3.8656   -1.0533 H   0  0  0  0  0  0  0  0  0  0  0  0
    3.1177    3.0671    1.1954 H   0  0  0  0  0  0  0  0  0  0  0  0
    4.3889    4.1449    0.6351 H   0  0  0  0  0  0  0  0  0  0  0  0
    3.1985    4.7262    1.8160 H   0  0  0  0  0  0  0  0  0  0  0  0
    0.3396    4.9660   -0.7021 H   0  0  0  0  0  0  0  0  0  0  0  0
    0.8403    5.4804    0.9005 H   0  0  0  0  0  0  0  0  0  0  0  0
    0.7907    3.0601    1.6652 H   0  0  0  0  0  0  0  0  0  0  0  0
   -0.5303    1.4093    0.2638 H   0  0  0  0  0  0  0  0  0  0  0  0
   -0.3414    2.4815   -1.1276 H   0  0  0  0  0  0  0  0  0  0  0  0
    1.1718    0.6224   -0.9102 H   0  0  0  0  0  0  0  0  0  0  0  0
    1.8952    2.0696   -1.1334 H   0  0  0  0  0  0  0  0  0  0  0  0
   -1.8123    4.1521    0.4854 H   0  0  0  0  0  0  0  0  0  0  0  0
   -1.7268    2.8659    1.6799 H   0  0  0  0  0  0  0  0  0  0  0  0
   -1.7832    6.6052    3.0026 H   0  0  0  0  0  0  0  0  0  0  0  0
  1  2  1  0  0  0  0 
  2  3  1  0  0  0  0 
  2  4  1  0  0  0  0 
  4  5  1  0  0  0  0 
  5  6  1  0  0  0  0 
  6  7  1  0  0  0  0 
  5  8  1  0  0  0  0 
  8  9  1  0  0  0  0 
  9 10  1  0  0  0  0 
  9 11  2  0  0  0  0 
  1 12  1  0  0  0  0 
  1 13  1  0  0  0  0 
  1 14  1  0  0  0  0 
  2 15  1  0  0  0  0 
  3 16  1  0  0  0  0 
  3 17  1  0  0  0  0 
  3 18  1  0  0  0  0 
  4 19  1  0  0  0  0 
  4 20  1  0  0  0  0 
  5 21  1  0  0  0  0 
  6 22  1  0  0  0  0 
  6 23  1  0  0  0  0 
  7 24  1  0  0  0  0 
  7 25  1  0  0  0  0 
  8 26  1  0  0  0  0 
  8 27  1  0  0  0  0 
 10 28  1  0  0  0  0 
M  END
> <cdk:Title>
pregabalin

> <Conformer>
1

> <SuperDrugID>
SD002023

$$$$
