demegestone
  CDK     0628171802

 51 54  0  0  0  0  0  0  0  0999 V2000
   -7.0213    2.2251    0.9054 C   0  0  0  0  0  0  0  0  0  0  0  0
   -5.9953    2.7577   -0.1830 C   0  0  2  0  0  0  0  0  0  0  0  0
   -4.5246    2.8716    0.3550 C   0  0  2  0  0  0  0  0  0  0  0  0
   -6.3209    4.2770   -0.5565 C   0  0  2  0  0  0  0  0  0  0  0  0
   -5.9269    1.7068   -1.3513 C   0  0  2  0  0  0  0  0  0  0  0  0
   -3.9255    1.5059    0.8532 C   0  0  1  0  0  0  0  0  0  0  0  0
   -4.5717    4.0999    1.2851 C   0  0  1  0  0  0  0  0  0  0  0  0
   -7.7825    4.6004   -0.7569 C   0  0  0  0  0  0  0  0  0  0  0  0
   -5.6677    4.7895   -1.8959 C   0  0  0  0  0  0  0  0  0  0  0  0
   -5.6658    5.0167    0.6732 C   0  0  1  0  0  0  0  0  0  0  0  0
   -5.2499    0.3588   -0.9355 C   0  0  2  0  0  0  0  0  0  0  0  0
   -3.9203    0.5601   -0.3076 C   0  0  0  0  0  0  0  0  0  0  0  0
   -2.5394    1.6527    1.5614 C   0  0  1  0  0  0  0  0  0  0  0  0
   -8.3919    5.9369   -0.5672 C   0  0  0  0  0  0  0  0  0  0  0  0
   -8.5250    3.7646   -1.3249 O   0  0  0  0  0  0  0  0  0  0  0  0
   -2.7671   -0.0260   -0.7598 C   0  0  0  0  0  0  0  0  0  0  0  0
   -1.3969    1.5614    0.5358 C   0  0  1  0  0  0  0  0  0  0  0  0
   -1.5337    0.2896   -0.1769 C   0  0  0  0  0  0  0  0  0  0  0  0
   -2.7786   -1.0480   -1.8360 C   0  0  2  0  0  0  0  0  0  0  0  0
   -0.4770   -0.5535   -0.2394 C   0  0  0  0  0  0  0  0  0  0  0  0
   -1.4149   -1.7273   -2.1664 C   0  0  1  0  0  0  0  0  0  0  0  0
   -0.5173   -1.7058   -0.9949 C   0  0  0  0  0  0  0  0  0  0  0  0
    0.2159   -2.6842   -0.7215 O   0  0  0  0  0  0  0  0  0  0  0  0
   -6.7532    1.2533    1.3098 H   0  0  0  0  0  0  0  0  0  0  0  0
   -7.1130    2.9022    1.7552 H   0  0  0  0  0  0  0  0  0  0  0  0
   -8.0136    2.1032    0.4732 H   0  0  0  0  0  0  0  0  0  0  0  0
   -3.8562    3.1725   -0.4607 H   0  0  0  0  0  0  0  0  0  0  0  0
   -5.3416    2.1033   -2.1832 H   0  0  0  0  0  0  0  0  0  0  0  0
   -6.9276    1.5093   -1.7409 H   0  0  0  0  0  0  0  0  0  0  0  0
   -4.5764    1.0959    1.6282 H   0  0  0  0  0  0  0  0  0  0  0  0
   -4.8328    3.7927    2.3023 H   0  0  0  0  0  0  0  0  0  0  0  0
   -3.6036    4.6119    1.3149 H   0  0  0  0  0  0  0  0  0  0  0  0
   -5.8365    5.8630   -2.0268 H   0  0  0  0  0  0  0  0  0  0  0  0
   -6.1029    4.2801   -2.7599 H   0  0  0  0  0  0  0  0  0  0  0  0
   -4.5894    4.6414   -1.9284 H   0  0  0  0  0  0  0  0  0  0  0  0
   -5.2288    5.9796    0.3883 H   0  0  0  0  0  0  0  0  0  0  0  0
   -6.4032    5.2180    1.4568 H   0  0  0  0  0  0  0  0  0  0  0  0
   -5.2211   -0.2537   -1.8345 H   0  0  0  0  0  0  0  0  0  0  0  0
   -5.8858   -0.1868   -0.2387 H   0  0  0  0  0  0  0  0  0  0  0  0
   -2.4587    2.5874    2.1186 H   0  0  0  0  0  0  0  0  0  0  0  0
   -2.4172    0.8404    2.2875 H   0  0  0  0  0  0  0  0  0  0  0  0
   -9.3827    5.8276   -0.1210 H   0  0  0  0  0  0  0  0  0  0  0  0
   -8.4973    6.4220   -1.5405 H   0  0  0  0  0  0  0  0  0  0  0  0
   -7.7980    6.5894    0.0716 H   0  0  0  0  0  0  0  0  0  0  0  0
   -1.4769    2.3864   -0.1778 H   0  0  0  0  0  0  0  0  0  0  0  0
   -0.4418    1.6710    1.0585 H   0  0  0  0  0  0  0  0  0  0  0  0
   -3.1604   -0.5982   -2.7580 H   0  0  0  0  0  0  0  0  0  0  0  0
   -3.4628   -1.8461   -1.5366 H   0  0  0  0  0  0  0  0  0  0  0  0
    0.3662   -0.3470    0.2459 H   0  0  0  0  0  0  0  0  0  0  0  0
   -1.5670   -2.7494   -2.5279 H   0  0  0  0  0  0  0  0  0  0  0  0
   -0.9237   -1.1682   -2.9669 H   0  0  0  0  0  0  0  0  0  0  0  0
  2  1  1  0  0  0  0 
  2  3  1  0  0  0  0 
  2  4  1  0  0  0  0 
  2  5  1  0  0  0  0 
  3  6  1  0  0  0  0 
  3  7  1  0  0  0  0 
  4  8  1  0  0  0  0 
  4  9  1  0  0  0  0 
  4 10  1  0  0  0  0 
  5 11  1  0  0  0  0 
  6 12  1  0  0  0  0 
  6 13  1  0  0  0  0 
  7 10  1  0  0  0  0 
  8 14  1  0  0  0  0 
  8 15  2  0  0  0  0 
 11 12  1  0  0  0  0 
 12 16  2  0  0  0  0 
 13 17  1  0  0  0  0 
 16 18  1  0  0  0  0 
 16 19  1  0  0  0  0 
 17 18  1  0  0  0  0 
 18 20  2  0  0  0  0 
 19 21  1  0  0  0  0 
 20 22  1  0  0  0  0 
 21 22  1  0  0  0  0 
 22 23  2  0  0  0  0 
 24  1  1  0  0  0  0 
 25  1  1  0  0  0  0 
 26  1  1  0  0  0  0 
  3 27  1  0  0  0  0 
 28  5  1  0  0  0  0 
 29  5  1  0  0  0  0 
  6 30  1  0  0  0  0 
 31  7  1  0  0  0  0 
 32  7  1  0  0  0  0 
 33  9  1  0  0  0  0 
 34  9  1  0  0  0  0 
 35  9  1  0  0  0  0 
 36 10  1  0  0  0  0 
 37 10  1  0  0  0  0 
 38 11  1  0  0  0  0 
 39 11  1  0  0  0  0 
 40 13  1  0  0  0  0 
 41 13  1  0  0  0  0 
 42 14  1  0  0  0  0 
 43 14  1  0  0  0  0 
 44 14  1  0  0  0  0 
 45 17  1  0  0  0  0 
 46 17  1  0  0  0  0 
 47 19  1  0  0  0  0 
 48 19  1  0  0  0  0 
 49 20  1  0  0  0  0 
 50 21  1  0  0  0  0 
 51 21  1  0  0  0  0 
M  END
> <cdk:Title>
demegestone

> <Conformer>
1

> <SuperDrugID>
SD000709

$$$$
