amiloride
  CDK     0628171801

 23 23  0  0  0  0  0  0  0  0999 V2000
   -1.6577    2.1690    6.5328 N   0  0  0  0  0  0  0  0  0  0  0  0
   -1.1535    1.1121    6.0189 C   0  0  0  0  0  0  0  0  0  0  0  0
   -0.9098    0.1011    6.8216 N   0  0  0  0  0  0  0  0  0  0  0  0
   -0.8358    0.9688    4.7327 N   0  0  0  0  0  0  0  0  0  0  0  0
   -1.1065    1.8033    3.6814 C   0  0  0  0  0  0  0  0  0  0  0  0
   -1.8112    2.8276    3.8434 O   0  0  0  0  0  0  0  0  0  0  0  0
   -0.5495    1.5125    2.4060 C   0  0  0  0  0  0  0  0  0  0  0  0
   -0.9767    2.0692    1.1705 C   0  0  0  0  0  0  0  0  0  0  0  0
   -2.0356    2.8920    1.0339 N   0  0  0  0  0  0  0  0  0  0  0  0
   -0.2936    1.7565    0.0380 N   0  0  0  0  0  0  0  0  0  0  0  0
    0.7777    0.9235    0.0169 C   0  0  0  0  0  0  0  0  0  0  0  0
    1.4046    0.6950   -1.1520 N   0  0  0  0  0  0  0  0  0  0  0  0
    1.1890    0.3388    1.2296 C   0  0  0  0  0  0  0  0  0  0  0  0
    2.4979   -0.7255    1.3536 Cl  0  0  0  0  0  0  0  0  0  0  0  0
    0.5109    0.6585    2.3574 N   0  0  0  0  0  0  0  0  0  0  0  0
   -1.8411    2.2013    7.4493 H   0  0  0  0  0  0  0  0  0  0  0  0
   -1.1319    0.1627    7.7645 H   0  0  0  0  0  0  0  0  0  0  0  0
   -0.5060   -0.7083    6.4718 H   0  0  0  0  0  0  0  0  0  0  0  0
   -0.3495    0.1592    4.5128 H   0  0  0  0  0  0  0  0  0  0  0  0
   -2.5801    3.1225    1.8005 H   0  0  0  0  0  0  0  0  0  0  0  0
   -2.2599    3.2543    0.1621 H   0  0  0  0  0  0  0  0  0  0  0  0
    1.1047    1.1390   -1.9610 H   0  0  0  0  0  0  0  0  0  0  0  0
    2.1618    0.0901   -1.1903 H   0  0  0  0  0  0  0  0  0  0  0  0
  1  2  2  0  0  0  0 
  2  3  1  0  0  0  0 
  2  4  1  0  0  0  0 
  4  5  1  0  0  0  0 
  5  6  2  0  0  0  0 
  5  7  1  0  0  0  0 
  7  8  2  0  0  0  0 
  8  9  1  0  0  0  0 
  8 10  1  0  0  0  0 
 10 11  2  0  0  0  0 
 11 12  1  0  0  0  0 
 11 13  1  0  0  0  0 
 13 14  1  0  0  0  0 
 13 15  2  0  0  0  0 
  7 15  1  0  0  0  0 
  1 16  1  0  0  0  0 
  3 17  1  0  0  0  0 
  3 18  1  0  0  0  0 
  4 19  1  0  0  0  0 
  9 20  1  0  0  0  0 
  9 21  1  0  0  0  0 
 12 22  1  0  0  0  0 
 12 23  1  0  0  0  0 
M  END
> <cdk:Title>
amiloride

> <Conformer>
1

> <SuperDrugID>
SD000124

$$$$
