phenylethanolamine
  CDK     0628171801

 21 21  0  0  0  0  0  0  0  0999 V2000
   -0.2695   -0.4889   -0.8462 N   0  0  1  0  0  0  0  0  0  0  0  0
   -1.2790    0.3004   -0.1311 C   0  0  1  0  0  0  0  0  0  0  0  0
   -0.6652    1.0772    1.0606 C   0  0  2  0  0  0  0  0  0  0  0  0
   -0.0084    0.1699    1.9509 O   0  0  0  0  0  0  0  0  0  0  0  0
   -1.7072    1.8792    1.7678 C   0  0  0  0  0  0  0  0  0  0  0  0
   -2.4642    1.3260    2.8299 C   0  0  0  0  0  0  0  0  0  0  0  0
   -3.4538    2.0851    3.4805 C   0  0  0  0  0  0  0  0  0  0  0  0
   -3.7116    3.4054    3.0727 C   0  0  0  0  0  0  0  0  0  0  0  0
   -2.9820    3.9644    2.0091 C   0  0  0  0  0  0  0  0  0  0  0  0
   -1.9848    3.2087    1.3637 C   0  0  0  0  0  0  0  0  0  0  0  0
   -0.7399   -0.9139   -1.6468 H   0  0  0  0  0  0  0  0  0  0  0  0
    0.4136    0.1703   -1.2208 H   0  0  0  0  0  0  0  0  0  0  0  0
   -1.7202    1.0041   -0.8417 H   0  0  0  0  0  0  0  0  0  0  0  0
   -2.0602   -0.3775    0.2217 H   0  0  0  0  0  0  0  0  0  0  0  0
    0.1113    1.7444    0.6722 H   0  0  0  0  0  0  0  0  0  0  0  0
    0.6443   -0.3136    1.4000 H   0  0  0  0  0  0  0  0  0  0  0  0
   -2.3012    0.3631    3.1359 H   0  0  0  0  0  0  0  0  0  0  0  0
   -3.9881    1.6765    4.2506 H   0  0  0  0  0  0  0  0  0  0  0  0
   -4.4329    3.9564    3.5442 H   0  0  0  0  0  0  0  0  0  0  0  0
   -3.1765    4.9208    1.7047 H   0  0  0  0  0  0  0  0  0  0  0  0
   -1.4662    3.6326    0.5899 H   0  0  0  0  0  0  0  0  0  0  0  0
  1  2  1  0  0  0  0 
  2  3  1  0  0  0  0 
  3  4  1  0  0  0  0 
  3  5  1  0  0  0  0 
  5  6  2  0  0  0  0 
  6  7  1  0  0  0  0 
  7  8  2  0  0  0  0 
  8  9  1  0  0  0  0 
  9 10  2  0  0  0  0 
  5 10  1  0  0  0  0 
  1 11  1  0  0  0  0 
  1 12  1  0  0  0  0 
  2 13  1  0  0  0  0 
  2 14  1  0  0  0  0 
  3 15  1  0  0  0  0 
  4 16  1  0  0  0  0 
  6 17  1  0  0  0  0 
  7 18  1  0  0  0  0 
  8 19  1  0  0  0  0 
  9 20  1  0  0  0  0 
 10 21  1  0  0  0  0 
M  END
> <cdk:Title>
phenylethanolamine

> <Conformer>
1

> <SuperDrugID>
SD002982

$$$$
