entecavir
  CDK     0628171801

 35 37  0  0  0  0  0  0  0  0999 V2000
    0.7045   -0.6602   -0.5057 N   0  0  0  0  0  0  0  0  0  0  0  0
    0.0896   -0.2240    0.6043 C   0  0  0  0  0  0  0  0  0  0  0  0
    0.6820   -0.4351    1.8091 N   0  0  0  0  0  0  0  0  0  0  0  0
    0.0802    0.0013    2.9434 C   0  0  0  0  0  0  0  0  0  0  0  0
   -1.1324    0.6743    2.8931 C   0  0  0  0  0  0  0  0  0  0  0  0
   -1.5013    0.9965    4.1386 N   0  0  0  0  0  0  0  0  0  0  0  0
   -0.5250    0.5193    4.9373 C   0  0  0  0  0  0  0  0  0  0  0  0
    0.4551   -0.0987    4.2315 N   0  0  0  0  0  0  0  0  0  0  0  0
    1.6565   -0.7571    4.7012 C   0  0  1  0  0  0  0  0  0  0  0  0
    2.1889   -0.3286    6.0877 C   0  0  1  0  0  0  0  0  0  0  0  0
    1.5832   -1.3356    7.0833 C   0  0  2  0  0  0  0  0  0  0  0  0
    2.4951   -1.6071    8.1466 O   0  0  0  0  0  0  0  0  0  0  0  0
    1.2567   -2.6047    6.2474 C   0  0  1  0  0  0  0  0  0  0  0  0
   -0.1708   -3.1669    6.5195 C   0  0  1  0  0  0  0  0  0  0  0  0
    1.4503   -2.1864    4.8663 C   0  0  0  0  0  0  0  0  0  0  0  0
    1.4632   -3.0476    3.8335 C   0  0  0  0  0  0  0  0  0  0  0  0
   -1.7442    0.8844    1.6463 C   0  0  0  0  0  0  0  0  0  0  0  0
   -2.8393    1.4803    1.5515 O   0  0  0  0  0  0  0  0  0  0  0  0
   -1.1117    0.4213    0.5313 N   0  0  0  0  0  0  0  0  0  0  0  0
   -0.3384   -3.5302    7.8884 O   0  0  0  0  0  0  0  0  0  0  0  0
    1.5373   -1.1562   -0.4354 H   0  0  0  0  0  0  0  0  0  0  0  0
    0.3224   -0.4795   -1.3789 H   0  0  0  0  0  0  0  0  0  0  0  0
   -0.5459    0.6218    5.9540 H   0  0  0  0  0  0  0  0  0  0  0  0
    2.4620   -0.5734    3.9810 H   0  0  0  0  0  0  0  0  0  0  0  0
    3.2818   -0.4065    6.0998 H   0  0  0  0  0  0  0  0  0  0  0  0
    1.9238    0.7009    6.3380 H   0  0  0  0  0  0  0  0  0  0  0  0
    0.6781   -0.9062    7.5200 H   0  0  0  0  0  0  0  0  0  0  0  0
    2.0419   -2.2681    8.7094 H   0  0  0  0  0  0  0  0  0  0  0  0
    1.9896   -3.3859    6.4778 H   0  0  0  0  0  0  0  0  0  0  0  0
   -0.9291   -2.4232    6.2611 H   0  0  0  0  0  0  0  0  0  0  0  0
   -0.3537   -4.0555    5.9142 H   0  0  0  0  0  0  0  0  0  0  0  0
    1.3442   -4.0227    3.9748 H   0  0  0  0  0  0  0  0  0  0  0  0
    1.6051   -2.7270    2.9070 H   0  0  0  0  0  0  0  0  0  0  0  0
   -1.5277    0.5473   -0.3359 H   0  0  0  0  0  0  0  0  0  0  0  0
    0.2918   -4.2658    8.0434 H   0  0  0  0  0  0  0  0  0  0  0  0
  1  2  1  0  0  0  0 
  2  3  2  0  0  0  0 
  3  4  1  0  0  0  0 
  4  5  2  0  0  0  0 
  5  6  1  0  0  0  0 
  6  7  2  0  0  0  0 
  7  8  1  0  0  0  0 
  4  8  1  0  0  0  0 
  9  8  1  0  0  0  0 
  9 10  1  0  0  0  0 
 11 10  1  0  0  0  0 
 11 12  1  0  0  0  0 
 11 13  1  0  0  0  0 
 13 14  1  0  0  0  0 
 13 15  1  0  0  0  0 
  9 15  1  0  0  0  0 
 15 16  2  0  0  0  0 
  5 17  1  0  0  0  0 
 17 18  2  0  0  0  0 
 17 19  1  0  0  0  0 
  2 19  1  0  0  0  0 
 14 20  1  0  0  0  0 
 21  1  1  0  0  0  0 
 22  1  1  0  0  0  0 
 23  7  1  0  0  0  0 
  9 24  1  0  0  0  0 
 25 10  1  0  0  0  0 
 26 10  1  0  0  0  0 
 11 27  1  0  0  0  0 
 28 12  1  0  0  0  0 
 13 29  1  0  0  0  0 
 30 14  1  0  0  0  0 
 31 14  1  0  0  0  0 
 32 16  1  0  0  0  0 
 33 16  1  0  0  0  0 
 34 19  1  0  0  0  0 
 35 20  1  0  0  0  0 
M  END
> <cdk:Title>
entecavir

> <Conformer>
1

> <SuperDrugID>
SD000906

$$$$
