heptobarbital
  CDK     0628171801

 26 27  0  0  0  0  0  0  0  0999 V2000
   -0.1030   -2.1155    0.5573 C   0  0  0  0  0  0  0  0  0  0  0  0
   -0.9402   -0.9178   -0.0086 C   0  0  1  0  0  0  0  0  0  0  0  0
   -1.0848   -1.1584   -1.4860 C   0  0  0  0  0  0  0  0  0  0  0  0
   -2.2827   -0.9675    0.6718 C   0  0  0  0  0  0  0  0  0  0  0  0
   -0.3440    0.4608    0.1927 C   0  0  0  0  0  0  0  0  0  0  0  0
   -0.0839   -1.1390   -2.2411 O   0  0  0  0  0  0  0  0  0  0  0  0
   -2.2875   -1.4017   -2.0678 N   0  0  0  0  0  0  0  0  0  0  0  0
   -2.3833   -0.7829    1.9072 O   0  0  0  0  0  0  0  0  0  0  0  0
   -3.4320   -1.2151   -0.0121 N   0  0  0  0  0  0  0  0  0  0  0  0
   -1.0304    1.6045   -0.3024 C   0  0  0  0  0  0  0  0  0  0  0  0
    0.8947    0.6917    0.8508 C   0  0  0  0  0  0  0  0  0  0  0  0
   -3.4365   -1.4263   -1.3514 C   0  0  0  0  0  0  0  0  0  0  0  0
   -0.5087    2.9025   -0.1551 C   0  0  0  0  0  0  0  0  0  0  0  0
    1.4182    1.9896    1.0050 C   0  0  0  0  0  0  0  0  0  0  0  0
   -4.5144   -1.6505   -1.9420 O   0  0  0  0  0  0  0  0  0  0  0  0
    0.7167    3.0972    0.5011 C   0  0  0  0  0  0  0  0  0  0  0  0
   -0.6065   -3.0688    0.3757 H   0  0  0  0  0  0  0  0  0  0  0  0
    0.0457   -2.0199    1.6351 H   0  0  0  0  0  0  0  0  0  0  0  0
    0.8805   -2.1651    0.0853 H   0  0  0  0  0  0  0  0  0  0  0  0
   -2.3235   -1.5646   -3.0220 H   0  0  0  0  0  0  0  0  0  0  0  0
   -4.2731   -1.2426    0.4723 H   0  0  0  0  0  0  0  0  0  0  0  0
   -1.9264    1.4998   -0.7843 H   0  0  0  0  0  0  0  0  0  0  0  0
    1.4443   -0.0793    1.2306 H   0  0  0  0  0  0  0  0  0  0  0  0
   -1.0218    3.7059   -0.5275 H   0  0  0  0  0  0  0  0  0  0  0  0
    2.3116    2.1298    1.4838 H   0  0  0  0  0  0  0  0  0  0  0  0
    1.0962    4.0395    0.6145 H   0  0  0  0  0  0  0  0  0  0  0  0
  1  2  1  0  0  0  0 
  2  3  1  0  0  0  0 
  2  4  1  0  0  0  0 
  2  5  1  0  0  0  0 
  3  6  2  0  0  0  0 
  3  7  1  0  0  0  0 
  4  8  2  0  0  0  0 
  4  9  1  0  0  0  0 
  5 10  2  0  0  0  0 
  5 11  1  0  0  0  0 
  7 12  1  0  0  0  0 
  9 12  1  0  0  0  0 
 10 13  1  0  0  0  0 
 11 14  2  0  0  0  0 
 12 15  2  0  0  0  0 
 13 16  2  0  0  0  0 
 14 16  1  0  0  0  0 
 17  1  1  0  0  0  0 
 18  1  1  0  0  0  0 
 19  1  1  0  0  0  0 
 20  7  1  0  0  0  0 
 21  9  1  0  0  0  0 
 22 10  1  0  0  0  0 
 23 11  1  0  0  0  0 
 24 13  1  0  0  0  0 
 25 14  1  0  0  0  0 
 26 16  1  0  0  0  0 
M  END
> <cdk:Title>
heptobarbital

> <Conformer>
1

> <SuperDrugID>
SD003254

$$$$
