chloroform
  CDK     0628171801

  5  4  0  0  0  0  0  0  0  0999 V2000
    0.0000    0.0000    0.0000 C   0  0  1  0  0  0  0  0  0  0  0  0
    1.7570    0.0000    0.0000 Cl  0  0  0  0  0  0  0  0  0  0  0  0
   -0.5857    1.6565    0.0000 Cl  0  0  0  0  0  0  0  0  0  0  0  0
   -0.5857   -0.8283   -1.4346 Cl  0  0  0  0  0  0  0  0  0  0  0  0
   -0.3633   -0.5138    0.8900 H   0  0  0  0  0  0  0  0  0  0  0  0
  1  2  1  0  0  0  0 
  1  3  1  0  0  0  0 
  1  4  1  0  0  0  0 
  1  5  1  0  0  0  0 
M  END
> <cdk:Title>
chloroform

> <Conformer>
1

> <SuperDrugID>
SD003519

$$$$
