dipyrocetyl
  CDK     0628171801

 27 27  0  0  0  0  0  0  0  0999 V2000
    0.9070    0.5508    3.4573 C   0  0  0  0  0  0  0  0  0  0  0  0
   -0.3211    1.0045    2.7909 C   0  0  0  0  0  0  0  0  0  0  0  0
   -0.7856    2.1372    3.0545 O   0  0  0  0  0  0  0  0  0  0  0  0
   -0.8892    0.1514    1.8890 O   0  0  0  0  0  0  0  0  0  0  0  0
   -2.0023    0.1952    1.0888 C   0  0  0  0  0  0  0  0  0  0  0  0
   -2.9290    1.2598    1.0840 C   0  0  0  0  0  0  0  0  0  0  0  0
   -3.9936    1.2718    0.1714 C   0  0  0  0  0  0  0  0  0  0  0  0
   -4.1466    0.2185   -0.7419 C   0  0  0  0  0  0  0  0  0  0  0  0
   -3.2480   -0.8766   -0.7579 C   0  0  0  0  0  0  0  0  0  0  0  0
   -3.4367   -1.9185   -1.7170 C   0  0  0  0  0  0  0  0  0  0  0  0
   -4.3857   -1.8417   -2.6804 O   0  0  0  0  0  0  0  0  0  0  0  0
   -2.7439   -2.9606   -1.7428 O   0  0  0  0  0  0  0  0  0  0  0  0
   -2.1874   -0.8929    0.1949 C   0  0  0  0  0  0  0  0  0  0  0  0
   -1.3169   -1.9563    0.2068 O   0  0  0  0  0  0  0  0  0  0  0  0
   -0.8468   -2.6914    1.2604 C   0  0  0  0  0  0  0  0  0  0  0  0
    0.1879   -3.7012    0.9980 C   0  0  0  0  0  0  0  0  0  0  0  0
   -1.3122   -2.5591    2.4178 O   0  0  0  0  0  0  0  0  0  0  0  0
    1.2475    1.2763    4.1982 H   0  0  0  0  0  0  0  0  0  0  0  0
    0.7207   -0.4003    3.9561 H   0  0  0  0  0  0  0  0  0  0  0  0
    1.6925    0.4129    2.7117 H   0  0  0  0  0  0  0  0  0  0  0  0
   -2.8417    2.0410    1.7318 H   0  0  0  0  0  0  0  0  0  0  0  0
   -4.6525    2.0547    0.1676 H   0  0  0  0  0  0  0  0  0  0  0  0
   -4.9305    0.2675   -1.3984 H   0  0  0  0  0  0  0  0  0  0  0  0
   -4.4826   -2.5674   -3.3323 H   0  0  0  0  0  0  0  0  0  0  0  0
   -0.1759   -4.4227    0.2652 H   0  0  0  0  0  0  0  0  0  0  0  0
    0.4593   -4.2372    1.9105 H   0  0  0  0  0  0  0  0  0  0  0  0
    1.0782   -3.2097    0.6033 H   0  0  0  0  0  0  0  0  0  0  0  0
  1  2  1  0  0  0  0 
  2  3  2  0  0  0  0 
  2  4  1  0  0  0  0 
  4  5  1  0  0  0  0 
  5  6  2  0  0  0  0 
  6  7  1  0  0  0  0 
  7  8  2  0  0  0  0 
  8  9  1  0  0  0  0 
  9 10  1  0  0  0  0 
 10 11  1  0  0  0  0 
 10 12  2  0  0  0  0 
  9 13  2  0  0  0  0 
  5 13  1  0  0  0  0 
 13 14  1  0  0  0  0 
 14 15  1  0  0  0  0 
 15 16  1  0  0  0  0 
 15 17  2  0  0  0  0 
  1 18  1  0  0  0  0 
  1 19  1  0  0  0  0 
  1 20  1  0  0  0  0 
  6 21  1  0  0  0  0 
  7 22  1  0  0  0  0 
  8 23  1  0  0  0  0 
 11 24  1  0  0  0  0 
 16 25  1  0  0  0  0 
 16 26  1  0  0  0  0 
 16 27  1  0  0  0  0 
M  END
> <cdk:Title>
dipyrocetyl

> <Conformer>
1

> <SuperDrugID>
SD002736

$$$$
