guanidine
  CDK     0628171801

  9  8  0  0  0  0  0  0  0  0999 V2000
   -0.4822    0.7969   -1.6920 N   0  0  0  0  0  0  0  0  0  0  0  0
    0.1638    0.3846   -0.6255 C   0  0  0  0  0  0  0  0  0  0  0  0
    1.4265    0.0360   -0.7141 N   0  0  0  0  0  0  0  0  0  0  0  0
   -0.4327    0.3187    0.5005 N   0  0  0  0  0  0  0  0  0  0  0  0
   -1.4138    1.0598   -1.6272 H   0  0  0  0  0  0  0  0  0  0  0  0
   -0.0283    0.8380   -2.5481 H   0  0  0  0  0  0  0  0  0  0  0  0
    1.8878    0.0941   -1.5662 H   0  0  0  0  0  0  0  0  0  0  0  0
    1.9012   -0.2852    0.0691 H   0  0  0  0  0  0  0  0  0  0  0  0
   -1.3328    0.5640    0.5748 H   0  0  0  0  0  0  0  0  0  0  0  0
  1  2  1  0  0  0  0 
  2  3  1  0  0  0  0 
  2  4  2  0  0  0  0 
  1  5  1  0  0  0  0 
  1  6  1  0  0  0  0 
  3  7  1  0  0  0  0 
  3  8  1  0  0  0  0 
  4  9  1  0  0  0  0 
M  END
> <cdk:Title>
guanidine

> <Conformer>
1

> <SuperDrugID>
SD001192

$$$$
