imatinib
  CDK     0628171801

 68 72  0  0  0  0  0  0  0  0999 V2000
    0.9268   -4.1364    2.3769 N   0  0  0  0  0  0  0  0  0  0  0  0
    2.2389   -4.2595    2.0243 C   0  0  0  0  0  0  0  0  0  0  0  0
    0.0531   -3.1117    2.0877 C   0  0  0  0  0  0  0  0  0  0  0  0
    2.7949   -3.6123    0.9645 N   0  0  0  0  0  0  0  0  0  0  0  0
    3.0354   -5.0610    2.7754 N   0  0  0  0  0  0  0  0  0  0  0  0
    0.5082   -1.8356    1.6780 C   0  0  0  0  0  0  0  0  0  0  0  0
   -1.3503   -3.3068    2.2378 C   0  0  0  0  0  0  0  0  0  0  0  0
    4.1139   -3.6875    0.6398 C   0  0  0  0  0  0  0  0  0  0  0  0
    4.3580   -5.2059    2.5127 C   0  0  0  0  0  0  0  0  0  0  0  0
   -0.3738   -0.8061    1.2948 C   0  0  0  0  0  0  0  0  0  0  0  0
   -1.9042   -4.6033    2.7129 C   0  0  0  0  0  0  0  0  0  0  0  0
   -2.2370   -2.2442    1.9282 C   0  0  0  0  0  0  0  0  0  0  0  0
    4.9396   -4.5115    1.4379 C   0  0  0  0  0  0  0  0  0  0  0  0
    4.5914   -2.9229   -0.4608 C   0  0  0  0  0  0  0  0  0  0  0  0
    0.0829    0.3754    0.7835 N   0  0  0  0  0  0  0  0  0  0  0  0
   -1.7543   -1.0099    1.4598 C   0  0  0  0  0  0  0  0  0  0  0  0
    3.7921   -2.7300   -1.6139 C   0  0  0  0  0  0  0  0  0  0  0  0
    5.8634   -2.2996   -0.4481 C   0  0  0  0  0  0  0  0  0  0  0  0
    1.0999    0.5223   -0.1272 C   0  0  0  0  0  0  0  0  0  0  0  0
    4.2480   -1.9432   -2.6874 C   0  0  0  0  0  0  0  0  0  0  0  0
    6.2728   -1.5364   -1.4937 N   0  0  0  0  0  0  0  0  0  0  0  0
    1.6051   -0.4990   -0.6587 O   0  0  0  0  0  0  0  0  0  0  0  0
    1.5934    1.8061   -0.5029 C   0  0  0  0  0  0  0  0  0  0  0  0
    5.5107   -1.3362   -2.5967 C   0  0  0  0  0  0  0  0  0  0  0  0
    2.8008    1.9254   -1.2376 C   0  0  0  0  0  0  0  0  0  0  0  0
    0.9186    3.0009   -0.1525 C   0  0  0  0  0  0  0  0  0  0  0  0
    3.3190    3.1829   -1.5944 C   0  0  0  0  0  0  0  0  0  0  0  0
    1.4442    4.2596   -0.4942 C   0  0  0  0  0  0  0  0  0  0  0  0
    2.6535    4.3672   -1.2144 C   0  0  0  0  0  0  0  0  0  0  0  0
    3.2413    5.6905   -1.5428 C   0  0  2  0  0  0  0  0  0  0  0  0
    3.3371    5.9614   -3.0149 N   0  0  1  0  0  0  0  0  0  0  0  0
    2.0046    6.1046   -3.6873 C   0  0  2  0  0  0  0  0  0  0  0  0
    4.2247    7.1314   -3.2998 C   0  0  1  0  0  0  0  0  0  0  0  0
    2.1534    6.3351   -5.2134 C   0  0  2  0  0  0  0  0  0  0  0  0
    4.3734    7.3759   -4.8187 C   0  0  2  0  0  0  0  0  0  0  0  0
    3.0320    7.5194   -5.4583 N   0  0  1  0  0  0  0  0  0  0  0  0
    3.1222    7.8943   -6.8970 C   0  0  0  0  0  0  0  0  0  0  0  0
    0.5701   -4.8664    2.9055 H   0  0  0  0  0  0  0  0  0  0  0  0
    1.5051   -1.6292    1.6676 H   0  0  0  0  0  0  0  0  0  0  0  0
    4.9265   -5.8145    3.1029 H   0  0  0  0  0  0  0  0  0  0  0  0
   -1.4723   -4.8641    3.6800 H   0  0  0  0  0  0  0  0  0  0  0  0
   -2.9891   -4.5750    2.8339 H   0  0  0  0  0  0  0  0  0  0  0  0
   -1.6683   -5.3925    1.9976 H   0  0  0  0  0  0  0  0  0  0  0  0
   -3.2487   -2.3615    2.0306 H   0  0  0  0  0  0  0  0  0  0  0  0
    5.9369   -4.6203    1.2464 H   0  0  0  0  0  0  0  0  0  0  0  0
   -0.3667    1.1791    1.0856 H   0  0  0  0  0  0  0  0  0  0  0  0
   -2.4168   -0.2644    1.2317 H   0  0  0  0  0  0  0  0  0  0  0  0
    2.8703   -3.1689   -1.6847 H   0  0  0  0  0  0  0  0  0  0  0  0
    6.4934   -2.3969    0.3502 H   0  0  0  0  0  0  0  0  0  0  0  0
    3.6700   -1.8153   -3.5198 H   0  0  0  0  0  0  0  0  0  0  0  0
    5.8609   -0.7512   -3.3563 H   0  0  0  0  0  0  0  0  0  0  0  0
    3.3292    1.0925   -1.5145 H   0  0  0  0  0  0  0  0  0  0  0  0
    0.0341    2.9756    0.3554 H   0  0  0  0  0  0  0  0  0  0  0  0
    4.1930    3.2304   -2.1252 H   0  0  0  0  0  0  0  0  0  0  0  0
    0.9397    5.1019   -0.2115 H   0  0  0  0  0  0  0  0  0  0  0  0
    4.2397    5.6899   -1.0951 H   0  0  0  0  0  0  0  0  0  0  0  0
    2.6821    6.4968   -1.0576 H   0  0  0  0  0  0  0  0  0  0  0  0
    1.4500    6.9425   -3.2520 H   0  0  0  0  0  0  0  0  0  0  0  0
    1.4114    5.1982   -3.5439 H   0  0  0  0  0  0  0  0  0  0  0  0
    3.8225    8.0344   -2.8293 H   0  0  0  0  0  0  0  0  0  0  0  0
    5.2226    6.9519   -2.8909 H   0  0  0  0  0  0  0  0  0  0  0  0
    1.1146    6.5910   -5.5963 H   0  0  0  0  0  0  0  0  0  0  0  0
    2.6558    5.4126   -5.6501 H   0  0  0  0  0  0  0  0  0  0  0  0
    4.9255    6.5435   -5.2661 H   0  0  0  0  0  0  0  0  0  0  0  0
    4.9577    8.2894   -4.9603 H   0  0  0  0  0  0  0  0  0  0  0  0
    3.6068    7.1087   -7.4826 H   0  0  0  0  0  0  0  0  0  0  0  0
    3.6939    8.8182   -7.0089 H   0  0  0  0  0  0  0  0  0  0  0  0
    2.1271    8.0760   -7.3074 H   0  0  0  0  0  0  0  0  0  0  0  0
  1  2  1  0  0  0  0 
  1  3  1  0  0  0  0 
  2  4  2  0  0  0  0 
  2  5  1  0  0  0  0 
  3  6  2  0  0  0  0 
  3  7  1  0  0  0  0 
  4  8  1  0  0  0  0 
  5  9  2  0  0  0  0 
  6 10  1  0  0  0  0 
  7 11  1  0  0  0  0 
  7 12  2  0  0  0  0 
  8 13  2  0  0  0  0 
  8 14  1  0  0  0  0 
  9 13  1  0  0  0  0 
 10 15  1  0  0  0  0 
 10 16  2  0  0  0  0 
 12 16  1  0  0  0  0 
 14 17  2  0  0  0  0 
 14 18  1  0  0  0  0 
 15 19  1  0  0  0  0 
 17 20  1  0  0  0  0 
 18 21  2  0  0  0  0 
 19 22  2  0  0  0  0 
 19 23  1  0  0  0  0 
 20 24  2  0  0  0  0 
 21 24  1  0  0  0  0 
 23 25  2  0  0  0  0 
 23 26  1  0  0  0  0 
 25 27  1  0  0  0  0 
 26 28  2  0  0  0  0 
 27 29  2  0  0  0  0 
 28 29  1  0  0  0  0 
 29 30  1  0  0  0  0 
 30 31  1  0  0  0  0 
 31 32  1  0  0  0  0 
 31 33  1  0  0  0  0 
 32 34  1  0  0  0  0 
 33 35  1  0  0  0  0 
 34 36  1  0  0  0  0 
 35 36  1  0  0  0  0 
 36 37  1  0  0  0  0 
  1 38  1  0  0  0  0 
  6 39  1  0  0  0  0 
  9 40  1  0  0  0  0 
 11 41  1  0  0  0  0 
 11 42  1  0  0  0  0 
 11 43  1  0  0  0  0 
 12 44  1  0  0  0  0 
 13 45  1  0  0  0  0 
 15 46  1  0  0  0  0 
 16 47  1  0  0  0  0 
 17 48  1  0  0  0  0 
 18 49  1  0  0  0  0 
 20 50  1  0  0  0  0 
 24 51  1  0  0  0  0 
 25 52  1  0  0  0  0 
 26 53  1  0  0  0  0 
 27 54  1  0  0  0  0 
 28 55  1  0  0  0  0 
 30 56  1  0  0  0  0 
 30 57  1  0  0  0  0 
 32 58  1  0  0  0  0 
 32 59  1  0  0  0  0 
 33 60  1  0  0  0  0 
 33 61  1  0  0  0  0 
 34 62  1  0  0  0  0 
 34 63  1  0  0  0  0 
 35 64  1  0  0  0  0 
 35 65  1  0  0  0  0 
 37 66  1  0  0  0  0 
 37 67  1  0  0  0  0 
 37 68  1  0  0  0  0 
M  END
> <cdk:Title>
imatinib

> <Conformer>
1

> <SuperDrugID>
SD001263

$$$$
