rolitetracycline
  CDK     0628171801

 71 75  0  0  0  0  0  0  0  0999 V2000
    1.0968    5.4541   -3.9427 C   0  0  0  0  0  0  0  0  0  0  0  0
    2.0549    6.5034   -3.4662 N   0  0  2  0  0  0  0  0  0  0  0  0
    2.7783    7.0787   -4.6461 C   0  0  0  0  0  0  0  0  0  0  0  0
    2.9414    6.1421   -2.2910 C   0  0  1  0  0  0  0  0  0  0  0  0
    3.4100    7.4018   -1.4764 C   0  0  2  0  0  0  0  0  0  0  0  0
    4.5918    7.0478   -0.5177 C   0  0  1  0  0  0  0  0  0  0  0  0
    5.0566    8.3059    0.2657 C   0  0  1  0  0  0  0  0  0  0  0  0
    3.9131    8.9021    0.9904 C   0  0  0  0  0  0  0  0  0  0  0  0
    4.1503    9.4055    2.2750 C   0  0  0  0  0  0  0  0  0  0  0  0
    3.6190   10.4730    2.6665 O   0  0  0  0  0  0  0  0  0  0  0  0
    4.9869    8.6674    3.1562 C   0  0  0  0  0  0  0  0  0  0  0  0
    4.7552    8.6247    4.5564 C   0  0  0  0  0  0  0  0  0  0  0  0
    3.7154    9.2681    5.1497 O   0  0  0  0  0  0  0  0  0  0  0  0
    5.6033    7.8759    5.3929 C   0  0  0  0  0  0  0  0  0  0  0  0
    6.6745    7.1514    4.8478 C   0  0  0  0  0  0  0  0  0  0  0  0
    6.9045    7.1777    3.4628 C   0  0  0  0  0  0  0  0  0  0  0  0
    6.0748    7.9363    2.6003 C   0  0  0  0  0  0  0  0  0  0  0  0
    6.3731    8.0775    1.1332 C   0  0  2  0  0  0  0  0  0  0  0  0
    7.3534    9.2837    0.9904 C   0  0  0  0  0  0  0  0  0  0  0  0
    7.1197    6.9457    0.6589 O   0  0  0  0  0  0  0  0  0  0  0  0
    2.6616    8.9044    0.4637 C   0  0  0  0  0  0  0  0  0  0  0  0
    1.7114    9.6285    1.0628 O   0  0  0  0  0  0  0  0  0  0  0  0
    2.2219    8.0879   -0.6935 C   0  0  1  0  0  0  0  0  0  0  0  0
    1.5542    8.9650   -1.6079 O   0  0  0  0  0  0  0  0  0  0  0  0
    1.2039    7.1097   -0.2351 C   0  0  0  0  0  0  0  0  0  0  0  0
    0.1448    7.5982    0.4159 O   0  0  0  0  0  0  0  0  0  0  0  0
    1.2644    5.7713   -0.4541 C   0  0  0  0  0  0  0  0  0  0  0  0
    0.3489    4.8849    0.1323 C   0  0  0  0  0  0  0  0  0  0  0  0
   -0.0938    5.1037    1.2874 O   0  0  0  0  0  0  0  0  0  0  0  0
   -0.0475    3.7653   -0.5363 N   0  0  0  0  0  0  0  0  0  0  0  0
   -0.8183    2.6864   -0.0120 C   0  0  2  0  0  0  0  0  0  0  0  0
   -0.1379    1.4123   -0.3786 N   0  0  1  0  0  0  0  0  0  0  0  0
   -0.5517    0.2240    0.3944 C   0  0  1  0  0  0  0  0  0  0  0  0
    0.0515   -0.9510   -0.3873 C   0  0  1  0  0  0  0  0  0  0  0  0
   -0.0446   -0.5071   -1.8567 C   0  0  2  0  0  0  0  0  0  0  0  0
   -0.2016    1.0281   -1.8113 C   0  0  1  0  0  0  0  0  0  0  0  0
    2.2815    5.2668   -1.2780 C   0  0  0  0  0  0  0  0  0  0  0  0
    2.6913    4.0855   -1.1584 O   0  0  0  0  0  0  0  0  0  0  0  0
    0.4691    5.8412   -4.7486 H   0  0  0  0  0  0  0  0  0  0  0  0
    1.6293    4.5718   -4.3074 H   0  0  0  0  0  0  0  0  0  0  0  0
    0.4163    5.1522   -3.1488 H   0  0  0  0  0  0  0  0  0  0  0  0
    3.5255    7.8165   -4.3622 H   0  0  0  0  0  0  0  0  0  0  0  0
    3.2809    6.2963   -5.2228 H   0  0  0  0  0  0  0  0  0  0  0  0
    2.0640    7.5879   -5.2977 H   0  0  0  0  0  0  0  0  0  0  0  0
    3.8219    5.6190   -2.6849 H   0  0  0  0  0  0  0  0  0  0  0  0
    3.8123    8.1372   -2.1772 H   0  0  0  0  0  0  0  0  0  0  0  0
    4.3014    6.2784    0.2028 H   0  0  0  0  0  0  0  0  0  0  0  0
    5.4147    6.6623   -1.1256 H   0  0  0  0  0  0  0  0  0  0  0  0
    5.3071    9.0393   -0.5093 H   0  0  0  0  0  0  0  0  0  0  0  0
    3.0177    9.3267    4.4663 H   0  0  0  0  0  0  0  0  0  0  0  0
    5.4407    7.8501    6.4024 H   0  0  0  0  0  0  0  0  0  0  0  0
    7.2889    6.6074    5.4591 H   0  0  0  0  0  0  0  0  0  0  0  0
    7.6990    6.6491    3.0941 H   0  0  0  0  0  0  0  0  0  0  0  0
    6.8711   10.2139    1.2995 H   0  0  0  0  0  0  0  0  0  0  0  0
    8.2476    9.1396    1.6024 H   0  0  0  0  0  0  0  0  0  0  0  0
    7.6745    9.3944   -0.0472 H   0  0  0  0  0  0  0  0  0  0  0  0
    6.5590    6.1614    0.8417 H   0  0  0  0  0  0  0  0  0  0  0  0
    1.2999   10.1514    0.3434 H   0  0  0  0  0  0  0  0  0  0  0  0
    1.2151    8.3900   -2.3258 H   0  0  0  0  0  0  0  0  0  0  0  0
    0.4496    7.6922    1.3435 H   0  0  0  0  0  0  0  0  0  0  0  0
    0.2517    3.6766   -1.4539 H   0  0  0  0  0  0  0  0  0  0  0  0
   -1.8279    2.7342   -0.4285 H   0  0  0  0  0  0  0  0  0  0  0  0
   -0.8996    2.7577    1.0760 H   0  0  0  0  0  0  0  0  0  0  0  0
   -0.1519    0.2597    1.4112 H   0  0  0  0  0  0  0  0  0  0  0  0
   -1.6424    0.1326    0.4315 H   0  0  0  0  0  0  0  0  0  0  0  0
    1.0979   -1.0960   -0.1020 H   0  0  0  0  0  0  0  0  0  0  0  0
   -0.4998   -1.8769   -0.2058 H   0  0  0  0  0  0  0  0  0  0  0  0
   -0.9201   -0.9628   -2.3275 H   0  0  0  0  0  0  0  0  0  0  0  0
    0.8469   -0.8042   -2.4147 H   0  0  0  0  0  0  0  0  0  0  0  0
   -1.1573    1.3123   -2.2629 H   0  0  0  0  0  0  0  0  0  0  0  0
    0.6049    1.5185   -2.3620 H   0  0  0  0  0  0  0  0  0  0  0  0
  1  2  1  0  0  0  0 
  2  3  1  0  0  0  0 
  4  2  1  0  0  0  0 
  5  4  1  0  0  0  0 
  5  6  1  0  0  0  0 
  7  6  1  0  0  0  0 
  7  8  1  0  0  0  0 
  8  9  1  0  0  0  0 
  9 10  2  0  0  0  0 
  9 11  1  0  0  0  0 
 11 12  2  0  0  0  0 
 12 13  1  0  0  0  0 
 12 14  1  0  0  0  0 
 14 15  2  0  0  0  0 
 15 16  1  0  0  0  0 
 16 17  2  0  0  0  0 
 11 17  1  0  0  0  0 
 18 17  1  0  0  0  0 
  7 18  1  0  0  0  0 
 18 19  1  0  0  0  0 
 18 20  1  0  0  0  0 
  8 21  2  0  0  0  0 
 21 22  1  0  0  0  0 
 23 21  1  0  0  0  0 
  5 23  1  0  0  0  0 
 23 24  1  0  0  0  0 
 23 25  1  0  0  0  0 
 25 26  1  0  0  0  0 
 25 27  2  0  0  0  0 
 27 28  1  0  0  0  0 
 28 29  2  0  0  0  0 
 28 30  1  0  0  0  0 
 30 31  1  0  0  0  0 
 31 32  1  0  0  0  0 
 32 33  1  0  0  0  0 
 33 34  1  0  0  0  0 
 34 35  1  0  0  0  0 
 35 36  1  0  0  0  0 
 32 36  1  0  0  0  0 
 27 37  1  0  0  0  0 
  4 37  1  0  0  0  0 
 37 38  2  0  0  0  0 
 39  1  1  0  0  0  0 
 40  1  1  0  0  0  0 
 41  1  1  0  0  0  0 
 42  3  1  0  0  0  0 
 43  3  1  0  0  0  0 
 44  3  1  0  0  0  0 
  4 45  1  0  0  0  0 
  5 46  1  0  0  0  0 
 47  6  1  0  0  0  0 
 48  6  1  0  0  0  0 
  7 49  1  0  0  0  0 
 50 13  1  0  0  0  0 
 51 14  1  0  0  0  0 
 52 15  1  0  0  0  0 
 53 16  1  0  0  0  0 
 54 19  1  0  0  0  0 
 55 19  1  0  0  0  0 
 56 19  1  0  0  0  0 
 57 20  1  0  0  0  0 
 58 22  1  0  0  0  0 
 59 24  1  0  0  0  0 
 60 26  1  0  0  0  0 
 61 30  1  0  0  0  0 
 62 31  1  0  0  0  0 
 63 31  1  0  0  0  0 
 64 33  1  0  0  0  0 
 65 33  1  0  0  0  0 
 66 34  1  0  0  0  0 
 67 34  1  0  0  0  0 
 68 35  1  0  0  0  0 
 69 35  1  0  0  0  0 
 70 36  1  0  0  0  0 
 71 36  1  0  0  0  0 
M  END
> <cdk:Title>
rolitetracycline

> <Conformer>
1

> <SuperDrugID>
SD002159

$$$$
