myrtecaine
  CDK     0628171801

 50 51  0  0  0  0  0  0  0  0999 V2000
   -1.5800   -4.3460   -1.1568 C   0  0  2  0  0  0  0  0  0  0  0  0
   -0.0661   -4.6921   -1.4208 C   0  0  1  0  0  0  0  0  0  0  0  0
   -0.4760   -6.1121   -0.8791 C   0  0  1  0  0  0  0  0  0  0  0  0
   -0.5798   -6.1271    0.6997 C   0  0  2  0  0  0  0  0  0  0  0  0
   -1.3563   -4.9579    1.1767 C   0  0  0  0  0  0  0  0  0  0  0  0
   -1.8561   -4.0620    0.2805 C   0  0  0  0  0  0  0  0  0  0  0  0
    0.3218   -4.6524   -2.9422 C   0  0  0  0  0  0  0  0  0  0  0  0
    1.0541   -3.9092   -0.6444 C   0  0  0  0  0  0  0  0  0  0  0  0
   -1.9186   -5.8511   -1.4084 C   0  0  2  0  0  0  0  0  0  0  0  0
   -2.6174   -2.8819    0.6792 C   0  0  1  0  0  0  0  0  0  0  0  0
   -1.7294   -1.6371    0.9288 C   0  0  1  0  0  0  0  0  0  0  0  0
   -1.0172   -1.2555   -0.2691 O   0  0  0  0  0  0  0  0  0  0  0  0
   -0.1923   -0.0777   -0.1319 C   0  0  1  0  0  0  0  0  0  0  0  0
    0.4449    0.2897   -1.5018 C   0  0  2  0  0  0  0  0  0  0  0  0
    1.4619    1.4092   -1.5027 N   0  0  1  0  0  0  0  0  0  0  0  0
    2.2092    1.5274   -2.8087 C   0  0  2  0  0  0  0  0  0  0  0  0
    0.8700    2.7281   -1.0712 C   0  0  2  0  0  0  0  0  0  0  0  0
    3.0767    0.3163   -3.2228 C   0  0  0  0  0  0  0  0  0  0  0  0
    1.8614    3.8958   -0.8411 C   0  0  0  0  0  0  0  0  0  0  0  0
   -2.0394   -3.6615   -1.8771 H   0  0  0  0  0  0  0  0  0  0  0  0
    0.0367   -6.9673   -1.3262 H   0  0  0  0  0  0  0  0  0  0  0  0
    0.4215   -6.1106    1.1357 H   0  0  0  0  0  0  0  0  0  0  0  0
   -1.0734   -7.0473    1.0227 H   0  0  0  0  0  0  0  0  0  0  0  0
   -1.5033   -4.8387    2.1512 H   0  0  0  0  0  0  0  0  0  0  0  0
    0.3403   -3.6163   -3.2882 H   0  0  0  0  0  0  0  0  0  0  0  0
    1.3122   -5.0864   -3.0911 H   0  0  0  0  0  0  0  0  0  0  0  0
   -0.3737   -5.1951   -3.5810 H   0  0  0  0  0  0  0  0  0  0  0  0
    1.2338   -2.9388   -1.1080 H   0  0  0  0  0  0  0  0  0  0  0  0
    1.9869   -4.4768   -0.6765 H   0  0  0  0  0  0  0  0  0  0  0  0
    0.8188   -3.7172    0.4004 H   0  0  0  0  0  0  0  0  0  0  0  0
   -2.0621   -6.1095   -2.4596 H   0  0  0  0  0  0  0  0  0  0  0  0
   -2.7331   -6.2728   -0.8092 H   0  0  0  0  0  0  0  0  0  0  0  0
   -3.3574   -2.6379   -0.0898 H   0  0  0  0  0  0  0  0  0  0  0  0
   -3.1831   -3.0931    1.5920 H   0  0  0  0  0  0  0  0  0  0  0  0
   -2.3820   -0.8184    1.2499 H   0  0  0  0  0  0  0  0  0  0  0  0
   -1.0259   -1.8500    1.7388 H   0  0  0  0  0  0  0  0  0  0  0  0
   -0.8189    0.7457    0.2151 H   0  0  0  0  0  0  0  0  0  0  0  0
    0.6012   -0.2577    0.5990 H   0  0  0  0  0  0  0  0  0  0  0  0
   -0.3589    0.5251   -2.2047 H   0  0  0  0  0  0  0  0  0  0  0  0
    0.9187   -0.6272   -1.8514 H   0  0  0  0  0  0  0  0  0  0  0  0
    2.9181    2.3527   -2.7467 H   0  0  0  0  0  0  0  0  0  0  0  0
    1.5118    1.7573   -3.6186 H   0  0  0  0  0  0  0  0  0  0  0  0
    0.3676    2.6032   -0.1127 H   0  0  0  0  0  0  0  0  0  0  0  0
    0.1189    3.0490   -1.7981 H   0  0  0  0  0  0  0  0  0  0  0  0
    3.7537    0.6099   -4.0289 H   0  0  0  0  0  0  0  0  0  0  0  0
    2.4570   -0.5042   -3.5845 H   0  0  0  0  0  0  0  0  0  0  0  0
    3.6743   -0.0264   -2.3780 H   0  0  0  0  0  0  0  0  0  0  0  0
    1.3567    4.7054   -0.3107 H   0  0  0  0  0  0  0  0  0  0  0  0
    2.2259    4.2966   -1.7877 H   0  0  0  0  0  0  0  0  0  0  0  0
    2.7094    3.5624   -0.2421 H   0  0  0  0  0  0  0  0  0  0  0  0
  1  2  1  0  0  0  0 
  2  3  1  0  0  0  0 
  3  4  1  0  0  0  0 
  4  5  1  0  0  0  0 
  5  6  2  0  0  0  0 
  1  6  1  0  0  0  0 
  2  7  1  0  0  0  0 
  2  8  1  0  0  0  0 
  1  9  1  0  0  0  0 
  3  9  1  0  0  0  0 
  6 10  1  0  0  0  0 
 10 11  1  0  0  0  0 
 11 12  1  0  0  0  0 
 12 13  1  0  0  0  0 
 13 14  1  0  0  0  0 
 14 15  1  0  0  0  0 
 15 16  1  0  0  0  0 
 15 17  1  0  0  0  0 
 16 18  1  0  0  0  0 
 17 19  1  0  0  0  0 
  1 20  1  0  0  0  0 
  3 21  1  0  0  0  0 
  4 22  1  0  0  0  0 
  4 23  1  0  0  0  0 
  5 24  1  0  0  0  0 
  7 25  1  0  0  0  0 
  7 26  1  0  0  0  0 
  7 27  1  0  0  0  0 
  8 28  1  0  0  0  0 
  8 29  1  0  0  0  0 
  8 30  1  0  0  0  0 
  9 31  1  0  0  0  0 
  9 32  1  0  0  0  0 
 10 33  1  0  0  0  0 
 10 34  1  0  0  0  0 
 11 35  1  0  0  0  0 
 11 36  1  0  0  0  0 
 13 37  1  0  0  0  0 
 13 38  1  0  0  0  0 
 14 39  1  0  0  0  0 
 14 40  1  0  0  0  0 
 16 41  1  0  0  0  0 
 16 42  1  0  0  0  0 
 17 43  1  0  0  0  0 
 17 44  1  0  0  0  0 
 18 45  1  0  0  0  0 
 18 46  1  0  0  0  0 
 18 47  1  0  0  0  0 
 19 48  1  0  0  0  0 
 19 49  1  0  0  0  0 
 19 50  1  0  0  0  0 
M  END
> <cdk:Title>
myrtecaine

> <Conformer>
1

> <SuperDrugID>
SD003230

$$$$
