stavudine
  CDK     0628171801

 28 29  0  0  0  0  0  0  0  0999 V2000
    1.3165   -4.9991   -3.5818 O   0  0  0  0  0  0  0  0  0  0  0  0
    2.4373   -5.2482   -3.0784 C   0  0  0  0  0  0  0  0  0  0  0  0
    3.0403   -4.4238   -2.1559 N   0  0  0  0  0  0  0  0  0  0  0  0
    3.0382   -6.3898   -3.4952 N   0  0  0  0  0  0  0  0  0  0  0  0
    2.3710   -3.2175   -1.6860 C   0  0  2  0  0  0  0  0  0  0  0  0
    4.2805   -4.7760   -1.6828 C   0  0  0  0  0  0  0  0  0  0  0  0
    4.2542   -6.7642   -3.0321 C   0  0  0  0  0  0  0  0  0  0  0  0
    3.2343   -2.2696   -1.0173 O   0  0  0  0  0  0  0  0  0  0  0  0
    1.3547   -3.5086   -0.7143 C   0  0  0  0  0  0  0  0  0  0  0  0
    4.9396   -5.9537   -2.1014 C   0  0  0  0  0  0  0  0  0  0  0  0
    4.7341   -7.8379   -3.4623 O   0  0  0  0  0  0  0  0  0  0  0  0
    2.6687   -1.9365    0.2627 C   0  0  1  0  0  0  0  0  0  0  0  0
    1.5319   -2.7978    0.3892 C   0  0  0  0  0  0  0  0  0  0  0  0
    6.2844   -6.3107   -1.5836 C   0  0  0  0  0  0  0  0  0  0  0  0
    3.7242   -2.0978    1.3844 C   0  0  2  0  0  0  0  0  0  0  0  0
    3.2165   -1.6520    2.6389 O   0  0  0  0  0  0  0  0  0  0  0  0
    2.5840   -6.9551   -4.1419 H   0  0  0  0  0  0  0  0  0  0  0  0
    1.9176   -2.6833   -2.5281 H   0  0  0  0  0  0  0  0  0  0  0  0
    4.7540   -4.1815   -0.9989 H   0  0  0  0  0  0  0  0  0  0  0  0
    0.6072   -4.1489   -0.8497 H   0  0  0  0  0  0  0  0  0  0  0  0
    2.3282   -0.8996    0.2324 H   0  0  0  0  0  0  0  0  0  0  0  0
    0.9428   -2.8445    1.1885 H   0  0  0  0  0  0  0  0  0  0  0  0
    6.9880   -6.4335   -2.4095 H   0  0  0  0  0  0  0  0  0  0  0  0
    6.6803   -5.5395   -0.9223 H   0  0  0  0  0  0  0  0  0  0  0  0
    6.2331   -7.2438   -1.0216 H   0  0  0  0  0  0  0  0  0  0  0  0
    4.6019   -1.4969    1.1442 H   0  0  0  0  0  0  0  0  0  0  0  0
    4.0384   -3.1394    1.4797 H   0  0  0  0  0  0  0  0  0  0  0  0
    3.9555   -1.7704    3.2729 H   0  0  0  0  0  0  0  0  0  0  0  0
  1  2  2  0  0  0  0 
  2  3  1  0  0  0  0 
  2  4  1  0  0  0  0 
  3  6  1  0  0  0  0 
  4  7  1  0  0  0  0 
  5  3  1  0  0  0  0 
  5  8  1  0  0  0  0 
  5  9  1  0  0  0  0 
  6 10  2  0  0  0  0 
  7 10  1  0  0  0  0 
  7 11  2  0  0  0  0 
 12  8  1  0  0  0  0 
  9 13  2  0  0  0  0 
 10 14  1  0  0  0  0 
 12 13  1  0  0  0  0 
 12 15  1  0  0  0  0 
 15 16  1  0  0  0  0 
 17  4  1  0  0  0  0 
  5 18  1  0  0  0  0 
 19  6  1  0  0  0  0 
 20  9  1  0  0  0  0 
 12 21  1  0  0  0  0 
 22 13  1  0  0  0  0 
 23 14  1  0  0  0  0 
 24 14  1  0  0  0  0 
 25 14  1  0  0  0  0 
 26 15  1  0  0  0  0 
 27 15  1  0  0  0  0 
 28 16  1  0  0  0  0 
M  END
> <cdk:Title>
stavudine

> <Conformer>
1

> <SuperDrugID>
SD002226

$$$$
