saquinavir
  CDK     0628171801

 99103  0  0  0  0  0  0  0  0999 V2000
   -1.5539    2.1325    1.5371 C   0  0  1  0  0  0  0  0  0  0  0  0
   -2.4781    0.8859    1.3196 C   0  0  2  0  0  0  0  0  0  0  0  0
   -0.2520    1.9309    2.2821 N   0  0  1  0  0  0  0  0  0  0  0  0
   -1.9463   -0.3290    0.4801 C   0  0  2  0  0  0  0  0  0  0  0  0
   -3.6931    1.3331    0.7135 O   0  0  0  0  0  0  0  0  0  0  0  0
    0.6923    3.1161    2.2087 C   0  0  2  0  0  0  0  0  0  0  0  0
   -0.5025    1.5342    3.7178 C   0  0  2  0  0  0  0  0  0  0  0  0
   -0.6237   -0.9574    1.0241 C   0  0  1  0  0  0  0  0  0  0  0  0
   -1.9759   -0.1106   -0.9435 N   0  0  0  0  0  0  0  0  0  0  0  0
    1.0494    3.6027    0.8319 C   0  0  0  0  0  0  0  0  0  0  0  0
    2.0188    2.8495    3.0034 C   0  0  2  0  0  0  0  0  0  0  0  0
    0.7765    1.2147    4.5453 C   0  0  2  0  0  0  0  0  0  0  0  0
   -0.2320   -2.2463    0.3878 C   0  0  0  0  0  0  0  0  0  0  0  0
   -1.0962    0.6021   -1.7006 C   0  0  0  0  0  0  0  0  0  0  0  0
    2.0454    3.0012    0.1094 N   0  0  0  0  0  0  0  0  0  0  0  0
    0.4788    4.6285    0.3904 O   0  0  0  0  0  0  0  0  0  0  0  0
    1.7810    2.4058    4.4768 C   0  0  1  0  0  0  0  0  0  0  0  0
    1.4277   -0.1440    4.1378 C   0  0  2  0  0  0  0  0  0  0  0  0
    0.8378   -2.3098   -0.5369 C   0  0  0  0  0  0  0  0  0  0  0  0
   -0.8944   -3.4467    0.7405 C   0  0  0  0  0  0  0  0  0  0  0  0
   -1.2204    0.7377   -3.1825 C   0  0  1  0  0  0  0  0  0  0  0  0
   -0.1193    1.1552   -1.1466 O   0  0  0  0  0  0  0  0  0  0  0  0
    2.7456    3.4882   -1.0616 C   0  0  1  0  0  0  0  0  0  0  0  0
    3.0970    2.0722    5.2555 C   0  0  2  0  0  0  0  0  0  0  0  0
    2.7167   -0.4451    4.9450 C   0  0  2  0  0  0  0  0  0  0  0  0
    1.2646   -3.5464   -1.0557 C   0  0  0  0  0  0  0  0  0  0  0  0
   -0.4740   -4.6820    0.2141 C   0  0  0  0  0  0  0  0  0  0  0  0
   -0.0217    0.1712   -3.7364 N   0  0  0  0  0  0  0  0  0  0  0  0
   -2.4829    0.0892   -3.8268 C   0  0  2  0  0  0  0  0  0  0  0  0
    3.9345    2.4963   -1.2747 C   0  0  0  0  0  0  0  0  0  0  0  0
    1.8396    3.4939   -2.3309 C   0  0  0  0  0  0  0  0  0  0  0  0
    3.3354    4.9158   -0.8160 C   0  0  0  0  0  0  0  0  0  0  0  0
    3.7385    0.7157    4.8539 C   0  0  2  0  0  0  0  0  0  0  0  0
    0.6150   -4.7334   -0.6731 C   0  0  0  0  0  0  0  0  0  0  0  0
    0.7396    0.6968   -4.7441 C   0  0  0  0  0  0  0  0  0  0  0  0
   -3.7249    0.8426   -3.5310 C   0  0  0  0  0  0  0  0  0  0  0  0
    0.2413    1.5548   -5.5132 O   0  0  0  0  0  0  0  0  0  0  0  0
    2.1186    0.3717   -4.8772 C   0  0  0  0  0  0  0  0  0  0  0  0
   -3.9490    2.0479   -4.0877 N   0  0  0  0  0  0  0  0  0  0  0  0
   -4.5920    0.3727   -2.7605 O   0  0  0  0  0  0  0  0  0  0  0  0
    2.8432    0.9490   -5.8781 N   0  0  0  0  0  0  0  0  0  0  0  0
    2.8100   -0.4520   -3.9558 C   0  0  0  0  0  0  0  0  0  0  0  0
    4.1901    0.8214   -6.0173 C   0  0  0  0  0  0  0  0  0  0  0  0
    4.2050   -0.6062   -4.0532 C   0  0  0  0  0  0  0  0  0  0  0  0
    4.9215    0.0538   -5.0708 C   0  0  0  0  0  0  0  0  0  0  0  0
    4.8623    1.4568   -7.0791 C   0  0  0  0  0  0  0  0  0  0  0  0
    6.3288   -0.0210   -5.1732 C   0  0  0  0  0  0  0  0  0  0  0  0
    6.2639    1.3614   -7.1832 C   0  0  0  0  0  0  0  0  0  0  0  0
    6.9960    0.6408   -6.2206 C   0  0  0  0  0  0  0  0  0  0  0  0
    1.3226    3.2601    4.9882 H   0  0  0  0  0  0  0  0  0  0  0  0
    0.4623    1.1130    5.5911 H   0  0  0  0  0  0  0  0  0  0  0  0
   -1.3596    2.5515    0.5525 H   0  0  0  0  0  0  0  0  0  0  0  0
   -2.1416    2.8875    2.0711 H   0  0  0  0  0  0  0  0  0  0  0  0
   -2.7822    0.5074    2.2973 H   0  0  0  0  0  0  0  0  0  0  0  0
   -2.7067   -1.1052    0.6177 H   0  0  0  0  0  0  0  0  0  0  0  0
   -4.1083    1.9289    1.3724 H   0  0  0  0  0  0  0  0  0  0  0  0
    0.1914    3.9517    2.7137 H   0  0  0  0  0  0  0  0  0  0  0  0
   -1.1311    0.6471    3.7741 H   0  0  0  0  0  0  0  0  0  0  0  0
   -1.0457    2.3375    4.2268 H   0  0  0  0  0  0  0  0  0  0  0  0
    0.1932   -0.2408    0.9335 H   0  0  0  0  0  0  0  0  0  0  0  0
   -0.7400   -1.1442    2.0937 H   0  0  0  0  0  0  0  0  0  0  0  0
   -2.7199   -0.5166   -1.4154 H   0  0  0  0  0  0  0  0  0  0  0  0
    2.6239    3.7622    3.0049 H   0  0  0  0  0  0  0  0  0  0  0  0
    2.5949    2.0735    2.4965 H   0  0  0  0  0  0  0  0  0  0  0  0
    2.3658    2.1604    0.4705 H   0  0  0  0  0  0  0  0  0  0  0  0
    1.6689   -0.1376    3.0730 H   0  0  0  0  0  0  0  0  0  0  0  0
    0.7162   -0.9560    4.3122 H   0  0  0  0  0  0  0  0  0  0  0  0
    1.3226   -1.4573   -0.8276 H   0  0  0  0  0  0  0  0  0  0  0  0
   -1.6755   -3.4319    1.4011 H   0  0  0  0  0  0  0  0  0  0  0  0
   -1.2407    1.8133   -3.3912 H   0  0  0  0  0  0  0  0  0  0  0  0
    2.8667    2.0317    6.3248 H   0  0  0  0  0  0  0  0  0  0  0  0
    3.8276    2.8731    5.1151 H   0  0  0  0  0  0  0  0  0  0  0  0
    3.1733   -1.3605    4.5601 H   0  0  0  0  0  0  0  0  0  0  0  0
    2.4593   -0.6183    5.9942 H   0  0  0  0  0  0  0  0  0  0  0  0
    2.0543   -3.5824   -1.7033 H   0  0  0  0  0  0  0  0  0  0  0  0
   -0.9531   -5.5431    0.4868 H   0  0  0  0  0  0  0  0  0  0  0  0
    0.3187   -0.6207   -3.2951 H   0  0  0  0  0  0  0  0  0  0  0  0
   -2.5704   -0.9492   -3.4909 H   0  0  0  0  0  0  0  0  0  0  0  0
   -2.3621    0.0566   -4.9127 H   0  0  0  0  0  0  0  0  0  0  0  0
    4.5257    2.7716   -2.1511 H   0  0  0  0  0  0  0  0  0  0  0  0
    3.5737    1.4741   -1.4145 H   0  0  0  0  0  0  0  0  0  0  0  0
    4.5975    2.5006   -0.4052 H   0  0  0  0  0  0  0  0  0  0  0  0
    2.3835    3.8720   -3.2001 H   0  0  0  0  0  0  0  0  0  0  0  0
    1.5061    2.4860   -2.5646 H   0  0  0  0  0  0  0  0  0  0  0  0
    0.9600    4.1228   -2.1836 H   0  0  0  0  0  0  0  0  0  0  0  0
    3.9955    5.2144   -1.6341 H   0  0  0  0  0  0  0  0  0  0  0  0
    3.9098    4.9395    0.1127 H   0  0  0  0  0  0  0  0  0  0  0  0
    2.5456    5.6646   -0.7443 H   0  0  0  0  0  0  0  0  0  0  0  0
    4.5801    0.5014    5.5185 H   0  0  0  0  0  0  0  0  0  0  0  0
    4.1339    0.7782    3.8376 H   0  0  0  0  0  0  0  0  0  0  0  0
    0.9351   -5.6332   -1.0375 H   0  0  0  0  0  0  0  0  0  0  0  0
   -4.7650    2.5328   -3.8898 H   0  0  0  0  0  0  0  0  0  0  0  0
   -3.2950    2.4307   -4.6930 H   0  0  0  0  0  0  0  0  0  0  0  0
    2.3202   -0.9284   -3.1971 H   0  0  0  0  0  0  0  0  0  0  0  0
    4.6925   -1.1979   -3.3742 H   0  0  0  0  0  0  0  0  0  0  0  0
    4.3341    1.9892   -7.7756 H   0  0  0  0  0  0  0  0  0  0  0  0
    6.8758   -0.5529   -4.4897 H   0  0  0  0  0  0  0  0  0  0  0  0
    6.7538    1.8197   -7.9555 H   0  0  0  0  0  0  0  0  0  0  0  0
    8.0152    0.5923   -6.2877 H   0  0  0  0  0  0  0  0  0  0  0  0
  2  1  1  0  0  0  0 
  1  3  1  0  0  0  0 
  4  2  1  0  0  0  0 
  2  5  1  0  0  0  0 
  6  3  1  0  0  0  0 
  3  7  1  0  0  0  0 
  4  8  1  0  0  0  0 
  4  9  1  0  0  0  0 
  6 10  1  0  0  0  0 
  6 11  1  0  0  0  0 
 12  7  1  0  0  0  0 
  8 13  1  0  0  0  0 
  9 14  1  0  0  0  0 
 10 15  1  0  0  0  0 
 10 16  2  0  0  0  0 
 17 11  1  0  0  0  0 
 12 17  1  0  0  0  0 
 12 18  1  0  0  0  0 
 12 51  1  0  0  0  0 
 13 19  2  0  0  0  0 
 13 20  1  0  0  0  0 
 21 14  1  0  0  0  0 
 14 22  2  0  0  0  0 
 15 23  1  0  0  0  0 
 17 24  1  0  0  0  0 
 17 50  1  0  0  0  0 
 18 25  1  0  0  0  0 
 19 26  1  0  0  0  0 
 20 27  2  0  0  0  0 
 21 28  1  0  0  0  0 
 21 29  1  0  0  0  0 
 23 30  1  0  0  0  0 
 23 31  1  0  0  0  0 
 23 32  1  0  0  0  0 
 24 33  1  0  0  0  0 
 25 33  1  0  0  0  0 
 26 34  2  0  0  0  0 
 27 34  1  0  0  0  0 
 28 35  1  0  0  0  0 
 29 36  1  0  0  0  0 
 35 37  2  0  0  0  0 
 35 38  1  0  0  0  0 
 36 39  1  0  0  0  0 
 36 40  2  0  0  0  0 
 38 41  1  0  0  0  0 
 38 42  2  0  0  0  0 
 41 43  2  0  0  0  0 
 42 44  1  0  0  0  0 
 43 45  1  0  0  0  0 
 43 46  1  0  0  0  0 
 44 45  2  0  0  0  0 
 45 47  1  0  0  0  0 
 46 48  2  0  0  0  0 
 47 49  2  0  0  0  0 
 48 49  1  0  0  0  0 
  1 52  1  0  0  0  0 
  1 53  1  0  0  0  0 
  2 54  1  0  0  0  0 
  4 55  1  0  0  0  0 
  5 56  1  0  0  0  0 
  6 57  1  0  0  0  0 
  7 58  1  0  0  0  0 
  7 59  1  0  0  0  0 
  8 60  1  0  0  0  0 
  8 61  1  0  0  0  0 
  9 62  1  0  0  0  0 
 11 63  1  0  0  0  0 
 11 64  1  0  0  0  0 
 15 65  1  0  0  0  0 
 18 66  1  0  0  0  0 
 18 67  1  0  0  0  0 
 19 68  1  0  0  0  0 
 20 69  1  0  0  0  0 
 21 70  1  0  0  0  0 
 24 71  1  0  0  0  0 
 24 72  1  0  0  0  0 
 25 73  1  0  0  0  0 
 25 74  1  0  0  0  0 
 26 75  1  0  0  0  0 
 27 76  1  0  0  0  0 
 28 77  1  0  0  0  0 
 29 78  1  0  0  0  0 
 29 79  1  0  0  0  0 
 30 80  1  0  0  0  0 
 30 81  1  0  0  0  0 
 30 82  1  0  0  0  0 
 31 83  1  0  0  0  0 
 31 84  1  0  0  0  0 
 31 85  1  0  0  0  0 
 32 86  1  0  0  0  0 
 32 87  1  0  0  0  0 
 32 88  1  0  0  0  0 
 33 89  1  0  0  0  0 
 33 90  1  0  0  0  0 
 34 91  1  0  0  0  0 
 39 92  1  0  0  0  0 
 39 93  1  0  0  0  0 
 42 94  1  0  0  0  0 
 44 95  1  0  0  0  0 
 46 96  1  0  0  0  0 
 47 97  1  0  0  0  0 
 48 98  1  0  0  0  0 
 49 99  1  0  0  0  0 
M  END
> <cdk:Title>
saquinavir

> <Conformer>
1

> <SuperDrugID>
SD002179

$$$$
