enfenamic acid
  CDK     0628171801

 33 34  0  0  0  0  0  0  0  0999 V2000
    2.2119   -2.0901   -4.2628 C   0  0  0  0  0  0  0  0  0  0  0  0
    2.4433   -2.2862   -5.5840 O   0  0  0  0  0  0  0  0  0  0  0  0
    2.2108   -3.1176   -3.5472 O   0  0  0  0  0  0  0  0  0  0  0  0
    1.9999   -0.7838   -3.7391 C   0  0  0  0  0  0  0  0  0  0  0  0
    1.3031   -0.5356   -2.5191 C   0  0  0  0  0  0  0  0  0  0  0  0
    2.4766    0.3258   -4.4860 C   0  0  0  0  0  0  0  0  0  0  0  0
    0.7457   -1.5609   -1.8017 N   0  0  0  0  0  0  0  0  0  0  0  0
    1.1593    0.7969   -2.0633 C   0  0  0  0  0  0  0  0  0  0  0  0
    2.3151    1.6415   -4.0220 C   0  0  0  0  0  0  0  0  0  0  0  0
   -0.6048   -1.6203   -1.3232 C   0  0  1  0  0  0  0  0  0  0  0  0
    1.6632    1.8770   -2.8041 C   0  0  0  0  0  0  0  0  0  0  0  0
   -1.6595   -1.7803   -2.4543 C   0  0  1  0  0  0  0  0  0  0  0  0
   -1.6999   -0.6090   -3.3731 C   0  0  0  0  0  0  0  0  0  0  0  0
   -2.1803    0.6412   -2.9166 C   0  0  0  0  0  0  0  0  0  0  0  0
   -1.2061   -0.7031   -4.6960 C   0  0  0  0  0  0  0  0  0  0  0  0
   -2.1395    1.7740   -3.7502 C   0  0  0  0  0  0  0  0  0  0  0  0
   -1.1615    0.4296   -5.5284 C   0  0  0  0  0  0  0  0  0  0  0  0
   -1.6256    1.6689   -5.0543 C   0  0  0  0  0  0  0  0  0  0  0  0
    2.5715   -3.1907   -5.9352 H   0  0  0  0  0  0  0  0  0  0  0  0
    2.9553    0.1952   -5.3813 H   0  0  0  0  0  0  0  0  0  0  0  0
    1.2847   -2.3548   -1.6686 H   0  0  0  0  0  0  0  0  0  0  0  0
    0.6862    0.9942   -1.1808 H   0  0  0  0  0  0  0  0  0  0  0  0
    2.6762    2.4272   -4.5696 H   0  0  0  0  0  0  0  0  0  0  0  0
   -0.6735   -2.4971   -0.6750 H   0  0  0  0  0  0  0  0  0  0  0  0
   -0.8403   -0.7539   -0.7047 H   0  0  0  0  0  0  0  0  0  0  0  0
    1.5546    2.8324   -2.4580 H   0  0  0  0  0  0  0  0  0  0  0  0
   -1.4334   -2.7005   -3.0023 H   0  0  0  0  0  0  0  0  0  0  0  0
   -2.6473   -1.9174   -2.0051 H   0  0  0  0  0  0  0  0  0  0  0  0
   -2.5524    0.7354   -1.9694 H   0  0  0  0  0  0  0  0  0  0  0  0
   -0.8554   -1.5950   -5.0541 H   0  0  0  0  0  0  0  0  0  0  0  0
   -2.4794    2.6746   -3.4077 H   0  0  0  0  0  0  0  0  0  0  0  0
   -0.7881    0.3539   -6.4770 H   0  0  0  0  0  0  0  0  0  0  0  0
   -1.5909    2.4925   -5.6575 H   0  0  0  0  0  0  0  0  0  0  0  0
  1  2  1  0  0  0  0 
  1  3  2  0  0  0  0 
  1  4  1  0  0  0  0 
  4  5  2  0  0  0  0 
  4  6  1  0  0  0  0 
  5  7  1  0  0  0  0 
  5  8  1  0  0  0  0 
  6  9  2  0  0  0  0 
  7 10  1  0  0  0  0 
  8 11  2  0  0  0  0 
  9 11  1  0  0  0  0 
 10 12  1  0  0  0  0 
 12 13  1  0  0  0  0 
 13 14  2  0  0  0  0 
 13 15  1  0  0  0  0 
 14 16  1  0  0  0  0 
 15 17  2  0  0  0  0 
 16 18  2  0  0  0  0 
 17 18  1  0  0  0  0 
  2 19  1  0  0  0  0 
  6 20  1  0  0  0  0 
  7 21  1  0  0  0  0 
  8 22  1  0  0  0  0 
  9 23  1  0  0  0  0 
 10 24  1  0  0  0  0 
 10 25  1  0  0  0  0 
 11 26  1  0  0  0  0 
 12 27  1  0  0  0  0 
 12 28  1  0  0  0  0 
 14 29  1  0  0  0  0 
 15 30  1  0  0  0  0 
 16 31  1  0  0  0  0 
 17 32  1  0  0  0  0 
 18 33  1  0  0  0  0 
M  END
> <cdk:Title>
enfenamic acid

> <Conformer>
1

> <SuperDrugID>
SD002750

$$$$
