vilazodone
  CDK     0628171801

 60 64  0  0  0  0  0  0  0  0999 V2000
   -4.8946   -7.9437    0.4834 C   0  0  2  0  0  0  0  0  0  0  0  0
   -3.8556   -6.7990    0.3736 C   0  0  2  0  0  0  0  0  0  0  0  0
   -6.0253   -7.7464   -0.4486 C   0  0  0  0  0  0  0  0  0  0  0  0
   -2.6955   -6.9641    1.3919 C   0  0  1  0  0  0  0  0  0  0  0  0
   -6.1168   -8.1301   -1.7886 C   0  0  0  0  0  0  0  0  0  0  0  0
   -7.2287   -7.0986   -0.1573 C   0  0  0  0  0  0  0  0  0  0  0  0
   -1.5610   -5.9170    1.2201 C   0  0  2  0  0  0  0  0  0  0  0  0
   -7.3561   -7.6915   -2.2542 C   0  0  0  0  0  0  0  0  0  0  0  0
   -5.2276   -8.8175   -2.6375 C   0  0  0  0  0  0  0  0  0  0  0  0
   -8.0043   -7.0783   -1.2541 N   0  0  0  0  0  0  0  0  0  0  0  0
   -0.9843   -5.8229   -0.1631 N   0  0  1  0  0  0  0  0  0  0  0  0
   -7.7562   -7.9084   -3.5822 C   0  0  0  0  0  0  0  0  0  0  0  0
   -5.6144   -9.0492   -3.9814 C   0  0  0  0  0  0  0  0  0  0  0  0
   -0.0816   -4.6499   -0.3379 C   0  0  1  0  0  0  0  0  0  0  0  0
   -0.2594   -7.0408   -0.6217 C   0  0  1  0  0  0  0  0  0  0  0  0
   -6.8749   -8.5908   -4.4471 C   0  0  0  0  0  0  0  0  0  0  0  0
   -4.8129   -9.6811   -4.7907 C   0  0  0  0  0  0  0  0  0  0  0  0
    0.3264   -4.4592   -1.8254 C   0  0  1  0  0  0  0  0  0  0  0  0
    0.0975   -6.9385   -2.1274 C   0  0  2  0  0  0  0  0  0  0  0  0
    0.5080   -5.6448   -2.6530 N   0  0  0  0  0  0  0  0  0  0  0  0
    0.9440   -5.5256   -3.9956 C   0  0  0  0  0  0  0  0  0  0  0  0
    1.2846   -4.2611   -4.5688 C   0  0  0  0  0  0  0  0  0  0  0  0
    1.0374   -6.6575   -4.8712 C   0  0  0  0  0  0  0  0  0  0  0  0
    1.6636   -4.1663   -5.9158 C   0  0  0  0  0  0  0  0  0  0  0  0
    1.4322   -6.5530   -6.2210 C   0  0  0  0  0  0  0  0  0  0  0  0
    1.7254   -5.2854   -6.7317 C   0  0  0  0  0  0  0  0  0  0  0  0
    2.0020   -3.0763   -6.6987 C   0  0  0  0  0  0  0  0  0  0  0  0
    2.0707   -4.9191   -7.9877 O   0  0  0  0  0  0  0  0  0  0  0  0
    2.2286   -3.5678   -7.9870 C   0  0  0  0  0  0  0  0  0  0  0  0
    2.5371   -2.8029   -9.1238 C   0  0  0  0  0  0  0  0  0  0  0  0
    2.6053   -3.3748  -10.3379 N   0  0  0  0  0  0  0  0  0  0  0  0
    2.7272   -1.5680   -9.0434 O   0  0  0  0  0  0  0  0  0  0  0  0
   -4.1079  -10.2384   -5.5062 N   0  0  0  0  0  0  0  0  0  0  0  0
   -5.2789   -7.9884    1.5063 H   0  0  0  0  0  0  0  0  0  0  0  0
   -4.4138   -8.9016    0.2706 H   0  0  0  0  0  0  0  0  0  0  0  0
   -4.3494   -5.8402    0.5602 H   0  0  0  0  0  0  0  0  0  0  0  0
   -3.4532   -6.7850   -0.6425 H   0  0  0  0  0  0  0  0  0  0  0  0
   -3.1027   -6.8703    2.4023 H   0  0  0  0  0  0  0  0  0  0  0  0
   -2.2757   -7.9689    1.3140 H   0  0  0  0  0  0  0  0  0  0  0  0
   -7.4827   -6.6933    0.7459 H   0  0  0  0  0  0  0  0  0  0  0  0
   -0.7691   -6.1401    1.9405 H   0  0  0  0  0  0  0  0  0  0  0  0
   -1.9862   -4.9476    1.4989 H   0  0  0  0  0  0  0  0  0  0  0  0
   -4.3237   -9.1400   -2.2798 H   0  0  0  0  0  0  0  0  0  0  0  0
   -8.8879   -6.6822   -1.3122 H   0  0  0  0  0  0  0  0  0  0  0  0
   -8.6649   -7.5768   -3.9133 H   0  0  0  0  0  0  0  0  0  0  0  0
   -0.5793   -3.7343   -0.0028 H   0  0  0  0  0  0  0  0  0  0  0  0
    0.8189   -4.7717    0.2753 H   0  0  0  0  0  0  0  0  0  0  0  0
    0.6520   -7.1886   -0.0323 H   0  0  0  0  0  0  0  0  0  0  0  0
   -0.8730   -7.9355   -0.4962 H   0  0  0  0  0  0  0  0  0  0  0  0
   -7.1642   -8.7478   -5.4169 H   0  0  0  0  0  0  0  0  0  0  0  0
   -0.4467   -3.8494   -2.3001 H   0  0  0  0  0  0  0  0  0  0  0  0
    1.2564   -3.8842   -1.8128 H   0  0  0  0  0  0  0  0  0  0  0  0
   -0.7830   -7.2531   -2.6958 H   0  0  0  0  0  0  0  0  0  0  0  0
    0.8957   -7.6680   -2.2943 H   0  0  0  0  0  0  0  0  0  0  0  0
    1.2439   -3.3908   -4.0368 H   0  0  0  0  0  0  0  0  0  0  0  0
    0.8044   -7.5978   -4.5533 H   0  0  0  0  0  0  0  0  0  0  0  0
    1.4852   -7.3786   -6.8216 H   0  0  0  0  0  0  0  0  0  0  0  0
    2.0558   -2.1033   -6.3922 H   0  0  0  0  0  0  0  0  0  0  0  0
    2.7806   -2.8283  -11.1219 H   0  0  0  0  0  0  0  0  0  0  0  0
    2.4744   -4.3323  -10.4351 H   0  0  0  0  0  0  0  0  0  0  0  0
  1  2  1  0  0  0  0 
  1  3  1  0  0  0  0 
  2  4  1  0  0  0  0 
  3  5  1  0  0  0  0 
  3  6  2  0  0  0  0 
  4  7  1  0  0  0  0 
  5  8  1  0  0  0  0 
  5  9  2  0  0  0  0 
  6 10  1  0  0  0  0 
  7 11  1  0  0  0  0 
  8 10  1  0  0  0  0 
  8 12  2  0  0  0  0 
  9 13  1  0  0  0  0 
 11 14  1  0  0  0  0 
 11 15  1  0  0  0  0 
 12 16  1  0  0  0  0 
 13 16  2  0  0  0  0 
 13 17  1  0  0  0  0 
 14 18  1  0  0  0  0 
 15 19  1  0  0  0  0 
 18 20  1  0  0  0  0 
 19 20  1  0  0  0  0 
 20 21  1  0  0  0  0 
 21 22  1  0  0  0  0 
 21 23  2  0  0  0  0 
 22 24  2  0  0  0  0 
 23 25  1  0  0  0  0 
 24 26  1  0  0  0  0 
 24 27  1  0  0  0  0 
 25 26  2  0  0  0  0 
 26 28  1  0  0  0  0 
 27 29  2  0  0  0  0 
 28 29  1  0  0  0  0 
 29 30  1  0  0  0  0 
 30 31  1  0  0  0  0 
 30 32  2  0  0  0  0 
 17 33  3  0  0  0  0 
  1 34  1  0  0  0  0 
  1 35  1  0  0  0  0 
  2 36  1  0  0  0  0 
  2 37  1  0  0  0  0 
  4 38  1  0  0  0  0 
  4 39  1  0  0  0  0 
  6 40  1  0  0  0  0 
  7 41  1  0  0  0  0 
  7 42  1  0  0  0  0 
  9 43  1  0  0  0  0 
 10 44  1  0  0  0  0 
 12 45  1  0  0  0  0 
 14 46  1  0  0  0  0 
 14 47  1  0  0  0  0 
 15 48  1  0  0  0  0 
 15 49  1  0  0  0  0 
 16 50  1  0  0  0  0 
 18 51  1  0  0  0  0 
 18 52  1  0  0  0  0 
 19 53  1  0  0  0  0 
 19 54  1  0  0  0  0 
 22 55  1  0  0  0  0 
 23 56  1  0  0  0  0 
 25 57  1  0  0  0  0 
 27 58  1  0  0  0  0 
 31 59  1  0  0  0  0 
 31 60  1  0  0  0  0 
M  END
> <cdk:Title>
vilazodone

> <Conformer>
1

> <SuperDrugID>
SD003434

$$$$
