clostebol acetate
  CDK     0628171802

 54 57  0  0  0  0  0  0  0  0999 V2000
   -2.9457    1.5226   -0.1182 C   0  0  0  0  0  0  0  0  0  0  0  0
   -1.8463    0.9882    0.8734 C   0  0  1  0  0  0  0  0  0  0  0  0
   -2.2567    1.2205    2.4022 C   0  0  2  0  0  0  0  0  0  0  0  0
   -1.6627   -0.4792    0.5722 C   0  0  0  0  0  0  0  0  0  0  0  0
   -0.5105    1.7938    0.6040 C   0  0  1  0  0  0  0  0  0  0  0  0
   -3.3802    0.2388    2.9099 C   0  0  2  0  0  0  0  0  0  0  0  0
   -2.5817    2.7099    2.8000 C   0  0  1  0  0  0  0  0  0  0  0  0
   -2.7248   -1.3852    1.0692 C   0  0  2  0  0  0  0  0  0  0  0  0
   -0.6148   -0.9432   -0.1712 C   0  0  0  0  0  0  0  0  0  0  0  0
    0.1892    1.3709   -0.7032 C   0  0  1  0  0  0  0  0  0  0  0  0
   -3.6398    0.4755    4.4345 C   0  0  1  0  0  0  0  0  0  0  0  0
   -2.9842   -1.2247    2.5841 C   0  0  2  0  0  0  0  0  0  0  0  0
   -2.9786    2.9015    4.2979 C   0  0  1  0  0  0  0  0  0  0  0  0
   -0.4058   -2.5696   -0.5406 Cl  0  0  0  0  0  0  0  0  0  0  0  0
    0.3550   -0.0921   -0.7129 C   0  0  0  0  0  0  0  0  0  0  0  0
   -4.1278    1.9303    4.7296 C   0  0  1  0  0  0  0  0  0  0  0  0
   -4.6405   -0.4181    5.1994 C   0  0  1  0  0  0  0  0  0  0  0  0
    1.4052   -0.5334   -1.2419 O   0  0  0  0  0  0  0  0  0  0  0  0
   -5.4777    2.3483    4.0219 C   0  0  0  0  0  0  0  0  0  0  0  0
   -4.3658    1.8242    6.2705 C   0  0  2  0  0  0  0  0  0  0  0  0
   -4.9831    0.4064    6.4686 C   0  0  2  0  0  0  0  0  0  0  0  0
   -5.1866    2.8957    6.7608 O   0  0  0  0  0  0  0  0  0  0  0  0
   -5.6058    3.1202    8.0367 C   0  0  0  0  0  0  0  0  0  0  0  0
   -6.4969    4.2599    8.2843 C   0  0  0  0  0  0  0  0  0  0  0  0
   -5.2604    2.3812    8.9882 O   0  0  0  0  0  0  0  0  0  0  0  0
   -2.7504    1.1910   -1.1405 H   0  0  0  0  0  0  0  0  0  0  0  0
   -3.9398    1.1688    0.1488 H   0  0  0  0  0  0  0  0  0  0  0  0
   -2.9833    2.6124   -0.1347 H   0  0  0  0  0  0  0  0  0  0  0  0
   -1.3709    0.9649    2.9943 H   0  0  0  0  0  0  0  0  0  0  0  0
   -0.6911    2.8701    0.5524 H   0  0  0  0  0  0  0  0  0  0  0  0
    0.2048    1.6351    1.4173 H   0  0  0  0  0  0  0  0  0  0  0  0
   -4.3078    0.4299    2.3713 H   0  0  0  0  0  0  0  0  0  0  0  0
   -1.7131    3.3424    2.6167 H   0  0  0  0  0  0  0  0  0  0  0  0
   -3.3864    3.0946    2.1739 H   0  0  0  0  0  0  0  0  0  0  0  0
   -2.5342   -2.4459    0.9091 H   0  0  0  0  0  0  0  0  0  0  0  0
   -3.6493   -1.1695    0.5277 H   0  0  0  0  0  0  0  0  0  0  0  0
   -0.4046    1.6652   -1.5708 H   0  0  0  0  0  0  0  0  0  0  0  0
    1.1590    1.8718   -0.7785 H   0  0  0  0  0  0  0  0  0  0  0  0
   -2.6728    0.3102    4.9341 H   0  0  0  0  0  0  0  0  0  0  0  0
   -3.7953   -1.9002    2.8710 H   0  0  0  0  0  0  0  0  0  0  0  0
   -2.0905   -1.5157    3.1452 H   0  0  0  0  0  0  0  0  0  0  0  0
   -2.0907    2.7265    4.9119 H   0  0  0  0  0  0  0  0  0  0  0  0
   -3.2797    3.9390    4.4683 H   0  0  0  0  0  0  0  0  0  0  0  0
   -5.5352   -0.6012    4.5966 H   0  0  0  0  0  0  0  0  0  0  0  0
   -4.1970   -1.3817    5.4649 H   0  0  0  0  0  0  0  0  0  0  0  0
   -5.7365    3.3754    4.2811 H   0  0  0  0  0  0  0  0  0  0  0  0
   -6.3113    1.7167    4.3272 H   0  0  0  0  0  0  0  0  0  0  0  0
   -5.4212    2.3011    2.9375 H   0  0  0  0  0  0  0  0  0  0  0  0
   -3.4077    1.8735    6.8020 H   0  0  0  0  0  0  0  0  0  0  0  0
   -4.5664   -0.0631    7.3639 H   0  0  0  0  0  0  0  0  0  0  0  0
   -6.0681    0.4629    6.5877 H   0  0  0  0  0  0  0  0  0  0  0  0
   -6.6523    4.8369    7.3688 H   0  0  0  0  0  0  0  0  0  0  0  0
   -7.4633    3.8940    8.6332 H   0  0  0  0  0  0  0  0  0  0  0  0
   -6.0622    4.9129    9.0414 H   0  0  0  0  0  0  0  0  0  0  0  0
  2  1  1  0  0  0  0 
  3  2  1  0  0  0  0 
  2  4  1  0  0  0  0 
  2  5  1  0  0  0  0 
  3  6  1  0  0  0  0 
  3  7  1  0  0  0  0 
  4  8  1  0  0  0  0 
  4  9  2  0  0  0  0 
  5 10  1  0  0  0  0 
  6 11  1  0  0  0  0 
  6 12  1  0  0  0  0 
  7 13  1  0  0  0  0 
  8 12  1  0  0  0  0 
  9 14  1  0  0  0  0 
  9 15  1  0  0  0  0 
 10 15  1  0  0  0  0 
 11 16  1  0  0  0  0 
 11 17  1  0  0  0  0 
 16 13  1  0  0  0  0 
 15 18  2  0  0  0  0 
 16 19  1  0  0  0  0 
 16 20  1  0  0  0  0 
 17 21  1  0  0  0  0 
 20 21  1  0  0  0  0 
 20 22  1  0  0  0  0 
 22 23  1  0  0  0  0 
 23 24  1  0  0  0  0 
 23 25  2  0  0  0  0 
 26  1  1  0  0  0  0 
 27  1  1  0  0  0  0 
 28  1  1  0  0  0  0 
  3 29  1  0  0  0  0 
 30  5  1  0  0  0  0 
 31  5  1  0  0  0  0 
  6 32  1  0  0  0  0 
 33  7  1  0  0  0  0 
 34  7  1  0  0  0  0 
 35  8  1  0  0  0  0 
 36  8  1  0  0  0  0 
 37 10  1  0  0  0  0 
 38 10  1  0  0  0  0 
 11 39  1  0  0  0  0 
 40 12  1  0  0  0  0 
 41 12  1  0  0  0  0 
 42 13  1  0  0  0  0 
 43 13  1  0  0  0  0 
 44 17  1  0  0  0  0 
 45 17  1  0  0  0  0 
 46 19  1  0  0  0  0 
 47 19  1  0  0  0  0 
 48 19  1  0  0  0  0 
 20 49  1  0  0  0  0 
 50 21  1  0  0  0  0 
 51 21  1  0  0  0  0 
 52 24  1  0  0  0  0 
 53 24  1  0  0  0  0 
 54 24  1  0  0  0  0 
M  END
> <cdk:Title>
clostebol acetate

> <Conformer>
1

> <SuperDrugID>
SD000633

$$$$
