acecarbromal
  CDK     0628171801

 30 29  0  0  0  0  0  0  0  0999 V2000
    2.1921   -0.8156   -1.0355 C   0  0  2  0  0  0  0  0  0  0  0  0
    1.6003   -0.5172   -2.3828 C   0  0  0  0  0  0  0  0  0  0  0  0
    1.3841   -1.9982   -0.3909 C   0  0  1  0  0  0  0  0  0  0  0  0
    2.2079    0.4528   -0.1130 C   0  0  2  0  0  0  0  0  0  0  0  0
    4.0384   -1.4020   -1.2405 Br  0  0  0  0  0  0  0  0  0  0  0  0
    0.3734    0.0838   -2.4955 N   0  0  0  0  0  0  0  0  0  0  0  0
    2.2421   -0.8258   -3.4149 O   0  0  0  0  0  0  0  0  0  0  0  0
    1.8697   -2.5118    0.9928 C   0  0  0  0  0  0  0  0  0  0  0  0
    2.8631    1.7271   -0.7031 C   0  0  0  0  0  0  0  0  0  0  0  0
   -0.2740    0.4466   -3.6422 C   0  0  0  0  0  0  0  0  0  0  0  0
   -1.4802    1.0646   -3.4993 N   0  0  0  0  0  0  0  0  0  0  0  0
    0.2147    0.2316   -4.7774 O   0  0  0  0  0  0  0  0  0  0  0  0
   -2.3089    1.5142   -4.4898 C   0  0  0  0  0  0  0  0  0  0  0  0
   -3.5993    2.1364   -4.1476 C   0  0  0  0  0  0  0  0  0  0  0  0
   -2.0231    1.4245   -5.7080 O   0  0  0  0  0  0  0  0  0  0  0  0
    0.3356   -1.7055   -0.2758 H   0  0  0  0  0  0  0  0  0  0  0  0
    1.4046   -2.8518   -1.0761 H   0  0  0  0  0  0  0  0  0  0  0  0
    2.7495    0.2132    0.8052 H   0  0  0  0  0  0  0  0  0  0  0  0
    1.1845    0.7084    0.1738 H   0  0  0  0  0  0  0  0  0  0  0  0
   -0.0870    0.2876   -1.6674 H   0  0  0  0  0  0  0  0  0  0  0  0
    2.9371   -2.7363    0.9824 H   0  0  0  0  0  0  0  0  0  0  0  0
    1.6708   -1.7769    1.7754 H   0  0  0  0  0  0  0  0  0  0  0  0
    1.3373   -3.4306    1.2487 H   0  0  0  0  0  0  0  0  0  0  0  0
    2.9295    2.4982    0.0667 H   0  0  0  0  0  0  0  0  0  0  0  0
    2.2658    2.1202   -1.5265 H   0  0  0  0  0  0  0  0  0  0  0  0
    3.8715    1.5176   -1.0614 H   0  0  0  0  0  0  0  0  0  0  0  0
   -1.7883    1.2009   -2.5892 H   0  0  0  0  0  0  0  0  0  0  0  0
   -4.4105    1.6111   -4.6597 H   0  0  0  0  0  0  0  0  0  0  0  0
   -3.7855    2.0969   -3.0721 H   0  0  0  0  0  0  0  0  0  0  0  0
   -3.5956    3.1820   -4.4649 H   0  0  0  0  0  0  0  0  0  0  0  0
  1  2  1  0  0  0  0 
  1  3  1  0  0  0  0 
  1  4  1  0  0  0  0 
  1  5  1  0  0  0  0 
  2  6  1  0  0  0  0 
  2  7  2  0  0  0  0 
  3  8  1  0  0  0  0 
  4  9  1  0  0  0  0 
  6 10  1  0  0  0  0 
 10 11  1  0  0  0  0 
 10 12  2  0  0  0  0 
 11 13  1  0  0  0  0 
 13 14  1  0  0  0  0 
 13 15  2  0  0  0  0 
  3 16  1  0  0  0  0 
  3 17  1  0  0  0  0 
  4 18  1  0  0  0  0 
  4 19  1  0  0  0  0 
  6 20  1  0  0  0  0 
  8 21  1  0  0  0  0 
  8 22  1  0  0  0  0 
  8 23  1  0  0  0  0 
  9 24  1  0  0  0  0 
  9 25  1  0  0  0  0 
  9 26  1  0  0  0  0 
 11 27  1  0  0  0  0 
 14 28  1  0  0  0  0 
 14 29  1  0  0  0  0 
 14 30  1  0  0  0  0 
M  END
> <cdk:Title>
acecarbromal

> <Conformer>
1

> <SuperDrugID>
SD000019

$$$$
