toloxatone
  CDK     0628171801

 30 31  0  0  0  0  0  0  0  0999 V2000
   -1.4259   -0.7919    0.1136 C   0  0  0  0  0  0  0  0  0  0  0  0
   -1.7628   -2.0081    0.7580 C   0  0  0  0  0  0  0  0  0  0  0  0
   -1.4218   -3.2206    0.1104 C   0  0  0  0  0  0  0  0  0  0  0  0
   -0.7529   -3.2212   -1.1257 C   0  0  0  0  0  0  0  0  0  0  0  0
   -0.4159   -2.0046   -1.7407 C   0  0  0  0  0  0  0  0  0  0  0  0
   -0.7510   -0.7753   -1.1317 C   0  0  0  0  0  0  0  0  0  0  0  0
   -2.3956   -2.0201    1.9852 N   0  0  0  0  0  0  0  0  0  0  0  0
   -2.0300   -2.7779    3.0463 C   0  0  0  0  0  0  0  0  0  0  0  0
   -2.8366   -2.5782    4.1016 O   0  0  0  0  0  0  0  0  0  0  0  0
   -3.8712   -1.6474    3.7995 C   0  0  1  0  0  0  0  0  0  0  0  0
   -3.5501   -1.2456    2.3302 C   0  0  1  0  0  0  0  0  0  0  0  0
   -1.0612   -3.5698    3.1007 O   0  0  0  0  0  0  0  0  0  0  0  0
   -5.2567   -2.3133    4.0448 C   0  0  2  0  0  0  0  0  0  0  0  0
   -6.4351   -1.3129    4.0676 C   0  0  0  0  0  0  0  0  0  0  0  0
   -0.3833    0.4931   -1.8058 C   0  0  0  0  0  0  0  0  0  0  0  0
   -1.6595    0.0950    0.5649 H   0  0  0  0  0  0  0  0  0  0  0  0
   -1.6637   -4.1183    0.5351 H   0  0  0  0  0  0  0  0  0  0  0  0
   -0.5123   -4.1069   -1.5772 H   0  0  0  0  0  0  0  0  0  0  0  0
    0.0733   -2.0218   -2.6396 H   0  0  0  0  0  0  0  0  0  0  0  0
   -3.7505   -0.7870    4.4656 H   0  0  0  0  0  0  0  0  0  0  0  0
   -3.3447   -0.1739    2.2684 H   0  0  0  0  0  0  0  0  0  0  0  0
   -4.3748   -1.4876    1.6563 H   0  0  0  0  0  0  0  0  0  0  0  0
   -5.2305   -2.8177    5.0151 H   0  0  0  0  0  0  0  0  0  0  0  0
   -5.4462   -3.0734    3.2817 H   0  0  0  0  0  0  0  0  0  0  0  0
   -7.3689   -1.8478    4.2572 H   0  0  0  0  0  0  0  0  0  0  0  0
   -6.5199   -0.7934    3.1112 H   0  0  0  0  0  0  0  0  0  0  0  0
   -6.2897   -0.5773    4.8625 H   0  0  0  0  0  0  0  0  0  0  0  0
   -0.7154    1.3687   -1.2445 H   0  0  0  0  0  0  0  0  0  0  0  0
    0.7019    0.5491   -1.9157 H   0  0  0  0  0  0  0  0  0  0  0  0
   -0.8407    0.5316   -2.7967 H   0  0  0  0  0  0  0  0  0  0  0  0
  1  2  2  0  0  0  0 
  2  3  1  0  0  0  0 
  3  4  2  0  0  0  0 
  4  5  1  0  0  0  0 
  5  6  2  0  0  0  0 
  1  6  1  0  0  0  0 
  2  7  1  0  0  0  0 
  8  9  1  0  0  0  0 
 10  9  1  0  0  0  0 
 10 11  1  0  0  0  0 
  7  8  1  0  0  0  0 
  7 11  1  0  0  0  0 
  8 12  2  0  0  0  0 
 10 13  1  0  0  0  0 
 13 14  1  0  0  0  0 
  6 15  1  0  0  0  0 
  1 16  1  0  0  0  0 
  3 17  1  0  0  0  0 
  4 18  1  0  0  0  0 
  5 19  1  0  0  0  0 
 10 20  1  0  0  0  0 
 11 21  1  0  0  0  0 
 11 22  1  0  0  0  0 
 13 23  1  0  0  0  0 
 13 24  1  0  0  0  0 
 14 25  1  0  0  0  0 
 14 26  1  0  0  0  0 
 14 27  1  0  0  0  0 
 15 28  1  0  0  0  0 
 15 29  1  0  0  0  0 
 15 30  1  0  0  0  0 
M  END
> <cdk:Title>
toloxatone

> <Conformer>
1

> <SuperDrugID>
SD002433

$$$$
