daclatasvir
  CDK     0628171802

104109  0  0  0  0  0  0  0  0999 V2000
   -1.2757    9.9315   11.6446 C   0  0  0  0  0  0  0  0  0  0  0  0
   -0.3993   10.0227   12.8642 C   0  0  1  0  0  0  0  0  0  0  0  0
   -0.8684    9.1262   13.8807 N   0  0  0  0  0  0  0  0  0  0  0  0
   -2.0345    9.2600   14.5705 C   0  0  0  0  0  0  0  0  0  0  0  0
   -2.3733    8.2582   15.4307 O   0  0  0  0  0  0  0  0  0  0  0  0
   -3.5971    8.1696   16.1696 C   0  0  0  0  0  0  0  0  0  0  0  0
   -2.7888   10.2493   14.4072 O   0  0  0  0  0  0  0  0  0  0  0  0
    1.1450    9.8761   12.6091 C   0  0  2  0  0  0  0  0  0  0  0  0
    1.9841   10.0107   13.9154 C   0  0  0  0  0  0  0  0  0  0  0  0
    1.6960   10.8701   11.5459 C   0  0  0  0  0  0  0  0  0  0  0  0
   -1.4768   11.0325   11.0738 O   0  0  0  0  0  0  0  0  0  0  0  0
   -1.9348    8.8076   11.1367 N   0  0  0  0  0  0  0  0  0  0  0  0
   -1.7149    7.4177   11.4747 C   0  0  1  0  0  0  0  0  0  0  0  0
   -2.7120    6.6103   10.6036 C   0  0  2  0  0  0  0  0  0  0  0  0
   -3.7965    7.6364   10.2673 C   0  0  2  0  0  0  0  0  0  0  0  0
   -2.9915    8.9413   10.1701 C   0  0  2  0  0  0  0  0  0  0  0  0
   -0.3283    6.9795   11.2242 C   0  0  0  0  0  0  0  0  0  0  0  0
    0.3394    7.2037   10.0776 N   0  0  0  0  0  0  0  0  0  0  0  0
    1.6003    6.7605   10.2126 C   0  0  0  0  0  0  0  0  0  0  0  0
    1.6667    6.1960   11.5199 C   0  0  0  0  0  0  0  0  0  0  0  0
    0.4700    6.3457   12.0948 N   0  0  0  0  0  0  0  0  0  0  0  0
    2.5679    6.9759    9.1529 C   0  0  0  0  0  0  0  0  0  0  0  0
    2.2309    7.0701    7.7150 C   0  0  0  0  0  0  0  0  0  0  0  0
    3.1978    7.3305    6.6679 C   0  0  0  0  0  0  0  0  0  0  0  0
    4.5543    7.5316    7.0199 C   0  0  0  0  0  0  0  0  0  0  0  0
    4.9857    7.4523    8.3670 C   0  0  0  0  0  0  0  0  0  0  0  0
    4.0118    7.1742    9.4030 C   0  0  0  0  0  0  0  0  0  0  0  0
    5.4980    7.8184    6.0089 C   0  0  0  0  0  0  0  0  0  0  0  0
    5.7991    9.1541    5.6668 C   0  0  0  0  0  0  0  0  0  0  0  0
    6.7619    9.4376    4.6797 C   0  0  0  0  0  0  0  0  0  0  0  0
    7.4531    8.3926    4.0219 C   0  0  0  0  0  0  0  0  0  0  0  0
    7.1349    7.0561    4.3593 C   0  0  0  0  0  0  0  0  0  0  0  0
    6.1619    6.7712    5.3355 C   0  0  0  0  0  0  0  0  0  0  0  0
    8.4730    8.6702    3.0813 C   0  0  0  0  0  0  0  0  0  0  0  0
    9.5980    7.9478    2.9455 N   0  0  0  0  0  0  0  0  0  0  0  0
   10.3661    8.5500    2.0194 C   0  0  0  0  0  0  0  0  0  0  0  0
    9.7178    9.6184    1.5329 N   0  0  0  0  0  0  0  0  0  0  0  0
    8.5508    9.7276    2.1762 C   0  0  0  0  0  0  0  0  0  0  0  0
   11.7286    8.1127    1.6454 C   0  0  1  0  0  0  0  0  0  0  0  0
   12.5935    7.9472    2.7920 N   0  0  0  0  0  0  0  0  0  0  0  0
   12.9125    8.8907    3.7729 C   0  0  0  0  0  0  0  0  0  0  0  0
   12.6654   10.3724    3.7815 C   0  0  1  0  0  0  0  0  0  0  0  0
   12.6048   10.8880    2.4451 N   0  0  0  0  0  0  0  0  0  0  0  0
   13.6175   11.4782    1.7596 C   0  0  0  0  0  0  0  0  0  0  0  0
   13.3502   11.8597    0.4797 O   0  0  0  0  0  0  0  0  0  0  0  0
   14.2086   12.5418   -0.4423 C   0  0  0  0  0  0  0  0  0  0  0  0
   14.7506   11.6595    2.2644 O   0  0  0  0  0  0  0  0  0  0  0  0
   11.4285   10.8779    4.6129 C   0  0  1  0  0  0  0  0  0  0  0  0
   11.3336   10.2665    6.0411 C   0  0  0  0  0  0  0  0  0  0  0  0
   11.4069   12.4357    4.7235 C   0  0  0  0  0  0  0  0  0  0  0  0
   13.5413    8.4799    4.7804 O   0  0  0  0  0  0  0  0  0  0  0  0
   13.1437    6.6181    2.8356 C   0  0  2  0  0  0  0  0  0  0  0  0
   12.9862    6.0591    1.4132 C   0  0  1  0  0  0  0  0  0  0  0  0
   11.6963    6.7329    0.9341 C   0  0  2  0  0  0  0  0  0  0  0  0
   -0.5164   11.0314   13.2818 H   0  0  0  0  0  0  0  0  0  0  0  0
   -0.3341    8.3358   14.0591 H   0  0  0  0  0  0  0  0  0  0  0  0
   -3.5826    7.2557   16.7622 H   0  0  0  0  0  0  0  0  0  0  0  0
   -4.4468    8.1266   15.4843 H   0  0  0  0  0  0  0  0  0  0  0  0
   -3.7142    9.0271   16.8365 H   0  0  0  0  0  0  0  0  0  0  0  0
    1.3397    8.8800   12.2301 H   0  0  0  0  0  0  0  0  0  0  0  0
    1.7042    9.2464   14.6417 H   0  0  0  0  0  0  0  0  0  0  0  0
    3.0493    9.8854   13.7061 H   0  0  0  0  0  0  0  0  0  0  0  0
    1.8378   10.9925   14.3687 H   0  0  0  0  0  0  0  0  0  0  0  0
    1.2254   10.7016   10.5774 H   0  0  0  0  0  0  0  0  0  0  0  0
    2.7720   10.7340   11.4138 H   0  0  0  0  0  0  0  0  0  0  0  0
    1.5155   11.9031   11.8493 H   0  0  0  0  0  0  0  0  0  0  0  0
   -1.9797    7.2415   12.5199 H   0  0  0  0  0  0  0  0  0  0  0  0
   -3.1265    5.7539   11.1429 H   0  0  0  0  0  0  0  0  0  0  0  0
   -2.2607    6.2540    9.6704 H   0  0  0  0  0  0  0  0  0  0  0  0
   -4.5241    7.6940   11.0840 H   0  0  0  0  0  0  0  0  0  0  0  0
   -4.3159    7.4017    9.3344 H   0  0  0  0  0  0  0  0  0  0  0  0
   -2.5656    9.0610    9.1689 H   0  0  0  0  0  0  0  0  0  0  0  0
   -3.6500    9.7883   10.3857 H   0  0  0  0  0  0  0  0  0  0  0  0
    2.4869    5.7692   11.9516 H   0  0  0  0  0  0  0  0  0  0  0  0
    0.2271    6.0649   12.9909 H   0  0  0  0  0  0  0  0  0  0  0  0
    1.2438    6.9529    7.3153 H   0  0  0  0  0  0  0  0  0  0  0  0
    2.8953    7.3719    5.6902 H   0  0  0  0  0  0  0  0  0  0  0  0
    5.9686    7.5951    8.6164 H   0  0  0  0  0  0  0  0  0  0  0  0
    4.4666    7.1518   10.3732 H   0  0  0  0  0  0  0  0  0  0  0  0
    5.3245    9.9291    6.1384 H   0  0  0  0  0  0  0  0  0  0  0  0
    6.9680   10.4168    4.4652 H   0  0  0  0  0  0  0  0  0  0  0  0
    7.6064    6.2742    3.8958 H   0  0  0  0  0  0  0  0  0  0  0  0
    5.9457    5.7947    5.5545 H   0  0  0  0  0  0  0  0  0  0  0  0
   10.0464   10.2178    0.8446 H   0  0  0  0  0  0  0  0  0  0  0  0
    7.8548   10.4586    2.0256 H   0  0  0  0  0  0  0  0  0  0  0  0
   12.1799    8.8303    0.9557 H   0  0  0  0  0  0  0  0  0  0  0  0
   13.5397   10.8174    4.2701 H   0  0  0  0  0  0  0  0  0  0  0  0
   11.7537   10.8075    1.9856 H   0  0  0  0  0  0  0  0  0  0  0  0
   14.3556   11.9158   -1.3264 H   0  0  0  0  0  0  0  0  0  0  0  0
   15.1774   12.8045   -0.0063 H   0  0  0  0  0  0  0  0  0  0  0  0
   13.7125   13.4618   -0.7462 H   0  0  0  0  0  0  0  0  0  0  0  0
   10.5140   10.5902    4.0920 H   0  0  0  0  0  0  0  0  0  0  0  0
   11.1947    9.1853    5.9864 H   0  0  0  0  0  0  0  0  0  0  0  0
   10.4761   10.6788    6.5796 H   0  0  0  0  0  0  0  0  0  0  0  0
   12.2409   10.4820    6.6107 H   0  0  0  0  0  0  0  0  0  0  0  0
   11.3967   12.8968    3.7346 H   0  0  0  0  0  0  0  0  0  0  0  0
   10.5114   12.7724    5.2513 H   0  0  0  0  0  0  0  0  0  0  0  0
   12.2836   12.8019    5.2640 H   0  0  0  0  0  0  0  0  0  0  0  0
   12.5791    6.0095    3.5475 H   0  0  0  0  0  0  0  0  0  0  0  0
   14.2020    6.6094    3.1182 H   0  0  0  0  0  0  0  0  0  0  0  0
   13.8305    6.3678    0.7881 H   0  0  0  0  0  0  0  0  0  0  0  0
   12.9108    4.9678    1.4023 H   0  0  0  0  0  0  0  0  0  0  0  0
   11.6765    6.8271   -0.1559 H   0  0  0  0  0  0  0  0  0  0  0  0
   10.8380    6.1253    1.2434 H   0  0  0  0  0  0  0  0  0  0  0  0
  2  1  1  0  0  0  0 
  1 11  2  0  0  0  0 
  1 12  1  0  0  0  0 
  2  3  1  0  0  0  0 
  2  8  1  0  0  0  0 
  3  4  1  0  0  0  0 
  4  5  1  0  0  0  0 
  4  7  2  0  0  0  0 
  5  6  1  0  0  0  0 
  8  9  1  0  0  0  0 
  8 10  1  0  0  0  0 
 13 12  1  0  0  0  0 
 12 16  1  0  0  0  0 
 13 14  1  0  0  0  0 
 13 17  1  0  0  0  0 
 14 15  1  0  0  0  0 
 16 15  1  0  0  0  0 
 17 18  2  0  0  0  0 
 17 21  1  0  0  0  0 
 18 19  1  0  0  0  0 
 19 20  2  0  0  0  0 
 19 22  1  0  0  0  0 
 21 20  1  0  0  0  0 
 22 23  2  0  0  0  0 
 22 27  1  0  0  0  0 
 23 24  1  0  0  0  0 
 24 25  2  0  0  0  0 
 25 28  1  0  0  0  0 
 26 25  1  0  0  0  0 
 27 26  2  0  0  0  0 
 28 29  2  0  0  0  0 
 28 33  1  0  0  0  0 
 29 30  1  0  0  0  0 
 30 31  2  0  0  0  0 
 31 34  1  0  0  0  0 
 32 31  1  0  0  0  0 
 33 32  2  0  0  0  0 
 34 35  1  0  0  0  0 
 34 38  2  0  0  0  0 
 35 36  2  0  0  0  0 
 36 37  1  0  0  0  0 
 38 37  1  0  0  0  0 
 39 36  1  0  0  0  0 
 39 40  1  0  0  0  0 
 39 54  1  0  0  0  0 
 40 41  1  0  0  0  0 
 40 52  1  0  0  0  0 
 42 41  1  0  0  0  0 
 41 51  2  0  0  0  0 
 42 43  1  0  0  0  0 
 42 48  1  0  0  0  0 
 43 44  1  0  0  0  0 
 44 45  1  0  0  0  0 
 44 47  2  0  0  0  0 
 45 46  1  0  0  0  0 
 48 49  1  0  0  0  0 
 48 50  1  0  0  0  0 
 52 53  1  0  0  0  0 
 54 53  1  0  0  0  0 
  2 55  1  0  0  0  0 
 56  3  1  0  0  0  0 
 57  6  1  0  0  0  0 
 58  6  1  0  0  0  0 
 59  6  1  0  0  0  0 
 60  8  1  0  0  0  0 
 61  9  1  0  0  0  0 
 62  9  1  0  0  0  0 
 63  9  1  0  0  0  0 
 64 10  1  0  0  0  0 
 65 10  1  0  0  0  0 
 66 10  1  0  0  0  0 
 13 67  1  0  0  0  0 
 68 14  1  0  0  0  0 
 69 14  1  0  0  0  0 
 70 15  1  0  0  0  0 
 71 15  1  0  0  0  0 
 72 16  1  0  0  0  0 
 73 16  1  0  0  0  0 
 74 20  1  0  0  0  0 
 75 21  1  0  0  0  0 
 76 23  1  0  0  0  0 
 77 24  1  0  0  0  0 
 78 26  1  0  0  0  0 
 79 27  1  0  0  0  0 
 80 29  1  0  0  0  0 
 81 30  1  0  0  0  0 
 82 32  1  0  0  0  0 
 83 33  1  0  0  0  0 
 84 37  1  0  0  0  0 
 85 38  1  0  0  0  0 
 39 86  1  0  0  0  0 
 42 87  1  0  0  0  0 
 88 43  1  0  0  0  0 
 89 46  1  0  0  0  0 
 90 46  1  0  0  0  0 
 91 46  1  0  0  0  0 
 92 48  1  0  0  0  0 
 93 49  1  0  0  0  0 
 94 49  1  0  0  0  0 
 95 49  1  0  0  0  0 
 96 50  1  0  0  0  0 
 97 50  1  0  0  0  0 
 98 50  1  0  0  0  0 
 99 52  1  0  0  0  0 
100 52  1  0  0  0  0 
101 53  1  0  0  0  0 
102 53  1  0  0  0  0 
103 54  1  0  0  0  0 
104 54  1  0  0  0  0 
M  END
> <cdk:Title>
daclatasvir

> <Conformer>
1

> <SuperDrugID>
SD003817

$$$$
