desogestrel
  CDK     0628171802

 53 56  0  0  0  0  0  0  0  0999 V2000
    0.5635   -0.8745   -3.1352 C   0  0  1  0  0  0  0  0  0  0  0  0
   -0.2192   -1.9922   -3.8631 C   0  0  1  0  0  0  0  0  0  0  0  0
    0.5935   -3.3044   -3.7845 C   0  0  1  0  0  0  0  0  0  0  0  0
    1.0640   -3.5951   -2.4420 C   0  0  0  0  0  0  0  0  0  0  0  0
    1.1656   -2.6824   -1.4468 C   0  0  0  0  0  0  0  0  0  0  0  0
    0.8209   -1.2427   -1.6261 C   0  0  1  0  0  0  0  0  0  0  0  0
    1.8934   -0.2763   -0.9644 C   0  0  2  0  0  0  0  0  0  0  0  0
    1.5919   -3.1288   -0.1144 C   0  0  2  0  0  0  0  0  0  0  0  0
    2.7436   -2.2609    0.4380 C   0  0  2  0  0  0  0  0  0  0  0  0
    2.3270   -0.7658    0.4781 C   0  0  1  0  0  0  0  0  0  0  0  0
    2.7522    2.0367   -0.4426 C   0  0  2  0  0  0  0  0  0  0  0  0
    1.6267    1.1919   -0.9020 C   0  0  0  0  0  0  0  0  0  0  0  0
    3.4775    0.1456    1.0310 C   0  0  1  0  0  0  0  0  0  0  0  0
    3.1112    1.6746    1.0490 C   0  0  1  0  0  0  0  0  0  0  0  0
    4.1014   -0.1142    2.4230 C   0  0  2  0  0  0  0  0  0  0  0  0
    4.7776    1.2333    2.8036 C   0  0  1  0  0  0  0  0  0  0  0  0
    4.4590    2.2430    1.6501 C   0  0  2  0  0  0  0  0  0  0  0  0
   -0.1239   -1.1055   -1.0911 H   0  0  0  0  0  0  0  0  0  0  0  0
    2.7765   -0.3820   -1.6056 H   0  0  0  0  0  0  0  0  0  0  0  0
    4.3029   -0.0151    0.3219 H   0  0  0  0  0  0  0  0  0  0  0  0
    1.8723    1.9956    2.0110 C   0  0  1  0  0  0  0  0  0  0  0  0
    0.4321    1.7712   -1.1333 C   0  0  0  0  0  0  0  0  0  0  0  0
    1.3409    3.4502    2.1017 C   0  0  0  0  0  0  0  0  0  0  0  0
    4.3617    3.5752    2.1457 O   0  0  0  0  0  0  0  0  0  0  0  0
    5.5315    2.2984    0.7755 C   0  0  0  0  0  0  0  0  0  0  0  0
    6.4753    2.3217    0.0439 C   0  0  0  0  0  0  0  0  0  0  0  0
    1.4687   -0.7023    1.1502 H   0  0  0  0  0  0  0  0  0  0  0  0
    1.5164   -0.7234   -3.6502 H   0  0  0  0  0  0  0  0  0  0  0  0
   -0.0049    0.0488   -3.2362 H   0  0  0  0  0  0  0  0  0  0  0  0
   -1.1936   -2.1298   -3.3829 H   0  0  0  0  0  0  0  0  0  0  0  0
   -0.3923   -1.7196   -4.9080 H   0  0  0  0  0  0  0  0  0  0  0  0
   -0.0324   -4.1283   -4.1396 H   0  0  0  0  0  0  0  0  0  0  0  0
    1.4623   -3.2375   -4.4437 H   0  0  0  0  0  0  0  0  0  0  0  0
    1.3165   -4.5409   -2.2702 H   0  0  0  0  0  0  0  0  0  0  0  0
    1.9301   -4.1699   -0.1011 H   0  0  0  0  0  0  0  0  0  0  0  0
    0.7330   -3.0677    0.5607 H   0  0  0  0  0  0  0  0  0  0  0  0
    3.6319   -2.3935   -0.1869 H   0  0  0  0  0  0  0  0  0  0  0  0
    2.9882   -2.6051    1.4461 H   0  0  0  0  0  0  0  0  0  0  0  0
    2.5601    3.1059   -0.5281 H   0  0  0  0  0  0  0  0  0  0  0  0
    3.6022    1.8560   -1.1015 H   0  0  0  0  0  0  0  0  0  0  0  0
    4.8375   -0.9215    2.3788 H   0  0  0  0  0  0  0  0  0  0  0  0
    3.3326   -0.3812    3.1525 H   0  0  0  0  0  0  0  0  0  0  0  0
    4.3616    1.5975    3.7473 H   0  0  0  0  0  0  0  0  0  0  0  0
    5.8500    1.0955    2.9756 H   0  0  0  0  0  0  0  0  0  0  0  0
    1.0119    1.3987    1.7181 H   0  0  0  0  0  0  0  0  0  0  0  0
    2.0866    1.6860    3.0345 H   0  0  0  0  0  0  0  0  0  0  0  0
   -0.3722    1.2454   -1.3628 H   0  0  0  0  0  0  0  0  0  0  0  0
    0.3111    2.7554   -1.0623 H   0  0  0  0  0  0  0  0  0  0  0  0
    0.3704    3.4464    2.6053 H   0  0  0  0  0  0  0  0  0  0  0  0
    1.2044    3.8961    1.1184 H   0  0  0  0  0  0  0  0  0  0  0  0
    2.0074    4.0788    2.6894 H   0  0  0  0  0  0  0  0  0  0  0  0
    4.1548    4.1250    1.3605 H   0  0  0  0  0  0  0  0  0  0  0  0
    7.2075    2.3333   -0.5144 H   0  0  0  0  0  0  0  0  0  0  0  0
  1  2  1  0  0  0  0 
  2  3  1  0  0  0  0 
  3  4  1  0  0  0  0 
  4  5  2  0  0  0  0 
  5  6  1  0  0  0  0 
  1  6  1  0  0  0  0 
  8  9  1  0  0  0  0 
  9 10  1  0  0  0  0 
  7 10  1  0  0  0  0 
  5  8  1  0  0  0  0 
  7  6  1  0  0  0  0 
 11 12  1  0  0  0  0 
 13 14  1  0  0  0  0 
 11 14  1  0  0  0  0 
 12  7  1  0  0  0  0 
 10 13  1  0  0  0  0 
 15 16  1  0  0  0  0 
 16 17  1  0  0  0  0 
 13 15  1  0  0  0  0 
 14 17  1  0  0  0  0 
  6 18  1  0  0  0  0 
  7 19  1  0  0  0  0 
 13 20  1  0  0  0  0 
 14 21  1  0  0  0  0 
 12 22  2  0  0  0  0 
 21 23  1  0  0  0  0 
 17 24  1  0  0  0  0 
 17 25  1  0  0  0  0 
 25 26  3  0  0  0  0 
 10 27  1  0  0  0  0 
  1 28  1  0  0  0  0 
  1 29  1  0  0  0  0 
  2 30  1  0  0  0  0 
  2 31  1  0  0  0  0 
  3 32  1  0  0  0  0 
  3 33  1  0  0  0  0 
  4 34  1  0  0  0  0 
  8 35  1  0  0  0  0 
  8 36  1  0  0  0  0 
  9 37  1  0  0  0  0 
  9 38  1  0  0  0  0 
 11 39  1  0  0  0  0 
 11 40  1  0  0  0  0 
 15 41  1  0  0  0  0 
 15 42  1  0  0  0  0 
 16 43  1  0  0  0  0 
 16 44  1  0  0  0  0 
 21 45  1  0  0  0  0 
 21 46  1  0  0  0  0 
 22 47  1  0  0  0  0 
 22 48  1  0  0  0  0 
 23 49  1  0  0  0  0 
 23 50  1  0  0  0  0 
 23 51  1  0  0  0  0 
 24 52  1  0  0  0  0 
 26 53  1  0  0  0  0 
M  END
> <cdk:Title>
desogestrel

> <Conformer>
1

> <SuperDrugID>
SD000722

$$$$
