miloxacin
  CDK     0628171801

 28 30  0  0  0  0  0  0  0  0999 V2000
    0.3005   -0.0618   -0.6739 O   0  0  0  0  0  0  0  0  0  0  0  0
   -0.6488   -1.0353   -1.1543 C   0  0  0  0  0  0  0  0  0  0  0  0
    0.5655   -0.1797    0.6210 N   0  0  0  0  0  0  0  0  0  0  0  0
    1.5917   -0.9685    1.0771 C   0  0  0  0  0  0  0  0  0  0  0  0
   -0.2095    0.5483    1.4762 C   0  0  0  0  0  0  0  0  0  0  0  0
    1.7992   -1.1077    2.4855 C   0  0  0  0  0  0  0  0  0  0  0  0
    2.4573   -1.6486    0.1789 C   0  0  0  0  0  0  0  0  0  0  0  0
   -0.0451    0.4893    2.8780 C   0  0  0  0  0  0  0  0  0  0  0  0
    2.8333   -1.9605    2.9574 C   0  0  0  0  0  0  0  0  0  0  0  0
    0.9673   -0.3759    3.3715 C   0  0  0  0  0  0  0  0  0  0  0  0
    3.4819   -2.4655    0.6784 C   0  0  0  0  0  0  0  0  0  0  0  0
   -0.8860    1.2813    3.7201 C   0  0  0  0  0  0  0  0  0  0  0  0
    3.6655   -2.6189    2.0394 C   0  0  0  0  0  0  0  0  0  0  0  0
    1.1417   -0.4934    4.6081 O   0  0  0  0  0  0  0  0  0  0  0  0
    4.3832   -3.1670   -0.0346 O   0  0  0  0  0  0  0  0  0  0  0  0
   -1.8488    2.0929    3.2177 O   0  0  0  0  0  0  0  0  0  0  0  0
   -0.7902    1.2841    4.9688 O   0  0  0  0  0  0  0  0  0  0  0  0
    4.7036   -3.4320    2.3125 O   0  0  0  0  0  0  0  0  0  0  0  0
    5.0696   -3.8972    0.9990 C   0  0  2  0  0  0  0  0  0  0  0  0
   -0.8454   -0.8358   -2.2077 H   0  0  0  0  0  0  0  0  0  0  0  0
   -1.5943   -0.9729   -0.6118 H   0  0  0  0  0  0  0  0  0  0  0  0
   -0.2471   -2.0481   -1.0668 H   0  0  0  0  0  0  0  0  0  0  0  0
   -0.9344    1.1508    1.0746 H   0  0  0  0  0  0  0  0  0  0  0  0
    2.3595   -1.5532   -0.8325 H   0  0  0  0  0  0  0  0  0  0  0  0
    2.9931   -2.1034    3.9569 H   0  0  0  0  0  0  0  0  0  0  0  0
   -2.4124    2.6261    3.8190 H   0  0  0  0  0  0  0  0  0  0  0  0
    6.1468   -3.7905    0.8581 H   0  0  0  0  0  0  0  0  0  0  0  0
    4.8178   -4.9575    0.9138 H   0  0  0  0  0  0  0  0  0  0  0  0
  1  2  1  0  0  0  0 
  1  3  1  0  0  0  0 
  3  4  1  0  0  0  0 
  3  5  1  0  0  0  0 
  4  6  1  0  0  0  0 
  4  7  2  0  0  0  0 
  5  8  2  0  0  0  0 
  6  9  2  0  0  0  0 
  6 10  1  0  0  0  0 
  7 11  1  0  0  0  0 
  8 10  1  0  0  0  0 
  8 12  1  0  0  0  0 
  9 13  1  0  0  0  0 
 10 14  2  0  0  0  0 
 11 13  2  0  0  0  0 
 11 15  1  0  0  0  0 
 12 16  1  0  0  0  0 
 12 17  2  0  0  0  0 
 13 18  1  0  0  0  0 
 15 19  1  0  0  0  0 
 18 19  1  0  0  0  0 
  2 20  1  0  0  0  0 
  2 21  1  0  0  0  0 
  2 22  1  0  0  0  0 
  5 23  1  0  0  0  0 
  7 24  1  0  0  0  0 
  9 25  1  0  0  0  0 
 16 26  1  0  0  0  0 
 19 27  1  0  0  0  0 
 19 28  1  0  0  0  0 
M  END
> <cdk:Title>
miloxacin

> <Conformer>
1

> <SuperDrugID>
SD002899

$$$$
