montelukast
  CDK     0628171801

 77 81  0  0  0  0  0  0  0  0999 V2000
   -1.7354    0.3674   -2.1472 C   0  0  2  0  0  0  0  0  0  0  0  0
   -2.5604    0.3243   -0.5268 S   0  0  0  0  0  0  0  0  0  0  0  0
   -0.2660   -0.1293   -2.0136 C   0  0  1  0  0  0  0  0  0  0  0  0
   -4.3240    0.7151   -0.8364 C   0  0  2  0  0  0  0  0  0  0  0  0
   -0.0211   -1.6303   -1.6655 C   0  0  1  0  0  0  0  0  0  0  0  0
    0.7912    0.5447   -2.9189 C   0  0  2  0  0  0  0  0  0  0  0  0
    0.7309    0.8983   -1.4280 C   0  0  1  0  0  0  0  0  0  0  0  0
   -5.1196    0.6189    0.5000 C   0  0  1  0  0  0  0  0  0  0  0  0
   -4.9666   -0.1492   -1.8792 C   0  0  0  0  0  0  0  0  0  0  0  0
   -0.4401   -2.5220   -2.7634 C   0  0  0  0  0  0  0  0  0  0  0  0
   -4.7105    1.6827    1.5628 C   0  0  2  0  0  0  0  0  0  0  0  0
   -4.7159   -1.5405   -1.9447 C   0  0  0  0  0  0  0  0  0  0  0  0
   -5.8685    0.4091   -2.8143 C   0  0  0  0  0  0  0  0  0  0  0  0
    0.2465   -2.5230   -3.9302 O   0  0  0  0  0  0  0  0  0  0  0  0
   -1.4185   -3.2935   -2.6399 O   0  0  0  0  0  0  0  0  0  0  0  0
   -5.6276    1.7002    2.7435 C   0  0  0  0  0  0  0  0  0  0  0  0
   -5.2904   -2.3713   -2.9433 C   0  0  0  0  0  0  0  0  0  0  0  0
   -6.4781   -0.3938   -3.7920 C   0  0  0  0  0  0  0  0  0  0  0  0
   -6.6374    2.6901    3.0169 C   0  0  0  0  0  0  0  0  0  0  0  0
   -5.4366    0.6228    3.6508 C   0  0  0  0  0  0  0  0  0  0  0  0
   -4.9826   -3.7328   -3.0884 C   0  0  0  0  0  0  0  0  0  0  0  0
   -6.1814   -1.7651   -3.8628 C   0  0  0  0  0  0  0  0  0  0  0  0
   -7.0107    3.8577    2.1061 C   0  0  2  0  0  0  0  0  0  0  0  0
   -7.3290    2.5680    4.2586 C   0  0  0  0  0  0  0  0  0  0  0  0
   -6.1700    0.5224    4.8394 C   0  0  0  0  0  0  0  0  0  0  0  0
   -4.3831   -4.5110   -2.1665 C   0  0  0  0  0  0  0  0  0  0  0  0
   -7.3101    3.4680    0.6222 C   0  0  0  0  0  0  0  0  0  0  0  0
   -5.9987    5.0370    2.2329 C   0  0  0  0  0  0  0  0  0  0  0  0
   -8.2612    4.4437    2.5039 O   0  0  0  0  0  0  0  0  0  0  0  0
   -7.1081    1.5087    5.1524 C   0  0  0  0  0  0  0  0  0  0  0  0
   -3.9754   -5.8240   -2.3648 C   0  0  0  0  0  0  0  0  0  0  0  0
   -4.4763   -6.5918   -3.3747 N   0  0  0  0  0  0  0  0  0  0  0  0
   -2.9925   -6.3874   -1.5174 C   0  0  0  0  0  0  0  0  0  0  0  0
   -4.0732   -7.8674   -3.6238 C   0  0  0  0  0  0  0  0  0  0  0  0
   -2.5340   -7.6942   -1.7478 C   0  0  0  0  0  0  0  0  0  0  0  0
   -3.0626   -8.4514   -2.8128 C   0  0  0  0  0  0  0  0  0  0  0  0
   -4.6437   -8.6104   -4.6775 C   0  0  0  0  0  0  0  0  0  0  0  0
   -2.6168   -9.7621   -3.0881 C   0  0  0  0  0  0  0  0  0  0  0  0
   -4.2011   -9.9232   -4.9397 C   0  0  0  0  0  0  0  0  0  0  0  0
   -3.1824  -10.4927   -4.1492 C   0  0  0  0  0  0  0  0  0  0  0  0
   -4.8933  -10.8179   -6.2004 Cl  0  0  0  0  0  0  0  0  0  0  0  0
   -1.7872    1.3872   -2.5301 H   0  0  0  0  0  0  0  0  0  0  0  0
   -2.2644   -0.2826   -2.8419 H   0  0  0  0  0  0  0  0  0  0  0  0
   -4.3485    1.7570   -1.1693 H   0  0  0  0  0  0  0  0  0  0  0  0
    1.0339   -1.8246   -1.4617 H   0  0  0  0  0  0  0  0  0  0  0  0
   -0.5653   -1.8786   -0.7526 H   0  0  0  0  0  0  0  0  0  0  0  0
    0.4598    1.3447   -3.5836 H   0  0  0  0  0  0  0  0  0  0  0  0
    1.6726   -0.0364   -3.1985 H   0  0  0  0  0  0  0  0  0  0  0  0
    0.3623    1.9065   -1.2262 H   0  0  0  0  0  0  0  0  0  0  0  0
    1.5758    0.5233   -0.8460 H   0  0  0  0  0  0  0  0  0  0  0  0
   -6.1862    0.7320    0.2877 H   0  0  0  0  0  0  0  0  0  0  0  0
   -4.9861   -0.3810    0.9199 H   0  0  0  0  0  0  0  0  0  0  0  0
   -4.6331    2.6557    1.0957 H   0  0  0  0  0  0  0  0  0  0  0  0
   -3.6956    1.4715    1.9097 H   0  0  0  0  0  0  0  0  0  0  0  0
   -4.0761   -1.9358   -1.2565 H   0  0  0  0  0  0  0  0  0  0  0  0
   -6.0943    1.4068   -2.7886 H   0  0  0  0  0  0  0  0  0  0  0  0
   -0.0188   -3.1193   -4.6613 H   0  0  0  0  0  0  0  0  0  0  0  0
   -7.1347    0.0199   -4.4577 H   0  0  0  0  0  0  0  0  0  0  0  0
   -4.7491   -0.1120    3.4562 H   0  0  0  0  0  0  0  0  0  0  0  0
   -5.2069   -4.1529   -3.9626 H   0  0  0  0  0  0  0  0  0  0  0  0
   -6.6279   -2.3185   -4.6001 H   0  0  0  0  0  0  0  0  0  0  0  0
   -8.0229    3.2594    4.5473 H   0  0  0  0  0  0  0  0  0  0  0  0
   -6.0155   -0.2616    5.4788 H   0  0  0  0  0  0  0  0  0  0  0  0
   -4.1849   -4.1238   -1.2759 H   0  0  0  0  0  0  0  0  0  0  0  0
   -7.8551    4.2612    0.1063 H   0  0  0  0  0  0  0  0  0  0  0  0
   -7.9229    2.5662    0.5827 H   0  0  0  0  0  0  0  0  0  0  0  0
   -6.4095    3.3071    0.0390 H   0  0  0  0  0  0  0  0  0  0  0  0
   -6.3423    5.8605    1.4680 H   0  0  0  0  0  0  0  0  0  0  0  0
   -6.0058    5.3571    3.3196 H   0  0  0  0  0  0  0  0  0  0  0  0
   -4.9523    4.6435    2.0817 H   0  0  0  0  0  0  0  0  0  0  0  0
   -8.3893    5.2167    1.9132 H   0  0  0  0  0  0  0  0  0  0  0  0
   -7.6337    1.4546    6.0285 H   0  0  0  0  0  0  0  0  0  0  0  0
   -2.5926   -5.8524   -0.7404 H   0  0  0  0  0  0  0  0  0  0  0  0
   -1.8141   -8.0851   -1.1344 H   0  0  0  0  0  0  0  0  0  0  0  0
   -5.3814   -8.1962   -5.2537 H   0  0  0  0  0  0  0  0  0  0  0  0
   -1.8809  -10.1930   -2.5210 H   0  0  0  0  0  0  0  0  0  0  0  0
   -2.8495  -11.4416   -4.3383 H   0  0  0  0  0  0  0  0  0  0  0  0
  1  2  1  0  0  0  0 
  1  3  1  0  0  0  0 
  3  5  1  0  0  0  0 
  3  6  1  0  0  0  0 
  3  7  1  0  0  0  0 
  4  2  1  0  0  0  0 
  4  8  1  0  0  0  0 
  4  9  1  0  0  0  0 
  5 10  1  0  0  0  0 
  6  7  1  0  0  0  0 
  8 11  1  0  0  0  0 
  9 12  2  0  0  0  0 
  9 13  1  0  0  0  0 
 10 14  1  0  0  0  0 
 10 15  2  0  0  0  0 
 11 16  1  0  0  0  0 
 12 17  1  0  0  0  0 
 13 18  2  0  0  0  0 
 16 19  2  0  0  0  0 
 16 20  1  0  0  0  0 
 17 21  1  0  0  0  0 
 17 22  2  0  0  0  0 
 18 22  1  0  0  0  0 
 19 23  1  0  0  0  0 
 19 24  1  0  0  0  0 
 20 25  2  0  0  0  0 
 21 26  2  0  0  0  0 
 23 27  1  0  0  0  0 
 23 28  1  0  0  0  0 
 23 29  1  0  0  0  0 
 24 30  2  0  0  0  0 
 25 30  1  0  0  0  0 
 26 31  1  0  0  0  0 
 31 32  1  0  0  0  0 
 31 33  2  0  0  0  0 
 32 34  2  0  0  0  0 
 33 35  1  0  0  0  0 
 34 36  1  0  0  0  0 
 34 37  1  0  0  0  0 
 35 36  2  0  0  0  0 
 36 38  1  0  0  0  0 
 37 39  2  0  0  0  0 
 38 40  2  0  0  0  0 
 39 40  1  0  0  0  0 
 39 41  1  0  0  0  0 
  1 42  1  0  0  0  0 
  1 43  1  0  0  0  0 
  4 44  1  0  0  0  0 
  5 45  1  0  0  0  0 
  5 46  1  0  0  0  0 
  6 47  1  0  0  0  0 
  6 48  1  0  0  0  0 
  7 49  1  0  0  0  0 
  7 50  1  0  0  0  0 
  8 51  1  0  0  0  0 
  8 52  1  0  0  0  0 
 11 53  1  0  0  0  0 
 11 54  1  0  0  0  0 
 12 55  1  0  0  0  0 
 13 56  1  0  0  0  0 
 14 57  1  0  0  0  0 
 18 58  1  0  0  0  0 
 20 59  1  0  0  0  0 
 21 60  1  0  0  0  0 
 22 61  1  0  0  0  0 
 24 62  1  0  0  0  0 
 25 63  1  0  0  0  0 
 26 64  1  0  0  0  0 
 27 65  1  0  0  0  0 
 27 66  1  0  0  0  0 
 27 67  1  0  0  0  0 
 28 68  1  0  0  0  0 
 28 69  1  0  0  0  0 
 28 70  1  0  0  0  0 
 29 71  1  0  0  0  0 
 30 72  1  0  0  0  0 
 33 73  1  0  0  0  0 
 35 74  1  0  0  0  0 
 37 75  1  0  0  0  0 
 38 76  1  0  0  0  0 
 40 77  1  0  0  0  0 
M  END
> <cdk:Title>
montelukast

> <Conformer>
1

> <SuperDrugID>
SD001634

$$$$
