cinepazet
  CDK     0628171802

 56 57  0  0  0  0  0  0  0  0999 V2000
   -0.9589   -3.6318   -0.8978 O   0  0  0  0  0  0  0  0  0  0  0  0
   -2.0891   -4.5026   -1.0768 C   0  0  0  0  0  0  0  0  0  0  0  0
   -0.0591   -3.6923   -1.9280 C   0  0  0  0  0  0  0  0  0  0  0  0
   -0.1891   -2.8305   -3.0380 C   0  0  0  0  0  0  0  0  0  0  0  0
    1.0265   -4.5883   -1.8540 C   0  0  0  0  0  0  0  0  0  0  0  0
   -1.2702   -1.9941   -3.1331 O   0  0  0  0  0  0  0  0  0  0  0  0
    0.7708   -2.8741   -4.0723 C   0  0  0  0  0  0  0  0  0  0  0  0
    2.0083   -4.6393   -2.8767 C   0  0  0  0  0  0  0  0  0  0  0  0
   -1.0392   -0.6823   -2.5993 C   0  0  0  0  0  0  0  0  0  0  0  0
    0.6804   -2.0364   -5.1525 O   0  0  0  0  0  0  0  0  0  0  0  0
    1.8601   -3.7638   -3.9801 C   0  0  0  0  0  0  0  0  0  0  0  0
    3.1219   -5.4862   -2.8235 C   0  0  0  0  0  0  0  0  0  0  0  0
   -0.2020   -2.5230   -6.1792 C   0  0  0  0  0  0  0  0  0  0  0  0
    3.1472   -6.7084   -2.2554 C   0  0  0  0  0  0  0  0  0  0  0  0
    4.2602   -7.5565   -2.1763 C   0  0  0  0  0  0  0  0  0  0  0  0
    5.2022   -7.3202   -2.9727 O   0  0  0  0  0  0  0  0  0  0  0  0
    4.3727   -8.6512   -1.3110 N   0  0  0  0  0  0  0  0  0  0  0  0
    3.4432   -8.9160   -0.2245 C   0  0  2  0  0  0  0  0  0  0  0  0
    5.4368   -9.6398   -1.4523 C   0  0  1  0  0  0  0  0  0  0  0  0
    4.1827   -9.1409    1.1142 C   0  0  2  0  0  0  0  0  0  0  0  0
    6.1698   -9.9310   -0.1178 C   0  0  2  0  0  0  0  0  0  0  0  0
    5.1878  -10.2365    0.9689 N   0  0  1  0  0  0  0  0  0  0  0  0
    5.8052  -10.6447    2.2696 C   0  0  1  0  0  0  0  0  0  0  0  0
    6.3406  -12.0192    2.2376 C   0  0  0  0  0  0  0  0  0  0  0  0
    5.5507  -13.0329    2.6987 O   0  0  0  0  0  0  0  0  0  0  0  0
    7.5122  -12.2312    1.8456 O   0  0  0  0  0  0  0  0  0  0  0  0
    5.8425  -14.4343    2.7607 C   0  0  2  0  0  0  0  0  0  0  0  0
    4.6636  -15.2213    2.1636 C   0  0  0  0  0  0  0  0  0  0  0  0
   -2.7702   -4.3438   -0.2396 H   0  0  0  0  0  0  0  0  0  0  0  0
   -2.6284   -4.2768   -2.0010 H   0  0  0  0  0  0  0  0  0  0  0  0
   -1.7841   -5.5528   -1.0765 H   0  0  0  0  0  0  0  0  0  0  0  0
    1.0971   -5.1899   -1.0297 H   0  0  0  0  0  0  0  0  0  0  0  0
   -1.9437   -0.0996   -2.7682 H   0  0  0  0  0  0  0  0  0  0  0  0
   -0.8490   -0.7179   -1.5245 H   0  0  0  0  0  0  0  0  0  0  0  0
   -0.2097   -0.1807   -3.1034 H   0  0  0  0  0  0  0  0  0  0  0  0
    2.5466   -3.7705   -4.7398 H   0  0  0  0  0  0  0  0  0  0  0  0
    3.9575   -5.1542   -3.2501 H   0  0  0  0  0  0  0  0  0  0  0  0
   -0.1891   -1.8110   -7.0048 H   0  0  0  0  0  0  0  0  0  0  0  0
    0.1253   -3.4934   -6.5602 H   0  0  0  0  0  0  0  0  0  0  0  0
   -1.2297   -2.6011   -5.8175 H   0  0  0  0  0  0  0  0  0  0  0  0
    2.2986   -7.0467   -1.8815 H   0  0  0  0  0  0  0  0  0  0  0  0
    2.8639   -9.8108   -0.4693 H   0  0  0  0  0  0  0  0  0  0  0  0
    2.7361   -8.1084   -0.0404 H   0  0  0  0  0  0  0  0  0  0  0  0
    4.9868  -10.5730   -1.8049 H   0  0  0  0  0  0  0  0  0  0  0  0
    6.1990   -9.3624   -2.1841 H   0  0  0  0  0  0  0  0  0  0  0  0
    3.4317   -9.4025    1.8660 H   0  0  0  0  0  0  0  0  0  0  0  0
    4.6668   -8.2098    1.4285 H   0  0  0  0  0  0  0  0  0  0  0  0
    6.7942   -9.0740    0.1560 H   0  0  0  0  0  0  0  0  0  0  0  0
    6.8251  -10.7908   -0.2791 H   0  0  0  0  0  0  0  0  0  0  0  0
    6.5923   -9.9479    2.5707 H   0  0  0  0  0  0  0  0  0  0  0  0
    5.0497  -10.6282    3.0608 H   0  0  0  0  0  0  0  0  0  0  0  0
    5.9619  -14.7050    3.8110 H   0  0  0  0  0  0  0  0  0  0  0  0
    6.7679  -14.6860    2.2353 H   0  0  0  0  0  0  0  0  0  0  0  0
    4.5511  -14.9918    1.1017 H   0  0  0  0  0  0  0  0  0  0  0  0
    4.8336  -16.2926    2.2808 H   0  0  0  0  0  0  0  0  0  0  0  0
    3.7435  -14.9493    2.6831 H   0  0  0  0  0  0  0  0  0  0  0  0
  1  2  1  0  0  0  0 
  1  3  1  0  0  0  0 
  3  4  2  0  0  0  0 
  3  5  1  0  0  0  0 
  4  6  1  0  0  0  0 
  4  7  1  0  0  0  0 
  5  8  2  0  0  0  0 
  6  9  1  0  0  0  0 
  7 10  1  0  0  0  0 
  7 11  2  0  0  0  0 
  8 11  1  0  0  0  0 
  8 12  1  0  0  0  0 
 10 13  1  0  0  0  0 
 12 14  2  0  0  0  0 
 14 15  1  0  0  0  0 
 15 16  2  0  0  0  0 
 15 17  1  0  0  0  0 
 17 18  1  0  0  0  0 
 17 19  1  0  0  0  0 
 18 20  1  0  0  0  0 
 19 21  1  0  0  0  0 
 20 22  1  0  0  0  0 
 21 22  1  0  0  0  0 
 22 23  1  0  0  0  0 
 23 24  1  0  0  0  0 
 24 25  1  0  0  0  0 
 24 26  2  0  0  0  0 
 25 27  1  0  0  0  0 
 27 28  1  0  0  0  0 
  2 29  1  0  0  0  0 
  2 30  1  0  0  0  0 
  2 31  1  0  0  0  0 
  5 32  1  0  0  0  0 
  9 33  1  0  0  0  0 
  9 34  1  0  0  0  0 
  9 35  1  0  0  0  0 
 11 36  1  0  0  0  0 
 12 37  1  0  0  0  0 
 13 38  1  0  0  0  0 
 13 39  1  0  0  0  0 
 13 40  1  0  0  0  0 
 14 41  1  0  0  0  0 
 18 42  1  0  0  0  0 
 18 43  1  0  0  0  0 
 19 44  1  0  0  0  0 
 19 45  1  0  0  0  0 
 20 46  1  0  0  0  0 
 20 47  1  0  0  0  0 
 21 48  1  0  0  0  0 
 21 49  1  0  0  0  0 
 23 50  1  0  0  0  0 
 23 51  1  0  0  0  0 
 27 52  1  0  0  0  0 
 27 53  1  0  0  0  0 
 28 54  1  0  0  0  0 
 28 55  1  0  0  0  0 
 28 56  1  0  0  0  0 
M  END
> <cdk:Title>
cinepazet

> <Conformer>
1

> <SuperDrugID>
SD000570

$$$$
