colfosceril palmitate
  CDK     0628171802

130129  0  0  0  0  0  0  0  0999 V2000
   -3.4726    3.1645    2.7424 C   0  0  1  0  0  0  0  0  0  0  0  0
   -4.8169    3.2933    2.2418 O   0  0  0  0  0  0  0  0  0  0  0  0
   -2.8405    1.8777    2.1512 C   0  0  2  0  0  0  0  0  0  0  0  0
   -2.6451    4.4202    2.3314 C   0  0  1  0  0  0  0  0  0  0  0  0
   -5.7689    4.1978    2.6289 C   0  0  0  0  0  0  0  0  0  0  0  0
   -3.6606    0.7219    2.4175 O   0  0  0  0  0  0  0  0  0  0  0  0
   -2.6146    5.4288    3.3538 O   0  0  0  0  0  0  0  0  0  0  0  0
   -7.0314    4.2949    1.8674 C   0  0  1  0  0  0  0  0  0  0  0  0
   -5.5740    4.9681    3.5992 O   0  0  0  0  0  0  0  0  0  0  0  0
   -2.9977   -0.6739    1.9989 P   0  0  2  0  0  0  0  0  0  0  0  0
   -2.1820    6.7157    3.1708 C   0  0  0  0  0  0  0  0  0  0  0  0
   -8.3122    4.0617    2.7142 C   0  0  1  0  0  0  0  0  0  0  0  0
   -4.1379   -1.7926    1.9411 O   0  0  0  0  0  0  0  0  0  0  0  0
   -1.9791   -1.0687    2.9767 O   0  0  0  0  0  0  0  0  0  0  0  0
   -2.3389   -0.5622    0.5615 O   0  0  0  0  0  0  0  0  0  0  0  0
   -1.7486    7.5164    4.3307 C   0  0  2  0  0  0  0  0  0  0  0  0
   -2.0958    7.2024    2.0180 O   0  0  0  0  0  0  0  0  0  0  0  0
   -9.6079    4.4017    1.9252 C   0  0  2  0  0  0  0  0  0  0  0  0
   -5.1882   -1.5363    0.9849 C   0  0  1  0  0  0  0  0  0  0  0  0
   -2.8584    7.8731    5.3565 C   0  0  1  0  0  0  0  0  0  0  0  0
  -10.8942    4.2777    2.7863 C   0  0  1  0  0  0  0  0  0  0  0  0
   -6.1494   -2.7581    0.9567 C   0  0  1  0  0  0  0  0  0  0  0  0
   -2.2197    8.3970    6.6735 C   0  0  2  0  0  0  0  0  0  0  0  0
  -12.1791    4.6784    2.0096 C   0  0  1  0  0  0  0  0  0  0  0  0
   -7.4003   -2.6845    0.0902 N   0  0  2  0  0  0  0  0  0  0  0  0
   -3.2050    9.0364    7.6881 C   0  0  2  0  0  0  0  0  0  0  0  0
  -13.4552    4.5903    2.8893 C   0  0  2  0  0  0  0  0  0  0  0  0
   -8.1165   -4.0142    0.1813 C   0  0  0  0  0  0  0  0  0  0  0  0
   -7.0585   -2.4344   -1.3588 C   0  0  0  0  0  0  0  0  0  0  0  0
   -8.3435   -1.6115    0.5794 C   0  0  0  0  0  0  0  0  0  0  0  0
   -2.4721    9.4061    9.0087 C   0  0  2  0  0  0  0  0  0  0  0  0
  -14.7564    4.9435    2.1175 C   0  0  2  0  0  0  0  0  0  0  0  0
   -3.3328   10.2002   10.0271 C   0  0  1  0  0  0  0  0  0  0  0  0
  -16.0241    4.8149    3.0072 C   0  0  1  0  0  0  0  0  0  0  0  0
   -2.5175   10.5639   11.3014 C   0  0  1  0  0  0  0  0  0  0  0  0
  -17.3420    5.1182    2.2426 C   0  0  2  0  0  0  0  0  0  0  0  0
   -3.3065   11.4261   12.3242 C   0  0  1  0  0  0  0  0  0  0  0  0
  -18.6034    4.9521    3.1344 C   0  0  2  0  0  0  0  0  0  0  0  0
   -2.4520   11.8138   13.5649 C   0  0  2  0  0  0  0  0  0  0  0  0
  -19.9263    5.2376    2.3712 C   0  0  2  0  0  0  0  0  0  0  0  0
   -3.2194   12.7090   14.6177 C   0  0  1  0  0  0  0  0  0  0  0  0
  -21.1860    5.0631    3.2641 C   0  0  1  0  0  0  0  0  0  0  0  0
   -2.3658   13.1510   15.9500 C   0  0  2  0  0  0  0  0  0  0  0  0
  -22.5142    5.3474    2.5084 C   0  0  1  0  0  0  0  0  0  0  0  0
   -3.2808   14.0461   16.9400 C   0  0  2  0  0  0  0  0  0  0  0  0
  -23.7627    5.1715    3.4159 C   0  0  2  0  0  0  0  0  0  0  0  0
   -2.4485   14.4340   18.1944 C   0  0  1  0  0  0  0  0  0  0  0  0
  -25.0959    5.4522    2.6860 C   0  0  0  0  0  0  0  0  0  0  0  0
   -3.2315   15.2947   19.2237 C   0  0  1  0  0  0  0  0  0  0  0  0
   -2.3779   15.6604   20.4594 C   0  0  0  0  0  0  0  0  0  0  0  0
   -3.4905    3.0595    3.8308 H   0  0  0  0  0  0  0  0  0  0  0  0
   -1.8450    1.7580    2.5936 H   0  0  0  0  0  0  0  0  0  0  0  0
   -2.7300    2.0120    1.0698 H   0  0  0  0  0  0  0  0  0  0  0  0
   -1.6045    4.1471    2.1404 H   0  0  0  0  0  0  0  0  0  0  0  0
   -3.0494    4.8293    1.4009 H   0  0  0  0  0  0  0  0  0  0  0  0
   -7.0620    5.2967    1.4312 H   0  0  0  0  0  0  0  0  0  0  0  0
   -7.0170    3.5746    1.0452 H   0  0  0  0  0  0  0  0  0  0  0  0
   -8.3465    3.0150    3.0316 H   0  0  0  0  0  0  0  0  0  0  0  0
   -8.2755    4.6893    3.6093 H   0  0  0  0  0  0  0  0  0  0  0  0
   -1.2995    8.4516    3.9842 H   0  0  0  0  0  0  0  0  0  0  0  0
   -0.9614    6.9413    4.8227 H   0  0  0  0  0  0  0  0  0  0  0  0
   -9.6864    3.7326    1.0635 H   0  0  0  0  0  0  0  0  0  0  0  0
   -9.5369    5.4282    1.5527 H   0  0  0  0  0  0  0  0  0  0  0  0
   -5.7354   -0.6368    1.2748 H   0  0  0  0  0  0  0  0  0  0  0  0
   -4.7708   -1.3973   -0.0164 H   0  0  0  0  0  0  0  0  0  0  0  0
   -3.5055    8.6409    4.9243 H   0  0  0  0  0  0  0  0  0  0  0  0
   -3.4721    6.9967    5.5829 H   0  0  0  0  0  0  0  0  0  0  0  0
  -10.9917    3.2449    3.1331 H   0  0  0  0  0  0  0  0  0  0  0  0
  -10.7969    4.9231    3.6643 H   0  0  0  0  0  0  0  0  0  0  0  0
   -5.5401   -3.6135    0.6421 H   0  0  0  0  0  0  0  0  0  0  0  0
   -6.4402   -2.9549    1.9949 H   0  0  0  0  0  0  0  0  0  0  0  0
   -1.4627    9.1468    6.4246 H   0  0  0  0  0  0  0  0  0  0  0  0
   -1.7108    7.5582    7.1593 H   0  0  0  0  0  0  0  0  0  0  0  0
  -12.0723    5.7036    1.6433 H   0  0  0  0  0  0  0  0  0  0  0  0
  -12.2926    4.0176    1.1457 H   0  0  0  0  0  0  0  0  0  0  0  0
   -4.0164    8.3368    7.9051 H   0  0  0  0  0  0  0  0  0  0  0  0
   -3.6363    9.9375    7.2451 H   0  0  0  0  0  0  0  0  0  0  0  0
  -13.3493    5.2744    3.7362 H   0  0  0  0  0  0  0  0  0  0  0  0
  -13.5424    3.5733    3.2818 H   0  0  0  0  0  0  0  0  0  0  0  0
   -9.0386   -4.0165   -0.4080 H   0  0  0  0  0  0  0  0  0  0  0  0
   -7.4911   -4.8315   -0.1909 H   0  0  0  0  0  0  0  0  0  0  0  0
   -8.3897   -4.2521    1.2139 H   0  0  0  0  0  0  0  0  0  0  0  0
   -6.6385   -1.4369   -1.5065 H   0  0  0  0  0  0  0  0  0  0  0  0
   -7.9450   -2.5073   -1.9964 H   0  0  0  0  0  0  0  0  0  0  0  0
   -6.3286   -3.1617   -1.7261 H   0  0  0  0  0  0  0  0  0  0  0  0
   -7.9118   -0.6143    0.4737 H   0  0  0  0  0  0  0  0  0  0  0  0
   -8.5964   -1.7548    1.6342 H   0  0  0  0  0  0  0  0  0  0  0  0
   -9.2797   -1.6163    0.0131 H   0  0  0  0  0  0  0  0  0  0  0  0
   -1.5916   10.0071    8.7655 H   0  0  0  0  0  0  0  0  0  0  0  0
   -2.1274    8.4843    9.4853 H   0  0  0  0  0  0  0  0  0  0  0  0
  -14.8540    4.2729    1.2587 H   0  0  0  0  0  0  0  0  0  0  0  0
  -14.6844    5.9689    1.7426 H   0  0  0  0  0  0  0  0  0  0  0  0
   -3.6879   11.1196    9.5533 H   0  0  0  0  0  0  0  0  0  0  0  0
   -4.2030    9.6021   10.3110 H   0  0  0  0  0  0  0  0  0  0  0  0
  -16.0733    3.7972    3.4054 H   0  0  0  0  0  0  0  0  0  0  0  0
  -15.9354    5.5056    3.8510 H   0  0  0  0  0  0  0  0  0  0  0  0
   -2.1977    9.6393   11.7917 H   0  0  0  0  0  0  0  0  0  0  0  0
   -1.6210   11.1150   11.0011 H   0  0  0  0  0  0  0  0  0  0  0  0
  -17.4201    4.4405    1.3878 H   0  0  0  0  0  0  0  0  0  0  0  0
  -17.3047    6.1431    1.8632 H   0  0  0  0  0  0  0  0  0  0  0  0
   -3.6472   12.3395   11.8292 H   0  0  0  0  0  0  0  0  0  0  0  0
   -4.1859   10.8674   12.6555 H   0  0  0  0  0  0  0  0  0  0  0  0
  -18.5286    5.6352    3.9852 H   0  0  0  0  0  0  0  0  0  0  0  0
  -18.6317    3.9295    3.5211 H   0  0  0  0  0  0  0  0  0  0  0  0
   -1.5656   12.3608   13.2332 H   0  0  0  0  0  0  0  0  0  0  0  0
   -2.1151   10.9034   14.0672 H   0  0  0  0  0  0  0  0  0  0  0  0
  -19.9993    4.5562    1.5189 H   0  0  0  0  0  0  0  0  0  0  0  0
  -19.9019    6.2615    1.9877 H   0  0  0  0  0  0  0  0  0  0  0  0
   -3.6000   13.5820   14.0226 H   0  0  0  0  0  0  0  0  0  0  0  0
   -4.1506   12.1289   14.8567 H   0  0  0  0  0  0  0  0  0  0  0  0
  -21.2100    4.0387    3.6472 H   0  0  0  0  0  0  0  0  0  0  0  0
  -21.1125    5.7432    4.1178 H   0  0  0  0  0  0  0  0  0  0  0  0
   -1.4916   13.7248   15.6350 H   0  0  0  0  0  0  0  0  0  0  0  0
   -2.0318   12.2500   16.4691 H   0  0  0  0  0  0  0  0  0  0  0  0
  -22.4939    6.3714    2.1242 H   0  0  0  0  0  0  0  0  0  0  0  0
  -22.5933    4.6653    1.6567 H   0  0  0  0  0  0  0  0  0  0  0  0
   -4.2069   13.5357   17.3209 H   0  0  0  0  0  0  0  0  0  0  0  0
   -3.6555   15.0094   16.4987 H   0  0  0  0  0  0  0  0  0  0  0  0
  -23.6873    5.8514    4.2690 H   0  0  0  0  0  0  0  0  0  0  0  0
  -23.7887    4.1478    3.7995 H   0  0  0  0  0  0  0  0  0  0  0  0
   -2.1103   13.5199   18.6905 H   0  0  0  0  0  0  0  0  0  0  0  0
   -1.5647   14.9924   17.8733 H   0  0  0  0  0  0  0  0  0  0  0  0
  -25.9293    5.3117    3.3776 H   0  0  0  0  0  0  0  0  0  0  0  0
  -25.1212    6.4791    2.3164 H   0  0  0  0  0  0  0  0  0  0  0  0
  -25.2237    4.7676    1.8453 H   0  0  0  0  0  0  0  0  0  0  0  0
   -3.5672   16.2197   18.7478 H   0  0  0  0  0  0  0  0  0  0  0  0
   -4.1149   14.7471   19.5624 H   0  0  0  0  0  0  0  0  0  0  0  0
   -2.9669   16.2631   21.1537 H   0  0  0  0  0  0  0  0  0  0  0  0
   -2.0496   14.7561   20.9761 H   0  0  0  0  0  0  0  0  0  0  0  0
   -1.4997   16.2354   20.1584 H   0  0  0  0  0  0  0  0  0  0  0  0
  1  2  1  0  0  0  0 
  1  3  1  0  0  0  0 
  1  4  1  0  0  0  0 
  2  5  1  0  0  0  0 
  3  6  1  0  0  0  0 
  4  7  1  0  0  0  0 
  5  8  1  0  0  0  0 
  5  9  2  0  0  0  0 
  6 10  1  0  0  0  0 
  7 11  1  0  0  0  0 
  8 12  1  0  0  0  0 
 10 13  1  0  0  0  0 
 10 14  2  0  0  0  0 
 10 15  1  0  0  0  0 
 11 16  1  0  0  0  0 
 11 17  2  0  0  0  0 
 12 18  1  0  0  0  0 
 13 19  1  0  0  0  0 
 16 20  1  0  0  0  0 
 18 21  1  0  0  0  0 
 19 22  1  0  0  0  0 
 20 23  1  0  0  0  0 
 21 24  1  0  0  0  0 
 22 25  1  0  0  0  0 
 23 26  1  0  0  0  0 
 24 27  1  0  0  0  0 
 25 28  1  0  0  0  0 
 25 29  1  0  0  0  0 
 25 30  1  0  0  0  0 
 26 31  1  0  0  0  0 
 27 32  1  0  0  0  0 
 31 33  1  0  0  0  0 
 32 34  1  0  0  0  0 
 33 35  1  0  0  0  0 
 34 36  1  0  0  0  0 
 35 37  1  0  0  0  0 
 36 38  1  0  0  0  0 
 37 39  1  0  0  0  0 
 38 40  1  0  0  0  0 
 39 41  1  0  0  0  0 
 40 42  1  0  0  0  0 
 41 43  1  0  0  0  0 
 42 44  1  0  0  0  0 
 43 45  1  0  0  0  0 
 44 46  1  0  0  0  0 
 45 47  1  0  0  0  0 
 46 48  1  0  0  0  0 
 47 49  1  0  0  0  0 
 49 50  1  0  0  0  0 
  1 51  1  0  0  0  0 
  3 52  1  0  0  0  0 
  3 53  1  0  0  0  0 
  4 54  1  0  0  0  0 
  4 55  1  0  0  0  0 
  8 56  1  0  0  0  0 
  8 57  1  0  0  0  0 
 12 58  1  0  0  0  0 
 12 59  1  0  0  0  0 
 16 60  1  0  0  0  0 
 16 61  1  0  0  0  0 
 18 62  1  0  0  0  0 
 18 63  1  0  0  0  0 
 19 64  1  0  0  0  0 
 19 65  1  0  0  0  0 
 20 66  1  0  0  0  0 
 20 67  1  0  0  0  0 
 21 68  1  0  0  0  0 
 21 69  1  0  0  0  0 
 22 70  1  0  0  0  0 
 22 71  1  0  0  0  0 
 23 72  1  0  0  0  0 
 23 73  1  0  0  0  0 
 24 74  1  0  0  0  0 
 24 75  1  0  0  0  0 
 26 76  1  0  0  0  0 
 26 77  1  0  0  0  0 
 27 78  1  0  0  0  0 
 27 79  1  0  0  0  0 
 28 80  1  0  0  0  0 
 28 81  1  0  0  0  0 
 28 82  1  0  0  0  0 
 29 83  1  0  0  0  0 
 29 84  1  0  0  0  0 
 29 85  1  0  0  0  0 
 30 86  1  0  0  0  0 
 30 87  1  0  0  0  0 
 30 88  1  0  0  0  0 
 31 89  1  0  0  0  0 
 31 90  1  0  0  0  0 
 32 91  1  0  0  0  0 
 32 92  1  0  0  0  0 
 33 93  1  0  0  0  0 
 33 94  1  0  0  0  0 
 34 95  1  0  0  0  0 
 34 96  1  0  0  0  0 
 35 97  1  0  0  0  0 
 35 98  1  0  0  0  0 
 36 99  1  0  0  0  0 
 36100  1  0  0  0  0 
 37101  1  0  0  0  0 
 37102  1  0  0  0  0 
 38103  1  0  0  0  0 
 38104  1  0  0  0  0 
 39105  1  0  0  0  0 
 39106  1  0  0  0  0 
 40107  1  0  0  0  0 
 40108  1  0  0  0  0 
 41109  1  0  0  0  0 
 41110  1  0  0  0  0 
 42111  1  0  0  0  0 
 42112  1  0  0  0  0 
 43113  1  0  0  0  0 
 43114  1  0  0  0  0 
 44115  1  0  0  0  0 
 44116  1  0  0  0  0 
 45117  1  0  0  0  0 
 45118  1  0  0  0  0 
 46119  1  0  0  0  0 
 46120  1  0  0  0  0 
 47121  1  0  0  0  0 
 47122  1  0  0  0  0 
 48123  1  0  0  0  0 
 48124  1  0  0  0  0 
 48125  1  0  0  0  0 
 49126  1  0  0  0  0 
 49127  1  0  0  0  0 
 50128  1  0  0  0  0 
 50129  1  0  0  0  0 
 50130  1  0  0  0  0 
M  CHG  1  15  -1
M  CHG  1  25   1
M  END
> <cdk:Title>
colfosceril palmitate

> <Conformer>
1

> <SuperDrugID>
SD000644

$$$$
