phthalylsulfacetamide
  CDK     0628171801

 39 40  0  0  0  0  0  0  0  0999 V2000
   -0.3563    5.6886    0.6029 C   0  0  0  0  0  0  0  0  0  0  0  0
    0.8740    5.8325    1.1830 N   0  0  0  0  0  0  0  0  0  0  0  0
   -0.4916    4.9312   -0.3891 O   0  0  0  0  0  0  0  0  0  0  0  0
   -1.4896    6.4197    1.0565 C   0  0  0  0  0  0  0  0  0  0  0  0
    1.9843    5.1151    0.8517 C   0  0  0  0  0  0  0  0  0  0  0  0
   -2.8151    5.8766    1.0588 C   0  0  0  0  0  0  0  0  0  0  0  0
   -1.2990    7.7604    1.4793 C   0  0  0  0  0  0  0  0  0  0  0  0
    3.1889    5.7975    0.5832 C   0  0  0  0  0  0  0  0  0  0  0  0
    1.9611    3.7039    0.7694 C   0  0  0  0  0  0  0  0  0  0  0  0
   -3.1103    4.5076    0.8033 C   0  0  0  0  0  0  0  0  0  0  0  0
   -3.9012    6.7294    1.3816 C   0  0  0  0  0  0  0  0  0  0  0  0
   -2.3871    8.5722    1.8381 C   0  0  0  0  0  0  0  0  0  0  0  0
    4.3429    5.0837    0.2086 C   0  0  0  0  0  0  0  0  0  0  0  0
    3.1116    2.9915    0.3851 C   0  0  0  0  0  0  0  0  0  0  0  0
   -4.2657    4.1233    0.2086 O   0  0  0  0  0  0  0  0  0  0  0  0
   -2.3382    3.5920    1.1692 O   0  0  0  0  0  0  0  0  0  0  0  0
   -3.6911    8.0632    1.7681 C   0  0  0  0  0  0  0  0  0  0  0  0
    4.3102    3.6784    0.1002 C   0  0  0  0  0  0  0  0  0  0  0  0
    5.7754    2.8007   -0.3784 S   0  0  2  0  0  0  0  0  0  0  0  0
    6.2956    3.3404   -1.9256 N   0  0  0  0  0  0  0  0  0  0  0  0
    5.5159    1.2167   -0.3919 O   0  0  0  0  0  0  0  0  0  0  0  0
    6.9440    3.1176    0.6761 O   0  0  0  0  0  0  0  0  0  0  0  0
    6.8990    2.5635   -2.8592 C   0  0  0  0  0  0  0  0  0  0  0  0
    7.3158    3.1876   -4.1233 C   0  0  0  0  0  0  0  0  0  0  0  0
    7.1137    1.3419   -2.6760 O   0  0  0  0  0  0  0  0  0  0  0  0
    0.9744    6.5112    1.8712 H   0  0  0  0  0  0  0  0  0  0  0  0
   -0.3632    8.1769    1.5144 H   0  0  0  0  0  0  0  0  0  0  0  0
    3.2294    6.8181    0.6432 H   0  0  0  0  0  0  0  0  0  0  0  0
    1.1044    3.1888    0.9930 H   0  0  0  0  0  0  0  0  0  0  0  0
   -4.8648    6.3837    1.3640 H   0  0  0  0  0  0  0  0  0  0  0  0
   -2.2291    9.5364    2.1420 H   0  0  0  0  0  0  0  0  0  0  0  0
    5.2056    5.5943    0.0122 H   0  0  0  0  0  0  0  0  0  0  0  0
    3.0661    1.9715    0.3237 H   0  0  0  0  0  0  0  0  0  0  0  0
   -4.4521    3.1706    0.0640 H   0  0  0  0  0  0  0  0  0  0  0  0
   -4.4873    8.6600    2.0062 H   0  0  0  0  0  0  0  0  0  0  0  0
    6.1597    4.2773   -2.1424 H   0  0  0  0  0  0  0  0  0  0  0  0
    7.7553    2.4526   -4.8014 H   0  0  0  0  0  0  0  0  0  0  0  0
    6.4507    3.6415   -4.6108 H   0  0  0  0  0  0  0  0  0  0  0  0
    8.0587    3.9598   -3.9187 H   0  0  0  0  0  0  0  0  0  0  0  0
  1  2  1  0  0  0  0 
  1  3  2  0  0  0  0 
  1  4  1  0  0  0  0 
  2  5  1  0  0  0  0 
  4  6  2  0  0  0  0 
  4  7  1  0  0  0  0 
  5  8  2  0  0  0  0 
  5  9  1  0  0  0  0 
  6 10  1  0  0  0  0 
  6 11  1  0  0  0  0 
  7 12  2  0  0  0  0 
  8 13  1  0  0  0  0 
  9 14  2  0  0  0  0 
 10 15  1  0  0  0  0 
 10 16  2  0  0  0  0 
 11 17  2  0  0  0  0 
 12 17  1  0  0  0  0 
 13 18  2  0  0  0  0 
 14 18  1  0  0  0  0 
 18 19  1  0  0  0  0 
 19 20  1  0  0  0  0 
 19 21  2  0  0  0  0 
 19 22  2  0  0  0  0 
 20 23  1  0  0  0  0 
 23 24  1  0  0  0  0 
 23 25  2  0  0  0  0 
  2 26  1  0  0  0  0 
  7 27  1  0  0  0  0 
  8 28  1  0  0  0  0 
  9 29  1  0  0  0  0 
 11 30  1  0  0  0  0 
 12 31  1  0  0  0  0 
 13 32  1  0  0  0  0 
 14 33  1  0  0  0  0 
 15 34  1  0  0  0  0 
 17 35  1  0  0  0  0 
 20 36  1  0  0  0  0 
 24 37  1  0  0  0  0 
 24 38  1  0  0  0  0 
 24 39  1  0  0  0  0 
M  END
> <cdk:Title>
phthalylsulfacetamide

> <Conformer>
1

> <SuperDrugID>
SD001936

$$$$
