ethinamate
  CDK     0628171801

 25 25  0  0  0  0  0  0  0  0999 V2000
    0.6882   -2.0382    0.3523 C   0  0  2  0  0  0  0  0  0  0  0  0
    2.0903   -2.5835    0.7827 C   0  0  1  0  0  0  0  0  0  0  0  0
    2.3883   -2.3123    2.2834 C   0  0  2  0  0  0  0  0  0  0  0  0
    1.2778   -2.8835    3.2014 C   0  0  2  0  0  0  0  0  0  0  0  0
   -0.1301   -2.3866    2.7828 C   0  0  1  0  0  0  0  0  0  0  0  0
   -0.4073   -2.6649    1.2818 C   0  0  1  0  0  0  0  0  0  0  0  0
    0.4419   -2.3799   -0.9626 C   0  0  0  0  0  0  0  0  0  0  0  0
    0.7949   -0.5960    0.3842 O   0  0  0  0  0  0  0  0  0  0  0  0
    0.2323   -2.6833   -2.0994 C   0  0  0  0  0  0  0  0  0  0  0  0
   -0.0938    0.4036    0.6652 C   0  0  0  0  0  0  0  0  0  0  0  0
    0.3582    1.6657    0.6456 N   0  0  0  0  0  0  0  0  0  0  0  0
   -1.3000    0.2123    0.9288 O   0  0  0  0  0  0  0  0  0  0  0  0
    2.1505   -3.6634    0.6097 H   0  0  0  0  0  0  0  0  0  0  0  0
    2.8775   -2.1151    0.1840 H   0  0  0  0  0  0  0  0  0  0  0  0
    2.4812   -1.2359    2.4501 H   0  0  0  0  0  0  0  0  0  0  0  0
    3.3444   -2.7702    2.5510 H   0  0  0  0  0  0  0  0  0  0  0  0
    1.4736   -2.5878    4.2342 H   0  0  0  0  0  0  0  0  0  0  0  0
    1.3016   -3.9757    3.1560 H   0  0  0  0  0  0  0  0  0  0  0  0
   -0.8861   -2.8920    3.3924 H   0  0  0  0  0  0  0  0  0  0  0  0
   -0.2062   -1.3157    2.9809 H   0  0  0  0  0  0  0  0  0  0  0  0
   -1.4008   -2.2920    1.0253 H   0  0  0  0  0  0  0  0  0  0  0  0
   -0.4396   -3.7499    1.1413 H   0  0  0  0  0  0  0  0  0  0  0  0
    0.0706   -2.9192   -2.9769 H   0  0  0  0  0  0  0  0  0  0  0  0
    1.2823    1.8465    0.4162 H   0  0  0  0  0  0  0  0  0  0  0  0
   -0.2402    2.3987    0.8564 H   0  0  0  0  0  0  0  0  0  0  0  0
  1  2  1  0  0  0  0 
  2  3  1  0  0  0  0 
  3  4  1  0  0  0  0 
  4  5  1  0  0  0  0 
  5  6  1  0  0  0  0 
  1  6  1  0  0  0  0 
  1  7  1  0  0  0  0 
  1  8  1  0  0  0  0 
  7  9  3  0  0  0  0 
  8 10  1  0  0  0  0 
 10 11  1  0  0  0  0 
 10 12  2  0  0  0  0 
 13  2  1  0  0  0  0 
 14  2  1  0  0  0  0 
 15  3  1  0  0  0  0 
 16  3  1  0  0  0  0 
 17  4  1  0  0  0  0 
 18  4  1  0  0  0  0 
 19  5  1  0  0  0  0 
 20  5  1  0  0  0  0 
 21  6  1  0  0  0  0 
 22  6  1  0  0  0  0 
 23  9  1  0  0  0  0 
 24 11  1  0  0  0  0 
 25 11  1  0  0  0  0 
M  END
> <cdk:Title>
ethinamate

> <Conformer>
1

> <SuperDrugID>
SD000965

$$$$
