proxibarbal
  CDK     0628171801

 30 30  0  0  0  0  0  0  0  0999 V2000
    1.5833   -1.1832   -0.3886 C   0  0  2  0  0  0  0  0  0  0  0  0
    2.4771   -0.7232    0.8076 C   0  0  1  0  0  0  0  0  0  0  0  0
    2.3213   -1.6498   -1.7023 C   0  0  2  0  0  0  0  0  0  0  0  0
    1.6418   -0.1436    1.9751 C   0  0  0  0  0  0  0  0  0  0  0  0
    3.2749   -1.7923    1.3163 O   0  0  0  0  0  0  0  0  0  0  0  0
    1.3109   -1.9707   -2.8694 C   0  0  1  0  0  0  0  0  0  0  0  0
    3.1337   -2.8871   -1.4290 C   0  0  0  0  0  0  0  0  0  0  0  0
    3.2232   -0.5481   -2.1992 C   0  0  0  0  0  0  0  0  0  0  0  0
    0.2894   -2.9663   -2.5653 C   0  0  0  0  0  0  0  0  0  0  0  0
    2.6077   -3.9191   -0.9524 O   0  0  0  0  0  0  0  0  0  0  0  0
    4.4623   -2.9656   -1.6809 N   0  0  0  0  0  0  0  0  0  0  0  0
    2.7673    0.5977   -2.4263 O   0  0  0  0  0  0  0  0  0  0  0  0
    4.5522   -0.7311   -2.4250 N   0  0  0  0  0  0  0  0  0  0  0  0
    0.2987   -4.2195   -3.0361 C   0  0  0  0  0  0  0  0  0  0  0  0
    5.1595   -1.9162   -2.1713 C   0  0  0  0  0  0  0  0  0  0  0  0
    6.3869   -2.0426   -2.3702 O   0  0  0  0  0  0  0  0  0  0  0  0
    0.9204   -0.3519   -0.6474 H   0  0  0  0  0  0  0  0  0  0  0  0
    0.9393   -1.9905   -0.0284 H   0  0  0  0  0  0  0  0  0  0  0  0
    3.1572    0.0607    0.4706 H   0  0  0  0  0  0  0  0  0  0  0  0
    1.0671    0.7238    1.6413 H   0  0  0  0  0  0  0  0  0  0  0  0
    2.3025    0.1736    2.7855 H   0  0  0  0  0  0  0  0  0  0  0  0
    0.9515   -0.8969    2.3621 H   0  0  0  0  0  0  0  0  0  0  0  0
    2.6400   -2.4248    1.7165 H   0  0  0  0  0  0  0  0  0  0  0  0
    0.7788   -1.0608   -3.1627 H   0  0  0  0  0  0  0  0  0  0  0  0
    1.8832   -2.2858   -3.7496 H   0  0  0  0  0  0  0  0  0  0  0  0
   -0.4604   -2.7001   -1.9710 H   0  0  0  0  0  0  0  0  0  0  0  0
    4.9263   -3.7973   -1.4965 H   0  0  0  0  0  0  0  0  0  0  0  0
    5.0812    0.0064   -2.7712 H   0  0  0  0  0  0  0  0  0  0  0  0
    1.0244   -4.5415   -3.6305 H   0  0  0  0  0  0  0  0  0  0  0  0
   -0.4238   -4.8515   -2.7855 H   0  0  0  0  0  0  0  0  0  0  0  0
  2  1  1  0  0  0  0 
  1  3  1  0  0  0  0 
  2  4  1  0  0  0  0 
  2  5  1  0  0  0  0 
  3  6  1  0  0  0  0 
  3  7  1  0  0  0  0 
  3  8  1  0  0  0  0 
  6  9  1  0  0  0  0 
  7 10  2  0  0  0  0 
  7 11  1  0  0  0  0 
  8 12  2  0  0  0  0 
  8 13  1  0  0  0  0 
  9 14  2  0  0  0  0 
 11 15  1  0  0  0  0 
 13 15  1  0  0  0  0 
 15 16  2  0  0  0  0 
 17  1  1  0  0  0  0 
 18  1  1  0  0  0  0 
 19  2  1  0  0  0  0 
 20  4  1  0  0  0  0 
 21  4  1  0  0  0  0 
 22  4  1  0  0  0  0 
 23  5  1  0  0  0  0 
 24  6  1  0  0  0  0 
 25  6  1  0  0  0  0 
 26  9  1  0  0  0  0 
 27 11  1  0  0  0  0 
 28 13  1  0  0  0  0 
 29 14  1  0  0  0  0 
 30 14  1  0  0  0  0 
M  END
> <cdk:Title>
proxibarbal

> <Conformer>
1

> <SuperDrugID>
SD002086

$$$$
