nicotinyl alcohol
  CDK     0628171801

 15 15  0  0  0  0  0  0  0  0999 V2000
    1.0836    0.3125   -0.6873 O   0  0  0  0  0  0  0  0  0  0  0  0
   -0.0230    0.7654    0.0859 C   0  0  2  0  0  0  0  0  0  0  0  0
   -1.2777    0.2735   -0.5265 C   0  0  0  0  0  0  0  0  0  0  0  0
   -1.9589    1.0272   -1.5099 C   0  0  0  0  0  0  0  0  0  0  0  0
   -3.1044    0.5576   -2.0678 N   0  0  0  0  0  0  0  0  0  0  0  0
   -3.6465   -0.6376   -1.7211 C   0  0  0  0  0  0  0  0  0  0  0  0
   -3.0168   -1.4373   -0.7517 C   0  0  0  0  0  0  0  0  0  0  0  0
   -1.8276   -0.9763   -0.1569 C   0  0  0  0  0  0  0  0  0  0  0  0
    1.8771    0.6654   -0.2307 H   0  0  0  0  0  0  0  0  0  0  0  0
   -0.0100    1.8573    0.1259 H   0  0  0  0  0  0  0  0  0  0  0  0
    0.0808    0.3964    1.1095 H   0  0  0  0  0  0  0  0  0  0  0  0
   -1.6034    1.9324   -1.8165 H   0  0  0  0  0  0  0  0  0  0  0  0
   -4.5112   -0.9513   -2.1670 H   0  0  0  0  0  0  0  0  0  0  0  0
   -3.4154   -2.3393   -0.4832 H   0  0  0  0  0  0  0  0  0  0  0  0
   -1.3671   -1.5602    0.5474 H   0  0  0  0  0  0  0  0  0  0  0  0
  1  2  1  0  0  0  0 
  2  3  1  0  0  0  0 
  3  4  2  0  0  0  0 
  4  5  1  0  0  0  0 
  5  6  2  0  0  0  0 
  6  7  1  0  0  0  0 
  7  8  2  0  0  0  0 
  3  8  1  0  0  0  0 
  1  9  1  0  0  0  0 
  2 10  1  0  0  0  0 
  2 11  1  0  0  0  0 
  4 12  1  0  0  0  0 
  6 13  1  0  0  0  0 
  7 14  1  0  0  0  0 
  8 15  1  0  0  0  0 
M  END
> <cdk:Title>
nicotinyl alcohol

> <Conformer>
1

> <SuperDrugID>
SD001716

$$$$
