tyropanoate
  CDK     0628171801

 40 40  0  0  0  0  0  0  0  0999 V2000
    4.7412    7.2770   -4.2495 C   0  0  2  0  0  0  0  0  0  0  0  0
    4.3707    7.0056   -5.7470 C   0  0  2  0  0  0  0  0  0  0  0  0
    5.0504    6.0293   -3.4769 C   0  0  0  0  0  0  0  0  0  0  0  0
    5.5774    6.5924   -6.5111 C   0  0  0  0  0  0  0  0  0  0  0  0
    3.6916    8.2236   -6.4548 C   0  0  2  0  0  0  0  0  0  0  0  0
    3.9993    5.1795   -3.0181 C   0  0  0  0  0  0  0  0  0  0  0  0
    6.3907    5.6632   -3.1769 C   0  0  0  0  0  0  0  0  0  0  0  0
    6.5437    7.4893   -6.8256 O   0  0  0  0  0  0  0  0  0  0  0  0
    5.7276    5.4076   -6.8893 O   0  0  0  0  0  0  0  0  0  0  0  0
    2.2446    8.5262   -5.9966 C   0  0  0  0  0  0  0  0  0  0  0  0
    2.0137    5.6904   -3.2703 I   0  0  0  0  0  0  0  0  0  0  0  0
    4.2898    3.9770   -2.3239 C   0  0  0  0  0  0  0  0  0  0  0  0
    8.0446    6.7624   -3.7276 I   0  0  0  0  0  0  0  0  0  0  0  0
    6.6653    4.4843   -2.4617 C   0  0  0  0  0  0  0  0  0  0  0  0
    3.3221    3.1292   -1.8781 N   0  0  0  0  0  0  0  0  0  0  0  0
    5.6278    3.6413   -2.0405 C   0  0  0  0  0  0  0  0  0  0  0  0
    2.4975    2.3789   -2.6619 C   0  0  0  0  0  0  0  0  0  0  0  0
    6.1181    1.9173   -1.0296 I   0  0  0  0  0  0  0  0  0  0  0  0
    1.4852    1.5055   -2.0268 C   0  0  2  0  0  0  0  0  0  0  0  0
    2.5774    2.4143   -3.9144 O   0  0  0  0  0  0  0  0  0  0  0  0
    2.1070    0.3333   -1.2213 C   0  0  1  0  0  0  0  0  0  0  0  0
    1.0298   -0.5883   -0.6042 C   0  0  0  0  0  0  0  0  0  0  0  0
    3.9326    7.7981   -3.7377 H   0  0  0  0  0  0  0  0  0  0  0  0
    5.5684    7.9866   -4.2202 H   0  0  0  0  0  0  0  0  0  0  0  0
    3.6568    6.1776   -5.7875 H   0  0  0  0  0  0  0  0  0  0  0  0
    3.6423    8.0282   -7.5308 H   0  0  0  0  0  0  0  0  0  0  0  0
    4.3016    9.1204   -6.3115 H   0  0  0  0  0  0  0  0  0  0  0  0
    7.3231    7.2126   -7.3520 H   0  0  0  0  0  0  0  0  0  0  0  0
    1.8155    9.3031   -6.6325 H   0  0  0  0  0  0  0  0  0  0  0  0
    2.2228    8.8806   -4.9657 H   0  0  0  0  0  0  0  0  0  0  0  0
    1.6241    7.6320   -6.0810 H   0  0  0  0  0  0  0  0  0  0  0  0
    7.6324    4.2330   -2.2474 H   0  0  0  0  0  0  0  0  0  0  0  0
    3.2417    3.0189   -0.9175 H   0  0  0  0  0  0  0  0  0  0  0  0
    0.8260    1.0916   -2.7965 H   0  0  0  0  0  0  0  0  0  0  0  0
    0.8699    2.1172   -1.3613 H   0  0  0  0  0  0  0  0  0  0  0  0
    2.7456   -0.2652   -1.8779 H   0  0  0  0  0  0  0  0  0  0  0  0
    2.7287    0.7315   -0.4143 H   0  0  0  0  0  0  0  0  0  0  0  0
    0.4105   -1.0305   -1.3877 H   0  0  0  0  0  0  0  0  0  0  0  0
    0.3914   -0.0243    0.0792 H   0  0  0  0  0  0  0  0  0  0  0  0
    1.5100   -1.3926   -0.0448 H   0  0  0  0  0  0  0  0  0  0  0  0
  1  2  1  0  0  0  0 
  1  3  1  0  0  0  0 
  2  4  1  0  0  0  0 
  2  5  1  0  0  0  0 
  3  6  2  0  0  0  0 
  3  7  1  0  0  0  0 
  4  8  1  0  0  0  0 
  4  9  2  0  0  0  0 
  5 10  1  0  0  0  0 
  6 11  1  0  0  0  0 
  6 12  1  0  0  0  0 
  7 13  1  0  0  0  0 
  7 14  2  0  0  0  0 
 12 15  1  0  0  0  0 
 12 16  2  0  0  0  0 
 14 16  1  0  0  0  0 
 15 17  1  0  0  0  0 
 16 18  1  0  0  0  0 
 17 19  1  0  0  0  0 
 17 20  2  0  0  0  0 
 19 21  1  0  0  0  0 
 21 22  1  0  0  0  0 
  1 23  1  0  0  0  0 
  1 24  1  0  0  0  0 
  2 25  1  0  0  0  0 
  5 26  1  0  0  0  0 
  5 27  1  0  0  0  0 
  8 28  1  0  0  0  0 
 10 29  1  0  0  0  0 
 10 30  1  0  0  0  0 
 10 31  1  0  0  0  0 
 14 32  1  0  0  0  0 
 15 33  1  0  0  0  0 
 19 34  1  0  0  0  0 
 19 35  1  0  0  0  0 
 21 36  1  0  0  0  0 
 21 37  1  0  0  0  0 
 22 38  1  0  0  0  0 
 22 39  1  0  0  0  0 
 22 40  1  0  0  0  0 
M  END
> <cdk:Title>
tyropanoate

> <Conformer>
1

> <SuperDrugID>
SD002514

$$$$
