thymopentin
  CDK     0628171801

 97 97  0  0  0  0  0  0  0  0999 V2000
   -3.7372   -4.6435    0.2713 N   0  0  1  0  0  0  0  0  0  0  0  0
   -1.4209   -6.4020   -0.4726 N   0  0  0  0  0  0  0  0  0  0  0  0
   -0.9625   -8.5413    1.3555 N   0  0  0  0  0  0  0  0  0  0  0  0
    0.3310  -11.1103    1.8492 N   0  0  0  0  0  0  0  0  0  0  0  0
    0.6331  -14.0735    3.6153 N   0  0  0  0  0  0  0  0  0  0  0  0
    2.9331  -16.3882    4.3763 O   0  0  0  0  0  0  0  0  0  0  0  0
   -2.3036   -5.7738   -1.2984 C   0  0  0  0  0  0  0  0  0  0  0  0
   -1.6532   -3.5027   -0.5502 C   0  0  2  0  0  0  0  0  0  0  0  0
   -2.0065   -2.0090   -0.3188 C   0  0  1  0  0  0  0  0  0  0  0  0
   -0.7357   -1.2133    0.0813 C   0  0  2  0  0  0  0  0  0  0  0  0
   -0.9490    0.1638    0.0953 N   0  0  0  0  0  0  0  0  0  0  0  0
   -0.0873    1.0843    0.3535 C   0  0  0  0  0  0  0  0  0  0  0  0
   -0.4760    2.3350    0.2993 N   0  0  0  0  0  0  0  0  0  0  0  0
    1.1765    0.8432    0.6570 N   0  0  0  0  0  0  0  0  0  0  0  0
   -2.8416   -4.4575   -0.8795 C   0  0  2  0  0  0  0  0  0  0  0  0
   -2.5864   -6.2334   -2.4304 O   0  0  0  0  0  0  0  0  0  0  0  0
   -0.0504   -8.0333    0.4679 C   0  0  0  0  0  0  0  0  0  0  0  0
    2.6109   -7.1439   -3.3063 C   0  0  2  0  0  0  0  0  0  0  0  0
    1.5676   -7.8631   -2.4037 C   0  0  1  0  0  0  0  0  0  0  0  0
    0.5957   -6.8502   -1.7404 C   0  0  2  0  0  0  0  0  0  0  0  0
   -0.5235   -7.4600   -0.8253 C   0  0  2  0  0  0  0  0  0  0  0  0
    4.5786   -7.3677   -4.7981 N   0  0  2  0  0  0  0  0  0  0  0  0
    3.6618   -8.1003   -3.9156 C   0  0  1  0  0  0  0  0  0  0  0  0
    1.1691   -8.0252    0.7633 O   0  0  0  0  0  0  0  0  0  0  0  0
   -0.6591  -10.5317    2.5856 C   0  0  0  0  0  0  0  0  0  0  0  0
   -1.7016   -8.4524    3.6835 C   0  0  1  0  0  0  0  0  0  0  0  0
   -1.4347   -8.8464    5.0867 C   0  0  0  0  0  0  0  0  0  0  0  0
   -2.3448   -9.5406    5.8102 O   0  0  0  0  0  0  0  0  0  0  0  0
   -0.3512   -8.5510    5.6411 O   0  0  0  0  0  0  0  0  0  0  0  0
   -0.6780   -9.0496    2.6697 C   0  0  2  0  0  0  0  0  0  0  0  0
   -1.5184  -11.2341    3.1721 O   0  0  0  0  0  0  0  0  0  0  0  0
    1.1970  -13.0291    2.9441 C   0  0  0  0  0  0  0  0  0  0  0  0
    1.4661  -14.3510    0.1062 C   0  0  0  0  0  0  0  0  0  0  0  0
    0.5672  -12.5159    1.7011 C   0  0  2  0  0  0  0  0  0  0  0  0
    2.8151  -12.1995    0.3441 C   0  0  0  0  0  0  0  0  0  0  0  0
    1.3891  -12.8236    0.3970 C   0  0  1  0  0  0  0  0  0  0  0  0
    2.2504  -12.4886    3.3591 O   0  0  0  0  0  0  0  0  0  0  0  0
    1.6192  -16.0643    4.3685 C   0  0  0  0  0  0  0  0  0  0  0  0
    0.1310  -14.7345    5.9372 C   0  0  1  0  0  0  0  0  0  0  0  0
    0.6579  -15.3694    7.1819 C   0  0  0  0  0  0  0  0  0  0  0  0
    1.7361  -14.7709    7.8777 C   0  0  0  0  0  0  0  0  0  0  0  0
    2.2983  -15.3902    9.0077 C   0  0  0  0  0  0  0  0  0  0  0  0
    1.7779  -16.6076    9.4796 C   0  0  0  0  0  0  0  0  0  0  0  0
    2.3448  -17.1911   10.5645 O   0  0  0  0  0  0  0  0  0  0  0  0
    0.6841  -17.2002    8.8186 C   0  0  0  0  0  0  0  0  0  0  0  0
    0.1278  -16.5860    7.6795 C   0  0  0  0  0  0  0  0  0  0  0  0
    1.1751  -14.7132    4.7784 C   0  0  2  0  0  0  0  0  0  0  0  0
    0.8006  -16.9339    3.9934 O   0  0  0  0  0  0  0  0  0  0  0  0
   -3.1604   -4.9501    1.0574 H   0  0  0  0  0  0  0  0  0  0  0  0
   -4.1112   -3.7245    0.5180 H   0  0  0  0  0  0  0  0  0  0  0  0
   -1.3240   -6.0304    0.4197 H   0  0  0  0  0  0  0  0  0  0  0  0
   -1.8941   -8.5490    1.0817 H   0  0  0  0  0  0  0  0  0  0  0  0
    0.9541  -10.5096    1.4155 H   0  0  0  0  0  0  0  0  0  0  0  0
   -0.1950  -14.4338    3.2588 H   0  0  0  0  0  0  0  0  0  0  0  0
    3.6051  -15.7145    4.6111 H   0  0  0  0  0  0  0  0  0  0  0  0
   -1.1379   -3.8759    0.3413 H   0  0  0  0  0  0  0  0  0  0  0  0
   -0.9410   -3.5433   -1.3822 H   0  0  0  0  0  0  0  0  0  0  0  0
   -2.4324   -1.5969   -1.2380 H   0  0  0  0  0  0  0  0  0  0  0  0
   -2.7518   -1.9224    0.4755 H   0  0  0  0  0  0  0  0  0  0  0  0
    0.0613   -1.4328   -0.6346 H   0  0  0  0  0  0  0  0  0  0  0  0
   -0.4106   -1.5408    1.0742 H   0  0  0  0  0  0  0  0  0  0  0  0
   -1.3937    2.5522    0.0690 H   0  0  0  0  0  0  0  0  0  0  0  0
    0.1599    3.0458    0.4834 H   0  0  0  0  0  0  0  0  0  0  0  0
    1.4935   -0.0716    0.7113 H   0  0  0  0  0  0  0  0  0  0  0  0
    1.7915    1.5764    0.8300 H   0  0  0  0  0  0  0  0  0  0  0  0
   -3.4338   -4.0284   -1.6938 H   0  0  0  0  0  0  0  0  0  0  0  0
    3.1382   -6.3860   -2.7207 H   0  0  0  0  0  0  0  0  0  0  0  0
    2.0869   -6.6352   -4.1205 H   0  0  0  0  0  0  0  0  0  0  0  0
    0.9916   -8.5647   -3.0124 H   0  0  0  0  0  0  0  0  0  0  0  0
    2.0921   -8.4322   -1.6345 H   0  0  0  0  0  0  0  0  0  0  0  0
    0.1250   -6.2887   -2.5526 H   0  0  0  0  0  0  0  0  0  0  0  0
    1.1769   -6.1318   -1.1548 H   0  0  0  0  0  0  0  0  0  0  0  0
   -1.0623   -8.2342   -1.3789 H   0  0  0  0  0  0  0  0  0  0  0  0
    4.0253   -7.0049   -5.5783 H   0  0  0  0  0  0  0  0  0  0  0  0
    5.2261   -8.0543   -5.1910 H   0  0  0  0  0  0  0  0  0  0  0  0
    4.2478   -8.5653   -3.1202 H   0  0  0  0  0  0  0  0  0  0  0  0
    3.1723   -8.8839   -4.4977 H   0  0  0  0  0  0  0  0  0  0  0  0
   -2.7135   -8.7582    3.4042 H   0  0  0  0  0  0  0  0  0  0  0  0
   -1.6662   -7.3612    3.6335 H   0  0  0  0  0  0  0  0  0  0  0  0
   -3.2090   -9.7838    5.4199 H   0  0  0  0  0  0  0  0  0  0  0  0
    0.3158   -8.7263    2.9991 H   0  0  0  0  0  0  0  0  0  0  0  0
    2.0156  -14.8675    0.8954 H   0  0  0  0  0  0  0  0  0  0  0  0
    1.9719  -14.5371   -0.8439 H   0  0  0  0  0  0  0  0  0  0  0  0
    0.4641  -14.7796    0.0422 H   0  0  0  0  0  0  0  0  0  0  0  0
   -0.4072  -12.9992    1.5706 H   0  0  0  0  0  0  0  0  0  0  0  0
    3.4867  -12.6919    1.0487 H   0  0  0  0  0  0  0  0  0  0  0  0
    3.2377  -12.3118   -0.6570 H   0  0  0  0  0  0  0  0  0  0  0  0
    2.7876  -11.1341    0.5740 H   0  0  0  0  0  0  0  0  0  0  0  0
    0.8322  -12.3808   -0.4369 H   0  0  0  0  0  0  0  0  0  0  0  0
   -0.7693  -15.2518    5.5930 H   0  0  0  0  0  0  0  0  0  0  0  0
   -0.1674  -13.7084    6.1735 H   0  0  0  0  0  0  0  0  0  0  0  0
    2.1294  -13.8817    7.5600 H   0  0  0  0  0  0  0  0  0  0  0  0
    3.0931  -14.9558    9.4807 H   0  0  0  0  0  0  0  0  0  0  0  0
    1.7007  -17.8686   10.8619 H   0  0  0  0  0  0  0  0  0  0  0  0
    0.2984  -18.0855    9.1565 H   0  0  0  0  0  0  0  0  0  0  0  0
   -0.6608  -17.0418    7.2107 H   0  0  0  0  0  0  0  0  0  0  0  0
    2.0538  -14.1662    5.1336 H   0  0  0  0  0  0  0  0  0  0  0  0
  7  2  1  0  0  0  0 
 17  3  1  0  0  0  0 
 25  4  1  0  0  0  0 
 32  5  1  0  0  0  0 
 38  6  1  0  0  0  0 
 15  1  1  0  0  0  0 
 15  8  1  0  0  0  0 
  8  9  1  0  0  0  0 
  9 10  1  0  0  0  0 
 10 11  1  0  0  0  0 
 11 12  2  0  0  0  0 
 12 13  1  0  0  0  0 
 12 14  1  0  0  0  0 
 15  7  1  0  0  0  0 
  7 16  2  0  0  0  0 
 22 23  1  0  0  0  0 
 23 18  1  0  0  0  0 
 18 19  1  0  0  0  0 
 19 20  1  0  0  0  0 
 21 20  1  0  0  0  0 
 21  2  1  0  0  0  0 
 21 17  1  0  0  0  0 
 17 24  2  0  0  0  0 
 30  3  1  0  0  0  0 
 30 26  1  0  0  0  0 
 26 27  1  0  0  0  0 
 27 28  1  0  0  0  0 
 27 29  2  0  0  0  0 
 30 25  1  0  0  0  0 
 25 31  2  0  0  0  0 
 35 36  1  0  0  0  0 
 36 33  1  0  0  0  0 
 34 36  1  0  0  0  0 
 34  4  1  0  0  0  0 
 34 32  1  0  0  0  0 
 32 37  2  0  0  0  0 
 47  5  1  0  0  0  0 
 47 39  1  0  0  0  0 
 39 40  1  0  0  0  0 
 40 41  2  0  0  0  0 
 41 42  1  0  0  0  0 
 42 43  2  0  0  0  0 
 43 44  1  0  0  0  0 
 43 45  1  0  0  0  0 
 45 46  2  0  0  0  0 
 40 46  1  0  0  0  0 
 47 38  1  0  0  0  0 
 38 48  2  0  0  0  0 
 49  1  1  0  0  0  0 
 50  1  1  0  0  0  0 
 51  2  1  0  0  0  0 
 52  3  1  0  0  0  0 
 53  4  1  0  0  0  0 
 54  5  1  0  0  0  0 
 55  6  1  0  0  0  0 
 56  8  1  0  0  0  0 
 57  8  1  0  0  0  0 
 58  9  1  0  0  0  0 
 59  9  1  0  0  0  0 
 60 10  1  0  0  0  0 
 61 10  1  0  0  0  0 
 62 13  1  0  0  0  0 
 63 13  1  0  0  0  0 
 64 14  1  0  0  0  0 
 65 14  1  0  0  0  0 
 15 66  1  0  0  0  0 
 67 18  1  0  0  0  0 
 68 18  1  0  0  0  0 
 69 19  1  0  0  0  0 
 70 19  1  0  0  0  0 
 71 20  1  0  0  0  0 
 72 20  1  0  0  0  0 
 21 73  1  0  0  0  0 
 74 22  1  0  0  0  0 
 75 22  1  0  0  0  0 
 76 23  1  0  0  0  0 
 77 23  1  0  0  0  0 
 78 26  1  0  0  0  0 
 79 26  1  0  0  0  0 
 80 28  1  0  0  0  0 
 30 81  1  0  0  0  0 
 82 33  1  0  0  0  0 
 83 33  1  0  0  0  0 
 84 33  1  0  0  0  0 
 34 85  1  0  0  0  0 
 86 35  1  0  0  0  0 
 87 35  1  0  0  0  0 
 88 35  1  0  0  0  0 
 89 36  1  0  0  0  0 
 90 39  1  0  0  0  0 
 91 39  1  0  0  0  0 
 92 41  1  0  0  0  0 
 93 42  1  0  0  0  0 
 94 44  1  0  0  0  0 
 95 45  1  0  0  0  0 
 96 46  1  0  0  0  0 
 47 97  1  0  0  0  0 
M  END
> <cdk:Title>
thymopentin

> <Conformer>
1

> <SuperDrugID>
SD002378

$$$$
