methiodal
  CDK     0628171801

  9  8  0  0  0  0  0  0  0  0999 V2000
   -0.8751    0.0883    0.0112 S   0  0  2  0  0  0  0  0  0  0  0  0
   -0.5313   -0.5813    1.6744 C   0  0  1  0  0  0  0  0  0  0  0  0
   -0.3017   -0.9018   -1.1099 O   0  0  0  0  0  0  0  0  0  0  0  0
   -0.2006    1.5335   -0.1376 O   0  0  0  0  0  0  0  0  0  0  0  0
   -2.5620    0.2564   -0.2046 O   0  0  0  0  0  0  0  0  0  0  0  0
    1.5637   -0.7685    1.9349 I   0  0  0  0  0  0  0  0  0  0  0  0
   -0.9304    0.0915    2.4323 H   0  0  0  0  0  0  0  0  0  0  0  0
   -0.9964   -1.5604    1.7797 H   0  0  0  0  0  0  0  0  0  0  0  0
   -2.9537   -0.4550    0.3462 H   0  0  0  0  0  0  0  0  0  0  0  0
  1  2  1  0  0  0  0 
  1  3  2  0  0  0  0 
  1  4  2  0  0  0  0 
  1  5  1  0  0  0  0 
  2  6  1  0  0  0  0 
  2  7  1  0  0  0  0 
  2  8  1  0  0  0  0 
  5  9  1  0  0  0  0 
M  END
> <cdk:Title>
methiodal

> <Conformer>
1

> <SuperDrugID>
SD002888

$$$$
