carbidopa
  CDK     0628171802

 30 30  0  0  0  0  0  0  0  0999 V2000
    2.1494    0.9552   -0.3086 C   0  0  1  0  0  0  0  0  0  0  0  0
    2.9088   -0.2283   -1.0185 C   0  0  2  0  0  0  0  0  0  0  0  0
    1.7798    2.0586   -1.2478 C   0  0  0  0  0  0  0  0  0  0  0  0
    0.9843    0.4386    0.4653 N   0  0  1  0  0  0  0  0  0  0  0  0
    3.0741    1.5811    0.7857 C   0  0  0  0  0  0  0  0  0  0  0  0
    2.1878   -0.9565   -2.1111 C   0  0  0  0  0  0  0  0  0  0  0  0
    2.7236    2.6576   -2.0158 O   0  0  0  0  0  0  0  0  0  0  0  0
    0.6104    2.4938   -1.3521 O   0  0  0  0  0  0  0  0  0  0  0  0
   -0.0686   -0.1088   -0.2837 N   0  0  1  0  0  0  0  0  0  0  0  0
    1.6977   -2.2734   -1.9193 C   0  0  0  0  0  0  0  0  0  0  0  0
    2.0151   -0.3672   -3.3871 C   0  0  0  0  0  0  0  0  0  0  0  0
    1.0485   -2.9739   -2.9580 C   0  0  0  0  0  0  0  0  0  0  0  0
    1.3630   -1.0570   -4.4256 C   0  0  0  0  0  0  0  0  0  0  0  0
    0.5792   -4.2333   -2.7544 O   0  0  0  0  0  0  0  0  0  0  0  0
    0.8814   -2.3621   -4.2175 C   0  0  0  0  0  0  0  0  0  0  0  0
    0.2743   -3.0112   -5.2450 O   0  0  0  0  0  0  0  0  0  0  0  0
    3.1938   -0.9470   -0.2443 H   0  0  0  0  0  0  0  0  0  0  0  0
    3.8501    0.1398   -1.4346 H   0  0  0  0  0  0  0  0  0  0  0  0
    1.3409   -0.3074    1.0652 H   0  0  0  0  0  0  0  0  0  0  0  0
    2.5647    2.3940    1.3094 H   0  0  0  0  0  0  0  0  0  0  0  0
    3.9942    1.9831    0.3566 H   0  0  0  0  0  0  0  0  0  0  0  0
    3.3544    0.8338    1.5305 H   0  0  0  0  0  0  0  0  0  0  0  0
    2.4793    3.3782   -2.6361 H   0  0  0  0  0  0  0  0  0  0  0  0
   -0.7342   -0.5023    0.3858 H   0  0  0  0  0  0  0  0  0  0  0  0
   -0.5462    0.6733   -0.7345 H   0  0  0  0  0  0  0  0  0  0  0  0
    1.8102   -2.7344   -1.0122 H   0  0  0  0  0  0  0  0  0  0  0  0
    2.3733    0.5684   -3.5813 H   0  0  0  0  0  0  0  0  0  0  0  0
    1.2481   -0.6094   -5.3383 H   0  0  0  0  0  0  0  0  0  0  0  0
    0.9857   -4.5386   -1.9169 H   0  0  0  0  0  0  0  0  0  0  0  0
    0.3367   -3.9663   -5.0331 H   0  0  0  0  0  0  0  0  0  0  0  0
  1  2  1  0  0  0  0 
  1  3  1  0  0  0  0 
  1  4  1  0  0  0  0 
  1  5  1  0  0  0  0 
  2  6  1  0  0  0  0 
  3  7  1  0  0  0  0 
  3  8  2  0  0  0  0 
  4  9  1  0  0  0  0 
  6 10  2  0  0  0  0 
  6 11  1  0  0  0  0 
 10 12  1  0  0  0  0 
 11 13  2  0  0  0  0 
 12 14  1  0  0  0  0 
 12 15  2  0  0  0  0 
 13 15  1  0  0  0  0 
 15 16  1  0  0  0  0 
  2 17  1  0  0  0  0 
  2 18  1  0  0  0  0 
  4 19  1  0  0  0  0 
  5 20  1  0  0  0  0 
  5 21  1  0  0  0  0 
  5 22  1  0  0  0  0 
  7 23  1  0  0  0  0 
  9 24  1  0  0  0  0 
  9 25  1  0  0  0  0 
 10 26  1  0  0  0  0 
 11 27  1  0  0  0  0 
 13 28  1  0  0  0  0 
 14 29  1  0  0  0  0 
 16 30  1  0  0  0  0 
M  END
> <cdk:Title>
carbidopa

> <Conformer>
1

> <SuperDrugID>
SD000429

$$$$
