trometamol
  CDK     0628171801

 19 18  0  0  0  0  0  0  0  0999 V2000
    3.1951   -2.0908    1.2697 N   0  0  1  0  0  0  0  0  0  0  0  0
    1.7597   -2.3772    1.0715 C   0  0  1  0  0  0  0  0  0  0  0  0
    1.1046   -1.1395    0.3771 C   0  0  1  0  0  0  0  0  0  0  0  0
    1.6878   -0.8482   -0.8913 O   0  0  0  0  0  0  0  0  0  0  0  0
    1.6448   -3.6552    0.1833 C   0  0  2  0  0  0  0  0  0  0  0  0
    2.2881   -4.7827    0.7729 O   0  0  0  0  0  0  0  0  0  0  0  0
    1.1135   -2.6193    2.4727 C   0  0  2  0  0  0  0  0  0  0  0  0
   -0.2779   -2.9198    2.3740 O   0  0  0  0  0  0  0  0  0  0  0  0
    3.5903   -1.8869    0.3480 H   0  0  0  0  0  0  0  0  0  0  0  0
    3.2658   -1.2295    1.8176 H   0  0  0  0  0  0  0  0  0  0  0  0
    0.0365   -1.3137    0.2209 H   0  0  0  0  0  0  0  0  0  0  0  0
    1.2168   -0.2523    1.0042 H   0  0  0  0  0  0  0  0  0  0  0  0
    1.1567   -0.1018   -1.2430 H   0  0  0  0  0  0  0  0  0  0  0  0
    2.1055   -3.4805   -0.7898 H   0  0  0  0  0  0  0  0  0  0  0  0
    0.5954   -3.9098    0.0210 H   0  0  0  0  0  0  0  0  0  0  0  0
    2.1144   -5.5214    0.1515 H   0  0  0  0  0  0  0  0  0  0  0  0
    1.2273   -1.7365    3.1049 H   0  0  0  0  0  0  0  0  0  0  0  0
    1.6045   -3.4533    2.9773 H   0  0  0  0  0  0  0  0  0  0  0  0
   -0.5707   -3.0781    3.2962 H   0  0  0  0  0  0  0  0  0  0  0  0
  1  2  1  0  0  0  0 
  2  3  1  0  0  0  0 
  3  4  1  0  0  0  0 
  2  5  1  0  0  0  0 
  5  6  1  0  0  0  0 
  2  7  1  0  0  0  0 
  7  8  1  0  0  0  0 
  1  9  1  0  0  0  0 
  1 10  1  0  0  0  0 
  3 11  1  0  0  0  0 
  3 12  1  0  0  0  0 
  4 13  1  0  0  0  0 
  5 14  1  0  0  0  0 
  5 15  1  0  0  0  0 
  6 16  1  0  0  0  0 
  7 17  1  0  0  0  0 
  7 18  1  0  0  0  0 
  8 19  1  0  0  0  0 
M  END
> <cdk:Title>
trometamol

> <Conformer>
1

> <SuperDrugID>
SD002500

$$$$
