xamoterol
  CDK     0628171801

 49 50  0  0  0  0  0  0  0  0999 V2000
   -1.6852    0.7453    0.4404 C   0  0  0  0  0  0  0  0  0  0  0  0
   -2.9142    1.3370    0.3135 N   0  0  0  0  0  0  0  0  0  0  0  0
   -1.5213   -0.0349    1.4112 O   0  0  0  0  0  0  0  0  0  0  0  0
   -0.6655    0.9414   -0.4852 N   0  0  0  0  0  0  0  0  0  0  0  0
   -4.0251    1.1611    1.1925 C   0  0  2  0  0  0  0  0  0  0  0  0
    0.5701    0.1772   -0.4254 C   0  0  1  0  0  0  0  0  0  0  0  0
   -0.8137    1.8466   -1.6130 C   0  0  2  0  0  0  0  0  0  0  0  0
   -5.3079    1.7710    0.5806 C   0  0  1  0  0  0  0  0  0  0  0  0
    1.8130    1.0481   -0.7291 C   0  0  1  0  0  0  0  0  0  0  0  0
    0.4815    2.6410   -1.9126 C   0  0  2  0  0  0  0  0  0  0  0  0
   -6.4622    1.5403    1.4773 N   0  0  2  0  0  0  0  0  0  0  0  0
    1.6283    1.7738   -1.9580 O   0  0  0  0  0  0  0  0  0  0  0  0
   -7.7543    2.0608    0.9725 C   0  0  1  0  0  0  0  0  0  0  0  0
   -8.8663    1.8095    2.0227 C   0  0  1  0  0  0  0  0  0  0  0  0
  -10.2477    2.3644    1.5978 C   0  0  2  0  0  0  0  0  0  0  0  0
   -8.9735    0.4079    2.2650 O   0  0  0  0  0  0  0  0  0  0  0  0
  -10.1368    3.7842    1.3648 O   0  0  0  0  0  0  0  0  0  0  0  0
  -11.2767    4.3377    0.8586 C   0  0  0  0  0  0  0  0  0  0  0  0
  -11.4759    4.3897   -0.5367 C   0  0  0  0  0  0  0  0  0  0  0  0
  -12.2498    4.8743    1.7257 C   0  0  0  0  0  0  0  0  0  0  0  0
  -12.6616    4.9349   -1.0601 C   0  0  0  0  0  0  0  0  0  0  0  0
  -13.4358    5.4207    1.2021 C   0  0  0  0  0  0  0  0  0  0  0  0
  -13.6489    5.4365   -0.1899 C   0  0  0  0  0  0  0  0  0  0  0  0
  -14.8047    5.9273   -0.6935 O   0  0  0  0  0  0  0  0  0  0  0  0
   -3.0559    1.9202   -0.4440 H   0  0  0  0  0  0  0  0  0  0  0  0
   -3.8088    1.6420    2.1476 H   0  0  0  0  0  0  0  0  0  0  0  0
   -4.1923    0.0956    1.3638 H   0  0  0  0  0  0  0  0  0  0  0  0
    0.7362   -0.3004    0.5440 H   0  0  0  0  0  0  0  0  0  0  0  0
    0.5133   -0.6145   -1.1764 H   0  0  0  0  0  0  0  0  0  0  0  0
   -1.5975    2.5904   -1.4658 H   0  0  0  0  0  0  0  0  0  0  0  0
   -1.0769    1.2539   -2.4914 H   0  0  0  0  0  0  0  0  0  0  0  0
   -5.1655    2.8451    0.4311 H   0  0  0  0  0  0  0  0  0  0  0  0
   -5.4956    1.3014   -0.3896 H   0  0  0  0  0  0  0  0  0  0  0  0
    2.0062    1.7404    0.0961 H   0  0  0  0  0  0  0  0  0  0  0  0
    2.6905    0.4078   -0.8394 H   0  0  0  0  0  0  0  0  0  0  0  0
    0.6332    3.4212   -1.1601 H   0  0  0  0  0  0  0  0  0  0  0  0
    0.3882    3.1328   -2.8831 H   0  0  0  0  0  0  0  0  0  0  0  0
   -6.2645    2.0386    2.3473 H   0  0  0  0  0  0  0  0  0  0  0  0
   -7.6629    3.1339    0.7863 H   0  0  0  0  0  0  0  0  0  0  0  0
   -8.0167    1.5630    0.0349 H   0  0  0  0  0  0  0  0  0  0  0  0
   -8.5776    2.2893    2.9610 H   0  0  0  0  0  0  0  0  0  0  0  0
  -10.9648    2.1734    2.4032 H   0  0  0  0  0  0  0  0  0  0  0  0
  -10.5857    1.8301    0.7027 H   0  0  0  0  0  0  0  0  0  0  0  0
   -9.6224    0.3246    2.9940 H   0  0  0  0  0  0  0  0  0  0  0  0
  -10.7623    4.0226   -1.1709 H   0  0  0  0  0  0  0  0  0  0  0  0
  -12.0988    4.8598    2.7371 H   0  0  0  0  0  0  0  0  0  0  0  0
  -12.8064    4.9633   -2.0724 H   0  0  0  0  0  0  0  0  0  0  0  0
  -14.1432    5.8021    1.8349 H   0  0  0  0  0  0  0  0  0  0  0  0
  -14.6523    6.8901   -0.7915 H   0  0  0  0  0  0  0  0  0  0  0  0
  1  2  1  0  0  0  0 
  1  3  2  0  0  0  0 
  1  4  1  0  0  0  0 
  2  5  1  0  0  0  0 
  4  6  1  0  0  0  0 
  4  7  1  0  0  0  0 
  5  8  1  0  0  0  0 
  6  9  1  0  0  0  0 
  7 10  1  0  0  0  0 
  8 11  1  0  0  0  0 
  9 12  1  0  0  0  0 
 10 12  1  0  0  0  0 
 11 13  1  0  0  0  0 
 14 13  1  0  0  0  0 
 14 15  1  0  0  0  0 
 14 16  1  0  0  0  0 
 15 17  1  0  0  0  0 
 17 18  1  0  0  0  0 
 18 19  2  0  0  0  0 
 18 20  1  0  0  0  0 
 19 21  1  0  0  0  0 
 20 22  2  0  0  0  0 
 21 23  2  0  0  0  0 
 22 23  1  0  0  0  0 
 23 24  1  0  0  0  0 
 25  2  1  0  0  0  0 
 26  5  1  0  0  0  0 
 27  5  1  0  0  0  0 
 28  6  1  0  0  0  0 
 29  6  1  0  0  0  0 
 30  7  1  0  0  0  0 
 31  7  1  0  0  0  0 
 32  8  1  0  0  0  0 
 33  8  1  0  0  0  0 
 34  9  1  0  0  0  0 
 35  9  1  0  0  0  0 
 36 10  1  0  0  0  0 
 37 10  1  0  0  0  0 
 38 11  1  0  0  0  0 
 39 13  1  0  0  0  0 
 40 13  1  0  0  0  0 
 41 14  1  0  0  0  0 
 42 15  1  0  0  0  0 
 43 15  1  0  0  0  0 
 44 16  1  0  0  0  0 
 45 19  1  0  0  0  0 
 46 20  1  0  0  0  0 
 47 21  1  0  0  0  0 
 48 22  1  0  0  0  0 
 49 24  1  0  0  0  0 
M  END
> <cdk:Title>
xamoterol

> <Conformer>
1

> <SuperDrugID>
SD002566

$$$$
