mesulfen
  CDK     0628171801

 28 30  0  0  0  0  0  0  0  0999 V2000
    0.3657    0.5363    1.5802 C   0  0  0  0  0  0  0  0  0  0  0  0
   -0.2897    0.1672    0.3007 C   0  0  0  0  0  0  0  0  0  0  0  0
   -0.9417    1.1386   -0.4922 C   0  0  0  0  0  0  0  0  0  0  0  0
   -0.2860   -1.1712   -0.1443 C   0  0  0  0  0  0  0  0  0  0  0  0
   -1.5691    0.7954   -1.7103 C   0  0  0  0  0  0  0  0  0  0  0  0
   -0.9072   -1.5235   -1.3542 C   0  0  0  0  0  0  0  0  0  0  0  0
   -1.5553   -0.5487   -2.1442 C   0  0  0  0  0  0  0  0  0  0  0  0
   -2.2980    2.1147   -2.6097 S   0  0  0  0  0  0  0  0  0  0  0  0
   -2.2795   -1.1097   -3.6395 S   0  0  0  0  0  0  0  0  0  0  0  0
   -3.2738    1.4951   -3.9283 C   0  0  0  0  0  0  0  0  0  0  0  0
   -3.2800    0.1462   -4.3477 C   0  0  0  0  0  0  0  0  0  0  0  0
   -4.0822    2.4331   -4.6072 C   0  0  0  0  0  0  0  0  0  0  0  0
   -4.1129   -0.2442   -5.4200 C   0  0  0  0  0  0  0  0  0  0  0  0
   -4.9015    2.0358   -5.6766 C   0  0  0  0  0  0  0  0  0  0  0  0
   -4.9318    0.6894   -6.0953 C   0  0  0  0  0  0  0  0  0  0  0  0
   -5.7958    0.2560   -7.2218 C   0  0  0  0  0  0  0  0  0  0  0  0
   -0.3574    0.4505    2.3924 H   0  0  0  0  0  0  0  0  0  0  0  0
    0.7415    1.5608    1.5505 H   0  0  0  0  0  0  0  0  0  0  0  0
    1.2131   -0.1185    1.7971 H   0  0  0  0  0  0  0  0  0  0  0  0
   -0.9546    2.1099   -0.1756 H   0  0  0  0  0  0  0  0  0  0  0  0
    0.1718   -1.9011    0.4090 H   0  0  0  0  0  0  0  0  0  0  0  0
   -0.8762   -2.5025   -1.6512 H   0  0  0  0  0  0  0  0  0  0  0  0
   -4.0836    3.4197   -4.3340 H   0  0  0  0  0  0  0  0  0  0  0  0
   -4.1242   -1.2213   -5.7194 H   0  0  0  0  0  0  0  0  0  0  0  0
   -5.4757    2.7394   -6.1475 H   0  0  0  0  0  0  0  0  0  0  0  0
   -5.1811   -0.1736   -8.0143 H   0  0  0  0  0  0  0  0  0  0  0  0
   -6.3678    1.0828   -7.6498 H   0  0  0  0  0  0  0  0  0  0  0  0
   -6.5034   -0.4974   -6.8728 H   0  0  0  0  0  0  0  0  0  0  0  0
  1  2  1  0  0  0  0 
  2  3  2  0  0  0  0 
  2  4  1  0  0  0  0 
  3  5  1  0  0  0  0 
  4  6  2  0  0  0  0 
  5  7  2  0  0  0  0 
  5  8  1  0  0  0  0 
  6  7  1  0  0  0  0 
  7  9  1  0  0  0  0 
  8 10  1  0  0  0  0 
  9 11  1  0  0  0  0 
 10 11  2  0  0  0  0 
 10 12  1  0  0  0  0 
 11 13  1  0  0  0  0 
 12 14  2  0  0  0  0 
 13 15  2  0  0  0  0 
 14 15  1  0  0  0  0 
 15 16  1  0  0  0  0 
  1 17  1  0  0  0  0 
  1 18  1  0  0  0  0 
  1 19  1  0  0  0  0 
  3 20  1  0  0  0  0 
  4 21  1  0  0  0  0 
  6 22  1  0  0  0  0 
 12 23  1  0  0  0  0 
 13 24  1  0  0  0  0 
 14 25  1  0  0  0  0 
 16 26  1  0  0  0  0 
 16 27  1  0  0  0  0 
 16 28  1  0  0  0  0 
M  END
> <cdk:Title>
mesulfen

> <Conformer>
1

> <SuperDrugID>
SD002885

$$$$
