pentifylline
  CDK     0628171801

 39 40  0  0  0  0  0  0  0  0999 V2000
    2.5094   -2.3061   -0.7155 O   0  0  0  0  0  0  0  0  0  0  0  0
    2.6422   -1.1857   -0.1678 C   0  0  0  0  0  0  0  0  0  0  0  0
    3.9380   -0.6505   -0.0582 C   0  0  0  0  0  0  0  0  0  0  0  0
    1.5691   -0.4726    0.3219 N   0  0  0  0  0  0  0  0  0  0  0  0
    4.1003    0.5921    0.5451 C   0  0  0  0  0  0  0  0  0  0  0  0
    5.1539   -1.1013   -0.4297 N   0  0  0  0  0  0  0  0  0  0  0  0
    0.2163   -0.9980    0.1627 C   0  0  2  0  0  0  0  0  0  0  0  0
    1.7905    0.7461    0.9444 C   0  0  0  0  0  0  0  0  0  0  0  0
    3.0494    1.2966    1.0549 N   0  0  0  0  0  0  0  0  0  0  0  0
    5.4103    0.8919    0.5229 N   0  0  0  0  0  0  0  0  0  0  0  0
    5.4779   -2.3437   -1.0640 C   0  0  0  0  0  0  0  0  0  0  0  0
    6.0318   -0.1419   -0.0717 C   0  0  0  0  0  0  0  0  0  0  0  0
   -0.4352   -0.6243   -1.1994 C   0  0  2  0  0  0  0  0  0  0  0  0
    0.8210    1.3889    1.4190 O   0  0  0  0  0  0  0  0  0  0  0  0
    3.2519    2.5730    1.7053 C   0  0  0  0  0  0  0  0  0  0  0  0
   -0.5940    0.9029   -1.4358 C   0  0  2  0  0  0  0  0  0  0  0  0
   -1.2625    1.2520   -2.7919 C   0  0  1  0  0  0  0  0  0  0  0  0
   -1.3539    2.7875   -3.0085 C   0  0  1  0  0  0  0  0  0  0  0  0
   -1.9430    3.1815   -4.3798 C   0  0  0  0  0  0  0  0  0  0  0  0
   -0.4436   -0.6595    0.9657 H   0  0  0  0  0  0  0  0  0  0  0  0
    0.2188   -2.0890    0.2504 H   0  0  0  0  0  0  0  0  0  0  0  0
    4.9262   -2.4461   -2.0012 H   0  0  0  0  0  0  0  0  0  0  0  0
    6.5450   -2.4138   -1.2874 H   0  0  0  0  0  0  0  0  0  0  0  0
    5.2148   -3.1701   -0.4015 H   0  0  0  0  0  0  0  0  0  0  0  0
    7.0423   -0.1860   -0.2217 H   0  0  0  0  0  0  0  0  0  0  0  0
   -1.4267   -1.0850   -1.2371 H   0  0  0  0  0  0  0  0  0  0  0  0
    0.1610   -1.0532   -2.0087 H   0  0  0  0  0  0  0  0  0  0  0  0
    2.6283    3.3406    1.2404 H   0  0  0  0  0  0  0  0  0  0  0  0
    4.2840    2.9259    1.6626 H   0  0  0  0  0  0  0  0  0  0  0  0
    2.9720    2.4852    2.7573 H   0  0  0  0  0  0  0  0  0  0  0  0
    0.3933    1.3693   -1.4225 H   0  0  0  0  0  0  0  0  0  0  0  0
   -1.1897    1.3310   -0.6235 H   0  0  0  0  0  0  0  0  0  0  0  0
   -0.6770    0.8096   -3.6034 H   0  0  0  0  0  0  0  0  0  0  0  0
   -2.2671    0.8209   -2.8187 H   0  0  0  0  0  0  0  0  0  0  0  0
   -1.9793    3.2260   -2.2266 H   0  0  0  0  0  0  0  0  0  0  0  0
   -0.3546    3.2247   -2.9294 H   0  0  0  0  0  0  0  0  0  0  0  0
   -1.9844    4.2701   -4.4618 H   0  0  0  0  0  0  0  0  0  0  0  0
   -1.3166    2.7953   -5.1863 H   0  0  0  0  0  0  0  0  0  0  0  0
   -2.9540    2.7843   -4.4881 H   0  0  0  0  0  0  0  0  0  0  0  0
  1  2  2  0  0  0  0 
  2  3  1  0  0  0  0 
  2  4  1  0  0  0  0 
  3  5  2  0  0  0  0 
  3  6  1  0  0  0  0 
  4  7  1  0  0  0  0 
  4  8  1  0  0  0  0 
  5  9  1  0  0  0  0 
  5 10  1  0  0  0  0 
  6 11  1  0  0  0  0 
  6 12  1  0  0  0  0 
  7 13  1  0  0  0  0 
  8  9  1  0  0  0  0 
  8 14  2  0  0  0  0 
  9 15  1  0  0  0  0 
 10 12  2  0  0  0  0 
 13 16  1  0  0  0  0 
 16 17  1  0  0  0  0 
 17 18  1  0  0  0  0 
 18 19  1  0  0  0  0 
  7 20  1  0  0  0  0 
  7 21  1  0  0  0  0 
 11 22  1  0  0  0  0 
 11 23  1  0  0  0  0 
 11 24  1  0  0  0  0 
 12 25  1  0  0  0  0 
 13 26  1  0  0  0  0 
 13 27  1  0  0  0  0 
 15 28  1  0  0  0  0 
 15 29  1  0  0  0  0 
 15 30  1  0  0  0  0 
 16 31  1  0  0  0  0 
 16 32  1  0  0  0  0 
 17 33  1  0  0  0  0 
 17 34  1  0  0  0  0 
 18 35  1  0  0  0  0 
 18 36  1  0  0  0  0 
 19 37  1  0  0  0  0 
 19 38  1  0  0  0  0 
 19 39  1  0  0  0  0 
M  END
> <cdk:Title>
pentifylline

> <Conformer>
1

> <SuperDrugID>
SD001877

$$$$
