climbazole
  CDK     0628171802

 40 41  0  0  0  0  0  0  0  0999 V2000
    3.7910    3.8338   -1.2593 C   0  0  0  0  0  0  0  0  0  0  0  0
    3.5161    5.1944   -1.0212 C   0  0  0  0  0  0  0  0  0  0  0  0
    2.6399    5.5652    0.0191 C   0  0  0  0  0  0  0  0  0  0  0  0
    2.0579    4.5710    0.8297 C   0  0  0  0  0  0  0  0  0  0  0  0
    2.3307    3.2130    0.5831 C   0  0  0  0  0  0  0  0  0  0  0  0
    3.2053    2.8344   -0.4554 C   0  0  0  0  0  0  0  0  0  0  0  0
    2.2665    7.1942    0.2841 Cl  0  0  0  0  0  0  0  0  0  0  0  0
    3.4447    1.5050   -0.6989 O   0  0  0  0  0  0  0  0  0  0  0  0
    4.6865    0.9879   -0.1546 C   0  0  1  0  0  0  0  0  0  0  0  0
    4.6911    1.0668    1.2847 N   0  0  0  0  0  0  0  0  0  0  0  0
    3.7853    0.5265    2.1193 C   0  0  0  0  0  0  0  0  0  0  0  0
    4.1589    0.8592    3.4119 C   0  0  0  0  0  0  0  0  0  0  0  0
    5.2827    1.5868    3.3572 N   0  0  0  0  0  0  0  0  0  0  0  0
    5.5962    1.7038    2.0557 C   0  0  0  0  0  0  0  0  0  0  0  0
    4.9089   -0.4203   -0.5891 C   0  0  0  0  0  0  0  0  0  0  0  0
    6.1604   -1.1355   -0.2036 C   0  0  2  0  0  0  0  0  0  0  0  0
    4.0300   -0.9783   -1.2861 O   0  0  0  0  0  0  0  0  0  0  0  0
    6.3828   -2.6376   -0.6295 C   0  0  1  0  0  0  0  0  0  0  0  0
    6.4664   -2.7869   -2.1836 C   0  0  0  0  0  0  0  0  0  0  0  0
    7.7470   -3.1124   -0.0216 C   0  0  0  0  0  0  0  0  0  0  0  0
    5.2584   -3.5719   -0.0728 C   0  0  0  0  0  0  0  0  0  0  0  0
    4.4186    3.5678   -2.0202 H   0  0  0  0  0  0  0  0  0  0  0  0
    3.9491    5.9064   -1.6166 H   0  0  0  0  0  0  0  0  0  0  0  0
    1.4356    4.8295    1.5987 H   0  0  0  0  0  0  0  0  0  0  0  0
    1.8816    2.5001    1.1590 H   0  0  0  0  0  0  0  0  0  0  0  0
    5.5163    1.5655   -0.5758 H   0  0  0  0  0  0  0  0  0  0  0  0
    2.9623   -0.0203    1.8570 H   0  0  0  0  0  0  0  0  0  0  0  0
    3.6602    0.5976    4.2636 H   0  0  0  0  0  0  0  0  0  0  0  0
    6.4149    2.2081    1.7095 H   0  0  0  0  0  0  0  0  0  0  0  0
    6.2276   -1.0902    0.8856 H   0  0  0  0  0  0  0  0  0  0  0  0
    6.9892   -0.5413   -0.5951 H   0  0  0  0  0  0  0  0  0  0  0  0
    7.2438   -2.1396   -2.5954 H   0  0  0  0  0  0  0  0  0  0  0  0
    6.7010   -3.8182   -2.4592 H   0  0  0  0  0  0  0  0  0  0  0  0
    5.5224   -2.5286   -2.6624 H   0  0  0  0  0  0  0  0  0  0  0  0
    8.5747   -2.5022   -0.3918 H   0  0  0  0  0  0  0  0  0  0  0  0
    7.9568   -4.1532   -0.2821 H   0  0  0  0  0  0  0  0  0  0  0  0
    7.7372   -3.0386    1.0692 H   0  0  0  0  0  0  0  0  0  0  0  0
    4.2920   -3.3542   -0.5254 H   0  0  0  0  0  0  0  0  0  0  0  0
    5.4857   -4.6192   -0.2885 H   0  0  0  0  0  0  0  0  0  0  0  0
    5.1596   -3.4600    1.0090 H   0  0  0  0  0  0  0  0  0  0  0  0
  1  2  2  0  0  0  0 
  1  6  1  0  0  0  0 
  2  3  1  0  0  0  0 
  3  4  2  0  0  0  0 
  4  5  1  0  0  0  0 
  5  6  2  0  0  0  0 
  3  7  1  0  0  0  0 
  6  8  1  0  0  0  0 
  9  8  1  0  0  0  0 
  9 10  1  0  0  0  0 
 11 12  2  0  0  0  0 
 12 13  1  0  0  0  0 
 13 14  2  0  0  0  0 
 10 11  1  0  0  0  0 
 10 14  1  0  0  0  0 
  9 15  1  0  0  0  0 
 15 16  1  0  0  0  0 
 15 17  2  0  0  0  0 
 16 18  1  0  0  0  0 
 18 19  1  0  0  0  0 
 18 20  1  0  0  0  0 
 18 21  1  0  0  0  0 
  1 22  1  0  0  0  0 
  2 23  1  0  0  0  0 
  4 24  1  0  0  0  0 
  5 25  1  0  0  0  0 
  9 26  1  0  0  0  0 
 11 27  1  0  0  0  0 
 12 28  1  0  0  0  0 
 14 29  1  0  0  0  0 
 16 30  1  0  0  0  0 
 16 31  1  0  0  0  0 
 19 32  1  0  0  0  0 
 19 33  1  0  0  0  0 
 19 34  1  0  0  0  0 
 20 35  1  0  0  0  0 
 20 36  1  0  0  0  0 
 20 37  1  0  0  0  0 
 21 38  1  0  0  0  0 
 21 39  1  0  0  0  0 
 21 40  1  0  0  0  0 
M  END
> <cdk:Title>
climbazole

> <Conformer>
1

> <SuperDrugID>
SD003894

$$$$
