tretamine
  CDK     0628171801

 27 30  0  0  0  0  0  0  0  0999 V2000
   -0.5538    2.1324    3.1438 C   0  0  0  0  0  0  0  0  0  0  0  0
    0.4466    2.7299    3.8445 N   0  0  0  0  0  0  0  0  0  0  0  0
   -0.3370    1.8076    1.8409 N   0  0  0  0  0  0  0  0  0  0  0  0
   -1.7730    1.8036    3.7832 N   0  0  2  0  0  0  0  0  0  0  0  0
    1.6382    3.0287    3.2616 C   0  0  0  0  0  0  0  0  0  0  0  0
    0.8543    2.0731    1.2421 C   0  0  0  0  0  0  0  0  0  0  0  0
   -2.9828    2.3461    3.1162 C   0  0  1  0  0  0  0  0  0  0  0  0
   -2.4671    2.9610    4.4023 C   0  0  1  0  0  0  0  0  0  0  0  0
    1.8301    2.6846    1.9628 N   0  0  0  0  0  0  0  0  0  0  0  0
    2.6767    3.6408    4.0042 N   0  0  2  0  0  0  0  0  0  0  0  0
    1.0768    1.7707   -0.1220 N   0  0  2  0  0  0  0  0  0  0  0  0
    2.2934    4.9657    4.5552 C   0  0  1  0  0  0  0  0  0  0  0  0
    3.2457    4.8647    3.3813 C   0  0  1  0  0  0  0  0  0  0  0  0
    0.8323    0.3543   -0.4904 C   0  0  1  0  0  0  0  0  0  0  0  0
    2.2458    0.8794   -0.3343 C   0  0  1  0  0  0  0  0  0  0  0  0
   -2.8771    2.9839    2.2318 H   0  0  0  0  0  0  0  0  0  0  0  0
   -3.8878    1.7481    3.2314 H   0  0  0  0  0  0  0  0  0  0  0  0
   -3.0793    2.7400    5.2778 H   0  0  0  0  0  0  0  0  0  0  0  0
   -2.0653    3.9719    4.2818 H   0  0  0  0  0  0  0  0  0  0  0  0
    1.3144    5.3885    4.3114 H   0  0  0  0  0  0  0  0  0  0  0  0
    2.7648    5.2359    5.5004 H   0  0  0  0  0  0  0  0  0  0  0  0
    4.2913    5.0744    3.6210 H   0  0  0  0  0  0  0  0  0  0  0  0
    2.8440    5.2224    2.4278 H   0  0  0  0  0  0  0  0  0  0  0  0
    0.5065   -0.3509    0.2818 H   0  0  0  0  0  0  0  0  0  0  0  0
    0.5226    0.1893   -1.5240 H   0  0  0  0  0  0  0  0  0  0  0  0
    2.7826    1.0155   -1.2747 H   0  0  0  0  0  0  0  0  0  0  0  0
    2.7858    0.4697    0.5273 H   0  0  0  0  0  0  0  0  0  0  0  0
  1  2  2  0  0  0  0 
  1  3  1  0  0  0  0 
  1  4  1  0  0  0  0 
  2  5  1  0  0  0  0 
  3  6  2  0  0  0  0 
  4  7  1  0  0  0  0 
  4  8  1  0  0  0  0 
  5  9  2  0  0  0  0 
  5 10  1  0  0  0  0 
  6  9  1  0  0  0  0 
  6 11  1  0  0  0  0 
  7  8  1  0  0  0  0 
 10 12  1  0  0  0  0 
 10 13  1  0  0  0  0 
 11 14  1  0  0  0  0 
 11 15  1  0  0  0  0 
 12 13  1  0  0  0  0 
 14 15  1  0  0  0  0 
  7 16  1  0  0  0  0 
  7 17  1  0  0  0  0 
  8 18  1  0  0  0  0 
  8 19  1  0  0  0  0 
 12 20  1  0  0  0  0 
 12 21  1  0  0  0  0 
 13 22  1  0  0  0  0 
 13 23  1  0  0  0  0 
 14 24  1  0  0  0  0 
 14 25  1  0  0  0  0 
 15 26  1  0  0  0  0 
 15 27  1  0  0  0  0 
M  END
> <cdk:Title>
tretamine

> <Conformer>
1

> <SuperDrugID>
SD002469

$$$$
