trimethyldiphenylpropylamine
  CDK     0628171802

 42 43  0  0  0  0  0  0  0  0999 V2000
    1.3944   -0.9746    0.4691 C   0  0  2  0  0  0  0  0  0  0  0  0
    0.0228   -1.2524   -0.2338 C   0  0  2  0  0  0  0  0  0  0  0  0
    1.7771    0.4734    0.4499 C   0  0  0  0  0  0  0  0  0  0  0  0
    2.5578   -1.8127    0.0164 C   0  0  0  0  0  0  0  0  0  0  0  0
   -1.2299   -0.6222    0.4651 C   0  0  1  0  0  0  0  0  0  0  0  0
    1.8877    1.2020    1.6605 C   0  0  0  0  0  0  0  0  0  0  0  0
    2.0222    1.1586   -0.7676 C   0  0  0  0  0  0  0  0  0  0  0  0
    2.6809   -2.3472   -1.2915 C   0  0  0  0  0  0  0  0  0  0  0  0
    3.6025   -2.0806    0.9369 C   0  0  0  0  0  0  0  0  0  0  0  0
   -1.2393    0.8892    0.4279 N   0  0  2  0  0  0  0  0  0  0  0  0
   -2.5426   -1.2623   -0.0687 C   0  0  0  0  0  0  0  0  0  0  0  0
    2.2061    2.5717    1.6550 C   0  0  0  0  0  0  0  0  0  0  0  0
    2.3568    2.5260   -0.7719 C   0  0  0  0  0  0  0  0  0  0  0  0
    3.8036   -3.1136   -1.6607 C   0  0  0  0  0  0  0  0  0  0  0  0
    4.7213   -2.8501    0.5734 C   0  0  0  0  0  0  0  0  0  0  0  0
   -1.8836    1.5349    1.6112 C   0  0  0  0  0  0  0  0  0  0  0  0
   -1.5731    1.5482   -0.8716 C   0  0  0  0  0  0  0  0  0  0  0  0
    2.4483    3.2334    0.4395 C   0  0  0  0  0  0  0  0  0  0  0  0
    4.8248   -3.3651   -0.7287 C   0  0  0  0  0  0  0  0  0  0  0  0
    1.2091   -1.2809    1.5050 H   0  0  0  0  0  0  0  0  0  0  0  0
   -0.1087   -2.3384   -0.2495 H   0  0  0  0  0  0  0  0  0  0  0  0
    0.0561   -0.9326   -1.2743 H   0  0  0  0  0  0  0  0  0  0  0  0
   -1.1613   -0.9382    1.5114 H   0  0  0  0  0  0  0  0  0  0  0  0
    1.7295    0.7419    2.5611 H   0  0  0  0  0  0  0  0  0  0  0  0
    1.9497    0.6681   -1.6625 H   0  0  0  0  0  0  0  0  0  0  0  0
    1.9581   -2.1864   -1.9926 H   0  0  0  0  0  0  0  0  0  0  0  0
    3.5554   -1.7159    1.8904 H   0  0  0  0  0  0  0  0  0  0  0  0
   -3.4095   -0.8093    0.4100 H   0  0  0  0  0  0  0  0  0  0  0  0
   -2.5629   -2.3326    0.1450 H   0  0  0  0  0  0  0  0  0  0  0  0
   -2.6270   -1.1275   -1.1473 H   0  0  0  0  0  0  0  0  0  0  0  0
    2.2634    3.0846    2.5375 H   0  0  0  0  0  0  0  0  0  0  0  0
    2.5353    3.0068   -1.6565 H   0  0  0  0  0  0  0  0  0  0  0  0
    3.8808   -3.4895   -2.6083 H   0  0  0  0  0  0  0  0  0  0  0  0
    5.4604   -3.0333    1.2556 H   0  0  0  0  0  0  0  0  0  0  0  0
   -1.8504    2.6239    1.5416 H   0  0  0  0  0  0  0  0  0  0  0  0
   -2.9248    1.2240    1.7140 H   0  0  0  0  0  0  0  0  0  0  0  0
   -1.3445    1.2565    2.5183 H   0  0  0  0  0  0  0  0  0  0  0  0
   -0.9217    1.1844   -1.6642 H   0  0  0  0  0  0  0  0  0  0  0  0
   -2.6106    1.3670   -1.1570 H   0  0  0  0  0  0  0  0  0  0  0  0
   -1.4206    2.6273   -0.8062 H   0  0  0  0  0  0  0  0  0  0  0  0
    2.6976    4.2247    0.4371 H   0  0  0  0  0  0  0  0  0  0  0  0
    5.6423   -3.9191   -0.9973 H   0  0  0  0  0  0  0  0  0  0  0  0
  1  2  1  0  0  0  0 
  1  3  1  0  0  0  0 
  1  4  1  0  0  0  0 
  2  5  1  0  0  0  0 
  3  6  2  0  0  0  0 
  3  7  1  0  0  0  0 
  4  8  2  0  0  0  0 
  4  9  1  0  0  0  0 
  5 10  1  0  0  0  0 
  5 11  1  0  0  0  0 
  6 12  1  0  0  0  0 
  7 13  2  0  0  0  0 
  8 14  1  0  0  0  0 
  9 15  2  0  0  0  0 
 10 16  1  0  0  0  0 
 10 17  1  0  0  0  0 
 12 18  2  0  0  0  0 
 13 18  1  0  0  0  0 
 14 19  2  0  0  0  0 
 15 19  1  0  0  0  0 
  1 20  1  0  0  0  0 
  2 21  1  0  0  0  0 
  2 22  1  0  0  0  0 
  5 23  1  0  0  0  0 
  6 24  1  0  0  0  0 
  7 25  1  0  0  0  0 
  8 26  1  0  0  0  0 
  9 27  1  0  0  0  0 
 11 28  1  0  0  0  0 
 11 29  1  0  0  0  0 
 11 30  1  0  0  0  0 
 12 31  1  0  0  0  0 
 13 32  1  0  0  0  0 
 14 33  1  0  0  0  0 
 15 34  1  0  0  0  0 
 16 35  1  0  0  0  0 
 16 36  1  0  0  0  0 
 16 37  1  0  0  0  0 
 17 38  1  0  0  0  0 
 17 39  1  0  0  0  0 
 17 40  1  0  0  0  0 
 18 41  1  0  0  0  0 
 19 42  1  0  0  0  0 
M  END
> <cdk:Title>
trimethyldiphenylpropylamine

> <Conformer>
1

> <SuperDrugID>
SD003739

$$$$
