atazanavir
  CDK     0628171801

103105  0  0  0  0  0  0  0  0999 V2000
   -8.0870   -1.6254   -1.1528 N   0  0  2  0  0  0  0  0  0  0  0  0
   -7.7845   -0.9073   -2.4367 C   0  0  2  0  0  0  0  0  0  0  0  0
   -6.8847   -1.8678   -0.2770 C   0  0  2  0  0  0  0  0  0  0  0  0
   -8.7186   -2.8101   -1.4026 N   0  0  0  0  0  0  0  0  0  0  0  0
   -8.9246   -0.6773   -3.3736 C   0  0  0  0  0  0  0  0  0  0  0  0
   -6.0114   -0.5785    0.0860 C   0  0  1  0  0  0  0  0  0  0  0  0
   -9.8991   -3.2707   -0.8937 C   0  0  0  0  0  0  0  0  0  0  0  0
   -9.6072    0.5578   -3.3993 C   0  0  0  0  0  0  0  0  0  0  0  0
   -9.3266   -1.6716   -4.2934 C   0  0  0  0  0  0  0  0  0  0  0  0
   -5.2954   -0.6225    1.4881 C   0  0  2  0  0  0  0  0  0  0  0  0
   -4.9844   -0.2583   -0.9059 O   0  0  0  0  0  0  0  0  0  0  0  0
  -10.8038   -2.6511    0.1293 C   0  0  1  0  0  0  0  0  0  0  0  0
  -10.2277   -4.3887   -1.3547 O   0  0  0  0  0  0  0  0  0  0  0  0
  -10.6564    0.7859   -4.3066 C   0  0  0  0  0  0  0  0  0  0  0  0
  -10.3807   -1.4416   -5.1976 C   0  0  0  0  0  0  0  0  0  0  0  0
   -6.2525   -0.6344    2.7300 C   0  0  2  0  0  0  0  0  0  0  0  0
   -4.3078    0.4331    1.5591 N   0  0  0  0  0  0  0  0  0  0  0  0
   -9.9868   -2.2659    1.2446 N   0  0  0  0  0  0  0  0  0  0  0  0
  -11.7704   -1.4849   -0.3591 C   0  0  2  0  0  0  0  0  0  0  0  0
  -11.0752   -0.2028   -5.2365 C   0  0  0  0  0  0  0  0  0  0  0  0
   -6.9865    0.6291    3.0326 C   0  0  0  0  0  0  0  0  0  0  0  0
   -3.3168    0.5921    2.4873 C   0  0  0  0  0  0  0  0  0  0  0  0
  -10.2474   -2.4407    2.5648 C   0  0  0  0  0  0  0  0  0  0  0  0
  -13.0596   -1.4445    0.5327 C   0  0  0  0  0  0  0  0  0  0  0  0
  -12.2647   -1.6970   -1.8295 C   0  0  0  0  0  0  0  0  0  0  0  0
  -11.0981   -0.0776   -0.2382 C   0  0  0  0  0  0  0  0  0  0  0  0
  -12.1515    0.0638   -6.1553 C   0  0  0  0  0  0  0  0  0  0  0  0
   -6.5373    1.5001    4.0552 C   0  0  0  0  0  0  0  0  0  0  0  0
   -8.1757    0.9681    2.3432 C   0  0  0  0  0  0  0  0  0  0  0  0
   -2.2115    1.5798    2.3007 C   0  0  1  0  0  0  0  0  0  0  0  0
   -3.2692   -0.1593    3.4900 O   0  0  0  0  0  0  0  0  0  0  0  0
   -9.3096   -1.9350    3.4094 O   0  0  0  0  0  0  0  0  0  0  0  0
  -11.2742   -3.0211    2.9902 O   0  0  0  0  0  0  0  0  0  0  0  0
  -12.5027   -0.7661   -7.2545 C   0  0  0  0  0  0  0  0  0  0  0  0
  -12.9047    1.1913   -5.9815 N   0  0  0  0  0  0  0  0  0  0  0  0
   -7.2282    2.6904    4.3510 C   0  0  0  0  0  0  0  0  0  0  0  0
   -8.8771    2.1506    2.6474 C   0  0  0  0  0  0  0  0  0  0  0  0
   -1.4594    1.1258    1.1604 N   0  0  0  0  0  0  0  0  0  0  0  0
   -2.5897    3.1140    2.1736 C   0  0  2  0  0  0  0  0  0  0  0  0
   -9.3164   -1.8315    4.8335 C   0  0  0  0  0  0  0  0  0  0  0  0
  -13.5804   -0.4218   -8.0921 C   0  0  0  0  0  0  0  0  0  0  0  0
  -13.9457    1.5635   -6.7673 C   0  0  0  0  0  0  0  0  0  0  0  0
   -8.3998    3.0159    3.6472 C   0  0  0  0  0  0  0  0  0  0  0  0
   -0.1997    0.6069    1.1742 C   0  0  0  0  0  0  0  0  0  0  0  0
   -3.3978    3.5838    3.4270 C   0  0  0  0  0  0  0  0  0  0  0  0
   -3.4260    3.4429    0.8893 C   0  0  0  0  0  0  0  0  0  0  0  0
   -1.2685    3.9615    2.1260 C   0  0  0  0  0  0  0  0  0  0  0  0
  -14.3106    0.7531   -7.8527 C   0  0  0  0  0  0  0  0  0  0  0  0
    0.3446    0.2391   -0.0236 O   0  0  0  0  0  0  0  0  0  0  0  0
    0.4466    0.4587    2.2391 O   0  0  0  0  0  0  0  0  0  0  0  0
    1.6354   -0.3499   -0.2263 C   0  0  0  0  0  0  0  0  0  0  0  0
   -6.9947   -1.4357   -2.9816 H   0  0  0  0  0  0  0  0  0  0  0  0
   -7.3772    0.0723   -2.1795 H   0  0  0  0  0  0  0  0  0  0  0  0
   -6.2090   -2.5753   -0.7695 H   0  0  0  0  0  0  0  0  0  0  0  0
   -7.2293   -2.3604    0.6304 H   0  0  0  0  0  0  0  0  0  0  0  0
   -8.2685   -3.4028   -2.0236 H   0  0  0  0  0  0  0  0  0  0  0  0
   -6.6786    0.2836    0.0940 H   0  0  0  0  0  0  0  0  0  0  0  0
   -9.3425    1.3076   -2.7549 H   0  0  0  0  0  0  0  0  0  0  0  0
   -8.8522   -2.5770   -4.3158 H   0  0  0  0  0  0  0  0  0  0  0  0
   -4.7366   -1.5644    1.5060 H   0  0  0  0  0  0  0  0  0  0  0  0
   -5.4540   -0.1971   -1.7620 H   0  0  0  0  0  0  0  0  0  0  0  0
  -11.4535   -3.4699    0.4661 H   0  0  0  0  0  0  0  0  0  0  0  0
  -11.1090    1.7018   -4.2752 H   0  0  0  0  0  0  0  0  0  0  0  0
  -10.6325   -2.2103   -5.8191 H   0  0  0  0  0  0  0  0  0  0  0  0
   -5.6666   -0.9185    3.6051 H   0  0  0  0  0  0  0  0  0  0  0  0
   -6.9718   -1.4416    2.6318 H   0  0  0  0  0  0  0  0  0  0  0  0
   -4.3147    1.0707    0.8304 H   0  0  0  0  0  0  0  0  0  0  0  0
   -9.1704   -1.7879    1.0342 H   0  0  0  0  0  0  0  0  0  0  0  0
  -12.8104   -1.3689    1.5912 H   0  0  0  0  0  0  0  0  0  0  0  0
  -13.6818   -0.5829    0.2794 H   0  0  0  0  0  0  0  0  0  0  0  0
  -13.6656   -2.3437    0.3953 H   0  0  0  0  0  0  0  0  0  0  0  0
  -11.4251   -1.7270   -2.5124 H   0  0  0  0  0  0  0  0  0  0  0  0
  -12.9222   -0.8870   -2.1560 H   0  0  0  0  0  0  0  0  0  0  0  0
  -12.8120   -2.6363   -1.9292 H   0  0  0  0  0  0  0  0  0  0  0  0
  -10.1424   -0.0576   -0.7474 H   0  0  0  0  0  0  0  0  0  0  0  0
  -11.7282    0.7061   -0.6642 H   0  0  0  0  0  0  0  0  0  0  0  0
  -10.9210    0.1797    0.8068 H   0  0  0  0  0  0  0  0  0  0  0  0
   -5.6958    1.2784    4.5937 H   0  0  0  0  0  0  0  0  0  0  0  0
   -8.5450    0.3501    1.6184 H   0  0  0  0  0  0  0  0  0  0  0  0
   -1.5778    1.5039    3.1932 H   0  0  0  0  0  0  0  0  0  0  0  0
  -11.9899   -1.6203   -7.4708 H   0  0  0  0  0  0  0  0  0  0  0  0
   -6.8778    3.3190    5.0781 H   0  0  0  0  0  0  0  0  0  0  0  0
   -9.7363    2.3796    2.1421 H   0  0  0  0  0  0  0  0  0  0  0  0
   -1.8918    1.1982    0.2945 H   0  0  0  0  0  0  0  0  0  0  0  0
   -8.5607   -2.4976    5.2499 H   0  0  0  0  0  0  0  0  0  0  0  0
  -10.2913   -2.0745    5.2544 H   0  0  0  0  0  0  0  0  0  0  0  0
   -9.0615   -0.8042    5.0971 H   0  0  0  0  0  0  0  0  0  0  0  0
  -13.8345   -1.0261   -8.8775 H   0  0  0  0  0  0  0  0  0  0  0  0
  -14.4567    2.4251   -6.5649 H   0  0  0  0  0  0  0  0  0  0  0  0
   -8.9024    3.8792    3.8652 H   0  0  0  0  0  0  0  0  0  0  0  0
   -2.8586    3.3540    4.3488 H   0  0  0  0  0  0  0  0  0  0  0  0
   -4.3631    3.0861    3.4646 H   0  0  0  0  0  0  0  0  0  0  0  0
   -3.5842    4.6608    3.4006 H   0  0  0  0  0  0  0  0  0  0  0  0
   -4.4329    3.0298    0.9520 H   0  0  0  0  0  0  0  0  0  0  0  0
   -3.5337    4.5219    0.7561 H   0  0  0  0  0  0  0  0  0  0  0  0
   -2.9461    3.0451   -0.0065 H   0  0  0  0  0  0  0  0  0  0  0  0
   -1.4834    5.0329    2.0912 H   0  0  0  0  0  0  0  0  0  0  0  0
   -0.6550    3.7752    3.0110 H   0  0  0  0  0  0  0  0  0  0  0  0
   -0.6724    3.7163    1.2444 H   0  0  0  0  0  0  0  0  0  0  0  0
  -15.0934    1.0137   -8.4562 H   0  0  0  0  0  0  0  0  0  0  0  0
    1.7038   -1.2985    0.3081 H   0  0  0  0  0  0  0  0  0  0  0  0
    1.7846   -0.5355   -1.2906 H   0  0  0  0  0  0  0  0  0  0  0  0
    2.4194    0.3221    0.1261 H   0  0  0  0  0  0  0  0  0  0  0  0
  1  2  1  0  0  0  0 
  1  3  1  0  0  0  0 
  1  4  1  0  0  0  0 
  2  5  1  0  0  0  0 
  6  3  1  0  0  0  0 
  4  7  1  0  0  0  0 
  5  8  2  0  0  0  0 
  5  9  1  0  0  0  0 
  6 10  1  0  0  0  0 
  6 11  1  0  0  0  0 
  7 13  2  0  0  0  0 
  8 14  1  0  0  0  0 
  9 15  2  0  0  0  0 
 10 16  1  0  0  0  0 
 10 17  1  0  0  0  0 
 12  7  1  0  0  0  0 
 12 18  1  0  0  0  0 
 12 19  1  0  0  0  0 
 14 20  2  0  0  0  0 
 15 20  1  0  0  0  0 
 16 21  1  0  0  0  0 
 17 22  1  0  0  0  0 
 18 23  1  0  0  0  0 
 19 24  1  0  0  0  0 
 19 25  1  0  0  0  0 
 19 26  1  0  0  0  0 
 20 27  1  0  0  0  0 
 21 28  2  0  0  0  0 
 21 29  1  0  0  0  0 
 22 31  2  0  0  0  0 
 23 32  1  0  0  0  0 
 23 33  2  0  0  0  0 
 27 34  2  0  0  0  0 
 27 35  1  0  0  0  0 
 28 36  1  0  0  0  0 
 29 37  2  0  0  0  0 
 30 22  1  0  0  0  0 
 30 38  1  0  0  0  0 
 30 39  1  0  0  0  0 
 32 40  1  0  0  0  0 
 34 41  1  0  0  0  0 
 35 42  2  0  0  0  0 
 36 43  2  0  0  0  0 
 37 43  1  0  0  0  0 
 38 44  1  0  0  0  0 
 39 45  1  0  0  0  0 
 39 46  1  0  0  0  0 
 39 47  1  0  0  0  0 
 41 48  2  0  0  0  0 
 42 48  1  0  0  0  0 
 44 49  1  0  0  0  0 
 44 50  2  0  0  0  0 
 49 51  1  0  0  0  0 
 52  2  1  0  0  0  0 
 53  2  1  0  0  0  0 
 54  3  1  0  0  0  0 
 55  3  1  0  0  0  0 
 56  4  1  0  0  0  0 
  6 57  1  0  0  0  0 
 58  8  1  0  0  0  0 
 59  9  1  0  0  0  0 
 10 60  1  0  0  0  0 
 61 11  1  0  0  0  0 
 12 62  1  0  0  0  0 
 63 14  1  0  0  0  0 
 64 15  1  0  0  0  0 
 65 16  1  0  0  0  0 
 66 16  1  0  0  0  0 
 67 17  1  0  0  0  0 
 68 18  1  0  0  0  0 
 69 24  1  0  0  0  0 
 70 24  1  0  0  0  0 
 71 24  1  0  0  0  0 
 72 25  1  0  0  0  0 
 73 25  1  0  0  0  0 
 74 25  1  0  0  0  0 
 75 26  1  0  0  0  0 
 76 26  1  0  0  0  0 
 77 26  1  0  0  0  0 
 78 28  1  0  0  0  0 
 79 29  1  0  0  0  0 
 30 80  1  0  0  0  0 
 81 34  1  0  0  0  0 
 82 36  1  0  0  0  0 
 83 37  1  0  0  0  0 
 84 38  1  0  0  0  0 
 85 40  1  0  0  0  0 
 86 40  1  0  0  0  0 
 87 40  1  0  0  0  0 
 88 41  1  0  0  0  0 
 89 42  1  0  0  0  0 
 90 43  1  0  0  0  0 
 91 45  1  0  0  0  0 
 92 45  1  0  0  0  0 
 93 45  1  0  0  0  0 
 94 46  1  0  0  0  0 
 95 46  1  0  0  0  0 
 96 46  1  0  0  0  0 
 97 47  1  0  0  0  0 
 98 47  1  0  0  0  0 
 99 47  1  0  0  0  0 
100 48  1  0  0  0  0 
101 51  1  0  0  0  0 
102 51  1  0  0  0  0 
103 51  1  0  0  0  0 
M  END
> <cdk:Title>
atazanavir

> <Conformer>
1

> <SuperDrugID>
SD000210

$$$$
