amitriptylinoxide
  CDK     0628171801

 45 47  0  0  0  0  0  0  0  0999 V2000
   -2.8681    0.4705    1.8045 C   0  0  0  0  0  0  0  0  0  0  0  0
   -1.6827   -0.2618    1.3671 C   0  0  1  0  0  0  0  0  0  0  0  0
   -3.2581    0.7582    3.0701 C   0  0  0  0  0  0  0  0  0  0  0  0
   -2.0737   -1.6007    0.6652 C   0  0  2  0  0  0  0  0  0  0  0  0
   -2.5760    0.3703    4.2325 C   0  0  0  0  0  0  0  0  0  0  0  0
   -4.4397    1.4794    3.2585 C   0  0  0  0  0  0  0  0  0  0  0  0
   -0.9526   -2.4272    0.0827 N   0  0  2  0  0  0  0  0  0  0  0  0
   -2.1328    1.2916    5.2370 C   0  0  0  0  0  0  0  0  0  0  0  0
   -2.3869   -1.0189    4.4486 C   0  0  0  0  0  0  0  0  0  0  0  0
   -4.4129    2.8060    3.7697 C   0  0  0  0  0  0  0  0  0  0  0  0
   -5.6848    0.8788    2.9473 C   0  0  0  0  0  0  0  0  0  0  0  0
   -0.2805   -1.7581   -1.0794 C   0  0  0  0  0  0  0  0  0  0  0  0
   -1.4523   -3.7896   -0.3075 C   0  0  0  0  0  0  0  0  0  0  0  0
   -0.0020   -2.6254    1.0414 O   0  0  0  0  0  0  0  0  0  0  0  0
   -2.3487    2.7779    5.2353 C   0  0  1  0  0  0  0  0  0  0  0  0
   -1.4532    0.7798    6.3739 C   0  0  0  0  0  0  0  0  0  0  0  0
   -1.7329   -1.4985    5.5929 C   0  0  0  0  0  0  0  0  0  0  0  0
   -3.1079    3.4588    4.0661 C   0  0  2  0  0  0  0  0  0  0  0  0
   -5.6349    3.4897    3.9821 C   0  0  0  0  0  0  0  0  0  0  0  0
   -6.8885    1.5707    3.1669 C   0  0  0  0  0  0  0  0  0  0  0  0
   -1.2537   -0.5977    6.5513 C   0  0  0  0  0  0  0  0  0  0  0  0
   -6.8642    2.8758    3.6842 C   0  0  0  0  0  0  0  0  0  0  0  0
   -3.4418    0.7960    1.0559 H   0  0  0  0  0  0  0  0  0  0  0  0
   -1.1532    0.3779    0.6631 H   0  0  0  0  0  0  0  0  0  0  0  0
   -0.9928   -0.4636    2.1879 H   0  0  0  0  0  0  0  0  0  0  0  0
   -2.7906   -1.3780   -0.1346 H   0  0  0  0  0  0  0  0  0  0  0  0
   -2.6115   -2.2012    1.4082 H   0  0  0  0  0  0  0  0  0  0  0  0
   -2.7365   -1.7042    3.7759 H   0  0  0  0  0  0  0  0  0  0  0  0
   -5.7259   -0.0710    2.5652 H   0  0  0  0  0  0  0  0  0  0  0  0
    0.2055   -0.8294   -0.7782 H   0  0  0  0  0  0  0  0  0  0  0  0
   -0.9991   -1.5251   -1.8706 H   0  0  0  0  0  0  0  0  0  0  0  0
    0.4996   -2.3929   -1.5076 H   0  0  0  0  0  0  0  0  0  0  0  0
   -1.8303   -4.3297    0.5649 H   0  0  0  0  0  0  0  0  0  0  0  0
   -2.2638   -3.7185   -1.0364 H   0  0  0  0  0  0  0  0  0  0  0  0
   -0.6599   -4.3997   -0.7484 H   0  0  0  0  0  0  0  0  0  0  0  0
   -2.8927    3.0333    6.1508 H   0  0  0  0  0  0  0  0  0  0  0  0
   -1.3692    3.2608    5.2982 H   0  0  0  0  0  0  0  0  0  0  0  0
   -1.1039    1.4141    7.0988 H   0  0  0  0  0  0  0  0  0  0  0  0
   -1.6061   -2.5033    5.7259 H   0  0  0  0  0  0  0  0  0  0  0  0
   -3.2493    4.5138    4.3206 H   0  0  0  0  0  0  0  0  0  0  0  0
   -2.4846    3.4421    3.1688 H   0  0  0  0  0  0  0  0  0  0  0  0
   -5.6417    4.4408    4.3596 H   0  0  0  0  0  0  0  0  0  0  0  0
   -7.7818    1.1221    2.9526 H   0  0  0  0  0  0  0  0  0  0  0  0
   -0.7640   -0.9440    7.3797 H   0  0  0  0  0  0  0  0  0  0  0  0
   -7.7409    3.3807    3.8416 H   0  0  0  0  0  0  0  0  0  0  0  0
  1  2  1  0  0  0  0 
  1  3  2  0  0  0  0 
  2  4  1  0  0  0  0 
  3  5  1  0  0  0  0 
  3  6  1  0  0  0  0 
  4  7  1  0  0  0  0 
  5  8  2  0  0  0  0 
  5  9  1  0  0  0  0 
  6 10  2  0  0  0  0 
  6 11  1  0  0  0  0 
  7 12  1  0  0  0  0 
  7 13  1  0  0  0  0 
  7 14  1  0  0  0  0 
  8 15  1  0  0  0  0 
  8 16  1  0  0  0  0 
  9 17  2  0  0  0  0 
 10 18  1  0  0  0  0 
 10 19  1  0  0  0  0 
 11 20  2  0  0  0  0 
 15 18  1  0  0  0  0 
 16 21  2  0  0  0  0 
 17 21  1  0  0  0  0 
 19 22  2  0  0  0  0 
 20 22  1  0  0  0  0 
  1 23  1  0  0  0  0 
  2 24  1  0  0  0  0 
  2 25  1  0  0  0  0 
  4 26  1  0  0  0  0 
  4 27  1  0  0  0  0 
  9 28  1  0  0  0  0 
 11 29  1  0  0  0  0 
 12 30  1  0  0  0  0 
 12 31  1  0  0  0  0 
 12 32  1  0  0  0  0 
 13 33  1  0  0  0  0 
 13 34  1  0  0  0  0 
 13 35  1  0  0  0  0 
 15 36  1  0  0  0  0 
 15 37  1  0  0  0  0 
 16 38  1  0  0  0  0 
 17 39  1  0  0  0  0 
 18 40  1  0  0  0  0 
 18 41  1  0  0  0  0 
 19 42  1  0  0  0  0 
 20 43  1  0  0  0  0 
 21 44  1  0  0  0  0 
 22 45  1  0  0  0  0 
M  CHG  1   7   1
M  CHG  1  14  -1
M  END
> <cdk:Title>
amitriptylinoxide

> <Conformer>
1

> <SuperDrugID>
SD000146

$$$$
