linolenic acid
  CDK     0628171802

 50 49  0  0  0  0  0  0  0  0999 V2000
    1.3925    0.0536    3.2584 C   0  0  2  0  0  0  0  0  0  0  0  0
    2.6865   -0.7303    3.6238 C   0  0  2  0  0  0  0  0  0  0  0  0
    0.1239   -0.8177    3.4637 C   0  0  2  0  0  0  0  0  0  0  0  0
    3.9307   -0.0584    3.2721 C   0  0  0  0  0  0  0  0  0  0  0  0
   -1.2096   -0.1177    3.0877 C   0  0  1  0  0  0  0  0  0  0  0  0
    5.1589   -0.5767    3.4641 C   0  0  0  0  0  0  0  0  0  0  0  0
   -2.4200   -1.0799    3.2388 C   0  0  2  0  0  0  0  0  0  0  0  0
    5.4436   -1.8548    4.1178 C   0  0  2  0  0  0  0  0  0  0  0  0
   -3.7758   -0.4281    2.8610 C   0  0  2  0  0  0  0  0  0  0  0  0
    6.8362   -2.2773    4.0086 C   0  0  0  0  0  0  0  0  0  0  0  0
   -4.9622   -1.4150    3.0327 C   0  0  2  0  0  0  0  0  0  0  0  0
    7.8421   -1.9494    4.8414 C   0  0  0  0  0  0  0  0  0  0  0  0
   -6.2627   -0.8018    2.7077 C   0  0  0  0  0  0  0  0  0  0  0  0
    7.7562   -1.0927    6.0185 C   0  0  1  0  0  0  0  0  0  0  0  0
   -7.1886   -0.6034    3.6735 O   0  0  0  0  0  0  0  0  0  0  0  0
   -6.5342   -0.4628    1.5336 O   0  0  0  0  0  0  0  0  0  0  0  0
    7.3944    0.2918    5.7424 C   0  0  0  0  0  0  0  0  0  0  0  0
    8.0601    1.1594    4.9554 C   0  0  0  0  0  0  0  0  0  0  0  0
    9.2869    0.9063    4.2096 C   0  0  1  0  0  0  0  0  0  0  0  0
    9.0074    0.7197    2.6995 C   0  0  0  0  0  0  0  0  0  0  0  0
    1.4376    0.3613    2.2095 H   0  0  0  0  0  0  0  0  0  0  0  0
    1.3258    0.9528    3.8780 H   0  0  0  0  0  0  0  0  0  0  0  0
    2.6610   -1.6842    3.0911 H   0  0  0  0  0  0  0  0  0  0  0  0
    2.6834   -0.9354    4.6986 H   0  0  0  0  0  0  0  0  0  0  0  0
    0.0751   -1.1237    4.5122 H   0  0  0  0  0  0  0  0  0  0  0  0
    0.2238   -1.7182    2.8504 H   0  0  0  0  0  0  0  0  0  0  0  0
    3.8736    0.8454    2.8541 H   0  0  0  0  0  0  0  0  0  0  0  0
   -1.3575    0.7501    3.7359 H   0  0  0  0  0  0  0  0  0  0  0  0
   -1.1571    0.2310    2.0528 H   0  0  0  0  0  0  0  0  0  0  0  0
    5.9239   -0.0194    3.1532 H   0  0  0  0  0  0  0  0  0  0  0  0
   -2.4714   -1.4249    4.2757 H   0  0  0  0  0  0  0  0  0  0  0  0
   -2.2615   -1.9521    2.5978 H   0  0  0  0  0  0  0  0  0  0  0  0
    4.8294   -2.6362    3.6614 H   0  0  0  0  0  0  0  0  0  0  0  0
    5.1454   -1.7944    5.1682 H   0  0  0  0  0  0  0  0  0  0  0  0
   -3.7299   -0.0931    1.8203 H   0  0  0  0  0  0  0  0  0  0  0  0
   -3.9406    0.4461    3.4986 H   0  0  0  0  0  0  0  0  0  0  0  0
    7.0709   -2.8549    3.2312 H   0  0  0  0  0  0  0  0  0  0  0  0
   -4.9838   -1.7686    4.0673 H   0  0  0  0  0  0  0  0  0  0  0  0
   -4.8176   -2.2833    2.3845 H   0  0  0  0  0  0  0  0  0  0  0  0
    8.7423   -2.3214    4.6258 H   0  0  0  0  0  0  0  0  0  0  0  0
    7.0391   -1.5299    6.7196 H   0  0  0  0  0  0  0  0  0  0  0  0
    8.7207   -1.0895    6.5326 H   0  0  0  0  0  0  0  0  0  0  0  0
   -8.0541   -0.2024    3.4519 H   0  0  0  0  0  0  0  0  0  0  0  0
    6.5638    0.6333    6.1767 H   0  0  0  0  0  0  0  0  0  0  0  0
    7.6684    2.0719    4.8596 H   0  0  0  0  0  0  0  0  0  0  0  0
    9.9587    1.7586    4.3432 H   0  0  0  0  0  0  0  0  0  0  0  0
    9.8231    0.0292    4.5748 H   0  0  0  0  0  0  0  0  0  0  0  0
    9.9506    0.6532    2.1529 H   0  0  0  0  0  0  0  0  0  0  0  0
    8.4470   -0.2017    2.5268 H   0  0  0  0  0  0  0  0  0  0  0  0
    8.4328    1.5619    2.3063 H   0  0  0  0  0  0  0  0  0  0  0  0
  1  2  1  0  0  0  0 
  1  3  1  0  0  0  0 
  2  4  1  0  0  0  0 
  3  5  1  0  0  0  0 
  4  6  2  0  0  0  0 
  5  7  1  0  0  0  0 
  6  8  1  0  0  0  0 
  7  9  1  0  0  0  0 
  8 10  1  0  0  0  0 
  9 11  1  0  0  0  0 
 10 12  2  0  0  0  0 
 11 13  1  0  0  0  0 
 12 14  1  0  0  0  0 
 13 15  1  0  0  0  0 
 13 16  2  0  0  0  0 
 14 17  1  0  0  0  0 
 17 18  2  0  0  0  0 
 18 19  1  0  0  0  0 
 19 20  1  0  0  0  0 
  1 21  1  0  0  0  0 
  1 22  1  0  0  0  0 
  2 23  1  0  0  0  0 
  2 24  1  0  0  0  0 
  3 25  1  0  0  0  0 
  3 26  1  0  0  0  0 
  4 27  1  0  0  0  0 
  5 28  1  0  0  0  0 
  5 29  1  0  0  0  0 
  6 30  1  0  0  0  0 
  7 31  1  0  0  0  0 
  7 32  1  0  0  0  0 
  8 33  1  0  0  0  0 
  8 34  1  0  0  0  0 
  9 35  1  0  0  0  0 
  9 36  1  0  0  0  0 
 10 37  1  0  0  0  0 
 11 38  1  0  0  0  0 
 11 39  1  0  0  0  0 
 12 40  1  0  0  0  0 
 14 41  1  0  0  0  0 
 14 42  1  0  0  0  0 
 15 43  1  0  0  0  0 
 17 44  1  0  0  0  0 
 18 45  1  0  0  0  0 
 19 46  1  0  0  0  0 
 19 47  1  0  0  0  0 
 20 48  1  0  0  0  0 
 20 49  1  0  0  0  0 
 20 50  1  0  0  0  0 
M  END
> <cdk:Title>
linolenic acid

> <Conformer>
1

> <SuperDrugID>
SD003662

$$$$
