1-Octacosanol
  CDK     0628171802

 87 86  0  0  0  0  0  0  0  0999 V2000
   -9.5560   11.5748    3.7388 C   0  0  2  0  0  0  0  0  0  0  0  0
   -9.7355   11.3304    2.2181 C   0  0  1  0  0  0  0  0  0  0  0  0
   -8.5543   12.7237    4.0237 C   0  0  1  0  0  0  0  0  0  0  0  0
  -10.7329   10.1858    1.9059 C   0  0  2  0  0  0  0  0  0  0  0  0
   -8.3603   12.9845    5.5395 C   0  0  1  0  0  0  0  0  0  0  0  0
  -10.9015    9.9536    0.3798 C   0  0  1  0  0  0  0  0  0  0  0  0
   -7.3556   14.1365    5.8109 C   0  0  1  0  0  0  0  0  0  0  0  0
  -11.8975    8.8103    0.0581 C   0  0  2  0  0  0  0  0  0  0  0  0
   -7.1486   14.4120    7.3236 C   0  0  2  0  0  0  0  0  0  0  0  0
  -12.0652    8.5792   -1.4658 C   0  0  2  0  0  0  0  0  0  0  0  0
   -6.1455   15.5618    7.5866 C   0  0  2  0  0  0  0  0  0  0  0  0
  -13.0620    7.4353   -1.7756 C   0  0  1  0  0  0  0  0  0  0  0  0
   -5.9482   15.8289    9.1979 C   0  0  1  0  0  0  0  0  0  0  0  0
  -13.2329    7.2007   -3.2962 C   0  0  1  0  0  0  0  0  0  0  0  0
   -4.9432   16.9842    9.5833 C   0  0  2  0  0  0  0  0  0  0  0  0
  -14.2315    6.0551   -3.5877 C   0  0  1  0  0  0  0  0  0  0  0  0
   -4.7901   17.1987   11.1124 C   0  0  2  0  0  0  0  0  0  0  0  0
  -14.4052    5.8174   -5.1065 C   0  0  1  0  0  0  0  0  0  0  0  0
   -3.7954   18.3409   11.4455 C   0  0  2  0  0  0  0  0  0  0  0  0
  -15.4038    4.6720   -5.3982 C   0  0  1  0  0  0  0  0  0  0  0  0
   -3.6208   18.5798   12.9688 C   0  0  2  0  0  0  0  0  0  0  0  0
  -15.5792    4.4321   -6.9181 C   0  0  2  0  0  0  0  0  0  0  0  0
   -2.6208   19.7270   13.2647 C   0  0  2  0  0  0  0  0  0  0  0  0
  -16.5789    3.2855   -7.2108 C   0  0  2  0  0  0  0  0  0  0  0  0
   -2.4332   19.9806   14.7827 C   0  0  1  0  0  0  0  0  0  0  0  0
  -16.7630    3.0358   -8.7291 C   0  0  1  0  0  0  0  0  0  0  0  0
   -1.4341   21.1261   15.0529 C   0  0  2  0  0  0  0  0  0  0  0  0
  -17.7589    1.8934   -9.0240 C   0  0  0  0  0  0  0  0  0  0  0  0
   -1.2840   21.3338   16.4510 O   0  0  0  0  0  0  0  0  0  0  0  0
   -9.1934   10.6567    4.2089 H   0  0  0  0  0  0  0  0  0  0  0  0
  -10.5253   11.8257    4.1782 H   0  0  0  0  0  0  0  0  0  0  0  0
  -10.0952   12.2522    1.7510 H   0  0  0  0  0  0  0  0  0  0  0  0
   -8.7631   11.0831    1.7817 H   0  0  0  0  0  0  0  0  0  0  0  0
   -7.5868   12.4715    3.5794 H   0  0  0  0  0  0  0  0  0  0  0  0
   -8.9180   13.6398    3.5487 H   0  0  0  0  0  0  0  0  0  0  0  0
  -11.7071   10.4312    2.3405 H   0  0  0  0  0  0  0  0  0  0  0  0
  -10.3749    9.2620    2.3712 H   0  0  0  0  0  0  0  0  0  0  0  0
   -9.3275   13.2379    5.9846 H   0  0  0  0  0  0  0  0  0  0  0  0
   -7.9955   12.0689    6.0153 H   0  0  0  0  0  0  0  0  0  0  0  0
  -11.2579   10.8787   -0.0828 H   0  0  0  0  0  0  0  0  0  0  0  0
   -9.9263    9.7100   -0.0521 H   0  0  0  0  0  0  0  0  0  0  0  0
   -6.3940   13.8783    5.3587 H   0  0  0  0  0  0  0  0  0  0  0  0
   -7.7241   15.0457    5.3280 H   0  0  0  0  0  0  0  0  0  0  0  0
  -12.8719    9.0548    0.4902 H   0  0  0  0  0  0  0  0  0  0  0  0
  -11.5403    7.8861    0.5208 H   0  0  0  0  0  0  0  0  0  0  0  0
   -6.7750   13.5060    7.8088 H   0  0  0  0  0  0  0  0  0  0  0  0
   -8.1076   14.6756    7.7781 H   0  0  0  0  0  0  0  0  0  0  0  0
  -11.0930    8.3317   -1.9016 H   0  0  0  0  0  0  0  0  0  0  0  0
  -12.4250    9.5007   -1.9323 H   0  0  0  0  0  0  0  0  0  0  0  0
   -6.5046   16.4815    7.1188 H   0  0  0  0  0  0  0  0  0  0  0  0
   -5.1752   15.3148    7.1494 H   0  0  0  0  0  0  0  0  0  0  0  0
  -12.7044    6.5109   -1.3122 H   0  0  0  0  0  0  0  0  0  0  0  0
  -14.0367    7.6802   -1.3429 H   0  0  0  0  0  0  0  0  0  0  0  0
   -6.9013   16.0922    9.7295 H   0  0  0  0  0  0  0  0  0  0  0  0
   -5.5777   14.9306    9.7600 H   0  0  0  0  0  0  0  0  0  0  0  0
  -13.5949    8.1203   -3.7659 H   0  0  0  0  0  0  0  0  0  0  0  0
  -12.2622    6.9507   -3.7352 H   0  0  0  0  0  0  0  0  0  0  0  0
   -5.2960   17.9105    9.1216 H   0  0  0  0  0  0  0  0  0  0  0  0
   -3.9673   16.7444    9.1522 H   0  0  0  0  0  0  0  0  0  0  0  0
  -13.8704    5.1342   -3.1197 H   0  0  0  0  0  0  0  0  0  0  0  0
  -15.2033    6.3040   -3.1504 H   0  0  0  0  0  0  0  0  0  0  0  0
   -4.4394   16.2699   11.5689 H   0  0  0  0  0  0  0  0  0  0  0  0
   -5.7681   17.4360   11.5383 H   0  0  0  0  0  0  0  0  0  0  0  0
  -14.7670    6.7380   -5.5745 H   0  0  0  0  0  0  0  0  0  0  0  0
  -13.4337    5.5678   -5.5437 H   0  0  0  0  0  0  0  0  0  0  0  0
   -4.1522   19.2652   10.9833 H   0  0  0  0  0  0  0  0  0  0  0  0
   -2.8210   18.0968   11.0140 H   0  0  0  0  0  0  0  0  0  0  0  0
  -15.0415    3.7527   -4.9274 H   0  0  0  0  0  0  0  0  0  0  0  0
  -16.3741    4.9223   -4.9581 H   0  0  0  0  0  0  0  0  0  0  0  0
   -3.2575   17.6611   13.4396 H   0  0  0  0  0  0  0  0  0  0  0  0
   -4.5908   18.8312   13.4088 H   0  0  0  0  0  0  0  0  0  0  0  0
  -14.6070    4.1838   -7.3549 H   0  0  0  0  0  0  0  0  0  0  0  0
  -15.9398    5.3535   -7.3856 H   0  0  0  0  0  0  0  0  0  0  0  0
   -2.9811   20.6467   12.7931 H   0  0  0  0  0  0  0  0  0  0  0  0
   -1.6503   19.4786   12.8238 H   0  0  0  0  0  0  0  0  0  0  0  0
  -17.5470    3.5383   -6.7683 H   0  0  0  0  0  0  0  0  0  0  0  0
  -16.2145    2.3688   -6.7376 H   0  0  0  0  0  0  0  0  0  0  0  0
   -3.3972   20.2376   15.2302 H   0  0  0  0  0  0  0  0  0  0  0  0
   -2.0654   19.0686   15.2609 H   0  0  0  0  0  0  0  0  0  0  0  0
  -17.1278    3.9500   -9.2051 H   0  0  0  0  0  0  0  0  0  0  0  0
  -15.7972    2.7822   -9.1745 H   0  0  0  0  0  0  0  0  0  0  0  0
   -1.7934   22.0538   14.6013 H   0  0  0  0  0  0  0  0  0  0  0  0
   -0.4563   20.8803   14.6322 H   0  0  0  0  0  0  0  0  0  0  0  0
  -18.7426    2.1312   -8.6146 H   0  0  0  0  0  0  0  0  0  0  0  0
  -17.4064    0.9585   -8.5838 H   0  0  0  0  0  0  0  0  0  0  0  0
  -17.8546    1.7560  -10.1022 H   0  0  0  0  0  0  0  0  0  0  0  0
   -0.6398   22.0695   16.5166 H   0  0  0  0  0  0  0  0  0  0  0  0
  1  2  1  0  0  0  0 
  1  3  1  0  0  0  0 
  2  4  1  0  0  0  0 
  3  5  1  0  0  0  0 
  4  6  1  0  0  0  0 
  5  7  1  0  0  0  0 
  6  8  1  0  0  0  0 
  7  9  1  0  0  0  0 
  8 10  1  0  0  0  0 
  9 11  1  0  0  0  0 
 10 12  1  0  0  0  0 
 11 13  1  0  0  0  0 
 12 14  1  0  0  0  0 
 13 15  1  0  0  0  0 
 14 16  1  0  0  0  0 
 15 17  1  0  0  0  0 
 16 18  1  0  0  0  0 
 17 19  1  0  0  0  0 
 18 20  1  0  0  0  0 
 19 21  1  0  0  0  0 
 20 22  1  0  0  0  0 
 21 23  1  0  0  0  0 
 22 24  1  0  0  0  0 
 23 25  1  0  0  0  0 
 24 26  1  0  0  0  0 
 25 27  1  0  0  0  0 
 26 28  1  0  0  0  0 
 27 29  1  0  0  0  0 
  1 30  1  0  0  0  0 
  1 31  1  0  0  0  0 
  2 32  1  0  0  0  0 
  2 33  1  0  0  0  0 
  3 34  1  0  0  0  0 
  3 35  1  0  0  0  0 
  4 36  1  0  0  0  0 
  4 37  1  0  0  0  0 
  5 38  1  0  0  0  0 
  5 39  1  0  0  0  0 
  6 40  1  0  0  0  0 
  6 41  1  0  0  0  0 
  7 42  1  0  0  0  0 
  7 43  1  0  0  0  0 
  8 44  1  0  0  0  0 
  8 45  1  0  0  0  0 
  9 46  1  0  0  0  0 
  9 47  1  0  0  0  0 
 10 48  1  0  0  0  0 
 10 49  1  0  0  0  0 
 11 50  1  0  0  0  0 
 11 51  1  0  0  0  0 
 12 52  1  0  0  0  0 
 12 53  1  0  0  0  0 
 13 54  1  0  0  0  0 
 13 55  1  0  0  0  0 
 14 56  1  0  0  0  0 
 14 57  1  0  0  0  0 
 15 58  1  0  0  0  0 
 15 59  1  0  0  0  0 
 16 60  1  0  0  0  0 
 16 61  1  0  0  0  0 
 17 62  1  0  0  0  0 
 17 63  1  0  0  0  0 
 18 64  1  0  0  0  0 
 18 65  1  0  0  0  0 
 19 66  1  0  0  0  0 
 19 67  1  0  0  0  0 
 20 68  1  0  0  0  0 
 20 69  1  0  0  0  0 
 21 70  1  0  0  0  0 
 21 71  1  0  0  0  0 
 22 72  1  0  0  0  0 
 22 73  1  0  0  0  0 
 23 74  1  0  0  0  0 
 23 75  1  0  0  0  0 
 24 76  1  0  0  0  0 
 24 77  1  0  0  0  0 
 25 78  1  0  0  0  0 
 25 79  1  0  0  0  0 
 26 80  1  0  0  0  0 
 26 81  1  0  0  0  0 
 27 82  1  0  0  0  0 
 27 83  1  0  0  0  0 
 28 84  1  0  0  0  0 
 28 85  1  0  0  0  0 
 28 86  1  0  0  0  0 
 29 87  1  0  0  0  0 
M  END
> <cdk:Title>
1-Octacosanol

> <Conformer>
1

> <SuperDrugID>
SD003700

$$$$
