digitalin
  CDK     0628171801

106112  0  0  0  0  0  0  0  0999 V2000
  -26.1816   -3.9675    0.0261 O   0  0  0  0  0  0  0  0  0  0  0  0
  -26.5956   -3.4872    1.3156 C   0  0  2  0  0  0  0  0  0  0  0  0
  -27.8675   -2.5734    1.1502 C   0  0  1  0  0  0  0  0  0  0  0  0
  -25.3277   -2.7604    1.9181 C   0  0  1  0  0  0  0  0  0  0  0  0
  -27.1056   -4.7298    2.1177 C   0  0  2  0  0  0  0  0  0  0  0  0
  -27.7857   -1.6105   -0.0907 C   0  0  0  0  0  0  0  0  0  0  0  0
  -29.0566   -3.6100    1.0607 C   0  0  2  0  0  0  0  0  0  0  0  0
  -28.0756   -1.6833    2.4370 C   0  0  2  0  0  0  0  0  0  0  0  0
  -25.6217   -1.8978    3.1990 C   0  0  2  0  0  0  0  0  0  0  0  0
  -24.1441   -3.7494    2.1550 C   0  0  1  0  0  0  0  0  0  0  0  0
  -28.6518   -4.7411    2.0531 C   0  0  1  0  0  0  0  0  0  0  0  0
  -29.4294   -4.0876   -0.2831 C   0  0  0  0  0  0  0  0  0  0  0  0
  -26.8150   -0.9289    2.9029 C   0  0  2  0  0  0  0  0  0  0  0  0
  -24.3356   -1.1864    3.8241 C   0  0  2  0  0  0  0  0  0  0  0  0
  -22.8790   -3.0298    2.6765 C   0  0  2  0  0  0  0  0  0  0  0  0
  -29.1755   -6.0344    1.7499 O   0  0  0  0  0  0  0  0  0  0  0  0
  -30.5285   -3.5396   -1.0531 C   0  0  2  0  0  0  0  0  0  0  0  0
  -28.8429   -5.0538   -0.9965 C   0  0  0  0  0  0  0  0  0  0  0  0
  -23.8598    0.0152    2.9236 C   0  0  0  0  0  0  0  0  0  0  0  0
  -23.1303   -2.2134    3.9818 C   0  0  2  0  0  0  0  0  0  0  0  0
  -24.6389   -0.5665    5.2455 C   0  0  1  0  0  0  0  0  0  0  0  0
  -30.4758   -4.2937   -2.2629 O   0  0  0  0  0  0  0  0  0  0  0  0
  -29.4773   -5.1922   -2.1832 C   0  0  0  0  0  0  0  0  0  0  0  0
  -23.2190   -3.1643    5.2263 C   0  0  2  0  0  0  0  0  0  0  0  0
  -24.8230   -1.6160    6.3729 C   0  0  2  0  0  0  0  0  0  0  0  0
  -29.1908   -6.0247   -3.0707 O   0  0  0  0  0  0  0  0  0  0  0  0
  -23.5085   -2.4236    6.5612 C   0  0  2  0  0  0  0  0  0  0  0  0
  -22.3505   -1.6222    6.9305 O   0  0  0  0  0  0  0  0  0  0  0  0
  -22.4127   -0.9295    8.2003 C   0  0  1  0  0  0  0  0  0  0  0  0
  -20.9960   -0.4575    8.6290 C   0  0  2  0  0  0  0  0  0  0  0  0
  -23.2748    0.2243    8.0656 O   0  0  0  0  0  0  0  0  0  0  0  0
  -20.1619   -1.5864    8.8862 O   0  0  0  0  0  0  0  0  0  0  0  0
  -21.0986    0.4229    9.9088 C   0  0  1  0  0  0  0  0  0  0  0  0
  -23.4772    0.9891    9.2695 C   0  0  1  0  0  0  0  0  0  0  0  0
  -19.7766    0.8672   10.2825 O   0  0  0  0  0  0  0  0  0  0  0  0
  -22.1102    1.6017    9.6894 C   0  0  2  0  0  0  0  0  0  0  0  0
  -24.5778    2.0448    8.9990 C   0  0  0  0  0  0  0  0  0  0  0  0
  -19.6171    1.2332   11.6654 C   0  0  0  0  0  0  0  0  0  0  0  0
  -21.7360    2.5240    8.6339 O   0  0  0  0  0  0  0  0  0  0  0  0
  -20.6997    3.4932    8.8822 C   0  0  2  0  0  0  0  0  0  0  0  0
  -20.9655    4.2521   10.0825 O   0  0  0  0  0  0  0  0  0  0  0  0
  -20.6438    4.4726    7.6802 C   0  0  2  0  0  0  0  0  0  0  0  0
  -19.9391    5.2079   10.4359 C   0  0  2  0  0  0  0  0  0  0  0  0
  -20.3873    3.7715    6.4648 O   0  0  0  0  0  0  0  0  0  0  0  0
  -19.5393    5.5370    7.9193 C   0  0  2  0  0  0  0  0  0  0  0  0
  -20.3751    5.8739   11.7639 C   0  0  2  0  0  0  0  0  0  0  0  0
  -19.7218    6.2457    9.2899 C   0  0  2  0  0  0  0  0  0  0  0  0
  -19.5483    6.5003    6.8658 O   0  0  0  0  0  0  0  0  0  0  0  0
  -20.6217    4.8833   12.7571 O   0  0  0  0  0  0  0  0  0  0  0  0
  -18.5703    7.0513    9.5439 O   0  0  0  0  0  0  0  0  0  0  0  0
  -24.9881   -2.0665    1.1466 H   0  0  0  0  0  0  0  0  0  0  0  0
  -25.9864   -2.6060    3.9412 H   0  0  0  0  0  0  0  0  0  0  0  0
  -22.2119   -1.6386    4.1493 H   0  0  0  0  0  0  0  0  0  0  0  0
  -22.8007   -1.6069    8.9712 H   0  0  0  0  0  0  0  0  0  0  0  0
  -19.7421    2.9725    8.9554 H   0  0  0  0  0  0  0  0  0  0  0  0
  -25.8797   -3.1762   -0.4692 H   0  0  0  0  0  0  0  0  0  0  0  0
  -26.8051   -4.6855    3.1675 H   0  0  0  0  0  0  0  0  0  0  0  0
  -26.6970   -5.6575    1.7042 H   0  0  0  0  0  0  0  0  0  0  0  0
  -26.9217   -0.9488   -0.0342 H   0  0  0  0  0  0  0  0  0  0  0  0
  -27.7001   -2.1612   -1.0272 H   0  0  0  0  0  0  0  0  0  0  0  0
  -28.6814   -0.9900   -0.1528 H   0  0  0  0  0  0  0  0  0  0  0  0
  -29.9641   -3.1402    1.4595 H   0  0  0  0  0  0  0  0  0  0  0  0
  -28.3982   -2.2865    3.2881 H   0  0  0  0  0  0  0  0  0  0  0  0
  -28.8730   -0.9544    2.2649 H   0  0  0  0  0  0  0  0  0  0  0  0
  -24.4341   -4.5248    2.8648 H   0  0  0  0  0  0  0  0  0  0  0  0
  -23.8857   -4.2531    1.2193 H   0  0  0  0  0  0  0  0  0  0  0  0
  -29.0477   -4.4988    3.0456 H   0  0  0  0  0  0  0  0  0  0  0  0
  -27.1053   -0.3813    3.7985 H   0  0  0  0  0  0  0  0  0  0  0  0
  -26.5418   -0.1936    2.1468 H   0  0  0  0  0  0  0  0  0  0  0  0
  -22.5166   -2.3599    1.8938 H   0  0  0  0  0  0  0  0  0  0  0  0
  -22.0939   -3.7717    2.8435 H   0  0  0  0  0  0  0  0  0  0  0  0
  -30.1445   -5.9056    1.7216 H   0  0  0  0  0  0  0  0  0  0  0  0
  -30.3840   -2.4785   -1.2625 H   0  0  0  0  0  0  0  0  0  0  0  0
  -31.4866   -3.6966   -0.5519 H   0  0  0  0  0  0  0  0  0  0  0  0
  -28.0672   -5.6013   -0.7126 H   0  0  0  0  0  0  0  0  0  0  0  0
  -22.9174    0.4291    3.2888 H   0  0  0  0  0  0  0  0  0  0  0  0
  -24.5842    0.8303    2.9312 H   0  0  0  0  0  0  0  0  0  0  0  0
  -23.7053   -0.2841    1.8888 H   0  0  0  0  0  0  0  0  0  0  0  0
  -23.8121    0.0899    5.5306 H   0  0  0  0  0  0  0  0  0  0  0  0
  -25.5173    0.0757    5.2298 H   0  0  0  0  0  0  0  0  0  0  0  0
  -22.2749   -3.7070    5.3319 H   0  0  0  0  0  0  0  0  0  0  0  0
  -24.0019   -3.9103    5.0733 H   0  0  0  0  0  0  0  0  0  0  0  0
  -25.6445   -2.2948    6.1398 H   0  0  0  0  0  0  0  0  0  0  0  0
  -25.1124   -1.1214    7.2994 H   0  0  0  0  0  0  0  0  0  0  0  0
  -23.6649   -3.1858    7.3330 H   0  0  0  0  0  0  0  0  0  0  0  0
  -20.5436    0.1215    7.8192 H   0  0  0  0  0  0  0  0  0  0  0  0
  -20.0924   -2.0549    8.0278 H   0  0  0  0  0  0  0  0  0  0  0  0
  -21.4923   -0.2279   10.7004 H   0  0  0  0  0  0  0  0  0  0  0  0
  -23.8549    0.3391   10.0679 H   0  0  0  0  0  0  0  0  0  0  0  0
  -22.2701    2.1338   10.6301 H   0  0  0  0  0  0  0  0  0  0  0  0
  -24.3156    2.6780    8.1491 H   0  0  0  0  0  0  0  0  0  0  0  0
  -25.5226    1.5448    8.7745 H   0  0  0  0  0  0  0  0  0  0  0  0
  -24.7196    2.6761    9.8775 H   0  0  0  0  0  0  0  0  0  0  0  0
  -18.6221    1.6554   11.7918 H   0  0  0  0  0  0  0  0  0  0  0  0
  -19.7026    0.3521   12.3040 H   0  0  0  0  0  0  0  0  0  0  0  0
  -20.3470    1.9798   11.9813 H   0  0  0  0  0  0  0  0  0  0  0  0
  -21.6111    4.9752    7.5829 H   0  0  0  0  0  0  0  0  0  0  0  0
  -19.0002    4.6756   10.6226 H   0  0  0  0  0  0  0  0  0  0  0  0
  -21.1586    3.1781    6.3456 H   0  0  0  0  0  0  0  0  0  0  0  0
  -18.5634    5.0422    7.9014 H   0  0  0  0  0  0  0  0  0  0  0  0
  -21.2918    6.4495   11.6167 H   0  0  0  0  0  0  0  0  0  0  0  0
  -19.5950    6.5431   12.1316 H   0  0  0  0  0  0  0  0  0  0  0  0
  -20.5923    6.9059    9.2277 H   0  0  0  0  0  0  0  0  0  0  0  0
  -20.4317    6.9232    6.9127 H   0  0  0  0  0  0  0  0  0  0  0  0
  -20.9514    5.3808   13.5348 H   0  0  0  0  0  0  0  0  0  0  0  0
  -18.7553    7.5135   10.3872 H   0  0  0  0  0  0  0  0  0  0  0  0
  2  1  1  0  0  0  0 
  2  3  1  0  0  0  0 
  4  2  1  0  0  0  0 
  2  5  1  0  0  0  0 
  3  6  1  0  0  0  0 
  3  7  1  0  0  0  0 
  3  8  1  0  0  0  0 
  9  4  1  0  0  0  0 
  4 10  1  0  0  0  0 
  4 51  1  0  0  0  0 
 11  5  1  0  0  0  0 
  7 11  1  0  0  0  0 
  7 12  1  0  0  0  0 
  8 13  1  0  0  0  0 
  9 13  1  0  0  0  0 
 14  9  1  0  0  0  0 
  9 52  1  0  0  0  0 
 10 15  1  0  0  0  0 
 11 16  1  0  0  0  0 
 12 17  1  0  0  0  0 
 12 18  2  0  0  0  0 
 14 19  1  0  0  0  0 
 20 14  1  0  0  0  0 
 14 21  1  0  0  0  0 
 20 15  1  0  0  0  0 
 17 22  1  0  0  0  0 
 18 23  1  0  0  0  0 
 20 24  1  0  0  0  0 
 20 53  1  0  0  0  0 
 21 25  1  0  0  0  0 
 22 23  1  0  0  0  0 
 23 26  2  0  0  0  0 
 27 24  1  0  0  0  0 
 27 25  1  0  0  0  0 
 27 28  1  0  0  0  0 
 29 28  1  0  0  0  0 
 30 29  1  0  0  0  0 
 29 31  1  0  0  0  0 
 29 54  1  0  0  0  0 
 30 32  1  0  0  0  0 
 30 33  1  0  0  0  0 
 34 31  1  0  0  0  0 
 33 35  1  0  0  0  0 
 33 36  1  0  0  0  0 
 36 34  1  0  0  0  0 
 34 37  1  0  0  0  0 
 35 38  1  0  0  0  0 
 36 39  1  0  0  0  0 
 40 39  1  0  0  0  0 
 40 41  1  0  0  0  0 
 42 40  1  0  0  0  0 
 40 55  1  0  0  0  0 
 43 41  1  0  0  0  0 
 42 44  1  0  0  0  0 
 45 42  1  0  0  0  0 
 43 46  1  0  0  0  0 
 47 43  1  0  0  0  0 
 45 47  1  0  0  0  0 
 45 48  1  0  0  0  0 
 46 49  1  0  0  0  0 
 47 50  1  0  0  0  0 
  1 56  1  0  0  0  0 
  5 57  1  0  0  0  0 
  5 58  1  0  0  0  0 
  6 59  1  0  0  0  0 
  6 60  1  0  0  0  0 
  6 61  1  0  0  0  0 
  7 62  1  0  0  0  0 
  8 63  1  0  0  0  0 
  8 64  1  0  0  0  0 
 10 65  1  0  0  0  0 
 10 66  1  0  0  0  0 
 11 67  1  0  0  0  0 
 13 68  1  0  0  0  0 
 13 69  1  0  0  0  0 
 15 70  1  0  0  0  0 
 15 71  1  0  0  0  0 
 16 72  1  0  0  0  0 
 17 73  1  0  0  0  0 
 17 74  1  0  0  0  0 
 18 75  1  0  0  0  0 
 19 76  1  0  0  0  0 
 19 77  1  0  0  0  0 
 19 78  1  0  0  0  0 
 21 79  1  0  0  0  0 
 21 80  1  0  0  0  0 
 24 81  1  0  0  0  0 
 24 82  1  0  0  0  0 
 25 83  1  0  0  0  0 
 25 84  1  0  0  0  0 
 27 85  1  0  0  0  0 
 30 86  1  0  0  0  0 
 32 87  1  0  0  0  0 
 33 88  1  0  0  0  0 
 34 89  1  0  0  0  0 
 36 90  1  0  0  0  0 
 37 91  1  0  0  0  0 
 37 92  1  0  0  0  0 
 37 93  1  0  0  0  0 
 38 94  1  0  0  0  0 
 38 95  1  0  0  0  0 
 38 96  1  0  0  0  0 
 42 97  1  0  0  0  0 
 43 98  1  0  0  0  0 
 44 99  1  0  0  0  0 
 45100  1  0  0  0  0 
 46101  1  0  0  0  0 
 46102  1  0  0  0  0 
 47103  1  0  0  0  0 
 48104  1  0  0  0  0 
 49105  1  0  0  0  0 
 50106  1  0  0  0  0 
M  END
> <cdk:Title>
digitalin

> <Conformer>
1

> <SuperDrugID>
SD002725

$$$$
