buzepide metiodide
  CDK     0628171801

 57 59  0  0  0  0  0  0  0  0999 V2000
    0.1415   -2.4200    1.9272 C   0  0  2  0  0  0  0  0  0  0  0  0
   -0.2967   -1.7675    0.5519 C   0  0  2  0  0  0  0  0  0  0  0  0
   -0.4178   -1.5798    3.0520 C   0  0  0  0  0  0  0  0  0  0  0  0
    1.6543   -2.3760    2.1586 C   0  0  0  0  0  0  0  0  0  0  0  0
   -0.3362   -3.8722    1.8921 C   0  0  0  0  0  0  0  0  0  0  0  0
   -1.8208   -1.5670    0.2554 C   0  0  1  0  0  0  0  0  0  0  0  0
   -0.2921   -0.2368    3.0703 N   0  0  0  0  0  0  0  0  0  0  0  0
   -0.9663   -2.0687    4.0668 O   0  0  0  0  0  0  0  0  0  0  0  0
    2.5957   -1.9718    1.1685 C   0  0  0  0  0  0  0  0  0  0  0  0
    2.1977   -2.8055    3.4033 C   0  0  0  0  0  0  0  0  0  0  0  0
    0.4931   -4.9178    1.3912 C   0  0  0  0  0  0  0  0  0  0  0  0
   -1.6486   -4.2534    2.2928 C   0  0  0  0  0  0  0  0  0  0  0  0
   -2.2122   -0.8633   -1.0422 N   0  0  2  0  0  0  0  0  0  0  0  0
    3.9789   -1.9616    1.4158 C   0  0  0  0  0  0  0  0  0  0  0  0
    3.5804   -2.7882    3.6579 C   0  0  0  0  0  0  0  0  0  0  0  0
    0.0687   -6.2578    1.3621 C   0  0  0  0  0  0  0  0  0  0  0  0
   -2.0812   -5.5917    2.2615 C   0  0  0  0  0  0  0  0  0  0  0  0
   -3.7312   -0.7087   -1.1308 C   0  0  1  0  0  0  0  0  0  0  0  0
   -1.6660   -1.5473   -2.2917 C   0  0  2  0  0  0  0  0  0  0  0  0
    4.4741   -2.3617    2.6648 C   0  0  0  0  0  0  0  0  0  0  0  0
   -1.2215   -6.5967    1.7955 C   0  0  0  0  0  0  0  0  0  0  0  0
   -4.6450   -1.9647   -1.1604 C   0  0  2  0  0  0  0  0  0  0  0  0
   -1.7756   -3.0954   -2.4624 C   0  0  2  0  0  0  0  0  0  0  0  0
   -4.4036   -2.9321   -2.3462 C   0  0  2  0  0  0  0  0  0  0  0  0
   -3.1320   -3.7975   -2.1813 C   0  0  2  0  0  0  0  0  0  0  0  0
   -1.6682    0.5616   -1.0202 C   0  0  0  0  0  0  0  0  0  0  0  0
    0.1250   -2.3649   -0.2572 H   0  0  0  0  0  0  0  0  0  0  0  0
    0.1708   -0.7874    0.4905 H   0  0  0  0  0  0  0  0  0  0  0  0
   -2.2684   -2.5548    0.2702 H   0  0  0  0  0  0  0  0  0  0  0  0
   -2.2566   -1.0255    1.1010 H   0  0  0  0  0  0  0  0  0  0  0  0
   -0.6505    0.2747    3.8117 H   0  0  0  0  0  0  0  0  0  0  0  0
    0.1585    0.2204    2.3449 H   0  0  0  0  0  0  0  0  0  0  0  0
    2.3039   -1.6854    0.2357 H   0  0  0  0  0  0  0  0  0  0  0  0
    1.5814   -3.1374    4.1482 H   0  0  0  0  0  0  0  0  0  0  0  0
    1.4307   -4.7231    1.0363 H   0  0  0  0  0  0  0  0  0  0  0  0
   -2.3244   -3.5558    2.6063 H   0  0  0  0  0  0  0  0  0  0  0  0
    4.6259   -1.6668    0.6823 H   0  0  0  0  0  0  0  0  0  0  0  0
    3.9372   -3.0906    4.5657 H   0  0  0  0  0  0  0  0  0  0  0  0
    0.7002   -6.9863    1.0219 H   0  0  0  0  0  0  0  0  0  0  0  0
   -3.0249   -5.8336    2.5726 H   0  0  0  0  0  0  0  0  0  0  0  0
   -4.0853   -0.1120   -0.2809 H   0  0  0  0  0  0  0  0  0  0  0  0
   -3.9968   -0.1310   -2.0246 H   0  0  0  0  0  0  0  0  0  0  0  0
   -0.5943   -1.3402   -2.3855 H   0  0  0  0  0  0  0  0  0  0  0  0
   -2.1158   -1.0915   -3.1811 H   0  0  0  0  0  0  0  0  0  0  0  0
    5.4792   -2.3473    2.8482 H   0  0  0  0  0  0  0  0  0  0  0  0
   -1.5351   -7.5702    1.7670 H   0  0  0  0  0  0  0  0  0  0  0  0
   -5.6785   -1.6113   -1.2348 H   0  0  0  0  0  0  0  0  0  0  0  0
   -4.5768   -2.5044   -0.2131 H   0  0  0  0  0  0  0  0  0  0  0  0
   -1.0241   -3.5821   -1.8380 H   0  0  0  0  0  0  0  0  0  0  0  0
   -1.4850   -3.3216   -3.4933 H   0  0  0  0  0  0  0  0  0  0  0  0
   -4.3728   -2.3822   -3.2904 H   0  0  0  0  0  0  0  0  0  0  0  0
   -5.2603   -3.6101   -2.3956 H   0  0  0  0  0  0  0  0  0  0  0  0
   -3.1213   -4.2171   -1.1718 H   0  0  0  0  0  0  0  0  0  0  0  0
   -3.2127   -4.6542   -2.8578 H   0  0  0  0  0  0  0  0  0  0  0  0
   -0.5797    0.6002   -1.0766 H   0  0  0  0  0  0  0  0  0  0  0  0
   -1.9611    1.0905   -0.1091 H   0  0  0  0  0  0  0  0  0  0  0  0
   -2.0254    1.1540   -1.8683 H   0  0  0  0  0  0  0  0  0  0  0  0
  1  2  1  0  0  0  0 
  1  3  1  0  0  0  0 
  1  4  1  0  0  0  0 
  1  5  1  0  0  0  0 
  2  6  1  0  0  0  0 
  3  7  1  0  0  0  0 
  3  8  2  0  0  0  0 
  4  9  2  0  0  0  0 
  4 10  1  0  0  0  0 
  5 11  2  0  0  0  0 
  5 12  1  0  0  0  0 
  6 13  1  0  0  0  0 
  9 14  1  0  0  0  0 
 10 15  2  0  0  0  0 
 11 16  1  0  0  0  0 
 12 17  2  0  0  0  0 
 13 18  1  0  0  0  0 
 13 19  1  0  0  0  0 
 14 20  2  0  0  0  0 
 15 20  1  0  0  0  0 
 16 21  2  0  0  0  0 
 17 21  1  0  0  0  0 
 18 22  1  0  0  0  0 
 19 23  1  0  0  0  0 
 22 24  1  0  0  0  0 
 23 25  1  0  0  0  0 
 24 25  1  0  0  0  0 
 13 26  1  0  0  0  0 
  2 27  1  0  0  0  0 
  2 28  1  0  0  0  0 
  6 29  1  0  0  0  0 
  6 30  1  0  0  0  0 
  7 31  1  0  0  0  0 
  7 32  1  0  0  0  0 
  9 33  1  0  0  0  0 
 10 34  1  0  0  0  0 
 11 35  1  0  0  0  0 
 12 36  1  0  0  0  0 
 14 37  1  0  0  0  0 
 15 38  1  0  0  0  0 
 16 39  1  0  0  0  0 
 17 40  1  0  0  0  0 
 18 41  1  0  0  0  0 
 18 42  1  0  0  0  0 
 19 43  1  0  0  0  0 
 19 44  1  0  0  0  0 
 20 45  1  0  0  0  0 
 21 46  1  0  0  0  0 
 22 47  1  0  0  0  0 
 22 48  1  0  0  0  0 
 23 49  1  0  0  0  0 
 23 50  1  0  0  0  0 
 24 51  1  0  0  0  0 
 24 52  1  0  0  0  0 
 25 53  1  0  0  0  0 
 25 54  1  0  0  0  0 
 26 55  1  0  0  0  0 
 26 56  1  0  0  0  0 
 26 57  1  0  0  0  0 
M  CHG  1  13   1
M  END
> <cdk:Title>
buzepide metiodide

> <Conformer>
1

> <SuperDrugID>
SD000399

$$$$
