cinoxacin
  CDK     0628171802

 29 31  0  0  0  0  0  0  0  0999 V2000
    0.2010   -0.5366   -0.6344 C   0  0  2  0  0  0  0  0  0  0  0  0
   -0.6779   -1.1526    0.4767 C   0  0  0  0  0  0  0  0  0  0  0  0
    1.4786   -0.0989   -0.1214 N   0  0  0  0  0  0  0  0  0  0  0  0
    1.7119    1.0968    0.5320 C   0  0  0  0  0  0  0  0  0  0  0  0
    2.4573   -0.9560   -0.2965 N   0  0  0  0  0  0  0  0  0  0  0  0
    3.0407    1.3636    1.0005 C   0  0  0  0  0  0  0  0  0  0  0  0
    0.7041    2.0744    0.7663 C   0  0  0  0  0  0  0  0  0  0  0  0
    3.7389   -0.8044    0.1136 C   0  0  0  0  0  0  0  0  0  0  0  0
    3.3259    2.5829    1.6685 C   0  0  0  0  0  0  0  0  0  0  0  0
    4.0528    0.3955    0.7881 C   0  0  0  0  0  0  0  0  0  0  0  0
    1.0205    3.2716    1.4276 C   0  0  0  0  0  0  0  0  0  0  0  0
    4.6496   -1.8577   -0.1553 C   0  0  0  0  0  0  0  0  0  0  0  0
    2.3059    3.5218    1.8680 C   0  0  0  0  0  0  0  0  0  0  0  0
    5.2228    0.5971    1.1973 O   0  0  0  0  0  0  0  0  0  0  0  0
    0.1882    4.2903    1.7181 O   0  0  0  0  0  0  0  0  0  0  0  0
    4.2427   -2.9754   -0.8034 O   0  0  0  0  0  0  0  0  0  0  0  0
    5.8530   -1.8188    0.1909 O   0  0  0  0  0  0  0  0  0  0  0  0
    2.4153    4.7185    2.4739 O   0  0  0  0  0  0  0  0  0  0  0  0
    1.0666    5.2171    2.3868 C   0  0  2  0  0  0  0  0  0  0  0  0
   -0.3219    0.2868   -1.1220 H   0  0  0  0  0  0  0  0  0  0  0  0
    0.3286   -1.2980   -1.4132 H   0  0  0  0  0  0  0  0  0  0  0  0
   -1.6742   -1.3572    0.0832 H   0  0  0  0  0  0  0  0  0  0  0  0
   -0.2373   -2.0898    0.8226 H   0  0  0  0  0  0  0  0  0  0  0  0
   -0.7709   -0.4770    1.3280 H   0  0  0  0  0  0  0  0  0  0  0  0
   -0.2626    1.9376    0.4672 H   0  0  0  0  0  0  0  0  0  0  0  0
    4.2638    2.7975    2.0118 H   0  0  0  0  0  0  0  0  0  0  0  0
    4.8741   -3.7081   -0.9680 H   0  0  0  0  0  0  0  0  0  0  0  0
    0.6887    5.4064    3.3941 H   0  0  0  0  0  0  0  0  0  0  0  0
    1.0687    6.1643    1.8427 H   0  0  0  0  0  0  0  0  0  0  0  0
  1  2  1  0  0  0  0 
  1  3  1  0  0  0  0 
  3  4  1  0  0  0  0 
  3  5  1  0  0  0  0 
  4  6  1  0  0  0  0 
  4  7  2  0  0  0  0 
  5  8  2  0  0  0  0 
  6  9  2  0  0  0  0 
  6 10  1  0  0  0  0 
  7 11  1  0  0  0  0 
  8 10  1  0  0  0  0 
  8 12  1  0  0  0  0 
  9 13  1  0  0  0  0 
 10 14  2  0  0  0  0 
 11 13  2  0  0  0  0 
 11 15  1  0  0  0  0 
 12 16  1  0  0  0  0 
 12 17  2  0  0  0  0 
 13 18  1  0  0  0  0 
 15 19  1  0  0  0  0 
 18 19  1  0  0  0  0 
  1 20  1  0  0  0  0 
  1 21  1  0  0  0  0 
  2 22  1  0  0  0  0 
  2 23  1  0  0  0  0 
  2 24  1  0  0  0  0 
  7 25  1  0  0  0  0 
  9 26  1  0  0  0  0 
 16 27  1  0  0  0  0 
 19 28  1  0  0  0  0 
 19 29  1  0  0  0  0 
M  END
> <cdk:Title>
cinoxacin

> <Conformer>
1

> <SuperDrugID>
SD000577

$$$$
