ampicillin
  CDK     0628171801

 43 45  0  0  0  0  0  0  0  0999 V2000
   -5.6283    0.4534    2.8445 C   0  0  0  0  0  0  0  0  0  0  0  0
   -4.4123    1.2717    2.3161 C   0  0  1  0  0  0  0  0  0  0  0  0
   -4.2271    2.5538    3.1854 C   0  0  0  0  0  0  0  0  0  0  0  0
   -2.8682    0.2891    2.5298 S   0  0  0  0  0  0  0  0  0  0  0  0
   -2.2435    0.4142    0.8237 C   0  0  2  0  0  0  0  0  0  0  0  0
   -1.0666    1.3367    0.3658 C   0  0  2  0  0  0  0  0  0  0  0  0
   -0.2052    1.8637    1.3754 N   0  0  0  0  0  0  0  0  0  0  0  0
    0.6570    1.1143    2.1163 C   0  0  0  0  0  0  0  0  0  0  0  0
    0.6518   -0.1371    2.0240 O   0  0  0  0  0  0  0  0  0  0  0  0
    1.6456    1.7780    3.0023 C   0  0  2  0  0  0  0  0  0  0  0  0
    2.9926    1.2496    2.7419 N   0  0  1  0  0  0  0  0  0  0  0  0
    1.3490    1.6697    4.4645 C   0  0  0  0  0  0  0  0  0  0  0  0
    1.2301    0.4119    5.1090 C   0  0  0  0  0  0  0  0  0  0  0  0
    1.0290    0.3235    6.4996 C   0  0  0  0  0  0  0  0  0  0  0  0
    0.9398    1.4935    7.2736 C   0  0  0  0  0  0  0  0  0  0  0  0
    1.0347    2.7510    6.6530 C   0  0  0  0  0  0  0  0  0  0  0  0
    1.2332    2.8367    5.2618 C   0  0  0  0  0  0  0  0  0  0  0  0
   -2.1206    2.2669   -0.0393 C   0  0  0  0  0  0  0  0  0  0  0  0
   -2.1136    3.4222   -0.5212 O   0  0  0  0  0  0  0  0  0  0  0  0
   -3.0836    1.4710    0.4152 N   0  0  0  0  0  0  0  0  0  0  0  0
   -4.4483    1.6322    0.7775 C   0  0  1  0  0  0  0  0  0  0  0  0
   -5.2819    0.8037   -0.1319 C   0  0  0  0  0  0  0  0  0  0  0  0
   -6.2182    1.3873   -0.9168 O   0  0  0  0  0  0  0  0  0  0  0  0
   -5.1209   -0.4343   -0.2340 O   0  0  0  0  0  0  0  0  0  0  0  0
   -5.6979   -0.5132    2.3453 H   0  0  0  0  0  0  0  0  0  0  0  0
   -6.5561    1.0006    2.6702 H   0  0  0  0  0  0  0  0  0  0  0  0
   -5.5372    0.2614    3.9170 H   0  0  0  0  0  0  0  0  0  0  0  0
   -3.3340    3.1036    2.8783 H   0  0  0  0  0  0  0  0  0  0  0  0
   -5.0882    3.2152    3.0756 H   0  0  0  0  0  0  0  0  0  0  0  0
   -4.1242    2.3015    4.2441 H   0  0  0  0  0  0  0  0  0  0  0  0
   -2.3904   -0.4921    0.2276 H   0  0  0  0  0  0  0  0  0  0  0  0
   -0.5214    0.9388   -0.4963 H   0  0  0  0  0  0  0  0  0  0  0  0
   -0.1969    2.8261    1.5044 H   0  0  0  0  0  0  0  0  0  0  0  0
    1.7014    2.8312    2.7111 H   0  0  0  0  0  0  0  0  0  0  0  0
    3.6441    1.8413    3.2616 H   0  0  0  0  0  0  0  0  0  0  0  0
    3.0419    0.3214    3.1674 H   0  0  0  0  0  0  0  0  0  0  0  0
    1.2995   -0.4561    4.5738 H   0  0  0  0  0  0  0  0  0  0  0  0
    0.9556   -0.5927    6.9486 H   0  0  0  0  0  0  0  0  0  0  0  0
    0.8076    1.4285    8.2854 H   0  0  0  0  0  0  0  0  0  0  0  0
    0.9666    3.6038    7.2143 H   0  0  0  0  0  0  0  0  0  0  0  0
    1.3071    3.7651    4.8384 H   0  0  0  0  0  0  0  0  0  0  0  0
   -4.7453    2.6780    0.6405 H   0  0  0  0  0  0  0  0  0  0  0  0
   -6.7390    0.8499   -1.5491 H   0  0  0  0  0  0  0  0  0  0  0  0
  1  2  1  0  0  0  0 
  2  3  1  0  0  0  0 
  2  4  1  0  0  0  0 
  4  5  1  0  0  0  0 
  5  6  1  0  0  0  0 
  6  7  1  0  0  0  0 
  7  8  1  0  0  0  0 
  8  9  2  0  0  0  0 
  8 10  1  0  0  0  0 
 10 11  1  0  0  0  0 
 10 12  1  0  0  0  0 
 12 13  2  0  0  0  0 
 13 14  1  0  0  0  0 
 14 15  2  0  0  0  0 
 15 16  1  0  0  0  0 
 16 17  2  0  0  0  0 
 12 17  1  0  0  0  0 
  6 18  1  0  0  0  0 
 18 19  2  0  0  0  0 
 18 20  1  0  0  0  0 
  5 20  1  0  0  0  0 
 20 21  1  0  0  0  0 
  2 21  1  0  0  0  0 
 21 22  1  0  0  0  0 
 22 23  1  0  0  0  0 
 22 24  2  0  0  0  0 
  1 25  1  0  0  0  0 
  1 26  1  0  0  0  0 
  1 27  1  0  0  0  0 
  3 28  1  0  0  0  0 
  3 29  1  0  0  0  0 
  3 30  1  0  0  0  0 
  5 31  1  0  0  0  0 
  6 32  1  0  0  0  0 
  7 33  1  0  0  0  0 
 10 34  1  0  0  0  0 
 11 35  1  0  0  0  0 
 11 36  1  0  0  0  0 
 13 37  1  0  0  0  0 
 14 38  1  0  0  0  0 
 15 39  1  0  0  0  0 
 16 40  1  0  0  0  0 
 17 41  1  0  0  0  0 
 21 42  1  0  0  0  0 
 23 43  1  0  0  0  0 
M  END
> <cdk:Title>
ampicillin

> <Conformer>
1

> <SuperDrugID>
SD000163

$$$$
