stiripentol
  CDK     0628171801

 35 36  0  0  0  0  0  0  0  0999 V2000
   -2.2383   -3.1973   -1.4738 C   0  0  0  0  0  0  0  0  0  0  0  0
   -1.9288   -3.4214   -0.1221 C   0  0  0  0  0  0  0  0  0  0  0  0
   -2.6342   -2.7858    0.8831 C   0  0  0  0  0  0  0  0  0  0  0  0
   -3.6898   -1.9172    0.5734 C   0  0  0  0  0  0  0  0  0  0  0  0
   -4.0091   -1.6790   -0.7804 C   0  0  0  0  0  0  0  0  0  0  0  0
   -3.2832   -2.3021   -1.8370 C   0  0  0  0  0  0  0  0  0  0  0  0
   -2.1709   -3.1049    2.1059 O   0  0  0  0  0  0  0  0  0  0  0  0
   -1.1317   -4.0516    1.7892 C   0  0  1  0  0  0  0  0  0  0  0  0
   -0.9607   -4.2170    0.3684 O   0  0  0  0  0  0  0  0  0  0  0  0
   -3.5146   -2.0598   -3.2015 C   0  0  0  0  0  0  0  0  0  0  0  0
   -4.4276   -1.2330   -3.7465 C   0  0  0  0  0  0  0  0  0  0  0  0
   -4.5201   -0.9581   -5.1807 C   0  0  2  0  0  0  0  0  0  0  0  0
   -3.6644    0.2848   -5.6583 C   0  0  2  0  0  0  0  0  0  0  0  0
   -5.9085   -0.7957   -5.4799 O   0  0  0  0  0  0  0  0  0  0  0  0
   -2.1349    0.0037   -5.4616 C   0  0  0  0  0  0  0  0  0  0  0  0
   -4.0512    1.5850   -4.8779 C   0  0  0  0  0  0  0  0  0  0  0  0
   -3.9032    0.5446   -7.1835 C   0  0  0  0  0  0  0  0  0  0  0  0
   -1.6863   -3.6864   -2.1840 H   0  0  0  0  0  0  0  0  0  0  0  0
   -4.2118   -1.4587    1.3207 H   0  0  0  0  0  0  0  0  0  0  0  0
   -4.7766   -1.0353   -0.9732 H   0  0  0  0  0  0  0  0  0  0  0  0
   -0.1896   -3.7113    2.2244 H   0  0  0  0  0  0  0  0  0  0  0  0
   -1.3819   -5.0172    2.2352 H   0  0  0  0  0  0  0  0  0  0  0  0
   -2.9155   -2.5266   -3.8431 H   0  0  0  0  0  0  0  0  0  0  0  0
   -5.0612   -0.7472   -3.1590 H   0  0  0  0  0  0  0  0  0  0  0  0
   -4.2043   -1.8419   -5.7465 H   0  0  0  0  0  0  0  0  0  0  0  0
   -5.9630   -0.7539   -6.4568 H   0  0  0  0  0  0  0  0  0  0  0  0
   -1.8507   -0.9257   -5.9598 H   0  0  0  0  0  0  0  0  0  0  0  0
   -1.8789   -0.0870   -4.4046 H   0  0  0  0  0  0  0  0  0  0  0  0
   -1.5228    0.8076   -5.8783 H   0  0  0  0  0  0  0  0  0  0  0  0
   -3.8487    1.4808   -3.8106 H   0  0  0  0  0  0  0  0  0  0  0  0
   -3.4829    2.4450   -5.2404 H   0  0  0  0  0  0  0  0  0  0  0  0
   -5.1131    1.8049   -5.0013 H   0  0  0  0  0  0  0  0  0  0  0  0
   -3.2699    1.3570   -7.5495 H   0  0  0  0  0  0  0  0  0  0  0  0
   -3.6766   -0.3473   -7.7697 H   0  0  0  0  0  0  0  0  0  0  0  0
   -4.9395    0.8238   -7.3809 H   0  0  0  0  0  0  0  0  0  0  0  0
  1  2  2  0  0  0  0 
  2  3  1  0  0  0  0 
  3  4  2  0  0  0  0 
  4  5  1  0  0  0  0 
  5  6  2  0  0  0  0 
  1  6  1  0  0  0  0 
  7  8  1  0  0  0  0 
  8  9  1  0  0  0  0 
  2  9  1  0  0  0  0 
  3  7  1  0  0  0  0 
  6 10  1  0  0  0  0 
 10 11  2  0  0  0  0 
 12 11  1  0  0  0  0 
 12 13  1  0  0  0  0 
 12 14  1  0  0  0  0 
 13 15  1  0  0  0  0 
 13 16  1  0  0  0  0 
 13 17  1  0  0  0  0 
  1 18  1  0  0  0  0 
  4 19  1  0  0  0  0 
  5 20  1  0  0  0  0 
  8 21  1  0  0  0  0 
  8 22  1  0  0  0  0 
 10 23  1  0  0  0  0 
 11 24  1  0  0  0  0 
 12 25  1  0  0  0  0 
 14 26  1  0  0  0  0 
 15 27  1  0  0  0  0 
 15 28  1  0  0  0  0 
 15 29  1  0  0  0  0 
 16 30  1  0  0  0  0 
 16 31  1  0  0  0  0 
 16 32  1  0  0  0  0 
 17 33  1  0  0  0  0 
 17 34  1  0  0  0  0 
 17 35  1  0  0  0  0 
M  END
> <cdk:Title>
stiripentol

> <Conformer>
1

> <SuperDrugID>
SD002228

$$$$
