adenine
  CDK     0628171802

 15 16  0  0  0  0  0  0  0  0999 V2000
    1.6251   -0.7320    0.2646 N   0  0  0  0  0  0  0  0  0  0  0  0
    0.4894   -0.4589    0.9271 C   0  0  0  0  0  0  0  0  0  0  0  0
    0.2678   -0.9897    2.1613 N   0  0  0  0  0  0  0  0  0  0  0  0
   -0.8711   -0.7353    2.8688 C   0  0  0  0  0  0  0  0  0  0  0  0
   -1.8405    0.0681    2.3468 N   0  0  0  0  0  0  0  0  0  0  0  0
   -1.6596    0.6162    1.1194 C   0  0  0  0  0  0  0  0  0  0  0  0
   -0.5038    0.3742    0.3856 C   0  0  0  0  0  0  0  0  0  0  0  0
   -0.6077    1.0543   -0.7603 N   0  0  0  0  0  0  0  0  0  0  0  0
   -1.7935    1.6880   -0.7345 C   0  0  0  0  0  0  0  0  0  0  0  0
   -2.4567    1.4317    0.4115 N   0  0  0  0  0  0  0  0  0  0  0  0
    2.2958   -1.3083    0.6631 H   0  0  0  0  0  0  0  0  0  0  0  0
    1.7750   -0.3508   -0.6138 H   0  0  0  0  0  0  0  0  0  0  0  0
   -0.9935   -1.1480    3.7929 H   0  0  0  0  0  0  0  0  0  0  0  0
    0.0482    1.0868   -1.4759 H   0  0  0  0  0  0  0  0  0  0  0  0
   -2.1464    2.2856   -1.4825 H   0  0  0  0  0  0  0  0  0  0  0  0
  1  2  1  0  0  0  0 
  2  3  1  0  0  0  0 
  3  4  2  0  0  0  0 
  4  5  1  0  0  0  0 
  5  6  2  0  0  0  0 
  6  7  1  0  0  0  0 
  2  7  2  0  0  0  0 
  7  8  1  0  0  0  0 
  8  9  1  0  0  0  0 
  9 10  2  0  0  0  0 
  6 10  1  0  0  0  0 
 11  1  1  0  0  0  0 
 12  1  1  0  0  0  0 
 13  4  1  0  0  0  0 
 14  8  1  0  0  0  0 
 15  9  1  0  0  0  0 
M  END
> <cdk:Title>
adenine

> <Conformer>
1

> <SuperDrugID>
SD000064

$$$$
