domperidone
  CDK     0628171802

 54 58  0  0  0  0  0  0  0  0999 V2000
   -2.5081    2.1669   -8.8998 O   0  0  0  0  0  0  0  0  0  0  0  0
   -1.6654    2.9872   -8.4718 C   0  0  0  0  0  0  0  0  0  0  0  0
   -0.4717    3.3123   -9.0373 N   0  0  0  0  0  0  0  0  0  0  0  0
   -1.8518    3.6660   -7.3298 N   0  0  0  0  0  0  0  0  0  0  0  0
    0.1016    4.2071   -8.1941 C   0  0  0  0  0  0  0  0  0  0  0  0
    0.1054    2.7680  -10.2517 C   0  0  2  0  0  0  0  0  0  0  0  0
   -0.7717    4.4206   -7.1276 C   0  0  0  0  0  0  0  0  0  0  0  0
    1.3472    4.8698   -8.2170 C   0  0  0  0  0  0  0  0  0  0  0  0
   -0.8542    2.8012  -11.4838 C   0  0  2  0  0  0  0  0  0  0  0  0
    0.6678    1.3422   -9.9835 C   0  0  1  0  0  0  0  0  0  0  0  0
   -0.4614    5.2808   -6.0624 C   0  0  0  0  0  0  0  0  0  0  0  0
    1.6911    5.7249   -7.1478 C   0  0  0  0  0  0  0  0  0  0  0  0
   -0.2571    2.0616  -12.7113 C   0  0  1  0  0  0  0  0  0  0  0  0
    1.2333    0.7103  -11.2832 C   0  0  1  0  0  0  0  0  0  0  0  0
    0.7930    5.9292   -6.0731 C   0  0  0  0  0  0  0  0  0  0  0  0
    0.2181    0.6771  -12.3871 N   0  0  1  0  0  0  0  0  0  0  0  0
    1.2304    6.9412   -4.7891 Cl  0  0  0  0  0  0  0  0  0  0  0  0
   -0.8347   -0.3881  -12.2258 C   0  0  1  0  0  0  0  0  0  0  0  0
   -1.6290   -0.7778  -13.5066 C   0  0  1  0  0  0  0  0  0  0  0  0
   -0.7843   -1.4418  -14.6270 C   0  0  1  0  0  0  0  0  0  0  0  0
    0.1856   -0.5446  -15.1907 N   0  0  0  0  0  0  0  0  0  0  0  0
    1.5171   -0.5226  -14.9537 C   0  0  0  0  0  0  0  0  0  0  0  0
   -0.0760    0.4808  -16.0382 C   0  0  0  0  0  0  0  0  0  0  0  0
    2.0534    0.5539  -15.6590 C   0  0  0  0  0  0  0  0  0  0  0  0
    2.3496   -1.3260  -14.1451 C   0  0  0  0  0  0  0  0  0  0  0  0
   -1.1976    0.8009  -16.4945 O   0  0  0  0  0  0  0  0  0  0  0  0
    1.0564    1.1425  -16.3266 N   0  0  0  0  0  0  0  0  0  0  0  0
    3.4163    0.8829  -15.5830 C   0  0  0  0  0  0  0  0  0  0  0  0
    3.7226   -1.0110  -14.0574 C   0  0  0  0  0  0  0  0  0  0  0  0
    4.2533    0.0847  -14.7746 C   0  0  0  0  0  0  0  0  0  0  0  0
   -2.6265    3.6052   -6.7473 H   0  0  0  0  0  0  0  0  0  0  0  0
    0.9619    3.3852  -10.5366 H   0  0  0  0  0  0  0  0  0  0  0  0
    2.0056    4.7328   -8.9838 H   0  0  0  0  0  0  0  0  0  0  0  0
   -1.0619    3.8419  -11.7477 H   0  0  0  0  0  0  0  0  0  0  0  0
   -1.8048    2.3274  -11.2481 H   0  0  0  0  0  0  0  0  0  0  0  0
    1.4658    1.3985   -9.2357 H   0  0  0  0  0  0  0  0  0  0  0  0
   -0.1167    0.6969   -9.5821 H   0  0  0  0  0  0  0  0  0  0  0  0
   -1.1269    5.4173   -5.2980 H   0  0  0  0  0  0  0  0  0  0  0  0
    2.6027    6.1901   -7.1556 H   0  0  0  0  0  0  0  0  0  0  0  0
   -0.9996    2.0428  -13.5091 H   0  0  0  0  0  0  0  0  0  0  0  0
    0.5906    2.6403  -13.0924 H   0  0  0  0  0  0  0  0  0  0  0  0
    2.1024    1.2877  -11.6136 H   0  0  0  0  0  0  0  0  0  0  0  0
    1.6008   -0.2947  -11.0678 H   0  0  0  0  0  0  0  0  0  0  0  0
   -0.3621   -1.3067  -11.8677 H   0  0  0  0  0  0  0  0  0  0  0  0
   -1.5512   -0.0881  -11.4573 H   0  0  0  0  0  0  0  0  0  0  0  0
   -2.3976   -1.4988  -13.2130 H   0  0  0  0  0  0  0  0  0  0  0  0
   -2.1515    0.0918  -13.9029 H   0  0  0  0  0  0  0  0  0  0  0  0
   -0.2989   -2.3302  -14.2167 H   0  0  0  0  0  0  0  0  0  0  0  0
   -1.4525   -1.7937  -15.4195 H   0  0  0  0  0  0  0  0  0  0  0  0
    1.9745   -2.1169  -13.6200 H   0  0  0  0  0  0  0  0  0  0  0  0
    1.1331    1.9149  -16.9096 H   0  0  0  0  0  0  0  0  0  0  0  0
    3.7894    1.6830  -16.0979 H   0  0  0  0  0  0  0  0  0  0  0  0
    4.3351   -1.5798  -13.4693 H   0  0  0  0  0  0  0  0  0  0  0  0
    5.2491    0.3016  -14.7058 H   0  0  0  0  0  0  0  0  0  0  0  0
  1  2  2  0  0  0  0 
  2  3  1  0  0  0  0 
  2  4  1  0  0  0  0 
  3  5  1  0  0  0  0 
  3  6  1  0  0  0  0 
  4  7  1  0  0  0  0 
  5  7  1  0  0  0  0 
  5  8  2  0  0  0  0 
  6  9  1  0  0  0  0 
  6 10  1  0  0  0  0 
  7 11  2  0  0  0  0 
  8 12  1  0  0  0  0 
  9 13  1  0  0  0  0 
 10 14  1  0  0  0  0 
 11 15  1  0  0  0  0 
 12 15  2  0  0  0  0 
 13 16  1  0  0  0  0 
 14 16  1  0  0  0  0 
 15 17  1  0  0  0  0 
 16 18  1  0  0  0  0 
 18 19  1  0  0  0  0 
 19 20  1  0  0  0  0 
 20 21  1  0  0  0  0 
 21 22  1  0  0  0  0 
 21 23  1  0  0  0  0 
 22 24  1  0  0  0  0 
 22 25  2  0  0  0  0 
 23 26  2  0  0  0  0 
 23 27  1  0  0  0  0 
 24 27  1  0  0  0  0 
 24 28  2  0  0  0  0 
 25 29  1  0  0  0  0 
 28 30  1  0  0  0  0 
 29 30  2  0  0  0  0 
  4 31  1  0  0  0  0 
  6 32  1  0  0  0  0 
  8 33  1  0  0  0  0 
  9 34  1  0  0  0  0 
  9 35  1  0  0  0  0 
 10 36  1  0  0  0  0 
 10 37  1  0  0  0  0 
 11 38  1  0  0  0  0 
 12 39  1  0  0  0  0 
 13 40  1  0  0  0  0 
 13 41  1  0  0  0  0 
 14 42  1  0  0  0  0 
 14 43  1  0  0  0  0 
 18 44  1  0  0  0  0 
 18 45  1  0  0  0  0 
 19 46  1  0  0  0  0 
 19 47  1  0  0  0  0 
 20 48  1  0  0  0  0 
 20 49  1  0  0  0  0 
 25 50  1  0  0  0  0 
 27 51  1  0  0  0  0 
 28 52  1  0  0  0  0 
 29 53  1  0  0  0  0 
 30 54  1  0  0  0  0 
M  END
> <cdk:Title>
domperidone

> <Conformer>
1

> <SuperDrugID>
SD000839

$$$$
