chromic chloride
  CDK     0628171802

  4  3  0  0  0  0  0  0  0  0999 V2000
    0.2080    0.2941   -0.5095 Cr  0  0  0  0  0  0  0  0  0  0  0  0
   -0.9649   -1.3645   -1.9423 Cl  0  0  0  0  0  0  0  0  0  0  0  0
   -0.9649    2.3643    0.2106 Cl  0  0  0  0  0  0  0  0  0  0  0  0
    2.5507   -0.1216    0.2106 Cl  0  0  0  0  0  0  0  0  0  0  0  0
  1  2  1  0  0  0  0 
  1  3  1  0  0  0  0 
  1  4  1  0  0  0  0 
M  END
> <cdk:Title>
chromic chloride

> <Conformer>
1

> <SuperDrugID>
SD003912

$$$$
