amphotericin B
  CDK     0628171801

138140  0  0  0  0  0  0  0  0999 V2000
  -11.8587    1.1769   -0.8348 C   0  0  1  0  0  0  0  0  0  0  0  0
  -11.8079    0.4341   -2.2151 C   0  0  2  0  0  0  0  0  0  0  0  0
  -12.0618   -1.0278   -2.0400 O   0  0  0  0  0  0  0  0  0  0  0  0
  -11.4635   -1.9091   -1.0005 C   0  0  2  0  0  0  0  0  0  0  0  0
  -11.6270   -1.0805    0.4228 C   0  0  1  0  0  0  0  0  0  0  0  0
  -11.1527    0.4359    0.3348 C   0  0  1  0  0  0  0  0  0  0  0  0
   -9.7449    0.5083    0.1589 O   0  0  0  0  0  0  0  0  0  0  0  0
  -13.0270   -1.0552    1.0228 C   0  0  0  0  0  0  0  0  0  0  0  0
  -14.0985   -1.4383    0.2907 O   0  0  0  0  0  0  0  0  0  0  0  0
  -13.2283   -0.6759    2.1997 O   0  0  0  0  0  0  0  0  0  0  0  0
  -10.0510   -2.3788   -1.4644 C   0  0  1  0  0  0  0  0  0  0  0  0
  -10.5244    0.7706   -3.0549 C   0  0  2  0  0  0  0  0  0  0  0  0
   -9.2298   -3.4079   -0.5952 C   0  0  1  0  0  0  0  0  0  0  0  0
   -8.3144   -4.2941   -1.3118 O   0  0  0  0  0  0  0  0  0  0  0  0
   -8.4342   -2.6315    0.3631 C   0  0  0  0  0  0  0  0  0  0  0  0
   -8.5387   -4.7439   -2.6635 C   0  0  2  0  0  0  0  0  0  0  0  0
   -9.7264   -5.5645   -2.7345 O   0  0  0  0  0  0  0  0  0  0  0  0
  -10.0486   -6.0440   -4.0627 C   0  0  1  0  0  0  0  0  0  0  0  0
   -8.8683   -6.8587   -4.6819 C   0  0  2  0  0  0  0  0  0  0  0  0
   -7.5454   -6.0447   -4.5980 C   0  0  1  0  0  0  0  0  0  0  0  0
   -7.2975   -5.5361   -3.1487 C   0  0  2  0  0  0  0  0  0  0  0  0
   -7.0328   -6.6148   -2.2524 O   0  0  0  0  0  0  0  0  0  0  0  0
   -6.4000   -6.8341   -5.0770 N   0  0  1  0  0  0  0  0  0  0  0  0
   -9.1591   -7.1845   -6.0422 O   0  0  0  0  0  0  0  0  0  0  0  0
  -11.3451   -6.8822   -3.9548 C   0  0  0  0  0  0  0  0  0  0  0  0
   -7.0943   -2.4846    0.3226 C   0  0  0  0  0  0  0  0  0  0  0  0
   -6.4546   -1.4359    0.8952 C   0  0  0  0  0  0  0  0  0  0  0  0
   -6.6593   -0.2095    0.3752 C   0  0  0  0  0  0  0  0  0  0  0  0
   -5.9933    0.9348    0.6839 C   0  0  0  0  0  0  0  0  0  0  0  0
  -12.9365    0.9253   -2.9446 O   0  0  0  0  0  0  0  0  0  0  0  0
   -6.4906    2.1364    0.3299 C   0  0  0  0  0  0  0  0  0  0  0  0
   -5.7494    3.2746    0.2498 C   0  0  0  0  0  0  0  0  0  0  0  0
   -6.1722    4.3329   -0.4701 C   0  0  0  0  0  0  0  0  0  0  0  0
   -5.3325    5.3044   -0.9282 C   0  0  0  0  0  0  0  0  0  0  0  0
   -5.5744    5.9243   -2.1001 C   0  0  0  0  0  0  0  0  0  0  0  0
   -4.6656    6.6883   -2.7626 C   0  0  0  0  0  0  0  0  0  0  0  0
   -4.5990    6.6624   -4.1076 C   0  0  0  0  0  0  0  0  0  0  0  0
   -3.6507    7.3057   -4.8250 C   0  0  0  0  0  0  0  0  0  0  0  0
   -3.0226    6.7068   -5.8545 C   0  0  0  0  0  0  0  0  0  0  0  0
   -1.9954    7.3497   -6.6751 C   0  0  2  0  0  0  0  0  0  0  0  0
   -2.4476    7.3843   -8.1617 C   0  0  0  0  0  0  0  0  0  0  0  0
   -0.5684    6.7369   -6.4370 C   0  0  1  0  0  0  0  0  0  0  0  0
   -0.2864    6.9059   -5.0430 O   0  0  0  0  0  0  0  0  0  0  0  0
   -0.3305    5.2552   -6.9472 C   0  0  2  0  0  0  0  0  0  0  0  0
    0.5059    4.3673   -5.9493 C   0  0  1  0  0  0  0  0  0  0  0  0
    0.3078    5.2542   -8.3725 C   0  0  0  0  0  0  0  0  0  0  0  0
   -0.1720    4.1417   -4.6979 O   0  0  0  0  0  0  0  0  0  0  0  0
    1.0028    2.9913   -6.4742 C   0  0  0  0  0  0  0  0  0  0  0  0
   -1.3328    3.4646   -4.4355 C   0  0  0  0  0  0  0  0  0  0  0  0
   -1.6933    3.3020   -3.0159 C   0  0  1  0  0  0  0  0  0  0  0  0
   -2.0522    3.0077   -5.3538 O   0  0  0  0  0  0  0  0  0  0  0  0
   -3.0011    2.5323   -2.6778 C   0  0  2  0  0  0  0  0  0  0  0  0
   -3.1331    2.6243   -1.2600 O   0  0  0  0  0  0  0  0  0  0  0  0
   -3.0373    1.0353   -3.1364 C   0  0  2  0  0  0  0  0  0  0  0  0
   -4.0536    0.1523   -2.3386 C   0  0  2  0  0  0  0  0  0  0  0  0
   -3.4154   -0.3036   -1.1404 O   0  0  0  0  0  0  0  0  0  0  0  0
   -4.6001   -1.1126   -3.0600 C   0  0  1  0  0  0  0  0  0  0  0  0
   -5.4829   -0.8989   -4.3241 C   0  0  2  0  0  0  0  0  0  0  0  0
   -6.8428   -0.1584   -4.1057 C   0  0  2  0  0  0  0  0  0  0  0  0
   -7.7920   -0.2885   -5.3427 C   0  0  1  0  0  0  0  0  0  0  0  0
   -6.5903    1.2219   -3.8380 O   0  0  0  0  0  0  0  0  0  0  0  0
   -9.1420    0.4915   -5.2697 C   0  0  2  0  0  0  0  0  0  0  0  0
   -7.1089    0.1777   -6.5094 O   0  0  0  0  0  0  0  0  0  0  0  0
  -10.2523   -0.0954   -4.3306 C   0  0  2  0  0  0  0  0  0  0  0  0
  -11.4467   -0.2648   -5.0939 O   0  0  0  0  0  0  0  0  0  0  0  0
  -11.4386    2.1827   -0.9308 H   0  0  0  0  0  0  0  0  0  0  0  0
  -12.9031    1.3088   -0.5357 H   0  0  0  0  0  0  0  0  0  0  0  0
  -12.0855   -2.8063   -0.9384 H   0  0  0  0  0  0  0  0  0  0  0  0
  -11.0439   -1.5240    1.2660 H   0  0  0  0  0  0  0  0  0  0  0  0
  -11.3628    0.9634    1.2718 H   0  0  0  0  0  0  0  0  0  0  0  0
   -9.3657    0.0804    0.9539 H   0  0  0  0  0  0  0  0  0  0  0  0
  -14.9989   -1.4060    0.6777 H   0  0  0  0  0  0  0  0  0  0  0  0
  -10.2785   -2.8355   -2.4223 H   0  0  0  0  0  0  0  0  0  0  0  0
   -9.4283   -1.5109   -1.6751 H   0  0  0  0  0  0  0  0  0  0  0  0
   -9.6412    0.7077   -2.4189 H   0  0  0  0  0  0  0  0  0  0  0  0
  -10.6064    1.8183   -3.3606 H   0  0  0  0  0  0  0  0  0  0  0  0
   -9.9257   -4.0473   -0.0461 H   0  0  0  0  0  0  0  0  0  0  0  0
   -8.9322   -2.0848    1.0215 H   0  0  0  0  0  0  0  0  0  0  0  0
   -8.6159   -3.8750   -3.3232 H   0  0  0  0  0  0  0  0  0  0  0  0
  -10.2664   -5.1823   -4.7037 H   0  0  0  0  0  0  0  0  0  0  0  0
   -8.7468   -7.7954   -4.1298 H   0  0  0  0  0  0  0  0  0  0  0  0
   -7.6299   -5.1752   -5.2580 H   0  0  0  0  0  0  0  0  0  0  0  0
   -6.4289   -4.8714   -3.1409 H   0  0  0  0  0  0  0  0  0  0  0  0
   -6.2068   -7.0259   -2.5829 H   0  0  0  0  0  0  0  0  0  0  0  0
   -6.5685   -7.0411   -6.0644 H   0  0  0  0  0  0  0  0  0  0  0  0
   -5.5782   -6.2257   -5.0445 H   0  0  0  0  0  0  0  0  0  0  0  0
   -8.4074   -7.7377   -6.3448 H   0  0  0  0  0  0  0  0  0  0  0  0
  -11.6716   -7.2121   -4.9432 H   0  0  0  0  0  0  0  0  0  0  0  0
  -12.1423   -6.2808   -3.5121 H   0  0  0  0  0  0  0  0  0  0  0  0
  -11.1804   -7.7601   -3.3257 H   0  0  0  0  0  0  0  0  0  0  0  0
   -6.5357   -3.0712   -0.2493 H   0  0  0  0  0  0  0  0  0  0  0  0
   -5.7988   -1.5933    1.6281 H   0  0  0  0  0  0  0  0  0  0  0  0
   -7.3268   -0.1340   -0.3680 H   0  0  0  0  0  0  0  0  0  0  0  0
   -5.0825    0.8694    1.0814 H   0  0  0  0  0  0  0  0  0  0  0  0
  -13.0004    0.3683   -3.7457 H   0  0  0  0  0  0  0  0  0  0  0  0
   -7.4299    2.1743   -0.0025 H   0  0  0  0  0  0  0  0  0  0  0  0
   -4.8265    3.2734    0.6236 H   0  0  0  0  0  0  0  0  0  0  0  0
   -7.1228    4.3481   -0.7781 H   0  0  0  0  0  0  0  0  0  0  0  0
   -4.4812    5.4775   -0.4396 H   0  0  0  0  0  0  0  0  0  0  0  0
   -6.4453    5.7594   -2.5594 H   0  0  0  0  0  0  0  0  0  0  0  0
   -4.0118    7.2351   -2.2465 H   0  0  0  0  0  0  0  0  0  0  0  0
   -5.2604    6.1163   -4.6183 H   0  0  0  0  0  0  0  0  0  0  0  0
   -3.4176    8.2391   -4.5736 H   0  0  0  0  0  0  0  0  0  0  0  0
   -3.2609    5.7647   -6.0822 H   0  0  0  0  0  0  0  0  0  0  0  0
   -1.9161    8.4043   -6.3840 H   0  0  0  0  0  0  0  0  0  0  0  0
   -1.7094    7.9129   -8.7671 H   0  0  0  0  0  0  0  0  0  0  0  0
   -2.5843    6.3778   -8.5634 H   0  0  0  0  0  0  0  0  0  0  0  0
   -3.3957    7.9181   -8.2567 H   0  0  0  0  0  0  0  0  0  0  0  0
    0.1510    7.3973   -6.9336 H   0  0  0  0  0  0  0  0  0  0  0  0
    0.6691    6.7135   -4.9475 H   0  0  0  0  0  0  0  0  0  0  0  0
   -1.2997    4.7653   -7.0559 H   0  0  0  0  0  0  0  0  0  0  0  0
    1.4081    4.9251   -5.6914 H   0  0  0  0  0  0  0  0  0  0  0  0
    0.2131    4.2682   -8.8315 H   0  0  0  0  0  0  0  0  0  0  0  0
    1.3665    5.5181   -8.3231 H   0  0  0  0  0  0  0  0  0  0  0  0
   -0.1833    5.9644   -9.0360 H   0  0  0  0  0  0  0  0  0  0  0  0
    1.7706    3.1173   -7.2410 H   0  0  0  0  0  0  0  0  0  0  0  0
    1.4488    2.4247   -5.6517 H   0  0  0  0  0  0  0  0  0  0  0  0
    0.1764    2.4129   -6.8915 H   0  0  0  0  0  0  0  0  0  0  0  0
   -0.8607    2.8038   -2.5106 H   0  0  0  0  0  0  0  0  0  0  0  0
   -1.7719    4.3085   -2.5986 H   0  0  0  0  0  0  0  0  0  0  0  0
   -3.8525    3.0568   -3.1254 H   0  0  0  0  0  0  0  0  0  0  0  0
   -3.1621    3.5839   -1.0622 H   0  0  0  0  0  0  0  0  0  0  0  0
   -2.0414    0.5910   -3.0426 H   0  0  0  0  0  0  0  0  0  0  0  0
   -3.2894    1.0229   -4.1966 H   0  0  0  0  0  0  0  0  0  0  0  0
   -4.9086    0.7559   -2.0360 H   0  0  0  0  0  0  0  0  0  0  0  0
   -3.0207    0.4916   -0.7257 H   0  0  0  0  0  0  0  0  0  0  0  0
   -3.7454   -1.7355   -3.3375 H   0  0  0  0  0  0  0  0  0  0  0  0
   -5.1940   -1.6819   -2.3394 H   0  0  0  0  0  0  0  0  0  0  0  0
   -5.6927   -1.8946   -4.7247 H   0  0  0  0  0  0  0  0  0  0  0  0
   -4.9008   -0.3776   -5.0865 H   0  0  0  0  0  0  0  0  0  0  0  0
   -7.3414   -0.5916   -3.2358 H   0  0  0  0  0  0  0  0  0  0  0  0
   -8.0186   -1.3445   -5.5122 H   0  0  0  0  0  0  0  0  0  0  0  0
   -7.4529    1.5944   -3.5585 H   0  0  0  0  0  0  0  0  0  0  0  0
   -9.5392    0.5132   -6.2909 H   0  0  0  0  0  0  0  0  0  0  0  0
   -8.9358    1.5334   -5.0203 H   0  0  0  0  0  0  0  0  0  0  0  0
   -6.3562   -0.4376   -6.6398 H   0  0  0  0  0  0  0  0  0  0  0  0
   -9.9576   -1.0976   -4.0253 H   0  0  0  0  0  0  0  0  0  0  0  0
  -12.0132   -0.8572   -4.5569 H   0  0  0  0  0  0  0  0  0  0  0  0
  1  2  1  0  0  0  0 
  1  6  1  0  0  0  0 
  2  3  1  0  0  0  0 
  3  4  1  0  0  0  0 
  4  5  1  0  0  0  0 
  5  6  1  0  0  0  0 
  6  7  1  0  0  0  0 
  5  8  1  0  0  0  0 
  8  9  1  0  0  0  0 
  8 10  2  0  0  0  0 
  4 11  1  0  0  0  0 
  2 12  1  0  0  0  0 
 11 13  1  0  0  0  0 
 13 14  1  0  0  0  0 
 13 15  1  0  0  0  0 
 16 14  1  0  0  0  0 
 16 17  1  0  0  0  0 
 16 21  1  0  0  0  0 
 17 18  1  0  0  0  0 
 18 19  1  0  0  0  0 
 19 20  1  0  0  0  0 
 20 21  1  0  0  0  0 
 21 22  1  0  0  0  0 
 20 23  1  0  0  0  0 
 19 24  1  0  0  0  0 
 18 25  1  0  0  0  0 
 15 26  2  0  0  0  0 
 26 27  1  0  0  0  0 
 27 28  2  0  0  0  0 
 28 29  1  0  0  0  0 
  2 30  1  0  0  0  0 
 29 31  2  0  0  0  0 
 31 32  1  0  0  0  0 
 32 33  2  0  0  0  0 
 33 34  1  0  0  0  0 
 34 35  2  0  0  0  0 
 35 36  1  0  0  0  0 
 36 37  2  0  0  0  0 
 37 38  1  0  0  0  0 
 38 39  2  0  0  0  0 
 39 40  1  0  0  0  0 
 40 41  1  0  0  0  0 
 40 42  1  0  0  0  0 
 42 43  1  0  0  0  0 
 42 44  1  0  0  0  0 
 44 45  1  0  0  0  0 
 44 46  1  0  0  0  0 
 45 47  1  0  0  0  0 
 45 48  1  0  0  0  0 
 47 49  1  0  0  0  0 
 49 50  1  0  0  0  0 
 49 51  2  0  0  0  0 
 50 52  1  0  0  0  0 
 52 53  1  0  0  0  0 
 52 54  1  0  0  0  0 
 54 55  1  0  0  0  0 
 55 56  1  0  0  0  0 
 55 57  1  0  0  0  0 
 57 58  1  0  0  0  0 
 58 59  1  0  0  0  0 
 59 60  1  0  0  0  0 
 59 61  1  0  0  0  0 
 60 62  1  0  0  0  0 
 60 63  1  0  0  0  0 
 62 64  1  0  0  0  0 
 64 65  1  0  0  0  0 
 64 12  1  0  0  0  0 
  1 66  1  0  0  0  0 
  1 67  1  0  0  0  0 
  4 68  1  0  0  0  0 
  5 69  1  0  0  0  0 
  6 70  1  0  0  0  0 
  7 71  1  0  0  0  0 
  9 72  1  0  0  0  0 
 11 73  1  0  0  0  0 
 11 74  1  0  0  0  0 
 12 75  1  0  0  0  0 
 12 76  1  0  0  0  0 
 13 77  1  0  0  0  0 
 15 78  1  0  0  0  0 
 16 79  1  0  0  0  0 
 18 80  1  0  0  0  0 
 19 81  1  0  0  0  0 
 20 82  1  0  0  0  0 
 21 83  1  0  0  0  0 
 22 84  1  0  0  0  0 
 23 85  1  0  0  0  0 
 23 86  1  0  0  0  0 
 24 87  1  0  0  0  0 
 25 88  1  0  0  0  0 
 25 89  1  0  0  0  0 
 25 90  1  0  0  0  0 
 26 91  1  0  0  0  0 
 27 92  1  0  0  0  0 
 28 93  1  0  0  0  0 
 29 94  1  0  0  0  0 
 30 95  1  0  0  0  0 
 31 96  1  0  0  0  0 
 32 97  1  0  0  0  0 
 33 98  1  0  0  0  0 
 34 99  1  0  0  0  0 
 35100  1  0  0  0  0 
 36101  1  0  0  0  0 
 37102  1  0  0  0  0 
 38103  1  0  0  0  0 
 39104  1  0  0  0  0 
 40105  1  0  0  0  0 
 41106  1  0  0  0  0 
 41107  1  0  0  0  0 
 41108  1  0  0  0  0 
 42109  1  0  0  0  0 
 43110  1  0  0  0  0 
 44111  1  0  0  0  0 
 45112  1  0  0  0  0 
 46113  1  0  0  0  0 
 46114  1  0  0  0  0 
 46115  1  0  0  0  0 
 48116  1  0  0  0  0 
 48117  1  0  0  0  0 
 48118  1  0  0  0  0 
 50119  1  0  0  0  0 
 50120  1  0  0  0  0 
 52121  1  0  0  0  0 
 53122  1  0  0  0  0 
 54123  1  0  0  0  0 
 54124  1  0  0  0  0 
 55125  1  0  0  0  0 
 56126  1  0  0  0  0 
 57127  1  0  0  0  0 
 57128  1  0  0  0  0 
 58129  1  0  0  0  0 
 58130  1  0  0  0  0 
 59131  1  0  0  0  0 
 60132  1  0  0  0  0 
 61133  1  0  0  0  0 
 62134  1  0  0  0  0 
 62135  1  0  0  0  0 
 63136  1  0  0  0  0 
 64137  1  0  0  0  0 
 65138  1  0  0  0  0 
M  END
> <cdk:Title>
amphotericin B

> <Conformer>
1

> <SuperDrugID>
SD000162

$$$$
