prednylidene
  CDK     0628171801

 55 58  0  0  0  0  0  0  0  0999 V2000
    1.9026   -0.2425   -2.4281 C   0  0  0  0  0  0  0  0  0  0  0  0
    1.8247    1.3346   -2.5317 C   0  0  2  0  0  0  0  0  0  0  0  0
    2.7892    2.0834   -1.5616 C   0  0  2  0  0  0  0  0  0  0  0  0
    0.4348    1.8482   -1.9698 C   0  0  2  0  0  0  0  0  0  0  0  0
    2.2173    1.7864   -3.9844 C   0  0  2  0  0  0  0  0  0  0  0  0
    4.3006    1.7418   -1.7597 C   0  0  1  0  0  0  0  0  0  0  0  0
    2.1150    1.8961   -0.1871 C   0  0  1  0  0  0  0  0  0  0  0  0
   -0.7391    1.0047   -2.3826 C   0  0  0  0  0  0  0  0  0  0  0  0
    0.1183    3.1718   -2.4324 O   0  0  0  0  0  0  0  0  0  0  0  0
    0.7062    2.0029   -0.5305 C   0  0  0  0  0  0  0  0  0  0  0  0
    3.7358    1.5996   -4.3319 C   0  0  1  0  0  0  0  0  0  0  0  0
    4.7412    2.1302   -3.2292 C   0  0  2  0  0  0  0  0  0  0  0  0
    5.1866    2.4943   -0.7202 C   0  0  1  0  0  0  0  0  0  0  0  0
   -1.4435    0.0143   -1.5343 C   0  0  1  0  0  0  0  0  0  0  0  0
   -1.1524    1.1143   -3.5622 O   0  0  0  0  0  0  0  0  0  0  0  0
   -0.2137    2.3093    0.3987 C   0  0  0  0  0  0  0  0  0  0  0  0
    3.9845    0.2537   -4.7229 O   0  0  0  0  0  0  0  0  0  0  0  0
    6.3028    1.9040   -3.4722 C   0  0  2  0  0  0  0  0  0  0  0  0
    6.6958    2.2653   -0.9677 C   0  0  2  0  0  0  0  0  0  0  0  0
   -2.7051    0.5389   -1.1403 O   0  0  0  0  0  0  0  0  0  0  0  0
    6.7544    0.3981   -3.4809 C   0  0  0  0  0  0  0  0  0  0  0  0
    7.0383    2.5931   -2.3578 C   0  0  0  0  0  0  0  0  0  0  0  0
    6.6820    2.4382   -4.8050 C   0  0  0  0  0  0  0  0  0  0  0  0
    7.9718    3.5391   -2.6075 C   0  0  0  0  0  0  0  0  0  0  0  0
    7.6202    3.3816   -4.9821 C   0  0  0  0  0  0  0  0  0  0  0  0
    8.2906    3.9199   -3.8998 C   0  0  0  0  0  0  0  0  0  0  0  0
    9.1962    4.7645   -4.0902 O   0  0  0  0  0  0  0  0  0  0  0  0
    4.4537    0.6749   -1.5946 H   0  0  0  0  0  0  0  0  0  0  0  0
    4.6072    3.2193   -3.2872 H   0  0  0  0  0  0  0  0  0  0  0  0
    2.7286    3.1633   -1.7691 H   0  0  0  0  0  0  0  0  0  0  0  0
    2.9095   -0.6269   -2.5393 H   0  0  0  0  0  0  0  0  0  0  0  0
    1.5392   -0.6117   -1.4675 H   0  0  0  0  0  0  0  0  0  0  0  0
    1.2940   -0.7030   -3.2100 H   0  0  0  0  0  0  0  0  0  0  0  0
    1.9877    2.8478   -4.1136 H   0  0  0  0  0  0  0  0  0  0  0  0
    1.6049    1.2523   -4.7170 H   0  0  0  0  0  0  0  0  0  0  0  0
    2.3405    0.9213    0.2532 H   0  0  0  0  0  0  0  0  0  0  0  0
    2.4282    2.6885    0.5009 H   0  0  0  0  0  0  0  0  0  0  0  0
    0.8324    3.7599   -2.1060 H   0  0  0  0  0  0  0  0  0  0  0  0
    3.8965    2.1780   -5.2472 H   0  0  0  0  0  0  0  0  0  0  0  0
    4.9808    3.5698   -0.7688 H   0  0  0  0  0  0  0  0  0  0  0  0
    4.9452    2.1530    0.2904 H   0  0  0  0  0  0  0  0  0  0  0  0
   -1.6101   -0.9032   -2.1016 H   0  0  0  0  0  0  0  0  0  0  0  0
   -0.8739   -0.2444   -0.6419 H   0  0  0  0  0  0  0  0  0  0  0  0
    0.0408    2.4205    1.3515 H   0  0  0  0  0  0  0  0  0  0  0  0
   -1.1644    2.4379    0.1509 H   0  0  0  0  0  0  0  0  0  0  0  0
    4.1622   -0.2329   -3.8944 H   0  0  0  0  0  0  0  0  0  0  0  0
    6.9496    1.2248   -0.7560 H   0  0  0  0  0  0  0  0  0  0  0  0
    7.2489    2.8683   -0.2401 H   0  0  0  0  0  0  0  0  0  0  0  0
   -3.1219   -0.1740   -0.6116 H   0  0  0  0  0  0  0  0  0  0  0  0
    6.3747   -0.1442   -4.3468 H   0  0  0  0  0  0  0  0  0  0  0  0
    6.4184   -0.1381   -2.5934 H   0  0  0  0  0  0  0  0  0  0  0  0
    7.8455    0.3237   -3.5166 H   0  0  0  0  0  0  0  0  0  0  0  0
    6.2377    2.0787   -5.6185 H   0  0  0  0  0  0  0  0  0  0  0  0
    8.4426    3.9882   -1.8544 H   0  0  0  0  0  0  0  0  0  0  0  0
    7.8355    3.6930   -5.9027 H   0  0  0  0  0  0  0  0  0  0  0  0
  2  1  1  0  0  0  0 
  3  2  1  0  0  0  0 
  2  4  1  0  0  0  0 
  2  5  1  0  0  0  0 
  6  3  1  0  0  0  0 
  3  7  1  0  0  0  0 
  3 30  1  0  0  0  0 
  4  8  1  0  0  0  0 
  4  9  1  0  0  0  0 
  4 10  1  0  0  0  0 
 11  5  1  0  0  0  0 
 12  6  1  0  0  0  0 
  6 13  1  0  0  0  0 
  6 28  1  0  0  0  0 
  7 10  1  0  0  0  0 
  8 14  1  0  0  0  0 
  8 15  2  0  0  0  0 
 10 16  2  0  0  0  0 
 12 11  1  0  0  0  0 
 11 17  1  0  0  0  0 
 12 18  1  0  0  0  0 
 12 29  1  0  0  0  0 
 13 19  1  0  0  0  0 
 14 20  1  0  0  0  0 
 18 21  1  0  0  0  0 
 18 22  1  0  0  0  0 
 18 23  1  0  0  0  0 
 19 22  1  0  0  0  0 
 22 24  2  0  0  0  0 
 23 25  2  0  0  0  0 
 24 26  1  0  0  0  0 
 25 26  1  0  0  0  0 
 26 27  2  0  0  0  0 
  1 31  1  0  0  0  0 
  1 32  1  0  0  0  0 
  1 33  1  0  0  0  0 
  5 34  1  0  0  0  0 
  5 35  1  0  0  0  0 
  7 36  1  0  0  0  0 
  7 37  1  0  0  0  0 
  9 38  1  0  0  0  0 
 11 39  1  0  0  0  0 
 13 40  1  0  0  0  0 
 13 41  1  0  0  0  0 
 14 42  1  0  0  0  0 
 14 43  1  0  0  0  0 
 16 44  1  0  0  0  0 
 16 45  1  0  0  0  0 
 17 46  1  0  0  0  0 
 19 47  1  0  0  0  0 
 19 48  1  0  0  0  0 
 20 49  1  0  0  0  0 
 21 50  1  0  0  0  0 
 21 51  1  0  0  0  0 
 21 52  1  0  0  0  0 
 23 53  1  0  0  0  0 
 24 54  1  0  0  0  0 
 25 55  1  0  0  0  0 
M  END
> <cdk:Title>
prednylidene

> <Conformer>
1

> <SuperDrugID>
SD002022

$$$$
