dinoprost
  CDK     0628171802

 59 59  0  0  0  0  0  0  0  0999 V2000
   -2.1239    2.4707   -9.4652 C   0  0  2  0  0  0  0  0  0  0  0  0
   -0.7036    2.7614   -9.6343 C   0  0  0  0  0  0  0  0  0  0  0  0
   -2.6117    2.6816   -7.9903 C   0  0  2  0  0  0  0  0  0  0  0  0
   -0.1580    3.9749   -9.8445 C   0  0  0  0  0  0  0  0  0  0  0  0
   -2.0216    1.6279   -6.9840 C   0  0  1  0  0  0  0  0  0  0  0  0
   -4.1467    2.5493   -7.8019 C   0  0  1  0  0  0  0  0  0  0  0  0
   -0.9021    5.2209   -9.9734 C   0  0  2  0  0  0  0  0  0  0  0  0
   -1.4459    2.2164   -5.7729 C   0  0  0  0  0  0  0  0  0  0  0  0
   -3.1915    0.6499   -6.6441 C   0  0  1  0  0  0  0  0  0  0  0  0
   -4.9355    3.0406   -8.8838 O   0  0  0  0  0  0  0  0  0  0  0  0
   -4.3734    1.0526   -7.5472 C   0  0  1  0  0  0  0  0  0  0  0  0
   -0.0230    6.4809  -10.2145 C   0  0  2  0  0  0  0  0  0  0  0  0
   -0.6878    1.5165   -4.9098 C   0  0  0  0  0  0  0  0  0  0  0  0
   -2.8311   -0.7144   -6.8513 O   0  0  0  0  0  0  0  0  0  0  0  0
   -0.8958    7.7558  -10.3763 C   0  0  2  0  0  0  0  0  0  0  0  0
   -0.1826    2.0634   -3.6585 C   0  0  2  0  0  0  0  0  0  0  0  0
   -0.1061    8.9727  -10.6323 C   0  0  0  0  0  0  0  0  0  0  0  0
   -1.2997    2.1242   -2.5736 C   0  0  1  0  0  0  0  0  0  0  0  0
    0.4054    3.3455   -3.8848 O   0  0  0  0  0  0  0  0  0  0  0  0
   -0.0983    9.9865   -9.7366 O   0  0  0  0  0  0  0  0  0  0  0  0
    0.5394    9.0991  -11.6977 O   0  0  0  0  0  0  0  0  0  0  0  0
   -0.8096    2.6662   -1.2035 C   0  0  2  0  0  0  0  0  0  0  0  0
   -1.9242    2.6687   -0.1200 C   0  0  1  0  0  0  0  0  0  0  0  0
   -1.4312    3.2512    1.2332 C   0  0  1  0  0  0  0  0  0  0  0  0
   -2.5243    3.2849    2.3251 C   0  0  0  0  0  0  0  0  0  0  0  0
   -2.3073    1.4340   -9.7642 H   0  0  0  0  0  0  0  0  0  0  0  0
   -2.7043    3.0964  -10.1458 H   0  0  0  0  0  0  0  0  0  0  0  0
   -0.0801    1.9882   -9.5642 H   0  0  0  0  0  0  0  0  0  0  0  0
   -2.3425    3.7039   -7.7062 H   0  0  0  0  0  0  0  0  0  0  0  0
    0.8321    4.0169   -9.9275 H   0  0  0  0  0  0  0  0  0  0  0  0
   -1.2193    1.0701   -7.4783 H   0  0  0  0  0  0  0  0  0  0  0  0
   -4.4422    3.1093   -6.9079 H   0  0  0  0  0  0  0  0  0  0  0  0
   -1.4845    5.3803   -9.0634 H   0  0  0  0  0  0  0  0  0  0  0  0
   -1.5964    5.1198  -10.8119 H   0  0  0  0  0  0  0  0  0  0  0  0
   -1.6543    3.1647   -5.5564 H   0  0  0  0  0  0  0  0  0  0  0  0
   -3.5066    0.7480   -5.5982 H   0  0  0  0  0  0  0  0  0  0  0  0
   -5.8647    2.9403   -8.5856 H   0  0  0  0  0  0  0  0  0  0  0  0
   -5.3337    0.8725   -7.0590 H   0  0  0  0  0  0  0  0  0  0  0  0
   -4.3456    0.5013   -8.4913 H   0  0  0  0  0  0  0  0  0  0  0  0
    0.5822    6.3342  -11.1145 H   0  0  0  0  0  0  0  0  0  0  0  0
    0.6573    6.6118   -9.3676 H   0  0  0  0  0  0  0  0  0  0  0  0
   -0.4841    0.5624   -5.1106 H   0  0  0  0  0  0  0  0  0  0  0  0
   -3.6364   -1.2212   -6.6176 H   0  0  0  0  0  0  0  0  0  0  0  0
   -1.4862    7.9002   -9.4667 H   0  0  0  0  0  0  0  0  0  0  0  0
   -1.5915    7.6209  -11.2096 H   0  0  0  0  0  0  0  0  0  0  0  0
    0.6173    1.4096   -3.2969 H   0  0  0  0  0  0  0  0  0  0  0  0
   -2.1180    2.7598   -2.9254 H   0  0  0  0  0  0  0  0  0  0  0  0
   -1.6966    1.1152   -2.4244 H   0  0  0  0  0  0  0  0  0  0  0  0
    0.8176    3.5905   -3.0305 H   0  0  0  0  0  0  0  0  0  0  0  0
    0.4053   10.8046   -9.9277 H   0  0  0  0  0  0  0  0  0  0  0  0
   -0.4510    3.6910   -1.3372 H   0  0  0  0  0  0  0  0  0  0  0  0
    0.0261    2.0506   -0.8574 H   0  0  0  0  0  0  0  0  0  0  0  0
   -2.7670    3.2663   -0.4803 H   0  0  0  0  0  0  0  0  0  0  0  0
   -2.2722    1.6427    0.0358 H   0  0  0  0  0  0  0  0  0  0  0  0
   -0.5954    2.6483    1.5994 H   0  0  0  0  0  0  0  0  0  0  0  0
   -1.0728    4.2722    1.0751 H   0  0  0  0  0  0  0  0  0  0  0  0
   -2.1085    3.7021    3.2448 H   0  0  0  0  0  0  0  0  0  0  0  0
   -3.3627    3.9092    2.0093 H   0  0  0  0  0  0  0  0  0  0  0  0
   -2.8870    2.2765    2.5337 H   0  0  0  0  0  0  0  0  0  0  0  0
  1  2  1  0  0  0  0 
  2  4  2  0  0  0  0 
  3  1  1  0  0  0  0 
  5  3  1  0  0  0  0 
  3  6  1  0  0  0  0 
  4  7  1  0  0  0  0 
  5  8  1  0  0  0  0 
  9  5  1  0  0  0  0 
  6 10  1  0  0  0  0 
  6 11  1  0  0  0  0 
  7 12  1  0  0  0  0 
  8 13  2  0  0  0  0 
  9 11  1  0  0  0  0 
  9 14  1  0  0  0  0 
 12 15  1  0  0  0  0 
 16 13  1  0  0  0  0 
 15 17  1  0  0  0  0 
 16 18  1  0  0  0  0 
 16 19  1  0  0  0  0 
 17 20  1  0  0  0  0 
 17 21  2  0  0  0  0 
 18 22  1  0  0  0  0 
 22 23  1  0  0  0  0 
 23 24  1  0  0  0  0 
 24 25  1  0  0  0  0 
  1 26  1  0  0  0  0 
  1 27  1  0  0  0  0 
  2 28  1  0  0  0  0 
  3 29  1  0  0  0  0 
  4 30  1  0  0  0  0 
  5 31  1  0  0  0  0 
  6 32  1  0  0  0  0 
  7 33  1  0  0  0  0 
  7 34  1  0  0  0  0 
  8 35  1  0  0  0  0 
  9 36  1  0  0  0  0 
 10 37  1  0  0  0  0 
 11 38  1  0  0  0  0 
 11 39  1  0  0  0  0 
 12 40  1  0  0  0  0 
 12 41  1  0  0  0  0 
 13 42  1  0  0  0  0 
 14 43  1  0  0  0  0 
 15 44  1  0  0  0  0 
 15 45  1  0  0  0  0 
 16 46  1  0  0  0  0 
 18 47  1  0  0  0  0 
 18 48  1  0  0  0  0 
 19 49  1  0  0  0  0 
 20 50  1  0  0  0  0 
 22 51  1  0  0  0  0 
 22 52  1  0  0  0  0 
 23 53  1  0  0  0  0 
 23 54  1  0  0  0  0 
 24 55  1  0  0  0  0 
 24 56  1  0  0  0  0 
 25 57  1  0  0  0  0 
 25 58  1  0  0  0  0 
 25 59  1  0  0  0  0 
M  END
> <cdk:Title>
dinoprost

> <Conformer>
1

> <SuperDrugID>
SD000810

$$$$
