benzquinamide
  CDK     0628171801

 61 63  0  0  0  0  0  0  0  0999 V2000
    1.6402    2.6428    7.9644 O   0  0  0  0  0  0  0  0  0  0  0  0
    2.4987    1.8141    8.6233 C   0  0  0  0  0  0  0  0  0  0  0  0
    1.9190    3.6468    6.9676 C   0  0  1  0  0  0  0  0  0  0  0  0
    1.9622    0.8034    9.5457 C   0  0  0  0  0  0  0  0  0  0  0  0
    3.7360    1.8781    8.4508 O   0  0  0  0  0  0  0  0  0  0  0  0
    0.5886    3.8060    6.1821 C   0  0  1  0  0  0  0  0  0  0  0  0
    2.4009    4.9993    7.6036 C   0  0  1  0  0  0  0  0  0  0  0  0
    0.5884    5.0551    5.2529 C   0  0  1  0  0  0  0  0  0  0  0  0
    3.7896    4.9823    8.1849 C   0  0  0  0  0  0  0  0  0  0  0  0
    2.1967    6.2648    6.7042 C   0  0  1  0  0  0  0  0  0  0  0  0
   -0.6841    5.1379    4.4821 C   0  0  0  0  0  0  0  0  0  0  0  0
    0.8718    6.3101    6.0170 N   0  0  2  0  0  0  0  0  0  0  0  0
    5.0248    4.8162    7.5341 N   0  0  0  0  0  0  0  0  0  0  0  0
    3.8028    5.1892    9.4239 O   0  0  0  0  0  0  0  0  0  0  0  0
   -1.7059    6.0537    4.8466 C   0  0  0  0  0  0  0  0  0  0  0  0
   -0.8750    4.2915    3.3634 C   0  0  0  0  0  0  0  0  0  0  0  0
   -0.2679    6.8065    6.8445 C   0  0  1  0  0  0  0  0  0  0  0  0
    6.2698    5.0271    8.2789 C   0  0  1  0  0  0  0  0  0  0  0  0
    5.1781    4.4724    6.1251 C   0  0  1  0  0  0  0  0  0  0  0  0
   -2.8893    6.1038    4.0742 C   0  0  0  0  0  0  0  0  0  0  0  0
   -1.5614    6.9841    6.0025 C   0  0  2  0  0  0  0  0  0  0  0  0
   -2.0500    4.3580    2.5917 C   0  0  0  0  0  0  0  0  0  0  0  0
    6.5804    3.9550    9.3562 C   0  0  0  0  0  0  0  0  0  0  0  0
    5.6865    3.0256    5.8999 C   0  0  0  0  0  0  0  0  0  0  0  0
   -3.0581    5.2800    2.9429 C   0  0  0  0  0  0  0  0  0  0  0  0
   -2.1710    3.5738    1.4738 O   0  0  0  0  0  0  0  0  0  0  0  0
   -4.2002    5.3701    2.1939 O   0  0  0  0  0  0  0  0  0  0  0  0
   -2.8243    2.3148    1.7098 C   0  0  0  0  0  0  0  0  0  0  0  0
   -4.1259    6.3982    1.1897 C   0  0  0  0  0  0  0  0  0  0  0  0
    2.6487    3.2458    6.2651 H   0  0  0  0  0  0  0  0  0  0  0  0
    2.3107   -0.1868    9.2411 H   0  0  0  0  0  0  0  0  0  0  0  0
    0.8689    0.8030    9.5302 H   0  0  0  0  0  0  0  0  0  0  0  0
    2.2993    1.0047   10.5646 H   0  0  0  0  0  0  0  0  0  0  0  0
    0.4300    2.9026    5.5848 H   0  0  0  0  0  0  0  0  0  0  0  0
   -0.2463    3.8767    6.8861 H   0  0  0  0  0  0  0  0  0  0  0  0
    1.6949    5.1569    8.4311 H   0  0  0  0  0  0  0  0  0  0  0  0
    1.4015    4.9439    4.5244 H   0  0  0  0  0  0  0  0  0  0  0  0
    2.3334    7.1683    7.3093 H   0  0  0  0  0  0  0  0  0  0  0  0
    2.9548    6.3186    5.9253 H   0  0  0  0  0  0  0  0  0  0  0  0
   -0.1466    3.6238    3.0944 H   0  0  0  0  0  0  0  0  0  0  0  0
   -0.4663    6.1205    7.6721 H   0  0  0  0  0  0  0  0  0  0  0  0
   -0.0111    7.7764    7.2819 H   0  0  0  0  0  0  0  0  0  0  0  0
    7.1327    5.0631    7.6063 H   0  0  0  0  0  0  0  0  0  0  0  0
    6.2467    6.0130    8.7550 H   0  0  0  0  0  0  0  0  0  0  0  0
    4.2667    4.5862    5.5490 H   0  0  0  0  0  0  0  0  0  0  0  0
    5.8870    5.1638    5.6568 H   0  0  0  0  0  0  0  0  0  0  0  0
   -3.6369    6.7552    4.3272 H   0  0  0  0  0  0  0  0  0  0  0  0
   -2.4205    6.8636    6.6713 H   0  0  0  0  0  0  0  0  0  0  0  0
   -1.5875    8.0061    5.6108 H   0  0  0  0  0  0  0  0  0  0  0  0
    7.7463    3.9404    9.4810 H   0  0  0  0  0  0  0  0  0  0  0  0
    6.0009    4.2372   10.2841 H   0  0  0  0  0  0  0  0  0  0  0  0
    6.1142    2.9832    9.0208 H   0  0  0  0  0  0  0  0  0  0  0  0
    5.9527    2.8870    4.8504 H   0  0  0  0  0  0  0  0  0  0  0  0
    6.5688    2.8193    6.5080 H   0  0  0  0  0  0  0  0  0  0  0  0
    4.9114    2.3003    6.1479 H   0  0  0  0  0  0  0  0  0  0  0  0
   -2.8515    1.7707    0.7653 H   0  0  0  0  0  0  0  0  0  0  0  0
   -2.2776    1.7069    2.4350 H   0  0  0  0  0  0  0  0  0  0  0  0
   -3.8534    2.4549    2.0493 H   0  0  0  0  0  0  0  0  0  0  0  0
   -5.0625    6.3997    0.6334 H   0  0  0  0  0  0  0  0  0  0  0  0
   -3.9991    7.3853    1.6407 H   0  0  0  0  0  0  0  0  0  0  0  0
   -3.3122    6.2124    0.4840 H   0  0  0  0  0  0  0  0  0  0  0  0
  1  2  1  0  0  0  0 
  1  3  1  0  0  0  0 
  2  4  1  0  0  0  0 
  2  5  2  0  0  0  0 
  3  6  1  0  0  0  0 
  3  7  1  0  0  0  0 
  6  8  1  0  0  0  0 
  7  9  1  0  0  0  0 
  7 10  1  0  0  0  0 
  8 11  1  0  0  0  0 
  8 12  1  0  0  0  0 
  9 13  1  0  0  0  0 
  9 14  2  0  0  0  0 
 10 12  1  0  0  0  0 
 11 15  2  0  0  0  0 
 11 16  1  0  0  0  0 
 12 17  1  0  0  0  0 
 13 18  1  0  0  0  0 
 13 19  1  0  0  0  0 
 15 20  1  0  0  0  0 
 15 21  1  0  0  0  0 
 16 22  2  0  0  0  0 
 17 21  1  0  0  0  0 
 18 23  1  0  0  0  0 
 19 24  1  0  0  0  0 
 20 25  2  0  0  0  0 
 22 25  1  0  0  0  0 
 22 26  1  0  0  0  0 
 25 27  1  0  0  0  0 
 26 28  1  0  0  0  0 
 27 29  1  0  0  0  0 
  3 30  1  0  0  0  0 
  4 31  1  0  0  0  0 
  4 32  1  0  0  0  0 
  4 33  1  0  0  0  0 
  6 34  1  0  0  0  0 
  6 35  1  0  0  0  0 
  7 36  1  0  0  0  0 
  8 37  1  0  0  0  0 
 10 38  1  0  0  0  0 
 10 39  1  0  0  0  0 
 16 40  1  0  0  0  0 
 17 41  1  0  0  0  0 
 17 42  1  0  0  0  0 
 18 43  1  0  0  0  0 
 18 44  1  0  0  0  0 
 19 45  1  0  0  0  0 
 19 46  1  0  0  0  0 
 20 47  1  0  0  0  0 
 21 48  1  0  0  0  0 
 21 49  1  0  0  0  0 
 23 50  1  0  0  0  0 
 23 51  1  0  0  0  0 
 23 52  1  0  0  0  0 
 24 53  1  0  0  0  0 
 24 54  1  0  0  0  0 
 24 55  1  0  0  0  0 
 28 56  1  0  0  0  0 
 28 57  1  0  0  0  0 
 28 58  1  0  0  0  0 
 29 59  1  0  0  0  0 
 29 60  1  0  0  0  0 
 29 61  1  0  0  0  0 
M  END
> <cdk:Title>
benzquinamide

> <Conformer>
1

> <SuperDrugID>
SD000279

$$$$
