anethole trithione
  CDK     0628171801

 22 23  0  0  0  0  0  0  0  0999 V2000
    2.7987   -5.9049   -5.2635 S   0  0  0  0  0  0  0  0  0  0  0  0
    2.2616   -4.7692   -4.0715 C   0  0  0  0  0  0  0  0  0  0  0  0
    2.8007   -3.4800   -3.9362 C   0  0  0  0  0  0  0  0  0  0  0  0
    0.9711   -5.1495   -2.9563 S   0  0  0  0  0  0  0  0  0  0  0  0
    2.2862   -2.5925   -2.9649 C   0  0  0  0  0  0  0  0  0  0  0  0
    0.9877   -3.2758   -2.0002 S   0  0  0  0  0  0  0  0  0  0  0  0
    2.7632   -1.2659   -2.7713 C   0  0  0  0  0  0  0  0  0  0  0  0
    4.1419   -0.9596   -2.8886 C   0  0  0  0  0  0  0  0  0  0  0  0
    1.8708   -0.2127   -2.4497 C   0  0  0  0  0  0  0  0  0  0  0  0
    4.6117    0.3489   -2.6821 C   0  0  0  0  0  0  0  0  0  0  0  0
    2.3426    1.0953   -2.2273 C   0  0  0  0  0  0  0  0  0  0  0  0
    3.7155    1.3815   -2.3506 C   0  0  0  0  0  0  0  0  0  0  0  0
    4.1908    2.6452   -2.1292 O   0  0  0  0  0  0  0  0  0  0  0  0
    4.2651    3.4381   -3.3273 C   0  0  0  0  0  0  0  0  0  0  0  0
    3.5582   -3.1890   -4.5590 H   0  0  0  0  0  0  0  0  0  0  0  0
    4.8221   -1.6887   -3.1101 H   0  0  0  0  0  0  0  0  0  0  0  0
    0.8637   -0.3843   -2.3795 H   0  0  0  0  0  0  0  0  0  0  0  0
    5.6103    0.5520   -2.7712 H   0  0  0  0  0  0  0  0  0  0  0  0
    1.6877    1.8410   -1.9784 H   0  0  0  0  0  0  0  0  0  0  0  0
    4.7523    4.3832   -3.0813 H   0  0  0  0  0  0  0  0  0  0  0  0
    4.8564    2.9488   -4.1068 H   0  0  0  0  0  0  0  0  0  0  0  0
    3.2651    3.6566   -3.7104 H   0  0  0  0  0  0  0  0  0  0  0  0
  1  2  2  0  0  0  0 
  2  3  1  0  0  0  0 
  2  4  1  0  0  0  0 
  3  5  2  0  0  0  0 
  4  6  1  0  0  0  0 
  5  6  1  0  0  0  0 
  5  7  1  0  0  0  0 
  7  8  2  0  0  0  0 
  7  9  1  0  0  0  0 
  8 10  1  0  0  0  0 
  9 11  2  0  0  0  0 
 10 12  2  0  0  0  0 
 11 12  1  0  0  0  0 
 12 13  1  0  0  0  0 
 13 14  1  0  0  0  0 
  3 15  1  0  0  0  0 
  8 16  1  0  0  0  0 
  9 17  1  0  0  0  0 
 10 18  1  0  0  0  0 
 11 19  1  0  0  0  0 
 14 20  1  0  0  0  0 
 14 21  1  0  0  0  0 
 14 22  1  0  0  0  0 
M  END
> <cdk:Title>
anethole trithione

> <Conformer>
1

> <SuperDrugID>
SD000180

$$$$
