glisoxepide
  CDK     0628171801

 58 60  0  0  0  0  0  0  0  0999 V2000
    3.1906   -3.3882   -4.4860 S   0  0  2  0  0  0  0  0  0  0  0  0
    3.0606   -1.6883   -4.7017 N   0  0  0  0  0  0  0  0  0  0  0  0
    2.8524   -4.0983   -5.8853 O   0  0  0  0  0  0  0  0  0  0  0  0
    2.0687   -3.8335   -3.4260 O   0  0  0  0  0  0  0  0  0  0  0  0
    4.7826   -3.8933   -3.8876 C   0  0  0  0  0  0  0  0  0  0  0  0
    4.0530   -0.8793   -5.1362 C   0  0  0  0  0  0  0  0  0  0  0  0
    5.1727   -3.6084   -2.5636 C   0  0  0  0  0  0  0  0  0  0  0  0
    5.6571   -4.6179   -4.7211 C   0  0  0  0  0  0  0  0  0  0  0  0
    3.7871    0.4448   -5.2410 N   0  0  0  0  0  0  0  0  0  0  0  0
    5.1932   -1.3203   -5.4160 O   0  0  0  0  0  0  0  0  0  0  0  0
    6.4077   -4.0719   -2.0683 C   0  0  0  0  0  0  0  0  0  0  0  0
    6.8897   -5.0778   -4.2288 C   0  0  0  0  0  0  0  0  0  0  0  0
    4.7609    1.3519   -5.5139 N   0  0  0  0  0  0  0  0  0  0  0  0
    7.2766   -4.8223   -2.8929 C   0  0  0  0  0  0  0  0  0  0  0  0
    5.1900    2.1834   -4.3595 C   0  0  1  0  0  0  0  0  0  0  0  0
    4.7619    1.9635   -6.8662 C   0  0  2  0  0  0  0  0  0  0  0  0
    8.5716   -5.3555   -2.3903 C   0  0  2  0  0  0  0  0  0  0  0  0
    4.1353    3.2072   -3.8745 C   0  0  2  0  0  0  0  0  0  0  0  0
    3.5441    2.8595   -7.2299 C   0  0  2  0  0  0  0  0  0  0  0  0
    8.6014   -6.9128   -2.3064 C   0  0  2  0  0  0  0  0  0  0  0  0
    3.6550    4.2054   -4.9629 C   0  0  2  0  0  0  0  0  0  0  0  0
    2.7795    3.5600   -6.0720 C   0  0  2  0  0  0  0  0  0  0  0  0
    9.7779   -7.4459   -2.9147 N   0  0  0  0  0  0  0  0  0  0  0  0
   10.1574   -8.7523   -2.8786 C   0  0  0  0  0  0  0  0  0  0  0  0
    9.5065   -9.5953   -2.2170 O   0  0  0  0  0  0  0  0  0  0  0  0
   11.2810   -9.1849   -3.6074 C   0  0  0  0  0  0  0  0  0  0  0  0
   11.7665  -10.4405   -3.6167 N   0  0  0  0  0  0  0  0  0  0  0  0
   12.0799   -8.4320   -4.4601 C   0  0  0  0  0  0  0  0  0  0  0  0
   12.8011  -10.5192   -4.4132 O   0  0  0  0  0  0  0  0  0  0  0  0
   13.0319   -9.3048   -4.9615 C   0  0  0  0  0  0  0  0  0  0  0  0
   14.0948   -8.9784   -5.9190 C   0  0  0  0  0  0  0  0  0  0  0  0
    2.2037   -1.2790   -4.5017 H   0  0  0  0  0  0  0  0  0  0  0  0
    4.5571   -3.0739   -1.9483 H   0  0  0  0  0  0  0  0  0  0  0  0
    5.4031   -4.8286   -5.6873 H   0  0  0  0  0  0  0  0  0  0  0  0
    2.8840    0.7599   -5.0737 H   0  0  0  0  0  0  0  0  0  0  0  0
    6.6605   -3.8671   -1.0983 H   0  0  0  0  0  0  0  0  0  0  0  0
    7.5031   -5.6120   -4.8505 H   0  0  0  0  0  0  0  0  0  0  0  0
    5.4310    1.5181   -3.5255 H   0  0  0  0  0  0  0  0  0  0  0  0
    6.1121    2.7121   -4.6123 H   0  0  0  0  0  0  0  0  0  0  0  0
    4.8311    1.1554   -7.5996 H   0  0  0  0  0  0  0  0  0  0  0  0
    5.6774    2.5500   -6.9776 H   0  0  0  0  0  0  0  0  0  0  0  0
    8.8006   -4.9531   -1.3987 H   0  0  0  0  0  0  0  0  0  0  0  0
    9.3596   -4.9868   -3.0526 H   0  0  0  0  0  0  0  0  0  0  0  0
    4.5763    3.7830   -3.0555 H   0  0  0  0  0  0  0  0  0  0  0  0
    3.2763    2.6713   -3.4615 H   0  0  0  0  0  0  0  0  0  0  0  0
    2.8213    2.2497   -7.7801 H   0  0  0  0  0  0  0  0  0  0  0  0
    3.8892    3.6297   -7.9247 H   0  0  0  0  0  0  0  0  0  0  0  0
    7.7442   -7.3564   -2.8186 H   0  0  0  0  0  0  0  0  0  0  0  0
    8.5487   -7.2208   -1.2579 H   0  0  0  0  0  0  0  0  0  0  0  0
    4.5120    4.7185   -5.4105 H   0  0  0  0  0  0  0  0  0  0  0  0
    3.0490    4.9651   -4.4591 H   0  0  0  0  0  0  0  0  0  0  0  0
    2.0811    2.8504   -5.6196 H   0  0  0  0  0  0  0  0  0  0  0  0
    2.1670    4.3475   -6.5211 H   0  0  0  0  0  0  0  0  0  0  0  0
   10.3337   -6.8336   -3.4204 H   0  0  0  0  0  0  0  0  0  0  0  0
   11.9881   -7.4385   -4.6821 H   0  0  0  0  0  0  0  0  0  0  0  0
   14.7394   -8.2011   -5.5058 H   0  0  0  0  0  0  0  0  0  0  0  0
   14.6972   -9.8644   -6.1259 H   0  0  0  0  0  0  0  0  0  0  0  0
   13.6526   -8.6228   -6.8516 H   0  0  0  0  0  0  0  0  0  0  0  0
  1  2  1  0  0  0  0 
  1  3  2  0  0  0  0 
  1  4  2  0  0  0  0 
  1  5  1  0  0  0  0 
  2  6  1  0  0  0  0 
  5  7  2  0  0  0  0 
  5  8  1  0  0  0  0 
  6  9  1  0  0  0  0 
  6 10  2  0  0  0  0 
  7 11  1  0  0  0  0 
  8 12  2  0  0  0  0 
  9 13  1  0  0  0  0 
 11 14  2  0  0  0  0 
 12 14  1  0  0  0  0 
 13 15  1  0  0  0  0 
 13 16  1  0  0  0  0 
 14 17  1  0  0  0  0 
 15 18  1  0  0  0  0 
 16 19  1  0  0  0  0 
 17 20  1  0  0  0  0 
 18 21  1  0  0  0  0 
 19 22  1  0  0  0  0 
 20 23  1  0  0  0  0 
 21 22  1  0  0  0  0 
 23 24  1  0  0  0  0 
 24 25  2  0  0  0  0 
 24 26  1  0  0  0  0 
 26 27  2  0  0  0  0 
 26 28  1  0  0  0  0 
 27 29  1  0  0  0  0 
 28 30  2  0  0  0  0 
 29 30  1  0  0  0  0 
 30 31  1  0  0  0  0 
  2 32  1  0  0  0  0 
  7 33  1  0  0  0  0 
  8 34  1  0  0  0  0 
  9 35  1  0  0  0  0 
 11 36  1  0  0  0  0 
 12 37  1  0  0  0  0 
 15 38  1  0  0  0  0 
 15 39  1  0  0  0  0 
 16 40  1  0  0  0  0 
 16 41  1  0  0  0  0 
 17 42  1  0  0  0  0 
 17 43  1  0  0  0  0 
 18 44  1  0  0  0  0 
 18 45  1  0  0  0  0 
 19 46  1  0  0  0  0 
 19 47  1  0  0  0  0 
 20 48  1  0  0  0  0 
 20 49  1  0  0  0  0 
 21 50  1  0  0  0  0 
 21 51  1  0  0  0  0 
 22 52  1  0  0  0  0 
 22 53  1  0  0  0  0 
 23 54  1  0  0  0  0 
 28 55  1  0  0  0  0 
 31 56  1  0  0  0  0 
 31 57  1  0  0  0  0 
 31 58  1  0  0  0  0 
M  END
> <cdk:Title>
glisoxepide

> <Conformer>
1

> <SuperDrugID>
SD001161

$$$$
