clorazepate
  CDK     0628171802

 33 35  0  0  0  0  0  0  0  0999 V2000
    5.2022    3.4775    0.2088 C   0  0  0  0  0  0  0  0  0  0  0  0
    5.6480    4.2086   -0.8385 O   0  0  0  0  0  0  0  0  0  0  0  0
    4.8774    4.0807    1.2584 O   0  0  0  0  0  0  0  0  0  0  0  0
    5.0883    2.0052    0.1071 C   0  0  2  0  0  0  0  0  0  0  0  0
    3.7356    1.7098    0.2487 N   0  0  0  0  0  0  0  0  0  0  0  0
    5.9102    1.2642    1.0940 C   0  0  0  0  0  0  0  0  0  0  0  0
    3.0830    0.5979    0.2196 C   0  0  0  0  0  0  0  0  0  0  0  0
    6.7635    1.8447    1.8062 O   0  0  0  0  0  0  0  0  0  0  0  0
    5.8253   -0.0804    1.2455 N   0  0  0  0  0  0  0  0  0  0  0  0
    3.7104   -0.6547    0.0524 C   0  0  0  0  0  0  0  0  0  0  0  0
    1.6922    0.7337    0.3786 C   0  0  0  0  0  0  0  0  0  0  0  0
    5.0003   -0.9529    0.5911 C   0  0  0  0  0  0  0  0  0  0  0  0
    3.0290   -1.6851   -0.6528 C   0  0  0  0  0  0  0  0  0  0  0  0
    0.9570   -0.1110    1.2529 C   0  0  0  0  0  0  0  0  0  0  0  0
    0.9742    1.7267   -0.3381 C   0  0  0  0  0  0  0  0  0  0  0  0
    5.5178   -2.2621    0.4831 C   0  0  0  0  0  0  0  0  0  0  0  0
    3.5536   -2.9867   -0.7486 C   0  0  0  0  0  0  0  0  0  0  0  0
   -0.4392    0.0210    1.3888 C   0  0  0  0  0  0  0  0  0  0  0  0
   -0.4171    1.8717   -0.1866 C   0  0  0  0  0  0  0  0  0  0  0  0
    4.8016   -3.2732   -0.1754 C   0  0  0  0  0  0  0  0  0  0  0  0
    2.6915   -4.2074   -1.5457 Cl  0  0  0  0  0  0  0  0  0  0  0  0
   -1.1273    1.0117    0.6680 C   0  0  0  0  0  0  0  0  0  0  0  0
    5.7005    5.1853   -0.7695 H   0  0  0  0  0  0  0  0  0  0  0  0
    5.4154    1.6946   -0.8900 H   0  0  0  0  0  0  0  0  0  0  0  0
    6.4631   -0.4752    1.8621 H   0  0  0  0  0  0  0  0  0  0  0  0
    2.1293   -1.4946   -1.1039 H   0  0  0  0  0  0  0  0  0  0  0  0
    1.4305   -0.8313    1.8052 H   0  0  0  0  0  0  0  0  0  0  0  0
    1.4594    2.3514   -0.9880 H   0  0  0  0  0  0  0  0  0  0  0  0
    6.4321   -2.4904    0.8843 H   0  0  0  0  0  0  0  0  0  0  0  0
   -0.9552   -0.6011    2.0164 H   0  0  0  0  0  0  0  0  0  0  0  0
   -0.9123    2.6043   -0.7018 H   0  0  0  0  0  0  0  0  0  0  0  0
    5.2000   -4.2134   -0.2369 H   0  0  0  0  0  0  0  0  0  0  0  0
   -2.1409    1.1077    0.7658 H   0  0  0  0  0  0  0  0  0  0  0  0
  1  2  1  0  0  0  0 
  1  3  2  0  0  0  0 
  4  1  1  0  0  0  0 
  4  5  1  0  0  0  0 
  4  6  1  0  0  0  0 
  5  7  2  0  0  0  0 
  6  8  2  0  0  0  0 
  6  9  1  0  0  0  0 
  7 10  1  0  0  0  0 
  7 11  1  0  0  0  0 
  9 12  1  0  0  0  0 
 10 12  2  0  0  0  0 
 10 13  1  0  0  0  0 
 11 14  2  0  0  0  0 
 11 15  1  0  0  0  0 
 12 16  1  0  0  0  0 
 13 17  2  0  0  0  0 
 14 18  1  0  0  0  0 
 15 19  2  0  0  0  0 
 16 20  2  0  0  0  0 
 17 20  1  0  0  0  0 
 17 21  1  0  0  0  0 
 18 22  2  0  0  0  0 
 19 22  1  0  0  0  0 
  2 23  1  0  0  0  0 
  4 24  1  0  0  0  0 
  9 25  1  0  0  0  0 
 13 26  1  0  0  0  0 
 14 27  1  0  0  0  0 
 15 28  1  0  0  0  0 
 16 29  1  0  0  0  0 
 18 30  1  0  0  0  0 
 19 31  1  0  0  0  0 
 20 32  1  0  0  0  0 
 22 33  1  0  0  0  0 
M  END
> <cdk:Title>
clorazepate

> <Conformer>
1

> <SuperDrugID>
SD000628

$$$$
