flupentixol
  CDK     0628171801

 55 58  0  0  0  0  0  0  0  0999 V2000
    1.8447    3.1899    2.2525 C   0  0  0  0  0  0  0  0  0  0  0  0
    2.5161    3.4886    1.0544 C   0  0  0  0  0  0  0  0  0  0  0  0
    3.0930    2.4563    0.2954 C   0  0  0  0  0  0  0  0  0  0  0  0
    3.0008    1.1247    0.7414 C   0  0  0  0  0  0  0  0  0  0  0  0
    2.3679    0.8062    1.9739 C   0  0  0  0  0  0  0  0  0  0  0  0
    1.7636    1.8596    2.7038 C   0  0  0  0  0  0  0  0  0  0  0  0
    3.5682   -0.1960   -0.2887 S   0  0  0  0  0  0  0  0  0  0  0  0
    2.3994   -1.4589    0.1196 C   0  0  0  0  0  0  0  0  0  0  0  0
    1.8293   -1.4607    1.4180 C   0  0  0  0  0  0  0  0  0  0  0  0
    2.2823   -0.5373    2.3838 C   0  0  0  0  0  0  0  0  0  0  0  0
    2.0017   -2.4019   -0.8424 C   0  0  0  0  0  0  0  0  0  0  0  0
    0.9872   -3.3258   -0.5406 C   0  0  0  0  0  0  0  0  0  0  0  0
    0.3637   -3.3320    0.7313 C   0  0  0  0  0  0  0  0  0  0  0  0
    0.8063   -2.3986    1.7004 C   0  0  0  0  0  0  0  0  0  0  0  0
    2.6923   -0.9985    3.5902 C   0  0  0  0  0  0  0  0  0  0  0  0
   -0.7486   -4.2632    1.0782 C   0  0  1  0  0  0  0  0  0  0  0  0
   -1.0640   -5.1655    0.0894 F   0  0  0  0  0  0  0  0  0  0  0  0
   -0.4221   -4.9982    2.1927 F   0  0  0  0  0  0  0  0  0  0  0  0
   -1.8902   -3.5448    1.3484 F   0  0  0  0  0  0  0  0  0  0  0  0
    3.3577   -0.2611    4.6615 C   0  0  2  0  0  0  0  0  0  0  0  0
    4.8774   -0.0125    4.4213 C   0  0  1  0  0  0  0  0  0  0  0  0
    5.1748    1.2588    3.6764 N   0  0  1  0  0  0  0  0  0  0  0  0
    5.1531    2.4753    4.5510 C   0  0  1  0  0  0  0  0  0  0  0  0
    5.3561    3.7786    3.7406 C   0  0  1  0  0  0  0  0  0  0  0  0
    6.5658    3.7356    2.8603 N   0  0  1  0  0  0  0  0  0  0  0  0
    6.6478    2.4767    2.0527 C   0  0  2  0  0  0  0  0  0  0  0  0
    6.4520    1.1996    2.9015 C   0  0  1  0  0  0  0  0  0  0  0  0
    6.7393    4.9464    1.9856 C   0  0  1  0  0  0  0  0  0  0  0  0
    6.7881    6.3044    2.7241 C   0  0  1  0  0  0  0  0  0  0  0  0
    7.1452    7.3425    1.8183 O   0  0  0  0  0  0  0  0  0  0  0  0
    1.4090    3.9403    2.7918 H   0  0  0  0  0  0  0  0  0  0  0  0
    2.5739    4.4552    0.7293 H   0  0  0  0  0  0  0  0  0  0  0  0
    3.5616    2.6754   -0.5866 H   0  0  0  0  0  0  0  0  0  0  0  0
    1.2343    1.6704    3.5582 H   0  0  0  0  0  0  0  0  0  0  0  0
    2.4374   -2.4117   -1.7670 H   0  0  0  0  0  0  0  0  0  0  0  0
    0.6957   -3.9804   -1.2691 H   0  0  0  0  0  0  0  0  0  0  0  0
    0.3657   -2.3948    2.6264 H   0  0  0  0  0  0  0  0  0  0  0  0
    2.5943   -1.9763    3.7689 H   0  0  0  0  0  0  0  0  0  0  0  0
    3.2751   -0.8687    5.5685 H   0  0  0  0  0  0  0  0  0  0  0  0
    2.8400    0.6671    4.8890 H   0  0  0  0  0  0  0  0  0  0  0  0
    5.3781    0.0087    5.3948 H   0  0  0  0  0  0  0  0  0  0  0  0
    5.2864   -0.8828    3.8946 H   0  0  0  0  0  0  0  0  0  0  0  0
    4.1964    2.5544    5.0713 H   0  0  0  0  0  0  0  0  0  0  0  0
    5.9380    2.4053    5.3128 H   0  0  0  0  0  0  0  0  0  0  0  0
    4.4602    3.9757    3.1488 H   0  0  0  0  0  0  0  0  0  0  0  0
    5.4686    4.5886    4.4652 H   0  0  0  0  0  0  0  0  0  0  0  0
    7.6328    2.4139    1.5815 H   0  0  0  0  0  0  0  0  0  0  0  0
    5.8951    2.4806    1.2591 H   0  0  0  0  0  0  0  0  0  0  0  0
    7.3079    1.0727    3.5743 H   0  0  0  0  0  0  0  0  0  0  0  0
    6.4325    0.3469    2.2164 H   0  0  0  0  0  0  0  0  0  0  0  0
    7.6872    4.8492    1.4482 H   0  0  0  0  0  0  0  0  0  0  0  0
    5.9401    4.9932    1.2384 H   0  0  0  0  0  0  0  0  0  0  0  0
    5.8105    6.5462    3.1429 H   0  0  0  0  0  0  0  0  0  0  0  0
    7.5245    6.2672    3.5277 H   0  0  0  0  0  0  0  0  0  0  0  0
    7.1291    8.1593    2.3593 H   0  0  0  0  0  0  0  0  0  0  0  0
  1  2  2  0  0  0  0 
  2  3  1  0  0  0  0 
  3  4  2  0  0  0  0 
  4  5  1  0  0  0  0 
  5  6  2  0  0  0  0 
  1  6  1  0  0  0  0 
  7  8  1  0  0  0  0 
  9 10  1  0  0  0  0 
  5 10  1  0  0  0  0 
  4  7  1  0  0  0  0 
 11 12  1  0  0  0  0 
 12 13  2  0  0  0  0 
 13 14  1  0  0  0  0 
  8 11  2  0  0  0  0 
  9 14  2  0  0  0  0 
  9  8  1  0  0  0  0 
 10 15  2  0  0  0  0 
 13 16  1  0  0  0  0 
 16 17  1  0  0  0  0 
 16 18  1  0  0  0  0 
 16 19  1  0  0  0  0 
 15 20  1  0  0  0  0 
 20 21  1  0  0  0  0 
 21 22  1  0  0  0  0 
 23 24  1  0  0  0  0 
 24 25  1  0  0  0  0 
 25 26  1  0  0  0  0 
 26 27  1  0  0  0  0 
 22 23  1  0  0  0  0 
 22 27  1  0  0  0  0 
 25 28  1  0  0  0  0 
 28 29  1  0  0  0  0 
 29 30  1  0  0  0  0 
  1 31  1  0  0  0  0 
  2 32  1  0  0  0  0 
  3 33  1  0  0  0  0 
  6 34  1  0  0  0  0 
 11 35  1  0  0  0  0 
 12 36  1  0  0  0  0 
 14 37  1  0  0  0  0 
 15 38  1  0  0  0  0 
 20 39  1  0  0  0  0 
 20 40  1  0  0  0  0 
 21 41  1  0  0  0  0 
 21 42  1  0  0  0  0 
 23 43  1  0  0  0  0 
 23 44  1  0  0  0  0 
 24 45  1  0  0  0  0 
 24 46  1  0  0  0  0 
 26 47  1  0  0  0  0 
 26 48  1  0  0  0  0 
 27 49  1  0  0  0  0 
 27 50  1  0  0  0  0 
 28 51  1  0  0  0  0 
 28 52  1  0  0  0  0 
 29 53  1  0  0  0  0 
 29 54  1  0  0  0  0 
 30 55  1  0  0  0  0 
M  END
> <cdk:Title>
flupentixol

> <Conformer>
1

> <SuperDrugID>
SD001084

$$$$
