pivampicillin
  CDK     0628171801

 61 63  0  0  0  0  0  0  0  0999 V2000
   -3.4713    2.7540   -0.4875 C   0  0  0  0  0  0  0  0  0  0  0  0
   -4.0278    3.9832   -0.7089 O   0  0  0  0  0  0  0  0  0  0  0  0
   -3.3855    1.9159   -1.4173 O   0  0  0  0  0  0  0  0  0  0  0  0
   -2.9799    2.4302    0.8776 C   0  0  2  0  0  0  0  0  0  0  0  0
   -4.5017    4.4965   -1.9603 C   0  0  1  0  0  0  0  0  0  0  0  0
   -1.6547    1.9232    0.8100 N   0  0  0  0  0  0  0  0  0  0  0  0
   -3.7392    1.3129    1.7001 C   0  0  2  0  0  0  0  0  0  0  0  0
   -5.1251    5.7736   -1.7725 O   0  0  0  0  0  0  0  0  0  0  0  0
   -1.2907    0.5745    0.6301 C   0  0  2  0  0  0  0  0  0  0  0  0
   -0.4576    2.3538    1.1954 C   0  0  0  0  0  0  0  0  0  0  0  0
   -2.5788   -0.1199    1.7115 S   0  0  0  0  0  0  0  0  0  0  0  0
   -6.2759    6.0234   -1.0684 C   0  0  0  0  0  0  0  0  0  0  0  0
    0.1292    1.0165    1.1177 C   0  0  1  0  0  0  0  0  0  0  0  0
   -0.0286    3.4589    1.5967 O   0  0  0  0  0  0  0  0  0  0  0  0
   -6.8471    7.4113   -1.0343 C   0  0  2  0  0  0  0  0  0  0  0  0
   -6.8253    5.0788   -0.4491 O   0  0  0  0  0  0  0  0  0  0  0  0
    0.5851    0.5360    2.3822 N   0  0  0  0  0  0  0  0  0  0  0  0
   -8.3623    7.4246   -0.6263 C   0  0  0  0  0  0  0  0  0  0  0  0
   -6.7300    8.0650   -2.4504 C   0  0  0  0  0  0  0  0  0  0  0  0
   -6.0247    8.2496   -0.0068 C   0  0  0  0  0  0  0  0  0  0  0  0
    0.8230   -0.7687    2.6821 C   0  0  0  0  0  0  0  0  0  0  0  0
    1.4547   -1.1400    3.9687 C   0  0  2  0  0  0  0  0  0  0  0  0
    0.5416   -1.6737    1.8609 O   0  0  0  0  0  0  0  0  0  0  0  0
    0.6184   -0.7332    5.1081 N   0  0  1  0  0  0  0  0  0  0  0  0
    2.8447   -0.5996    4.0346 C   0  0  0  0  0  0  0  0  0  0  0  0
    3.1359    0.6603    4.6157 C   0  0  0  0  0  0  0  0  0  0  0  0
    3.9179   -1.3465    3.4886 C   0  0  0  0  0  0  0  0  0  0  0  0
    4.4544    1.1485    4.6596 C   0  0  0  0  0  0  0  0  0  0  0  0
    5.2368   -0.8594    3.5300 C   0  0  0  0  0  0  0  0  0  0  0  0
    5.5044    0.3906    4.1137 C   0  0  0  0  0  0  0  0  0  0  0  0
   -1.3613    0.2557   -0.4141 H   0  0  0  0  0  0  0  0  0  0  0  0
   -5.1005    0.8511    1.0973 C   0  0  0  0  0  0  0  0  0  0  0  0
   -3.9560    1.7543    3.1818 C   0  0  0  0  0  0  0  0  0  0  0  0
   -2.9556    3.3673    1.4439 H   0  0  0  0  0  0  0  0  0  0  0  0
   -3.6580    4.6166   -2.6410 H   0  0  0  0  0  0  0  0  0  0  0  0
   -5.2205    3.8080   -2.4142 H   0  0  0  0  0  0  0  0  0  0  0  0
    0.8922    0.9629    0.3356 H   0  0  0  0  0  0  0  0  0  0  0  0
    0.7856    1.1950    3.0626 H   0  0  0  0  0  0  0  0  0  0  0  0
   -8.9057    6.7209   -1.3298 H   0  0  0  0  0  0  0  0  0  0  0  0
   -8.4583    6.9279    0.3879 H   0  0  0  0  0  0  0  0  0  0  0  0
   -8.7228    8.5430   -0.6655 H   0  0  0  0  0  0  0  0  0  0  0  0
   -7.2593    7.4676   -3.1968 H   0  0  0  0  0  0  0  0  0  0  0  0
   -5.6860    8.1535   -2.7600 H   0  0  0  0  0  0  0  0  0  0  0  0
   -7.1599    9.0698   -2.4518 H   0  0  0  0  0  0  0  0  0  0  0  0
   -4.9689    8.2872   -0.2882 H   0  0  0  0  0  0  0  0  0  0  0  0
   -6.0962    7.8172    0.9948 H   0  0  0  0  0  0  0  0  0  0  0  0
   -6.3971    9.2763    0.0408 H   0  0  0  0  0  0  0  0  0  0  0  0
    1.5045   -2.2315    4.0437 H   0  0  0  0  0  0  0  0  0  0  0  0
    1.1510   -0.9490    5.9553 H   0  0  0  0  0  0  0  0  0  0  0  0
    0.5185    0.2826    5.0733 H   0  0  0  0  0  0  0  0  0  0  0  0
    2.3929    1.2380    5.0143 H   0  0  0  0  0  0  0  0  0  0  0  0
    3.7464   -2.2529    3.0497 H   0  0  0  0  0  0  0  0  0  0  0  0
    4.6490    2.0552    5.0913 H   0  0  0  0  0  0  0  0  0  0  0  0
    5.9991   -1.4136    3.1335 H   0  0  0  0  0  0  0  0  0  0  0  0
    6.4612    0.7480    4.1438 H   0  0  0  0  0  0  0  0  0  0  0  0
   -4.9641    0.4041    0.1116 H   0  0  0  0  0  0  0  0  0  0  0  0
   -5.7770    1.7029    1.0040 H   0  0  0  0  0  0  0  0  0  0  0  0
   -5.5747    0.1024    1.7345 H   0  0  0  0  0  0  0  0  0  0  0  0
   -3.0095    2.0239    3.6567 H   0  0  0  0  0  0  0  0  0  0  0  0
   -4.6162    2.6238    3.2212 H   0  0  0  0  0  0  0  0  0  0  0  0
   -4.4121    0.9544    3.7685 H   0  0  0  0  0  0  0  0  0  0  0  0
  1  2  1  0  0  0  0 
  1  3  2  0  0  0  0 
  2  5  1  0  0  0  0 
  4  1  1  0  0  0  0 
  4  6  1  0  0  0  0 
  4  7  1  0  0  0  0 
  5  8  1  0  0  0  0 
  9  6  1  0  0  0  0 
  6 10  1  0  0  0  0 
  7 11  1  0  0  0  0 
  8 12  1  0  0  0  0 
  9 11  1  0  0  0  0 
 13  9  1  0  0  0  0 
  9 31  1  0  0  0  0 
 13 10  1  0  0  0  0 
 10 14  2  0  0  0  0 
 12 15  1  0  0  0  0 
 12 16  2  0  0  0  0 
 13 17  1  0  0  0  0 
 15 18  1  0  0  0  0 
 15 19  1  0  0  0  0 
 15 20  1  0  0  0  0 
 17 21  1  0  0  0  0 
 22 21  1  0  0  0  0 
 21 23  2  0  0  0  0 
 22 24  1  0  0  0  0 
 22 25  1  0  0  0  0 
 25 26  2  0  0  0  0 
 25 27  1  0  0  0  0 
 26 28  1  0  0  0  0 
 27 29  2  0  0  0  0 
 28 30  2  0  0  0  0 
 29 30  1  0  0  0  0 
  7 32  1  0  0  0  0 
  7 33  1  0  0  0  0 
  4 34  1  0  0  0  0 
  5 35  1  0  0  0  0 
  5 36  1  0  0  0  0 
 13 37  1  0  0  0  0 
 17 38  1  0  0  0  0 
 18 39  1  0  0  0  0 
 18 40  1  0  0  0  0 
 18 41  1  0  0  0  0 
 19 42  1  0  0  0  0 
 19 43  1  0  0  0  0 
 19 44  1  0  0  0  0 
 20 45  1  0  0  0  0 
 20 46  1  0  0  0  0 
 20 47  1  0  0  0  0 
 22 48  1  0  0  0  0 
 24 49  1  0  0  0  0 
 24 50  1  0  0  0  0 
 26 51  1  0  0  0  0 
 27 52  1  0  0  0  0 
 28 53  1  0  0  0  0 
 29 54  1  0  0  0  0 
 30 55  1  0  0  0  0 
 32 56  1  0  0  0  0 
 32 57  1  0  0  0  0 
 32 58  1  0  0  0  0 
 33 59  1  0  0  0  0 
 33 60  1  0  0  0  0 
 33 61  1  0  0  0  0 
M  END
> <cdk:Title>
pivampicillin

> <Conformer>
1

> <SuperDrugID>
SD001991

$$$$
