selexipag
  CDK     0628171802

 67 69  0  0  0  0  0  0  0  0999 V2000
    1.3200    0.8903   -7.5489 N   0  0  0  0  0  0  0  0  0  0  0  0
    1.7144    1.9787   -6.8387 C   0  0  0  0  0  0  0  0  0  0  0  0
    0.8625    3.1153   -6.8776 C   0  0  0  0  0  0  0  0  0  0  0  0
   -0.2035    3.0788   -7.7213 N   0  0  0  0  0  0  0  0  0  0  0  0
   -0.5444    1.9935   -8.4565 C   0  0  0  0  0  0  0  0  0  0  0  0
    0.2150    0.8074   -8.3373 C   0  0  0  0  0  0  0  0  0  0  0  0
    2.9495    1.8881   -6.1390 C   0  0  0  0  0  0  0  0  0  0  0  0
    0.9962    4.2602   -6.0501 C   0  0  0  0  0  0  0  0  0  0  0  0
    0.9331    5.5641   -6.5966 C   0  0  0  0  0  0  0  0  0  0  0  0
    1.0407    6.6955   -5.7657 C   0  0  0  0  0  0  0  0  0  0  0  0
    1.2037    6.5400   -4.3774 C   0  0  0  0  0  0  0  0  0  0  0  0
    1.2585    5.2513   -3.8185 C   0  0  0  0  0  0  0  0  0  0  0  0
    1.1499    4.1200   -4.6481 C   0  0  0  0  0  0  0  0  0  0  0  0
    3.9006    2.9376   -6.1912 C   0  0  0  0  0  0  0  0  0  0  0  0
    5.1307    2.8310   -5.5157 C   0  0  0  0  0  0  0  0  0  0  0  0
    5.4331    1.6709   -4.7822 C   0  0  0  0  0  0  0  0  0  0  0  0
    4.5036    0.6185   -4.7230 C   0  0  0  0  0  0  0  0  0  0  0  0
    3.2718    0.7264   -5.3950 C   0  0  0  0  0  0  0  0  0  0  0  0
   -0.1104   -0.4103   -8.9255 N   0  0  0  0  0  0  0  0  0  0  0  0
    0.9555   -1.3463   -9.2942 C   0  0  1  0  0  0  0  0  0  0  0  0
   -1.5101   -0.7764   -9.0946 C   0  0  2  0  0  0  0  0  0  0  0  0
    1.1115   -2.4475   -8.2096 C   0  0  0  0  0  0  0  0  0  0  0  0
    0.8164   -1.9411  -10.7269 C   0  0  0  0  0  0  0  0  0  0  0  0
   -2.2807   -0.8815   -7.7482 C   0  0  2  0  0  0  0  0  0  0  0  0
   -3.7985   -1.1257   -7.9448 C   0  0  1  0  0  0  0  0  0  0  0  0
   -4.5360   -1.3246   -6.6017 C   0  0  1  0  0  0  0  0  0  0  0  0
   -5.9351   -1.5284   -6.8717 O   0  0  0  0  0  0  0  0  0  0  0  0
   -6.7262   -1.7676   -5.6949 C   0  0  2  0  0  0  0  0  0  0  0  0
   -8.0740   -2.1691   -6.1164 C   0  0  0  0  0  0  0  0  0  0  0  0
   -8.2226   -3.3001   -6.8463 N   0  0  0  0  0  0  0  0  0  0  0  0
   -9.0571   -1.4589   -5.8005 O   0  0  0  0  0  0  0  0  0  0  0  0
   -9.7303   -3.8532   -7.4413 S   0  0  2  0  0  0  0  0  0  0  0  0
   -9.4991   -5.4525   -8.2989 C   0  0  0  0  0  0  0  0  0  0  0  0
  -10.3166   -2.7726   -8.4703 O   0  0  0  0  0  0  0  0  0  0  0  0
  -10.7451   -4.0313   -6.2127 O   0  0  0  0  0  0  0  0  0  0  0  0
   -1.3606    2.0546   -9.0653 H   0  0  0  0  0  0  0  0  0  0  0  0
    0.8090    5.7016   -7.6036 H   0  0  0  0  0  0  0  0  0  0  0  0
    0.9966    7.6325   -6.1718 H   0  0  0  0  0  0  0  0  0  0  0  0
    1.2768    7.3624   -3.7745 H   0  0  0  0  0  0  0  0  0  0  0  0
    1.3695    5.1359   -2.8085 H   0  0  0  0  0  0  0  0  0  0  0  0
    1.1688    3.1930   -4.2138 H   0  0  0  0  0  0  0  0  0  0  0  0
    3.7122    3.7885   -6.7279 H   0  0  0  0  0  0  0  0  0  0  0  0
    5.8065    3.5969   -5.5602 H   0  0  0  0  0  0  0  0  0  0  0  0
    6.3279    1.5923   -4.2938 H   0  0  0  0  0  0  0  0  0  0  0  0
    4.7223   -0.2258   -4.1891 H   0  0  0  0  0  0  0  0  0  0  0  0
    2.6071   -0.0500   -5.3283 H   0  0  0  0  0  0  0  0  0  0  0  0
    1.9140   -0.8150   -9.3259 H   0  0  0  0  0  0  0  0  0  0  0  0
   -1.6205   -1.7425   -9.5912 H   0  0  0  0  0  0  0  0  0  0  0  0
   -1.9962   -0.0504   -9.7496 H   0  0  0  0  0  0  0  0  0  0  0  0
    1.9668   -3.0885   -8.4338 H   0  0  0  0  0  0  0  0  0  0  0  0
    0.2150   -3.0670   -8.1537 H   0  0  0  0  0  0  0  0  0  0  0  0
    1.2778   -1.9891   -7.2327 H   0  0  0  0  0  0  0  0  0  0  0  0
    1.7753   -2.3331  -11.0747 H   0  0  0  0  0  0  0  0  0  0  0  0
    0.4923   -1.1637  -11.4235 H   0  0  0  0  0  0  0  0  0  0  0  0
    0.0917   -2.7589  -10.7487 H   0  0  0  0  0  0  0  0  0  0  0  0
   -2.1519    0.0385   -7.1750 H   0  0  0  0  0  0  0  0  0  0  0  0
   -1.8581   -1.7040   -7.1644 H   0  0  0  0  0  0  0  0  0  0  0  0
   -4.2388   -0.2750   -8.4752 H   0  0  0  0  0  0  0  0  0  0  0  0
   -3.9434   -2.0222   -8.5561 H   0  0  0  0  0  0  0  0  0  0  0  0
   -4.1151   -2.2043   -6.1038 H   0  0  0  0  0  0  0  0  0  0  0  0
   -4.3896   -0.4475   -5.9622 H   0  0  0  0  0  0  0  0  0  0  0  0
   -6.7717   -0.8586   -5.0893 H   0  0  0  0  0  0  0  0  0  0  0  0
   -6.3006   -2.5728   -5.0904 H   0  0  0  0  0  0  0  0  0  0  0  0
   -7.4355   -3.8298   -7.0476 H   0  0  0  0  0  0  0  0  0  0  0  0
   -8.8671   -5.3121   -9.1774 H   0  0  0  0  0  0  0  0  0  0  0  0
  -10.4694   -5.8414   -8.6103 H   0  0  0  0  0  0  0  0  0  0  0  0
   -9.0226   -6.1620   -7.6207 H   0  0  0  0  0  0  0  0  0  0  0  0
  1  2  2  0  0  0  0 
  1  6  1  0  0  0  0 
  2  3  1  0  0  0  0 
  3  4  2  0  0  0  0 
  4  5  1  0  0  0  0 
  5  6  2  0  0  0  0 
  2  7  1  0  0  0  0 
  3  8  1  0  0  0  0 
  9 10  1  0  0  0  0 
 10 11  2  0  0  0  0 
 11 12  1  0  0  0  0 
 12 13  2  0  0  0  0 
  8  9  2  0  0  0  0 
  8 13  1  0  0  0  0 
 14 15  1  0  0  0  0 
 15 16  2  0  0  0  0 
 16 17  1  0  0  0  0 
 17 18  2  0  0  0  0 
  7 14  2  0  0  0  0 
  7 18  1  0  0  0  0 
  6 19  1  0  0  0  0 
 19 20  1  0  0  0  0 
 19 21  1  0  0  0  0 
 20 22  1  0  0  0  0 
 20 23  1  0  0  0  0 
 21 24  1  0  0  0  0 
 24 25  1  0  0  0  0 
 25 26  1  0  0  0  0 
 26 27  1  0  0  0  0 
 27 28  1  0  0  0  0 
 28 29  1  0  0  0  0 
 29 30  1  0  0  0  0 
 29 31  2  0  0  0  0 
 30 32  1  0  0  0  0 
 32 33  1  0  0  0  0 
 32 34  2  0  0  0  0 
 32 35  2  0  0  0  0 
  5 36  1  0  0  0  0 
  9 37  1  0  0  0  0 
 10 38  1  0  0  0  0 
 11 39  1  0  0  0  0 
 12 40  1  0  0  0  0 
 13 41  1  0  0  0  0 
 14 42  1  0  0  0  0 
 15 43  1  0  0  0  0 
 16 44  1  0  0  0  0 
 17 45  1  0  0  0  0 
 18 46  1  0  0  0  0 
 20 47  1  0  0  0  0 
 21 48  1  0  0  0  0 
 21 49  1  0  0  0  0 
 22 50  1  0  0  0  0 
 22 51  1  0  0  0  0 
 22 52  1  0  0  0  0 
 23 53  1  0  0  0  0 
 23 54  1  0  0  0  0 
 23 55  1  0  0  0  0 
 24 56  1  0  0  0  0 
 24 57  1  0  0  0  0 
 25 58  1  0  0  0  0 
 25 59  1  0  0  0  0 
 26 60  1  0  0  0  0 
 26 61  1  0  0  0  0 
 28 62  1  0  0  0  0 
 28 63  1  0  0  0  0 
 30 64  1  0  0  0  0 
 33 65  1  0  0  0  0 
 33 66  1  0  0  0  0 
 33 67  1  0  0  0  0 
M  END
> <cdk:Title>
selexipag

> <Conformer>
1

> <SuperDrugID>
SD003900

$$$$
