phanquinone
  CDK     0628171801

 22 24  0  0  0  0  0  0  0  0999 V2000
   -0.3203   -2.2828    0.0000 O   0  0  0  0  0  0  0  0  0  0  0  0
   -0.9240   -1.1832    0.0000 C   0  0  0  0  0  0  0  0  0  0  0  0
   -2.3408   -1.1462    0.0000 C   0  0  0  0  0  0  0  0  0  0  0  0
   -0.1869    0.0223    0.0000 C   0  0  0  0  0  0  0  0  0  0  0  0
   -3.0434    0.0953    0.0000 C   0  0  0  0  0  0  0  0  0  0  0  0
   -3.0276   -2.3207    0.0000 N   0  0  0  0  0  0  0  0  0  0  0  0
    1.0665   -0.0134    0.0000 O   0  0  0  0  0  0  0  0  0  0  0  0
   -0.8665    1.2665    0.0000 C   0  0  0  0  0  0  0  0  0  0  0  0
   -2.2911    1.3254    0.0000 C   0  0  0  0  0  0  0  0  0  0  0  0
   -4.4622    0.0272    0.0000 C   0  0  0  0  0  0  0  0  0  0  0  0
   -4.3791   -2.3891    0.0000 C   0  0  0  0  0  0  0  0  0  0  0  0
   -0.1340    2.4132    0.0000 N   0  0  0  0  0  0  0  0  0  0  0  0
   -2.8781    2.6195    0.0000 C   0  0  0  0  0  0  0  0  0  0  0  0
   -5.1344   -1.2073    0.0000 C   0  0  0  0  0  0  0  0  0  0  0  0
   -0.6895    3.6472    0.0000 C   0  0  0  0  0  0  0  0  0  0  0  0
   -2.0857    3.7804    0.0000 C   0  0  0  0  0  0  0  0  0  0  0  0
   -5.0396    0.8664    0.0000 H   0  0  0  0  0  0  0  0  0  0  0  0
   -4.8398   -3.2977    0.0000 H   0  0  0  0  0  0  0  0  0  0  0  0
   -3.8881    2.7505    0.0000 H   0  0  0  0  0  0  0  0  0  0  0  0
   -6.1579   -1.2436    0.0000 H   0  0  0  0  0  0  0  0  0  0  0  0
   -0.0909    4.4715    0.0000 H   0  0  0  0  0  0  0  0  0  0  0  0
   -2.5202    4.7080    0.0000 H   0  0  0  0  0  0  0  0  0  0  0  0
  1  2  2  0  0  0  0 
  2  3  1  0  0  0  0 
  2  4  1  0  0  0  0 
  3  5  2  0  0  0  0 
  3  6  1  0  0  0  0 
  4  7  2  0  0  0  0 
  4  8  1  0  0  0  0 
  5  9  1  0  0  0  0 
  5 10  1  0  0  0  0 
  6 11  2  0  0  0  0 
  8  9  2  0  0  0  0 
  8 12  1  0  0  0  0 
  9 13  1  0  0  0  0 
 10 14  2  0  0  0  0 
 11 14  1  0  0  0  0 
 12 15  2  0  0  0  0 
 13 16  2  0  0  0  0 
 15 16  1  0  0  0  0 
 10 17  1  0  0  0  0 
 11 18  1  0  0  0  0 
 13 19  1  0  0  0  0 
 14 20  1  0  0  0  0 
 15 21  1  0  0  0  0 
 16 22  1  0  0  0  0 
M  END
> <cdk:Title>
phanquinone

> <Conformer>
1

> <SuperDrugID>
SD002957

$$$$
