ropinirole
  CDK     0628171801

 43 44  0  0  0  0  0  0  0  0999 V2000
    1.0820   -1.4742   -1.1243 C   0  0  1  0  0  0  0  0  0  0  0  0
    1.8360   -2.6654   -1.7916 C   0  0  1  0  0  0  0  0  0  0  0  0
    1.9726   -0.4562   -0.5001 C   0  0  0  0  0  0  0  0  0  0  0  0
    2.5580   -2.3873   -3.0830 N   0  0  1  0  0  0  0  0  0  0  0  0
    2.0543    0.8846   -0.9580 C   0  0  0  0  0  0  0  0  0  0  0  0
    2.7783   -0.8137    0.6131 C   0  0  0  0  0  0  0  0  0  0  0  0
    1.7223   -1.9835   -4.2677 C   0  0  2  0  0  0  0  0  0  0  0  0
    3.8497   -1.6304   -2.9406 C   0  0  1  0  0  0  0  0  0  0  0  0
    2.9459    1.7885   -0.3725 C   0  0  0  0  0  0  0  0  0  0  0  0
    1.3151    1.5726   -2.0303 C   0  0  1  0  0  0  0  0  0  0  0  0
    3.6764    0.1063    1.1952 C   0  0  0  0  0  0  0  0  0  0  0  0
    0.4824   -2.8742   -4.5507 C   0  0  1  0  0  0  0  0  0  0  0  0
    4.8822   -1.9458   -4.0584 C   0  0  2  0  0  0  0  0  0  0  0  0
    2.8515    2.9736   -0.9794 N   0  0  0  0  0  0  0  0  0  0  0  0
    3.7758    1.4182    0.6961 C   0  0  0  0  0  0  0  0  0  0  0  0
    1.9116    2.9129   -1.9362 C   0  0  0  0  0  0  0  0  0  0  0  0
   -0.1970   -2.5481   -5.8994 C   0  0  0  0  0  0  0  0  0  0  0  0
    6.2902   -1.3774   -3.7746 C   0  0  0  0  0  0  0  0  0  0  0  0
    1.5844    3.8846   -2.6536 O   0  0  0  0  0  0  0  0  0  0  0  0
    0.4217   -1.0208   -1.8652 H   0  0  0  0  0  0  0  0  0  0  0  0
    0.4323   -1.8700   -0.3369 H   0  0  0  0  0  0  0  0  0  0  0  0
    2.5383   -3.1043   -1.0778 H   0  0  0  0  0  0  0  0  0  0  0  0
    1.1059   -3.4572   -1.9670 H   0  0  0  0  0  0  0  0  0  0  0  0
    2.7191   -1.7553    1.0105 H   0  0  0  0  0  0  0  0  0  0  0  0
    2.3425   -2.0377   -5.1639 H   0  0  0  0  0  0  0  0  0  0  0  0
    1.3934   -0.9475   -4.1627 H   0  0  0  0  0  0  0  0  0  0  0  0
    3.6538   -0.5550   -2.9352 H   0  0  0  0  0  0  0  0  0  0  0  0
    4.3209   -1.8841   -1.9867 H   0  0  0  0  0  0  0  0  0  0  0  0
    1.5165    1.1338   -3.0077 H   0  0  0  0  0  0  0  0  0  0  0  0
    0.2428    1.6034   -1.8231 H   0  0  0  0  0  0  0  0  0  0  0  0
    4.2573   -0.1804    1.9860 H   0  0  0  0  0  0  0  0  0  0  0  0
    0.7859   -3.9244   -4.5496 H   0  0  0  0  0  0  0  0  0  0  0  0
   -0.2582   -2.7276   -3.7620 H   0  0  0  0  0  0  0  0  0  0  0  0
    4.5444   -1.5104   -5.0011 H   0  0  0  0  0  0  0  0  0  0  0  0
    4.9575   -3.0292   -4.1881 H   0  0  0  0  0  0  0  0  0  0  0  0
    3.3773    3.7589   -0.7582 H   0  0  0  0  0  0  0  0  0  0  0  0
    4.4301    2.0889    1.1050 H   0  0  0  0  0  0  0  0  0  0  0  0
   -1.0687   -3.1897   -6.0375 H   0  0  0  0  0  0  0  0  0  0  0  0
   -0.5233   -1.5063   -5.9156 H   0  0  0  0  0  0  0  0  0  0  0  0
    0.4939   -2.7173   -6.7272 H   0  0  0  0  0  0  0  0  0  0  0  0
    6.9444   -1.5977   -4.6198 H   0  0  0  0  0  0  0  0  0  0  0  0
    6.2430   -0.2951   -3.6452 H   0  0  0  0  0  0  0  0  0  0  0  0
    6.7204   -1.8264   -2.8773 H   0  0  0  0  0  0  0  0  0  0  0  0
  1  2  1  0  0  0  0 
  1  3  1  0  0  0  0 
  2  4  1  0  0  0  0 
  3  5  2  0  0  0  0 
  3  6  1  0  0  0  0 
  4  7  1  0  0  0  0 
  4  8  1  0  0  0  0 
  5  9  1  0  0  0  0 
  5 10  1  0  0  0  0 
  6 11  2  0  0  0  0 
  7 12  1  0  0  0  0 
  8 13  1  0  0  0  0 
  9 14  1  0  0  0  0 
  9 15  2  0  0  0  0 
 10 16  1  0  0  0  0 
 11 15  1  0  0  0  0 
 12 17  1  0  0  0  0 
 13 18  1  0  0  0  0 
 14 16  1  0  0  0  0 
 16 19  2  0  0  0  0 
  1 20  1  0  0  0  0 
  1 21  1  0  0  0  0 
  2 22  1  0  0  0  0 
  2 23  1  0  0  0  0 
  6 24  1  0  0  0  0 
  7 25  1  0  0  0  0 
  7 26  1  0  0  0  0 
  8 27  1  0  0  0  0 
  8 28  1  0  0  0  0 
 10 29  1  0  0  0  0 
 10 30  1  0  0  0  0 
 11 31  1  0  0  0  0 
 12 32  1  0  0  0  0 
 12 33  1  0  0  0  0 
 13 34  1  0  0  0  0 
 13 35  1  0  0  0  0 
 14 36  1  0  0  0  0 
 15 37  1  0  0  0  0 
 17 38  1  0  0  0  0 
 17 39  1  0  0  0  0 
 17 40  1  0  0  0  0 
 18 41  1  0  0  0  0 
 18 42  1  0  0  0  0 
 18 43  1  0  0  0  0 
M  END
> <cdk:Title>
ropinirole

> <Conformer>
1

> <SuperDrugID>
SD002162

$$$$
