succinylsulfathiazole
  CDK     0628171801

 36 37  0  0  0  0  0  0  0  0999 V2000
   -3.1034    2.2029    0.4726 S   0  0  2  0  0  0  0  0  0  0  0  0
   -1.7607    2.3355   -0.5880 N   0  0  0  0  0  0  0  0  0  0  0  0
   -4.3348    2.9870   -0.1948 O   0  0  0  0  0  0  0  0  0  0  0  0
   -2.7360    2.9167    1.8628 O   0  0  0  0  0  0  0  0  0  0  0  0
   -3.5548    0.5081    0.7336 C   0  0  0  0  0  0  0  0  0  0  0  0
   -0.5503    1.8088   -0.3143 C   0  0  0  0  0  0  0  0  0  0  0  0
   -3.2726   -0.4631   -0.2474 C   0  0  0  0  0  0  0  0  0  0  0  0
   -4.2225    0.1192    1.9125 C   0  0  0  0  0  0  0  0  0  0  0  0
   -0.1835    1.0804    0.7647 N   0  0  0  0  0  0  0  0  0  0  0  0
    0.8639    1.9412   -1.3456 S   0  0  0  0  0  0  0  0  0  0  0  0
   -3.6475   -1.8040   -0.0532 C   0  0  0  0  0  0  0  0  0  0  0  0
   -4.5898   -1.2254    2.1094 C   0  0  0  0  0  0  0  0  0  0  0  0
    1.1087    0.6534    0.7978 C   0  0  0  0  0  0  0  0  0  0  0  0
    1.9121    1.0225   -0.2845 C   0  0  0  0  0  0  0  0  0  0  0  0
   -4.3079   -2.2057    1.1326 C   0  0  0  0  0  0  0  0  0  0  0  0
   -4.7589   -3.4746    1.3737 N   0  0  0  0  0  0  0  0  0  0  0  0
   -4.3085   -4.6643    0.8780 C   0  0  0  0  0  0  0  0  0  0  0  0
   -5.0933   -5.8925    1.1347 C   0  0  1  0  0  0  0  0  0  0  0  0
   -3.2526   -4.7648    0.2084 O   0  0  0  0  0  0  0  0  0  0  0  0
   -4.4175   -6.8519    2.1518 C   0  0  2  0  0  0  0  0  0  0  0  0
   -5.1324   -8.1423    2.2552 C   0  0  0  0  0  0  0  0  0  0  0  0
   -5.8457   -8.4625    3.3618 O   0  0  0  0  0  0  0  0  0  0  0  0
   -5.0941   -8.9647    1.3120 O   0  0  0  0  0  0  0  0  0  0  0  0
   -1.8767    2.8043   -1.4296 H   0  0  0  0  0  0  0  0  0  0  0  0
   -2.8031   -0.2000   -1.1161 H   0  0  0  0  0  0  0  0  0  0  0  0
   -4.4521    0.8105    2.6301 H   0  0  0  0  0  0  0  0  0  0  0  0
   -3.4548   -2.4736   -0.7983 H   0  0  0  0  0  0  0  0  0  0  0  0
   -5.0699   -1.4829    2.9762 H   0  0  0  0  0  0  0  0  0  0  0  0
    1.4703    0.0975    1.5732 H   0  0  0  0  0  0  0  0  0  0  0  0
    2.9010    0.8109   -0.4260 H   0  0  0  0  0  0  0  0  0  0  0  0
   -5.5077   -3.5405    1.9857 H   0  0  0  0  0  0  0  0  0  0  0  0
   -6.0829   -5.6217    1.5162 H   0  0  0  0  0  0  0  0  0  0  0  0
   -5.2485   -6.4038    0.1811 H   0  0  0  0  0  0  0  0  0  0  0  0
   -4.4015   -6.3681    3.1324 H   0  0  0  0  0  0  0  0  0  0  0  0
   -3.3826   -7.0571    1.8667 H   0  0  0  0  0  0  0  0  0  0  0  0
   -6.3287   -9.3167    3.4061 H   0  0  0  0  0  0  0  0  0  0  0  0
  1  2  1  0  0  0  0 
  1  3  2  0  0  0  0 
  1  4  2  0  0  0  0 
  1  5  1  0  0  0  0 
  2  6  1  0  0  0  0 
  5  7  2  0  0  0  0 
  5  8  1  0  0  0  0 
  6  9  2  0  0  0  0 
  6 10  1  0  0  0  0 
  7 11  1  0  0  0  0 
  8 12  2  0  0  0  0 
  9 13  1  0  0  0  0 
 10 14  1  0  0  0  0 
 11 15  2  0  0  0  0 
 12 15  1  0  0  0  0 
 13 14  2  0  0  0  0 
 15 16  1  0  0  0  0 
 16 17  1  0  0  0  0 
 17 18  1  0  0  0  0 
 17 19  2  0  0  0  0 
 18 20  1  0  0  0  0 
 20 21  1  0  0  0  0 
 21 22  1  0  0  0  0 
 21 23  2  0  0  0  0 
  2 24  1  0  0  0  0 
  7 25  1  0  0  0  0 
  8 26  1  0  0  0  0 
 11 27  1  0  0  0  0 
 12 28  1  0  0  0  0 
 13 29  1  0  0  0  0 
 14 30  1  0  0  0  0 
 16 31  1  0  0  0  0 
 18 32  1  0  0  0  0 
 18 33  1  0  0  0  0 
 20 34  1  0  0  0  0 
 20 35  1  0  0  0  0 
 22 36  1  0  0  0  0 
M  END
> <cdk:Title>
succinylsulfathiazole

> <Conformer>
1

> <SuperDrugID>
SD002237

$$$$
