setiptiline
  CDK     0628171801

 39 42  0  0  0  0  0  0  0  0999 V2000
    1.2103   -0.3154   -0.8101 C   0  0  0  0  0  0  0  0  0  0  0  0
   -0.0853   -0.2369   -0.0830 N   0  0  1  0  0  0  0  0  0  0  0  0
   -0.5536   -1.5364    0.4832 C   0  0  2  0  0  0  0  0  0  0  0  0
   -0.1241    0.8217    0.9532 C   0  0  1  0  0  0  0  0  0  0  0  0
   -1.8567   -1.4670    1.1748 C   0  0  0  0  0  0  0  0  0  0  0  0
   -1.5881    0.9864    1.4166 C   0  0  1  0  0  0  0  0  0  0  0  0
   -2.3405   -0.2707    1.6216 C   0  0  0  0  0  0  0  0  0  0  0  0
   -2.5731   -2.6839    1.2891 C   0  0  0  0  0  0  0  0  0  0  0  0
   -3.6186   -0.1271    2.2091 C   0  0  0  0  0  0  0  0  0  0  0  0
   -3.9397   -2.7819    0.8809 C   0  0  0  0  0  0  0  0  0  0  0  0
   -1.9289   -3.8528    1.7766 C   0  0  0  0  0  0  0  0  0  0  0  0
   -4.7909   -0.6474    1.5802 C   0  0  0  0  0  0  0  0  0  0  0  0
   -3.7728    0.5684    3.4364 C   0  0  0  0  0  0  0  0  0  0  0  0
   -4.6869   -1.5753    0.4189 C   0  0  2  0  0  0  0  0  0  0  0  0
   -4.6013   -4.0332    0.9496 C   0  0  0  0  0  0  0  0  0  0  0  0
   -2.5999   -5.0859    1.8343 C   0  0  0  0  0  0  0  0  0  0  0  0
   -6.0687   -0.3180    2.0965 C   0  0  0  0  0  0  0  0  0  0  0  0
   -5.0445    0.8651    3.9522 C   0  0  0  0  0  0  0  0  0  0  0  0
   -3.9348   -5.1763    1.4174 C   0  0  0  0  0  0  0  0  0  0  0  0
   -6.1935    0.4514    3.2639 C   0  0  0  0  0  0  0  0  0  0  0  0
    1.4192    0.6369   -1.2998 H   0  0  0  0  0  0  0  0  0  0  0  0
    2.0356   -0.5550   -0.1359 H   0  0  0  0  0  0  0  0  0  0  0  0
    1.1541   -1.0773   -1.5881 H   0  0  0  0  0  0  0  0  0  0  0  0
    0.1958   -1.9243    1.1799 H   0  0  0  0  0  0  0  0  0  0  0  0
   -0.6344   -2.2410   -0.3517 H   0  0  0  0  0  0  0  0  0  0  0  0
    0.5136    0.5663    1.8080 H   0  0  0  0  0  0  0  0  0  0  0  0
    0.2199    1.7762    0.5463 H   0  0  0  0  0  0  0  0  0  0  0  0
   -1.5490    1.5920    2.3234 H   0  0  0  0  0  0  0  0  0  0  0  0
   -2.1214    1.5731    0.6619 H   0  0  0  0  0  0  0  0  0  0  0  0
   -0.9568   -3.8246    2.0960 H   0  0  0  0  0  0  0  0  0  0  0  0
   -2.9582    0.8746    3.9737 H   0  0  0  0  0  0  0  0  0  0  0  0
   -5.6747   -1.8448    0.0336 H   0  0  0  0  0  0  0  0  0  0  0  0
   -4.1549   -1.0970   -0.4075 H   0  0  0  0  0  0  0  0  0  0  0  0
   -5.5807   -4.1251    0.6651 H   0  0  0  0  0  0  0  0  0  0  0  0
   -2.1160   -5.9173    2.1787 H   0  0  0  0  0  0  0  0  0  0  0  0
   -6.9224   -0.6428    1.6351 H   0  0  0  0  0  0  0  0  0  0  0  0
   -5.1345    1.3880    4.8260 H   0  0  0  0  0  0  0  0  0  0  0  0
   -4.4249   -6.0728    1.4584 H   0  0  0  0  0  0  0  0  0  0  0  0
   -7.1191    0.6952    3.6249 H   0  0  0  0  0  0  0  0  0  0  0  0
  1  2  1  0  0  0  0 
  2  3  1  0  0  0  0 
  2  4  1  0  0  0  0 
  3  5  1  0  0  0  0 
  4  6  1  0  0  0  0 
  5  7  2  0  0  0  0 
  5  8  1  0  0  0  0 
  6  7  1  0  0  0  0 
  7  9  1  0  0  0  0 
  8 10  2  0  0  0  0 
  8 11  1  0  0  0  0 
  9 12  2  0  0  0  0 
  9 13  1  0  0  0  0 
 10 14  1  0  0  0  0 
 10 15  1  0  0  0  0 
 11 16  2  0  0  0  0 
 12 14  1  0  0  0  0 
 12 17  1  0  0  0  0 
 13 18  2  0  0  0  0 
 15 19  2  0  0  0  0 
 16 19  1  0  0  0  0 
 17 20  2  0  0  0  0 
 18 20  1  0  0  0  0 
  1 21  1  0  0  0  0 
  1 22  1  0  0  0  0 
  1 23  1  0  0  0  0 
  3 24  1  0  0  0  0 
  3 25  1  0  0  0  0 
  4 26  1  0  0  0  0 
  4 27  1  0  0  0  0 
  6 28  1  0  0  0  0 
  6 29  1  0  0  0  0 
 11 30  1  0  0  0  0 
 13 31  1  0  0  0  0 
 14 32  1  0  0  0  0 
 14 33  1  0  0  0  0 
 15 34  1  0  0  0  0 
 16 35  1  0  0  0  0 
 17 36  1  0  0  0  0 
 18 37  1  0  0  0  0 
 19 38  1  0  0  0  0 
 20 39  1  0  0  0  0 
M  END
> <cdk:Title>
setiptiline

> <Conformer>
1

> <SuperDrugID>
SD002192

$$$$
