pentoxyverine
  CDK     0628171802

 55 56  0  0  0  0  0  0  0  0999 V2000
   -3.5959    1.9213    4.4713 C   0  0  0  0  0  0  0  0  0  0  0  0
   -4.7564    2.0451    3.7625 O   0  0  0  0  0  0  0  0  0  0  0  0
   -2.9246    0.8645    4.3832 O   0  0  0  0  0  0  0  0  0  0  0  0
   -3.1136    3.0349    5.3531 C   0  0  1  0  0  0  0  0  0  0  0  0
   -5.3453    1.0796    2.8851 C   0  0  2  0  0  0  0  0  0  0  0  0
   -1.7887    3.6235    4.7674 C   0  0  2  0  0  0  0  0  0  0  0  0
   -4.0018    4.3221    5.2862 C   0  0  2  0  0  0  0  0  0  0  0  0
   -3.0505    2.4843    6.7600 C   0  0  0  0  0  0  0  0  0  0  0  0
   -6.6228    1.6927    2.2876 C   0  0  1  0  0  0  0  0  0  0  0  0
   -2.1965    4.5716    3.6229 C   0  0  2  0  0  0  0  0  0  0  0  0
   -3.6005    5.0838    4.0040 C   0  0  2  0  0  0  0  0  0  0  0  0
   -4.2541    2.1870    7.4546 C   0  0  0  0  0  0  0  0  0  0  0  0
   -1.8279    2.2057    7.4271 C   0  0  0  0  0  0  0  0  0  0  0  0
   -7.2138    0.7719    1.3495 O   0  0  0  0  0  0  0  0  0  0  0  0
   -4.2370    1.6770    8.7653 C   0  0  0  0  0  0  0  0  0  0  0  0
   -1.8058    1.7022    8.7398 C   0  0  0  0  0  0  0  0  0  0  0  0
   -8.4482    1.2483    0.7763 C   0  0  2  0  0  0  0  0  0  0  0  0
   -3.0120    1.4389    9.4094 C   0  0  0  0  0  0  0  0  0  0  0  0
   -8.9389    0.2728   -0.3196 C   0  0  2  0  0  0  0  0  0  0  0  0
  -10.0952    0.8097   -1.1237 N   0  0  1  0  0  0  0  0  0  0  0  0
  -10.1600    0.2229   -2.5070 C   0  0  1  0  0  0  0  0  0  0  0  0
  -11.3903    0.7702   -0.3546 C   0  0  1  0  0  0  0  0  0  0  0  0
   -9.0750    0.7805   -3.4614 C   0  0  0  0  0  0  0  0  0  0  0  0
  -12.6003    1.4773   -1.0121 C   0  0  0  0  0  0  0  0  0  0  0  0
   -5.5914    0.1722    3.4411 H   0  0  0  0  0  0  0  0  0  0  0  0
   -4.6499    0.8297    2.0790 H   0  0  0  0  0  0  0  0  0  0  0  0
   -1.0970    2.8544    4.4110 H   0  0  0  0  0  0  0  0  0  0  0  0
   -1.2693    4.2237    5.5214 H   0  0  0  0  0  0  0  0  0  0  0  0
   -3.8034    4.9644    6.1522 H   0  0  0  0  0  0  0  0  0  0  0  0
   -5.0723    4.0981    5.2831 H   0  0  0  0  0  0  0  0  0  0  0  0
   -7.3187    1.9213    3.1003 H   0  0  0  0  0  0  0  0  0  0  0  0
   -6.3554    2.6245    1.7782 H   0  0  0  0  0  0  0  0  0  0  0  0
   -2.2336    4.0248    2.6758 H   0  0  0  0  0  0  0  0  0  0  0  0
   -1.4818    5.3938    3.5220 H   0  0  0  0  0  0  0  0  0  0  0  0
   -3.5906    6.1633    4.1822 H   0  0  0  0  0  0  0  0  0  0  0  0
   -4.3108    4.8681    3.2016 H   0  0  0  0  0  0  0  0  0  0  0  0
   -5.1612    2.3401    7.0051 H   0  0  0  0  0  0  0  0  0  0  0  0
   -0.9303    2.3564    6.9688 H   0  0  0  0  0  0  0  0  0  0  0  0
   -5.1137    1.4783    9.2491 H   0  0  0  0  0  0  0  0  0  0  0  0
   -0.9089    1.5242    9.2039 H   0  0  0  0  0  0  0  0  0  0  0  0
   -8.3027    2.2346    0.3221 H   0  0  0  0  0  0  0  0  0  0  0  0
   -9.1941    1.3226    1.5683 H   0  0  0  0  0  0  0  0  0  0  0  0
   -2.9973    1.0689   10.3627 H   0  0  0  0  0  0  0  0  0  0  0  0
   -9.1986   -0.6892    0.1318 H   0  0  0  0  0  0  0  0  0  0  0  0
   -8.0719    0.0917   -0.9590 H   0  0  0  0  0  0  0  0  0  0  0  0
  -10.0835   -0.8672   -2.4640 H   0  0  0  0  0  0  0  0  0  0  0  0
  -11.1109    0.4564   -2.9876 H   0  0  0  0  0  0  0  0  0  0  0  0
  -11.6688   -0.2650   -0.1400 H   0  0  0  0  0  0  0  0  0  0  0  0
  -11.2520    1.2744    0.6057 H   0  0  0  0  0  0  0  0  0  0  0  0
   -9.3109    0.5083   -4.4924 H   0  0  0  0  0  0  0  0  0  0  0  0
   -8.0928    0.3712   -3.2284 H   0  0  0  0  0  0  0  0  0  0  0  0
   -9.0322    1.8693   -3.3926 H   0  0  0  0  0  0  0  0  0  0  0  0
  -13.3763    1.6624   -0.2656 H   0  0  0  0  0  0  0  0  0  0  0  0
  -13.0387    0.8548   -1.7920 H   0  0  0  0  0  0  0  0  0  0  0  0
  -12.2946    2.4321   -1.4420 H   0  0  0  0  0  0  0  0  0  0  0  0
  1  2  1  0  0  0  0 
  1  3  2  0  0  0  0 
  1  4  1  0  0  0  0 
  2  5  1  0  0  0  0 
  4  6  1  0  0  0  0 
  4  7  1  0  0  0  0 
  4  8  1  0  0  0  0 
  5  9  1  0  0  0  0 
  6 10  1  0  0  0  0 
  7 11  1  0  0  0  0 
  8 12  2  0  0  0  0 
  8 13  1  0  0  0  0 
  9 14  1  0  0  0  0 
 10 11  1  0  0  0  0 
 12 15  1  0  0  0  0 
 13 16  2  0  0  0  0 
 14 17  1  0  0  0  0 
 15 18  2  0  0  0  0 
 16 18  1  0  0  0  0 
 17 19  1  0  0  0  0 
 19 20  1  0  0  0  0 
 20 21  1  0  0  0  0 
 20 22  1  0  0  0  0 
 21 23  1  0  0  0  0 
 22 24  1  0  0  0  0 
  5 25  1  0  0  0  0 
  5 26  1  0  0  0  0 
  6 27  1  0  0  0  0 
  6 28  1  0  0  0  0 
  7 29  1  0  0  0  0 
  7 30  1  0  0  0  0 
  9 31  1  0  0  0  0 
  9 32  1  0  0  0  0 
 10 33  1  0  0  0  0 
 10 34  1  0  0  0  0 
 11 35  1  0  0  0  0 
 11 36  1  0  0  0  0 
 12 37  1  0  0  0  0 
 13 38  1  0  0  0  0 
 15 39  1  0  0  0  0 
 16 40  1  0  0  0  0 
 17 41  1  0  0  0  0 
 17 42  1  0  0  0  0 
 18 43  1  0  0  0  0 
 19 44  1  0  0  0  0 
 19 45  1  0  0  0  0 
 21 46  1  0  0  0  0 
 21 47  1  0  0  0  0 
 22 48  1  0  0  0  0 
 22 49  1  0  0  0  0 
 23 50  1  0  0  0  0 
 23 51  1  0  0  0  0 
 23 52  1  0  0  0  0 
 24 53  1  0  0  0  0 
 24 54  1  0  0  0  0 
 24 55  1  0  0  0  0 
M  END
> <cdk:Title>
pentoxyverine

> <Conformer>
1

> <SuperDrugID>
SD000427

$$$$
