amocarzine
  CDK     0628171801

 47 49  0  0  0  0  0  0  0  0999 V2000
    0.3905    0.1652    0.7220 C   0  0  0  0  0  0  0  0  0  0  0  0
    0.4812   -1.1364    0.4317 N   0  0  0  0  0  0  0  0  0  0  0  0
   -1.1412    0.6725    1.2707 S   0  0  0  0  0  0  0  0  0  0  0  0
    1.4365    1.0268    0.7061 N   0  0  0  0  0  0  0  0  0  0  0  0
    1.3292   -1.7086   -0.4721 C   0  0  0  0  0  0  0  0  0  0  0  0
    1.3279    2.3784    0.1908 C   0  0  2  0  0  0  0  0  0  0  0  0
    2.7077    0.6579    1.2950 C   0  0  1  0  0  0  0  0  0  0  0  0
    1.8927   -2.9676   -0.1757 C   0  0  0  0  0  0  0  0  0  0  0  0
    1.6609   -1.0919   -1.6989 C   0  0  0  0  0  0  0  0  0  0  0  0
    2.5173    2.7372   -0.7419 C   0  0  2  0  0  0  0  0  0  0  0  0
    3.8828    0.9663    0.3350 C   0  0  2  0  0  0  0  0  0  0  0  0
    2.8190   -3.5652   -1.0522 C   0  0  0  0  0  0  0  0  0  0  0  0
    2.5721   -1.6974   -2.5829 C   0  0  0  0  0  0  0  0  0  0  0  0
    3.8312    2.3864   -0.1200 N   0  0  1  0  0  0  0  0  0  0  0  0
    3.1862   -2.9298   -2.2572 C   0  0  0  0  0  0  0  0  0  0  0  0
    5.0085    2.7880   -0.9420 C   0  0  0  0  0  0  0  0  0  0  0  0
    4.0955   -3.5668   -3.0569 N   0  0  0  0  0  0  0  0  0  0  0  0
    4.8924   -3.0322   -4.0304 C   0  0  0  0  0  0  0  0  0  0  0  0
    5.4930   -1.7573   -3.9349 C   0  0  0  0  0  0  0  0  0  0  0  0
    5.1681   -3.8172   -5.1671 C   0  0  0  0  0  0  0  0  0  0  0  0
    6.3174   -1.2737   -4.9681 C   0  0  0  0  0  0  0  0  0  0  0  0
    5.9849   -3.3261   -6.2036 C   0  0  0  0  0  0  0  0  0  0  0  0
    6.5747   -2.0378   -6.1355 C   0  0  0  0  0  0  0  0  0  0  0  0
    7.3433   -1.5656   -7.1374 N   0  0  0  0  0  0  0  0  0  0  0  0
    7.8830   -0.5296   -7.0919 O   0  0  0  0  0  0  0  0  0  0  0  0
    7.5355   -2.2094   -8.2181 O   0  0  0  0  0  0  0  0  0  0  0  0
   -0.1003   -1.7357    0.9278 H   0  0  0  0  0  0  0  0  0  0  0  0
    1.3236    3.0740    1.0353 H   0  0  0  0  0  0  0  0  0  0  0  0
    0.4006    2.5362   -0.3691 H   0  0  0  0  0  0  0  0  0  0  0  0
    2.8383    1.2357    2.2150 H   0  0  0  0  0  0  0  0  0  0  0  0
    2.7609   -0.3972    1.5786 H   0  0  0  0  0  0  0  0  0  0  0  0
    1.6454   -3.4462    0.6937 H   0  0  0  0  0  0  0  0  0  0  0  0
    1.2406   -0.1952   -1.9524 H   0  0  0  0  0  0  0  0  0  0  0  0
    2.4832    3.8122   -0.9430 H   0  0  0  0  0  0  0  0  0  0  0  0
    2.3965    2.2117   -1.6930 H   0  0  0  0  0  0  0  0  0  0  0  0
    3.8435    0.2910   -0.5220 H   0  0  0  0  0  0  0  0  0  0  0  0
    4.8158    0.7777    0.8706 H   0  0  0  0  0  0  0  0  0  0  0  0
    3.2367   -4.4648   -0.7971 H   0  0  0  0  0  0  0  0  0  0  0  0
    2.7773   -1.2300   -3.4686 H   0  0  0  0  0  0  0  0  0  0  0  0
    4.9791    3.8600   -1.1440 H   0  0  0  0  0  0  0  0  0  0  0  0
    5.9373    2.5855   -0.4052 H   0  0  0  0  0  0  0  0  0  0  0  0
    5.0314    2.2529   -1.8934 H   0  0  0  0  0  0  0  0  0  0  0  0
    4.1821   -4.5237   -2.9180 H   0  0  0  0  0  0  0  0  0  0  0  0
    5.3470   -1.1772   -3.1046 H   0  0  0  0  0  0  0  0  0  0  0  0
    4.7656   -4.7532   -5.2510 H   0  0  0  0  0  0  0  0  0  0  0  0
    6.7337   -0.3470   -4.8560 H   0  0  0  0  0  0  0  0  0  0  0  0
    6.1483   -3.9290   -7.0129 H   0  0  0  0  0  0  0  0  0  0  0  0
  1  2  1  0  0  0  0 
  1  3  2  0  0  0  0 
  1  4  1  0  0  0  0 
  2  5  1  0  0  0  0 
  4  6  1  0  0  0  0 
  4  7  1  0  0  0  0 
  5  8  2  0  0  0  0 
  5  9  1  0  0  0  0 
  6 10  1  0  0  0  0 
  7 11  1  0  0  0  0 
  8 12  1  0  0  0  0 
  9 13  2  0  0  0  0 
 10 14  1  0  0  0  0 
 11 14  1  0  0  0  0 
 12 15  2  0  0  0  0 
 13 15  1  0  0  0  0 
 14 16  1  0  0  0  0 
 15 17  1  0  0  0  0 
 17 18  1  0  0  0  0 
 18 19  2  0  0  0  0 
 18 20  1  0  0  0  0 
 19 21  1  0  0  0  0 
 20 22  2  0  0  0  0 
 21 23  2  0  0  0  0 
 22 23  1  0  0  0  0 
 23 24  1  0  0  0  0 
 24 25  2  0  0  0  0 
 24 26  1  0  0  0  0 
 27  2  1  0  0  0  0 
 28  6  1  0  0  0  0 
 29  6  1  0  0  0  0 
 30  7  1  0  0  0  0 
 31  7  1  0  0  0  0 
 32  8  1  0  0  0  0 
 33  9  1  0  0  0  0 
 34 10  1  0  0  0  0 
 35 10  1  0  0  0  0 
 36 11  1  0  0  0  0 
 37 11  1  0  0  0  0 
 38 12  1  0  0  0  0 
 39 13  1  0  0  0  0 
 40 16  1  0  0  0  0 
 41 16  1  0  0  0  0 
 42 16  1  0  0  0  0 
 43 17  1  0  0  0  0 
 44 19  1  0  0  0  0 
 45 20  1  0  0  0  0 
 46 21  1  0  0  0  0 
 47 22  1  0  0  0  0 
M  CHG  1  24   1
M  CHG  1  26  -1
M  END
> <cdk:Title>
amocarzine

> <Conformer>
1

> <SuperDrugID>
SD000150

$$$$
