lymecycline
  CDK     0628171801

 81 84  0  0  0  0  0  0  0  0999 V2000
    0.7051   -4.0218   -1.2757 O   0  0  0  0  0  0  0  0  0  0  0  0
    1.1212   -3.1843   -0.1882 C   0  0  1  0  0  0  0  0  0  0  0  0
    0.9813   -4.0061    1.1341 C   0  0  1  0  0  0  0  0  0  0  0  0
    2.5275   -2.8566   -0.4735 C   0  0  0  0  0  0  0  0  0  0  0  0
    0.2438   -1.9921   -0.1468 C   0  0  0  0  0  0  0  0  0  0  0  0
    1.9419   -5.2343    1.0865 C   0  0  1  0  0  0  0  0  0  0  0  0
    1.1728   -3.0737    2.3829 C   0  0  2  0  0  0  0  0  0  0  0  0
    2.7648   -1.7430   -1.1701 O   0  0  0  0  0  0  0  0  0  0  0  0
    3.5733   -3.6336   -0.0884 C   0  0  0  0  0  0  0  0  0  0  0  0
   -0.2060   -1.5594   -1.3254 O   0  0  0  0  0  0  0  0  0  0  0  0
   -0.0960   -1.3372    0.9939 C   0  0  0  0  0  0  0  0  0  0  0  0
    3.4205   -4.8954    0.6603 C   0  0  1  0  0  0  0  0  0  0  0  0
    0.9763   -3.8051    3.6912 N   0  0  2  0  0  0  0  0  0  0  0  0
    0.3929   -1.8069    2.2315 C   0  0  0  0  0  0  0  0  0  0  0  0
    4.8901   -3.2979   -0.4110 C   0  0  0  0  0  0  0  0  0  0  0  0
   -0.9043   -0.1845    0.9746 C   0  0  0  0  0  0  0  0  0  0  0  0
    4.4865   -5.1022    1.8221 C   0  0  2  0  0  0  0  0  0  0  0  0
   -0.3984   -4.3006    3.9945 C   0  0  0  0  0  0  0  0  0  0  0  0
    1.6577   -3.2261    4.8909 C   0  0  0  0  0  0  0  0  0  0  0  0
    0.2845   -1.0930    3.2574 O   0  0  0  0  0  0  0  0  0  0  0  0
    5.1510   -2.9323   -1.5821 O   0  0  0  0  0  0  0  0  0  0  0  0
    5.9223   -3.3978    0.5665 C   0  0  0  0  0  0  0  0  0  0  0  0
   -0.7344    0.7941    0.0367 N   0  0  0  0  0  0  0  0  0  0  0  0
   -1.7794   -0.0241    1.8612 O   0  0  0  0  0  0  0  0  0  0  0  0
    4.8215   -6.6234    1.9625 C   0  0  0  0  0  0  0  0  0  0  0  0
    3.9302   -4.6949    3.0707 O   0  0  0  0  0  0  0  0  0  0  0  0
    5.7418   -4.2775    1.6736 C   0  0  0  0  0  0  0  0  0  0  0  0
    7.0954   -2.5925    0.5054 C   0  0  0  0  0  0  0  0  0  0  0  0
   -1.3911    2.0638    0.0127 C   0  0  2  0  0  0  0  0  0  0  0  0
    6.7391   -4.3170    2.6846 C   0  0  0  0  0  0  0  0  0  0  0  0
    7.3377   -1.6814   -0.4719 O   0  0  0  0  0  0  0  0  0  0  0  0
    8.0681   -2.6627    1.5170 C   0  0  0  0  0  0  0  0  0  0  0  0
   -2.8662    1.9967    0.0642 N   0  0  2  0  0  0  0  0  0  0  0  0
    7.8908   -3.5189    2.6100 C   0  0  0  0  0  0  0  0  0  0  0  0
   -3.5720    1.5266   -1.2551 C   0  0  1  0  0  0  0  0  0  0  0  0
   -3.4200   -0.0018   -1.6070 C   0  0  2  0  0  0  0  0  0  0  0  0
   -4.5009   -0.5492   -2.5774 C   0  0  2  0  0  0  0  0  0  0  0  0
   -4.3189   -2.0681   -2.8557 C   0  0  2  0  0  0  0  0  0  0  0  0
   -5.5451   -2.7387   -3.5367 C   0  0  1  0  0  0  0  0  0  0  0  0
   -5.2681   -4.1495   -3.8789 C   0  0  0  0  0  0  0  0  0  0  0  0
   -6.7258   -2.7199   -2.6618 N   0  0  1  0  0  0  0  0  0  0  0  0
   -5.0035   -5.0602   -2.9107 O   0  0  0  0  0  0  0  0  0  0  0  0
   -5.2656   -4.5318   -5.0710 O   0  0  0  0  0  0  0  0  0  0  0  0
   -0.2299   -4.2544   -1.0904 H   0  0  0  0  0  0  0  0  0  0  0  0
   -0.0416   -4.3963    1.1569 H   0  0  0  0  0  0  0  0  0  0  0  0
    1.8976   -5.7630    2.0407 H   0  0  0  0  0  0  0  0  0  0  0  0
    1.5351   -5.9410    0.3569 H   0  0  0  0  0  0  0  0  0  0  0  0
    2.2121   -2.7394    2.3586 H   0  0  0  0  0  0  0  0  0  0  0  0
    2.3752   -1.9143   -2.0532 H   0  0  0  0  0  0  0  0  0  0  0  0
   -0.9655   -2.1421   -1.5348 H   0  0  0  0  0  0  0  0  0  0  0  0
    3.6739   -5.6382   -0.1081 H   0  0  0  0  0  0  0  0  0  0  0  0
   -0.7359   -4.9997    3.2335 H   0  0  0  0  0  0  0  0  0  0  0  0
   -0.4194   -4.8435    4.9405 H   0  0  0  0  0  0  0  0  0  0  0  0
   -1.1107   -3.4771    4.0563 H   0  0  0  0  0  0  0  0  0  0  0  0
    2.6388   -2.8217    4.6419 H   0  0  0  0  0  0  0  0  0  0  0  0
    1.8130   -4.0071    5.6372 H   0  0  0  0  0  0  0  0  0  0  0  0
    1.0649   -2.4298    5.3444 H   0  0  0  0  0  0  0  0  0  0  0  0
   -0.0757    0.6336   -0.6550 H   0  0  0  0  0  0  0  0  0  0  0  0
    5.4036   -6.8274    2.8620 H   0  0  0  0  0  0  0  0  0  0  0  0
    5.3942   -6.9666    1.0987 H   0  0  0  0  0  0  0  0  0  0  0  0
    3.9107   -7.2208    2.0284 H   0  0  0  0  0  0  0  0  0  0  0  0
    3.8494   -3.7237    3.0046 H   0  0  0  0  0  0  0  0  0  0  0  0
   -1.0711    2.6094   -0.8768 H   0  0  0  0  0  0  0  0  0  0  0  0
   -1.0587    2.6356    0.8807 H   0  0  0  0  0  0  0  0  0  0  0  0
    6.6276   -4.9188    3.5022 H   0  0  0  0  0  0  0  0  0  0  0  0
    7.0268   -2.0845   -1.3031 H   0  0  0  0  0  0  0  0  0  0  0  0
    8.9058   -2.0774    1.4652 H   0  0  0  0  0  0  0  0  0  0  0  0
   -3.1959    2.9476    0.2426 H   0  0  0  0  0  0  0  0  0  0  0  0
    8.5931   -3.5505    3.3536 H   0  0  0  0  0  0  0  0  0  0  0  0
   -4.6770    1.7183   -1.2257 H   0  0  0  0  0  0  0  0  0  0  0  0
   -3.2397    2.0780   -2.1714 H   0  0  0  0  0  0  0  0  0  0  0  0
   -3.4721   -0.5678   -0.6726 H   0  0  0  0  0  0  0  0  0  0  0  0
   -2.4332   -0.1578   -2.0477 H   0  0  0  0  0  0  0  0  0  0  0  0
   -4.4509   -0.0027   -3.5233 H   0  0  0  0  0  0  0  0  0  0  0  0
   -5.4841   -0.3723   -2.1349 H   0  0  0  0  0  0  0  0  0  0  0  0
   -4.1209   -2.5862   -1.9136 H   0  0  0  0  0  0  0  0  0  0  0  0
   -3.4388   -2.1946   -3.4943 H   0  0  0  0  0  0  0  0  0  0  0  0
   -5.7922   -2.1834   -4.4455 H   0  0  0  0  0  0  0  0  0  0  0  0
   -6.4318   -3.0859   -1.7540 H   0  0  0  0  0  0  0  0  0  0  0  0
   -6.9890   -1.7447   -2.5175 H   0  0  0  0  0  0  0  0  0  0  0  0
   -4.7870   -5.9857   -3.1501 H   0  0  0  0  0  0  0  0  0  0  0  0
  2  1  1  0  0  0  0 
  3  2  1  0  0  0  0 
  2  4  1  0  0  0  0 
  2  5  1  0  0  0  0 
  3  6  1  0  0  0  0 
  3  7  1  0  0  0  0 
  4  8  1  0  0  0  0 
  4  9  2  0  0  0  0 
  5 10  1  0  0  0  0 
  5 11  2  0  0  0  0 
 12  6  1  0  0  0  0 
  7 13  1  0  0  0  0 
  7 14  1  0  0  0  0 
 12  9  1  0  0  0  0 
  9 15  1  0  0  0  0 
 11 14  1  0  0  0  0 
 11 16  1  0  0  0  0 
 12 17  1  0  0  0  0 
 13 18  1  0  0  0  0 
 13 19  1  0  0  0  0 
 14 20  2  0  0  0  0 
 15 21  2  0  0  0  0 
 15 22  1  0  0  0  0 
 16 23  1  0  0  0  0 
 16 24  2  0  0  0  0 
 17 25  1  0  0  0  0 
 17 26  1  0  0  0  0 
 17 27  1  0  0  0  0 
 22 27  2  0  0  0  0 
 22 28  1  0  0  0  0 
 23 29  1  0  0  0  0 
 27 30  1  0  0  0  0 
 28 31  1  0  0  0  0 
 28 32  2  0  0  0  0 
 29 33  1  0  0  0  0 
 30 34  2  0  0  0  0 
 32 34  1  0  0  0  0 
 33 35  1  0  0  0  0 
 35 36  1  0  0  0  0 
 36 37  1  0  0  0  0 
 37 38  1  0  0  0  0 
 39 38  1  0  0  0  0 
 39 40  1  0  0  0  0 
 39 41  1  0  0  0  0 
 40 42  1  0  0  0  0 
 40 43  2  0  0  0  0 
 44  1  1  0  0  0  0 
  3 45  1  0  0  0  0 
 46  6  1  0  0  0  0 
 47  6  1  0  0  0  0 
  7 48  1  0  0  0  0 
 49  8  1  0  0  0  0 
 50 10  1  0  0  0  0 
 12 51  1  0  0  0  0 
 52 18  1  0  0  0  0 
 53 18  1  0  0  0  0 
 54 18  1  0  0  0  0 
 55 19  1  0  0  0  0 
 56 19  1  0  0  0  0 
 57 19  1  0  0  0  0 
 58 23  1  0  0  0  0 
 59 25  1  0  0  0  0 
 60 25  1  0  0  0  0 
 61 25  1  0  0  0  0 
 62 26  1  0  0  0  0 
 63 29  1  0  0  0  0 
 64 29  1  0  0  0  0 
 65 30  1  0  0  0  0 
 66 31  1  0  0  0  0 
 67 32  1  0  0  0  0 
 68 33  1  0  0  0  0 
 69 34  1  0  0  0  0 
 70 35  1  0  0  0  0 
 71 35  1  0  0  0  0 
 72 36  1  0  0  0  0 
 73 36  1  0  0  0  0 
 74 37  1  0  0  0  0 
 75 37  1  0  0  0  0 
 76 38  1  0  0  0  0 
 77 38  1  0  0  0  0 
 39 78  1  0  0  0  0 
 79 41  1  0  0  0  0 
 80 41  1  0  0  0  0 
 81 42  1  0  0  0  0 
M  END
> <cdk:Title>
lymecycline

> <Conformer>
1

> <SuperDrugID>
SD001433

$$$$
