paliperidone
  CDK     0628171801

 58 62  0  0  0  0  0  0  0  0999 V2000
   -0.5393    5.2921   11.7005 C   0  0  0  0  0  0  0  0  0  0  0  0
   -0.1737    6.4702   10.8756 C   0  0  0  0  0  0  0  0  0  0  0  0
   -1.1030    7.2614   10.1446 C   0  0  0  0  0  0  0  0  0  0  0  0
   -2.5804    6.9883   10.1441 C   0  0  2  0  0  0  0  0  0  0  0  0
   -3.0556    6.0884    8.9674 C   0  0  1  0  0  0  0  0  0  0  0  0
   -2.7400    6.6029    7.5909 N   0  0  2  0  0  0  0  0  0  0  0  0
   -3.6105    7.7405    7.1405 C   0  0  2  0  0  0  0  0  0  0  0  0
   -3.0999    8.3415    5.8059 C   0  0  1  0  0  0  0  0  0  0  0  0
   -3.0063    7.2496    4.6992 C   0  0  2  0  0  0  0  0  0  0  0  0
   -2.1593    6.0454    5.1979 C   0  0  2  0  0  0  0  0  0  0  0  0
   -2.6868    5.5171    6.5556 C   0  0  2  0  0  0  0  0  0  0  0  0
   -2.4595    7.7875    3.4282 C   0  0  0  0  0  0  0  0  0  0  0  0
   -1.3763    8.5871    3.3292 N   0  0  0  0  0  0  0  0  0  0  0  0
   -1.1328    8.9095    2.0834 O   0  0  0  0  0  0  0  0  0  0  0  0
   -2.0667    8.3133    1.3130 C   0  0  0  0  0  0  0  0  0  0  0  0
   -2.2385    8.3504   -0.0799 C   0  0  0  0  0  0  0  0  0  0  0  0
   -3.3036    7.6137   -0.6438 C   0  0  0  0  0  0  0  0  0  0  0  0
   -3.4912    7.6339   -1.9358 F   0  0  0  0  0  0  0  0  0  0  0  0
   -4.1650    6.8537    0.1841 C   0  0  0  0  0  0  0  0  0  0  0  0
   -3.9821    6.8343    1.5852 C   0  0  0  0  0  0  0  0  0  0  0  0
   -2.9219    7.5843    2.1306 C   0  0  0  0  0  0  0  0  0  0  0  0
   -0.5625    8.3524    9.4086 C   0  0  0  0  0  0  0  0  0  0  0  0
   -1.3479    9.1056    8.7824 O   0  0  0  0  0  0  0  0  0  0  0  0
    0.7885    8.6115    9.3615 N   0  0  0  0  0  0  0  0  0  0  0  0
    1.2860    9.7026    8.5319 C   0  0  1  0  0  0  0  0  0  0  0  0
    2.8156    9.7113    8.2784 C   0  0  1  0  0  0  0  0  0  0  0  0
    3.5480    9.4323    9.6065 C   0  0  1  0  0  0  0  0  0  0  0  0
    3.1039    8.0652   10.1894 C   0  0  2  0  0  0  0  0  0  0  0  0
    3.7395    7.0028    9.4846 O   0  0  0  0  0  0  0  0  0  0  0  0
    1.6363    7.8395   10.1203 C   0  0  0  0  0  0  0  0  0  0  0  0
    1.1416    6.8006   10.8400 N   0  0  0  0  0  0  0  0  0  0  0  0
    0.3428    4.8344   12.1549 H   0  0  0  0  0  0  0  0  0  0  0  0
   -1.2122    5.5840   12.5091 H   0  0  0  0  0  0  0  0  0  0  0  0
   -1.0282    4.5364   11.0843 H   0  0  0  0  0  0  0  0  0  0  0  0
   -3.1375    7.9281   10.1395 H   0  0  0  0  0  0  0  0  0  0  0  0
   -2.8722    6.4935   11.0732 H   0  0  0  0  0  0  0  0  0  0  0  0
   -2.5816    5.1138    9.1185 H   0  0  0  0  0  0  0  0  0  0  0  0
   -4.1347    5.9269    9.0627 H   0  0  0  0  0  0  0  0  0  0  0  0
   -3.6300    8.5381    7.8846 H   0  0  0  0  0  0  0  0  0  0  0  0
   -4.6408    7.4001    7.0094 H   0  0  0  0  0  0  0  0  0  0  0  0
   -3.7794    9.1362    5.4861 H   0  0  0  0  0  0  0  0  0  0  0  0
   -2.1147    8.7839    5.9817 H   0  0  0  0  0  0  0  0  0  0  0  0
   -4.0213    6.8882    4.5060 H   0  0  0  0  0  0  0  0  0  0  0  0
   -1.1118    6.3401    5.3151 H   0  0  0  0  0  0  0  0  0  0  0  0
   -2.2018    5.2370    4.4615 H   0  0  0  0  0  0  0  0  0  0  0  0
   -3.6817    5.0839    6.4134 H   0  0  0  0  0  0  0  0  0  0  0  0
   -2.0190    4.7136    6.8760 H   0  0  0  0  0  0  0  0  0  0  0  0
   -1.6047    8.8995   -0.6650 H   0  0  0  0  0  0  0  0  0  0  0  0
   -4.9294    6.3161   -0.2331 H   0  0  0  0  0  0  0  0  0  0  0  0
   -4.6035    6.2846    2.1822 H   0  0  0  0  0  0  0  0  0  0  0  0
    0.8099    9.6724    7.5464 H   0  0  0  0  0  0  0  0  0  0  0  0
    1.0096   10.6482    9.0123 H   0  0  0  0  0  0  0  0  0  0  0  0
    3.0774    8.9468    7.5389 H   0  0  0  0  0  0  0  0  0  0  0  0
    3.1193   10.6842    7.8825 H   0  0  0  0  0  0  0  0  0  0  0  0
    4.6300    9.4439    9.4476 H   0  0  0  0  0  0  0  0  0  0  0  0
    3.3054   10.2297   10.3177 H   0  0  0  0  0  0  0  0  0  0  0  0
    3.4334    8.0234   11.2312 H   0  0  0  0  0  0  0  0  0  0  0  0
    3.3760    7.0513    8.5750 H   0  0  0  0  0  0  0  0  0  0  0  0
  1  2  1  0  0  0  0 
  2  3  2  0  0  0  0 
  3  4  1  0  0  0  0 
  4  5  1  0  0  0  0 
  5  6  1  0  0  0  0 
  6  7  1  0  0  0  0 
  7  8  1  0  0  0  0 
  8  9  1  0  0  0  0 
  9 10  1  0  0  0  0 
 10 11  1  0  0  0  0 
  6 11  1  0  0  0  0 
  9 12  1  0  0  0  0 
 12 13  2  0  0  0  0 
 13 14  1  0  0  0  0 
 14 15  1  0  0  0  0 
 15 16  2  0  0  0  0 
 16 17  1  0  0  0  0 
 17 18  1  0  0  0  0 
 17 19  2  0  0  0  0 
 19 20  1  0  0  0  0 
 20 21  2  0  0  0  0 
 12 21  1  0  0  0  0 
 15 21  1  0  0  0  0 
  3 22  1  0  0  0  0 
 22 23  2  0  0  0  0 
 22 24  1  0  0  0  0 
 24 25  1  0  0  0  0 
 25 26  1  0  0  0  0 
 26 27  1  0  0  0  0 
 28 27  1  0  0  0  0 
 28 29  1  0  0  0  0 
 28 30  1  0  0  0  0 
 24 30  1  0  0  0  0 
 30 31  2  0  0  0  0 
  2 31  1  0  0  0  0 
  1 32  1  0  0  0  0 
  1 33  1  0  0  0  0 
  1 34  1  0  0  0  0 
  4 35  1  0  0  0  0 
  4 36  1  0  0  0  0 
  5 37  1  0  0  0  0 
  5 38  1  0  0  0  0 
  7 39  1  0  0  0  0 
  7 40  1  0  0  0  0 
  8 41  1  0  0  0  0 
  8 42  1  0  0  0  0 
  9 43  1  0  0  0  0 
 10 44  1  0  0  0  0 
 10 45  1  0  0  0  0 
 11 46  1  0  0  0  0 
 11 47  1  0  0  0  0 
 16 48  1  0  0  0  0 
 19 49  1  0  0  0  0 
 20 50  1  0  0  0  0 
 25 51  1  0  0  0  0 
 25 52  1  0  0  0  0 
 26 53  1  0  0  0  0 
 26 54  1  0  0  0  0 
 27 55  1  0  0  0  0 
 27 56  1  0  0  0  0 
 28 57  1  0  0  0  0 
 29 58  1  0  0  0  0 
M  END
> <cdk:Title>
paliperidone

> <Conformer>
1

> <SuperDrugID>
SD003376

$$$$
