piprozolin
  CDK     0628171801

 42 43  0  0  0  0  0  0  0  0999 V2000
   -0.9394    3.0454    0.6221 O   0  0  0  0  0  0  0  0  0  0  0  0
   -1.8053    2.2418    1.0433 C   0  0  0  0  0  0  0  0  0  0  0  0
   -1.3235    1.0124    1.6982 C   0  0  1  0  0  0  0  0  0  0  0  0
   -3.1705    2.4497    0.9121 N   0  0  0  0  0  0  0  0  0  0  0  0
   -2.9238    0.2935    2.1832 S   0  0  0  0  0  0  0  0  0  0  0  0
   -0.4741    0.1187    0.8418 N   0  0  2  0  0  0  0  0  0  0  0  0
   -3.6836    3.6509    0.2767 C   0  0  1  0  0  0  0  0  0  0  0  0
   -3.9497    1.4604    1.4190 C   0  0  0  0  0  0  0  0  0  0  0  0
   -1.0553   -0.2897   -0.4804 C   0  0  2  0  0  0  0  0  0  0  0  0
    0.0927   -1.0400    1.6066 C   0  0  1  0  0  0  0  0  0  0  0  0
   -4.1227    3.4156   -1.1868 C   0  0  0  0  0  0  0  0  0  0  0  0
   -5.2958    1.3538    1.3447 C   0  0  0  0  0  0  0  0  0  0  0  0
   -0.0038   -1.0229   -1.3495 C   0  0  2  0  0  0  0  0  0  0  0  0
    1.1488   -1.8167    0.7822 C   0  0  1  0  0  0  0  0  0  0  0  0
   -6.0983    0.3395    1.8442 C   0  0  0  0  0  0  0  0  0  0  0  0
    0.5950   -2.2401   -0.6008 C   0  0  1  0  0  0  0  0  0  0  0  0
   -5.6251   -0.6031    2.7068 O   0  0  0  0  0  0  0  0  0  0  0  0
   -7.3062    0.3088    1.5092 O   0  0  0  0  0  0  0  0  0  0  0  0
   -6.3536   -1.6796    3.2982 C   0  0  2  0  0  0  0  0  0  0  0  0
   -5.4175   -2.4422    4.2495 C   0  0  0  0  0  0  0  0  0  0  0  0
   -0.7784    1.3059    2.5994 H   0  0  0  0  0  0  0  0  0  0  0  0
   -4.5221    4.0523    0.8508 H   0  0  0  0  0  0  0  0  0  0  0  0
   -2.9345    4.4466    0.2675 H   0  0  0  0  0  0  0  0  0  0  0  0
   -1.3797    0.5900   -1.0403 H   0  0  0  0  0  0  0  0  0  0  0  0
   -1.9226   -0.9431   -0.3386 H   0  0  0  0  0  0  0  0  0  0  0  0
    0.5856   -0.6831    2.5160 H   0  0  0  0  0  0  0  0  0  0  0  0
   -0.7063   -1.7273    1.9050 H   0  0  0  0  0  0  0  0  0  0  0  0
   -4.4565    4.3585   -1.6219 H   0  0  0  0  0  0  0  0  0  0  0  0
   -3.2860    3.0351   -1.7746 H   0  0  0  0  0  0  0  0  0  0  0  0
   -4.9452    2.7028   -1.2467 H   0  0  0  0  0  0  0  0  0  0  0  0
   -5.7824    2.0758    0.8743 H   0  0  0  0  0  0  0  0  0  0  0  0
    0.8004   -0.3258   -1.6097 H   0  0  0  0  0  0  0  0  0  0  0  0
   -0.4708   -1.3614   -2.2782 H   0  0  0  0  0  0  0  0  0  0  0  0
    2.0265   -1.1785    0.6419 H   0  0  0  0  0  0  0  0  0  0  0  0
    1.4591   -2.7062    1.3365 H   0  0  0  0  0  0  0  0  0  0  0  0
   -0.1773   -3.0069   -0.4711 H   0  0  0  0  0  0  0  0  0  0  0  0
    1.4033   -2.6722   -1.1988 H   0  0  0  0  0  0  0  0  0  0  0  0
   -6.7189   -2.3532    2.5196 H   0  0  0  0  0  0  0  0  0  0  0  0
   -7.2042   -1.2851    3.8580 H   0  0  0  0  0  0  0  0  0  0  0  0
   -4.5359   -2.7866    3.7039 H   0  0  0  0  0  0  0  0  0  0  0  0
   -5.9405   -3.3072    4.6617 H   0  0  0  0  0  0  0  0  0  0  0  0
   -5.0991   -1.7877    5.0663 H   0  0  0  0  0  0  0  0  0  0  0  0
  1  2  2  0  0  0  0 
  2  3  1  0  0  0  0 
  2  4  1  0  0  0  0 
  3  5  1  0  0  0  0 
  3  6  1  0  0  0  0 
  4  7  1  0  0  0  0 
  4  8  1  0  0  0  0 
  5  8  1  0  0  0  0 
  6  9  1  0  0  0  0 
  6 10  1  0  0  0  0 
  7 11  1  0  0  0  0 
  8 12  2  0  0  0  0 
  9 13  1  0  0  0  0 
 10 14  1  0  0  0  0 
 12 15  1  0  0  0  0 
 13 16  1  0  0  0  0 
 14 16  1  0  0  0  0 
 15 17  1  0  0  0  0 
 15 18  2  0  0  0  0 
 17 19  1  0  0  0  0 
 19 20  1  0  0  0  0 
  3 21  1  0  0  0  0 
  7 22  1  0  0  0  0 
  7 23  1  0  0  0  0 
  9 24  1  0  0  0  0 
  9 25  1  0  0  0  0 
 10 26  1  0  0  0  0 
 10 27  1  0  0  0  0 
 11 28  1  0  0  0  0 
 11 29  1  0  0  0  0 
 11 30  1  0  0  0  0 
 12 31  1  0  0  0  0 
 13 32  1  0  0  0  0 
 13 33  1  0  0  0  0 
 14 34  1  0  0  0  0 
 14 35  1  0  0  0  0 
 16 36  1  0  0  0  0 
 16 37  1  0  0  0  0 
 19 38  1  0  0  0  0 
 19 39  1  0  0  0  0 
 20 40  1  0  0  0  0 
 20 41  1  0  0  0  0 
 20 42  1  0  0  0  0 
M  END
> <cdk:Title>
piprozolin

> <Conformer>
1

> <SuperDrugID>
SD001971

$$$$
