prajmalium
  CDK     0628171801

 60 65  0  0  0  0  0  0  0  0999 V2000
    3.4469    2.0564    5.5373 O   0  0  0  0  0  0  0  0  0  0  0  0
    3.0164    2.7900    4.3923 C   0  0  1  0  0  0  0  0  0  0  0  0
    3.8861    2.4855    3.1342 C   0  0  1  0  0  0  0  0  0  0  0  0
    1.5807    2.3509    3.9125 C   0  0  2  0  0  0  0  0  0  0  0  0
    3.6823    3.6088    2.0498 C   0  0  2  0  0  0  0  0  0  0  0  0
    5.3587    2.3705    3.1246 C   0  0  0  0  0  0  0  0  0  0  0  0
    3.3204    1.1102    2.7105 C   0  0  2  0  0  0  0  0  0  0  0  0
    1.8294    1.4884    2.6080 C   0  0  2  0  0  0  0  0  0  0  0  0
    0.6129    3.5388    3.5260 C   0  0  1  0  0  0  0  0  0  0  0  0
    2.1762    3.6783    1.5241 C   0  0  1  0  0  0  0  0  0  0  0  0
    4.8328    3.4681    1.1991 N   0  0  0  0  0  0  0  0  0  0  0  0
    5.8460    2.9021    1.9214 C   0  0  0  0  0  0  0  0  0  0  0  0
    6.2236    1.7180    4.0274 C   0  0  0  0  0  0  0  0  0  0  0  0
    1.4904    2.2975    1.3436 N   0  0  1  0  0  0  0  0  0  0  0  0
    1.3458    4.5332    2.5640 C   0  0  2  0  0  0  0  0  0  0  0  0
   -0.6192    3.0074    2.7074 C   0  0  1  0  0  0  0  0  0  0  0  0
    4.9917    4.0187   -0.1171 C   0  0  0  0  0  0  0  0  0  0  0  0
    7.2222    2.8164    1.6146 C   0  0  0  0  0  0  0  0  0  0  0  0
    7.5984    1.6429    3.7268 C   0  0  0  0  0  0  0  0  0  0  0  0
    1.9352    1.6671    0.0187 C   0  0  2  0  0  0  0  0  0  0  0  0
   -0.0449    2.4329    1.3462 C   0  0  1  0  0  0  0  0  0  0  0  0
   -1.5691    2.0162    3.4605 C   0  0  2  0  0  0  0  0  0  0  0  0
    8.0961    2.1958    2.5286 C   0  0  0  0  0  0  0  0  0  0  0  0
    1.6375    0.1517   -0.2192 C   0  0  1  0  0  0  0  0  0  0  0  0
   -0.4887    3.2677    0.2685 O   0  0  0  0  0  0  0  0  0  0  0  0
   -2.2536    2.5902    4.7262 C   0  0  0  0  0  0  0  0  0  0  0  0
    2.3131   -0.4145   -1.4906 C   0  0  0  0  0  0  0  0  0  0  0  0
    3.9109    4.5789    2.5134 H   0  0  0  0  0  0  0  0  0  0  0  0
    2.1494    4.2435    0.5901 H   0  0  0  0  0  0  0  0  0  0  0  0
    1.2435    0.5633    2.6555 H   0  0  0  0  0  0  0  0  0  0  0  0
    4.3295    2.4302    5.7509 H   0  0  0  0  0  0  0  0  0  0  0  0
    3.0568    3.8414    4.6821 H   0  0  0  0  0  0  0  0  0  0  0  0
    1.1133    1.7419    4.6932 H   0  0  0  0  0  0  0  0  0  0  0  0
    3.4413    0.3569    3.5624 H   0  0  0  0  0  0  0  0  0  0  0  0
    3.7538    0.7971    1.7103 H   0  0  0  0  0  0  0  0  0  0  0  0
    0.2850    4.0728    4.4216 H   0  0  0  0  0  0  0  0  0  0  0  0
    5.8670    1.2830    4.8786 H   0  0  0  0  0  0  0  0  0  0  0  0
    1.9423    5.2426    3.1403 H   0  0  0  0  0  0  0  0  0  0  0  0
    0.6278    5.1651    2.0299 H   0  0  0  0  0  0  0  0  0  0  0  0
   -1.2587    3.8687    2.4794 H   0  0  0  0  0  0  0  0  0  0  0  0
    5.7274    4.8258   -0.0897 H   0  0  0  0  0  0  0  0  0  0  0  0
    4.0679    4.4317   -0.5186 H   0  0  0  0  0  0  0  0  0  0  0  0
    5.3370    3.2393   -0.7990 H   0  0  0  0  0  0  0  0  0  0  0  0
    7.5905    3.2033    0.7433 H   0  0  0  0  0  0  0  0  0  0  0  0
    8.2347    1.1749    4.3760 H   0  0  0  0  0  0  0  0  0  0  0  0
    3.0075    1.8052   -0.1170 H   0  0  0  0  0  0  0  0  0  0  0  0
    1.4941    2.2119   -0.8208 H   0  0  0  0  0  0  0  0  0  0  0  0
   -0.5041    1.4600    1.1555 H   0  0  0  0  0  0  0  0  0  0  0  0
   -1.0313    1.1085    3.7392 H   0  0  0  0  0  0  0  0  0  0  0  0
   -2.3661    1.7213    2.7706 H   0  0  0  0  0  0  0  0  0  0  0  0
    9.0967    2.1412    2.3220 H   0  0  0  0  0  0  0  0  0  0  0  0
    1.9921   -0.4423    0.6221 H   0  0  0  0  0  0  0  0  0  0  0  0
    0.5615   -0.0050   -0.3030 H   0  0  0  0  0  0  0  0  0  0  0  0
   -1.4671    3.2077    0.2803 H   0  0  0  0  0  0  0  0  0  0  0  0
   -2.9765    1.8682    5.1122 H   0  0  0  0  0  0  0  0  0  0  0  0
   -2.7842    3.5165    4.4962 H   0  0  0  0  0  0  0  0  0  0  0  0
   -1.5197    2.7853    5.5088 H   0  0  0  0  0  0  0  0  0  0  0  0
    1.9529    0.1050   -2.3801 H   0  0  0  0  0  0  0  0  0  0  0  0
    2.0799   -1.4772   -1.5872 H   0  0  0  0  0  0  0  0  0  0  0  0
    3.3987   -0.3059   -1.4306 H   0  0  0  0  0  0  0  0  0  0  0  0
  2  1  1  0  0  0  0 
  3  2  1  0  0  0  0 
  4  2  1  0  0  0  0 
  5  3  1  0  0  0  0 
  3  6  1  0  0  0  0 
  3  7  1  0  0  0  0 
  8  4  1  0  0  0  0 
 10  5  1  0  0  0  0 
  5 11  1  0  0  0  0 
  5 28  1  0  0  0  0 
  6 12  2  0  0  0  0 
  6 13  1  0  0  0  0 
  8  7  1  0  0  0  0 
 14  8  1  0  0  0  0 
  8 30  1  0  0  0  0 
  9 15  1  0  0  0  0 
 16  9  1  0  0  0  0 
 14 10  1  0  0  0  0 
 10 15  1  0  0  0  0 
 10 29  1  0  0  0  0 
 11 12  1  0  0  0  0 
 11 17  1  0  0  0  0 
 12 18  1  0  0  0  0 
 13 19  2  0  0  0  0 
 14 20  1  0  0  0  0 
 14 21  1  0  0  0  0 
 21 16  1  0  0  0  0 
 16 22  1  0  0  0  0 
 18 23  2  0  0  0  0 
 19 23  1  0  0  0  0 
 20 24  1  0  0  0  0 
 21 25  1  0  0  0  0 
 22 26  1  0  0  0  0 
 24 27  1  0  0  0  0 
  9  4  1  0  0  0  0 
  1 31  1  0  0  0  0 
  2 32  1  0  0  0  0 
  4 33  1  0  0  0  0 
  7 34  1  0  0  0  0 
  7 35  1  0  0  0  0 
  9 36  1  0  0  0  0 
 13 37  1  0  0  0  0 
 15 38  1  0  0  0  0 
 15 39  1  0  0  0  0 
 16 40  1  0  0  0  0 
 17 41  1  0  0  0  0 
 17 42  1  0  0  0  0 
 17 43  1  0  0  0  0 
 18 44  1  0  0  0  0 
 19 45  1  0  0  0  0 
 20 46  1  0  0  0  0 
 20 47  1  0  0  0  0 
 21 48  1  0  0  0  0 
 22 49  1  0  0  0  0 
 22 50  1  0  0  0  0 
 23 51  1  0  0  0  0 
 24 52  1  0  0  0  0 
 24 53  1  0  0  0  0 
 25 54  1  0  0  0  0 
 26 55  1  0  0  0  0 
 26 56  1  0  0  0  0 
 26 57  1  0  0  0  0 
 27 58  1  0  0  0  0 
 27 59  1  0  0  0  0 
 27 60  1  0  0  0  0 
M  CHG  1  14   1
M  END
> <cdk:Title>
prajmalium

> <Conformer>
1

> <SuperDrugID>
SD001999

$$$$
