alizapride
  CDK     0628171801

 44 46  0  0  0  0  0  0  0  0999 V2000
    1.2485   -1.1992    0.2693 C   0  0  0  0  0  0  0  0  0  0  0  0
   -0.0384   -0.5603    0.1648 O   0  0  0  0  0  0  0  0  0  0  0  0
   -0.2454    0.3786    1.1442 C   0  0  0  0  0  0  0  0  0  0  0  0
    0.1945    1.6969    0.8743 C   0  0  0  0  0  0  0  0  0  0  0  0
    0.0521    2.6695    1.8718 C   0  0  0  0  0  0  0  0  0  0  0  0
   -0.5415    2.3645    3.0798 C   0  0  0  0  0  0  0  0  0  0  0  0
   -1.0226    1.0800    3.3642 C   0  0  0  0  0  0  0  0  0  0  0  0
   -0.8733    0.0545    2.3903 C   0  0  0  0  0  0  0  0  0  0  0  0
   -1.3431   -1.2610    2.6663 C   0  0  0  0  0  0  0  0  0  0  0  0
   -1.6535   -2.0230    1.7187 O   0  0  0  0  0  0  0  0  0  0  0  0
   -1.4503   -1.7241    3.9478 N   0  0  0  0  0  0  0  0  0  0  0  0
   -1.8125   -3.0570    4.3184 C   0  0  1  0  0  0  0  0  0  0  0  0
   -0.6765   -4.0874    4.0331 C   0  0  2  0  0  0  0  0  0  0  0  0
   -1.2029   -5.5389    4.0133 C   0  0  2  0  0  0  0  0  0  0  0  0
    0.0580   -6.3982    4.1830 C   0  0  2  0  0  0  0  0  0  0  0  0
    1.0639   -5.4648    4.8839 C   0  0  2  0  0  0  0  0  0  0  0  0
    0.3817   -4.1572    5.0811 N   0  0  1  0  0  0  0  0  0  0  0  0
    1.2977   -2.9823    5.2180 C   0  0  2  0  0  0  0  0  0  0  0  0
    2.1375   -3.0806    6.4026 C   0  0  0  0  0  0  0  0  0  0  0  0
    3.4621   -3.2804    6.3757 C   0  0  0  0  0  0  0  0  0  0  0  0
   -0.5186    3.4941    3.7888 N   0  0  0  0  0  0  0  0  0  0  0  0
    0.0467    4.4218    3.0777 N   0  0  0  0  0  0  0  0  0  0  0  0
    0.4025    3.9614    1.9126 N   0  0  0  0  0  0  0  0  0  0  0  0
    1.3706   -1.7104    1.2287 H   0  0  0  0  0  0  0  0  0  0  0  0
    1.3243   -1.9435   -0.5230 H   0  0  0  0  0  0  0  0  0  0  0  0
    2.0605   -0.4799    0.1354 H   0  0  0  0  0  0  0  0  0  0  0  0
    0.6218    1.9361   -0.0230 H   0  0  0  0  0  0  0  0  0  0  0  0
   -1.4720    0.9108    4.2658 H   0  0  0  0  0  0  0  0  0  0  0  0
   -1.2273   -1.1154    4.6696 H   0  0  0  0  0  0  0  0  0  0  0  0
   -2.0379   -3.0628    5.3864 H   0  0  0  0  0  0  0  0  0  0  0  0
   -2.7280   -3.3339    3.7875 H   0  0  0  0  0  0  0  0  0  0  0  0
   -0.2284   -3.8773    3.0538 H   0  0  0  0  0  0  0  0  0  0  0  0
   -1.7262   -5.7692    3.0811 H   0  0  0  0  0  0  0  0  0  0  0  0
   -1.8786   -5.7113    4.8568 H   0  0  0  0  0  0  0  0  0  0  0  0
    0.4424   -6.7031    3.2050 H   0  0  0  0  0  0  0  0  0  0  0  0
   -0.1513   -7.2914    4.7772 H   0  0  0  0  0  0  0  0  0  0  0  0
    1.9575   -5.3593    4.2600 H   0  0  0  0  0  0  0  0  0  0  0  0
    1.3544   -5.8733    5.8544 H   0  0  0  0  0  0  0  0  0  0  0  0
    0.7081   -2.0748    5.3463 H   0  0  0  0  0  0  0  0  0  0  0  0
    1.8887   -2.8568    4.3052 H   0  0  0  0  0  0  0  0  0  0  0  0
    1.6984   -2.9831    7.2900 H   0  0  0  0  0  0  0  0  0  0  0  0
    3.9524   -3.3921    5.5207 H   0  0  0  0  0  0  0  0  0  0  0  0
    3.9780   -3.3180    7.2236 H   0  0  0  0  0  0  0  0  0  0  0  0
   -0.8647    3.6028    4.6889 H   0  0  0  0  0  0  0  0  0  0  0  0
  1  2  1  0  0  0  0 
  2  3  1  0  0  0  0 
  3  4  1  0  0  0  0 
  4  5  2  0  0  0  0 
  5  6  1  0  0  0  0 
  6  7  2  0  0  0  0 
  7  8  1  0  0  0  0 
  3  8  2  0  0  0  0 
  8  9  1  0  0  0  0 
  9 10  2  0  0  0  0 
  9 11  1  0  0  0  0 
 11 12  1  0  0  0  0 
 13 12  1  0  0  0  0 
 13 14  1  0  0  0  0 
 14 15  1  0  0  0  0 
 15 16  1  0  0  0  0 
 16 17  1  0  0  0  0 
 13 17  1  0  0  0  0 
 17 18  1  0  0  0  0 
 18 19  1  0  0  0  0 
 19 20  2  0  0  0  0 
  6 21  1  0  0  0  0 
 21 22  1  0  0  0  0 
 22 23  2  0  0  0  0 
  5 23  1  0  0  0  0 
 24  1  1  0  0  0  0 
 25  1  1  0  0  0  0 
 26  1  1  0  0  0  0 
 27  4  1  0  0  0  0 
 28  7  1  0  0  0  0 
 29 11  1  0  0  0  0 
 30 12  1  0  0  0  0 
 31 12  1  0  0  0  0 
 32 13  1  0  0  0  0 
 33 14  1  0  0  0  0 
 34 14  1  0  0  0  0 
 35 15  1  0  0  0  0 
 36 15  1  0  0  0  0 
 37 16  1  0  0  0  0 
 38 16  1  0  0  0  0 
 39 18  1  0  0  0  0 
 40 18  1  0  0  0  0 
 41 19  1  0  0  0  0 
 42 20  1  0  0  0  0 
 43 20  1  0  0  0  0 
 44 21  1  0  0  0  0 
M  END
> <cdk:Title>
alizapride

> <Conformer>
1

> <SuperDrugID>
SD000090

$$$$
