benziodarone
  CDK     0628171801

 34 36  0  0  0  0  0  0  0  0999 V2000
    0.1362    0.2735    0.2984 C   0  0  0  0  0  0  0  0  0  0  0  0
   -0.9227    0.2000   -0.3710 O   0  0  0  0  0  0  0  0  0  0  0  0
    0.0175   -0.0609    1.6696 C   0  0  0  0  0  0  0  0  0  0  0  0
    1.3553    0.6898   -0.3282 C   0  0  0  0  0  0  0  0  0  0  0  0
    0.7310   -1.0380    2.3636 C   0  0  0  0  0  0  0  0  0  0  0  0
   -0.8463    0.5153    2.6152 C   0  0  0  0  0  0  0  0  0  0  0  0
    1.4501    0.7845   -1.7418 C   0  0  0  0  0  0  0  0  0  0  0  0
    2.5036    1.0452    0.4244 C   0  0  0  0  0  0  0  0  0  0  0  0
    0.2937   -1.0077    3.6869 C   0  0  0  0  0  0  0  0  0  0  0  0
    1.7167   -1.9549    1.9529 C   0  0  0  0  0  0  0  0  0  0  0  0
   -1.8188    1.6091    2.4088 C   0  0  2  0  0  0  0  0  0  0  0  0
   -0.6647   -0.0679    3.8290 O   0  0  0  0  0  0  0  0  0  0  0  0
    2.6435    1.1862   -2.3707 C   0  0  0  0  0  0  0  0  0  0  0  0
    3.7022    1.4418   -0.1954 C   0  0  0  0  0  0  0  0  0  0  0  0
    0.8378   -1.8674    4.6555 C   0  0  0  0  0  0  0  0  0  0  0  0
    2.2791   -2.8180    2.9179 C   0  0  0  0  0  0  0  0  0  0  0  0
   -3.2736    1.1046    2.5098 C   0  0  0  0  0  0  0  0  0  0  0  0
    2.7091    1.3009   -4.4221 I   0  0  0  0  0  0  0  0  0  0  0  0
    3.7780    1.5065   -1.6018 C   0  0  0  0  0  0  0  0  0  0  0  0
    5.3119    1.9298    0.9873 I   0  0  0  0  0  0  0  0  0  0  0  0
    1.8456   -2.7719    4.2627 C   0  0  0  0  0  0  0  0  0  0  0  0
    4.9171    1.8811   -2.2386 O   0  0  0  0  0  0  0  0  0  0  0  0
    0.6471    0.5634   -2.3363 H   0  0  0  0  0  0  0  0  0  0  0  0
    2.4837    1.0261    1.4453 H   0  0  0  0  0  0  0  0  0  0  0  0
    2.0221   -1.9982    0.9786 H   0  0  0  0  0  0  0  0  0  0  0  0
   -1.6751    2.0790    1.4332 H   0  0  0  0  0  0  0  0  0  0  0  0
   -1.6483    2.3713    3.1717 H   0  0  0  0  0  0  0  0  0  0  0  0
    0.5114   -1.8342    5.6229 H   0  0  0  0  0  0  0  0  0  0  0  0
    3.0030   -3.4834    2.6401 H   0  0  0  0  0  0  0  0  0  0  0  0
   -3.9609    1.9408    2.3667 H   0  0  0  0  0  0  0  0  0  0  0  0
   -3.4646    0.6607    3.4904 H   0  0  0  0  0  0  0  0  0  0  0  0
   -3.4673    0.3589    1.7357 H   0  0  0  0  0  0  0  0  0  0  0  0
    2.2635   -3.4008    4.9530 H   0  0  0  0  0  0  0  0  0  0  0  0
    5.6159    1.9171   -1.5551 H   0  0  0  0  0  0  0  0  0  0  0  0
  1  2  2  0  0  0  0 
  1  3  1  0  0  0  0 
  1  4  1  0  0  0  0 
  3  5  1  0  0  0  0 
  3  6  2  0  0  0  0 
  4  7  2  0  0  0  0 
  4  8  1  0  0  0  0 
  5  9  1  0  0  0  0 
  5 10  2  0  0  0  0 
  6 11  1  0  0  0  0 
  6 12  1  0  0  0  0 
  7 13  1  0  0  0  0 
  8 14  2  0  0  0  0 
  9 12  1  0  0  0  0 
  9 15  2  0  0  0  0 
 10 16  1  0  0  0  0 
 11 17  1  0  0  0  0 
 13 18  1  0  0  0  0 
 13 19  2  0  0  0  0 
 14 19  1  0  0  0  0 
 14 20  1  0  0  0  0 
 15 21  1  0  0  0  0 
 16 21  2  0  0  0  0 
 19 22  1  0  0  0  0 
 23  7  1  0  0  0  0 
 24  8  1  0  0  0  0 
 25 10  1  0  0  0  0 
 26 11  1  0  0  0  0 
 27 11  1  0  0  0  0 
 28 15  1  0  0  0  0 
 29 16  1  0  0  0  0 
 30 17  1  0  0  0  0 
 31 17  1  0  0  0  0 
 32 17  1  0  0  0  0 
 33 21  1  0  0  0  0 
 34 22  1  0  0  0  0 
M  END
> <cdk:Title>
benziodarone

> <Conformer>
1

> <SuperDrugID>
SD000270

$$$$
