cefditoren pivoxil
  CDK     0628171802

 69 72  0  0  0  0  0  0  0  0999 V2000
   -4.8054    2.5169    1.3971 C   0  0  1  0  0  0  0  0  0  0  0  0
   -5.5729    4.1593    1.6026 S   0  0  0  0  0  0  0  0  0  0  0  0
   -4.1339    5.2267    1.9699 C   0  0  1  0  0  0  0  0  0  0  0  0
   -2.9252    4.8673    1.1924 C   0  0  0  0  0  0  0  0  0  0  0  0
   -2.5744    3.5694    0.9563 C   0  0  0  0  0  0  0  0  0  0  0  0
   -3.3933    2.6478    1.4719 N   0  0  0  0  0  0  0  0  0  0  0  0
   -3.2380    1.7434    2.4385 C   0  0  0  0  0  0  0  0  0  0  0  0
   -4.6726    1.5291    2.6015 C   0  0  1  0  0  0  0  0  0  0  0  0
   -2.1581    5.9182    0.7861 C   0  0  0  0  0  0  0  0  0  0  0  0
   -1.4622    3.0952    0.2426 C   0  0  0  0  0  0  0  0  0  0  0  0
   -2.2397    1.3351    3.0737 O   0  0  0  0  0  0  0  0  0  0  0  0
   -5.1353    2.0254    0.4763 H   0  0  0  0  0  0  0  0  0  0  0  0
   -4.9653    0.4981    2.3733 H   0  0  0  0  0  0  0  0  0  0  0  0
   -5.0739    2.0338    3.8726 N   0  0  0  0  0  0  0  0  0  0  0  0
   -5.8884    1.4232    4.7727 C   0  0  0  0  0  0  0  0  0  0  0  0
   -6.0770    2.0090    6.0250 C   0  0  0  0  0  0  0  0  0  0  0  0
   -5.0241    2.6697    6.6628 C   0  0  0  0  0  0  0  0  0  0  0  0
   -6.4617    0.3452    4.4879 O   0  0  0  0  0  0  0  0  0  0  0  0
   -3.7237    2.2970    6.4542 N   0  0  0  0  0  0  0  0  0  0  0  0
   -2.7527    2.9661    7.1087 C   0  0  0  0  0  0  0  0  0  0  0  0
   -3.5565    4.1815    8.0806 S   0  0  0  0  0  0  0  0  0  0  0  0
   -5.1730    3.7410    7.5627 C   0  0  0  0  0  0  0  0  0  0  0  0
   -1.4340    2.7392    7.0307 N   0  0  0  0  0  0  0  0  0  0  0  0
   -7.1988    1.9456    6.6546 N   0  0  0  0  0  0  0  0  0  0  0  0
   -8.2794    1.3873    6.2570 O   0  0  0  0  0  0  0  0  0  0  0  0
   -9.1828    1.2182    7.3570 C   0  0  0  0  0  0  0  0  0  0  0  0
   -0.6754    3.8523   -0.3726 O   0  0  0  0  0  0  0  0  0  0  0  0
   -1.2203    1.7482    0.2081 O   0  0  0  0  0  0  0  0  0  0  0  0
   -0.2195    1.0209   -0.5139 C   0  0  1  0  0  0  0  0  0  0  0  0
    0.8187    0.6176    0.3838 O   0  0  0  0  0  0  0  0  0  0  0  0
    1.8650    1.3781    0.8290 C   0  0  0  0  0  0  0  0  0  0  0  0
    2.0522    2.5170    0.3356 O   0  0  0  0  0  0  0  0  0  0  0  0
    2.8035    0.8607    1.8749 C   0  0  1  0  0  0  0  0  0  0  0  0
    4.2442    0.7568    1.2821 C   0  0  0  0  0  0  0  0  0  0  0  0
    2.8003    1.8538    3.0806 C   0  0  0  0  0  0  0  0  0  0  0  0
    2.3720   -0.5526    2.3903 C   0  0  0  0  0  0  0  0  0  0  0  0
   -0.9940    6.3124    1.3358 C   0  0  0  0  0  0  0  0  0  0  0  0
   -0.3556    5.7661    2.4396 C   0  0  0  0  0  0  0  0  0  0  0  0
   -1.0811    5.2078    3.9387 S   0  0  0  0  0  0  0  0  0  0  0  0
    0.4366    4.8391    4.7303 C   0  0  0  0  0  0  0  0  0  0  0  0
    1.4154    5.1062    3.8433 N   0  0  0  0  0  0  0  0  0  0  0  0
    1.0312    5.5892    2.6267 C   0  0  0  0  0  0  0  0  0  0  0  0
    2.0385    5.8852    1.5897 C   0  0  0  0  0  0  0  0  0  0  0  0
   -4.4879    6.2729    1.6969 H   0  0  0  0  0  0  0  0  0  0  0  0
   -3.8939    5.0285    3.0602 H   0  0  0  0  0  0  0  0  0  0  0  0
   -2.4867    6.4280   -0.0034 H   0  0  0  0  0  0  0  0  0  0  0  0
   -4.7076    2.8927    4.1322 H   0  0  0  0  0  0  0  0  0  0  0  0
   -6.0402    4.1910    7.8553 H   0  0  0  0  0  0  0  0  0  0  0  0
   -1.0920    2.0442    6.4459 H   0  0  0  0  0  0  0  0  0  0  0  0
   -0.8162    3.2700    7.5582 H   0  0  0  0  0  0  0  0  0  0  0  0
  -10.0888    0.7365    6.9900 H   0  0  0  0  0  0  0  0  0  0  0  0
   -8.7513    0.5771    8.1302 H   0  0  0  0  0  0  0  0  0  0  0  0
   -9.4646    2.1801    7.7919 H   0  0  0  0  0  0  0  0  0  0  0  0
   -0.6918    0.1203   -0.9058 H   0  0  0  0  0  0  0  0  0  0  0  0
    0.1810    1.5857   -1.3591 H   0  0  0  0  0  0  0  0  0  0  0  0
    4.2526    0.1011    0.4082 H   0  0  0  0  0  0  0  0  0  0  0  0
    4.6143    1.7382    0.9767 H   0  0  0  0  0  0  0  0  0  0  0  0
    4.9396    0.3504    2.0210 H   0  0  0  0  0  0  0  0  0  0  0  0
    3.1580    2.8396    2.7756 H   0  0  0  0  0  0  0  0  0  0  0  0
    3.4501    1.4983    3.8828 H   0  0  0  0  0  0  0  0  0  0  0  0
    1.7914    1.9687    3.4828 H   0  0  0  0  0  0  0  0  0  0  0  0
    3.0429   -0.9039    3.1778 H   0  0  0  0  0  0  0  0  0  0  0  0
    2.3941   -1.2830    1.5783 H   0  0  0  0  0  0  0  0  0  0  0  0
    1.3589   -0.5236    2.7986 H   0  0  0  0  0  0  0  0  0  0  0  0
   -0.5235    7.0639    0.8851 H   0  0  0  0  0  0  0  0  0  0  0  0
    0.5609    4.4920    5.6831 H   0  0  0  0  0  0  0  0  0  0  0  0
    2.0103    6.9435    1.3267 H   0  0  0  0  0  0  0  0  0  0  0  0
    3.0439    5.6419    1.9353 H   0  0  0  0  0  0  0  0  0  0  0  0
    1.8339    5.2966    0.6951 H   0  0  0  0  0  0  0  0  0  0  0  0
  1  2  1  0  0  0  0 
  2  3  1  0  0  0  0 
  3  4  1  0  0  0  0 
  4  5  2  0  0  0  0 
  5  6  1  0  0  0  0 
  1  6  1  0  0  0  0 
  6  7  1  0  0  0  0 
  7  8  1  0  0  0  0 
  1  8  1  0  0  0  0 
  4  9  1  0  0  0  0 
  5 10  1  0  0  0  0 
  7 11  2  0  0  0  0 
  1 12  1  0  0  0  0 
  8 13  1  0  0  0  0 
  8 14  1  0  0  0  0 
 14 15  1  0  0  0  0 
 15 16  1  0  0  0  0 
 16 17  1  0  0  0  0 
 15 18  2  0  0  0  0 
 17 19  1  0  0  0  0 
 19 20  2  0  0  0  0 
 20 21  1  0  0  0  0 
 21 22  1  0  0  0  0 
 17 22  2  0  0  0  0 
 20 23  1  0  0  0  0 
 16 24  2  0  0  0  0 
 24 25  1  0  0  0  0 
 25 26  1  0  0  0  0 
 10 27  2  0  0  0  0 
 10 28  1  0  0  0  0 
 28 29  1  0  0  0  0 
 29 30  1  0  0  0  0 
 30 31  1  0  0  0  0 
 31 32  2  0  0  0  0 
 31 33  1  0  0  0  0 
 33 34  1  0  0  0  0 
 33 35  1  0  0  0  0 
 33 36  1  0  0  0  0 
  9 37  2  0  0  0  0 
 37 38  1  0  0  0  0 
 38 39  1  0  0  0  0 
 39 40  1  0  0  0  0 
 40 41  2  0  0  0  0 
 41 42  1  0  0  0  0 
 38 42  2  0  0  0  0 
 42 43  1  0  0  0  0 
  3 44  1  0  0  0  0 
  3 45  1  0  0  0  0 
  9 46  1  0  0  0  0 
 14 47  1  0  0  0  0 
 22 48  1  0  0  0  0 
 23 49  1  0  0  0  0 
 23 50  1  0  0  0  0 
 26 51  1  0  0  0  0 
 26 52  1  0  0  0  0 
 26 53  1  0  0  0  0 
 29 54  1  0  0  0  0 
 29 55  1  0  0  0  0 
 34 56  1  0  0  0  0 
 34 57  1  0  0  0  0 
 34 58  1  0  0  0  0 
 35 59  1  0  0  0  0 
 35 60  1  0  0  0  0 
 35 61  1  0  0  0  0 
 36 62  1  0  0  0  0 
 36 63  1  0  0  0  0 
 36 64  1  0  0  0  0 
 37 65  1  0  0  0  0 
 40 66  1  0  0  0  0 
 43 67  1  0  0  0  0 
 43 68  1  0  0  0  0 
 43 69  1  0  0  0  0 
M  END
> <cdk:Title>
cefditoren pivoxil

> <Conformer>
1

> <SuperDrugID>
SD000462

$$$$
