butropium
  CDK     0628171801

 71 74  0  0  0  0  0  0  0  0999 V2000
    5.7042   -1.7596    2.2524 C   0  0  1  0  0  0  0  0  0  0  0  0
    4.2889   -1.2562    1.8899 N   0  0  1  0  0  0  0  0  0  0  0  0
    5.9466   -2.1265    3.6847 C   0  0  0  0  0  0  0  0  0  0  0  0
    4.0827    0.0146    2.6992 C   0  0  0  0  0  0  0  0  0  0  0  0
    4.1398   -1.0431    0.3917 C   0  0  2  0  0  0  0  0  0  0  0  0
    3.1852   -2.2903    2.0501 C   0  0  1  0  0  0  0  0  0  0  0  0
    6.5056   -1.2006    4.6003 C   0  0  0  0  0  0  0  0  0  0  0  0
    5.6059   -3.4141    4.1619 C   0  0  0  0  0  0  0  0  0  0  0  0
    2.8267   -0.2763   -0.0228 C   0  0  1  0  0  0  0  0  0  0  0  0
    4.0981   -2.4848   -0.2092 C   0  0  2  0  0  0  0  0  0  0  0  0
    1.7377   -1.6892    1.8951 C   0  0  2  0  0  0  0  0  0  0  0  0
    3.4408   -3.3275    0.9105 C   0  0  1  0  0  0  0  0  0  0  0  0
    6.6273   -1.5228    5.9652 C   0  0  0  0  0  0  0  0  0  0  0  0
    5.7207   -3.7356    5.5242 C   0  0  0  0  0  0  0  0  0  0  0  0
    1.5386   -0.9836    0.5158 C   0  0  1  0  0  0  0  0  0  0  0  0
    6.1912   -2.7758    6.4396 C   0  0  0  0  0  0  0  0  0  0  0  0
    0.3767   -0.1462    0.5744 O   0  0  0  0  0  0  0  0  0  0  0  0
    6.2079   -3.0572    7.7787 O   0  0  0  0  0  0  0  0  0  0  0  0
   -0.1600    0.5125   -0.4923 C   0  0  0  0  0  0  0  0  0  0  0  0
    4.9255   -2.8005    8.3996 C   0  0  1  0  0  0  0  0  0  0  0  0
   -1.5154    0.1418   -0.9604 C   0  0  2  0  0  0  0  0  0  0  0  0
    0.4968    1.3960   -1.0896 O   0  0  0  0  0  0  0  0  0  0  0  0
    4.9843   -3.1119    9.9126 C   0  0  1  0  0  0  0  0  0  0  0  0
   -2.6009    0.4448    0.1118 C   0  0  1  0  0  0  0  0  0  0  0  0
   -1.4244   -1.2731   -1.4536 C   0  0  0  0  0  0  0  0  0  0  0  0
    5.2377   -4.6123   10.2229 C   0  0  1  0  0  0  0  0  0  0  0  0
   -3.8929    0.0712   -0.3577 O   0  0  0  0  0  0  0  0  0  0  0  0
   -1.0384   -1.5193   -2.7964 C   0  0  0  0  0  0  0  0  0  0  0  0
   -1.6205   -2.3934   -0.6050 C   0  0  0  0  0  0  0  0  0  0  0  0
    5.2629   -4.9103   11.7393 C   0  0  0  0  0  0  0  0  0  0  0  0
   -0.8325   -2.8281   -3.2691 C   0  0  0  0  0  0  0  0  0  0  0  0
   -1.4335   -3.7041   -1.0805 C   0  0  0  0  0  0  0  0  0  0  0  0
   -1.0324   -3.9219   -2.4098 C   0  0  0  0  0  0  0  0  0  0  0  0
    6.0032   -2.6309    1.6678 H   0  0  0  0  0  0  0  0  0  0  0  0
    6.4377   -0.9974    1.9626 H   0  0  0  0  0  0  0  0  0  0  0  0
    4.8827    0.7337    2.5049 H   0  0  0  0  0  0  0  0  0  0  0  0
    3.1540    0.5398    2.4982 H   0  0  0  0  0  0  0  0  0  0  0  0
    4.0555   -0.2006    3.7680 H   0  0  0  0  0  0  0  0  0  0  0  0
    4.9913   -0.4905   -0.0179 H   0  0  0  0  0  0  0  0  0  0  0  0
    3.2212   -2.7841    3.0233 H   0  0  0  0  0  0  0  0  0  0  0  0
    6.8098   -0.2753    4.2844 H   0  0  0  0  0  0  0  0  0  0  0  0
    5.2571   -4.1289    3.5210 H   0  0  0  0  0  0  0  0  0  0  0  0
    2.8625    0.7608    0.3161 H   0  0  0  0  0  0  0  0  0  0  0  0
    2.7701   -0.2242   -1.1145 H   0  0  0  0  0  0  0  0  0  0  0  0
    5.1066   -2.8452   -0.4296 H   0  0  0  0  0  0  0  0  0  0  0  0
    3.5248   -2.5442   -1.1390 H   0  0  0  0  0  0  0  0  0  0  0  0
    1.5286   -0.9942    2.7103 H   0  0  0  0  0  0  0  0  0  0  0  0
    0.9960   -2.4867    1.9995 H   0  0  0  0  0  0  0  0  0  0  0  0
    4.1101   -4.1271    1.2409 H   0  0  0  0  0  0  0  0  0  0  0  0
    2.5168   -3.7975    0.5591 H   0  0  0  0  0  0  0  0  0  0  0  0
    7.0176   -0.8377    6.6150 H   0  0  0  0  0  0  0  0  0  0  0  0
    5.4446   -4.6638    5.8512 H   0  0  0  0  0  0  0  0  0  0  0  0
    1.2901   -1.7731   -0.1998 H   0  0  0  0  0  0  0  0  0  0  0  0
    4.6509   -1.7457    8.2842 H   0  0  0  0  0  0  0  0  0  0  0  0
    4.1331   -3.4108    7.9493 H   0  0  0  0  0  0  0  0  0  0  0  0
   -1.7745    0.7858   -1.8095 H   0  0  0  0  0  0  0  0  0  0  0  0
    5.7739   -2.5053   10.3641 H   0  0  0  0  0  0  0  0  0  0  0  0
    4.0320   -2.8116   10.3599 H   0  0  0  0  0  0  0  0  0  0  0  0
   -2.4011   -0.0765    1.0500 H   0  0  0  0  0  0  0  0  0  0  0  0
   -2.6141    1.5172    0.3228 H   0  0  0  0  0  0  0  0  0  0  0  0
    4.4504   -5.2170    9.7629 H   0  0  0  0  0  0  0  0  0  0  0  0
    6.1964   -4.9172    9.7934 H   0  0  0  0  0  0  0  0  0  0  0  0
   -4.4927    0.2431    0.3976 H   0  0  0  0  0  0  0  0  0  0  0  0
   -0.8829   -0.7411   -3.4406 H   0  0  0  0  0  0  0  0  0  0  0  0
   -1.8835   -2.2686    0.3735 H   0  0  0  0  0  0  0  0  0  0  0  0
    6.0598   -4.3389   12.2216 H   0  0  0  0  0  0  0  0  0  0  0  0
    4.3055   -4.6469   12.1962 H   0  0  0  0  0  0  0  0  0  0  0  0
    5.4457   -5.9751   11.9038 H   0  0  0  0  0  0  0  0  0  0  0  0
   -0.5362   -2.9834   -4.2366 H   0  0  0  0  0  0  0  0  0  0  0  0
   -1.5907   -4.5009   -0.4599 H   0  0  0  0  0  0  0  0  0  0  0  0
   -0.8879   -4.8754   -2.7523 H   0  0  0  0  0  0  0  0  0  0  0  0
  1  2  1  0  0  0  0 
  1  3  1  0  0  0  0 
  2  4  1  0  0  0  0 
  3  7  2  0  0  0  0 
  3  8  1  0  0  0  0 
  5  2  1  0  0  0  0 
  5  9  1  0  0  0  0 
  5 10  1  0  0  0  0 
  6  2  1  0  0  0  0 
  6 11  1  0  0  0  0 
  6 12  1  0  0  0  0 
  7 13  1  0  0  0  0 
  8 14  2  0  0  0  0 
 15  9  1  0  0  0  0 
 10 12  1  0  0  0  0 
 15 11  1  0  0  0  0 
 13 16  2  0  0  0  0 
 14 16  1  0  0  0  0 
 15 17  1  0  0  0  0 
 16 18  1  0  0  0  0 
 17 19  1  0  0  0  0 
 18 20  1  0  0  0  0 
 21 19  1  0  0  0  0 
 19 22  2  0  0  0  0 
 20 23  1  0  0  0  0 
 21 24  1  0  0  0  0 
 21 25  1  0  0  0  0 
 23 26  1  0  0  0  0 
 24 27  1  0  0  0  0 
 25 28  2  0  0  0  0 
 25 29  1  0  0  0  0 
 26 30  1  0  0  0  0 
 28 31  1  0  0  0  0 
 29 32  2  0  0  0  0 
 31 33  2  0  0  0  0 
 32 33  1  0  0  0  0 
  1 34  1  0  0  0  0 
  1 35  1  0  0  0  0 
  4 36  1  0  0  0  0 
  4 37  1  0  0  0  0 
  4 38  1  0  0  0  0 
  5 39  1  0  0  0  0 
  6 40  1  0  0  0  0 
  7 41  1  0  0  0  0 
  8 42  1  0  0  0  0 
  9 43  1  0  0  0  0 
  9 44  1  0  0  0  0 
 10 45  1  0  0  0  0 
 10 46  1  0  0  0  0 
 11 47  1  0  0  0  0 
 11 48  1  0  0  0  0 
 12 49  1  0  0  0  0 
 12 50  1  0  0  0  0 
 13 51  1  0  0  0  0 
 14 52  1  0  0  0  0 
 15 53  1  0  0  0  0 
 20 54  1  0  0  0  0 
 20 55  1  0  0  0  0 
 21 56  1  0  0  0  0 
 23 57  1  0  0  0  0 
 23 58  1  0  0  0  0 
 24 59  1  0  0  0  0 
 24 60  1  0  0  0  0 
 26 61  1  0  0  0  0 
 26 62  1  0  0  0  0 
 27 63  1  0  0  0  0 
 28 64  1  0  0  0  0 
 29 65  1  0  0  0  0 
 30 66  1  0  0  0  0 
 30 67  1  0  0  0  0 
 30 68  1  0  0  0  0 
 31 69  1  0  0  0  0 
 32 70  1  0  0  0  0 
 33 71  1  0  0  0  0 
M  CHG  1   2   1
M  END
> <cdk:Title>
butropium

> <Conformer>
1

> <SuperDrugID>
SD000397

$$$$
