meprotixol
  CDK     0628171802

 46 48  0  0  0  0  0  0  0  0999 V2000
   -3.1025    1.5721   -2.5479 C   0  0  2  0  0  0  0  0  0  0  0  0
   -3.0578    1.3636   -1.0057 C   0  0  2  0  0  0  0  0  0  0  0  0
   -2.3967    2.8836   -3.0509 C   0  0  2  0  0  0  0  0  0  0  0  0
   -3.6632    0.0008   -0.5719 C   0  0  2  0  0  0  0  0  0  0  0  0
   -0.9101    2.7868   -2.7925 C   0  0  0  0  0  0  0  0  0  0  0  0
   -3.1508    4.0914   -2.5395 C   0  0  0  0  0  0  0  0  0  0  0  0
   -3.8085   -0.1643    0.9122 N   0  0  2  0  0  0  0  0  0  0  0  0
   -0.2152    3.6015   -1.8629 C   0  0  0  0  0  0  0  0  0  0  0  0
   -0.1495    1.8041   -3.4833 C   0  0  0  0  0  0  0  0  0  0  0  0
   -2.6323    4.9965   -1.5775 C   0  0  0  0  0  0  0  0  0  0  0  0
   -4.4662    4.3409   -3.0201 C   0  0  0  0  0  0  0  0  0  0  0  0
   -2.5089   -0.2513    1.6427 C   0  0  0  0  0  0  0  0  0  0  0  0
   -4.7064   -1.3032    1.2625 C   0  0  0  0  0  0  0  0  0  0  0  0
   -1.0314    4.8087   -0.8913 S   0  0  0  0  0  0  0  0  0  0  0  0
    1.1721    3.4434   -1.6507 C   0  0  0  0  0  0  0  0  0  0  0  0
    1.2241    1.6099   -3.2428 C   0  0  0  0  0  0  0  0  0  0  0  0
   -3.3955    6.0946   -1.1230 C   0  0  0  0  0  0  0  0  0  0  0  0
   -5.2272    5.4351   -2.5741 C   0  0  0  0  0  0  0  0  0  0  0  0
    1.8910    2.4537   -2.3383 C   0  0  0  0  0  0  0  0  0  0  0  0
    1.9098    0.6154   -3.8862 O   0  0  0  0  0  0  0  0  0  0  0  0
   -4.6888    6.3151   -1.6245 C   0  0  0  0  0  0  0  0  0  0  0  0
    1.7858   -0.6580   -3.2247 C   0  0  0  0  0  0  0  0  0  0  0  0
   -2.5226    2.9348   -4.4803 O   0  0  0  0  0  0  0  0  0  0  0  0
   -4.1503    1.5688   -2.8628 H   0  0  0  0  0  0  0  0  0  0  0  0
   -2.6508    0.6993   -3.0284 H   0  0  0  0  0  0  0  0  0  0  0  0
   -3.6140    2.1679   -0.5197 H   0  0  0  0  0  0  0  0  0  0  0  0
   -2.0205    1.4159   -0.6719 H   0  0  0  0  0  0  0  0  0  0  0  0
   -3.0508   -0.8087   -0.9791 H   0  0  0  0  0  0  0  0  0  0  0  0
   -4.6515   -0.0715   -1.0365 H   0  0  0  0  0  0  0  0  0  0  0  0
   -0.6007    1.1989   -4.1719 H   0  0  0  0  0  0  0  0  0  0  0  0
   -4.8871    3.7179   -3.7113 H   0  0  0  0  0  0  0  0  0  0  0  0
   -1.8929   -1.0668    1.2557 H   0  0  0  0  0  0  0  0  0  0  0  0
   -1.9547    0.6819    1.5437 H   0  0  0  0  0  0  0  0  0  0  0  0
   -2.6681   -0.4082    2.7128 H   0  0  0  0  0  0  0  0  0  0  0  0
   -4.8555   -1.3621    2.3427 H   0  0  0  0  0  0  0  0  0  0  0  0
   -5.6913   -1.1640    0.8134 H   0  0  0  0  0  0  0  0  0  0  0  0
   -4.2925   -2.2522    0.9143 H   0  0  0  0  0  0  0  0  0  0  0  0
    1.6691    4.0388   -0.9819 H   0  0  0  0  0  0  0  0  0  0  0  0
   -3.0196    6.7418   -0.4217 H   0  0  0  0  0  0  0  0  0  0  0  0
   -6.1714    5.5843   -2.9368 H   0  0  0  0  0  0  0  0  0  0  0  0
    2.8942    2.3377   -2.1726 H   0  0  0  0  0  0  0  0  0  0  0  0
   -5.2397    7.1143   -1.3009 H   0  0  0  0  0  0  0  0  0  0  0  0
    2.3579   -1.3880   -3.7947 H   0  0  0  0  0  0  0  0  0  0  0  0
    2.1891   -0.6240   -2.2088 H   0  0  0  0  0  0  0  0  0  0  0  0
    0.7465   -0.9955   -3.1916 H   0  0  0  0  0  0  0  0  0  0  0  0
   -2.0639    3.7588   -4.7485 H   0  0  0  0  0  0  0  0  0  0  0  0
  1  2  1  0  0  0  0 
  3  1  1  0  0  0  0 
  2  4  1  0  0  0  0 
  3  5  1  0  0  0  0 
  3  6  1  0  0  0  0 
  4  7  1  0  0  0  0 
  5  8  2  0  0  0  0 
  5  9  1  0  0  0  0 
  6 10  2  0  0  0  0 
  6 11  1  0  0  0  0 
  7 12  1  0  0  0  0 
  7 13  1  0  0  0  0 
  8 14  1  0  0  0  0 
  8 15  1  0  0  0  0 
  9 16  2  0  0  0  0 
 10 14  1  0  0  0  0 
 10 17  1  0  0  0  0 
 11 18  2  0  0  0  0 
 15 19  2  0  0  0  0 
 16 19  1  0  0  0  0 
 16 20  1  0  0  0  0 
 17 21  2  0  0  0  0 
 18 21  1  0  0  0  0 
 20 22  1  0  0  0  0 
  3 23  1  0  0  0  0 
  1 24  1  0  0  0  0 
  1 25  1  0  0  0  0 
  2 26  1  0  0  0  0 
  2 27  1  0  0  0  0 
  4 28  1  0  0  0  0 
  4 29  1  0  0  0  0 
  9 30  1  0  0  0  0 
 11 31  1  0  0  0  0 
 12 32  1  0  0  0  0 
 12 33  1  0  0  0  0 
 12 34  1  0  0  0  0 
 13 35  1  0  0  0  0 
 13 36  1  0  0  0  0 
 13 37  1  0  0  0  0 
 15 38  1  0  0  0  0 
 17 39  1  0  0  0  0 
 18 40  1  0  0  0  0 
 19 41  1  0  0  0  0 
 21 42  1  0  0  0  0 
 22 43  1  0  0  0  0 
 22 44  1  0  0  0  0 
 22 45  1  0  0  0  0 
 23 46  1  0  0  0  0 
M  END
> <cdk:Title>
meprotixol

> <Conformer>
1

> <SuperDrugID>
SD003690

$$$$
