pentobarbital
  CDK     0628171801

 34 34  0  0  0  0  0  0  0  0999 V2000
   -0.2232    2.0319   -0.9853 C   0  0  1  0  0  0  0  0  0  0  0  0
   -0.6251    1.6016    0.4763 C   0  0  1  0  0  0  0  0  0  0  0  0
   -0.6680    0.9401   -2.0100 C   0  0  0  0  0  0  0  0  0  0  0  0
   -0.6843    3.5231   -1.3279 C   0  0  2  0  0  0  0  0  0  0  0  0
   -0.0371    0.2596    0.9972 C   0  0  2  0  0  0  0  0  0  0  0  0
   -0.2945    3.9810   -2.7887 C   0  0  1  0  0  0  0  0  0  0  0  0
    0.0266    4.4562   -0.3783 C   0  0  0  0  0  0  0  0  0  0  0  0
   -2.1755    3.6603   -1.1572 C   0  0  0  0  0  0  0  0  0  0  0  0
   -0.3068    0.0377    2.5048 C   0  0  0  0  0  0  0  0  0  0  0  0
   -0.5845    5.4634   -3.1525 C   0  0  0  0  0  0  0  0  0  0  0  0
    1.2767    4.5403   -0.3784 O   0  0  0  0  0  0  0  0  0  0  0  0
   -0.6324    5.2403    0.5143 N   0  0  0  0  0  0  0  0  0  0  0  0
   -2.9752    3.0230   -1.8788 O   0  0  0  0  0  0  0  0  0  0  0  0
   -2.7356    4.4675   -0.2177 N   0  0  0  0  0  0  0  0  0  0  0  0
   -1.9834    5.2394    0.5992 C   0  0  0  0  0  0  0  0  0  0  0  0
   -2.5439    5.9726    1.4439 O   0  0  0  0  0  0  0  0  0  0  0  0
    0.8718    2.0153   -1.0283 H   0  0  0  0  0  0  0  0  0  0  0  0
   -0.3044    2.3778    1.1735 H   0  0  0  0  0  0  0  0  0  0  0  0
   -1.7139    1.5371    0.5427 H   0  0  0  0  0  0  0  0  0  0  0  0
   -0.4247    1.2184   -3.0331 H   0  0  0  0  0  0  0  0  0  0  0  0
   -0.1411    0.0044   -1.8187 H   0  0  0  0  0  0  0  0  0  0  0  0
   -1.7392    0.7448   -1.9438 H   0  0  0  0  0  0  0  0  0  0  0  0
    1.0431    0.2439    0.8288 H   0  0  0  0  0  0  0  0  0  0  0  0
   -0.4848   -0.5748    0.4506 H   0  0  0  0  0  0  0  0  0  0  0  0
    0.7725    3.8022   -2.9505 H   0  0  0  0  0  0  0  0  0  0  0  0
   -0.8290    3.3803   -3.5263 H   0  0  0  0  0  0  0  0  0  0  0  0
    0.0977   -0.9262    2.8163 H   0  0  0  0  0  0  0  0  0  0  0  0
    0.1696    0.8213    3.0965 H   0  0  0  0  0  0  0  0  0  0  0  0
   -1.3799    0.0459    2.7043 H   0  0  0  0  0  0  0  0  0  0  0  0
   -0.2970    5.6507   -4.1885 H   0  0  0  0  0  0  0  0  0  0  0  0
   -1.6468    5.6856   -3.0450 H   0  0  0  0  0  0  0  0  0  0  0  0
   -0.0154    6.1424   -2.5167 H   0  0  0  0  0  0  0  0  0  0  0  0
   -0.1190    5.8170    1.1036 H   0  0  0  0  0  0  0  0  0  0  0  0
   -3.7015    4.4950   -0.1282 H   0  0  0  0  0  0  0  0  0  0  0  0
  1  2  1  0  0  0  0 
  1  3  1  0  0  0  0 
  1  4  1  0  0  0  0 
  2  5  1  0  0  0  0 
  4  6  1  0  0  0  0 
  4  7  1  0  0  0  0 
  4  8  1  0  0  0  0 
  5  9  1  0  0  0  0 
  6 10  1  0  0  0  0 
  7 11  2  0  0  0  0 
  7 12  1  0  0  0  0 
  8 13  2  0  0  0  0 
  8 14  1  0  0  0  0 
 12 15  1  0  0  0  0 
 14 15  1  0  0  0  0 
 15 16  2  0  0  0  0 
 17  1  1  0  0  0  0 
 18  2  1  0  0  0  0 
 19  2  1  0  0  0  0 
 20  3  1  0  0  0  0 
 21  3  1  0  0  0  0 
 22  3  1  0  0  0  0 
 23  5  1  0  0  0  0 
 24  5  1  0  0  0  0 
 25  6  1  0  0  0  0 
 26  6  1  0  0  0  0 
 27  9  1  0  0  0  0 
 28  9  1  0  0  0  0 
 29  9  1  0  0  0  0 
 30 10  1  0  0  0  0 
 31 10  1  0  0  0  0 
 32 10  1  0  0  0  0 
 33 12  1  0  0  0  0 
 34 14  1  0  0  0  0 
M  END
> <cdk:Title>
pentobarbital

> <Conformer>
1

> <SuperDrugID>
SD001878

$$$$
