isomethadone
  CDK     0628171801

 50 51  0  0  0  0  0  0  0  0999 V2000
    2.0471    8.3231    3.0872 C   0  0  1  0  0  0  0  0  0  0  0  0
    1.5943    9.8725    3.1031 C   0  0  2  0  0  0  0  0  0  0  0  0
    1.6801    7.5955    4.3837 C   0  0  0  0  0  0  0  0  0  0  0  0
    1.2299    7.7168    1.9304 C   0  0  0  0  0  0  0  0  0  0  0  0
    3.5471    8.0357    2.9088 C   0  0  0  0  0  0  0  0  0  0  0  0
    1.6849   10.6025    1.6972 C   0  0  2  0  0  0  0  0  0  0  0  0
    2.1495   10.8101    4.2283 C   0  0  0  0  0  0  0  0  0  0  0  0
    2.1357    7.9313    5.7569 C   0  0  2  0  0  0  0  0  0  0  0  0
    1.0134    6.5294    4.3600 O   0  0  0  0  0  0  0  0  0  0  0  0
    1.7937    7.3194    0.6841 C   0  0  0  0  0  0  0  0  0  0  0  0
   -0.1862    7.5888    2.0420 C   0  0  0  0  0  0  0  0  0  0  0  0
    4.5404    9.0211    2.6409 C   0  0  0  0  0  0  0  0  0  0  0  0
    4.0177    6.6874    2.9617 C   0  0  0  0  0  0  0  0  0  0  0  0
    0.3692   10.7087    0.9749 N   0  0  2  0  0  0  0  0  0  0  0  0
    0.9460    8.2852    6.6853 C   0  0  0  0  0  0  0  0  0  0  0  0
    1.0055    6.7993   -0.3600 C   0  0  0  0  0  0  0  0  0  0  0  0
   -0.9774    7.0594    1.0114 C   0  0  0  0  0  0  0  0  0  0  0  0
    5.9038    8.6939    2.4997 C   0  0  0  0  0  0  0  0  0  0  0  0
    5.3728    6.3505    2.8090 C   0  0  0  0  0  0  0  0  0  0  0  0
    0.5185   10.8143   -0.5089 C   0  0  0  0  0  0  0  0  0  0  0  0
   -0.5275   11.7776    1.5126 C   0  0  0  0  0  0  0  0  0  0  0  0
   -0.3820    6.6651   -0.1949 C   0  0  0  0  0  0  0  0  0  0  0  0
    6.3201    7.3575    2.5828 C   0  0  0  0  0  0  0  0  0  0  0  0
    0.5322    9.8531    3.3593 H   0  0  0  0  0  0  0  0  0  0  0  0
    2.3899   10.0542    1.0718 H   0  0  0  0  0  0  0  0  0  0  0  0
    2.1167   11.6047    1.7738 H   0  0  0  0  0  0  0  0  0  0  0  0
    3.2203   10.7041    4.3686 H   0  0  0  0  0  0  0  0  0  0  0  0
    1.9385   11.8580    4.0126 H   0  0  0  0  0  0  0  0  0  0  0  0
    1.6601   10.6196    5.1787 H   0  0  0  0  0  0  0  0  0  0  0  0
    2.8653    8.7367    5.7568 H   0  0  0  0  0  0  0  0  0  0  0  0
    2.6571    7.0643    6.1725 H   0  0  0  0  0  0  0  0  0  0  0  0
    2.7925    7.4233    0.5047 H   0  0  0  0  0  0  0  0  0  0  0  0
   -0.6659    7.8847    2.8960 H   0  0  0  0  0  0  0  0  0  0  0  0
    4.2997   10.0027    2.5259 H   0  0  0  0  0  0  0  0  0  0  0  0
    3.3656    5.9144    3.1125 H   0  0  0  0  0  0  0  0  0  0  0  0
    1.3197    8.6659    7.6363 H   0  0  0  0  0  0  0  0  0  0  0  0
    0.3027    9.0433    6.2346 H   0  0  0  0  0  0  0  0  0  0  0  0
    0.3394    7.3982    6.8792 H   0  0  0  0  0  0  0  0  0  0  0  0
    1.4398    6.5292   -1.2459 H   0  0  0  0  0  0  0  0  0  0  0  0
   -1.9863    6.9686    1.1440 H   0  0  0  0  0  0  0  0  0  0  0  0
    6.5932    9.4306    2.3316 H   0  0  0  0  0  0  0  0  0  0  0  0
    5.6653    5.3724    2.8610 H   0  0  0  0  0  0  0  0  0  0  0  0
    1.0917   11.7006   -0.7886 H   0  0  0  0  0  0  0  0  0  0  0  0
    1.0290    9.9353   -0.9034 H   0  0  0  0  0  0  0  0  0  0  0  0
   -0.4566   10.8625   -0.9988 H   0  0  0  0  0  0  0  0  0  0  0  0
   -0.7141   11.6415    2.5784 H   0  0  0  0  0  0  0  0  0  0  0  0
   -0.0914   12.7682    1.3610 H   0  0  0  0  0  0  0  0  0  0  0  0
   -1.4984   11.7473    1.0122 H   0  0  0  0  0  0  0  0  0  0  0  0
   -0.9586    6.2808   -0.9457 H   0  0  0  0  0  0  0  0  0  0  0  0
    7.3067    7.1150    2.4767 H   0  0  0  0  0  0  0  0  0  0  0  0
  2  1  1  0  0  0  0 
  1  3  1  0  0  0  0 
  1  4  1  0  0  0  0 
  1  5  1  0  0  0  0 
  2  6  1  0  0  0  0 
  2  7  1  0  0  0  0 
  3  8  1  0  0  0  0 
  3  9  2  0  0  0  0 
  4 10  2  0  0  0  0 
  4 11  1  0  0  0  0 
  5 12  2  0  0  0  0 
  5 13  1  0  0  0  0 
  6 14  1  0  0  0  0 
  8 15  1  0  0  0  0 
 10 16  1  0  0  0  0 
 11 17  2  0  0  0  0 
 12 18  1  0  0  0  0 
 13 19  2  0  0  0  0 
 14 20  1  0  0  0  0 
 14 21  1  0  0  0  0 
 16 22  2  0  0  0  0 
 17 22  1  0  0  0  0 
 18 23  2  0  0  0  0 
 19 23  1  0  0  0  0 
  2 24  1  0  0  0  0 
  6 25  1  0  0  0  0 
  6 26  1  0  0  0  0 
  7 27  1  0  0  0  0 
  7 28  1  0  0  0  0 
  7 29  1  0  0  0  0 
  8 30  1  0  0  0  0 
  8 31  1  0  0  0  0 
 10 32  1  0  0  0  0 
 11 33  1  0  0  0  0 
 12 34  1  0  0  0  0 
 13 35  1  0  0  0  0 
 15 36  1  0  0  0  0 
 15 37  1  0  0  0  0 
 15 38  1  0  0  0  0 
 16 39  1  0  0  0  0 
 17 40  1  0  0  0  0 
 18 41  1  0  0  0  0 
 19 42  1  0  0  0  0 
 20 43  1  0  0  0  0 
 20 44  1  0  0  0  0 
 20 45  1  0  0  0  0 
 21 46  1  0  0  0  0 
 21 47  1  0  0  0  0 
 21 48  1  0  0  0  0 
 22 49  1  0  0  0  0 
 23 50  1  0  0  0  0 
M  END
> <cdk:Title>
isomethadone

> <Conformer>
1

> <SuperDrugID>
SD001325

$$$$
