fenetylline
  CDK     0628171801

 48 50  0  0  0  0  0  0  0  0999 V2000
    0.3027   -0.5889   -0.6053 C   0  0  1  0  0  0  0  0  0  0  0  0
   -0.4254   -1.5944    0.3187 C   0  0  2  0  0  0  0  0  0  0  0  0
    1.5951   -0.2040   -0.0989 N   0  0  0  0  0  0  0  0  0  0  0  0
   -0.7304   -0.9913    1.6373 N   0  0  1  0  0  0  0  0  0  0  0  0
    1.9417    0.8527    0.6706 C   0  0  0  0  0  0  0  0  0  0  0  0
    2.7341   -0.8964   -0.3139 C   0  0  0  0  0  0  0  0  0  0  0  0
   -1.3417   -1.8853    2.6619 C   0  0  1  0  0  0  0  0  0  0  0  0
    3.3078    0.7726    0.9213 C   0  0  0  0  0  0  0  0  0  0  0  0
    1.2252    1.9298    1.2239 C   0  0  0  0  0  0  0  0  0  0  0  0
    3.7815   -0.3185    0.2964 N   0  0  0  0  0  0  0  0  0  0  0  0
   -1.3354   -1.1452    4.0315 C   0  0  2  0  0  0  0  0  0  0  0  0
   -2.7923   -2.2881    2.2771 C   0  0  0  0  0  0  0  0  0  0  0  0
    3.9704    1.6854    1.6886 N   0  0  0  0  0  0  0  0  0  0  0  0
   -0.0083    1.9984    1.0093 O   0  0  0  0  0  0  0  0  0  0  0  0
    1.8847    2.8618    1.9951 N   0  0  0  0  0  0  0  0  0  0  0  0
    0.0339   -0.8679    4.5450 C   0  0  0  0  0  0  0  0  0  0  0  0
    5.3881    1.5300    1.9305 C   0  0  0  0  0  0  0  0  0  0  0  0
    3.2386    2.7149    2.2401 C   0  0  0  0  0  0  0  0  0  0  0  0
    1.1600    3.9760    2.5796 C   0  0  0  0  0  0  0  0  0  0  0  0
    0.5999    0.4238    4.4366 C   0  0  0  0  0  0  0  0  0  0  0  0
    0.7861   -1.8898    5.1723 C   0  0  0  0  0  0  0  0  0  0  0  0
    3.8226    3.5344    2.9928 O   0  0  0  0  0  0  0  0  0  0  0  0
    1.8663    0.7006    4.9845 C   0  0  0  0  0  0  0  0  0  0  0  0
    2.0461   -1.6083    5.7339 C   0  0  0  0  0  0  0  0  0  0  0  0
    2.5821   -0.3102    5.6490 C   0  0  0  0  0  0  0  0  0  0  0  0
    0.4231   -1.0577   -1.5867 H   0  0  0  0  0  0  0  0  0  0  0  0
   -0.3362    0.2813   -0.7672 H   0  0  0  0  0  0  0  0  0  0  0  0
    0.1950   -2.4864    0.4449 H   0  0  0  0  0  0  0  0  0  0  0  0
   -1.3578   -1.8786   -0.1753 H   0  0  0  0  0  0  0  0  0  0  0  0
    0.1628   -0.6808    2.0243 H   0  0  0  0  0  0  0  0  0  0  0  0
    2.8037   -1.7539   -0.8696 H   0  0  0  0  0  0  0  0  0  0  0  0
   -0.7477   -2.8007    2.7618 H   0  0  0  0  0  0  0  0  0  0  0  0
   -1.8665   -1.7376    4.7834 H   0  0  0  0  0  0  0  0  0  0  0  0
   -1.8987   -0.2132    3.9268 H   0  0  0  0  0  0  0  0  0  0  0  0
   -2.7926   -2.9487    1.4095 H   0  0  0  0  0  0  0  0  0  0  0  0
   -3.3816   -1.3987    2.0436 H   0  0  0  0  0  0  0  0  0  0  0  0
   -3.2776   -2.8278    3.0926 H   0  0  0  0  0  0  0  0  0  0  0  0
    5.5339    0.9304    2.8304 H   0  0  0  0  0  0  0  0  0  0  0  0
    5.8989    1.0371    1.1003 H   0  0  0  0  0  0  0  0  0  0  0  0
    5.8875    2.4905    2.0726 H   0  0  0  0  0  0  0  0  0  0  0  0
    0.2344    4.2120    2.0516 H   0  0  0  0  0  0  0  0  0  0  0  0
    1.7549    4.8912    2.5680 H   0  0  0  0  0  0  0  0  0  0  0  0
    0.9088    3.7400    3.6144 H   0  0  0  0  0  0  0  0  0  0  0  0
    0.0910    1.1736    3.9629 H   0  0  0  0  0  0  0  0  0  0  0  0
    0.4147   -2.8416    5.2378 H   0  0  0  0  0  0  0  0  0  0  0  0
    2.2622    1.6399    4.9097 H   0  0  0  0  0  0  0  0  0  0  0  0
    2.5678   -2.3458    6.2119 H   0  0  0  0  0  0  0  0  0  0  0  0
    3.4883   -0.0976    6.0739 H   0  0  0  0  0  0  0  0  0  0  0  0
  1  2  1  0  0  0  0 
  1  3  1  0  0  0  0 
  2  4  1  0  0  0  0 
  3  5  1  0  0  0  0 
  3  6  1  0  0  0  0 
  7  4  1  0  0  0  0 
  5  8  2  0  0  0  0 
  5  9  1  0  0  0  0 
  6 10  2  0  0  0  0 
  7 11  1  0  0  0  0 
  7 12  1  0  0  0  0 
  8 10  1  0  0  0  0 
  8 13  1  0  0  0  0 
  9 14  2  0  0  0  0 
  9 15  1  0  0  0  0 
 11 16  1  0  0  0  0 
 13 17  1  0  0  0  0 
 13 18  1  0  0  0  0 
 15 18  1  0  0  0  0 
 15 19  1  0  0  0  0 
 16 20  2  0  0  0  0 
 16 21  1  0  0  0  0 
 18 22  2  0  0  0  0 
 20 23  1  0  0  0  0 
 21 24  2  0  0  0  0 
 23 25  2  0  0  0  0 
 24 25  1  0  0  0  0 
  1 26  1  0  0  0  0 
  1 27  1  0  0  0  0 
  2 28  1  0  0  0  0 
  2 29  1  0  0  0  0 
  4 30  1  0  0  0  0 
  6 31  1  0  0  0  0 
  7 32  1  0  0  0  0 
 11 33  1  0  0  0  0 
 11 34  1  0  0  0  0 
 12 35  1  0  0  0  0 
 12 36  1  0  0  0  0 
 12 37  1  0  0  0  0 
 17 38  1  0  0  0  0 
 17 39  1  0  0  0  0 
 17 40  1  0  0  0  0 
 19 41  1  0  0  0  0 
 19 42  1  0  0  0  0 
 19 43  1  0  0  0  0 
 20 44  1  0  0  0  0 
 21 45  1  0  0  0  0 
 23 46  1  0  0  0  0 
 24 47  1  0  0  0  0 
 25 48  1  0  0  0  0 
M  END
> <cdk:Title>
fenetylline

> <Conformer>
1

> <SuperDrugID>
SD001026

$$$$
