clobenzorex
  CDK     0628171802

 36 37  0  0  0  0  0  0  0  0999 V2000
   -0.5819   -0.3793   -0.5798 C   0  0  1  0  0  0  0  0  0  0  0  0
   -0.0828   -0.7506    0.7626 N   0  0  1  0  0  0  0  0  0  0  0  0
    0.4219    0.2971   -1.4522 C   0  0  0  0  0  0  0  0  0  0  0  0
    0.2204    0.3442    1.7233 C   0  0  2  0  0  0  0  0  0  0  0  0
    1.5210   -0.3973   -2.0281 C   0  0  0  0  0  0  0  0  0  0  0  0
    0.2509    1.6670   -1.7681 C   0  0  0  0  0  0  0  0  0  0  0  0
    0.9794   -0.2769    2.9319 C   0  0  2  0  0  0  0  0  0  0  0  0
   -1.0564    1.0857    2.2119 C   0  0  0  0  0  0  0  0  0  0  0  0
    1.8901   -2.0044   -1.6288 Cl  0  0  0  0  0  0  0  0  0  0  0  0
    2.3440    0.2446   -2.9784 C   0  0  0  0  0  0  0  0  0  0  0  0
    1.0876    2.3071   -2.6979 C   0  0  0  0  0  0  0  0  0  0  0  0
    2.2557   -0.9492    2.5559 C   0  0  0  0  0  0  0  0  0  0  0  0
    2.1194    1.5889   -3.3219 C   0  0  0  0  0  0  0  0  0  0  0  0
    2.3461   -2.3604    2.4943 C   0  0  0  0  0  0  0  0  0  0  0  0
    3.4085   -0.1845    2.2589 C   0  0  0  0  0  0  0  0  0  0  0  0
    3.5618   -2.9903    2.1704 C   0  0  0  0  0  0  0  0  0  0  0  0
    4.6265   -0.8135    1.9413 C   0  0  0  0  0  0  0  0  0  0  0  0
    4.7039   -2.2168    1.8988 C   0  0  0  0  0  0  0  0  0  0  0  0
   -0.9007   -1.2977   -1.0774 H   0  0  0  0  0  0  0  0  0  0  0  0
   -1.4870    0.2189   -0.4737 H   0  0  0  0  0  0  0  0  0  0  0  0
   -0.7964   -1.3386    1.2002 H   0  0  0  0  0  0  0  0  0  0  0  0
    0.8766    1.0751    1.2449 H   0  0  0  0  0  0  0  0  0  0  0  0
   -0.4936    2.2122   -1.3281 H   0  0  0  0  0  0  0  0  0  0  0  0
    0.3139   -0.9881    3.4311 H   0  0  0  0  0  0  0  0  0  0  0  0
    1.2056    0.5052    3.6629 H   0  0  0  0  0  0  0  0  0  0  0  0
   -0.8044    1.8068    2.9897 H   0  0  0  0  0  0  0  0  0  0  0  0
   -1.7877    0.3781    2.6085 H   0  0  0  0  0  0  0  0  0  0  0  0
   -1.5157    1.6476    1.4019 H   0  0  0  0  0  0  0  0  0  0  0  0
    3.1116   -0.2600   -3.4301 H   0  0  0  0  0  0  0  0  0  0  0  0
    0.9409    3.2930   -2.9236 H   0  0  0  0  0  0  0  0  0  0  0  0
    2.7112    2.0483   -4.0193 H   0  0  0  0  0  0  0  0  0  0  0  0
    1.5274   -2.9423    2.6833 H   0  0  0  0  0  0  0  0  0  0  0  0
    3.3716    0.8370    2.2806 H   0  0  0  0  0  0  0  0  0  0  0  0
    3.6161   -4.0112    2.1331 H   0  0  0  0  0  0  0  0  0  0  0  0
    5.4569   -0.2507    1.7434 H   0  0  0  0  0  0  0  0  0  0  0  0
    5.5909   -2.6749    1.6732 H   0  0  0  0  0  0  0  0  0  0  0  0
  1  2  1  0  0  0  0 
  1  3  1  0  0  0  0 
  4  2  1  0  0  0  0 
  3  5  2  0  0  0  0 
  3  6  1  0  0  0  0 
  4  7  1  0  0  0  0 
  4  8  1  0  0  0  0 
  5  9  1  0  0  0  0 
  5 10  1  0  0  0  0 
  6 11  2  0  0  0  0 
  7 12  1  0  0  0  0 
 10 13  2  0  0  0  0 
 11 13  1  0  0  0  0 
 12 14  2  0  0  0  0 
 12 15  1  0  0  0  0 
 14 16  1  0  0  0  0 
 15 17  2  0  0  0  0 
 16 18  2  0  0  0  0 
 17 18  1  0  0  0  0 
  1 19  1  0  0  0  0 
  1 20  1  0  0  0  0 
  2 21  1  0  0  0  0 
  4 22  1  0  0  0  0 
  6 23  1  0  0  0  0 
  7 24  1  0  0  0  0 
  7 25  1  0  0  0  0 
  8 26  1  0  0  0  0 
  8 27  1  0  0  0  0 
  8 28  1  0  0  0  0 
 10 29  1  0  0  0  0 
 11 30  1  0  0  0  0 
 13 31  1  0  0  0  0 
 14 32  1  0  0  0  0 
 15 33  1  0  0  0  0 
 16 34  1  0  0  0  0 
 17 35  1  0  0  0  0 
 18 36  1  0  0  0  0 
M  END
> <cdk:Title>
clobenzorex

> <Conformer>
1

> <SuperDrugID>
SD000603

$$$$
