carbarsone
  CDK     0628171801

 23 23  0  0  0  0  0  0  0  0999 V2000
   -2.7096   -0.9336    7.4524 As  0  0  2  0  0  0  0  0  0  0  0  0
   -1.7920    0.0109    6.2811 O   0  0  0  0  0  0  0  0  0  0  0  0
   -2.1807   -0.4421    9.1694 O   0  0  0  0  0  0  0  0  0  0  0  0
   -2.3283   -2.7411    7.2176 O   0  0  0  0  0  0  0  0  0  0  0  0
   -4.5901   -0.6589    7.2368 C   0  0  0  0  0  0  0  0  0  0  0  0
   -5.1774   -0.7148    5.9590 C   0  0  0  0  0  0  0  0  0  0  0  0
   -5.3974   -0.4111    8.3623 C   0  0  0  0  0  0  0  0  0  0  0  0
   -6.5639   -0.5228    5.8082 C   0  0  0  0  0  0  0  0  0  0  0  0
   -6.7833   -0.2300    8.2099 C   0  0  0  0  0  0  0  0  0  0  0  0
   -7.3914   -0.2887    6.9356 C   0  0  0  0  0  0  0  0  0  0  0  0
   -8.7458   -0.0956    6.9085 N   0  0  0  0  0  0  0  0  0  0  0  0
   -9.6427   -0.2924    5.9059 C   0  0  0  0  0  0  0  0  0  0  0  0
  -10.9239    0.0105    6.1633 N   0  0  0  0  0  0  0  0  0  0  0  0
   -9.3706   -0.7446    4.7713 O   0  0  0  0  0  0  0  0  0  0  0  0
   -1.2220   -0.6418    9.1969 H   0  0  0  0  0  0  0  0  0  0  0  0
   -1.3778   -2.8227    7.4384 H   0  0  0  0  0  0  0  0  0  0  0  0
   -4.6010   -0.8933    5.1328 H   0  0  0  0  0  0  0  0  0  0  0  0
   -4.9825   -0.3713    9.2955 H   0  0  0  0  0  0  0  0  0  0  0  0
   -6.9481   -0.5507    4.8647 H   0  0  0  0  0  0  0  0  0  0  0  0
   -7.3503   -0.0598    9.0470 H   0  0  0  0  0  0  0  0  0  0  0  0
   -9.1323    0.2194    7.7426 H   0  0  0  0  0  0  0  0  0  0  0  0
  -11.6036   -0.1199    5.4855 H   0  0  0  0  0  0  0  0  0  0  0  0
  -11.1699    0.3626    7.0326 H   0  0  0  0  0  0  0  0  0  0  0  0
  1  2  2  0  0  0  0 
  1  3  1  0  0  0  0 
  1  4  1  0  0  0  0 
  1  5  1  0  0  0  0 
  5  6  2  0  0  0  0 
  5  7  1  0  0  0  0 
  6  8  1  0  0  0  0 
  7  9  2  0  0  0  0 
  8 10  2  0  0  0  0 
  9 10  1  0  0  0  0 
 10 11  1  0  0  0  0 
 11 12  1  0  0  0  0 
 12 13  1  0  0  0  0 
 12 14  2  0  0  0  0 
  3 15  1  0  0  0  0 
  4 16  1  0  0  0  0 
  6 17  1  0  0  0  0 
  7 18  1  0  0  0  0 
  8 19  1  0  0  0  0 
  9 20  1  0  0  0  0 
 11 21  1  0  0  0  0 
 13 22  1  0  0  0  0 
 13 23  1  0  0  0  0 
M  END
> <cdk:Title>
carbarsone

> <Conformer>
1

> <SuperDrugID>
SD002661

$$$$
