xanomeline
  CDK     0628171801

 42 43  0  0  0  0  0  0  0  0999 V2000
   -0.1986   -1.1924   -0.6206 O   0  0  0  0  0  0  0  0  0  0  0  0
    0.4567   -1.7344   -1.7854 C   0  0  2  0  0  0  0  0  0  0  0  0
    0.5340   -0.2668    0.0714 C   0  0  0  0  0  0  0  0  0  0  0  0
    1.5593   -2.7615   -1.4174 C   0  0  2  0  0  0  0  0  0  0  0  0
    1.2320   -0.5166    1.2759 C   0  0  0  0  0  0  0  0  0  0  0  0
    0.6155    0.9952   -0.3908 N   0  0  0  0  0  0  0  0  0  0  0  0
    2.1100   -3.5408   -2.6380 C   0  0  1  0  0  0  0  0  0  0  0  0
    1.8840    0.5806    1.7137 N   0  0  0  0  0  0  0  0  0  0  0  0
    1.3172   -1.7291    1.9817 C   0  0  0  0  0  0  0  0  0  0  0  0
    1.6041    1.8797    0.6624 S   0  0  0  0  0  0  0  0  0  0  0  0
    3.2691   -4.5036   -2.2575 C   0  0  2  0  0  0  0  0  0  0  0  0
    2.5693   -2.0272    2.7053 C   0  0  1  0  0  0  0  0  0  0  0  0
    0.3007   -2.6223    2.0000 C   0  0  0  0  0  0  0  0  0  0  0  0
    3.7204   -5.3718   -3.4620 C   0  0  1  0  0  0  0  0  0  0  0  0
    2.5400   -3.2066    3.6310 N   0  0  1  0  0  0  0  0  0  0  0  0
    0.3650   -3.9341    2.6325 C   0  0  2  0  0  0  0  0  0  0  0  0
    4.9157   -6.2980   -3.1439 C   0  0  0  0  0  0  0  0  0  0  0  0
    2.1280   -2.8841    5.0295 C   0  0  0  0  0  0  0  0  0  0  0  0
    1.8039   -4.3531    3.0295 C   0  0  1  0  0  0  0  0  0  0  0  0
    0.8633   -0.9416   -2.4254 H   0  0  0  0  0  0  0  0  0  0  0  0
   -0.3228   -2.2466   -2.3531 H   0  0  0  0  0  0  0  0  0  0  0  0
    1.1440   -3.4781   -0.7040 H   0  0  0  0  0  0  0  0  0  0  0  0
    2.3814   -2.2335   -0.9300 H   0  0  0  0  0  0  0  0  0  0  0  0
    1.2930   -4.1199   -3.0767 H   0  0  0  0  0  0  0  0  0  0  0  0
    2.4694   -2.8319   -3.3897 H   0  0  0  0  0  0  0  0  0  0  0  0
    2.9435   -5.1626   -1.4470 H   0  0  0  0  0  0  0  0  0  0  0  0
    4.1192   -3.9174   -1.8967 H   0  0  0  0  0  0  0  0  0  0  0  0
    3.3526   -2.2087    1.9646 H   0  0  0  0  0  0  0  0  0  0  0  0
    2.8926   -1.1508    3.2753 H   0  0  0  0  0  0  0  0  0  0  0  0
   -0.5639   -2.3966    1.5639 H   0  0  0  0  0  0  0  0  0  0  0  0
    2.8805   -5.9934   -3.7835 H   0  0  0  0  0  0  0  0  0  0  0  0
    3.9996   -4.7194   -4.2945 H   0  0  0  0  0  0  0  0  0  0  0  0
   -0.0376   -4.6896    1.9520 H   0  0  0  0  0  0  0  0  0  0  0  0
   -0.2665   -3.9241    3.5247 H   0  0  0  0  0  0  0  0  0  0  0  0
    4.6737   -6.9722   -2.3200 H   0  0  0  0  0  0  0  0  0  0  0  0
    5.7951   -5.7088   -2.8768 H   0  0  0  0  0  0  0  0  0  0  0  0
    5.1534   -6.8992   -4.0239 H   0  0  0  0  0  0  0  0  0  0  0  0
    2.1825   -3.7763    5.6561 H   0  0  0  0  0  0  0  0  0  0  0  0
    2.8027   -2.1427    5.4616 H   0  0  0  0  0  0  0  0  0  0  0  0
    1.1111   -2.4870    5.0645 H   0  0  0  0  0  0  0  0  0  0  0  0
    2.3439   -4.6854    2.1378 H   0  0  0  0  0  0  0  0  0  0  0  0
    1.7727   -5.2052    3.7155 H   0  0  0  0  0  0  0  0  0  0  0  0
  1  2  1  0  0  0  0 
  1  3  1  0  0  0  0 
  2  4  1  0  0  0  0 
  3  5  1  0  0  0  0 
  3  6  2  0  0  0  0 
  4  7  1  0  0  0  0 
  5  8  2  0  0  0  0 
  5  9  1  0  0  0  0 
  6 10  1  0  0  0  0 
  7 11  1  0  0  0  0 
  8 10  1  0  0  0  0 
  9 12  1  0  0  0  0 
  9 13  2  0  0  0  0 
 11 14  1  0  0  0  0 
 12 15  1  0  0  0  0 
 13 16  1  0  0  0  0 
 14 17  1  0  0  0  0 
 15 18  1  0  0  0  0 
 15 19  1  0  0  0  0 
 16 19  1  0  0  0  0 
  2 20  1  0  0  0  0 
  2 21  1  0  0  0  0 
  4 22  1  0  0  0  0 
  4 23  1  0  0  0  0 
  7 24  1  0  0  0  0 
  7 25  1  0  0  0  0 
 11 26  1  0  0  0  0 
 11 27  1  0  0  0  0 
 12 28  1  0  0  0  0 
 12 29  1  0  0  0  0 
 13 30  1  0  0  0  0 
 14 31  1  0  0  0  0 
 14 32  1  0  0  0  0 
 16 33  1  0  0  0  0 
 16 34  1  0  0  0  0 
 17 35  1  0  0  0  0 
 17 36  1  0  0  0  0 
 17 37  1  0  0  0  0 
 18 38  1  0  0  0  0 
 18 39  1  0  0  0  0 
 18 40  1  0  0  0  0 
 19 41  1  0  0  0  0 
 19 42  1  0  0  0  0 
M  END
> <cdk:Title>
xanomeline

> <Conformer>
1

> <SuperDrugID>
SD003128

$$$$
