omeprazole
  CDK     0628171801

 43 45  0  0  0  0  0  0  0  0999 V2000
    1.4920   -0.0393   -0.0585 C   0  0  0  0  0  0  0  0  0  0  0  0
    0.0529   -0.0286   -0.0210 O   0  0  0  0  0  0  0  0  0  0  0  0
   -0.4354    0.6086    1.0872 C   0  0  0  0  0  0  0  0  0  0  0  0
   -0.6924    1.9986    1.0421 C   0  0  0  0  0  0  0  0  0  0  0  0
   -1.1601    2.6268    2.2056 C   0  0  0  0  0  0  0  0  0  0  0  0
   -1.3912    1.9110    3.3774 C   0  0  0  0  0  0  0  0  0  0  0  0
   -1.1751    0.5238    3.4313 C   0  0  0  0  0  0  0  0  0  0  0  0
   -0.6934   -0.1241    2.2733 C   0  0  0  0  0  0  0  0  0  0  0  0
   -1.8105    2.7594    4.3270 N   0  0  0  0  0  0  0  0  0  0  0  0
   -1.8372    3.9740    3.7437 C   0  0  0  0  0  0  0  0  0  0  0  0
   -1.4527    3.9055    2.4573 N   0  0  0  0  0  0  0  0  0  0  0  0
   -2.3130    5.4489    4.5758 S   0  0  1  0  0  0  0  0  0  0  0  0
   -1.0868    6.4669    4.3889 O   0  0  0  0  0  0  0  0  0  0  0  0
   -3.6799    6.1747    3.5946 C   0  0  2  0  0  0  0  0  0  0  0  0
   -4.2065    7.3546    4.3153 C   0  0  0  0  0  0  0  0  0  0  0  0
   -3.6908    8.5503    3.9341 N   0  0  0  0  0  0  0  0  0  0  0  0
   -4.0219    9.7246    4.5121 C   0  0  0  0  0  0  0  0  0  0  0  0
   -4.9613    9.7629    5.5616 C   0  0  0  0  0  0  0  0  0  0  0  0
   -5.2902   11.0645    6.1928 C   0  0  0  0  0  0  0  0  0  0  0  0
   -5.5600    8.5403    5.9643 C   0  0  0  0  0  0  0  0  0  0  0  0
   -6.5146    8.5563    6.9545 O   0  0  0  0  0  0  0  0  0  0  0  0
   -7.8561    8.6883    6.4476 C   0  0  0  0  0  0  0  0  0  0  0  0
   -5.1602    7.3066    5.3740 C   0  0  0  0  0  0  0  0  0  0  0  0
   -5.7395    6.0167    5.8528 C   0  0  0  0  0  0  0  0  0  0  0  0
    1.9112   -0.5706    0.8004 H   0  0  0  0  0  0  0  0  0  0  0  0
    1.7991   -0.5618   -0.9638 H   0  0  0  0  0  0  0  0  0  0  0  0
    1.9023    0.9740   -0.0947 H   0  0  0  0  0  0  0  0  0  0  0  0
   -0.5317    2.5391    0.1894 H   0  0  0  0  0  0  0  0  0  0  0  0
   -1.3573   -0.0002    4.2901 H   0  0  0  0  0  0  0  0  0  0  0  0
   -0.5248   -1.1316    2.2963 H   0  0  0  0  0  0  0  0  0  0  0  0
   -1.3943    4.6464    1.8304 H   0  0  0  0  0  0  0  0  0  0  0  0
   -4.4628    5.4325    3.4417 H   0  0  0  0  0  0  0  0  0  0  0  0
   -3.2992    6.4523    2.6076 H   0  0  0  0  0  0  0  0  0  0  0  0
   -3.5723   10.5770    4.1709 H   0  0  0  0  0  0  0  0  0  0  0  0
   -5.5415   10.9382    7.2467 H   0  0  0  0  0  0  0  0  0  0  0  0
   -4.4429   11.7518    6.1391 H   0  0  0  0  0  0  0  0  0  0  0  0
   -6.1373   11.5167    5.6751 H   0  0  0  0  0  0  0  0  0  0  0  0
   -8.5446    8.6725    7.2927 H   0  0  0  0  0  0  0  0  0  0  0  0
   -7.9912    9.6338    5.9183 H   0  0  0  0  0  0  0  0  0  0  0  0
   -8.1193    7.8623    5.7830 H   0  0  0  0  0  0  0  0  0  0  0  0
   -6.5828    5.7370    5.2209 H   0  0  0  0  0  0  0  0  0  0  0  0
   -6.0886    6.0817    6.8844 H   0  0  0  0  0  0  0  0  0  0  0  0
   -5.0054    5.2130    5.8278 H   0  0  0  0  0  0  0  0  0  0  0  0
  1  2  1  0  0  0  0 
  2  3  1  0  0  0  0 
  3  4  1  0  0  0  0 
  4  5  2  0  0  0  0 
  5  6  1  0  0  0  0 
  6  7  2  0  0  0  0 
  7  8  1  0  0  0  0 
  3  8  2  0  0  0  0 
  6  9  1  0  0  0  0 
  9 10  2  0  0  0  0 
 10 11  1  0  0  0  0 
  5 11  1  0  0  0  0 
 12 10  1  0  0  0  0 
 12 13  2  0  0  0  0 
 12 14  1  0  0  0  0 
 14 15  1  0  0  0  0 
 15 16  2  0  0  0  0 
 16 17  1  0  0  0  0 
 17 18  2  0  0  0  0 
 18 19  1  0  0  0  0 
 18 20  1  0  0  0  0 
 20 21  1  0  0  0  0 
 21 22  1  0  0  0  0 
 20 23  2  0  0  0  0 
 15 23  1  0  0  0  0 
 23 24  1  0  0  0  0 
 25  1  1  0  0  0  0 
 26  1  1  0  0  0  0 
 27  1  1  0  0  0  0 
 28  4  1  0  0  0  0 
 29  7  1  0  0  0  0 
 30  8  1  0  0  0  0 
 31 11  1  0  0  0  0 
 32 14  1  0  0  0  0 
 33 14  1  0  0  0  0 
 34 17  1  0  0  0  0 
 35 19  1  0  0  0  0 
 36 19  1  0  0  0  0 
 37 19  1  0  0  0  0 
 38 22  1  0  0  0  0 
 39 22  1  0  0  0  0 
 40 22  1  0  0  0  0 
 41 24  1  0  0  0  0 
 42 24  1  0  0  0  0 
 43 24  1  0  0  0  0 
M  END
> <cdk:Title>
omeprazole

> <Conformer>
1

> <SuperDrugID>
SD001780

$$$$
