sulfaloxic acid
  CDK     0628171801

 42 43  0  0  0  0  0  0  0  0999 V2000
    0.4113    6.9449    0.6351 C   0  0  0  0  0  0  0  0  0  0  0  0
    0.8785    5.8088    1.2389 N   0  0  0  0  0  0  0  0  0  0  0  0
    0.9917    7.3924   -0.3850 O   0  0  0  0  0  0  0  0  0  0  0  0
   -0.7665    7.6075    1.0916 C   0  0  0  0  0  0  0  0  0  0  0  0
    2.0184    5.1427    0.8992 C   0  0  0  0  0  0  0  0  0  0  0  0
   -0.9277    9.0310    1.0445 C   0  0  0  0  0  0  0  0  0  0  0  0
   -1.8426    6.8166    1.5723 C   0  0  0  0  0  0  0  0  0  0  0  0
    3.2633    5.7957    0.7560 C   0  0  0  0  0  0  0  0  0  0  0  0
    1.9521    3.7502    0.6878 C   0  0  0  0  0  0  0  0  0  0  0  0
    0.1252    9.9399    0.7433 C   0  0  0  0  0  0  0  0  0  0  0  0
   -2.1911    9.5879    1.3618 C   0  0  0  0  0  0  0  0  0  0  0  0
   -3.0700    7.3974    1.9269 C   0  0  0  0  0  0  0  0  0  0  0  0
    4.4074    5.0749    0.3646 C   0  0  0  0  0  0  0  0  0  0  0  0
    3.0952    3.0315    0.2908 C   0  0  0  0  0  0  0  0  0  0  0  0
   -0.1035   11.1346    0.1429 O   0  0  0  0  0  0  0  0  0  0  0  0
    1.3089    9.6991    1.0707 O   0  0  0  0  0  0  0  0  0  0  0  0
   -3.2529    8.7800    1.7942 C   0  0  0  0  0  0  0  0  0  0  0  0
    4.3306    3.6874    0.1242 C   0  0  0  0  0  0  0  0  0  0  0  0
    5.7681    2.7821   -0.3839 S   0  0  2  0  0  0  0  0  0  0  0  0
    6.2606    3.3291   -1.9338 N   0  0  0  0  0  0  0  0  0  0  0  0
    5.4744    1.2049   -0.4401 O   0  0  0  0  0  0  0  0  0  0  0  0
    6.9697    3.0449    0.6466 O   0  0  0  0  0  0  0  0  0  0  0  0
    7.0948    2.6551   -2.7572 C   0  0  0  0  0  0  0  0  0  0  0  0
    7.3811    3.2395   -3.9462 N   0  0  0  0  0  0  0  0  0  0  0  0
    7.5871    1.5467   -2.4355 O   0  0  0  0  0  0  0  0  0  0  0  0
    8.2251    2.6813   -4.9467 C   0  0  1  0  0  0  0  0  0  0  0  0
    8.2328    3.5369   -6.0816 O   0  0  0  0  0  0  0  0  0  0  0  0
    0.3382    5.4217    1.9486 H   0  0  0  0  0  0  0  0  0  0  0  0
   -1.7544    5.8010    1.6572 H   0  0  0  0  0  0  0  0  0  0  0  0
    3.3420    6.7992    0.9411 H   0  0  0  0  0  0  0  0  0  0  0  0
    1.0649    3.2519    0.8004 H   0  0  0  0  0  0  0  0  0  0  0  0
   -2.3535   10.5958    1.3049 H   0  0  0  0  0  0  0  0  0  0  0  0
   -3.8336    6.8120    2.2703 H   0  0  0  0  0  0  0  0  0  0  0  0
    5.2941    5.5722    0.2517 H   0  0  0  0  0  0  0  0  0  0  0  0
    3.0162    2.0275    0.1241 H   0  0  0  0  0  0  0  0  0  0  0  0
    0.6374   11.7587   -0.0211 H   0  0  0  0  0  0  0  0  0  0  0  0
   -4.1550    9.2017    2.0273 H   0  0  0  0  0  0  0  0  0  0  0  0
    5.9277    4.1897   -2.2336 H   0  0  0  0  0  0  0  0  0  0  0  0
    6.9789    4.1025   -4.1287 H   0  0  0  0  0  0  0  0  0  0  0  0
    9.2441    2.5869   -4.5672 H   0  0  0  0  0  0  0  0  0  0  0  0
    7.8552    1.6992   -5.2506 H   0  0  0  0  0  0  0  0  0  0  0  0
    8.8254    3.0921   -6.7246 H   0  0  0  0  0  0  0  0  0  0  0  0
  1  2  1  0  0  0  0 
  1  3  2  0  0  0  0 
  1  4  1  0  0  0  0 
  2  5  1  0  0  0  0 
  4  6  2  0  0  0  0 
  4  7  1  0  0  0  0 
  5  8  2  0  0  0  0 
  5  9  1  0  0  0  0 
  6 10  1  0  0  0  0 
  6 11  1  0  0  0  0 
  7 12  2  0  0  0  0 
  8 13  1  0  0  0  0 
  9 14  2  0  0  0  0 
 10 15  1  0  0  0  0 
 10 16  2  0  0  0  0 
 11 17  2  0  0  0  0 
 12 17  1  0  0  0  0 
 13 18  2  0  0  0  0 
 14 18  1  0  0  0  0 
 18 19  1  0  0  0  0 
 19 20  1  0  0  0  0 
 19 21  2  0  0  0  0 
 19 22  2  0  0  0  0 
 20 23  1  0  0  0  0 
 23 24  1  0  0  0  0 
 23 25  2  0  0  0  0 
 24 26  1  0  0  0  0 
 26 27  1  0  0  0  0 
  2 28  1  0  0  0  0 
  7 29  1  0  0  0  0 
  8 30  1  0  0  0  0 
  9 31  1  0  0  0  0 
 11 32  1  0  0  0  0 
 12 33  1  0  0  0  0 
 13 34  1  0  0  0  0 
 14 35  1  0  0  0  0 
 15 36  1  0  0  0  0 
 17 37  1  0  0  0  0 
 20 38  1  0  0  0  0 
 24 39  1  0  0  0  0 
 26 40  1  0  0  0  0 
 26 41  1  0  0  0  0 
 27 42  1  0  0  0  0 
M  END
> <cdk:Title>
sulfaloxic acid

> <Conformer>
1

> <SuperDrugID>
SD002254

$$$$
