lenvatinib
  CDK     0628171802

 49 52  0  0  0  0  0  0  0  0999 V2000
   -7.3741    3.0658    5.1800 C   0  0  0  0  0  0  0  0  0  0  0  0
   -7.0621    2.2575    6.2928 C   0  0  0  0  0  0  0  0  0  0  0  0
   -6.3471    1.0377    6.1253 C   0  0  0  0  0  0  0  0  0  0  0  0
   -6.0506    0.6281    4.7986 C   0  0  0  0  0  0  0  0  0  0  0  0
   -6.3745    1.4193    3.6710 C   0  0  0  0  0  0  0  0  0  0  0  0
   -7.0334    2.6592    3.8790 C   0  0  0  0  0  0  0  0  0  0  0  0
   -7.3507    3.4507    2.8209 N   0  0  0  0  0  0  0  0  0  0  0  0
   -6.0808    1.0306    2.3368 C   0  0  0  0  0  0  0  0  0  0  0  0
   -6.4609    1.8758    1.2687 C   0  0  0  0  0  0  0  0  0  0  0  0
   -7.0833    3.1056    1.5382 C   0  0  0  0  0  0  0  0  0  0  0  0
   -5.5106   -0.1915    2.0721 O   0  0  0  0  0  0  0  0  0  0  0  0
   -4.1891   -0.1454    1.7078 C   0  0  0  0  0  0  0  0  0  0  0  0
   -3.8366   -0.0962    0.3468 C   0  0  0  0  0  0  0  0  0  0  0  0
   -3.1653   -0.2423    2.6694 C   0  0  0  0  0  0  0  0  0  0  0  0
   -1.8106   -0.2847    2.2820 C   0  0  0  0  0  0  0  0  0  0  0  0
   -1.4459   -0.2414    0.9104 C   0  0  0  0  0  0  0  0  0  0  0  0
   -2.4881   -0.1484   -0.0452 C   0  0  0  0  0  0  0  0  0  0  0  0
   -0.6619   -0.4142    3.5263 Cl  0  0  0  0  0  0  0  0  0  0  0  0
   -0.1122   -0.3530    0.5958 N   0  0  0  0  0  0  0  0  0  0  0  0
    0.5483   -0.1623   -0.5782 C   0  0  0  0  0  0  0  0  0  0  0  0
    1.8568   -0.5177   -0.5759 N   0  0  0  0  0  0  0  0  0  0  0  0
    0.0142    0.3036   -1.6117 O   0  0  0  0  0  0  0  0  0  0  0  0
    2.7225   -0.4739   -1.7046 C   0  0  2  0  0  0  0  0  0  0  0  0
    2.3829   -1.2426   -2.9917 C   0  0  1  0  0  0  0  0  0  0  0  0
    3.3920   -1.8287   -2.0002 C   0  0  1  0  0  0  0  0  0  0  0  0
   -5.9294    0.2467    7.2462 C   0  0  0  0  0  0  0  0  0  0  0  0
   -6.0129    0.6601    8.4258 O   0  0  0  0  0  0  0  0  0  0  0  0
   -5.3986   -0.9889    7.1299 N   0  0  0  0  0  0  0  0  0  0  0  0
   -7.4664    2.6937    7.5299 O   0  0  0  0  0  0  0  0  0  0  0  0
   -8.7922    2.2420    7.8686 C   0  0  0  0  0  0  0  0  0  0  0  0
   -7.8613    3.9543    5.3216 H   0  0  0  0  0  0  0  0  0  0  0  0
   -5.5806   -0.2636    4.6459 H   0  0  0  0  0  0  0  0  0  0  0  0
   -6.2931    1.6010    0.2994 H   0  0  0  0  0  0  0  0  0  0  0  0
   -7.3403    3.7376    0.7762 H   0  0  0  0  0  0  0  0  0  0  0  0
   -4.5661   -0.0426   -0.3659 H   0  0  0  0  0  0  0  0  0  0  0  0
   -3.4100   -0.3010    3.6587 H   0  0  0  0  0  0  0  0  0  0  0  0
   -2.2929   -0.1473   -1.0432 H   0  0  0  0  0  0  0  0  0  0  0  0
    0.4624   -0.6267    1.3268 H   0  0  0  0  0  0  0  0  0  0  0  0
    2.2348   -0.8404    0.2554 H   0  0  0  0  0  0  0  0  0  0  0  0
    3.4023    0.3741   -1.8050 H   0  0  0  0  0  0  0  0  0  0  0  0
    1.4105   -1.7341   -3.0263 H   0  0  0  0  0  0  0  0  0  0  0  0
    2.7996   -0.8233   -3.9091 H   0  0  0  0  0  0  0  0  0  0  0  0
    4.4366   -1.7933   -2.3182 H   0  0  0  0  0  0  0  0  0  0  0  0
    3.0346   -2.6963   -1.4382 H   0  0  0  0  0  0  0  0  0  0  0  0
   -5.1332   -1.4829    7.9230 H   0  0  0  0  0  0  0  0  0  0  0  0
   -5.2802   -1.3928    6.2579 H   0  0  0  0  0  0  0  0  0  0  0  0
   -8.9783    2.4896    8.9134 H   0  0  0  0  0  0  0  0  0  0  0  0
   -9.5437    2.7472    7.2567 H   0  0  0  0  0  0  0  0  0  0  0  0
   -8.9033    1.1587    7.7564 H   0  0  0  0  0  0  0  0  0  0  0  0
  1  2  1  0  0  0  0 
  1  6  2  0  0  0  0 
  2  3  2  0  0  0  0 
  3  4  1  0  0  0  0 
  4  5  2  0  0  0  0 
  5  6  1  0  0  0  0 
  8  9  2  0  0  0  0 
  9 10  1  0  0  0  0 
  7 10  2  0  0  0  0 
  5  8  1  0  0  0  0 
  7  6  1  0  0  0  0 
  8 11  1  0  0  0  0 
 11 12  1  0  0  0  0 
 14 15  2  0  0  0  0 
 15 16  1  0  0  0  0 
 16 17  2  0  0  0  0 
 13 17  1  0  0  0  0 
 13 12  2  0  0  0  0 
 12 14  1  0  0  0  0 
 15 18  1  0  0  0  0 
 16 19  1  0  0  0  0 
 19 20  1  0  0  0  0 
 20 21  1  0  0  0  0 
 20 22  2  0  0  0  0 
 21 23  1  0  0  0  0 
 24 25  1  0  0  0  0 
 23 24  1  0  0  0  0 
 25 23  1  0  0  0  0 
  3 26  1  0  0  0  0 
 26 27  2  0  0  0  0 
 26 28  1  0  0  0  0 
  2 29  1  0  0  0  0 
 29 30  1  0  0  0  0 
  1 31  1  0  0  0  0 
  4 32  1  0  0  0  0 
  9 33  1  0  0  0  0 
 10 34  1  0  0  0  0 
 13 35  1  0  0  0  0 
 14 36  1  0  0  0  0 
 17 37  1  0  0  0  0 
 19 38  1  0  0  0  0 
 21 39  1  0  0  0  0 
 23 40  1  0  0  0  0 
 24 41  1  0  0  0  0 
 24 42  1  0  0  0  0 
 25 43  1  0  0  0  0 
 25 44  1  0  0  0  0 
 28 45  1  0  0  0  0 
 28 46  1  0  0  0  0 
 30 47  1  0  0  0  0 
 30 48  1  0  0  0  0 
 30 49  1  0  0  0  0 
M  END
> <cdk:Title>
lenvatinib

> <Conformer>
1

> <SuperDrugID>
SD003858

$$$$
