arsanilic acid
  CDK     0628171801

 19 19  0  0  0  0  0  0  0  0999 V2000
   -0.8870   -0.7279    4.0646 As  0  0  1  0  0  0  0  0  0  0  0  0
    0.2878    0.2070    3.1400 O   0  0  0  0  0  0  0  0  0  0  0  0
   -0.6106   -2.5421    3.7435 O   0  0  0  0  0  0  0  0  0  0  0  0
   -0.6228   -0.4160    5.8823 O   0  0  0  0  0  0  0  0  0  0  0  0
   -2.6692   -0.2610    3.5507 C   0  0  0  0  0  0  0  0  0  0  0  0
   -3.7157   -0.2823    4.4939 C   0  0  0  0  0  0  0  0  0  0  0  0
   -2.9427    0.0885    2.2132 C   0  0  0  0  0  0  0  0  0  0  0  0
   -5.0274    0.0453    4.1013 C   0  0  0  0  0  0  0  0  0  0  0  0
   -4.2539    0.4142    1.8203 C   0  0  0  0  0  0  0  0  0  0  0  0
   -5.3023    0.3977    2.7641 C   0  0  0  0  0  0  0  0  0  0  0  0
   -6.5570    0.7203    2.3905 N   0  0  0  0  0  0  0  0  0  0  0  0
    0.2984   -2.7113    4.0696 H   0  0  0  0  0  0  0  0  0  0  0  0
    0.2936   -0.7227    6.0509 H   0  0  0  0  0  0  0  0  0  0  0  0
   -3.5317   -0.5383    5.4664 H   0  0  0  0  0  0  0  0  0  0  0  0
   -2.1901    0.1069    1.5207 H   0  0  0  0  0  0  0  0  0  0  0  0
   -5.7802    0.0292    4.7949 H   0  0  0  0  0  0  0  0  0  0  0  0
   -4.4405    0.6656    0.8454 H   0  0  0  0  0  0  0  0  0  0  0  0
   -7.2786    0.7012    3.0385 H   0  0  0  0  0  0  0  0  0  0  0  0
   -6.7440    0.9724    1.4717 H   0  0  0  0  0  0  0  0  0  0  0  0
  1  2  2  0  0  0  0 
  1  3  1  0  0  0  0 
  1  4  1  0  0  0  0 
  1  5  1  0  0  0  0 
  5  6  2  0  0  0  0 
  5  7  1  0  0  0  0 
  6  8  1  0  0  0  0 
  7  9  2  0  0  0  0 
  8 10  2  0  0  0  0 
  9 10  1  0  0  0  0 
 10 11  1  0  0  0  0 
  3 12  1  0  0  0  0 
  4 13  1  0  0  0  0 
  6 14  1  0  0  0  0 
  7 15  1  0  0  0  0 
  8 16  1  0  0  0  0 
  9 17  1  0  0  0  0 
 11 18  1  0  0  0  0 
 11 19  1  0  0  0  0 
M  END
> <cdk:Title>
arsanilic acid

> <Conformer>
1

> <SuperDrugID>
SD003053

$$$$
