itopride
  CDK     0628171801

 52 53  0  0  0  0  0  0  0  0999 V2000
    2.7184    2.5815    3.7745 C   0  0  0  0  0  0  0  0  0  0  0  0
    4.0102    2.1758    3.9593 N   0  0  0  0  0  0  0  0  0  0  0  0
    2.3196    3.6364    4.3260 O   0  0  0  0  0  0  0  0  0  0  0  0
    1.8169    1.8531    2.9525 C   0  0  0  0  0  0  0  0  0  0  0  0
    4.9834    2.8651    4.7470 C   0  0  1  0  0  0  0  0  0  0  0  0
    2.2825    1.0186    1.9065 C   0  0  0  0  0  0  0  0  0  0  0  0
    0.4166    1.9692    3.1372 C   0  0  0  0  0  0  0  0  0  0  0  0
    4.6408    2.8446    6.1963 C   0  0  0  0  0  0  0  0  0  0  0  0
    1.3835    0.3753    1.0303 C   0  0  0  0  0  0  0  0  0  0  0  0
   -0.4851    1.3261    2.2750 C   0  0  0  0  0  0  0  0  0  0  0  0
    4.7064    1.6366    6.9299 C   0  0  0  0  0  0  0  0  0  0  0  0
    4.2187    4.0194    6.8643 C   0  0  0  0  0  0  0  0  0  0  0  0
    1.8614   -0.3991    0.0062 O   0  0  0  0  0  0  0  0  0  0  0  0
   -0.0075    0.5252    1.2199 C   0  0  0  0  0  0  0  0  0  0  0  0
    4.3737    1.6071    8.2972 C   0  0  0  0  0  0  0  0  0  0  0  0
    3.8425    3.9792    8.2183 C   0  0  0  0  0  0  0  0  0  0  0  0
    2.1913    0.3610   -1.1708 C   0  0  0  0  0  0  0  0  0  0  0  0
   -0.8904   -0.0716    0.3605 O   0  0  0  0  0  0  0  0  0  0  0  0
    3.9333    2.7762    8.9479 C   0  0  0  0  0  0  0  0  0  0  0  0
   -1.4101   -1.3153    0.8573 C   0  0  0  0  0  0  0  0  0  0  0  0
    3.5702    2.7184   10.2682 O   0  0  0  0  0  0  0  0  0  0  0  0
    4.5349    3.3024   11.1677 C   0  0  1  0  0  0  0  0  0  0  0  0
    4.0084    3.1801   12.6178 C   0  0  1  0  0  0  0  0  0  0  0  0
    4.7996    3.9630   13.6219 N   0  0  1  0  0  0  0  0  0  0  0  0
    4.1104    4.0691   14.9405 C   0  0  0  0  0  0  0  0  0  0  0  0
    6.2275    3.5453   13.7474 C   0  0  0  0  0  0  0  0  0  0  0  0
    4.2959    1.3560    3.5254 H   0  0  0  0  0  0  0  0  0  0  0  0
    5.9540    2.3858    4.5920 H   0  0  0  0  0  0  0  0  0  0  0  0
    5.0720    3.8866    4.3701 H   0  0  0  0  0  0  0  0  0  0  0  0
    3.2855    0.8881    1.7521 H   0  0  0  0  0  0  0  0  0  0  0  0
    0.0313    2.5253    3.9034 H   0  0  0  0  0  0  0  0  0  0  0  0
   -1.4906    1.4480    2.4140 H   0  0  0  0  0  0  0  0  0  0  0  0
    4.9984    0.7685    6.4733 H   0  0  0  0  0  0  0  0  0  0  0  0
    4.1695    4.9127    6.3681 H   0  0  0  0  0  0  0  0  0  0  0  0
    4.4459    0.7292    8.8173 H   0  0  0  0  0  0  0  0  0  0  0  0
    3.4970    4.8270    8.6725 H   0  0  0  0  0  0  0  0  0  0  0  0
    2.5373   -0.3347   -1.9356 H   0  0  0  0  0  0  0  0  0  0  0  0
    1.3197    0.8914   -1.5626 H   0  0  0  0  0  0  0  0  0  0  0  0
    2.9946    1.0762   -0.9750 H   0  0  0  0  0  0  0  0  0  0  0  0
   -2.1052   -1.7045    0.1154 H   0  0  0  0  0  0  0  0  0  0  0  0
   -0.6142   -2.0489    1.0019 H   0  0  0  0  0  0  0  0  0  0  0  0
   -1.9553   -1.1772    1.7935 H   0  0  0  0  0  0  0  0  0  0  0  0
    5.4901    2.7775   11.0822 H   0  0  0  0  0  0  0  0  0  0  0  0
    4.6852    4.3631   10.9427 H   0  0  0  0  0  0  0  0  0  0  0  0
    2.9793    3.5549   12.6097 H   0  0  0  0  0  0  0  0  0  0  0  0
    3.9703    2.1233   12.9015 H   0  0  0  0  0  0  0  0  0  0  0  0
    4.0539    3.0978   15.4373 H   0  0  0  0  0  0  0  0  0  0  0  0
    3.0976    4.4579   14.8149 H   0  0  0  0  0  0  0  0  0  0  0  0
    4.6420    4.7670   15.5904 H   0  0  0  0  0  0  0  0  0  0  0  0
    6.3154    2.4707   13.9246 H   0  0  0  0  0  0  0  0  0  0  0  0
    6.7253    4.0733   14.5629 H   0  0  0  0  0  0  0  0  0  0  0  0
    6.7683    3.7986   12.8346 H   0  0  0  0  0  0  0  0  0  0  0  0
  1  2  1  0  0  0  0 
  1  3  2  0  0  0  0 
  1  4  1  0  0  0  0 
  2  5  1  0  0  0  0 
  4  6  2  0  0  0  0 
  4  7  1  0  0  0  0 
  5  8  1  0  0  0  0 
  6  9  1  0  0  0  0 
  7 10  2  0  0  0  0 
  8 11  2  0  0  0  0 
  8 12  1  0  0  0  0 
  9 13  1  0  0  0  0 
  9 14  2  0  0  0  0 
 10 14  1  0  0  0  0 
 11 15  1  0  0  0  0 
 12 16  2  0  0  0  0 
 13 17  1  0  0  0  0 
 14 18  1  0  0  0  0 
 15 19  2  0  0  0  0 
 16 19  1  0  0  0  0 
 18 20  1  0  0  0  0 
 19 21  1  0  0  0  0 
 21 22  1  0  0  0  0 
 22 23  1  0  0  0  0 
 23 24  1  0  0  0  0 
 24 25  1  0  0  0  0 
 24 26  1  0  0  0  0 
  2 27  1  0  0  0  0 
  5 28  1  0  0  0  0 
  5 29  1  0  0  0  0 
  6 30  1  0  0  0  0 
  7 31  1  0  0  0  0 
 10 32  1  0  0  0  0 
 11 33  1  0  0  0  0 
 12 34  1  0  0  0  0 
 15 35  1  0  0  0  0 
 16 36  1  0  0  0  0 
 17 37  1  0  0  0  0 
 17 38  1  0  0  0  0 
 17 39  1  0  0  0  0 
 20 40  1  0  0  0  0 
 20 41  1  0  0  0  0 
 20 42  1  0  0  0  0 
 22 43  1  0  0  0  0 
 22 44  1  0  0  0  0 
 23 45  1  0  0  0  0 
 23 46  1  0  0  0  0 
 25 47  1  0  0  0  0 
 25 48  1  0  0  0  0 
 25 49  1  0  0  0  0 
 26 50  1  0  0  0  0 
 26 51  1  0  0  0  0 
 26 52  1  0  0  0  0 
M  END
> <cdk:Title>
itopride

> <Conformer>
1

> <SuperDrugID>
SD001339

$$$$
