tibezonium
  CDK     0628171801

 65 68  0  0  0  0  0  0  0  0999 V2000
    0.7712   -0.2108    0.7490 S   0  0  0  0  0  0  0  0  0  0  0  0
    0.7905    1.5104    1.3578 C   0  0  2  0  0  0  0  0  0  0  0  0
   -0.6613   -0.3710   -0.2019 C   0  0  0  0  0  0  0  0  0  0  0  0
   -0.4243    1.8331    2.2767 C   0  0  1  0  0  0  0  0  0  0  0  0
   -0.6817    0.1098   -1.4739 C   0  0  0  0  0  0  0  0  0  0  0  0
   -1.6069   -0.9658    0.4283 N   0  0  0  0  0  0  0  0  0  0  0  0
   -0.5347    3.2301    2.8896 N   0  0  1  0  0  0  0  0  0  0  0  0
   -1.5262   -0.2376   -2.4711 C   0  0  0  0  0  0  0  0  0  0  0  0
   -2.8246   -1.3447    0.0821 C   0  0  0  0  0  0  0  0  0  0  0  0
   -0.6493    4.2767    1.7840 C   0  0  1  0  0  0  0  0  0  0  0  0
   -1.7334    3.2572    3.8382 C   0  0  1  0  0  0  0  0  0  0  0  0
    0.6987    3.5037    3.7275 C   0  0  0  0  0  0  0  0  0  0  0  0
   -2.5578   -1.0858   -2.3560 N   0  0  0  0  0  0  0  0  0  0  0  0
   -1.3776    0.2898   -3.7678 C   0  0  0  0  0  0  0  0  0  0  0  0
   -3.2729   -1.4473   -1.2583 C   0  0  0  0  0  0  0  0  0  0  0  0
   -3.6959   -1.7069    1.1334 C   0  0  0  0  0  0  0  0  0  0  0  0
   -0.9344    5.7563    2.1638 C   0  0  0  0  0  0  0  0  0  0  0  0
   -3.1491    3.0111    3.2487 C   0  0  0  0  0  0  0  0  0  0  0  0
   -0.1202    0.3128   -4.4230 C   0  0  0  0  0  0  0  0  0  0  0  0
   -2.4995    0.7866   -4.4837 C   0  0  0  0  0  0  0  0  0  0  0  0
   -4.5664   -1.9510   -1.5169 C   0  0  0  0  0  0  0  0  0  0  0  0
   -4.9972   -2.1660    0.8657 C   0  0  0  0  0  0  0  0  0  0  0  0
    0.0056    0.7797   -5.7448 C   0  0  0  0  0  0  0  0  0  0  0  0
   -2.3785    1.2462   -5.8082 C   0  0  0  0  0  0  0  0  0  0  0  0
   -5.4286   -2.2969   -0.4633 C   0  0  0  0  0  0  0  0  0  0  0  0
   -1.1250    1.2365   -6.4478 C   0  0  0  0  0  0  0  0  0  0  0  0
   -0.9718    1.7676   -8.1194 S   0  0  0  0  0  0  0  0  0  0  0  0
   -1.4058    3.4731   -8.1381 C   0  0  0  0  0  0  0  0  0  0  0  0
   -2.4024    3.9325   -9.0243 C   0  0  0  0  0  0  0  0  0  0  0  0
   -0.7497    4.3935   -7.2936 C   0  0  0  0  0  0  0  0  0  0  0  0
   -2.7275    5.3015   -9.0771 C   0  0  0  0  0  0  0  0  0  0  0  0
   -1.0752    5.7617   -7.3488 C   0  0  0  0  0  0  0  0  0  0  0  0
   -2.0571    6.2181   -8.2468 C   0  0  0  0  0  0  0  0  0  0  0  0
    0.8164    2.1705    0.4915 H   0  0  0  0  0  0  0  0  0  0  0  0
    1.7225    1.6270    1.9102 H   0  0  0  0  0  0  0  0  0  0  0  0
   -1.3139    1.6338    1.6739 H   0  0  0  0  0  0  0  0  0  0  0  0
   -0.4120    1.0820    3.0752 H   0  0  0  0  0  0  0  0  0  0  0  0
    0.0182    0.7865   -1.6870 H   0  0  0  0  0  0  0  0  0  0  0  0
    0.2768    4.3029    1.2043 H   0  0  0  0  0  0  0  0  0  0  0  0
   -1.4326    3.9862    1.0783 H   0  0  0  0  0  0  0  0  0  0  0  0
   -1.5972    2.5102    4.6286 H   0  0  0  0  0  0  0  0  0  0  0  0
   -1.7792    4.2185    4.3578 H   0  0  0  0  0  0  0  0  0  0  0  0
    0.8915    2.6886    4.4326 H   0  0  0  0  0  0  0  0  0  0  0  0
    0.5946    4.4165    4.3179 H   0  0  0  0  0  0  0  0  0  0  0  0
    1.5931    3.6298    3.1136 H   0  0  0  0  0  0  0  0  0  0  0  0
   -2.9082   -1.4259   -3.1975 H   0  0  0  0  0  0  0  0  0  0  0  0
   -3.3928   -1.6361    2.1077 H   0  0  0  0  0  0  0  0  0  0  0  0
   -0.9167    6.3702    1.2607 H   0  0  0  0  0  0  0  0  0  0  0  0
   -1.9208    5.8650    2.6145 H   0  0  0  0  0  0  0  0  0  0  0  0
   -0.1806    6.1475    2.8480 H   0  0  0  0  0  0  0  0  0  0  0  0
   -3.8777    3.1433    4.0507 H   0  0  0  0  0  0  0  0  0  0  0  0
   -3.3802    3.8129    2.4842 H   0  0  0  0  0  0  0  0  0  0  0  0
   -3.2347    1.9267    2.9330 H   0  0  0  0  0  0  0  0  0  0  0  0
    0.7183   -0.0267   -3.9480 H   0  0  0  0  0  0  0  0  0  0  0  0
   -3.4245    0.8131   -4.0464 H   0  0  0  0  0  0  0  0  0  0  0  0
   -4.8983   -2.0594   -2.4787 H   0  0  0  0  0  0  0  0  0  0  0  0
   -5.6278   -2.4071    1.6337 H   0  0  0  0  0  0  0  0  0  0  0  0
    0.9247    0.7797   -6.1924 H   0  0  0  0  0  0  0  0  0  0  0  0
   -3.2104    1.5805   -6.3002 H   0  0  0  0  0  0  0  0  0  0  0  0
   -6.3716   -2.6365   -0.6655 H   0  0  0  0  0  0  0  0  0  0  0  0
   -2.8922    3.2767   -9.6375 H   0  0  0  0  0  0  0  0  0  0  0  0
   -0.0283    4.0769   -6.6422 H   0  0  0  0  0  0  0  0  0  0  0  0
   -3.4474    5.6310   -9.7233 H   0  0  0  0  0  0  0  0  0  0  0  0
   -0.5925    6.4252   -6.7402 H   0  0  0  0  0  0  0  0  0  0  0  0
   -2.2804    7.2145   -8.2990 H   0  0  0  0  0  0  0  0  0  0  0  0
  1  2  1  0  0  0  0 
  1  3  1  0  0  0  0 
  2  4  1  0  0  0  0 
  3  5  1  0  0  0  0 
  3  6  2  0  0  0  0 
  4  7  1  0  0  0  0 
  5  8  2  0  0  0  0 
  6  9  1  0  0  0  0 
  7 10  1  0  0  0  0 
  7 11  1  0  0  0  0 
  7 12  1  0  0  0  0 
  8 13  1  0  0  0  0 
  8 14  1  0  0  0  0 
  9 15  2  0  0  0  0 
  9 16  1  0  0  0  0 
 10 17  1  0  0  0  0 
 11 18  1  0  0  0  0 
 13 15  1  0  0  0  0 
 14 19  2  0  0  0  0 
 14 20  1  0  0  0  0 
 15 21  1  0  0  0  0 
 16 22  2  0  0  0  0 
 19 23  1  0  0  0  0 
 20 24  2  0  0  0  0 
 21 25  2  0  0  0  0 
 22 25  1  0  0  0  0 
 23 26  2  0  0  0  0 
 24 26  1  0  0  0  0 
 26 27  1  0  0  0  0 
 27 28  1  0  0  0  0 
 28 29  2  0  0  0  0 
 28 30  1  0  0  0  0 
 29 31  1  0  0  0  0 
 30 32  2  0  0  0  0 
 31 33  2  0  0  0  0 
 32 33  1  0  0  0  0 
 34  2  1  0  0  0  0 
 35  2  1  0  0  0  0 
 36  4  1  0  0  0  0 
 37  4  1  0  0  0  0 
 38  5  1  0  0  0  0 
 39 10  1  0  0  0  0 
 40 10  1  0  0  0  0 
 41 11  1  0  0  0  0 
 42 11  1  0  0  0  0 
 43 12  1  0  0  0  0 
 44 12  1  0  0  0  0 
 45 12  1  0  0  0  0 
 46 13  1  0  0  0  0 
 47 16  1  0  0  0  0 
 48 17  1  0  0  0  0 
 49 17  1  0  0  0  0 
 50 17  1  0  0  0  0 
 51 18  1  0  0  0  0 
 52 18  1  0  0  0  0 
 53 18  1  0  0  0  0 
 54 19  1  0  0  0  0 
 55 20  1  0  0  0  0 
 56 21  1  0  0  0  0 
 57 22  1  0  0  0  0 
 58 23  1  0  0  0  0 
 59 24  1  0  0  0  0 
 60 25  1  0  0  0  0 
 61 29  1  0  0  0  0 
 62 30  1  0  0  0  0 
 63 31  1  0  0  0  0 
 64 32  1  0  0  0  0 
 65 33  1  0  0  0  0 
M  CHG  1   7   1
M  END
> <cdk:Title>
tibezonium

> <Conformer>
1

> <SuperDrugID>
SD002387

$$$$
