lumefantrine
  CDK     0628171801

 67 70  0  0  0  0  0  0  0  0999 V2000
    3.3211    5.2938    0.3836 C   0  0  1  0  0  0  0  0  0  0  0  0
    4.0321    6.1399   -0.7170 C   0  0  1  0  0  0  0  0  0  0  0  0
    2.5286    6.1671    1.1899 O   0  0  0  0  0  0  0  0  0  0  0  0
    2.4547    4.1908   -0.1411 C   0  0  0  0  0  0  0  0  0  0  0  0
    4.7151    5.3282   -1.7845 N   0  0  1  0  0  0  0  0  0  0  0  0
    2.6634    2.7838    0.0215 C   0  0  0  0  0  0  0  0  0  0  0  0
    1.3121    4.5930   -0.8822 C   0  0  0  0  0  0  0  0  0  0  0  0
    4.8264    6.0277   -3.1140 C   0  0  2  0  0  0  0  0  0  0  0  0
    6.0276    4.7450   -1.3329 C   0  0  1  0  0  0  0  0  0  0  0  0
    1.7286    1.8560   -0.4874 C   0  0  0  0  0  0  0  0  0  0  0  0
    3.7128    1.9895    0.5488 C   0  0  0  0  0  0  0  0  0  0  0  0
    0.4247    3.6660   -1.4547 C   0  0  0  0  0  0  0  0  0  0  0  0
    3.4758    6.2174   -3.8670 C   0  0  1  0  0  0  0  0  0  0  0  0
    6.3353    3.3779   -2.0055 C   0  0  2  0  0  0  0  0  0  0  0  0
    2.1073    0.5533   -0.1967 C   0  0  0  0  0  0  0  0  0  0  0  0
    0.6296    2.2933   -1.2565 C   0  0  0  0  0  0  0  0  0  0  0  0
    3.3999    0.6466    0.2776 C   0  0  0  0  0  0  0  0  0  0  0  0
    4.9303    2.2861    1.2077 C   0  0  0  0  0  0  0  0  0  0  0  0
   -0.8740    4.2096   -2.3957 Cl  0  0  0  0  0  0  0  0  0  0  0  0
    3.7482    6.4596   -5.4135 C   0  0  2  0  0  0  0  0  0  0  0  0
    7.7011    2.7863   -1.5627 C   0  0  1  0  0  0  0  0  0  0  0  0
    1.3970   -0.5966   -0.2584 C   0  0  0  0  0  0  0  0  0  0  0  0
    4.3374   -0.3827    0.5272 C   0  0  0  0  0  0  0  0  0  0  0  0
    5.8578    1.2637    1.4786 C   0  0  0  0  0  0  0  0  0  0  0  0
    2.4722    6.9134   -6.1508 C   0  0  0  0  0  0  0  0  0  0  0  0
    8.0250    1.4372   -2.2433 C   0  0  0  0  0  0  0  0  0  0  0  0
    0.0298   -0.7331   -0.4495 C   0  0  0  0  0  0  0  0  0  0  0  0
    5.5781   -0.0651    1.1120 C   0  0  0  0  0  0  0  0  0  0  0  0
   -0.8919   -0.0409    0.3742 C   0  0  0  0  0  0  0  0  0  0  0  0
   -0.4704   -1.6287   -1.4233 C   0  0  0  0  0  0  0  0  0  0  0  0
    6.7323   -1.2743    1.3802 Cl  0  0  0  0  0  0  0  0  0  0  0  0
   -2.2778   -0.2116    0.2038 C   0  0  0  0  0  0  0  0  0  0  0  0
   -1.8573   -1.7990   -1.5953 C   0  0  0  0  0  0  0  0  0  0  0  0
   -2.7642   -1.0922   -0.7811 C   0  0  0  0  0  0  0  0  0  0  0  0
   -4.4315   -1.3138   -0.9754 Cl  0  0  0  0  0  0  0  0  0  0  0  0
    4.0663    4.9281    1.0660 H   0  0  0  0  0  0  0  0  0  0  0  0
    3.2715    6.7907   -1.1462 H   0  0  0  0  0  0  0  0  0  0  0  0
    4.7569    6.8067   -0.2405 H   0  0  0  0  0  0  0  0  0  0  0  0
    3.1556    6.8528    1.5018 H   0  0  0  0  0  0  0  0  0  0  0  0
    1.1189    5.5882   -1.0200 H   0  0  0  0  0  0  0  0  0  0  0  0
    5.4790    5.4480   -3.7709 H   0  0  0  0  0  0  0  0  0  0  0  0
    5.3009    7.0051   -2.9790 H   0  0  0  0  0  0  0  0  0  0  0  0
    6.8400    5.4529   -1.5290 H   0  0  0  0  0  0  0  0  0  0  0  0
    6.0252    4.5709   -0.2567 H   0  0  0  0  0  0  0  0  0  0  0  0
    2.9433    5.2165   -3.8157 H   0  0  0  0  0  0  0  0  0  0  0  0
    2.9333    7.0997   -3.3336 H   0  0  0  0  0  0  0  0  0  0  0  0
    6.3509    3.4840   -3.0912 H   0  0  0  0  0  0  0  0  0  0  0  0
    5.5358    2.6772   -1.7544 H   0  0  0  0  0  0  0  0  0  0  0  0
   -0.0093    1.6291   -1.6944 H   0  0  0  0  0  0  0  0  0  0  0  0
    5.1849    3.2175    1.5010 H   0  0  0  0  0  0  0  0  0  0  0  0
    4.1210    5.5384   -5.8727 H   0  0  0  0  0  0  0  0  0  0  0  0
    4.5091    7.2360   -5.5350 H   0  0  0  0  0  0  0  0  0  0  0  0
    8.4974    3.4916   -1.8158 H   0  0  0  0  0  0  0  0  0  0  0  0
    7.7062    2.6445   -0.4790 H   0  0  0  0  0  0  0  0  0  0  0  0
    1.8696   -1.4560   -0.1023 H   0  0  0  0  0  0  0  0  0  0  0  0
    4.1310   -1.3527    0.2864 H   0  0  0  0  0  0  0  0  0  0  0  0
    6.7431    1.4973    1.9364 H   0  0  0  0  0  0  0  0  0  0  0  0
    1.6716    6.1859   -6.0086 H   0  0  0  0  0  0  0  0  0  0  0  0
    2.1442    7.8841   -5.7723 H   0  0  0  0  0  0  0  0  0  0  0  0
    2.6771    7.0052   -7.2196 H   0  0  0  0  0  0  0  0  0  0  0  0
    8.9875    1.0648   -1.8877 H   0  0  0  0  0  0  0  0  0  0  0  0
    8.0838    1.5646   -3.3256 H   0  0  0  0  0  0  0  0  0  0  0  0
    7.2594    0.6929   -2.0143 H   0  0  0  0  0  0  0  0  0  0  0  0
   -0.5617    0.5873    1.1122 H   0  0  0  0  0  0  0  0  0  0  0  0
    0.1704   -2.1652   -2.0147 H   0  0  0  0  0  0  0  0  0  0  0  0
   -2.9262    0.3027    0.8053 H   0  0  0  0  0  0  0  0  0  0  0  0
   -2.2008   -2.4433   -2.3115 H   0  0  0  0  0  0  0  0  0  0  0  0
  1  2  1  0  0  0  0 
  1  3  1  0  0  0  0 
  1  4  1  0  0  0  0 
  2  5  1  0  0  0  0 
  4  6  2  0  0  0  0 
  4  7  1  0  0  0  0 
  5  8  1  0  0  0  0 
  5  9  1  0  0  0  0 
  6 10  1  0  0  0  0 
  6 11  1  0  0  0  0 
  7 12  2  0  0  0  0 
  8 13  1  0  0  0  0 
  9 14  1  0  0  0  0 
 10 15  1  0  0  0  0 
 10 16  2  0  0  0  0 
 11 17  2  0  0  0  0 
 11 18  1  0  0  0  0 
 12 16  1  0  0  0  0 
 12 19  1  0  0  0  0 
 13 20  1  0  0  0  0 
 14 21  1  0  0  0  0 
 15 17  1  0  0  0  0 
 15 22  2  0  0  0  0 
 17 23  1  0  0  0  0 
 18 24  2  0  0  0  0 
 20 25  1  0  0  0  0 
 21 26  1  0  0  0  0 
 22 27  1  0  0  0  0 
 23 28  2  0  0  0  0 
 24 28  1  0  0  0  0 
 27 29  2  0  0  0  0 
 27 30  1  0  0  0  0 
 28 31  1  0  0  0  0 
 29 32  1  0  0  0  0 
 30 33  2  0  0  0  0 
 32 34  2  0  0  0  0 
 33 34  1  0  0  0  0 
 34 35  1  0  0  0  0 
  1 36  1  0  0  0  0 
  2 37  1  0  0  0  0 
  2 38  1  0  0  0  0 
  3 39  1  0  0  0  0 
  7 40  1  0  0  0  0 
  8 41  1  0  0  0  0 
  8 42  1  0  0  0  0 
  9 43  1  0  0  0  0 
  9 44  1  0  0  0  0 
 13 45  1  0  0  0  0 
 13 46  1  0  0  0  0 
 14 47  1  0  0  0  0 
 14 48  1  0  0  0  0 
 16 49  1  0  0  0  0 
 18 50  1  0  0  0  0 
 20 51  1  0  0  0  0 
 20 52  1  0  0  0  0 
 21 53  1  0  0  0  0 
 21 54  1  0  0  0  0 
 22 55  1  0  0  0  0 
 23 56  1  0  0  0  0 
 24 57  1  0  0  0  0 
 25 58  1  0  0  0  0 
 25 59  1  0  0  0  0 
 25 60  1  0  0  0  0 
 26 61  1  0  0  0  0 
 26 62  1  0  0  0  0 
 26 63  1  0  0  0  0 
 29 64  1  0  0  0  0 
 30 65  1  0  0  0  0 
 32 66  1  0  0  0  0 
 33 67  1  0  0  0  0 
M  END
> <cdk:Title>
lumefantrine

> <Conformer>
1

> <SuperDrugID>
SD001431

$$$$
