citrulline
  CDK     0628171801

 25 24  0  0  0  0  0  0  0  0999 V2000
    0.0552   -4.8713   -0.0583 C   0  0  1  0  0  0  0  0  0  0  0  0
   -0.6463   -3.5268    0.2958 C   0  0  2  0  0  0  0  0  0  0  0  0
   -0.7034   -6.1472    0.4287 C   0  0  1  0  0  0  0  0  0  0  0  0
    0.1577   -2.2852   -0.1700 C   0  0  2  0  0  0  0  0  0  0  0  0
   -0.1057   -7.4210   -0.0378 C   0  0  0  0  0  0  0  0  0  0  0  0
   -0.7712   -6.2085    1.8982 N   0  0  2  0  0  0  0  0  0  0  0  0
   -0.5135   -1.0740    0.1831 N   0  0  0  0  0  0  0  0  0  0  0  0
    1.0654   -7.4800   -0.7143 O   0  0  0  0  0  0  0  0  0  0  0  0
   -0.6880   -8.5053    0.1966 O   0  0  0  0  0  0  0  0  0  0  0  0
    0.0240    0.1671    0.0657 C   0  0  0  0  0  0  0  0  0  0  0  0
   -0.7025    1.2424    0.4062 N   0  0  0  0  0  0  0  0  0  0  0  0
    1.1894    0.3625   -0.3493 O   0  0  0  0  0  0  0  0  0  0  0  0
    0.1607   -4.9168   -1.1473 H   0  0  0  0  0  0  0  0  0  0  0  0
    1.0607   -4.8722    0.3728 H   0  0  0  0  0  0  0  0  0  0  0  0
   -0.7786   -3.4647    1.3791 H   0  0  0  0  0  0  0  0  0  0  0  0
   -1.6341   -3.5000   -0.1732 H   0  0  0  0  0  0  0  0  0  0  0  0
   -1.7276   -6.1054    0.0495 H   0  0  0  0  0  0  0  0  0  0  0  0
    0.2795   -2.3105   -1.2556 H   0  0  0  0  0  0  0  0  0  0  0  0
    1.1458   -2.3083    0.2972 H   0  0  0  0  0  0  0  0  0  0  0  0
   -1.3114   -5.4062    2.2241 H   0  0  0  0  0  0  0  0  0  0  0  0
    0.1791   -6.0974    2.2567 H   0  0  0  0  0  0  0  0  0  0  0  0
   -1.4240   -1.1408    0.5104 H   0  0  0  0  0  0  0  0  0  0  0  0
    1.4273   -8.3483   -0.9915 H   0  0  0  0  0  0  0  0  0  0  0  0
   -0.3151    2.1308    0.3282 H   0  0  0  0  0  0  0  0  0  0  0  0
   -1.6108    1.1360    0.7322 H   0  0  0  0  0  0  0  0  0  0  0  0
  1  2  1  0  0  0  0 
  3  1  1  0  0  0  0 
  2  4  1  0  0  0  0 
  3  5  1  0  0  0  0 
  3  6  1  0  0  0  0 
  4  7  1  0  0  0  0 
  5  8  1  0  0  0  0 
  5  9  2  0  0  0  0 
  7 10  1  0  0  0  0 
 10 11  1  0  0  0  0 
 10 12  2  0  0  0  0 
 13  1  1  0  0  0  0 
 14  1  1  0  0  0  0 
 15  2  1  0  0  0  0 
 16  2  1  0  0  0  0 
  3 17  1  0  0  0  0 
 18  4  1  0  0  0  0 
 19  4  1  0  0  0  0 
 20  6  1  0  0  0  0 
 21  6  1  0  0  0  0 
 22  7  1  0  0  0  0 
 23  8  1  0  0  0  0 
 24 11  1  0  0  0  0 
 25 11  1  0  0  0  0 
M  END
> <cdk:Title>
citrulline

> <Conformer>
1

> <SuperDrugID>
SD002692

$$$$
