isopropamide
  CDK     0628171801

 59 60  0  0  0  0  0  0  0  0999 V2000
   -5.6491    1.4344    3.8247 C   0  0  2  0  0  0  0  0  0  0  0  0
   -4.8164    1.2825    2.4797 C   0  0  1  0  0  0  0  0  0  0  0  0
   -7.1026    1.6500    3.4764 C   0  0  0  0  0  0  0  0  0  0  0  0
   -5.3714    2.6799    4.6622 C   0  0  0  0  0  0  0  0  0  0  0  0
   -5.4327    0.1179    4.5723 C   0  0  0  0  0  0  0  0  0  0  0  0
   -3.2519    1.1283    2.5868 C   0  0  1  0  0  0  0  0  0  0  0  0
   -7.4881    2.5437    2.5409 N   0  0  0  0  0  0  0  0  0  0  0  0
   -8.0335    1.0703    4.0848 O   0  0  0  0  0  0  0  0  0  0  0  0
   -4.6553    3.8106    4.1845 C   0  0  0  0  0  0  0  0  0  0  0  0
   -5.9054    2.7833    5.9787 C   0  0  0  0  0  0  0  0  0  0  0  0
   -4.5450    0.0002    5.6766 C   0  0  0  0  0  0  0  0  0  0  0  0
   -6.0672   -1.0815    4.1415 C   0  0  0  0  0  0  0  0  0  0  0  0
   -2.4278    0.6340    1.3721 N   0  0  2  0  0  0  0  0  0  0  0  0
   -4.4250    4.9403    4.9890 C   0  0  0  0  0  0  0  0  0  0  0  0
   -5.6849    3.9114    6.7874 C   0  0  0  0  0  0  0  0  0  0  0  0
   -4.3617   -1.2163    6.3583 C   0  0  0  0  0  0  0  0  0  0  0  0
   -5.8708   -2.3074    4.8010 C   0  0  0  0  0  0  0  0  0  0  0  0
   -2.8318   -0.8180    0.9786 C   0  0  2  0  0  0  0  0  0  0  0  0
   -0.9167    0.8607    1.7002 C   0  0  1  0  0  0  0  0  0  0  0  0
   -2.8071    1.5742    0.2304 C   0  0  0  0  0  0  0  0  0  0  0  0
   -4.9324    4.9883    6.2959 C   0  0  0  0  0  0  0  0  0  0  0  0
   -5.0266   -2.3714    5.9200 C   0  0  0  0  0  0  0  0  0  0  0  0
   -2.8907   -1.9200    2.0951 C   0  0  0  0  0  0  0  0  0  0  0  0
   -2.0892   -1.4679   -0.2338 C   0  0  0  0  0  0  0  0  0  0  0  0
   -0.2628   -0.0925    2.7497 C   0  0  0  0  0  0  0  0  0  0  0  0
    0.1126    1.0283    0.5279 C   0  0  0  0  0  0  0  0  0  0  0  0
   -5.2155    0.4280    1.9351 H   0  0  0  0  0  0  0  0  0  0  0  0
   -5.0105    2.1451    1.8410 H   0  0  0  0  0  0  0  0  0  0  0  0
   -2.8917    2.1144    2.8821 H   0  0  0  0  0  0  0  0  0  0  0  0
   -3.0273    0.5128    3.4506 H   0  0  0  0  0  0  0  0  0  0  0  0
   -6.8226    3.0511    2.0520 H   0  0  0  0  0  0  0  0  0  0  0  0
   -8.4286    2.6864    2.3560 H   0  0  0  0  0  0  0  0  0  0  0  0
   -4.3008    3.8465    3.2324 H   0  0  0  0  0  0  0  0  0  0  0  0
   -6.4671    2.0209    6.3658 H   0  0  0  0  0  0  0  0  0  0  0  0
   -4.0075    0.8064    5.9950 H   0  0  0  0  0  0  0  0  0  0  0  0
   -6.6857   -1.0769    3.3272 H   0  0  0  0  0  0  0  0  0  0  0  0
   -3.8926    5.7309    4.6189 H   0  0  0  0  0  0  0  0  0  0  0  0
   -6.0727    3.9472    7.7322 H   0  0  0  0  0  0  0  0  0  0  0  0
   -3.7439   -1.2636    7.1701 H   0  0  0  0  0  0  0  0  0  0  0  0
   -6.3438   -3.1508    4.4640 H   0  0  0  0  0  0  0  0  0  0  0  0
   -3.8666   -0.7766    0.6258 H   0  0  0  0  0  0  0  0  0  0  0  0
   -0.8347    1.8455    2.1782 H   0  0  0  0  0  0  0  0  0  0  0  0
   -3.8521    1.4728   -0.0697 H   0  0  0  0  0  0  0  0  0  0  0  0
   -2.6444    2.6231    0.4991 H   0  0  0  0  0  0  0  0  0  0  0  0
   -2.2366    1.3939   -0.6782 H   0  0  0  0  0  0  0  0  0  0  0  0
   -4.7620    5.8073    6.8842 H   0  0  0  0  0  0  0  0  0  0  0  0
   -4.8925   -3.2569    6.4118 H   0  0  0  0  0  0  0  0  0  0  0  0
   -3.4026   -2.8123    1.7248 H   0  0  0  0  0  0  0  0  0  0  0  0
   -3.4430   -1.5960    2.9706 H   0  0  0  0  0  0  0  0  0  0  0  0
   -1.9006   -2.2373    2.4128 H   0  0  0  0  0  0  0  0  0  0  0  0
   -2.6161   -2.3669   -0.5682 H   0  0  0  0  0  0  0  0  0  0  0  0
   -2.0412   -0.8013   -1.0926 H   0  0  0  0  0  0  0  0  0  0  0  0
   -1.0785   -1.7669    0.0438 H   0  0  0  0  0  0  0  0  0  0  0  0
    0.6402    0.3641    3.1641 H   0  0  0  0  0  0  0  0  0  0  0  0
   -0.9264   -0.2961    3.5866 H   0  0  0  0  0  0  0  0  0  0  0  0
    0.0331   -1.0338    2.2864 H   0  0  0  0  0  0  0  0  0  0  0  0
    1.1268    1.1588    0.9147 H   0  0  0  0  0  0  0  0  0  0  0  0
   -0.1006    1.9217   -0.0604 H   0  0  0  0  0  0  0  0  0  0  0  0
    0.1229    0.1691   -0.1349 H   0  0  0  0  0  0  0  0  0  0  0  0
  1  2  1  0  0  0  0 
  1  3  1  0  0  0  0 
  1  4  1  0  0  0  0 
  1  5  1  0  0  0  0 
  2  6  1  0  0  0  0 
  3  7  1  0  0  0  0 
  3  8  2  0  0  0  0 
  4  9  2  0  0  0  0 
  4 10  1  0  0  0  0 
  5 11  2  0  0  0  0 
  5 12  1  0  0  0  0 
  6 13  1  0  0  0  0 
  9 14  1  0  0  0  0 
 10 15  2  0  0  0  0 
 11 16  1  0  0  0  0 
 12 17  2  0  0  0  0 
 13 18  1  0  0  0  0 
 13 19  1  0  0  0  0 
 13 20  1  0  0  0  0 
 14 21  2  0  0  0  0 
 15 21  1  0  0  0  0 
 16 22  2  0  0  0  0 
 17 22  1  0  0  0  0 
 18 23  1  0  0  0  0 
 18 24  1  0  0  0  0 
 19 25  1  0  0  0  0 
 19 26  1  0  0  0  0 
  2 27  1  0  0  0  0 
  2 28  1  0  0  0  0 
  6 29  1  0  0  0  0 
  6 30  1  0  0  0  0 
  7 31  1  0  0  0  0 
  7 32  1  0  0  0  0 
  9 33  1  0  0  0  0 
 10 34  1  0  0  0  0 
 11 35  1  0  0  0  0 
 12 36  1  0  0  0  0 
 14 37  1  0  0  0  0 
 15 38  1  0  0  0  0 
 16 39  1  0  0  0  0 
 17 40  1  0  0  0  0 
 18 41  1  0  0  0  0 
 19 42  1  0  0  0  0 
 20 43  1  0  0  0  0 
 20 44  1  0  0  0  0 
 20 45  1  0  0  0  0 
 21 46  1  0  0  0  0 
 22 47  1  0  0  0  0 
 23 48  1  0  0  0  0 
 23 49  1  0  0  0  0 
 23 50  1  0  0  0  0 
 24 51  1  0  0  0  0 
 24 52  1  0  0  0  0 
 24 53  1  0  0  0  0 
 25 54  1  0  0  0  0 
 25 55  1  0  0  0  0 
 25 56  1  0  0  0  0 
 26 57  1  0  0  0  0 
 26 58  1  0  0  0  0 
 26 59  1  0  0  0  0 
M  CHG  1  13   1
M  END
> <cdk:Title>
isopropamide

> <Conformer>
1

> <SuperDrugID>
SD001330

$$$$
