cefodizime
  CDK     0628171802

 57 60  0  0  0  0  0  0  0  0999 V2000
    1.7108    7.3567   -0.7920 C   0  0  0  0  0  0  0  0  0  0  0  0
    1.8235    6.0152   -0.9271 O   0  0  0  0  0  0  0  0  0  0  0  0
    2.4883    7.9198    0.0123 O   0  0  0  0  0  0  0  0  0  0  0  0
    0.8072    8.1094   -1.5396 C   0  0  0  0  0  0  0  0  0  0  0  0
    1.3326    9.1669   -2.2017 N   0  0  0  0  0  0  0  0  0  0  0  0
   -0.5165    7.7964   -1.6760 C   0  0  0  0  0  0  0  0  0  0  0  0
    0.7388   10.3113   -2.7987 C   0  0  1  0  0  0  0  0  0  0  0  0
    2.5400    9.4126   -2.7344 C   0  0  0  0  0  0  0  0  0  0  0  0
   -1.1186    6.5825   -1.1026 C   0  0  2  0  0  0  0  0  0  0  0  0
   -1.4618    8.6635   -2.4115 C   0  0  2  0  0  0  0  0  0  0  0  0
    2.0976   10.5555   -3.5298 C   0  0  1  0  0  0  0  0  0  0  0  0
   -0.7131    9.7032   -3.7134 S   0  0  0  0  0  0  0  0  0  0  0  0
    3.6407    8.8206   -2.6714 O   0  0  0  0  0  0  0  0  0  0  0  0
   -1.1613    5.2923   -2.3943 S   0  0  0  0  0  0  0  0  0  0  0  0
    2.0758   10.2794   -4.9325 N   0  0  0  0  0  0  0  0  0  0  0  0
   -1.0974    3.7836   -1.5183 C   0  0  0  0  0  0  0  0  0  0  0  0
    3.1535   10.0916   -5.7440 C   0  0  0  0  0  0  0  0  0  0  0  0
    0.3578    2.8734   -1.1722 S   0  0  0  0  0  0  0  0  0  0  0  0
   -2.1343    3.1004   -0.9927 N   0  0  0  0  0  0  0  0  0  0  0  0
    2.9813    9.6281   -7.0482 C   0  0  0  0  0  0  0  0  0  0  0  0
    4.3158   10.3027   -5.3225 O   0  0  0  0  0  0  0  0  0  0  0  0
   -0.4703    1.5794   -0.3263 C   0  0  0  0  0  0  0  0  0  0  0  0
   -1.8352    1.9309   -0.3582 C   0  0  0  0  0  0  0  0  0  0  0  0
    3.5727   10.1897   -8.0441 N   0  0  0  0  0  0  0  0  0  0  0  0
    2.1641    8.5286   -7.3322 C   0  0  0  0  0  0  0  0  0  0  0  0
    0.1806    0.3807    0.2320 C   0  0  1  0  0  0  0  0  0  0  0  0
   -2.8992    1.1096    0.2433 C   0  0  0  0  0  0  0  0  0  0  0  0
    4.3437   11.2088   -8.0280 O   0  0  0  0  0  0  0  0  0  0  0  0
    1.1808    8.1152   -6.4768 N   0  0  0  0  0  0  0  0  0  0  0  0
    2.2670    7.7410   -8.4977 C   0  0  0  0  0  0  0  0  0  0  0  0
   -0.0964   -0.8050   -0.5977 C   0  0  0  0  0  0  0  0  0  0  0  0
    4.3033   11.8480   -9.3114 C   0  0  0  0  0  0  0  0  0  0  0  0
    0.4285    7.0534   -6.8259 C   0  0  0  0  0  0  0  0  0  0  0  0
    1.0323    6.5017   -8.3746 S   0  0  0  0  0  0  0  0  0  0  0  0
    0.2582   -0.8276   -1.9037 O   0  0  0  0  0  0  0  0  0  0  0  0
   -0.6743   -1.8034   -0.1126 O   0  0  0  0  0  0  0  0  0  0  0  0
   -0.5851    6.5368   -6.1222 N   0  0  0  0  0  0  0  0  0  0  0  0
    0.4843   11.0781   -2.0597 H   0  0  0  0  0  0  0  0  0  0  0  0
    2.4759    5.5193   -0.3890 H   0  0  0  0  0  0  0  0  0  0  0  0
   -2.1426    6.7610   -0.7673 H   0  0  0  0  0  0  0  0  0  0  0  0
   -0.5826    6.2114   -0.2297 H   0  0  0  0  0  0  0  0  0  0  0  0
   -1.9415    9.3272   -1.6891 H   0  0  0  0  0  0  0  0  0  0  0  0
   -2.2494    8.0862   -2.9015 H   0  0  0  0  0  0  0  0  0  0  0  0
    2.5911   11.4885   -3.2500 H   0  0  0  0  0  0  0  0  0  0  0  0
    1.2030   10.1797   -5.3411 H   0  0  0  0  0  0  0  0  0  0  0  0
    1.2606    0.5396    0.2695 H   0  0  0  0  0  0  0  0  0  0  0  0
   -0.1691    0.2292    1.2560 H   0  0  0  0  0  0  0  0  0  0  0  0
   -2.7103    0.9917    1.3108 H   0  0  0  0  0  0  0  0  0  0  0  0
   -3.8783    1.5740    0.1136 H   0  0  0  0  0  0  0  0  0  0  0  0
   -2.9181    0.1284   -0.2310 H   0  0  0  0  0  0  0  0  0  0  0  0
    2.9270    7.8521   -9.2707 H   0  0  0  0  0  0  0  0  0  0  0  0
    4.9752   12.7052   -9.2851 H   0  0  0  0  0  0  0  0  0  0  0  0
    4.6351   11.1786  -10.1099 H   0  0  0  0  0  0  0  0  0  0  0  0
    3.2960   12.2094   -9.5379 H   0  0  0  0  0  0  0  0  0  0  0  0
    0.0492   -1.6046   -2.4605 H   0  0  0  0  0  0  0  0  0  0  0  0
   -1.0615    5.7634   -6.4592 H   0  0  0  0  0  0  0  0  0  0  0  0
   -0.8424    6.9386   -5.2777 H   0  0  0  0  0  0  0  0  0  0  0  0
  1  2  1  0  0  0  0 
  1  3  2  0  0  0  0 
  1  4  1  0  0  0  0 
  4  5  1  0  0  0  0 
  4  6  2  0  0  0  0 
  7  5  1  0  0  0  0 
  5  8  1  0  0  0  0 
  6  9  1  0  0  0  0 
  6 10  1  0  0  0  0 
 11  7  1  0  0  0  0 
  7 12  1  0  0  0  0 
  7 38  1  0  0  0  0 
 11  8  1  0  0  0  0 
  8 13  2  0  0  0  0 
  9 14  1  0  0  0  0 
 10 12  1  0  0  0  0 
 11 15  1  0  0  0  0 
 14 16  1  0  0  0  0 
 15 17  1  0  0  0  0 
 16 18  1  0  0  0  0 
 16 19  2  0  0  0  0 
 17 20  1  0  0  0  0 
 17 21  2  0  0  0  0 
 18 22  1  0  0  0  0 
 19 23  1  0  0  0  0 
 20 24  2  0  0  0  0 
 20 25  1  0  0  0  0 
 22 23  2  0  0  0  0 
 22 26  1  0  0  0  0 
 23 27  1  0  0  0  0 
 24 28  1  0  0  0  0 
 25 29  1  0  0  0  0 
 25 30  2  0  0  0  0 
 26 31  1  0  0  0  0 
 28 32  1  0  0  0  0 
 29 33  2  0  0  0  0 
 30 34  1  0  0  0  0 
 31 35  1  0  0  0  0 
 31 36  2  0  0  0  0 
 33 34  1  0  0  0  0 
 33 37  1  0  0  0  0 
  2 39  1  0  0  0  0 
  9 40  1  0  0  0  0 
  9 41  1  0  0  0  0 
 10 42  1  0  0  0  0 
 10 43  1  0  0  0  0 
 11 44  1  0  0  0  0 
 15 45  1  0  0  0  0 
 26 46  1  0  0  0  0 
 26 47  1  0  0  0  0 
 27 48  1  0  0  0  0 
 27 49  1  0  0  0  0 
 27 50  1  0  0  0  0 
 30 51  1  0  0  0  0 
 32 52  1  0  0  0  0 
 32 53  1  0  0  0  0 
 32 54  1  0  0  0  0 
 35 55  1  0  0  0  0 
 37 56  1  0  0  0  0 
 37 57  1  0  0  0  0 
M  END
> <cdk:Title>
cefodizime

> <Conformer>
1

> <SuperDrugID>
SD000469

$$$$
