uridine triphosphate
  CDK     0628171801

 44 45  0  0  0  0  0  0  0  0999 V2000
    3.9734    0.0239   -1.3402 O   0  0  0  0  0  0  0  0  0  0  0  0
    4.0406   -1.3952   -1.1691 C   0  0  1  0  0  0  0  0  0  0  0  0
    4.5023   -1.7599    0.2688 C   0  0  1  0  0  0  0  0  0  0  0  0
    2.6481   -2.0293   -1.2358 C   0  0  2  0  0  0  0  0  0  0  0  0
    3.2943   -1.9258    1.0447 O   0  0  0  0  0  0  0  0  0  0  0  0
    5.4080   -2.9058    0.3203 N   0  0  0  0  0  0  0  0  0  0  0  0
    1.8277   -1.4260   -2.2314 O   0  0  0  0  0  0  0  0  0  0  0  0
    2.1377   -1.8032    0.2018 C   0  0  2  0  0  0  0  0  0  0  0  0
    6.6549   -2.8324   -0.2636 C   0  0  0  0  0  0  0  0  0  0  0  0
    5.0699   -4.0703    0.9706 C   0  0  0  0  0  0  0  0  0  0  0  0
    1.0220   -2.7769    0.6521 C   0  0  1  0  0  0  0  0  0  0  0  0
    7.0738   -1.8073   -0.8524 O   0  0  0  0  0  0  0  0  0  0  0  0
    7.5170   -3.8810   -0.2211 N   0  0  0  0  0  0  0  0  0  0  0  0
    5.9570   -5.1597    1.0413 C   0  0  0  0  0  0  0  0  0  0  0  0
    0.7588   -2.5553    2.0520 O   0  0  0  0  0  0  0  0  0  0  0  0
    7.2067   -5.0330    0.4183 C   0  0  0  0  0  0  0  0  0  0  0  0
    0.1923   -3.7611    2.9421 P   0  0  2  0  0  0  0  0  0  0  0  0
    8.0409   -5.9658    0.4493 O   0  0  0  0  0  0  0  0  0  0  0  0
   -1.3365   -4.0996    2.6147 O   0  0  0  0  0  0  0  0  0  0  0  0
    0.2415   -3.3099    4.3426 O   0  0  0  0  0  0  0  0  0  0  0  0
    1.1543   -5.0148    2.8182 O   0  0  0  0  0  0  0  0  0  0  0  0
   -1.6978   -5.2125    1.5246 P   0  0  2  0  0  0  0  0  0  0  0  0
   -1.2228   -4.7055    0.0924 O   0  0  0  0  0  0  0  0  0  0  0  0
   -3.1581   -5.3790    1.5203 O   0  0  0  0  0  0  0  0  0  0  0  0
   -1.0317   -6.5949    1.9159 O   0  0  0  0  0  0  0  0  0  0  0  0
   -1.1368   -5.7880   -1.0733 P   0  0  1  0  0  0  0  0  0  0  0  0
   -1.0902   -5.0922   -2.3650 O   0  0  0  0  0  0  0  0  0  0  0  0
    0.1898   -6.6384   -0.8957 O   0  0  0  0  0  0  0  0  0  0  0  0
   -2.3782   -6.7706   -1.0439 O   0  0  0  0  0  0  0  0  0  0  0  0
    4.9007    0.3404   -1.2826 H   0  0  0  0  0  0  0  0  0  0  0  0
    4.6848   -1.8009   -1.9526 H   0  0  0  0  0  0  0  0  0  0  0  0
    5.0319   -0.9117    0.7173 H   0  0  0  0  0  0  0  0  0  0  0  0
    2.7451   -3.0974   -1.4552 H   0  0  0  0  0  0  0  0  0  0  0  0
    0.9517   -1.8508   -2.1272 H   0  0  0  0  0  0  0  0  0  0  0  0
    1.7589   -0.7802    0.2955 H   0  0  0  0  0  0  0  0  0  0  0  0
    4.1616   -4.1812    1.4300 H   0  0  0  0  0  0  0  0  0  0  0  0
    0.1157   -2.5585    0.0817 H   0  0  0  0  0  0  0  0  0  0  0  0
    1.3500   -3.7963    0.4314 H   0  0  0  0  0  0  0  0  0  0  0  0
    8.3815   -3.8023   -0.6542 H   0  0  0  0  0  0  0  0  0  0  0  0
    5.6996   -6.0176    1.5370 H   0  0  0  0  0  0  0  0  0  0  0  0
    1.1566   -5.2430    1.8669 H   0  0  0  0  0  0  0  0  0  0  0  0
   -0.0818   -6.4816    1.7169 H   0  0  0  0  0  0  0  0  0  0  0  0
    0.0941   -7.0888   -0.0323 H   0  0  0  0  0  0  0  0  0  0  0  0
   -2.2080   -7.4052   -1.7710 H   0  0  0  0  0  0  0  0  0  0  0  0
  2  1  1  0  0  0  0 
  2  3  1  0  0  0  0 
  2  4  1  0  0  0  0 
  3  5  1  0  0  0  0 
  3  6  1  0  0  0  0 
  4  7  1  0  0  0  0 
  4  8  1  0  0  0  0 
  8  5  1  0  0  0  0 
  6  9  1  0  0  0  0 
  6 10  1  0  0  0  0 
  8 11  1  0  0  0  0 
  9 12  2  0  0  0  0 
  9 13  1  0  0  0  0 
 10 14  2  0  0  0  0 
 11 15  1  0  0  0  0 
 13 16  1  0  0  0  0 
 14 16  1  0  0  0  0 
 15 17  1  0  0  0  0 
 16 18  2  0  0  0  0 
 17 19  1  0  0  0  0 
 17 20  2  0  0  0  0 
 17 21  1  0  0  0  0 
 19 22  1  0  0  0  0 
 22 23  1  0  0  0  0 
 22 24  2  0  0  0  0 
 22 25  1  0  0  0  0 
 23 26  1  0  0  0  0 
 26 27  2  0  0  0  0 
 26 28  1  0  0  0  0 
 26 29  1  0  0  0  0 
 30  1  1  0  0  0  0 
  2 31  1  0  0  0  0 
  3 32  1  0  0  0  0 
  4 33  1  0  0  0  0 
 34  7  1  0  0  0  0 
  8 35  1  0  0  0  0 
 36 10  1  0  0  0  0 
 37 11  1  0  0  0  0 
 38 11  1  0  0  0  0 
 39 13  1  0  0  0  0 
 40 14  1  0  0  0  0 
 41 21  1  0  0  0  0 
 42 25  1  0  0  0  0 
 43 28  1  0  0  0  0 
 44 29  1  0  0  0  0 
M  END
> <cdk:Title>
uridine triphosphate

> <Conformer>
1

> <SuperDrugID>
SD003119

$$$$
