levodopa
  CDK     0628171801

 25 25  0  0  0  0  0  0  0  0999 V2000
    0.4413    0.9612   -3.3556 C   0  0  1  0  0  0  0  0  0  0  0  0
   -0.4280    2.1922   -2.9547 C   0  0  1  0  0  0  0  0  0  0  0  0
   -0.3255   -0.3083   -3.5095 C   0  0  0  0  0  0  0  0  0  0  0  0
   -0.8945    2.2083   -1.5492 C   0  0  0  0  0  0  0  0  0  0  0  0
    0.3420    3.4210   -3.1979 N   0  0  2  0  0  0  0  0  0  0  0  0
   -0.1064   -1.4077   -2.6477 C   0  0  0  0  0  0  0  0  0  0  0  0
   -1.2738   -0.4499   -4.5499 C   0  0  0  0  0  0  0  0  0  0  0  0
   -0.3772    1.3884   -0.6040 O   0  0  0  0  0  0  0  0  0  0  0  0
   -1.7830    3.0159   -1.1934 O   0  0  0  0  0  0  0  0  0  0  0  0
   -0.8352   -2.6048   -2.7936 C   0  0  0  0  0  0  0  0  0  0  0  0
   -1.9987   -1.6450   -4.7084 C   0  0  0  0  0  0  0  0  0  0  0  0
   -0.6036   -3.6488   -1.9553 O   0  0  0  0  0  0  0  0  0  0  0  0
   -1.7919   -2.7208   -3.8235 C   0  0  0  0  0  0  0  0  0  0  0  0
   -2.5193   -3.8545   -3.9860 O   0  0  0  0  0  0  0  0  0  0  0  0
    0.9237    1.1649   -4.3147 H   0  0  0  0  0  0  0  0  0  0  0  0
    1.2487    0.8478   -2.6258 H   0  0  0  0  0  0  0  0  0  0  0  0
   -1.3076    2.2364   -3.6010 H   0  0  0  0  0  0  0  0  0  0  0  0
    0.6073    3.4183   -4.1858 H   0  0  0  0  0  0  0  0  0  0  0  0
    1.2096    3.3446   -2.6626 H   0  0  0  0  0  0  0  0  0  0  0  0
    0.5922   -1.3457   -1.9049 H   0  0  0  0  0  0  0  0  0  0  0  0
   -1.4412    0.3179   -5.2049 H   0  0  0  0  0  0  0  0  0  0  0  0
   -0.6858    1.4415    0.3252 H   0  0  0  0  0  0  0  0  0  0  0  0
   -2.6798   -1.7255   -5.4664 H   0  0  0  0  0  0  0  0  0  0  0  0
    0.0516   -3.3337   -1.2960 H   0  0  0  0  0  0  0  0  0  0  0  0
   -2.4899   -4.3145   -3.1219 H   0  0  0  0  0  0  0  0  0  0  0  0
  2  1  1  0  0  0  0 
  1  3  1  0  0  0  0 
  2  4  1  0  0  0  0 
  2  5  1  0  0  0  0 
  3  6  2  0  0  0  0 
  3  7  1  0  0  0  0 
  4  8  1  0  0  0  0 
  4  9  2  0  0  0  0 
  6 10  1  0  0  0  0 
  7 11  2  0  0  0  0 
 10 12  1  0  0  0  0 
 10 13  2  0  0  0  0 
 11 13  1  0  0  0  0 
 13 14  1  0  0  0  0 
  1 15  1  0  0  0  0 
  1 16  1  0  0  0  0 
  2 17  1  0  0  0  0 
  5 18  1  0  0  0  0 
  5 19  1  0  0  0  0 
  6 20  1  0  0  0  0 
  7 21  1  0  0  0  0 
  8 22  1  0  0  0  0 
 11 23  1  0  0  0  0 
 12 24  1  0  0  0  0 
 14 25  1  0  0  0  0 
M  END
> <cdk:Title>
levodopa

> <Conformer>
1

> <SuperDrugID>
SD001383

$$$$
