nitracrine
  CDK     0628171801

 44 46  0  0  0  0  0  0  0  0999 V2000
   -0.3147   -1.4881   -4.1554 N   0  0  0  0  0  0  0  0  0  0  0  0
   -0.6791   -2.6169   -4.9558 C   0  0  1  0  0  0  0  0  0  0  0  0
    0.7943   -1.4499   -3.3586 C   0  0  0  0  0  0  0  0  0  0  0  0
   -1.9592   -2.3232   -5.7815 C   0  0  2  0  0  0  0  0  0  0  0  0
    0.6781   -1.6235   -1.9455 C   0  0  0  0  0  0  0  0  0  0  0  0
    2.0741   -1.2344   -3.9483 C   0  0  0  0  0  0  0  0  0  0  0  0
   -2.3422   -3.5081   -6.7111 C   0  0  1  0  0  0  0  0  0  0  0  0
    1.8914   -1.7313   -1.2025 C   0  0  0  0  0  0  0  0  0  0  0  0
   -0.5529   -1.7101   -1.2202 C   0  0  0  0  0  0  0  0  0  0  0  0
    3.2286   -1.3305   -3.1241 C   0  0  0  0  0  0  0  0  0  0  0  0
    2.2612   -0.9081   -5.3144 C   0  0  0  0  0  0  0  0  0  0  0  0
   -3.5808   -3.2914   -7.5339 N   0  0  2  0  0  0  0  0  0  0  0  0
    3.0934   -1.5934   -1.8070 N   0  0  0  0  0  0  0  0  0  0  0  0
    1.8881   -1.9748    0.1818 C   0  0  0  0  0  0  0  0  0  0  0  0
   -1.7420   -1.5308   -1.7770 N   0  0  0  0  0  0  0  0  0  0  0  0
   -0.5381   -1.9559    0.1743 C   0  0  0  0  0  0  0  0  0  0  0  0
    4.5217   -1.1406   -3.6519 C   0  0  0  0  0  0  0  0  0  0  0  0
    3.5505   -0.7051   -5.8400 C   0  0  0  0  0  0  0  0  0  0  0  0
   -4.8478   -3.2098   -6.7423 C   0  0  0  0  0  0  0  0  0  0  0  0
   -3.6899   -4.2839   -8.6443 C   0  0  0  0  0  0  0  0  0  0  0  0
    0.6735   -2.0913    0.8690 C   0  0  0  0  0  0  0  0  0  0  0  0
   -2.5563   -2.4968   -1.9113 O   0  0  0  0  0  0  0  0  0  0  0  0
   -2.0725   -0.4706   -2.1362 O   0  0  0  0  0  0  0  0  0  0  0  0
    4.6794   -0.8275   -5.0127 C   0  0  0  0  0  0  0  0  0  0  0  0
   -0.9228   -0.7336   -4.1275 H   0  0  0  0  0  0  0  0  0  0  0  0
    0.1392   -2.8817   -5.6287 H   0  0  0  0  0  0  0  0  0  0  0  0
   -0.8734   -3.4731   -4.3046 H   0  0  0  0  0  0  0  0  0  0  0  0
   -1.8019   -1.4337   -6.3972 H   0  0  0  0  0  0  0  0  0  0  0  0
   -2.7738   -2.1146   -5.0850 H   0  0  0  0  0  0  0  0  0  0  0  0
   -1.4931   -3.6600   -7.3854 H   0  0  0  0  0  0  0  0  0  0  0  0
   -2.4463   -4.4189   -6.1145 H   0  0  0  0  0  0  0  0  0  0  0  0
    1.4605   -0.8028   -5.9410 H   0  0  0  0  0  0  0  0  0  0  0  0
    2.7695   -2.0665    0.6954 H   0  0  0  0  0  0  0  0  0  0  0  0
   -1.4128   -2.0251    0.7017 H   0  0  0  0  0  0  0  0  0  0  0  0
    5.3494   -1.2174   -3.0536 H   0  0  0  0  0  0  0  0  0  0  0  0
    3.6681   -0.4630   -6.8260 H   0  0  0  0  0  0  0  0  0  0  0  0
   -4.8655   -2.2915   -6.1560 H   0  0  0  0  0  0  0  0  0  0  0  0
   -5.7271   -3.1736   -7.3902 H   0  0  0  0  0  0  0  0  0  0  0  0
   -4.9546   -4.0667   -6.0719 H   0  0  0  0  0  0  0  0  0  0  0  0
   -2.7939   -4.2579   -9.2692 H   0  0  0  0  0  0  0  0  0  0  0  0
   -4.5384   -4.0470   -9.2905 H   0  0  0  0  0  0  0  0  0  0  0  0
   -3.8160   -5.2972   -8.2535 H   0  0  0  0  0  0  0  0  0  0  0  0
    0.6712   -2.2641    1.8772 H   0  0  0  0  0  0  0  0  0  0  0  0
    5.6141   -0.6802   -5.3983 H   0  0  0  0  0  0  0  0  0  0  0  0
  1  2  1  0  0  0  0 
  1  3  1  0  0  0  0 
  2  4  1  0  0  0  0 
  3  5  1  0  0  0  0 
  3  6  2  0  0  0  0 
  4  7  1  0  0  0  0 
  5  8  1  0  0  0  0 
  5  9  2  0  0  0  0 
  6 10  1  0  0  0  0 
  6 11  1  0  0  0  0 
  7 12  1  0  0  0  0 
  8 13  1  0  0  0  0 
  8 14  2  0  0  0  0 
  9 15  1  0  0  0  0 
  9 16  1  0  0  0  0 
 10 13  2  0  0  0  0 
 10 17  1  0  0  0  0 
 11 18  2  0  0  0  0 
 12 19  1  0  0  0  0 
 12 20  1  0  0  0  0 
 14 21  1  0  0  0  0 
 15 22  1  0  0  0  0 
 15 23  2  0  0  0  0 
 16 21  2  0  0  0  0 
 17 24  2  0  0  0  0 
 18 24  1  0  0  0  0 
  1 25  1  0  0  0  0 
  2 26  1  0  0  0  0 
  2 27  1  0  0  0  0 
  4 28  1  0  0  0  0 
  4 29  1  0  0  0  0 
  7 30  1  0  0  0  0 
  7 31  1  0  0  0  0 
 11 32  1  0  0  0  0 
 14 33  1  0  0  0  0 
 16 34  1  0  0  0  0 
 17 35  1  0  0  0  0 
 18 36  1  0  0  0  0 
 19 37  1  0  0  0  0 
 19 38  1  0  0  0  0 
 19 39  1  0  0  0  0 
 20 40  1  0  0  0  0 
 20 41  1  0  0  0  0 
 20 42  1  0  0  0  0 
 21 43  1  0  0  0  0 
 24 44  1  0  0  0  0 
M  CHG  1  15   1
M  CHG  1  22  -1
M  END
> <cdk:Title>
nitracrine

> <Conformer>
1

> <SuperDrugID>
SD002915

$$$$
