prasugrel
  CDK     0628171801

 46 49  0  0  0  0  0  0  0  0999 V2000
   -1.2137   -4.2837    0.8483 C   0  0  2  0  0  0  0  0  0  0  0  0
   -0.3833   -5.4014    0.3010 C   0  0  0  0  0  0  0  0  0  0  0  0
   -2.6570   -4.6920    1.0543 N   0  0  1  0  0  0  0  0  0  0  0  0
   -1.0516   -3.0893   -0.0527 C   0  0  0  0  0  0  0  0  0  0  0  0
   -0.6284   -5.8737   -0.8344 O   0  0  0  0  0  0  0  0  0  0  0  0
    0.6388   -6.0937    1.1198 C   0  0  1  0  0  0  0  0  0  0  0  0
   -2.8316   -5.8905    1.9506 C   0  0  2  0  0  0  0  0  0  0  0  0
   -3.6015   -3.5910    1.4823 C   0  0  1  0  0  0  0  0  0  0  0  0
   -0.2948   -1.9472    0.3275 C   0  0  0  0  0  0  0  0  0  0  0  0
   -1.6941   -3.0656   -1.3174 C   0  0  0  0  0  0  0  0  0  0  0  0
    1.9862   -6.4642    0.4752 C   0  0  2  0  0  0  0  0  0  0  0  0
    1.9145   -5.3207    1.4917 C   0  0  1  0  0  0  0  0  0  0  0  0
   -4.2232   -6.3740    1.9279 C   0  0  0  0  0  0  0  0  0  0  0  0
   -5.0992   -4.0337    1.4665 C   0  0  1  0  0  0  0  0  0  0  0  0
    0.3348   -1.8895    1.4723 F   0  0  0  0  0  0  0  0  0  0  0  0
   -0.1981   -0.8279   -0.5242 C   0  0  0  0  0  0  0  0  0  0  0  0
   -1.5983   -1.9470   -2.1650 C   0  0  0  0  0  0  0  0  0  0  0  0
   -5.2739   -5.4697    1.7467 C   0  0  0  0  0  0  0  0  0  0  0  0
   -4.6060   -7.7259    2.0370 C   0  0  0  0  0  0  0  0  0  0  0  0
   -0.8531   -0.8258   -1.7674 C   0  0  0  0  0  0  0  0  0  0  0  0
   -6.7580   -6.4052    1.7709 S   0  0  0  0  0  0  0  0  0  0  0  0
   -5.9793   -7.9732    1.9505 C   0  0  0  0  0  0  0  0  0  0  0  0
   -6.5223   -9.2259    1.9878 O   0  0  0  0  0  0  0  0  0  0  0  0
   -7.8292   -9.6099    1.9333 C   0  0  0  0  0  0  0  0  0  0  0  0
   -8.1263  -11.0510    1.9498 C   0  0  0  0  0  0  0  0  0  0  0  0
   -8.7692   -8.7825    1.8725 O   0  0  0  0  0  0  0  0  0  0  0  0
   -0.8214   -4.0407    1.8404 H   0  0  0  0  0  0  0  0  0  0  0  0
    0.2973   -6.7898    1.8877 H   0  0  0  0  0  0  0  0  0  0  0  0
   -2.5757   -5.6360    2.9837 H   0  0  0  0  0  0  0  0  0  0  0  0
   -2.1922   -6.7150    1.6338 H   0  0  0  0  0  0  0  0  0  0  0  0
   -3.3317   -3.2516    2.4883 H   0  0  0  0  0  0  0  0  0  0  0  0
   -3.5224   -2.7212    0.8253 H   0  0  0  0  0  0  0  0  0  0  0  0
   -2.2500   -3.8660   -1.6252 H   0  0  0  0  0  0  0  0  0  0  0  0
    2.1513   -6.1565   -0.5588 H   0  0  0  0  0  0  0  0  0  0  0  0
    2.4525   -7.3834    0.8354 H   0  0  0  0  0  0  0  0  0  0  0  0
    2.0423   -4.3226    1.0685 H   0  0  0  0  0  0  0  0  0  0  0  0
    2.3498   -5.5453    2.4667 H   0  0  0  0  0  0  0  0  0  0  0  0
   -5.6666   -3.4501    2.1950 H   0  0  0  0  0  0  0  0  0  0  0  0
   -5.5172   -3.8461    0.4753 H   0  0  0  0  0  0  0  0  0  0  0  0
    0.3486   -0.0108   -0.2413 H   0  0  0  0  0  0  0  0  0  0  0  0
   -2.0784   -1.9461   -3.0674 H   0  0  0  0  0  0  0  0  0  0  0  0
   -3.9243   -8.4796    2.1547 H   0  0  0  0  0  0  0  0  0  0  0  0
   -0.7928   -0.0113   -2.3830 H   0  0  0  0  0  0  0  0  0  0  0  0
   -7.7197  -11.5165    1.0497 H   0  0  0  0  0  0  0  0  0  0  0  0
   -7.6742  -11.5262    2.8238 H   0  0  0  0  0  0  0  0  0  0  0  0
   -9.2042  -11.2245    1.9788 H   0  0  0  0  0  0  0  0  0  0  0  0
  1  2  1  0  0  0  0 
  1  3  1  0  0  0  0 
  1  4  1  0  0  0  0 
  2  5  2  0  0  0  0 
  2  6  1  0  0  0  0 
  3  7  1  0  0  0  0 
  3  8  1  0  0  0  0 
  4  9  2  0  0  0  0 
  4 10  1  0  0  0  0 
  6 11  1  0  0  0  0 
  6 12  1  0  0  0  0 
  7 13  1  0  0  0  0 
  8 14  1  0  0  0  0 
  9 15  1  0  0  0  0 
  9 16  1  0  0  0  0 
 10 17  2  0  0  0  0 
 11 12  1  0  0  0  0 
 13 18  2  0  0  0  0 
 13 19  1  0  0  0  0 
 14 18  1  0  0  0  0 
 16 20  2  0  0  0  0 
 17 20  1  0  0  0  0 
 18 21  1  0  0  0  0 
 19 22  2  0  0  0  0 
 21 22  1  0  0  0  0 
 22 23  1  0  0  0  0 
 23 24  1  0  0  0  0 
 24 25  1  0  0  0  0 
 24 26  2  0  0  0  0 
  1 27  1  0  0  0  0 
  6 28  1  0  0  0  0 
  7 29  1  0  0  0  0 
  7 30  1  0  0  0  0 
  8 31  1  0  0  0  0 
  8 32  1  0  0  0  0 
 10 33  1  0  0  0  0 
 11 34  1  0  0  0  0 
 11 35  1  0  0  0  0 
 12 36  1  0  0  0  0 
 12 37  1  0  0  0  0 
 14 38  1  0  0  0  0 
 14 39  1  0  0  0  0 
 16 40  1  0  0  0  0 
 17 41  1  0  0  0  0 
 19 42  1  0  0  0  0 
 20 43  1  0  0  0  0 
 25 44  1  0  0  0  0 
 25 45  1  0  0  0  0 
 25 46  1  0  0  0  0 
M  END
> <cdk:Title>
prasugrel

> <Conformer>
1

> <SuperDrugID>
SD003358

$$$$
