isoxicam
  CDK     0628171801

 36 38  0  0  0  0  0  0  0  0999 V2000
   -1.1846    0.6096   -1.1534 O   0  0  0  0  0  0  0  0  0  0  0  0
   -2.1200    1.3549   -0.7682 C   0  0  0  0  0  0  0  0  0  0  0  0
   -2.0504    2.7496   -1.1101 C   0  0  0  0  0  0  0  0  0  0  0  0
   -3.2650    0.7404   -0.0038 C   0  0  1  0  0  0  0  0  0  0  0  0
   -2.8941    3.7103   -0.4953 C   0  0  0  0  0  0  0  0  0  0  0  0
   -1.1158    3.2310   -2.0674 C   0  0  0  0  0  0  0  0  0  0  0  0
   -2.9997   -0.6839    0.3716 C   0  0  0  0  0  0  0  0  0  0  0  0
   -3.6296    1.5546    1.2077 N   0  0  1  0  0  0  0  0  0  0  0  0
   -4.0664    3.1992    0.7174 S   0  0  1  0  0  0  0  0  0  0  0  0
   -2.8135    5.0806   -0.8207 C   0  0  0  0  0  0  0  0  0  0  0  0
   -1.0189    4.6012   -2.3818 C   0  0  0  0  0  0  0  0  0  0  0  0
   -2.0871   -0.9400    1.3500 N   0  0  0  0  0  0  0  0  0  0  0  0
   -3.6426   -1.6030   -0.1909 O   0  0  0  0  0  0  0  0  0  0  0  0
   -4.7011    1.0083    2.0906 C   0  0  0  0  0  0  0  0  0  0  0  0
   -4.0268    4.1691    1.9941 O   0  0  0  0  0  0  0  0  0  0  0  0
   -5.5341    3.2020    0.0708 O   0  0  0  0  0  0  0  0  0  0  0  0
   -1.8672    5.5279   -1.7557 C   0  0  0  0  0  0  0  0  0  0  0  0
   -1.7360   -2.1410    1.8665 C   0  0  0  0  0  0  0  0  0  0  0  0
   -2.0865   -3.3788    1.4709 N   0  0  0  0  0  0  0  0  0  0  0  0
   -0.9019   -2.2743    2.9626 C   0  0  0  0  0  0  0  0  0  0  0  0
   -1.5179   -4.2685    2.2456 O   0  0  0  0  0  0  0  0  0  0  0  0
   -0.7696   -3.6349    3.1796 C   0  0  0  0  0  0  0  0  0  0  0  0
    0.0476   -4.2648    4.2245 C   0  0  0  0  0  0  0  0  0  0  0  0
   -4.1228    0.7530   -0.6868 H   0  0  0  0  0  0  0  0  0  0  0  0
   -0.4853    2.5870   -2.5511 H   0  0  0  0  0  0  0  0  0  0  0  0
   -3.4355    5.7591   -0.3759 H   0  0  0  0  0  0  0  0  0  0  0  0
   -0.3296    4.9270   -3.0641 H   0  0  0  0  0  0  0  0  0  0  0  0
   -1.6466   -0.1712    1.7407 H   0  0  0  0  0  0  0  0  0  0  0  0
   -5.6123    0.8048    1.5239 H   0  0  0  0  0  0  0  0  0  0  0  0
   -4.9366    1.7055    2.8968 H   0  0  0  0  0  0  0  0  0  0  0  0
   -4.3745    0.0834    2.5670 H   0  0  0  0  0  0  0  0  0  0  0  0
   -1.7940    6.5249   -1.9762 H   0  0  0  0  0  0  0  0  0  0  0  0
   -0.4712   -1.5220    3.5046 H   0  0  0  0  0  0  0  0  0  0  0  0
    0.0371   -5.3470    4.1034 H   0  0  0  0  0  0  0  0  0  0  0  0
    1.0775   -3.9127    4.1505 H   0  0  0  0  0  0  0  0  0  0  0  0
   -0.3440   -4.0101    5.2097 H   0  0  0  0  0  0  0  0  0  0  0  0
  1  2  2  0  0  0  0 
  2  3  1  0  0  0  0 
  2  4  1  0  0  0  0 
  3  5  2  0  0  0  0 
  3  6  1  0  0  0  0 
  4  7  1  0  0  0  0 
  4  8  1  0  0  0  0 
  5  9  1  0  0  0  0 
  5 10  1  0  0  0  0 
  6 11  2  0  0  0  0 
  7 12  1  0  0  0  0 
  7 13  2  0  0  0  0 
  8  9  1  0  0  0  0 
  8 14  1  0  0  0  0 
  9 15  2  0  0  0  0 
  9 16  2  0  0  0  0 
 10 17  2  0  0  0  0 
 11 17  1  0  0  0  0 
 12 18  1  0  0  0  0 
 18 19  2  0  0  0  0 
 18 20  1  0  0  0  0 
 19 21  1  0  0  0  0 
 20 22  2  0  0  0  0 
 21 22  1  0  0  0  0 
 22 23  1  0  0  0  0 
 24  4  1  0  0  0  0 
 25  6  1  0  0  0  0 
 26 10  1  0  0  0  0 
 27 11  1  0  0  0  0 
 28 12  1  0  0  0  0 
 29 14  1  0  0  0  0 
 30 14  1  0  0  0  0 
 31 14  1  0  0  0  0 
 32 17  1  0  0  0  0 
 33 20  1  0  0  0  0 
 34 23  1  0  0  0  0 
 35 23  1  0  0  0  0 
 36 23  1  0  0  0  0 
M  END
> <cdk:Title>
isoxicam

> <Conformer>
1

> <SuperDrugID>
SD001336

$$$$
