pirenoxine
  CDK     0628171801

 31 34  0  0  0  0  0  0  0  0999 V2000
    2.4168   -4.3815   -0.9914 O   0  0  0  0  0  0  0  0  0  0  0  0
    1.3010   -3.6347   -0.8050 C   0  0  0  0  0  0  0  0  0  0  0  0
   -0.0072   -4.1872   -0.8409 C   0  0  0  0  0  0  0  0  0  0  0  0
    1.4960   -2.2638   -0.5492 C   0  0  0  0  0  0  0  0  0  0  0  0
   -0.2918   -5.5577   -1.0904 C   0  0  0  0  0  0  0  0  0  0  0  0
   -1.0979   -3.2985   -0.6133 C   0  0  0  0  0  0  0  0  0  0  0  0
    0.3834   -1.4295   -0.3099 C   0  0  0  0  0  0  0  0  0  0  0  0
   -1.6345   -6.0212   -1.0806 C   0  0  0  0  0  0  0  0  0  0  0  0
    0.6747   -6.4763   -1.3623 N   0  0  0  0  0  0  0  0  0  0  0  0
   -0.8547   -1.9840   -0.3636 N   0  0  0  0  0  0  0  0  0  0  0  0
   -2.4302   -3.7669   -0.6303 C   0  0  0  0  0  0  0  0  0  0  0  0
    0.5002   -0.0582    0.0083 C   0  0  0  0  0  0  0  0  0  0  0  0
   -1.8904   -7.3433   -1.3189 O   0  0  0  0  0  0  0  0  0  0  0  0
   -2.6940   -5.1303   -0.8499 C   0  0  0  0  0  0  0  0  0  0  0  0
    0.4364   -7.7873   -1.6185 C   0  0  0  0  0  0  0  0  0  0  0  0
   -3.3960   -2.9882   -0.4521 O   0  0  0  0  0  0  0  0  0  0  0  0
   -0.5957    0.6757    0.3163 O   0  0  0  0  0  0  0  0  0  0  0  0
    1.6062    0.5290    0.0497 O   0  0  0  0  0  0  0  0  0  0  0  0
   -0.9030   -8.2462   -1.5901 C   0  0  0  0  0  0  0  0  0  0  0  0
    1.4802   -8.6829   -1.9216 C   0  0  0  0  0  0  0  0  0  0  0  0
   -1.1910   -9.5973   -1.8587 C   0  0  0  0  0  0  0  0  0  0  0  0
    1.1875  -10.0319   -2.2007 C   0  0  0  0  0  0  0  0  0  0  0  0
   -0.1444  -10.4887   -2.1669 C   0  0  0  0  0  0  0  0  0  0  0  0
    2.3383   -5.1132   -0.3440 H   0  0  0  0  0  0  0  0  0  0  0  0
    2.4486   -1.8880   -0.5235 H   0  0  0  0  0  0  0  0  0  0  0  0
   -3.6575   -5.4760   -0.8510 H   0  0  0  0  0  0  0  0  0  0  0  0
   -0.4973    1.6184    0.5652 H   0  0  0  0  0  0  0  0  0  0  0  0
    2.4501   -8.3583   -1.9480 H   0  0  0  0  0  0  0  0  0  0  0  0
   -2.1565   -9.9320   -1.8392 H   0  0  0  0  0  0  0  0  0  0  0  0
    1.9440  -10.6821   -2.4314 H   0  0  0  0  0  0  0  0  0  0  0  0
   -0.3508  -11.4699   -2.3674 H   0  0  0  0  0  0  0  0  0  0  0  0
  1  2  1  0  0  0  0 
  2  3  2  0  0  0  0 
  2  4  1  0  0  0  0 
  3  5  1  0  0  0  0 
  3  6  1  0  0  0  0 
  4  7  2  0  0  0  0 
  5  8  1  0  0  0  0 
  5  9  2  0  0  0  0 
  6 10  2  0  0  0  0 
  6 11  1  0  0  0  0 
  7 10  1  0  0  0  0 
  7 12  1  0  0  0  0 
  8 13  1  0  0  0  0 
  8 14  2  0  0  0  0 
  9 15  1  0  0  0  0 
 11 14  1  0  0  0  0 
 11 16  2  0  0  0  0 
 12 17  1  0  0  0  0 
 12 18  2  0  0  0  0 
 13 19  1  0  0  0  0 
 15 19  1  0  0  0  0 
 15 20  2  0  0  0  0 
 19 21  2  0  0  0  0 
 20 22  1  0  0  0  0 
 21 23  1  0  0  0  0 
 22 23  2  0  0  0  0 
 24  1  1  0  0  0  0 
 25  4  1  0  0  0  0 
 26 14  1  0  0  0  0 
 27 17  1  0  0  0  0 
 28 20  1  0  0  0  0 
 29 21  1  0  0  0  0 
 30 22  1  0  0  0  0 
 31 23  1  0  0  0  0 
M  END
> <cdk:Title>
pirenoxine

> <Conformer>
1

> <SuperDrugID>
SD002997

$$$$
