naltrexone
  CDK     0628171801

 48 53  0  0  0  0  0  0  0  0999 V2000
   -2.1320    2.1678    1.5047 O   0  0  0  0  0  0  0  0  0  0  0  0
   -1.2196    2.5135    2.5503 C   0  0  1  0  0  0  0  0  0  0  0  0
   -1.8371    2.0830    3.9225 C   0  0  1  0  0  0  0  0  0  0  0  0
    0.1286    1.6997    2.4156 C   0  0  1  0  0  0  0  0  0  0  0  0
   -1.0615    4.0663    2.4517 C   0  0  1  0  0  0  0  0  0  0  0  0
   -0.8907    2.3952    4.9939 C   0  0  0  0  0  0  0  0  0  0  0  0
   -3.0341    2.9404    4.4575 C   0  0  1  0  0  0  0  0  0  0  0  0
   -2.1394    0.5420    3.9185 C   0  0  1  0  0  0  0  0  0  0  0  0
    1.1438    2.0384    3.5784 C   0  0  1  0  0  0  0  0  0  0  0  0
   -0.1294    0.2049    2.3729 N   0  0  1  0  0  0  0  0  0  0  0  0
   -2.4052    4.7972    2.7162 C   0  0  2  0  0  0  0  0  0  0  0  0
   -1.5563    2.8507    6.1210 C   0  0  0  0  0  0  0  0  0  0  0  0
    0.5144    2.3526    4.8959 C   0  0  0  0  0  0  0  0  0  0  0  0
   -2.8976    2.9418    5.9055 O   0  0  0  0  0  0  0  0  0  0  0  0
   -3.0815    4.3492    3.9585 C   0  0  0  0  0  0  0  0  0  0  0  0
   -0.8930   -0.3155    3.5575 C   0  0  1  0  0  0  0  0  0  0  0  0
   -0.5337   -0.4167    1.0639 C   0  0  2  0  0  0  0  0  0  0  0  0
   -0.8294    3.1936    7.2751 C   0  0  0  0  0  0  0  0  0  0  0  0
    1.2494    2.6996    6.0550 C   0  0  0  0  0  0  0  0  0  0  0  0
   -3.7865    5.1785    4.5806 O   0  0  0  0  0  0  0  0  0  0  0  0
    0.5277   -0.2614   -0.0519 C   0  0  1  0  0  0  0  0  0  0  0  0
   -1.4553    3.6156    8.4019 O   0  0  0  0  0  0  0  0  0  0  0  0
    0.5811    3.1052    7.2364 C   0  0  0  0  0  0  0  0  0  0  0  0
    0.0505   -0.5052   -1.4960 C   0  0  2  0  0  0  0  0  0  0  0  0
    0.4423    0.9084   -1.0458 C   0  0  1  0  0  0  0  0  0  0  0  0
   -3.9882    2.4745    4.1919 H   0  0  0  0  0  0  0  0  0  0  0  0
    0.6169    2.0028    1.4877 H   0  0  0  0  0  0  0  0  0  0  0  0
   -1.6785    2.4210    0.6744 H   0  0  0  0  0  0  0  0  0  0  0  0
   -0.3261    4.4301    3.1709 H   0  0  0  0  0  0  0  0  0  0  0  0
   -0.6956    4.3353    1.4573 H   0  0  0  0  0  0  0  0  0  0  0  0
   -2.5123    0.2201    4.8959 H   0  0  0  0  0  0  0  0  0  0  0  0
   -2.9275    0.3318    3.1914 H   0  0  0  0  0  0  0  0  0  0  0  0
    1.8484    1.2125    3.7062 H   0  0  0  0  0  0  0  0  0  0  0  0
    1.7275    2.9154    3.2847 H   0  0  0  0  0  0  0  0  0  0  0  0
   -3.0859    4.6261    1.8787 H   0  0  0  0  0  0  0  0  0  0  0  0
   -2.2134    5.8736    2.7617 H   0  0  0  0  0  0  0  0  0  0  0  0
   -0.2129   -0.3342    4.4121 H   0  0  0  0  0  0  0  0  0  0  0  0
   -1.2100   -1.3533    3.4146 H   0  0  0  0  0  0  0  0  0  0  0  0
   -1.5078   -0.0493    0.7366 H   0  0  0  0  0  0  0  0  0  0  0  0
   -0.6405   -1.4968    1.1932 H   0  0  0  0  0  0  0  0  0  0  0  0
    2.2723    2.6755    6.0417 H   0  0  0  0  0  0  0  0  0  0  0  0
    1.5329   -0.6439    0.1386 H   0  0  0  0  0  0  0  0  0  0  0  0
   -2.4138    3.5926    8.1998 H   0  0  0  0  0  0  0  0  0  0  0  0
    1.1291    3.3491    8.0662 H   0  0  0  0  0  0  0  0  0  0  0  0
   -1.0196   -0.6558   -1.6641 H   0  0  0  0  0  0  0  0  0  0  0  0
    0.7615   -0.9881   -2.1660 H   0  0  0  0  0  0  0  0  0  0  0  0
   -0.3871    1.6043   -0.9158 H   0  0  0  0  0  0  0  0  0  0  0  0
    1.4000    1.2845   -1.4134 H   0  0  0  0  0  0  0  0  0  0  0  0
  2  1  1  0  0  0  0 
  3  2  1  0  0  0  0 
  2  4  1  0  0  0  0 
  2  5  1  0  0  0  0 
  3  6  1  0  0  0  0 
  7  3  1  0  0  0  0 
  3  8  1  0  0  0  0 
  4  9  1  0  0  0  0 
  4 10  1  0  0  0  0 
  4 27  1  0  0  0  0 
  5 11  1  0  0  0  0 
  6 12  2  0  0  0  0 
  6 13  1  0  0  0  0 
  7 14  1  0  0  0  0 
  7 15  1  0  0  0  0 
  7 26  1  0  0  0  0 
  8 16  1  0  0  0  0 
  9 13  1  0  0  0  0 
 10 16  1  0  0  0  0 
 10 17  1  0  0  0  0 
 11 15  1  0  0  0  0 
 12 14  1  0  0  0  0 
 12 18  1  0  0  0  0 
 13 19  2  0  0  0  0 
 15 20  2  0  0  0  0 
 17 21  1  0  0  0  0 
 18 22  1  0  0  0  0 
 18 23  2  0  0  0  0 
 19 23  1  0  0  0  0 
 21 24  1  0  0  0  0 
 21 25  1  0  0  0  0 
 24 25  1  0  0  0  0 
  1 28  1  0  0  0  0 
  5 29  1  0  0  0  0 
  5 30  1  0  0  0  0 
  8 31  1  0  0  0  0 
  8 32  1  0  0  0  0 
  9 33  1  0  0  0  0 
  9 34  1  0  0  0  0 
 11 35  1  0  0  0  0 
 11 36  1  0  0  0  0 
 16 37  1  0  0  0  0 
 16 38  1  0  0  0  0 
 17 39  1  0  0  0  0 
 17 40  1  0  0  0  0 
 19 41  1  0  0  0  0 
 21 42  1  0  0  0  0 
 22 43  1  0  0  0  0 
 23 44  1  0  0  0  0 
 24 45  1  0  0  0  0 
 24 46  1  0  0  0  0 
 25 47  1  0  0  0  0 
 25 48  1  0  0  0  0 
M  END
> <cdk:Title>
naltrexone

> <Conformer>
1

> <SuperDrugID>
SD001565

$$$$
