rifabutin
  CDK     0628171801

123128  0  0  0  0  0  0  0  0999 V2000
    2.6410   -0.2831    0.2466 C   0  0  2  0  0  0  0  0  0  0  0  0
    3.6045   -0.0529   -0.9828 C   0  0  1  0  0  0  0  0  0  0  0  0
    4.5341    1.2061   -0.7492 C   0  0  2  0  0  0  0  0  0  0  0  0
    5.1854    1.8945   -2.0082 C   0  0  2  0  0  0  0  0  0  0  0  0
    6.3188    1.1633   -2.5864 C   0  0  0  0  0  0  0  0  0  0  0  0
    6.6743   -2.6392   -4.1615 O   0  0  0  0  0  0  0  0  0  0  0  0
    6.5870   -1.4986   -4.6732 C   0  0  0  0  0  0  0  0  0  0  0  0
    7.7399   -0.7141   -4.7322 C   0  0  0  0  0  0  0  0  0  0  0  0
    7.7683    0.5919   -4.3713 C   0  0  0  0  0  0  0  0  0  0  0  0
    6.7295    1.3016   -3.8599 C   0  0  0  0  0  0  0  0  0  0  0  0
    8.9777   -1.3357   -5.2047 C   0  0  0  0  0  0  0  0  0  0  0  0
    1.7574   -1.5906    0.3164 C   0  0  2  0  0  0  0  0  0  0  0  0
    0.6972   -1.7679   -0.8475 C   0  0  1  0  0  0  0  0  0  0  0  0
    0.0730   -3.2284   -0.9437 C   0  0  1  0  0  0  0  0  0  0  0  0
   -0.3090   -0.7536   -0.6764 O   0  0  0  0  0  0  0  0  0  0  0  0
   -1.4685   -3.4008   -1.2724 C   0  0  2  0  0  0  0  0  0  0  0  0
   -1.8413   -3.4308   -2.6856 C   0  0  0  0  0  0  0  0  0  0  0  0
   -1.9050   -4.0928   -5.7320 C   0  0  1  0  0  0  0  0  0  0  0  0
   -0.4403   -4.2522   -5.6932 C   0  0  0  0  0  0  0  0  0  0  0  0
    0.1413   -2.9908   -5.6439 C   0  0  0  0  0  0  0  0  0  0  0  0
   -0.9194   -2.0866   -5.6830 C   0  0  0  0  0  0  0  0  0  0  0  0
   -2.1418   -2.6757   -5.7937 O   0  0  0  0  0  0  0  0  0  0  0  0
   -2.4984   -4.7305   -7.0141 C   0  0  0  0  0  0  0  0  0  0  0  0
    1.4811   -2.5456   -5.5263 C   0  0  0  0  0  0  0  0  0  0  0  0
    1.7170   -1.1342   -5.4008 C   0  0  0  0  0  0  0  0  0  0  0  0
    0.6124   -0.2329   -5.4510 C   0  0  0  0  0  0  0  0  0  0  0  0
   -0.7158   -0.6974   -5.5896 C   0  0  0  0  0  0  0  0  0  0  0  0
    2.6036   -3.4049   -5.5211 C   0  0  0  0  0  0  0  0  0  0  0  0
    3.8876   -2.9099   -5.3631 C   0  0  0  0  0  0  0  0  0  0  0  0
    4.1628   -1.5409   -5.2279 C   0  0  0  0  0  0  0  0  0  0  0  0
    3.0547   -0.6625   -5.2354 C   0  0  0  0  0  0  0  0  0  0  0  0
    0.7758    1.1161   -5.3784 O   0  0  0  0  0  0  0  0  0  0  0  0
    3.3261    0.6587   -5.0556 O   0  0  0  0  0  0  0  0  0  0  0  0
    2.7147   -4.6986   -5.6835 N   0  0  0  0  0  0  0  0  0  0  0  0
    5.4102   -0.9896   -5.1444 N   0  0  0  0  0  0  0  0  0  0  0  0
   -1.8555    0.2563   -5.6304 C   0  0  0  0  0  0  0  0  0  0  0  0
    0.1209   -5.3701   -5.6471 O   0  0  0  0  0  0  0  0  0  0  0  0
    4.7135   -3.9102   -5.4121 N   0  0  0  0  0  0  0  0  0  0  0  0
    5.6382    3.3451   -1.6532 C   0  0  0  0  0  0  0  0  0  0  0  0
    4.4284   -1.3326   -1.3100 C   0  0  0  0  0  0  0  0  0  0  0  0
    1.7743    0.8428    0.4192 O   0  0  0  0  0  0  0  0  0  0  0  0
    0.9671   -4.1665   -1.8150 C   0  0  0  0  0  0  0  0  0  0  0  0
    1.1245   -1.6828    1.7474 C   0  0  0  0  0  0  0  0  0  0  0  0
    5.5445    0.9360    0.2274 O   0  0  0  0  0  0  0  0  0  0  0  0
   -2.3316   -2.3915   -0.6960 O   0  0  0  0  0  0  0  0  0  0  0  0
    4.0520   -5.1111   -5.6109 C   0  0  1  0  0  0  0  0  0  0  0  0
    4.2995   -6.0375   -4.3734 C   0  0  2  0  0  0  0  0  0  0  0  0
    3.9654   -7.5188   -4.6945 C   0  0  2  0  0  0  0  0  0  0  0  0
    4.6545   -8.0195   -5.9286 N   0  0  1  0  0  0  0  0  0  0  0  0
    4.2305   -7.2152   -7.1168 C   0  0  2  0  0  0  0  0  0  0  0  0
    4.5732   -5.7132   -6.9574 C   0  0  1  0  0  0  0  0  0  0  0  0
    6.1437   -8.2388   -5.8408 C   0  0  2  0  0  0  0  0  0  0  0  0
    6.6110   -9.3389   -4.8359 C   0  0  1  0  0  0  0  0  0  0  0  0
    6.0008  -10.7214   -5.1915 C   0  0  0  0  0  0  0  0  0  0  0  0
    8.1626   -9.4084   -4.7477 C   0  0  0  0  0  0  0  0  0  0  0  0
   -2.1361   -4.5635   -3.3507 C   0  0  0  0  0  0  0  0  0  0  0  0
   -2.6257   -4.6430   -4.6024 O   0  0  0  0  0  0  0  0  0  0  0  0
   -0.6041    0.3170   -1.4699 C   0  0  0  0  0  0  0  0  0  0  0  0
   -1.7401    1.1665   -1.0980 C   0  0  0  0  0  0  0  0  0  0  0  0
    0.0788    0.6009   -2.4785 O   0  0  0  0  0  0  0  0  0  0  0  0
   -2.6441   -2.5104    0.7006 C   0  0  0  0  0  0  0  0  0  0  0  0
    3.2847   -0.3003    1.1306 H   0  0  0  0  0  0  0  0  0  0  0  0
    2.9732    0.1642   -1.8477 H   0  0  0  0  0  0  0  0  0  0  0  0
    3.9051    1.9761   -0.3005 H   0  0  0  0  0  0  0  0  0  0  0  0
    4.4012    1.9862   -2.7664 H   0  0  0  0  0  0  0  0  0  0  0  0
    6.8238    0.5422   -1.9960 H   0  0  0  0  0  0  0  0  0  0  0  0
    8.6174    1.1014   -4.4710 H   0  0  0  0  0  0  0  0  0  0  0  0
    6.2641    1.9397   -4.4649 H   0  0  0  0  0  0  0  0  0  0  0  0
    9.3729   -0.7792   -6.0574 H   0  0  0  0  0  0  0  0  0  0  0  0
    8.8452   -2.3723   -5.5272 H   0  0  0  0  0  0  0  0  0  0  0  0
    9.7182   -1.3340   -4.4032 H   0  0  0  0  0  0  0  0  0  0  0  0
    2.4422   -2.4397    0.2629 H   0  0  0  0  0  0  0  0  0  0  0  0
    1.2153   -1.5809   -1.7922 H   0  0  0  0  0  0  0  0  0  0  0  0
    0.1563   -3.6703    0.0492 H   0  0  0  0  0  0  0  0  0  0  0  0
   -1.7666   -4.3659   -0.8403 H   0  0  0  0  0  0  0  0  0  0  0  0
   -1.9309   -2.5647   -3.1568 H   0  0  0  0  0  0  0  0  0  0  0  0
   -2.3531   -5.8138   -7.0048 H   0  0  0  0  0  0  0  0  0  0  0  0
   -3.5708   -4.5293   -7.0695 H   0  0  0  0  0  0  0  0  0  0  0  0
   -2.0219   -4.3196   -7.9089 H   0  0  0  0  0  0  0  0  0  0  0  0
    1.4971    1.3224   -6.0062 H   0  0  0  0  0  0  0  0  0  0  0  0
    2.7229    0.9394   -4.3351 H   0  0  0  0  0  0  0  0  0  0  0  0
    5.4566   -0.0705   -5.4517 H   0  0  0  0  0  0  0  0  0  0  0  0
   -2.8135   -0.2331   -5.8145 H   0  0  0  0  0  0  0  0  0  0  0  0
   -1.9201    0.7849   -4.6777 H   0  0  0  0  0  0  0  0  0  0  0  0
   -1.6956    0.9855   -6.4270 H   0  0  0  0  0  0  0  0  0  0  0  0
    6.0281    3.8659   -2.5315 H   0  0  0  0  0  0  0  0  0  0  0  0
    6.4141    3.3182   -0.8849 H   0  0  0  0  0  0  0  0  0  0  0  0
    4.7964    3.9301   -1.2715 H   0  0  0  0  0  0  0  0  0  0  0  0
    5.1125   -1.1605   -2.1348 H   0  0  0  0  0  0  0  0  0  0  0  0
    5.0027   -1.6498   -0.4363 H   0  0  0  0  0  0  0  0  0  0  0  0
    3.7754   -2.1508   -1.6133 H   0  0  0  0  0  0  0  0  0  0  0  0
    2.3384    1.5728    0.7470 H   0  0  0  0  0  0  0  0  0  0  0  0
    0.5945   -5.1919   -1.7983 H   0  0  0  0  0  0  0  0  0  0  0  0
    1.9919   -4.1830   -1.4421 H   0  0  0  0  0  0  0  0  0  0  0  0
    0.9906   -3.8277   -2.8495 H   0  0  0  0  0  0  0  0  0  0  0  0
    0.6753   -2.6553    1.9325 H   0  0  0  0  0  0  0  0  0  0  0  0
    0.3612   -0.9152    1.8899 H   0  0  0  0  0  0  0  0  0  0  0  0
    1.8881   -1.5523    2.5177 H   0  0  0  0  0  0  0  0  0  0  0  0
    5.0664    0.7137    1.0509 H   0  0  0  0  0  0  0  0  0  0  0  0
    3.5892   -5.7166   -3.5426 H   0  0  0  0  0  0  0  0  0  0  0  0
    5.4109   -6.0056   -4.1289 H   0  0  0  0  0  0  0  0  0  0  0  0
    2.8839   -7.6199   -4.8254 H   0  0  0  0  0  0  0  0  0  0  0  0
    4.2131   -8.1343   -3.8306 H   0  0  0  0  0  0  0  0  0  0  0  0
    3.1535   -7.3208   -7.2611 H   0  0  0  0  0  0  0  0  0  0  0  0
    4.7035   -7.5963   -8.0250 H   0  0  0  0  0  0  0  0  0  0  0  0
    4.1596   -5.1575   -7.8044 H   0  0  0  0  0  0  0  0  0  0  0  0
    5.6624   -5.6082   -7.0139 H   0  0  0  0  0  0  0  0  0  0  0  0
    6.6453   -7.3019   -5.5908 H   0  0  0  0  0  0  0  0  0  0  0  0
    6.5150   -8.5321   -6.8275 H   0  0  0  0  0  0  0  0  0  0  0  0
    6.2691   -9.0698   -3.8343 H   0  0  0  0  0  0  0  0  0  0  0  0
    4.9102  -10.6679   -5.1814 H   0  0  0  0  0  0  0  0  0  0  0  0
    6.3263  -11.0410   -6.1838 H   0  0  0  0  0  0  0  0  0  0  0  0
    6.3085  -11.4727   -4.4616 H   0  0  0  0  0  0  0  0  0  0  0  0
    8.5981   -9.6700   -5.7136 H   0  0  0  0  0  0  0  0  0  0  0  0
    8.5677   -8.4439   -4.4323 H   0  0  0  0  0  0  0  0  0  0  0  0
    8.4686  -10.1555   -4.0123 H   0  0  0  0  0  0  0  0  0  0  0  0
   -2.0361   -5.4347   -2.8842 H   0  0  0  0  0  0  0  0  0  0  0  0
   -1.8888    1.9704   -1.8231 H   0  0  0  0  0  0  0  0  0  0  0  0
   -2.6408    0.5541   -1.0588 H   0  0  0  0  0  0  0  0  0  0  0  0
   -1.5607    1.6074   -0.1160 H   0  0  0  0  0  0  0  0  0  0  0  0
   -1.7434   -2.5690    1.3081 H   0  0  0  0  0  0  0  0  0  0  0  0
   -3.2018   -1.6233    1.0006 H   0  0  0  0  0  0  0  0  0  0  0  0
   -3.2655   -3.3897    0.8787 H   0  0  0  0  0  0  0  0  0  0  0  0
  1  2  1  0  0  0  0 
  2  3  1  0  0  0  0 
  3  4  1  0  0  0  0 
  4  5  1  0  0  0  0 
  6  7  2  0  0  0  0 
  7  8  1  0  0  0  0 
  8  9  2  0  0  0  0 
  9 10  1  0  0  0  0 
  5 10  2  0  0  0  0 
  8 11  1  0  0  0  0 
  1 12  1  0  0  0  0 
 12 13  1  0  0  0  0 
 13 14  1  0  0  0  0 
 13 15  1  0  0  0  0 
 14 16  1  0  0  0  0 
 16 17  1  0  0  0  0 
 18 19  1  0  0  0  0 
 19 20  1  0  0  0  0 
 20 21  1  0  0  0  0 
 21 22  1  0  0  0  0 
 18 22  1  0  0  0  0 
 18 23  1  0  0  0  0 
 20 24  2  0  0  0  0 
 24 25  1  0  0  0  0 
 25 26  2  0  0  0  0 
 26 27  1  0  0  0  0 
 21 27  2  0  0  0  0 
 24 28  1  0  0  0  0 
 28 29  1  0  0  0  0 
 29 30  1  0  0  0  0 
 30 31  2  0  0  0  0 
 25 31  1  0  0  0  0 
 26 32  1  0  0  0  0 
 31 33  1  0  0  0  0 
 28 34  2  0  0  0  0 
 30 35  1  0  0  0  0 
  7 35  1  0  0  0  0 
 27 36  1  0  0  0  0 
 19 37  2  0  0  0  0 
 29 38  2  0  0  0  0 
  4 39  1  0  0  0  0 
  2 40  1  0  0  0  0 
  1 41  1  0  0  0  0 
 14 42  1  0  0  0  0 
 12 43  1  0  0  0  0 
  3 44  1  0  0  0  0 
 16 45  1  0  0  0  0 
 34 46  1  0  0  0  0 
 46 38  1  0  0  0  0 
 46 47  1  0  0  0  0 
 47 48  1  0  0  0  0 
 48 49  1  0  0  0  0 
 49 50  1  0  0  0  0 
 50 51  1  0  0  0  0 
 51 46  1  0  0  0  0 
 49 52  1  0  0  0  0 
 52 53  1  0  0  0  0 
 53 54  1  0  0  0  0 
 53 55  1  0  0  0  0 
 17 56  2  0  0  0  0 
 18 57  1  0  0  0  0 
 57 56  1  0  0  0  0 
 15 58  1  0  0  0  0 
 58 59  1  0  0  0  0 
 58 60  2  0  0  0  0 
 45 61  1  0  0  0  0 
  1 62  1  0  0  0  0 
  2 63  1  0  0  0  0 
  3 64  1  0  0  0  0 
  4 65  1  0  0  0  0 
  5 66  1  0  0  0  0 
 67  9  1  0  0  0  0 
 68 10  1  0  0  0  0 
 69 11  1  0  0  0  0 
 70 11  1  0  0  0  0 
 71 11  1  0  0  0  0 
 12 72  1  0  0  0  0 
 13 73  1  0  0  0  0 
 14 74  1  0  0  0  0 
 16 75  1  0  0  0  0 
 76 17  1  0  0  0  0 
 77 23  1  0  0  0  0 
 78 23  1  0  0  0  0 
 79 23  1  0  0  0  0 
 80 32  1  0  0  0  0 
 81 33  1  0  0  0  0 
 82 35  1  0  0  0  0 
 83 36  1  0  0  0  0 
 84 36  1  0  0  0  0 
 85 36  1  0  0  0  0 
 86 39  1  0  0  0  0 
 87 39  1  0  0  0  0 
 88 39  1  0  0  0  0 
 89 40  1  0  0  0  0 
 90 40  1  0  0  0  0 
 91 40  1  0  0  0  0 
 92 41  1  0  0  0  0 
 93 42  1  0  0  0  0 
 94 42  1  0  0  0  0 
 95 42  1  0  0  0  0 
 96 43  1  0  0  0  0 
 97 43  1  0  0  0  0 
 98 43  1  0  0  0  0 
 99 44  1  0  0  0  0 
100 47  1  0  0  0  0 
101 47  1  0  0  0  0 
102 48  1  0  0  0  0 
103 48  1  0  0  0  0 
104 50  1  0  0  0  0 
105 50  1  0  0  0  0 
106 51  1  0  0  0  0 
107 51  1  0  0  0  0 
108 52  1  0  0  0  0 
109 52  1  0  0  0  0 
110 53  1  0  0  0  0 
111 54  1  0  0  0  0 
112 54  1  0  0  0  0 
113 54  1  0  0  0  0 
114 55  1  0  0  0  0 
115 55  1  0  0  0  0 
116 55  1  0  0  0  0 
117 56  1  0  0  0  0 
118 59  1  0  0  0  0 
119 59  1  0  0  0  0 
120 59  1  0  0  0  0 
121 61  1  0  0  0  0 
122 61  1  0  0  0  0 
123 61  1  0  0  0  0 
M  END
> <cdk:Title>
rifabutin

> <Conformer>
1

> <SuperDrugID>
SD002137

$$$$
