methaphenilene
  CDK     0628171801

 38 39  0  0  0  0  0  0  0  0999 V2000
    3.3336    1.3260   -0.2519 N   0  0  0  0  0  0  0  0  0  0  0  0
    2.4422    1.3391    0.8907 C   0  0  2  0  0  0  0  0  0  0  0  0
    3.6082    0.1184   -1.0073 C   0  0  2  0  0  0  0  0  0  0  0  0
    3.9386    2.4970   -0.6326 C   0  0  0  0  0  0  0  0  0  0  0  0
    1.0981    0.8231    0.5781 C   0  0  0  0  0  0  0  0  0  0  0  0
    4.0396   -1.0831   -0.1253 C   0  0  1  0  0  0  0  0  0  0  0  0
    4.8620    3.1402    0.2227 C   0  0  0  0  0  0  0  0  0  0  0  0
    3.6306    3.0845   -1.8805 C   0  0  0  0  0  0  0  0  0  0  0  0
    0.4190   -0.2195    1.2239 C   0  0  0  0  0  0  0  0  0  0  0  0
    0.0384    1.4019   -0.6984 S   0  0  0  0  0  0  0  0  0  0  0  0
    4.6934   -2.1940   -0.8876 N   0  0  1  0  0  0  0  0  0  0  0  0
    5.4564    4.3569   -0.1579 C   0  0  0  0  0  0  0  0  0  0  0  0
    4.2365    4.2934   -2.2671 C   0  0  0  0  0  0  0  0  0  0  0  0
   -0.8531   -0.5220    0.7049 C   0  0  0  0  0  0  0  0  0  0  0  0
   -1.2585    0.2672   -0.3756 C   0  0  0  0  0  0  0  0  0  0  0  0
    5.3660   -3.1692    0.0210 C   0  0  0  0  0  0  0  0  0  0  0  0
    3.8028   -2.8698   -1.8768 C   0  0  0  0  0  0  0  0  0  0  0  0
    5.1463    4.9319   -1.4042 C   0  0  0  0  0  0  0  0  0  0  0  0
    2.3020    2.3483    1.2873 H   0  0  0  0  0  0  0  0  0  0  0  0
    2.8837    0.7488    1.6947 H   0  0  0  0  0  0  0  0  0  0  0  0
    4.4000    0.2844   -1.7475 H   0  0  0  0  0  0  0  0  0  0  0  0
    2.7075   -0.1494   -1.5624 H   0  0  0  0  0  0  0  0  0  0  0  0
    4.7425   -0.6980    0.6215 H   0  0  0  0  0  0  0  0  0  0  0  0
    3.1679   -1.4728    0.4081 H   0  0  0  0  0  0  0  0  0  0  0  0
    5.1008    2.7259    1.1264 H   0  0  0  0  0  0  0  0  0  0  0  0
    2.9578    2.6368   -2.5082 H   0  0  0  0  0  0  0  0  0  0  0  0
    0.8157   -0.7269    2.0166 H   0  0  0  0  0  0  0  0  0  0  0  0
    6.1115    4.8249    0.4726 H   0  0  0  0  0  0  0  0  0  0  0  0
    4.0078    4.7113   -3.1714 H   0  0  0  0  0  0  0  0  0  0  0  0
   -1.4388   -1.2652    1.0924 H   0  0  0  0  0  0  0  0  0  0  0  0
   -2.1397    0.1994   -0.8849 H   0  0  0  0  0  0  0  0  0  0  0  0
    5.9063   -3.9223   -0.5587 H   0  0  0  0  0  0  0  0  0  0  0  0
    6.1011   -2.6570    0.6488 H   0  0  0  0  0  0  0  0  0  0  0  0
    4.6405   -3.6727    0.6692 H   0  0  0  0  0  0  0  0  0  0  0  0
    3.4456   -2.1605   -2.6225 H   0  0  0  0  0  0  0  0  0  0  0  0
    4.3530   -3.6425   -2.4165 H   0  0  0  0  0  0  0  0  0  0  0  0
    2.9418   -3.3292   -1.3862 H   0  0  0  0  0  0  0  0  0  0  0  0
    5.5793    5.8154   -1.6800 H   0  0  0  0  0  0  0  0  0  0  0  0
  1  2  1  0  0  0  0 
  1  3  1  0  0  0  0 
  1  4  1  0  0  0  0 
  2  5  1  0  0  0  0 
  3  6  1  0  0  0  0 
  4  7  2  0  0  0  0 
  4  8  1  0  0  0  0 
  5  9  2  0  0  0  0 
  5 10  1  0  0  0  0 
  6 11  1  0  0  0  0 
  7 12  1  0  0  0  0 
  8 13  2  0  0  0  0 
  9 14  1  0  0  0  0 
 10 15  1  0  0  0  0 
 11 16  1  0  0  0  0 
 11 17  1  0  0  0  0 
 12 18  2  0  0  0  0 
 13 18  1  0  0  0  0 
 14 15  2  0  0  0  0 
  2 19  1  0  0  0  0 
  2 20  1  0  0  0  0 
  3 21  1  0  0  0  0 
  3 22  1  0  0  0  0 
  6 23  1  0  0  0  0 
  6 24  1  0  0  0  0 
  7 25  1  0  0  0  0 
  8 26  1  0  0  0  0 
  9 27  1  0  0  0  0 
 12 28  1  0  0  0  0 
 13 29  1  0  0  0  0 
 14 30  1  0  0  0  0 
 15 31  1  0  0  0  0 
 16 32  1  0  0  0  0 
 16 33  1  0  0  0  0 
 16 34  1  0  0  0  0 
 17 35  1  0  0  0  0 
 17 36  1  0  0  0  0 
 17 37  1  0  0  0  0 
 18 38  1  0  0  0  0 
M  END
> <cdk:Title>
methaphenilene

> <Conformer>
1

> <SuperDrugID>
SD001537

$$$$
