chlorbenzoxamine
  CDK     0628171801

 62 65  0  0  0  0  0  0  0  0999 V2000
   -1.0387   -1.8303    0.0420 C   0  0  2  0  0  0  0  0  0  0  0  0
   -1.3167   -0.4608    0.4326 O   0  0  0  0  0  0  0  0  0  0  0  0
   -1.1309   -2.0580   -1.4391 C   0  0  0  0  0  0  0  0  0  0  0  0
   -1.9395   -2.7871    0.7582 C   0  0  0  0  0  0  0  0  0  0  0  0
   -0.4146    0.5427   -0.0879 C   0  0  2  0  0  0  0  0  0  0  0  0
   -0.1119   -2.7047   -2.1978 C   0  0  0  0  0  0  0  0  0  0  0  0
   -2.2877   -1.6055   -2.1239 C   0  0  0  0  0  0  0  0  0  0  0  0
   -3.2827   -2.4598    1.0724 C   0  0  0  0  0  0  0  0  0  0  0  0
   -1.4560   -4.0627    1.1439 C   0  0  0  0  0  0  0  0  0  0  0  0
   -0.6760    1.9049    0.5996 C   0  0  2  0  0  0  0  0  0  0  0  0
    1.3499   -3.2655   -1.5353 Cl  0  0  0  0  0  0  0  0  0  0  0  0
   -0.2862   -2.9144   -3.5826 C   0  0  0  0  0  0  0  0  0  0  0  0
   -2.4428   -1.8007   -3.5069 C   0  0  0  0  0  0  0  0  0  0  0  0
   -4.1086   -3.3761    1.7508 C   0  0  0  0  0  0  0  0  0  0  0  0
   -2.2758   -4.9705    1.8375 C   0  0  0  0  0  0  0  0  0  0  0  0
   -0.5683    1.8898    2.0984 N   0  0  1  0  0  0  0  0  0  0  0  0
   -1.4458   -2.4661   -4.2346 C   0  0  0  0  0  0  0  0  0  0  0  0
   -3.6041   -4.6289    2.1385 C   0  0  0  0  0  0  0  0  0  0  0  0
    0.8010    1.5859    2.6154 C   0  0  1  0  0  0  0  0  0  0  0  0
   -1.1017    3.1425    2.7222 C   0  0  1  0  0  0  0  0  0  0  0  0
    0.8002    1.4719    4.1571 C   0  0  1  0  0  0  0  0  0  0  0  0
   -1.0892    3.0587    4.2706 C   0  0  2  0  0  0  0  0  0  0  0  0
    0.2621    2.7065    4.8108 N   0  0  1  0  0  0  0  0  0  0  0  0
    0.2708    2.6473    6.3139 C   0  0  1  0  0  0  0  0  0  0  0  0
    1.6418    2.4868    6.8981 C   0  0  0  0  0  0  0  0  0  0  0  0
    2.5852    3.5574    6.9722 C   0  0  0  0  0  0  0  0  0  0  0  0
    2.0303    1.2053    7.3641 C   0  0  0  0  0  0  0  0  0  0  0  0
    2.2385    4.9469    6.5665 C   0  0  0  0  0  0  0  0  0  0  0  0
    3.8948    3.2946    7.4468 C   0  0  0  0  0  0  0  0  0  0  0  0
    3.3345    0.9618    7.8251 C   0  0  0  0  0  0  0  0  0  0  0  0
    4.2722    2.0037    7.8513 C   0  0  0  0  0  0  0  0  0  0  0  0
   -0.0264   -2.0235    0.4074 H   0  0  0  0  0  0  0  0  0  0  0  0
   -0.5770    0.6666   -1.1622 H   0  0  0  0  0  0  0  0  0  0  0  0
    0.6296    0.2522    0.0541 H   0  0  0  0  0  0  0  0  0  0  0  0
   -3.0298   -1.1164   -1.6182 H   0  0  0  0  0  0  0  0  0  0  0  0
   -3.6714   -1.5494    0.8122 H   0  0  0  0  0  0  0  0  0  0  0  0
   -0.4947   -4.3378    0.9248 H   0  0  0  0  0  0  0  0  0  0  0  0
   -1.6894    2.2030    0.3115 H   0  0  0  0  0  0  0  0  0  0  0  0
    0.0140    2.6431    0.1785 H   0  0  0  0  0  0  0  0  0  0  0  0
    0.4328   -3.3934   -4.1316 H   0  0  0  0  0  0  0  0  0  0  0  0
   -3.2808   -1.4575   -3.9822 H   0  0  0  0  0  0  0  0  0  0  0  0
   -5.0767   -3.1289    1.9669 H   0  0  0  0  0  0  0  0  0  0  0  0
   -1.9016   -5.8780    2.1250 H   0  0  0  0  0  0  0  0  0  0  0  0
   -1.5616   -2.6232   -5.2370 H   0  0  0  0  0  0  0  0  0  0  0  0
   -4.1995   -5.2884    2.6430 H   0  0  0  0  0  0  0  0  0  0  0  0
    1.1515    0.6281    2.2316 H   0  0  0  0  0  0  0  0  0  0  0  0
    1.5104    2.3586    2.3042 H   0  0  0  0  0  0  0  0  0  0  0  0
   -0.5091    4.0085    2.4039 H   0  0  0  0  0  0  0  0  0  0  0  0
   -2.1371    3.3033    2.4053 H   0  0  0  0  0  0  0  0  0  0  0  0
    0.2091    0.5989    4.4485 H   0  0  0  0  0  0  0  0  0  0  0  0
    1.8316    1.3051    4.4695 H   0  0  0  0  0  0  0  0  0  0  0  0
   -1.8277    2.3148    4.5882 H   0  0  0  0  0  0  0  0  0  0  0  0
   -1.3984    4.0343    4.6596 H   0  0  0  0  0  0  0  0  0  0  0  0
   -0.1719    3.5568    6.7306 H   0  0  0  0  0  0  0  0  0  0  0  0
   -0.3872    1.8341    6.6402 H   0  0  0  0  0  0  0  0  0  0  0  0
    1.3697    0.4249    7.3528 H   0  0  0  0  0  0  0  0  0  0  0  0
    1.3819    5.3020    7.1403 H   0  0  0  0  0  0  0  0  0  0  0  0
    1.9908    4.9710    5.5052 H   0  0  0  0  0  0  0  0  0  0  0  0
    3.0529    5.6560    6.7361 H   0  0  0  0  0  0  0  0  0  0  0  0
    4.5921    4.0414    7.5029 H   0  0  0  0  0  0  0  0  0  0  0  0
    3.6041    0.0247    8.1363 H   0  0  0  0  0  0  0  0  0  0  0  0
    5.2267    1.8223    8.1720 H   0  0  0  0  0  0  0  0  0  0  0  0
  1  2  1  0  0  0  0 
  1  3  1  0  0  0  0 
  1  4  1  0  0  0  0 
  2  5  1  0  0  0  0 
  3  6  2  0  0  0  0 
  3  7  1  0  0  0  0 
  4  8  2  0  0  0  0 
  4  9  1  0  0  0  0 
  5 10  1  0  0  0  0 
  6 11  1  0  0  0  0 
  6 12  1  0  0  0  0 
  7 13  2  0  0  0  0 
  8 14  1  0  0  0  0 
  9 15  2  0  0  0  0 
 10 16  1  0  0  0  0 
 12 17  2  0  0  0  0 
 13 17  1  0  0  0  0 
 14 18  2  0  0  0  0 
 15 18  1  0  0  0  0 
 16 19  1  0  0  0  0 
 16 20  1  0  0  0  0 
 19 21  1  0  0  0  0 
 20 22  1  0  0  0  0 
 21 23  1  0  0  0  0 
 22 23  1  0  0  0  0 
 23 24  1  0  0  0  0 
 24 25  1  0  0  0  0 
 25 26  2  0  0  0  0 
 25 27  1  0  0  0  0 
 26 28  1  0  0  0  0 
 26 29  1  0  0  0  0 
 27 30  2  0  0  0  0 
 29 31  2  0  0  0  0 
 30 31  1  0  0  0  0 
  1 32  1  0  0  0  0 
  5 33  1  0  0  0  0 
  5 34  1  0  0  0  0 
  7 35  1  0  0  0  0 
  8 36  1  0  0  0  0 
  9 37  1  0  0  0  0 
 10 38  1  0  0  0  0 
 10 39  1  0  0  0  0 
 12 40  1  0  0  0  0 
 13 41  1  0  0  0  0 
 14 42  1  0  0  0  0 
 15 43  1  0  0  0  0 
 17 44  1  0  0  0  0 
 18 45  1  0  0  0  0 
 19 46  1  0  0  0  0 
 19 47  1  0  0  0  0 
 20 48  1  0  0  0  0 
 20 49  1  0  0  0  0 
 21 50  1  0  0  0  0 
 21 51  1  0  0  0  0 
 22 52  1  0  0  0  0 
 22 53  1  0  0  0  0 
 24 54  1  0  0  0  0 
 24 55  1  0  0  0  0 
 27 56  1  0  0  0  0 
 28 57  1  0  0  0  0 
 28 58  1  0  0  0  0 
 28 59  1  0  0  0  0 
 29 60  1  0  0  0  0 
 30 61  1  0  0  0  0 
 31 62  1  0  0  0  0 
M  END
> <cdk:Title>
chlorbenzoxamine

> <Conformer>
1

> <SuperDrugID>
SD002681

$$$$
