titanium dioxide
  CDK     0628171801

  3  2  0  0  0  0  0  0  0  0999 V2000
    0.0000    0.0000    0.0000 Ti  0  0  0  0  0  0  0  0  0  0  0  0
   -2.0499    0.0000    0.0000 O   0  0  0  0  0  0  0  0  0  0  0  0
    2.0499    0.0000    0.0000 O   0  0  0  0  0  0  0  0  0  0  0  0
  1  2  2  0  0  0  0 
  1  3  2  0  0  0  0 
M  END
> <cdk:Title>
titanium dioxide

> <Conformer>
1

> <SuperDrugID>
SD003445

$$$$
