desoxycortone
  CDK     0628171802

 54 57  0  0  0  0  0  0  0  0999 V2000
   -1.9102    1.8762   -0.1061 C   0  0  0  0  0  0  0  0  0  0  0  0
   -0.6033    2.7460   -0.2588 C   0  0  2  0  0  0  0  0  0  0  0  0
   -0.8035    4.1109   -0.9977 C   0  0  2  0  0  0  0  0  0  0  0  0
    0.3891    2.0541   -1.2621 C   0  0  1  0  0  0  0  0  0  0  0  0
   -0.0217    3.0893    1.1572 C   0  0  2  0  0  0  0  0  0  0  0  0
   -1.8008    5.0753   -0.2743 C   0  0  1  0  0  0  0  0  0  0  0  0
   -1.0473    3.7191   -2.4694 C   0  0  1  0  0  0  0  0  0  0  0  0
    0.6317    0.5901   -1.0659 C   0  0  0  0  0  0  0  0  0  0  0  0
   -0.1557    2.4670   -2.6709 C   0  0  1  0  0  0  0  0  0  0  0  0
   -0.9271    4.0822    1.9538 C   0  0  2  0  0  0  0  0  0  0  0  0
   -1.2624    5.4039    1.1688 C   0  0  2  0  0  0  0  0  0  0  0  0
   -1.9925    6.4017   -1.0592 C   0  0  1  0  0  0  0  0  0  0  0  0
    1.6095    0.0631   -0.0900 C   0  0  2  0  0  0  0  0  0  0  0  0
    0.0099   -0.2560   -1.7513 O   0  0  0  0  0  0  0  0  0  0  0  0
   -2.1451    6.4755    1.9592 C   0  0  2  0  0  0  0  0  0  0  0  0
   -2.9679    7.3366   -0.3135 C   0  0  2  0  0  0  0  0  0  0  0  0
    0.9686   -0.8107    0.8315 O   0  0  0  0  0  0  0  0  0  0  0  0
   -3.4718    5.8446    2.5120 C   0  0  0  0  0  0  0  0  0  0  0  0
   -2.5489    7.6136    1.0706 C   0  0  0  0  0  0  0  0  0  0  0  0
   -1.2889    7.0189    3.1743 C   0  0  1  0  0  0  0  0  0  0  0  0
   -2.6275    8.8877    1.5213 C   0  0  0  0  0  0  0  0  0  0  0  0
   -1.8661    8.2964    3.8331 C   0  0  1  0  0  0  0  0  0  0  0  0
   -2.3596    9.2587    2.8273 C   0  0  0  0  0  0  0  0  0  0  0  0
   -2.5909   10.4356    3.1904 O   0  0  0  0  0  0  0  0  0  0  0  0
   -1.6918    0.9649    0.4540 H   0  0  0  0  0  0  0  0  0  0  0  0
   -2.3146    1.5789   -1.0735 H   0  0  0  0  0  0  0  0  0  0  0  0
   -2.7023    2.3976    0.4249 H   0  0  0  0  0  0  0  0  0  0  0  0
    0.1564    4.6505   -1.0084 H   0  0  0  0  0  0  0  0  0  0  0  0
    1.3698    2.5361   -1.1656 H   0  0  0  0  0  0  0  0  0  0  0  0
    0.9678    3.5428    1.0517 H   0  0  0  0  0  0  0  0  0  0  0  0
    0.1120    2.1770    1.7427 H   0  0  0  0  0  0  0  0  0  0  0  0
   -2.7785    4.5938   -0.2033 H   0  0  0  0  0  0  0  0  0  0  0  0
   -2.1023    3.4815   -2.6340 H   0  0  0  0  0  0  0  0  0  0  0  0
   -0.7591    4.5240   -3.1515 H   0  0  0  0  0  0  0  0  0  0  0  0
    0.6746    2.6906   -3.3474 H   0  0  0  0  0  0  0  0  0  0  0  0
   -0.7597    1.6810   -3.1296 H   0  0  0  0  0  0  0  0  0  0  0  0
   -0.4090    4.3246    2.8829 H   0  0  0  0  0  0  0  0  0  0  0  0
   -1.8464    3.5664    2.2314 H   0  0  0  0  0  0  0  0  0  0  0  0
   -0.2891    5.8821    1.0038 H   0  0  0  0  0  0  0  0  0  0  0  0
   -1.0315    6.9091   -1.1938 H   0  0  0  0  0  0  0  0  0  0  0  0
   -2.4033    6.1922   -2.0503 H   0  0  0  0  0  0  0  0  0  0  0  0
    2.0880    0.8663    0.4709 H   0  0  0  0  0  0  0  0  0  0  0  0
    2.3853   -0.4961   -0.6169 H   0  0  0  0  0  0  0  0  0  0  0  0
   -3.9549    6.8670   -0.2873 H   0  0  0  0  0  0  0  0  0  0  0  0
   -3.0708    8.2443   -0.9183 H   0  0  0  0  0  0  0  0  0  0  0  0
    1.6916   -1.1569    1.3974 H   0  0  0  0  0  0  0  0  0  0  0  0
   -4.1214    6.6033    2.9552 H   0  0  0  0  0  0  0  0  0  0  0  0
   -4.0350    5.3506    1.7196 H   0  0  0  0  0  0  0  0  0  0  0  0
   -3.2687    5.1058    3.2883 H   0  0  0  0  0  0  0  0  0  0  0  0
   -1.1821    6.2592    3.9530 H   0  0  0  0  0  0  0  0  0  0  0  0
   -0.2780    7.2681    2.8336 H   0  0  0  0  0  0  0  0  0  0  0  0
   -2.9211    9.6117    0.9032 H   0  0  0  0  0  0  0  0  0  0  0  0
   -2.6905    8.0304    4.4981 H   0  0  0  0  0  0  0  0  0  0  0  0
   -1.0839    8.7656    4.4370 H   0  0  0  0  0  0  0  0  0  0  0  0
  2  1  1  0  0  0  0 
  2  3  1  0  0  0  0 
  2  4  1  0  0  0  0 
  2  5  1  0  0  0  0 
  3  6  1  0  0  0  0 
  3  7  1  0  0  0  0 
  4  8  1  0  0  0  0 
  4  9  1  0  0  0  0 
  5 10  1  0  0  0  0 
  6 11  1  0  0  0  0 
  6 12  1  0  0  0  0 
  7  9  1  0  0  0  0 
  8 13  1  0  0  0  0 
  8 14  2  0  0  0  0 
 11 10  1  0  0  0  0 
 11 15  1  0  0  0  0 
 12 16  1  0  0  0  0 
 13 17  1  0  0  0  0 
 15 18  1  0  0  0  0 
 15 19  1  0  0  0  0 
 15 20  1  0  0  0  0 
 16 19  1  0  0  0  0 
 19 21  2  0  0  0  0 
 20 22  1  0  0  0  0 
 21 23  1  0  0  0  0 
 22 23  1  0  0  0  0 
 23 24  2  0  0  0  0 
 25  1  1  0  0  0  0 
 26  1  1  0  0  0  0 
 27  1  1  0  0  0  0 
  3 28  1  0  0  0  0 
  4 29  1  0  0  0  0 
 30  5  1  0  0  0  0 
 31  5  1  0  0  0  0 
  6 32  1  0  0  0  0 
 33  7  1  0  0  0  0 
 34  7  1  0  0  0  0 
 35  9  1  0  0  0  0 
 36  9  1  0  0  0  0 
 37 10  1  0  0  0  0 
 38 10  1  0  0  0  0 
 11 39  1  0  0  0  0 
 40 12  1  0  0  0  0 
 41 12  1  0  0  0  0 
 42 13  1  0  0  0  0 
 43 13  1  0  0  0  0 
 44 16  1  0  0  0  0 
 45 16  1  0  0  0  0 
 46 17  1  0  0  0  0 
 47 18  1  0  0  0  0 
 48 18  1  0  0  0  0 
 49 18  1  0  0  0  0 
 50 20  1  0  0  0  0 
 51 20  1  0  0  0  0 
 52 21  1  0  0  0  0 
 53 22  1  0  0  0  0 
 54 22  1  0  0  0  0 
M  END
> <cdk:Title>
desoxycortone

> <Conformer>
1

> <SuperDrugID>
SD000724

$$$$
