cobicistat
  CDK     0628171801

107111  0  0  0  0  0  0  0  0999 V2000
    2.6840   10.7906    0.2057 C   0  0  2  0  0  0  0  0  0  0  0  0
    1.5215   11.5485   -0.5135 C   0  0  2  0  0  0  0  0  0  0  0  0
    3.8857   10.9451   -0.5607 N   0  0  0  0  0  0  0  0  0  0  0  0
    2.3356    9.3175    0.5800 C   0  0  1  0  0  0  0  0  0  0  0  0
    1.6938   13.0265   -0.4339 C   0  0  0  0  0  0  0  0  0  0  0  0
    5.1608   10.7320   -0.1253 C   0  0  0  0  0  0  0  0  0  0  0  0
    1.8461    8.3627   -0.5483 C   0  0  1  0  0  0  0  0  0  0  0  0
    1.3868   13.7031    0.7700 C   0  0  0  0  0  0  0  0  0  0  0  0
    2.1960   13.7752   -1.5250 C   0  0  0  0  0  0  0  0  0  0  0  0
    6.3342   11.0961   -0.9710 C   0  0  2  0  0  0  0  0  0  0  0  0
    5.3741   10.2808    1.0250 O   0  0  0  0  0  0  0  0  0  0  0  0
    1.3966    6.9741    0.0211 C   0  0  2  0  0  0  0  0  0  0  0  0
    1.5877   15.0893    0.8866 C   0  0  0  0  0  0  0  0  0  0  0  0
    2.3998   15.1629   -1.4072 C   0  0  0  0  0  0  0  0  0  0  0  0
    6.2955   12.5518   -1.5372 C   0  0  1  0  0  0  0  0  0  0  0  0
    6.6616   10.1295   -1.9805 N   0  0  0  0  0  0  0  0  0  0  0  0
    2.5543    6.0123    0.4505 C   0  0  2  0  0  0  0  0  0  0  0  0
    0.4060    6.3390   -0.8144 N   0  0  0  0  0  0  0  0  0  0  0  0
    2.0975   15.8193   -0.2010 C   0  0  0  0  0  0  0  0  0  0  0  0
    6.2961   13.6395   -0.4174 C   0  0  1  0  0  0  0  0  0  0  0  0
    5.8589    9.5473   -2.9212 C   0  0  0  0  0  0  0  0  0  0  0  0
    3.7401    5.8975   -0.4441 C   0  0  0  0  0  0  0  0  0  0  0  0
   -0.6208    5.5724   -0.3294 C   0  0  0  0  0  0  0  0  0  0  0  0
    6.2812   15.0768   -0.8619 N   0  0  1  0  0  0  0  0  0  0  0  0
    6.3609    8.6097   -3.8161 N   0  0  0  0  0  0  0  0  0  0  0  0
    4.6452    9.8597   -2.9573 O   0  0  0  0  0  0  0  0  0  0  0  0
    3.6870    5.1279   -1.6304 C   0  0  0  0  0  0  0  0  0  0  0  0
    4.9657    6.5189   -0.0953 C   0  0  0  0  0  0  0  0  0  0  0  0
   -1.5842    5.0801   -1.1638 O   0  0  0  0  0  0  0  0  0  0  0  0
   -0.7070    5.3216    0.8979 O   0  0  0  0  0  0  0  0  0  0  0  0
    6.1342   16.0090    0.3101 C   0  0  1  0  0  0  0  0  0  0  0  0
    7.4263   15.4700   -1.7448 C   0  0  2  0  0  0  0  0  0  0  0  0
    5.4564    7.8508   -4.6564 C   0  0  2  0  0  0  0  0  0  0  0  0
    7.7846    8.3639   -3.8917 C   0  0  0  0  0  0  0  0  0  0  0  0
    4.8362    4.9589   -2.4280 C   0  0  0  0  0  0  0  0  0  0  0  0
    6.1068    6.3645   -0.9004 C   0  0  0  0  0  0  0  0  0  0  0  0
   -2.6640    4.2350   -0.7229 C   0  0  2  0  0  0  0  0  0  0  0  0
    5.9833   17.4924   -0.1200 C   0  0  1  0  0  0  0  0  0  0  0  0
    7.3588   17.0018   -2.0986 C   0  0  2  0  0  0  0  0  0  0  0  0
    4.8907    8.6796   -5.7392 C   0  0  0  0  0  0  0  0  0  0  0  0
    6.0435    5.5793   -2.0624 C   0  0  0  0  0  0  0  0  0  0  0  0
   -3.6614    4.0325   -1.7782 C   0  0  0  0  0  0  0  0  0  0  0  0
    7.2004   17.8989   -0.8864 O   0  0  0  0  0  0  0  0  0  0  0  0
    3.6573    9.2407   -5.6092 N   0  0  0  0  0  0  0  0  0  0  0  0
    5.5670    8.9773   -6.9312 C   0  0  0  0  0  0  0  0  0  0  0  0
   -4.3777    5.0187   -2.4677 C   0  0  0  0  0  0  0  0  0  0  0  0
   -4.3113    2.5103   -2.3612 S   0  0  0  0  0  0  0  0  0  0  0  0
    3.2131   10.0116   -6.6241 C   0  0  0  0  0  0  0  0  0  0  0  0
    4.4824   10.0133   -7.8388 S   0  0  0  0  0  0  0  0  0  0  0  0
   -5.3303    4.5874   -3.3378 N   0  0  0  0  0  0  0  0  0  0  0  0
   -5.4803    3.2496   -3.4413 C   0  0  0  0  0  0  0  0  0  0  0  0
    1.9370   10.7561   -6.6440 C   0  0  1  0  0  0  0  0  0  0  0  0
    0.7628    9.8398   -6.2122 C   0  0  0  0  0  0  0  0  0  0  0  0
    2.0397   12.0172   -5.7487 C   0  0  0  0  0  0  0  0  0  0  0  0
    2.8538   11.2939    1.1649 H   0  0  0  0  0  0  0  0  0  0  0  0
    0.5602   11.2829   -0.0606 H   0  0  0  0  0  0  0  0  0  0  0  0
    1.4668   11.2308   -1.5596 H   0  0  0  0  0  0  0  0  0  0  0  0
    3.7821   11.2803   -1.4640 H   0  0  0  0  0  0  0  0  0  0  0  0
    3.1980    8.8637    1.0688 H   0  0  0  0  0  0  0  0  0  0  0  0
    1.5473    9.3713    1.3368 H   0  0  0  0  0  0  0  0  0  0  0  0
    0.9928    8.8302   -1.0435 H   0  0  0  0  0  0  0  0  0  0  0  0
    2.6274    8.2407   -1.3010 H   0  0  0  0  0  0  0  0  0  0  0  0
    1.0177   13.1862    1.5726 H   0  0  0  0  0  0  0  0  0  0  0  0
    2.4255   13.3147   -2.4089 H   0  0  0  0  0  0  0  0  0  0  0  0
    7.2191   11.0618   -0.3219 H   0  0  0  0  0  0  0  0  0  0  0  0
    0.8686    7.2073    0.9518 H   0  0  0  0  0  0  0  0  0  0  0  0
    1.3627   15.5634    1.7632 H   0  0  0  0  0  0  0  0  0  0  0  0
    2.7682   15.6944   -2.1985 H   0  0  0  0  0  0  0  0  0  0  0  0
    7.1871   12.6776   -2.1570 H   0  0  0  0  0  0  0  0  0  0  0  0
    5.4237   12.6874   -2.1836 H   0  0  0  0  0  0  0  0  0  0  0  0
    7.5919    9.8585   -2.0001 H   0  0  0  0  0  0  0  0  0  0  0  0
    2.1461    5.0114    0.6034 H   0  0  0  0  0  0  0  0  0  0  0  0
    2.8944    6.3312    1.4393 H   0  0  0  0  0  0  0  0  0  0  0  0
    0.4585    6.4794   -1.7732 H   0  0  0  0  0  0  0  0  0  0  0  0
    2.2473   16.8261   -0.1144 H   0  0  0  0  0  0  0  0  0  0  0  0
    5.4023   13.4673    0.1908 H   0  0  0  0  0  0  0  0  0  0  0  0
    7.1649   13.4667    0.2260 H   0  0  0  0  0  0  0  0  0  0  0  0
    2.8151    4.6719   -1.9095 H   0  0  0  0  0  0  0  0  0  0  0  0
    5.0445    7.0839    0.7532 H   0  0  0  0  0  0  0  0  0  0  0  0
    5.2460   15.7389    0.8895 H   0  0  0  0  0  0  0  0  0  0  0  0
    7.0043   15.9260    0.9707 H   0  0  0  0  0  0  0  0  0  0  0  0
    7.4006   14.9067   -2.6800 H   0  0  0  0  0  0  0  0  0  0  0  0
    8.3787   15.2704   -1.2439 H   0  0  0  0  0  0  0  0  0  0  0  0
    4.6449    7.4647   -4.0305 H   0  0  0  0  0  0  0  0  0  0  0  0
    5.9348    6.9686   -5.0918 H   0  0  0  0  0  0  0  0  0  0  0  0
    8.0595    7.6995   -4.7134 H   0  0  0  0  0  0  0  0  0  0  0  0
    8.3193    9.3029   -4.0521 H   0  0  0  0  0  0  0  0  0  0  0  0
    8.1325    7.9123   -2.9593 H   0  0  0  0  0  0  0  0  0  0  0  0
    4.8005    4.3864   -3.2740 H   0  0  0  0  0  0  0  0  0  0  0  0
    6.9850    6.8196   -0.6387 H   0  0  0  0  0  0  0  0  0  0  0  0
   -3.1780    4.7003    0.1243 H   0  0  0  0  0  0  0  0  0  0  0  0
   -2.2651    3.2704   -0.4006 H   0  0  0  0  0  0  0  0  0  0  0  0
    5.0202   17.5813   -0.6821 H   0  0  0  0  0  0  0  0  0  0  0  0
    5.8217   18.0806    0.8185 H   0  0  0  0  0  0  0  0  0  0  0  0
    6.5318   17.1126   -2.8440 H   0  0  0  0  0  0  0  0  0  0  0  0
    8.2857   17.2192   -2.6839 H   0  0  0  0  0  0  0  0  0  0  0  0
    6.8773    5.4627   -2.6410 H   0  0  0  0  0  0  0  0  0  0  0  0
    6.4960    8.6593   -7.2181 H   0  0  0  0  0  0  0  0  0  0  0  0
   -4.2064    6.0135   -2.3176 H   0  0  0  0  0  0  0  0  0  0  0  0
   -6.1508    2.7593   -4.0354 H   0  0  0  0  0  0  0  0  0  0  0  0
    1.7450   11.0890   -7.6679 H   0  0  0  0  0  0  0  0  0  0  0  0
   -0.1826   10.3797   -6.2779 H   0  0  0  0  0  0  0  0  0  0  0  0
    0.8945    9.4978   -5.1828 H   0  0  0  0  0  0  0  0  0  0  0  0
    0.7060    8.9664   -6.8647 H   0  0  0  0  0  0  0  0  0  0  0  0
    1.1174   12.5970   -5.8112 H   0  0  0  0  0  0  0  0  0  0  0  0
    2.2083   11.7434   -4.7049 H   0  0  0  0  0  0  0  0  0  0  0  0
    2.8635   12.6526   -6.0799 H   0  0  0  0  0  0  0  0  0  0  0  0
  1  2  1  0  0  0  0 
  1  3  1  0  0  0  0 
  1  4  1  0  0  0  0 
  2  5  1  0  0  0  0 
  3  6  1  0  0  0  0 
  4  7  1  0  0  0  0 
  5  8  2  0  0  0  0 
  5  9  1  0  0  0  0 
 10  6  1  0  0  0  0 
  6 11  2  0  0  0  0 
  8 13  1  0  0  0  0 
  9 14  2  0  0  0  0 
 10 15  1  0  0  0  0 
 10 16  1  0  0  0  0 
 12  7  1  0  0  0  0 
 12 17  1  0  0  0  0 
 12 18  1  0  0  0  0 
 13 19  2  0  0  0  0 
 14 19  1  0  0  0  0 
 15 20  1  0  0  0  0 
 16 21  1  0  0  0  0 
 17 22  1  0  0  0  0 
 18 23  1  0  0  0  0 
 20 24  1  0  0  0  0 
 21 25  1  0  0  0  0 
 21 26  2  0  0  0  0 
 22 27  2  0  0  0  0 
 22 28  1  0  0  0  0 
 23 29  1  0  0  0  0 
 23 30  2  0  0  0  0 
 24 31  1  0  0  0  0 
 24 32  1  0  0  0  0 
 25 33  1  0  0  0  0 
 25 34  1  0  0  0  0 
 27 35  1  0  0  0  0 
 28 36  2  0  0  0  0 
 29 37  1  0  0  0  0 
 31 38  1  0  0  0  0 
 32 39  1  0  0  0  0 
 33 40  1  0  0  0  0 
 35 41  2  0  0  0  0 
 36 41  1  0  0  0  0 
 37 42  1  0  0  0  0 
 38 43  1  0  0  0  0 
 39 43  1  0  0  0  0 
 40 44  1  0  0  0  0 
 40 45  2  0  0  0  0 
 42 46  2  0  0  0  0 
 42 47  1  0  0  0  0 
 44 48  2  0  0  0  0 
 45 49  1  0  0  0  0 
 46 50  1  0  0  0  0 
 47 51  1  0  0  0  0 
 48 49  1  0  0  0  0 
 48 52  1  0  0  0  0 
 50 51  2  0  0  0  0 
 52 53  1  0  0  0  0 
 52 54  1  0  0  0  0 
  1 55  1  0  0  0  0 
 56  2  1  0  0  0  0 
 57  2  1  0  0  0  0 
 58  3  1  0  0  0  0 
 59  4  1  0  0  0  0 
 60  4  1  0  0  0  0 
 61  7  1  0  0  0  0 
 62  7  1  0  0  0  0 
 63  8  1  0  0  0  0 
 64  9  1  0  0  0  0 
 10 65  1  0  0  0  0 
 12 66  1  0  0  0  0 
 67 13  1  0  0  0  0 
 68 14  1  0  0  0  0 
 69 15  1  0  0  0  0 
 70 15  1  0  0  0  0 
 71 16  1  0  0  0  0 
 72 17  1  0  0  0  0 
 73 17  1  0  0  0  0 
 74 18  1  0  0  0  0 
 75 19  1  0  0  0  0 
 76 20  1  0  0  0  0 
 77 20  1  0  0  0  0 
 78 27  1  0  0  0  0 
 79 28  1  0  0  0  0 
 80 31  1  0  0  0  0 
 81 31  1  0  0  0  0 
 82 32  1  0  0  0  0 
 83 32  1  0  0  0  0 
 84 33  1  0  0  0  0 
 85 33  1  0  0  0  0 
 86 34  1  0  0  0  0 
 87 34  1  0  0  0  0 
 88 34  1  0  0  0  0 
 89 35  1  0  0  0  0 
 90 36  1  0  0  0  0 
 91 37  1  0  0  0  0 
 92 37  1  0  0  0  0 
 93 38  1  0  0  0  0 
 94 38  1  0  0  0  0 
 95 39  1  0  0  0  0 
 96 39  1  0  0  0  0 
 97 41  1  0  0  0  0 
 98 45  1  0  0  0  0 
 99 46  1  0  0  0  0 
100 51  1  0  0  0  0 
101 52  1  0  0  0  0 
102 53  1  0  0  0  0 
103 53  1  0  0  0  0 
104 53  1  0  0  0  0 
105 54  1  0  0  0  0 
106 54  1  0  0  0  0 
107 54  1  0  0  0  0 
M  END
> <cdk:Title>
cobicistat

> <Conformer>
1

> <SuperDrugID>
SD003482

$$$$
