alkofanone
  CDK     0628171801

 45 47  0  0  0  0  0  0  0  0999 V2000
    0.8580   -2.1177    7.1367 C   0  0  1  0  0  0  0  0  0  0  0  0
   -0.3035   -3.0726    8.2069 S   0  0  1  0  0  0  0  0  0  0  0  0
    0.8928   -0.5858    7.4400 C   0  0  2  0  0  0  0  0  0  0  0  0
    2.2291   -2.7104    7.2183 C   0  0  0  0  0  0  0  0  0  0  0  0
    0.1603   -4.6105    8.2360 O   0  0  0  0  0  0  0  0  0  0  0  0
   -0.2141   -2.5082    9.7070 O   0  0  0  0  0  0  0  0  0  0  0  0
   -1.9760   -3.0134    7.6162 C   0  0  0  0  0  0  0  0  0  0  0  0
   -0.4104    0.1170    7.3037 C   0  0  0  0  0  0  0  0  0  0  0  0
    2.9453   -2.7460    8.4418 C   0  0  0  0  0  0  0  0  0  0  0  0
    2.8510   -3.2521    6.0655 C   0  0  0  0  0  0  0  0  0  0  0  0
   -3.0442   -2.8514    8.5246 C   0  0  0  0  0  0  0  0  0  0  0  0
   -2.2588   -3.1566    6.2406 C   0  0  0  0  0  0  0  0  0  0  0  0
   -0.8464    0.6807    8.3372 O   0  0  0  0  0  0  0  0  0  0  0  0
   -1.1697    0.1938    6.0941 C   0  0  0  0  0  0  0  0  0  0  0  0
    4.2357   -3.3001    8.5099 C   0  0  0  0  0  0  0  0  0  0  0  0
    4.1416   -3.8084    6.1324 C   0  0  0  0  0  0  0  0  0  0  0  0
   -4.3727   -2.7971    8.0614 C   0  0  0  0  0  0  0  0  0  0  0  0
   -3.5851   -3.0834    5.7734 C   0  0  0  0  0  0  0  0  0  0  0  0
   -2.5524    0.5095    6.1450 C   0  0  0  0  0  0  0  0  0  0  0  0
   -0.5971   -0.0459    4.8170 C   0  0  0  0  0  0  0  0  0  0  0  0
    4.8341   -3.8311    7.3548 C   0  0  0  0  0  0  0  0  0  0  0  0
   -4.6449   -2.9020    6.6832 C   0  0  0  0  0  0  0  0  0  0  0  0
   -3.3245    0.5964    4.9729 C   0  0  0  0  0  0  0  0  0  0  0  0
   -1.3725    0.0175    3.6453 C   0  0  0  0  0  0  0  0  0  0  0  0
   -5.9163   -2.8310    6.2379 N   0  0  0  0  0  0  0  0  0  0  0  0
   -2.7350    0.3478    3.7232 C   0  0  0  0  0  0  0  0  0  0  0  0
    0.4908   -2.2388    6.1189 H   0  0  0  0  0  0  0  0  0  0  0  0
    1.6039   -0.1016    6.7670 H   0  0  0  0  0  0  0  0  0  0  0  0
    1.2777   -0.4341    8.4540 H   0  0  0  0  0  0  0  0  0  0  0  0
    2.5309   -2.3690    9.2971 H   0  0  0  0  0  0  0  0  0  0  0  0
    2.3684   -3.2451    5.1631 H   0  0  0  0  0  0  0  0  0  0  0  0
   -2.8672   -2.7784    9.5283 H   0  0  0  0  0  0  0  0  0  0  0  0
   -1.5083   -3.3176    5.5676 H   0  0  0  0  0  0  0  0  0  0  0  0
    4.7384   -3.3160    9.3997 H   0  0  0  0  0  0  0  0  0  0  0  0
    4.5762   -4.1946    5.2917 H   0  0  0  0  0  0  0  0  0  0  0  0
   -5.1380   -2.6800    8.7312 H   0  0  0  0  0  0  0  0  0  0  0  0
   -3.7734   -3.1621    4.7702 H   0  0  0  0  0  0  0  0  0  0  0  0
   -3.0236    0.6716    7.0387 H   0  0  0  0  0  0  0  0  0  0  0  0
    0.3944   -0.2711    4.7172 H   0  0  0  0  0  0  0  0  0  0  0  0
    5.7709   -4.2358    7.4048 H   0  0  0  0  0  0  0  0  0  0  0  0
   -4.3174    0.8309    5.0298 H   0  0  0  0  0  0  0  0  0  0  0  0
   -0.9435   -0.1813    2.7395 H   0  0  0  0  0  0  0  0  0  0  0  0
   -6.6459   -2.6999    6.8642 H   0  0  0  0  0  0  0  0  0  0  0  0
   -6.1048   -2.9092    5.2895 H   0  0  0  0  0  0  0  0  0  0  0  0
   -3.2953    0.4023    2.8703 H   0  0  0  0  0  0  0  0  0  0  0  0
  1  2  1  0  0  0  0 
  1  3  1  0  0  0  0 
  1  4  1  0  0  0  0 
  2  5  2  0  0  0  0 
  2  6  2  0  0  0  0 
  2  7  1  0  0  0  0 
  3  8  1  0  0  0  0 
  4  9  2  0  0  0  0 
  4 10  1  0  0  0  0 
  7 11  2  0  0  0  0 
  7 12  1  0  0  0  0 
  8 13  2  0  0  0  0 
  8 14  1  0  0  0  0 
  9 15  1  0  0  0  0 
 10 16  2  0  0  0  0 
 11 17  1  0  0  0  0 
 12 18  2  0  0  0  0 
 14 19  2  0  0  0  0 
 14 20  1  0  0  0  0 
 15 21  2  0  0  0  0 
 16 21  1  0  0  0  0 
 17 22  2  0  0  0  0 
 18 22  1  0  0  0  0 
 19 23  1  0  0  0  0 
 20 24  2  0  0  0  0 
 22 25  1  0  0  0  0 
 23 26  2  0  0  0  0 
 24 26  1  0  0  0  0 
 27  1  1  0  0  0  0 
 28  3  1  0  0  0  0 
 29  3  1  0  0  0  0 
 30  9  1  0  0  0  0 
 31 10  1  0  0  0  0 
 32 11  1  0  0  0  0 
 33 12  1  0  0  0  0 
 34 15  1  0  0  0  0 
 35 16  1  0  0  0  0 
 36 17  1  0  0  0  0 
 37 18  1  0  0  0  0 
 38 19  1  0  0  0  0 
 39 20  1  0  0  0  0 
 40 21  1  0  0  0  0 
 41 23  1  0  0  0  0 
 42 24  1  0  0  0  0 
 43 25  1  0  0  0  0 
 44 25  1  0  0  0  0 
 45 26  1  0  0  0  0 
M  END
> <cdk:Title>
alkofanone

> <Conformer>
1

> <SuperDrugID>
SD000091

$$$$
