dexamethasone palmitate
  CDK     0628171802

104107  0  0  0  0  0  0  0  0999 V2000
   -3.6369    1.0165    4.8142 C   0  0  0  0  0  0  0  0  0  0  0  0
   -4.4214    1.5549    3.5506 C   0  0  2  0  0  0  0  0  0  0  0  0
   -4.1783    3.0693    3.2529 C   0  0  2  0  0  0  0  0  0  0  0  0
   -5.9789    1.5779    3.8377 C   0  0  2  0  0  0  0  0  0  0  0  0
   -3.9607    0.7607    2.2734 C   0  0  2  0  0  0  0  0  0  0  0  0
   -2.6820    3.4127    2.9345 C   0  0  1  0  0  0  0  0  0  0  0  0
   -4.9375    3.8088    4.3777 C   0  0  1  0  0  0  0  0  0  0  0  0
   -6.5263    0.3291    4.4811 C   0  0  0  0  0  0  0  0  0  0  0  0
   -6.6813    1.7563    2.5952 O   0  0  0  0  0  0  0  0  0  0  0  0
   -6.1591    2.8892    4.7037 C   0  0  1  0  0  0  0  0  0  0  0  0
   -2.5096    1.0798    1.7842 C   0  0  1  0  0  0  0  0  0  0  0  0
   -2.1966    2.6234    1.6451 C   0  0  1  0  0  0  0  0  0  0  0  0
   -2.4648    4.9460    2.7682 C   0  0  1  0  0  0  0  0  0  0  0  0
   -7.2108   -0.7603    3.7386 C   0  0  2  0  0  0  0  0  0  0  0  0
   -6.3711    0.1516    5.7134 O   0  0  0  0  0  0  0  0  0  0  0  0
   -7.5285    3.6107    4.5525 C   0  0  0  0  0  0  0  0  0  0  0  0
   -1.5850    0.4063    2.6312 O   0  0  0  0  0  0  0  0  0  0  0  0
   -3.0016    3.0418    0.5912 F   0  0  0  0  0  0  0  0  0  0  0  0
   -0.7030    3.0132    1.2178 C   0  0  2  0  0  0  0  0  0  0  0  0
   -1.0072    5.2767    2.3729 C   0  0  2  0  0  0  0  0  0  0  0  0
   -6.4146   -1.1901    2.6305 O   0  0  0  0  0  0  0  0  0  0  0  0
    0.4158    2.5023    2.1989 C   0  0  0  0  0  0  0  0  0  0  0  0
   -0.6114    4.5131    1.1819 C   0  0  0  0  0  0  0  0  0  0  0  0
   -0.3689    2.3987   -0.0962 C   0  0  0  0  0  0  0  0  0  0  0  0
   -6.7286   -2.1534    1.7135 C   0  0  0  0  0  0  0  0  0  0  0  0
   -0.2079    5.1663    0.0684 C   0  0  0  0  0  0  0  0  0  0  0  0
    0.0165    3.1122   -1.1659 C   0  0  0  0  0  0  0  0  0  0  0  0
   -5.8201   -2.3684    0.5667 C   0  0  2  0  0  0  0  0  0  0  0  0
   -7.7856   -2.8213    1.8128 O   0  0  0  0  0  0  0  0  0  0  0  0
    0.1207    4.4877   -1.0938 C   0  0  0  0  0  0  0  0  0  0  0  0
   -4.4966   -3.0752    0.9624 C   0  0  1  0  0  0  0  0  0  0  0  0
    0.5036    5.1297   -2.0992 O   0  0  0  0  0  0  0  0  0  0  0  0
   -3.4434   -3.0606   -0.1814 C   0  0  2  0  0  0  0  0  0  0  0  0
   -2.0828   -3.6564    0.2680 C   0  0  2  0  0  0  0  0  0  0  0  0
   -0.9558   -3.5187   -0.7924 C   0  0  2  0  0  0  0  0  0  0  0  0
    0.4154   -3.9738   -0.2218 C   0  0  1  0  0  0  0  0  0  0  0  0
    1.5683   -3.9432   -1.2584 C   0  0  1  0  0  0  0  0  0  0  0  0
    2.9208   -4.3884   -0.6367 C   0  0  1  0  0  0  0  0  0  0  0  0
    4.0562   -4.4776   -1.6879 C   0  0  2  0  0  0  0  0  0  0  0  0
    5.4051   -4.9557   -1.0860 C   0  0  1  0  0  0  0  0  0  0  0  0
    6.5069   -5.0793   -2.1708 C   0  0  2  0  0  0  0  0  0  0  0  0
    7.8709   -5.5598   -1.6093 C   0  0  2  0  0  0  0  0  0  0  0  0
    8.9451   -5.6666   -2.7246 C   0  0  1  0  0  0  0  0  0  0  0  0
   10.3261   -6.1362   -2.1981 C   0  0  1  0  0  0  0  0  0  0  0  0
   11.3839   -6.2287   -3.3212 C   0  0  0  0  0  0  0  0  0  0  0  0
   -3.8003   -0.0547    4.9328 H   0  0  0  0  0  0  0  0  0  0  0  0
   -3.9572    1.5010    5.7348 H   0  0  0  0  0  0  0  0  0  0  0  0
   -2.5643    1.1633    4.7516 H   0  0  0  0  0  0  0  0  0  0  0  0
   -4.7272    3.3453    2.3426 H   0  0  0  0  0  0  0  0  0  0  0  0
   -4.6367    0.9671    1.4397 H   0  0  0  0  0  0  0  0  0  0  0  0
   -4.0309   -0.3079    2.4716 H   0  0  0  0  0  0  0  0  0  0  0  0
   -2.0711    3.1174    3.7875 H   0  0  0  0  0  0  0  0  0  0  0  0
   -4.2956    3.9330    5.2551 H   0  0  0  0  0  0  0  0  0  0  0  0
   -5.2448    4.8041    4.0428 H   0  0  0  0  0  0  0  0  0  0  0  0
   -7.6329    1.7717    2.8290 H   0  0  0  0  0  0  0  0  0  0  0  0
   -6.0831    2.6366    5.7673 H   0  0  0  0  0  0  0  0  0  0  0  0
   -2.4032    0.6066    0.8052 H   0  0  0  0  0  0  0  0  0  0  0  0
   -3.1437    5.3381    2.0050 H   0  0  0  0  0  0  0  0  0  0  0  0
   -2.6908    5.4563    3.7082 H   0  0  0  0  0  0  0  0  0  0  0  0
   -8.1725   -0.3942    3.3744 H   0  0  0  0  0  0  0  0  0  0  0  0
   -7.3963   -1.6170    4.3919 H   0  0  0  0  0  0  0  0  0  0  0  0
   -7.6712    3.9673    3.5310 H   0  0  0  0  0  0  0  0  0  0  0  0
   -8.3425    2.9291    4.8068 H   0  0  0  0  0  0  0  0  0  0  0  0
   -7.5768    4.4696    5.2255 H   0  0  0  0  0  0  0  0  0  0  0  0
   -1.8387   -0.5389    2.5951 H   0  0  0  0  0  0  0  0  0  0  0  0
   -0.3405    5.0353    3.2035 H   0  0  0  0  0  0  0  0  0  0  0  0
   -0.9374    6.3586    2.2253 H   0  0  0  0  0  0  0  0  0  0  0  0
    0.1669    2.7093    3.2394 H   0  0  0  0  0  0  0  0  0  0  0  0
    0.5862    1.4272    2.1141 H   0  0  0  0  0  0  0  0  0  0  0  0
    1.3731    2.9859    1.9835 H   0  0  0  0  0  0  0  0  0  0  0  0
   -0.4172    1.4093   -0.1977 H   0  0  0  0  0  0  0  0  0  0  0  0
   -0.1487    6.1597    0.0632 H   0  0  0  0  0  0  0  0  0  0  0  0
    0.2323    2.6442   -2.0166 H   0  0  0  0  0  0  0  0  0  0  0  0
   -5.6036   -1.3908    0.1270 H   0  0  0  0  0  0  0  0  0  0  0  0
   -6.3222   -2.9688   -0.1963 H   0  0  0  0  0  0  0  0  0  0  0  0
   -4.0678   -2.5862    1.8397 H   0  0  0  0  0  0  0  0  0  0  0  0
   -4.7147   -4.1112    1.2351 H   0  0  0  0  0  0  0  0  0  0  0  0
   -3.2836   -2.0281   -0.5055 H   0  0  0  0  0  0  0  0  0  0  0  0
   -3.8236   -3.6298   -1.0352 H   0  0  0  0  0  0  0  0  0  0  0  0
   -2.2209   -4.7158    0.5021 H   0  0  0  0  0  0  0  0  0  0  0  0
   -1.7628   -3.1468    1.1809 H   0  0  0  0  0  0  0  0  0  0  0  0
   -0.8777   -2.4748   -1.1102 H   0  0  0  0  0  0  0  0  0  0  0  0
   -1.2099   -4.1242   -1.6670 H   0  0  0  0  0  0  0  0  0  0  0  0
    0.6798   -3.3212    0.6158 H   0  0  0  0  0  0  0  0  0  0  0  0
    0.3166   -4.9942    0.1601 H   0  0  0  0  0  0  0  0  0  0  0  0
    1.3143   -4.6097   -2.0874 H   0  0  0  0  0  0  0  0  0  0  0  0
    1.6723   -2.9290   -1.6547 H   0  0  0  0  0  0  0  0  0  0  0  0
    3.2083   -3.6758    0.1417 H   0  0  0  0  0  0  0  0  0  0  0  0
    2.7953   -5.3693   -0.1700 H   0  0  0  0  0  0  0  0  0  0  0  0
    4.1975   -3.4931   -2.1427 H   0  0  0  0  0  0  0  0  0  0  0  0
    3.7538   -5.1760   -2.4734 H   0  0  0  0  0  0  0  0  0  0  0  0
    5.7302   -4.2448   -0.3208 H   0  0  0  0  0  0  0  0  0  0  0  0
    5.2626   -5.9299   -0.6091 H   0  0  0  0  0  0  0  0  0  0  0  0
    6.6434   -4.1041   -2.6469 H   0  0  0  0  0  0  0  0  0  0  0  0
    6.1717   -5.7868   -2.9349 H   0  0  0  0  0  0  0  0  0  0  0  0
    7.7413   -6.5387   -1.1391 H   0  0  0  0  0  0  0  0  0  0  0  0
    8.2127   -4.8556   -0.8456 H   0  0  0  0  0  0  0  0  0  0  0  0
    8.5979   -6.3729   -3.4845 H   0  0  0  0  0  0  0  0  0  0  0  0
    9.0623   -4.6877   -3.1983 H   0  0  0  0  0  0  0  0  0  0  0  0
   10.6836   -5.4356   -1.4384 H   0  0  0  0  0  0  0  0  0  0  0  0
   10.2229   -7.1203   -1.7326 H   0  0  0  0  0  0  0  0  0  0  0  0
   12.3370   -6.5602   -2.9055 H   0  0  0  0  0  0  0  0  0  0  0  0
   11.0687   -6.9441   -4.0835 H   0  0  0  0  0  0  0  0  0  0  0  0
   11.5289   -5.2528   -3.7891 H   0  0  0  0  0  0  0  0  0  0  0  0
  2  1  1  0  0  0  0 
  3  2  1  0  0  0  0 
  2  4  1  0  0  0  0 
  2  5  1  0  0  0  0 
  6  3  1  0  0  0  0 
  3  7  1  0  0  0  0 
  4  8  1  0  0  0  0 
  4  9  1  0  0  0  0 
  4 10  1  0  0  0  0 
 11  5  1  0  0  0  0 
 12  6  1  0  0  0  0 
  6 13  1  0  0  0  0 
 10  7  1  0  0  0  0 
  8 14  1  0  0  0  0 
  8 15  2  0  0  0  0 
 10 16  1  0  0  0  0 
 12 11  1  0  0  0  0 
 11 17  1  0  0  0  0 
 12 18  1  0  0  0  0 
 12 19  1  0  0  0  0 
 13 20  1  0  0  0  0 
 14 21  1  0  0  0  0 
 19 22  1  0  0  0  0 
 19 23  1  0  0  0  0 
 19 24  1  0  0  0  0 
 20 23  1  0  0  0  0 
 21 25  1  0  0  0  0 
 23 26  2  0  0  0  0 
 24 27  2  0  0  0  0 
 25 28  1  0  0  0  0 
 25 29  2  0  0  0  0 
 26 30  1  0  0  0  0 
 27 30  1  0  0  0  0 
 28 31  1  0  0  0  0 
 30 32  2  0  0  0  0 
 31 33  1  0  0  0  0 
 33 34  1  0  0  0  0 
 34 35  1  0  0  0  0 
 35 36  1  0  0  0  0 
 36 37  1  0  0  0  0 
 37 38  1  0  0  0  0 
 38 39  1  0  0  0  0 
 39 40  1  0  0  0  0 
 40 41  1  0  0  0  0 
 41 42  1  0  0  0  0 
 42 43  1  0  0  0  0 
 43 44  1  0  0  0  0 
 44 45  1  0  0  0  0 
 46  1  1  0  0  0  0 
 47  1  1  0  0  0  0 
 48  1  1  0  0  0  0 
  3 49  1  0  0  0  0 
 50  5  1  0  0  0  0 
 51  5  1  0  0  0  0 
  6 52  1  0  0  0  0 
 53  7  1  0  0  0  0 
 54  7  1  0  0  0  0 
 55  9  1  0  0  0  0 
 10 56  1  0  0  0  0 
 11 57  1  0  0  0  0 
 58 13  1  0  0  0  0 
 59 13  1  0  0  0  0 
 60 14  1  0  0  0  0 
 61 14  1  0  0  0  0 
 62 16  1  0  0  0  0 
 63 16  1  0  0  0  0 
 64 16  1  0  0  0  0 
 65 17  1  0  0  0  0 
 66 20  1  0  0  0  0 
 67 20  1  0  0  0  0 
 68 22  1  0  0  0  0 
 69 22  1  0  0  0  0 
 70 22  1  0  0  0  0 
 71 24  1  0  0  0  0 
 72 26  1  0  0  0  0 
 73 27  1  0  0  0  0 
 74 28  1  0  0  0  0 
 75 28  1  0  0  0  0 
 76 31  1  0  0  0  0 
 77 31  1  0  0  0  0 
 78 33  1  0  0  0  0 
 79 33  1  0  0  0  0 
 80 34  1  0  0  0  0 
 81 34  1  0  0  0  0 
 82 35  1  0  0  0  0 
 83 35  1  0  0  0  0 
 84 36  1  0  0  0  0 
 85 36  1  0  0  0  0 
 86 37  1  0  0  0  0 
 87 37  1  0  0  0  0 
 88 38  1  0  0  0  0 
 89 38  1  0  0  0  0 
 90 39  1  0  0  0  0 
 91 39  1  0  0  0  0 
 92 40  1  0  0  0  0 
 93 40  1  0  0  0  0 
 94 41  1  0  0  0  0 
 95 41  1  0  0  0  0 
 96 42  1  0  0  0  0 
 97 42  1  0  0  0  0 
 98 43  1  0  0  0  0 
 99 43  1  0  0  0  0 
100 44  1  0  0  0  0 
101 44  1  0  0  0  0 
102 45  1  0  0  0  0 
103 45  1  0  0  0  0 
104 45  1  0  0  0  0 
M  END
> <cdk:Title>
dexamethasone palmitate

> <Conformer>
1

> <SuperDrugID>
SD000732

$$$$
