etybenzatropine
  CDK     0628171801

 51 54  0  0  0  0  0  0  0  0999 V2000
   -0.7991   -0.7765    0.2581 C   0  0  2  0  0  0  0  0  0  0  0  0
   -1.0300   -1.2789   -1.0841 O   0  0  0  0  0  0  0  0  0  0  0  0
   -1.5347   -0.3703   -2.0957 C   0  0  1  0  0  0  0  0  0  0  0  0
   -0.3881    0.3357   -2.8944 C   0  0  1  0  0  0  0  0  0  0  0  0
    0.1403   -0.5127   -4.0916 C   0  0  2  0  0  0  0  0  0  0  0  0
   -1.0337   -0.7820   -4.9642 N   0  0  2  0  0  0  0  0  0  0  0  0
   -1.7114   -1.8793   -4.2200 C   0  0  2  0  0  0  0  0  0  0  0  0
   -2.4726   -1.1865   -3.0440 C   0  0  2  0  0  0  0  0  0  0  0  0
   -0.5681   -2.8310   -3.7789 C   0  0  2  0  0  0  0  0  0  0  0  0
    0.6714   -1.9142   -3.6953 C   0  0  1  0  0  0  0  0  0  0  0  0
   -0.7354   -1.0044   -6.4126 C   0  0  1  0  0  0  0  0  0  0  0  0
   -1.9921   -0.8857   -7.3018 C   0  0  0  0  0  0  0  0  0  0  0  0
    0.5148   -0.0693    0.3271 C   0  0  0  0  0  0  0  0  0  0  0  0
    1.7197   -0.7723    0.0857 C   0  0  0  0  0  0  0  0  0  0  0  0
    2.9617   -0.1147    0.1434 C   0  0  0  0  0  0  0  0  0  0  0  0
    3.0181    1.2611    0.4288 C   0  0  0  0  0  0  0  0  0  0  0  0
    1.8300    1.9763    0.6637 C   0  0  0  0  0  0  0  0  0  0  0  0
    0.5887    1.3141    0.6139 C   0  0  0  0  0  0  0  0  0  0  0  0
   -0.8323   -1.8687    1.2757 C   0  0  0  0  0  0  0  0  0  0  0  0
   -0.8238   -3.2412    0.9197 C   0  0  0  0  0  0  0  0  0  0  0  0
   -0.8230   -4.2424    1.9070 C   0  0  0  0  0  0  0  0  0  0  0  0
   -0.8273   -3.8878    3.2668 C   0  0  0  0  0  0  0  0  0  0  0  0
   -0.8403   -2.5331    3.6416 C   0  0  0  0  0  0  0  0  0  0  0  0
   -0.8488   -1.5334    2.6529 C   0  0  0  0  0  0  0  0  0  0  0  0
   -1.6251   -0.1068    0.5247 H   0  0  0  0  0  0  0  0  0  0  0  0
   -2.1566    0.3985   -1.6263 H   0  0  0  0  0  0  0  0  0  0  0  0
   -0.7741    1.2800   -3.2916 H   0  0  0  0  0  0  0  0  0  0  0  0
    0.4488    0.5882   -2.2462 H   0  0  0  0  0  0  0  0  0  0  0  0
    0.9166    0.0656   -4.6017 H   0  0  0  0  0  0  0  0  0  0  0  0
   -2.4372   -2.4212   -4.8296 H   0  0  0  0  0  0  0  0  0  0  0  0
   -3.2033   -0.5001   -3.4822 H   0  0  0  0  0  0  0  0  0  0  0  0
   -3.0396   -1.9290   -2.4747 H   0  0  0  0  0  0  0  0  0  0  0  0
   -0.4099   -3.6066   -4.5353 H   0  0  0  0  0  0  0  0  0  0  0  0
   -0.7796   -3.3199   -2.8240 H   0  0  0  0  0  0  0  0  0  0  0  0
    1.4303   -2.2369   -4.4117 H   0  0  0  0  0  0  0  0  0  0  0  0
    1.1195   -1.9225   -2.7003 H   0  0  0  0  0  0  0  0  0  0  0  0
   -0.0432   -0.2314   -6.7527 H   0  0  0  0  0  0  0  0  0  0  0  0
   -0.2564   -1.9728   -6.5777 H   0  0  0  0  0  0  0  0  0  0  0  0
   -1.7009   -0.9072   -8.3533 H   0  0  0  0  0  0  0  0  0  0  0  0
   -2.6756   -1.7152   -7.1213 H   0  0  0  0  0  0  0  0  0  0  0  0
   -2.5089    0.0553   -7.1040 H   0  0  0  0  0  0  0  0  0  0  0  0
    1.7001   -1.7710   -0.1316 H   0  0  0  0  0  0  0  0  0  0  0  0
    3.8239   -0.6372   -0.0242 H   0  0  0  0  0  0  0  0  0  0  0  0
    3.9223    1.7388    0.4619 H   0  0  0  0  0  0  0  0  0  0  0  0
    1.8675    2.9763    0.8732 H   0  0  0  0  0  0  0  0  0  0  0  0
   -0.2646    1.8511    0.7856 H   0  0  0  0  0  0  0  0  0  0  0  0
   -0.8073   -3.5306   -0.0598 H   0  0  0  0  0  0  0  0  0  0  0  0
   -0.8157   -5.2283    1.6335 H   0  0  0  0  0  0  0  0  0  0  0  0
   -0.8200   -4.6165    3.9827 H   0  0  0  0  0  0  0  0  0  0  0  0
   -0.8420   -2.2736    4.6318 H   0  0  0  0  0  0  0  0  0  0  0  0
   -0.8616   -0.5525    2.9439 H   0  0  0  0  0  0  0  0  0  0  0  0
  1  2  1  0  0  0  0 
  1 13  1  0  0  0  0 
  1 19  1  0  0  0  0 
  3  2  1  0  0  0  0 
  3  4  1  0  0  0  0 
  3  8  1  0  0  0  0 
  5  4  1  0  0  0  0 
  5  6  1  0  0  0  0 
  5 10  1  0  0  0  0 
  6 11  1  0  0  0  0 
  7  6  1  0  0  0  0 
  7  9  1  0  0  0  0 
  7  8  1  0  0  0  0 
 10  9  1  0  0  0  0 
 11 12  1  0  0  0  0 
 13 14  2  0  0  0  0 
 13 18  1  0  0  0  0 
 14 15  1  0  0  0  0 
 15 16  2  0  0  0  0 
 17 16  1  0  0  0  0 
 18 17  2  0  0  0  0 
 19 20  2  0  0  0  0 
 19 24  1  0  0  0  0 
 20 21  1  0  0  0  0 
 21 22  2  0  0  0  0 
 23 22  1  0  0  0  0 
 24 23  2  0  0  0  0 
  1 25  1  0  0  0  0 
  3 26  1  0  0  0  0 
  4 27  1  0  0  0  0 
  4 28  1  0  0  0  0 
  5 29  1  0  0  0  0 
  7 30  1  0  0  0  0 
  8 31  1  0  0  0  0 
  8 32  1  0  0  0  0 
  9 33  1  0  0  0  0 
  9 34  1  0  0  0  0 
 10 35  1  0  0  0  0 
 10 36  1  0  0  0  0 
 11 37  1  0  0  0  0 
 11 38  1  0  0  0  0 
 12 39  1  0  0  0  0 
 12 40  1  0  0  0  0 
 12 41  1  0  0  0  0 
 14 42  1  0  0  0  0 
 15 43  1  0  0  0  0 
 16 44  1  0  0  0  0 
 17 45  1  0  0  0  0 
 18 46  1  0  0  0  0 
 20 47  1  0  0  0  0 
 21 48  1  0  0  0  0 
 22 49  1  0  0  0  0 
 23 50  1  0  0  0  0 
 24 51  1  0  0  0  0 
M  END
> <cdk:Title>
etybenzatropine

> <Conformer>
1

> <SuperDrugID>
SD003562

$$$$
