tenofovir
  CDK     0628171801

 33 34  0  0  0  0  0  0  0  0999 V2000
   -0.4261    2.9598    2.5649 C   0  0  2  0  0  0  0  0  0  0  0  0
   -0.3235    1.4290    2.8481 C   0  0  2  0  0  0  0  0  0  0  0  0
    0.2209    3.7786    3.5539 N   0  0  0  0  0  0  0  0  0  0  0  0
   -0.9571    0.6402    1.8112 O   0  0  0  0  0  0  0  0  0  0  0  0
   -1.0184    1.0221    4.1736 C   0  0  0  0  0  0  0  0  0  0  0  0
   -0.3517    4.3955    4.6012 C   0  0  0  0  0  0  0  0  0  0  0  0
    1.5310    4.1158    3.5931 C   0  0  0  0  0  0  0  0  0  0  0  0
   -0.2408    0.4987    0.5679 C   0  0  2  0  0  0  0  0  0  0  0  0
    0.6375    5.1211    5.2569 C   0  0  0  0  0  0  0  0  0  0  0  0
   -1.6370    4.4067    5.0370 N   0  0  0  0  0  0  0  0  0  0  0  0
    1.8049    4.9379    4.6253 N   0  0  0  0  0  0  0  0  0  0  0  0
   -1.1074   -0.5626   -0.4540 P   0  0  1  0  0  0  0  0  0  0  0  0
    0.2862    5.8926    6.3786 C   0  0  0  0  0  0  0  0  0  0  0  0
   -1.9647    5.1425    6.1329 C   0  0  0  0  0  0  0  0  0  0  0  0
   -0.5140   -0.6172   -1.7980 O   0  0  0  0  0  0  0  0  0  0  0  0
   -1.1137   -2.0235    0.1682 O   0  0  0  0  0  0  0  0  0  0  0  0
   -2.6192   -0.0848   -0.5664 O   0  0  0  0  0  0  0  0  0  0  0  0
    1.1792    6.6582    7.0272 N   0  0  0  0  0  0  0  0  0  0  0  0
   -1.0147    5.8714    6.7845 N   0  0  0  0  0  0  0  0  0  0  0  0
   -1.4804    3.2389    2.4719 H   0  0  0  0  0  0  0  0  0  0  0  0
    0.0380    3.1783    1.6009 H   0  0  0  0  0  0  0  0  0  0  0  0
    0.7326    1.1522    2.9413 H   0  0  0  0  0  0  0  0  0  0  0  0
   -0.5179    1.4823    5.0282 H   0  0  0  0  0  0  0  0  0  0  0  0
   -0.9726   -0.0629    4.2999 H   0  0  0  0  0  0  0  0  0  0  0  0
   -2.0684    1.3255    4.1700 H   0  0  0  0  0  0  0  0  0  0  0  0
    2.2325    3.8064    2.9162 H   0  0  0  0  0  0  0  0  0  0  0  0
    0.7523    0.0755    0.7333 H   0  0  0  0  0  0  0  0  0  0  0  0
   -0.1452    1.4548    0.0508 H   0  0  0  0  0  0  0  0  0  0  0  0
   -2.9285    5.1528    6.4633 H   0  0  0  0  0  0  0  0  0  0  0  0
   -1.5514   -1.9216    1.0374 H   0  0  0  0  0  0  0  0  0  0  0  0
   -3.0426   -0.7470   -1.1527 H   0  0  0  0  0  0  0  0  0  0  0  0
    2.0985    6.7034    6.7203 H   0  0  0  0  0  0  0  0  0  0  0  0
    0.8989    7.1867    7.7910 H   0  0  0  0  0  0  0  0  0  0  0  0
  2  1  1  0  0  0  0 
  1  3  1  0  0  0  0 
  2  4  1  0  0  0  0 
  2  5  1  0  0  0  0 
  3  6  1  0  0  0  0 
  3  7  1  0  0  0  0 
  4  8  1  0  0  0  0 
  6  9  1  0  0  0  0 
  6 10  2  0  0  0  0 
  7 11  2  0  0  0  0 
  8 12  1  0  0  0  0 
  9 11  1  0  0  0  0 
  9 13  2  0  0  0  0 
 10 14  1  0  0  0  0 
 12 15  2  0  0  0  0 
 12 16  1  0  0  0  0 
 12 17  1  0  0  0  0 
 13 18  1  0  0  0  0 
 13 19  1  0  0  0  0 
 14 19  2  0  0  0  0 
 20  1  1  0  0  0  0 
 21  1  1  0  0  0  0 
  2 22  1  0  0  0  0 
 23  5  1  0  0  0  0 
 24  5  1  0  0  0  0 
 25  5  1  0  0  0  0 
 26  7  1  0  0  0  0 
 27  8  1  0  0  0  0 
 28  8  1  0  0  0  0 
 29 14  1  0  0  0  0 
 30 16  1  0  0  0  0 
 31 17  1  0  0  0  0 
 32 18  1  0  0  0  0 
 33 18  1  0  0  0  0 
M  END
> <cdk:Title>
tenofovir

> <Conformer>
1

> <SuperDrugID>
SD002331

$$$$
