sugammadex
  CDK     0628171801

240248  0  0  0  0  0  0  0  0999 V2000
    0.9615  -17.2979    2.2928 C   0  0  2  0  0  0  0  0  0  0  0  0
    1.6246  -18.2113    3.3490 C   0  0  2  0  0  0  0  0  0  0  0  0
    2.8956  -17.5317    3.9117 C   0  0  2  0  0  0  0  0  0  0  0  0
    2.4947  -16.2885    4.5108 O   0  0  0  0  0  0  0  0  0  0  0  0
    1.9205  -15.2974    3.6241 C   0  0  1  0  0  0  0  0  0  0  0  0
    0.6940  -15.8548    2.8217 C   0  0  1  0  0  0  0  0  0  0  0  0
    0.4918  -15.1037    1.6082 O   0  0  0  0  0  0  0  0  0  0  0  0
    1.5857  -14.0471    4.4878 C   0  0  2  0  0  0  0  0  0  0  0  0
    2.9579  -13.5318    5.5801 S   0  0  0  0  0  0  0  0  0  0  0  0
   -2.1560  -15.3097    0.0130 C   0  0  2  0  0  0  0  0  0  0  0  0
   -1.9295  -14.4783    1.3151 C   0  0  2  0  0  0  0  0  0  0  0  0
   -0.4496  -14.0294    1.4852 C   0  0  2  0  0  0  0  0  0  0  0  0
    0.0211  -13.3007    0.3230 O   0  0  0  0  0  0  0  0  0  0  0  0
   -0.4136  -13.7064   -1.0081 C   0  0  1  0  0  0  0  0  0  0  0  0
   -1.0394  -15.1425   -1.0667 C   0  0  1  0  0  0  0  0  0  0  0  0
   -0.0487  -16.1721   -0.8068 O   0  0  0  0  0  0  0  0  0  0  0  0
   -1.3059  -12.5371   -1.5258 C   0  0  2  0  0  0  0  0  0  0  0  0
   -2.1841  -12.7538   -3.1088 S   0  0  0  0  0  0  0  0  0  0  0  0
    5.7301  -18.8908    2.6861 C   0  0  2  0  0  0  0  0  0  0  0  0
    7.2452  -19.1179    2.9068 C   0  0  2  0  0  0  0  0  0  0  0  0
    8.0787  -17.9512    2.3072 C   0  0  2  0  0  0  0  0  0  0  0  0
    7.5932  -16.6697    2.7776 O   0  0  0  0  0  0  0  0  0  0  0  0
    6.1830  -16.3728    2.6101 C   0  0  1  0  0  0  0  0  0  0  0  0
    5.2912  -17.5025    3.2285 C   0  0  1  0  0  0  0  0  0  0  0  0
    3.8977  -17.3047    2.8834 O   0  0  0  0  0  0  0  0  0  0  0  0
    5.8883  -14.9929    3.2755 C   0  0  2  0  0  0  0  0  0  0  0  0
    7.1395  -13.6869    3.0382 S   0  0  0  0  0  0  0  0  0  0  0  0
    3.1957  -15.9038   -2.7329 C   0  0  2  0  0  0  0  0  0  0  0  0
    2.3525  -16.2866   -1.4824 C   0  0  2  0  0  0  0  0  0  0  0  0
    0.8669  -16.6323   -1.8304 C   0  0  2  0  0  0  0  0  0  0  0  0
    0.5202  -16.2377   -3.1750 O   0  0  0  0  0  0  0  0  0  0  0  0
    1.3328  -16.7714   -4.2536 C   0  0  1  0  0  0  0  0  0  0  0  0
    2.8749  -16.8203   -3.9356 C   0  0  1  0  0  0  0  0  0  0  0  0
    3.8269  -16.6565   -5.0253 O   0  0  0  0  0  0  0  0  0  0  0  0
    0.7854  -18.1405   -4.7433 C   0  0  2  0  0  0  0  0  0  0  0  0
   -0.9686  -18.0593   -5.2394 S   0  0  0  0  0  0  0  0  0  0  0  0
    8.2145  -15.9360   -0.3708 C   0  0  2  0  0  0  0  0  0  0  0  0
    8.9734  -15.1426   -1.4738 C   0  0  2  0  0  0  0  0  0  0  0  0
   10.5201  -15.1089   -1.2353 C   0  0  2  0  0  0  0  0  0  0  0  0
   10.8765  -15.5658    0.0874 O   0  0  0  0  0  0  0  0  0  0  0  0
   10.4368  -16.8963    0.4677 C   0  0  1  0  0  0  0  0  0  0  0  0
    8.9633  -17.2306    0.0235 C   0  0  1  0  0  0  0  0  0  0  0  0
    8.1619  -18.1033    0.8669 O   0  0  0  0  0  0  0  0  0  0  0  0
   11.4428  -17.9894    0.0134 C   0  0  2  0  0  0  0  0  0  0  0  0
   13.1325  -17.6823    0.6280 S   0  0  0  0  0  0  0  0  0  0  0  0
    6.1571  -15.3403   -6.6624 C   0  0  2  0  0  0  0  0  0  0  0  0
    4.7746  -15.8450   -7.1419 C   0  0  2  0  0  0  0  0  0  0  0  0
    3.6856  -15.6417   -6.0516 C   0  0  2  0  0  0  0  0  0  0  0  0
    3.6853  -14.2717   -5.5797 O   0  0  0  0  0  0  0  0  0  0  0  0
    4.9424  -13.7354   -5.0897 C   0  0  1  0  0  0  0  0  0  0  0  0
    6.0683  -13.8705   -6.1712 C   0  0  1  0  0  0  0  0  0  0  0  0
    7.3598  -13.5121   -5.6239 O   0  0  0  0  0  0  0  0  0  0  0  0
    4.7311  -12.2474   -4.6726 C   0  0  2  0  0  0  0  0  0  0  0  0
    3.1589  -11.8542   -3.8334 S   0  0  0  0  0  0  0  0  0  0  0  0
   12.7813  -12.0976   -1.4716 C   0  0  2  0  0  0  0  0  0  0  0  0
   12.1888  -10.7476   -1.9852 C   0  0  2  0  0  0  0  0  0  0  0  0
   10.6340  -10.7376   -1.9835 C   0  0  2  0  0  0  0  0  0  0  0  0
   10.1119  -11.0609   -0.6697 O   0  0  0  0  0  0  0  0  0  0  0  0
   10.7679  -12.0852    0.1340 C   0  0  1  0  0  0  0  0  0  0  0  0
   11.7790  -12.9810   -0.6629 C   0  0  1  0  0  0  0  0  0  0  0  0
   11.0903  -13.8327   -1.6168 O   0  0  0  0  0  0  0  0  0  0  0  0
   11.3427  -11.3388    1.3776 C   0  0  2  0  0  0  0  0  0  0  0  0
   12.3307  -12.3166    2.5584 S   0  0  0  0  0  0  0  0  0  0  0  0
   10.1877  -12.9792   -4.8216 C   0  0  2  0  0  0  0  0  0  0  0  0
    9.7279  -13.1575   -6.2873 C   0  0  2  0  0  0  0  0  0  0  0  0
    8.2553  -12.7070   -6.4379 C   0  0  2  0  0  0  0  0  0  0  0  0
    8.1799  -11.3215   -6.0563 O   0  0  0  0  0  0  0  0  0  0  0  0
    8.5093  -11.0284   -4.6750 C   0  0  1  0  0  0  0  0  0  0  0  0
    9.9335  -11.5413   -4.2768 C   0  0  1  0  0  0  0  0  0  0  0  0
   10.0220  -11.7055   -2.8464 O   0  0  0  0  0  0  0  0  0  0  0  0
    8.3188   -9.5036   -4.4462 C   0  0  2  0  0  0  0  0  0  0  0  0
    6.7281   -8.8886   -5.0982 S   0  0  0  0  0  0  0  0  0  0  0  0
   -3.4303  -14.9729   -0.5375 O   0  0  0  0  0  0  0  0  0  0  0  0
   -2.4125  -15.1946    2.4513 O   0  0  0  0  0  0  0  0  0  0  0  0
    4.5797  -15.9733   -2.4026 O   0  0  0  0  0  0  0  0  0  0  0  0
    2.4744  -15.2330   -0.5328 O   0  0  0  0  0  0  0  0  0  0  0  0
    7.1016  -15.4471   -7.7264 O   0  0  0  0  0  0  0  0  0  0  0  0
    4.8582  -17.2184   -7.5210 O   0  0  0  0  0  0  0  0  0  0  0  0
   11.5677  -13.3116   -4.6889 O   0  0  0  0  0  0  0  0  0  0  0  0
    9.8897  -14.5097   -6.7101 O   0  0  0  0  0  0  0  0  0  0  0  0
   13.9374  -11.8213   -0.6795 O   0  0  0  0  0  0  0  0  0  0  0  0
   12.7370  -10.4160   -3.2602 O   0  0  0  0  0  0  0  0  0  0  0  0
    6.8959  -16.2363   -0.8224 O   0  0  0  0  0  0  0  0  0  0  0  0
    8.4026  -13.8400   -1.5542 O   0  0  0  0  0  0  0  0  0  0  0  0
    4.9931  -19.9315    3.3263 O   0  0  0  0  0  0  0  0  0  0  0  0
    7.6373  -20.3681    2.3375 O   0  0  0  0  0  0  0  0  0  0  0  0
   -0.2584  -17.8791    1.8344 O   0  0  0  0  0  0  0  0  0  0  0  0
    1.9346  -19.4926    2.8034 O   0  0  0  0  0  0  0  0  0  0  0  0
    2.6962  -14.4727    7.1241 C   0  0  1  0  0  0  0  0  0  0  0  0
    3.8982  -14.3269    8.0888 C   0  0  2  0  0  0  0  0  0  0  0  0
    6.7377  -12.8585    1.4654 C   0  0  1  0  0  0  0  0  0  0  0  0
    6.7287  -11.3170    1.6233 C   0  0  2  0  0  0  0  0  0  0  0  0
   14.1160  -18.9415   -0.2520 C   0  0  1  0  0  0  0  0  0  0  0  0
   11.2178  -13.6426    3.1178 C   0  0  1  0  0  0  0  0  0  0  0  0
   11.9178  -14.5472    4.1608 C   0  0  2  0  0  0  0  0  0  0  0  0
   -0.9044  -13.0940   -4.3565 C   0  0  2  0  0  0  0  0  0  0  0  0
   -1.5136  -13.0662   -5.7826 C   0  0  2  0  0  0  0  0  0  0  0  0
   -1.3215  -19.7642   -5.7820 C   0  0  2  0  0  0  0  0  0  0  0  0
   -2.7730  -19.9022   -6.3001 C   0  0  2  0  0  0  0  0  0  0  0  0
    7.1290   -8.3547   -6.7998 C   0  0  2  0  0  0  0  0  0  0  0  0
    5.8681   -8.1708   -7.6777 C   0  0  1  0  0  0  0  0  0  0  0  0
    3.4188  -12.1418   -2.0521 C   0  0  2  0  0  0  0  0  0  0  0  0
    3.0048  -10.9094   -1.2092 C   0  0  2  0  0  0  0  0  0  0  0  0
   15.6073  -18.8672    0.1490 C   0  0  2  0  0  0  0  0  0  0  0  0
   16.4180  -19.8883   -0.5413 C   0  0  0  0  0  0  0  0  0  0  0  0
   16.5676  -19.8575   -1.7841 O   0  0  0  0  0  0  0  0  0  0  0  0
   17.0192  -20.8784    0.1582 O   0  0  0  0  0  0  0  0  0  0  0  0
   -3.0711  -21.2677   -6.7734 C   0  0  0  0  0  0  0  0  0  0  0  0
   -3.0477  -22.2390   -5.9841 O   0  0  0  0  0  0  0  0  0  0  0  0
   -3.3813  -21.4950   -8.0714 O   0  0  0  0  0  0  0  0  0  0  0  0
    5.1845   -9.4420   -7.9803 C   0  0  0  0  0  0  0  0  0  0  0  0
    5.7644  -10.3359   -8.6369 O   0  0  0  0  0  0  0  0  0  0  0  0
    3.9219   -9.6710   -7.5516 O   0  0  0  0  0  0  0  0  0  0  0  0
    2.9521  -11.1362    0.2516 C   0  0  0  0  0  0  0  0  0  0  0  0
    2.7120  -10.1731    1.0153 O   0  0  0  0  0  0  0  0  0  0  0  0
    3.1315  -12.3583    0.8079 O   0  0  0  0  0  0  0  0  0  0  0  0
    3.7120  -15.0826    9.3440 C   0  0  0  0  0  0  0  0  0  0  0  0
    3.6100  -16.3305    9.3302 O   0  0  0  0  0  0  0  0  0  0  0  0
    3.6617  -14.4452   10.5373 O   0  0  0  0  0  0  0  0  0  0  0  0
    6.6666  -10.5559    0.3553 C   0  0  0  0  0  0  0  0  0  0  0  0
    6.5362   -9.3118    0.3925 O   0  0  0  0  0  0  0  0  0  0  0  0
    6.7692  -11.1413   -0.8630 O   0  0  0  0  0  0  0  0  0  0  0  0
   11.1261  -15.7516    4.4848 C   0  0  0  0  0  0  0  0  0  0  0  0
   11.5944  -16.8996    4.3057 O   0  0  0  0  0  0  0  0  0  0  0  0
    9.8747  -15.6460    4.9885 O   0  0  0  0  0  0  0  0  0  0  0  0
   -0.6848  -13.7719   -6.7778 C   0  0  0  0  0  0  0  0  0  0  0  0
   -0.5935  -15.0200   -6.7534 O   0  0  0  0  0  0  0  0  0  0  0  0
   -0.0360  -13.0995   -7.7553 O   0  0  0  0  0  0  0  0  0  0  0  0
    1.6356  -17.2547    1.4329 H   0  0  0  0  0  0  0  0  0  0  0  0
    0.9209  -18.3684    4.1707 H   0  0  0  0  0  0  0  0  0  0  0  0
    3.2705  -18.1740    4.7146 H   0  0  0  0  0  0  0  0  0  0  0  0
    2.6788  -14.9955    2.8992 H   0  0  0  0  0  0  0  0  0  0  0  0
   -0.1888  -15.8804    3.4651 H   0  0  0  0  0  0  0  0  0  0  0  0
    0.6985  -14.2275    5.0984 H   0  0  0  0  0  0  0  0  0  0  0  0
    1.3789  -13.2027    3.8304 H   0  0  0  0  0  0  0  0  0  0  0  0
   -2.2216  -16.3696    0.2770 H   0  0  0  0  0  0  0  0  0  0  0  0
   -2.5272  -13.5645    1.2610 H   0  0  0  0  0  0  0  0  0  0  0  0
   -0.3735  -13.3572    2.3408 H   0  0  0  0  0  0  0  0  0  0  0  0
    0.4750  -13.7161   -1.6404 H   0  0  0  0  0  0  0  0  0  0  0  0
   -1.4871  -15.3301   -2.0452 H   0  0  0  0  0  0  0  0  0  0  0  0
   -0.6861  -11.6415   -1.6192 H   0  0  0  0  0  0  0  0  0  0  0  0
   -2.0748  -12.3192   -0.7842 H   0  0  0  0  0  0  0  0  0  0  0  0
    5.5113  -18.9471    1.6157 H   0  0  0  0  0  0  0  0  0  0  0  0
    7.4365  -19.1722    3.9834 H   0  0  0  0  0  0  0  0  0  0  0  0
    9.0772  -18.0791    2.7252 H   0  0  0  0  0  0  0  0  0  0  0  0
    5.9555  -16.2917    1.5456 H   0  0  0  0  0  0  0  0  0  0  0  0
    5.4492  -17.4905    4.3139 H   0  0  0  0  0  0  0  0  0  0  0  0
    5.8160  -15.1256    4.3559 H   0  0  0  0  0  0  0  0  0  0  0  0
    4.9324  -14.6108    2.9279 H   0  0  0  0  0  0  0  0  0  0  0  0
    2.9688  -14.8819   -3.0284 H   0  0  0  0  0  0  0  0  0  0  0  0
    2.8043  -17.1699   -1.0186 H   0  0  0  0  0  0  0  0  0  0  0  0
    0.7612  -17.7202   -1.7855 H   0  0  0  0  0  0  0  0  0  0  0  0
    1.1662  -16.0524   -5.0492 H   0  0  0  0  0  0  0  0  0  0  0  0
    3.0995  -17.8297   -3.5758 H   0  0  0  0  0  0  0  0  0  0  0  0
    0.8801  -18.8838   -3.9491 H   0  0  0  0  0  0  0  0  0  0  0  0
    1.3701  -18.4779   -5.6022 H   0  0  0  0  0  0  0  0  0  0  0  0
    8.1354  -15.3206    0.5222 H   0  0  0  0  0  0  0  0  0  0  0  0
    8.7805  -15.6208   -2.4420 H   0  0  0  0  0  0  0  0  0  0  0  0
   10.9740  -15.8094   -1.9400 H   0  0  0  0  0  0  0  0  0  0  0  0
   10.4804  -16.8591    1.5515 H   0  0  0  0  0  0  0  0  0  0  0  0
    9.0276  -17.7993   -0.9093 H   0  0  0  0  0  0  0  0  0  0  0  0
   11.4774  -18.0257   -1.0771 H   0  0  0  0  0  0  0  0  0  0  0  0
   11.1167  -18.9675    0.3795 H   0  0  0  0  0  0  0  0  0  0  0  0
    6.5112  -15.9732   -5.8426 H   0  0  0  0  0  0  0  0  0  0  0  0
    4.4895  -15.2764   -8.0328 H   0  0  0  0  0  0  0  0  0  0  0  0
    2.7391  -15.8040   -6.5678 H   0  0  0  0  0  0  0  0  0  0  0  0
    5.2463  -14.2911   -4.2010 H   0  0  0  0  0  0  0  0  0  0  0  0
    5.7939  -13.2347   -7.0216 H   0  0  0  0  0  0  0  0  0  0  0  0
    4.7445  -11.6234   -5.5667 H   0  0  0  0  0  0  0  0  0  0  0  0
    5.5481  -11.9208   -4.0341 H   0  0  0  0  0  0  0  0  0  0  0  0
   13.1387  -12.6781   -2.3273 H   0  0  0  0  0  0  0  0  0  0  0  0
   12.4969   -9.9453   -1.3096 H   0  0  0  0  0  0  0  0  0  0  0  0
   10.2848   -9.7356   -2.2364 H   0  0  0  0  0  0  0  0  0  0  0  0
    9.9786  -12.7408    0.5046 H   0  0  0  0  0  0  0  0  0  0  0  0
   12.3629  -13.6105    0.0131 H   0  0  0  0  0  0  0  0  0  0  0  0
   10.5105  -10.9025    1.9353 H   0  0  0  0  0  0  0  0  0  0  0  0
   11.9785  -10.5157    1.0493 H   0  0  0  0  0  0  0  0  0  0  0  0
    9.6303  -13.6979   -4.2160 H   0  0  0  0  0  0  0  0  0  0  0  0
   10.3533  -12.5367   -6.9352 H   0  0  0  0  0  0  0  0  0  0  0  0
    8.0101  -12.7694   -7.5031 H   0  0  0  0  0  0  0  0  0  0  0  0
    7.7898  -11.5366   -4.0309 H   0  0  0  0  0  0  0  0  0  0  0  0
   10.6965  -10.8741   -4.6859 H   0  0  0  0  0  0  0  0  0  0  0  0
    9.1347   -8.9408   -4.9062 H   0  0  0  0  0  0  0  0  0  0  0  0
    8.3204   -9.2990   -3.3758 H   0  0  0  0  0  0  0  0  0  0  0  0
   -3.5653  -15.6063   -1.2726 H   0  0  0  0  0  0  0  0  0  0  0  0
   -2.3300  -14.5731    3.2049 H   0  0  0  0  0  0  0  0  0  0  0  0
    4.7430  -16.9131   -2.1764 H   0  0  0  0  0  0  0  0  0  0  0  0
    2.0981  -15.5953    0.2910 H   0  0  0  0  0  0  0  0  0  0  0  0
    6.7477  -14.8724   -8.4375 H   0  0  0  0  0  0  0  0  0  0  0  0
    3.9594  -17.4469   -7.8380 H   0  0  0  0  0  0  0  0  0  0  0  0
   11.6204  -14.2630   -4.9183 H   0  0  0  0  0  0  0  0  0  0  0  0
    9.3390  -15.0378   -6.0961 H   0  0  0  0  0  0  0  0  0  0  0  0
   14.3084  -12.7006   -0.4573 H   0  0  0  0  0  0  0  0  0  0  0  0
   12.4146   -9.5103   -3.4505 H   0  0  0  0  0  0  0  0  0  0  0  0
    7.0149  -16.8053   -1.6117 H   0  0  0  0  0  0  0  0  0  0  0  0
    8.8092  -13.4392   -2.3454 H   0  0  0  0  0  0  0  0  0  0  0  0
    5.2000  -19.8441    4.2805 H   0  0  0  0  0  0  0  0  0  0  0  0
    8.5901  -20.4610    2.5495 H   0  0  0  0  0  0  0  0  0  0  0  0
    0.0104  -18.7093    1.3884 H   0  0  0  0  0  0  0  0  0  0  0  0
    2.5494  -19.3182    2.0613 H   0  0  0  0  0  0  0  0  0  0  0  0
    1.7886  -14.1000    7.6034 H   0  0  0  0  0  0  0  0  0  0  0  0
    2.5509  -15.5270    6.8889 H   0  0  0  0  0  0  0  0  0  0  0  0
    4.0415  -13.2690    8.3233 H   0  0  0  0  0  0  0  0  0  0  0  0
    4.8057  -14.6915    7.6005 H   0  0  0  0  0  0  0  0  0  0  0  0
    7.5067  -13.1338    0.7518 H   0  0  0  0  0  0  0  0  0  0  0  0
    5.7735  -13.2037    1.0899 H   0  0  0  0  0  0  0  0  0  0  0  0
    7.6354  -11.0026    2.1462 H   0  0  0  0  0  0  0  0  0  0  0  0
    5.8679  -11.0397    2.2373 H   0  0  0  0  0  0  0  0  0  0  0  0
   13.7167  -19.9302   -0.0125 H   0  0  0  0  0  0  0  0  0  0  0  0
   14.0093  -18.7715   -1.3260 H   0  0  0  0  0  0  0  0  0  0  0  0
   10.3191  -13.1952    3.5474 H   0  0  0  0  0  0  0  0  0  0  0  0
   10.9353  -14.2339    2.2508 H   0  0  0  0  0  0  0  0  0  0  0  0
   12.0771  -13.9797    5.0804 H   0  0  0  0  0  0  0  0  0  0  0  0
   12.8997  -14.8506    3.7835 H   0  0  0  0  0  0  0  0  0  0  0  0
   -0.4896  -14.0752   -4.1391 H   0  0  0  0  0  0  0  0  0  0  0  0
   -0.1084  -12.3507   -4.2759 H   0  0  0  0  0  0  0  0  0  0  0  0
   -1.6422  -12.0241   -6.0889 H   0  0  0  0  0  0  0  0  0  0  0  0
   -2.5016  -13.5350   -5.7846 H   0  0  0  0  0  0  0  0  0  0  0  0
   -1.1595  -20.4358   -4.9359 H   0  0  0  0  0  0  0  0  0  0  0  0
   -0.6193  -20.0249   -6.5771 H   0  0  0  0  0  0  0  0  0  0  0  0
   -2.9263  -19.1975   -7.1217 H   0  0  0  0  0  0  0  0  0  0  0  0
   -3.4767  -19.6501   -5.5028 H   0  0  0  0  0  0  0  0  0  0  0  0
    7.8025   -9.0725   -7.2711 H   0  0  0  0  0  0  0  0  0  0  0  0
    7.6545   -7.4010   -6.7299 H   0  0  0  0  0  0  0  0  0  0  0  0
    5.1743   -7.4963   -7.1715 H   0  0  0  0  0  0  0  0  0  0  0  0
    6.1579   -7.7008   -8.6211 H   0  0  0  0  0  0  0  0  0  0  0  0
    4.4563  -12.4082   -1.8512 H   0  0  0  0  0  0  0  0  0  0  0  0
    2.7884  -12.9761   -1.7675 H   0  0  0  0  0  0  0  0  0  0  0  0
    2.0105  -10.5811   -1.5199 H   0  0  0  0  0  0  0  0  0  0  0  0
    3.7069  -10.0971   -1.4093 H   0  0  0  0  0  0  0  0  0  0  0  0
   15.6921  -19.0092    1.2295 H   0  0  0  0  0  0  0  0  0  0  0  0
   16.0091  -17.8807   -0.0944 H   0  0  0  0  0  0  0  0  0  0  0  0
   17.5495  -21.5595   -0.3065 H   0  0  0  0  0  0  0  0  0  0  0  0
   -3.5753  -22.4040   -8.3840 H   0  0  0  0  0  0  0  0  0  0  0  0
    3.4851  -10.5239   -7.7554 H   0  0  0  0  0  0  0  0  0  0  0  0
    3.0740  -12.4725    1.7796 H   0  0  0  0  0  0  0  0  0  0  0  0
    3.5471  -14.9577   11.3659 H   0  0  0  0  0  0  0  0  0  0  0  0
    6.7375  -10.5935   -1.6770 H   0  0  0  0  0  0  0  0  0  0  0  0
    9.3641  -16.4517    5.2157 H   0  0  0  0  0  0  0  0  0  0  0  0
    0.4886  -13.5910   -8.4223 H   0  0  0  0  0  0  0  0  0  0  0  0
  1  2  1  0  0  0  0 
  2  3  1  0  0  0  0 
  3  4  1  0  0  0  0 
  4  5  1  0  0  0  0 
  5  6  1  0  0  0  0 
  6  1  1  0  0  0  0 
  6  7  1  0  0  0  0 
  5  8  1  0  0  0  0 
  8  9  1  0  0  0  0 
 10 11  1  0  0  0  0 
 11 12  1  0  0  0  0 
 12 13  1  0  0  0  0 
 13 14  1  0  0  0  0 
 14 15  1  0  0  0  0 
 15 10  1  0  0  0  0 
 15 16  1  0  0  0  0 
 14 17  1  0  0  0  0 
 17 18  1  0  0  0  0 
 19 20  1  0  0  0  0 
 20 21  1  0  0  0  0 
 21 22  1  0  0  0  0 
 22 23  1  0  0  0  0 
 23 24  1  0  0  0  0 
 24 19  1  0  0  0  0 
 24 25  1  0  0  0  0 
 23 26  1  0  0  0  0 
 26 27  1  0  0  0  0 
 28 29  1  0  0  0  0 
 29 30  1  0  0  0  0 
 30 31  1  0  0  0  0 
 31 32  1  0  0  0  0 
 32 33  1  0  0  0  0 
 33 28  1  0  0  0  0 
 33 34  1  0  0  0  0 
 32 35  1  0  0  0  0 
 35 36  1  0  0  0  0 
 37 38  1  0  0  0  0 
 38 39  1  0  0  0  0 
 39 40  1  0  0  0  0 
 40 41  1  0  0  0  0 
 41 42  1  0  0  0  0 
 42 37  1  0  0  0  0 
 42 43  1  0  0  0  0 
 41 44  1  0  0  0  0 
 44 45  1  0  0  0  0 
 46 47  1  0  0  0  0 
 47 48  1  0  0  0  0 
 48 49  1  0  0  0  0 
 49 50  1  0  0  0  0 
 50 51  1  0  0  0  0 
 51 46  1  0  0  0  0 
 51 52  1  0  0  0  0 
 50 53  1  0  0  0  0 
 53 54  1  0  0  0  0 
 55 56  1  0  0  0  0 
 56 57  1  0  0  0  0 
 57 58  1  0  0  0  0 
 58 59  1  0  0  0  0 
 59 60  1  0  0  0  0 
 60 55  1  0  0  0  0 
 60 61  1  0  0  0  0 
 59 62  1  0  0  0  0 
 62 63  1  0  0  0  0 
 64 65  1  0  0  0  0 
 65 66  1  0  0  0  0 
 66 67  1  0  0  0  0 
 67 68  1  0  0  0  0 
 68 69  1  0  0  0  0 
 69 64  1  0  0  0  0 
 69 70  1  0  0  0  0 
 68 71  1  0  0  0  0 
 71 72  1  0  0  0  0 
 10 73  1  0  0  0  0 
 11 74  1  0  0  0  0 
 28 75  1  0  0  0  0 
 29 76  1  0  0  0  0 
 46 77  1  0  0  0  0 
 47 78  1  0  0  0  0 
 64 79  1  0  0  0  0 
 65 80  1  0  0  0  0 
 55 81  1  0  0  0  0 
 56 82  1  0  0  0  0 
 37 83  1  0  0  0  0 
 38 84  1  0  0  0  0 
 19 85  1  0  0  0  0 
 20 86  1  0  0  0  0 
  1 87  1  0  0  0  0 
  2 88  1  0  0  0  0 
  9 89  1  0  0  0  0 
 89 90  1  0  0  0  0 
 27 91  1  0  0  0  0 
 91 92  1  0  0  0  0 
 45 93  1  0  0  0  0 
 63 94  1  0  0  0  0 
 94 95  1  0  0  0  0 
 18 96  1  0  0  0  0 
 96 97  1  0  0  0  0 
 36 98  1  0  0  0  0 
 98 99  1  0  0  0  0 
 72100  1  0  0  0  0 
100101  1  0  0  0  0 
 54102  1  0  0  0  0 
102103  1  0  0  0  0 
 93104  1  0  0  0  0 
  3 25  1  0  0  0  0 
 21 43  1  0  0  0  0 
 57 70  1  0  0  0  0 
 66 52  1  0  0  0  0 
 48 34  1  0  0  0  0 
 30 16  1  0  0  0  0 
 12  7  1  0  0  0  0 
 39 61  1  0  0  0  0 
104105  1  0  0  0  0 
 99108  1  0  0  0  0 
101111  1  0  0  0  0 
103114  1  0  0  0  0 
 90117  1  0  0  0  0 
 92120  1  0  0  0  0 
 95123  1  0  0  0  0 
 97126  1  0  0  0  0 
105106  2  0  0  0  0 
105107  1  0  0  0  0 
108109  2  0  0  0  0 
108110  1  0  0  0  0 
111112  2  0  0  0  0 
111113  1  0  0  0  0 
114115  2  0  0  0  0 
114116  1  0  0  0  0 
117118  2  0  0  0  0 
117119  1  0  0  0  0 
120121  2  0  0  0  0 
120122  1  0  0  0  0 
123124  2  0  0  0  0 
123125  1  0  0  0  0 
126127  2  0  0  0  0 
126128  1  0  0  0  0 
  1129  1  0  0  0  0 
  2130  1  0  0  0  0 
  3131  1  0  0  0  0 
  5132  1  0  0  0  0 
  6133  1  0  0  0  0 
  8134  1  0  0  0  0 
  8135  1  0  0  0  0 
 10136  1  0  0  0  0 
 11137  1  0  0  0  0 
 12138  1  0  0  0  0 
 14139  1  0  0  0  0 
 15140  1  0  0  0  0 
 17141  1  0  0  0  0 
 17142  1  0  0  0  0 
 19143  1  0  0  0  0 
 20144  1  0  0  0  0 
 21145  1  0  0  0  0 
 23146  1  0  0  0  0 
 24147  1  0  0  0  0 
 26148  1  0  0  0  0 
 26149  1  0  0  0  0 
 28150  1  0  0  0  0 
 29151  1  0  0  0  0 
 30152  1  0  0  0  0 
 32153  1  0  0  0  0 
 33154  1  0  0  0  0 
 35155  1  0  0  0  0 
 35156  1  0  0  0  0 
 37157  1  0  0  0  0 
 38158  1  0  0  0  0 
 39159  1  0  0  0  0 
 41160  1  0  0  0  0 
 42161  1  0  0  0  0 
 44162  1  0  0  0  0 
 44163  1  0  0  0  0 
 46164  1  0  0  0  0 
 47165  1  0  0  0  0 
 48166  1  0  0  0  0 
 50167  1  0  0  0  0 
 51168  1  0  0  0  0 
 53169  1  0  0  0  0 
 53170  1  0  0  0  0 
 55171  1  0  0  0  0 
 56172  1  0  0  0  0 
 57173  1  0  0  0  0 
 59174  1  0  0  0  0 
 60175  1  0  0  0  0 
 62176  1  0  0  0  0 
 62177  1  0  0  0  0 
 64178  1  0  0  0  0 
 65179  1  0  0  0  0 
 66180  1  0  0  0  0 
 68181  1  0  0  0  0 
 69182  1  0  0  0  0 
 71183  1  0  0  0  0 
 71184  1  0  0  0  0 
 73185  1  0  0  0  0 
 74186  1  0  0  0  0 
 75187  1  0  0  0  0 
 76188  1  0  0  0  0 
 77189  1  0  0  0  0 
 78190  1  0  0  0  0 
 79191  1  0  0  0  0 
 80192  1  0  0  0  0 
 81193  1  0  0  0  0 
 82194  1  0  0  0  0 
 83195  1  0  0  0  0 
 84196  1  0  0  0  0 
 85197  1  0  0  0  0 
 86198  1  0  0  0  0 
 87199  1  0  0  0  0 
 88200  1  0  0  0  0 
 89201  1  0  0  0  0 
 89202  1  0  0  0  0 
 90203  1  0  0  0  0 
 90204  1  0  0  0  0 
 91205  1  0  0  0  0 
 91206  1  0  0  0  0 
 92207  1  0  0  0  0 
 92208  1  0  0  0  0 
 93209  1  0  0  0  0 
 93210  1  0  0  0  0 
 94211  1  0  0  0  0 
 94212  1  0  0  0  0 
 95213  1  0  0  0  0 
 95214  1  0  0  0  0 
 96215  1  0  0  0  0 
 96216  1  0  0  0  0 
 97217  1  0  0  0  0 
 97218  1  0  0  0  0 
 98219  1  0  0  0  0 
 98220  1  0  0  0  0 
 99221  1  0  0  0  0 
 99222  1  0  0  0  0 
100223  1  0  0  0  0 
100224  1  0  0  0  0 
101225  1  0  0  0  0 
101226  1  0  0  0  0 
102227  1  0  0  0  0 
102228  1  0  0  0  0 
103229  1  0  0  0  0 
103230  1  0  0  0  0 
104231  1  0  0  0  0 
104232  1  0  0  0  0 
107233  1  0  0  0  0 
110234  1  0  0  0  0 
113235  1  0  0  0  0 
116236  1  0  0  0  0 
119237  1  0  0  0  0 
122238  1  0  0  0  0 
125239  1  0  0  0  0 
128240  1  0  0  0  0 
M  END
> <cdk:Title>
sugammadex

> <Conformer>
1

> <SuperDrugID>
SD003442

$$$$
