clavulanic acid
  CDK     0628171802

 23 24  0  0  0  0  0  0  0  0999 V2000
    2.2460   -0.4007   -1.6556 O   0  0  0  0  0  0  0  0  0  0  0  0
    1.0385   -0.6634   -2.3603 C   0  0  1  0  0  0  0  0  0  0  0  0
    0.5377    0.5512   -2.9705 C   0  0  0  0  0  0  0  0  0  0  0  0
    0.0305    1.5824   -2.2724 C   0  0  0  0  0  0  0  0  0  0  0  0
   -0.0612    1.5501   -0.9166 O   0  0  0  0  0  0  0  0  0  0  0  0
   -0.2514    2.9155   -0.5088 C   0  0  2  0  0  0  0  0  0  0  0  0
   -1.5353    3.4246    0.2223 C   0  0  1  0  0  0  0  0  0  0  0  0
   -1.9958    3.8200   -1.1096 C   0  0  0  0  0  0  0  0  0  0  0  0
   -3.0811    4.2519   -1.5568 O   0  0  0  0  0  0  0  0  0  0  0  0
   -0.8939    3.3349   -1.6689 N   0  0  0  0  0  0  0  0  0  0  0  0
   -0.4920    2.7947   -2.8926 C   0  0  1  0  0  0  0  0  0  0  0  0
    0.5125    3.6176   -3.6021 C   0  0  0  0  0  0  0  0  0  0  0  0
    0.2730    4.0357   -4.8657 O   0  0  0  0  0  0  0  0  0  0  0  0
    1.5980    3.9395   -3.0663 O   0  0  0  0  0  0  0  0  0  0  0  0
    2.5139   -1.2695   -1.2920 H   0  0  0  0  0  0  0  0  0  0  0  0
    1.2411   -1.4138   -3.1271 H   0  0  0  0  0  0  0  0  0  0  0  0
    0.2993   -1.0785   -1.6728 H   0  0  0  0  0  0  0  0  0  0  0  0
    0.5791    0.6195   -3.9607 H   0  0  0  0  0  0  0  0  0  0  0  0
    0.6687    3.4746   -0.3082 H   0  0  0  0  0  0  0  0  0  0  0  0
   -2.1269    2.6247    0.6757 H   0  0  0  0  0  0  0  0  0  0  0  0
   -1.3614    4.2789    0.8814 H   0  0  0  0  0  0  0  0  0  0  0  0
   -1.3555    2.5748   -3.5260 H   0  0  0  0  0  0  0  0  0  0  0  0
    0.9431    4.5698   -5.3404 H   0  0  0  0  0  0  0  0  0  0  0  0
  1  2  1  0  0  0  0 
  2  3  1  0  0  0  0 
  3  4  2  0  0  0  0 
  4  5  1  0  0  0  0 
  5  6  1  0  0  0  0 
  6  7  1  0  0  0  0 
  7  8  1  0  0  0  0 
  8  9  2  0  0  0  0 
  8 10  1  0  0  0  0 
  6 10  1  0  0  0  0 
 10 11  1  0  0  0  0 
  4 11  1  0  0  0  0 
 11 12  1  0  0  0  0 
 12 13  1  0  0  0  0 
 12 14  2  0  0  0  0 
  1 15  1  0  0  0  0 
  2 16  1  0  0  0  0 
  2 17  1  0  0  0  0 
  3 18  1  0  0  0  0 
  6 19  1  0  0  0  0 
  7 20  1  0  0  0  0 
  7 21  1  0  0  0  0 
 11 22  1  0  0  0  0 
 13 23  1  0  0  0  0 
M  END
> <cdk:Title>
clavulanic acid

> <Conformer>
1

> <SuperDrugID>
SD000588

$$$$
