procyclidine
  CDK     0628171801

 50 52  0  0  0  0  0  0  0  0999 V2000
   -3.1561    2.3486    2.1760 C   0  0  1  0  0  0  0  0  0  0  0  0
   -2.2615    1.3783    1.3142 C   0  0  1  0  0  0  0  0  0  0  0  0
   -4.3674    1.6167    2.9054 C   0  0  2  0  0  0  0  0  0  0  0  0
   -2.3159    3.0972    3.1918 C   0  0  0  0  0  0  0  0  0  0  0  0
   -1.0316    2.0149    0.5972 C   0  0  2  0  0  0  0  0  0  0  0  0
   -5.2724    0.7540    1.9587 C   0  0  1  0  0  0  0  0  0  0  0  0
   -5.2672    2.6093    3.7255 C   0  0  2  0  0  0  0  0  0  0  0  0
   -1.6424    2.4020    4.2310 C   0  0  0  0  0  0  0  0  0  0  0  0
   -2.2037    4.5142    3.1847 C   0  0  0  0  0  0  0  0  0  0  0  0
   -0.5201    1.1421   -0.5039 N   0  0  1  0  0  0  0  0  0  0  0  0
   -6.4889    0.0992    2.6681 C   0  0  2  0  0  0  0  0  0  0  0  0
   -6.4646    1.9250    4.4384 C   0  0  2  0  0  0  0  0  0  0  0  0
   -0.9369    3.0859    5.2387 C   0  0  0  0  0  0  0  0  0  0  0  0
   -1.4907    5.2023    4.1848 C   0  0  0  0  0  0  0  0  0  0  0  0
    0.3223    1.7927   -1.5287 C   0  0  1  0  0  0  0  0  0  0  0  0
    0.2256   -0.0757   -0.1097 C   0  0  1  0  0  0  0  0  0  0  0  0
   -7.3411    1.1394    3.4345 C   0  0  2  0  0  0  0  0  0  0  0  0
   -0.8626    4.4885    5.2182 C   0  0  0  0  0  0  0  0  0  0  0  0
    0.8102    0.6150   -2.3892 C   0  0  1  0  0  0  0  0  0  0  0  0
    0.9209   -0.5616   -1.4009 C   0  0  1  0  0  0  0  0  0  0  0  0
   -3.7360    3.2639    1.2299 O   0  0  0  0  0  0  0  0  0  0  0  0
   -1.9154    0.5495    1.9363 H   0  0  0  0  0  0  0  0  0  0  0  0
   -2.8801    0.9459    0.5240 H   0  0  0  0  0  0  0  0  0  0  0  0
   -3.9440    0.9105    3.6253 H   0  0  0  0  0  0  0  0  0  0  0  0
   -0.2412    2.2230    1.3243 H   0  0  0  0  0  0  0  0  0  0  0  0
   -1.3436    2.9700    0.1657 H   0  0  0  0  0  0  0  0  0  0  0  0
   -5.6465    1.3709    1.1392 H   0  0  0  0  0  0  0  0  0  0  0  0
   -4.6868   -0.0602    1.5279 H   0  0  0  0  0  0  0  0  0  0  0  0
   -5.6572    3.3847    3.0615 H   0  0  0  0  0  0  0  0  0  0  0  0
   -4.6734    3.1057    4.4958 H   0  0  0  0  0  0  0  0  0  0  0  0
   -1.6738    1.3822    4.2724 H   0  0  0  0  0  0  0  0  0  0  0  0
   -2.6527    5.0740    2.4585 H   0  0  0  0  0  0  0  0  0  0  0  0
   -6.1427   -0.6679    3.3682 H   0  0  0  0  0  0  0  0  0  0  0  0
   -7.1204   -0.3949    1.9244 H   0  0  0  0  0  0  0  0  0  0  0  0
   -7.0775    2.6851    4.9327 H   0  0  0  0  0  0  0  0  0  0  0  0
   -6.0943    1.2438    5.2115 H   0  0  0  0  0  0  0  0  0  0  0  0
   -0.4818    2.5629    5.9915 H   0  0  0  0  0  0  0  0  0  0  0  0
   -1.4328    6.2236    4.1676 H   0  0  0  0  0  0  0  0  0  0  0  0
   -0.2552    2.5006   -2.1280 H   0  0  0  0  0  0  0  0  0  0  0  0
    1.1731    2.3146   -1.0784 H   0  0  0  0  0  0  0  0  0  0  0  0
    0.9768    0.1509    0.6537 H   0  0  0  0  0  0  0  0  0  0  0  0
   -0.4574   -0.8348    0.2776 H   0  0  0  0  0  0  0  0  0  0  0  0
   -8.1472    0.6310    3.9729 H   0  0  0  0  0  0  0  0  0  0  0  0
   -7.7973    1.8365    2.7245 H   0  0  0  0  0  0  0  0  0  0  0  0
   -0.3516    4.9856    5.9525 H   0  0  0  0  0  0  0  0  0  0  0  0
    0.0716    0.3879   -3.1646 H   0  0  0  0  0  0  0  0  0  0  0  0
    1.7676    0.8373   -2.8682 H   0  0  0  0  0  0  0  0  0  0  0  0
    1.9686   -0.8084   -1.2076 H   0  0  0  0  0  0  0  0  0  0  0  0
    0.4206   -1.4472   -1.8026 H   0  0  0  0  0  0  0  0  0  0  0  0
   -4.2052    2.7149    0.5677 H   0  0  0  0  0  0  0  0  0  0  0  0
  1  2  1  0  0  0  0 
  1  3  1  0  0  0  0 
  1  4  1  0  0  0  0 
  2  5  1  0  0  0  0 
  3  6  1  0  0  0  0 
  3  7  1  0  0  0  0 
  4  8  2  0  0  0  0 
  4  9  1  0  0  0  0 
  5 10  1  0  0  0  0 
  6 11  1  0  0  0  0 
  7 12  1  0  0  0  0 
  8 13  1  0  0  0  0 
  9 14  2  0  0  0  0 
 10 15  1  0  0  0  0 
 10 16  1  0  0  0  0 
 11 17  1  0  0  0  0 
 12 17  1  0  0  0  0 
 13 18  2  0  0  0  0 
 14 18  1  0  0  0  0 
 15 19  1  0  0  0  0 
 16 20  1  0  0  0  0 
 19 20  1  0  0  0  0 
  1 21  1  0  0  0  0 
  2 22  1  0  0  0  0 
  2 23  1  0  0  0  0 
  3 24  1  0  0  0  0 
  5 25  1  0  0  0  0 
  5 26  1  0  0  0  0 
  6 27  1  0  0  0  0 
  6 28  1  0  0  0  0 
  7 29  1  0  0  0  0 
  7 30  1  0  0  0  0 
  8 31  1  0  0  0  0 
  9 32  1  0  0  0  0 
 11 33  1  0  0  0  0 
 11 34  1  0  0  0  0 
 12 35  1  0  0  0  0 
 12 36  1  0  0  0  0 
 13 37  1  0  0  0  0 
 14 38  1  0  0  0  0 
 15 39  1  0  0  0  0 
 15 40  1  0  0  0  0 
 16 41  1  0  0  0  0 
 16 42  1  0  0  0  0 
 17 43  1  0  0  0  0 
 17 44  1  0  0  0  0 
 18 45  1  0  0  0  0 
 19 46  1  0  0  0  0 
 19 47  1  0  0  0  0 
 20 48  1  0  0  0  0 
 20 49  1  0  0  0  0 
 21 50  1  0  0  0  0 
M  END
> <cdk:Title>
procyclidine

> <Conformer>
1

> <SuperDrugID>
SD002042

$$$$
