chloramphenicol palmitate
  CDK     0628171802

 79 79  0  0  0  0  0  0  0  0999 V2000
    1.7786   -1.3247   -0.0392 C   0  0  2  0  0  0  0  0  0  0  0  0
    3.3022   -1.3452   -0.4998 C   0  0  2  0  0  0  0  0  0  0  0  0
    1.3360    0.0261   -0.2562 N   0  0  0  0  0  0  0  0  0  0  0  0
    1.4171   -1.7140    1.4874 C   0  0  2  0  0  0  0  0  0  0  0  0
    3.3691   -1.1101   -1.9093 O   0  0  0  0  0  0  0  0  0  0  0  0
    4.0486   -2.6056   -0.2053 C   0  0  0  0  0  0  0  0  0  0  0  0
    0.0510    0.4680   -0.3406 C   0  0  0  0  0  0  0  0  0  0  0  0
    1.5980   -0.6176    2.3994 O   0  0  0  0  0  0  0  0  0  0  0  0
    3.5477   -3.8664   -0.5991 C   0  0  0  0  0  0  0  0  0  0  0  0
    5.2998   -2.5709    0.4525 C   0  0  0  0  0  0  0  0  0  0  0  0
   -0.2086    1.9170   -0.4751 C   0  0  2  0  0  0  0  0  0  0  0  0
   -0.9157   -0.3288   -0.3012 O   0  0  0  0  0  0  0  0  0  0  0  0
    1.2894   -0.6244    3.7321 C   0  0  0  0  0  0  0  0  0  0  0  0
    4.2595   -5.0482   -0.3221 C   0  0  0  0  0  0  0  0  0  0  0  0
    6.0084   -3.7518    0.7356 C   0  0  0  0  0  0  0  0  0  0  0  0
    0.5389    2.5538   -1.9365 Cl  0  0  0  0  0  0  0  0  0  0  0  0
    0.4234    2.8032    0.9103 Cl  0  0  0  0  0  0  0  0  0  0  0  0
    1.4607    0.6157    4.5154 C   0  0  2  0  0  0  0  0  0  0  0  0
    0.8852   -1.6659    4.3010 O   0  0  0  0  0  0  0  0  0  0  0  0
    5.5052   -5.0240    0.3560 C   0  0  0  0  0  0  0  0  0  0  0  0
    6.1771   -6.1609    0.6230 N   0  0  0  0  0  0  0  0  0  0  0  0
    7.1850   -6.1798    1.2138 O   0  0  0  0  0  0  0  0  0  0  0  0
    5.7686   -7.3087    0.2596 O   0  0  0  0  0  0  0  0  0  0  0  0
    2.9504    1.0276    4.5661 C   0  0  1  0  0  0  0  0  0  0  0  0
    3.2003    2.3201    5.3875 C   0  0  2  0  0  0  0  0  0  0  0  0
    4.7085    2.6744    5.4045 C   0  0  2  0  0  0  0  0  0  0  0  0
    5.0417    4.0286    6.0821 C   0  0  2  0  0  0  0  0  0  0  0  0
    6.5697    4.2986    6.0217 C   0  0  1  0  0  0  0  0  0  0  0  0
    6.9863    5.6556    6.6401 C   0  0  1  0  0  0  0  0  0  0  0  0
    8.5221    5.8769    6.5698 C   0  0  1  0  0  0  0  0  0  0  0  0
    8.9491    7.2228    7.2075 C   0  0  2  0  0  0  0  0  0  0  0  0
   10.4857    7.4472    7.1927 C   0  0  1  0  0  0  0  0  0  0  0  0
   10.8737    8.7855    7.8756 C   0  0  2  0  0  0  0  0  0  0  0  0
   12.4022    9.0559    7.9050 C   0  0  2  0  0  0  0  0  0  0  0  0
   12.7366   10.4023    8.6053 C   0  0  1  0  0  0  0  0  0  0  0  0
   14.2557   10.7147    8.6547 C   0  0  1  0  0  0  0  0  0  0  0  0
   14.5611   12.0612    9.3511 C   0  0  0  0  0  0  0  0  0  0  0  0
    1.2490   -1.9470   -0.8153 H   0  0  0  0  0  0  0  0  0  0  0  0
    3.8078   -0.5011   -0.0207 H   0  0  0  0  0  0  0  0  0  0  0  0
    2.0256    0.7058   -0.3237 H   0  0  0  0  0  0  0  0  0  0  0  0
    2.0145   -2.5734    1.8026 H   0  0  0  0  0  0  0  0  0  0  0  0
    0.3663   -2.0118    1.5163 H   0  0  0  0  0  0  0  0  0  0  0  0
    4.3258   -1.0957   -2.1287 H   0  0  0  0  0  0  0  0  0  0  0  0
    2.6554   -3.9335   -1.0917 H   0  0  0  0  0  0  0  0  0  0  0  0
    5.7148   -1.6778    0.7266 H   0  0  0  0  0  0  0  0  0  0  0  0
   -1.2828    2.1152   -0.5331 H   0  0  0  0  0  0  0  0  0  0  0  0
    3.8522   -5.9358   -0.6262 H   0  0  0  0  0  0  0  0  0  0  0  0
    6.9054   -3.6684    1.2238 H   0  0  0  0  0  0  0  0  0  0  0  0
    1.0918    0.4737    5.5358 H   0  0  0  0  0  0  0  0  0  0  0  0
    0.8726    1.4144    4.0569 H   0  0  0  0  0  0  0  0  0  0  0  0
    3.5311    0.2092    5.0030 H   0  0  0  0  0  0  0  0  0  0  0  0
    3.3054    1.1888    3.5435 H   0  0  0  0  0  0  0  0  0  0  0  0
    2.8498    2.1804    6.4142 H   0  0  0  0  0  0  0  0  0  0  0  0
    2.6376    3.1427    4.9355 H   0  0  0  0  0  0  0  0  0  0  0  0
    5.0620    2.7184    4.3696 H   0  0  0  0  0  0  0  0  0  0  0  0
    5.2518    1.8741    5.9191 H   0  0  0  0  0  0  0  0  0  0  0  0
    4.7106    4.0070    7.1256 H   0  0  0  0  0  0  0  0  0  0  0  0
    4.5091    4.8339    5.5660 H   0  0  0  0  0  0  0  0  0  0  0  0
    7.0883    3.4950    6.5533 H   0  0  0  0  0  0  0  0  0  0  0  0
    6.8915    4.2793    4.9759 H   0  0  0  0  0  0  0  0  0  0  0  0
    6.4806    6.4632    6.1027 H   0  0  0  0  0  0  0  0  0  0  0  0
    6.6646    5.6824    7.6850 H   0  0  0  0  0  0  0  0  0  0  0  0
    9.0236    5.0579    7.0942 H   0  0  0  0  0  0  0  0  0  0  0  0
    8.8421    5.8594    5.5234 H   0  0  0  0  0  0  0  0  0  0  0  0
    8.5969    7.2458    8.2429 H   0  0  0  0  0  0  0  0  0  0  0  0
    8.4639    8.0387    6.6637 H   0  0  0  0  0  0  0  0  0  0  0  0
   10.9749    6.6214    7.7166 H   0  0  0  0  0  0  0  0  0  0  0  0
   10.8374    7.4532    6.1571 H   0  0  0  0  0  0  0  0  0  0  0  0
   10.5009    8.7738    8.9037 H   0  0  0  0  0  0  0  0  0  0  0  0
   10.3810    9.6044    7.3439 H   0  0  0  0  0  0  0  0  0  0  0  0
   12.7819    9.0788    6.8798 H   0  0  0  0  0  0  0  0  0  0  0  0
   12.9005    8.2408    8.4374 H   0  0  0  0  0  0  0  0  0  0  0  0
   12.2292   11.2122    8.0733 H   0  0  0  0  0  0  0  0  0  0  0  0
   12.3515   10.3733    9.6288 H   0  0  0  0  0  0  0  0  0  0  0  0
   14.7735    9.9178    9.1952 H   0  0  0  0  0  0  0  0  0  0  0  0
   14.6527   10.7515    7.6367 H   0  0  0  0  0  0  0  0  0  0  0  0
   15.6382   12.2383    9.3610 H   0  0  0  0  0  0  0  0  0  0  0  0
   14.0790   12.8839    8.8190 H   0  0  0  0  0  0  0  0  0  0  0  0
   14.2020   12.0474   10.3822 H   0  0  0  0  0  0  0  0  0  0  0  0
  2  1  1  0  0  0  0 
  1  3  1  0  0  0  0 
  1  4  1  0  0  0  0 
  2  5  1  0  0  0  0 
  2  6  1  0  0  0  0 
  3  7  1  0  0  0  0 
  4  8  1  0  0  0  0 
  6  9  2  0  0  0  0 
  6 10  1  0  0  0  0 
  7 11  1  0  0  0  0 
  7 12  2  0  0  0  0 
  8 13  1  0  0  0  0 
  9 14  1  0  0  0  0 
 10 15  2  0  0  0  0 
 11 16  1  0  0  0  0 
 11 17  1  0  0  0  0 
 13 18  1  0  0  0  0 
 13 19  2  0  0  0  0 
 14 20  2  0  0  0  0 
 15 20  1  0  0  0  0 
 20 21  1  0  0  0  0 
 21 22  2  0  0  0  0 
 21 23  1  0  0  0  0 
 24 25  1  0  0  0  0 
 25 26  1  0  0  0  0 
 26 27  1  0  0  0  0 
 27 28  1  0  0  0  0 
 28 29  1  0  0  0  0 
 29 30  1  0  0  0  0 
 30 31  1  0  0  0  0 
 31 32  1  0  0  0  0 
 32 33  1  0  0  0  0 
 33 34  1  0  0  0  0 
 34 35  1  0  0  0  0 
 35 36  1  0  0  0  0 
 36 37  1  0  0  0  0 
 18 24  1  0  0  0  0 
  1 38  1  0  0  0  0 
  2 39  1  0  0  0  0 
  3 40  1  0  0  0  0 
  4 41  1  0  0  0  0 
  4 42  1  0  0  0  0 
  5 43  1  0  0  0  0 
  9 44  1  0  0  0  0 
 10 45  1  0  0  0  0 
 11 46  1  0  0  0  0 
 14 47  1  0  0  0  0 
 15 48  1  0  0  0  0 
 18 49  1  0  0  0  0 
 18 50  1  0  0  0  0 
 24 51  1  0  0  0  0 
 24 52  1  0  0  0  0 
 25 53  1  0  0  0  0 
 25 54  1  0  0  0  0 
 26 55  1  0  0  0  0 
 26 56  1  0  0  0  0 
 27 57  1  0  0  0  0 
 27 58  1  0  0  0  0 
 28 59  1  0  0  0  0 
 28 60  1  0  0  0  0 
 29 61  1  0  0  0  0 
 29 62  1  0  0  0  0 
 30 63  1  0  0  0  0 
 30 64  1  0  0  0  0 
 31 65  1  0  0  0  0 
 31 66  1  0  0  0  0 
 32 67  1  0  0  0  0 
 32 68  1  0  0  0  0 
 33 69  1  0  0  0  0 
 33 70  1  0  0  0  0 
 34 71  1  0  0  0  0 
 34 72  1  0  0  0  0 
 35 73  1  0  0  0  0 
 35 74  1  0  0  0  0 
 36 75  1  0  0  0  0 
 36 76  1  0  0  0  0 
 37 77  1  0  0  0  0 
 37 78  1  0  0  0  0 
 37 79  1  0  0  0  0 
M  CHG  1  21   1
M  CHG  1  23  -1
M  END
> <cdk:Title>
chloramphenicol palmitate

> <Conformer>
1

> <SuperDrugID>
SD003921

$$$$
