methacholine
  CDK     0628171801

 29 28  0  0  0  0  0  0  0  0999 V2000
    0.0263    0.5770   -2.8814 C   0  0  0  0  0  0  0  0  0  0  0  0
    0.7830   -0.2107   -1.7859 C   0  0  1  0  0  0  0  0  0  0  0  0
    0.4679    0.1915   -0.3043 C   0  0  1  0  0  0  0  0  0  0  0  0
    0.8318    1.5693    0.2569 N   0  0  2  0  0  0  0  0  0  0  0  0
   -0.1438    2.6389   -0.1868 C   0  0  0  0  0  0  0  0  0  0  0  0
    2.2318    1.9792   -0.1315 C   0  0  0  0  0  0  0  0  0  0  0  0
    0.7658    1.5003    1.7717 C   0  0  0  0  0  0  0  0  0  0  0  0
    0.4092   -1.5944   -1.9433 O   0  0  0  0  0  0  0  0  0  0  0  0
    1.2203   -2.6828   -2.1020 C   0  0  0  0  0  0  0  0  0  0  0  0
    0.5891   -3.9887   -2.3336 C   0  0  0  0  0  0  0  0  0  0  0  0
    2.4686   -2.5946   -2.0383 O   0  0  0  0  0  0  0  0  0  0  0  0
    0.0785    0.0438   -3.8332 H   0  0  0  0  0  0  0  0  0  0  0  0
   -1.0250    0.7018   -2.6115 H   0  0  0  0  0  0  0  0  0  0  0  0
    0.4830    1.5555   -3.0361 H   0  0  0  0  0  0  0  0  0  0  0  0
    1.8536   -0.0997   -1.9737 H   0  0  0  0  0  0  0  0  0  0  0  0
   -0.6001    0.0069   -0.1376 H   0  0  0  0  0  0  0  0  0  0  0  0
    0.9907   -0.5711    0.2868 H   0  0  0  0  0  0  0  0  0  0  0  0
   -0.0833    2.8343   -1.2551 H   0  0  0  0  0  0  0  0  0  0  0  0
    0.0510    3.5943    0.3088 H   0  0  0  0  0  0  0  0  0  0  0  0
   -1.1775    2.3607    0.0373 H   0  0  0  0  0  0  0  0  0  0  0  0
    2.3210    2.1221   -1.2109 H   0  0  0  0  0  0  0  0  0  0  0  0
    2.5217    2.9241    0.3372 H   0  0  0  0  0  0  0  0  0  0  0  0
    2.9651    1.2240    0.1663 H   0  0  0  0  0  0  0  0  0  0  0  0
    1.4961    0.7922    2.1762 H   0  0  0  0  0  0  0  0  0  0  0  0
    0.9738    2.4692    2.2366 H   0  0  0  0  0  0  0  0  0  0  0  0
   -0.2232    1.1815    2.1149 H   0  0  0  0  0  0  0  0  0  0  0  0
   -0.0926   -4.2140   -1.5142 H   0  0  0  0  0  0  0  0  0  0  0  0
    0.0237   -3.9608   -3.2661 H   0  0  0  0  0  0  0  0  0  0  0  0
    1.3334   -4.7849   -2.4002 H   0  0  0  0  0  0  0  0  0  0  0  0
  1  2  1  0  0  0  0 
  2  3  1  0  0  0  0 
  3  4  1  0  0  0  0 
  4  5  1  0  0  0  0 
  4  6  1  0  0  0  0 
  4  7  1  0  0  0  0 
  2  8  1  0  0  0  0 
  8  9  1  0  0  0  0 
  9 10  1  0  0  0  0 
  9 11  2  0  0  0  0 
  1 12  1  0  0  0  0 
  1 13  1  0  0  0  0 
  1 14  1  0  0  0  0 
  2 15  1  0  0  0  0 
  3 16  1  0  0  0  0 
  3 17  1  0  0  0  0 
  5 18  1  0  0  0  0 
  5 19  1  0  0  0  0 
  5 20  1  0  0  0  0 
  6 21  1  0  0  0  0 
  6 22  1  0  0  0  0 
  6 23  1  0  0  0  0 
  7 24  1  0  0  0  0 
  7 25  1  0  0  0  0 
  7 26  1  0  0  0  0 
 10 27  1  0  0  0  0 
 10 28  1  0  0  0  0 
 10 29  1  0  0  0  0 
M  CHG  1   4   1
M  END
> <cdk:Title>
methacholine

> <Conformer>
1

> <SuperDrugID>
SD001527

$$$$
