sacubitril
  CDK     0628171802

 59 60  0  0  0  0  0  0  0  0999 V2000
    9.6986    2.7674    1.4887 C   0  0  0  0  0  0  0  0  0  0  0  0
   10.5482    2.1035    0.5902 C   0  0  0  0  0  0  0  0  0  0  0  0
   10.0202    1.5470   -0.5849 C   0  0  0  0  0  0  0  0  0  0  0  0
    8.6427    1.6429   -0.8521 C   0  0  0  0  0  0  0  0  0  0  0  0
    7.7572    2.3086    0.0366 C   0  0  0  0  0  0  0  0  0  0  0  0
    8.3230    2.8752    1.2107 C   0  0  0  0  0  0  0  0  0  0  0  0
    6.3493    2.3867   -0.2431 C   0  0  0  0  0  0  0  0  0  0  0  0
    5.8617    2.4953   -1.5712 C   0  0  0  0  0  0  0  0  0  0  0  0
    4.4831    2.5177   -1.8515 C   0  0  0  0  0  0  0  0  0  0  0  0
    3.5348    2.4680   -0.8071 C   0  0  0  0  0  0  0  0  0  0  0  0
    4.0068    2.3801    0.5212 C   0  0  0  0  0  0  0  0  0  0  0  0
    5.3853    2.3375    0.7944 C   0  0  0  0  0  0  0  0  0  0  0  0
    2.0719    2.5550   -1.0878 C   0  0  1  0  0  0  0  0  0  0  0  0
    1.4968    3.9759   -0.8021 C   0  0  2  0  0  0  0  0  0  0  0  0
   -0.0178    4.1914   -1.1339 C   0  0  1  0  0  0  0  0  0  0  0  0
    2.2174    4.9134   -1.6165 N   0  0  0  0  0  0  0  0  0  0  0  0
   -1.0381    3.1369   -0.5871 C   0  0  2  0  0  0  0  0  0  0  0  0
    3.1503    5.8192   -1.2256 C   0  0  0  0  0  0  0  0  0  0  0  0
    3.7441    6.6856   -2.2673 C   0  0  1  0  0  0  0  0  0  0  0  0
    3.5040    5.9369   -0.0283 O   0  0  0  0  0  0  0  0  0  0  0  0
    4.5580    5.8940   -3.3329 C   0  0  2  0  0  0  0  0  0  0  0  0
    4.9701    6.6724   -4.5196 C   0  0  0  0  0  0  0  0  0  0  0  0
    5.6871    6.0581   -5.4904 O   0  0  0  0  0  0  0  0  0  0  0  0
    4.6670    7.8771   -4.6833 O   0  0  0  0  0  0  0  0  0  0  0  0
   -1.0995    1.9241   -1.4431 C   0  0  0  0  0  0  0  0  0  0  0  0
   -0.7287    0.7141   -0.9331 O   0  0  0  0  0  0  0  0  0  0  0  0
   -1.4827    2.0140   -2.6340 O   0  0  0  0  0  0  0  0  0  0  0  0
   -0.6788   -0.5261   -1.6486 C   0  0  1  0  0  0  0  0  0  0  0  0
   -0.1040   -1.6211   -0.7332 C   0  0  0  0  0  0  0  0  0  0  0  0
   -2.4662    3.7374   -0.4387 C   0  0  0  0  0  0  0  0  0  0  0  0
   10.0822    3.1742    2.3454 H   0  0  0  0  0  0  0  0  0  0  0  0
   11.5465    2.0220    0.7921 H   0  0  0  0  0  0  0  0  0  0  0  0
   10.6369    1.0671   -1.2452 H   0  0  0  0  0  0  0  0  0  0  0  0
    8.2953    1.2052   -1.7080 H   0  0  0  0  0  0  0  0  0  0  0  0
    7.7417    3.3826    1.8804 H   0  0  0  0  0  0  0  0  0  0  0  0
    6.5074    2.5710   -2.3599 H   0  0  0  0  0  0  0  0  0  0  0  0
    4.1767    2.5893   -2.8255 H   0  0  0  0  0  0  0  0  0  0  0  0
    3.3475    2.3459    1.3028 H   0  0  0  0  0  0  0  0  0  0  0  0
    5.6738    2.2581    1.7717 H   0  0  0  0  0  0  0  0  0  0  0  0
    1.8627    2.2867   -2.1273 H   0  0  0  0  0  0  0  0  0  0  0  0
    1.5696    1.8160   -0.4639 H   0  0  0  0  0  0  0  0  0  0  0  0
    1.6331    4.1884    0.2628 H   0  0  0  0  0  0  0  0  0  0  0  0
   -0.2735    5.1689   -0.7145 H   0  0  0  0  0  0  0  0  0  0  0  0
   -0.1482    4.2867   -2.2172 H   0  0  0  0  0  0  0  0  0  0  0  0
    2.0251    4.8864   -2.5661 H   0  0  0  0  0  0  0  0  0  0  0  0
   -0.7115    2.8479    0.4168 H   0  0  0  0  0  0  0  0  0  0  0  0
    2.9261    7.2302   -2.7502 H   0  0  0  0  0  0  0  0  0  0  0  0
    4.4076    7.4215   -1.8037 H   0  0  0  0  0  0  0  0  0  0  0  0
    3.9691    5.0523   -3.7022 H   0  0  0  0  0  0  0  0  0  0  0  0
    5.4581    5.4981   -2.8582 H   0  0  0  0  0  0  0  0  0  0  0  0
    5.9500    6.5536   -6.2942 H   0  0  0  0  0  0  0  0  0  0  0  0
   -1.6823   -0.8098   -1.9773 H   0  0  0  0  0  0  0  0  0  0  0  0
   -0.0345   -0.4186   -2.5253 H   0  0  0  0  0  0  0  0  0  0  0  0
   -0.0395   -2.5673   -1.2752 H   0  0  0  0  0  0  0  0  0  0  0  0
    0.8965   -1.3379   -0.3970 H   0  0  0  0  0  0  0  0  0  0  0  0
   -0.7517   -1.7526    0.1363 H   0  0  0  0  0  0  0  0  0  0  0  0
   -2.4579    4.5687    0.2683 H   0  0  0  0  0  0  0  0  0  0  0  0
   -2.8344    4.1085   -1.3971 H   0  0  0  0  0  0  0  0  0  0  0  0
   -3.1640    2.9851   -0.0647 H   0  0  0  0  0  0  0  0  0  0  0  0
  1  2  2  0  0  0  0 
  1  6  1  0  0  0  0 
  2  3  1  0  0  0  0 
  3  4  2  0  0  0  0 
  4  5  1  0  0  0  0 
  5  6  2  0  0  0  0 
  5  7  1  0  0  0  0 
  8  9  1  0  0  0  0 
  9 10  2  0  0  0  0 
 10 11  1  0  0  0  0 
 11 12  2  0  0  0  0 
  7  8  2  0  0  0  0 
  7 12  1  0  0  0  0 
 10 13  1  0  0  0  0 
 14 13  1  0  0  0  0 
 14 15  1  0  0  0  0 
 14 16  1  0  0  0  0 
 15 17  1  0  0  0  0 
 16 18  1  0  0  0  0 
 18 19  1  0  0  0  0 
 18 20  2  0  0  0  0 
 19 21  1  0  0  0  0 
 21 22  1  0  0  0  0 
 22 23  1  0  0  0  0 
 22 24  2  0  0  0  0 
 17 25  1  0  0  0  0 
 25 26  1  0  0  0  0 
 25 27  2  0  0  0  0 
 26 28  1  0  0  0  0 
 28 29  1  0  0  0  0 
 17 30  1  0  0  0  0 
  1 31  1  0  0  0  0 
  2 32  1  0  0  0  0 
  3 33  1  0  0  0  0 
  4 34  1  0  0  0  0 
  6 35  1  0  0  0  0 
  8 36  1  0  0  0  0 
  9 37  1  0  0  0  0 
 11 38  1  0  0  0  0 
 12 39  1  0  0  0  0 
 13 40  1  0  0  0  0 
 13 41  1  0  0  0  0 
 14 42  1  0  0  0  0 
 15 43  1  0  0  0  0 
 15 44  1  0  0  0  0 
 16 45  1  0  0  0  0 
 17 46  1  0  0  0  0 
 19 47  1  0  0  0  0 
 19 48  1  0  0  0  0 
 21 49  1  0  0  0  0 
 21 50  1  0  0  0  0 
 23 51  1  0  0  0  0 
 28 52  1  0  0  0  0 
 28 53  1  0  0  0  0 
 29 54  1  0  0  0  0 
 29 55  1  0  0  0  0 
 29 56  1  0  0  0  0 
 30 57  1  0  0  0  0 
 30 58  1  0  0  0  0 
 30 59  1  0  0  0  0 
M  END
> <cdk:Title>
sacubitril

> <Conformer>
1

> <SuperDrugID>
SD003874

$$$$
