albutoin
  CDK     0628171801

 30 30  0  0  0  0  0  0  0  0999 V2000
    1.6711   -1.3135    0.1180 C   0  0  2  0  0  0  0  0  0  0  0  0
    1.1453    0.0371   -0.0064 C   0  0  0  0  0  0  0  0  0  0  0  0
    1.5083   -2.0578   -1.1029 N   0  0  0  0  0  0  0  0  0  0  0  0
   -0.1640    0.3161   -0.0318 C   0  0  0  0  0  0  0  0  0  0  0  0
    0.7223   -3.1422   -1.2831 C   0  0  0  0  0  0  0  0  0  0  0  0
    2.1012   -1.7979   -2.2932 C   0  0  0  0  0  0  0  0  0  0  0  0
   -0.0275   -3.7702   -0.3428 O   0  0  0  0  0  0  0  0  0  0  0  0
    0.7936   -3.5132   -2.6236 C   0  0  0  0  0  0  0  0  0  0  0  0
    3.2664   -0.5693   -2.6642 S   0  0  0  0  0  0  0  0  0  0  0  0
    1.6481   -2.6651   -3.2099 N   0  0  0  0  0  0  0  0  0  0  0  0
    0.0691   -4.6124   -3.2925 C   0  0  1  0  0  0  0  0  0  0  0  0
    0.5502   -6.0391   -2.8750 C   0  0  2  0  0  0  0  0  0  0  0  0
    1.9970   -6.3335   -3.3677 C   0  0  0  0  0  0  0  0  0  0  0  0
   -0.4301   -7.1281   -3.3970 C   0  0  0  0  0  0  0  0  0  0  0  0
    1.1747   -1.8073    0.9565 H   0  0  0  0  0  0  0  0  0  0  0  0
    2.7351   -1.2736    0.3649 H   0  0  0  0  0  0  0  0  0  0  0  0
    1.7871    0.7897   -0.1056 H   0  0  0  0  0  0  0  0  0  0  0  0
   -0.8454   -0.3990    0.0595 H   0  0  0  0  0  0  0  0  0  0  0  0
   -0.4725    1.2528   -0.1466 H   0  0  0  0  0  0  0  0  0  0  0  0
    0.5361   -3.7940    0.4583 H   0  0  0  0  0  0  0  0  0  0  0  0
    1.9003   -2.6830   -4.1484 H   0  0  0  0  0  0  0  0  0  0  0  0
   -0.9927   -4.4917   -3.0626 H   0  0  0  0  0  0  0  0  0  0  0  0
    0.1782   -4.4997   -4.3747 H   0  0  0  0  0  0  0  0  0  0  0  0
    0.5463   -6.1052   -1.7813 H   0  0  0  0  0  0  0  0  0  0  0  0
    2.0483   -6.2840   -4.4593 H   0  0  0  0  0  0  0  0  0  0  0  0
    2.3153   -7.3286   -3.0461 H   0  0  0  0  0  0  0  0  0  0  0  0
    2.7000   -5.6082   -2.9524 H   0  0  0  0  0  0  0  0  0  0  0  0
   -0.4898   -7.1013   -4.4884 H   0  0  0  0  0  0  0  0  0  0  0  0
   -1.4313   -6.9675   -2.9889 H   0  0  0  0  0  0  0  0  0  0  0  0
   -0.0964   -8.1223   -3.0894 H   0  0  0  0  0  0  0  0  0  0  0  0
  1  2  1  0  0  0  0 
  1  3  1  0  0  0  0 
  2  4  2  0  0  0  0 
  3  5  1  0  0  0  0 
  3  6  1  0  0  0  0 
  5  7  1  0  0  0  0 
  5  8  2  0  0  0  0 
  6  9  2  0  0  0  0 
  6 10  1  0  0  0  0 
  8 10  1  0  0  0  0 
  8 11  1  0  0  0  0 
 11 12  1  0  0  0  0 
 12 13  1  0  0  0  0 
 12 14  1  0  0  0  0 
 15  1  1  0  0  0  0 
 16  1  1  0  0  0  0 
 17  2  1  0  0  0  0 
 18  4  1  0  0  0  0 
 19  4  1  0  0  0  0 
 20  7  1  0  0  0  0 
 21 10  1  0  0  0  0 
 22 11  1  0  0  0  0 
 23 11  1  0  0  0  0 
 24 12  1  0  0  0  0 
 25 13  1  0  0  0  0 
 26 13  1  0  0  0  0 
 27 13  1  0  0  0  0 
 28 14  1  0  0  0  0 
 29 14  1  0  0  0  0 
 30 14  1  0  0  0  0 
M  END
> <cdk:Title>
albutoin

> <Conformer>
1

> <SuperDrugID>
SD000080

$$$$
