enzalutamide
  CDK     0628171802

 48 50  0  0  0  0  0  0  0  0999 V2000
   -6.4950   -1.7547    0.7255 S   0  0  0  0  0  0  0  0  0  0  0  0
   -6.8809   -0.1558    1.1879 C   0  0  0  0  0  0  0  0  0  0  0  0
   -6.0396    0.6902    1.7931 N   0  0  0  0  0  0  0  0  0  0  0  0
   -8.0705    0.4081    1.0316 N   0  0  0  0  0  0  0  0  0  0  0  0
   -6.7295    1.8755    2.2436 C   0  0  1  0  0  0  0  0  0  0  0  0
   -4.6757    0.5218    1.8418 C   0  0  0  0  0  0  0  0  0  0  0  0
   -8.0537    1.5988    1.6582 C   0  0  0  0  0  0  0  0  0  0  0  0
   -9.1322   -0.0574    0.3020 C   0  0  0  0  0  0  0  0  0  0  0  0
   -6.8601    1.9791    3.7918 C   0  0  0  0  0  0  0  0  0  0  0  0
   -6.1304    3.1770    1.6269 C   0  0  0  0  0  0  0  0  0  0  0  0
   -3.9837    0.3302    3.0557 C   0  0  0  0  0  0  0  0  0  0  0  0
   -3.9356    0.5537    0.6401 C   0  0  0  0  0  0  0  0  0  0  0  0
   -9.0219    2.3958    1.7102 O   0  0  0  0  0  0  0  0  0  0  0  0
   -9.0239   -0.1686   -1.0995 C   0  0  0  0  0  0  0  0  0  0  0  0
  -10.3578   -0.3764    0.9180 C   0  0  0  0  0  0  0  0  0  0  0  0
   -2.5827    0.1738    3.0711 C   0  0  0  0  0  0  0  0  0  0  0  0
   -2.5405    0.3950    0.6497 C   0  0  0  0  0  0  0  0  0  0  0  0
  -10.1083   -0.5938   -1.9083 C   0  0  0  0  0  0  0  0  0  0  0  0
  -11.4498   -0.8065    0.1465 C   0  0  0  0  0  0  0  0  0  0  0  0
   -2.0076   -0.0109    4.2321 F   0  0  0  0  0  0  0  0  0  0  0  0
   -1.8374    0.1957    1.8618 C   0  0  0  0  0  0  0  0  0  0  0  0
   -9.9411   -0.6866   -3.3956 C   0  0  1  0  0  0  0  0  0  0  0  0
  -11.3376   -0.9161   -1.2584 C   0  0  0  0  0  0  0  0  0  0  0  0
   -0.4246    0.0369    1.8382 C   0  0  0  0  0  0  0  0  0  0  0  0
   -8.7065   -0.3116   -3.8750 F   0  0  0  0  0  0  0  0  0  0  0  0
  -10.1320   -1.9831   -3.8051 F   0  0  0  0  0  0  0  0  0  0  0  0
  -10.8530    0.1227   -4.0298 F   0  0  0  0  0  0  0  0  0  0  0  0
  -12.3976   -1.3072   -1.9213 C   0  0  0  0  0  0  0  0  0  0  0  0
    0.1795   -0.6154    0.8020 N   0  0  0  0  0  0  0  0  0  0  0  0
    0.2694    0.5042    2.7739 O   0  0  0  0  0  0  0  0  0  0  0  0
    1.5839   -0.7903    0.6514 C   0  0  0  0  0  0  0  0  0  0  0  0
  -13.3242   -1.6460   -2.5093 N   0  0  0  0  0  0  0  0  0  0  0  0
   -7.5681    2.7649    4.0655 H   0  0  0  0  0  0  0  0  0  0  0  0
   -7.2133    1.0365    4.2155 H   0  0  0  0  0  0  0  0  0  0  0  0
   -5.9006    2.2251    4.2474 H   0  0  0  0  0  0  0  0  0  0  0  0
   -6.7479    4.0424    1.8764 H   0  0  0  0  0  0  0  0  0  0  0  0
   -6.0677    3.0973    0.5386 H   0  0  0  0  0  0  0  0  0  0  0  0
   -5.1252    3.3542    2.0147 H   0  0  0  0  0  0  0  0  0  0  0  0
   -4.5007    0.2901    3.9359 H   0  0  0  0  0  0  0  0  0  0  0  0
   -4.4115    0.6963   -0.2546 H   0  0  0  0  0  0  0  0  0  0  0  0
   -8.1302    0.0840   -1.5277 H   0  0  0  0  0  0  0  0  0  0  0  0
  -10.4639   -0.2900    1.9325 H   0  0  0  0  0  0  0  0  0  0  0  0
   -2.0421    0.4407   -0.2446 H   0  0  0  0  0  0  0  0  0  0  0  0
  -12.3275   -1.0313    0.6274 H   0  0  0  0  0  0  0  0  0  0  0  0
   -0.3880   -0.9816    0.1049 H   0  0  0  0  0  0  0  0  0  0  0  0
    2.0165   -1.2524    1.5410 H   0  0  0  0  0  0  0  0  0  0  0  0
    1.7698   -1.4395   -0.2045 H   0  0  0  0  0  0  0  0  0  0  0  0
    2.0613    0.1744    0.4730 H   0  0  0  0  0  0  0  0  0  0  0  0
  1  2  2  0  0  0  0 
  2  3  1  0  0  0  0 
  2  4  1  0  0  0  0 
  3  5  1  0  0  0  0 
  3  6  1  0  0  0  0 
  4  7  1  0  0  0  0 
  4  8  1  0  0  0  0 
  5  7  1  0  0  0  0 
  5  9  1  0  0  0  0 
  5 10  1  0  0  0  0 
  6 11  2  0  0  0  0 
  6 12  1  0  0  0  0 
  7 13  2  0  0  0  0 
  8 14  2  0  0  0  0 
  8 15  1  0  0  0  0 
 11 16  1  0  0  0  0 
 12 17  2  0  0  0  0 
 14 18  1  0  0  0  0 
 15 19  2  0  0  0  0 
 16 20  1  0  0  0  0 
 16 21  2  0  0  0  0 
 17 21  1  0  0  0  0 
 18 22  1  0  0  0  0 
 18 23  2  0  0  0  0 
 19 23  1  0  0  0  0 
 21 24  1  0  0  0  0 
 22 25  1  0  0  0  0 
 22 26  1  0  0  0  0 
 22 27  1  0  0  0  0 
 23 28  1  0  0  0  0 
 24 29  1  0  0  0  0 
 24 30  2  0  0  0  0 
 29 31  1  0  0  0  0 
 28 32  3  0  0  0  0 
  9 33  1  0  0  0  0 
  9 34  1  0  0  0  0 
  9 35  1  0  0  0  0 
 10 36  1  0  0  0  0 
 10 37  1  0  0  0  0 
 10 38  1  0  0  0  0 
 11 39  1  0  0  0  0 
 12 40  1  0  0  0  0 
 14 41  1  0  0  0  0 
 15 42  1  0  0  0  0 
 17 43  1  0  0  0  0 
 19 44  1  0  0  0  0 
 29 45  1  0  0  0  0 
 31 46  1  0  0  0  0 
 31 47  1  0  0  0  0 
 31 48  1  0  0  0  0 
M  END
> <cdk:Title>
enzalutamide

> <Conformer>
1

> <SuperDrugID>
SD003671

$$$$
