asunaprevir
  CDK     0628171802

 97101  0  0  0  0  0  0  0  0999 V2000
   -0.2122    0.9318    0.7438 C   0  0  0  0  0  0  0  0  0  0  0  0
    0.5230    1.7165    1.5614 N   0  0  0  0  0  0  0  0  0  0  0  0
    1.7093    1.3313    2.0946 C   0  0  0  0  0  0  0  0  0  0  0  0
    2.1849    0.0161    1.8700 C   0  0  0  0  0  0  0  0  0  0  0  0
    1.4309   -0.8410    1.0133 C   0  0  0  0  0  0  0  0  0  0  0  0
    0.2392   -0.3596    0.4143 C   0  0  0  0  0  0  0  0  0  0  0  0
    3.3710   -0.4637    2.4719 C   0  0  0  0  0  0  0  0  0  0  0  0
    3.8088   -1.7817    2.2384 C   0  0  0  0  0  0  0  0  0  0  0  0
    3.0697   -2.6241    1.3885 C   0  0  0  0  0  0  0  0  0  0  0  0
    1.8924   -2.1579    0.7800 C   0  0  0  0  0  0  0  0  0  0  0  0
    5.2172   -2.3562    2.9824 Cl  0  0  0  0  0  0  0  0  0  0  0  0
   -0.5000   -1.1122   -0.4610 O   0  0  0  0  0  0  0  0  0  0  0  0
   -0.1475   -0.8621   -1.8351 C   0  0  0  0  0  0  0  0  0  0  0  0
    2.3880    2.2645    2.8303 O   0  0  0  0  0  0  0  0  0  0  0  0
    3.3075    3.0795    2.0538 C   0  0  2  0  0  0  0  0  0  0  0  0
    3.9300    4.1424    2.9852 C   0  0  2  0  0  0  0  0  0  0  0  0
    3.0118    5.3939    2.8432 C   0  0  2  0  0  0  0  0  0  0  0  0
    2.0578    4.9950    1.8353 N   0  0  0  0  0  0  0  0  0  0  0  0
    2.6420    3.9904    1.0004 C   0  0  1  0  0  0  0  0  0  0  0  0
    3.7522    6.6131    2.4112 C   0  0  0  0  0  0  0  0  0  0  0  0
    4.7731    7.0865    3.1677 N   0  0  0  0  0  0  0  0  0  0  0  0
    3.4681    7.1779    1.3259 O   0  0  0  0  0  0  0  0  0  0  0  0
    5.6647    8.1122    2.7340 C   0  0  2  0  0  0  0  0  0  0  0  0
    5.0909    9.5380    2.5299 C   0  0  2  0  0  0  0  0  0  0  0  0
    6.8438    7.6444    1.9753 C   0  0  0  0  0  0  0  0  0  0  0  0
    6.8579    7.7928    0.7310 O   0  0  0  0  0  0  0  0  0  0  0  0
    7.8439    7.0098    2.6324 N   0  0  0  0  0  0  0  0  0  0  0  0
    9.2456    6.3657    1.8815 S   0  0  1  0  0  0  0  0  0  0  0  0
    5.6775   10.4460    1.5613 C   0  0  0  0  0  0  0  0  0  0  0  0
    5.9097    9.2071    3.7895 C   0  0  1  0  0  0  0  0  0  0  0  0
    5.2140   10.5423    0.3096 C   0  0  0  0  0  0  0  0  0  0  0  0
   10.5238    7.6745    1.7728 C   0  0  2  0  0  0  0  0  0  0  0  0
   10.3382    8.7398    0.6845 C   0  0  1  0  0  0  0  0  0  0  0  0
   11.4557    7.6967    0.5533 C   0  0  2  0  0  0  0  0  0  0  0  0
    9.8162    5.1709    2.7850 O   0  0  0  0  0  0  0  0  0  0  0  0
    8.8864    5.7901    0.4287 O   0  0  0  0  0  0  0  0  0  0  0  0
    0.7784    5.4956    1.6473 C   0  0  0  0  0  0  0  0  0  0  0  0
    0.0271    6.3355    2.6306 C   0  0  1  0  0  0  0  0  0  0  0  0
    0.2070    5.2424    0.5603 O   0  0  0  0  0  0  0  0  0  0  0  0
    0.1924    7.7088    2.2430 N   0  0  0  0  0  0  0  0  0  0  0  0
   -1.4989    5.9625    2.8684 C   0  0  2  0  0  0  0  0  0  0  0  0
   -2.4260    6.3767    1.6720 C   0  0  0  0  0  0  0  0  0  0  0  0
   -2.0209    6.7170    4.1431 C   0  0  0  0  0  0  0  0  0  0  0  0
   -1.6556    4.4259    3.1370 C   0  0  0  0  0  0  0  0  0  0  0  0
    0.5828    8.7214    3.0578 C   0  0  0  0  0  0  0  0  0  0  0  0
    0.9358    8.4788    4.3570 O   0  0  0  0  0  0  0  0  0  0  0  0
    0.5872    9.8706    2.5670 O   0  0  0  0  0  0  0  0  0  0  0  0
    1.2389    9.3431    5.4711 C   0  0  1  0  0  0  0  0  0  0  0  0
    1.9289   10.6907    5.0950 C   0  0  0  0  0  0  0  0  0  0  0  0
   -0.1070    9.6230    6.1956 C   0  0  0  0  0  0  0  0  0  0  0  0
    2.1827    8.4989    6.3745 C   0  0  0  0  0  0  0  0  0  0  0  0
   -1.0847    1.2954    0.3569 H   0  0  0  0  0  0  0  0  0  0  0  0
    3.9200    0.1407    3.0888 H   0  0  0  0  0  0  0  0  0  0  0  0
    3.3820   -3.5821    1.2101 H   0  0  0  0  0  0  0  0  0  0  0  0
    1.3749   -2.7944    0.1686 H   0  0  0  0  0  0  0  0  0  0  0  0
   -0.7682   -1.4978   -2.4660 H   0  0  0  0  0  0  0  0  0  0  0  0
   -0.3346    0.1783   -2.1146 H   0  0  0  0  0  0  0  0  0  0  0  0
    0.8998   -1.1075   -2.0306 H   0  0  0  0  0  0  0  0  0  0  0  0
    4.0895    2.4599    1.6019 H   0  0  0  0  0  0  0  0  0  0  0  0
    4.9565    4.3478    2.6657 H   0  0  0  0  0  0  0  0  0  0  0  0
    3.9690    3.7878    4.0196 H   0  0  0  0  0  0  0  0  0  0  0  0
    2.5557    5.5801    3.8164 H   0  0  0  0  0  0  0  0  0  0  0  0
    3.3960    4.4326    0.3396 H   0  0  0  0  0  0  0  0  0  0  0  0
    1.9383    3.4504    0.3696 H   0  0  0  0  0  0  0  0  0  0  0  0
    4.9411    6.6689    4.0272 H   0  0  0  0  0  0  0  0  0  0  0  0
    4.0182    9.6287    2.7057 H   0  0  0  0  0  0  0  0  0  0  0  0
    7.7635    6.9151    3.5941 H   0  0  0  0  0  0  0  0  0  0  0  0
    6.4379   11.0241    1.8342 H   0  0  0  0  0  0  0  0  0  0  0  0
    5.3362    9.1159    4.7146 H   0  0  0  0  0  0  0  0  0  0  0  0
    6.9196    9.6194    3.8424 H   0  0  0  0  0  0  0  0  0  0  0  0
    4.4565    9.9832   -0.0052 H   0  0  0  0  0  0  0  0  0  0  0  0
    5.6280   11.1808   -0.3274 H   0  0  0  0  0  0  0  0  0  0  0  0
   10.9651    8.0385    2.7018 H   0  0  0  0  0  0  0  0  0  0  0  0
    9.4989    8.6123   -0.0007 H   0  0  0  0  0  0  0  0  0  0  0  0
   10.6604    9.7474    0.9500 H   0  0  0  0  0  0  0  0  0  0  0  0
   11.2967    6.9386   -0.2149 H   0  0  0  0  0  0  0  0  0  0  0  0
   12.4640    8.0775    0.7228 H   0  0  0  0  0  0  0  0  0  0  0  0
    0.4934    6.1709    3.5997 H   0  0  0  0  0  0  0  0  0  0  0  0
   -0.0322    7.9426    1.3271 H   0  0  0  0  0  0  0  0  0  0  0  0
   -2.1759    5.8442    0.7554 H   0  0  0  0  0  0  0  0  0  0  0  0
   -3.4723    6.1555    1.8952 H   0  0  0  0  0  0  0  0  0  0  0  0
   -2.3509    7.4475    1.4684 H   0  0  0  0  0  0  0  0  0  0  0  0
   -1.4116    6.4746    5.0162 H   0  0  0  0  0  0  0  0  0  0  0  0
   -3.0541    6.4451    4.3703 H   0  0  0  0  0  0  0  0  0  0  0  0
   -1.9899    7.7985    3.9987 H   0  0  0  0  0  0  0  0  0  0  0  0
   -0.9822    4.1023    3.9336 H   0  0  0  0  0  0  0  0  0  0  0  0
   -2.6767    4.1800    3.4364 H   0  0  0  0  0  0  0  0  0  0  0  0
   -1.4269    3.8433    2.2437 H   0  0  0  0  0  0  0  0  0  0  0  0
    2.8138   10.5102    4.4895 H   0  0  0  0  0  0  0  0  0  0  0  0
    1.2516   11.3375    4.5356 H   0  0  0  0  0  0  0  0  0  0  0  0
    2.2335   11.2293    5.9946 H   0  0  0  0  0  0  0  0  0  0  0  0
    0.0490   10.2280    7.0874 H   0  0  0  0  0  0  0  0  0  0  0  0
   -0.5883    8.6913    6.4929 H   0  0  0  0  0  0  0  0  0  0  0  0
   -0.7891   10.1564    5.5329 H   0  0  0  0  0  0  0  0  0  0  0  0
    2.4345    9.0400    7.2880 H   0  0  0  0  0  0  0  0  0  0  0  0
    1.7095    7.5541    6.6532 H   0  0  0  0  0  0  0  0  0  0  0  0
    3.1074    8.2658    5.8423 H   0  0  0  0  0  0  0  0  0  0  0  0
  1  2  2  0  0  0  0 
  1  6  1  0  0  0  0 
  2  3  1  0  0  0  0 
  3  4  2  0  0  0  0 
  4  5  1  0  0  0  0 
  5  6  2  0  0  0  0 
  7  8  2  0  0  0  0 
  8  9  1  0  0  0  0 
  9 10  2  0  0  0  0 
  4  7  1  0  0  0  0 
  5 10  1  0  0  0  0 
  8 11  1  0  0  0  0 
  6 12  1  0  0  0  0 
 12 13  1  0  0  0  0 
  3 14  1  0  0  0  0 
 15 14  1  0  0  0  0 
 17 16  1  0  0  0  0 
 17 18  1  0  0  0  0 
 18 19  1  0  0  0  0 
 15 16  1  0  0  0  0 
 15 19  1  0  0  0  0 
 17 20  1  0  0  0  0 
 20 21  1  0  0  0  0 
 20 22  2  0  0  0  0 
 23 21  1  0  0  0  0 
 23 24  1  0  0  0  0 
 23 25  1  0  0  0  0 
 25 26  2  0  0  0  0 
 25 27  1  0  0  0  0 
 27 28  1  0  0  0  0 
 24 29  1  0  0  0  0 
 23 30  1  0  0  0  0 
 24 30  1  0  0  0  0 
 29 31  2  0  0  0  0 
 28 32  1  0  0  0  0 
 33 34  1  0  0  0  0 
 32 33  1  0  0  0  0 
 34 32  1  0  0  0  0 
 28 35  2  0  0  0  0 
 28 36  2  0  0  0  0 
 18 37  1  0  0  0  0 
 38 37  1  0  0  0  0 
 37 39  2  0  0  0  0 
 38 40  1  0  0  0  0 
 38 41  1  0  0  0  0 
 41 42  1  0  0  0  0 
 41 43  1  0  0  0  0 
 41 44  1  0  0  0  0 
 40 45  1  0  0  0  0 
 45 46  1  0  0  0  0 
 45 47  2  0  0  0  0 
 46 48  1  0  0  0  0 
 48 49  1  0  0  0  0 
 48 50  1  0  0  0  0 
 48 51  1  0  0  0  0 
 52  1  1  0  0  0  0 
 53  7  1  0  0  0  0 
 54  9  1  0  0  0  0 
 55 10  1  0  0  0  0 
 56 13  1  0  0  0  0 
 57 13  1  0  0  0  0 
 58 13  1  0  0  0  0 
 15 59  1  0  0  0  0 
 60 16  1  0  0  0  0 
 61 16  1  0  0  0  0 
 17 62  1  0  0  0  0 
 63 19  1  0  0  0  0 
 64 19  1  0  0  0  0 
 65 21  1  0  0  0  0 
 24 66  1  0  0  0  0 
 67 27  1  0  0  0  0 
 68 29  1  0  0  0  0 
 69 30  1  0  0  0  0 
 70 30  1  0  0  0  0 
 71 31  1  0  0  0  0 
 72 31  1  0  0  0  0 
 73 32  1  0  0  0  0 
 74 33  1  0  0  0  0 
 75 33  1  0  0  0  0 
 76 34  1  0  0  0  0 
 77 34  1  0  0  0  0 
 38 78  1  0  0  0  0 
 79 40  1  0  0  0  0 
 80 42  1  0  0  0  0 
 81 42  1  0  0  0  0 
 82 42  1  0  0  0  0 
 83 43  1  0  0  0  0 
 84 43  1  0  0  0  0 
 85 43  1  0  0  0  0 
 86 44  1  0  0  0  0 
 87 44  1  0  0  0  0 
 88 44  1  0  0  0  0 
 89 49  1  0  0  0  0 
 90 49  1  0  0  0  0 
 91 49  1  0  0  0  0 
 92 50  1  0  0  0  0 
 93 50  1  0  0  0  0 
 94 50  1  0  0  0  0 
 95 51  1  0  0  0  0 
 96 51  1  0  0  0  0 
 97 51  1  0  0  0  0 
M  END
> <cdk:Title>
asunaprevir

> <Conformer>
1

> <SuperDrugID>
SD003827

$$$$
