benfluorex
  CDK     0628171801

 45 46  0  0  0  0  0  0  0  0999 V2000
    0.8481   -7.2860   -2.5042 C   0  0  1  0  0  0  0  0  0  0  0  0
    0.4409   -7.0500   -1.0149 C   0  0  1  0  0  0  0  0  0  0  0  0
    1.7708   -8.4400   -2.7118 C   0  0  0  0  0  0  0  0  0  0  0  0
   -0.4815   -5.8801   -0.9097 N   0  0  2  0  0  0  0  0  0  0  0  0
   -0.2814   -8.2746   -0.3890 C   0  0  0  0  0  0  0  0  0  0  0  0
    1.2836   -9.6750   -3.2016 C   0  0  0  0  0  0  0  0  0  0  0  0
    3.1488   -8.3285   -2.4169 C   0  0  0  0  0  0  0  0  0  0  0  0
    0.1700   -4.5531   -0.7743 C   0  0  1  0  0  0  0  0  0  0  0  0
    2.1287  -10.7980   -3.3720 C   0  0  0  0  0  0  0  0  0  0  0  0
    4.0094   -9.4258   -2.5966 C   0  0  0  0  0  0  0  0  0  0  0  0
   -0.8859   -3.4329   -0.6585 C   0  0  2  0  0  0  0  0  0  0  0  0
    1.5563  -12.0801   -3.8723 C   0  0  1  0  0  0  0  0  0  0  0  0
    3.5022  -10.6514   -3.0632 C   0  0  0  0  0  0  0  0  0  0  0  0
   -0.2452   -2.1598   -0.4764 O   0  0  0  0  0  0  0  0  0  0  0  0
    2.4260  -13.1440   -3.8250 F   0  0  0  0  0  0  0  0  0  0  0  0
    0.4581  -12.4509   -3.1337 F   0  0  0  0  0  0  0  0  0  0  0  0
    1.1630  -11.9196   -5.1784 F   0  0  0  0  0  0  0  0  0  0  0  0
   -0.8641   -0.9514   -0.2881 C   0  0  0  0  0  0  0  0  0  0  0  0
   -2.1196   -0.9182   -0.2779 O   0  0  0  0  0  0  0  0  0  0  0  0
   -0.1036    0.2400   -0.1059 C   0  0  0  0  0  0  0  0  0  0  0  0
   -0.7279    1.5109   -0.0094 C   0  0  0  0  0  0  0  0  0  0  0  0
    1.3105    0.1895   -0.0201 C   0  0  0  0  0  0  0  0  0  0  0  0
    0.0325    2.6856    0.1477 C   0  0  0  0  0  0  0  0  0  0  0  0
    2.0717    1.3633    0.1368 C   0  0  0  0  0  0  0  0  0  0  0  0
    1.4338    2.6122    0.2143 C   0  0  0  0  0  0  0  0  0  0  0  0
   -0.0625   -7.4238   -3.0934 H   0  0  0  0  0  0  0  0  0  0  0  0
    1.3284   -6.3872   -2.8978 H   0  0  0  0  0  0  0  0  0  0  0  0
    1.3427   -6.8750   -0.4154 H   0  0  0  0  0  0  0  0  0  0  0  0
   -1.0407   -6.0101   -0.0618 H   0  0  0  0  0  0  0  0  0  0  0  0
   -0.5714   -8.0546    0.6415 H   0  0  0  0  0  0  0  0  0  0  0  0
   -1.1792   -8.5264   -0.9583 H   0  0  0  0  0  0  0  0  0  0  0  0
    0.3810   -9.1423   -0.3696 H   0  0  0  0  0  0  0  0  0  0  0  0
    0.2897   -9.7643   -3.4280 H   0  0  0  0  0  0  0  0  0  0  0  0
    3.5347   -7.4465   -2.0712 H   0  0  0  0  0  0  0  0  0  0  0  0
    0.7919   -4.5391    0.1251 H   0  0  0  0  0  0  0  0  0  0  0  0
    0.7979   -4.3537   -1.6444 H   0  0  0  0  0  0  0  0  0  0  0  0
    5.0065   -9.3337   -2.3843 H   0  0  0  0  0  0  0  0  0  0  0  0
   -1.5368   -3.6288    0.1984 H   0  0  0  0  0  0  0  0  0  0  0  0
   -1.4930   -3.4084   -1.5681 H   0  0  0  0  0  0  0  0  0  0  0  0
    4.1519  -11.4324   -3.1798 H   0  0  0  0  0  0  0  0  0  0  0  0
   -1.7467    1.5981   -0.0572 H   0  0  0  0  0  0  0  0  0  0  0  0
    1.8037   -0.7045   -0.0717 H   0  0  0  0  0  0  0  0  0  0  0  0
   -0.4331    3.5935    0.2115 H   0  0  0  0  0  0  0  0  0  0  0  0
    3.0896    1.3074    0.1940 H   0  0  0  0  0  0  0  0  0  0  0  0
    1.9876    3.4644    0.3195 H   0  0  0  0  0  0  0  0  0  0  0  0
  2  1  1  0  0  0  0 
  1  3  1  0  0  0  0 
  2  4  1  0  0  0  0 
  2  5  1  0  0  0  0 
  3  6  2  0  0  0  0 
  3  7  1  0  0  0  0 
  4  8  1  0  0  0  0 
  6  9  1  0  0  0  0 
  7 10  2  0  0  0  0 
  8 11  1  0  0  0  0 
  9 12  1  0  0  0  0 
  9 13  2  0  0  0  0 
 10 13  1  0  0  0  0 
 11 14  1  0  0  0  0 
 12 15  1  0  0  0  0 
 12 16  1  0  0  0  0 
 12 17  1  0  0  0  0 
 14 18  1  0  0  0  0 
 18 19  2  0  0  0  0 
 18 20  1  0  0  0  0 
 20 21  2  0  0  0  0 
 20 22  1  0  0  0  0 
 21 23  1  0  0  0  0 
 22 24  2  0  0  0  0 
 23 25  2  0  0  0  0 
 24 25  1  0  0  0  0 
  1 26  1  0  0  0  0 
  1 27  1  0  0  0  0 
  2 28  1  0  0  0  0 
  4 29  1  0  0  0  0 
  5 30  1  0  0  0  0 
  5 31  1  0  0  0  0 
  5 32  1  0  0  0  0 
  6 33  1  0  0  0  0 
  7 34  1  0  0  0  0 
  8 35  1  0  0  0  0 
  8 36  1  0  0  0  0 
 10 37  1  0  0  0  0 
 11 38  1  0  0  0  0 
 11 39  1  0  0  0  0 
 13 40  1  0  0  0  0 
 21 41  1  0  0  0  0 
 22 42  1  0  0  0  0 
 23 43  1  0  0  0  0 
 24 44  1  0  0  0  0 
 25 45  1  0  0  0  0 
M  END
> <cdk:Title>
benfluorex

> <Conformer>
1

> <SuperDrugID>
SD000257

$$$$
