aclatonium
  CDK     0628171802

 35 34  0  0  0  0  0  0  0  0999 V2000
   -4.4529   -0.7502   -4.1096 C   0  0  2  0  0  0  0  0  0  0  0  0
   -3.6318   -1.1114   -2.9357 C   0  0  0  0  0  0  0  0  0  0  0  0
   -5.7612   -0.3777   -3.6478 O   0  0  0  0  0  0  0  0  0  0  0  0
   -4.5896   -1.9225   -5.1042 C   0  0  0  0  0  0  0  0  0  0  0  0
   -4.1615   -1.9329   -1.9827 O   0  0  0  0  0  0  0  0  0  0  0  0
   -2.4806   -0.6312   -2.8086 O   0  0  0  0  0  0  0  0  0  0  0  0
   -6.3225    0.8659   -3.5994 C   0  0  0  0  0  0  0  0  0  0  0  0
   -3.5457   -2.3181   -0.7448 C   0  0  1  0  0  0  0  0  0  0  0  0
   -7.7097    0.9702   -3.1304 C   0  0  0  0  0  0  0  0  0  0  0  0
   -5.6815    1.8940   -3.9199 O   0  0  0  0  0  0  0  0  0  0  0  0
   -4.5318   -3.1720    0.1097 C   0  0  2  0  0  0  0  0  0  0  0  0
   -4.6563   -2.8733    1.5976 N   0  0  2  0  0  0  0  0  0  0  0  0
   -5.6067   -3.8817    2.2063 C   0  0  0  0  0  0  0  0  0  0  0  0
   -5.2341   -1.4947    1.8275 C   0  0  0  0  0  0  0  0  0  0  0  0
   -3.3253   -2.9929    2.2993 C   0  0  0  0  0  0  0  0  0  0  0  0
   -3.9839    0.0815   -4.6430 H   0  0  0  0  0  0  0  0  0  0  0  0
   -5.2167   -1.6204   -5.9452 H   0  0  0  0  0  0  0  0  0  0  0  0
   -3.6089   -2.2065   -5.4901 H   0  0  0  0  0  0  0  0  0  0  0  0
   -5.0454   -2.7902   -4.6227 H   0  0  0  0  0  0  0  0  0  0  0  0
   -2.6429   -2.8936   -0.9621 H   0  0  0  0  0  0  0  0  0  0  0  0
   -3.2461   -1.4136   -0.2187 H   0  0  0  0  0  0  0  0  0  0  0  0
   -7.8032    0.4816   -2.1585 H   0  0  0  0  0  0  0  0  0  0  0  0
   -8.3687    0.4727   -3.8437 H   0  0  0  0  0  0  0  0  0  0  0  0
   -8.0178    2.0135   -3.0324 H   0  0  0  0  0  0  0  0  0  0  0  0
   -4.2377   -4.2172   -0.0337 H   0  0  0  0  0  0  0  0  0  0  0  0
   -5.5257   -3.0844   -0.3452 H   0  0  0  0  0  0  0  0  0  0  0  0
   -5.2339   -4.9037    2.0935 H   0  0  0  0  0  0  0  0  0  0  0  0
   -6.5922   -3.8379    1.7339 H   0  0  0  0  0  0  0  0  0  0  0  0
   -5.7523   -3.7073    3.2767 H   0  0  0  0  0  0  0  0  0  0  0  0
   -6.1839   -1.3685    1.2997 H   0  0  0  0  0  0  0  0  0  0  0  0
   -5.4240   -1.3109    2.8895 H   0  0  0  0  0  0  0  0  0  0  0  0
   -4.5639   -0.7024    1.4887 H   0  0  0  0  0  0  0  0  0  0  0  0
   -3.4275   -2.8357    3.3779 H   0  0  0  0  0  0  0  0  0  0  0  0
   -2.8840   -3.9829    2.1512 H   0  0  0  0  0  0  0  0  0  0  0  0
   -2.6048   -2.2544    1.9375 H   0  0  0  0  0  0  0  0  0  0  0  0
  1  2  1  0  0  0  0 
  1  3  1  0  0  0  0 
  1  4  1  0  0  0  0 
  2  5  1  0  0  0  0 
  2  6  2  0  0  0  0 
  3  7  1  0  0  0  0 
  5  8  1  0  0  0  0 
  7  9  1  0  0  0  0 
  7 10  2  0  0  0  0 
  8 11  1  0  0  0  0 
 11 12  1  0  0  0  0 
 12 13  1  0  0  0  0 
 12 14  1  0  0  0  0 
 12 15  1  0  0  0  0 
  1 16  1  0  0  0  0 
  4 17  1  0  0  0  0 
  4 18  1  0  0  0  0 
  4 19  1  0  0  0  0 
  8 20  1  0  0  0  0 
  8 21  1  0  0  0  0 
  9 22  1  0  0  0  0 
  9 23  1  0  0  0  0 
  9 24  1  0  0  0  0 
 11 25  1  0  0  0  0 
 11 26  1  0  0  0  0 
 13 27  1  0  0  0  0 
 13 28  1  0  0  0  0 
 13 29  1  0  0  0  0 
 14 30  1  0  0  0  0 
 14 31  1  0  0  0  0 
 14 32  1  0  0  0  0 
 15 33  1  0  0  0  0 
 15 34  1  0  0  0  0 
 15 35  1  0  0  0  0 
M  CHG  1  12   1
M  END
> <cdk:Title>
aclatonium

> <Conformer>
1

> <SuperDrugID>
SD000056

$$$$
