gallopamil
  CDK     0628171801

 75 76  0  0  0  0  0  0  0  0999 V2000
   -1.5783   -0.1730    0.2516 C   0  0  1  0  0  0  0  0  0  0  0  0
   -1.9875   -1.1179   -0.9636 C   0  0  1  0  0  0  0  0  0  0  0  0
   -1.8322   -0.8903    1.6588 C   0  0  1  0  0  0  0  0  0  0  0  0
   -0.2106    0.0361    0.1080 C   0  0  0  0  0  0  0  0  0  0  0  0
   -2.2446    1.2050    0.2908 C   0  0  0  0  0  0  0  0  0  0  0  0
   -1.5425   -0.7930   -2.4359 C   0  0  2  0  0  0  0  0  0  0  0  0
   -3.3337   -1.2030    1.9466 C   0  0  0  0  0  0  0  0  0  0  0  0
   -1.0037   -2.1888    1.9464 C   0  0  0  0  0  0  0  0  0  0  0  0
    0.9189    0.2189    0.0001 N   0  0  0  0  0  0  0  0  0  0  0  0
   -1.7121    2.2681    1.0791 C   0  0  0  0  0  0  0  0  0  0  0  0
   -3.4469    1.5038   -0.4056 C   0  0  0  0  0  0  0  0  0  0  0  0
   -2.2725    0.3592   -3.1802 C   0  0  1  0  0  0  0  0  0  0  0  0
   -2.2745    3.5599    1.0878 C   0  0  0  0  0  0  0  0  0  0  0  0
   -3.9953    2.8015   -0.4561 C   0  0  0  0  0  0  0  0  0  0  0  0
   -2.0185    0.4055   -4.6655 N   0  0  2  0  0  0  0  0  0  0  0  0
   -1.7069    4.5428    1.8552 O   0  0  0  0  0  0  0  0  0  0  0  0
   -3.3910    3.8414    0.2727 C   0  0  0  0  0  0  0  0  0  0  0  0
   -5.0734    3.0795   -1.2544 O   0  0  0  0  0  0  0  0  0  0  0  0
   -0.6377    0.8733   -5.0353 C   0  0  2  0  0  0  0  0  0  0  0  0
   -3.1017    1.1383   -5.3955 C   0  0  0  0  0  0  0  0  0  0  0  0
   -2.3789    4.7293    3.1120 C   0  0  0  0  0  0  0  0  0  0  0  0
   -3.9155    5.1057    0.2156 O   0  0  0  0  0  0  0  0  0  0  0  0
   -6.3300    2.6312   -0.7244 C   0  0  0  0  0  0  0  0  0  0  0  0
   -0.2867    0.7478   -6.5482 C   0  0  1  0  0  0  0  0  0  0  0  0
   -3.2722    5.9502   -0.7565 C   0  0  0  0  0  0  0  0  0  0  0  0
    1.1630    0.9422   -6.8387 C   0  0  0  0  0  0  0  0  0  0  0  0
    1.7839    2.1868   -6.5831 C   0  0  0  0  0  0  0  0  0  0  0  0
    1.9505   -0.1047   -7.3747 C   0  0  0  0  0  0  0  0  0  0  0  0
    3.1638    2.3762   -6.8141 C   0  0  0  0  0  0  0  0  0  0  0  0
    3.3213    0.0828   -7.6295 C   0  0  0  0  0  0  0  0  0  0  0  0
    3.7438    3.5866   -6.5362 O   0  0  0  0  0  0  0  0  0  0  0  0
    3.9333    1.3219   -7.3518 C   0  0  0  0  0  0  0  0  0  0  0  0
    4.2210    3.6752   -5.1814 C   0  0  0  0  0  0  0  0  0  0  0  0
    5.2766    1.4838   -7.5712 O   0  0  0  0  0  0  0  0  0  0  0  0
    5.5852    1.9366   -8.9009 C   0  0  0  0  0  0  0  0  0  0  0  0
   -1.5536   -2.1031   -0.7721 H   0  0  0  0  0  0  0  0  0  0  0  0
   -3.0653   -1.2902   -0.9630 H   0  0  0  0  0  0  0  0  0  0  0  0
   -1.5250   -0.1933    2.4498 H   0  0  0  0  0  0  0  0  0  0  0  0
   -1.7189   -1.6967   -3.0264 H   0  0  0  0  0  0  0  0  0  0  0  0
   -0.4660   -0.6203   -2.4527 H   0  0  0  0  0  0  0  0  0  0  0  0
   -3.4544   -1.5898    2.9616 H   0  0  0  0  0  0  0  0  0  0  0  0
   -3.7161   -1.9539    1.2545 H   0  0  0  0  0  0  0  0  0  0  0  0
   -3.9450   -0.3044    1.8636 H   0  0  0  0  0  0  0  0  0  0  0  0
    0.0602   -2.0326    1.7673 H   0  0  0  0  0  0  0  0  0  0  0  0
   -1.3414   -3.0238    1.3327 H   0  0  0  0  0  0  0  0  0  0  0  0
   -1.1155   -2.4844    2.9920 H   0  0  0  0  0  0  0  0  0  0  0  0
   -0.8862    2.1099    1.6625 H   0  0  0  0  0  0  0  0  0  0  0  0
   -3.9488    0.7739   -0.9046 H   0  0  0  0  0  0  0  0  0  0  0  0
   -3.3373    0.1848   -3.0180 H   0  0  0  0  0  0  0  0  0  0  0  0
   -2.0117    1.3202   -2.7316 H   0  0  0  0  0  0  0  0  0  0  0  0
    0.0922    0.2678   -4.4949 H   0  0  0  0  0  0  0  0  0  0  0  0
   -0.5023    1.9116   -4.7162 H   0  0  0  0  0  0  0  0  0  0  0  0
   -4.0866    0.7484   -5.1285 H   0  0  0  0  0  0  0  0  0  0  0  0
   -3.0092    1.0001   -6.4720 H   0  0  0  0  0  0  0  0  0  0  0  0
   -3.0764    2.2081   -5.1710 H   0  0  0  0  0  0  0  0  0  0  0  0
   -1.8604    5.5114    3.6626 H   0  0  0  0  0  0  0  0  0  0  0  0
   -3.4144    5.0487    2.9704 H   0  0  0  0  0  0  0  0  0  0  0  0
   -2.3574    3.8159    3.7133 H   0  0  0  0  0  0  0  0  0  0  0  0
   -7.1121    2.9861   -1.3962 H   0  0  0  0  0  0  0  0  0  0  0  0
   -6.3797    1.5415   -0.6892 H   0  0  0  0  0  0  0  0  0  0  0  0
   -6.5187    3.0365    0.2718 H   0  0  0  0  0  0  0  0  0  0  0  0
   -0.6183   -0.2365   -6.8922 H   0  0  0  0  0  0  0  0  0  0  0  0
   -0.8387    1.4939   -7.1250 H   0  0  0  0  0  0  0  0  0  0  0  0
   -3.7586    6.9260   -0.7289 H   0  0  0  0  0  0  0  0  0  0  0  0
   -2.2121    6.0921   -0.5295 H   0  0  0  0  0  0  0  0  0  0  0  0
   -3.3771    5.5502   -1.7679 H   0  0  0  0  0  0  0  0  0  0  0  0
    1.2345    2.9686   -6.2184 H   0  0  0  0  0  0  0  0  0  0  0  0
    1.5332   -1.0159   -7.5804 H   0  0  0  0  0  0  0  0  0  0  0  0
    3.8762   -0.6851   -8.0161 H   0  0  0  0  0  0  0  0  0  0  0  0
    4.6968    4.6467   -5.0498 H   0  0  0  0  0  0  0  0  0  0  0  0
    3.3995    3.6011   -4.4641 H   0  0  0  0  0  0  0  0  0  0  0  0
    4.9647    2.9036   -4.9648 H   0  0  0  0  0  0  0  0  0  0  0  0
    6.6668    2.0496   -8.9786 H   0  0  0  0  0  0  0  0  0  0  0  0
    5.2643    1.2103   -9.6520 H   0  0  0  0  0  0  0  0  0  0  0  0
    5.1252    2.9061   -9.1103 H   0  0  0  0  0  0  0  0  0  0  0  0
  1  2  1  0  0  0  0 
  1  3  1  0  0  0  0 
  1  4  1  0  0  0  0 
  1  5  1  0  0  0  0 
  2  6  1  0  0  0  0 
  3  7  1  0  0  0  0 
  3  8  1  0  0  0  0 
  4  9  3  0  0  0  0 
  5 10  2  0  0  0  0 
  5 11  1  0  0  0  0 
  6 12  1  0  0  0  0 
 10 13  1  0  0  0  0 
 11 14  2  0  0  0  0 
 12 15  1  0  0  0  0 
 13 16  1  0  0  0  0 
 13 17  2  0  0  0  0 
 14 17  1  0  0  0  0 
 14 18  1  0  0  0  0 
 15 19  1  0  0  0  0 
 15 20  1  0  0  0  0 
 16 21  1  0  0  0  0 
 17 22  1  0  0  0  0 
 18 23  1  0  0  0  0 
 19 24  1  0  0  0  0 
 22 25  1  0  0  0  0 
 24 26  1  0  0  0  0 
 26 27  2  0  0  0  0 
 26 28  1  0  0  0  0 
 27 29  1  0  0  0  0 
 28 30  2  0  0  0  0 
 29 31  1  0  0  0  0 
 29 32  2  0  0  0  0 
 30 32  1  0  0  0  0 
 31 33  1  0  0  0  0 
 32 34  1  0  0  0  0 
 34 35  1  0  0  0  0 
  2 36  1  0  0  0  0 
  2 37  1  0  0  0  0 
  3 38  1  0  0  0  0 
  6 39  1  0  0  0  0 
  6 40  1  0  0  0  0 
  7 41  1  0  0  0  0 
  7 42  1  0  0  0  0 
  7 43  1  0  0  0  0 
  8 44  1  0  0  0  0 
  8 45  1  0  0  0  0 
  8 46  1  0  0  0  0 
 10 47  1  0  0  0  0 
 11 48  1  0  0  0  0 
 12 49  1  0  0  0  0 
 12 50  1  0  0  0  0 
 19 51  1  0  0  0  0 
 19 52  1  0  0  0  0 
 20 53  1  0  0  0  0 
 20 54  1  0  0  0  0 
 20 55  1  0  0  0  0 
 21 56  1  0  0  0  0 
 21 57  1  0  0  0  0 
 21 58  1  0  0  0  0 
 23 59  1  0  0  0  0 
 23 60  1  0  0  0  0 
 23 61  1  0  0  0  0 
 24 62  1  0  0  0  0 
 24 63  1  0  0  0  0 
 25 64  1  0  0  0  0 
 25 65  1  0  0  0  0 
 25 66  1  0  0  0  0 
 27 67  1  0  0  0  0 
 28 68  1  0  0  0  0 
 30 69  1  0  0  0  0 
 33 70  1  0  0  0  0 
 33 71  1  0  0  0  0 
 33 72  1  0  0  0  0 
 35 73  1  0  0  0  0 
 35 74  1  0  0  0  0 
 35 75  1  0  0  0  0 
M  END
> <cdk:Title>
gallopamil

> <Conformer>
1

> <SuperDrugID>
SD001137

$$$$
