piridocaine
  CDK     0628171801

 38 39  0  0  0  0  0  0  0  0999 V2000
   -0.0694    0.0932   -0.3336 C   0  0  0  0  0  0  0  0  0  0  0  0
   -0.7498   -1.0556   -0.0217 O   0  0  0  0  0  0  0  0  0  0  0  0
   -0.7385    1.0549   -0.7806 O   0  0  0  0  0  0  0  0  0  0  0  0
    1.3465    0.1759   -0.1302 C   0  0  0  0  0  0  0  0  0  0  0  0
   -2.1318   -1.3481   -0.2728 C   0  0  2  0  0  0  0  0  0  0  0  0
    2.1326    1.3180   -0.4724 C   0  0  0  0  0  0  0  0  0  0  0  0
    2.0255   -0.9457    0.4197 C   0  0  0  0  0  0  0  0  0  0  0  0
   -2.5797   -2.6223    0.4854 C   0  0  1  0  0  0  0  0  0  0  0  0
    1.6194    2.4544   -0.9964 N   0  0  0  0  0  0  0  0  0  0  0  0
    3.5313    1.3107   -0.2737 C   0  0  0  0  0  0  0  0  0  0  0  0
    3.4168   -0.9409    0.6256 C   0  0  0  0  0  0  0  0  0  0  0  0
   -2.8253   -2.3698    2.0027 C   0  0  1  0  0  0  0  0  0  0  0  0
    4.1703    0.1886    0.2767 C   0  0  0  0  0  0  0  0  0  0  0  0
   -3.4705   -3.5922    2.7227 C   0  0  1  0  0  0  0  0  0  0  0  0
   -1.5420   -2.0053    2.6618 N   0  0  1  0  0  0  0  0  0  0  0  0
   -3.6297   -3.3192    4.2426 C   0  0  2  0  0  0  0  0  0  0  0  0
   -1.6703   -1.6859    4.1020 C   0  0  2  0  0  0  0  0  0  0  0  0
   -2.2901   -2.8722    4.8813 C   0  0  1  0  0  0  0  0  0  0  0  0
   -3.5207   -1.5276    2.0945 H   0  0  0  0  0  0  0  0  0  0  0  0
   -2.2618   -1.4973   -1.3486 H   0  0  0  0  0  0  0  0  0  0  0  0
   -2.7568   -0.5067    0.0320 H   0  0  0  0  0  0  0  0  0  0  0  0
    1.5165   -1.7952    0.6804 H   0  0  0  0  0  0  0  0  0  0  0  0
   -3.5116   -2.9663    0.0279 H   0  0  0  0  0  0  0  0  0  0  0  0
   -1.8314   -3.4099    0.3472 H   0  0  0  0  0  0  0  0  0  0  0  0
    2.2103    3.1893   -1.2205 H   0  0  0  0  0  0  0  0  0  0  0  0
    0.6703    2.5515   -1.1502 H   0  0  0  0  0  0  0  0  0  0  0  0
    4.0996    2.1243   -0.5318 H   0  0  0  0  0  0  0  0  0  0  0  0
    3.8831   -1.7614    1.0264 H   0  0  0  0  0  0  0  0  0  0  0  0
    5.1836    0.1916    0.4180 H   0  0  0  0  0  0  0  0  0  0  0  0
   -4.4539   -3.8009    2.2932 H   0  0  0  0  0  0  0  0  0  0  0  0
   -2.8449   -4.4781    2.5827 H   0  0  0  0  0  0  0  0  0  0  0  0
   -0.9219   -2.8148    2.5857 H   0  0  0  0  0  0  0  0  0  0  0  0
   -3.9880   -4.2223    4.7426 H   0  0  0  0  0  0  0  0  0  0  0  0
   -4.3773   -2.5336    4.3910 H   0  0  0  0  0  0  0  0  0  0  0  0
   -2.2847   -0.7900    4.2259 H   0  0  0  0  0  0  0  0  0  0  0  0
   -0.6764   -1.4684    4.4977 H   0  0  0  0  0  0  0  0  0  0  0  0
   -2.4576   -2.5787    5.9205 H   0  0  0  0  0  0  0  0  0  0  0  0
   -1.5892   -3.7118    4.8749 H   0  0  0  0  0  0  0  0  0  0  0  0
  1  2  1  0  0  0  0 
  1  3  2  0  0  0  0 
  1  4  1  0  0  0  0 
  2  5  1  0  0  0  0 
  4  6  2  0  0  0  0 
  4  7  1  0  0  0  0 
  5  8  1  0  0  0  0 
  6  9  1  0  0  0  0 
  6 10  1  0  0  0  0 
  7 11  2  0  0  0  0 
 12  8  1  0  0  0  0 
 10 13  2  0  0  0  0 
 11 13  1  0  0  0  0 
 12 14  1  0  0  0  0 
 12 15  1  0  0  0  0 
 14 16  1  0  0  0  0 
 15 17  1  0  0  0  0 
 16 18  1  0  0  0  0 
 17 18  1  0  0  0  0 
 12 19  1  0  0  0  0 
  5 20  1  0  0  0  0 
  5 21  1  0  0  0  0 
  7 22  1  0  0  0  0 
  8 23  1  0  0  0  0 
  8 24  1  0  0  0  0 
  9 25  1  0  0  0  0 
  9 26  1  0  0  0  0 
 10 27  1  0  0  0  0 
 11 28  1  0  0  0  0 
 13 29  1  0  0  0  0 
 14 30  1  0  0  0  0 
 14 31  1  0  0  0  0 
 15 32  1  0  0  0  0 
 16 33  1  0  0  0  0 
 16 34  1  0  0  0  0 
 17 35  1  0  0  0  0 
 17 36  1  0  0  0  0 
 18 37  1  0  0  0  0 
 18 38  1  0  0  0  0 
M  END
> <cdk:Title>
piridocaine

> <Conformer>
1

> <SuperDrugID>
SD002998

$$$$
