theophylline
  CDK     0628171801

 21 22  0  0  0  0  0  0  0  0999 V2000
   -2.2657    0.4586   -3.2378 O   0  0  0  0  0  0  0  0  0  0  0  0
   -1.6380    0.2674   -2.1694 C   0  0  0  0  0  0  0  0  0  0  0  0
   -1.3949   -1.0570   -1.7884 C   0  0  0  0  0  0  0  0  0  0  0  0
   -1.1764    1.2873   -1.3657 N   0  0  0  0  0  0  0  0  0  0  0  0
   -0.6882   -1.3210   -0.6247 C   0  0  0  0  0  0  0  0  0  0  0  0
   -1.7241   -2.2259   -2.3474 N   0  0  0  0  0  0  0  0  0  0  0  0
   -1.4142    2.6668   -1.7444 C   0  0  0  0  0  0  0  0  0  0  0  0
   -0.4608    0.9847   -0.2188 C   0  0  0  0  0  0  0  0  0  0  0  0
   -0.2145   -0.3173    0.1681 N   0  0  0  0  0  0  0  0  0  0  0  0
   -0.5999   -2.6579   -0.4947 N   0  0  0  0  0  0  0  0  0  0  0  0
   -1.2370   -3.1928   -1.5537 C   0  0  0  0  0  0  0  0  0  0  0  0
   -0.0101    1.9152    0.4967 O   0  0  0  0  0  0  0  0  0  0  0  0
    0.5203   -0.6181    1.3745 C   0  0  0  0  0  0  0  0  0  0  0  0
   -2.2236   -2.3538   -3.1706 H   0  0  0  0  0  0  0  0  0  0  0  0
   -0.5899    3.0117   -2.3697 H   0  0  0  0  0  0  0  0  0  0  0  0
   -2.3456    2.7908   -2.3008 H   0  0  0  0  0  0  0  0  0  0  0  0
   -1.4859    3.3304   -0.8796 H   0  0  0  0  0  0  0  0  0  0  0  0
   -1.3343   -4.1936   -1.7250 H   0  0  0  0  0  0  0  0  0  0  0  0
    1.5184   -0.1806    1.3153 H   0  0  0  0  0  0  0  0  0  0  0  0
    0.6408   -1.6879    1.5610 H   0  0  0  0  0  0  0  0  0  0  0  0
    0.0001   -0.1920    2.2342 H   0  0  0  0  0  0  0  0  0  0  0  0
  1  2  2  0  0  0  0 
  2  3  1  0  0  0  0 
  2  4  1  0  0  0  0 
  3  5  2  0  0  0  0 
  3  6  1  0  0  0  0 
  4  7  1  0  0  0  0 
  4  8  1  0  0  0  0 
  5  9  1  0  0  0  0 
  5 10  1  0  0  0  0 
  6 11  1  0  0  0  0 
  8  9  1  0  0  0  0 
  8 12  2  0  0  0  0 
  9 13  1  0  0  0  0 
 10 11  2  0  0  0  0 
 14  6  1  0  0  0  0 
 15  7  1  0  0  0  0 
 16  7  1  0  0  0  0 
 17  7  1  0  0  0  0 
 18 11  1  0  0  0  0 
 19 13  1  0  0  0  0 
 20 13  1  0  0  0  0 
 21 13  1  0  0  0  0 
M  END
> <cdk:Title>
theophylline

> <Conformer>
1

> <SuperDrugID>
SD002358

$$$$
