oxygen
  CDK     0628171801

  2  1  0  0  0  0  0  0  0  0999 V2000
    1.1100    0.0000    0.0000 O   0  0  0  0  0  0  0  0  0  0  0  0
    0.0000    0.0000    0.0000 O   0  0  0  0  0  0  0  0  0  0  0  0
  1  2  2  0  0  0  0 
M  END
> <cdk:Title>
oxygen

> <Conformer>
1

> <SuperDrugID>
SD003443

$$$$
