dimyristoylphosphatidylcholine
  CDK     0628171802

118117  0  0  0  0  0  0  0  0999 V2000
   -1.9169    8.4715   -1.4806 C   0  0  2  0  0  0  0  0  0  0  0  0
   -2.6970    9.4583   -0.7753 O   0  0  0  0  0  0  0  0  0  0  0  0
   -2.4660    8.3249   -2.9304 C   0  0  1  0  0  0  0  0  0  0  0  0
   -1.9501    7.1450   -0.6503 C   0  0  1  0  0  0  0  0  0  0  0  0
   -2.6988   10.8215   -0.9141 C   0  0  0  0  0  0  0  0  0  0  0  0
   -2.2819    9.5778   -3.6213 O   0  0  0  0  0  0  0  0  0  0  0  0
   -0.6533    6.8596   -0.0914 O   0  0  0  0  0  0  0  0  0  0  0  0
   -3.7029   11.6112   -0.1758 C   0  0  1  0  0  0  0  0  0  0  0  0
   -1.8764   11.4091   -1.6580 O   0  0  0  0  0  0  0  0  0  0  0  0
   -2.7055    9.6452   -5.1568 P   0  0  2  0  0  0  0  0  0  0  0  0
   -0.3313    5.9130    0.8449 C   0  0  0  0  0  0  0  0  0  0  0  0
   -3.0750   12.6915    0.7384 C   0  0  1  0  0  0  0  0  0  0  0  0
   -2.7263   11.1841   -5.6016 O   0  0  0  0  0  0  0  0  0  0  0  0
   -4.0429    9.0773   -5.3582 O   0  0  0  0  0  0  0  0  0  0  0  0
   -1.6417    8.8627   -6.0288 O   0  0  0  0  0  0  0  0  0  0  0  0
    1.0837    5.4949    0.9492 C   0  0  2  0  0  0  0  0  0  0  0  0
   -1.2045    5.3637    1.5576 O   0  0  0  0  0  0  0  0  0  0  0  0
   -4.1618   13.5260    1.4638 C   0  0  2  0  0  0  0  0  0  0  0  0
   -1.4840   11.9128   -5.5102 C   0  0  1  0  0  0  0  0  0  0  0  0
    1.4663    4.7633   -0.3621 C   0  0  1  0  0  0  0  0  0  0  0  0
   -3.5520   14.7453    2.1933 C   0  0  1  0  0  0  0  0  0  0  0  0
   -1.7801   13.4108   -5.8108 C   0  0  1  0  0  0  0  0  0  0  0  0
    2.8658    4.0914   -0.3979 C   0  0  2  0  0  0  0  0  0  0  0  0
   -4.6103   15.5573    2.9823 C   0  0  1  0  0  0  0  0  0  0  0  0
   -0.6724   14.4411   -5.6283 N   0  0  2  0  0  0  0  0  0  0  0  0
    3.0190    3.3262   -1.7431 C   0  0  2  0  0  0  0  0  0  0  0  0
   -3.9644   16.8061    3.6320 C   0  0  2  0  0  0  0  0  0  0  0  0
   -1.2260   15.7948   -6.0319 C   0  0  0  0  0  0  0  0  0  0  0  0
    0.5190   14.1178   -6.4953 C   0  0  0  0  0  0  0  0  0  0  0  0
   -0.2205   14.5270   -4.1893 C   0  0  0  0  0  0  0  0  0  0  0  0
    4.4100    2.6938   -1.9948 C   0  0  2  0  0  0  0  0  0  0  0  0
   -4.9223   17.5868    4.5680 C   0  0  1  0  0  0  0  0  0  0  0  0
    4.4524    2.0015   -3.3870 C   0  0  1  0  0  0  0  0  0  0  0  0
   -4.2890   18.8670    5.1864 C   0  0  1  0  0  0  0  0  0  0  0  0
    5.8378    1.4084   -3.7502 C   0  0  1  0  0  0  0  0  0  0  0  0
   -3.0903   18.5952    6.1416 C   0  0  2  0  0  0  0  0  0  0  0  0
    5.8429    0.7436   -5.1556 C   0  0  1  0  0  0  0  0  0  0  0  0
   -2.4839   19.8804    6.7699 C   0  0  1  0  0  0  0  0  0  0  0  0
    7.2191    0.1307   -5.5247 C   0  0  2  0  0  0  0  0  0  0  0  0
   -1.2287   19.5740    7.6359 C   0  0  1  0  0  0  0  0  0  0  0  0
    7.2167   -0.5869   -6.9017 C   0  0  1  0  0  0  0  0  0  0  0  0
   -0.5573   20.8438    8.2247 C   0  0  2  0  0  0  0  0  0  0  0  0
    8.5899   -1.2386   -7.2241 C   0  0  2  0  0  0  0  0  0  0  0  0
    0.7189   20.5233    9.0377 C   0  0  0  0  0  0  0  0  0  0  0  0
    8.6227   -1.9903   -8.5843 C   0  0  1  0  0  0  0  0  0  0  0  0
   10.0899   -2.6316   -8.7994 C   0  0  0  0  0  0  0  0  0  0  0  0
   -0.8776    8.8140   -1.5433 H   0  0  0  0  0  0  0  0  0  0  0  0
   -1.9265    7.5195   -3.4396 H   0  0  0  0  0  0  0  0  0  0  0  0
   -3.5299    8.0676   -2.8780 H   0  0  0  0  0  0  0  0  0  0  0  0
   -2.6964    7.2107    0.1490 H   0  0  0  0  0  0  0  0  0  0  0  0
   -2.2242    6.2928   -1.2820 H   0  0  0  0  0  0  0  0  0  0  0  0
   -4.3619   12.0914   -0.9044 H   0  0  0  0  0  0  0  0  0  0  0  0
   -4.3116   10.9358    0.4302 H   0  0  0  0  0  0  0  0  0  0  0  0
   -2.4303   12.2107    1.4819 H   0  0  0  0  0  0  0  0  0  0  0  0
   -2.4564   13.3586    0.1298 H   0  0  0  0  0  0  0  0  0  0  0  0
    1.2271    4.8230    1.7984 H   0  0  0  0  0  0  0  0  0  0  0  0
    1.7172    6.3723    1.0958 H   0  0  0  0  0  0  0  0  0  0  0  0
   -4.6792   12.8893    2.1882 H   0  0  0  0  0  0  0  0  0  0  0  0
   -4.8948   13.8894    0.7359 H   0  0  0  0  0  0  0  0  0  0  0  0
   -1.0558   11.8207   -4.5130 H   0  0  0  0  0  0  0  0  0  0  0  0
   -0.7758   11.5297   -6.2477 H   0  0  0  0  0  0  0  0  0  0  0  0
    0.7171    3.9874   -0.5551 H   0  0  0  0  0  0  0  0  0  0  0  0
    1.4164    5.4858   -1.1822 H   0  0  0  0  0  0  0  0  0  0  0  0
   -2.7794   14.3966    2.8864 H   0  0  0  0  0  0  0  0  0  0  0  0
   -3.0770   15.3969    1.4527 H   0  0  0  0  0  0  0  0  0  0  0  0
   -2.1383   13.4458   -6.8475 H   0  0  0  0  0  0  0  0  0  0  0  0
   -2.6353   13.6975   -5.1860 H   0  0  0  0  0  0  0  0  0  0  0  0
    2.9655    3.3906    0.4370 H   0  0  0  0  0  0  0  0  0  0  0  0
    3.6452    4.8545   -0.3071 H   0  0  0  0  0  0  0  0  0  0  0  0
   -5.4150   15.8684    2.3099 H   0  0  0  0  0  0  0  0  0  0  0  0
   -5.0409   14.9172    3.7580 H   0  0  0  0  0  0  0  0  0  0  0  0
    2.8111    4.0237   -2.5614 H   0  0  0  0  0  0  0  0  0  0  0  0
    2.2660    2.5308   -1.7756 H   0  0  0  0  0  0  0  0  0  0  0  0
   -3.6122   17.4740    2.8412 H   0  0  0  0  0  0  0  0  0  0  0  0
   -3.1003   16.4710    4.2069 H   0  0  0  0  0  0  0  0  0  0  0  0
   -0.4833   16.5934   -5.9316 H   0  0  0  0  0  0  0  0  0  0  0  0
   -1.5634   15.7940   -7.0740 H   0  0  0  0  0  0  0  0  0  0  0  0
   -2.0855   16.0721   -5.4107 H   0  0  0  0  0  0  0  0  0  0  0  0
    1.0091   13.1920   -6.1827 H   0  0  0  0  0  0  0  0  0  0  0  0
    1.2750   14.9067   -6.4491 H   0  0  0  0  0  0  0  0  0  0  0  0
    0.2290   13.9994   -7.5423 H   0  0  0  0  0  0  0  0  0  0  0  0
    0.2651   13.6088   -3.8523 H   0  0  0  0  0  0  0  0  0  0  0  0
   -1.0622   14.7198   -3.5191 H   0  0  0  0  0  0  0  0  0  0  0  0
    0.5061   15.3320   -4.0451 H   0  0  0  0  0  0  0  0  0  0  0  0
    4.6196    1.9610   -1.2105 H   0  0  0  0  0  0  0  0  0  0  0  0
    5.1703    3.4779   -1.9516 H   0  0  0  0  0  0  0  0  0  0  0  0
   -5.8054   17.8827    3.9937 H   0  0  0  0  0  0  0  0  0  0  0  0
   -5.2553   16.9277    5.3743 H   0  0  0  0  0  0  0  0  0  0  0  0
    3.7065    1.2009   -3.4030 H   0  0  0  0  0  0  0  0  0  0  0  0
    4.1766    2.7332   -4.1517 H   0  0  0  0  0  0  0  0  0  0  0  0
   -3.9659   19.5276    4.3762 H   0  0  0  0  0  0  0  0  0  0  0  0
   -5.0690   19.3895    5.7483 H   0  0  0  0  0  0  0  0  0  0  0  0
    6.5824    2.2091   -3.7295 H   0  0  0  0  0  0  0  0  0  0  0  0
    6.1107    0.6650   -2.9960 H   0  0  0  0  0  0  0  0  0  0  0  0
   -2.2976   18.0924    5.5847 H   0  0  0  0  0  0  0  0  0  0  0  0
   -3.4204   17.9265    6.9418 H   0  0  0  0  0  0  0  0  0  0  0  0
    5.0851   -0.0446   -5.1752 H   0  0  0  0  0  0  0  0  0  0  0  0
    5.5747    1.4926   -5.9065 H   0  0  0  0  0  0  0  0  0  0  0  0
   -2.2032   20.5665    5.9665 H   0  0  0  0  0  0  0  0  0  0  0  0
   -3.2418   20.3707    7.3866 H   0  0  0  0  0  0  0  0  0  0  0  0
    7.5023   -0.5890   -4.7526 H   0  0  0  0  0  0  0  0  0  0  0  0
    7.9687    0.9262   -5.5407 H   0  0  0  0  0  0  0  0  0  0  0  0
   -1.5172   18.9111    8.4566 H   0  0  0  0  0  0  0  0  0  0  0  0
   -0.4943   19.0493    7.0183 H   0  0  0  0  0  0  0  0  0  0  0  0
    6.4466   -1.3634   -6.8999 H   0  0  0  0  0  0  0  0  0  0  0  0
    6.9702    0.1372   -7.6833 H   0  0  0  0  0  0  0  0  0  0  0  0
   -1.2672   21.3613    8.8757 H   0  0  0  0  0  0  0  0  0  0  0  0
   -0.2846   21.5207    7.4102 H   0  0  0  0  0  0  0  0  0  0  0  0
    8.8368   -1.9463   -6.4267 H   0  0  0  0  0  0  0  0  0  0  0  0
    9.3549   -0.4561   -7.2340 H   0  0  0  0  0  0  0  0  0  0  0  0
    1.1512   21.4464    9.4283 H   0  0  0  0  0  0  0  0  0  0  0  0
    0.4830   19.8676    9.8779 H   0  0  0  0  0  0  0  0  0  0  0  0
    1.4625   20.0346    8.4049 H   0  0  0  0  0  0  0  0  0  0  0  0
    7.7806   -2.7355   -8.5553 H   0  0  0  0  0  0  0  0  0  0  0  0
    8.3125   -1.2438   -9.3662 H   0  0  0  0  0  0  0  0  0  0  0  0
   10.3132   -3.3405   -7.9986 H   0  0  0  0  0  0  0  0  0  0  0  0
   10.8478   -1.8450   -8.8118 H   0  0  0  0  0  0  0  0  0  0  0  0
   10.1129   -3.1597   -9.7546 H   0  0  0  0  0  0  0  0  0  0  0  0
  1  2  1  0  0  0  0 
  1  3  1  0  0  0  0 
  1  4  1  0  0  0  0 
  2  5  1  0  0  0  0 
  3  6  1  0  0  0  0 
  4  7  1  0  0  0  0 
  5  8  1  0  0  0  0 
  5  9  2  0  0  0  0 
  6 10  1  0  0  0  0 
  7 11  1  0  0  0  0 
  8 12  1  0  0  0  0 
 10 13  1  0  0  0  0 
 10 14  2  0  0  0  0 
 10 15  1  0  0  0  0 
 11 16  1  0  0  0  0 
 11 17  2  0  0  0  0 
 12 18  1  0  0  0  0 
 13 19  1  0  0  0  0 
 16 20  1  0  0  0  0 
 18 21  1  0  0  0  0 
 19 22  1  0  0  0  0 
 20 23  1  0  0  0  0 
 21 24  1  0  0  0  0 
 22 25  1  0  0  0  0 
 23 26  1  0  0  0  0 
 24 27  1  0  0  0  0 
 25 28  1  0  0  0  0 
 25 29  1  0  0  0  0 
 25 30  1  0  0  0  0 
 26 31  1  0  0  0  0 
 27 32  1  0  0  0  0 
 31 33  1  0  0  0  0 
 32 34  1  0  0  0  0 
 33 35  1  0  0  0  0 
 34 36  1  0  0  0  0 
 35 37  1  0  0  0  0 
 36 38  1  0  0  0  0 
 37 39  1  0  0  0  0 
 38 40  1  0  0  0  0 
 39 41  1  0  0  0  0 
 40 42  1  0  0  0  0 
 41 43  1  0  0  0  0 
 42 44  1  0  0  0  0 
 43 45  1  0  0  0  0 
 45 46  1  0  0  0  0 
  1 47  1  0  0  0  0 
  3 48  1  0  0  0  0 
  3 49  1  0  0  0  0 
  4 50  1  0  0  0  0 
  4 51  1  0  0  0  0 
  8 52  1  0  0  0  0 
  8 53  1  0  0  0  0 
 12 54  1  0  0  0  0 
 12 55  1  0  0  0  0 
 16 56  1  0  0  0  0 
 16 57  1  0  0  0  0 
 18 58  1  0  0  0  0 
 18 59  1  0  0  0  0 
 19 60  1  0  0  0  0 
 19 61  1  0  0  0  0 
 20 62  1  0  0  0  0 
 20 63  1  0  0  0  0 
 21 64  1  0  0  0  0 
 21 65  1  0  0  0  0 
 22 66  1  0  0  0  0 
 22 67  1  0  0  0  0 
 23 68  1  0  0  0  0 
 23 69  1  0  0  0  0 
 24 70  1  0  0  0  0 
 24 71  1  0  0  0  0 
 26 72  1  0  0  0  0 
 26 73  1  0  0  0  0 
 27 74  1  0  0  0  0 
 27 75  1  0  0  0  0 
 28 76  1  0  0  0  0 
 28 77  1  0  0  0  0 
 28 78  1  0  0  0  0 
 29 79  1  0  0  0  0 
 29 80  1  0  0  0  0 
 29 81  1  0  0  0  0 
 30 82  1  0  0  0  0 
 30 83  1  0  0  0  0 
 30 84  1  0  0  0  0 
 31 85  1  0  0  0  0 
 31 86  1  0  0  0  0 
 32 87  1  0  0  0  0 
 32 88  1  0  0  0  0 
 33 89  1  0  0  0  0 
 33 90  1  0  0  0  0 
 34 91  1  0  0  0  0 
 34 92  1  0  0  0  0 
 35 93  1  0  0  0  0 
 35 94  1  0  0  0  0 
 36 95  1  0  0  0  0 
 36 96  1  0  0  0  0 
 37 97  1  0  0  0  0 
 37 98  1  0  0  0  0 
 38 99  1  0  0  0  0 
 38100  1  0  0  0  0 
 39101  1  0  0  0  0 
 39102  1  0  0  0  0 
 40103  1  0  0  0  0 
 40104  1  0  0  0  0 
 41105  1  0  0  0  0 
 41106  1  0  0  0  0 
 42107  1  0  0  0  0 
 42108  1  0  0  0  0 
 43109  1  0  0  0  0 
 43110  1  0  0  0  0 
 44111  1  0  0  0  0 
 44112  1  0  0  0  0 
 44113  1  0  0  0  0 
 45114  1  0  0  0  0 
 45115  1  0  0  0  0 
 46116  1  0  0  0  0 
 46117  1  0  0  0  0 
 46118  1  0  0  0  0 
M  CHG  1  15  -1
M  CHG  1  25   1
M  END
> <cdk:Title>
dimyristoylphosphatidylcholine

> <Conformer>
1

> <SuperDrugID>
SD003685

$$$$
