dichlorophenarsine
  CDK     0628171801

 17 17  0  0  0  0  0  0  0  0999 V2000
    0.8832    0.9567   -5.6047 As  0  0  0  0  0  0  0  0  0  0  0  0
    2.7988    1.8571   -6.1983 Cl  0  0  0  0  0  0  0  0  0  0  0  0
    0.2706   -0.8776   -6.6500 Cl  0  0  0  0  0  0  0  0  0  0  0  0
    0.3370    1.1541   -3.7892 C   0  0  0  0  0  0  0  0  0  0  0  0
    1.0132    0.4628   -2.7640 C   0  0  0  0  0  0  0  0  0  0  0  0
   -0.7579    1.9804   -3.4751 C   0  0  0  0  0  0  0  0  0  0  0  0
    0.5913    0.5886   -1.4246 C   0  0  0  0  0  0  0  0  0  0  0  0
   -1.1742    2.1157   -2.1391 C   0  0  0  0  0  0  0  0  0  0  0  0
    1.2307   -0.1069   -0.4608 N   0  0  0  0  0  0  0  0  0  0  0  0
   -0.5025    1.4260   -1.1123 C   0  0  0  0  0  0  0  0  0  0  0  0
   -0.9352    1.5760    0.1630 O   0  0  0  0  0  0  0  0  0  0  0  0
    1.8068   -0.1400   -2.9957 H   0  0  0  0  0  0  0  0  0  0  0  0
   -1.2572    2.4803   -4.2133 H   0  0  0  0  0  0  0  0  0  0  0  0
   -1.9688    2.7213   -1.9158 H   0  0  0  0  0  0  0  0  0  0  0  0
    1.9693   -0.6914   -0.6942 H   0  0  0  0  0  0  0  0  0  0  0  0
    0.9550   -0.0323    0.4653 H   0  0  0  0  0  0  0  0  0  0  0  0
   -0.2040    2.0343    0.6269 H   0  0  0  0  0  0  0  0  0  0  0  0
  1  2  1  0  0  0  0 
  1  3  1  0  0  0  0 
  1  4  1  0  0  0  0 
  4  5  2  0  0  0  0 
  4  6  1  0  0  0  0 
  5  7  1  0  0  0  0 
  6  8  2  0  0  0  0 
  7  9  1  0  0  0  0 
  7 10  2  0  0  0  0 
  8 10  1  0  0  0  0 
 10 11  1  0  0  0  0 
  5 12  1  0  0  0  0 
  6 13  1  0  0  0  0 
  8 14  1  0  0  0  0 
  9 15  1  0  0  0  0 
  9 16  1  0  0  0  0 
 11 17  1  0  0  0  0 
M  END
> <cdk:Title>
dichlorophenarsine

> <Conformer>
1

> <SuperDrugID>
SD003185

$$$$
