ethosuximide
  CDK     0628171801

 21 21  0  0  0  0  0  0  0  0999 V2000
    2.5293    0.7812    0.6422 C   0  0  0  0  0  0  0  0  0  0  0  0
    1.6873   -0.4620    0.2611 C   0  0  1  0  0  0  0  0  0  0  0  0
    2.0611   -1.1565   -1.0972 C   0  0  2  0  0  0  0  0  0  0  0  0
    3.5403   -1.6602   -1.1120 C   0  0  0  0  0  0  0  0  0  0  0  0
    1.7227   -0.2725   -2.3477 C   0  0  1  0  0  0  0  0  0  0  0  0
    0.7238   -1.0604   -3.0726 C   0  0  0  0  0  0  0  0  0  0  0  0
    0.1992   -0.7246   -4.1577 O   0  0  0  0  0  0  0  0  0  0  0  0
    0.4277   -2.1891   -2.4346 N   0  0  0  0  0  0  0  0  0  0  0  0
    1.1569   -2.3118   -1.3250 C   0  0  0  0  0  0  0  0  0  0  0  0
    1.0777   -3.3184   -0.5842 O   0  0  0  0  0  0  0  0  0  0  0  0
    2.1271    1.2312    1.5503 H   0  0  0  0  0  0  0  0  0  0  0  0
    2.5103    1.5327   -0.1465 H   0  0  0  0  0  0  0  0  0  0  0  0
    3.5640    0.5014    0.8358 H   0  0  0  0  0  0  0  0  0  0  0  0
    1.7840   -1.1855    1.0769 H   0  0  0  0  0  0  0  0  0  0  0  0
    0.6373   -0.1554    0.2307 H   0  0  0  0  0  0  0  0  0  0  0  0
    3.7463   -2.2775   -0.2337 H   0  0  0  0  0  0  0  0  0  0  0  0
    4.2351   -0.8176   -1.1091 H   0  0  0  0  0  0  0  0  0  0  0  0
    3.7446   -2.2551   -2.0068 H   0  0  0  0  0  0  0  0  0  0  0  0
    1.2818    0.6904   -2.0813 H   0  0  0  0  0  0  0  0  0  0  0  0
    2.5902   -0.0949   -2.9872 H   0  0  0  0  0  0  0  0  0  0  0  0
   -0.2245   -2.8384   -2.7389 H   0  0  0  0  0  0  0  0  0  0  0  0
  1  2  1  0  0  0  0 
  3  2  1  0  0  0  0 
  3  4  1  0  0  0  0 
  3  5  1  0  0  0  0 
  5  6  1  0  0  0  0 
  6  7  2  0  0  0  0 
  6  8  1  0  0  0  0 
  8  9  1  0  0  0  0 
  3  9  1  0  0  0  0 
  9 10  2  0  0  0  0 
  1 11  1  0  0  0  0 
  1 12  1  0  0  0  0 
  1 13  1  0  0  0  0 
  2 14  1  0  0  0  0 
  2 15  1  0  0  0  0 
  4 16  1  0  0  0  0 
  4 17  1  0  0  0  0 
  4 18  1  0  0  0  0 
  5 19  1  0  0  0  0 
  5 20  1  0  0  0  0 
  8 21  1  0  0  0  0 
M  END
> <cdk:Title>
ethosuximide

> <Conformer>
1

> <SuperDrugID>
SD000971

$$$$
