guaimesal
  CDK     0628171801

 35 37  0  0  0  0  0  0  0  0999 V2000
    2.0247   -1.0052    0.4301 O   0  0  0  0  0  0  0  0  0  0  0  0
    2.5777   -0.9671    1.7723 C   0  0  2  0  0  0  0  0  0  0  0  0
    1.2997    0.0887    0.0254 C   0  0  0  0  0  0  0  0  0  0  0  0
    3.6505    0.1336    1.9470 C   0  0  0  0  0  0  0  0  0  0  0  0
    3.2440   -2.2366    1.9825 O   0  0  0  0  0  0  0  0  0  0  0  0
    1.5610   -0.7668    2.7750 O   0  0  0  0  0  0  0  0  0  0  0  0
   -0.0954    0.1623    0.2534 C   0  0  0  0  0  0  0  0  0  0  0  0
    1.9384    1.1323   -0.6809 C   0  0  0  0  0  0  0  0  0  0  0  0
    2.4273   -3.3009    2.3101 C   0  0  0  0  0  0  0  0  0  0  0  0
    0.8214   -1.7946    3.2825 C   0  0  0  0  0  0  0  0  0  0  0  0
   -0.7775   -0.8380    0.8905 O   0  0  0  0  0  0  0  0  0  0  0  0
   -0.8162    1.3018   -0.1614 C   0  0  0  0  0  0  0  0  0  0  0  0
    1.2122    2.2614   -1.1028 C   0  0  0  0  0  0  0  0  0  0  0  0
    1.1966   -3.1231    2.9912 C   0  0  0  0  0  0  0  0  0  0  0  0
    2.8669   -4.6024    1.9978 C   0  0  0  0  0  0  0  0  0  0  0  0
   -0.1653   -1.5121    3.9994 O   0  0  0  0  0  0  0  0  0  0  0  0
   -1.1293   -1.9321    0.0272 C   0  0  0  0  0  0  0  0  0  0  0  0
   -0.1644    2.3479   -0.8361 C   0  0  0  0  0  0  0  0  0  0  0  0
    0.4175   -4.2504    3.3425 C   0  0  0  0  0  0  0  0  0  0  0  0
    2.0931   -5.7211    2.3571 C   0  0  0  0  0  0  0  0  0  0  0  0
    0.8697   -5.5455    3.0292 C   0  0  0  0  0  0  0  0  0  0  0  0
    4.4039    0.0491    1.1633 H   0  0  0  0  0  0  0  0  0  0  0  0
    3.1976    1.1242    1.8937 H   0  0  0  0  0  0  0  0  0  0  0  0
    4.1377    0.0373    2.9191 H   0  0  0  0  0  0  0  0  0  0  0  0
    2.9374    1.0741   -0.8900 H   0  0  0  0  0  0  0  0  0  0  0  0
   -1.8200    1.3700    0.0241 H   0  0  0  0  0  0  0  0  0  0  0  0
    1.6832    3.0182   -1.6031 H   0  0  0  0  0  0  0  0  0  0  0  0
    3.7575   -4.7400    1.5131 H   0  0  0  0  0  0  0  0  0  0  0  0
   -1.8170   -2.5804    0.5708 H   0  0  0  0  0  0  0  0  0  0  0  0
   -1.6318   -1.5918   -0.8833 H   0  0  0  0  0  0  0  0  0  0  0  0
   -0.2470   -2.5174   -0.2392 H   0  0  0  0  0  0  0  0  0  0  0  0
   -0.6927    3.1691   -1.1395 H   0  0  0  0  0  0  0  0  0  0  0  0
   -0.4779   -4.1411    3.8244 H   0  0  0  0  0  0  0  0  0  0  0  0
    2.4199   -6.6654    2.1326 H   0  0  0  0  0  0  0  0  0  0  0  0
    0.3088   -6.3588    3.2940 H   0  0  0  0  0  0  0  0  0  0  0  0
  2  1  1  0  0  0  0 
  1  3  1  0  0  0  0 
  2  4  1  0  0  0  0 
  2  5  1  0  0  0  0 
  2  6  1  0  0  0  0 
  3  7  2  0  0  0  0 
  3  8  1  0  0  0  0 
  5  9  1  0  0  0  0 
  6 10  1  0  0  0  0 
  7 11  1  0  0  0  0 
  7 12  1  0  0  0  0 
  8 13  2  0  0  0  0 
  9 14  2  0  0  0  0 
  9 15  1  0  0  0  0 
 10 14  1  0  0  0  0 
 10 16  2  0  0  0  0 
 11 17  1  0  0  0  0 
 12 18  2  0  0  0  0 
 13 18  1  0  0  0  0 
 14 19  1  0  0  0  0 
 15 20  2  0  0  0  0 
 19 21  2  0  0  0  0 
 20 21  1  0  0  0  0 
  4 22  1  0  0  0  0 
  4 23  1  0  0  0  0 
  4 24  1  0  0  0  0 
  8 25  1  0  0  0  0 
 12 26  1  0  0  0  0 
 13 27  1  0  0  0  0 
 15 28  1  0  0  0  0 
 17 29  1  0  0  0  0 
 17 30  1  0  0  0  0 
 17 31  1  0  0  0  0 
 18 32  1  0  0  0  0 
 19 33  1  0  0  0  0 
 20 34  1  0  0  0  0 
 21 35  1  0  0  0  0 
M  END
> <cdk:Title>
guaimesal

> <Conformer>
1

> <SuperDrugID>
SD001187

$$$$
