cicloprolol
  CDK     0628171802

 52 53  0  0  0  0  0  0  0  0999 V2000
    2.6836    3.5757   13.9274 O   0  0  0  0  0  0  0  0  0  0  0  0
    2.8886    3.4163   12.5069 C   0  0  1  0  0  0  0  0  0  0  0  0
    1.8768    4.6372   14.2363 C   0  0  0  0  0  0  0  0  0  0  0  0
    3.9716    2.3384   12.2514 C   0  0  2  0  0  0  0  0  0  0  0  0
    2.4334    5.9146   14.4508 C   0  0  0  0  0  0  0  0  0  0  0  0
    0.4848    4.4512   14.3605 C   0  0  0  0  0  0  0  0  0  0  0  0
    5.3193    2.6945   12.9296 C   0  0  2  0  0  0  0  0  0  0  0  0
    4.1644    2.2013   10.8446 O   0  0  0  0  0  0  0  0  0  0  0  0
    1.5979    7.0110   14.7400 C   0  0  0  0  0  0  0  0  0  0  0  0
   -0.3491    5.5456   14.6521 C   0  0  0  0  0  0  0  0  0  0  0  0
    6.3549    1.6828   12.6224 N   0  0  1  0  0  0  0  0  0  0  0  0
    0.2000    6.8348   14.8139 C   0  0  0  0  0  0  0  0  0  0  0  0
    7.6612    1.8566   13.3138 C   0  0  1  0  0  0  0  0  0  0  0  0
   -0.6212    7.9060   15.0436 O   0  0  0  0  0  0  0  0  0  0  0  0
    8.5007    0.5763   13.0801 C   0  0  0  0  0  0  0  0  0  0  0  0
    8.4237    3.1193   12.8281 C   0  0  0  0  0  0  0  0  0  0  0  0
   -1.0735    8.5178   13.8166 C   0  0  1  0  0  0  0  0  0  0  0  0
   -2.0462    9.6704   14.1349 C   0  0  1  0  0  0  0  0  0  0  0  0
   -2.4682   10.2808   12.8994 O   0  0  0  0  0  0  0  0  0  0  0  0
   -3.4225   11.3459   13.0574 C   0  0  1  0  0  0  0  0  0  0  0  0
   -3.7572   11.9135   11.6604 C   0  0  2  0  0  0  0  0  0  0  0  0
   -2.8091   12.9679   11.0653 C   0  0  1  0  0  0  0  0  0  0  0  0
   -4.2046   13.3812   11.5548 C   0  0  1  0  0  0  0  0  0  0  0  0
    1.9549    3.1049   12.0266 H   0  0  0  0  0  0  0  0  0  0  0  0
    3.2193    4.3542   12.0445 H   0  0  0  0  0  0  0  0  0  0  0  0
    3.6176    1.3776   12.6359 H   0  0  0  0  0  0  0  0  0  0  0  0
    3.4463    6.0510   14.3891 H   0  0  0  0  0  0  0  0  0  0  0  0
    0.0791    3.5215   14.2317 H   0  0  0  0  0  0  0  0  0  0  0  0
    5.1759    2.7470   14.0114 H   0  0  0  0  0  0  0  0  0  0  0  0
    5.6443    3.6741   12.5739 H   0  0  0  0  0  0  0  0  0  0  0  0
    3.2837    1.9558   10.4877 H   0  0  0  0  0  0  0  0  0  0  0  0
    2.0054    7.9363   14.8869 H   0  0  0  0  0  0  0  0  0  0  0  0
   -1.3578    5.4049   14.7358 H   0  0  0  0  0  0  0  0  0  0  0  0
    5.9769    0.7822   12.9244 H   0  0  0  0  0  0  0  0  0  0  0  0
    7.4926    1.9442   14.3913 H   0  0  0  0  0  0  0  0  0  0  0  0
    9.4655    0.6527   13.5859 H   0  0  0  0  0  0  0  0  0  0  0  0
    8.6747    0.4212   12.0132 H   0  0  0  0  0  0  0  0  0  0  0  0
    7.9775   -0.2945   13.4802 H   0  0  0  0  0  0  0  0  0  0  0  0
    9.4490    3.1242   13.2030 H   0  0  0  0  0  0  0  0  0  0  0  0
    7.9301    4.0223   13.1902 H   0  0  0  0  0  0  0  0  0  0  0  0
    8.4508    3.1495   11.7380 H   0  0  0  0  0  0  0  0  0  0  0  0
   -0.2249    8.9203   13.2530 H   0  0  0  0  0  0  0  0  0  0  0  0
   -1.5997    7.7901   13.1887 H   0  0  0  0  0  0  0  0  0  0  0  0
   -2.9059    9.2671   14.6781 H   0  0  0  0  0  0  0  0  0  0  0  0
   -1.5392   10.4056   14.7665 H   0  0  0  0  0  0  0  0  0  0  0  0
   -4.3459   10.9661   13.4995 H   0  0  0  0  0  0  0  0  0  0  0  0
   -3.0169   12.1280   13.7063 H   0  0  0  0  0  0  0  0  0  0  0  0
   -4.2066   11.2433   10.9226 H   0  0  0  0  0  0  0  0  0  0  0  0
   -1.9789   13.3043   11.6903 H   0  0  0  0  0  0  0  0  0  0  0  0
   -2.6867   12.9530    9.9819 H   0  0  0  0  0  0  0  0  0  0  0  0
   -4.9374   13.5955   10.7745 H   0  0  0  0  0  0  0  0  0  0  0  0
   -4.2259   13.9621   12.4783 H   0  0  0  0  0  0  0  0  0  0  0  0
  1  2  1  0  0  0  0 
  1  3  1  0  0  0  0 
  4  2  1  0  0  0  0 
  3  5  2  0  0  0  0 
  3  6  1  0  0  0  0 
  4  7  1  0  0  0  0 
  4  8  1  0  0  0  0 
  5  9  1  0  0  0  0 
  6 10  2  0  0  0  0 
  7 11  1  0  0  0  0 
  9 12  2  0  0  0  0 
 10 12  1  0  0  0  0 
 11 13  1  0  0  0  0 
 12 14  1  0  0  0  0 
 13 15  1  0  0  0  0 
 13 16  1  0  0  0  0 
 14 17  1  0  0  0  0 
 17 18  1  0  0  0  0 
 18 19  1  0  0  0  0 
 19 20  1  0  0  0  0 
 20 21  1  0  0  0  0 
 21 22  1  0  0  0  0 
 21 23  1  0  0  0  0 
 22 23  1  0  0  0  0 
  2 24  1  0  0  0  0 
  2 25  1  0  0  0  0 
  4 26  1  0  0  0  0 
  5 27  1  0  0  0  0 
  6 28  1  0  0  0  0 
  7 29  1  0  0  0  0 
  7 30  1  0  0  0  0 
  8 31  1  0  0  0  0 
  9 32  1  0  0  0  0 
 10 33  1  0  0  0  0 
 11 34  1  0  0  0  0 
 13 35  1  0  0  0  0 
 15 36  1  0  0  0  0 
 15 37  1  0  0  0  0 
 15 38  1  0  0  0  0 
 16 39  1  0  0  0  0 
 16 40  1  0  0  0  0 
 16 41  1  0  0  0  0 
 17 42  1  0  0  0  0 
 17 43  1  0  0  0  0 
 18 44  1  0  0  0  0 
 18 45  1  0  0  0  0 
 20 46  1  0  0  0  0 
 20 47  1  0  0  0  0 
 21 48  1  0  0  0  0 
 22 49  1  0  0  0  0 
 22 50  1  0  0  0  0 
 23 51  1  0  0  0  0 
 23 52  1  0  0  0  0 
M  END
> <cdk:Title>
cicloprolol

> <Conformer>
1

> <SuperDrugID>
SD000558

$$$$
