dexbrompheniramine
  CDK     0628171802

 38 39  0  0  0  0  0  0  0  0999 V2000
   -0.3724    1.9186   -0.8752 C   0  0  1  0  0  0  0  0  0  0  0  0
    0.3787    0.6216   -1.3236 C   0  0  1  0  0  0  0  0  0  0  0  0
   -0.1682    3.0492   -1.8466 C   0  0  0  0  0  0  0  0  0  0  0  0
   -1.8210    1.6536   -0.6253 C   0  0  0  0  0  0  0  0  0  0  0  0
    0.4104   -0.5237   -0.2706 C   0  0  2  0  0  0  0  0  0  0  0  0
    0.4566    4.2563   -1.4383 C   0  0  0  0  0  0  0  0  0  0  0  0
   -0.5800    2.9504   -3.2006 C   0  0  0  0  0  0  0  0  0  0  0  0
   -2.4096    1.8016    0.6515 C   0  0  0  0  0  0  0  0  0  0  0  0
   -2.6106    1.2173   -1.6472 N   0  0  0  0  0  0  0  0  0  0  0  0
    0.9812   -0.1475    1.0663 N   0  0  1  0  0  0  0  0  0  0  0  0
    0.6450    5.3226   -2.3388 C   0  0  0  0  0  0  0  0  0  0  0  0
   -0.3995    4.0167   -4.1007 C   0  0  0  0  0  0  0  0  0  0  0  0
   -3.7710    1.4939    0.8284 C   0  0  0  0  0  0  0  0  0  0  0  0
   -3.9255    0.9187   -1.5170 C   0  0  0  0  0  0  0  0  0  0  0  0
    0.7081   -1.1742    2.1165 C   0  0  0  0  0  0  0  0  0  0  0  0
    2.4244    0.2383    1.0170 C   0  0  0  0  0  0  0  0  0  0  0  0
    0.2108    5.2066   -3.6696 C   0  0  0  0  0  0  0  0  0  0  0  0
   -4.5393    1.0450   -0.2602 C   0  0  0  0  0  0  0  0  0  0  0  0
    0.4441    6.6246   -4.8526 Br  0  0  0  0  0  0  0  0  0  0  0  0
    0.0834    2.2141    0.0747 H   0  0  0  0  0  0  0  0  0  0  0  0
   -0.0858    0.2232   -2.2292 H   0  0  0  0  0  0  0  0  0  0  0  0
    1.4057    0.8776   -1.5922 H   0  0  0  0  0  0  0  0  0  0  0  0
    0.9799   -1.3620   -0.6878 H   0  0  0  0  0  0  0  0  0  0  0  0
   -0.6189   -0.8711   -0.1444 H   0  0  0  0  0  0  0  0  0  0  0  0
    0.7837    4.3743   -0.4764 H   0  0  0  0  0  0  0  0  0  0  0  0
   -1.0177    2.0955   -3.5499 H   0  0  0  0  0  0  0  0  0  0  0  0
   -1.8582    2.1229    1.4518 H   0  0  0  0  0  0  0  0  0  0  0  0
    1.0987    6.1827   -2.0216 H   0  0  0  0  0  0  0  0  0  0  0  0
   -0.7129    3.9207   -5.0694 H   0  0  0  0  0  0  0  0  0  0  0  0
   -4.2019    1.5934    1.7511 H   0  0  0  0  0  0  0  0  0  0  0  0
   -4.4563    0.6027   -2.3309 H   0  0  0  0  0  0  0  0  0  0  0  0
    1.0759   -0.8410    3.0886 H   0  0  0  0  0  0  0  0  0  0  0  0
   -0.3658   -1.3416    2.2199 H   0  0  0  0  0  0  0  0  0  0  0  0
    1.1886   -2.1223    1.8684 H   0  0  0  0  0  0  0  0  0  0  0  0
    2.5616    1.1417    0.4209 H   0  0  0  0  0  0  0  0  0  0  0  0
    2.8045    0.4673    2.0158 H   0  0  0  0  0  0  0  0  0  0  0  0
    3.0287   -0.5667    0.5877 H   0  0  0  0  0  0  0  0  0  0  0  0
   -5.5272    0.8179   -0.1422 H   0  0  0  0  0  0  0  0  0  0  0  0
  1  2  1  0  0  0  0 
  1  3  1  0  0  0  0 
  1  4  1  0  0  0  0 
  2  5  1  0  0  0  0 
  3  6  2  0  0  0  0 
  3  7  1  0  0  0  0 
  4  8  2  0  0  0  0 
  4  9  1  0  0  0  0 
  5 10  1  0  0  0  0 
  6 11  1  0  0  0  0 
  7 12  2  0  0  0  0 
  8 13  1  0  0  0  0 
  9 14  2  0  0  0  0 
 10 15  1  0  0  0  0 
 10 16  1  0  0  0  0 
 11 17  2  0  0  0  0 
 12 17  1  0  0  0  0 
 13 18  2  0  0  0  0 
 14 18  1  0  0  0  0 
 17 19  1  0  0  0  0 
  1 20  1  0  0  0  0 
  2 21  1  0  0  0  0 
  2 22  1  0  0  0  0 
  5 23  1  0  0  0  0 
  5 24  1  0  0  0  0 
  6 25  1  0  0  0  0 
  7 26  1  0  0  0  0 
  8 27  1  0  0  0  0 
 11 28  1  0  0  0  0 
 12 29  1  0  0  0  0 
 13 30  1  0  0  0  0 
 14 31  1  0  0  0  0 
 15 32  1  0  0  0  0 
 15 33  1  0  0  0  0 
 15 34  1  0  0  0  0 
 16 35  1  0  0  0  0 
 16 36  1  0  0  0  0 
 16 37  1  0  0  0  0 
 18 38  1  0  0  0  0 
M  END
> <cdk:Title>
dexbrompheniramine

> <Conformer>
1

> <SuperDrugID>
SD000734

$$$$
