guaiacol carbonate
  CDK     0628171801

 34 35  0  0  0  0  0  0  0  0999 V2000
    2.3288   -3.1873   -2.1595 O   0  0  0  0  0  0  0  0  0  0  0  0
    2.3177   -2.9906   -0.8160 C   0  0  0  0  0  0  0  0  0  0  0  0
    3.0916   -2.7332   -3.1967 C   0  0  0  0  0  0  0  0  0  0  0  0
    1.3041   -3.6523   -0.2010 O   0  0  0  0  0  0  0  0  0  0  0  0
    3.1498   -2.2784   -0.2115 O   0  0  0  0  0  0  0  0  0  0  0  0
    2.7486   -3.2524   -4.4668 C   0  0  0  0  0  0  0  0  0  0  0  0
    4.1583   -1.8104   -3.0916 C   0  0  0  0  0  0  0  0  0  0  0  0
    0.8930   -3.8049    1.0919 C   0  0  0  0  0  0  0  0  0  0  0  0
    1.7199   -4.1477   -4.6121 O   0  0  0  0  0  0  0  0  0  0  0  0
    3.4819   -2.8758   -5.6086 C   0  0  0  0  0  0  0  0  0  0  0  0
    4.8846   -1.4337   -4.2383 C   0  0  0  0  0  0  0  0  0  0  0  0
   -0.2760   -4.5824    1.2626 C   0  0  0  0  0  0  0  0  0  0  0  0
    1.5352   -3.2622    2.2292 C   0  0  0  0  0  0  0  0  0  0  0  0
    0.4258   -3.5210   -4.7048 C   0  0  0  0  0  0  0  0  0  0  0  0
    4.5457   -1.9650   -5.4954 C   0  0  0  0  0  0  0  0  0  0  0  0
   -0.9275   -5.1279    0.1860 O   0  0  0  0  0  0  0  0  0  0  0  0
   -0.8095   -4.7880    2.5496 C   0  0  0  0  0  0  0  0  0  0  0  0
    0.9994   -3.4757    3.5144 C   0  0  0  0  0  0  0  0  0  0  0  0
   -0.3621   -6.3796   -0.2495 C   0  0  0  0  0  0  0  0  0  0  0  0
   -0.1709   -4.2388    3.6743 C   0  0  0  0  0  0  0  0  0  0  0  0
    4.4168   -1.4052   -2.1922 H   0  0  0  0  0  0  0  0  0  0  0  0
    3.2402   -3.2654   -6.5222 H   0  0  0  0  0  0  0  0  0  0  0  0
    5.6592   -0.7690   -4.1600 H   0  0  0  0  0  0  0  0  0  0  0  0
    2.3895   -2.7127    2.1391 H   0  0  0  0  0  0  0  0  0  0  0  0
   -0.3096   -4.2919   -4.9398 H   0  0  0  0  0  0  0  0  0  0  0  0
    0.1417   -3.0594   -3.7557 H   0  0  0  0  0  0  0  0  0  0  0  0
    0.3963   -2.7691   -5.4986 H   0  0  0  0  0  0  0  0  0  0  0  0
    5.0695   -1.6872   -6.3275 H   0  0  0  0  0  0  0  0  0  0  0  0
   -1.6631   -5.3379    2.6667 H   0  0  0  0  0  0  0  0  0  0  0  0
    1.4628   -3.0786    4.3363 H   0  0  0  0  0  0  0  0  0  0  0  0
   -1.0115   -6.7961   -1.0209 H   0  0  0  0  0  0  0  0  0  0  0  0
    0.6305   -6.2347   -0.6835 H   0  0  0  0  0  0  0  0  0  0  0  0
   -0.2996   -7.1020    0.5694 H   0  0  0  0  0  0  0  0  0  0  0  0
   -0.5559   -4.3977    4.6071 H   0  0  0  0  0  0  0  0  0  0  0  0
  1  2  1  0  0  0  0 
  1  3  1  0  0  0  0 
  2  4  1  0  0  0  0 
  2  5  2  0  0  0  0 
  3  6  2  0  0  0  0 
  3  7  1  0  0  0  0 
  4  8  1  0  0  0  0 
  6  9  1  0  0  0  0 
  6 10  1  0  0  0  0 
  7 11  2  0  0  0  0 
  8 12  2  0  0  0  0 
  8 13  1  0  0  0  0 
  9 14  1  0  0  0  0 
 10 15  2  0  0  0  0 
 11 15  1  0  0  0  0 
 12 16  1  0  0  0  0 
 12 17  1  0  0  0  0 
 13 18  2  0  0  0  0 
 16 19  1  0  0  0  0 
 17 20  2  0  0  0  0 
 18 20  1  0  0  0  0 
  7 21  1  0  0  0  0 
 10 22  1  0  0  0  0 
 11 23  1  0  0  0  0 
 13 24  1  0  0  0  0 
 14 25  1  0  0  0  0 
 14 26  1  0  0  0  0 
 14 27  1  0  0  0  0 
 15 28  1  0  0  0  0 
 17 29  1  0  0  0  0 
 18 30  1  0  0  0  0 
 19 31  1  0  0  0  0 
 19 32  1  0  0  0  0 
 19 33  1  0  0  0  0 
 20 34  1  0  0  0  0 
M  END
> <cdk:Title>
guaiacol carbonate

> <Conformer>
1

> <SuperDrugID>
SD002973

$$$$
