salicylamide
  CDK     0628171801

 17 17  0  0  0  0  0  0  0  0999 V2000
    0.7583    0.4530   -2.0929 N   0  0  0  0  0  0  0  0  0  0  0  0
    1.8623    0.7024   -1.3634 C   0  0  0  0  0  0  0  0  0  0  0  0
    1.6729    0.8046   -0.1290 O   0  0  0  0  0  0  0  0  0  0  0  0
    3.1551    0.8699   -1.9417 C   0  0  0  0  0  0  0  0  0  0  0  0
    3.2906    1.2044   -3.3151 C   0  0  0  0  0  0  0  0  0  0  0  0
    4.5545    1.4415   -3.8884 C   0  0  0  0  0  0  0  0  0  0  0  0
    5.7099    1.3554   -3.0953 C   0  0  0  0  0  0  0  0  0  0  0  0
    5.6022    1.0080   -1.7391 C   0  0  0  0  0  0  0  0  0  0  0  0
    4.3424    0.7429   -1.1676 C   0  0  0  0  0  0  0  0  0  0  0  0
    4.3395    0.3565    0.1363 O   0  0  0  0  0  0  0  0  0  0  0  0
   -0.1016    0.3679   -1.6533 H   0  0  0  0  0  0  0  0  0  0  0  0
    0.8146    0.3526   -3.0546 H   0  0  0  0  0  0  0  0  0  0  0  0
    2.4705    1.3017   -3.9184 H   0  0  0  0  0  0  0  0  0  0  0  0
    4.6318    1.6887   -4.8795 H   0  0  0  0  0  0  0  0  0  0  0  0
    6.6277    1.5428   -3.5032 H   0  0  0  0  0  0  0  0  0  0  0  0
    6.4492    0.9429   -1.1690 H   0  0  0  0  0  0  0  0  0  0  0  0
    3.6323   -0.3185    0.2064 H   0  0  0  0  0  0  0  0  0  0  0  0
  1  2  1  0  0  0  0 
  2  3  2  0  0  0  0 
  2  4  1  0  0  0  0 
  4  5  2  0  0  0  0 
  5  6  1  0  0  0  0 
  6  7  2  0  0  0  0 
  7  8  1  0  0  0  0 
  8  9  2  0  0  0  0 
  4  9  1  0  0  0  0 
  9 10  1  0  0  0  0 
  1 11  1  0  0  0  0 
  1 12  1  0  0  0  0 
  5 13  1  0  0  0  0 
  6 14  1  0  0  0  0 
  7 15  1  0  0  0  0 
  8 16  1  0  0  0  0 
 10 17  1  0  0  0  0 
M  END
> <cdk:Title>
salicylamide

> <Conformer>
1

> <SuperDrugID>
SD002174

$$$$
