thiazinam
  CDK     0628171801

 44 46  0  0  0  0  0  0  0  0999 V2000
    0.9454   -1.0173    5.0558 C   0  0  0  0  0  0  0  0  0  0  0  0
    0.3314   -2.4327    4.7832 C   0  0  1  0  0  0  0  0  0  0  0  0
    1.3707   -3.3040    3.9704 C   0  0  2  0  0  0  0  0  0  0  0  0
    2.0082   -2.6993    2.8013 N   0  0  0  0  0  0  0  0  0  0  0  0
    1.2395   -2.0989    1.7998 C   0  0  0  0  0  0  0  0  0  0  0  0
    0.0202   -2.6622    1.3388 C   0  0  0  0  0  0  0  0  0  0  0  0
   -0.7584   -2.0266    0.3530 C   0  0  0  0  0  0  0  0  0  0  0  0
   -0.3279   -0.8135   -0.2081 C   0  0  0  0  0  0  0  0  0  0  0  0
    0.8833   -0.2396    0.2119 C   0  0  0  0  0  0  0  0  0  0  0  0
    1.6577   -0.8796    1.2010 C   0  0  0  0  0  0  0  0  0  0  0  0
    3.1961   -0.1692    1.6791 S   0  0  0  0  0  0  0  0  0  0  0  0
    4.1067   -1.5737    2.2165 C   0  0  0  0  0  0  0  0  0  0  0  0
    3.4020   -2.7105    2.6885 C   0  0  0  0  0  0  0  0  0  0  0  0
    4.1695   -3.8589    3.0210 C   0  0  0  0  0  0  0  0  0  0  0  0
    5.5738   -3.8577    2.9281 C   0  0  0  0  0  0  0  0  0  0  0  0
    6.2467   -2.7045    2.4924 C   0  0  0  0  0  0  0  0  0  0  0  0
    5.5132   -1.5622    2.1294 C   0  0  0  0  0  0  0  0  0  0  0  0
   -0.2882   -3.1164    6.0248 N   0  0  2  0  0  0  0  0  0  0  0  0
   -1.4702   -2.3150    6.5464 C   0  0  0  0  0  0  0  0  0  0  0  0
    0.6966   -3.2771    7.1641 C   0  0  0  0  0  0  0  0  0  0  0  0
   -0.8235   -4.4948    5.6781 C   0  0  0  0  0  0  0  0  0  0  0  0
    1.1757   -0.5075    4.1218 H   0  0  0  0  0  0  0  0  0  0  0  0
    0.2535   -0.3668    5.5852 H   0  0  0  0  0  0  0  0  0  0  0  0
    1.8654   -1.0903    5.6372 H   0  0  0  0  0  0  0  0  0  0  0  0
   -0.4918   -2.2494    4.0849 H   0  0  0  0  0  0  0  0  0  0  0  0
    0.8967   -4.2152    3.6026 H   0  0  0  0  0  0  0  0  0  0  0  0
    2.1246   -3.6220    4.6910 H   0  0  0  0  0  0  0  0  0  0  0  0
   -0.3135   -3.5501    1.7144 H   0  0  0  0  0  0  0  0  0  0  0  0
   -1.6372   -2.4499    0.0419 H   0  0  0  0  0  0  0  0  0  0  0  0
   -0.8927   -0.3535   -0.9269 H   0  0  0  0  0  0  0  0  0  0  0  0
    1.1973    0.6364   -0.2138 H   0  0  0  0  0  0  0  0  0  0  0  0
    3.7109   -4.7186    3.3292 H   0  0  0  0  0  0  0  0  0  0  0  0
    6.1064   -4.6970    3.1737 H   0  0  0  0  0  0  0  0  0  0  0  0
    7.2675   -2.6999    2.4311 H   0  0  0  0  0  0  0  0  0  0  0  0
    6.0078   -0.7327    1.7911 H   0  0  0  0  0  0  0  0  0  0  0  0
   -2.2035   -2.1265    5.7561 H   0  0  0  0  0  0  0  0  0  0  0  0
   -1.9912   -2.8323    7.3584 H   0  0  0  0  0  0  0  0  0  0  0  0
   -1.1715   -1.3488    6.9575 H   0  0  0  0  0  0  0  0  0  0  0  0
    1.5565   -3.8864    6.8823 H   0  0  0  0  0  0  0  0  0  0  0  0
    0.2349   -3.7641    8.0283 H   0  0  0  0  0  0  0  0  0  0  0  0
    1.0774   -2.3160    7.5149 H   0  0  0  0  0  0  0  0  0  0  0  0
   -0.0247   -5.1967    5.4229 H   0  0  0  0  0  0  0  0  0  0  0  0
   -1.3625   -4.9511    6.5149 H   0  0  0  0  0  0  0  0  0  0  0  0
   -1.5128   -4.4486    4.8291 H   0  0  0  0  0  0  0  0  0  0  0  0
  2  1  1  0  0  0  0 
  2  3  1  0  0  0  0 
  3  4  1  0  0  0  0 
  4  5  1  0  0  0  0 
  5  6  2  0  0  0  0 
  6  7  1  0  0  0  0 
  7  8  2  0  0  0  0 
  8  9  1  0  0  0  0 
  9 10  2  0  0  0  0 
  5 10  1  0  0  0  0 
 10 11  1  0  0  0  0 
 11 12  1  0  0  0  0 
 12 13  2  0  0  0  0 
  4 13  1  0  0  0  0 
 13 14  1  0  0  0  0 
 14 15  2  0  0  0  0 
 15 16  1  0  0  0  0 
 16 17  2  0  0  0  0 
 12 17  1  0  0  0  0 
  2 18  1  0  0  0  0 
 18 19  1  0  0  0  0 
 18 20  1  0  0  0  0 
 18 21  1  0  0  0  0 
  1 22  1  0  0  0  0 
  1 23  1  0  0  0  0 
  1 24  1  0  0  0  0 
  2 25  1  0  0  0  0 
  3 26  1  0  0  0  0 
  3 27  1  0  0  0  0 
  6 28  1  0  0  0  0 
  7 29  1  0  0  0  0 
  8 30  1  0  0  0  0 
  9 31  1  0  0  0  0 
 14 32  1  0  0  0  0 
 15 33  1  0  0  0  0 
 16 34  1  0  0  0  0 
 17 35  1  0  0  0  0 
 19 36  1  0  0  0  0 
 19 37  1  0  0  0  0 
 19 38  1  0  0  0  0 
 20 39  1  0  0  0  0 
 20 40  1  0  0  0  0 
 20 41  1  0  0  0  0 
 21 42  1  0  0  0  0 
 21 43  1  0  0  0  0 
 21 44  1  0  0  0  0 
M  CHG  1  18   1
M  END
> <cdk:Title>
thiazinam

> <Conformer>
1

> <SuperDrugID>
SD002364

$$$$
