kanamycin
  CDK     0628171801

 69 71  0  0  0  0  0  0  0  0999 V2000
   -2.2570   -6.5929   -3.5222 O   0  0  0  0  0  0  0  0  0  0  0  0
   -1.6660   -6.4116   -2.2106 C   0  0  2  0  0  0  0  0  0  0  0  0
   -3.5162   -7.2933   -3.6448 C   0  0  1  0  0  0  0  0  0  0  0  0
   -2.3422   -5.2624   -1.4025 C   0  0  1  0  0  0  0  0  0  0  0  0
   -0.1659   -6.1003   -2.4859 C   0  0  2  0  0  0  0  0  0  0  0  0
   -4.6576   -6.4518   -3.3608 O   0  0  0  0  0  0  0  0  0  0  0  0
   -3.6402   -7.8724   -5.0827 C   0  0  2  0  0  0  0  0  0  0  0  0
   -3.6310   -5.6945   -0.9656 O   0  0  0  0  0  0  0  0  0  0  0  0
   -1.5598   -4.7707   -0.1420 C   0  0  2  0  0  0  0  0  0  0  0  0
    0.4899   -7.2561   -3.1207 N   0  0  1  0  0  0  0  0  0  0  0  0
    0.5908   -5.7448   -1.1847 C   0  0  2  0  0  0  0  0  0  0  0  0
   -4.8382   -5.3240   -4.2496 C   0  0  2  0  0  0  0  0  0  0  0  0
   -2.4844   -8.6456   -5.4061 O   0  0  0  0  0  0  0  0  0  0  0  0
   -3.8281   -6.7402   -6.1339 C   0  0  2  0  0  0  0  0  0  0  0  0
   -2.3070   -3.5954    0.2572 O   0  0  0  0  0  0  0  0  0  0  0  0
   -0.0452   -4.5305   -0.4521 C   0  0  2  0  0  0  0  0  0  0  0  0
   -6.0631   -4.5119   -3.7598 C   0  0  1  0  0  0  0  0  0  0  0  0
   -5.0079   -5.8155   -5.7191 C   0  0  2  0  0  0  0  0  0  0  0  0
   -4.1565   -7.3670   -7.4659 N   0  0  1  0  0  0  0  0  0  0  0  0
   -2.0398   -2.9288    1.5091 C   0  0  1  0  0  0  0  0  0  0  0  0
    0.7639   -4.3202    0.7594 N   0  0  2  0  0  0  0  0  0  0  0  0
   -5.8737   -4.0661   -2.4211 O   0  0  0  0  0  0  0  0  0  0  0  0
   -5.0738   -4.6966   -6.6029 O   0  0  0  0  0  0  0  0  0  0  0  0
   -0.9805   -1.9552    1.3745 O   0  0  0  0  0  0  0  0  0  0  0  0
   -3.3268   -2.1998    1.9876 C   0  0  2  0  0  0  0  0  0  0  0  0
   -1.2136   -0.9168    0.3928 C   0  0  2  0  0  0  0  0  0  0  0  0
   -4.4155   -3.1171    2.0973 O   0  0  0  0  0  0  0  0  0  0  0  0
   -3.7010   -1.0477    1.0146 C   0  0  2  0  0  0  0  0  0  0  0  0
    0.0577   -0.0324    0.3251 C   0  0  2  0  0  0  0  0  0  0  0  0
   -2.4950   -0.1031    0.7548 C   0  0  2  0  0  0  0  0  0  0  0  0
   -4.7995   -0.3034    1.5410 O   0  0  0  0  0  0  0  0  0  0  0  0
    1.2452   -0.8271   -0.0067 N   0  0  1  0  0  0  0  0  0  0  0  0
   -2.8369    0.8032   -0.2941 O   0  0  0  0  0  0  0  0  0  0  0  0
   -3.5441   -8.1380   -2.9499 H   0  0  0  0  0  0  0  0  0  0  0  0
   -1.7541   -3.6519    2.2794 H   0  0  0  0  0  0  0  0  0  0  0  0
   -1.7180   -7.3415   -1.6327 H   0  0  0  0  0  0  0  0  0  0  0  0
   -2.4811   -4.4161   -2.0826 H   0  0  0  0  0  0  0  0  0  0  0  0
   -0.0902   -5.2561   -3.1804 H   0  0  0  0  0  0  0  0  0  0  0  0
   -4.5063   -8.5417   -5.1125 H   0  0  0  0  0  0  0  0  0  0  0  0
   -4.0393   -4.9092   -0.5440 H   0  0  0  0  0  0  0  0  0  0  0  0
   -1.6419   -5.5388    0.6348 H   0  0  0  0  0  0  0  0  0  0  0  0
    0.0252   -7.4171   -4.0168 H   0  0  0  0  0  0  0  0  0  0  0  0
    1.4508   -6.9779   -3.3328 H   0  0  0  0  0  0  0  0  0  0  0  0
    1.6310   -5.5110   -1.4322 H   0  0  0  0  0  0  0  0  0  0  0  0
    0.5905   -6.6147   -0.5190 H   0  0  0  0  0  0  0  0  0  0  0  0
   -3.9646   -4.6666   -4.1911 H   0  0  0  0  0  0  0  0  0  0  0  0
   -2.4591   -9.3611   -4.7359 H   0  0  0  0  0  0  0  0  0  0  0  0
   -2.8942   -6.1104   -6.1133 H   0  0  0  0  0  0  0  0  0  0  0  0
    0.0566   -3.6439   -1.0836 H   0  0  0  0  0  0  0  0  0  0  0  0
   -6.2103   -3.6337   -4.3917 H   0  0  0  0  0  0  0  0  0  0  0  0
   -6.9645   -5.1266   -3.7970 H   0  0  0  0  0  0  0  0  0  0  0  0
   -5.9485   -6.3685   -5.8018 H   0  0  0  0  0  0  0  0  0  0  0  0
   -3.3694   -7.9689   -7.7168 H   0  0  0  0  0  0  0  0  0  0  0  0
   -4.9662   -7.9754   -7.3269 H   0  0  0  0  0  0  0  0  0  0  0  0
    0.5460   -5.0796    1.4082 H   0  0  0  0  0  0  0  0  0  0  0  0
    0.4682   -3.4524    1.2008 H   0  0  0  0  0  0  0  0  0  0  0  0
   -6.6943   -3.5752   -2.2025 H   0  0  0  0  0  0  0  0  0  0  0  0
   -5.2454   -5.0781   -7.4892 H   0  0  0  0  0  0  0  0  0  0  0  0
   -3.1438   -1.7808    2.9826 H   0  0  0  0  0  0  0  0  0  0  0  0
   -1.3492   -1.3671   -0.5970 H   0  0  0  0  0  0  0  0  0  0  0  0
   -4.1398   -3.7648    2.7796 H   0  0  0  0  0  0  0  0  0  0  0  0
   -4.0290   -1.4798    0.0639 H   0  0  0  0  0  0  0  0  0  0  0  0
    0.2280    0.4588    1.2851 H   0  0  0  0  0  0  0  0  0  0  0  0
   -0.0609    0.7314   -0.4447 H   0  0  0  0  0  0  0  0  0  0  0  0
   -2.3064    0.4811    1.6604 H   0  0  0  0  0  0  0  0  0  0  0  0
   -4.4759    0.0670    2.3894 H   0  0  0  0  0  0  0  0  0  0  0  0
    2.0376   -0.1820   -0.0298 H   0  0  0  0  0  0  0  0  0  0  0  0
    1.4080   -1.4658    0.7751 H   0  0  0  0  0  0  0  0  0  0  0  0
   -2.0821    1.4251   -0.3587 H   0  0  0  0  0  0  0  0  0  0  0  0
  3  1  1  0  0  0  0 
  2  1  1  0  0  0  0 
  4  2  1  0  0  0  0 
  2  5  1  0  0  0  0 
  3  6  1  0  0  0  0 
  7  3  1  0  0  0  0 
  3 34  1  0  0  0  0 
  4  8  1  0  0  0  0 
  9  4  1  0  0  0  0 
  5 10  1  0  0  0  0 
  5 11  1  0  0  0  0 
 12  6  1  0  0  0  0 
  7 13  1  0  0  0  0 
 14  7  1  0  0  0  0 
  9 15  1  0  0  0  0 
 16  9  1  0  0  0  0 
 16 11  1  0  0  0  0 
 12 17  1  0  0  0  0 
 18 12  1  0  0  0  0 
 18 14  1  0  0  0  0 
 14 19  1  0  0  0  0 
 20 15  1  0  0  0  0 
 16 21  1  0  0  0  0 
 17 22  1  0  0  0  0 
 18 23  1  0  0  0  0 
 20 24  1  0  0  0  0 
 25 20  1  0  0  0  0 
 20 35  1  0  0  0  0 
 26 24  1  0  0  0  0 
 25 27  1  0  0  0  0 
 28 25  1  0  0  0  0 
 26 29  1  0  0  0  0 
 30 26  1  0  0  0  0 
 30 28  1  0  0  0  0 
 28 31  1  0  0  0  0 
 29 32  1  0  0  0  0 
 30 33  1  0  0  0  0 
  2 36  1  0  0  0  0 
  4 37  1  0  0  0  0 
  5 38  1  0  0  0  0 
  7 39  1  0  0  0  0 
  8 40  1  0  0  0  0 
  9 41  1  0  0  0  0 
 10 42  1  0  0  0  0 
 10 43  1  0  0  0  0 
 11 44  1  0  0  0  0 
 11 45  1  0  0  0  0 
 12 46  1  0  0  0  0 
 13 47  1  0  0  0  0 
 14 48  1  0  0  0  0 
 16 49  1  0  0  0  0 
 17 50  1  0  0  0  0 
 17 51  1  0  0  0  0 
 18 52  1  0  0  0  0 
 19 53  1  0  0  0  0 
 19 54  1  0  0  0  0 
 21 55  1  0  0  0  0 
 21 56  1  0  0  0  0 
 22 57  1  0  0  0  0 
 23 58  1  0  0  0  0 
 25 59  1  0  0  0  0 
 26 60  1  0  0  0  0 
 27 61  1  0  0  0  0 
 28 62  1  0  0  0  0 
 29 63  1  0  0  0  0 
 29 64  1  0  0  0  0 
 30 65  1  0  0  0  0 
 31 66  1  0  0  0  0 
 32 67  1  0  0  0  0 
 32 68  1  0  0  0  0 
 33 69  1  0  0  0  0 
M  END
> <cdk:Title>
kanamycin

> <Conformer>
1

> <SuperDrugID>
SD001343

$$$$
