octatropine methylbromide
  CDK     0628171801

 52 53  0  0  0  0  0  0  0  0999 V2000
   -1.6323   -2.1714    3.8984 C   0  0  0  0  0  0  0  0  0  0  0  0
   -0.2243   -1.6077    4.0307 N   0  0  1  0  0  0  0  0  0  0  0  0
   -0.0460   -1.3924    5.5304 C   0  0  0  0  0  0  0  0  0  0  0  0
    0.8682   -2.4659    3.4270 C   0  0  1  0  0  0  0  0  0  0  0  0
    0.5566   -2.9002    1.9503 C   0  0  2  0  0  0  0  0  0  0  0  0
    0.2002   -1.7002    1.0056 C   0  0  1  0  0  0  0  0  0  0  0  0
   -0.4016   -0.4539    1.7399 C   0  0  2  0  0  0  0  0  0  0  0  0
    0.0422   -0.3423    3.2402 C   0  0  2  0  0  0  0  0  0  0  0  0
    1.5874   -0.1339    3.3138 C   0  0  2  0  0  0  0  0  0  0  0  0
    2.1465   -1.5695    3.4432 C   0  0  1  0  0  0  0  0  0  0  0  0
    1.3705   -1.3482    0.2430 O   0  0  0  0  0  0  0  0  0  0  0  0
    1.4170   -0.6271   -0.9206 C   0  0  0  0  0  0  0  0  0  0  0  0
    2.7138   -0.5010   -1.6316 C   0  0  1  0  0  0  0  0  0  0  0  0
    2.7439   -1.4962   -2.8393 C   0  0  1  0  0  0  0  0  0  0  0  0
    2.6286   -2.9922   -2.4292 C   0  0  1  0  0  0  0  0  0  0  0  0
    2.6735   -3.9588   -3.6325 C   0  0  0  0  0  0  0  0  0  0  0  0
    3.0108    0.9622   -2.0890 C   0  0  1  0  0  0  0  0  0  0  0  0
    3.1866    1.9781   -0.9250 C   0  0  2  0  0  0  0  0  0  0  0  0
    3.4476    3.4138   -1.4343 C   0  0  0  0  0  0  0  0  0  0  0  0
    0.3723   -0.1470   -1.4235 O   0  0  0  0  0  0  0  0  0  0  0  0
   -1.7376   -3.1071    4.4562 H   0  0  0  0  0  0  0  0  0  0  0  0
   -2.3730   -1.4634    4.2790 H   0  0  0  0  0  0  0  0  0  0  0  0
   -1.9314   -2.3990    2.8782 H   0  0  0  0  0  0  0  0  0  0  0  0
   -0.7561   -0.6493    5.9041 H   0  0  0  0  0  0  0  0  0  0  0  0
    0.9436   -1.0388    5.8146 H   0  0  0  0  0  0  0  0  0  0  0  0
   -0.2076   -2.3184    6.0901 H   0  0  0  0  0  0  0  0  0  0  0  0
    1.0382   -3.3726    4.0205 H   0  0  0  0  0  0  0  0  0  0  0  0
   -0.2650   -3.6197    1.9561 H   0  0  0  0  0  0  0  0  0  0  0  0
    1.4108   -3.4484    1.5468 H   0  0  0  0  0  0  0  0  0  0  0  0
   -0.5381   -2.0692    0.2864 H   0  0  0  0  0  0  0  0  0  0  0  0
   -1.4909   -0.4947    1.6907 H   0  0  0  0  0  0  0  0  0  0  0  0
   -0.1202    0.4600    1.2122 H   0  0  0  0  0  0  0  0  0  0  0  0
   -0.4703    0.5209    3.6781 H   0  0  0  0  0  0  0  0  0  0  0  0
    1.8515    0.4606    4.1923 H   0  0  0  0  0  0  0  0  0  0  0  0
    1.9927    0.3781    2.4365 H   0  0  0  0  0  0  0  0  0  0  0  0
    2.6850   -1.6889    4.3873 H   0  0  0  0  0  0  0  0  0  0  0  0
    2.8479   -1.8015    2.6370 H   0  0  0  0  0  0  0  0  0  0  0  0
    3.5179   -0.7950   -0.9479 H   0  0  0  0  0  0  0  0  0  0  0  0
    1.9374   -1.2518   -3.5391 H   0  0  0  0  0  0  0  0  0  0  0  0
    3.6890   -1.3712   -3.3736 H   0  0  0  0  0  0  0  0  0  0  0  0
    3.4484   -3.2437   -1.7520 H   0  0  0  0  0  0  0  0  0  0  0  0
    1.6876   -3.1634   -1.9005 H   0  0  0  0  0  0  0  0  0  0  0  0
    2.5772   -4.9854   -3.2735 H   0  0  0  0  0  0  0  0  0  0  0  0
    1.8500   -3.7501   -4.3190 H   0  0  0  0  0  0  0  0  0  0  0  0
    3.6199   -3.8626   -4.1688 H   0  0  0  0  0  0  0  0  0  0  0  0
    3.9364    0.9625   -2.6723 H   0  0  0  0  0  0  0  0  0  0  0  0
    2.2093    1.3050   -2.7504 H   0  0  0  0  0  0  0  0  0  0  0  0
    4.0293    1.6696   -0.3001 H   0  0  0  0  0  0  0  0  0  0  0  0
    2.2918    1.9922   -0.2981 H   0  0  0  0  0  0  0  0  0  0  0  0
    3.6124    4.0855   -0.5893 H   0  0  0  0  0  0  0  0  0  0  0  0
    4.3324    3.4345   -2.0742 H   0  0  0  0  0  0  0  0  0  0  0  0
    2.5894    3.7757   -2.0053 H   0  0  0  0  0  0  0  0  0  0  0  0
  1  2  1  0  0  0  0 
  2  3  1  0  0  0  0 
  4  2  1  0  0  0  0 
  4  5  1  0  0  0  0 
  4 10  1  0  0  0  0 
  6  5  1  0  0  0  0 
  6 11  1  0  0  0  0 
  6  7  1  0  0  0  0 
  8  2  1  0  0  0  0 
  8  7  1  0  0  0  0 
  8  9  1  0  0  0  0 
 10  9  1  0  0  0  0 
 11 12  1  0  0  0  0 
 12 13  1  0  0  0  0 
 12 20  2  0  0  0  0 
 13 14  1  0  0  0  0 
 13 17  1  0  0  0  0 
 14 15  1  0  0  0  0 
 15 16  1  0  0  0  0 
 17 18  1  0  0  0  0 
 18 19  1  0  0  0  0 
  1 21  1  0  0  0  0 
  1 22  1  0  0  0  0 
  1 23  1  0  0  0  0 
  3 24  1  0  0  0  0 
  3 25  1  0  0  0  0 
  3 26  1  0  0  0  0 
  4 27  1  0  0  0  0 
  5 28  1  0  0  0  0 
  5 29  1  0  0  0  0 
  6 30  1  0  0  0  0 
  7 31  1  0  0  0  0 
  7 32  1  0  0  0  0 
  8 33  1  0  0  0  0 
  9 34  1  0  0  0  0 
  9 35  1  0  0  0  0 
 10 36  1  0  0  0  0 
 10 37  1  0  0  0  0 
 13 38  1  0  0  0  0 
 14 39  1  0  0  0  0 
 14 40  1  0  0  0  0 
 15 41  1  0  0  0  0 
 15 42  1  0  0  0  0 
 16 43  1  0  0  0  0 
 16 44  1  0  0  0  0 
 16 45  1  0  0  0  0 
 17 46  1  0  0  0  0 
 17 47  1  0  0  0  0 
 18 48  1  0  0  0  0 
 18 49  1  0  0  0  0 
 19 50  1  0  0  0  0 
 19 51  1  0  0  0  0 
 19 52  1  0  0  0  0 
M  CHG  1   2   1
M  END
> <cdk:Title>
octatropine methylbromide

> <Conformer>
1

> <SuperDrugID>
SD000185

$$$$
