tiapride
  CDK     0628171801

 46 46  0  0  0  0  0  0  0  0999 V2000
    3.6683   -0.4855    4.5524 C   0  0  0  0  0  0  0  0  0  0  0  0
    3.9907    0.5155    3.6792 N   0  0  0  0  0  0  0  0  0  0  0  0
    3.3603   -1.6145    4.0997 O   0  0  0  0  0  0  0  0  0  0  0  0
    3.7183   -0.2844    5.9630 C   0  0  0  0  0  0  0  0  0  0  0  0
    4.1354    0.3705    2.2636 C   0  0  2  0  0  0  0  0  0  0  0  0
    2.9218   -1.0487    6.8602 C   0  0  0  0  0  0  0  0  0  0  0  0
    4.6015    0.6811    6.5102 C   0  0  0  0  0  0  0  0  0  0  0  0
    2.7909    0.3320    1.4906 C   0  0  2  0  0  0  0  0  0  0  0  0
    2.0124   -1.9725    6.4074 O   0  0  0  0  0  0  0  0  0  0  0  0
    3.0578   -0.8755    8.2534 C   0  0  0  0  0  0  0  0  0  0  0  0
    4.7075    0.8829    7.9009 C   0  0  0  0  0  0  0  0  0  0  0  0
    1.8266    1.4376    1.8336 N   0  0  1  0  0  0  0  0  0  0  0  0
    0.6803   -1.4358    6.3060 C   0  0  0  0  0  0  0  0  0  0  0  0
    3.9381    0.0882    8.7704 C   0  0  0  0  0  0  0  0  0  0  0  0
    5.7925    2.1339    8.5326 S   0  0  2  0  0  0  0  0  0  0  0  0
    2.2693    2.7762    1.2978 C   0  0  1  0  0  0  0  0  0  0  0  0
    0.3989    1.0937    1.5017 C   0  0  1  0  0  0  0  0  0  0  0  0
    7.5161    1.8489    7.9848 C   0  0  0  0  0  0  0  0  0  0  0  0
    5.7640    2.1713   10.1364 O   0  0  0  0  0  0  0  0  0  0  0  0
    5.3239    3.5701    7.9901 O   0  0  0  0  0  0  0  0  0  0  0  0
    1.5100    4.0104    1.8445 C   0  0  0  0  0  0  0  0  0  0  0  0
   -0.2394    0.0247    2.4208 C   0  0  0  0  0  0  0  0  0  0  0  0
    4.1593    1.3968    4.0485 H   0  0  0  0  0  0  0  0  0  0  0  0
    4.7042   -0.5388    2.0462 H   0  0  0  0  0  0  0  0  0  0  0  0
    4.7437    1.2003    1.9038 H   0  0  0  0  0  0  0  0  0  0  0  0
    5.1882    1.2457    5.8916 H   0  0  0  0  0  0  0  0  0  0  0  0
    2.3564   -0.6475    1.6946 H   0  0  0  0  0  0  0  0  0  0  0  0
    3.0050    0.3479    0.4187 H   0  0  0  0  0  0  0  0  0  0  0  0
    2.5008   -1.4451    8.8969 H   0  0  0  0  0  0  0  0  0  0  0  0
    0.0445   -2.1884    5.8410 H   0  0  0  0  0  0  0  0  0  0  0  0
    0.2705   -1.2072    7.2931 H   0  0  0  0  0  0  0  0  0  0  0  0
    0.6523   -0.5376    5.6858 H   0  0  0  0  0  0  0  0  0  0  0  0
    4.0016    0.2094    9.7830 H   0  0  0  0  0  0  0  0  0  0  0  0
    3.3103    2.9466    1.5693 H   0  0  0  0  0  0  0  0  0  0  0  0
    2.2130    2.7873    0.2065 H   0  0  0  0  0  0  0  0  0  0  0  0
   -0.2366    1.9706    1.6174 H   0  0  0  0  0  0  0  0  0  0  0  0
    0.3154    0.7703    0.4607 H   0  0  0  0  0  0  0  0  0  0  0  0
    7.8772    0.8995    8.3812 H   0  0  0  0  0  0  0  0  0  0  0  0
    8.1452    2.6595    8.3555 H   0  0  0  0  0  0  0  0  0  0  0  0
    7.5584    1.8293    6.8959 H   0  0  0  0  0  0  0  0  0  0  0  0
    0.5393    4.1190    1.3602 H   0  0  0  0  0  0  0  0  0  0  0  0
    1.3673    3.9181    2.9215 H   0  0  0  0  0  0  0  0  0  0  0  0
    2.0813    4.9188    1.6467 H   0  0  0  0  0  0  0  0  0  0  0  0
   -1.3116   -0.0378    2.2238 H   0  0  0  0  0  0  0  0  0  0  0  0
   -0.0954    0.2958    3.4666 H   0  0  0  0  0  0  0  0  0  0  0  0
    0.1854   -0.9632    2.2464 H   0  0  0  0  0  0  0  0  0  0  0  0
  1  2  1  0  0  0  0 
  1  3  2  0  0  0  0 
  1  4  1  0  0  0  0 
  2  5  1  0  0  0  0 
  4  6  2  0  0  0  0 
  4  7  1  0  0  0  0 
  5  8  1  0  0  0  0 
  6  9  1  0  0  0  0 
  6 10  1  0  0  0  0 
  7 11  2  0  0  0  0 
  8 12  1  0  0  0  0 
  9 13  1  0  0  0  0 
 10 14  2  0  0  0  0 
 11 14  1  0  0  0  0 
 11 15  1  0  0  0  0 
 12 16  1  0  0  0  0 
 12 17  1  0  0  0  0 
 15 18  1  0  0  0  0 
 15 19  2  0  0  0  0 
 15 20  2  0  0  0  0 
 16 21  1  0  0  0  0 
 17 22  1  0  0  0  0 
  2 23  1  0  0  0  0 
  5 24  1  0  0  0  0 
  5 25  1  0  0  0  0 
  7 26  1  0  0  0  0 
  8 27  1  0  0  0  0 
  8 28  1  0  0  0  0 
 10 29  1  0  0  0  0 
 13 30  1  0  0  0  0 
 13 31  1  0  0  0  0 
 13 32  1  0  0  0  0 
 14 33  1  0  0  0  0 
 16 34  1  0  0  0  0 
 16 35  1  0  0  0  0 
 17 36  1  0  0  0  0 
 17 37  1  0  0  0  0 
 18 38  1  0  0  0  0 
 18 39  1  0  0  0  0 
 18 40  1  0  0  0  0 
 21 41  1  0  0  0  0 
 21 42  1  0  0  0  0 
 21 43  1  0  0  0  0 
 22 44  1  0  0  0  0 
 22 45  1  0  0  0  0 
 22 46  1  0  0  0  0 
M  END
> <cdk:Title>
tiapride

> <Conformer>
1

> <SuperDrugID>
SD002384

$$$$
