genaconazole
  Mrv0541 09131710093D              85.25392

 37 38  0  0  0  0            999 V2000
   -1.2020   -0.5085   -3.2885 C   0  0  0  0  0  0  0  0  0  0  0  0
   -2.3679    0.1681   -2.5152 C   0  0  2  0  0  0  0  0  0  0  0  0
   -2.2613    0.1913   -0.9334 C   0  0  2  0  0  0  0  0  0  0  0  0
   -3.3159    1.0815   -0.5271 O   0  0  0  0  0  0  0  0  0  0  0  0
   -0.9829    0.9321   -0.3940 C   0  0  1  0  0  0  0  0  0  0  0  0
   -1.0016    1.1264    1.0290 N   0  0  0  0  0  0  0  0  0  0  0  0
   -0.4556    0.3293    1.9680 C   0  0  0  0  0  0  0  0  0  0  0  0
   -0.7100    0.8300    3.1829 N   0  0  0  0  0  0  0  0  0  0  0  0
   -1.4123    1.9454    2.9459 C   0  0  0  0  0  0  0  0  0  0  0  0
   -1.5825    2.1196    1.6262 N   0  0  0  0  0  0  0  0  0  0  0  0
   -2.4389   -1.1730   -0.2837 C   0  0  0  0  0  0  0  0  0  0  0  0
   -3.6377   -1.4946    0.4134 C   0  0  0  0  0  0  0  0  0  0  0  0
   -3.8470   -2.7565    0.9981 C   0  0  0  0  0  0  0  0  0  0  0  0
   -2.8531   -3.7430    0.9113 C   0  0  0  0  0  0  0  0  0  0  0  0
   -3.0411   -4.9200    1.4445 F   0  0  0  0  0  0  0  0  0  0  0  0
   -1.6487   -3.4555    0.2509 C   0  0  0  0  0  0  0  0  0  0  0  0
   -1.4406   -2.1907   -0.3308 C   0  0  0  0  0  0  0  0  0  0  0  0
   -0.2752   -2.0175   -0.8891 F   0  0  0  0  0  0  0  0  0  0  0  0
   -3.9519   -0.5398   -3.1545 S   0  0  1  0  0  0  0  0  0  0  0  0
   -3.9155   -0.5490   -4.7592 O   0  0  0  0  0  0  0  0  0  0  0  0
   -4.1311   -2.0556   -2.6627 O   0  0  0  0  0  0  0  0  0  0  0  0
   -5.4088    0.4441   -2.6464 C   0  0  0  0  0  0  0  0  0  0  0  0
   -0.2345   -0.1555   -2.9353 H   0  0  0  0  0  0  0  0  0  0  0  0
   -1.2629   -0.2660   -4.3522 H   0  0  0  0  0  0  0  0  0  0  0  0
   -1.2459   -1.5934   -3.1902 H   0  0  0  0  0  0  0  0  0  0  0  0
   -2.3656    1.2111   -2.8485 H   0  0  0  0  0  0  0  0  0  0  0  0
   -3.1393    1.9338   -0.9775 H   0  0  0  0  0  0  0  0  0  0  0  0
   -0.0724    0.4008   -0.6631 H   0  0  0  0  0  0  0  0  0  0  0  0
   -0.8987    1.9121   -0.8720 H   0  0  0  0  0  0  0  0  0  0  0  0
    0.0664   -0.5312    1.7962 H   0  0  0  0  0  0  0  0  0  0  0  0
   -1.7690    2.5743    3.6672 H   0  0  0  0  0  0  0  0  0  0  0  0
   -4.3916   -0.8112    0.5054 H   0  0  0  0  0  0  0  0  0  0  0  0
   -4.7253   -2.9553    1.4833 H   0  0  0  0  0  0  0  0  0  0  0  0
   -0.9218   -4.1737    0.1963 H   0  0  0  0  0  0  0  0  0  0  0  0
   -6.2895    0.0876   -3.1797 H   0  0  0  0  0  0  0  0  0  0  0  0
   -5.5793    0.3361   -1.5770 H   0  0  0  0  0  0  0  0  0  0  0  0
   -5.2446    1.4944   -2.8877 H   0  0  0  0  0  0  0  0  0  0  0  0
  2  1  1  0  0  0  0
  2  3  1  0  0  0  0
  3  4  1  0  0  0  0
  3  5  1  0  0  0  0
  5  6  1  0  0  0  0
  6  7  1  0  0  0  0
  7  8  2  0  0  0  0
  8  9  1  0  0  0  0
  9 10  2  0  0  0  0
  3 11  1  0  0  0  0
 11 12  2  0  0  0  0
 12 13  1  0  0  0  0
 13 14  2  0  0  0  0
 14 15  1  0  0  0  0
 14 16  1  0  0  0  0
 16 17  2  0  0  0  0
 17 18  1  0  0  0  0
  2 19  1  0  0  0  0
 19 20  2  0  0  0  0
 19 21  2  0  0  0  0
 19 22  1  0  0  0  0
 10  6  1  0  0  0  0
 17 11  1  0  0  0  0
  1 23  1  0  0  0  0
  1 24  1  0  0  0  0
  1 25  1  0  0  0  0
  2 26  1  0  0  0  0
  4 27  1  0  0  0  0
  5 28  1  0  0  0  0
  5 29  1  0  0  0  0
  7 30  1  0  0  0  0
  9 31  1  0  0  0  0
 12 32  1  0  0  0  0
 13 33  1  0  0  0  0
 16 34  1  0  0  0  0
 22 35  1  0  0  0  0
 22 36  1  0  0  0  0
 22 37  1  0  0  0  0
M  END
>  <SuperDrugID>
SD006028

>  <_MOLCOUNT>
1

$$$$
