xantinol
  CDK     0628171801

 43 44  0  0  0  0  0  0  0  0999 V2000
    0.2864    4.0981    3.0245 C   0  0  2  0  0  0  0  0  0  0  0  0
    0.0453    5.3330    2.1083 C   0  0  2  0  0  0  0  0  0  0  0  0
    0.6144    2.9009    2.2977 N   0  0  0  0  0  0  0  0  0  0  0  0
   -1.2320    5.2565    1.2177 C   0  0  2  0  0  0  0  0  0  0  0  0
    1.1831    5.5429    1.2692 O   0  0  0  0  0  0  0  0  0  0  0  0
    1.8281    2.3810    2.0013 C   0  0  0  0  0  0  0  0  0  0  0  0
   -0.2918    2.0500    1.7719 C   0  0  0  0  0  0  0  0  0  0  0  0
   -2.4828    4.8616    1.9472 N   0  0  1  0  0  0  0  0  0  0  0  0
    1.6278    1.2323    1.2433 C   0  0  0  0  0  0  0  0  0  0  0  0
    3.1519    2.7514    2.3031 C   0  0  0  0  0  0  0  0  0  0  0  0
    0.3053    1.0423    1.1185 N   0  0  0  0  0  0  0  0  0  0  0  0
   -3.0139    5.8697    2.9243 C   0  0  1  0  0  0  0  0  0  0  0  0
   -3.5427    4.3044    1.0505 C   0  0  0  0  0  0  0  0  0  0  0  0
    2.6555    0.4721    0.7655 N   0  0  0  0  0  0  0  0  0  0  0  0
    3.3487    3.7770    2.9970 O   0  0  0  0  0  0  0  0  0  0  0  0
    4.1992    1.9751    1.8533 N   0  0  0  0  0  0  0  0  0  0  0  0
   -3.5020    5.1795    4.2159 C   0  0  2  0  0  0  0  0  0  0  0  0
    2.3932   -0.6995   -0.0436 C   0  0  0  0  0  0  0  0  0  0  0  0
    3.9392    0.8483    1.0948 C   0  0  0  0  0  0  0  0  0  0  0  0
    5.5547    2.3583    2.2087 C   0  0  0  0  0  0  0  0  0  0  0  0
   -4.0562    6.1356    5.1119 O   0  0  0  0  0  0  0  0  0  0  0  0
    4.8885    0.1248    0.7020 O   0  0  0  0  0  0  0  0  0  0  0  0
   -0.5963    3.9185    3.6377 H   0  0  0  0  0  0  0  0  0  0  0  0
    1.0780    4.3404    3.7323 H   0  0  0  0  0  0  0  0  0  0  0  0
   -0.0291    6.2173    2.7447 H   0  0  0  0  0  0  0  0  0  0  0  0
   -1.0231    4.5310    0.4274 H   0  0  0  0  0  0  0  0  0  0  0  0
   -1.3875    6.2235    0.7304 H   0  0  0  0  0  0  0  0  0  0  0  0
    1.9385    5.6704    1.8836 H   0  0  0  0  0  0  0  0  0  0  0  0
   -1.3059    2.1477    1.8565 H   0  0  0  0  0  0  0  0  0  0  0  0
   -2.2492    6.5895    3.2171 H   0  0  0  0  0  0  0  0  0  0  0  0
   -3.8318    6.4481    2.4839 H   0  0  0  0  0  0  0  0  0  0  0  0
   -3.9277    5.0755    0.3799 H   0  0  0  0  0  0  0  0  0  0  0  0
   -4.3730    3.9062    1.6349 H   0  0  0  0  0  0  0  0  0  0  0  0
   -3.1536    3.4842    0.4463 H   0  0  0  0  0  0  0  0  0  0  0  0
   -2.6670    4.6812    4.7128 H   0  0  0  0  0  0  0  0  0  0  0  0
   -4.2689    4.4398    3.9872 H   0  0  0  0  0  0  0  0  0  0  0  0
    2.9182   -0.6184   -0.9979 H   0  0  0  0  0  0  0  0  0  0  0  0
    1.3354   -0.8506   -0.2715 H   0  0  0  0  0  0  0  0  0  0  0  0
    2.7486   -1.5891    0.4802 H   0  0  0  0  0  0  0  0  0  0  0  0
    5.6910    2.2552    3.2897 H   0  0  0  0  0  0  0  0  0  0  0  0
    6.3301    1.7624    1.7202 H   0  0  0  0  0  0  0  0  0  0  0  0
    5.7385    3.3989    1.9279 H   0  0  0  0  0  0  0  0  0  0  0  0
   -4.3637    5.6055    5.8785 H   0  0  0  0  0  0  0  0  0  0  0  0
  2  1  1  0  0  0  0 
  1  3  1  0  0  0  0 
  2  4  1  0  0  0  0 
  2  5  1  0  0  0  0 
  3  6  1  0  0  0  0 
  3  7  1  0  0  0  0 
  4  8  1  0  0  0  0 
  6  9  2  0  0  0  0 
  6 10  1  0  0  0  0 
  7 11  2  0  0  0  0 
  8 12  1  0  0  0  0 
  8 13  1  0  0  0  0 
  9 11  1  0  0  0  0 
  9 14  1  0  0  0  0 
 10 15  2  0  0  0  0 
 10 16  1  0  0  0  0 
 12 17  1  0  0  0  0 
 14 18  1  0  0  0  0 
 14 19  1  0  0  0  0 
 16 19  1  0  0  0  0 
 16 20  1  0  0  0  0 
 17 21  1  0  0  0  0 
 19 22  2  0  0  0  0 
  1 23  1  0  0  0  0 
  1 24  1  0  0  0  0 
  2 25  1  0  0  0  0 
  4 26  1  0  0  0  0 
  4 27  1  0  0  0  0 
  5 28  1  0  0  0  0 
  7 29  1  0  0  0  0 
 12 30  1  0  0  0  0 
 12 31  1  0  0  0  0 
 13 32  1  0  0  0  0 
 13 33  1  0  0  0  0 
 13 34  1  0  0  0  0 
 17 35  1  0  0  0  0 
 17 36  1  0  0  0  0 
 18 37  1  0  0  0  0 
 18 38  1  0  0  0  0 
 18 39  1  0  0  0  0 
 20 40  1  0  0  0  0 
 20 41  1  0  0  0  0 
 20 42  1  0  0  0  0 
 21 43  1  0  0  0  0 
M  END
> <cdk:Title>
xantinol

> <Conformer>
1

> <SuperDrugID>
SD003522

$$$$
