tenitramine
  CDK     0628171801

 48 47  0  0  0  0  0  0  0  0999 V2000
  -10.8968   -2.4977   -2.5825 N   0  0  2  0  0  0  0  0  0  0  0  0
   -9.7620   -3.1076   -3.3721 C   0  0  2  0  0  0  0  0  0  0  0  0
  -11.3131   -3.3587   -1.4124 C   0  0  1  0  0  0  0  0  0  0  0  0
  -12.0741   -2.1197   -3.4489 C   0  0  2  0  0  0  0  0  0  0  0  0
   -8.4189   -3.3477   -2.6148 C   0  0  1  0  0  0  0  0  0  0  0  0
  -12.3069   -2.7278   -0.4035 C   0  0  1  0  0  0  0  0  0  0  0  0
  -11.8241   -1.0857   -4.5742 C   0  0  2  0  0  0  0  0  0  0  0  0
   -7.2390   -3.7432   -3.4742 N   0  0  1  0  0  0  0  0  0  0  0  0
  -12.4123   -3.5841    0.7528 O   0  0  0  0  0  0  0  0  0  0  0  0
  -13.0964   -0.7227   -5.1505 O   0  0  0  0  0  0  0  0  0  0  0  0
   -5.9281   -3.7287   -2.7272 C   0  0  1  0  0  0  0  0  0  0  0  0
   -7.4716   -5.0472   -4.2044 C   0  0  1  0  0  0  0  0  0  0  0  0
  -13.1899   -3.1146    1.6549 N   0  0  0  0  0  0  0  0  0  0  0  0
  -13.0036    0.2027   -6.0280 N   0  0  0  0  0  0  0  0  0  0  0  0
   -5.5143   -2.3897   -2.0670 C   0  0  1  0  0  0  0  0  0  0  0  0
   -6.3605   -5.5289   -5.1726 C   0  0  1  0  0  0  0  0  0  0  0  0
  -14.4492   -3.2421    1.5641 O   0  0  0  0  0  0  0  0  0  0  0  0
  -12.7378   -2.6112    2.6049 O   0  0  0  0  0  0  0  0  0  0  0  0
  -12.6802   -0.0625   -7.2258 O   0  0  0  0  0  0  0  0  0  0  0  0
  -13.2736    1.2997   -5.7390 O   0  0  0  0  0  0  0  0  0  0  0  0
   -4.1260   -2.4651   -1.6817 O   0  0  0  0  0  0  0  0  0  0  0  0
   -6.8534   -6.6253   -5.9694 O   0  0  0  0  0  0  0  0  0  0  0  0
   -3.6891   -1.3815   -1.1603 N   0  0  0  0  0  0  0  0  0  0  0  0
   -5.9821   -7.0549   -6.8035 N   0  0  0  0  0  0  0  0  0  0  0  0
   -3.0444   -0.6500   -1.7992 O   0  0  0  0  0  0  0  0  0  0  0  0
   -3.8919   -1.1172    0.0642 O   0  0  0  0  0  0  0  0  0  0  0  0
   -6.0451   -6.7373   -7.9235 O   0  0  0  0  0  0  0  0  0  0  0  0
   -5.0727   -7.8633   -6.4418 O   0  0  0  0  0  0  0  0  0  0  0  0
   -9.4933   -2.4461   -4.1958 H   0  0  0  0  0  0  0  0  0  0  0  0
  -10.1156   -4.0484   -3.7969 H   0  0  0  0  0  0  0  0  0  0  0  0
  -11.7316   -4.3028   -1.7727 H   0  0  0  0  0  0  0  0  0  0  0  0
  -10.4362   -3.6003   -0.8138 H   0  0  0  0  0  0  0  0  0  0  0  0
  -12.8354   -1.6527   -2.8242 H   0  0  0  0  0  0  0  0  0  0  0  0
  -12.5176   -3.0160   -3.8912 H   0  0  0  0  0  0  0  0  0  0  0  0
   -8.2108   -2.4048   -2.1076 H   0  0  0  0  0  0  0  0  0  0  0  0
   -8.5489   -4.1154   -1.8492 H   0  0  0  0  0  0  0  0  0  0  0  0
  -11.9397   -1.7363   -0.1180 H   0  0  0  0  0  0  0  0  0  0  0  0
  -13.2938   -2.6295   -0.8609 H   0  0  0  0  0  0  0  0  0  0  0  0
  -11.1925   -1.5155   -5.3548 H   0  0  0  0  0  0  0  0  0  0  0  0
  -11.3260   -0.2108   -4.1431 H   0  0  0  0  0  0  0  0  0  0  0  0
   -5.9188   -4.5183   -1.9687 H   0  0  0  0  0  0  0  0  0  0  0  0
   -5.1243   -3.9374   -3.4346 H   0  0  0  0  0  0  0  0  0  0  0  0
   -7.6653   -5.8460   -3.4817 H   0  0  0  0  0  0  0  0  0  0  0  0
   -8.3571   -4.9464   -4.8320 H   0  0  0  0  0  0  0  0  0  0  0  0
   -5.6706   -1.5820   -2.7886 H   0  0  0  0  0  0  0  0  0  0  0  0
   -6.1254   -2.2067   -1.1794 H   0  0  0  0  0  0  0  0  0  0  0  0
   -6.0641   -4.6938   -5.8150 H   0  0  0  0  0  0  0  0  0  0  0  0
   -5.4960   -5.8689   -4.5960 H   0  0  0  0  0  0  0  0  0  0  0  0
  1  2  1  0  0  0  0 
  1  3  1  0  0  0  0 
  1  4  1  0  0  0  0 
  2  5  1  0  0  0  0 
  3  6  1  0  0  0  0 
  4  7  1  0  0  0  0 
  5  8  1  0  0  0  0 
  6  9  1  0  0  0  0 
  7 10  1  0  0  0  0 
  8 11  1  0  0  0  0 
  8 12  1  0  0  0  0 
  9 13  1  0  0  0  0 
 10 14  1  0  0  0  0 
 11 15  1  0  0  0  0 
 12 16  1  0  0  0  0 
 13 17  1  0  0  0  0 
 13 18  2  0  0  0  0 
 14 19  1  0  0  0  0 
 14 20  2  0  0  0  0 
 15 21  1  0  0  0  0 
 16 22  1  0  0  0  0 
 21 23  1  0  0  0  0 
 22 24  1  0  0  0  0 
 23 25  2  0  0  0  0 
 23 26  1  0  0  0  0 
 24 27  2  0  0  0  0 
 24 28  1  0  0  0  0 
  2 29  1  0  0  0  0 
  2 30  1  0  0  0  0 
  3 31  1  0  0  0  0 
  3 32  1  0  0  0  0 
  4 33  1  0  0  0  0 
  4 34  1  0  0  0  0 
  5 35  1  0  0  0  0 
  5 36  1  0  0  0  0 
  6 37  1  0  0  0  0 
  6 38  1  0  0  0  0 
  7 39  1  0  0  0  0 
  7 40  1  0  0  0  0 
 11 41  1  0  0  0  0 
 11 42  1  0  0  0  0 
 12 43  1  0  0  0  0 
 12 44  1  0  0  0  0 
 15 45  1  0  0  0  0 
 15 46  1  0  0  0  0 
 16 47  1  0  0  0  0 
 16 48  1  0  0  0  0 
M  CHG  1  13   1
M  CHG  1  14   1
M  CHG  1  17  -1
M  CHG  1  19  -1
M  CHG  1  23   1
M  CHG  1  24   1
M  CHG  1  26  -1
M  CHG  1  28  -1
M  END
> <cdk:Title>
tenitramine

> <Conformer>
1

> <SuperDrugID>
SD002330

$$$$
