alverine
  CDK     0628171801

 48 49  0  0  0  0  0  0  0  0999 V2000
   -4.5879    0.9810    2.2413 C   0  0  2  0  0  0  0  0  0  0  0  0
   -3.6508    1.3525    1.0600 C   0  0  2  0  0  0  0  0  0  0  0  0
   -5.9659    1.5208    2.0670 C   0  0  0  0  0  0  0  0  0  0  0  0
   -2.2028    0.8068    1.2254 C   0  0  2  0  0  0  0  0  0  0  0  0
   -7.0254    0.6847    1.6395 C   0  0  0  0  0  0  0  0  0  0  0  0
   -6.2467    2.8838    2.3314 C   0  0  0  0  0  0  0  0  0  0  0  0
   -1.3209    0.8532    0.0023 N   0  0  2  0  0  0  0  0  0  0  0  0
   -8.3333    1.1882    1.5096 C   0  0  0  0  0  0  0  0  0  0  0  0
   -7.5559    3.3865    2.2055 C   0  0  0  0  0  0  0  0  0  0  0  0
    0.0208    0.1983    0.2205 C   0  0  2  0  0  0  0  0  0  0  0  0
   -1.2141    2.2340   -0.5946 C   0  0  1  0  0  0  0  0  0  0  0  0
   -8.6007    2.5360    1.8044 C   0  0  0  0  0  0  0  0  0  0  0  0
   -0.0033   -1.3131    0.5867 C   0  0  1  0  0  0  0  0  0  0  0  0
   -0.4796    2.3506   -1.9530 C   0  0  0  0  0  0  0  0  0  0  0  0
    1.4011   -1.9802    0.5566 C   0  0  1  0  0  0  0  0  0  0  0  0
    1.3333   -3.4106    0.9678 C   0  0  0  0  0  0  0  0  0  0  0  0
    1.3307   -4.4481    0.0048 C   0  0  0  0  0  0  0  0  0  0  0  0
    1.2393   -3.7594    2.3373 C   0  0  0  0  0  0  0  0  0  0  0  0
    1.2213   -5.7949    0.3996 C   0  0  0  0  0  0  0  0  0  0  0  0
    1.1327   -5.1062    2.7319 C   0  0  0  0  0  0  0  0  0  0  0  0
    1.1270   -6.1242    1.7629 C   0  0  0  0  0  0  0  0  0  0  0  0
   -4.1667    1.3658    3.1746 H   0  0  0  0  0  0  0  0  0  0  0  0
   -4.6208   -0.1082    2.3353 H   0  0  0  0  0  0  0  0  0  0  0  0
   -3.6181    2.4424    0.9813 H   0  0  0  0  0  0  0  0  0  0  0  0
   -4.0728    0.9507    0.1352 H   0  0  0  0  0  0  0  0  0  0  0  0
   -2.3148   -0.2337    1.5296 H   0  0  0  0  0  0  0  0  0  0  0  0
   -1.7237    1.3432    2.0471 H   0  0  0  0  0  0  0  0  0  0  0  0
   -6.8511   -0.2982    1.4155 H   0  0  0  0  0  0  0  0  0  0  0  0
   -5.4991    3.5193    2.6218 H   0  0  0  0  0  0  0  0  0  0  0  0
   -9.0885    0.5737    1.1993 H   0  0  0  0  0  0  0  0  0  0  0  0
   -7.7472    4.3707    2.4056 H   0  0  0  0  0  0  0  0  0  0  0  0
    0.5714    0.7374    0.9948 H   0  0  0  0  0  0  0  0  0  0  0  0
    0.6000    0.2611   -0.7012 H   0  0  0  0  0  0  0  0  0  0  0  0
   -2.2162    2.6125   -0.8007 H   0  0  0  0  0  0  0  0  0  0  0  0
   -0.7423    2.9146    0.1195 H   0  0  0  0  0  0  0  0  0  0  0  0
   -9.5522    2.8978    1.7220 H   0  0  0  0  0  0  0  0  0  0  0  0
   -0.4124   -1.4344    1.5921 H   0  0  0  0  0  0  0  0  0  0  0  0
   -0.6585   -1.8339   -0.1168 H   0  0  0  0  0  0  0  0  0  0  0  0
   -0.6964    3.3178   -2.4121 H   0  0  0  0  0  0  0  0  0  0  0  0
    0.6011    2.2805   -1.8223 H   0  0  0  0  0  0  0  0  0  0  0  0
   -0.8125    1.5624   -2.6301 H   0  0  0  0  0  0  0  0  0  0  0  0
    1.8199   -1.8920   -0.4502 H   0  0  0  0  0  0  0  0  0  0  0  0
    2.0761   -1.4426    1.2286 H   0  0  0  0  0  0  0  0  0  0  0  0
    1.3956   -4.2290   -0.9924 H   0  0  0  0  0  0  0  0  0  0  0  0
    1.2417   -3.0323    3.0575 H   0  0  0  0  0  0  0  0  0  0  0  0
    1.2028   -6.5338   -0.3059 H   0  0  0  0  0  0  0  0  0  0  0  0
    1.0527   -5.3436    3.7232 H   0  0  0  0  0  0  0  0  0  0  0  0
    1.0490   -7.1015    2.0489 H   0  0  0  0  0  0  0  0  0  0  0  0
  1  2  1  0  0  0  0 
  1  3  1  0  0  0  0 
  2  4  1  0  0  0  0 
  3  5  2  0  0  0  0 
  3  6  1  0  0  0  0 
  4  7  1  0  0  0  0 
  5  8  1  0  0  0  0 
  6  9  2  0  0  0  0 
  7 10  1  0  0  0  0 
  7 11  1  0  0  0  0 
  8 12  2  0  0  0  0 
  9 12  1  0  0  0  0 
 10 13  1  0  0  0  0 
 11 14  1  0  0  0  0 
 13 15  1  0  0  0  0 
 15 16  1  0  0  0  0 
 16 17  2  0  0  0  0 
 16 18  1  0  0  0  0 
 17 19  1  0  0  0  0 
 18 20  2  0  0  0  0 
 19 21  2  0  0  0  0 
 20 21  1  0  0  0  0 
  1 22  1  0  0  0  0 
  1 23  1  0  0  0  0 
  2 24  1  0  0  0  0 
  2 25  1  0  0  0  0 
  4 26  1  0  0  0  0 
  4 27  1  0  0  0  0 
  5 28  1  0  0  0  0 
  6 29  1  0  0  0  0 
  8 30  1  0  0  0  0 
  9 31  1  0  0  0  0 
 10 32  1  0  0  0  0 
 10 33  1  0  0  0  0 
 11 34  1  0  0  0  0 
 11 35  1  0  0  0  0 
 12 36  1  0  0  0  0 
 13 37  1  0  0  0  0 
 13 38  1  0  0  0  0 
 14 39  1  0  0  0  0 
 14 40  1  0  0  0  0 
 14 41  1  0  0  0  0 
 15 42  1  0  0  0  0 
 15 43  1  0  0  0  0 
 17 44  1  0  0  0  0 
 18 45  1  0  0  0  0 
 19 46  1  0  0  0  0 
 20 47  1  0  0  0  0 
 21 48  1  0  0  0  0 
M  END
> <cdk:Title>
alverine

> <Conformer>
1

> <SuperDrugID>
SD000111

$$$$
