pentagestrone acetate
  CDK     0628171801

 72 76  0  0  0  0  0  0  0  0999 V2000
   11.3626    0.0219   -1.7853 C   0  0  0  0  0  0  0  0  0  0  0  0
   10.6659   -1.1720   -2.5596 C   0  0  2  0  0  0  0  0  0  0  0  0
    9.3298   -1.6641   -1.9084 C   0  0  2  0  0  0  0  0  0  0  0  0
   11.5286   -2.4962   -2.4679 C   0  0  1  0  0  0  0  0  0  0  0  0
   10.2977   -0.6813   -4.0031 C   0  0  2  0  0  0  0  0  0  0  0  0
    8.2375   -0.5534   -1.7713 C   0  0  1  0  0  0  0  0  0  0  0  0
    9.7907   -2.4086   -0.6403 C   0  0  2  0  0  0  0  0  0  0  0  0
   11.0482   -3.4587   -3.4441 O   0  0  0  0  0  0  0  0  0  0  0  0
   12.9920   -2.2720   -2.7278 C   0  0  0  0  0  0  0  0  0  0  0  0
   11.1587   -3.0264   -1.0332 C   0  0  2  0  0  0  0  0  0  0  0  0
    9.2039    0.4312   -4.0107 C   0  0  2  0  0  0  0  0  0  0  0  0
    7.9194    0.0820   -3.1728 C   0  0  2  0  0  0  0  0  0  0  0  0
    6.9149   -1.0801   -1.1313 C   0  0  1  0  0  0  0  0  0  0  0  0
   11.4831   -4.7272   -3.7362 C   0  0  0  0  0  0  0  0  0  0  0  0
   13.5737   -2.1616   -4.0818 C   0  0  0  0  0  0  0  0  0  0  0  0
   13.8066   -2.2066   -1.7778 O   0  0  0  0  0  0  0  0  0  0  0  0
    6.8347    1.2397   -3.0172 C   0  0  2  0  0  0  0  0  0  0  0  0
    5.7195   -0.2988   -1.4073 C   0  0  0  0  0  0  0  0  0  0  0  0
   10.8711   -5.4701   -4.8439 C   0  0  0  0  0  0  0  0  0  0  0  0
   12.4179   -5.2629   -3.0999 O   0  0  0  0  0  0  0  0  0  0  0  0
    7.3858    2.4824   -2.2222 C   0  0  0  0  0  0  0  0  0  0  0  0
    5.6375    0.7398   -2.2749 C   0  0  0  0  0  0  0  0  0  0  0  0
    6.3824    1.7117   -4.4527 C   0  0  1  0  0  0  0  0  0  0  0  0
    4.4054    1.3311   -2.4653 C   0  0  0  0  0  0  0  0  0  0  0  0
    5.1133    2.6049   -4.4443 C   0  0  1  0  0  0  0  0  0  0  0  0
    4.1130    2.1610   -3.4845 C   0  0  0  0  0  0  0  0  0  0  0  0
    2.8624    2.6399   -3.6007 O   0  0  0  0  0  0  0  0  0  0  0  0
    1.9882    1.8495   -4.4434 C   0  0  1  0  0  0  0  0  0  0  0  0
    1.4750    0.5404   -3.8050 C   0  0  2  0  0  0  0  0  0  0  0  0
    0.6876    2.6275   -4.7142 C   0  0  2  0  0  0  0  0  0  0  0  0
    0.1720    0.2126   -4.5578 C   0  0  2  0  0  0  0  0  0  0  0  0
   -0.3696    1.5631   -5.0763 C   0  0  2  0  0  0  0  0  0  0  0  0
   11.6808   -0.2690   -0.7850 H   0  0  0  0  0  0  0  0  0  0  0  0
   12.2470    0.3630   -2.3260 H   0  0  0  0  0  0  0  0  0  0  0  0
   10.7143    0.8880   -1.6706 H   0  0  0  0  0  0  0  0  0  0  0  0
    8.8818   -2.4332   -2.5564 H   0  0  0  0  0  0  0  0  0  0  0  0
    9.9248   -1.5173   -4.6013 H   0  0  0  0  0  0  0  0  0  0  0  0
   11.1893   -0.3016   -4.5076 H   0  0  0  0  0  0  0  0  0  0  0  0
    8.6291    0.2047   -1.0958 H   0  0  0  0  0  0  0  0  0  0  0  0
    9.0712   -3.1803   -0.3517 H   0  0  0  0  0  0  0  0  0  0  0  0
    9.9063   -1.7099    0.1941 H   0  0  0  0  0  0  0  0  0  0  0  0
   11.8928   -2.7278   -0.2802 H   0  0  0  0  0  0  0  0  0  0  0  0
   11.0966   -4.1171   -1.0080 H   0  0  0  0  0  0  0  0  0  0  0  0
    8.9199    0.5902   -5.0534 H   0  0  0  0  0  0  0  0  0  0  0  0
    9.6457    1.3627   -3.6638 H   0  0  0  0  0  0  0  0  0  0  0  0
    7.4376   -0.7205   -3.7492 H   0  0  0  0  0  0  0  0  0  0  0  0
    6.7077   -2.0930   -1.4923 H   0  0  0  0  0  0  0  0  0  0  0  0
    7.0447   -1.1365   -0.0455 H   0  0  0  0  0  0  0  0  0  0  0  0
   14.1630   -1.2490   -4.1628 H   0  0  0  0  0  0  0  0  0  0  0  0
   12.8101   -2.1478   -4.8571 H   0  0  0  0  0  0  0  0  0  0  0  0
   14.2253   -3.0154   -4.2650 H   0  0  0  0  0  0  0  0  0  0  0  0
    4.9033   -0.5980   -0.9166 H   0  0  0  0  0  0  0  0  0  0  0  0
   10.5005   -6.4333   -4.4979 H   0  0  0  0  0  0  0  0  0  0  0  0
   10.0404   -4.9032   -5.2620 H   0  0  0  0  0  0  0  0  0  0  0  0
   11.6116   -5.6361   -5.6284 H   0  0  0  0  0  0  0  0  0  0  0  0
    6.6338    3.2685   -2.1408 H   0  0  0  0  0  0  0  0  0  0  0  0
    8.2528    2.9198   -2.7181 H   0  0  0  0  0  0  0  0  0  0  0  0
    7.6719    2.2244   -1.2021 H   0  0  0  0  0  0  0  0  0  0  0  0
    7.1835    2.2649   -4.9515 H   0  0  0  0  0  0  0  0  0  0  0  0
    6.1589    0.8366   -5.0710 H   0  0  0  0  0  0  0  0  0  0  0  0
    3.6619    1.1281   -1.8320 H   0  0  0  0  0  0  0  0  0  0  0  0
    5.3873    3.6331   -4.1976 H   0  0  0  0  0  0  0  0  0  0  0  0
    4.6903    2.6177   -5.4512 H   0  0  0  0  0  0  0  0  0  0  0  0
    2.4559    1.6240   -5.4096 H   0  0  0  0  0  0  0  0  0  0  0  0
    1.2593    0.6974   -2.7437 H   0  0  0  0  0  0  0  0  0  0  0  0
    2.2065   -0.2652   -3.9048 H   0  0  0  0  0  0  0  0  0  0  0  0
    0.8244    3.3511   -5.5227 H   0  0  0  0  0  0  0  0  0  0  0  0
    0.3757    3.1642   -3.8124 H   0  0  0  0  0  0  0  0  0  0  0  0
   -0.5467   -0.2800   -3.8975 H   0  0  0  0  0  0  0  0  0  0  0  0
    0.3862   -0.4543   -5.3983 H   0  0  0  0  0  0  0  0  0  0  0  0
   -0.5069    1.5210   -6.1606 H   0  0  0  0  0  0  0  0  0  0  0  0
   -1.3308    1.8034   -4.6132 H   0  0  0  0  0  0  0  0  0  0  0  0
  2  1  1  0  0  0  0 
  2  3  1  0  0  0  0 
  2  4  1  0  0  0  0 
  2  5  1  0  0  0  0 
  3  6  1  0  0  0  0 
  3  7  1  0  0  0  0 
  4  8  1  0  0  0  0 
  4  9  1  0  0  0  0 
  4 10  1  0  0  0  0 
  5 11  1  0  0  0  0 
  6 12  1  0  0  0  0 
  6 13  1  0  0  0  0 
  7 10  1  0  0  0  0 
  8 14  1  0  0  0  0 
  9 15  1  0  0  0  0 
  9 16  2  0  0  0  0 
 12 11  1  0  0  0  0 
 12 17  1  0  0  0  0 
 13 18  1  0  0  0  0 
 14 19  1  0  0  0  0 
 14 20  2  0  0  0  0 
 17 21  1  0  0  0  0 
 17 22  1  0  0  0  0 
 17 23  1  0  0  0  0 
 18 22  2  0  0  0  0 
 22 24  1  0  0  0  0 
 23 25  1  0  0  0  0 
 24 26  2  0  0  0  0 
 25 26  1  0  0  0  0 
 26 27  1  0  0  0  0 
 27 28  1  0  0  0  0 
 28 29  1  0  0  0  0 
 28 30  1  0  0  0  0 
 29 31  1  0  0  0  0 
 30 32  1  0  0  0  0 
 31 32  1  0  0  0  0 
 33  1  1  0  0  0  0 
 34  1  1  0  0  0  0 
 35  1  1  0  0  0  0 
  3 36  1  0  0  0  0 
 37  5  1  0  0  0  0 
 38  5  1  0  0  0  0 
  6 39  1  0  0  0  0 
 40  7  1  0  0  0  0 
 41  7  1  0  0  0  0 
 42 10  1  0  0  0  0 
 43 10  1  0  0  0  0 
 44 11  1  0  0  0  0 
 45 11  1  0  0  0  0 
 12 46  1  0  0  0  0 
 47 13  1  0  0  0  0 
 48 13  1  0  0  0  0 
 49 15  1  0  0  0  0 
 50 15  1  0  0  0  0 
 51 15  1  0  0  0  0 
 52 18  1  0  0  0  0 
 53 19  1  0  0  0  0 
 54 19  1  0  0  0  0 
 55 19  1  0  0  0  0 
 56 21  1  0  0  0  0 
 57 21  1  0  0  0  0 
 58 21  1  0  0  0  0 
 59 23  1  0  0  0  0 
 60 23  1  0  0  0  0 
 61 24  1  0  0  0  0 
 62 25  1  0  0  0  0 
 63 25  1  0  0  0  0 
 64 28  1  0  0  0  0 
 65 29  1  0  0  0  0 
 66 29  1  0  0  0  0 
 67 30  1  0  0  0  0 
 68 30  1  0  0  0  0 
 69 31  1  0  0  0  0 
 70 31  1  0  0  0  0 
 71 32  1  0  0  0  0 
 72 32  1  0  0  0  0 
M  END
> <cdk:Title>
pentagestrone acetate

> <Conformer>
1

> <SuperDrugID>
SD001873

$$$$
