moclobemide
  CDK     0628171801

 35 36  0  0  0  0  0  0  0  0999 V2000
    1.0130   -0.0324    0.2559 C   0  0  0  0  0  0  0  0  0  0  0  0
   -0.3101   -0.2528   -0.0064 N   0  0  0  0  0  0  0  0  0  0  0  0
    1.7570   -1.0271    0.4378 O   0  0  0  0  0  0  0  0  0  0  0  0
    1.5673    1.2827    0.3238 C   0  0  0  0  0  0  0  0  0  0  0  0
   -0.9284   -1.5431   -0.0789 C   0  0  2  0  0  0  0  0  0  0  0  0
    2.9741    1.4775    0.3058 C   0  0  0  0  0  0  0  0  0  0  0  0
    0.7472    2.4362    0.4157 C   0  0  0  0  0  0  0  0  0  0  0  0
   -2.4362   -1.4256   -0.4162 C   0  0  1  0  0  0  0  0  0  0  0  0
    3.5349    2.7675    0.3633 C   0  0  0  0  0  0  0  0  0  0  0  0
    1.3046    3.7284    0.4753 C   0  0  0  0  0  0  0  0  0  0  0  0
   -3.2046   -2.7136   -0.3043 N   0  0  1  0  0  0  0  0  0  0  0  0
    2.7009    3.8966    0.4456 C   0  0  0  0  0  0  0  0  0  0  0  0
   -4.6845   -2.4810   -0.3594 C   0  0  1  0  0  0  0  0  0  0  0  0
   -2.7693   -3.7898   -1.2543 C   0  0  2  0  0  0  0  0  0  0  0  0
    3.3759    5.4487    0.5040 Cl  0  0  0  0  0  0  0  0  0  0  0  0
   -5.4821   -3.8035   -0.2441 C   0  0  1  0  0  0  0  0  0  0  0  0
   -3.6288   -5.0676   -1.0903 C   0  0  2  0  0  0  0  0  0  0  0  0
   -5.0300   -4.7627   -1.2182 O   0  0  0  0  0  0  0  0  0  0  0  0
   -0.8761    0.5180   -0.1640 H   0  0  0  0  0  0  0  0  0  0  0  0
   -0.8136   -2.0578    0.8797 H   0  0  0  0  0  0  0  0  0  0  0  0
   -0.4278   -2.1218   -0.8575 H   0  0  0  0  0  0  0  0  0  0  0  0
    3.6113    0.6790    0.2442 H   0  0  0  0  0  0  0  0  0  0  0  0
   -0.2703    2.3561    0.4474 H   0  0  0  0  0  0  0  0  0  0  0  0
   -2.8584   -0.7024    0.2888 H   0  0  0  0  0  0  0  0  0  0  0  0
   -2.5443   -1.0042   -1.4215 H   0  0  0  0  0  0  0  0  0  0  0  0
    4.5531    2.8788    0.3435 H   0  0  0  0  0  0  0  0  0  0  0  0
    0.6856    4.5409    0.5409 H   0  0  0  0  0  0  0  0  0  0  0  0
   -4.9858   -1.8297    0.4664 H   0  0  0  0  0  0  0  0  0  0  0  0
   -4.9536   -1.9912   -1.3010 H   0  0  0  0  0  0  0  0  0  0  0  0
   -1.7327   -4.0709   -1.0588 H   0  0  0  0  0  0  0  0  0  0  0  0
   -2.8458   -3.4431   -2.2905 H   0  0  0  0  0  0  0  0  0  0  0  0
   -5.3887   -4.2157    0.7644 H   0  0  0  0  0  0  0  0  0  0  0  0
   -6.5389   -3.6011   -0.4262 H   0  0  0  0  0  0  0  0  0  0  0  0
   -3.4318   -5.5356   -0.1212 H   0  0  0  0  0  0  0  0  0  0  0  0
   -3.3624   -5.7854   -1.8682 H   0  0  0  0  0  0  0  0  0  0  0  0
  1  2  1  0  0  0  0 
  1  3  2  0  0  0  0 
  1  4  1  0  0  0  0 
  2  5  1  0  0  0  0 
  4  6  2  0  0  0  0 
  4  7  1  0  0  0  0 
  5  8  1  0  0  0  0 
  6  9  1  0  0  0  0 
  7 10  2  0  0  0  0 
  8 11  1  0  0  0  0 
  9 12  2  0  0  0  0 
 10 12  1  0  0  0  0 
 11 13  1  0  0  0  0 
 11 14  1  0  0  0  0 
 12 15  1  0  0  0  0 
 13 16  1  0  0  0  0 
 14 17  1  0  0  0  0 
 16 18  1  0  0  0  0 
 17 18  1  0  0  0  0 
  2 19  1  0  0  0  0 
  5 20  1  0  0  0  0 
  5 21  1  0  0  0  0 
  6 22  1  0  0  0  0 
  7 23  1  0  0  0  0 
  8 24  1  0  0  0  0 
  8 25  1  0  0  0  0 
  9 26  1  0  0  0  0 
 10 27  1  0  0  0  0 
 13 28  1  0  0  0  0 
 13 29  1  0  0  0  0 
 14 30  1  0  0  0  0 
 14 31  1  0  0  0  0 
 16 32  1  0  0  0  0 
 16 33  1  0  0  0  0 
 17 34  1  0  0  0  0 
 17 35  1  0  0  0  0 
M  END
> <cdk:Title>
moclobemide

> <Conformer>
1

> <SuperDrugID>
SD001624

$$$$
