dextrofemine
  CDK     0628171802

 43 44  0  0  0  0  0  0  0  0999 V2000
   -4.4801   -2.3453   -2.6637 C   0  0  2  0  0  0  0  0  0  0  0  0
   -3.0630   -2.4279   -3.3154 C   0  0  1  0  0  0  0  0  0  0  0  0
   -5.2107   -3.6458   -2.5793 C   0  0  0  0  0  0  0  0  0  0  0  0
   -2.0966   -3.2865   -2.5795 N   0  0  1  0  0  0  0  0  0  0  0  0
   -3.0995   -2.9557   -4.7718 C   0  0  0  0  0  0  0  0  0  0  0  0
   -6.1506   -4.0167   -3.5738 C   0  0  0  0  0  0  0  0  0  0  0  0
   -4.9882   -4.5394   -1.5036 C   0  0  0  0  0  0  0  0  0  0  0  0
   -1.6232   -2.8842   -1.2257 C   0  0  2  0  0  0  0  0  0  0  0  0
   -6.8350   -5.2458   -3.5005 C   0  0  0  0  0  0  0  0  0  0  0  0
   -5.6727   -5.7668   -1.4298 C   0  0  0  0  0  0  0  0  0  0  0  0
   -0.8027   -1.5625   -1.2177 C   0  0  1  0  0  0  0  0  0  0  0  0
   -0.7884   -4.0654   -0.6689 C   0  0  0  0  0  0  0  0  0  0  0  0
   -6.5957   -6.1216   -2.4281 C   0  0  0  0  0  0  0  0  0  0  0  0
   -0.4218   -1.1955    0.1293 O   0  0  0  0  0  0  0  0  0  0  0  0
    0.1822    0.0343    0.1774 C   0  0  0  0  0  0  0  0  0  0  0  0
    1.5877    0.1397    0.1280 C   0  0  0  0  0  0  0  0  0  0  0  0
   -0.6011    1.2061    0.2611 C   0  0  0  0  0  0  0  0  0  0  0  0
    2.2022    1.4070    0.1214 C   0  0  0  0  0  0  0  0  0  0  0  0
    0.0135    2.4726    0.2501 C   0  0  0  0  0  0  0  0  0  0  0  0
    1.4156    2.5729    0.1809 C   0  0  0  0  0  0  0  0  0  0  0  0
   -5.0786   -1.6296   -3.2337 H   0  0  0  0  0  0  0  0  0  0  0  0
   -4.3964   -1.9101   -1.6645 H   0  0  0  0  0  0  0  0  0  0  0  0
   -2.6679   -1.4126   -3.3798 H   0  0  0  0  0  0  0  0  0  0  0  0
   -2.5481   -4.2000   -2.4877 H   0  0  0  0  0  0  0  0  0  0  0  0
   -2.1040   -2.8890   -5.2170 H   0  0  0  0  0  0  0  0  0  0  0  0
   -3.7858   -2.3664   -5.3835 H   0  0  0  0  0  0  0  0  0  0  0  0
   -3.4169   -4.0003   -4.7904 H   0  0  0  0  0  0  0  0  0  0  0  0
   -6.3375   -3.3955   -4.3659 H   0  0  0  0  0  0  0  0  0  0  0  0
   -4.3256   -4.3019   -0.7612 H   0  0  0  0  0  0  0  0  0  0  0  0
   -2.4884   -2.7559   -0.5733 H   0  0  0  0  0  0  0  0  0  0  0  0
   -7.5073   -5.5041   -4.2255 H   0  0  0  0  0  0  0  0  0  0  0  0
   -5.5031   -6.4021   -0.6453 H   0  0  0  0  0  0  0  0  0  0  0  0
    0.0860   -1.6850   -1.8476 H   0  0  0  0  0  0  0  0  0  0  0  0
   -1.4241   -0.7682   -1.6396 H   0  0  0  0  0  0  0  0  0  0  0  0
    0.0985   -4.2330   -1.2838 H   0  0  0  0  0  0  0  0  0  0  0  0
   -1.3840   -4.9806   -0.6611 H   0  0  0  0  0  0  0  0  0  0  0  0
   -0.4701   -3.8618    0.3542 H   0  0  0  0  0  0  0  0  0  0  0  0
   -7.0908   -7.0142   -2.3758 H   0  0  0  0  0  0  0  0  0  0  0  0
    2.1633   -0.7046    0.0886 H   0  0  0  0  0  0  0  0  0  0  0  0
   -1.6201    1.1387    0.3180 H   0  0  0  0  0  0  0  0  0  0  0  0
    3.2205    1.4833    0.0684 H   0  0  0  0  0  0  0  0  0  0  0  0
   -0.5574    3.3205    0.2869 H   0  0  0  0  0  0  0  0  0  0  0  0
    1.8630    3.4941    0.1734 H   0  0  0  0  0  0  0  0  0  0  0  0
  2  1  1  0  0  0  0 
  1  3  1  0  0  0  0 
  2  4  1  0  0  0  0 
  2  5  1  0  0  0  0 
  3  6  2  0  0  0  0 
  3  7  1  0  0  0  0 
  8  4  1  0  0  0  0 
  6  9  1  0  0  0  0 
  7 10  2  0  0  0  0 
  8 11  1  0  0  0  0 
  8 12  1  0  0  0  0 
  9 13  2  0  0  0  0 
 10 13  1  0  0  0  0 
 11 14  1  0  0  0  0 
 14 15  1  0  0  0  0 
 15 16  2  0  0  0  0 
 15 17  1  0  0  0  0 
 16 18  1  0  0  0  0 
 17 19  2  0  0  0  0 
 18 20  2  0  0  0  0 
 19 20  1  0  0  0  0 
  1 21  1  0  0  0  0 
  1 22  1  0  0  0  0 
  2 23  1  0  0  0  0 
  4 24  1  0  0  0  0 
  5 25  1  0  0  0  0 
  5 26  1  0  0  0  0 
  5 27  1  0  0  0  0 
  6 28  1  0  0  0  0 
  7 29  1  0  0  0  0 
  8 30  1  0  0  0  0 
  9 31  1  0  0  0  0 
 10 32  1  0  0  0  0 
 11 33  1  0  0  0  0 
 11 34  1  0  0  0  0 
 12 35  1  0  0  0  0 
 12 36  1  0  0  0  0 
 12 37  1  0  0  0  0 
 13 38  1  0  0  0  0 
 16 39  1  0  0  0  0 
 17 40  1  0  0  0  0 
 18 41  1  0  0  0  0 
 19 42  1  0  0  0  0 
 20 43  1  0  0  0  0 
M  END
> <cdk:Title>
dextrofemine

> <Conformer>
1

> <SuperDrugID>
SD000744

$$$$
