hydrocortamate
  CDK     0628171801

 75 78  0  0  0  0  0  0  0  0999 V2000
   -3.8803    2.7332    2.9369 C   0  0  0  0  0  0  0  0  0  0  0  0
   -4.2703    1.9355    1.6265 C   0  0  2  0  0  0  0  0  0  0  0  0
   -5.8131    1.8455    1.3849 C   0  0  2  0  0  0  0  0  0  0  0  0
   -3.9239    0.3972    1.7887 C   0  0  2  0  0  0  0  0  0  0  0  0
   -3.6560    2.6491    0.3665 C   0  0  2  0  0  0  0  0  0  0  0  0
   -6.5137    3.2370    1.2143 C   0  0  1  0  0  0  0  0  0  0  0  0
   -6.3006    0.8630    2.4685 C   0  0  1  0  0  0  0  0  0  0  0  0
   -2.6001    0.0918    2.4385 C   0  0  0  0  0  0  0  0  0  0  0  0
   -3.9393   -0.2397    0.5007 O   0  0  0  0  0  0  0  0  0  0  0  0
   -5.1619   -0.1854    2.5627 C   0  0  2  0  0  0  0  0  0  0  0  0
   -4.3201    4.0248    0.0236 C   0  0  1  0  0  0  0  0  0  0  0  0
   -5.8987    3.9719   -0.0394 C   0  0  2  0  0  0  0  0  0  0  0  0
   -8.0517    3.0859    1.0385 C   0  0  1  0  0  0  0  0  0  0  0  0
   -1.3858   -0.3557    1.7166 C   0  0  2  0  0  0  0  0  0  0  0  0
   -2.4753    0.2374    3.6786 O   0  0  0  0  0  0  0  0  0  0  0  0
   -3.8388    5.0087    0.9330 O   0  0  0  0  0  0  0  0  0  0  0  0
   -6.6492    5.3304   -0.4363 C   0  0  2  0  0  0  0  0  0  0  0  0
   -8.7073    4.4649    0.8160 C   0  0  2  0  0  0  0  0  0  0  0  0
   -1.1851    0.3572    0.4885 O   0  0  0  0  0  0  0  0  0  0  0  0
   -6.2822    6.5298    0.5112 C   0  0  0  0  0  0  0  0  0  0  0  0
   -8.1367    5.1583   -0.3493 C   0  0  0  0  0  0  0  0  0  0  0  0
   -6.2263    5.7084   -1.9155 C   0  0  1  0  0  0  0  0  0  0  0  0
   -0.1000    0.2178   -0.3333 C   0  0  0  0  0  0  0  0  0  0  0  0
   -8.9814    5.6664   -1.2776 C   0  0  0  0  0  0  0  0  0  0  0  0
   -7.1486    6.7594   -2.5755 C   0  0  1  0  0  0  0  0  0  0  0  0
   -0.0539    0.9251   -1.6348 C   0  0  1  0  0  0  0  0  0  0  0  0
    0.8716   -0.4996    0.0093 O   0  0  0  0  0  0  0  0  0  0  0  0
   -8.5660    6.4041   -2.3731 C   0  0  0  0  0  0  0  0  0  0  0  0
   -1.1101    0.3955   -2.6036 N   0  0  2  0  0  0  0  0  0  0  0  0
   -9.4134    6.8172   -3.1990 O   0  0  0  0  0  0  0  0  0  0  0  0
   -1.0717   -1.0898   -2.8532 C   0  0  1  0  0  0  0  0  0  0  0  0
   -1.1900    1.2228   -3.8534 C   0  0  1  0  0  0  0  0  0  0  0  0
   -2.3575   -1.7464   -2.3102 C   0  0  0  0  0  0  0  0  0  0  0  0
   -2.5651    1.1277   -4.5515 C   0  0  0  0  0  0  0  0  0  0  0  0
   -2.7970    2.8417    3.0051 H   0  0  0  0  0  0  0  0  0  0  0  0
   -4.2133    2.2177    3.8388 H   0  0  0  0  0  0  0  0  0  0  0  0
   -4.2987    3.7354    2.9787 H   0  0  0  0  0  0  0  0  0  0  0  0
   -5.9922    1.3216    0.4343 H   0  0  0  0  0  0  0  0  0  0  0  0
   -3.7716    2.0136   -0.5156 H   0  0  0  0  0  0  0  0  0  0  0  0
   -2.5813    2.7851    0.5077 H   0  0  0  0  0  0  0  0  0  0  0  0
   -6.3566    3.8419    2.1088 H   0  0  0  0  0  0  0  0  0  0  0  0
   -6.4314    1.3782    3.4221 H   0  0  0  0  0  0  0  0  0  0  0  0
   -7.2496    0.3940    2.1971 H   0  0  0  0  0  0  0  0  0  0  0  0
   -3.7837   -1.1904    0.6780 H   0  0  0  0  0  0  0  0  0  0  0  0
   -4.9483   -0.3836    3.6163 H   0  0  0  0  0  0  0  0  0  0  0  0
   -5.4923   -1.1332    2.1249 H   0  0  0  0  0  0  0  0  0  0  0  0
   -3.9413    4.3188   -0.9579 H   0  0  0  0  0  0  0  0  0  0  0  0
   -6.1055    3.2869   -0.8719 H   0  0  0  0  0  0  0  0  0  0  0  0
   -8.2785    2.4335    0.1891 H   0  0  0  0  0  0  0  0  0  0  0  0
   -8.4903    2.6360    1.9331 H   0  0  0  0  0  0  0  0  0  0  0  0
   -1.4956   -1.4161    1.4895 H   0  0  0  0  0  0  0  0  0  0  0  0
   -0.5016   -0.2306    2.3522 H   0  0  0  0  0  0  0  0  0  0  0  0
   -2.8668    5.0229    0.8073 H   0  0  0  0  0  0  0  0  0  0  0  0
   -8.5498    5.0826    1.7040 H   0  0  0  0  0  0  0  0  0  0  0  0
   -9.7889    4.3098    0.7373 H   0  0  0  0  0  0  0  0  0  0  0  0
   -6.9793    7.3648    0.3932 H   0  0  0  0  0  0  0  0  0  0  0  0
   -6.2985    6.2277    1.5600 H   0  0  0  0  0  0  0  0  0  0  0  0
   -5.2876    6.9222    0.2934 H   0  0  0  0  0  0  0  0  0  0  0  0
   -5.1998    6.0817   -1.9509 H   0  0  0  0  0  0  0  0  0  0  0  0
   -6.2604    4.8193   -2.5536 H   0  0  0  0  0  0  0  0  0  0  0  0
   -9.9620    5.5278   -1.1782 H   0  0  0  0  0  0  0  0  0  0  0  0
   -6.9650    7.7452   -2.1431 H   0  0  0  0  0  0  0  0  0  0  0  0
   -6.9219    6.8073   -3.6445 H   0  0  0  0  0  0  0  0  0  0  0  0
   -0.3797    1.9818   -1.3758 H   0  0  0  0  0  0  0  0  0  0  0  0
    1.0347    0.8239   -2.0314 H   0  0  0  0  0  0  0  0  0  0  0  0
   -0.9871   -1.3324   -3.9181 H   0  0  0  0  0  0  0  0  0  0  0  0
   -0.2120   -1.5655   -2.3724 H   0  0  0  0  0  0  0  0  0  0  0  0
   -1.0324    2.2804   -3.6260 H   0  0  0  0  0  0  0  0  0  0  0  0
   -0.4073    0.9245   -4.5590 H   0  0  0  0  0  0  0  0  0  0  0  0
   -2.3623   -2.8089   -2.5600 H   0  0  0  0  0  0  0  0  0  0  0  0
   -2.4037   -1.6388   -1.2261 H   0  0  0  0  0  0  0  0  0  0  0  0
   -3.2399   -1.2786   -2.7507 H   0  0  0  0  0  0  0  0  0  0  0  0
   -2.5828    1.7874   -5.4214 H   0  0  0  0  0  0  0  0  0  0  0  0
   -2.7601    0.1102   -4.8920 H   0  0  0  0  0  0  0  0  0  0  0  0
   -3.3571    1.4304   -3.8632 H   0  0  0  0  0  0  0  0  0  0  0  0
  2  1  1  0  0  0  0 
  3  2  1  0  0  0  0 
  2  4  1  0  0  0  0 
  2  5  1  0  0  0  0 
  6  3  1  0  0  0  0 
  3  7  1  0  0  0  0 
  4  8  1  0  0  0  0 
  4  9  1  0  0  0  0 
  4 10  1  0  0  0  0 
 11  5  1  0  0  0  0 
 12  6  1  0  0  0  0 
  6 13  1  0  0  0  0 
  7 10  1  0  0  0  0 
  8 14  1  0  0  0  0 
  8 15  2  0  0  0  0 
 12 11  1  0  0  0  0 
 11 16  1  0  0  0  0 
 12 17  1  0  0  0  0 
 13 18  1  0  0  0  0 
 14 19  1  0  0  0  0 
 17 20  1  0  0  0  0 
 17 21  1  0  0  0  0 
 17 22  1  0  0  0  0 
 18 21  1  0  0  0  0 
 19 23  1  0  0  0  0 
 21 24  2  0  0  0  0 
 22 25  1  0  0  0  0 
 23 26  1  0  0  0  0 
 23 27  2  0  0  0  0 
 24 28  1  0  0  0  0 
 25 28  1  0  0  0  0 
 26 29  1  0  0  0  0 
 28 30  2  0  0  0  0 
 29 31  1  0  0  0  0 
 29 32  1  0  0  0  0 
 31 33  1  0  0  0  0 
 32 34  1  0  0  0  0 
 35  1  1  0  0  0  0 
 36  1  1  0  0  0  0 
 37  1  1  0  0  0  0 
  3 38  1  0  0  0  0 
 39  5  1  0  0  0  0 
 40  5  1  0  0  0  0 
  6 41  1  0  0  0  0 
 42  7  1  0  0  0  0 
 43  7  1  0  0  0  0 
 44  9  1  0  0  0  0 
 45 10  1  0  0  0  0 
 46 10  1  0  0  0  0 
 11 47  1  0  0  0  0 
 12 48  1  0  0  0  0 
 49 13  1  0  0  0  0 
 50 13  1  0  0  0  0 
 51 14  1  0  0  0  0 
 52 14  1  0  0  0  0 
 53 16  1  0  0  0  0 
 54 18  1  0  0  0  0 
 55 18  1  0  0  0  0 
 56 20  1  0  0  0  0 
 57 20  1  0  0  0  0 
 58 20  1  0  0  0  0 
 59 22  1  0  0  0  0 
 60 22  1  0  0  0  0 
 61 24  1  0  0  0  0 
 62 25  1  0  0  0  0 
 63 25  1  0  0  0  0 
 64 26  1  0  0  0  0 
 65 26  1  0  0  0  0 
 66 31  1  0  0  0  0 
 67 31  1  0  0  0  0 
 68 32  1  0  0  0  0 
 69 32  1  0  0  0  0 
 70 33  1  0  0  0  0 
 71 33  1  0  0  0  0 
 72 33  1  0  0  0  0 
 73 34  1  0  0  0  0 
 74 34  1  0  0  0  0 
 75 34  1  0  0  0  0 
M  END
> <cdk:Title>
hydrocortamate

> <Conformer>
1

> <SuperDrugID>
SD001233

$$$$
