syrosingopine
  CDK     0628171801

 90 95  0  0  0  0  0  0  0  0999 V2000
   -0.7217    1.2966    1.6411 C   0  0  0  0  0  0  0  0  0  0  0  0
    0.1457    0.9649    0.6360 O   0  0  0  0  0  0  0  0  0  0  0  0
   -0.4508    2.2333    2.4292 O   0  0  0  0  0  0  0  0  0  0  0  0
   -2.0019    0.5551    1.8123 C   0  0  1  0  0  0  0  0  0  0  0  0
    1.4287    1.5374    0.3804 C   0  0  0  0  0  0  0  0  0  0  0  0
   -3.2435    1.4460    1.4592 C   0  0  1  0  0  0  0  0  0  0  0  0
   -2.0195   -0.8102    1.0460 C   0  0  1  0  0  0  0  0  0  0  0  0
   -3.2299    2.0508    0.0159 C   0  0  1  0  0  0  0  0  0  0  0  0
   -4.5579    0.6427    1.7239 C   0  0  1  0  0  0  0  0  0  0  0  0
   -0.8500   -1.6367    1.2836 O   0  0  0  0  0  0  0  0  0  0  0  0
   -3.3706   -1.6006    1.1360 C   0  0  1  0  0  0  0  0  0  0  0  0
   -4.5237    2.8436   -0.3455 C   0  0  2  0  0  0  0  0  0  0  0  0
   -5.7846    1.5626    1.4659 C   0  0  1  0  0  0  0  0  0  0  0  0
   -4.6122   -0.6883    0.9097 C   0  0  2  0  0  0  0  0  0  0  0  0
   -0.5630   -2.1140    2.6098 C   0  0  0  0  0  0  0  0  0  0  0  0
   -3.4100   -2.5963    0.0929 O   0  0  0  0  0  0  0  0  0  0  0  0
   -4.5088    4.2758    0.0495 C   0  0  0  0  0  0  0  0  0  0  0  0
   -5.7910    2.1459    0.0863 N   0  0  1  0  0  0  0  0  0  0  0  0
   -2.5201   -3.6162   -0.0884 C   0  0  0  0  0  0  0  0  0  0  0  0
   -5.6671    4.9705    0.4066 C   0  0  0  0  0  0  0  0  0  0  0  0
   -3.4736    5.1378    0.0178 N   0  0  0  0  0  0  0  0  0  0  0  0
   -7.0206    2.9566   -0.2064 C   0  0  1  0  0  0  0  0  0  0  0  0
   -2.5105   -4.5376    0.7611 O   0  0  0  0  0  0  0  0  0  0  0  0
   -1.5813   -3.5455   -1.1585 C   0  0  0  0  0  0  0  0  0  0  0  0
   -5.2817    6.2921    0.6124 C   0  0  0  0  0  0  0  0  0  0  0  0
   -7.0114    4.3579    0.4770 C   0  0  2  0  0  0  0  0  0  0  0  0
   -3.9134    6.3619    0.3466 C   0  0  0  0  0  0  0  0  0  0  0  0
   -1.6384   -2.4838   -2.0908 C   0  0  0  0  0  0  0  0  0  0  0  0
   -0.5036   -4.4535   -1.2645 C   0  0  0  0  0  0  0  0  0  0  0  0
   -6.0079    7.4396    0.9777 C   0  0  0  0  0  0  0  0  0  0  0  0
   -3.2188    7.5812    0.4176 C   0  0  0  0  0  0  0  0  0  0  0  0
   -0.6010   -2.2553   -3.0142 C   0  0  0  0  0  0  0  0  0  0  0  0
    0.5254   -4.2681   -2.2132 C   0  0  0  0  0  0  0  0  0  0  0  0
   -5.3224    8.6716    1.0512 C   0  0  0  0  0  0  0  0  0  0  0  0
   -3.9396    8.7506    0.7545 C   0  0  0  0  0  0  0  0  0  0  0  0
   -0.6786   -1.1720   -3.8538 O   0  0  0  0  0  0  0  0  0  0  0  0
    0.4865   -3.1530   -3.0881 C   0  0  0  0  0  0  0  0  0  0  0  0
    1.5679   -5.1570   -2.2405 O   0  0  0  0  0  0  0  0  0  0  0  0
   -3.2961    9.9572    0.8174 O   0  0  0  0  0  0  0  0  0  0  0  0
   -0.2931    0.0696   -3.2319 C   0  0  0  0  0  0  0  0  0  0  0  0
    1.4658   -2.8441   -3.9972 O   0  0  0  0  0  0  0  0  0  0  0  0
    2.5570   -4.8917   -1.2291 C   0  0  0  0  0  0  0  0  0  0  0  0
   -3.2830   10.6501   -0.4441 C   0  0  0  0  0  0  0  0  0  0  0  0
    2.3044   -3.6424   -4.7141 C   0  0  0  0  0  0  0  0  0  0  0  0
    1.9042   -4.8880   -5.1006 O   0  0  0  0  0  0  0  0  0  0  0  0
    3.4040   -3.1614   -5.0714 O   0  0  0  0  0  0  0  0  0  0  0  0
    2.6056   -5.8242   -5.9310 C   0  0  2  0  0  0  0  0  0  0  0  0
    2.9596   -7.0745   -5.1087 C   0  0  0  0  0  0  0  0  0  0  0  0
   -4.5541    2.8740   -1.4392 H   0  0  0  0  0  0  0  0  0  0  0  0
   -3.2345    2.2946    2.1546 H   0  0  0  0  0  0  0  0  0  0  0  0
   -4.5850    0.3696    2.7860 H   0  0  0  0  0  0  0  0  0  0  0  0
   -2.0788    0.3146    2.8766 H   0  0  0  0  0  0  0  0  0  0  0  0
    2.0953    1.3485    1.2233 H   0  0  0  0  0  0  0  0  0  0  0  0
    1.8511    1.0807   -0.5157 H   0  0  0  0  0  0  0  0  0  0  0  0
    1.3352    2.6115    0.2192 H   0  0  0  0  0  0  0  0  0  0  0  0
   -1.9138   -0.5532   -0.0066 H   0  0  0  0  0  0  0  0  0  0  0  0
   -2.3548    2.6934   -0.1037 H   0  0  0  0  0  0  0  0  0  0  0  0
   -3.1185    1.2527   -0.7201 H   0  0  0  0  0  0  0  0  0  0  0  0
   -3.4655   -2.0779    2.1150 H   0  0  0  0  0  0  0  0  0  0  0  0
   -6.6977    0.9777    1.6209 H   0  0  0  0  0  0  0  0  0  0  0  0
   -5.7843    2.3630    2.2138 H   0  0  0  0  0  0  0  0  0  0  0  0
   -4.7098   -0.4635   -0.1552 H   0  0  0  0  0  0  0  0  0  0  0  0
   -5.5075   -1.2476    1.1922 H   0  0  0  0  0  0  0  0  0  0  0  0
    0.3197   -2.7508    2.5437 H   0  0  0  0  0  0  0  0  0  0  0  0
   -1.3787   -2.7116    3.0169 H   0  0  0  0  0  0  0  0  0  0  0  0
   -0.3304   -1.2935    3.2891 H   0  0  0  0  0  0  0  0  0  0  0  0
   -2.5606    4.9154   -0.2233 H   0  0  0  0  0  0  0  0  0  0  0  0
   -7.0741    3.0991   -1.2897 H   0  0  0  0  0  0  0  0  0  0  0  0
   -7.9242    2.4120    0.0790 H   0  0  0  0  0  0  0  0  0  0  0  0
   -7.7354    5.0004   -0.0290 H   0  0  0  0  0  0  0  0  0  0  0  0
   -7.3054    4.2751    1.5252 H   0  0  0  0  0  0  0  0  0  0  0  0
   -2.4270   -1.8349   -2.0869 H   0  0  0  0  0  0  0  0  0  0  0  0
   -0.4345   -5.2438   -0.6213 H   0  0  0  0  0  0  0  0  0  0  0  0
   -7.0077    7.3874    1.1805 H   0  0  0  0  0  0  0  0  0  0  0  0
   -2.2162    7.6211    0.2193 H   0  0  0  0  0  0  0  0  0  0  0  0
   -5.8335    9.5153    1.3191 H   0  0  0  0  0  0  0  0  0  0  0  0
   -0.4032    0.8642   -3.9696 H   0  0  0  0  0  0  0  0  0  0  0  0
   -0.9285    0.3192   -2.3781 H   0  0  0  0  0  0  0  0  0  0  0  0
    0.7506    0.0423   -2.9118 H   0  0  0  0  0  0  0  0  0  0  0  0
    3.3976   -5.5668   -1.3843 H   0  0  0  0  0  0  0  0  0  0  0  0
    2.9275   -3.8666   -1.2979 H   0  0  0  0  0  0  0  0  0  0  0  0
    2.1605   -5.0715   -0.2267 H   0  0  0  0  0  0  0  0  0  0  0  0
   -2.7391   11.5852   -0.3118 H   0  0  0  0  0  0  0  0  0  0  0  0
   -2.7710   10.0683   -1.2152 H   0  0  0  0  0  0  0  0  0  0  0  0
   -4.2956   10.8918   -0.7782 H   0  0  0  0  0  0  0  0  0  0  0  0
    3.5192   -5.4051   -6.3573 H   0  0  0  0  0  0  0  0  0  0  0  0
    1.9457   -6.1000   -6.7564 H   0  0  0  0  0  0  0  0  0  0  0  0
    2.0860   -7.4109   -4.5431 H   0  0  0  0  0  0  0  0  0  0  0  0
    3.2829   -7.8754   -5.7790 H   0  0  0  0  0  0  0  0  0  0  0  0
    3.7685   -6.8450   -4.4101 H   0  0  0  0  0  0  0  0  0  0  0  0
  1  2  1  0  0  0  0 
  1  3  2  0  0  0  0 
  2  5  1  0  0  0  0 
  4  1  1  0  0  0  0 
  4  6  1  0  0  0  0 
  7  4  1  0  0  0  0 
  6  8  1  0  0  0  0 
  6  9  1  0  0  0  0 
  6 50  1  0  0  0  0 
  7 10  1  0  0  0  0 
 11  7  1  0  0  0  0 
 12  8  1  0  0  0  0 
  9 13  1  0  0  0  0 
  9 14  1  0  0  0  0 
  9 51  1  0  0  0  0 
 10 15  1  0  0  0  0 
 11 14  1  0  0  0  0 
 11 16  1  0  0  0  0 
 12 17  1  0  0  0  0 
 12 18  1  0  0  0  0 
 12 49  1  0  0  0  0 
 13 18  1  0  0  0  0 
 16 19  1  0  0  0  0 
 17 20  2  0  0  0  0 
 17 21  1  0  0  0  0 
 18 22  1  0  0  0  0 
 19 23  2  0  0  0  0 
 19 24  1  0  0  0  0 
 20 25  1  0  0  0  0 
 20 26  1  0  0  0  0 
 21 27  1  0  0  0  0 
 22 26  1  0  0  0  0 
 24 28  2  0  0  0  0 
 24 29  1  0  0  0  0 
 25 27  1  0  0  0  0 
 25 30  2  0  0  0  0 
 27 31  2  0  0  0  0 
 28 32  1  0  0  0  0 
 29 33  2  0  0  0  0 
 30 34  1  0  0  0  0 
 31 35  1  0  0  0  0 
 32 36  1  0  0  0  0 
 32 37  2  0  0  0  0 
 33 37  1  0  0  0  0 
 33 38  1  0  0  0  0 
 34 35  2  0  0  0  0 
 35 39  1  0  0  0  0 
 36 40  1  0  0  0  0 
 37 41  1  0  0  0  0 
 38 42  1  0  0  0  0 
 39 43  1  0  0  0  0 
 41 44  1  0  0  0  0 
 44 45  1  0  0  0  0 
 44 46  2  0  0  0  0 
 45 47  1  0  0  0  0 
 47 48  1  0  0  0  0 
  4 52  1  0  0  0  0 
  5 53  1  0  0  0  0 
  5 54  1  0  0  0  0 
  5 55  1  0  0  0  0 
  7 56  1  0  0  0  0 
  8 57  1  0  0  0  0 
  8 58  1  0  0  0  0 
 11 59  1  0  0  0  0 
 13 60  1  0  0  0  0 
 13 61  1  0  0  0  0 
 14 62  1  0  0  0  0 
 14 63  1  0  0  0  0 
 15 64  1  0  0  0  0 
 15 65  1  0  0  0  0 
 15 66  1  0  0  0  0 
 21 67  1  0  0  0  0 
 22 68  1  0  0  0  0 
 22 69  1  0  0  0  0 
 26 70  1  0  0  0  0 
 26 71  1  0  0  0  0 
 28 72  1  0  0  0  0 
 29 73  1  0  0  0  0 
 30 74  1  0  0  0  0 
 31 75  1  0  0  0  0 
 34 76  1  0  0  0  0 
 40 77  1  0  0  0  0 
 40 78  1  0  0  0  0 
 40 79  1  0  0  0  0 
 42 80  1  0  0  0  0 
 42 81  1  0  0  0  0 
 42 82  1  0  0  0  0 
 43 83  1  0  0  0  0 
 43 84  1  0  0  0  0 
 43 85  1  0  0  0  0 
 47 86  1  0  0  0  0 
 47 87  1  0  0  0  0 
 48 88  1  0  0  0  0 
 48 89  1  0  0  0  0 
 48 90  1  0  0  0  0 
M  END
> <cdk:Title>
syrosingopine

> <Conformer>
1

> <SuperDrugID>
SD002294

$$$$
