formoterol
  CDK     0628171801

 49 50  0  0  0  0  0  0  0  0999 V2000
    2.8677    1.2385   -2.8958 C   0  0  1  0  0  0  0  0  0  0  0  0
    3.9224    2.2654   -2.4077 C   0  0  2  0  0  0  0  0  0  0  0  0
    3.2143   -0.0624   -2.4147 O   0  0  0  0  0  0  0  0  0  0  0  0
    1.4757    1.6352   -2.5181 C   0  0  0  0  0  0  0  0  0  0  0  0
    4.0016    2.2491   -0.9295 N   0  0  1  0  0  0  0  0  0  0  0  0
    0.7991    1.0632   -1.4123 C   0  0  0  0  0  0  0  0  0  0  0  0
    0.8038    2.6214   -3.2751 C   0  0  0  0  0  0  0  0  0  0  0  0
    4.8912    3.2509   -0.2845 C   0  0  1  0  0  0  0  0  0  0  0  0
   -0.5154    1.4569   -1.0517 C   0  0  0  0  0  0  0  0  0  0  0  0
   -0.4995    3.0189   -2.9406 C   0  0  0  0  0  0  0  0  0  0  0  0
    4.5325    3.2953    1.2317 C   0  0  1  0  0  0  0  0  0  0  0  0
    6.3891    2.8946   -0.4900 C   0  0  0  0  0  0  0  0  0  0  0  0
   -1.2369    0.9475   -0.0010 N   0  0  0  0  0  0  0  0  0  0  0  0
   -1.1542    2.4502   -1.8332 C   0  0  0  0  0  0  0  0  0  0  0  0
    3.1556    3.8045    1.4945 C   0  0  0  0  0  0  0  0  0  0  0  0
   -0.8532    0.1693    1.0455 C   0  0  0  0  0  0  0  0  0  0  0  0
   -2.4064    2.8874   -1.5297 O   0  0  0  0  0  0  0  0  0  0  0  0
    2.0963    2.9237    1.8188 C   0  0  0  0  0  0  0  0  0  0  0  0
    2.8836    5.1912    1.4268 C   0  0  0  0  0  0  0  0  0  0  0  0
    0.3066   -0.2515    1.2517 O   0  0  0  0  0  0  0  0  0  0  0  0
    0.8023    3.4178    2.0709 C   0  0  0  0  0  0  0  0  0  0  0  0
    1.5906    5.6845    1.6786 C   0  0  0  0  0  0  0  0  0  0  0  0
    0.5414    4.8011    1.9992 C   0  0  0  0  0  0  0  0  0  0  0  0
   -0.7026    5.2926    2.2947 O   0  0  0  0  0  0  0  0  0  0  0  0
   -1.5677    5.4122    1.1523 C   0  0  0  0  0  0  0  0  0  0  0  0
    2.9272    1.1726   -3.9859 H   0  0  0  0  0  0  0  0  0  0  0  0
    3.6620    3.2655   -2.7658 H   0  0  0  0  0  0  0  0  0  0  0  0
    4.8922    1.9934   -2.8293 H   0  0  0  0  0  0  0  0  0  0  0  0
    4.0988   -0.2517   -2.7918 H   0  0  0  0  0  0  0  0  0  0  0  0
    3.0555    2.4380   -0.5933 H   0  0  0  0  0  0  0  0  0  0  0  0
    1.2804    0.3487   -0.8709 H   0  0  0  0  0  0  0  0  0  0  0  0
    1.2590    3.0594   -4.0808 H   0  0  0  0  0  0  0  0  0  0  0  0
    4.7149    4.2428   -0.7150 H   0  0  0  0  0  0  0  0  0  0  0  0
   -0.9717    3.7272   -3.5085 H   0  0  0  0  0  0  0  0  0  0  0  0
    4.6515    2.2899    1.6476 H   0  0  0  0  0  0  0  0  0  0  0  0
    5.2422    3.9359    1.7633 H   0  0  0  0  0  0  0  0  0  0  0  0
    7.0258    3.5846    0.0677 H   0  0  0  0  0  0  0  0  0  0  0  0
    6.5912    1.8764   -0.1493 H   0  0  0  0  0  0  0  0  0  0  0  0
    6.6619    2.9715   -1.5435 H   0  0  0  0  0  0  0  0  0  0  0  0
   -2.1755    1.1945    0.0119 H   0  0  0  0  0  0  0  0  0  0  0  0
   -1.5678   -0.0777    1.7314 H   0  0  0  0  0  0  0  0  0  0  0  0
   -2.5549    3.6855   -2.0814 H   0  0  0  0  0  0  0  0  0  0  0  0
    2.2605    1.9154    1.8755 H   0  0  0  0  0  0  0  0  0  0  0  0
    3.6306    5.8535    1.2026 H   0  0  0  0  0  0  0  0  0  0  0  0
    0.0510    2.7694    2.3147 H   0  0  0  0  0  0  0  0  0  0  0  0
    1.4162    6.6910    1.6367 H   0  0  0  0  0  0  0  0  0  0  0  0
   -2.5270    5.8001    1.4962 H   0  0  0  0  0  0  0  0  0  0  0  0
   -1.1666    6.1090    0.4117 H   0  0  0  0  0  0  0  0  0  0  0  0
   -1.7429    4.4410    0.6857 H   0  0  0  0  0  0  0  0  0  0  0  0
  1  2  1  0  0  0  0 
  1  3  1  0  0  0  0 
  1  4  1  0  0  0  0 
  2  5  1  0  0  0  0 
  4  6  2  0  0  0  0 
  4  7  1  0  0  0  0 
  8  5  1  0  0  0  0 
  6  9  1  0  0  0  0 
  7 10  2  0  0  0  0 
  8 11  1  0  0  0  0 
  8 12  1  0  0  0  0 
  9 13  1  0  0  0  0 
  9 14  2  0  0  0  0 
 10 14  1  0  0  0  0 
 11 15  1  0  0  0  0 
 13 16  1  0  0  0  0 
 14 17  1  0  0  0  0 
 15 18  2  0  0  0  0 
 15 19  1  0  0  0  0 
 16 20  2  0  0  0  0 
 18 21  1  0  0  0  0 
 19 22  2  0  0  0  0 
 21 23  2  0  0  0  0 
 22 23  1  0  0  0  0 
 23 24  1  0  0  0  0 
 24 25  1  0  0  0  0 
  1 26  1  0  0  0  0 
  2 27  1  0  0  0  0 
  2 28  1  0  0  0  0 
  3 29  1  0  0  0  0 
  5 30  1  0  0  0  0 
  6 31  1  0  0  0  0 
  7 32  1  0  0  0  0 
  8 33  1  0  0  0  0 
 10 34  1  0  0  0  0 
 11 35  1  0  0  0  0 
 11 36  1  0  0  0  0 
 12 37  1  0  0  0  0 
 12 38  1  0  0  0  0 
 12 39  1  0  0  0  0 
 13 40  1  0  0  0  0 
 16 41  1  0  0  0  0 
 17 42  1  0  0  0  0 
 18 43  1  0  0  0  0 
 19 44  1  0  0  0  0 
 21 45  1  0  0  0  0 
 22 46  1  0  0  0  0 
 25 47  1  0  0  0  0 
 25 48  1  0  0  0  0 
 25 49  1  0  0  0  0 
M  END
> <cdk:Title>
formoterol

> <Conformer>
1

> <SuperDrugID>
SD001112

$$$$
