glyhexamide
  CDK     0628171801

 44 46  0  0  0  0  0  0  0  0999 V2000
   -0.4458    0.1034   -0.3118 S   0  0  1  0  0  0  0  0  0  0  0  0
   -0.8556    0.2127    1.3520 N   0  0  0  0  0  0  0  0  0  0  0  0
    1.1392    0.3050   -0.4742 O   0  0  0  0  0  0  0  0  0  0  0  0
   -0.8051   -1.3775   -0.8194 O   0  0  0  0  0  0  0  0  0  0  0  0
   -1.3100    1.2795   -1.3150 C   0  0  0  0  0  0  0  0  0  0  0  0
   -0.2263   -0.5054    2.3140 C   0  0  0  0  0  0  0  0  0  0  0  0
   -2.5140    1.8886   -0.8899 C   0  0  0  0  0  0  0  0  0  0  0  0
   -0.7874    1.5747   -2.5957 C   0  0  0  0  0  0  0  0  0  0  0  0
   -0.6927   -0.4177    3.5870 N   0  0  0  0  0  0  0  0  0  0  0  0
    0.7439   -1.2534    2.0391 O   0  0  0  0  0  0  0  0  0  0  0  0
   -3.1749    2.7805   -1.7588 C   0  0  0  0  0  0  0  0  0  0  0  0
   -1.4516    2.4696   -3.4536 C   0  0  0  0  0  0  0  0  0  0  0  0
   -0.2600   -1.2354    4.6836 C   0  0  2  0  0  0  0  0  0  0  0  0
   -2.6466    3.0682   -3.0179 C   0  0  0  0  0  0  0  0  0  0  0  0
   -4.4458    3.4758   -1.5396 C   0  0  2  0  0  0  0  0  0  0  0  0
   -0.7755   -2.6966    4.5077 C   0  0  1  0  0  0  0  0  0  0  0  0
   -0.7716   -0.6396    6.0263 C   0  0  2  0  0  0  0  0  0  0  0  0
   -3.4832    3.9938   -3.7768 C   0  0  1  0  0  0  0  0  0  0  0  0
   -4.5432    4.4466   -2.7442 C   0  0  2  0  0  0  0  0  0  0  0  0
   -0.4042   -3.6087    5.7051 C   0  0  2  0  0  0  0  0  0  0  0  0
   -0.3982   -1.5346    7.2396 C   0  0  2  0  0  0  0  0  0  0  0  0
   -0.8659   -3.0036    7.0563 C   0  0  2  0  0  0  0  0  0  0  0  0
   -1.5936    0.7893    1.6093 H   0  0  0  0  0  0  0  0  0  0  0  0
   -2.9101    1.6816    0.0288 H   0  0  0  0  0  0  0  0  0  0  0  0
    0.0769    1.1321   -2.9166 H   0  0  0  0  0  0  0  0  0  0  0  0
   -1.4015    0.2216    3.7589 H   0  0  0  0  0  0  0  0  0  0  0  0
   -1.0733    2.6758   -4.3807 H   0  0  0  0  0  0  0  0  0  0  0  0
    0.8337   -1.2376    4.7120 H   0  0  0  0  0  0  0  0  0  0  0  0
   -4.4484    4.0194   -0.5928 H   0  0  0  0  0  0  0  0  0  0  0  0
   -5.2679    2.7566   -1.5497 H   0  0  0  0  0  0  0  0  0  0  0  0
   -1.8634   -2.6835    4.3959 H   0  0  0  0  0  0  0  0  0  0  0  0
   -0.3540   -3.1352    3.5998 H   0  0  0  0  0  0  0  0  0  0  0  0
   -1.8594   -0.5236    5.9870 H   0  0  0  0  0  0  0  0  0  0  0  0
   -0.3369    0.3530    6.1757 H   0  0  0  0  0  0  0  0  0  0  0  0
   -2.8980    4.8396   -4.1468 H   0  0  0  0  0  0  0  0  0  0  0  0
   -3.9428    3.4665   -4.6167 H   0  0  0  0  0  0  0  0  0  0  0  0
   -4.3211    5.4661   -2.4158 H   0  0  0  0  0  0  0  0  0  0  0  0
   -5.5437    4.4391   -3.1829 H   0  0  0  0  0  0  0  0  0  0  0  0
    0.6791   -3.7604    5.7240 H   0  0  0  0  0  0  0  0  0  0  0  0
   -0.8761   -4.5884    5.5700 H   0  0  0  0  0  0  0  0  0  0  0  0
   -0.8590   -1.1248    8.1423 H   0  0  0  0  0  0  0  0  0  0  0  0
    0.6859   -1.5173    7.3826 H   0  0  0  0  0  0  0  0  0  0  0  0
   -0.4681   -3.6124    7.8734 H   0  0  0  0  0  0  0  0  0  0  0  0
   -1.9575   -3.0455    7.1116 H   0  0  0  0  0  0  0  0  0  0  0  0
  1  2  1  0  0  0  0 
  1  3  2  0  0  0  0 
  1  4  2  0  0  0  0 
  1  5  1  0  0  0  0 
  2  6  1  0  0  0  0 
  5  7  2  0  0  0  0 
  5  8  1  0  0  0  0 
  6  9  1  0  0  0  0 
  6 10  2  0  0  0  0 
  7 11  1  0  0  0  0 
  8 12  2  0  0  0  0 
  9 13  1  0  0  0  0 
 11 14  2  0  0  0  0 
 11 15  1  0  0  0  0 
 12 14  1  0  0  0  0 
 13 16  1  0  0  0  0 
 13 17  1  0  0  0  0 
 14 18  1  0  0  0  0 
 15 19  1  0  0  0  0 
 16 20  1  0  0  0  0 
 17 21  1  0  0  0  0 
 18 19  1  0  0  0  0 
 20 22  1  0  0  0  0 
 21 22  1  0  0  0  0 
  2 23  1  0  0  0  0 
  7 24  1  0  0  0  0 
  8 25  1  0  0  0  0 
  9 26  1  0  0  0  0 
 12 27  1  0  0  0  0 
 13 28  1  0  0  0  0 
 15 29  1  0  0  0  0 
 15 30  1  0  0  0  0 
 16 31  1  0  0  0  0 
 16 32  1  0  0  0  0 
 17 33  1  0  0  0  0 
 17 34  1  0  0  0  0 
 18 35  1  0  0  0  0 
 18 36  1  0  0  0  0 
 19 37  1  0  0  0  0 
 19 38  1  0  0  0  0 
 20 39  1  0  0  0  0 
 20 40  1  0  0  0  0 
 21 41  1  0  0  0  0 
 21 42  1  0  0  0  0 
 22 43  1  0  0  0  0 
 22 44  1  0  0  0  0 
M  END
> <cdk:Title>
glyhexamide

> <Conformer>
1

> <SuperDrugID>
SD002826

$$$$
