indoprofen
  CDK     0628171801

 36 38  0  0  0  0  0  0  0  0999 V2000
   -0.0062   -0.4333   -1.3523 O   0  0  0  0  0  0  0  0  0  0  0  0
   -0.1917    0.0601   -0.2169 C   0  0  0  0  0  0  0  0  0  0  0  0
    0.1200   -0.4771    1.0144 N   0  0  0  0  0  0  0  0  0  0  0  0
   -0.7757    1.3098   -0.0616 C   0  0  0  0  0  0  0  0  0  0  0  0
   -0.1950    0.4986    2.0365 C   0  0  2  0  0  0  0  0  0  0  0  0
    0.6148   -1.7543    1.3023 C   0  0  0  0  0  0  0  0  0  0  0  0
   -0.7903    1.6036    1.2934 C   0  0  0  0  0  0  0  0  0  0  0  0
   -1.3089    2.2097   -1.0047 C   0  0  0  0  0  0  0  0  0  0  0  0
    1.0717   -2.0829    2.6073 C   0  0  0  0  0  0  0  0  0  0  0  0
    0.6498   -2.8065    0.3485 C   0  0  0  0  0  0  0  0  0  0  0  0
   -1.3318    2.8111    1.7706 C   0  0  0  0  0  0  0  0  0  0  0  0
   -1.8607    3.4235   -0.5422 C   0  0  0  0  0  0  0  0  0  0  0  0
    1.4470   -3.3904    2.9603 C   0  0  0  0  0  0  0  0  0  0  0  0
    1.0274   -4.1161    0.6961 C   0  0  0  0  0  0  0  0  0  0  0  0
   -1.8706    3.7234    0.8390 C   0  0  0  0  0  0  0  0  0  0  0  0
    1.3858   -4.4457    2.0225 C   0  0  0  0  0  0  0  0  0  0  0  0
    1.6570   -5.8684    2.4115 C   0  0  2  0  0  0  0  0  0  0  0  0
    0.6477   -6.3564    3.3867 C   0  0  0  0  0  0  0  0  0  0  0  0
    3.1066   -6.0890    2.9174 C   0  0  0  0  0  0  0  0  0  0  0  0
    0.6249   -5.9130    4.6658 O   0  0  0  0  0  0  0  0  0  0  0  0
   -0.2225   -7.1930    3.0506 O   0  0  0  0  0  0  0  0  0  0  0  0
    0.7052    0.8431    2.5514 H   0  0  0  0  0  0  0  0  0  0  0  0
   -0.9198    0.1046    2.7527 H   0  0  0  0  0  0  0  0  0  0  0  0
   -1.3035    1.9894   -2.0028 H   0  0  0  0  0  0  0  0  0  0  0  0
    1.1258   -1.3738    3.3401 H   0  0  0  0  0  0  0  0  0  0  0  0
    0.3777   -2.6566   -0.6202 H   0  0  0  0  0  0  0  0  0  0  0  0
   -1.3377    3.0225    2.7703 H   0  0  0  0  0  0  0  0  0  0  0  0
   -2.2559    4.0893   -1.2107 H   0  0  0  0  0  0  0  0  0  0  0  0
    1.7487   -3.5658    3.9205 H   0  0  0  0  0  0  0  0  0  0  0  0
    1.0192   -4.8349   -0.0330 H   0  0  0  0  0  0  0  0  0  0  0  0
   -2.2685    4.6067    1.1651 H   0  0  0  0  0  0  0  0  0  0  0  0
    1.5597   -6.5044    1.5255 H   0  0  0  0  0  0  0  0  0  0  0  0
    3.2793   -7.1491    3.1173 H   0  0  0  0  0  0  0  0  0  0  0  0
    3.8231   -5.7700    2.1567 H   0  0  0  0  0  0  0  0  0  0  0  0
    3.2965   -5.5298    3.8357 H   0  0  0  0  0  0  0  0  0  0  0  0
   -0.0509   -6.2525    5.2893 H   0  0  0  0  0  0  0  0  0  0  0  0
  1  2  2  0  0  0  0 
  2  3  1  0  0  0  0 
  2  4  1  0  0  0  0 
  3  5  1  0  0  0  0 
  3  6  1  0  0  0  0 
  4  7  2  0  0  0  0 
  4  8  1  0  0  0  0 
  5  7  1  0  0  0  0 
  6  9  2  0  0  0  0 
  6 10  1  0  0  0  0 
  7 11  1  0  0  0  0 
  8 12  2  0  0  0  0 
  9 13  1  0  0  0  0 
 10 14  2  0  0  0  0 
 11 15  2  0  0  0  0 
 12 15  1  0  0  0  0 
 13 16  2  0  0  0  0 
 14 16  1  0  0  0  0 
 17 16  1  0  0  0  0 
 17 18  1  0  0  0  0 
 17 19  1  0  0  0  0 
 18 20  1  0  0  0  0 
 18 21  2  0  0  0  0 
  5 22  1  0  0  0  0 
  5 23  1  0  0  0  0 
  8 24  1  0  0  0  0 
  9 25  1  0  0  0  0 
 10 26  1  0  0  0  0 
 11 27  1  0  0  0  0 
 12 28  1  0  0  0  0 
 13 29  1  0  0  0  0 
 14 30  1  0  0  0  0 
 15 31  1  0  0  0  0 
 17 32  1  0  0  0  0 
 19 33  1  0  0  0  0 
 19 34  1  0  0  0  0 
 19 35  1  0  0  0  0 
 20 36  1  0  0  0  0 
M  END
> <cdk:Title>
indoprofen

> <Conformer>
1

> <SuperDrugID>
SD001278

$$$$
