prasterone
  CDK     0628171802

 49 52  0  0  0  0  0  0  0  0999 V2000
   -4.4078   -4.5046   -0.2633 C   0  0  0  0  0  0  0  0  0  0  0  0
   -4.1706   -3.9508    1.1921 C   0  0  1  0  0  0  0  0  0  0  0  0
   -2.9343   -2.9353    1.2083 C   0  0  2  0  0  0  0  0  0  0  0  0
   -5.4430   -3.3041    1.6602 C   0  0  0  0  0  0  0  0  0  0  0  0
   -3.8395   -5.1552    2.1595 C   0  0  2  0  0  0  0  0  0  0  0  0
   -3.3792   -1.5282    0.6641 C   0  0  2  0  0  0  0  0  0  0  0  0
   -1.5832   -3.4488    0.5715 C   0  0  1  0  0  0  0  0  0  0  0  0
   -5.5726   -1.9658    1.8160 C   0  0  0  0  0  0  0  0  0  0  0  0
   -6.6108   -4.1553    1.9738 C   0  0  1  0  0  0  0  0  0  0  0  0
   -5.0284   -6.1146    2.4328 C   0  0  1  0  0  0  0  0  0  0  0  0
   -2.1674   -0.5502    0.6299 C   0  0  1  0  0  0  0  0  0  0  0  0
   -4.5375   -0.9891    1.5457 C   0  0  2  0  0  0  0  0  0  0  0  0
   -0.4664   -2.3685    0.4003 C   0  0  1  0  0  0  0  0  0  0  0  0
   -6.2555   -5.3169    2.9354 C   0  0  2  0  0  0  0  0  0  0  0  0
   -1.0240   -1.0806   -0.2862 C   0  0  1  0  0  0  0  0  0  0  0  0
   -2.3600    0.9180    0.1900 C   0  0  2  0  0  0  0  0  0  0  0  0
   -7.3749   -6.1887    3.0769 O   0  0  0  0  0  0  0  0  0  0  0  0
   -1.3957   -1.3478   -1.7931 C   0  0  0  0  0  0  0  0  0  0  0  0
   -0.1586    0.1180   -0.2694 C   0  0  0  0  0  0  0  0  0  0  0  0
   -0.9097    1.3744   -0.1012 C   0  0  1  0  0  0  0  0  0  0  0  0
    1.0833    0.0867   -0.4316 O   0  0  0  0  0  0  0  0  0  0  0  0
   -3.7699   -1.6224   -0.3501 H   0  0  0  0  0  0  0  0  0  0  0  0
   -2.6761   -2.7650    2.2608 H   0  0  0  0  0  0  0  0  0  0  0  0
   -1.8066   -0.4868    1.6699 H   0  0  0  0  0  0  0  0  0  0  0  0
   -5.3033   -5.1171   -0.3420 H   0  0  0  0  0  0  0  0  0  0  0  0
   -4.5085   -3.6975   -0.9889 H   0  0  0  0  0  0  0  0  0  0  0  0
   -3.5903   -5.1490   -0.5822 H   0  0  0  0  0  0  0  0  0  0  0  0
   -3.5131   -4.7686    3.1298 H   0  0  0  0  0  0  0  0  0  0  0  0
   -3.0142   -5.7491    1.7603 H   0  0  0  0  0  0  0  0  0  0  0  0
   -1.1751   -4.2531    1.1867 H   0  0  0  0  0  0  0  0  0  0  0  0
   -1.7617   -3.8738   -0.4121 H   0  0  0  0  0  0  0  0  0  0  0  0
   -6.4356   -1.5887    2.1407 H   0  0  0  0  0  0  0  0  0  0  0  0
   -7.4302   -3.5969    2.4370 H   0  0  0  0  0  0  0  0  0  0  0  0
   -7.0202   -4.5611    1.0477 H   0  0  0  0  0  0  0  0  0  0  0  0
   -5.2832   -6.6657    1.5233 H   0  0  0  0  0  0  0  0  0  0  0  0
   -4.7384   -6.8462    3.1921 H   0  0  0  0  0  0  0  0  0  0  0  0
   -4.9887   -0.1306    1.0378 H   0  0  0  0  0  0  0  0  0  0  0  0
   -4.1562   -0.6468    2.5117 H   0  0  0  0  0  0  0  0  0  0  0  0
   -0.0512   -2.1249    1.3828 H   0  0  0  0  0  0  0  0  0  0  0  0
    0.3553   -2.7797   -0.1923 H   0  0  0  0  0  0  0  0  0  0  0  0
   -6.0311   -4.9042    3.9234 H   0  0  0  0  0  0  0  0  0  0  0  0
   -2.8175    1.5183    0.9806 H   0  0  0  0  0  0  0  0  0  0  0  0
   -2.9814    0.9845   -0.7059 H   0  0  0  0  0  0  0  0  0  0  0  0
   -8.0974   -5.6180    3.4149 H   0  0  0  0  0  0  0  0  0  0  0  0
   -0.4956   -1.5430   -2.3814 H   0  0  0  0  0  0  0  0  0  0  0  0
   -1.9073   -0.4952   -2.2418 H   0  0  0  0  0  0  0  0  0  0  0  0
   -2.0523   -2.2065   -1.9121 H   0  0  0  0  0  0  0  0  0  0  0  0
   -0.8580    1.9815   -1.0076 H   0  0  0  0  0  0  0  0  0  0  0  0
   -0.5044    1.9373    0.7421 H   0  0  0  0  0  0  0  0  0  0  0  0
  2  1  1  0  0  0  0 
  3  2  1  0  0  0  0 
  2  4  1  0  0  0  0 
  2  5  1  0  0  0  0 
  6  3  1  0  0  0  0 
  3  7  1  0  0  0  0 
  3 23  1  0  0  0  0 
  4  8  2  0  0  0  0 
  4  9  1  0  0  0  0 
  5 10  1  0  0  0  0 
 11  6  1  0  0  0  0 
  6 12  1  0  0  0  0 
  6 22  1  0  0  0  0 
  7 13  1  0  0  0  0 
  8 12  1  0  0  0  0 
 14  9  1  0  0  0  0 
 14 10  1  0  0  0  0 
 15 11  1  0  0  0  0 
 11 16  1  0  0  0  0 
 11 24  1  0  0  0  0 
 15 13  1  0  0  0  0 
 14 17  1  0  0  0  0 
 15 18  1  0  0  0  0 
 15 19  1  0  0  0  0 
 16 20  1  0  0  0  0 
 19 20  1  0  0  0  0 
 19 21  2  0  0  0  0 
  1 25  1  0  0  0  0 
  1 26  1  0  0  0  0 
  1 27  1  0  0  0  0 
  5 28  1  0  0  0  0 
  5 29  1  0  0  0  0 
  7 30  1  0  0  0  0 
  7 31  1  0  0  0  0 
  8 32  1  0  0  0  0 
  9 33  1  0  0  0  0 
  9 34  1  0  0  0  0 
 10 35  1  0  0  0  0 
 10 36  1  0  0  0  0 
 12 37  1  0  0  0  0 
 12 38  1  0  0  0  0 
 13 39  1  0  0  0  0 
 13 40  1  0  0  0  0 
 14 41  1  0  0  0  0 
 16 42  1  0  0  0  0 
 16 43  1  0  0  0  0 
 17 44  1  0  0  0  0 
 18 45  1  0  0  0  0 
 18 46  1  0  0  0  0 
 18 47  1  0  0  0  0 
 20 48  1  0  0  0  0 
 20 49  1  0  0  0  0 
M  END
> <cdk:Title>
prasterone

> <Conformer>
1

> <SuperDrugID>
SD000701

$$$$
