desoxycorticosterone acetate
  CDK     0628171802

 59 62  0  0  0  0  0  0  0  0999 V2000
   -2.2747   -9.5160   -4.2981 C   0  0  0  0  0  0  0  0  0  0  0  0
   -2.2275   -9.9751   -2.7897 C   0  0  2  0  0  0  0  0  0  0  0  0
   -3.2921   -9.3018   -1.8600 C   0  0  2  0  0  0  0  0  0  0  0  0
   -0.9053   -9.4777   -2.0967 C   0  0  1  0  0  0  0  0  0  0  0  0
   -2.4869  -11.5191   -2.7074 C   0  0  2  0  0  0  0  0  0  0  0  0
   -4.7615   -9.5374   -2.3406 C   0  0  1  0  0  0  0  0  0  0  0  0
   -2.7751   -7.8621   -1.6710 C   0  0  1  0  0  0  0  0  0  0  0  0
    0.3601   -9.5674   -2.8915 C   0  0  0  0  0  0  0  0  0  0  0  0
   -1.2371   -8.0323   -1.5997 C   0  0  1  0  0  0  0  0  0  0  0  0
   -3.9507  -11.9124   -3.0892 C   0  0  2  0  0  0  0  0  0  0  0  0
   -5.0779  -11.0824   -2.3663 C   0  0  2  0  0  0  0  0  0  0  0  0
   -5.8117   -8.8229   -1.4427 C   0  0  1  0  0  0  0  0  0  0  0  0
    1.3242  -10.6759   -2.7318 C   0  0  2  0  0  0  0  0  0  0  0  0
    0.6180   -8.6976   -3.7583 O   0  0  0  0  0  0  0  0  0  0  0  0
   -6.5753  -11.4098   -2.8225 C   0  0  2  0  0  0  0  0  0  0  0  0
   -7.2436   -9.0908   -1.9618 C   0  0  2  0  0  0  0  0  0  0  0  0
    1.8701  -10.6606   -1.4050 O   0  0  0  0  0  0  0  0  0  0  0  0
   -6.8011  -11.1755   -4.3607 C   0  0  0  0  0  0  0  0  0  0  0  0
   -7.5430  -10.5279   -2.0901 C   0  0  0  0  0  0  0  0  0  0  0  0
   -6.8718  -12.9320   -2.5052 C   0  0  1  0  0  0  0  0  0  0  0  0
    3.1751  -10.4936   -1.0354 C   0  0  0  0  0  0  0  0  0  0  0  0
   -8.7080  -10.9955   -1.5807 C   0  0  0  0  0  0  0  0  0  0  0  0
   -8.3789  -13.2890   -2.5125 C   0  0  1  0  0  0  0  0  0  0  0  0
    3.5175  -10.5876    0.3904 C   0  0  0  0  0  0  0  0  0  0  0  0
    4.0744  -10.2652   -1.8790 O   0  0  0  0  0  0  0  0  0  0  0  0
   -9.1411  -12.3030   -1.7208 C   0  0  0  0  0  0  0  0  0  0  0  0
  -10.2273  -12.6555   -1.2033 O   0  0  0  0  0  0  0  0  0  0  0  0
   -3.2301   -9.7219   -4.7739 H   0  0  0  0  0  0  0  0  0  0  0  0
   -2.0851   -8.4469   -4.3993 H   0  0  0  0  0  0  0  0  0  0  0  0
   -1.5204  -10.0508   -4.8783 H   0  0  0  0  0  0  0  0  0  0  0  0
   -3.2351   -9.7547   -0.8595 H   0  0  0  0  0  0  0  0  0  0  0  0
   -0.7557  -10.0847   -1.1952 H   0  0  0  0  0  0  0  0  0  0  0  0
   -2.2912  -11.8783   -1.6923 H   0  0  0  0  0  0  0  0  0  0  0  0
   -1.7922  -12.0477   -3.3663 H   0  0  0  0  0  0  0  0  0  0  0  0
   -4.8678   -9.1148   -3.3411 H   0  0  0  0  0  0  0  0  0  0  0  0
   -3.0603   -7.2351   -2.5201 H   0  0  0  0  0  0  0  0  0  0  0  0
   -3.1631   -7.4097   -0.7549 H   0  0  0  0  0  0  0  0  0  0  0  0
   -0.8892   -7.9053   -0.5698 H   0  0  0  0  0  0  0  0  0  0  0  0
   -0.7633   -7.2554   -2.2063 H   0  0  0  0  0  0  0  0  0  0  0  0
   -4.0700  -12.9700   -2.8422 H   0  0  0  0  0  0  0  0  0  0  0  0
   -4.0576  -11.8266   -4.1697 H   0  0  0  0  0  0  0  0  0  0  0  0
   -5.0085  -11.3956   -1.3177 H   0  0  0  0  0  0  0  0  0  0  0  0
   -5.7289   -9.1722   -0.4085 H   0  0  0  0  0  0  0  0  0  0  0  0
   -5.6363   -7.7435   -1.4487 H   0  0  0  0  0  0  0  0  0  0  0  0
    2.1159  -10.6001   -3.4830 H   0  0  0  0  0  0  0  0  0  0  0  0
    0.8147  -11.6285   -2.8879 H   0  0  0  0  0  0  0  0  0  0  0  0
   -7.3576   -8.6253   -2.9447 H   0  0  0  0  0  0  0  0  0  0  0  0
   -7.9354   -8.5695   -1.2918 H   0  0  0  0  0  0  0  0  0  0  0  0
   -6.2592  -11.9083   -4.9601 H   0  0  0  0  0  0  0  0  0  0  0  0
   -6.4749  -10.1843   -4.6744 H   0  0  0  0  0  0  0  0  0  0  0  0
   -7.8577  -11.2675   -4.6236 H   0  0  0  0  0  0  0  0  0  0  0  0
   -6.3589  -13.5901   -3.2127 H   0  0  0  0  0  0  0  0  0  0  0  0
   -6.4956  -13.1805   -1.5067 H   0  0  0  0  0  0  0  0  0  0  0  0
   -9.3123  -10.3757   -1.0893 H   0  0  0  0  0  0  0  0  0  0  0  0
   -8.7640  -13.3011   -3.5352 H   0  0  0  0  0  0  0  0  0  0  0  0
   -8.5105  -14.2906   -2.0933 H   0  0  0  0  0  0  0  0  0  0  0  0
    4.5887  -10.4517    0.5504 H   0  0  0  0  0  0  0  0  0  0  0  0
    2.9791   -9.8236    0.9537 H   0  0  0  0  0  0  0  0  0  0  0  0
    3.2347  -11.5734    0.7608 H   0  0  0  0  0  0  0  0  0  0  0  0
  2  1  1  0  0  0  0 
  2  3  1  0  0  0  0 
  2  4  1  0  0  0  0 
  2  5  1  0  0  0  0 
  3  6  1  0  0  0  0 
  3  7  1  0  0  0  0 
  4  8  1  0  0  0  0 
  4  9  1  0  0  0  0 
  5 10  1  0  0  0  0 
  6 11  1  0  0  0  0 
  6 12  1  0  0  0  0 
  7  9  1  0  0  0  0 
  8 13  1  0  0  0  0 
  8 14  2  0  0  0  0 
 11 10  1  0  0  0  0 
 11 15  1  0  0  0  0 
 12 16  1  0  0  0  0 
 13 17  1  0  0  0  0 
 15 18  1  0  0  0  0 
 15 19  1  0  0  0  0 
 15 20  1  0  0  0  0 
 16 19  1  0  0  0  0 
 17 21  1  0  0  0  0 
 19 22  2  0  0  0  0 
 20 23  1  0  0  0  0 
 21 24  1  0  0  0  0 
 21 25  2  0  0  0  0 
 22 26  1  0  0  0  0 
 23 26  1  0  0  0  0 
 26 27  2  0  0  0  0 
 28  1  1  0  0  0  0 
 29  1  1  0  0  0  0 
 30  1  1  0  0  0  0 
  3 31  1  0  0  0  0 
  4 32  1  0  0  0  0 
 33  5  1  0  0  0  0 
 34  5  1  0  0  0  0 
  6 35  1  0  0  0  0 
 36  7  1  0  0  0  0 
 37  7  1  0  0  0  0 
 38  9  1  0  0  0  0 
 39  9  1  0  0  0  0 
 40 10  1  0  0  0  0 
 41 10  1  0  0  0  0 
 11 42  1  0  0  0  0 
 43 12  1  0  0  0  0 
 44 12  1  0  0  0  0 
 45 13  1  0  0  0  0 
 46 13  1  0  0  0  0 
 47 16  1  0  0  0  0 
 48 16  1  0  0  0  0 
 49 18  1  0  0  0  0 
 50 18  1  0  0  0  0 
 51 18  1  0  0  0  0 
 52 20  1  0  0  0  0 
 53 20  1  0  0  0  0 
 54 22  1  0  0  0  0 
 55 23  1  0  0  0  0 
 56 23  1  0  0  0  0 
 57 24  1  0  0  0  0 
 58 24  1  0  0  0  0 
 59 24  1  0  0  0  0 
M  END
> <cdk:Title>
desoxycorticosterone acetate

> <Conformer>
1

> <SuperDrugID>
SD000725

$$$$
