moracizine
  CDK     0628171801

 55 58  0  0  0  0  0  0  0  0999 V2000
  -13.2786    0.4101   -1.6628 C   0  0  0  0  0  0  0  0  0  0  0  0
  -12.4330   -0.4148   -0.6751 C   0  0  1  0  0  0  0  0  0  0  0  0
  -11.3284   -1.0130   -1.3630 O   0  0  0  0  0  0  0  0  0  0  0  0
  -10.3257   -1.7387   -0.7973 C   0  0  0  0  0  0  0  0  0  0  0  0
  -10.3184   -1.9837    0.4334 O   0  0  0  0  0  0  0  0  0  0  0  0
   -9.3160   -2.1138   -1.6197 N   0  0  0  0  0  0  0  0  0  0  0  0
   -8.1763   -2.7312   -1.2187 C   0  0  0  0  0  0  0  0  0  0  0  0
   -8.1713   -3.9724   -0.5455 C   0  0  0  0  0  0  0  0  0  0  0  0
   -6.9542   -4.5434   -0.1257 C   0  0  0  0  0  0  0  0  0  0  0  0
   -5.7429   -3.8750   -0.3814 C   0  0  0  0  0  0  0  0  0  0  0  0
   -4.1827   -4.6106   -0.0084 S   0  0  0  0  0  0  0  0  0  0  0  0
   -3.1768   -3.9409   -1.2993 C   0  0  0  0  0  0  0  0  0  0  0  0
   -2.1182   -4.6849   -1.8523 C   0  0  0  0  0  0  0  0  0  0  0  0
   -1.4226   -4.1824   -2.9659 C   0  0  0  0  0  0  0  0  0  0  0  0
   -1.7887   -2.9472   -3.5300 C   0  0  0  0  0  0  0  0  0  0  0  0
   -2.8465   -2.2056   -2.9754 C   0  0  0  0  0  0  0  0  0  0  0  0
   -3.5251   -2.6678   -1.8240 C   0  0  0  0  0  0  0  0  0  0  0  0
   -4.5357   -1.9411   -1.2220 N   0  0  0  0  0  0  0  0  0  0  0  0
   -4.3626   -0.6437   -0.7318 C   0  0  0  0  0  0  0  0  0  0  0  0
   -5.3098   -0.0900   -0.1181 O   0  0  0  0  0  0  0  0  0  0  0  0
   -3.1259    0.1900   -0.8222 C   0  0  2  0  0  0  0  0  0  0  0  0
   -1.8789   -0.3631   -0.0786 C   0  0  1  0  0  0  0  0  0  0  0  0
   -2.1249   -0.7990    1.3350 N   0  0  2  0  0  0  0  0  0  0  0  0
   -2.4203    0.3233    2.2833 C   0  0  2  0  0  0  0  0  0  0  0  0
   -2.7075   -0.2188    3.7034 C   0  0  2  0  0  0  0  0  0  0  0  0
   -1.6331   -1.0598    4.1624 O   0  0  0  0  0  0  0  0  0  0  0  0
   -1.3698   -2.1749    3.2893 C   0  0  2  0  0  0  0  0  0  0  0  0
   -1.0403   -1.6914    1.8576 C   0  0  1  0  0  0  0  0  0  0  0  0
   -5.7323   -2.6155   -1.0288 C   0  0  0  0  0  0  0  0  0  0  0  0
   -6.9570   -2.0770   -1.4794 C   0  0  0  0  0  0  0  0  0  0  0  0
  -12.6383    1.0836   -2.2347 H   0  0  0  0  0  0  0  0  0  0  0  0
  -14.0133    1.0046   -1.1171 H   0  0  0  0  0  0  0  0  0  0  0  0
  -13.8020   -0.2523   -2.3524 H   0  0  0  0  0  0  0  0  0  0  0  0
  -12.0439    0.2499    0.1011 H   0  0  0  0  0  0  0  0  0  0  0  0
  -13.0534   -1.1858   -0.2066 H   0  0  0  0  0  0  0  0  0  0  0  0
   -9.3704   -1.8341   -2.5483 H   0  0  0  0  0  0  0  0  0  0  0  0
   -9.0506   -4.4715   -0.3768 H   0  0  0  0  0  0  0  0  0  0  0  0
   -6.9508   -5.4493    0.3494 H   0  0  0  0  0  0  0  0  0  0  0  0
   -1.8661   -5.5953   -1.4636 H   0  0  0  0  0  0  0  0  0  0  0  0
   -0.6578   -4.7229   -3.3761 H   0  0  0  0  0  0  0  0  0  0  0  0
   -1.2904   -2.5888   -4.3478 H   0  0  0  0  0  0  0  0  0  0  0  0
   -3.1222   -1.3305   -3.4228 H   0  0  0  0  0  0  0  0  0  0  0  0
   -3.3273    1.1914   -0.4328 H   0  0  0  0  0  0  0  0  0  0  0  0
   -2.8709    0.3403   -1.8697 H   0  0  0  0  0  0  0  0  0  0  0  0
   -1.4991   -1.2041   -0.6612 H   0  0  0  0  0  0  0  0  0  0  0  0
   -1.0955    0.3995   -0.0997 H   0  0  0  0  0  0  0  0  0  0  0  0
   -3.3009    0.8814    1.9591 H   0  0  0  0  0  0  0  0  0  0  0  0
   -1.5729    1.0148    2.3309 H   0  0  0  0  0  0  0  0  0  0  0  0
   -3.6519   -0.7703    3.7052 H   0  0  0  0  0  0  0  0  0  0  0  0
   -2.8049    0.6205    4.3964 H   0  0  0  0  0  0  0  0  0  0  0  0
   -2.2284   -2.8520    3.2653 H   0  0  0  0  0  0  0  0  0  0  0  0
   -0.5170   -2.7255    3.6911 H   0  0  0  0  0  0  0  0  0  0  0  0
   -0.9362   -2.5741    1.2216 H   0  0  0  0  0  0  0  0  0  0  0  0
   -0.0821   -1.1621    1.8698 H   0  0  0  0  0  0  0  0  0  0  0  0
   -6.9566   -1.1919   -1.9921 H   0  0  0  0  0  0  0  0  0  0  0  0
  1  2  1  0  0  0  0 
  2  3  1  0  0  0  0 
  3  4  1  0  0  0  0 
  4  5  2  0  0  0  0 
  4  6  1  0  0  0  0 
  6  7  1  0  0  0  0 
  7  8  2  0  0  0  0 
  8  9  1  0  0  0  0 
  9 10  2  0  0  0  0 
 10 11  1  0  0  0  0 
 11 12  1  0  0  0  0 
 12 13  2  0  0  0  0 
 13 14  1  0  0  0  0 
 14 15  2  0  0  0  0 
 15 16  1  0  0  0  0 
 16 17  2  0  0  0  0 
 12 17  1  0  0  0  0 
 17 18  1  0  0  0  0 
 18 19  1  0  0  0  0 
 19 20  2  0  0  0  0 
 19 21  1  0  0  0  0 
 21 22  1  0  0  0  0 
 22 23  1  0  0  0  0 
 23 24  1  0  0  0  0 
 24 25  1  0  0  0  0 
 25 26  1  0  0  0  0 
 26 27  1  0  0  0  0 
 27 28  1  0  0  0  0 
 23 28  1  0  0  0  0 
 18 29  1  0  0  0  0 
 10 29  1  0  0  0  0 
 29 30  2  0  0  0  0 
  7 30  1  0  0  0  0 
 31  1  1  0  0  0  0 
 32  1  1  0  0  0  0 
 33  1  1  0  0  0  0 
 34  2  1  0  0  0  0 
 35  2  1  0  0  0  0 
 36  6  1  0  0  0  0 
 37  8  1  0  0  0  0 
 38  9  1  0  0  0  0 
 39 13  1  0  0  0  0 
 40 14  1  0  0  0  0 
 41 15  1  0  0  0  0 
 42 16  1  0  0  0  0 
 43 21  1  0  0  0  0 
 44 21  1  0  0  0  0 
 45 22  1  0  0  0  0 
 46 22  1  0  0  0  0 
 47 24  1  0  0  0  0 
 48 24  1  0  0  0  0 
 49 25  1  0  0  0  0 
 50 25  1  0  0  0  0 
 51 27  1  0  0  0  0 
 52 27  1  0  0  0  0 
 53 28  1  0  0  0  0 
 54 28  1  0  0  0  0 
 55 30  1  0  0  0  0 
M  END
> <cdk:Title>
moracizine

> <Conformer>
1

> <SuperDrugID>
SD001640

$$$$
