homonicotinic acid
  CDK     0628171801

 17 17  0  0  0  0  0  0  0  0999 V2000
   -2.5174    2.2831    2.3510 O   0  0  0  0  0  0  0  0  0  0  0  0
   -2.7755    1.3493    1.4043 C   0  0  0  0  0  0  0  0  0  0  0  0
   -3.5306    0.3970    1.7051 O   0  0  0  0  0  0  0  0  0  0  0  0
   -2.1886    1.4545    0.0538 C   0  0  1  0  0  0  0  0  0  0  0  0
   -0.7066    1.3437    0.0877 C   0  0  0  0  0  0  0  0  0  0  0  0
   -0.0518    0.1196   -0.1859 C   0  0  0  0  0  0  0  0  0  0  0  0
    1.3033    0.0367   -0.1443 N   0  0  0  0  0  0  0  0  0  0  0  0
    2.0909    1.1013    0.1497 C   0  0  0  0  0  0  0  0  0  0  0  0
    1.5053    2.3490    0.4219 C   0  0  0  0  0  0  0  0  0  0  0  0
    0.1031    2.4633    0.3920 C   0  0  0  0  0  0  0  0  0  0  0  0
   -2.9172    2.1982    3.2428 H   0  0  0  0  0  0  0  0  0  0  0  0
   -2.6050    0.6745   -0.5897 H   0  0  0  0  0  0  0  0  0  0  0  0
   -2.4817    2.4102   -0.3854 H   0  0  0  0  0  0  0  0  0  0  0  0
   -0.5853   -0.7197   -0.4159 H   0  0  0  0  0  0  0  0  0  0  0  0
    3.1063    0.9908    0.1704 H   0  0  0  0  0  0  0  0  0  0  0  0
    2.0887    3.1600    0.6380 H   0  0  0  0  0  0  0  0  0  0  0  0
   -0.3244    3.3709    0.5895 H   0  0  0  0  0  0  0  0  0  0  0  0
  1  2  1  0  0  0  0 
  2  3  2  0  0  0  0 
  2  4  1  0  0  0  0 
  4  5  1  0  0  0  0 
  5  6  2  0  0  0  0 
  6  7  1  0  0  0  0 
  7  8  2  0  0  0  0 
  8  9  1  0  0  0  0 
  9 10  2  0  0  0  0 
  5 10  1  0  0  0  0 
  1 11  1  0  0  0  0 
  4 12  1  0  0  0  0 
  4 13  1  0  0  0  0 
  6 14  1  0  0  0  0 
  8 15  1  0  0  0  0 
  9 16  1  0  0  0  0 
 10 17  1  0  0  0  0 
M  END
> <cdk:Title>
homonicotinic acid

> <Conformer>
1

> <SuperDrugID>
SD003018

$$$$
