ioxitalamic acid
  CDK     0628171801

 33 33  0  0  0  0  0  0  0  0999 V2000
    0.6349   -0.0081    3.0298 C   0  0  0  0  0  0  0  0  0  0  0  0
    1.2107   -0.6084    1.9497 N   0  0  0  0  0  0  0  0  0  0  0  0
   -0.3463    0.7632    2.9105 O   0  0  0  0  0  0  0  0  0  0  0  0
    1.1338   -0.2575    4.3276 C   0  0  0  0  0  0  0  0  0  0  0  0
    0.7526   -0.5375    0.5946 C   0  0  2  0  0  0  0  0  0  0  0  0
    1.7378    0.7852    5.0722 C   0  0  0  0  0  0  0  0  0  0  0  0
    1.0203   -1.5492    4.9034 C   0  0  0  0  0  0  0  0  0  0  0  0
    1.8112    0.0926   -0.3354 C   0  0  2  0  0  0  0  0  0  0  0  0
    1.9707    2.6673    4.2567 I   0  0  0  0  0  0  0  0  0  0  0  0
    2.2176    0.5469    6.3799 C   0  0  0  0  0  0  0  0  0  0  0  0
    0.1548   -3.0858    3.8236 I   0  0  0  0  0  0  0  0  0  0  0  0
    1.4857   -1.7890    6.2224 C   0  0  0  0  0  0  0  0  0  0  0  0
    1.3754    0.0183   -1.6907 O   0  0  0  0  0  0  0  0  0  0  0  0
    2.8032    1.5789    7.0515 N   0  0  0  0  0  0  0  0  0  0  0  0
    2.0538   -0.7295    6.9709 C   0  0  0  0  0  0  0  0  0  0  0  0
    1.3721   -3.0671    6.8092 C   0  0  0  0  0  0  0  0  0  0  0  0
    4.0751    1.5917    7.5374 C   0  0  0  0  0  0  0  0  0  0  0  0
    2.5368   -1.0071    8.9631 I   0  0  0  0  0  0  0  0  0  0  0  0
    2.4740   -3.7381    7.2185 O   0  0  0  0  0  0  0  0  0  0  0  0
    0.2528   -3.6008    6.9796 O   0  0  0  0  0  0  0  0  0  0  0  0
    4.5345    2.7640    8.2955 C   0  0  0  0  0  0  0  0  0  0  0  0
    4.8630    0.6333    7.3508 O   0  0  0  0  0  0  0  0  0  0  0  0
    1.9890   -1.1645    2.1175 H   0  0  0  0  0  0  0  0  0  0  0  0
   -0.1800    0.0245    0.5001 H   0  0  0  0  0  0  0  0  0  0  0  0
    0.5556   -1.5600    0.2654 H   0  0  0  0  0  0  0  0  0  0  0  0
    2.7590   -0.4421   -0.2421 H   0  0  0  0  0  0  0  0  0  0  0  0
    1.9680    1.1421   -0.0744 H   0  0  0  0  0  0  0  0  0  0  0  0
    2.1022    0.4173   -2.2142 H   0  0  0  0  0  0  0  0  0  0  0  0
    2.2847    2.3933    7.1517 H   0  0  0  0  0  0  0  0  0  0  0  0
    2.3878   -4.6193    7.6384 H   0  0  0  0  0  0  0  0  0  0  0  0
    3.9025    2.9025    9.1751 H   0  0  0  0  0  0  0  0  0  0  0  0
    4.4772    3.6553    7.6686 H   0  0  0  0  0  0  0  0  0  0  0  0
    5.5659    2.6327    8.6285 H   0  0  0  0  0  0  0  0  0  0  0  0
  1  2  1  0  0  0  0 
  1  3  2  0  0  0  0 
  1  4  1  0  0  0  0 
  2  5  1  0  0  0  0 
  4  6  2  0  0  0  0 
  4  7  1  0  0  0  0 
  5  8  1  0  0  0  0 
  6  9  1  0  0  0  0 
  6 10  1  0  0  0  0 
  7 11  1  0  0  0  0 
  7 12  2  0  0  0  0 
  8 13  1  0  0  0  0 
 10 14  1  0  0  0  0 
 10 15  2  0  0  0  0 
 12 15  1  0  0  0  0 
 12 16  1  0  0  0  0 
 14 17  1  0  0  0  0 
 15 18  1  0  0  0  0 
 16 19  1  0  0  0  0 
 16 20  2  0  0  0  0 
 17 21  1  0  0  0  0 
 17 22  2  0  0  0  0 
  2 23  1  0  0  0  0 
  5 24  1  0  0  0  0 
  5 25  1  0  0  0  0 
  8 26  1  0  0  0  0 
  8 27  1  0  0  0  0 
 13 28  1  0  0  0  0 
 14 29  1  0  0  0  0 
 19 30  1  0  0  0  0 
 21 31  1  0  0  0  0 
 21 32  1  0  0  0  0 
 21 33  1  0  0  0  0 
M  END
> <cdk:Title>
ioxitalamic acid

> <Conformer>
1

> <SuperDrugID>
SD003638

$$$$
