propantheline
  CDK     0628171801

 57 59  0  0  0  0  0  0  0  0999 V2000
   -2.8695   -0.0921    1.8787 C   0  0  0  0  0  0  0  0  0  0  0  0
   -1.9959   -0.4159    2.8761 O   0  0  0  0  0  0  0  0  0  0  0  0
   -2.5455   -0.2313    0.6738 O   0  0  0  0  0  0  0  0  0  0  0  0
   -4.2344    0.3599    2.2307 C   0  0  2  0  0  0  0  0  0  0  0  0
   -0.6904   -0.9631    2.6675 C   0  0  2  0  0  0  0  0  0  0  0  0
   -5.1580   -0.7930    2.0188 C   0  0  0  0  0  0  0  0  0  0  0  0
   -4.5945    1.5833    1.4542 C   0  0  0  0  0  0  0  0  0  0  0  0
   -0.0403   -1.3746    4.0163 C   0  0  2  0  0  0  0  0  0  0  0  0
   -6.1340   -0.7349    0.9903 C   0  0  0  0  0  0  0  0  0  0  0  0
   -5.0677   -1.9624    2.8149 C   0  0  0  0  0  0  0  0  0  0  0  0
   -5.6140    1.5132    0.4679 C   0  0  0  0  0  0  0  0  0  0  0  0
   -3.9167    2.8081    1.6641 C   0  0  0  0  0  0  0  0  0  0  0  0
    1.2613   -2.1913    4.0092 N   0  0  1  0  0  0  0  0  0  0  0  0
   -6.3113    0.3610    0.1774 O   0  0  0  0  0  0  0  0  0  0  0  0
   -6.9711   -1.8442    0.7548 C   0  0  0  0  0  0  0  0  0  0  0  0
   -5.9113   -3.0620    2.5744 C   0  0  0  0  0  0  0  0  0  0  0  0
   -5.9320    2.6581   -0.2889 C   0  0  0  0  0  0  0  0  0  0  0  0
   -4.2349    3.9428    0.8957 C   0  0  0  0  0  0  0  0  0  0  0  0
    1.0016   -3.6871    3.6472 C   0  0  1  0  0  0  0  0  0  0  0  0
    2.3332   -1.5295    3.0960 C   0  0  1  0  0  0  0  0  0  0  0  0
    1.7766   -2.1513    5.4485 C   0  0  0  0  0  0  0  0  0  0  0  0
   -6.8592   -3.0059    1.5388 C   0  0  0  0  0  0  0  0  0  0  0  0
   -5.2419    3.8656   -0.0816 C   0  0  0  0  0  0  0  0  0  0  0  0
   -0.0471   -4.4872    4.5004 C   0  0  0  0  0  0  0  0  0  0  0  0
    0.7088   -4.0661    2.1530 C   0  0  0  0  0  0  0  0  0  0  0  0
    2.7303   -0.0425    3.4141 C   0  0  0  0  0  0  0  0  0  0  0  0
    3.6759   -2.3145    2.9021 C   0  0  0  0  0  0  0  0  0  0  0  0
   -4.2774    0.6189    3.2933 H   0  0  0  0  0  0  0  0  0  0  0  0
   -0.0812   -0.2221    2.1484 H   0  0  0  0  0  0  0  0  0  0  0  0
   -0.8067   -1.8244    2.0228 H   0  0  0  0  0  0  0  0  0  0  0  0
   -0.8068   -1.8967    4.5915 H   0  0  0  0  0  0  0  0  0  0  0  0
    0.0968   -0.4345    4.5597 H   0  0  0  0  0  0  0  0  0  0  0  0
   -4.3810   -2.0220    3.5712 H   0  0  0  0  0  0  0  0  0  0  0  0
   -3.1817    2.8749    2.3738 H   0  0  0  0  0  0  0  0  0  0  0  0
   -7.6677   -1.8086    0.0063 H   0  0  0  0  0  0  0  0  0  0  0  0
   -5.8341   -3.9035    3.1515 H   0  0  0  0  0  0  0  0  0  0  0  0
   -6.6651    2.6117   -1.0006 H   0  0  0  0  0  0  0  0  0  0  0  0
   -3.7330    4.8214    1.0464 H   0  0  0  0  0  0  0  0  0  0  0  0
    1.9330   -4.2196    3.8660 H   0  0  0  0  0  0  0  0  0  0  0  0
    1.9176   -1.4701    2.0885 H   0  0  0  0  0  0  0  0  0  0  0  0
    1.0286   -2.4785    6.1717 H   0  0  0  0  0  0  0  0  0  0  0  0
    2.0471   -1.1463    5.7737 H   0  0  0  0  0  0  0  0  0  0  0  0
    2.6560   -2.7823    5.5921 H   0  0  0  0  0  0  0  0  0  0  0  0
   -7.4653   -3.8086    1.3561 H   0  0  0  0  0  0  0  0  0  0  0  0
   -5.4693    4.6862   -0.6446 H   0  0  0  0  0  0  0  0  0  0  0  0
    0.1548   -4.4209    5.5659 H   0  0  0  0  0  0  0  0  0  0  0  0
   -1.0677   -4.1460    4.3172 H   0  0  0  0  0  0  0  0  0  0  0  0
   -0.0110   -5.5505    4.2501 H   0  0  0  0  0  0  0  0  0  0  0  0
   -0.3453   -3.9531    1.9046 H   0  0  0  0  0  0  0  0  0  0  0  0
    1.2922   -3.4943    1.4381 H   0  0  0  0  0  0  0  0  0  0  0  0
    0.9546   -5.1169    1.9844 H   0  0  0  0  0  0  0  0  0  0  0  0
    3.3047    0.3814    2.5864 H   0  0  0  0  0  0  0  0  0  0  0  0
    3.3527    0.0242    4.3079 H   0  0  0  0  0  0  0  0  0  0  0  0
    1.8620    0.5992    3.5536 H   0  0  0  0  0  0  0  0  0  0  0  0
    4.3277   -1.7968    2.1940 H   0  0  0  0  0  0  0  0  0  0  0  0
    3.5121   -3.3087    2.4916 H   0  0  0  0  0  0  0  0  0  0  0  0
    4.2126   -2.4102    3.8447 H   0  0  0  0  0  0  0  0  0  0  0  0
  1  2  1  0  0  0  0 
  1  3  2  0  0  0  0 
  1  4  1  0  0  0  0 
  2  5  1  0  0  0  0 
  4  6  1  0  0  0  0 
  4  7  1  0  0  0  0 
  5  8  1  0  0  0  0 
  6  9  2  0  0  0  0 
  6 10  1  0  0  0  0 
  7 11  2  0  0  0  0 
  7 12  1  0  0  0  0 
  8 13  1  0  0  0  0 
  9 14  1  0  0  0  0 
  9 15  1  0  0  0  0 
 10 16  2  0  0  0  0 
 11 14  1  0  0  0  0 
 11 17  1  0  0  0  0 
 12 18  2  0  0  0  0 
 13 19  1  0  0  0  0 
 13 20  1  0  0  0  0 
 13 21  1  0  0  0  0 
 15 22  2  0  0  0  0 
 16 22  1  0  0  0  0 
 17 23  2  0  0  0  0 
 18 23  1  0  0  0  0 
 19 24  1  0  0  0  0 
 19 25  1  0  0  0  0 
 20 26  1  0  0  0  0 
 20 27  1  0  0  0  0 
  4 28  1  0  0  0  0 
  5 29  1  0  0  0  0 
  5 30  1  0  0  0  0 
  8 31  1  0  0  0  0 
  8 32  1  0  0  0  0 
 10 33  1  0  0  0  0 
 12 34  1  0  0  0  0 
 15 35  1  0  0  0  0 
 16 36  1  0  0  0  0 
 17 37  1  0  0  0  0 
 18 38  1  0  0  0  0 
 19 39  1  0  0  0  0 
 20 40  1  0  0  0  0 
 21 41  1  0  0  0  0 
 21 42  1  0  0  0  0 
 21 43  1  0  0  0  0 
 22 44  1  0  0  0  0 
 23 45  1  0  0  0  0 
 24 46  1  0  0  0  0 
 24 47  1  0  0  0  0 
 24 48  1  0  0  0  0 
 25 49  1  0  0  0  0 
 25 50  1  0  0  0  0 
 25 51  1  0  0  0  0 
 26 52  1  0  0  0  0 
 26 53  1  0  0  0  0 
 26 54  1  0  0  0  0 
 27 55  1  0  0  0  0 
 27 56  1  0  0  0  0 
 27 57  1  0  0  0  0 
M  CHG  1  13   1
M  END
> <cdk:Title>
propantheline

> <Conformer>
1

> <SuperDrugID>
SD002058

$$$$
