eptifibatide
  CDK     0628171801

106109  0  0  0  0  0  0  0  0999 V2000
    6.0579   -4.5085    4.1483 C   0  0  0  0  0  0  0  0  0  0  0  0
    5.1712   -3.8257    4.9274 N   0  0  0  0  0  0  0  0  0  0  0  0
    6.1051   -0.7592    6.2179 N   0  0  0  0  0  0  0  0  0  0  0  0
    8.6562   -0.8619    7.8178 N   0  0  0  0  0  0  0  0  0  0  0  0
   11.2775   -2.2137    6.8969 N   0  0  0  0  0  0  0  0  0  0  0  0
   13.0697   -3.6198    4.0840 N   0  0  0  0  0  0  0  0  0  0  0  0
   12.4356   -6.9999    3.9245 N   0  0  0  0  0  0  0  0  0  0  0  0
   14.3623   -9.8833    4.1937 N   0  0  0  0  0  0  0  0  0  0  0  0
   -0.7864   -1.9035   -0.2152 C   0  0  0  0  0  0  0  0  0  0  0  0
   -0.2995   -2.5261   -1.2216 N   0  0  0  0  0  0  0  0  0  0  0  0
   -1.9301   -1.2741   -0.3747 N   0  0  0  0  0  0  0  0  0  0  0  0
    6.6710   -3.9443    3.2106 O   0  0  0  0  0  0  0  0  0  0  0  0
    6.3410   -5.9368    4.4210 C   0  0  1  0  0  0  0  0  0  0  0  0
    7.7926   -6.1284    4.9291 C   0  0  1  0  0  0  0  0  0  0  0  0
    8.1584   -7.8517    5.3827 S   0  0  0  0  0  0  0  0  0  0  0  0
    5.2358   -1.8099    6.1736 C   0  0  0  0  0  0  0  0  0  0  0  0
   -0.1844   -1.8526    0.9726 N   0  0  0  0  0  0  0  0  0  0  0  0
    2.9689   -2.5315    3.0702 C   0  0  2  0  0  0  0  0  0  0  0  0
    3.3910   -2.1460    4.5169 C   0  0  2  0  0  0  0  0  0  0  0  0
    4.8874   -2.4204    4.8636 C   0  0  2  0  0  0  0  0  0  0  0  0
    1.5170   -2.0845    2.7339 C   0  0  2  0  0  0  0  0  0  0  0  0
    1.0958   -2.4182    1.2798 C   0  0  2  0  0  0  0  0  0  0  0  0
    4.6874   -2.2472    7.2152 O   0  0  0  0  0  0  0  0  0  0  0  0
    7.8490    0.2154    7.5869 C   0  0  0  0  0  0  0  0  0  0  0  0
    6.3996    0.0277    7.3724 C   0  0  1  0  0  0  0  0  0  0  0  0
    8.2968    1.3860    7.6347 O   0  0  0  0  0  0  0  0  0  0  0  0
   11.0989   -1.0356    7.5656 C   0  0  0  0  0  0  0  0  0  0  0  0
    9.9015   -1.8834    9.6147 C   0  0  1  0  0  0  0  0  0  0  0  0
   11.1013   -1.9073   10.4776 C   0  0  0  0  0  0  0  0  0  0  0  0
   11.7891   -3.0564   10.6757 O   0  0  0  0  0  0  0  0  0  0  0  0
   11.4936   -0.8729   11.0629 O   0  0  0  0  0  0  0  0  0  0  0  0
    9.9370   -0.8224    8.4703 C   0  0  2  0  0  0  0  0  0  0  0  0
   11.9878   -0.1505    7.5311 O   0  0  0  0  0  0  0  0  0  0  0  0
   12.3679   -3.6495    5.2840 C   0  0  0  0  0  0  0  0  0  0  0  0
   13.2477   -3.4063    7.6274 C   0  0  2  0  0  0  0  0  0  0  0  0
   14.6509   -3.8255    7.4124 C   0  0  0  0  0  0  0  0  0  0  0  0
   15.0899   -5.1001    7.0457 C   0  0  0  0  0  0  0  0  0  0  0  0
   16.4342   -5.1214    7.0093 N   0  0  0  0  0  0  0  0  0  0  0  0
   16.8968   -3.9116    7.3530 C   0  0  0  0  0  0  0  0  0  0  0  0
   15.8109   -3.0726    7.6089 C   0  0  0  0  0  0  0  0  0  0  0  0
   16.0098   -1.7387    8.0123 C   0  0  0  0  0  0  0  0  0  0  0  0
   17.3333   -1.2679    8.1557 C   0  0  0  0  0  0  0  0  0  0  0  0
   18.4312   -2.1199    7.8944 C   0  0  0  0  0  0  0  0  0  0  0  0
   18.2204   -3.4545    7.4861 C   0  0  0  0  0  0  0  0  0  0  0  0
   12.5512   -2.7007    6.4210 C   0  0  2  0  0  0  0  0  0  0  0  0
   11.5280   -4.5650    5.4704 O   0  0  0  0  0  0  0  0  0  0  0  0
   13.4272   -6.0074    3.7305 C   0  0  0  0  0  0  0  0  0  0  0  0
   12.9884   -4.6822    3.1110 C   0  0  2  0  0  0  0  0  0  0  0  0
   13.9414   -4.2678    1.9609 C   0  0  2  0  0  0  0  0  0  0  0  0
   14.0873   -2.7525    2.1451 C   0  0  2  0  0  0  0  0  0  0  0  0
   13.9350   -2.5587    3.6623 C   0  0  1  0  0  0  0  0  0  0  0  0
   14.6025   -6.2068    4.1150 O   0  0  0  0  0  0  0  0  0  0  0  0
   13.2521   -9.2725    3.7425 C   0  0  0  0  0  0  0  0  0  0  0  0
   10.1638   -7.7067    6.0078 S   0  0  0  0  0  0  0  0  0  0  0  0
   11.0394   -8.8101    4.8502 C   0  0  2  0  0  0  0  0  0  0  0  0
   12.4890   -8.3215    4.5840 C   0  0  2  0  0  0  0  0  0  0  0  0
   12.8797   -9.5286    2.5750 O   0  0  0  0  0  0  0  0  0  0  0  0
    4.7065   -4.3342    5.6114 H   0  0  0  0  0  0  0  0  0  0  0  0
    6.5242   -0.4938    5.3841 H   0  0  0  0  0  0  0  0  0  0  0  0
    8.2930   -1.7395    7.6204 H   0  0  0  0  0  0  0  0  0  0  0  0
   10.5202   -2.8192    6.8459 H   0  0  0  0  0  0  0  0  0  0  0  0
   11.5387   -6.7853    3.5816 H   0  0  0  0  0  0  0  0  0  0  0  0
   14.6645   -9.7458    5.1050 H   0  0  0  0  0  0  0  0  0  0  0  0
   14.8648  -10.4649    3.6036 H   0  0  0  0  0  0  0  0  0  0  0  0
   -0.7511   -2.5255   -2.0445 H   0  0  0  0  0  0  0  0  0  0  0  0
   -2.3285   -0.7895    0.3647 H   0  0  0  0  0  0  0  0  0  0  0  0
   -2.3746   -1.2848   -1.2375 H   0  0  0  0  0  0  0  0  0  0  0  0
    5.6417   -6.3204    5.1715 H   0  0  0  0  0  0  0  0  0  0  0  0
    6.1951   -6.5070    3.4985 H   0  0  0  0  0  0  0  0  0  0  0  0
    8.4954   -5.8290    4.1508 H   0  0  0  0  0  0  0  0  0  0  0  0
    7.9610   -5.5070    5.8113 H   0  0  0  0  0  0  0  0  0  0  0  0
   -0.6498   -1.3845    1.6854 H   0  0  0  0  0  0  0  0  0  0  0  0
    3.0456   -3.6159    2.9535 H   0  0  0  0  0  0  0  0  0  0  0  0
    3.6540   -2.0600    2.3611 H   0  0  0  0  0  0  0  0  0  0  0  0
    2.7487   -2.6805    5.2227 H   0  0  0  0  0  0  0  0  0  0  0  0
    3.2070   -1.0742    4.6435 H   0  0  0  0  0  0  0  0  0  0  0  0
    5.4961   -1.9396    4.0908 H   0  0  0  0  0  0  0  0  0  0  0  0
    1.4334   -1.0028    2.8828 H   0  0  0  0  0  0  0  0  0  0  0  0
    0.8242   -2.5765    3.4221 H   0  0  0  0  0  0  0  0  0  0  0  0
    1.8466   -2.0265    0.5864 H   0  0  0  0  0  0  0  0  0  0  0  0
    1.0444   -3.5027    1.1608 H   0  0  0  0  0  0  0  0  0  0  0  0
    5.9074    0.9959    7.2355 H   0  0  0  0  0  0  0  0  0  0  0  0
    5.9849   -0.4039    8.2862 H   0  0  0  0  0  0  0  0  0  0  0  0
    9.7534   -2.8784    9.1848 H   0  0  0  0  0  0  0  0  0  0  0  0
    9.0444   -1.6819   10.2617 H   0  0  0  0  0  0  0  0  0  0  0  0
   11.5138   -3.8838   10.2268 H   0  0  0  0  0  0  0  0  0  0  0  0
   10.0595    0.1537    8.9557 H   0  0  0  0  0  0  0  0  0  0  0  0
   13.2504   -2.7280    8.4819 H   0  0  0  0  0  0  0  0  0  0  0  0
   12.6599   -4.2787    7.9276 H   0  0  0  0  0  0  0  0  0  0  0  0
   14.4887   -5.9014    6.8465 H   0  0  0  0  0  0  0  0  0  0  0  0
   16.9804   -5.8914    6.7833 H   0  0  0  0  0  0  0  0  0  0  0  0
   15.2182   -1.1223    8.2059 H   0  0  0  0  0  0  0  0  0  0  0  0
   17.5010   -0.3047    8.4548 H   0  0  0  0  0  0  0  0  0  0  0  0
   19.3859   -1.7680    8.0026 H   0  0  0  0  0  0  0  0  0  0  0  0
   19.0100   -4.0760    7.2961 H   0  0  0  0  0  0  0  0  0  0  0  0
   13.1779   -1.8609    6.1157 H   0  0  0  0  0  0  0  0  0  0  0  0
   11.9367   -4.6140    2.6872 H   0  0  0  0  0  0  0  0  0  0  0  0
   13.5228   -4.5187    0.9821 H   0  0  0  0  0  0  0  0  0  0  0  0
   14.9282   -4.7327    2.0425 H   0  0  0  0  0  0  0  0  0  0  0  0
   13.2807   -2.2312    1.6217 H   0  0  0  0  0  0  0  0  0  0  0  0
   15.0492   -2.3819    1.7830 H   0  0  0  0  0  0  0  0  0  0  0  0
   13.5093   -1.5703    3.8525 H   0  0  0  0  0  0  0  0  0  0  0  0
   14.9033   -2.6451    4.1627 H   0  0  0  0  0  0  0  0  0  0  0  0
   10.4857   -8.8396    3.9106 H   0  0  0  0  0  0  0  0  0  0  0  0
   11.0497   -9.8155    5.2774 H   0  0  0  0  0  0  0  0  0  0  0  0
   12.9954   -8.1988    5.5463 H   0  0  0  0  0  0  0  0  0  0  0  0
  1  2  1  0  0  0  0 
 16  3  1  0  0  0  0 
 24  4  1  0  0  0  0 
 27  5  1  0  0  0  0 
 34  6  1  0  0  0  0 
 47  7  1  0  0  0  0 
 53  8  1  0  0  0  0 
 17  9  1  0  0  0  0 
  9 10  2  0  0  0  0 
  9 11  1  0  0  0  0 
  1 12  2  0  0  0  0 
  1 13  1  0  0  0  0 
 13 14  1  0  0  0  0 
 14 15  1  0  0  0  0 
 15 54  1  0  0  0  0 
 17 22  1  0  0  0  0 
 22 21  1  0  0  0  0 
 21 18  1  0  0  0  0 
 18 19  1  0  0  0  0 
 20 19  1  0  0  0  0 
 20  2  1  0  0  0  0 
 20 16  1  0  0  0  0 
 16 23  2  0  0  0  0 
  3 25  1  0  0  0  0 
 25 24  1  0  0  0  0 
 24 26  2  0  0  0  0 
 32  4  1  0  0  0  0 
 32 28  1  0  0  0  0 
 28 29  1  0  0  0  0 
 29 30  1  0  0  0  0 
 29 31  2  0  0  0  0 
 32 27  1  0  0  0  0 
 27 33  2  0  0  0  0 
 45  5  1  0  0  0  0 
 45 35  1  0  0  0  0 
 35 36  1  0  0  0  0 
 36 37  2  0  0  0  0 
 37 38  1  0  0  0  0 
 38 39  1  0  0  0  0 
 39 40  1  0  0  0  0 
 36 40  1  0  0  0  0 
 40 41  2  0  0  0  0 
 41 42  1  0  0  0  0 
 42 43  2  0  0  0  0 
 43 44  1  0  0  0  0 
 39 44  2  0  0  0  0 
 45 34  1  0  0  0  0 
 34 46  2  0  0  0  0 
 52 47  2  0  0  0  0 
 48 47  1  0  0  0  0 
 48 49  1  0  0  0  0 
 49 50  1  0  0  0  0 
 50 51  1  0  0  0  0 
 51  6  1  0  0  0  0 
 48  6  1  0  0  0  0 
 56  7  1  0  0  0  0 
 56 55  1  0  0  0  0 
 55 54  1  0  0  0  0 
 56 53  1  0  0  0  0 
 53 57  2  0  0  0  0 
 58  2  1  0  0  0  0 
 59  3  1  0  0  0  0 
 60  4  1  0  0  0  0 
 61  5  1  0  0  0  0 
 62  7  1  0  0  0  0 
 63  8  1  0  0  0  0 
 64  8  1  0  0  0  0 
 65 10  1  0  0  0  0 
 66 11  1  0  0  0  0 
 67 11  1  0  0  0  0 
 68 13  1  0  0  0  0 
 69 13  1  0  0  0  0 
 70 14  1  0  0  0  0 
 71 14  1  0  0  0  0 
 72 17  1  0  0  0  0 
 73 18  1  0  0  0  0 
 74 18  1  0  0  0  0 
 75 19  1  0  0  0  0 
 76 19  1  0  0  0  0 
 20 77  1  0  0  0  0 
 78 21  1  0  0  0  0 
 79 21  1  0  0  0  0 
 80 22  1  0  0  0  0 
 81 22  1  0  0  0  0 
 82 25  1  0  0  0  0 
 83 25  1  0  0  0  0 
 84 28  1  0  0  0  0 
 85 28  1  0  0  0  0 
 86 30  1  0  0  0  0 
 32 87  1  0  0  0  0 
 88 35  1  0  0  0  0 
 89 35  1  0  0  0  0 
 90 37  1  0  0  0  0 
 91 38  1  0  0  0  0 
 92 41  1  0  0  0  0 
 93 42  1  0  0  0  0 
 94 43  1  0  0  0  0 
 95 44  1  0  0  0  0 
 45 96  1  0  0  0  0 
 48 97  1  0  0  0  0 
 98 49  1  0  0  0  0 
 99 49  1  0  0  0  0 
100 50  1  0  0  0  0 
101 50  1  0  0  0  0 
102 51  1  0  0  0  0 
103 51  1  0  0  0  0 
104 55  1  0  0  0  0 
105 55  1  0  0  0  0 
 56106  1  0  0  0  0 
M  END
> <cdk:Title>
eptifibatide

> <Conformer>
1

> <SuperDrugID>
SD000926

$$$$
