radotinib
  CDK     0628171802

 60 64  0  0  0  0  0  0  0  0999 V2000
    2.3149    0.7313   -0.1882 N   0  0  0  0  0  0  0  0  0  0  0  0
    1.9005    0.9145   -1.4679 C   0  0  0  0  0  0  0  0  0  0  0  0
    0.5227    0.8827   -1.7408 C   0  0  0  0  0  0  0  0  0  0  0  0
   -0.3387    0.6441   -0.7208 N   0  0  0  0  0  0  0  0  0  0  0  0
    0.0789    0.4669    0.5583 C   0  0  0  0  0  0  0  0  0  0  0  0
    1.4604    0.5266    0.8540 C   0  0  0  0  0  0  0  0  0  0  0  0
    1.9562    0.4260    2.1771 C   0  0  0  0  0  0  0  0  0  0  0  0
    1.1939    0.8837    3.2084 N   0  0  0  0  0  0  0  0  0  0  0  0
    1.6111    0.8967    4.5018 C   0  0  0  0  0  0  0  0  0  0  0  0
    2.8425    0.3960    4.7803 N   0  0  0  0  0  0  0  0  0  0  0  0
    3.6560   -0.1037    3.8181 C   0  0  0  0  0  0  0  0  0  0  0  0
    3.2343   -0.0953    2.4779 C   0  0  0  0  0  0  0  0  0  0  0  0
    0.8837    1.3528    5.5558 N   0  0  0  0  0  0  0  0  0  0  0  0
   -0.3652    1.9257    5.6095 C   0  0  0  0  0  0  0  0  0  0  0  0
   -1.0152    2.5329    4.5011 C   0  0  0  0  0  0  0  0  0  0  0  0
   -2.3309    3.0519    4.5920 C   0  0  0  0  0  0  0  0  0  0  0  0
   -2.9555    3.0284    5.8606 C   0  0  0  0  0  0  0  0  0  0  0  0
   -2.3184    2.4697    6.9760 C   0  0  0  0  0  0  0  0  0  0  0  0
   -1.0284    1.9075    6.8695 C   0  0  0  0  0  0  0  0  0  0  0  0
   -3.0455    3.5368    3.4544 C   0  0  0  0  0  0  0  0  0  0  0  0
   -2.4128    3.8856    2.2904 N   0  0  0  0  0  0  0  0  0  0  0  0
   -4.2977    3.5710    3.5236 O   0  0  0  0  0  0  0  0  0  0  0  0
   -2.9681    4.2513    1.0906 C   0  0  0  0  0  0  0  0  0  0  0  0
   -4.2365    4.8600    0.9305 C   0  0  0  0  0  0  0  0  0  0  0  0
   -4.7849    5.1259   -0.3473 C   0  0  0  0  0  0  0  0  0  0  0  0
   -4.0137    4.7875   -1.4834 C   0  0  0  0  0  0  0  0  0  0  0  0
   -2.7161    4.2501   -1.3545 C   0  0  0  0  0  0  0  0  0  0  0  0
   -2.2022    3.9928   -0.0646 C   0  0  0  0  0  0  0  0  0  0  0  0
   -1.9669    3.9902   -2.4629 N   0  0  0  0  0  0  0  0  0  0  0  0
   -0.7327    4.4608   -2.7011 C   0  0  0  0  0  0  0  0  0  0  0  0
   -0.3308    3.9682   -3.9350 C   0  0  0  0  0  0  0  0  0  0  0  0
   -1.3241    3.2149   -4.4336 N   0  0  0  0  0  0  0  0  0  0  0  0
   -2.3150    3.2384   -3.5272 C   0  0  0  0  0  0  0  0  0  0  0  0
    0.9584    4.2281   -4.5830 C   0  0  0  0  0  0  0  0  0  0  0  0
   -6.1367    5.7487   -0.4568 C   0  0  1  0  0  0  0  0  0  0  0  0
   -0.4100    1.2943    8.0787 C   0  0  0  0  0  0  0  0  0  0  0  0
   -6.5685    5.9380   -1.7493 F   0  0  0  0  0  0  0  0  0  0  0  0
   -7.0714    4.9580    0.1664 F   0  0  0  0  0  0  0  0  0  0  0  0
   -6.1405    6.9811    0.1505 F   0  0  0  0  0  0  0  0  0  0  0  0
    2.5803    1.0781   -2.2119 H   0  0  0  0  0  0  0  0  0  0  0  0
    0.1693    1.0352   -2.6870 H   0  0  0  0  0  0  0  0  0  0  0  0
   -0.6161    0.2954    1.2860 H   0  0  0  0  0  0  0  0  0  0  0  0
    4.5710   -0.4785    4.0747 H   0  0  0  0  0  0  0  0  0  0  0  0
    3.8484   -0.4643    1.7488 H   0  0  0  0  0  0  0  0  0  0  0  0
    1.3104    1.2153    6.4168 H   0  0  0  0  0  0  0  0  0  0  0  0
   -0.5290    2.5942    3.6095 H   0  0  0  0  0  0  0  0  0  0  0  0
   -3.8970    3.4088    5.9907 H   0  0  0  0  0  0  0  0  0  0  0  0
   -2.8177    2.4690    7.8697 H   0  0  0  0  0  0  0  0  0  0  0  0
   -1.4457    3.8200    2.2955 H   0  0  0  0  0  0  0  0  0  0  0  0
   -4.7780    5.1239    1.7526 H   0  0  0  0  0  0  0  0  0  0  0  0
   -4.3839    4.9503   -2.4235 H   0  0  0  0  0  0  0  0  0  0  0  0
   -1.2645    3.5873    0.0269 H   0  0  0  0  0  0  0  0  0  0  0  0
   -0.1892    5.0835   -2.0967 H   0  0  0  0  0  0  0  0  0  0  0  0
   -3.2003    2.7387   -3.6363 H   0  0  0  0  0  0  0  0  0  0  0  0
    1.7603    3.8168   -3.9679 H   0  0  0  0  0  0  0  0  0  0  0  0
    0.9884    3.7613   -5.5691 H   0  0  0  0  0  0  0  0  0  0  0  0
    1.1050    5.3040   -4.6946 H   0  0  0  0  0  0  0  0  0  0  0  0
    0.5589    1.7524    8.2851 H   0  0  0  0  0  0  0  0  0  0  0  0
   -0.2677    0.2256    7.9087 H   0  0  0  0  0  0  0  0  0  0  0  0
   -1.0243    1.4156    8.9734 H   0  0  0  0  0  0  0  0  0  0  0  0
  1  2  2  0  0  0  0 
  1  6  1  0  0  0  0 
  2  3  1  0  0  0  0 
  3  4  2  0  0  0  0 
  4  5  1  0  0  0  0 
  5  6  2  0  0  0  0 
  6  7  1  0  0  0  0 
  8  9  1  0  0  0  0 
  9 10  2  0  0  0  0 
 10 11  1  0  0  0  0 
 11 12  2  0  0  0  0 
  7  8  2  0  0  0  0 
  7 12  1  0  0  0  0 
  9 13  1  0  0  0  0 
 13 14  1  0  0  0  0 
 15 16  1  0  0  0  0 
 16 17  2  0  0  0  0 
 17 18  1  0  0  0  0 
 18 19  2  0  0  0  0 
 14 15  2  0  0  0  0 
 14 19  1  0  0  0  0 
 16 20  1  0  0  0  0 
 20 21  1  0  0  0  0 
 20 22  2  0  0  0  0 
 21 23  1  0  0  0  0 
 24 25  1  0  0  0  0 
 25 26  2  0  0  0  0 
 26 27  1  0  0  0  0 
 27 28  2  0  0  0  0 
 23 24  2  0  0  0  0 
 23 28  1  0  0  0  0 
 27 29  1  0  0  0  0 
 30 31  2  0  0  0  0 
 31 32  1  0  0  0  0 
 32 33  2  0  0  0  0 
 29 30  1  0  0  0  0 
 29 33  1  0  0  0  0 
 31 34  1  0  0  0  0 
 25 35  1  0  0  0  0 
 19 36  1  0  0  0  0 
 35 37  1  0  0  0  0 
 35 38  1  0  0  0  0 
 35 39  1  0  0  0  0 
  2 40  1  0  0  0  0 
  3 41  1  0  0  0  0 
  5 42  1  0  0  0  0 
 11 43  1  0  0  0  0 
 12 44  1  0  0  0  0 
 13 45  1  0  0  0  0 
 15 46  1  0  0  0  0 
 17 47  1  0  0  0  0 
 18 48  1  0  0  0  0 
 21 49  1  0  0  0  0 
 24 50  1  0  0  0  0 
 26 51  1  0  0  0  0 
 28 52  1  0  0  0  0 
 30 53  1  0  0  0  0 
 33 54  1  0  0  0  0 
 34 55  1  0  0  0  0 
 34 56  1  0  0  0  0 
 34 57  1  0  0  0  0 
 36 58  1  0  0  0  0 
 36 59  1  0  0  0  0 
 36 60  1  0  0  0  0 
M  END
> <cdk:Title>
radotinib

> <Conformer>
1

> <SuperDrugID>
SD003930

$$$$
