doxercalciferol
  CDK     0628171802

 74 76  0  0  0  0  0  0  0  0999 V2000
    1.9297   -6.3299   -2.9034 C   0  0  0  0  0  0  0  0  0  0  0  0
    2.5604   -5.9740   -4.3080 C   0  0  2  0  0  0  0  0  0  0  0  0
    2.7804   -4.4280   -4.4769 C   0  0  2  0  0  0  0  0  0  0  0  0
    1.5597   -6.2788   -5.4998 C   0  0  1  0  0  0  0  0  0  0  0  0
    3.9890   -6.6301   -4.4400 C   0  0  1  0  0  0  0  0  0  0  0  0
    3.6494   -3.8893   -3.4031 C   0  0  0  0  0  0  0  0  0  0  0  0
    1.3617   -3.8797   -4.7627 C   0  0  1  0  0  0  0  0  0  0  0  0
    0.6486   -7.5708   -5.4343 C   0  0  1  0  0  0  0  0  0  0  0  0
    0.7263   -4.9610   -5.6612 C   0  0  1  0  0  0  0  0  0  0  0  0
    5.0238   -6.0154   -3.4485 C   0  0  1  0  0  0  0  0  0  0  0  0
    3.1820   -3.0068   -2.4858 C   0  0  0  0  0  0  0  0  0  0  0  0
    5.0162   -4.4583   -3.4388 C   0  0  2  0  0  0  0  0  0  0  0  0
   -0.3122   -7.6515   -6.5465 C   0  0  0  0  0  0  0  0  0  0  0  0
    1.4516   -8.9056   -5.4037 C   0  0  0  0  0  0  0  0  0  0  0  0
    3.8016   -2.5317   -1.3621 C   0  0  0  0  0  0  0  0  0  0  0  0
   -1.6446   -7.5258   -6.3957 C   0  0  0  0  0  0  0  0  0  0  0  0
    3.2218   -1.8022   -0.3748 C   0  0  0  0  0  0  0  0  0  0  0  0
   -2.6406   -7.6970   -7.4614 C   0  0  1  0  0  0  0  0  0  0  0  0
    1.9161   -1.3462   -0.3843 C   0  0  0  0  0  0  0  0  0  0  0  0
    3.9910   -1.3783    0.8076 C   0  0  2  0  0  0  0  0  0  0  0  0
   -2.4247   -6.6873   -8.6991 C   0  0  1  0  0  0  0  0  0  0  0  0
   -2.7118   -9.2011   -7.8665 C   0  0  0  0  0  0  0  0  0  0  0  0
    0.8737   -2.1984   -0.3402 C   0  0  0  0  0  0  0  0  0  0  0  0
    1.7609    0.1205   -0.3747 C   0  0  1  0  0  0  0  0  0  0  0  0
    3.9701    0.1709    0.9690 C   0  0  2  0  0  0  0  0  0  0  0  0
   -3.5877   -6.9179   -9.7680 C   0  0  0  0  0  0  0  0  0  0  0  0
   -2.6587   -5.2003   -8.1662 C   0  0  0  0  0  0  0  0  0  0  0  0
    0.4083    0.5872   -0.3381 O   0  0  0  0  0  0  0  0  0  0  0  0
    2.5199    0.7280    0.8457 C   0  0  1  0  0  0  0  0  0  0  0  0
    4.8105    0.7682   -0.0198 O   0  0  0  0  0  0  0  0  0  0  0  0
    3.3218   -4.2360   -5.4153 H   0  0  0  0  0  0  0  0  0  0  0  0
    2.1635   -6.3708   -6.4109 H   0  0  0  0  0  0  0  0  0  0  0  0
    1.8231   -7.4057   -2.7794 H   0  0  0  0  0  0  0  0  0  0  0  0
    0.9427   -5.8824   -2.7811 H   0  0  0  0  0  0  0  0  0  0  0  0
    2.5404   -5.9789   -2.0738 H   0  0  0  0  0  0  0  0  0  0  0  0
    3.9413   -7.7059   -4.2699 H   0  0  0  0  0  0  0  0  0  0  0  0
    4.3731   -6.4844   -5.4543 H   0  0  0  0  0  0  0  0  0  0  0  0
    0.7656   -3.7852   -3.8523 H   0  0  0  0  0  0  0  0  0  0  0  0
    1.3968   -2.9040   -5.2591 H   0  0  0  0  0  0  0  0  0  0  0  0
    0.0898   -7.5378   -4.4949 H   0  0  0  0  0  0  0  0  0  0  0  0
    0.7479   -4.6335   -6.7064 H   0  0  0  0  0  0  0  0  0  0  0  0
   -0.3190   -5.0924   -5.3662 H   0  0  0  0  0  0  0  0  0  0  0  0
    4.8138   -6.3767   -2.4403 H   0  0  0  0  0  0  0  0  0  0  0  0
    6.0263   -6.3686   -3.7083 H   0  0  0  0  0  0  0  0  0  0  0  0
    2.2644   -2.6726   -2.6239 H   0  0  0  0  0  0  0  0  0  0  0  0
    5.6587   -4.1345   -2.6225 H   0  0  0  0  0  0  0  0  0  0  0  0
    5.5045   -4.1058   -4.3522 H   0  0  0  0  0  0  0  0  0  0  0  0
    0.0462   -7.8372   -7.4538 H   0  0  0  0  0  0  0  0  0  0  0  0
    0.7706   -9.7601   -5.4424 H   0  0  0  0  0  0  0  0  0  0  0  0
    2.0230   -9.0038   -4.4846 H   0  0  0  0  0  0  0  0  0  0  0  0
    2.1399   -8.9693   -6.2503 H   0  0  0  0  0  0  0  0  0  0  0  0
    4.7608   -2.7399   -1.2448 H   0  0  0  0  0  0  0  0  0  0  0  0
   -1.9892   -7.3265   -5.4838 H   0  0  0  0  0  0  0  0  0  0  0  0
   -3.6194   -7.4756   -7.0199 H   0  0  0  0  0  0  0  0  0  0  0  0
    5.0350   -1.7095    0.7754 H   0  0  0  0  0  0  0  0  0  0  0  0
    3.5445   -1.8379    1.6965 H   0  0  0  0  0  0  0  0  0  0  0  0
   -1.3499   -6.8157   -9.1915 H   0  0  0  0  0  0  0  0  0  0  0  0
   -1.8597   -9.4801   -8.4880 H   0  0  0  0  0  0  0  0  0  0  0  0
   -2.7268   -9.8450   -6.9816 H   0  0  0  0  0  0  0  0  0  0  0  0
   -3.6285   -9.4045   -8.4223 H   0  0  0  0  0  0  0  0  0  0  0  0
    1.0169   -3.1822   -0.3212 H   0  0  0  0  0  0  0  0  0  0  0  0
   -0.0630   -1.8694   -0.3235 H   0  0  0  0  0  0  0  0  0  0  0  0
    2.1979    0.5219   -1.2961 H   0  0  0  0  0  0  0  0  0  0  0  0
    4.3744    0.4359    1.9509 H   0  0  0  0  0  0  0  0  0  0  0  0
   -3.4174   -7.8518  -10.3017 H   0  0  0  0  0  0  0  0  0  0  0  0
   -3.5899   -6.1190  -10.5112 H   0  0  0  0  0  0  0  0  0  0  0  0
   -4.5710   -6.9539   -9.2953 H   0  0  0  0  0  0  0  0  0  0  0  0
   -1.8969   -4.9357   -7.4352 H   0  0  0  0  0  0  0  0  0  0  0  0
   -2.5788   -4.4902   -8.9921 H   0  0  0  0  0  0  0  0  0  0  0  0
   -3.6423   -5.0851   -7.7038 H   0  0  0  0  0  0  0  0  0  0  0  0
   -0.0074    0.2361   -1.1543 H   0  0  0  0  0  0  0  0  0  0  0  0
    2.5561    1.8177    0.7558 H   0  0  0  0  0  0  0  0  0  0  0  0
    1.9697    0.4872    1.7615 H   0  0  0  0  0  0  0  0  0  0  0  0
    5.6963    0.3740    0.1320 H   0  0  0  0  0  0  0  0  0  0  0  0
  2  1  1  0  0  0  0 
  2  3  1  0  0  0  0 
  4  2  1  0  0  0  0 
  2  5  1  0  0  0  0 
  3  6  1  0  0  0  0 
  3  7  1  0  0  0  0 
  3 31  1  0  0  0  0 
  8  4  1  0  0  0  0 
  4  9  1  0  0  0  0 
  4 32  1  0  0  0  0 
  5 10  1  0  0  0  0 
  6 11  2  0  0  0  0 
  6 12  1  0  0  0  0 
  7  9  1  0  0  0  0 
  8 13  1  0  0  0  0 
  8 14  1  0  0  0  0 
 10 12  1  0  0  0  0 
 11 15  1  0  0  0  0 
 13 16  2  0  0  0  0 
 15 17  2  0  0  0  0 
 18 16  1  0  0  0  0 
 17 19  1  0  0  0  0 
 17 20  1  0  0  0  0 
 18 21  1  0  0  0  0 
 18 22  1  0  0  0  0 
 19 23  2  0  0  0  0 
 24 19  1  0  0  0  0 
 25 20  1  0  0  0  0 
 21 26  1  0  0  0  0 
 21 27  1  0  0  0  0 
 24 28  1  0  0  0  0 
 24 29  1  0  0  0  0 
 25 29  1  0  0  0  0 
 25 30  1  0  0  0  0 
  1 33  1  0  0  0  0 
  1 34  1  0  0  0  0 
  1 35  1  0  0  0  0 
  5 36  1  0  0  0  0 
  5 37  1  0  0  0  0 
  7 38  1  0  0  0  0 
  7 39  1  0  0  0  0 
  8 40  1  0  0  0  0 
  9 41  1  0  0  0  0 
  9 42  1  0  0  0  0 
 10 43  1  0  0  0  0 
 10 44  1  0  0  0  0 
 11 45  1  0  0  0  0 
 12 46  1  0  0  0  0 
 12 47  1  0  0  0  0 
 13 48  1  0  0  0  0 
 14 49  1  0  0  0  0 
 14 50  1  0  0  0  0 
 14 51  1  0  0  0  0 
 15 52  1  0  0  0  0 
 16 53  1  0  0  0  0 
 18 54  1  0  0  0  0 
 20 55  1  0  0  0  0 
 20 56  1  0  0  0  0 
 21 57  1  0  0  0  0 
 22 58  1  0  0  0  0 
 22 59  1  0  0  0  0 
 22 60  1  0  0  0  0 
 23 61  1  0  0  0  0 
 23 62  1  0  0  0  0 
 24 63  1  0  0  0  0 
 25 64  1  0  0  0  0 
 26 65  1  0  0  0  0 
 26 66  1  0  0  0  0 
 26 67  1  0  0  0  0 
 27 68  1  0  0  0  0 
 27 69  1  0  0  0  0 
 27 70  1  0  0  0  0 
 28 71  1  0  0  0  0 
 29 72  1  0  0  0  0 
 29 73  1  0  0  0  0 
 30 74  1  0  0  0  0 
M  END
> <cdk:Title>
doxercalciferol

> <Conformer>
1

> <SuperDrugID>
SD000849

$$$$
