methocarbamol
  CDK     0628171801

 32 32  0  0  0  0  0  0  0  0999 V2000
   -0.9611   -1.6971   -1.1452 O   0  0  0  0  0  0  0  0  0  0  0  0
   -1.2508   -1.7020   -2.5610 C   0  0  2  0  0  0  0  0  0  0  0  0
   -1.6358   -2.6629   -0.4486 C   0  0  0  0  0  0  0  0  0  0  0  0
   -0.6094   -0.4535   -3.2147 C   0  0  2  0  0  0  0  0  0  0  0  0
   -2.8114   -2.3229    0.2598 C   0  0  0  0  0  0  0  0  0  0  0  0
   -1.1587   -3.9905   -0.4227 C   0  0  0  0  0  0  0  0  0  0  0  0
   -0.7809   -0.3970   -4.7528 C   0  0  1  0  0  0  0  0  0  0  0  0
    0.7831   -0.4045   -2.9093 O   0  0  0  0  0  0  0  0  0  0  0  0
   -3.2564   -1.0260    0.2773 O   0  0  0  0  0  0  0  0  0  0  0  0
   -3.5435   -3.3341    0.9183 C   0  0  0  0  0  0  0  0  0  0  0  0
   -1.8864   -4.9915    0.2461 C   0  0  0  0  0  0  0  0  0  0  0  0
   -0.4766    0.9311   -5.2049 O   0  0  0  0  0  0  0  0  0  0  0  0
   -2.7795   -0.2781    1.4117 C   0  0  0  0  0  0  0  0  0  0  0  0
   -3.0870   -4.6659    0.9028 C   0  0  0  0  0  0  0  0  0  0  0  0
   -0.4980    1.3849   -6.4885 C   0  0  0  0  0  0  0  0  0  0  0  0
   -0.2484    2.6817   -6.7204 N   0  0  0  0  0  0  0  0  0  0  0  0
   -0.7521    0.6363   -7.4580 O   0  0  0  0  0  0  0  0  0  0  0  0
   -2.3307   -1.6625   -2.7371 H   0  0  0  0  0  0  0  0  0  0  0  0
   -0.8561   -2.6113   -3.0240 H   0  0  0  0  0  0  0  0  0  0  0  0
   -1.0823    0.4324   -2.7845 H   0  0  0  0  0  0  0  0  0  0  0  0
   -0.2865   -4.2296   -0.8996 H   0  0  0  0  0  0  0  0  0  0  0  0
   -0.1118   -1.1190   -5.2270 H   0  0  0  0  0  0  0  0  0  0  0  0
   -1.8088   -0.6428   -5.0305 H   0  0  0  0  0  0  0  0  0  0  0  0
    0.8316   -0.3159   -1.9348 H   0  0  0  0  0  0  0  0  0  0  0  0
   -4.4097   -3.1026    1.4100 H   0  0  0  0  0  0  0  0  0  0  0  0
   -1.5461   -5.9560    0.2502 H   0  0  0  0  0  0  0  0  0  0  0  0
   -3.1575    0.7414    1.3331 H   0  0  0  0  0  0  0  0  0  0  0  0
   -3.1467   -0.7029    2.3492 H   0  0  0  0  0  0  0  0  0  0  0  0
   -1.6877   -0.2310    1.4346 H   0  0  0  0  0  0  0  0  0  0  0  0
   -3.6246   -5.3972    1.3739 H   0  0  0  0  0  0  0  0  0  0  0  0
   -0.2676    3.0295   -7.6263 H   0  0  0  0  0  0  0  0  0  0  0  0
   -0.0602    3.2773   -5.9790 H   0  0  0  0  0  0  0  0  0  0  0  0
  1  2  1  0  0  0  0 
  1  3  1  0  0  0  0 
  4  2  1  0  0  0  0 
  3  5  2  0  0  0  0 
  3  6  1  0  0  0  0 
  4  7  1  0  0  0  0 
  4  8  1  0  0  0  0 
  5  9  1  0  0  0  0 
  5 10  1  0  0  0  0 
  6 11  2  0  0  0  0 
  7 12  1  0  0  0  0 
  9 13  1  0  0  0  0 
 10 14  2  0  0  0  0 
 11 14  1  0  0  0  0 
 12 15  1  0  0  0  0 
 15 16  1  0  0  0  0 
 15 17  2  0  0  0  0 
 18  2  1  0  0  0  0 
 19  2  1  0  0  0  0 
 20  4  1  0  0  0  0 
 21  6  1  0  0  0  0 
 22  7  1  0  0  0  0 
 23  7  1  0  0  0  0 
 24  8  1  0  0  0  0 
 25 10  1  0  0  0  0 
 26 11  1  0  0  0  0 
 27 13  1  0  0  0  0 
 28 13  1  0  0  0  0 
 29 13  1  0  0  0  0 
 30 14  1  0  0  0  0 
 31 16  1  0  0  0  0 
 32 16  1  0  0  0  0 
M  END
> <cdk:Title>
methocarbamol

> <Conformer>
1

> <SuperDrugID>
SD001547

$$$$
