oxolinic acid
  CDK     0628171801

 30 32  0  0  0  0  0  0  0  0999 V2000
    0.3624   -0.9789    0.5796 C   0  0  2  0  0  0  0  0  0  0  0  0
   -0.8580   -0.7949   -0.3521 C   0  0  0  0  0  0  0  0  0  0  0  0
    1.4884   -0.1660    0.1296 N   0  0  0  0  0  0  0  0  0  0  0  0
    1.6318    1.1769    0.4437 C   0  0  0  0  0  0  0  0  0  0  0  0
    2.4125   -0.7908   -0.6695 C   0  0  0  0  0  0  0  0  0  0  0  0
    2.7610    1.9057   -0.0613 C   0  0  0  0  0  0  0  0  0  0  0  0
    0.6966    1.8905    1.2525 C   0  0  0  0  0  0  0  0  0  0  0  0
    3.5373   -0.1331   -1.2117 C   0  0  0  0  0  0  0  0  0  0  0  0
    2.9272    3.2826    0.2619 C   0  0  0  0  0  0  0  0  0  0  0  0
    3.6980    1.2358   -0.8877 C   0  0  0  0  0  0  0  0  0  0  0  0
    0.8919    3.2442    1.5612 C   0  0  0  0  0  0  0  0  0  0  0  0
    4.4412   -0.8564   -2.0512 C   0  0  0  0  0  0  0  0  0  0  0  0
    1.9869    3.9288    1.0768 C   0  0  0  0  0  0  0  0  0  0  0  0
    4.6801    1.8720   -1.3423 O   0  0  0  0  0  0  0  0  0  0  0  0
    0.0995    4.0301    2.3158 O   0  0  0  0  0  0  0  0  0  0  0  0
    4.2558   -2.1671   -2.3512 O   0  0  0  0  0  0  0  0  0  0  0  0
    5.4548   -0.3354   -2.5688 O   0  0  0  0  0  0  0  0  0  0  0  0
    1.9947    5.2152    1.4777 O   0  0  0  0  0  0  0  0  0  0  0  0
    0.8040    5.2866    2.2865 C   0  0  2  0  0  0  0  0  0  0  0  0
    0.6015   -2.0486    0.5962 H   0  0  0  0  0  0  0  0  0  0  0  0
    0.0878   -0.7518    1.6117 H   0  0  0  0  0  0  0  0  0  0  0  0
   -1.7183   -1.3326    0.0486 H   0  0  0  0  0  0  0  0  0  0  0  0
   -1.1223    0.2585   -0.4524 H   0  0  0  0  0  0  0  0  0  0  0  0
   -0.6303   -1.1908   -1.3437 H   0  0  0  0  0  0  0  0  0  0  0  0
    2.2816   -1.7811   -0.8985 H   0  0  0  0  0  0  0  0  0  0  0  0
   -0.1402    1.4518    1.6298 H   0  0  0  0  0  0  0  0  0  0  0  0
    3.7204    3.8269   -0.0877 H   0  0  0  0  0  0  0  0  0  0  0  0
    4.8891   -2.6405   -2.9306 H   0  0  0  0  0  0  0  0  0  0  0  0
    1.0779    5.5689    3.3069 H   0  0  0  0  0  0  0  0  0  0  0  0
    0.1430    6.0597    1.8852 H   0  0  0  0  0  0  0  0  0  0  0  0
  1  2  1  0  0  0  0 
  1  3  1  0  0  0  0 
  3  4  1  0  0  0  0 
  3  5  1  0  0  0  0 
  4  6  1  0  0  0  0 
  4  7  2  0  0  0  0 
  5  8  2  0  0  0  0 
  6  9  2  0  0  0  0 
  6 10  1  0  0  0  0 
  7 11  1  0  0  0  0 
  8 10  1  0  0  0  0 
  8 12  1  0  0  0  0 
  9 13  1  0  0  0  0 
 10 14  2  0  0  0  0 
 11 13  2  0  0  0  0 
 11 15  1  0  0  0  0 
 12 16  1  0  0  0  0 
 12 17  2  0  0  0  0 
 13 18  1  0  0  0  0 
 15 19  1  0  0  0  0 
 18 19  1  0  0  0  0 
  1 20  1  0  0  0  0 
  1 21  1  0  0  0  0 
  2 22  1  0  0  0  0 
  2 23  1  0  0  0  0 
  2 24  1  0  0  0  0 
  5 25  1  0  0  0  0 
  7 26  1  0  0  0  0 
  9 27  1  0  0  0  0 
 16 28  1  0  0  0  0 
 19 29  1  0  0  0  0 
 19 30  1  0  0  0  0 
M  END
> <cdk:Title>
oxolinic acid

> <Conformer>
1

> <SuperDrugID>
SD001811

$$$$
