loteprednol etabonate
  CDK     0628171801

 63 66  0  0  0  0  0  0  0  0999 V2000
   -1.0867   -2.0282    2.6227 O   0  0  0  0  0  0  0  0  0  0  0  0
   -0.0675   -2.0206    3.5459 C   0  0  0  0  0  0  0  0  0  0  0  0
   -1.3036   -1.1583    1.4779 C   0  0  1  0  0  0  0  0  0  0  0  0
   -0.0535   -2.8599    4.6201 O   0  0  0  0  0  0  0  0  0  0  0  0
    0.9031   -1.2373    3.4390 O   0  0  0  0  0  0  0  0  0  0  0  0
   -0.0748   -1.2184    0.6248 C   0  0  0  0  0  0  0  0  0  0  0  0
   -2.6198   -1.5868    0.7080 C   0  0  2  0  0  0  0  0  0  0  0  0
   -1.6779    0.2721    2.0149 C   0  0  2  0  0  0  0  0  0  0  0  0
   -0.9960   -3.8904    4.9411 C   0  0  2  0  0  0  0  0  0  0  0  0
    0.6398   -0.0898    0.3302 O   0  0  0  0  0  0  0  0  0  0  0  0
    0.3072   -2.3298    0.1854 O   0  0  0  0  0  0  0  0  0  0  0  0
   -2.6594   -0.8806   -0.7079 C   0  0  0  0  0  0  0  0  0  0  0  0
   -3.7076   -1.0744    1.7048 C   0  0  1  0  0  0  0  0  0  0  0  0
   -2.8604   -3.1311    0.5324 C   0  0  2  0  0  0  0  0  0  0  0  0
   -3.2287    0.3488    2.0709 C   0  0  1  0  0  0  0  0  0  0  0  0
   -0.8855   -5.0763    3.9618 C   0  0  0  0  0  0  0  0  0  0  0  0
    1.7924   -0.0027   -0.5119 C   0  0  1  0  0  0  0  0  0  0  0  0
   -5.1784   -1.3133    1.2177 C   0  0  1  0  0  0  0  0  0  0  0  0
   -4.3166   -3.5127    0.1055 C   0  0  1  0  0  0  0  0  0  0  0  0
    2.3666    1.6570   -0.5038 Cl  0  0  0  0  0  0  0  0  0  0  0  0
   -5.4278   -2.8635    1.0186 C   0  0  2  0  0  0  0  0  0  0  0  0
   -6.2127   -0.7060    2.2131 C   0  0  1  0  0  0  0  0  0  0  0  0
   -4.5087   -3.2268   -1.2754 O   0  0  0  0  0  0  0  0  0  0  0  0
   -6.9460   -3.2144    0.6704 C   0  0  2  0  0  0  0  0  0  0  0  0
   -7.6652   -1.0439    1.8107 C   0  0  2  0  0  0  0  0  0  0  0  0
   -7.3955   -2.7887   -0.7746 C   0  0  0  0  0  0  0  0  0  0  0  0
   -7.8221   -2.4941    1.6560 C   0  0  0  0  0  0  0  0  0  0  0  0
   -7.1495   -4.6852    0.7192 C   0  0  0  0  0  0  0  0  0  0  0  0
   -8.7217   -3.1557    2.4199 C   0  0  0  0  0  0  0  0  0  0  0  0
   -8.0635   -5.2791    1.5029 C   0  0  0  0  0  0  0  0  0  0  0  0
   -8.8676   -4.5295    2.3404 C   0  0  0  0  0  0  0  0  0  0  0  0
   -9.7333   -5.1026    3.0430 O   0  0  0  0  0  0  0  0  0  0  0  0
   -5.3298   -0.8031    0.2663 H   0  0  0  0  0  0  0  0  0  0  0  0
   -5.2542   -3.3154    2.0056 H   0  0  0  0  0  0  0  0  0  0  0  0
   -3.6242   -1.6463    2.6392 H   0  0  0  0  0  0  0  0  0  0  0  0
   -1.3131    1.0669    1.3551 H   0  0  0  0  0  0  0  0  0  0  0  0
   -1.2502    0.4523    3.0065 H   0  0  0  0  0  0  0  0  0  0  0  0
   -2.0407   -3.4554    4.8473 H   0  0  0  0  0  0  0  0  0  0  0  0
   -0.6769   -4.2782    5.9570 H   0  0  0  0  0  0  0  0  0  0  0  0
   -3.6296   -0.9403   -1.1882 H   0  0  0  0  0  0  0  0  0  0  0  0
   -2.4085    0.1769   -0.6447 H   0  0  0  0  0  0  0  0  0  0  0  0
   -1.9378   -1.3373   -1.3863 H   0  0  0  0  0  0  0  0  0  0  0  0
   -2.6652   -3.6435    1.4776 H   0  0  0  0  0  0  0  0  0  0  0  0
   -2.1524   -3.5364   -0.1955 H   0  0  0  0  0  0  0  0  0  0  0  0
   -3.5669    0.6425    3.0693 H   0  0  0  0  0  0  0  0  0  0  0  0
   -3.6072    1.0770    1.3482 H   0  0  0  0  0  0  0  0  0  0  0  0
    0.0850   -5.5677    4.0645 H   0  0  0  0  0  0  0  0  0  0  0  0
   -1.6731   -5.8024    4.1728 H   0  0  0  0  0  0  0  0  0  0  0  0
   -0.9967   -4.7289    2.9358 H   0  0  0  0  0  0  0  0  0  0  0  0
    2.5833   -0.6512   -0.1339 H   0  0  0  0  0  0  0  0  0  0  0  0
    1.5413   -0.2883   -1.5359 H   0  0  0  0  0  0  0  0  0  0  0  0
   -4.3844   -4.5990    0.1902 H   0  0  0  0  0  0  0  0  0  0  0  0
   -6.0250   -1.0820    3.2235 H   0  0  0  0  0  0  0  0  0  0  0  0
   -6.1116    0.3819    2.2373 H   0  0  0  0  0  0  0  0  0  0  0  0
   -3.8021   -3.7235   -1.7381 H   0  0  0  0  0  0  0  0  0  0  0  0
   -7.9111   -0.5393    0.8742 H   0  0  0  0  0  0  0  0  0  0  0  0
   -8.3323   -0.6252    2.5693 H   0  0  0  0  0  0  0  0  0  0  0  0
   -6.9700   -3.4314   -1.5466 H   0  0  0  0  0  0  0  0  0  0  0  0
   -7.1004   -1.7665   -1.0071 H   0  0  0  0  0  0  0  0  0  0  0  0
   -8.4819   -2.8540   -0.8784 H   0  0  0  0  0  0  0  0  0  0  0  0
   -6.6077   -5.2746    0.1311 H   0  0  0  0  0  0  0  0  0  0  0  0
   -9.2928   -2.6592    3.0658 H   0  0  0  0  0  0  0  0  0  0  0  0
   -8.1677   -6.2687    1.4772 H   0  0  0  0  0  0  0  0  0  0  0  0
  1  2  1  0  0  0  0 
  2  4  1  0  0  0  0 
  2  5  2  0  0  0  0 
  3  1  1  0  0  0  0 
  3  6  1  0  0  0  0 
  7  3  1  0  0  0  0 
  3  8  1  0  0  0  0 
  4  9  1  0  0  0  0 
  6 10  1  0  0  0  0 
  6 11  2  0  0  0  0 
  7 12  1  0  0  0  0 
 13  7  1  0  0  0  0 
  7 14  1  0  0  0  0 
  8 15  1  0  0  0  0 
  9 16  1  0  0  0  0 
 10 17  1  0  0  0  0 
 13 15  1  0  0  0  0 
 13 18  1  0  0  0  0 
 13 35  1  0  0  0  0 
 19 14  1  0  0  0  0 
 17 20  1  0  0  0  0 
 18 21  1  0  0  0  0 
 18 22  1  0  0  0  0 
 18 33  1  0  0  0  0 
 21 19  1  0  0  0  0 
 19 23  1  0  0  0  0 
 21 24  1  0  0  0  0 
 21 34  1  0  0  0  0 
 22 25  1  0  0  0  0 
 24 26  1  0  0  0  0 
 24 27  1  0  0  0  0 
 24 28  1  0  0  0  0 
 25 27  1  0  0  0  0 
 27 29  2  0  0  0  0 
 28 30  2  0  0  0  0 
 29 31  1  0  0  0  0 
 30 31  1  0  0  0  0 
 31 32  2  0  0  0  0 
  8 36  1  0  0  0  0 
  8 37  1  0  0  0  0 
  9 38  1  0  0  0  0 
  9 39  1  0  0  0  0 
 12 40  1  0  0  0  0 
 12 41  1  0  0  0  0 
 12 42  1  0  0  0  0 
 14 43  1  0  0  0  0 
 14 44  1  0  0  0  0 
 15 45  1  0  0  0  0 
 15 46  1  0  0  0  0 
 16 47  1  0  0  0  0 
 16 48  1  0  0  0  0 
 16 49  1  0  0  0  0 
 17 50  1  0  0  0  0 
 17 51  1  0  0  0  0 
 19 52  1  0  0  0  0 
 22 53  1  0  0  0  0 
 22 54  1  0  0  0  0 
 23 55  1  0  0  0  0 
 25 56  1  0  0  0  0 
 25 57  1  0  0  0  0 
 26 58  1  0  0  0  0 
 26 59  1  0  0  0  0 
 26 60  1  0  0  0  0 
 28 61  1  0  0  0  0 
 29 62  1  0  0  0  0 
 30 63  1  0  0  0  0 
M  END
> <cdk:Title>
loteprednol etabonate

> <Conformer>
1

> <SuperDrugID>
SD001425

$$$$
