naftifine
  CDK     0628171801

 43 45  0  0  0  0  0  0  0  0999 V2000
   -2.5243   -2.5402    2.5734 C   0  0  2  0  0  0  0  0  0  0  0  0
   -3.2304   -2.8680    1.2851 N   0  0  0  0  0  0  0  0  0  0  0  0
   -1.8794   -3.6685    3.3264 C   0  0  0  0  0  0  0  0  0  0  0  0
   -2.6561   -2.4047   -0.0193 C   0  0  1  0  0  0  0  0  0  0  0  0
   -3.9251   -4.1862    1.2243 C   0  0  0  0  0  0  0  0  0  0  0  0
   -0.5902   -4.2065    3.0211 C   0  0  0  0  0  0  0  0  0  0  0  0
   -2.5941   -4.2093    4.4251 C   0  0  0  0  0  0  0  0  0  0  0  0
   -2.1771   -1.0284   -0.0347 C   0  0  0  0  0  0  0  0  0  0  0  0
   -0.0420   -5.2377    3.8514 C   0  0  0  0  0  0  0  0  0  0  0  0
    0.1932   -3.7575    1.9264 C   0  0  0  0  0  0  0  0  0  0  0  0
   -2.0540   -5.2242    5.2281 C   0  0  0  0  0  0  0  0  0  0  0  0
   -2.9500    0.0363    0.2597 C   0  0  0  0  0  0  0  0  0  0  0  0
   -0.7801   -5.7338    4.9480 C   0  0  0  0  0  0  0  0  0  0  0  0
    1.2413   -5.7669    3.5823 C   0  0  0  0  0  0  0  0  0  0  0  0
    1.4611   -4.3021    1.6581 C   0  0  0  0  0  0  0  0  0  0  0  0
   -2.5372    1.3788    0.2791 C   0  0  0  0  0  0  0  0  0  0  0  0
    1.9876   -5.3025    2.4884 C   0  0  0  0  0  0  0  0  0  0  0  0
   -3.3088    2.3347    0.9928 C   0  0  0  0  0  0  0  0  0  0  0  0
   -1.3766    1.8490   -0.3925 C   0  0  0  0  0  0  0  0  0  0  0  0
   -2.9257    3.6887    1.0546 C   0  0  0  0  0  0  0  0  0  0  0  0
   -0.9864    3.1993   -0.3238 C   0  0  0  0  0  0  0  0  0  0  0  0
   -1.7589    4.1200    0.4024 C   0  0  0  0  0  0  0  0  0  0  0  0
   -3.2946   -2.0731    3.1931 H   0  0  0  0  0  0  0  0  0  0  0  0
   -1.7771   -1.7545    2.4480 H   0  0  0  0  0  0  0  0  0  0  0  0
   -1.8475   -3.0799   -0.3119 H   0  0  0  0  0  0  0  0  0  0  0  0
   -3.4208   -2.4814   -0.7977 H   0  0  0  0  0  0  0  0  0  0  0  0
   -4.5831   -4.3046    2.0861 H   0  0  0  0  0  0  0  0  0  0  0  0
   -4.5440   -4.2699    0.3296 H   0  0  0  0  0  0  0  0  0  0  0  0
   -3.1973   -4.9995    1.2159 H   0  0  0  0  0  0  0  0  0  0  0  0
   -3.5292   -3.8645    4.6597 H   0  0  0  0  0  0  0  0  0  0  0  0
   -1.2195   -0.8967   -0.2597 H   0  0  0  0  0  0  0  0  0  0  0  0
   -0.1383   -3.0234    1.3037 H   0  0  0  0  0  0  0  0  0  0  0  0
   -2.5871   -5.5892    6.0220 H   0  0  0  0  0  0  0  0  0  0  0  0
   -3.8973   -0.1524    0.5057 H   0  0  0  0  0  0  0  0  0  0  0  0
   -0.3985   -6.4704    5.5506 H   0  0  0  0  0  0  0  0  0  0  0  0
    1.6439   -6.4965    4.1775 H   0  0  0  0  0  0  0  0  0  0  0  0
    2.0047   -3.9655    0.8590 H   0  0  0  0  0  0  0  0  0  0  0  0
    2.9134   -5.6925    2.2980 H   0  0  0  0  0  0  0  0  0  0  0  0
   -4.1608    2.0537    1.4867 H   0  0  0  0  0  0  0  0  0  0  0  0
   -0.7970    1.2204   -0.9504 H   0  0  0  0  0  0  0  0  0  0  0  0
   -3.4935    4.3603    1.5761 H   0  0  0  0  0  0  0  0  0  0  0  0
   -0.1394    3.5121   -0.8047 H   0  0  0  0  0  0  0  0  0  0  0  0
   -1.4742    5.1015    0.4507 H   0  0  0  0  0  0  0  0  0  0  0  0
  1  2  1  0  0  0  0 
  1  3  1  0  0  0  0 
  2  4  1  0  0  0  0 
  2  5  1  0  0  0  0 
  3  6  2  0  0  0  0 
  3  7  1  0  0  0  0 
  4  8  1  0  0  0  0 
  6  9  1  0  0  0  0 
  6 10  1  0  0  0  0 
  7 11  2  0  0  0  0 
  8 12  2  0  0  0  0 
  9 13  2  0  0  0  0 
  9 14  1  0  0  0  0 
 10 15  2  0  0  0  0 
 11 13  1  0  0  0  0 
 12 16  1  0  0  0  0 
 14 17  2  0  0  0  0 
 15 17  1  0  0  0  0 
 16 18  2  0  0  0  0 
 16 19  1  0  0  0  0 
 18 20  1  0  0  0  0 
 19 21  2  0  0  0  0 
 20 22  2  0  0  0  0 
 21 22  1  0  0  0  0 
  1 23  1  0  0  0  0 
  1 24  1  0  0  0  0 
  4 25  1  0  0  0  0 
  4 26  1  0  0  0  0 
  5 27  1  0  0  0  0 
  5 28  1  0  0  0  0 
  5 29  1  0  0  0  0 
  7 30  1  0  0  0  0 
  8 31  1  0  0  0  0 
 10 32  1  0  0  0  0 
 11 33  1  0  0  0  0 
 12 34  1  0  0  0  0 
 13 35  1  0  0  0  0 
 14 36  1  0  0  0  0 
 15 37  1  0  0  0  0 
 17 38  1  0  0  0  0 
 18 39  1  0  0  0  0 
 19 40  1  0  0  0  0 
 20 41  1  0  0  0  0 
 21 42  1  0  0  0  0 
 22 43  1  0  0  0  0 
M  END
> <cdk:Title>
naftifine

> <Conformer>
1

> <SuperDrugID>
SD001668

$$$$
