modafinil
  CDK     0628171801

 34 35  0  0  0  0  0  0  0  0999 V2000
   -1.0471   -2.5766   -0.0309 C   0  0  1  0  0  0  0  0  0  0  0  0
   -1.9190   -1.8466    1.4155 S   0  0  1  0  0  0  0  0  0  0  0  0
   -1.5818   -3.9190   -0.4260 C   0  0  0  0  0  0  0  0  0  0  0  0
   -1.0212   -1.5863   -1.1550 C   0  0  0  0  0  0  0  0  0  0  0  0
   -1.4834   -2.8584    2.8770 C   0  0  2  0  0  0  0  0  0  0  0  0
   -1.1846   -0.4432    1.6633 O   0  0  0  0  0  0  0  0  0  0  0  0
   -2.9710   -4.1667   -0.5727 C   0  0  0  0  0  0  0  0  0  0  0  0
   -0.6927   -5.0021   -0.6399 C   0  0  0  0  0  0  0  0  0  0  0  0
   -2.2118   -1.0605   -1.7192 C   0  0  0  0  0  0  0  0  0  0  0  0
    0.2147   -1.1025   -1.6561 C   0  0  0  0  0  0  0  0  0  0  0  0
   -2.1896   -4.1514    2.8844 C   0  0  0  0  0  0  0  0  0  0  0  0
   -3.4543   -5.4483   -0.8961 C   0  0  0  0  0  0  0  0  0  0  0  0
   -1.1729   -6.2834   -0.9652 C   0  0  0  0  0  0  0  0  0  0  0  0
   -2.1706   -0.0917   -2.7384 C   0  0  0  0  0  0  0  0  0  0  0  0
    0.2590   -0.1297   -2.6728 C   0  0  0  0  0  0  0  0  0  0  0  0
   -1.5093   -5.3094    2.8421 N   0  0  0  0  0  0  0  0  0  0  0  0
   -3.4393   -4.1984    2.9456 O   0  0  0  0  0  0  0  0  0  0  0  0
   -2.5539   -6.5082   -1.0895 C   0  0  0  0  0  0  0  0  0  0  0  0
   -0.9350    0.3742   -3.2163 C   0  0  0  0  0  0  0  0  0  0  0  0
   -0.0228   -2.7159    0.3284 H   0  0  0  0  0  0  0  0  0  0  0  0
   -1.7641   -2.3001    3.7705 H   0  0  0  0  0  0  0  0  0  0  0  0
   -0.4010   -3.0057    2.8934 H   0  0  0  0  0  0  0  0  0  0  0  0
   -3.6513   -3.4188   -0.4253 H   0  0  0  0  0  0  0  0  0  0  0  0
    0.3177   -4.8704   -0.5541 H   0  0  0  0  0  0  0  0  0  0  0  0
   -3.1255   -1.3625   -1.3813 H   0  0  0  0  0  0  0  0  0  0  0  0
    1.0996   -1.4477   -1.2771 H   0  0  0  0  0  0  0  0  0  0  0  0
   -4.4603   -5.6111   -0.9848 H   0  0  0  0  0  0  0  0  0  0  0  0
   -0.5155   -7.0536   -1.1077 H   0  0  0  0  0  0  0  0  0  0  0  0
   -3.0398    0.2796   -3.1281 H   0  0  0  0  0  0  0  0  0  0  0  0
    1.1600    0.2151   -3.0147 H   0  0  0  0  0  0  0  0  0  0  0  0
   -1.9831   -6.1549    2.8746 H   0  0  0  0  0  0  0  0  0  0  0  0
   -0.5416   -5.3001    2.7804 H   0  0  0  0  0  0  0  0  0  0  0  0
   -2.9026   -7.4410   -1.3180 H   0  0  0  0  0  0  0  0  0  0  0  0
   -0.9066    1.0798   -3.9555 H   0  0  0  0  0  0  0  0  0  0  0  0
  2  1  1  0  0  0  0 
  1  3  1  0  0  0  0 
  1  4  1  0  0  0  0 
  2  5  1  0  0  0  0 
  2  6  2  0  0  0  0 
  3  7  2  0  0  0  0 
  3  8  1  0  0  0  0 
  4  9  2  0  0  0  0 
  4 10  1  0  0  0  0 
  5 11  1  0  0  0  0 
  7 12  1  0  0  0  0 
  8 13  2  0  0  0  0 
  9 14  1  0  0  0  0 
 10 15  2  0  0  0  0 
 11 16  1  0  0  0  0 
 11 17  2  0  0  0  0 
 12 18  2  0  0  0  0 
 13 18  1  0  0  0  0 
 14 19  2  0  0  0  0 
 15 19  1  0  0  0  0 
  1 20  1  0  0  0  0 
  5 21  1  0  0  0  0 
  5 22  1  0  0  0  0 
  7 23  1  0  0  0  0 
  8 24  1  0  0  0  0 
  9 25  1  0  0  0  0 
 10 26  1  0  0  0  0 
 12 27  1  0  0  0  0 
 13 28  1  0  0  0  0 
 14 29  1  0  0  0  0 
 15 30  1  0  0  0  0 
 16 31  1  0  0  0  0 
 16 32  1  0  0  0  0 
 18 33  1  0  0  0  0 
 19 34  1  0  0  0  0 
M  END
> <cdk:Title>
modafinil

> <Conformer>
1

> <SuperDrugID>
SD001625

$$$$
