tavaborole
  CDK     0628171802

 17 18  0  0  0  0  0  0  0  0999 V2000
    0.9553    2.7510   -1.6193 C   0  0  0  0  0  0  0  0  0  0  0  0
    0.7467    4.1343   -1.8033 C   0  0  0  0  0  0  0  0  0  0  0  0
   -0.3084    4.7942   -1.1305 C   0  0  0  0  0  0  0  0  0  0  0  0
   -1.1690    4.0737   -0.2722 C   0  0  0  0  0  0  0  0  0  0  0  0
   -0.9547    2.6940   -0.0867 C   0  0  0  0  0  0  0  0  0  0  0  0
    0.0886    2.0663   -0.7523 C   0  0  0  0  0  0  0  0  0  0  0  0
   -1.7110    1.7571    0.7697 C   0  0  1  0  0  0  0  0  0  0  0  0
    0.0288    0.5881   -0.3077 B   0  0  0  0  0  0  0  0  0  0  0  0
   -1.1354    0.4311    0.6797 O   0  0  0  0  0  0  0  0  0  0  0  0
   -0.4893    6.0746   -1.3022 F   0  0  0  0  0  0  0  0  0  0  0  0
    1.0613   -0.4857   -0.6481 O   0  0  0  0  0  0  0  0  0  0  0  0
    1.7114    2.2601   -2.1016 H   0  0  0  0  0  0  0  0  0  0  0  0
    1.3650    4.6575   -2.4283 H   0  0  0  0  0  0  0  0  0  0  0  0
   -1.9366    4.5442    0.2127 H   0  0  0  0  0  0  0  0  0  0  0  0
   -1.6723    2.0888    1.8088 H   0  0  0  0  0  0  0  0  0  0  0  0
   -2.7533    1.7183    0.4494 H   0  0  0  0  0  0  0  0  0  0  0  0
    1.7762   -0.3484    0.0083 H   0  0  0  0  0  0  0  0  0  0  0  0
  1  2  2  0  0  0  0 
  1  6  1  0  0  0  0 
  2  3  1  0  0  0  0 
  3  4  2  0  0  0  0 
  4  5  1  0  0  0  0 
  5  6  2  0  0  0  0 
  8  9  1  0  0  0  0 
  7  9  1  0  0  0  0 
  7  5  1  0  0  0  0 
  6  8  1  0  0  0  0 
  3 10  1  0  0  0  0 
  8 11  1  0  0  0  0 
  1 12  1  0  0  0  0 
  2 13  1  0  0  0  0 
  4 14  1  0  0  0  0 
  7 15  1  0  0  0  0 
  7 16  1  0  0  0  0 
 11 17  1  0  0  0  0 
M  END
> <cdk:Title>
tavaborole

> <Conformer>
1

> <SuperDrugID>
SD003819

$$$$
