ciclonicate
  CDK     0628171801

 39 40  0  0  0  0  0  0  0  0999 V2000
    2.0297   -2.6892   -2.3832 O   0  0  0  0  0  0  0  0  0  0  0  0
    1.4864   -1.8915   -3.3563 C   0  0  0  0  0  0  0  0  0  0  0  0
    1.3335   -3.6209   -1.5301 C   0  0  1  0  0  0  0  0  0  0  0  0
    0.2575   -1.9700   -3.5965 O   0  0  0  0  0  0  0  0  0  0  0  0
    2.2951   -0.9901   -4.0960 C   0  0  0  0  0  0  0  0  0  0  0  0
    2.2767   -4.8081   -1.1971 C   0  0  2  0  0  0  0  0  0  0  0  0
    0.8942   -2.8795   -0.2404 C   0  0  1  0  0  0  0  0  0  0  0  0
    3.5458   -0.5396   -3.6055 C   0  0  0  0  0  0  0  0  0  0  0  0
    1.8789   -0.5003   -5.3586 C   0  0  0  0  0  0  0  0  0  0  0  0
    1.6776   -5.8394   -0.1736 C   0  0  1  0  0  0  0  0  0  0  0  0
    0.2376   -3.8083    0.8236 C   0  0  2  0  0  0  0  0  0  0  0  0
    4.3251    0.3649   -4.3495 C   0  0  0  0  0  0  0  0  0  0  0  0
    2.6617    0.3582   -6.0614 N   0  0  0  0  0  0  0  0  0  0  0  0
    1.1157   -5.0763    1.0868 C   0  0  1  0  0  0  0  0  0  0  0  0
   -1.2615   -4.0967    0.5264 C   0  0  0  0  0  0  0  0  0  0  0  0
    3.8567    0.8019   -5.5994 C   0  0  0  0  0  0  0  0  0  0  0  0
    0.5887   -6.7544   -0.8358 C   0  0  0  0  0  0  0  0  0  0  0  0
    2.8273   -6.7929    0.2959 C   0  0  0  0  0  0  0  0  0  0  0  0
    0.4516   -4.0128   -2.0446 H   0  0  0  0  0  0  0  0  0  0  0  0
    3.2038   -4.3892   -0.7938 H   0  0  0  0  0  0  0  0  0  0  0  0
    2.5367   -5.3203   -2.1273 H   0  0  0  0  0  0  0  0  0  0  0  0
    1.7770   -2.4107    0.2024 H   0  0  0  0  0  0  0  0  0  0  0  0
    0.2029   -2.0754   -0.5065 H   0  0  0  0  0  0  0  0  0  0  0  0
    3.8975   -0.8502   -2.6963 H   0  0  0  0  0  0  0  0  0  0  0  0
    0.9893   -0.7917   -5.7715 H   0  0  0  0  0  0  0  0  0  0  0  0
    0.2249   -3.2438    1.7642 H   0  0  0  0  0  0  0  0  0  0  0  0
    5.2213    0.6984   -3.9877 H   0  0  0  0  0  0  0  0  0  0  0  0
    0.5633   -5.7700    1.7267 H   0  0  0  0  0  0  0  0  0  0  0  0
    1.9659   -4.7298    1.6836 H   0  0  0  0  0  0  0  0  0  0  0  0
   -1.4037   -4.5442   -0.4525 H   0  0  0  0  0  0  0  0  0  0  0  0
   -1.6820   -4.7633    1.2822 H   0  0  0  0  0  0  0  0  0  0  0  0
   -1.8311   -3.1655    0.5452 H   0  0  0  0  0  0  0  0  0  0  0  0
    4.4126    1.4464   -6.1645 H   0  0  0  0  0  0  0  0  0  0  0  0
   -0.1884   -6.1836   -1.3347 H   0  0  0  0  0  0  0  0  0  0  0  0
    0.1103   -7.3872   -0.0845 H   0  0  0  0  0  0  0  0  0  0  0  0
    1.0321   -7.4060   -1.5908 H   0  0  0  0  0  0  0  0  0  0  0  0
    3.2624   -7.3274   -0.5507 H   0  0  0  0  0  0  0  0  0  0  0  0
    3.6286   -6.2337    0.7813 H   0  0  0  0  0  0  0  0  0  0  0  0
    2.4517   -7.5298    1.0084 H   0  0  0  0  0  0  0  0  0  0  0  0
  1  2  1  0  0  0  0 
  2  4  2  0  0  0  0 
  2  5  1  0  0  0  0 
  3  1  1  0  0  0  0 
  3  6  1  0  0  0  0 
  3  7  1  0  0  0  0 
  5  8  2  0  0  0  0 
  5  9  1  0  0  0  0 
  6 10  1  0  0  0  0 
 11  7  1  0  0  0  0 
  8 12  1  0  0  0  0 
  9 13  2  0  0  0  0 
 10 14  1  0  0  0  0 
 11 14  1  0  0  0  0 
 11 15  1  0  0  0  0 
 12 16  2  0  0  0  0 
 13 16  1  0  0  0  0 
 10 17  1  0  0  0  0 
 10 18  1  0  0  0  0 
  3 19  1  0  0  0  0 
  6 20  1  0  0  0  0 
  6 21  1  0  0  0  0 
  7 22  1  0  0  0  0 
  7 23  1  0  0  0  0 
  8 24  1  0  0  0  0 
  9 25  1  0  0  0  0 
 11 26  1  0  0  0  0 
 12 27  1  0  0  0  0 
 14 28  1  0  0  0  0 
 14 29  1  0  0  0  0 
 15 30  1  0  0  0  0 
 15 31  1  0  0  0  0 
 15 32  1  0  0  0  0 
 16 33  1  0  0  0  0 
 17 34  1  0  0  0  0 
 17 35  1  0  0  0  0 
 17 36  1  0  0  0  0 
 18 37  1  0  0  0  0 
 18 38  1  0  0  0  0 
 18 39  1  0  0  0  0 
M  END
> <cdk:Title>
ciclonicate

> <Conformer>
1

> <SuperDrugID>
SD003295

$$$$
