halofantrine
  CDK     0628171801

 63 65  0  0  0  0  0  0  0  0999 V2000
    1.2048    2.7625    1.3302 C   0  0  1  0  0  0  0  0  0  0  0  0
    1.4601    1.4039    0.6135 C   0  0  1  0  0  0  0  0  0  0  0  0
   -0.1594    3.1663    1.1802 O   0  0  0  0  0  0  0  0  0  0  0  0
    1.5967    2.7516    2.7844 C   0  0  0  0  0  0  0  0  0  0  0  0
    1.3279    1.4311   -0.9424 C   0  0  1  0  0  0  0  0  0  0  0  0
    2.8323    3.2554    3.2875 C   0  0  0  0  0  0  0  0  0  0  0  0
    0.6576    2.2439    3.7035 C   0  0  0  0  0  0  0  0  0  0  0  0
    2.6398    1.7386   -1.6262 N   0  0  1  0  0  0  0  0  0  0  0  0
    3.0372    3.3975    4.7009 C   0  0  0  0  0  0  0  0  0  0  0  0
    3.8835    3.6184    2.4049 C   0  0  0  0  0  0  0  0  0  0  0  0
    0.8271    2.3446    5.0994 C   0  0  0  0  0  0  0  0  0  0  0  0
    3.3011    0.5423   -2.2641 C   0  0  2  0  0  0  0  0  0  0  0  0
    2.6431    2.9589   -2.5120 C   0  0  2  0  0  0  0  0  0  0  0  0
    2.0140    2.9629    5.6091 C   0  0  0  0  0  0  0  0  0  0  0  0
    4.2692    3.9735    5.1367 C   0  0  0  0  0  0  0  0  0  0  0  0
    5.0697    4.1908    2.8699 C   0  0  0  0  0  0  0  0  0  0  0  0
   -0.1828    1.8703    5.9861 C   0  0  0  0  0  0  0  0  0  0  0  0
    3.7355   -0.5629   -1.2582 C   0  0  2  0  0  0  0  0  0  0  0  0
    2.4368    4.2953   -1.7477 C   0  0  2  0  0  0  0  0  0  0  0  0
    2.1077    3.1134    7.0222 C   0  0  0  0  0  0  0  0  0  0  0  0
    5.2813    4.3925    4.2432 C   0  0  0  0  0  0  0  0  0  0  0  0
   -1.6008    1.0735    5.4842 Cl  0  0  0  0  0  0  0  0  0  0  0  0
   -0.0423    2.0503    7.3729 C   0  0  0  0  0  0  0  0  0  0  0  0
    4.4090   -1.7942   -1.9273 C   0  0  1  0  0  0  0  0  0  0  0  0
    2.6195    5.5718   -2.6109 C   0  0  1  0  0  0  0  0  0  0  0  0
    1.0998    2.6697    7.8929 C   0  0  0  0  0  0  0  0  0  0  0  0
    6.5653    5.0097    4.6826 C   0  0  2  0  0  0  0  0  0  0  0  0
    5.0988   -2.7242   -0.8474 C   0  0  0  0  0  0  0  0  0  0  0  0
    2.4209    6.8664   -1.7856 C   0  0  0  0  0  0  0  0  0  0  0  0
    1.2578    2.8823    9.5663 Cl  0  0  0  0  0  0  0  0  0  0  0  0
    7.6146    4.2254    4.2673 F   0  0  0  0  0  0  0  0  0  0  0  0
    6.6951    5.1722    6.0416 F   0  0  0  0  0  0  0  0  0  0  0  0
    6.7032    6.2559    4.1202 F   0  0  0  0  0  0  0  0  0  0  0  0
    1.7470    3.5488    0.8226 H   0  0  0  0  0  0  0  0  0  0  0  0
    2.4579    1.0445    0.8755 H   0  0  0  0  0  0  0  0  0  0  0  0
    0.7442    0.6797    1.0113 H   0  0  0  0  0  0  0  0  0  0  0  0
   -0.2926    3.3026    0.2204 H   0  0  0  0  0  0  0  0  0  0  0  0
    0.9495    0.4553   -1.2629 H   0  0  0  0  0  0  0  0  0  0  0  0
    0.5430    2.1321   -1.2339 H   0  0  0  0  0  0  0  0  0  0  0  0
   -0.1905    1.8146    3.3296 H   0  0  0  0  0  0  0  0  0  0  0  0
    3.8271    3.4698    1.3987 H   0  0  0  0  0  0  0  0  0  0  0  0
    4.2105    0.8545   -2.7851 H   0  0  0  0  0  0  0  0  0  0  0  0
    2.6307    0.1133   -3.0147 H   0  0  0  0  0  0  0  0  0  0  0  0
    1.8811    2.8580   -3.2897 H   0  0  0  0  0  0  0  0  0  0  0  0
    3.6119    3.0424   -3.0121 H   0  0  0  0  0  0  0  0  0  0  0  0
    4.4651    4.0979    6.1248 H   0  0  0  0  0  0  0  0  0  0  0  0
    5.7891    4.4573    2.1919 H   0  0  0  0  0  0  0  0  0  0  0  0
    2.8636   -0.9247   -0.7111 H   0  0  0  0  0  0  0  0  0  0  0  0
    4.4269   -0.1141   -0.5410 H   0  0  0  0  0  0  0  0  0  0  0  0
    3.1580    4.3303   -0.9275 H   0  0  0  0  0  0  0  0  0  0  0  0
    1.4291    4.3230   -1.3305 H   0  0  0  0  0  0  0  0  0  0  0  0
    2.9106    3.5565    7.4618 H   0  0  0  0  0  0  0  0  0  0  0  0
   -0.7771    1.7313    8.0100 H   0  0  0  0  0  0  0  0  0  0  0  0
    3.6390   -2.2725   -2.5956 H   0  0  0  0  0  0  0  0  0  0  0  0
    5.2068   -1.4418   -2.5870 H   0  0  0  0  0  0  0  0  0  0  0  0
    3.6245    5.5820   -3.0409 H   0  0  0  0  0  0  0  0  0  0  0  0
    1.8965    5.5640   -3.4312 H   0  0  0  0  0  0  0  0  0  0  0  0
    5.5276   -3.5976   -1.3407 H   0  0  0  0  0  0  0  0  0  0  0  0
    4.3680   -3.0626   -0.1116 H   0  0  0  0  0  0  0  0  0  0  0  0
    5.8997   -2.1889   -0.3332 H   0  0  0  0  0  0  0  0  0  0  0  0
    2.6548    7.7378   -2.3993 H   0  0  0  0  0  0  0  0  0  0  0  0
    3.0783    6.8716   -0.9139 H   0  0  0  0  0  0  0  0  0  0  0  0
    1.3864    6.9488   -1.4450 H   0  0  0  0  0  0  0  0  0  0  0  0
  1  2  1  0  0  0  0 
  1  3  1  0  0  0  0 
  1  4  1  0  0  0  0 
  2  5  1  0  0  0  0 
  4  6  1  0  0  0  0 
  4  7  2  0  0  0  0 
  5  8  1  0  0  0  0 
  6  9  1  0  0  0  0 
  6 10  2  0  0  0  0 
  7 11  1  0  0  0  0 
  8 12  1  0  0  0  0 
  8 13  1  0  0  0  0 
  9 14  1  0  0  0  0 
  9 15  2  0  0  0  0 
 10 16  1  0  0  0  0 
 11 14  1  0  0  0  0 
 11 17  2  0  0  0  0 
 12 18  1  0  0  0  0 
 13 19  1  0  0  0  0 
 14 20  2  0  0  0  0 
 15 21  1  0  0  0  0 
 16 21  2  0  0  0  0 
 17 22  1  0  0  0  0 
 17 23  1  0  0  0  0 
 18 24  1  0  0  0  0 
 19 25  1  0  0  0  0 
 20 26  1  0  0  0  0 
 21 27  1  0  0  0  0 
 23 26  2  0  0  0  0 
 24 28  1  0  0  0  0 
 25 29  1  0  0  0  0 
 26 30  1  0  0  0  0 
 27 31  1  0  0  0  0 
 27 32  1  0  0  0  0 
 27 33  1  0  0  0  0 
  1 34  1  0  0  0  0 
  2 35  1  0  0  0  0 
  2 36  1  0  0  0  0 
  3 37  1  0  0  0  0 
  5 38  1  0  0  0  0 
  5 39  1  0  0  0  0 
  7 40  1  0  0  0  0 
 10 41  1  0  0  0  0 
 12 42  1  0  0  0  0 
 12 43  1  0  0  0  0 
 13 44  1  0  0  0  0 
 13 45  1  0  0  0  0 
 15 46  1  0  0  0  0 
 16 47  1  0  0  0  0 
 18 48  1  0  0  0  0 
 18 49  1  0  0  0  0 
 19 50  1  0  0  0  0 
 19 51  1  0  0  0  0 
 20 52  1  0  0  0  0 
 23 53  1  0  0  0  0 
 24 54  1  0  0  0  0 
 24 55  1  0  0  0  0 
 25 56  1  0  0  0  0 
 25 57  1  0  0  0  0 
 28 58  1  0  0  0  0 
 28 59  1  0  0  0  0 
 28 60  1  0  0  0  0 
 29 61  1  0  0  0  0 
 29 62  1  0  0  0  0 
 29 63  1  0  0  0  0 
M  END
> <cdk:Title>
halofantrine

> <Conformer>
1

> <SuperDrugID>
SD001198

$$$$
