fipexide
  CDK     0628171801

 48 51  0  0  0  0  0  0  0  0999 V2000
    3.6453   -0.7334   -6.1723 C   0  0  1  0  0  0  0  0  0  0  0  0
    4.8230   -1.6285   -5.9981 C   0  0  0  0  0  0  0  0  0  0  0  0
    2.4485   -1.1788   -5.3860 N   0  0  1  0  0  0  0  0  0  0  0  0
    6.0023   -1.1784   -5.3514 C   0  0  0  0  0  0  0  0  0  0  0  0
    4.7678   -2.9652   -6.4696 C   0  0  0  0  0  0  0  0  0  0  0  0
    2.6580   -1.1790   -3.9038 C   0  0  1  0  0  0  0  0  0  0  0  0
    1.1984   -0.4417   -5.7558 C   0  0  1  0  0  0  0  0  0  0  0  0
    7.0627   -2.0758   -5.1444 C   0  0  0  0  0  0  0  0  0  0  0  0
    5.8533   -3.8448   -6.2811 C   0  0  0  0  0  0  0  0  0  0  0  0
    1.4307   -1.7760   -3.1748 C   0  0  1  0  0  0  0  0  0  0  0  0
   -0.0279   -1.0064   -4.9913 C   0  0  2  0  0  0  0  0  0  0  0  0
    6.9899   -3.3837   -5.5967 C   0  0  0  0  0  0  0  0  0  0  0  0
    8.2312   -1.8338   -4.5208 O   0  0  0  0  0  0  0  0  0  0  0  0
    0.2129   -1.0839   -3.5568 N   0  0  0  0  0  0  0  0  0  0  0  0
    8.1060   -4.0733   -5.2889 O   0  0  0  0  0  0  0  0  0  0  0  0
    8.7372   -3.1722   -4.3592 C   0  0  1  0  0  0  0  0  0  0  0  0
   -0.6908   -0.5662   -2.6305 C   0  0  0  0  0  0  0  0  0  0  0  0
   -0.5895   -0.7447   -1.1592 C   0  0  1  0  0  0  0  0  0  0  0  0
   -1.6965    0.0748   -3.0211 O   0  0  0  0  0  0  0  0  0  0  0  0
    0.5069    0.0439   -0.6547 O   0  0  0  0  0  0  0  0  0  0  0  0
    0.7721   -0.1588    0.6768 C   0  0  0  0  0  0  0  0  0  0  0  0
    0.0231    0.4959    1.6791 C   0  0  0  0  0  0  0  0  0  0  0  0
    1.8365   -1.0045    1.0544 C   0  0  0  0  0  0  0  0  0  0  0  0
    0.3184    0.2875    3.0407 C   0  0  0  0  0  0  0  0  0  0  0  0
    2.1347   -1.2136    2.4138 C   0  0  0  0  0  0  0  0  0  0  0  0
    1.3730   -0.5723    3.4118 C   0  0  0  0  0  0  0  0  0  0  0  0
    1.7273   -0.8393    5.0475 Cl  0  0  0  0  0  0  0  0  0  0  0  0
    3.8932    0.2980   -5.9033 H   0  0  0  0  0  0  0  0  0  0  0  0
    3.4027   -0.7324   -7.2385 H   0  0  0  0  0  0  0  0  0  0  0  0
    6.0928   -0.2154   -5.0247 H   0  0  0  0  0  0  0  0  0  0  0  0
    3.9335   -3.3059   -6.9540 H   0  0  0  0  0  0  0  0  0  0  0  0
    3.5252   -1.7894   -3.6379 H   0  0  0  0  0  0  0  0  0  0  0  0
    2.8343   -0.1596   -3.5444 H   0  0  0  0  0  0  0  0  0  0  0  0
    1.2999    0.6254   -5.5342 H   0  0  0  0  0  0  0  0  0  0  0  0
    1.0093   -0.5467   -6.8286 H   0  0  0  0  0  0  0  0  0  0  0  0
    5.8097   -4.8025   -6.6317 H   0  0  0  0  0  0  0  0  0  0  0  0
    1.3341   -2.8351   -3.4320 H   0  0  0  0  0  0  0  0  0  0  0  0
    1.6486   -1.7367   -2.1092 H   0  0  0  0  0  0  0  0  0  0  0  0
   -0.2355   -2.0149   -5.3616 H   0  0  0  0  0  0  0  0  0  0  0  0
   -0.8975   -0.3988   -5.2537 H   0  0  0  0  0  0  0  0  0  0  0  0
    9.8173   -3.1838   -4.5051 H   0  0  0  0  0  0  0  0  0  0  0  0
    8.5417   -3.5122   -3.3384 H   0  0  0  0  0  0  0  0  0  0  0  0
   -1.5193   -0.4319   -0.6696 H   0  0  0  0  0  0  0  0  0  0  0  0
   -0.4547   -1.8114   -0.9576 H   0  0  0  0  0  0  0  0  0  0  0  0
   -0.7381    1.1272    1.4188 H   0  0  0  0  0  0  0  0  0  0  0  0
    2.4010   -1.4697    0.3408 H   0  0  0  0  0  0  0  0  0  0  0  0
   -0.2370    0.7652    3.7555 H   0  0  0  0  0  0  0  0  0  0  0  0
    2.9074   -1.8334    2.6703 H   0  0  0  0  0  0  0  0  0  0  0  0
  1  2  1  0  0  0  0 
  1  3  1  0  0  0  0 
  2  4  2  0  0  0  0 
  2  5  1  0  0  0  0 
  3  6  1  0  0  0  0 
  3  7  1  0  0  0  0 
  4  8  1  0  0  0  0 
  5  9  2  0  0  0  0 
  6 10  1  0  0  0  0 
  7 11  1  0  0  0  0 
  8 12  2  0  0  0  0 
  8 13  1  0  0  0  0 
  9 12  1  0  0  0  0 
 10 14  1  0  0  0  0 
 11 14  1  0  0  0  0 
 12 15  1  0  0  0  0 
 13 16  1  0  0  0  0 
 14 17  1  0  0  0  0 
 15 16  1  0  0  0  0 
 17 18  1  0  0  0  0 
 17 19  2  0  0  0  0 
 18 20  1  0  0  0  0 
 20 21  1  0  0  0  0 
 21 22  2  0  0  0  0 
 21 23  1  0  0  0  0 
 22 24  1  0  0  0  0 
 23 25  2  0  0  0  0 
 24 26  2  0  0  0  0 
 25 26  1  0  0  0  0 
 26 27  1  0  0  0  0 
  1 28  1  0  0  0  0 
  1 29  1  0  0  0  0 
  4 30  1  0  0  0  0 
  5 31  1  0  0  0  0 
  6 32  1  0  0  0  0 
  6 33  1  0  0  0  0 
  7 34  1  0  0  0  0 
  7 35  1  0  0  0  0 
  9 36  1  0  0  0  0 
 10 37  1  0  0  0  0 
 10 38  1  0  0  0  0 
 11 39  1  0  0  0  0 
 11 40  1  0  0  0  0 
 16 41  1  0  0  0  0 
 16 42  1  0  0  0  0 
 18 43  1  0  0  0  0 
 18 44  1  0  0  0  0 
 22 45  1  0  0  0  0 
 23 46  1  0  0  0  0 
 24 47  1  0  0  0  0 
 25 48  1  0  0  0  0 
M  END
> <cdk:Title>
fipexide

> <Conformer>
1

> <SuperDrugID>
SD001049

$$$$
