methylatropine
  CDK     0628171802

 48 50  0  0  0  0  0  0  0  0999 V2000
   -5.9166   -0.3015   -8.5262 C   0  0  0  0  0  0  0  0  0  0  0  0
   -5.2461   -1.3381   -9.1974 C   0  0  0  0  0  0  0  0  0  0  0  0
   -4.6199   -2.3566   -8.4599 C   0  0  0  0  0  0  0  0  0  0  0  0
   -4.6780   -2.3453   -7.0542 C   0  0  0  0  0  0  0  0  0  0  0  0
   -5.3714   -1.3251   -6.3555 C   0  0  0  0  0  0  0  0  0  0  0  0
   -5.9688   -0.2899   -7.1203 C   0  0  0  0  0  0  0  0  0  0  0  0
   -5.4897   -1.3753   -4.8603 C   0  0  1  0  0  0  0  0  0  0  0  0
   -4.6346   -0.3747   -4.1707 C   0  0  0  0  0  0  0  0  0  0  0  0
   -6.9646   -1.2852   -4.3726 C   0  0  1  0  0  0  0  0  0  0  0  0
   -7.0454   -1.4983   -2.9646 O   0  0  0  0  0  0  0  0  0  0  0  0
   -3.7613   -0.8138   -3.2090 O   0  0  0  0  0  0  0  0  0  0  0  0
   -4.7321    0.8452   -4.4412 O   0  0  0  0  0  0  0  0  0  0  0  0
   -2.9349   -0.0299   -2.3277 C   0  0  1  0  0  0  0  0  0  0  0  0
   -1.7011   -0.2659   -0.0348 C   0  0  1  0  0  0  0  0  0  0  0  0
   -2.9656   -0.6487   -0.8889 C   0  0  2  0  0  0  0  0  0  0  0  0
   -1.4961    0.1258   -2.9178 C   0  0  1  0  0  0  0  0  0  0  0  0
   -0.4176    0.4182   -1.8080 C   0  0  2  0  0  0  0  0  0  0  0  0
   -0.3935   -0.6291   -0.7105 N   0  0  2  0  0  0  0  0  0  0  0  0
   -1.6329    1.2855    0.1335 C   0  0  2  0  0  0  0  0  0  0  0  0
   -0.7748    1.7488   -1.0711 C   0  0  1  0  0  0  0  0  0  0  0  0
   -0.2931   -2.0635   -1.2039 C   0  0  0  0  0  0  0  0  0  0  0  0
    0.7993   -0.4755    0.2329 C   0  0  0  0  0  0  0  0  0  0  0  0
   -1.7922   -0.7471    0.9461 H   0  0  0  0  0  0  0  0  0  0  0  0
    0.5597    0.5084   -2.2950 H   0  0  0  0  0  0  0  0  0  0  0  0
   -3.3598    0.9766   -2.2439 H   0  0  0  0  0  0  0  0  0  0  0  0
   -6.3718    0.4413   -9.0615 H   0  0  0  0  0  0  0  0  0  0  0  0
   -5.2109   -1.3492  -10.2189 H   0  0  0  0  0  0  0  0  0  0  0  0
   -4.1266   -3.1086   -8.9463 H   0  0  0  0  0  0  0  0  0  0  0  0
   -4.2124   -3.0985   -6.5437 H   0  0  0  0  0  0  0  0  0  0  0  0
   -6.4644    0.4765   -6.6608 H   0  0  0  0  0  0  0  0  0  0  0  0
   -5.1491   -2.3597   -4.5217 H   0  0  0  0  0  0  0  0  0  0  0  0
   -7.3974   -0.3068   -4.5957 H   0  0  0  0  0  0  0  0  0  0  0  0
   -7.5665   -2.0503   -4.8708 H   0  0  0  0  0  0  0  0  0  0  0  0
   -7.9990   -1.4287   -2.7540 H   0  0  0  0  0  0  0  0  0  0  0  0
   -3.0476   -1.7351   -0.9449 H   0  0  0  0  0  0  0  0  0  0  0  0
   -3.8701   -0.3122   -0.3728 H   0  0  0  0  0  0  0  0  0  0  0  0
   -1.2200   -0.7691   -3.4784 H   0  0  0  0  0  0  0  0  0  0  0  0
   -1.4957    0.9385   -3.6495 H   0  0  0  0  0  0  0  0  0  0  0  0
   -1.1456    1.5490    1.0767 H   0  0  0  0  0  0  0  0  0  0  0  0
   -2.6191    1.7576    0.1347 H   0  0  0  0  0  0  0  0  0  0  0  0
    0.1322    2.2542   -0.7274 H   0  0  0  0  0  0  0  0  0  0  0  0
   -1.3191    2.4549   -1.7050 H   0  0  0  0  0  0  0  0  0  0  0  0
   -1.0835   -2.3601   -1.8876 H   0  0  0  0  0  0  0  0  0  0  0  0
   -0.3333   -2.7728   -0.3726 H   0  0  0  0  0  0  0  0  0  0  0  0
    0.6463   -2.2242   -1.7399 H   0  0  0  0  0  0  0  0  0  0  0  0
    1.7445   -0.6632   -0.2841 H   0  0  0  0  0  0  0  0  0  0  0  0
    0.7320   -1.1764    1.0710 H   0  0  0  0  0  0  0  0  0  0  0  0
    0.8947    0.5135    0.6784 H   0  0  0  0  0  0  0  0  0  0  0  0
  1  2  2  0  0  0  0 
  1  6  1  0  0  0  0 
  2  3  1  0  0  0  0 
  3  4  2  0  0  0  0 
  4  5  1  0  0  0  0 
  5  6  2  0  0  0  0 
  5  7  1  0  0  0  0 
  7  8  1  0  0  0  0 
  7  9  1  0  0  0  0 
  9 10  1  0  0  0  0 
  8 11  1  0  0  0  0 
  8 12  2  0  0  0  0 
 11 13  1  0  0  0  0 
 14 15  1  0  0  0  0 
 16 17  1  0  0  0  0 
 17 18  1  0  0  0  0 
 14 18  1  0  0  0  0 
 15 13  1  0  0  0  0 
 13 16  1  0  0  0  0 
 14 19  1  0  0  0  0 
 17 20  1  0  0  0  0 
 19 20  1  0  0  0  0 
 18 21  1  0  0  0  0 
 18 22  1  0  0  0  0 
 14 23  1  0  0  0  0 
 17 24  1  0  0  0  0 
 13 25  1  0  0  0  0 
  1 26  1  0  0  0  0 
  2 27  1  0  0  0  0 
  3 28  1  0  0  0  0 
  4 29  1  0  0  0  0 
  6 30  1  0  0  0  0 
  7 31  1  0  0  0  0 
  9 32  1  0  0  0  0 
  9 33  1  0  0  0  0 
 10 34  1  0  0  0  0 
 15 35  1  0  0  0  0 
 15 36  1  0  0  0  0 
 16 37  1  0  0  0  0 
 16 38  1  0  0  0  0 
 19 39  1  0  0  0  0 
 19 40  1  0  0  0  0 
 20 41  1  0  0  0  0 
 20 42  1  0  0  0  0 
 21 43  1  0  0  0  0 
 21 44  1  0  0  0  0 
 21 45  1  0  0  0  0 
 22 46  1  0  0  0  0 
 22 47  1  0  0  0  0 
 22 48  1  0  0  0  0 
M  CHG  1  18   1
M  END
> <cdk:Title>
methylatropine

> <Conformer>
1

> <SuperDrugID>
SD003693

$$$$
