dexfosfoserine
  CDK     0628171801

 19 18  0  0  0  0  0  0  0  0999 V2000
    2.2338    0.1829    0.1943 C   0  0  2  0  0  0  0  0  0  0  0  0
    3.4915    0.3164    1.0919 C   0  0  1  0  0  0  0  0  0  0  0  0
    2.6409   -0.0062   -1.1764 O   0  0  0  0  0  0  0  0  0  0  0  0
    4.3933    1.4352    0.7320 C   0  0  0  0  0  0  0  0  0  0  0  0
    3.0753    0.4765    2.4933 N   0  0  1  0  0  0  0  0  0  0  0  0
    1.4391   -0.0420   -2.2278 P   0  0  1  0  0  0  0  0  0  0  0  0
    4.1191    2.2917   -0.2835 O   0  0  0  0  0  0  0  0  0  0  0  0
    5.4565    1.6126    1.3693 O   0  0  0  0  0  0  0  0  0  0  0  0
    0.6792    1.2126   -2.2092 O   0  0  0  0  0  0  0  0  0  0  0  0
    2.0739   -0.2542   -3.6638 O   0  0  0  0  0  0  0  0  0  0  0  0
    0.4951   -1.2743   -1.9151 O   0  0  0  0  0  0  0  0  0  0  0  0
    1.6247    1.0856    0.3131 H   0  0  0  0  0  0  0  0  0  0  0  0
    1.6525   -0.6813    0.5365 H   0  0  0  0  0  0  0  0  0  0  0  0
    4.0632   -0.6127    1.0172 H   0  0  0  0  0  0  0  0  0  0  0  0
    2.5016    1.3222    2.5432 H   0  0  0  0  0  0  0  0  0  0  0  0
    2.4635   -0.3112    2.7168 H   0  0  0  0  0  0  0  0  0  0  0  0
    4.7480    3.0099   -0.5078 H   0  0  0  0  0  0  0  0  0  0  0  0
    2.5442   -1.1115   -3.6050 H   0  0  0  0  0  0  0  0  0  0  0  0
    1.0934   -2.0512   -1.8784 H   0  0  0  0  0  0  0  0  0  0  0  0
  2  1  1  0  0  0  0 
  1  3  1  0  0  0  0 
  2  4  1  0  0  0  0 
  2  5  1  0  0  0  0 
  3  6  1  0  0  0  0 
  4  7  1  0  0  0  0 
  4  8  2  0  0  0  0 
  6  9  2  0  0  0  0 
  6 10  1  0  0  0  0 
  6 11  1  0  0  0  0 
  1 12  1  0  0  0  0 
  1 13  1  0  0  0  0 
  2 14  1  0  0  0  0 
  5 15  1  0  0  0  0 
  5 16  1  0  0  0  0 
  7 17  1  0  0  0  0 
 10 18  1  0  0  0  0 
 11 19  1  0  0  0  0 
M  END
> <cdk:Title>
dexfosfoserine

> <Conformer>
1

> <SuperDrugID>
SD003365

$$$$
