tebipenem pivoxil
  CDK     0628171801

 64 67  0  0  0  0  0  0  0  0999 V2000
   -4.0396    1.3033    0.1956 C   0  0  0  0  0  0  0  0  0  0  0  0
   -3.8035    1.2407   -1.1504 O   0  0  0  0  0  0  0  0  0  0  0  0
   -5.0822    0.7807    0.6565 O   0  0  0  0  0  0  0  0  0  0  0  0
   -3.1764    1.9607    1.0602 C   0  0  0  0  0  0  0  0  0  0  0  0
   -4.6614    0.6392   -2.1249 C   0  0  2  0  0  0  0  0  0  0  0  0
   -3.3926    2.1831    2.3301 N   0  0  0  0  0  0  0  0  0  0  0  0
   -1.9690    2.5141    0.8612 C   0  0  0  0  0  0  0  0  0  0  0  0
   -4.1123    0.8474   -3.4267 O   0  0  0  0  0  0  0  0  0  0  0  0
   -2.7177    3.2223    2.9817 C   0  0  2  0  0  0  0  0  0  0  0  0
   -3.8253    1.5231    3.3953 C   0  0  0  0  0  0  0  0  0  0  0  0
   -1.1323    2.6017   -0.6521 S   0  0  0  0  0  0  0  0  0  0  0  0
   -1.4404    3.1048    2.0971 C   0  0  1  0  0  0  0  0  0  0  0  0
   -4.7233    0.5501   -4.6154 C   0  0  0  0  0  0  0  0  0  0  0  0
   -3.1130    2.4411    4.2927 C   0  0  2  0  0  0  0  0  0  0  0  0
   -4.4220    0.4357    3.5636 O   0  0  0  0  0  0  0  0  0  0  0  0
    0.0087    1.1716   -0.7021 C   0  0  2  0  0  0  0  0  0  0  0  0
   -0.2864    2.2938    2.7402 C   0  0  0  0  0  0  0  0  0  0  0  0
   -4.0264    0.7790   -5.9198 C   0  0  2  0  0  0  0  0  0  0  0  0
   -5.9002    0.1127   -4.6076 O   0  0  0  0  0  0  0  0  0  0  0  0
   -4.0060    3.2283    5.2917 C   0  0  1  0  0  0  0  0  0  0  0  0
    0.4499    0.7925   -2.1361 C   0  0  2  0  0  0  0  0  0  0  0  0
   -0.6491   -0.2220   -0.5868 C   0  0  1  0  0  0  0  0  0  0  0  0
   -4.0519   -0.5297   -6.7759 C   0  0  0  0  0  0  0  0  0  0  0  0
   -2.5304    1.1869   -5.7032 C   0  0  0  0  0  0  0  0  0  0  0  0
   -4.7836    1.9268   -6.6619 C   0  0  0  0  0  0  0  0  0  0  0  0
   -4.5595    2.3421    6.4316 C   0  0  0  0  0  0  0  0  0  0  0  0
   -3.2244    4.2791    5.8556 O   0  0  0  0  0  0  0  0  0  0  0  0
   -0.2156   -0.4375   -1.9145 N   0  0  0  0  0  0  0  0  0  0  0  0
   -0.3978   -1.4785   -2.7193 C   0  0  0  0  0  0  0  0  0  0  0  0
    0.1987   -1.6436   -3.8395 N   0  0  0  0  0  0  0  0  0  0  0  0
   -1.4705   -2.7994   -2.4242 S   0  0  0  0  0  0  0  0  0  0  0  0
   -0.0518   -2.7784   -4.6197 C   0  0  1  0  0  0  0  0  0  0  0  0
   -1.1594   -3.6703   -3.9998 C   0  0  1  0  0  0  0  0  0  0  0  0
   -3.2492    4.1739    2.8477 H   0  0  0  0  0  0  0  0  0  0  0  0
   -2.2619    1.9616    4.7815 H   0  0  0  0  0  0  0  0  0  0  0  0
   -5.6418    1.1144   -2.0653 H   0  0  0  0  0  0  0  0  0  0  0  0
   -4.7630   -0.4328   -1.9388 H   0  0  0  0  0  0  0  0  0  0  0  0
   -1.0786    4.1187    1.8927 H   0  0  0  0  0  0  0  0  0  0  0  0
    0.8645    1.2879   -0.0315 H   0  0  0  0  0  0  0  0  0  0  0  0
   -0.5628    1.2443    2.8648 H   0  0  0  0  0  0  0  0  0  0  0  0
    0.6069    2.3564    2.1202 H   0  0  0  0  0  0  0  0  0  0  0  0
   -0.0399    2.7143    3.7153 H   0  0  0  0  0  0  0  0  0  0  0  0
   -4.8507    3.6827    4.7647 H   0  0  0  0  0  0  0  0  0  0  0  0
    1.5320    0.6807   -2.2494 H   0  0  0  0  0  0  0  0  0  0  0  0
   -0.0131    1.3834   -2.9322 H   0  0  0  0  0  0  0  0  0  0  0  0
   -0.1607   -0.8838    0.1326 H   0  0  0  0  0  0  0  0  0  0  0  0
   -1.7331   -0.2227   -0.4974 H   0  0  0  0  0  0  0  0  0  0  0  0
   -3.5393   -1.3406   -6.2540 H   0  0  0  0  0  0  0  0  0  0  0  0
   -5.0746   -0.8541   -6.9788 H   0  0  0  0  0  0  0  0  0  0  0  0
   -3.5578   -0.3750   -7.7384 H   0  0  0  0  0  0  0  0  0  0  0  0
   -1.9949    0.4105   -5.1502 H   0  0  0  0  0  0  0  0  0  0  0  0
   -2.4525    2.1206   -5.1417 H   0  0  0  0  0  0  0  0  0  0  0  0
   -2.0241    1.3297   -6.6597 H   0  0  0  0  0  0  0  0  0  0  0  0
   -4.6980    2.8750   -6.0415 H   0  0  0  0  0  0  0  0  0  0  0  0
   -5.8306    1.5729   -6.9277 H   0  0  0  0  0  0  0  0  0  0  0  0
   -4.2869    2.1364   -7.6118 H   0  0  0  0  0  0  0  0  0  0  0  0
   -5.1342    2.9524    7.1318 H   0  0  0  0  0  0  0  0  0  0  0  0
   -5.2139    1.5672    6.0278 H   0  0  0  0  0  0  0  0  0  0  0  0
   -3.7425    1.8677    6.9771 H   0  0  0  0  0  0  0  0  0  0  0  0
   -3.8451    4.7749    6.4288 H   0  0  0  0  0  0  0  0  0  0  0  0
   -0.3472   -2.4589   -5.6216 H   0  0  0  0  0  0  0  0  0  0  0  0
    0.8771   -3.3465   -4.7009 H   0  0  0  0  0  0  0  0  0  0  0  0
   -0.8155   -4.6917   -3.8216 H   0  0  0  0  0  0  0  0  0  0  0  0
   -2.0592   -3.6728   -4.6170 H   0  0  0  0  0  0  0  0  0  0  0  0
  1  2  1  0  0  0  0 
  1  3  2  0  0  0  0 
  1  4  1  0  0  0  0 
  2  5  1  0  0  0  0 
  4  6  1  0  0  0  0 
  4  7  2  0  0  0  0 
  5  8  1  0  0  0  0 
  9  6  1  0  0  0  0 
  6 10  1  0  0  0  0 
  7 11  1  0  0  0  0 
 12  7  1  0  0  0  0 
  8 13  1  0  0  0  0 
  9 12  1  0  0  0  0 
 14  9  1  0  0  0  0 
  9 34  1  0  0  0  0 
 14 10  1  0  0  0  0 
 10 15  2  0  0  0  0 
 11 16  1  0  0  0  0 
 12 17  1  0  0  0  0 
 13 18  1  0  0  0  0 
 13 19  2  0  0  0  0 
 14 20  1  0  0  0  0 
 14 35  1  0  0  0  0 
 16 21  1  0  0  0  0 
 16 22  1  0  0  0  0 
 18 23  1  0  0  0  0 
 18 24  1  0  0  0  0 
 18 25  1  0  0  0  0 
 20 26  1  0  0  0  0 
 20 27  1  0  0  0  0 
 21 28  1  0  0  0  0 
 22 28  1  0  0  0  0 
 28 29  1  0  0  0  0 
 29 30  2  0  0  0  0 
 29 31  1  0  0  0  0 
 30 32  1  0  0  0  0 
 31 33  1  0  0  0  0 
 32 33  1  0  0  0  0 
  5 36  1  0  0  0  0 
  5 37  1  0  0  0  0 
 12 38  1  0  0  0  0 
 16 39  1  0  0  0  0 
 17 40  1  0  0  0  0 
 17 41  1  0  0  0  0 
 17 42  1  0  0  0  0 
 20 43  1  0  0  0  0 
 21 44  1  0  0  0  0 
 21 45  1  0  0  0  0 
 22 46  1  0  0  0  0 
 22 47  1  0  0  0  0 
 23 48  1  0  0  0  0 
 23 49  1  0  0  0  0 
 23 50  1  0  0  0  0 
 24 51  1  0  0  0  0 
 24 52  1  0  0  0  0 
 24 53  1  0  0  0  0 
 25 54  1  0  0  0  0 
 25 55  1  0  0  0  0 
 25 56  1  0  0  0  0 
 26 57  1  0  0  0  0 
 26 58  1  0  0  0  0 
 26 59  1  0  0  0  0 
 27 60  1  0  0  0  0 
 32 61  1  0  0  0  0 
 32 62  1  0  0  0  0 
 33 63  1  0  0  0  0 
 33 64  1  0  0  0  0 
M  END
> <cdk:Title>
tebipenem pivoxil

> <Conformer>
1

> <SuperDrugID>
SD002315

$$$$
