cetiedil
  CDK     0628171802

 55 57  0  0  0  0  0  0  0  0999 V2000
   -0.3298   -0.6689    1.1418 C   0  0  2  0  0  0  0  0  0  0  0  0
   -0.6241   -1.8795    0.3229 C   0  0  0  0  0  0  0  0  0  0  0  0
    0.2430    0.4288    0.2977 C   0  0  0  0  0  0  0  0  0  0  0  0
    0.5820   -0.9524    2.3972 C   0  0  2  0  0  0  0  0  0  0  0  0
   -1.9193   -2.2669    0.0827 O   0  0  0  0  0  0  0  0  0  0  0  0
    0.3234   -2.5633   -0.1328 O   0  0  0  0  0  0  0  0  0  0  0  0
   -0.2908    1.7407    0.2836 C   0  0  0  0  0  0  0  0  0  0  0  0
    1.3920    0.2904   -0.5020 C   0  0  0  0  0  0  0  0  0  0  0  0
    0.0990   -2.1860    3.2334 C   0  0  1  0  0  0  0  0  0  0  0  0
    0.6980    0.3118    3.3214 C   0  0  2  0  0  0  0  0  0  0  0  0
   -2.3174   -3.4258   -0.6720 C   0  0  1  0  0  0  0  0  0  0  0  0
    0.3824    2.6807   -0.5024 C   0  0  0  0  0  0  0  0  0  0  0  0
    1.7214    1.8390   -1.2534 S   0  0  0  0  0  0  0  0  0  0  0  0
    0.9499   -2.4222    4.5094 C   0  0  2  0  0  0  0  0  0  0  0  0
    1.5043    0.0620    4.6238 C   0  0  2  0  0  0  0  0  0  0  0  0
   -3.8448   -3.4471   -0.9299 C   0  0  2  0  0  0  0  0  0  0  0  0
    0.9681   -1.1612    5.4060 C   0  0  2  0  0  0  0  0  0  0  0  0
   -4.6559   -3.8119    0.2884 N   0  0  1  0  0  0  0  0  0  0  0  0
   -6.0276   -3.1849    0.2769 C   0  0  1  0  0  0  0  0  0  0  0  0
   -4.7072   -5.3031    0.5258 C   0  0  2  0  0  0  0  0  0  0  0  0
   -6.7003   -3.0118    1.6620 C   0  0  2  0  0  0  0  0  0  0  0  0
   -4.7248   -5.7486    2.0150 C   0  0  2  0  0  0  0  0  0  0  0  0
   -6.8202   -4.2879    2.5316 C   0  0  2  0  0  0  0  0  0  0  0  0
   -5.4512   -4.8228    3.0237 C   0  0  2  0  0  0  0  0  0  0  0  0
   -1.2957   -0.3296    1.5301 H   0  0  0  0  0  0  0  0  0  0  0  0
    1.5896   -1.1896    2.0372 H   0  0  0  0  0  0  0  0  0  0  0  0
   -1.1088    2.0041    0.8346 H   0  0  0  0  0  0  0  0  0  0  0  0
    1.9572   -0.5485   -0.6253 H   0  0  0  0  0  0  0  0  0  0  0  0
   -0.9462   -2.0443    3.5250 H   0  0  0  0  0  0  0  0  0  0  0  0
    0.1563   -3.0948    2.6280 H   0  0  0  0  0  0  0  0  0  0  0  0
   -0.3039    0.6596    3.5923 H   0  0  0  0  0  0  0  0  0  0  0  0
    1.1932    1.1242    2.7825 H   0  0  0  0  0  0  0  0  0  0  0  0
   -1.8170   -3.3998   -1.6443 H   0  0  0  0  0  0  0  0  0  0  0  0
   -1.9977   -4.3301   -0.1501 H   0  0  0  0  0  0  0  0  0  0  0  0
    0.1541    3.6695   -0.6107 H   0  0  0  0  0  0  0  0  0  0  0  0
    1.9742   -2.6880    4.2267 H   0  0  0  0  0  0  0  0  0  0  0  0
    0.5295   -3.2584    5.0737 H   0  0  0  0  0  0  0  0  0  0  0  0
    1.4397    0.9484    5.2603 H   0  0  0  0  0  0  0  0  0  0  0  0
    2.5582   -0.0960    4.3758 H   0  0  0  0  0  0  0  0  0  0  0  0
   -4.0641   -4.1450   -1.7456 H   0  0  0  0  0  0  0  0  0  0  0  0
   -4.0950   -2.4514   -1.3094 H   0  0  0  0  0  0  0  0  0  0  0  0
    1.5983   -1.3413    6.2811 H   0  0  0  0  0  0  0  0  0  0  0  0
   -0.0463   -0.9535    5.7593 H   0  0  0  0  0  0  0  0  0  0  0  0
   -5.9765   -2.1714   -0.1310 H   0  0  0  0  0  0  0  0  0  0  0  0
   -6.6987   -3.7450   -0.3818 H   0  0  0  0  0  0  0  0  0  0  0  0
   -3.8473   -5.8066    0.0745 H   0  0  0  0  0  0  0  0  0  0  0  0
   -5.5776   -5.7355    0.0239 H   0  0  0  0  0  0  0  0  0  0  0  0
   -7.7121   -2.6320    1.4909 H   0  0  0  0  0  0  0  0  0  0  0  0
   -6.1616   -2.2463    2.2267 H   0  0  0  0  0  0  0  0  0  0  0  0
   -3.6951   -5.8701    2.3638 H   0  0  0  0  0  0  0  0  0  0  0  0
   -5.1905   -6.7391    2.0633 H   0  0  0  0  0  0  0  0  0  0  0  0
   -7.3584   -5.0675    1.9845 H   0  0  0  0  0  0  0  0  0  0  0  0
   -7.4188   -4.0350    3.4126 H   0  0  0  0  0  0  0  0  0  0  0  0
   -4.7950   -3.9873    3.2895 H   0  0  0  0  0  0  0  0  0  0  0  0
   -5.6147   -5.3974    3.9411 H   0  0  0  0  0  0  0  0  0  0  0  0
  1  2  1  0  0  0  0 
  1  3  1  0  0  0  0 
  1  4  1  0  0  0  0 
  2  5  1  0  0  0  0 
  2  6  2  0  0  0  0 
  3  7  1  0  0  0  0 
  3  8  2  0  0  0  0 
  4  9  1  0  0  0  0 
  4 10  1  0  0  0  0 
  5 11  1  0  0  0  0 
  7 12  2  0  0  0  0 
  8 13  1  0  0  0  0 
  9 14  1  0  0  0  0 
 10 15  1  0  0  0  0 
 11 16  1  0  0  0  0 
 12 13  1  0  0  0  0 
 14 17  1  0  0  0  0 
 15 17  1  0  0  0  0 
 16 18  1  0  0  0  0 
 18 19  1  0  0  0  0 
 18 20  1  0  0  0  0 
 19 21  1  0  0  0  0 
 20 22  1  0  0  0  0 
 21 23  1  0  0  0  0 
 22 24  1  0  0  0  0 
 23 24  1  0  0  0  0 
  1 25  1  0  0  0  0 
  4 26  1  0  0  0  0 
  7 27  1  0  0  0  0 
  8 28  1  0  0  0  0 
  9 29  1  0  0  0  0 
  9 30  1  0  0  0  0 
 10 31  1  0  0  0  0 
 10 32  1  0  0  0  0 
 11 33  1  0  0  0  0 
 11 34  1  0  0  0  0 
 12 35  1  0  0  0  0 
 14 36  1  0  0  0  0 
 14 37  1  0  0  0  0 
 15 38  1  0  0  0  0 
 15 39  1  0  0  0  0 
 16 40  1  0  0  0  0 
 16 41  1  0  0  0  0 
 17 42  1  0  0  0  0 
 17 43  1  0  0  0  0 
 19 44  1  0  0  0  0 
 19 45  1  0  0  0  0 
 20 46  1  0  0  0  0 
 20 47  1  0  0  0  0 
 21 48  1  0  0  0  0 
 21 49  1  0  0  0  0 
 22 50  1  0  0  0  0 
 22 51  1  0  0  0  0 
 23 52  1  0  0  0  0 
 23 53  1  0  0  0  0 
 24 54  1  0  0  0  0 
 24 55  1  0  0  0  0 
M  END
> <cdk:Title>
cetiedil

> <Conformer>
1

> <SuperDrugID>
SD000507

$$$$
