maltose
  CDK     0628171801

 45 46  0  0  0  0  0  0  0  0999 V2000
    2.3998   -2.2440   -0.8062 O   0  0  0  0  0  0  0  0  0  0  0  0
    1.8787   -2.4143    0.5322 C   0  0  1  0  0  0  0  0  0  0  0  0
    3.0310   -2.5941    1.5694 C   0  0  2  0  0  0  0  0  0  0  0  0
    4.1550   -1.5304    1.4022 C   0  0  1  0  0  0  0  0  0  0  0  0
    4.5735   -1.3292   -0.0798 C   0  0  2  0  0  0  0  0  0  0  0  0
    3.3406   -1.1625   -1.0089 C   0  0  1  0  0  0  0  0  0  0  0  0
    3.8087   -1.1757   -2.3727 O   0  0  0  0  0  0  0  0  0  0  0  0
    2.8188   -0.9876   -3.4144 C   0  0  2  0  0  0  0  0  0  0  0  0
    2.1365   -1.8715   -5.6200 O   0  0  0  0  0  0  0  0  0  0  0  0
    3.0222   -2.0938   -4.4979 C   0  0  2  0  0  0  0  0  0  0  0  0
    3.0003    0.4186   -4.0535 C   0  0  1  0  0  0  0  0  0  0  0  0
    2.1294    0.5846   -5.3306 C   0  0  2  0  0  0  0  0  0  0  0  0
    2.3292   -0.6131   -6.2965 C   0  0  2  0  0  0  0  0  0  0  0  0
    0.8379   -1.3275    0.9174 C   0  0  1  0  0  0  0  0  0  0  0  0
    3.5841   -3.9022    1.4134 O   0  0  0  0  0  0  0  0  0  0  0  0
    3.7452   -0.2787    1.9500 O   0  0  0  0  0  0  0  0  0  0  0  0
   -0.1912   -1.2585   -0.0656 O   0  0  0  0  0  0  0  0  0  0  0  0
    5.3764   -2.4278   -0.5141 O   0  0  0  0  0  0  0  0  0  0  0  0
    2.7358   -3.5174   -3.9580 C   0  0  1  0  0  0  0  0  0  0  0  0
    2.9153   -4.4807   -4.9920 O   0  0  0  0  0  0  0  0  0  0  0  0
    1.3718   -0.5347   -7.3465 O   0  0  0  0  0  0  0  0  0  0  0  0
    2.4642    1.8040   -5.9929 O   0  0  0  0  0  0  0  0  0  0  0  0
    2.6747    1.4373   -3.1066 O   0  0  0  0  0  0  0  0  0  0  0  0
    1.3180   -3.3540    0.5041 H   0  0  0  0  0  0  0  0  0  0  0  0
    2.6266   -2.5458    2.5848 H   0  0  0  0  0  0  0  0  0  0  0  0
    5.0298   -1.8443    1.9811 H   0  0  0  0  0  0  0  0  0  0  0  0
    5.1973   -0.4334   -0.1520 H   0  0  0  0  0  0  0  0  0  0  0  0
    2.8687   -0.1970   -0.8068 H   0  0  0  0  0  0  0  0  0  0  0  0
    1.7890   -1.0669   -3.0419 H   0  0  0  0  0  0  0  0  0  0  0  0
    4.0635   -2.0786   -4.8435 H   0  0  0  0  0  0  0  0  0  0  0  0
    4.0523    0.5536   -4.3238 H   0  0  0  0  0  0  0  0  0  0  0  0
    1.0760    0.6299   -5.0392 H   0  0  0  0  0  0  0  0  0  0  0  0
    3.3275   -0.5745   -6.7451 H   0  0  0  0  0  0  0  0  0  0  0  0
    0.3803   -1.5734    1.8782 H   0  0  0  0  0  0  0  0  0  0  0  0
    1.2991   -0.3441    0.9985 H   0  0  0  0  0  0  0  0  0  0  0  0
    4.2828   -3.9713    2.0975 H   0  0  0  0  0  0  0  0  0  0  0  0
    3.6092   -0.4432    2.9070 H   0  0  0  0  0  0  0  0  0  0  0  0
   -0.7971   -0.5578    0.2565 H   0  0  0  0  0  0  0  0  0  0  0  0
    4.7896   -3.2107   -0.4911 H   0  0  0  0  0  0  0  0  0  0  0  0
    3.4176   -3.7628   -3.1417 H   0  0  0  0  0  0  0  0  0  0  0  0
    1.7091   -3.5869   -3.5901 H   0  0  0  0  0  0  0  0  0  0  0  0
    2.7382   -5.3478   -4.5709 H   0  0  0  0  0  0  0  0  0  0  0  0
    1.5688   -1.2975   -7.9297 H   0  0  0  0  0  0  0  0  0  0  0  0
    1.8956    1.8228   -6.7915 H   0  0  0  0  0  0  0  0  0  0  0  0
    1.7277    1.3005   -2.8915 H   0  0  0  0  0  0  0  0  0  0  0  0
  1  2  1  0  0  0  0 
  2  3  1  0  0  0  0 
  3  4  1  0  0  0  0 
  4  5  1  0  0  0  0 
  5  6  1  0  0  0  0 
  1  6  1  0  0  0  0 
  6  7  1  0  0  0  0 
  8  7  1  0  0  0  0 
  9 10  1  0  0  0  0 
 11 12  1  0  0  0  0 
 12 13  1  0  0  0  0 
  9 13  1  0  0  0  0 
 10  8  1  0  0  0  0 
  8 11  1  0  0  0  0 
  2 14  1  0  0  0  0 
  3 15  1  0  0  0  0 
  4 16  1  0  0  0  0 
 14 17  1  0  0  0  0 
  5 18  1  0  0  0  0 
 10 19  1  0  0  0  0 
 19 20  1  0  0  0  0 
 13 21  1  0  0  0  0 
 12 22  1  0  0  0  0 
 11 23  1  0  0  0  0 
  2 24  1  0  0  0  0 
  3 25  1  0  0  0  0 
  4 26  1  0  0  0  0 
  5 27  1  0  0  0  0 
  6 28  1  0  0  0  0 
  8 29  1  0  0  0  0 
 10 30  1  0  0  0  0 
 11 31  1  0  0  0  0 
 12 32  1  0  0  0  0 
 13 33  1  0  0  0  0 
 14 34  1  0  0  0  0 
 14 35  1  0  0  0  0 
 15 36  1  0  0  0  0 
 16 37  1  0  0  0  0 
 17 38  1  0  0  0  0 
 18 39  1  0  0  0  0 
 19 40  1  0  0  0  0 
 19 41  1  0  0  0  0 
 20 42  1  0  0  0  0 
 21 43  1  0  0  0  0 
 22 44  1  0  0  0  0 
 23 45  1  0  0  0  0 
M  END
> <cdk:Title>
maltose

> <Conformer>
1

> <SuperDrugID>
SD001441

$$$$
