dioxyline
  CDK     0628171802

 52 54  0  0  0  0  0  0  0  0999 V2000
    0.1783    3.9658    4.6629 C   0  0  2  0  0  0  0  0  0  0  0  0
    0.5406    5.4084    4.6228 C   0  0  0  0  0  0  0  0  0  0  0  0
    0.6563    3.2711    3.4325 C   0  0  0  0  0  0  0  0  0  0  0  0
   -0.2203    6.4469    4.0104 C   0  0  0  0  0  0  0  0  0  0  0  0
    1.7362    5.7215    5.1899 N   0  0  0  0  0  0  0  0  0  0  0  0
   -0.1212    3.2698    2.2513 C   0  0  0  0  0  0  0  0  0  0  0  0
    1.9048    2.6046    3.4072 C   0  0  0  0  0  0  0  0  0  0  0  0
    0.3327    7.7625    3.9832 C   0  0  0  0  0  0  0  0  0  0  0  0
   -1.4915    6.2462    3.4176 C   0  0  0  0  0  0  0  0  0  0  0  0
    2.2902    6.9578    5.1944 C   0  0  0  0  0  0  0  0  0  0  0  0
    0.3309    2.6491    1.0732 C   0  0  0  0  0  0  0  0  0  0  0  0
    2.3426    1.9377    2.2470 C   0  0  0  0  0  0  0  0  0  0  0  0
   -0.3847    8.8198    3.3790 C   0  0  0  0  0  0  0  0  0  0  0  0
    1.5969    8.0078    4.5633 C   0  0  0  0  0  0  0  0  0  0  0  0
   -2.1738    7.2869    2.7631 C   0  0  0  0  0  0  0  0  0  0  0  0
    3.6089    7.1483    5.8264 C   0  0  0  0  0  0  0  0  0  0  0  0
   -0.4419    2.7149   -0.0546 O   0  0  0  0  0  0  0  0  0  0  0  0
    1.5512    1.9401    1.0808 C   0  0  0  0  0  0  0  0  0  0  0  0
   -1.6434    8.5913    2.7930 C   0  0  0  0  0  0  0  0  0  0  0  0
   -3.3586    7.0269    2.1242 O   0  0  0  0  0  0  0  0  0  0  0  0
   -0.1078    3.8387   -0.8903 C   0  0  0  0  0  0  0  0  0  0  0  0
    1.9707    1.2706   -0.0390 O   0  0  0  0  0  0  0  0  0  0  0  0
   -2.3412    9.6331    2.2464 O   0  0  0  0  0  0  0  0  0  0  0  0
   -3.1676    6.6144    0.7561 C   0  0  0  0  0  0  0  0  0  0  0  0
    1.4772   -0.0847   -0.0940 C   0  0  1  0  0  0  0  0  0  0  0  0
   -3.2810   10.2112    3.1739 C   0  0  0  0  0  0  0  0  0  0  0  0
    1.9784   -0.7701   -1.3786 C   0  0  0  0  0  0  0  0  0  0  0  0
   -0.8953    3.8256    4.8000 H   0  0  0  0  0  0  0  0  0  0  0  0
    0.6317    3.5031    5.5465 H   0  0  0  0  0  0  0  0  0  0  0  0
   -1.0339    3.7175    2.2306 H   0  0  0  0  0  0  0  0  0  0  0  0
    2.5054    2.6008    4.2361 H   0  0  0  0  0  0  0  0  0  0  0  0
   -1.9530    5.3410    3.4504 H   0  0  0  0  0  0  0  0  0  0  0  0
    3.2395    1.4483    2.2548 H   0  0  0  0  0  0  0  0  0  0  0  0
    0.0023    9.7671    3.3626 H   0  0  0  0  0  0  0  0  0  0  0  0
    2.0128    8.9433    4.5289 H   0  0  0  0  0  0  0  0  0  0  0  0
    4.3845    7.0692    5.0635 H   0  0  0  0  0  0  0  0  0  0  0  0
    3.7844    6.3835    6.5866 H   0  0  0  0  0  0  0  0  0  0  0  0
    3.6782    8.1274    6.3048 H   0  0  0  0  0  0  0  0  0  0  0  0
   -0.7507    3.8076   -1.7701 H   0  0  0  0  0  0  0  0  0  0  0  0
   -0.2789    4.7902   -0.3786 H   0  0  0  0  0  0  0  0  0  0  0  0
    0.9314    3.7869   -1.2262 H   0  0  0  0  0  0  0  0  0  0  0  0
   -4.1452    6.4011    0.3224 H   0  0  0  0  0  0  0  0  0  0  0  0
   -2.6978    7.4045    0.1630 H   0  0  0  0  0  0  0  0  0  0  0  0
   -2.5659    5.7036    0.6902 H   0  0  0  0  0  0  0  0  0  0  0  0
    1.8340   -0.6603    0.7664 H   0  0  0  0  0  0  0  0  0  0  0  0
    0.3821   -0.1046   -0.1027 H   0  0  0  0  0  0  0  0  0  0  0  0
   -3.8159   11.0086    2.6578 H   0  0  0  0  0  0  0  0  0  0  0  0
   -4.0178    9.4792    3.5180 H   0  0  0  0  0  0  0  0  0  0  0  0
   -2.7732   10.6458    4.0395 H   0  0  0  0  0  0  0  0  0  0  0  0
    1.6121   -0.2375   -2.2583 H   0  0  0  0  0  0  0  0  0  0  0  0
    1.6139   -1.7990   -1.4145 H   0  0  0  0  0  0  0  0  0  0  0  0
    3.0696   -0.7831   -1.3996 H   0  0  0  0  0  0  0  0  0  0  0  0
  1  2  1  0  0  0  0 
  1  3  1  0  0  0  0 
  2  4  2  0  0  0  0 
  2  5  1  0  0  0  0 
  3  6  2  0  0  0  0 
  3  7  1  0  0  0  0 
  4  8  1  0  0  0  0 
  4  9  1  0  0  0  0 
  5 10  2  0  0  0  0 
  6 11  1  0  0  0  0 
  7 12  2  0  0  0  0 
  8 13  1  0  0  0  0 
  8 14  2  0  0  0  0 
  9 15  2  0  0  0  0 
 10 14  1  0  0  0  0 
 10 16  1  0  0  0  0 
 11 17  1  0  0  0  0 
 11 18  2  0  0  0  0 
 12 18  1  0  0  0  0 
 13 19  2  0  0  0  0 
 15 19  1  0  0  0  0 
 15 20  1  0  0  0  0 
 17 21  1  0  0  0  0 
 18 22  1  0  0  0  0 
 19 23  1  0  0  0  0 
 20 24  1  0  0  0  0 
 22 25  1  0  0  0  0 
 23 26  1  0  0  0  0 
 25 27  1  0  0  0  0 
  1 28  1  0  0  0  0 
  1 29  1  0  0  0  0 
  6 30  1  0  0  0  0 
  7 31  1  0  0  0  0 
  9 32  1  0  0  0  0 
 12 33  1  0  0  0  0 
 13 34  1  0  0  0  0 
 14 35  1  0  0  0  0 
 16 36  1  0  0  0  0 
 16 37  1  0  0  0  0 
 16 38  1  0  0  0  0 
 21 39  1  0  0  0  0 
 21 40  1  0  0  0  0 
 21 41  1  0  0  0  0 
 24 42  1  0  0  0  0 
 24 43  1  0  0  0  0 
 24 44  1  0  0  0  0 
 25 45  1  0  0  0  0 
 25 46  1  0  0  0  0 
 26 47  1  0  0  0  0 
 26 48  1  0  0  0  0 
 26 49  1  0  0  0  0 
 27 50  1  0  0  0  0 
 27 51  1  0  0  0  0 
 27 52  1  0  0  0  0 
M  END
> <cdk:Title>
dioxyline

> <Conformer>
1

> <SuperDrugID>
SD000809

$$$$
