aminohydroxybutyric acid
  CDK     0628171801

 17 16  0  0  0  0  0  0  0  0999 V2000
   -3.1632    0.6187    2.8521 N   0  0  2  0  0  0  0  0  0  0  0  0
   -3.1997   -0.7329    2.2787 C   0  0  2  0  0  0  0  0  0  0  0  0
   -2.3806   -0.8073    0.9637 C   0  0  1  0  0  0  0  0  0  0  0  0
   -1.0312   -0.4250    1.2355 O   0  0  0  0  0  0  0  0  0  0  0  0
   -2.4110   -2.2192    0.3152 C   0  0  2  0  0  0  0  0  0  0  0  0
   -1.6562   -2.2694   -0.9524 C   0  0  0  0  0  0  0  0  0  0  0  0
   -2.0184   -1.4859   -1.9933 O   0  0  0  0  0  0  0  0  0  0  0  0
   -0.6683   -3.0266   -1.0850 O   0  0  0  0  0  0  0  0  0  0  0  0
   -3.7603    0.6069    3.6823 H   0  0  0  0  0  0  0  0  0  0  0  0
   -3.6121    1.2411    2.1770 H   0  0  0  0  0  0  0  0  0  0  0  0
   -4.2430   -0.9931    2.0867 H   0  0  0  0  0  0  0  0  0  0  0  0
   -2.7966   -1.4300    3.0154 H   0  0  0  0  0  0  0  0  0  0  0  0
   -2.8071   -0.0846    0.2614 H   0  0  0  0  0  0  0  0  0  0  0  0
   -0.5855   -0.4248    0.3626 H   0  0  0  0  0  0  0  0  0  0  0  0
   -3.4451   -2.5021    0.1028 H   0  0  0  0  0  0  0  0  0  0  0  0
   -2.0008   -2.9484    1.0189 H   0  0  0  0  0  0  0  0  0  0  0  0
   -1.5040   -1.5005   -2.8268 H   0  0  0  0  0  0  0  0  0  0  0  0
  1  2  1  0  0  0  0 
  3  2  1  0  0  0  0 
  3  4  1  0  0  0  0 
  3  5  1  0  0  0  0 
  5  6  1  0  0  0  0 
  6  7  1  0  0  0  0 
  6  8  2  0  0  0  0 
  1  9  1  0  0  0  0 
  1 10  1  0  0  0  0 
  2 11  1  0  0  0  0 
  2 12  1  0  0  0  0 
  3 13  1  0  0  0  0 
  4 14  1  0  0  0  0 
  5 15  1  0  0  0  0 
  5 16  1  0  0  0  0 
  7 17  1  0  0  0  0 
M  END
> <cdk:Title>
aminohydroxybutyric acid

> <Conformer>
1

> <SuperDrugID>
SD001132

$$$$
