brodimoprim
  CDK     0628171801

 35 36  0  0  0  0  0  0  0  0999 V2000
    0.5519    0.5917    0.2784 C   0  0  2  0  0  0  0  0  0  0  0  0
    0.8190    1.7283   -0.6464 C   0  0  0  0  0  0  0  0  0  0  0  0
   -0.0540    1.0747    1.5508 C   0  0  0  0  0  0  0  0  0  0  0  0
    0.1313    1.8653   -1.8749 C   0  0  0  0  0  0  0  0  0  0  0  0
    1.7863    2.7010   -0.3035 C   0  0  0  0  0  0  0  0  0  0  0  0
    0.6652    1.2289    2.7651 C   0  0  0  0  0  0  0  0  0  0  0  0
   -1.4242    1.4261    1.5825 C   0  0  0  0  0  0  0  0  0  0  0  0
    0.4108    2.9376   -2.7468 C   0  0  0  0  0  0  0  0  0  0  0  0
    2.0443    3.8007   -1.1440 C   0  0  0  0  0  0  0  0  0  0  0  0
    1.9716    0.9335    2.9067 N   0  0  0  0  0  0  0  0  0  0  0  0
    0.0388    1.7119    3.8668 N   0  0  0  0  0  0  0  0  0  0  0  0
   -1.9930    1.8947    2.7196 N   0  0  0  0  0  0  0  0  0  0  0  0
   -0.2173    2.9995   -3.9614 O   0  0  0  0  0  0  0  0  0  0  0  0
    1.3791    3.8988   -2.3837 C   0  0  0  0  0  0  0  0  0  0  0  0
    2.9661    4.7360   -0.7600 O   0  0  0  0  0  0  0  0  0  0  0  0
   -1.2736    2.0416    3.8564 C   0  0  0  0  0  0  0  0  0  0  0  0
   -1.4411    3.7544   -3.9458 C   0  0  0  0  0  0  0  0  0  0  0  0
    1.8054    5.2858   -3.5529 Br  0  0  0  0  0  0  0  0  0  0  0  0
    2.4155    5.7513    0.1003 C   0  0  0  0  0  0  0  0  0  0  0  0
   -1.8532    2.5158    4.9653 N   0  0  0  0  0  0  0  0  0  0  0  0
    1.4928    0.0654    0.4529 H   0  0  0  0  0  0  0  0  0  0  0  0
   -0.1246   -0.1419   -0.1694 H   0  0  0  0  0  0  0  0  0  0  0  0
   -0.5741    1.1774   -2.1486 H   0  0  0  0  0  0  0  0  0  0  0  0
    2.3112    2.6144    0.5699 H   0  0  0  0  0  0  0  0  0  0  0  0
   -2.0093    1.3277    0.7479 H   0  0  0  0  0  0  0  0  0  0  0  0
    2.4049    1.0587    3.7648 H   0  0  0  0  0  0  0  0  0  0  0  0
    2.4853    0.5910    2.1606 H   0  0  0  0  0  0  0  0  0  0  0  0
   -1.8284    3.7812   -4.9643 H   0  0  0  0  0  0  0  0  0  0  0  0
   -2.1926    3.2844   -3.3068 H   0  0  0  0  0  0  0  0  0  0  0  0
   -1.2757    4.7843   -3.6197 H   0  0  0  0  0  0  0  0  0  0  0  0
    3.2218    6.4344    0.3651 H   0  0  0  0  0  0  0  0  0  0  0  0
    1.6356    6.3265   -0.4046 H   0  0  0  0  0  0  0  0  0  0  0  0
    2.0119    5.3294    1.0250 H   0  0  0  0  0  0  0  0  0  0  0  0
   -1.3273    2.6600    5.7662 H   0  0  0  0  0  0  0  0  0  0  0  0
   -2.8000    2.7219    4.9656 H   0  0  0  0  0  0  0  0  0  0  0  0
  1  2  1  0  0  0  0 
  1  3  1  0  0  0  0 
  2  4  2  0  0  0  0 
  2  5  1  0  0  0  0 
  3  6  2  0  0  0  0 
  3  7  1  0  0  0  0 
  4  8  1  0  0  0  0 
  5  9  2  0  0  0  0 
  6 10  1  0  0  0  0 
  6 11  1  0  0  0  0 
  7 12  2  0  0  0  0 
  8 13  1  0  0  0  0 
  8 14  2  0  0  0  0 
  9 14  1  0  0  0  0 
  9 15  1  0  0  0  0 
 11 16  2  0  0  0  0 
 12 16  1  0  0  0  0 
 13 17  1  0  0  0  0 
 14 18  1  0  0  0  0 
 15 19  1  0  0  0  0 
 16 20  1  0  0  0  0 
  1 21  1  0  0  0  0 
  1 22  1  0  0  0  0 
  4 23  1  0  0  0  0 
  5 24  1  0  0  0  0 
  7 25  1  0  0  0  0 
 10 26  1  0  0  0  0 
 10 27  1  0  0  0  0 
 17 28  1  0  0  0  0 
 17 29  1  0  0  0  0 
 17 30  1  0  0  0  0 
 19 31  1  0  0  0  0 
 19 32  1  0  0  0  0 
 19 33  1  0  0  0  0 
 20 34  1  0  0  0  0 
 20 35  1  0  0  0  0 
M  END
> <cdk:Title>
brodimoprim

> <Conformer>
1

> <SuperDrugID>
SD000340

$$$$
