vedaprofen
  CDK     0628171801

 43 45  0  0  0  0  0  0  0  0999 V2000
   -3.1291    3.1688   -0.5356 C   0  0  0  0  0  0  0  0  0  0  0  0
   -3.5716    2.2521   -1.5545 C   0  0  0  0  0  0  0  0  0  0  0  0
   -2.6293    1.3868   -2.2030 C   0  0  0  0  0  0  0  0  0  0  0  0
   -1.2887    1.4269   -1.7627 C   0  0  0  0  0  0  0  0  0  0  0  0
   -0.8576    2.3349   -0.7969 C   0  0  0  0  0  0  0  0  0  0  0  0
   -1.7457    3.2322   -0.1682 C   0  0  0  0  0  0  0  0  0  0  0  0
   -4.9632    2.2112   -1.8617 C   0  0  0  0  0  0  0  0  0  0  0  0
   -5.8898    3.0522   -1.2300 C   0  0  0  0  0  0  0  0  0  0  0  0
   -5.4589    3.9368   -0.2402 C   0  0  0  0  0  0  0  0  0  0  0  0
   -4.1036    3.9777    0.1094 C   0  0  0  0  0  0  0  0  0  0  0  0
   -3.0079    0.3927   -3.2760 C   0  0  2  0  0  0  0  0  0  0  0  0
   -1.1521    4.1396    0.8857 C   0  0  1  0  0  0  0  0  0  0  0  0
   -3.5087   -0.9343   -2.6247 C   0  0  1  0  0  0  0  0  0  0  0  0
   -4.0330   -1.9395   -3.6835 C   0  0  2  0  0  0  0  0  0  0  0  0
   -2.9872   -2.2087   -4.7972 C   0  0  2  0  0  0  0  0  0  0  0  0
   -2.4805   -0.8934   -5.4465 C   0  0  1  0  0  0  0  0  0  0  0  0
   -1.9348    0.0849   -4.3741 C   0  0  1  0  0  0  0  0  0  0  0  0
   -1.2222    5.6581    0.5316 C   0  0  0  0  0  0  0  0  0  0  0  0
   -1.6450    3.7416    2.2263 C   0  0  0  0  0  0  0  0  0  0  0  0
   -1.4338    2.4652    2.6365 O   0  0  0  0  0  0  0  0  0  0  0  0
   -2.2253    4.5336    3.0034 O   0  0  0  0  0  0  0  0  0  0  0  0
   -0.5864    0.7857   -2.1295 H   0  0  0  0  0  0  0  0  0  0  0  0
    0.1333    2.3197   -0.5464 H   0  0  0  0  0  0  0  0  0  0  0  0
   -5.3538    1.5593   -2.5389 H   0  0  0  0  0  0  0  0  0  0  0  0
   -6.8803    3.0122   -1.4772 H   0  0  0  0  0  0  0  0  0  0  0  0
   -6.1295    4.5436    0.2386 H   0  0  0  0  0  0  0  0  0  0  0  0
   -3.8590    4.6128    0.8635 H   0  0  0  0  0  0  0  0  0  0  0  0
   -3.8263    0.8222   -3.8553 H   0  0  0  0  0  0  0  0  0  0  0  0
   -0.0728    3.9640    0.9696 H   0  0  0  0  0  0  0  0  0  0  0  0
   -2.6937   -1.4012   -2.0627 H   0  0  0  0  0  0  0  0  0  0  0  0
   -4.3179   -0.7281   -1.9185 H   0  0  0  0  0  0  0  0  0  0  0  0
   -4.9469   -1.5426   -4.1344 H   0  0  0  0  0  0  0  0  0  0  0  0
   -4.2871   -2.8818   -3.1906 H   0  0  0  0  0  0  0  0  0  0  0  0
   -3.4346   -2.8414   -5.5672 H   0  0  0  0  0  0  0  0  0  0  0  0
   -2.1391   -2.7520   -4.3698 H   0  0  0  0  0  0  0  0  0  0  0  0
   -1.6847   -1.1253   -6.1589 H   0  0  0  0  0  0  0  0  0  0  0  0
   -3.2958   -0.4179   -5.9995 H   0  0  0  0  0  0  0  0  0  0  0  0
   -1.6318    1.0169   -4.8587 H   0  0  0  0  0  0  0  0  0  0  0  0
   -1.0441   -0.3785   -3.9434 H   0  0  0  0  0  0  0  0  0  0  0  0
   -0.7826    6.2497    1.3381 H   0  0  0  0  0  0  0  0  0  0  0  0
   -0.6467    5.8497   -0.3765 H   0  0  0  0  0  0  0  0  0  0  0  0
   -2.2337    6.0246    0.3644 H   0  0  0  0  0  0  0  0  0  0  0  0
   -1.7388    2.1497    3.5116 H   0  0  0  0  0  0  0  0  0  0  0  0
  1  2  1  0  0  0  0 
  2  3  2  0  0  0  0 
  3  4  1  0  0  0  0 
  4  5  2  0  0  0  0 
  5  6  1  0  0  0  0 
  1  6  2  0  0  0  0 
  7  8  2  0  0  0  0 
  8  9  1  0  0  0  0 
  9 10  2  0  0  0  0 
  1 10  1  0  0  0  0 
  2  7  1  0  0  0  0 
  3 11  1  0  0  0  0 
 12  6  1  0  0  0  0 
 13 14  1  0  0  0  0 
 14 15  1  0  0  0  0 
 15 16  1  0  0  0  0 
 16 17  1  0  0  0  0 
 11 13  1  0  0  0  0 
 11 17  1  0  0  0  0 
 12 18  1  0  0  0  0 
 12 19  1  0  0  0  0 
 19 20  1  0  0  0  0 
 19 21  2  0  0  0  0 
  4 22  1  0  0  0  0 
  5 23  1  0  0  0  0 
  7 24  1  0  0  0  0 
  8 25  1  0  0  0  0 
  9 26  1  0  0  0  0 
 10 27  1  0  0  0  0 
 11 28  1  0  0  0  0 
 12 29  1  0  0  0  0 
 13 30  1  0  0  0  0 
 13 31  1  0  0  0  0 
 14 32  1  0  0  0  0 
 14 33  1  0  0  0  0 
 15 34  1  0  0  0  0 
 15 35  1  0  0  0  0 
 16 36  1  0  0  0  0 
 16 37  1  0  0  0  0 
 17 38  1  0  0  0  0 
 17 39  1  0  0  0  0 
 18 40  1  0  0  0  0 
 18 41  1  0  0  0  0 
 18 42  1  0  0  0  0 
 20 43  1  0  0  0  0 
M  END
> <cdk:Title>
vedaprofen

> <Conformer>
1

> <SuperDrugID>
SD002537

$$$$
