hexobarbital
  CDK     0628171801

 33 34  0  0  0  0  0  0  0  0999 V2000
    0.6682    0.0420    0.8467 C   0  0  2  0  0  0  0  0  0  0  0  0
    1.8414    0.9410    1.1388 C   0  0  0  0  0  0  0  0  0  0  0  0
    1.1074   -1.3815    0.6696 C   0  0  0  0  0  0  0  0  0  0  0  0
    0.0086    0.5337   -0.4072 C   0  0  0  0  0  0  0  0  0  0  0  0
    1.5925    2.1615    1.3034 O   0  0  0  0  0  0  0  0  0  0  0  0
    3.1436    0.4728    1.2458 N   0  0  0  0  0  0  0  0  0  0  0  0
    0.2774   -2.2796    0.3952 O   0  0  0  0  0  0  0  0  0  0  0  0
    2.4001   -1.7568    0.7973 N   0  0  0  0  0  0  0  0  0  0  0  0
   -1.3214    1.1769   -0.3522 C   0  0  1  0  0  0  0  0  0  0  0  0
    0.6658    0.4541   -1.5935 C   0  0  0  0  0  0  0  0  0  0  0  0
    4.2573    1.3479    1.5443 C   0  0  0  0  0  0  0  0  0  0  0  0
    3.3876   -0.8765    1.0761 C   0  0  0  0  0  0  0  0  0  0  0  0
   -1.9695    1.5910   -1.7035 C   0  0  2  0  0  0  0  0  0  0  0  0
    0.1718    0.9602   -2.8661 C   0  0  1  0  0  0  0  0  0  0  0  0
    4.5375   -1.3699    1.1616 O   0  0  0  0  0  0  0  0  0  0  0  0
   -0.8931    2.0704   -2.7007 C   0  0  2  0  0  0  0  0  0  0  0  0
   -0.2123    0.0381    2.1502 C   0  0  0  0  0  0  0  0  0  0  0  0
    2.6281   -2.6928    0.6884 H   0  0  0  0  0  0  0  0  0  0  0  0
   -2.0297    0.5074    0.1383 H   0  0  0  0  0  0  0  0  0  0  0  0
   -1.2340    2.0776    0.2611 H   0  0  0  0  0  0  0  0  0  0  0  0
    1.5616    0.0225   -1.6228 H   0  0  0  0  0  0  0  0  0  0  0  0
    4.7137    1.0517    2.4926 H   0  0  0  0  0  0  0  0  0  0  0  0
    3.9810    2.3998    1.6290 H   0  0  0  0  0  0  0  0  0  0  0  0
    5.0093    1.2738    0.7554 H   0  0  0  0  0  0  0  0  0  0  0  0
   -2.7015    2.3870   -1.5377 H   0  0  0  0  0  0  0  0  0  0  0  0
   -2.4986    0.7379   -2.1396 H   0  0  0  0  0  0  0  0  0  0  0  0
    1.0066    1.3648   -3.4456 H   0  0  0  0  0  0  0  0  0  0  0  0
   -0.2510    0.1239   -3.4298 H   0  0  0  0  0  0  0  0  0  0  0  0
   -0.4212    2.9850   -2.3256 H   0  0  0  0  0  0  0  0  0  0  0  0
   -1.3503    2.2945   -3.6668 H   0  0  0  0  0  0  0  0  0  0  0  0
    0.3690   -0.2964    3.0152 H   0  0  0  0  0  0  0  0  0  0  0  0
   -0.5922    1.0357    2.3829 H   0  0  0  0  0  0  0  0  0  0  0  0
   -1.0701   -0.6312    2.0490 H   0  0  0  0  0  0  0  0  0  0  0  0
  1  2  1  0  0  0  0 
  1  3  1  0  0  0  0 
  1  4  1  0  0  0  0 
  2  5  2  0  0  0  0 
  2  6  1  0  0  0  0 
  3  7  2  0  0  0  0 
  3  8  1  0  0  0  0 
  4  9  1  0  0  0  0 
  4 10  2  0  0  0  0 
  6 11  1  0  0  0  0 
  6 12  1  0  0  0  0 
  8 12  1  0  0  0  0 
  9 13  1  0  0  0  0 
 10 14  1  0  0  0  0 
 12 15  2  0  0  0  0 
 13 16  1  0  0  0  0 
 14 16  1  0  0  0  0 
  1 17  1  0  0  0  0 
 18  8  1  0  0  0  0 
 19  9  1  0  0  0  0 
 20  9  1  0  0  0  0 
 21 10  1  0  0  0  0 
 22 11  1  0  0  0  0 
 23 11  1  0  0  0  0 
 24 11  1  0  0  0  0 
 25 13  1  0  0  0  0 
 26 13  1  0  0  0  0 
 27 14  1  0  0  0  0 
 28 14  1  0  0  0  0 
 29 16  1  0  0  0  0 
 30 16  1  0  0  0  0 
 31 17  1  0  0  0  0 
 32 17  1  0  0  0  0 
 33 17  1  0  0  0  0 
M  END
> <cdk:Title>
hexobarbital

> <Conformer>
1

> <SuperDrugID>
SD001215

$$$$
