desmopressin
  CDK     0628171802

138141  0  0  0  0  0  0  0  0999 V2000
    3.9157   -9.9656   -1.2735 N   0  0  0  0  0  0  0  0  0  0  0  0
    7.9074   -7.7990    0.9830 S   0  0  0  0  0  0  0  0  0  0  0  0
   -1.4924   -6.7735    0.6131 N   0  0  0  0  0  0  0  0  0  0  0  0
    7.3655   -6.9606   -3.9406 N   0  0  0  0  0  0  0  0  0  0  0  0
    8.3348   -7.6164   -1.7933 C   0  0  2  0  0  0  0  0  0  0  0  0
    4.1633   -8.6781   -7.5096 C   0  0  0  0  0  0  0  0  0  0  0  0
    8.0256   -6.7855   -0.5247 C   0  0  2  0  0  0  0  0  0  0  0  0
    3.9889  -11.1769   -3.9819 N   0  0  0  0  0  0  0  0  0  0  0  0
   -4.3287   -4.9097    0.4174 N   0  0  0  0  0  0  0  0  0  0  0  0
    4.3152   -9.4565   -6.3947 N   0  0  0  0  0  0  0  0  0  0  0  0
    8.3431   -6.7785   -3.0066 C   0  0  0  0  0  0  0  0  0  0  0  0
    1.8697   -7.6808   -0.9339 N   0  0  0  0  0  0  0  0  0  0  0  0
   -6.9324   -5.7148   -0.9611 N   0  0  0  0  0  0  0  0  0  0  0  0
    9.2529   -5.9277   -3.1581 O   0  0  0  0  0  0  0  0  0  0  0  0
    2.5263   -8.3734    0.0748 C   0  0  0  0  0  0  0  0  0  0  0  0
    6.4995   -9.2816    0.5028 S   0  0  0  0  0  0  0  0  0  0  0  0
    4.9873   -8.3113    0.2245 C   0  0  1  0  0  0  0  0  0  0  0  0
    3.7547   -9.2118   -0.0566 C   0  0  2  0  0  0  0  0  0  0  0  0
    2.1209   -8.2360    1.2569 O   0  0  0  0  0  0  0  0  0  0  0  0
   -3.2501   -5.3181    1.1458 C   0  0  0  0  0  0  0  0  0  0  0  0
   -0.9730   -4.3203    1.1611 C   0  0  2  0  0  0  0  0  0  0  0  0
   -1.3779   -2.8671    0.7723 C   0  0  1  0  0  0  0  0  0  0  0  0
   -0.2648   -1.8100    0.9951 C   0  0  2  0  0  0  0  0  0  0  0  0
   -0.6675   -0.5879    0.4548 N   0  0  0  0  0  0  0  0  0  0  0  0
    0.0069    0.4958    0.3161 C   0  0  0  0  0  0  0  0  0  0  0  0
   -0.5910    1.5164   -0.2494 N   0  0  0  0  0  0  0  0  0  0  0  0
    1.2645    0.6327    0.6868 N   0  0  0  0  0  0  0  0  0  0  0  0
   -1.9063   -5.3998    0.5171 C   0  0  1  0  0  0  0  0  0  0  0  0
   -3.3653   -5.6285    2.3576 O   0  0  0  0  0  0  0  0  0  0  0  0
    5.8636   -6.3666   -5.6636 C   0  0  0  0  0  0  0  0  0  0  0  0
    8.3537   -6.9069   -6.1459 C   0  0  2  0  0  0  0  0  0  0  0  0
    8.6070   -6.1540   -7.4018 C   0  0  0  0  0  0  0  0  0  0  0  0
    8.4141   -6.7557   -8.6677 C   0  0  0  0  0  0  0  0  0  0  0  0
    8.7447   -6.0620   -9.8452 C   0  0  0  0  0  0  0  0  0  0  0  0
    9.2663   -4.7559   -9.7743 C   0  0  0  0  0  0  0  0  0  0  0  0
    9.6124   -4.0825  -10.8973 O   0  0  0  0  0  0  0  0  0  0  0  0
    9.4418   -4.1405   -8.5220 C   0  0  0  0  0  0  0  0  0  0  0  0
    9.1135   -4.8338   -7.3445 C   0  0  0  0  0  0  0  0  0  0  0  0
    7.2757   -6.2836   -5.1987 C   0  0  2  0  0  0  0  0  0  0  0  0
    4.9664   -5.9014   -4.9185 O   0  0  0  0  0  0  0  0  0  0  0  0
    5.5428   -6.9381   -6.8575 N   0  0  0  0  0  0  0  0  0  0  0  0
    4.0463   -6.4075   -8.7082 C   0  0  1  0  0  0  0  0  0  0  0  0
    4.0589   -4.9267   -8.5396 C   0  0  0  0  0  0  0  0  0  0  0  0
    2.9014   -4.2489   -8.0869 C   0  0  0  0  0  0  0  0  0  0  0  0
    2.8907   -2.8465   -7.9700 C   0  0  0  0  0  0  0  0  0  0  0  0
    4.0429   -2.1034   -8.2834 C   0  0  0  0  0  0  0  0  0  0  0  0
    5.2057   -2.7645   -8.7175 C   0  0  0  0  0  0  0  0  0  0  0  0
    5.2140   -4.1660   -8.8449 C   0  0  0  0  0  0  0  0  0  0  0  0
    4.2314   -7.1981   -7.3738 C   0  0  1  0  0  0  0  0  0  0  0  0
    4.0491   -9.2035   -8.6431 O   0  0  0  0  0  0  0  0  0  0  0  0
    3.0489  -10.9091   -1.7454 C   0  0  0  0  0  0  0  0  0  0  0  0
    4.5056  -12.8665   -2.3186 C   0  0  1  0  0  0  0  0  0  0  0  0
    4.0687  -13.6680   -1.1524 C   0  0  0  0  0  0  0  0  0  0  0  0
    3.0404  -14.5320   -1.2431 N   0  0  0  0  0  0  0  0  0  0  0  0
    4.6543  -13.5592   -0.0511 O   0  0  0  0  0  0  0  0  0  0  0  0
    3.4435  -11.8484   -2.8310 C   0  0  2  0  0  0  0  0  0  0  0  0
    1.9209  -11.0481   -1.2137 O   0  0  0  0  0  0  0  0  0  0  0  0
   -6.5402   -5.8018    0.3224 C   0  0  0  0  0  0  0  0  0  0  0  0
   -5.6629   -4.7765    0.9138 C   0  0  1  0  0  0  0  0  0  0  0  0
   -6.9510   -6.7651    1.0095 O   0  0  0  0  0  0  0  0  0  0  0  0
    3.7473  -11.5047   -5.2891 C   0  0  0  0  0  0  0  0  0  0  0  0
    6.1042  -11.3332   -6.1566 C   0  0  2  0  0  0  0  0  0  0  0  0
    6.9274  -11.0842   -7.5275 C   0  0  1  0  0  0  0  0  0  0  0  0
    8.3775  -11.1346   -7.2449 C   0  0  0  0  0  0  0  0  0  0  0  0
    8.9473  -12.2391   -6.7313 N   0  0  0  0  0  0  0  0  0  0  0  0
    9.1139  -10.1511   -7.4868 O   0  0  0  0  0  0  0  0  0  0  0  0
    4.5561  -10.9044   -6.3847 C   0  0  2  0  0  0  0  0  0  0  0  0
    2.8888  -12.3747   -5.5803 O   0  0  0  0  0  0  0  0  0  0  0  0
   -0.4260   -7.4233    0.0544 C   0  0  0  0  0  0  0  0  0  0  0  0
    0.7327   -6.8246   -0.6786 C   0  0  2  0  0  0  0  0  0  0  0  0
    0.3321   -6.2578   -2.0573 C   0  0  2  0  0  0  0  0  0  0  0  0
    1.6281   -6.3578   -2.8683 C   0  0  2  0  0  0  0  0  0  0  0  0
    2.2956   -7.6208   -2.3017 C   0  0  1  0  0  0  0  0  0  0  0  0
   -0.4674   -8.6658    0.2054 O   0  0  0  0  0  0  0  0  0  0  0  0
    4.7395   -9.8346   -1.7690 H   0  0  0  0  0  0  0  0  0  0  0  0
   -2.0965   -7.3462    1.1155 H   0  0  0  0  0  0  0  0  0  0  0  0
    6.6889   -7.6298   -3.7476 H   0  0  0  0  0  0  0  0  0  0  0  0
    7.5826   -8.3965   -1.9205 H   0  0  0  0  0  0  0  0  0  0  0  0
    9.3050   -8.1088   -1.6905 H   0  0  0  0  0  0  0  0  0  0  0  0
    8.8285   -6.0654   -0.3597 H   0  0  0  0  0  0  0  0  0  0  0  0
    7.0956   -6.2284   -0.6600 H   0  0  0  0  0  0  0  0  0  0  0  0
    4.6379  -10.4768   -3.8128 H   0  0  0  0  0  0  0  0  0  0  0  0
   -4.1759   -4.6798   -0.5143 H   0  0  0  0  0  0  0  0  0  0  0  0
    4.3501   -9.0039   -5.5377 H   0  0  0  0  0  0  0  0  0  0  0  0
   -6.6438   -4.9683   -1.5106 H   0  0  0  0  0  0  0  0  0  0  0  0
   -7.5094   -6.3969   -1.3388 H   0  0  0  0  0  0  0  0  0  0  0  0
    4.8317   -7.7100    1.1246 H   0  0  0  0  0  0  0  0  0  0  0  0
    5.1455   -7.6307   -0.6124 H   0  0  0  0  0  0  0  0  0  0  0  0
    3.7307   -9.9589    0.7443 H   0  0  0  0  0  0  0  0  0  0  0  0
   -0.9588   -4.4213    2.2500 H   0  0  0  0  0  0  0  0  0  0  0  0
    0.0443   -4.4638    0.8286 H   0  0  0  0  0  0  0  0  0  0  0  0
   -1.6419   -2.8481   -0.2899 H   0  0  0  0  0  0  0  0  0  0  0  0
   -2.2620   -2.5788    1.3480 H   0  0  0  0  0  0  0  0  0  0  0  0
    0.6499   -2.1380    0.4899 H   0  0  0  0  0  0  0  0  0  0  0  0
   -0.0616   -1.6962    2.0642 H   0  0  0  0  0  0  0  0  0  0  0  0
   -0.1094    2.3463   -0.3816 H   0  0  0  0  0  0  0  0  0  0  0  0
   -1.5130    1.4426   -0.5416 H   0  0  0  0  0  0  0  0  0  0  0  0
    1.7364   -0.1060    1.1023 H   0  0  0  0  0  0  0  0  0  0  0  0
    1.7236    1.4749    0.5397 H   0  0  0  0  0  0  0  0  0  0  0  0
   -2.0100   -5.1847   -0.5494 H   0  0  0  0  0  0  0  0  0  0  0  0
    9.3176   -6.9527   -5.6309 H   0  0  0  0  0  0  0  0  0  0  0  0
    8.0764   -7.9437   -6.3534 H   0  0  0  0  0  0  0  0  0  0  0  0
    8.0458   -7.7082   -8.7423 H   0  0  0  0  0  0  0  0  0  0  0  0
    8.6131   -6.5140  -10.7514 H   0  0  0  0  0  0  0  0  0  0  0  0
    9.6603   -4.7640  -11.6029 H   0  0  0  0  0  0  0  0  0  0  0  0
    9.8212   -3.1935   -8.4599 H   0  0  0  0  0  0  0  0  0  0  0  0
    9.2638   -4.3730   -6.4428 H   0  0  0  0  0  0  0  0  0  0  0  0
    7.4906   -5.2228   -5.0451 H   0  0  0  0  0  0  0  0  0  0  0  0
    6.2813   -7.2348   -7.4094 H   0  0  0  0  0  0  0  0  0  0  0  0
    3.0958   -6.6939   -9.1666 H   0  0  0  0  0  0  0  0  0  0  0  0
    4.8249   -6.7063   -9.4168 H   0  0  0  0  0  0  0  0  0  0  0  0
    2.0547   -4.7719   -7.8487 H   0  0  0  0  0  0  0  0  0  0  0  0
    2.0438   -2.3663   -7.6585 H   0  0  0  0  0  0  0  0  0  0  0  0
    4.0342   -1.0836   -8.1982 H   0  0  0  0  0  0  0  0  0  0  0  0
    6.0449   -2.2253   -8.9432 H   0  0  0  0  0  0  0  0  0  0  0  0
    6.0693   -4.6259   -9.1641 H   0  0  0  0  0  0  0  0  0  0  0  0
    3.4438   -6.8918   -6.6783 H   0  0  0  0  0  0  0  0  0  0  0  0
    5.4272  -12.3319   -2.0680 H   0  0  0  0  0  0  0  0  0  0  0  0
    4.7482  -13.5640   -3.1240 H   0  0  0  0  0  0  0  0  0  0  0  0
    2.7716  -15.0484   -0.4664 H   0  0  0  0  0  0  0  0  0  0  0  0
    2.5680  -14.6411   -2.0833 H   0  0  0  0  0  0  0  0  0  0  0  0
    2.5573  -12.4238   -3.1198 H   0  0  0  0  0  0  0  0  0  0  0  0
   -5.7007   -4.8523    2.0034 H   0  0  0  0  0  0  0  0  0  0  0  0
   -6.0306   -3.7840    0.6492 H   0  0  0  0  0  0  0  0  0  0  0  0
    6.5195  -10.7271   -5.3444 H   0  0  0  0  0  0  0  0  0  0  0  0
    6.1792  -12.3898   -5.8816 H   0  0  0  0  0  0  0  0  0  0  0  0
    6.7541  -11.8443   -8.3371 H   0  0  0  0  0  0  0  0  0  0  0  0
    6.7309  -10.0998   -8.0355 H   0  0  0  0  0  0  0  0  0  0  0  0
    9.8988  -12.2544   -6.5474 H   0  0  0  0  0  0  0  0  0  0  0  0
    8.4077  -13.0215   -6.5422 H   0  0  0  0  0  0  0  0  0  0  0  0
    4.1023  -11.3088   -7.3340 H   0  0  0  0  0  0  0  0  0  0  0  0
    1.1581   -6.0277   -0.0752 H   0  0  0  0  0  0  0  0  0  0  0  0
   -0.0107   -5.2240   -1.9890 H   0  0  0  0  0  0  0  0  0  0  0  0
   -0.4461   -6.8663   -2.5283 H   0  0  0  0  0  0  0  0  0  0  0  0
    2.2553   -5.4810   -2.6794 H   0  0  0  0  0  0  0  0  0  0  0  0
    1.4391   -6.4373   -3.9407 H   0  0  0  0  0  0  0  0  0  0  0  0
    3.3801   -7.5309   -2.4018 H   0  0  0  0  0  0  0  0  0  0  0  0
    1.9482   -8.5022   -2.8478 H   0  0  0  0  0  0  0  0  0  0  0  0
  6 10  1  0  0  0  0 
 61  8  1  0  0  0  0 
 51  1  1  0  0  0  0 
 11  4  1  0  0  0  0 
 30 41  1  0  0  0  0 
  5  7  1  0  0  0  0 
 11  5  1  0  0  0  0 
 15 12  1  0  0  0  0 
 69  3  1  0  0  0  0 
 20  9  1  0  0  0  0 
 11 14  2  0  0  0  0 
 58 13  1  0  0  0  0 
 16  2  1  0  0  0  0 
  7  2  1  0  0  0  0 
 18  1  1  0  0  0  0 
 18 17  1  0  0  0  0 
 17 16  1  0  0  0  0 
 18 15  1  0  0  0  0 
 15 19  2  0  0  0  0 
 28  3  1  0  0  0  0 
 28 21  1  0  0  0  0 
 21 22  1  0  0  0  0 
 22 23  1  0  0  0  0 
 23 24  1  0  0  0  0 
 24 25  2  0  0  0  0 
 25 26  1  0  0  0  0 
 25 27  1  0  0  0  0 
 28 20  1  0  0  0  0 
 20 29  2  0  0  0  0 
 39  4  1  0  0  0  0 
 39 31  1  0  0  0  0 
 31 32  1  0  0  0  0 
 32 33  2  0  0  0  0 
 33 34  1  0  0  0  0 
 34 35  2  0  0  0  0 
 35 36  1  0  0  0  0 
 35 37  1  0  0  0  0 
 37 38  2  0  0  0  0 
 32 38  1  0  0  0  0 
 39 30  1  0  0  0  0 
 30 40  2  0  0  0  0 
 49 41  1  0  0  0  0 
 49 42  1  0  0  0  0 
 42 43  1  0  0  0  0 
 43 44  2  0  0  0  0 
 44 45  1  0  0  0  0 
 45 46  2  0  0  0  0 
 46 47  1  0  0  0  0 
 47 48  2  0  0  0  0 
 43 48  1  0  0  0  0 
 49  6  1  0  0  0  0 
  6 50  2  0  0  0  0 
 56  8  1  0  0  0  0 
 56 52  1  0  0  0  0 
 52 53  1  0  0  0  0 
 53 54  1  0  0  0  0 
 53 55  2  0  0  0  0 
 56 51  1  0  0  0  0 
 51 57  2  0  0  0  0 
  9 59  1  0  0  0  0 
 59 58  1  0  0  0  0 
 58 60  2  0  0  0  0 
 67 10  1  0  0  0  0 
 67 62  1  0  0  0  0 
 62 63  1  0  0  0  0 
 63 64  1  0  0  0  0 
 64 65  1  0  0  0  0 
 64 66  2  0  0  0  0 
 67 61  1  0  0  0  0 
 61 68  2  0  0  0  0 
 74 69  2  0  0  0  0 
 70 69  1  0  0  0  0 
 70 71  1  0  0  0  0 
 71 72  1  0  0  0  0 
 72 73  1  0  0  0  0 
 73 12  1  0  0  0  0 
 70 12  1  0  0  0  0 
 75  1  1  0  0  0  0 
 76  3  1  0  0  0  0 
 77  4  1  0  0  0  0 
 78  5  1  0  0  0  0 
 79  5  1  0  0  0  0 
 80  7  1  0  0  0  0 
 81  7  1  0  0  0  0 
 82  8  1  0  0  0  0 
 83  9  1  0  0  0  0 
 84 10  1  0  0  0  0 
 85 13  1  0  0  0  0 
 86 13  1  0  0  0  0 
 87 17  1  0  0  0  0 
 88 17  1  0  0  0  0 
 18 89  1  0  0  0  0 
 90 21  1  0  0  0  0 
 91 21  1  0  0  0  0 
 92 22  1  0  0  0  0 
 93 22  1  0  0  0  0 
 94 23  1  0  0  0  0 
 95 23  1  0  0  0  0 
 96 26  1  0  0  0  0 
 97 26  1  0  0  0  0 
 98 27  1  0  0  0  0 
 99 27  1  0  0  0  0 
 28100  1  0  0  0  0 
101 31  1  0  0  0  0 
102 31  1  0  0  0  0 
103 33  1  0  0  0  0 
104 34  1  0  0  0  0 
105 36  1  0  0  0  0 
106 37  1  0  0  0  0 
107 38  1  0  0  0  0 
 39108  1  0  0  0  0 
109 41  1  0  0  0  0 
110 42  1  0  0  0  0 
111 42  1  0  0  0  0 
112 44  1  0  0  0  0 
113 45  1  0  0  0  0 
114 46  1  0  0  0  0 
115 47  1  0  0  0  0 
116 48  1  0  0  0  0 
 49117  1  0  0  0  0 
118 52  1  0  0  0  0 
119 52  1  0  0  0  0 
120 54  1  0  0  0  0 
121 54  1  0  0  0  0 
 56122  1  0  0  0  0 
123 59  1  0  0  0  0 
124 59  1  0  0  0  0 
125 62  1  0  0  0  0 
126 62  1  0  0  0  0 
127 63  1  0  0  0  0 
128 63  1  0  0  0  0 
129 65  1  0  0  0  0 
130 65  1  0  0  0  0 
 67131  1  0  0  0  0 
 70132  1  0  0  0  0 
133 71  1  0  0  0  0 
134 71  1  0  0  0  0 
135 72  1  0  0  0  0 
136 72  1  0  0  0  0 
137 73  1  0  0  0  0 
138 73  1  0  0  0  0 
M  END
> <cdk:Title>
desmopressin

> <Conformer>
1

> <SuperDrugID>
SD000721

$$$$
