phenelzine
  CDK     0628171801

 22 22  0  0  0  0  0  0  0  0999 V2000
   -0.0554   -0.3198   -0.3009 N   0  0  1  0  0  0  0  0  0  0  0  0
    1.0523    0.4463    0.0845 N   0  0  1  0  0  0  0  0  0  0  0  0
    2.1078   -0.3845    0.6959 C   0  0  2  0  0  0  0  0  0  0  0  0
    3.2433    0.5261    1.2298 C   0  0  1  0  0  0  0  0  0  0  0  0
    4.4238   -0.2504    1.6991 C   0  0  0  0  0  0  0  0  0  0  0  0
    4.3374   -1.0456    2.8663 C   0  0  0  0  0  0  0  0  0  0  0  0
    5.4374   -1.8066    3.3022 C   0  0  0  0  0  0  0  0  0  0  0  0
    6.6463   -1.7659    2.5870 C   0  0  0  0  0  0  0  0  0  0  0  0
    6.7578   -0.9629    1.4378 C   0  0  0  0  0  0  0  0  0  0  0  0
    5.6522   -0.2134    0.9956 C   0  0  0  0  0  0  0  0  0  0  0  0
   -0.5180   -0.6342    0.5557 H   0  0  0  0  0  0  0  0  0  0  0  0
   -0.7035    0.3193   -0.7686 H   0  0  0  0  0  0  0  0  0  0  0  0
    1.4501    0.8365   -0.7732 H   0  0  0  0  0  0  0  0  0  0  0  0
    2.5097   -1.0650   -0.0617 H   0  0  0  0  0  0  0  0  0  0  0  0
    1.6868   -0.9743    1.5170 H   0  0  0  0  0  0  0  0  0  0  0  0
    3.5318    1.2156    0.4302 H   0  0  0  0  0  0  0  0  0  0  0  0
    2.8651    1.1348    2.0568 H   0  0  0  0  0  0  0  0  0  0  0  0
    3.4704   -1.0739    3.4080 H   0  0  0  0  0  0  0  0  0  0  0  0
    5.3581   -2.3858    4.1414 H   0  0  0  0  0  0  0  0  0  0  0  0
    7.4459   -2.3158    2.9050 H   0  0  0  0  0  0  0  0  0  0  0  0
    7.6415   -0.9237    0.9248 H   0  0  0  0  0  0  0  0  0  0  0  0
    5.7514    0.3589    0.1540 H   0  0  0  0  0  0  0  0  0  0  0  0
  1  2  1  0  0  0  0 
  2  3  1  0  0  0  0 
  3  4  1  0  0  0  0 
  4  5  1  0  0  0  0 
  5  6  2  0  0  0  0 
  6  7  1  0  0  0  0 
  7  8  2  0  0  0  0 
  8  9  1  0  0  0  0 
  9 10  2  0  0  0  0 
  5 10  1  0  0  0  0 
  1 11  1  0  0  0  0 
  1 12  1  0  0  0  0 
  2 13  1  0  0  0  0 
  3 14  1  0  0  0  0 
  3 15  1  0  0  0  0 
  4 16  1  0  0  0  0 
  4 17  1  0  0  0  0 
  6 18  1  0  0  0  0 
  7 19  1  0  0  0  0 
  8 20  1  0  0  0  0 
  9 21  1  0  0  0  0 
 10 22  1  0  0  0  0 
M  END
> <cdk:Title>
phenelzine

> <Conformer>
1

> <SuperDrugID>
SD001903

$$$$
