fenyramidol
  CDK     0628171801

 30 31  0  0  0  0  0  0  0  0999 V2000
    2.2728    3.8400    1.3725 C   0  0  1  0  0  0  0  0  0  0  0  0
    2.0791    3.8172   -0.1679 C   0  0  1  0  0  0  0  0  0  0  0  0
    3.5789    3.3682    1.7140 O   0  0  0  0  0  0  0  0  0  0  0  0
    2.0418    5.2033    1.9365 C   0  0  0  0  0  0  0  0  0  0  0  0
    0.7650    4.2134   -0.5685 N   0  0  0  0  0  0  0  0  0  0  0  0
    3.0579    6.1907    1.9191 C   0  0  0  0  0  0  0  0  0  0  0  0
    0.7758    5.5511    2.4682 C   0  0  0  0  0  0  0  0  0  0  0  0
   -0.3477    3.4311   -0.5779 C   0  0  0  0  0  0  0  0  0  0  0  0
    2.8217    7.4778    2.4360 C   0  0  0  0  0  0  0  0  0  0  0  0
    0.5358    6.8431    2.9712 C   0  0  0  0  0  0  0  0  0  0  0  0
   -1.5721    4.0028   -0.9809 C   0  0  0  0  0  0  0  0  0  0  0  0
   -0.3236    2.1173   -0.2187 N   0  0  0  0  0  0  0  0  0  0  0  0
    1.5594    7.8056    2.9616 C   0  0  0  0  0  0  0  0  0  0  0  0
   -2.7303    3.2055   -1.0172 C   0  0  0  0  0  0  0  0  0  0  0  0
   -1.4240    1.3209   -0.2372 C   0  0  0  0  0  0  0  0  0  0  0  0
   -2.6612    1.8510   -0.6444 C   0  0  0  0  0  0  0  0  0  0  0  0
    1.5745    3.1270    1.8210 H   0  0  0  0  0  0  0  0  0  0  0  0
    2.7796    4.5163   -0.6291 H   0  0  0  0  0  0  0  0  0  0  0  0
    2.3087    2.8244   -0.5620 H   0  0  0  0  0  0  0  0  0  0  0  0
    3.6292    2.4560    1.3581 H   0  0  0  0  0  0  0  0  0  0  0  0
    0.6526    5.1351   -0.8445 H   0  0  0  0  0  0  0  0  0  0  0  0
    3.9804    5.9821    1.5303 H   0  0  0  0  0  0  0  0  0  0  0  0
    0.0134    4.8692    2.4840 H   0  0  0  0  0  0  0  0  0  0  0  0
    3.5670    8.1766    2.4276 H   0  0  0  0  0  0  0  0  0  0  0  0
   -0.3866    7.0821    3.3425 H   0  0  0  0  0  0  0  0  0  0  0  0
   -1.6227    4.9891   -1.2504 H   0  0  0  0  0  0  0  0  0  0  0  0
    1.3853    8.7420    3.3365 H   0  0  0  0  0  0  0  0  0  0  0  0
   -3.6210    3.6110   -1.3165 H   0  0  0  0  0  0  0  0  0  0  0  0
   -1.3456    0.3406    0.0444 H   0  0  0  0  0  0  0  0  0  0  0  0
   -3.4966    1.2622   -0.6680 H   0  0  0  0  0  0  0  0  0  0  0  0
  1  2  1  0  0  0  0 
  1  3  1  0  0  0  0 
  1  4  1  0  0  0  0 
  2  5  1  0  0  0  0 
  4  6  2  0  0  0  0 
  4  7  1  0  0  0  0 
  5  8  1  0  0  0  0 
  6  9  1  0  0  0  0 
  7 10  2  0  0  0  0 
  8 11  2  0  0  0  0 
  8 12  1  0  0  0  0 
  9 13  2  0  0  0  0 
 10 13  1  0  0  0  0 
 11 14  1  0  0  0  0 
 12 15  2  0  0  0  0 
 14 16  2  0  0  0  0 
 15 16  1  0  0  0  0 
  1 17  1  0  0  0  0 
  2 18  1  0  0  0  0 
  2 19  1  0  0  0  0 
  3 20  1  0  0  0  0 
  5 21  1  0  0  0  0 
  6 22  1  0  0  0  0 
  7 23  1  0  0  0  0 
  9 24  1  0  0  0  0 
 10 25  1  0  0  0  0 
 11 26  1  0  0  0  0 
 13 27  1  0  0  0  0 
 14 28  1  0  0  0  0 
 15 29  1  0  0  0  0 
 16 30  1  0  0  0  0 
M  END
> <cdk:Title>
fenyramidol

> <Conformer>
1

> <SuperDrugID>
SD001930

$$$$
