ethyl loflazepate
  CDK     0628171801

 39 41  0  0  0  0  0  0  0  0999 V2000
   -3.4931    1.1785    3.4672 F   0  0  0  0  0  0  0  0  0  0  0  0
   -3.9364    2.3165    3.9366 C   0  0  0  0  0  0  0  0  0  0  0  0
   -4.3546    3.3628    3.0699 C   0  0  0  0  0  0  0  0  0  0  0  0
   -4.0011    2.4764    5.3362 C   0  0  0  0  0  0  0  0  0  0  0  0
   -4.2985    3.2425    1.6765 C   0  0  0  0  0  0  0  0  0  0  0  0
   -4.8374    4.5625    3.6486 C   0  0  0  0  0  0  0  0  0  0  0  0
   -4.4984    3.6683    5.8898 C   0  0  0  0  0  0  0  0  0  0  0  0
   -5.4534    3.2835    0.8666 C   0  0  0  0  0  0  0  0  0  0  0  0
   -3.0816    3.1217    1.2802 N   0  0  0  0  0  0  0  0  0  0  0  0
   -4.9197    4.7088    5.0449 C   0  0  0  0  0  0  0  0  0  0  0  0
   -5.4365    3.6178   -0.5214 C   0  0  0  0  0  0  0  0  0  0  0  0
   -6.7236    3.0011    1.4521 C   0  0  0  0  0  0  0  0  0  0  0  0
   -2.4106    3.0019    0.0760 C   0  0  1  0  0  0  0  0  0  0  0  0
   -4.3517    3.8436   -1.3138 N   0  0  0  0  0  0  0  0  0  0  0  0
   -6.6548    3.7533   -1.2297 C   0  0  0  0  0  0  0  0  0  0  0  0
   -7.9248    3.1108    0.7298 C   0  0  0  0  0  0  0  0  0  0  0  0
   -2.0039    1.5963   -0.1286 C   0  0  0  0  0  0  0  0  0  0  0  0
   -3.0426    3.5742   -1.1261 C   0  0  0  0  0  0  0  0  0  0  0  0
   -7.8881    3.5088   -0.6132 C   0  0  0  0  0  0  0  0  0  0  0  0
   -9.4089    2.7559    1.4642 Cl  0  0  0  0  0  0  0  0  0  0  0  0
   -0.6759    1.2693   -0.0714 O   0  0  0  0  0  0  0  0  0  0  0  0
   -2.8798    0.7225   -0.3357 O   0  0  0  0  0  0  0  0  0  0  0  0
   -2.3046    3.8304   -2.1059 O   0  0  0  0  0  0  0  0  0  0  0  0
   -0.1216   -0.0501   -0.1602 C   0  0  1  0  0  0  0  0  0  0  0  0
    1.4093   -0.0038   -0.0046 C   0  0  0  0  0  0  0  0  0  0  0  0
   -3.6933    1.7216    5.9558 H   0  0  0  0  0  0  0  0  0  0  0  0
   -5.1280    5.3417    3.0533 H   0  0  0  0  0  0  0  0  0  0  0  0
   -4.5518    3.7799    6.9051 H   0  0  0  0  0  0  0  0  0  0  0  0
   -5.2837    5.5731    5.4497 H   0  0  0  0  0  0  0  0  0  0  0  0
   -6.7955    2.7032    2.4283 H   0  0  0  0  0  0  0  0  0  0  0  0
   -1.5096    3.5978    0.2459 H   0  0  0  0  0  0  0  0  0  0  0  0
   -4.5520    4.2251   -2.1834 H   0  0  0  0  0  0  0  0  0  0  0  0
   -6.6650    4.0287   -2.2171 H   0  0  0  0  0  0  0  0  0  0  0  0
   -8.7513    3.6196   -1.1512 H   0  0  0  0  0  0  0  0  0  0  0  0
   -0.5365   -0.6694    0.6391 H   0  0  0  0  0  0  0  0  0  0  0  0
   -0.3745   -0.4970   -1.1244 H   0  0  0  0  0  0  0  0  0  0  0  0
    1.8126   -1.0180   -0.0014 H   0  0  0  0  0  0  0  0  0  0  0  0
    1.8570    0.5496   -0.8313 H   0  0  0  0  0  0  0  0  0  0  0  0
    1.6736    0.4833    0.9354 H   0  0  0  0  0  0  0  0  0  0  0  0
  1  2  1  0  0  0  0 
  2  3  2  0  0  0  0 
  2  4  1  0  0  0  0 
  3  5  1  0  0  0  0 
  3  6  1  0  0  0  0 
  4  7  2  0  0  0  0 
  5  8  1  0  0  0  0 
  5  9  2  0  0  0  0 
  6 10  2  0  0  0  0 
  7 10  1  0  0  0  0 
  8 11  2  0  0  0  0 
  8 12  1  0  0  0  0 
 13  9  1  0  0  0  0 
 11 14  1  0  0  0  0 
 11 15  1  0  0  0  0 
 12 16  2  0  0  0  0 
 13 17  1  0  0  0  0 
 13 18  1  0  0  0  0 
 14 18  1  0  0  0  0 
 15 19  2  0  0  0  0 
 16 19  1  0  0  0  0 
 16 20  1  0  0  0  0 
 17 21  1  0  0  0  0 
 17 22  2  0  0  0  0 
 18 23  2  0  0  0  0 
 21 24  1  0  0  0  0 
 24 25  1  0  0  0  0 
  4 26  1  0  0  0  0 
  6 27  1  0  0  0  0 
  7 28  1  0  0  0  0 
 10 29  1  0  0  0  0 
 12 30  1  0  0  0  0 
 13 31  1  0  0  0  0 
 14 32  1  0  0  0  0 
 15 33  1  0  0  0  0 
 19 34  1  0  0  0  0 
 24 35  1  0  0  0  0 
 24 36  1  0  0  0  0 
 25 37  1  0  0  0  0 
 25 38  1  0  0  0  0 
 25 39  1  0  0  0  0 
M  END
> <cdk:Title>
ethyl loflazepate

> <Conformer>
1

> <SuperDrugID>
SD000975

$$$$
