drotebanol
  CDK     0628171801

 51 54  0  0  0  0  0  0  0  0999 V2000
    0.7895    4.7523    4.7240 O   0  0  0  0  0  0  0  0  0  0  0  0
    1.0791    4.2681    3.4007 C   0  0  1  0  0  0  0  0  0  0  0  0
    0.6821    2.7349    3.2407 C   0  0  1  0  0  0  0  0  0  0  0  0
    0.1834    5.0911    2.4203 C   0  0  1  0  0  0  0  0  0  0  0  0
    2.6175    4.5256    3.1988 C   0  0  2  0  0  0  0  0  0  0  0  0
    0.7838    2.2700    1.7785 C   0  0  0  0  0  0  0  0  0  0  0  0
    1.6060    1.9389    4.2518 C   0  0  1  0  0  0  0  0  0  0  0  0
   -0.8239    2.6023    3.6769 C   0  0  1  0  0  0  0  0  0  0  0  0
    0.5109    4.6940    0.9498 C   0  0  2  0  0  0  0  0  0  0  0  0
   -1.2647    4.9258    2.8082 N   0  0  2  0  0  0  0  0  0  0  0  0
    3.4930    3.6598    4.1375 C   0  0  1  0  0  0  0  0  0  0  0  0
    0.7794    3.2431    0.7244 C   0  0  0  0  0  0  0  0  0  0  0  0
    0.8158    0.8936    1.3818 C   0  0  0  0  0  0  0  0  0  0  0  0
    3.1270    2.1589    4.0165 C   0  0  1  0  0  0  0  0  0  0  0  0
   -1.7676    3.5194    2.8511 C   0  0  1  0  0  0  0  0  0  0  0  0
   -2.2245    5.8926    2.2022 C   0  0  0  0  0  0  0  0  0  0  0  0
    1.0237    2.8590   -0.6120 C   0  0  0  0  0  0  0  0  0  0  0  0
    0.6200   -0.1237    2.2844 O   0  0  0  0  0  0  0  0  0  0  0  0
    1.0696    0.5269    0.0358 C   0  0  0  0  0  0  0  0  0  0  0  0
    3.8796    1.4163    4.9763 O   0  0  0  0  0  0  0  0  0  0  0  0
    1.1918    1.5150   -0.9519 C   0  0  0  0  0  0  0  0  0  0  0  0
   -0.6388   -0.8229    2.1845 C   0  0  0  0  0  0  0  0  0  0  0  0
    1.1476   -0.7834   -0.3548 O   0  0  0  0  0  0  0  0  0  0  0  0
    2.4756   -1.3257   -0.2995 C   0  0  0  0  0  0  0  0  0  0  0  0
    0.4411    6.1496    2.5467 H   0  0  0  0  0  0  0  0  0  0  0  0
    1.0182    5.7060    4.7072 H   0  0  0  0  0  0  0  0  0  0  0  0
    2.8449    5.5802    3.3801 H   0  0  0  0  0  0  0  0  0  0  0  0
    2.9234    4.2998    2.1757 H   0  0  0  0  0  0  0  0  0  0  0  0
    1.3816    2.2545    5.2750 H   0  0  0  0  0  0  0  0  0  0  0  0
    1.4048    0.8713    4.2456 H   0  0  0  0  0  0  0  0  0  0  0  0
   -1.1648    1.5723    3.5945 H   0  0  0  0  0  0  0  0  0  0  0  0
   -0.9357    2.8704    4.7312 H   0  0  0  0  0  0  0  0  0  0  0  0
    1.3918    5.2554    0.6276 H   0  0  0  0  0  0  0  0  0  0  0  0
   -0.3092    5.0118    0.3025 H   0  0  0  0  0  0  0  0  0  0  0  0
    4.5469    3.7996    3.8777 H   0  0  0  0  0  0  0  0  0  0  0  0
    3.3586    3.9901    5.1726 H   0  0  0  0  0  0  0  0  0  0  0  0
    3.3997    1.7935    3.0211 H   0  0  0  0  0  0  0  0  0  0  0  0
   -1.8756    3.1265    1.8369 H   0  0  0  0  0  0  0  0  0  0  0  0
   -2.7564    3.4939    3.3157 H   0  0  0  0  0  0  0  0  0  0  0  0
   -1.8483    6.9123    2.2797 H   0  0  0  0  0  0  0  0  0  0  0  0
   -2.4127    5.6633    1.1526 H   0  0  0  0  0  0  0  0  0  0  0  0
   -3.1716    5.8607    2.7385 H   0  0  0  0  0  0  0  0  0  0  0  0
    1.0785    3.5591   -1.3571 H   0  0  0  0  0  0  0  0  0  0  0  0
    4.8160    1.6287    4.7761 H   0  0  0  0  0  0  0  0  0  0  0  0
    1.3844    1.2559   -1.9212 H   0  0  0  0  0  0  0  0  0  0  0  0
   -0.7971   -1.3677    3.1155 H   0  0  0  0  0  0  0  0  0  0  0  0
   -1.4866   -0.1504    2.0364 H   0  0  0  0  0  0  0  0  0  0  0  0
   -0.6186   -1.5482    1.3710 H   0  0  0  0  0  0  0  0  0  0  0  0
    2.4309   -2.3456   -0.6793 H   0  0  0  0  0  0  0  0  0  0  0  0
    3.1729   -0.7650   -0.9269 H   0  0  0  0  0  0  0  0  0  0  0  0
    2.8473   -1.3565    0.7271 H   0  0  0  0  0  0  0  0  0  0  0  0
  2  1  1  0  0  0  0 
  2  3  1  0  0  0  0 
  4  2  1  0  0  0  0 
  2  5  1  0  0  0  0 
  3  6  1  0  0  0  0 
  3  7  1  0  0  0  0 
  3  8  1  0  0  0  0 
  4  9  1  0  0  0  0 
  4 10  1  0  0  0  0 
  4 25  1  0  0  0  0 
  5 11  1  0  0  0  0 
  6 12  2  0  0  0  0 
  6 13  1  0  0  0  0 
 14  7  1  0  0  0  0 
  8 15  1  0  0  0  0 
  9 12  1  0  0  0  0 
 10 15  1  0  0  0  0 
 10 16  1  0  0  0  0 
 14 11  1  0  0  0  0 
 12 17  1  0  0  0  0 
 13 18  1  0  0  0  0 
 13 19  2  0  0  0  0 
 14 20  1  0  0  0  0 
 17 21  2  0  0  0  0 
 18 22  1  0  0  0  0 
 19 21  1  0  0  0  0 
 19 23  1  0  0  0  0 
 23 24  1  0  0  0  0 
  1 26  1  0  0  0  0 
  5 27  1  0  0  0  0 
  5 28  1  0  0  0  0 
  7 29  1  0  0  0  0 
  7 30  1  0  0  0  0 
  8 31  1  0  0  0  0 
  8 32  1  0  0  0  0 
  9 33  1  0  0  0  0 
  9 34  1  0  0  0  0 
 11 35  1  0  0  0  0 
 11 36  1  0  0  0  0 
 14 37  1  0  0  0  0 
 15 38  1  0  0  0  0 
 15 39  1  0  0  0  0 
 16 40  1  0  0  0  0 
 16 41  1  0  0  0  0 
 16 42  1  0  0  0  0 
 17 43  1  0  0  0  0 
 20 44  1  0  0  0  0 
 21 45  1  0  0  0  0 
 22 46  1  0  0  0  0 
 22 47  1  0  0  0  0 
 22 48  1  0  0  0  0 
 24 49  1  0  0  0  0 
 24 50  1  0  0  0  0 
 24 51  1  0  0  0  0 
M  END
> <cdk:Title>
drotebanol

> <Conformer>
1

> <SuperDrugID>
SD002743

$$$$
