dimetindene
  CDK     0628171802

 46 48  0  0  0  0  0  0  0  0999 V2000
    3.5771    4.0198    0.4306 C   0  0  2  0  0  0  0  0  0  0  0  0
    3.7663    4.6301    1.8509 C   0  0  0  0  0  0  0  0  0  0  0  0
    3.9525    2.5908    0.3476 C   0  0  0  0  0  0  0  0  0  0  0  0
    4.1720    4.8080   -0.6844 C   0  0  0  0  0  0  0  0  0  0  0  0
    3.0396    1.5546    0.2047 C   0  0  0  0  0  0  0  0  0  0  0  0
    5.1949    2.0458    0.3809 C   0  0  0  0  0  0  0  0  0  0  0  0
    3.6571    4.7179   -2.0008 C   0  0  0  0  0  0  0  0  0  0  0  0
    5.2427    5.6224   -0.4670 N   0  0  0  0  0  0  0  0  0  0  0  0
    3.7313    0.3445    0.1809 C   0  0  0  0  0  0  0  0  0  0  0  0
    1.6285    1.5444    0.0840 C   0  0  0  0  0  0  0  0  0  0  0  0
    6.4968    2.7205    0.4811 C   0  0  2  0  0  0  0  0  0  0  0  0
    5.1603    0.5938    0.2995 C   0  0  2  0  0  0  0  0  0  0  0  0
    4.2526    5.4654   -3.0331 C   0  0  0  0  0  0  0  0  0  0  0  0
    5.8575    6.3349   -1.4439 C   0  0  0  0  0  0  0  0  0  0  0  0
    3.0700   -0.8922    0.0545 C   0  0  0  0  0  0  0  0  0  0  0  0
    0.9497    0.3168   -0.0633 C   0  0  0  0  0  0  0  0  0  0  0  0
    7.2314    2.8711   -0.8814 C   0  0  1  0  0  0  0  0  0  0  0  0
    5.3662    6.2779   -2.7591 C   0  0  0  0  0  0  0  0  0  0  0  0
    1.6672   -0.8972   -0.0743 C   0  0  0  0  0  0  0  0  0  0  0  0
    8.4009    3.8133   -0.8440 N   0  0  1  0  0  0  0  0  0  0  0  0
    9.5426    3.3416   -0.0031 C   0  0  0  0  0  0  0  0  0  0  0  0
    8.8622    4.2208   -2.2061 C   0  0  0  0  0  0  0  0  0  0  0  0
    2.5011    4.1240    0.2835 H   0  0  0  0  0  0  0  0  0  0  0  0
    3.3494    5.6407    1.8860 H   0  0  0  0  0  0  0  0  0  0  0  0
    4.8108    4.6917    2.1485 H   0  0  0  0  0  0  0  0  0  0  0  0
    3.2359    4.0217    2.5852 H   0  0  0  0  0  0  0  0  0  0  0  0
    2.8541    4.1194   -2.2104 H   0  0  0  0  0  0  0  0  0  0  0  0
    1.0849    2.4058    0.0997 H   0  0  0  0  0  0  0  0  0  0  0  0
    7.1350    2.1595    1.1664 H   0  0  0  0  0  0  0  0  0  0  0  0
    6.3951    3.7072    0.9144 H   0  0  0  0  0  0  0  0  0  0  0  0
    5.5600    0.1342    1.2068 H   0  0  0  0  0  0  0  0  0  0  0  0
    5.6917    0.2236   -0.5805 H   0  0  0  0  0  0  0  0  0  0  0  0
    3.8781    5.4151   -3.9842 H   0  0  0  0  0  0  0  0  0  0  0  0
    6.6769    6.9000   -1.2202 H   0  0  0  0  0  0  0  0  0  0  0  0
    3.5913   -1.7704    0.0543 H   0  0  0  0  0  0  0  0  0  0  0  0
   -0.0684    0.3046   -0.1601 H   0  0  0  0  0  0  0  0  0  0  0  0
    7.5542    1.8903   -1.2390 H   0  0  0  0  0  0  0  0  0  0  0  0
    6.5002    3.2469   -1.6003 H   0  0  0  0  0  0  0  0  0  0  0  0
    5.8093    6.8204   -3.5041 H   0  0  0  0  0  0  0  0  0  0  0  0
    1.1662   -1.7825   -0.1780 H   0  0  0  0  0  0  0  0  0  0  0  0
    9.2481    3.2882    1.0453 H   0  0  0  0  0  0  0  0  0  0  0  0
   10.3820    4.0402   -0.0551 H   0  0  0  0  0  0  0  0  0  0  0  0
    9.8940    2.3557   -0.3225 H   0  0  0  0  0  0  0  0  0  0  0  0
    8.0381    4.6393   -2.7861 H   0  0  0  0  0  0  0  0  0  0  0  0
    9.6268    4.9991   -2.1331 H   0  0  0  0  0  0  0  0  0  0  0  0
    9.2768    3.3717   -2.7563 H   0  0  0  0  0  0  0  0  0  0  0  0
  1  2  1  0  0  0  0 
  1  3  1  0  0  0  0 
  1  4  1  0  0  0  0 
  3  5  1  0  0  0  0 
  3  6  2  0  0  0  0 
  4  7  2  0  0  0  0 
  4  8  1  0  0  0  0 
  5  9  2  0  0  0  0 
  5 10  1  0  0  0  0 
  6 11  1  0  0  0  0 
  6 12  1  0  0  0  0 
  7 13  1  0  0  0  0 
  8 14  2  0  0  0  0 
  9 12  1  0  0  0  0 
  9 15  1  0  0  0  0 
 10 16  2  0  0  0  0 
 11 17  1  0  0  0  0 
 13 18  2  0  0  0  0 
 14 18  1  0  0  0  0 
 15 19  2  0  0  0  0 
 16 19  1  0  0  0  0 
 17 20  1  0  0  0  0 
 20 21  1  0  0  0  0 
 20 22  1  0  0  0  0 
  1 23  1  0  0  0  0 
  2 24  1  0  0  0  0 
  2 25  1  0  0  0  0 
  2 26  1  0  0  0  0 
  7 27  1  0  0  0  0 
 10 28  1  0  0  0  0 
 11 29  1  0  0  0  0 
 11 30  1  0  0  0  0 
 12 31  1  0  0  0  0 
 12 32  1  0  0  0  0 
 13 33  1  0  0  0  0 
 14 34  1  0  0  0  0 
 15 35  1  0  0  0  0 
 16 36  1  0  0  0  0 
 17 37  1  0  0  0  0 
 17 38  1  0  0  0  0 
 18 39  1  0  0  0  0 
 19 40  1  0  0  0  0 
 21 41  1  0  0  0  0 
 21 42  1  0  0  0  0 
 21 43  1  0  0  0  0 
 22 44  1  0  0  0  0 
 22 45  1  0  0  0  0 
 22 46  1  0  0  0  0 
M  END
> <cdk:Title>
dimetindene

> <Conformer>
1

> <SuperDrugID>
SD000803

$$$$
