remoxipride
  CDK     0628171801

 45 46  0  0  0  0  0  0  0  0999 V2000
    2.3705   -1.7337    0.9886 C   0  0  0  0  0  0  0  0  0  0  0  0
    2.8426   -2.6196    1.9229 N   0  0  0  0  0  0  0  0  0  0  0  0
    2.2473   -2.1431   -0.1914 O   0  0  0  0  0  0  0  0  0  0  0  0
    2.0257   -0.3779    1.3049 C   0  0  0  0  0  0  0  0  0  0  0  0
    3.2276   -3.9716    1.6458 C   0  0  2  0  0  0  0  0  0  0  0  0
    2.6462    0.3170    2.3845 C   0  0  0  0  0  0  0  0  0  0  0  0
    1.0655    0.3303    0.5235 C   0  0  0  0  0  0  0  0  0  0  0  0
    4.0071   -4.6511    2.8127 C   0  0  1  0  0  0  0  0  0  0  0  0
    3.6501   -0.2479    3.1263 O   0  0  0  0  0  0  0  0  0  0  0  0
    2.2554    1.6345    2.7173 C   0  0  0  0  0  0  0  0  0  0  0  0
    0.4738   -0.2269   -0.5814 O   0  0  0  0  0  0  0  0  0  0  0  0
    0.7208    1.6611    0.8379 C   0  0  0  0  0  0  0  0  0  0  0  0
    3.1096   -5.0238    3.9609 N   0  0  2  0  0  0  0  0  0  0  0  0
    4.7173   -5.9582    2.3556 C   0  0  2  0  0  0  0  0  0  0  0  0
    4.9622    0.0186    2.5929 C   0  0  0  0  0  0  0  0  0  0  0  0
    3.0121    2.5422    4.1590 Br  0  0  0  0  0  0  0  0  0  0  0  0
    1.2967    2.3022    1.9410 C   0  0  0  0  0  0  0  0  0  0  0  0
   -0.8375   -0.7588   -0.3255 C   0  0  0  0  0  0  0  0  0  0  0  0
    3.4546   -4.4250    5.2942 C   0  0  1  0  0  0  0  0  0  0  0  0
    3.0850   -6.5139    3.9938 C   0  0  2  0  0  0  0  0  0  0  0  0
    4.4674   -6.9534    3.4936 C   0  0  2  0  0  0  0  0  0  0  0  0
    3.2934   -2.8917    5.3479 C   0  0  0  0  0  0  0  0  0  0  0  0
    2.9165   -2.3178    2.8394 H   0  0  0  0  0  0  0  0  0  0  0  0
    3.8778   -3.9619    0.7647 H   0  0  0  0  0  0  0  0  0  0  0  0
    2.3335   -4.5548    1.4076 H   0  0  0  0  0  0  0  0  0  0  0  0
    4.7938   -3.9563    3.1257 H   0  0  0  0  0  0  0  0  0  0  0  0
    0.0423    2.1643    0.2622 H   0  0  0  0  0  0  0  0  0  0  0  0
    5.7883   -5.8005    2.1952 H   0  0  0  0  0  0  0  0  0  0  0  0
    4.2812   -6.3574    1.4334 H   0  0  0  0  0  0  0  0  0  0  0  0
    5.6936   -0.4465    3.2536 H   0  0  0  0  0  0  0  0  0  0  0  0
    5.0845   -0.4090    1.5947 H   0  0  0  0  0  0  0  0  0  0  0  0
    5.1757    1.0906    2.5535 H   0  0  0  0  0  0  0  0  0  0  0  0
    1.0229    3.2601    2.1682 H   0  0  0  0  0  0  0  0  0  0  0  0
   -1.1881   -1.2429   -1.2365 H   0  0  0  0  0  0  0  0  0  0  0  0
   -0.8233   -1.5045    0.4732 H   0  0  0  0  0  0  0  0  0  0  0  0
   -1.5451    0.0336   -0.0722 H   0  0  0  0  0  0  0  0  0  0  0  0
    2.7781   -4.8343    6.0515 H   0  0  0  0  0  0  0  0  0  0  0  0
    4.4770   -4.6871    5.5848 H   0  0  0  0  0  0  0  0  0  0  0  0
    2.3094   -6.8710    3.3077 H   0  0  0  0  0  0  0  0  0  0  0  0
    2.8754   -6.9390    4.9808 H   0  0  0  0  0  0  0  0  0  0  0  0
    5.2195   -6.8299    4.2794 H   0  0  0  0  0  0  0  0  0  0  0  0
    4.4671   -7.9902    3.1469 H   0  0  0  0  0  0  0  0  0  0  0  0
    3.3915   -2.5467    6.3807 H   0  0  0  0  0  0  0  0  0  0  0  0
    4.0612   -2.4066    4.7431 H   0  0  0  0  0  0  0  0  0  0  0  0
    2.3082   -2.6066    4.9748 H   0  0  0  0  0  0  0  0  0  0  0  0
  1  2  1  0  0  0  0 
  1  3  2  0  0  0  0 
  1  4  1  0  0  0  0 
  2  5  1  0  0  0  0 
  4  6  2  0  0  0  0 
  4  7  1  0  0  0  0 
  6  9  1  0  0  0  0 
  6 10  1  0  0  0  0 
  7 11  1  0  0  0  0 
  7 12  2  0  0  0  0 
  8  5  1  0  0  0  0 
  8 13  1  0  0  0  0 
  8 14  1  0  0  0  0 
  9 15  1  0  0  0  0 
 10 16  1  0  0  0  0 
 10 17  2  0  0  0  0 
 11 18  1  0  0  0  0 
 12 17  1  0  0  0  0 
 13 19  1  0  0  0  0 
 13 20  1  0  0  0  0 
 14 21  1  0  0  0  0 
 19 22  1  0  0  0  0 
 20 21  1  0  0  0  0 
  2 23  1  0  0  0  0 
  5 24  1  0  0  0  0 
  5 25  1  0  0  0  0 
  8 26  1  0  0  0  0 
 12 27  1  0  0  0  0 
 14 28  1  0  0  0  0 
 14 29  1  0  0  0  0 
 15 30  1  0  0  0  0 
 15 31  1  0  0  0  0 
 15 32  1  0  0  0  0 
 17 33  1  0  0  0  0 
 18 34  1  0  0  0  0 
 18 35  1  0  0  0  0 
 18 36  1  0  0  0  0 
 19 37  1  0  0  0  0 
 19 38  1  0  0  0  0 
 20 39  1  0  0  0  0 
 20 40  1  0  0  0  0 
 21 41  1  0  0  0  0 
 21 42  1  0  0  0  0 
 22 43  1  0  0  0  0 
 22 44  1  0  0  0  0 
 22 45  1  0  0  0  0 
M  END
> <cdk:Title>
remoxipride

> <Conformer>
1

> <SuperDrugID>
SD002127

$$$$
