denopamine
  CDK     0628171802

 46 47  0  0  0  0  0  0  0  0999 V2000
    1.5448   -0.0557   -0.1376 C   0  0  0  0  0  0  0  0  0  0  0  0
    0.1073   -0.0072   -0.0848 O   0  0  0  0  0  0  0  0  0  0  0  0
   -0.3521    0.6244    1.0412 C   0  0  0  0  0  0  0  0  0  0  0  0
   -0.5780    2.0152    1.0172 C   0  0  0  0  0  0  0  0  0  0  0  0
   -1.0426    2.6777    2.1668 C   0  0  0  0  0  0  0  0  0  0  0  0
   -1.2823    1.9625    3.3630 C   0  0  0  0  0  0  0  0  0  0  0  0
   -1.8069    2.6640    4.5679 C   0  0  1  0  0  0  0  0  0  0  0  0
   -3.3539    2.6568    4.5741 C   0  0  1  0  0  0  0  0  0  0  0  0
   -3.8994    3.3425    5.7692 N   0  0  2  0  0  0  0  0  0  0  0  0
   -5.3807    3.3288    5.8320 C   0  0  1  0  0  0  0  0  0  0  0  0
   -5.9004    4.0599    7.0940 C   0  0  2  0  0  0  0  0  0  0  0  0
   -5.3617    3.4579    8.2726 O   0  0  0  0  0  0  0  0  0  0  0  0
   -7.3941    4.0739    7.1160 C   0  0  0  0  0  0  0  0  0  0  0  0
   -8.1378    3.0112    7.6860 C   0  0  0  0  0  0  0  0  0  0  0  0
   -9.5448    3.0124    7.6441 C   0  0  0  0  0  0  0  0  0  0  0  0
  -10.2301    4.0751    7.0288 C   0  0  0  0  0  0  0  0  0  0  0  0
  -11.5812    4.0700    6.9717 O   0  0  0  0  0  0  0  0  0  0  0  0
   -9.5080    5.1428    6.4659 C   0  0  0  0  0  0  0  0  0  0  0  0
   -8.1014    5.1430    6.5130 C   0  0  0  0  0  0  0  0  0  0  0  0
   -1.0616    0.5658    3.3766 C   0  0  0  0  0  0  0  0  0  0  0  0
   -0.6251   -0.1088    2.2179 C   0  0  0  0  0  0  0  0  0  0  0  0
   -0.4510   -1.4671    2.2426 O   0  0  0  0  0  0  0  0  0  0  0  0
   -1.6525   -2.1901    1.9119 C   0  0  0  0  0  0  0  0  0  0  0  0
    1.9585   -0.6075    0.7099 H   0  0  0  0  0  0  0  0  0  0  0  0
    1.8381   -0.5734   -1.0500 H   0  0  0  0  0  0  0  0  0  0  0  0
    1.9785    0.9470   -0.1651 H   0  0  0  0  0  0  0  0  0  0  0  0
   -0.3980    2.5477    0.1609 H   0  0  0  0  0  0  0  0  0  0  0  0
   -1.2059    3.6871    2.1236 H   0  0  0  0  0  0  0  0  0  0  0  0
   -1.4377    2.1811    5.4760 H   0  0  0  0  0  0  0  0  0  0  0  0
   -1.4524    3.6989    4.5890 H   0  0  0  0  0  0  0  0  0  0  0  0
   -3.7194    3.1592    3.6728 H   0  0  0  0  0  0  0  0  0  0  0  0
   -3.7017    1.6196    4.5664 H   0  0  0  0  0  0  0  0  0  0  0  0
   -3.6085    4.3210    5.7171 H   0  0  0  0  0  0  0  0  0  0  0  0
   -5.7803    3.8249    4.9427 H   0  0  0  0  0  0  0  0  0  0  0  0
   -5.7339    2.2947    5.8447 H   0  0  0  0  0  0  0  0  0  0  0  0
   -5.5263    5.0887    7.0745 H   0  0  0  0  0  0  0  0  0  0  0  0
   -4.3889    3.5525    8.1891 H   0  0  0  0  0  0  0  0  0  0  0  0
   -7.6601    2.2242    8.1352 H   0  0  0  0  0  0  0  0  0  0  0  0
  -10.0682    2.2376    8.0602 H   0  0  0  0  0  0  0  0  0  0  0  0
  -11.8666    4.4938    7.8074 H   0  0  0  0  0  0  0  0  0  0  0  0
  -10.0029    5.9194    6.0202 H   0  0  0  0  0  0  0  0  0  0  0  0
   -7.5947    5.9289    6.0957 H   0  0  0  0  0  0  0  0  0  0  0  0
   -1.2321    0.0263    4.2293 H   0  0  0  0  0  0  0  0  0  0  0  0
   -1.4372   -3.2569    1.9716 H   0  0  0  0  0  0  0  0  0  0  0  0
   -2.4590   -1.9696    2.6158 H   0  0  0  0  0  0  0  0  0  0  0  0
   -1.9890   -1.9710    0.8952 H   0  0  0  0  0  0  0  0  0  0  0  0
  1  2  1  0  0  0  0 
  2  3  1  0  0  0  0 
  3  4  2  0  0  0  0 
  4  5  1  0  0  0  0 
  5  6  2  0  0  0  0 
  6  7  1  0  0  0  0 
  7  8  1  0  0  0  0 
  8  9  1  0  0  0  0 
  9 10  1  0  0  0  0 
 10 11  1  0  0  0  0 
 11 12  1  0  0  0  0 
 11 13  1  0  0  0  0 
 13 14  2  0  0  0  0 
 14 15  1  0  0  0  0 
 15 16  2  0  0  0  0 
 16 17  1  0  0  0  0 
 16 18  1  0  0  0  0 
 18 19  2  0  0  0  0 
 13 19  1  0  0  0  0 
  6 20  1  0  0  0  0 
 20 21  2  0  0  0  0 
  3 21  1  0  0  0  0 
 21 22  1  0  0  0  0 
 22 23  1  0  0  0  0 
  1 24  1  0  0  0  0 
  1 25  1  0  0  0  0 
  1 26  1  0  0  0  0 
  4 27  1  0  0  0  0 
  5 28  1  0  0  0  0 
  7 29  1  0  0  0  0 
  7 30  1  0  0  0  0 
  8 31  1  0  0  0  0 
  8 32  1  0  0  0  0 
  9 33  1  0  0  0  0 
 10 34  1  0  0  0  0 
 10 35  1  0  0  0  0 
 11 36  1  0  0  0  0 
 12 37  1  0  0  0  0 
 14 38  1  0  0  0  0 
 15 39  1  0  0  0  0 
 17 40  1  0  0  0  0 
 18 41  1  0  0  0  0 
 19 42  1  0  0  0  0 
 20 43  1  0  0  0  0 
 23 44  1  0  0  0  0 
 23 45  1  0  0  0  0 
 23 46  1  0  0  0  0 
M  END
> <cdk:Title>
denopamine

> <Conformer>
1

> <SuperDrugID>
SD000712

$$$$
