triclofos
  CDK     0628171801

 14 13  0  0  0  0  0  0  0  0999 V2000
   -1.5930    1.9997   -0.1593 C   0  0  2  0  0  0  0  0  0  0  0  0
   -0.2947    1.4807   -0.5179 O   0  0  0  0  0  0  0  0  0  0  0  0
   -1.8339    3.3610   -0.8591 C   0  0  2  0  0  0  0  0  0  0  0  0
    0.0868    0.0778    0.1443 P   0  0  1  0  0  0  0  0  0  0  0  0
   -3.4220    4.0012   -0.4428 Cl  0  0  0  0  0  0  0  0  0  0  0  0
   -1.7674    3.2044   -2.6126 Cl  0  0  0  0  0  0  0  0  0  0  0  0
   -0.6364    4.5556   -0.3674 Cl  0  0  0  0  0  0  0  0  0  0  0  0
   -0.8485   -0.9726   -0.2716 O   0  0  0  0  0  0  0  0  0  0  0  0
    1.5530   -0.2973   -0.3258 O   0  0  0  0  0  0  0  0  0  0  0  0
    0.1027    0.2223    1.7230 O   0  0  0  0  0  0  0  0  0  0  0  0
   -1.6604    2.1484    0.9237 H   0  0  0  0  0  0  0  0  0  0  0  0
   -2.3827    1.3052   -0.4658 H   0  0  0  0  0  0  0  0  0  0  0  0
    2.1149    0.4242    0.0222 H   0  0  0  0  0  0  0  0  0  0  0  0
    0.7291    0.9539    1.9043 H   0  0  0  0  0  0  0  0  0  0  0  0
  1  2  1  0  0  0  0 
  1  3  1  0  0  0  0 
  2  4  1  0  0  0  0 
  3  5  1  0  0  0  0 
  3  6  1  0  0  0  0 
  3  7  1  0  0  0  0 
  4  8  2  0  0  0  0 
  4  9  1  0  0  0  0 
  4 10  1  0  0  0  0 
  1 11  1  0  0  0  0 
  1 12  1  0  0  0  0 
  9 13  1  0  0  0  0 
 10 14  1  0  0  0  0 
M  END
> <cdk:Title>
triclofos

> <Conformer>
1

> <SuperDrugID>
SD002465

$$$$
