tofacitinib
  CDK     0628171802

 43 45  0  0  0  0  0  0  0  0999 V2000
    3.5101    4.9361   -1.7577 C   0  0  0  0  0  0  0  0  0  0  0  0
    3.7504    5.1423   -3.0865 N   0  0  0  0  0  0  0  0  0  0  0  0
    4.6050    6.0987   -3.5486 C   0  0  0  0  0  0  0  0  0  0  0  0
    5.2604    6.9151   -2.6793 N   0  0  0  0  0  0  0  0  0  0  0  0
    5.0639    6.7553   -1.3498 C   0  0  0  0  0  0  0  0  0  0  0  0
    4.2127    5.7688   -0.8547 C   0  0  0  0  0  0  0  0  0  0  0  0
    5.5880    7.4376   -0.3193 N   0  0  0  0  0  0  0  0  0  0  0  0
    4.2483    5.8704    0.5303 C   0  0  0  0  0  0  0  0  0  0  0  0
    5.1191    6.9162    0.8292 C   0  0  0  0  0  0  0  0  0  0  0  0
    2.6006    3.9782   -1.3638 N   0  0  0  0  0  0  0  0  0  0  0  0
    1.2317    3.9978   -1.9165 C   0  0  2  0  0  0  0  0  0  0  0  0
    3.0703    2.9346   -0.4750 C   0  0  0  0  0  0  0  0  0  0  0  0
    0.2140    5.4488   -0.1160 C   0  0  2  0  0  0  0  0  0  0  0  0
    0.4047    5.3076   -1.6467 C   0  0  1  0  0  0  0  0  0  0  0  0
    0.2917    2.8280   -1.4599 C   0  0  1  0  0  0  0  0  0  0  0  0
   -0.1673    2.9041   -0.0790 N   0  0  0  0  0  0  0  0  0  0  0  0
   -0.4945    4.2063    0.4900 C   0  0  2  0  0  0  0  0  0  0  0  0
   -0.4349    1.7558    0.6716 C   0  0  0  0  0  0  0  0  0  0  0  0
   -0.2732    0.3548    0.2029 C   0  0  2  0  0  0  0  0  0  0  0  0
   -0.8564    1.8601    1.8506 O   0  0  0  0  0  0  0  0  0  0  0  0
   -1.1344    0.0561   -0.8179 C   0  0  0  0  0  0  0  0  0  0  0  0
   -1.8524   -0.1955   -1.6783 N   0  0  0  0  0  0  0  0  0  0  0  0
    0.9265    6.6084   -2.3139 C   0  0  0  0  0  0  0  0  0  0  0  0
    4.7524    6.2013   -4.5513 H   0  0  0  0  0  0  0  0  0  0  0  0
    6.2032    8.1852   -0.3909 H   0  0  0  0  0  0  0  0  0  0  0  0
    3.7402    5.2937    1.2017 H   0  0  0  0  0  0  0  0  0  0  0  0
    5.3642    7.2351    1.7694 H   0  0  0  0  0  0  0  0  0  0  0  0
    1.3310    3.8860   -3.0018 H   0  0  0  0  0  0  0  0  0  0  0  0
    2.4681    2.9197    0.4336 H   0  0  0  0  0  0  0  0  0  0  0  0
    4.1149    3.0503   -0.1728 H   0  0  0  0  0  0  0  0  0  0  0  0
    3.0017    1.9657   -0.9716 H   0  0  0  0  0  0  0  0  0  0  0  0
   -0.3773    6.3398    0.1110 H   0  0  0  0  0  0  0  0  0  0  0  0
    1.1881    5.5775    0.3610 H   0  0  0  0  0  0  0  0  0  0  0  0
   -0.5939    5.1795   -2.0855 H   0  0  0  0  0  0  0  0  0  0  0  0
   -0.6047    2.8173   -2.0882 H   0  0  0  0  0  0  0  0  0  0  0  0
    0.8066    1.8968   -1.6838 H   0  0  0  0  0  0  0  0  0  0  0  0
   -1.5755    4.3387    0.3895 H   0  0  0  0  0  0  0  0  0  0  0  0
   -0.2586    4.2277    1.5578 H   0  0  0  0  0  0  0  0  0  0  0  0
   -0.4757   -0.3541    1.0091 H   0  0  0  0  0  0  0  0  0  0  0  0
    0.7547    0.1852   -0.1185 H   0  0  0  0  0  0  0  0  0  0  0  0
    1.1689    6.4247   -3.3631 H   0  0  0  0  0  0  0  0  0  0  0  0
    0.1526    7.3778   -2.2751 H   0  0  0  0  0  0  0  0  0  0  0  0
    1.8050    6.9995   -1.8045 H   0  0  0  0  0  0  0  0  0  0  0  0
  1  2  1  0  0  0  0 
  1  6  2  0  0  0  0 
  2  3  2  0  0  0  0 
  3  4  1  0  0  0  0 
  4  5  2  0  0  0  0 
  6  8  1  0  0  0  0 
  5  6  1  0  0  0  0 
  7  5  1  0  0  0  0 
  7  9  1  0  0  0  0 
  8  9  2  0  0  0  0 
  1 10  1  0  0  0  0 
 11 10  1  0  0  0  0 
 10 12  1  0  0  0  0 
 11 14  1  0  0  0  0 
 11 15  1  0  0  0  0 
 14 13  1  0  0  0  0 
 13 17  1  0  0  0  0 
 15 16  1  0  0  0  0 
 16 17  1  0  0  0  0 
 16 18  1  0  0  0  0 
 18 19  1  0  0  0  0 
 18 20  2  0  0  0  0 
 19 21  1  0  0  0  0 
 21 22  3  0  0  0  0 
 14 23  1  0  0  0  0 
 24  3  1  0  0  0  0 
 25  7  1  0  0  0  0 
 26  8  1  0  0  0  0 
 27  9  1  0  0  0  0 
 11 28  1  0  0  0  0 
 29 12  1  0  0  0  0 
 30 12  1  0  0  0  0 
 31 12  1  0  0  0  0 
 32 13  1  0  0  0  0 
 33 13  1  0  0  0  0 
 14 34  1  0  0  0  0 
 35 15  1  0  0  0  0 
 36 15  1  0  0  0  0 
 37 17  1  0  0  0  0 
 38 17  1  0  0  0  0 
 39 19  1  0  0  0  0 
 40 19  1  0  0  0  0 
 41 23  1  0  0  0  0 
 42 23  1  0  0  0  0 
 43 23  1  0  0  0  0 
M  END
> <cdk:Title>
tofacitinib

> <Conformer>
1

> <SuperDrugID>
SD003724

$$$$
