dihydralazine
  CDK     0628171802

 24 25  0  0  0  0  0  0  0  0999 V2000
    5.4535   -0.2684   -1.4181 N   0  0  0  0  0  0  0  0  0  0  0  0
    6.1489    0.8833   -1.5083 N   0  0  2  0  0  0  0  0  0  0  0  0
    4.1451   -0.3249   -1.0510 C   0  0  0  0  0  0  0  0  0  0  0  0
    3.4207   -1.5444   -0.9989 C   0  0  0  0  0  0  0  0  0  0  0  0
    3.4951    0.8224   -0.7246 N   0  0  0  0  0  0  0  0  0  0  0  0
    2.0390   -1.5060   -0.6332 C   0  0  0  0  0  0  0  0  0  0  0  0
    4.0206   -2.7947   -1.2933 C   0  0  0  0  0  0  0  0  0  0  0  0
    2.2390    0.8559   -0.3757 N   0  0  0  0  0  0  0  0  0  0  0  0
    1.4562   -0.2529   -0.3116 C   0  0  0  0  0  0  0  0  0  0  0  0
    1.3013   -2.7167   -0.5981 C   0  0  0  0  0  0  0  0  0  0  0  0
    3.2702   -3.9819   -1.2567 C   0  0  0  0  0  0  0  0  0  0  0  0
    0.1528   -0.1288    0.0548 N   0  0  0  0  0  0  0  0  0  0  0  0
    1.9113   -3.9415   -0.9134 C   0  0  0  0  0  0  0  0  0  0  0  0
   -0.4111    1.0443    0.4060 N   0  0  1  0  0  0  0  0  0  0  0  0
    5.9177   -1.0921   -1.6306 H   0  0  0  0  0  0  0  0  0  0  0  0
    7.1024    0.6307   -1.7779 H   0  0  0  0  0  0  0  0  0  0  0  0
    6.2035    1.2698   -0.5641 H   0  0  0  0  0  0  0  0  0  0  0  0
    5.0111   -2.8649   -1.5350 H   0  0  0  0  0  0  0  0  0  0  0  0
    0.3123   -2.7307   -0.3408 H   0  0  0  0  0  0  0  0  0  0  0  0
    3.7129   -4.8766   -1.4800 H   0  0  0  0  0  0  0  0  0  0  0  0
   -0.4060   -0.9200    0.0814 H   0  0  0  0  0  0  0  0  0  0  0  0
    1.3646   -4.8050   -0.8878 H   0  0  0  0  0  0  0  0  0  0  0  0
   -1.4086    0.8621    0.5353 H   0  0  0  0  0  0  0  0  0  0  0  0
   -0.0351    1.2959    1.3234 H   0  0  0  0  0  0  0  0  0  0  0  0
  1  2  1  0  0  0  0 
  1  3  1  0  0  0  0 
  3  4  2  0  0  0  0 
  3  5  1  0  0  0  0 
  4  6  1  0  0  0  0 
  4  7  1  0  0  0  0 
  5  8  2  0  0  0  0 
  6  9  2  0  0  0  0 
  6 10  1  0  0  0  0 
  7 11  2  0  0  0  0 
  8  9  1  0  0  0  0 
  9 12  1  0  0  0  0 
 10 13  2  0  0  0  0 
 11 13  1  0  0  0  0 
 12 14  1  0  0  0  0 
 15  1  1  0  0  0  0 
 16  2  1  0  0  0  0 
 17  2  1  0  0  0  0 
 18  7  1  0  0  0  0 
 19 10  1  0  0  0  0 
 20 11  1  0  0  0  0 
 21 12  1  0  0  0  0 
 22 13  1  0  0  0  0 
 23 14  1  0  0  0  0 
 24 14  1  0  0  0  0 
M  END
> <cdk:Title>
dihydralazine

> <Conformer>
1

> <SuperDrugID>
SD000786

$$$$
