loretin
  CDK     0628171801

 22 23  0  0  0  0  0  0  0  0999 V2000
   -0.6890   -0.1697    0.3353 S   0  0  2  0  0  0  0  0  0  0  0  0
    0.0987   -0.5811    1.6699 O   0  0  0  0  0  0  0  0  0  0  0  0
    0.2538   -0.4217   -0.9372 O   0  0  0  0  0  0  0  0  0  0  0  0
   -1.0253    1.5081    0.4173 O   0  0  0  0  0  0  0  0  0  0  0  0
   -2.1953   -1.0983    0.1888 C   0  0  0  0  0  0  0  0  0  0  0  0
   -2.2300   -2.5184    0.0913 C   0  0  0  0  0  0  0  0  0  0  0  0
   -3.4094   -0.3768    0.1664 C   0  0  0  0  0  0  0  0  0  0  0  0
   -3.4913   -3.1725   -0.0345 C   0  0  0  0  0  0  0  0  0  0  0  0
   -1.0772   -3.3456    0.1128 C   0  0  0  0  0  0  0  0  0  0  0  0
   -4.6449   -1.0326    0.0445 C   0  0  0  0  0  0  0  0  0  0  0  0
   -4.6894   -2.4320   -0.0675 C   0  0  0  0  0  0  0  0  0  0  0  0
   -3.5512   -4.5274   -0.1202 N   0  0  0  0  0  0  0  0  0  0  0  0
   -1.1843   -4.7462    0.0192 C   0  0  0  0  0  0  0  0  0  0  0  0
   -6.3770    0.0756    0.0228 I   0  0  0  0  0  0  0  0  0  0  0  0
   -5.8905   -3.0465   -0.2129 O   0  0  0  0  0  0  0  0  0  0  0  0
   -2.4571   -5.3241   -0.0960 C   0  0  0  0  0  0  0  0  0  0  0  0
   -0.1511    1.9375    0.4973 H   0  0  0  0  0  0  0  0  0  0  0  0
   -3.4137    0.6407    0.2361 H   0  0  0  0  0  0  0  0  0  0  0  0
   -0.1416   -2.9482    0.1965 H   0  0  0  0  0  0  0  0  0  0  0  0
   -0.3485   -5.3390    0.0352 H   0  0  0  0  0  0  0  0  0  0  0  0
   -5.7445   -3.7216   -0.9087 H   0  0  0  0  0  0  0  0  0  0  0  0
   -2.5655   -6.3369   -0.1619 H   0  0  0  0  0  0  0  0  0  0  0  0
  1  2  2  0  0  0  0 
  1  3  2  0  0  0  0 
  1  4  1  0  0  0  0 
  1  5  1  0  0  0  0 
  5  6  2  0  0  0  0 
  5  7  1  0  0  0  0 
  6  8  1  0  0  0  0 
  6  9  1  0  0  0  0 
  7 10  2  0  0  0  0 
  8 11  2  0  0  0  0 
  8 12  1  0  0  0  0 
  9 13  2  0  0  0  0 
 10 11  1  0  0  0  0 
 10 14  1  0  0  0  0 
 11 15  1  0  0  0  0 
 12 16  2  0  0  0  0 
 13 16  1  0  0  0  0 
  4 17  1  0  0  0  0 
  7 18  1  0  0  0  0 
  9 19  1  0  0  0  0 
 13 20  1  0  0  0  0 
 15 21  1  0  0  0  0 
 16 22  1  0  0  0  0 
M  END
> <cdk:Title>
loretin

> <Conformer>
1

> <SuperDrugID>
SD002839

$$$$
