alpha-Ergocryptine
  CDK     0628171802

 83 89  0  0  0  0  0  0  0  0999 V2000
   -6.6830    1.4552    0.4619 O   0  0  0  0  0  0  0  0  0  0  0  0
   -5.3428    1.1646    0.8581 C   0  0  1  0  0  0  0  0  0  0  0  0
   -5.3069    0.6876    2.1965 N   0  0  0  0  0  0  0  0  0  0  0  0
   -4.6807    0.0808   -0.0355 C   0  0  1  0  0  0  0  0  0  0  0  0
   -4.5779    2.3775    0.8297 O   0  0  0  0  0  0  0  0  0  0  0  0
   -5.8120   -0.6148    2.5940 C   0  0  1  0  0  0  0  0  0  0  0  0
   -4.6667    1.5873    2.9614 C   0  0  0  0  0  0  0  0  0  0  0  0
   -5.1699   -1.2334    0.2414 N   0  0  0  0  0  0  0  0  0  0  0  0
   -4.8671    0.2153   -1.5610 C   0  0  1  0  0  0  0  0  0  0  0  0
   -4.1824    2.7295    2.1712 C   0  0  2  0  0  0  0  0  0  0  0  0
   -7.3188   -0.5774    3.0218 C   0  0  2  0  0  0  0  0  0  0  0  0
   -5.6309   -1.6064    1.4842 C   0  0  0  0  0  0  0  0  0  0  0  0
   -4.5183    1.4935    4.2012 O   0  0  0  0  0  0  0  0  0  0  0  0
   -5.1261   -2.0999   -0.8958 C   0  0  2  0  0  0  0  0  0  0  0  0
   -4.5852   -1.2197   -2.0408 C   0  0  1  0  0  0  0  0  0  0  0  0
   -5.0070    3.8728    2.4363 N   0  0  0  0  0  0  0  0  0  0  0  0
   -2.6115    2.9382    2.1117 C   0  0  2  0  0  0  0  0  0  0  0  0
   -7.6892    0.2216    4.3140 C   0  0  2  0  0  0  0  0  0  0  0  0
   -5.9408   -2.8047    1.6929 O   0  0  0  0  0  0  0  0  0  0  0  0
   -4.9463    4.7740    3.4533 C   0  0  0  0  0  0  0  0  0  0  0  0
   -1.8095    2.6299    3.4130 C   0  0  0  0  0  0  0  0  0  0  0  0
   -2.2063    4.3330    1.5464 C   0  0  0  0  0  0  0  0  0  0  0  0
   -7.0571   -0.3877    5.5983 C   0  0  0  0  0  0  0  0  0  0  0  0
   -9.2362    0.3010    4.4733 C   0  0  0  0  0  0  0  0  0  0  0  0
   -4.1234    4.6635    4.3902 O   0  0  0  0  0  0  0  0  0  0  0  0
   -5.8921    5.9218    3.4479 C   0  0  2  0  0  0  0  0  0  0  0  0
   -7.2381    5.4397    3.7671 C   0  0  0  0  0  0  0  0  0  0  0  0
   -5.7524    6.7800    2.1320 C   0  0  2  0  0  0  0  0  0  0  0  0
   -8.3133    5.6806    2.9310 C   0  0  0  0  0  0  0  0  0  0  0  0
   -7.0242    7.4375    1.6809 N   0  0  1  0  0  0  0  0  0  0  0  0
   -9.6435    5.2780    3.3946 C   0  0  0  0  0  0  0  0  0  0  0  0
   -8.0932    6.3955    1.5358 C   0  0  2  0  0  0  0  0  0  0  0  0
   -7.3944    8.6351    2.4985 C   0  0  0  0  0  0  0  0  0  0  0  0
  -10.7449    5.6563    2.5923 C   0  0  0  0  0  0  0  0  0  0  0  0
   -9.9926    4.5574    4.5778 C   0  0  0  0  0  0  0  0  0  0  0  0
   -9.4877    6.8928    0.7945 C   0  0  2  0  0  0  0  0  0  0  0  0
  -10.7562    6.3710    1.4067 C   0  0  0  0  0  0  0  0  0  0  0  0
  -12.0737    5.3742    2.8972 C   0  0  0  0  0  0  0  0  0  0  0  0
  -11.3387    4.2694    4.9117 C   0  0  0  0  0  0  0  0  0  0  0  0
  -12.0860    6.4850    1.0054 C   0  0  0  0  0  0  0  0  0  0  0  0
  -12.8584    5.8819    1.9289 N   0  0  0  0  0  0  0  0  0  0  0  0
  -12.3949    4.6753    4.0700 C   0  0  0  0  0  0  0  0  0  0  0  0
   -6.9813    2.1663    1.0668 H   0  0  0  0  0  0  0  0  0  0  0  0
   -3.6049    0.0723    0.1803 H   0  0  0  0  0  0  0  0  0  0  0  0
   -5.2098   -0.9897    3.4256 H   0  0  0  0  0  0  0  0  0  0  0  0
   -5.8932    0.4955   -1.8164 H   0  0  0  0  0  0  0  0  0  0  0  0
   -4.1752    0.9402   -1.9968 H   0  0  0  0  0  0  0  0  0  0  0  0
   -7.6664   -1.6040    3.1748 H   0  0  0  0  0  0  0  0  0  0  0  0
   -7.8934   -0.1756    2.1834 H   0  0  0  0  0  0  0  0  0  0  0  0
   -6.1327   -2.4572   -1.1329 H   0  0  0  0  0  0  0  0  0  0  0  0
   -4.4690   -2.9550   -0.7144 H   0  0  0  0  0  0  0  0  0  0  0  0
   -5.0756   -1.4363   -2.9930 H   0  0  0  0  0  0  0  0  0  0  0  0
   -3.5063   -1.3699   -2.1492 H   0  0  0  0  0  0  0  0  0  0  0  0
   -5.7264    4.0221    1.8013 H   0  0  0  0  0  0  0  0  0  0  0  0
   -2.2265    2.2107    1.3871 H   0  0  0  0  0  0  0  0  0  0  0  0
   -7.3246    1.2466    4.2080 H   0  0  0  0  0  0  0  0  0  0  0  0
   -1.9402    1.5869    3.7036 H   0  0  0  0  0  0  0  0  0  0  0  0
   -0.7399    2.7894    3.2546 H   0  0  0  0  0  0  0  0  0  0  0  0
   -2.1156    3.2631    4.2416 H   0  0  0  0  0  0  0  0  0  0  0  0
   -2.7951    4.5721    0.6584 H   0  0  0  0  0  0  0  0  0  0  0  0
   -1.1511    4.3388    1.2627 H   0  0  0  0  0  0  0  0  0  0  0  0
   -2.3543    5.1194    2.2885 H   0  0  0  0  0  0  0  0  0  0  0  0
   -7.4134    0.1394    6.4871 H   0  0  0  0  0  0  0  0  0  0  0  0
   -7.3222   -1.4431    5.6955 H   0  0  0  0  0  0  0  0  0  0  0  0
   -5.9698   -0.3022    5.5709 H   0  0  0  0  0  0  0  0  0  0  0  0
   -9.5051    0.8638    5.3695 H   0  0  0  0  0  0  0  0  0  0  0  0
   -9.6684   -0.7005    4.5489 H   0  0  0  0  0  0  0  0  0  0  0  0
   -9.6803    0.8109    3.6158 H   0  0  0  0  0  0  0  0  0  0  0  0
   -5.6257    6.5897    4.2761 H   0  0  0  0  0  0  0  0  0  0  0  0
   -7.3382    4.9692    4.6319 H   0  0  0  0  0  0  0  0  0  0  0  0
   -5.4109    6.1607    1.2952 H   0  0  0  0  0  0  0  0  0  0  0  0
   -4.9630    7.5254    2.2668 H   0  0  0  0  0  0  0  0  0  0  0  0
   -7.7090    5.6159    0.8702 H   0  0  0  0  0  0  0  0  0  0  0  0
   -6.5524    9.3244    2.5854 H   0  0  0  0  0  0  0  0  0  0  0  0
   -8.1963    9.1941    2.0223 H   0  0  0  0  0  0  0  0  0  0  0  0
   -7.7185    8.3580    3.5040 H   0  0  0  0  0  0  0  0  0  0  0  0
   -9.2843    4.2272    5.2310 H   0  0  0  0  0  0  0  0  0  0  0  0
   -9.5470    6.6035   -0.2869 H   0  0  0  0  0  0  0  0  0  0  0  0
   -9.6469    7.9960    0.7736 H   0  0  0  0  0  0  0  0  0  0  0  0
  -11.5504    3.7593    5.7733 H   0  0  0  0  0  0  0  0  0  0  0  0
  -12.4238    6.9528    0.1622 H   0  0  0  0  0  0  0  0  0  0  0  0
  -13.8271    5.8254    1.8982 H   0  0  0  0  0  0  0  0  0  0  0  0
  -13.3674    4.4701    4.3105 H   0  0  0  0  0  0  0  0  0  0  0  0
  2  1  1  0  0  0  0 
  2  3  1  0  0  0  0 
  2  4  1  0  0  0  0 
  2  5  1  0  0  0  0 
  6  3  1  0  0  0  0 
  3  7  1  0  0  0  0 
  4  8  1  0  0  0  0 
  4  9  1  0  0  0  0 
 10  5  1  0  0  0  0 
  6 11  1  0  0  0  0 
  6 12  1  0  0  0  0 
 10  7  1  0  0  0  0 
  7 13  2  0  0  0  0 
  8 12  1  0  0  0  0 
  8 14  1  0  0  0  0 
  9 15  1  0  0  0  0 
 10 16  1  0  0  0  0 
 10 17  1  0  0  0  0 
 11 18  1  0  0  0  0 
 12 19  2  0  0  0  0 
 14 15  1  0  0  0  0 
 16 20  1  0  0  0  0 
 17 21  1  0  0  0  0 
 17 22  1  0  0  0  0 
 18 23  1  0  0  0  0 
 18 24  1  0  0  0  0 
 20 25  2  0  0  0  0 
 26 20  1  0  0  0  0 
 26 27  1  0  0  0  0 
 26 28  1  0  0  0  0 
 27 29  2  0  0  0  0 
 28 30  1  0  0  0  0 
 29 31  1  0  0  0  0 
 32 29  1  0  0  0  0 
 32 30  1  0  0  0  0 
 30 33  1  0  0  0  0 
 31 34  2  0  0  0  0 
 31 35  1  0  0  0  0 
 32 36  1  0  0  0  0 
 34 37  1  0  0  0  0 
 34 38  1  0  0  0  0 
 35 39  2  0  0  0  0 
 36 37  1  0  0  0  0 
 37 40  2  0  0  0  0 
 38 41  1  0  0  0  0 
 38 42  2  0  0  0  0 
 39 42  1  0  0  0  0 
 40 41  1  0  0  0  0 
 43  1  1  0  0  0  0 
  4 44  1  0  0  0  0 
  6 45  1  0  0  0  0 
 46  9  1  0  0  0  0 
 47  9  1  0  0  0  0 
 48 11  1  0  0  0  0 
 49 11  1  0  0  0  0 
 50 14  1  0  0  0  0 
 51 14  1  0  0  0  0 
 52 15  1  0  0  0  0 
 53 15  1  0  0  0  0 
 54 16  1  0  0  0  0 
 55 17  1  0  0  0  0 
 56 18  1  0  0  0  0 
 57 21  1  0  0  0  0 
 58 21  1  0  0  0  0 
 59 21  1  0  0  0  0 
 60 22  1  0  0  0  0 
 61 22  1  0  0  0  0 
 62 22  1  0  0  0  0 
 63 23  1  0  0  0  0 
 64 23  1  0  0  0  0 
 65 23  1  0  0  0  0 
 66 24  1  0  0  0  0 
 67 24  1  0  0  0  0 
 68 24  1  0  0  0  0 
 26 69  1  0  0  0  0 
 70 27  1  0  0  0  0 
 71 28  1  0  0  0  0 
 72 28  1  0  0  0  0 
 32 73  1  0  0  0  0 
 74 33  1  0  0  0  0 
 75 33  1  0  0  0  0 
 76 33  1  0  0  0  0 
 77 35  1  0  0  0  0 
 78 36  1  0  0  0  0 
 79 36  1  0  0  0  0 
 80 39  1  0  0  0  0 
 81 40  1  0  0  0  0 
 82 41  1  0  0  0  0 
 83 42  1  0  0  0  0 
M  END
> <cdk:Title>
alpha-Ergocryptine

> <Conformer>
1

> <SuperDrugID>
SD000787

$$$$
