isaxonine
  CDK     0628171801

 21 21  0  0  0  0  0  0  0  0999 V2000
   -3.8238    1.8954    0.1972 C   0  0  0  0  0  0  0  0  0  0  0  0
   -2.5542    1.0079    0.2597 C   0  0  2  0  0  0  0  0  0  0  0  0
   -2.6498   -0.0358    1.4039 C   0  0  0  0  0  0  0  0  0  0  0  0
   -1.3920    1.8370    0.4195 N   0  0  0  0  0  0  0  0  0  0  0  0
   -0.1098    1.4639    0.1645 C   0  0  0  0  0  0  0  0  0  0  0  0
    0.8920    2.3004    0.5447 N   0  0  0  0  0  0  0  0  0  0  0  0
    2.1994    1.9941    0.3444 C   0  0  0  0  0  0  0  0  0  0  0  0
    2.5452    0.7818   -0.2784 C   0  0  0  0  0  0  0  0  0  0  0  0
    1.5018   -0.0680   -0.6828 C   0  0  0  0  0  0  0  0  0  0  0  0
    0.2132    0.2904   -0.4481 N   0  0  0  0  0  0  0  0  0  0  0  0
   -4.7049    1.2799    0.0009 H   0  0  0  0  0  0  0  0  0  0  0  0
   -3.9734    2.4304    1.1384 H   0  0  0  0  0  0  0  0  0  0  0  0
   -3.7317    2.6253   -0.6101 H   0  0  0  0  0  0  0  0  0  0  0  0
   -2.4900    0.4719   -0.6925 H   0  0  0  0  0  0  0  0  0  0  0  0
   -1.7850   -0.7005    1.3829 H   0  0  0  0  0  0  0  0  0  0  0  0
   -2.6824    0.4584    2.3770 H   0  0  0  0  0  0  0  0  0  0  0  0
   -3.5472   -0.6468    1.2901 H   0  0  0  0  0  0  0  0  0  0  0  0
   -1.5272    2.7314    0.7720 H   0  0  0  0  0  0  0  0  0  0  0  0
    2.9262    2.6428    0.6493 H   0  0  0  0  0  0  0  0  0  0  0  0
    3.5241    0.5264   -0.4323 H   0  0  0  0  0  0  0  0  0  0  0  0
    1.7082   -0.9534   -1.1514 H   0  0  0  0  0  0  0  0  0  0  0  0
  1  2  1  0  0  0  0 
  2  3  1  0  0  0  0 
  2  4  1  0  0  0  0 
  4  5  1  0  0  0  0 
  5  6  2  0  0  0  0 
  6  7  1  0  0  0  0 
  7  8  2  0  0  0  0 
  8  9  1  0  0  0  0 
  9 10  2  0  0  0  0 
  5 10  1  0  0  0  0 
  1 11  1  0  0  0  0 
  1 12  1  0  0  0  0 
  1 13  1  0  0  0  0 
  2 14  1  0  0  0  0 
  3 15  1  0  0  0  0 
  3 16  1  0  0  0  0 
  3 17  1  0  0  0  0 
  4 18  1  0  0  0  0 
  7 19  1  0  0  0  0 
  8 20  1  0  0  0  0 
  9 21  1  0  0  0  0 
M  END
> <cdk:Title>
isaxonine

> <Conformer>
1

> <SuperDrugID>
SD001316

$$$$
