estradiol acetate
  CDK     0628171801

 49 52  0  0  0  0  0  0  0  0999 V2000
   -3.8295    0.8417   -7.2442 C   0  0  0  0  0  0  0  0  0  0  0  0
   -4.5641   -0.3717   -6.5547 C   0  0  1  0  0  0  0  0  0  0  0  0
   -3.6458   -1.5491   -6.0968 C   0  0  2  0  0  0  0  0  0  0  0  0
   -5.3434    0.1376   -5.2957 C   0  0  2  0  0  0  0  0  0  0  0  0
   -5.4165   -1.1451   -7.6110 C   0  0  1  0  0  0  0  0  0  0  0  0
   -2.6079   -1.1159   -5.0172 C   0  0  1  0  0  0  0  0  0  0  0  0
   -3.1769   -2.2078   -7.4151 C   0  0  1  0  0  0  0  0  0  0  0  0
   -4.4047    0.5044   -4.0992 C   0  0  2  0  0  0  0  0  0  0  0  0
   -6.1516   -0.3133   -8.5056 O   0  0  0  0  0  0  0  0  0  0  0  0
   -4.4028   -2.0617   -8.3544 C   0  0  2  0  0  0  0  0  0  0  0  0
   -3.3768   -0.6273   -3.7286 C   0  0  2  0  0  0  0  0  0  0  0  0
   -1.6415   -2.2691   -4.6390 C   0  0  1  0  0  0  0  0  0  0  0  0
   -2.4520   -0.3621   -2.5632 C   0  0  0  0  0  0  0  0  0  0  0  0
   -0.5944   -1.7777   -3.6159 C   0  0  2  0  0  0  0  0  0  0  0  0
   -1.1540   -0.9550   -2.5072 C   0  0  0  0  0  0  0  0  0  0  0  0
   -2.8650    0.4149   -1.4489 C   0  0  0  0  0  0  0  0  0  0  0  0
   -0.3298   -0.7575   -1.3755 C   0  0  0  0  0  0  0  0  0  0  0  0
   -2.0329    0.5962   -0.3294 C   0  0  0  0  0  0  0  0  0  0  0  0
   -0.7635   -0.0036   -0.2681 C   0  0  0  0  0  0  0  0  0  0  0  0
   -0.0398    0.1927    0.8816 O   0  0  0  0  0  0  0  0  0  0  0  0
    1.1347   -0.3422    1.3450 C   0  0  0  0  0  0  0  0  0  0  0  0
    1.6566    0.1115    2.6392 C   0  0  0  0  0  0  0  0  0  0  0  0
    1.7808   -1.2253    0.7364 O   0  0  0  0  0  0  0  0  0  0  0  0
   -2.0008   -0.2972   -5.4161 H   0  0  0  0  0  0  0  0  0  0  0  0
   -3.9910   -1.4641   -3.3777 H   0  0  0  0  0  0  0  0  0  0  0  0
   -4.2638   -2.3166   -5.6037 H   0  0  0  0  0  0  0  0  0  0  0  0
   -3.2049    0.5196   -8.0785 H   0  0  0  0  0  0  0  0  0  0  0  0
   -4.5598    1.5531   -7.6367 H   0  0  0  0  0  0  0  0  0  0  0  0
   -3.1909    1.3864   -6.5502 H   0  0  0  0  0  0  0  0  0  0  0  0
   -6.0326   -0.6399   -4.9551 H   0  0  0  0  0  0  0  0  0  0  0  0
   -5.9521    1.0056   -5.5597 H   0  0  0  0  0  0  0  0  0  0  0  0
   -6.1510   -1.7801   -7.1020 H   0  0  0  0  0  0  0  0  0  0  0  0
   -2.3053   -1.6896   -7.8246 H   0  0  0  0  0  0  0  0  0  0  0  0
   -2.9155   -3.2589   -7.2632 H   0  0  0  0  0  0  0  0  0  0  0  0
   -5.0617    0.7000   -3.2496 H   0  0  0  0  0  0  0  0  0  0  0  0
   -3.8654    1.4308   -4.3111 H   0  0  0  0  0  0  0  0  0  0  0  0
   -6.6286   -0.9396   -9.0893 H   0  0  0  0  0  0  0  0  0  0  0  0
   -4.0962   -1.6176   -9.3063 H   0  0  0  0  0  0  0  0  0  0  0  0
   -4.8511   -3.0375   -8.5617 H   0  0  0  0  0  0  0  0  0  0  0  0
   -2.2042   -3.1052   -4.2110 H   0  0  0  0  0  0  0  0  0  0  0  0
   -1.1158   -2.6352   -5.5244 H   0  0  0  0  0  0  0  0  0  0  0  0
    0.1573   -1.1749   -4.1339 H   0  0  0  0  0  0  0  0  0  0  0  0
   -0.0866   -2.6591   -3.2133 H   0  0  0  0  0  0  0  0  0  0  0  0
   -3.7840    0.8595   -1.4219 H   0  0  0  0  0  0  0  0  0  0  0  0
    0.5969   -1.1790   -1.3653 H   0  0  0  0  0  0  0  0  0  0  0  0
   -2.3643    1.1657    0.4548 H   0  0  0  0  0  0  0  0  0  0  0  0
    0.9872    0.8520    3.0787 H   0  0  0  0  0  0  0  0  0  0  0  0
    1.7295   -0.7382    3.3201 H   0  0  0  0  0  0  0  0  0  0  0  0
    2.6444    0.5588    2.5084 H   0  0  0  0  0  0  0  0  0  0  0  0
  2  1  1  0  0  0  0 
  3  2  1  0  0  0  0 
  2  4  1  0  0  0  0 
  2  5  1  0  0  0  0 
  6  3  1  0  0  0  0 
  3  7  1  0  0  0  0 
  3 26  1  0  0  0  0 
  4  8  1  0  0  0  0 
  5  9  1  0  0  0  0 
  5 10  1  0  0  0  0 
 11  6  1  0  0  0  0 
  6 12  1  0  0  0  0 
  6 24  1  0  0  0  0 
  7 10  1  0  0  0  0 
 11  8  1  0  0  0  0 
 11 13  1  0  0  0  0 
 11 25  1  0  0  0  0 
 12 14  1  0  0  0  0 
 13 15  2  0  0  0  0 
 13 16  1  0  0  0  0 
 14 15  1  0  0  0  0 
 15 17  1  0  0  0  0 
 16 18  2  0  0  0  0 
 17 19  2  0  0  0  0 
 18 19  1  0  0  0  0 
 19 20  1  0  0  0  0 
 20 21  1  0  0  0  0 
 21 22  1  0  0  0  0 
 21 23  2  0  0  0  0 
  1 27  1  0  0  0  0 
  1 28  1  0  0  0  0 
  1 29  1  0  0  0  0 
  4 30  1  0  0  0  0 
  4 31  1  0  0  0  0 
  5 32  1  0  0  0  0 
  7 33  1  0  0  0  0 
  7 34  1  0  0  0  0 
  8 35  1  0  0  0  0 
  8 36  1  0  0  0  0 
  9 37  1  0  0  0  0 
 10 38  1  0  0  0  0 
 10 39  1  0  0  0  0 
 12 40  1  0  0  0  0 
 12 41  1  0  0  0  0 
 14 42  1  0  0  0  0 
 14 43  1  0  0  0  0 
 16 44  1  0  0  0  0 
 17 45  1  0  0  0  0 
 18 46  1  0  0  0  0 
 22 47  1  0  0  0  0 
 22 48  1  0  0  0  0 
 22 49  1  0  0  0  0 
M  END
> <cdk:Title>
estradiol acetate

> <Conformer>
1

> <SuperDrugID>
SD003596

$$$$
