morinamide
  CDK     0628171801

 30 31  0  0  0  0  0  0  0  0999 V2000
   -0.7364   -0.9825    0.1360 C   0  0  0  0  0  0  0  0  0  0  0  0
   -1.9448   -0.4000    0.3939 N   0  0  0  0  0  0  0  0  0  0  0  0
   -0.6456   -2.2334    0.0787 O   0  0  0  0  0  0  0  0  0  0  0  0
    0.4097   -0.1821   -0.0920 C   0  0  0  0  0  0  0  0  0  0  0  0
   -3.1735   -1.0964    0.6206 C   0  0  2  0  0  0  0  0  0  0  0  0
    1.6454   -0.7127   -0.5370 C   0  0  0  0  0  0  0  0  0  0  0  0
    0.3516    1.1646    0.1128 N   0  0  0  0  0  0  0  0  0  0  0  0
   -3.4735   -2.0933   -0.4511 N   0  0  1  0  0  0  0  0  0  0  0  0
    2.6979    0.1213   -0.7366 N   0  0  0  0  0  0  0  0  0  0  0  0
    1.4022    2.0024   -0.0822 C   0  0  0  0  0  0  0  0  0  0  0  0
   -4.5316   -3.0810   -0.0895 C   0  0  1  0  0  0  0  0  0  0  0  0
   -3.6984   -1.5073   -1.8076 C   0  0  2  0  0  0  0  0  0  0  0  0
    2.6186    1.4587   -0.5266 C   0  0  0  0  0  0  0  0  0  0  0  0
   -4.5960   -4.1833   -1.1768 C   0  0  1  0  0  0  0  0  0  0  0  0
   -3.7638   -2.6526   -2.8491 C   0  0  2  0  0  0  0  0  0  0  0  0
   -4.7788   -3.6134   -2.4901 O   0  0  0  0  0  0  0  0  0  0  0  0
   -1.9736    0.5685    0.4334 H   0  0  0  0  0  0  0  0  0  0  0  0
   -3.9853   -0.3677    0.6933 H   0  0  0  0  0  0  0  0  0  0  0  0
   -3.0887   -1.5916    1.5914 H   0  0  0  0  0  0  0  0  0  0  0  0
    1.7673   -1.7112   -0.7188 H   0  0  0  0  0  0  0  0  0  0  0  0
    1.3077    3.0042    0.0949 H   0  0  0  0  0  0  0  0  0  0  0  0
   -4.3060   -3.5510    0.8720 H   0  0  0  0  0  0  0  0  0  0  0  0
   -5.5032   -2.5827   -0.0113 H   0  0  0  0  0  0  0  0  0  0  0  0
   -2.8855   -0.8281   -2.0778 H   0  0  0  0  0  0  0  0  0  0  0  0
   -4.6360   -0.9422   -1.8250 H   0  0  0  0  0  0  0  0  0  0  0  0
    3.4316    2.0539   -0.6878 H   0  0  0  0  0  0  0  0  0  0  0  0
   -3.6825   -4.7860   -1.1565 H   0  0  0  0  0  0  0  0  0  0  0  0
   -5.4401   -4.8433   -0.9679 H   0  0  0  0  0  0  0  0  0  0  0  0
   -2.7895   -3.1448   -2.9326 H   0  0  0  0  0  0  0  0  0  0  0  0
   -4.0159   -2.2395   -3.8271 H   0  0  0  0  0  0  0  0  0  0  0  0
  1  2  1  0  0  0  0 
  1  3  2  0  0  0  0 
  1  4  1  0  0  0  0 
  2  5  1  0  0  0  0 
  4  6  2  0  0  0  0 
  4  7  1  0  0  0  0 
  5  8  1  0  0  0  0 
  6  9  1  0  0  0  0 
  7 10  2  0  0  0  0 
  8 11  1  0  0  0  0 
  8 12  1  0  0  0  0 
  9 13  2  0  0  0  0 
 10 13  1  0  0  0  0 
 11 14  1  0  0  0  0 
 12 15  1  0  0  0  0 
 14 16  1  0  0  0  0 
 15 16  1  0  0  0  0 
  2 17  1  0  0  0  0 
  5 18  1  0  0  0  0 
  5 19  1  0  0  0  0 
  6 20  1  0  0  0  0 
 10 21  1  0  0  0  0 
 11 22  1  0  0  0  0 
 11 23  1  0  0  0  0 
 12 24  1  0  0  0  0 
 12 25  1  0  0  0  0 
 13 26  1  0  0  0  0 
 14 27  1  0  0  0  0 
 14 28  1  0  0  0  0 
 15 29  1  0  0  0  0 
 15 30  1  0  0  0  0 
M  END
> <cdk:Title>
morinamide

> <Conformer>
1

> <SuperDrugID>
SD001641

$$$$
