brotizolam
  CDK     0628171801

 32 35  0  0  0  0  0  0  0  0999 V2000
   -4.1492    1.4583    6.0866 Br  0  0  0  0  0  0  0  0  0  0  0  0
   -4.3514    1.4689    4.2395 C   0  0  0  0  0  0  0  0  0  0  0  0
   -3.7598    0.5983    3.3263 C   0  0  0  0  0  0  0  0  0  0  0  0
   -5.3140    2.5928    3.3098 S   0  0  0  0  0  0  0  0  0  0  0  0
   -4.0561    0.8257    1.9604 C   0  0  0  0  0  0  0  0  0  0  0  0
   -4.9524    1.9000    1.7353 C   0  0  0  0  0  0  0  0  0  0  0  0
   -3.4651    0.0747    0.9287 C   0  0  0  0  0  0  0  0  0  0  0  0
   -5.4600    2.3180    0.5284 N   0  0  0  0  0  0  0  0  0  0  0  0
   -4.0574   -0.1981   -0.1855 N   0  0  0  0  0  0  0  0  0  0  0  0
   -2.1626   -0.4240    1.0245 C   0  0  0  0  0  0  0  0  0  0  0  0
   -5.6340    1.5287   -0.5489 C   0  0  0  0  0  0  0  0  0  0  0  0
   -5.8701    3.5425    0.1290 C   0  0  0  0  0  0  0  0  0  0  0  0
   -5.3457    0.0867   -0.6150 C   0  0  1  0  0  0  0  0  0  0  0  0
   -1.0325    0.4065    1.2714 C   0  0  0  0  0  0  0  0  0  0  0  0
   -1.9514   -1.8167    0.8459 C   0  0  0  0  0  0  0  0  0  0  0  0
   -6.1317    2.2509   -1.5628 N   0  0  0  0  0  0  0  0  0  0  0  0
   -5.8668    4.8085    0.8805 C   0  0  0  0  0  0  0  0  0  0  0  0
   -6.2753    3.4648   -1.1504 N   0  0  0  0  0  0  0  0  0  0  0  0
   -1.1471    2.0896    1.4741 Cl  0  0  0  0  0  0  0  0  0  0  0  0
    0.2592   -0.1586    1.3239 C   0  0  0  0  0  0  0  0  0  0  0  0
   -0.6602   -2.3697    0.9050 C   0  0  0  0  0  0  0  0  0  0  0  0
    0.4458   -1.5398    1.1460 C   0  0  0  0  0  0  0  0  0  0  0  0
   -3.1440   -0.1526    3.6391 H   0  0  0  0  0  0  0  0  0  0  0  0
   -5.4414   -0.2680   -1.6414 H   0  0  0  0  0  0  0  0  0  0  0  0
   -6.0610   -0.4565    0.0064 H   0  0  0  0  0  0  0  0  0  0  0  0
   -2.7413   -2.4456    0.6646 H   0  0  0  0  0  0  0  0  0  0  0  0
   -4.8624    4.9992    1.2629 H   0  0  0  0  0  0  0  0  0  0  0  0
   -6.1555    5.6410    0.2351 H   0  0  0  0  0  0  0  0  0  0  0  0
   -6.5728    4.7538    1.7108 H   0  0  0  0  0  0  0  0  0  0  0  0
    1.0779    0.4321    1.4826 H   0  0  0  0  0  0  0  0  0  0  0  0
   -0.5241   -3.3750    0.7693 H   0  0  0  0  0  0  0  0  0  0  0  0
    1.3868   -1.9389    1.1879 H   0  0  0  0  0  0  0  0  0  0  0  0
  1  2  1  0  0  0  0 
  2  3  2  0  0  0  0 
  2  4  1  0  0  0  0 
  3  5  1  0  0  0  0 
  4  6  1  0  0  0  0 
  5  6  2  0  0  0  0 
  5  7  1  0  0  0  0 
  6  8  1  0  0  0  0 
  7  9  2  0  0  0  0 
  7 10  1  0  0  0  0 
  8 11  1  0  0  0  0 
  8 12  1  0  0  0  0 
  9 13  1  0  0  0  0 
 10 14  2  0  0  0  0 
 10 15  1  0  0  0  0 
 11 13  1  0  0  0  0 
 11 16  2  0  0  0  0 
 12 17  1  0  0  0  0 
 12 18  2  0  0  0  0 
 14 19  1  0  0  0  0 
 14 20  1  0  0  0  0 
 15 21  2  0  0  0  0 
 16 18  1  0  0  0  0 
 20 22  2  0  0  0  0 
 21 22  1  0  0  0  0 
  3 23  1  0  0  0  0 
 13 24  1  0  0  0  0 
 13 25  1  0  0  0  0 
 15 26  1  0  0  0  0 
 17 27  1  0  0  0  0 
 17 28  1  0  0  0  0 
 17 29  1  0  0  0  0 
 20 30  1  0  0  0  0 
 21 31  1  0  0  0  0 
 22 32  1  0  0  0  0 
M  END
> <cdk:Title>
brotizolam

> <Conformer>
1

> <SuperDrugID>
SD000351

$$$$
