mandelic acid
  CDK     0628171801

 19 19  0  0  0  0  0  0  0  0999 V2000
    1.1779    4.4534   -0.8834 O   0  0  0  0  0  0  0  0  0  0  0  0
    1.8992    3.3593   -0.3206 C   0  0  1  0  0  0  0  0  0  0  0  0
    3.2985    3.4012   -0.8014 C   0  0  0  0  0  0  0  0  0  0  0  0
    3.8344    2.3485   -1.4646 O   0  0  0  0  0  0  0  0  0  0  0  0
    4.0149    4.4139   -0.6297 O   0  0  0  0  0  0  0  0  0  0  0  0
    1.7920    3.3905    1.1682 C   0  0  0  0  0  0  0  0  0  0  0  0
    1.2280    2.3020    1.8788 C   0  0  0  0  0  0  0  0  0  0  0  0
    1.1437    2.3244    3.2832 C   0  0  0  0  0  0  0  0  0  0  0  0
    1.6267    3.4333    4.0000 C   0  0  0  0  0  0  0  0  0  0  0  0
    2.1698    4.5320    3.3123 C   0  0  0  0  0  0  0  0  0  0  0  0
    2.2370    4.5152    1.9077 C   0  0  0  0  0  0  0  0  0  0  0  0
    0.2513    4.3303   -0.5853 H   0  0  0  0  0  0  0  0  0  0  0  0
    1.4380    2.4483   -0.7149 H   0  0  0  0  0  0  0  0  0  0  0  0
    4.7644    2.3832   -1.7760 H   0  0  0  0  0  0  0  0  0  0  0  0
    0.8709    1.4842    1.3803 H   0  0  0  0  0  0  0  0  0  0  0  0
    0.7320    1.5323    3.7826 H   0  0  0  0  0  0  0  0  0  0  0  0
    1.5781    3.4428    5.0204 H   0  0  0  0  0  0  0  0  0  0  0  0
    2.5146    5.3420    3.8303 H   0  0  0  0  0  0  0  0  0  0  0  0
    2.6157    5.3360    1.4290 H   0  0  0  0  0  0  0  0  0  0  0  0
  2  1  1  0  0  0  0 
  2  3  1  0  0  0  0 
  3  4  1  0  0  0  0 
  3  5  2  0  0  0  0 
  2  6  1  0  0  0  0 
  6  7  2  0  0  0  0 
  7  8  1  0  0  0  0 
  8  9  2  0  0  0  0 
  9 10  1  0  0  0  0 
 10 11  2  0  0  0  0 
  6 11  1  0  0  0  0 
  1 12  1  0  0  0  0 
  2 13  1  0  0  0  0 
  4 14  1  0  0  0  0 
  7 15  1  0  0  0  0 
  8 16  1  0  0  0  0 
  9 17  1  0  0  0  0 
 10 18  1  0  0  0  0 
 11 19  1  0  0  0  0 
M  END
> <cdk:Title>
mandelic acid

> <Conformer>
1

> <SuperDrugID>
SD001442

$$$$
