ipriflavone
  CDK     0628171801

 37 39  0  0  0  0  0  0  0  0999 V2000
    4.3847    1.7601    0.1360 O   0  0  0  0  0  0  0  0  0  0  0  0
    3.3784    1.1409   -0.2867 C   0  0  0  0  0  0  0  0  0  0  0  0
    2.8963    1.4067   -1.5925 C   0  0  0  0  0  0  0  0  0  0  0  0
    2.7540    0.1734    0.5431 C   0  0  0  0  0  0  0  0  0  0  0  0
    1.7557    0.6916   -2.0389 C   0  0  0  0  0  0  0  0  0  0  0  0
    3.4875    2.3478   -2.4698 C   0  0  0  0  0  0  0  0  0  0  0  0
    1.6540   -0.5352    0.0144 C   0  0  0  0  0  0  0  0  0  0  0  0
    3.1868   -0.0997    1.8695 C   0  0  0  0  0  0  0  0  0  0  0  0
    1.1970    0.9445   -3.3041 C   0  0  0  0  0  0  0  0  0  0  0  0
    1.1906   -0.2514   -1.2340 O   0  0  0  0  0  0  0  0  0  0  0  0
    2.9302    2.5961   -3.7375 C   0  0  0  0  0  0  0  0  0  0  0  0
    3.2743    0.9369    2.8292 C   0  0  0  0  0  0  0  0  0  0  0  0
    3.5213   -1.4178    2.2624 C   0  0  0  0  0  0  0  0  0  0  0  0
    1.7666    1.9171   -4.1494 C   0  0  0  0  0  0  0  0  0  0  0  0
    3.6827    0.6614    4.1474 C   0  0  0  0  0  0  0  0  0  0  0  0
    3.9325   -1.6919    3.5799 C   0  0  0  0  0  0  0  0  0  0  0  0
    1.1955    2.1805   -5.3672 O   0  0  0  0  0  0  0  0  0  0  0  0
    4.0134   -0.6525    4.5230 C   0  0  0  0  0  0  0  0  0  0  0  0
    0.3223    3.3389   -5.4028 C   0  0  2  0  0  0  0  0  0  0  0  0
   -0.9668    3.1475   -4.5582 C   0  0  0  0  0  0  0  0  0  0  0  0
   -0.0375    3.5992   -6.8851 C   0  0  0  0  0  0  0  0  0  0  0  0
    4.3230    2.8688   -2.1947 H   0  0  0  0  0  0  0  0  0  0  0  0
    1.1769   -1.2608    0.5560 H   0  0  0  0  0  0  0  0  0  0  0  0
    0.3667    0.4274   -3.6013 H   0  0  0  0  0  0  0  0  0  0  0  0
    3.3642    3.2855   -4.3549 H   0  0  0  0  0  0  0  0  0  0  0  0
    3.0325    1.9012    2.5812 H   0  0  0  0  0  0  0  0  0  0  0  0
    3.4727   -2.1903    1.5912 H   0  0  0  0  0  0  0  0  0  0  0  0
    3.7358    1.4178    4.8342 H   0  0  0  0  0  0  0  0  0  0  0  0
    4.1718   -2.6488    3.8515 H   0  0  0  0  0  0  0  0  0  0  0  0
    4.3090   -0.8527    5.4806 H   0  0  0  0  0  0  0  0  0  0  0  0
    0.8518    4.2281   -5.0378 H   0  0  0  0  0  0  0  0  0  0  0  0
   -0.7162    3.1165   -3.4974 H   0  0  0  0  0  0  0  0  0  0  0  0
   -1.6587    3.9776   -4.7131 H   0  0  0  0  0  0  0  0  0  0  0  0
   -1.4623    2.2144   -4.8342 H   0  0  0  0  0  0  0  0  0  0  0  0
   -0.6653    4.4889   -6.9764 H   0  0  0  0  0  0  0  0  0  0  0  0
    0.8729    3.7614   -7.4653 H   0  0  0  0  0  0  0  0  0  0  0  0
   -0.5733    2.7464   -7.3077 H   0  0  0  0  0  0  0  0  0  0  0  0
  1  2  2  0  0  0  0 
  2  3  1  0  0  0  0 
  2  4  1  0  0  0  0 
  3  5  1  0  0  0  0 
  3  6  2  0  0  0  0 
  4  7  2  0  0  0  0 
  4  8  1  0  0  0  0 
  5  9  2  0  0  0  0 
  5 10  1  0  0  0  0 
  6 11  1  0  0  0  0 
  7 10  1  0  0  0  0 
  8 12  2  0  0  0  0 
  8 13  1  0  0  0  0 
  9 14  1  0  0  0  0 
 11 14  2  0  0  0  0 
 12 15  1  0  0  0  0 
 13 16  2  0  0  0  0 
 14 17  1  0  0  0  0 
 15 18  2  0  0  0  0 
 16 18  1  0  0  0  0 
 17 19  1  0  0  0  0 
 19 20  1  0  0  0  0 
 19 21  1  0  0  0  0 
  6 22  1  0  0  0  0 
  7 23  1  0  0  0  0 
  9 24  1  0  0  0  0 
 11 25  1  0  0  0  0 
 12 26  1  0  0  0  0 
 13 27  1  0  0  0  0 
 15 28  1  0  0  0  0 
 16 29  1  0  0  0  0 
 18 30  1  0  0  0  0 
 19 31  1  0  0  0  0 
 20 32  1  0  0  0  0 
 20 33  1  0  0  0  0 
 20 34  1  0  0  0  0 
 21 35  1  0  0  0  0 
 21 36  1  0  0  0  0 
 21 37  1  0  0  0  0 
M  END
> <cdk:Title>
ipriflavone

> <Conformer>
1

> <SuperDrugID>
SD001308

$$$$
