enzacamene
  CDK     0628171801

 41 43  0  0  0  0  0  0  0  0999 V2000
   -1.2752   -0.8527    0.7023 C   0  0  0  0  0  0  0  0  0  0  0  0
   -2.1766   -0.5599    1.8524 C   0  0  1  0  0  0  0  0  0  0  0  0
   -3.3170    0.3439    1.2645 C   0  0  1  0  0  0  0  0  0  0  0  0
   -2.5534    1.6642    0.9462 C   0  0  1  0  0  0  0  0  0  0  0  0
   -1.0953    1.2931    1.3762 C   0  0  2  0  0  0  0  0  0  0  0  0
   -0.5907    0.3109    0.4064 C   0  0  0  0  0  0  0  0  0  0  0  0
   -1.1448   -1.9640    0.1371 O   0  0  0  0  0  0  0  0  0  0  0  0
    0.3589    0.4404   -0.5415 C   0  0  0  0  0  0  0  0  0  0  0  0
    1.0905    1.5850   -0.8305 C   0  0  0  0  0  0  0  0  0  0  0  0
    2.4980    1.4901   -0.9424 C   0  0  0  0  0  0  0  0  0  0  0  0
    0.4831    2.8440   -1.0435 C   0  0  0  0  0  0  0  0  0  0  0  0
    1.2643    3.9844   -1.3019 C   0  0  0  0  0  0  0  0  0  0  0  0
    2.6720    3.8936   -1.3752 C   0  0  0  0  0  0  0  0  0  0  0  0
    3.2787    2.6304   -1.2042 C   0  0  0  0  0  0  0  0  0  0  0  0
    3.5151    5.0855   -1.6255 C   0  0  0  0  0  0  0  0  0  0  0  0
   -0.4539    2.1657    1.5252 H   0  0  0  0  0  0  0  0  0  0  0  0
   -2.6924   -1.8145    2.6078 C   0  0  0  0  0  0  0  0  0  0  0  0
   -1.2773    0.4317    2.6704 C   0  0  2  0  0  0  0  0  0  0  0  0
    0.0615   -0.1649    3.2596 C   0  0  0  0  0  0  0  0  0  0  0  0
   -1.9622    1.1624    3.8888 C   0  0  0  0  0  0  0  0  0  0  0  0
   -3.7604   -0.0911    0.3617 H   0  0  0  0  0  0  0  0  0  0  0  0
   -4.1183    0.5129    1.9871 H   0  0  0  0  0  0  0  0  0  0  0  0
   -2.6198    1.9182   -0.1155 H   0  0  0  0  0  0  0  0  0  0  0  0
   -2.9374    2.5080    1.5246 H   0  0  0  0  0  0  0  0  0  0  0  0
    0.5871   -0.3676   -1.0738 H   0  0  0  0  0  0  0  0  0  0  0  0
    2.9714    0.5900   -0.8190 H   0  0  0  0  0  0  0  0  0  0  0  0
   -0.5337    2.9432   -1.0185 H   0  0  0  0  0  0  0  0  0  0  0  0
    0.7944    4.8816   -1.4396 H   0  0  0  0  0  0  0  0  0  0  0  0
    4.2943    2.5320   -1.2672 H   0  0  0  0  0  0  0  0  0  0  0  0
    4.1879    5.2389   -0.7797 H   0  0  0  0  0  0  0  0  0  0  0  0
    2.9196    5.9920   -1.7536 H   0  0  0  0  0  0  0  0  0  0  0  0
    4.1118    4.9400   -2.5285 H   0  0  0  0  0  0  0  0  0  0  0  0
   -3.2943   -1.5223    3.4696 H   0  0  0  0  0  0  0  0  0  0  0  0
   -1.8561   -2.4225    2.9584 H   0  0  0  0  0  0  0  0  0  0  0  0
   -3.3100   -2.4204    1.9417 H   0  0  0  0  0  0  0  0  0  0  0  0
    0.6243   -0.7665    2.5458 H   0  0  0  0  0  0  0  0  0  0  0  0
   -0.1498   -0.8090    4.1167 H   0  0  0  0  0  0  0  0  0  0  0  0
    0.7185    0.6427    3.5897 H   0  0  0  0  0  0  0  0  0  0  0  0
   -2.9249    1.6110    3.6601 H   0  0  0  0  0  0  0  0  0  0  0  0
   -2.1356    0.4589    4.7063 H   0  0  0  0  0  0  0  0  0  0  0  0
   -1.3182    1.9642    4.2567 H   0  0  0  0  0  0  0  0  0  0  0  0
  2  1  1  0  0  0  0 
  2  3  1  0  0  0  0 
  3  4  1  0  0  0  0 
  5  4  1  0  0  0  0 
  5  6  1  0  0  0  0 
  1  6  1  0  0  0  0 
  1  7  2  0  0  0  0 
  6  8  2  0  0  0  0 
  8  9  1  0  0  0  0 
 10  9  2  0  0  0  0 
  9 11  1  0  0  0  0 
 11 12  2  0  0  0  0 
 12 13  1  0  0  0  0 
 13 14  2  0  0  0  0 
 10 14  1  0  0  0  0 
 13 15  1  0  0  0  0 
  5 16  1  0  0  0  0 
  2 17  1  0  0  0  0 
  2 18  1  0  0  0  0 
  5 18  1  0  0  0  0 
 18 19  1  0  0  0  0 
 18 20  1  0  0  0  0 
  3 21  1  0  0  0  0 
  3 22  1  0  0  0  0 
  4 23  1  0  0  0  0 
  4 24  1  0  0  0  0 
  8 25  1  0  0  0  0 
 10 26  1  0  0  0  0 
 11 27  1  0  0  0  0 
 12 28  1  0  0  0  0 
 14 29  1  0  0  0  0 
 15 30  1  0  0  0  0 
 15 31  1  0  0  0  0 
 15 32  1  0  0  0  0 
 17 33  1  0  0  0  0 
 17 34  1  0  0  0  0 
 17 35  1  0  0  0  0 
 19 36  1  0  0  0  0 
 19 37  1  0  0  0  0 
 19 38  1  0  0  0  0 
 20 39  1  0  0  0  0 
 20 40  1  0  0  0  0 
 20 41  1  0  0  0  0 
M  END
> <cdk:Title>
enzacamene

> <Conformer>
1

> <SuperDrugID>
SD003479

$$$$
