diaziquone
  CDK     0628171802

 46 48  0  0  0  0  0  0  0  0999 V2000
    2.5029    2.8599    0.6305 N   0  0  0  0  0  0  0  0  0  0  0  0
    2.8795    2.3841   -0.5425 C   0  0  0  0  0  0  0  0  0  0  0  0
    1.4513    2.8232    1.3801 C   0  0  0  0  0  0  0  0  0  0  0  0
    3.9960    2.9649   -1.0606 O   0  0  0  0  0  0  0  0  0  0  0  0
    2.2949    1.4555   -1.1477 O   0  0  0  0  0  0  0  0  0  0  0  0
    1.5642    3.4598    2.6117 C   0  0  0  0  0  0  0  0  0  0  0  0
    0.2501    2.1943    1.0860 C   0  0  0  0  0  0  0  0  0  0  0  0
    4.5958    2.7045   -2.3327 C   0  0  2  0  0  0  0  0  0  0  0  0
    0.7599    3.0397    3.6233 C   0  0  0  0  0  0  0  0  0  0  0  0
    2.5417    4.4504    2.8435 N   0  0  2  0  0  0  0  0  0  0  0  0
   -0.1144    1.9850   -0.1762 O   0  0  0  0  0  0  0  0  0  0  0  0
   -0.5974    1.8292    2.0878 C   0  0  0  0  0  0  0  0  0  0  0  0
    5.8016    3.6420   -2.5150 C   0  0  0  0  0  0  0  0  0  0  0  0
    0.9027    3.5760    4.8395 O   0  0  0  0  0  0  0  0  0  0  0  0
   -0.1823    2.0503    3.4043 C   0  0  0  0  0  0  0  0  0  0  0  0
    2.0245    5.7771    3.2806 C   0  0  1  0  0  0  0  0  0  0  0  0
    2.5683    5.5892    1.8826 C   0  0  1  0  0  0  0  0  0  0  0  0
   -1.8353    1.2309    1.7879 N   0  0  2  0  0  0  0  0  0  0  0  0
   -0.5541    1.4039    4.4603 N   0  0  0  0  0  0  0  0  0  0  0  0
   -2.7649    2.0190    0.9315 C   0  0  1  0  0  0  0  0  0  0  0  0
   -3.0351    1.8617    2.4094 C   0  0  1  0  0  0  0  0  0  0  0  0
   -1.3200    0.3583    4.7262 C   0  0  0  0  0  0  0  0  0  0  0  0
   -1.8164    0.2954    5.9952 O   0  0  0  0  0  0  0  0  0  0  0  0
   -1.5519   -0.5480    3.8928 O   0  0  0  0  0  0  0  0  0  0  0  0
   -2.7040   -0.6888    6.5435 C   0  0  2  0  0  0  0  0  0  0  0  0
   -3.0167   -0.3203    8.0062 C   0  0  0  0  0  0  0  0  0  0  0  0
    3.8683    2.8960   -3.1236 H   0  0  0  0  0  0  0  0  0  0  0  0
    4.9224    1.6637   -2.3935 H   0  0  0  0  0  0  0  0  0  0  0  0
    0.3274    2.6833   -0.7024 H   0  0  0  0  0  0  0  0  0  0  0  0
    5.4760    4.6830   -2.4761 H   0  0  0  0  0  0  0  0  0  0  0  0
    6.2774    3.4585   -3.4794 H   0  0  0  0  0  0  0  0  0  0  0  0
    6.5290    3.4714   -1.7206 H   0  0  0  0  0  0  0  0  0  0  0  0
    0.0545    3.4206    5.3044 H   0  0  0  0  0  0  0  0  0  0  0  0
    0.9472    5.9534    3.3159 H   0  0  0  0  0  0  0  0  0  0  0  0
    2.6725    6.3578    3.9383 H   0  0  0  0  0  0  0  0  0  0  0  0
    3.5511    6.0314    1.7043 H   0  0  0  0  0  0  0  0  0  0  0  0
    1.8175    5.6350    1.0878 H   0  0  0  0  0  0  0  0  0  0  0  0
   -2.4815    3.0283    0.6236 H   0  0  0  0  0  0  0  0  0  0  0  0
   -3.4123    1.4319    0.2793 H   0  0  0  0  0  0  0  0  0  0  0  0
   -3.8506    1.1777    2.6559 H   0  0  0  0  0  0  0  0  0  0  0  0
   -2.9162    2.7783    2.9945 H   0  0  0  0  0  0  0  0  0  0  0  0
   -2.2367   -1.6752    6.5081 H   0  0  0  0  0  0  0  0  0  0  0  0
   -3.6357   -0.7177    5.9710 H   0  0  0  0  0  0  0  0  0  0  0  0
   -3.4900    0.6627    8.0512 H   0  0  0  0  0  0  0  0  0  0  0  0
   -3.6925   -1.0560    8.4450 H   0  0  0  0  0  0  0  0  0  0  0  0
   -2.0978   -0.2966    8.5942 H   0  0  0  0  0  0  0  0  0  0  0  0
  1  2  1  0  0  0  0 
  1  3  2  0  0  0  0 
  2  4  1  0  0  0  0 
  2  5  2  0  0  0  0 
  3  6  1  0  0  0  0 
  3  7  1  0  0  0  0 
  4  8  1  0  0  0  0 
  6  9  2  0  0  0  0 
  6 10  1  0  0  0  0 
  7 11  1  0  0  0  0 
  7 12  2  0  0  0  0 
  8 13  1  0  0  0  0 
  9 14  1  0  0  0  0 
  9 15  1  0  0  0  0 
 10 16  1  0  0  0  0 
 10 17  1  0  0  0  0 
 12 15  1  0  0  0  0 
 12 18  1  0  0  0  0 
 15 19  2  0  0  0  0 
 16 17  1  0  0  0  0 
 18 20  1  0  0  0  0 
 18 21  1  0  0  0  0 
 19 22  1  0  0  0  0 
 20 21  1  0  0  0  0 
 22 23  1  0  0  0  0 
 22 24  2  0  0  0  0 
 23 25  1  0  0  0  0 
 25 26  1  0  0  0  0 
 27  8  1  0  0  0  0 
 28  8  1  0  0  0  0 
 29 11  1  0  0  0  0 
 30 13  1  0  0  0  0 
 31 13  1  0  0  0  0 
 32 13  1  0  0  0  0 
 33 14  1  0  0  0  0 
 34 16  1  0  0  0  0 
 35 16  1  0  0  0  0 
 36 17  1  0  0  0  0 
 37 17  1  0  0  0  0 
 38 20  1  0  0  0  0 
 39 20  1  0  0  0  0 
 40 21  1  0  0  0  0 
 41 21  1  0  0  0  0 
 42 25  1  0  0  0  0 
 43 25  1  0  0  0  0 
 44 26  1  0  0  0  0 
 45 26  1  0  0  0  0 
 46 26  1  0  0  0  0 
M  END
> <cdk:Title>
diaziquone

> <Conformer>
1

> <SuperDrugID>
SD000756

$$$$
