imipenem
  CDK     0628171801

 37 38  0  0  0  0  0  0  0  0999 V2000
   -1.1855   -7.4745   -0.9988 C   0  0  0  0  0  0  0  0  0  0  0  0
    0.1135   -7.1700   -0.7772 O   0  0  0  0  0  0  0  0  0  0  0  0
   -1.4175   -8.4691   -1.7236 O   0  0  0  0  0  0  0  0  0  0  0  0
   -2.2275   -6.7449   -0.4527 C   0  0  0  0  0  0  0  0  0  0  0  0
   -3.4993   -7.0645   -0.4742 N   0  0  0  0  0  0  0  0  0  0  0  0
   -2.2134   -5.6209    0.2822 C   0  0  0  0  0  0  0  0  0  0  0  0
   -4.4743   -6.0958   -0.2066 C   0  0  2  0  0  0  0  0  0  0  0  0
   -4.2397   -8.1460   -0.2411 C   0  0  0  0  0  0  0  0  0  0  0  0
   -0.8315   -4.7139    0.7932 S   0  0  0  0  0  0  0  0  0  0  0  0
   -3.5569   -5.2372    0.6970 C   0  0  1  0  0  0  0  0  0  0  0  0
   -5.3638   -7.3205    0.2253 C   0  0  2  0  0  0  0  0  0  0  0  0
   -4.0025   -9.3732   -0.1931 O   0  0  0  0  0  0  0  0  0  0  0  0
   -0.3714   -3.6534   -0.6220 C   0  0  1  0  0  0  0  0  0  0  0  0
   -6.7093   -7.4964   -0.5340 C   0  0  1  0  0  0  0  0  0  0  0  0
   -1.4603   -2.6320   -1.0238 C   0  0  1  0  0  0  0  0  0  0  0  0
   -7.4360   -8.8162   -0.1745 C   0  0  0  0  0  0  0  0  0  0  0  0
   -7.5606   -6.4009   -0.2022 O   0  0  0  0  0  0  0  0  0  0  0  0
   -1.7792   -1.8021    0.0483 N   0  0  0  0  0  0  0  0  0  0  0  0
   -2.6755   -0.8860    0.0701 C   0  0  0  0  0  0  0  0  0  0  0  0
   -2.8558   -0.2018    1.1759 N   0  0  0  0  0  0  0  0  0  0  0  0
    0.8254   -7.7161   -1.1717 H   0  0  0  0  0  0  0  0  0  0  0  0
   -4.7893   -5.5918   -1.1270 H   0  0  0  0  0  0  0  0  0  0  0  0
   -3.7096   -5.4528    1.7575 H   0  0  0  0  0  0  0  0  0  0  0  0
   -3.7424   -4.1773    0.5127 H   0  0  0  0  0  0  0  0  0  0  0  0
   -5.4829   -7.3799    1.3107 H   0  0  0  0  0  0  0  0  0  0  0  0
    0.5443   -3.1192   -0.3596 H   0  0  0  0  0  0  0  0  0  0  0  0
   -0.1487   -4.2982   -1.4749 H   0  0  0  0  0  0  0  0  0  0  0  0
   -6.5394   -7.4732   -1.6143 H   0  0  0  0  0  0  0  0  0  0  0  0
   -1.0860   -2.0253   -1.8534 H   0  0  0  0  0  0  0  0  0  0  0  0
   -2.3489   -3.1680   -1.3681 H   0  0  0  0  0  0  0  0  0  0  0  0
   -8.4117   -8.8522   -0.6643 H   0  0  0  0  0  0  0  0  0  0  0  0
   -6.8545   -9.6762   -0.5106 H   0  0  0  0  0  0  0  0  0  0  0  0
   -7.5873   -8.8925    0.9045 H   0  0  0  0  0  0  0  0  0  0  0  0
   -8.3851   -6.5516   -0.7109 H   0  0  0  0  0  0  0  0  0  0  0  0
   -3.2416   -0.6875   -0.7215 H   0  0  0  0  0  0  0  0  0  0  0  0
   -3.5436    0.4817    1.2163 H   0  0  0  0  0  0  0  0  0  0  0  0
   -2.3070   -0.3798    1.9577 H   0  0  0  0  0  0  0  0  0  0  0  0
  1  2  1  0  0  0  0 
  1  3  2  0  0  0  0 
  1  4  1  0  0  0  0 
  4  5  1  0  0  0  0 
  4  6  2  0  0  0  0 
  7  5  1  0  0  0  0 
  5  8  1  0  0  0  0 
  6  9  1  0  0  0  0 
  6 10  1  0  0  0  0 
  7 10  1  0  0  0  0 
 11  7  1  0  0  0  0 
 11  8  1  0  0  0  0 
  8 12  2  0  0  0  0 
  9 13  1  0  0  0  0 
 11 14  1  0  0  0  0 
 13 15  1  0  0  0  0 
 14 16  1  0  0  0  0 
 14 17  1  0  0  0  0 
 18 15  1  0  0  0  0 
 18 19  2  0  0  0  0 
 19 20  1  0  0  0  0 
 21  2  1  0  0  0  0 
  7 22  1  0  0  0  0 
 23 10  1  0  0  0  0 
 24 10  1  0  0  0  0 
 11 25  1  0  0  0  0 
 26 13  1  0  0  0  0 
 27 13  1  0  0  0  0 
 14 28  1  0  0  0  0 
 29 15  1  0  0  0  0 
 30 15  1  0  0  0  0 
 31 16  1  0  0  0  0 
 32 16  1  0  0  0  0 
 33 16  1  0  0  0  0 
 34 17  1  0  0  0  0 
 35 19  1  0  0  0  0 
 36 20  1  0  0  0  0 
 37 20  1  0  0  0  0 
M  END
> <cdk:Title>
imipenem

> <Conformer>
1

> <SuperDrugID>
SD001265

$$$$
