biapenem
  CDK     0628171801

 42 45  0  0  0  0  0  0  0  0999 V2000
    0.7896    0.9466   -1.1973 N   0  0  0  0  0  0  0  0  0  0  0  0
    2.0511    0.7741   -1.5698 C   0  0  0  0  0  0  0  0  0  0  0  0
    1.7603   -0.5892   -2.0394 C   0  0  1  0  0  0  0  0  0  0  0  0
    0.2554   -0.2391   -1.7215 C   0  0  1  0  0  0  0  0  0  0  0  0
   -0.5951   -0.5791   -0.4637 C   0  0  2  0  0  0  0  0  0  0  0  0
   -0.7495    0.7291    0.1834 C   0  0  0  0  0  0  0  0  0  0  0  0
    0.1389    1.6227   -0.2862 C   0  0  0  0  0  0  0  0  0  0  0  0
   -1.9244    1.0156    1.4251 S   0  0  0  0  0  0  0  0  0  0  0  0
   -3.4823    1.4775    0.5704 C   0  0  1  0  0  0  0  0  0  0  0  0
   -4.6268    1.7631    1.5971 C   0  0  1  0  0  0  0  0  0  0  0  0
   -4.8532    3.1419    1.3951 N   0  0  0  0  0  0  0  0  0  0  0  0
   -4.2026    3.6636    0.4355 N   0  0  0  0  0  0  0  0  0  0  0  0
   -3.3614    2.7843   -0.2761 C   0  0  1  0  0  0  0  0  0  0  0  0
   -4.5157    4.9650    0.3426 C   0  0  0  0  0  0  0  0  0  0  0  0
   -5.4123    5.2396    1.3099 N   0  0  0  0  0  0  0  0  0  0  0  0
   -5.6222    4.0827    1.9676 C   0  0  0  0  0  0  0  0  0  0  0  0
    0.4114    2.9260    0.1000 C   0  0  0  0  0  0  0  0  0  0  0  0
   -0.0229    3.4201    1.1659 O   0  0  0  0  0  0  0  0  0  0  0  0
    1.1817    3.7218   -0.6772 O   0  0  0  0  0  0  0  0  0  0  0  0
    3.1066    1.4233   -1.3919 O   0  0  0  0  0  0  0  0  0  0  0  0
    2.0858   -0.8900   -3.5302 C   0  0  2  0  0  0  0  0  0  0  0  0
    1.5178   -2.1499   -3.8883 O   0  0  0  0  0  0  0  0  0  0  0  0
    3.6049   -0.9349   -3.8198 C   0  0  0  0  0  0  0  0  0  0  0  0
   -0.3548   -0.0243   -2.6088 H   0  0  0  0  0  0  0  0  0  0  0  0
    2.1774   -1.3434   -1.3651 H   0  0  0  0  0  0  0  0  0  0  0  0
    0.0282   -1.6583    0.4624 C   0  0  0  0  0  0  0  0  0  0  0  0
   -1.5719   -0.9389   -0.7991 H   0  0  0  0  0  0  0  0  0  0  0  0
    1.6396   -0.1262   -4.1721 H   0  0  0  0  0  0  0  0  0  0  0  0
   -3.7624    0.6408   -0.0766 H   0  0  0  0  0  0  0  0  0  0  0  0
   -5.5307    1.1993    1.3522 H   0  0  0  0  0  0  0  0  0  0  0  0
   -4.3430    1.5643    2.6342 H   0  0  0  0  0  0  0  0  0  0  0  0
   -2.3478    3.1791   -0.3183 H   0  0  0  0  0  0  0  0  0  0  0  0
   -3.7426    2.6467   -1.2918 H   0  0  0  0  0  0  0  0  0  0  0  0
   -4.1450    5.6321   -0.3373 H   0  0  0  0  0  0  0  0  0  0  0  0
   -6.2558    3.9543    2.7588 H   0  0  0  0  0  0  0  0  0  0  0  0
    0.5545   -2.0584   -3.7299 H   0  0  0  0  0  0  0  0  0  0  0  0
    3.7779   -1.2179   -4.8601 H   0  0  0  0  0  0  0  0  0  0  0  0
    4.1028   -1.6613   -3.1744 H   0  0  0  0  0  0  0  0  0  0  0  0
    4.0506    0.0476   -3.6560 H   0  0  0  0  0  0  0  0  0  0  0  0
   -0.6530   -1.8947    1.2817 H   0  0  0  0  0  0  0  0  0  0  0  0
    0.9737   -1.3137    0.8865 H   0  0  0  0  0  0  0  0  0  0  0  0
    0.2117   -2.5767   -0.0992 H   0  0  0  0  0  0  0  0  0  0  0  0
  1  2  1  0  0  0  0 
  2  3  1  0  0  0  0 
  3  4  1  0  0  0  0 
  4  1  1  0  0  0  0 
  5  6  1  0  0  0  0 
  6  7  2  0  0  0  0 
  1  7  1  0  0  0  0 
  4  5  1  0  0  0  0 
  6  8  1  0  0  0  0 
  8  9  1  0  0  0  0 
 10 11  1  0  0  0  0 
 11 12  1  0  0  0  0 
 12 13  1  0  0  0  0 
  9 10  1  0  0  0  0 
  9 13  1  0  0  0  0 
 14 15  2  0  0  0  0 
 15 16  1  0  0  0  0 
 11 16  2  0  0  0  0 
 12 14  1  0  0  0  0 
  7 17  1  0  0  0  0 
 17 18  2  0  0  0  0 
 17 19  1  0  0  0  0 
  2 20  2  0  0  0  0 
  3 21  1  0  0  0  0 
 21 22  1  0  0  0  0 
 21 23  1  0  0  0  0 
  4 24  1  0  0  0  0 
  3 25  1  0  0  0  0 
  5 26  1  0  0  0  0 
  5 27  1  0  0  0  0 
 21 28  1  0  0  0  0 
  9 29  1  0  0  0  0 
 10 30  1  0  0  0  0 
 10 31  1  0  0  0  0 
 13 32  1  0  0  0  0 
 13 33  1  0  0  0  0 
 14 34  1  0  0  0  0 
 16 35  1  0  0  0  0 
 22 36  1  0  0  0  0 
 23 37  1  0  0  0  0 
 23 38  1  0  0  0  0 
 23 39  1  0  0  0  0 
 26 40  1  0  0  0  0 
 26 41  1  0  0  0  0 
 26 42  1  0  0  0  0 
M  CHG  1  11   1
M  CHG  1  19  -1
M  END
> <cdk:Title>
biapenem

> <Conformer>
1

> <SuperDrugID>
SD000310

$$$$
