olmutinib
  CDK     0628171802

 61 65  0  0  0  0  0  0  0  0999 V2000
    0.6607   -6.9517   -1.8464 C   0  0  0  0  0  0  0  0  0  0  0  0
    1.0538   -8.0804   -2.5763 C   0  0  0  0  0  0  0  0  0  0  0  0
    0.7340   -8.1849   -3.9441 C   0  0  0  0  0  0  0  0  0  0  0  0
    0.0638   -7.1409   -4.5126 N   0  0  0  0  0  0  0  0  0  0  0  0
   -0.2980   -6.0264   -3.8128 C   0  0  0  0  0  0  0  0  0  0  0  0
    0.0028   -5.9577   -2.4845 N   0  0  0  0  0  0  0  0  0  0  0  0
   -0.8718   -4.9828   -4.4741 N   0  0  0  0  0  0  0  0  0  0  0  0
   -1.0915   -3.7504   -3.9278 C   0  0  0  0  0  0  0  0  0  0  0  0
   -1.7671   -3.5690   -2.6993 C   0  0  0  0  0  0  0  0  0  0  0  0
   -1.8718   -2.2903   -2.1223 C   0  0  0  0  0  0  0  0  0  0  0  0
   -1.3212   -1.1588   -2.7675 C   0  0  0  0  0  0  0  0  0  0  0  0
   -0.6929   -1.3357   -4.0209 C   0  0  0  0  0  0  0  0  0  0  0  0
   -0.5819   -2.6165   -4.5960 C   0  0  0  0  0  0  0  0  0  0  0  0
   -1.3869    0.0810   -2.1742 N   0  0  0  0  0  0  0  0  0  0  0  0
   -2.2001    1.1267   -2.7547 C   0  0  2  0  0  0  0  0  0  0  0  0
   -1.6383    2.5516   -2.5043 C   0  0  2  0  0  0  0  0  0  0  0  0
   -1.2487    2.7200   -1.0739 N   0  0  1  0  0  0  0  0  0  0  0  0
   -0.2166    1.7155   -0.6855 C   0  0  1  0  0  0  0  0  0  0  0  0
   -0.7777    0.2858   -0.8784 C   0  0  2  0  0  0  0  0  0  0  0  0
   -0.8690    4.1185   -0.7271 C   0  0  0  0  0  0  0  0  0  0  0  0
    1.9331   -9.1119   -1.4616 S   0  0  0  0  0  0  0  0  0  0  0  0
    1.7305   -8.0705   -0.0633 C   0  0  0  0  0  0  0  0  0  0  0  0
    1.0145   -6.9462   -0.4845 C   0  0  0  0  0  0  0  0  0  0  0  0
    1.1255   -9.2417   -4.7217 O   0  0  0  0  0  0  0  0  0  0  0  0
    0.2988  -10.3252   -4.5839 C   0  0  0  0  0  0  0  0  0  0  0  0
    0.6699  -11.3790   -3.7226 C   0  0  0  0  0  0  0  0  0  0  0  0
   -0.1881  -12.4821   -3.5070 C   0  0  0  0  0  0  0  0  0  0  0  0
   -1.3900  -12.5581   -4.2458 C   0  0  0  0  0  0  0  0  0  0  0  0
   -1.7460  -11.5346   -5.1449 C   0  0  0  0  0  0  0  0  0  0  0  0
   -0.9062  -10.4182   -5.3109 C   0  0  0  0  0  0  0  0  0  0  0  0
    0.0781  -13.4953   -2.6279 N   0  0  0  0  0  0  0  0  0  0  0  0
    0.6789  -13.4070   -1.4019 C   0  0  0  0  0  0  0  0  0  0  0  0
    1.0771  -12.3073   -0.9445 O   0  0  0  0  0  0  0  0  0  0  0  0
    0.8043  -14.5696   -0.6527 C   0  0  0  0  0  0  0  0  0  0  0  0
    1.2616  -14.6376    0.6068 C   0  0  0  0  0  0  0  0  0  0  0  0
   -1.0391   -5.0925   -5.4254 H   0  0  0  0  0  0  0  0  0  0  0  0
   -2.1784   -4.3699   -2.2140 H   0  0  0  0  0  0  0  0  0  0  0  0
   -2.3503   -2.1904   -1.2245 H   0  0  0  0  0  0  0  0  0  0  0  0
   -0.2938   -0.5336   -4.5135 H   0  0  0  0  0  0  0  0  0  0  0  0
   -0.0968   -2.7162   -5.4915 H   0  0  0  0  0  0  0  0  0  0  0  0
   -3.1964    1.0574   -2.3070 H   0  0  0  0  0  0  0  0  0  0  0  0
   -2.3159    0.9998   -3.8353 H   0  0  0  0  0  0  0  0  0  0  0  0
   -2.4102    3.2776   -2.7786 H   0  0  0  0  0  0  0  0  0  0  0  0
   -0.7711    2.7236   -3.1500 H   0  0  0  0  0  0  0  0  0  0  0  0
    0.6911    1.8436   -1.2841 H   0  0  0  0  0  0  0  0  0  0  0  0
    0.0552    1.8371    0.3665 H   0  0  0  0  0  0  0  0  0  0  0  0
    0.0405   -0.4208   -0.7060 H   0  0  0  0  0  0  0  0  0  0  0  0
   -1.5430    0.1090   -0.1189 H   0  0  0  0  0  0  0  0  0  0  0  0
   -1.6921    4.8004   -0.9528 H   0  0  0  0  0  0  0  0  0  0  0  0
   -0.6609    4.2016    0.3421 H   0  0  0  0  0  0  0  0  0  0  0  0
    0.0159    4.4362   -1.2841 H   0  0  0  0  0  0  0  0  0  0  0  0
    2.0728   -8.2527    0.8814 H   0  0  0  0  0  0  0  0  0  0  0  0
    0.7731   -6.1819    0.1493 H   0  0  0  0  0  0  0  0  0  0  0  0
    1.5765  -11.3403   -3.2547 H   0  0  0  0  0  0  0  0  0  0  0  0
   -2.0232  -13.3545   -4.1222 H   0  0  0  0  0  0  0  0  0  0  0  0
   -2.6200  -11.5990   -5.6725 H   0  0  0  0  0  0  0  0  0  0  0  0
   -1.1677   -9.6745   -5.9623 H   0  0  0  0  0  0  0  0  0  0  0  0
   -0.2528  -14.3740   -2.8799 H   0  0  0  0  0  0  0  0  0  0  0  0
    0.5276  -15.4255   -1.0771 H   0  0  0  0  0  0  0  0  0  0  0  0
    1.5479  -13.8289    1.1056 H   0  0  0  0  0  0  0  0  0  0  0  0
    1.3149  -15.5163    1.0681 H   0  0  0  0  0  0  0  0  0  0  0  0
  1  2  1  0  0  0  0 
  1  6  2  0  0  0  0 
  2  3  2  0  0  0  0 
  3  4  1  0  0  0  0 
  4  5  2  0  0  0  0 
  5  6  1  0  0  0  0 
  5  7  1  0  0  0  0 
  7  8  1  0  0  0  0 
  9 10  1  0  0  0  0 
 10 11  2  0  0  0  0 
 11 12  1  0  0  0  0 
 12 13  2  0  0  0  0 
  8  9  2  0  0  0  0 
  8 13  1  0  0  0  0 
 11 14  1  0  0  0  0 
 15 16  1  0  0  0  0 
 16 17  1  0  0  0  0 
 17 18  1  0  0  0  0 
 18 19  1  0  0  0  0 
 14 15  1  0  0  0  0 
 14 19  1  0  0  0  0 
 17 20  1  0  0  0  0 
 21 22  1  0  0  0  0 
 22 23  2  0  0  0  0 
  1 23  1  0  0  0  0 
  2 21  1  0  0  0  0 
  3 24  1  0  0  0  0 
 24 25  1  0  0  0  0 
 26 27  1  0  0  0  0 
 27 28  2  0  0  0  0 
 28 29  1  0  0  0  0 
 29 30  2  0  0  0  0 
 25 26  2  0  0  0  0 
 25 30  1  0  0  0  0 
 27 31  1  0  0  0  0 
 31 32  1  0  0  0  0 
 32 33  2  0  0  0  0 
 32 34  1  0  0  0  0 
 34 35  2  0  0  0  0 
  7 36  1  0  0  0  0 
  9 37  1  0  0  0  0 
 10 38  1  0  0  0  0 
 12 39  1  0  0  0  0 
 13 40  1  0  0  0  0 
 15 41  1  0  0  0  0 
 15 42  1  0  0  0  0 
 16 43  1  0  0  0  0 
 16 44  1  0  0  0  0 
 18 45  1  0  0  0  0 
 18 46  1  0  0  0  0 
 19 47  1  0  0  0  0 
 19 48  1  0  0  0  0 
 20 49  1  0  0  0  0 
 20 50  1  0  0  0  0 
 20 51  1  0  0  0  0 
 22 52  1  0  0  0  0 
 23 53  1  0  0  0  0 
 26 54  1  0  0  0  0 
 28 55  1  0  0  0  0 
 29 56  1  0  0  0  0 
 30 57  1  0  0  0  0 
 31 58  1  0  0  0  0 
 34 59  1  0  0  0  0 
 35 60  1  0  0  0  0 
 35 61  1  0  0  0  0 
M  END
> <cdk:Title>
olmutinib

> <Conformer>
1

> <SuperDrugID>
SD003940

$$$$
