propylhexedrine
  CDK     0628171801

 32 32  0  0  0  0  0  0  0  0999 V2000
  -14.1783   33.1525    8.6449 C   0  0  2  0  0  0  0  0  0  0  0  0
  -12.7257   33.6964    8.7001 C   0  0  2  0  0  0  0  0  0  0  0  0
  -11.9621   33.4319    7.3768 C   0  0  1  0  0  0  0  0  0  0  0  0
  -12.7424   33.9736    6.1524 C   0  0  1  0  0  0  0  0  0  0  0  0
  -14.1977   33.4385    6.1043 C   0  0  2  0  0  0  0  0  0  0  0  0
  -14.9833   33.7114    7.4268 C   0  0  1  0  0  0  0  0  0  0  0  0
  -16.4369   33.1286    7.4088 C   0  0  1  0  0  0  0  0  0  0  0  0
  -17.3950   33.6164    6.2702 C   0  0  1  0  0  0  0  0  0  0  0  0
  -18.7338   32.9712    6.3266 N   0  0  1  0  0  0  0  0  0  0  0  0
  -18.8065   31.5269    6.0267 C   0  0  0  0  0  0  0  0  0  0  0  0
  -17.6463   35.1462    6.3004 C   0  0  0  0  0  0  0  0  0  0  0  0
  -14.6829   33.4247    9.5754 H   0  0  0  0  0  0  0  0  0  0  0  0
  -14.1432   32.0600    8.5933 H   0  0  0  0  0  0  0  0  0  0  0  0
  -12.1928   33.2196    9.5274 H   0  0  0  0  0  0  0  0  0  0  0  0
  -12.7496   34.7722    8.8955 H   0  0  0  0  0  0  0  0  0  0  0  0
  -10.9823   33.9161    7.4239 H   0  0  0  0  0  0  0  0  0  0  0  0
  -11.7974   32.3560    7.2613 H   0  0  0  0  0  0  0  0  0  0  0  0
  -12.7579   35.0673    6.1911 H   0  0  0  0  0  0  0  0  0  0  0  0
  -12.2185   33.6820    5.2382 H   0  0  0  0  0  0  0  0  0  0  0  0
  -14.1758   32.3635    5.9044 H   0  0  0  0  0  0  0  0  0  0  0  0
  -14.6959   33.9260    5.2663 H   0  0  0  0  0  0  0  0  0  0  0  0
  -15.0592   34.7949    7.5589 H   0  0  0  0  0  0  0  0  0  0  0  0
  -16.3541   32.0411    7.3409 H   0  0  0  0  0  0  0  0  0  0  0  0
  -16.9140   33.3585    8.3668 H   0  0  0  0  0  0  0  0  0  0  0  0
  -16.9524   33.3749    5.3007 H   0  0  0  0  0  0  0  0  0  0  0  0
  -19.1279   33.1237    7.2568 H   0  0  0  0  0  0  0  0  0  0  0  0
  -19.8469   31.2637    5.8387 H   0  0  0  0  0  0  0  0  0  0  0  0
  -18.4502   30.9411    6.8733 H   0  0  0  0  0  0  0  0  0  0  0  0
  -18.2229   31.2783    5.1391 H   0  0  0  0  0  0  0  0  0  0  0  0
  -16.7218   35.6943    6.1139 H   0  0  0  0  0  0  0  0  0  0  0  0
  -18.3588   35.4246    5.5202 H   0  0  0  0  0  0  0  0  0  0  0  0
  -18.0519   35.4498    7.2693 H   0  0  0  0  0  0  0  0  0  0  0  0
  1  2  1  0  0  0  0 
  2  3  1  0  0  0  0 
  3  4  1  0  0  0  0 
  4  5  1  0  0  0  0 
  5  6  1  0  0  0  0 
  1  6  1  0  0  0  0 
  6  7  1  0  0  0  0 
  8  7  1  0  0  0  0 
  8  9  1  0  0  0  0 
  9 10  1  0  0  0  0 
  8 11  1  0  0  0  0 
  1 12  1  0  0  0  0 
  1 13  1  0  0  0  0 
  2 14  1  0  0  0  0 
  2 15  1  0  0  0  0 
  3 16  1  0  0  0  0 
  3 17  1  0  0  0  0 
  4 18  1  0  0  0  0 
  4 19  1  0  0  0  0 
  5 20  1  0  0  0  0 
  5 21  1  0  0  0  0 
  6 22  1  0  0  0  0 
  7 23  1  0  0  0  0 
  7 24  1  0  0  0  0 
  8 25  1  0  0  0  0 
  9 26  1  0  0  0  0 
 10 27  1  0  0  0  0 
 10 28  1  0  0  0  0 
 10 29  1  0  0  0  0 
 11 30  1  0  0  0  0 
 11 31  1  0  0  0  0 
 11 32  1  0  0  0  0 
M  END
> <cdk:Title>
propylhexedrine

> <Conformer>
1

> <SuperDrugID>
SD002069

$$$$
