fenticlor
  CDK     0628171801

 25 26  0  0  0  0  0  0  0  0999 V2000
    0.8363   -1.1724   -2.4876 S   0  0  0  0  0  0  0  0  0  0  0  0
    1.8648   -0.1224   -3.4591 C   0  0  0  0  0  0  0  0  0  0  0  0
    1.9214   -0.2599   -4.8644 C   0  0  0  0  0  0  0  0  0  0  0  0
    2.6512    0.8603   -2.8217 C   0  0  0  0  0  0  0  0  0  0  0  0
    1.1595   -1.1664   -5.5247 O   0  0  0  0  0  0  0  0  0  0  0  0
    2.7803    0.5660   -5.6138 C   0  0  0  0  0  0  0  0  0  0  0  0
    3.4920    1.6987   -3.5777 C   0  0  0  0  0  0  0  0  0  0  0  0
    3.5606    1.5453   -4.9751 C   0  0  0  0  0  0  0  0  0  0  0  0
    4.4152    2.8904   -2.8096 Cl  0  0  0  0  0  0  0  0  0  0  0  0
   -0.2863   -0.0811   -1.6756 C   0  0  0  0  0  0  0  0  0  0  0  0
   -0.0824    0.3091   -0.3319 C   0  0  0  0  0  0  0  0  0  0  0  0
   -1.4036    0.4069   -2.3869 C   0  0  0  0  0  0  0  0  0  0  0  0
   -2.3180    1.2815   -1.7667 C   0  0  0  0  0  0  0  0  0  0  0  0
   -2.1219    1.6526   -0.4217 C   0  0  0  0  0  0  0  0  0  0  0  0
   -1.0082    1.1707    0.2918 C   0  0  0  0  0  0  0  0  0  0  0  0
    0.9963   -0.1336    0.3693 O   0  0  0  0  0  0  0  0  0  0  0  0
   -3.6414    1.8901   -2.6333 Cl  0  0  0  0  0  0  0  0  0  0  0  0
    2.6133    0.9673   -1.8052 H   0  0  0  0  0  0  0  0  0  0  0  0
    0.2409   -0.9883   -5.2303 H   0  0  0  0  0  0  0  0  0  0  0  0
    2.8340    0.4599   -6.6280 H   0  0  0  0  0  0  0  0  0  0  0  0
    4.1712    2.1467   -5.5342 H   0  0  0  0  0  0  0  0  0  0  0  0
   -1.5526    0.1244   -3.3599 H   0  0  0  0  0  0  0  0  0  0  0  0
   -2.7857    2.2790    0.0419 H   0  0  0  0  0  0  0  0  0  0  0  0
   -0.8743    1.4531    1.2664 H   0  0  0  0  0  0  0  0  0  0  0  0
    1.0665    0.4506    1.1557 H   0  0  0  0  0  0  0  0  0  0  0  0
  1  2  1  0  0  0  0 
  2  3  2  0  0  0  0 
  2  4  1  0  0  0  0 
  3  5  1  0  0  0  0 
  3  6  1  0  0  0  0 
  4  7  2  0  0  0  0 
  6  8  2  0  0  0  0 
  7  8  1  0  0  0  0 
  7  9  1  0  0  0  0 
  1 10  1  0  0  0  0 
 12 13  2  0  0  0  0 
 13 14  1  0  0  0  0 
 14 15  2  0  0  0  0 
 11 15  1  0  0  0  0 
 11 10  2  0  0  0  0 
 10 12  1  0  0  0  0 
 11 16  1  0  0  0  0 
 13 17  1  0  0  0  0 
  4 18  1  0  0  0  0 
  5 19  1  0  0  0  0 
  6 20  1  0  0  0  0 
  8 21  1  0  0  0  0 
 12 22  1  0  0  0  0 
 14 23  1  0  0  0  0 
 15 24  1  0  0  0  0 
 16 25  1  0  0  0  0 
M  END
> <cdk:Title>
fenticlor

> <Conformer>
1

> <SuperDrugID>
SD002793

$$$$
