dexibuprofen
  CDK     0628171801

 33 33  0  0  0  0  0  0  0  0999 V2000
  -29.1176   -7.4422  -12.7149 C   0  0  0  0  0  0  0  0  0  0  0  0
  -28.1054   -6.9077  -11.6624 C   0  0  2  0  0  0  0  0  0  0  0  0
  -27.9717   -5.3606  -11.7772 C   0  0  0  0  0  0  0  0  0  0  0  0
  -26.7333   -7.6467  -11.7879 C   0  0  1  0  0  0  0  0  0  0  0  0
  -25.7506   -7.2589  -10.7386 C   0  0  0  0  0  0  0  0  0  0  0  0
  -25.7556   -7.8961   -9.4788 C   0  0  0  0  0  0  0  0  0  0  0  0
  -24.8273   -7.5305   -8.4876 C   0  0  0  0  0  0  0  0  0  0  0  0
  -23.8807   -6.4983   -8.7088 C   0  0  0  0  0  0  0  0  0  0  0  0
  -23.8854   -5.8612   -9.9736 C   0  0  0  0  0  0  0  0  0  0  0  0
  -24.7988   -6.2401  -10.9747 C   0  0  0  0  0  0  0  0  0  0  0  0
  -22.8913   -6.1004   -7.6527 C   0  0  2  0  0  0  0  0  0  0  0  0
  -21.9261   -7.2612   -7.2928 C   0  0  0  0  0  0  0  0  0  0  0  0
  -23.5481   -5.5471   -6.4392 C   0  0  0  0  0  0  0  0  0  0  0  0
  -23.2570   -4.2975   -6.0052 O   0  0  0  0  0  0  0  0  0  0  0  0
  -24.3771   -6.2097   -5.7740 O   0  0  0  0  0  0  0  0  0  0  0  0
  -29.2608   -8.5191  -12.5971 H   0  0  0  0  0  0  0  0  0  0  0  0
  -28.7590   -7.2470  -13.7283 H   0  0  0  0  0  0  0  0  0  0  0  0
  -30.0906   -6.9597  -12.5910 H   0  0  0  0  0  0  0  0  0  0  0  0
  -28.5259   -7.1294  -10.6755 H   0  0  0  0  0  0  0  0  0  0  0  0
  -28.9528   -4.8827  -11.7378 H   0  0  0  0  0  0  0  0  0  0  0  0
  -27.4872   -5.0857  -12.7165 H   0  0  0  0  0  0  0  0  0  0  0  0
  -27.3820   -4.9617  -10.9502 H   0  0  0  0  0  0  0  0  0  0  0  0
  -26.8981   -8.7268  -11.7249 H   0  0  0  0  0  0  0  0  0  0  0  0
  -26.3100   -7.4646  -12.7797 H   0  0  0  0  0  0  0  0  0  0  0  0
  -26.4352   -8.6352   -9.2752 H   0  0  0  0  0  0  0  0  0  0  0  0
  -24.8532   -8.0299   -7.5965 H   0  0  0  0  0  0  0  0  0  0  0  0
  -23.2228   -5.1088  -10.1802 H   0  0  0  0  0  0  0  0  0  0  0  0
  -24.7718   -5.7595  -11.8785 H   0  0  0  0  0  0  0  0  0  0  0  0
  -22.2479   -5.3071   -8.0488 H   0  0  0  0  0  0  0  0  0  0  0  0
  -21.1641   -6.9110   -6.5930 H   0  0  0  0  0  0  0  0  0  0  0  0
  -22.4603   -8.0928   -6.8318 H   0  0  0  0  0  0  0  0  0  0  0  0
  -21.4181   -7.6286   -8.1875 H   0  0  0  0  0  0  0  0  0  0  0  0
  -23.6963   -3.9401   -5.2052 H   0  0  0  0  0  0  0  0  0  0  0  0
  1  2  1  0  0  0  0 
  2  3  1  0  0  0  0 
  2  4  1  0  0  0  0 
  4  5  1  0  0  0  0 
  5  6  2  0  0  0  0 
  6  7  1  0  0  0  0 
  7  8  2  0  0  0  0 
  8  9  1  0  0  0  0 
  9 10  2  0  0  0  0 
  5 10  1  0  0  0  0 
  8 11  1  0  0  0  0 
 11 12  1  0  0  0  0 
 11 13  1  0  0  0  0 
 13 14  1  0  0  0  0 
 13 15  2  0  0  0  0 
  1 16  1  0  0  0  0 
  1 17  1  0  0  0  0 
  1 18  1  0  0  0  0 
  2 19  1  0  0  0  0 
  3 20  1  0  0  0  0 
  3 21  1  0  0  0  0 
  3 22  1  0  0  0  0 
  4 23  1  0  0  0  0 
  4 24  1  0  0  0  0 
  6 25  1  0  0  0  0 
  7 26  1  0  0  0  0 
  9 27  1  0  0  0  0 
 10 28  1  0  0  0  0 
 11 29  1  0  0  0  0 
 12 30  1  0  0  0  0 
 12 31  1  0  0  0  0 
 12 32  1  0  0  0  0 
 14 33  1  0  0  0  0 
M  END
> <cdk:Title>
dexibuprofen

> <Conformer>
1

> <SuperDrugID>
SD003284

$$$$
