metrizamide
  CDK     0628171801

 54 55  0  0  0  0  0  0  0  0999 V2000
   -0.6691   -5.7362   -2.7130 C   0  0  0  0  0  0  0  0  0  0  0  0
   -0.6344   -4.4673   -2.2193 N   0  0  0  0  0  0  0  0  0  0  0  0
    0.4319   -3.8856   -1.4503 C   0  0  2  0  0  0  0  0  0  0  0  0
   -0.1490   -3.1620   -0.2024 C   0  0  1  0  0  0  0  0  0  0  0  0
   -0.7792   -4.1188    0.6508 O   0  0  0  0  0  0  0  0  0  0  0  0
    0.9683   -2.4161    0.5805 C   0  0  2  0  0  0  0  0  0  0  0  0
    0.3715   -1.6610    1.6342 O   0  0  0  0  0  0  0  0  0  0  0  0
    1.7957   -1.4966   -0.3715 C   0  0  2  0  0  0  0  0  0  0  0  0
    2.2894   -2.2532   -1.5011 O   0  0  0  0  0  0  0  0  0  0  0  0
    1.2656   -2.8850   -2.2995 C   0  0  1  0  0  0  0  0  0  0  0  0
    1.9255   -3.5802   -3.3524 O   0  0  0  0  0  0  0  0  0  0  0  0
    3.0136   -0.8505    0.3378 C   0  0  2  0  0  0  0  0  0  0  0  0
    3.7468   -0.0249   -0.5608 O   0  0  0  0  0  0  0  0  0  0  0  0
    0.2985   -6.5236   -2.5830 O   0  0  0  0  0  0  0  0  0  0  0  0
   -1.8187   -6.1946   -3.3848 C   0  0  0  0  0  0  0  0  0  0  0  0
   -2.5780   -7.2618   -2.8402 C   0  0  0  0  0  0  0  0  0  0  0  0
   -2.0715   -8.1033   -1.0252 I   0  0  0  0  0  0  0  0  0  0  0  0
   -3.7039   -7.7651   -3.5350 C   0  0  0  0  0  0  0  0  0  0  0  0
   -4.4231   -8.8238   -3.0331 N   0  0  0  0  0  0  0  0  0  0  0  0
   -5.4699   -8.6480   -2.1381 C   0  0  0  0  0  0  0  0  0  0  0  0
   -5.9437   -7.3410   -1.6248 C   0  0  0  0  0  0  0  0  0  0  0  0
   -6.0685   -9.6492   -1.6746 O   0  0  0  0  0  0  0  0  0  0  0  0
   -4.0334  -10.1506   -3.4572 C   0  0  0  0  0  0  0  0  0  0  0  0
   -4.0689   -7.1949   -4.7753 C   0  0  0  0  0  0  0  0  0  0  0  0
   -3.3235   -6.1240   -5.3118 C   0  0  0  0  0  0  0  0  0  0  0  0
   -2.2054   -5.6148   -4.6173 C   0  0  0  0  0  0  0  0  0  0  0  0
   -1.1419   -4.0588   -5.4616 I   0  0  0  0  0  0  0  0  0  0  0  0
   -3.6740   -5.5977   -6.5117 N   0  0  0  0  0  0  0  0  0  0  0  0
   -3.2443   -6.0911   -7.7059 C   0  0  0  0  0  0  0  0  0  0  0  0
   -3.7364   -5.4777   -8.9491 C   0  0  0  0  0  0  0  0  0  0  0  0
   -2.4493   -7.0598   -7.7694 O   0  0  0  0  0  0  0  0  0  0  0  0
   -5.6824   -7.9390   -5.8206 I   0  0  0  0  0  0  0  0  0  0  0  0
   -1.4128   -3.9134   -2.3868 H   0  0  0  0  0  0  0  0  0  0  0  0
    1.1140   -4.6636   -1.0909 H   0  0  0  0  0  0  0  0  0  0  0  0
   -0.9128   -2.4430   -0.5197 H   0  0  0  0  0  0  0  0  0  0  0  0
   -1.1779   -3.5969    1.3789 H   0  0  0  0  0  0  0  0  0  0  0  0
    1.6315   -3.1597    1.0325 H   0  0  0  0  0  0  0  0  0  0  0  0
    1.1208   -1.2941    2.1474 H   0  0  0  0  0  0  0  0  0  0  0  0
    1.1529   -0.6856   -0.7314 H   0  0  0  0  0  0  0  0  0  0  0  0
    0.6187   -2.1270   -2.7520 H   0  0  0  0  0  0  0  0  0  0  0  0
    2.4369   -2.8923   -3.8281 H   0  0  0  0  0  0  0  0  0  0  0  0
    3.6835   -1.6240    0.7188 H   0  0  0  0  0  0  0  0  0  0  0  0
    2.6831   -0.2263    1.1708 H   0  0  0  0  0  0  0  0  0  0  0  0
    4.4652    0.3610   -0.0156 H   0  0  0  0  0  0  0  0  0  0  0  0
   -7.0343   -7.3330   -1.5728 H   0  0  0  0  0  0  0  0  0  0  0  0
   -5.6366   -6.5094   -2.2572 H   0  0  0  0  0  0  0  0  0  0  0  0
   -5.5396   -7.1822   -0.6236 H   0  0  0  0  0  0  0  0  0  0  0  0
   -4.8393  -10.6036   -4.0390 H   0  0  0  0  0  0  0  0  0  0  0  0
   -3.1304  -10.1511   -4.0769 H   0  0  0  0  0  0  0  0  0  0  0  0
   -3.8313  -10.7790   -2.5867 H   0  0  0  0  0  0  0  0  0  0  0  0
   -4.2747   -4.8347   -6.5163 H   0  0  0  0  0  0  0  0  0  0  0  0
   -3.3739   -6.0223   -9.8251 H   0  0  0  0  0  0  0  0  0  0  0  0
   -4.8280   -5.4941   -8.9548 H   0  0  0  0  0  0  0  0  0  0  0  0
   -3.3928   -4.4435   -9.0104 H   0  0  0  0  0  0  0  0  0  0  0  0
  1  2  1  0  0  0  0 
  1 14  2  0  0  0  0 
  1 15  1  0  0  0  0 
  3  2  1  0  0  0  0 
  4  3  1  0  0  0  0 
  3 10  1  0  0  0  0 
  4  5  1  0  0  0  0 
  6  4  1  0  0  0  0 
  6  7  1  0  0  0  0 
  8  6  1  0  0  0  0 
  8 12  1  0  0  0  0 
  8  9  1  0  0  0  0 
 10  9  1  0  0  0  0 
 10 11  1  0  0  0  0 
 12 13  1  0  0  0  0 
 15 16  2  0  0  0  0 
 15 26  1  0  0  0  0 
 16 17  1  0  0  0  0 
 16 18  1  0  0  0  0 
 18 19  1  0  0  0  0 
 18 24  2  0  0  0  0 
 19 20  1  0  0  0  0 
 19 23  1  0  0  0  0 
 20 21  1  0  0  0  0 
 20 22  2  0  0  0  0 
 24 32  1  0  0  0  0 
 25 24  1  0  0  0  0 
 25 28  1  0  0  0  0 
 26 25  2  0  0  0  0 
 26 27  1  0  0  0  0 
 28 29  1  0  0  0  0 
 29 30  1  0  0  0  0 
 29 31  2  0  0  0  0 
  2 33  1  0  0  0  0 
  3 34  1  0  0  0  0 
  4 35  1  0  0  0  0 
  5 36  1  0  0  0  0 
  6 37  1  0  0  0  0 
  7 38  1  0  0  0  0 
  8 39  1  0  0  0  0 
 10 40  1  0  0  0  0 
 11 41  1  0  0  0  0 
 12 42  1  0  0  0  0 
 12 43  1  0  0  0  0 
 13 44  1  0  0  0  0 
 21 45  1  0  0  0  0 
 21 46  1  0  0  0  0 
 21 47  1  0  0  0  0 
 23 48  1  0  0  0  0 
 23 49  1  0  0  0  0 
 23 50  1  0  0  0  0 
 28 51  1  0  0  0  0 
 30 52  1  0  0  0  0 
 30 53  1  0  0  0  0 
 30 54  1  0  0  0  0 
M  END
> <cdk:Title>
metrizamide

> <Conformer>
1

> <SuperDrugID>
SD001588

$$$$
