pipamazine
  CDK     0628171801

 51 54  0  0  0  0  0  0  0  0999 V2000
   10.5547   -3.5023    4.2495 N   0  0  0  0  0  0  0  0  0  0  0  0
   10.7939   -2.8684    5.4125 C   0  0  0  0  0  0  0  0  0  0  0  0
   10.7545   -3.5454    6.4659 O   0  0  0  0  0  0  0  0  0  0  0  0
   11.0871   -1.4145    5.4498 C   0  0  2  0  0  0  0  0  0  0  0  0
   12.5060   -1.1403    6.0347 C   0  0  2  0  0  0  0  0  0  0  0  0
   12.7558    0.3786    6.2231 C   0  0  2  0  0  0  0  0  0  0  0  0
   11.6817    1.0519    7.0238 N   0  0  2  0  0  0  0  0  0  0  0  0
   11.6799    0.7940    8.5045 C   0  0  2  0  0  0  0  0  0  0  0  0
   12.9548    1.2311    9.2762 C   0  0  2  0  0  0  0  0  0  0  0  0
   13.3623    2.7161    9.0491 C   0  0  1  0  0  0  0  0  0  0  0  0
   14.5067    3.1467    9.8501 N   0  0  0  0  0  0  0  0  0  0  0  0
   15.7033    2.4241    9.8095 C   0  0  0  0  0  0  0  0  0  0  0  0
   16.2384    1.9188    8.5951 C   0  0  0  0  0  0  0  0  0  0  0  0
   17.4244    1.1614    8.5748 C   0  0  0  0  0  0  0  0  0  0  0  0
   18.1122    0.9000    9.7711 C   0  0  0  0  0  0  0  0  0  0  0  0
   17.6156    1.3994   10.9865 C   0  0  0  0  0  0  0  0  0  0  0  0
   16.4285    2.1544   11.0000 C   0  0  0  0  0  0  0  0  0  0  0  0
   15.8439    2.8111   12.5229 S   0  0  0  0  0  0  0  0  0  0  0  0
   14.9435    4.2291   12.0027 C   0  0  0  0  0  0  0  0  0  0  0  0
   14.8185    5.3244   12.8776 C   0  0  0  0  0  0  0  0  0  0  0  0
   14.1522    6.4852   12.4553 C   0  0  0  0  0  0  0  0  0  0  0  0
   13.6213    6.5563   11.1541 C   0  0  0  0  0  0  0  0  0  0  0  0
   12.8491    7.9718   10.6360 Cl  0  0  0  0  0  0  0  0  0  0  0  0
   13.7463    5.4512   10.2858 C   0  0  0  0  0  0  0  0  0  0  0  0
   14.3939    4.2555   10.6957 C   0  0  0  0  0  0  0  0  0  0  0  0
   10.3414    0.8546    6.3812 C   0  0  2  0  0  0  0  0  0  0  0  0
    9.9758   -0.6456    6.2239 C   0  0  1  0  0  0  0  0  0  0  0  0
   10.3551   -4.4528    4.2471 H   0  0  0  0  0  0  0  0  0  0  0  0
   10.5799   -3.0108    3.4119 H   0  0  0  0  0  0  0  0  0  0  0  0
   11.0835   -1.0323    4.4232 H   0  0  0  0  0  0  0  0  0  0  0  0
   13.2646   -1.5451    5.3570 H   0  0  0  0  0  0  0  0  0  0  0  0
   12.6272   -1.6377    6.9999 H   0  0  0  0  0  0  0  0  0  0  0  0
   12.8001    0.8532    5.2366 H   0  0  0  0  0  0  0  0  0  0  0  0
   13.7371    0.5264    6.6730 H   0  0  0  0  0  0  0  0  0  0  0  0
   11.5165   -0.2675    8.7087 H   0  0  0  0  0  0  0  0  0  0  0  0
   10.8428    1.3365    8.9523 H   0  0  0  0  0  0  0  0  0  0  0  0
   13.7749    0.5684    9.0004 H   0  0  0  0  0  0  0  0  0  0  0  0
   12.7723    1.0820   10.3452 H   0  0  0  0  0  0  0  0  0  0  0  0
   13.5817    2.8758    7.9912 H   0  0  0  0  0  0  0  0  0  0  0  0
   12.4708    3.3097    9.2768 H   0  0  0  0  0  0  0  0  0  0  0  0
   15.7725    2.1010    7.7051 H   0  0  0  0  0  0  0  0  0  0  0  0
   17.7899    0.8026    7.6897 H   0  0  0  0  0  0  0  0  0  0  0  0
   18.9753    0.3532    9.7587 H   0  0  0  0  0  0  0  0  0  0  0  0
   18.1268    1.2145   11.8532 H   0  0  0  0  0  0  0  0  0  0  0  0
   15.2218    5.2891   13.8175 H   0  0  0  0  0  0  0  0  0  0  0  0
   14.0650    7.2755   13.0979 H   0  0  0  0  0  0  0  0  0  0  0  0
   13.3670    5.5286    9.3391 H   0  0  0  0  0  0  0  0  0  0  0  0
   10.3528    1.3217    5.3919 H   0  0  0  0  0  0  0  0  0  0  0  0
    9.5598    1.3608    6.9546 H   0  0  0  0  0  0  0  0  0  0  0  0
    9.0304   -0.7270    5.6834 H   0  0  0  0  0  0  0  0  0  0  0  0
    9.8262   -1.0853    7.2147 H   0  0  0  0  0  0  0  0  0  0  0  0
  1  2  1  0  0  0  0 
  2  3  2  0  0  0  0 
  2  4  1  0  0  0  0 
  4  5  1  0  0  0  0 
  5  6  1  0  0  0  0 
  6  7  1  0  0  0  0 
  7  8  1  0  0  0  0 
  8  9  1  0  0  0  0 
  9 10  1  0  0  0  0 
 10 11  1  0  0  0  0 
 11 12  1  0  0  0  0 
 12 13  2  0  0  0  0 
 13 14  1  0  0  0  0 
 14 15  2  0  0  0  0 
 15 16  1  0  0  0  0 
 16 17  2  0  0  0  0 
 12 17  1  0  0  0  0 
 17 18  1  0  0  0  0 
 18 19  1  0  0  0  0 
 19 20  2  0  0  0  0 
 20 21  1  0  0  0  0 
 21 22  2  0  0  0  0 
 22 23  1  0  0  0  0 
 22 24  1  0  0  0  0 
 24 25  2  0  0  0  0 
 11 25  1  0  0  0  0 
 19 25  1  0  0  0  0 
  7 26  1  0  0  0  0 
 26 27  1  0  0  0  0 
  4 27  1  0  0  0  0 
  1 28  1  0  0  0  0 
  1 29  1  0  0  0  0 
  4 30  1  0  0  0  0 
  5 31  1  0  0  0  0 
  5 32  1  0  0  0  0 
  6 33  1  0  0  0  0 
  6 34  1  0  0  0  0 
  8 35  1  0  0  0  0 
  8 36  1  0  0  0  0 
  9 37  1  0  0  0  0 
  9 38  1  0  0  0  0 
 10 39  1  0  0  0  0 
 10 40  1  0  0  0  0 
 13 41  1  0  0  0  0 
 14 42  1  0  0  0  0 
 15 43  1  0  0  0  0 
 16 44  1  0  0  0  0 
 20 45  1  0  0  0  0 
 21 46  1  0  0  0  0 
 24 47  1  0  0  0  0 
 26 48  1  0  0  0  0 
 26 49  1  0  0  0  0 
 27 50  1  0  0  0  0 
 27 51  1  0  0  0  0 
M  END
> <cdk:Title>
pipamazine

> <Conformer>
1

> <SuperDrugID>
SD001955

$$$$
