netupitant
  CDK     0628171802

 73 76  0  0  0  0  0  0  0  0999 V2000
    2.8276   -1.7606   -5.2065 N   0  0  0  0  0  0  0  0  0  0  0  0
    1.5560   -1.8804   -5.6577 C   0  0  0  0  0  0  0  0  0  0  0  0
    0.5292   -1.5829   -4.7352 C   0  0  0  0  0  0  0  0  0  0  0  0
    0.8199   -1.1722   -3.4081 C   0  0  0  0  0  0  0  0  0  0  0  0
    2.1816   -1.1236   -2.9532 C   0  0  0  0  0  0  0  0  0  0  0  0
    3.1610   -1.4129   -3.9437 C   0  0  0  0  0  0  0  0  0  0  0  0
    2.6170   -0.8624   -1.6404 N   0  0  0  0  0  0  0  0  0  0  0  0
    1.3261   -2.3229   -6.9526 N   0  0  0  0  0  0  0  0  0  0  0  0
    1.5004   -4.5718   -7.8651 C   0  0  1  0  0  0  0  0  0  0  0  0
    0.1829   -4.3680   -8.5471 N   0  0  2  0  0  0  0  0  0  0  0  0
   -0.6726   -3.3322   -7.8877 C   0  0  1  0  0  0  0  0  0  0  0  0
    0.1248   -2.0184   -7.7023 C   0  0  1  0  0  0  0  0  0  0  0  0
    2.2377   -3.2296   -7.6239 C   0  0  1  0  0  0  0  0  0  0  0  0
   -0.5441   -5.6457   -8.7792 C   0  0  0  0  0  0  0  0  0  0  0  0
   -0.3385   -0.8280   -2.6467 C   0  0  0  0  0  0  0  0  0  0  0  0
   -0.9486    0.4611   -2.7326 C   0  0  0  0  0  0  0  0  0  0  0  0
   -2.1536    0.7016   -2.0274 C   0  0  0  0  0  0  0  0  0  0  0  0
   -2.7659   -0.3119   -1.2732 C   0  0  0  0  0  0  0  0  0  0  0  0
   -2.1788   -1.5842   -1.2043 C   0  0  0  0  0  0  0  0  0  0  0  0
   -0.9791   -1.8414   -1.8906 C   0  0  0  0  0  0  0  0  0  0  0  0
   -0.3843    1.5562   -3.5671 C   0  0  0  0  0  0  0  0  0  0  0  0
    3.8652   -0.3231   -1.3731 C   0  0  0  0  0  0  0  0  0  0  0  0
    1.8820   -1.3229   -0.4844 C   0  0  0  0  0  0  0  0  0  0  0  0
    4.1330    1.1541   -1.2721 C   0  0  2  0  0  0  0  0  0  0  0  0
    4.7728   -1.1541   -1.1249 O   0  0  0  0  0  0  0  0  0  0  0  0
    3.3411    1.6569   -0.0702 C   0  0  0  0  0  0  0  0  0  0  0  0
    1.3451    2.8522    0.9064 C   0  0  0  0  0  0  0  0  0  0  0  0
    2.1237    2.3895   -0.1910 C   0  0  0  0  0  0  0  0  0  0  0  0
    3.7888    1.3538    1.2413 C   0  0  0  0  0  0  0  0  0  0  0  0
    3.0282    1.8722    2.3988 C   0  0  0  0  0  0  0  0  0  0  0  0
    1.7931    2.6163    2.2248 C   0  0  0  0  0  0  0  0  0  0  0  0
    0.0528    3.5808    0.7227 C   0  0  1  0  0  0  0  0  0  0  0  0
   -0.3264    3.7701   -0.5854 F   0  0  0  0  0  0  0  0  0  0  0  0
   -0.9644    2.8789    1.3261 F   0  0  0  0  0  0  0  0  0  0  0  0
    0.1237    4.8281    1.2967 F   0  0  0  0  0  0  0  0  0  0  0  0
    3.4423    1.7007    3.8638 C   0  0  2  0  0  0  0  0  0  0  0  0
    3.6115    2.9247    4.4650 F   0  0  0  0  0  0  0  0  0  0  0  0
    4.6359    1.0330    3.9874 F   0  0  0  0  0  0  0  0  0  0  0  0
    2.5024    0.9801    4.5596 F   0  0  0  0  0  0  0  0  0  0  0  0
    3.7655    1.8211   -2.6461 C   0  0  0  0  0  0  0  0  0  0  0  0
    5.6676    1.4758   -1.0857 C   0  0  0  0  0  0  0  0  0  0  0  0
   -0.4465   -1.6808   -5.0289 H   0  0  0  0  0  0  0  0  0  0  0  0
    4.1589   -1.3871   -3.7336 H   0  0  0  0  0  0  0  0  0  0  0  0
    1.3511   -5.0622   -6.8988 H   0  0  0  0  0  0  0  0  0  0  0  0
    2.1390   -5.2133   -8.4785 H   0  0  0  0  0  0  0  0  0  0  0  0
   -1.5490   -3.1220   -8.5062 H   0  0  0  0  0  0  0  0  0  0  0  0
   -1.0222   -3.6865   -6.9126 H   0  0  0  0  0  0  0  0  0  0  0  0
   -0.5067   -1.2641   -7.2316 H   0  0  0  0  0  0  0  0  0  0  0  0
    0.3917   -1.6212   -8.6856 H   0  0  0  0  0  0  0  0  0  0  0  0
    2.5517   -2.8020   -8.5815 H   0  0  0  0  0  0  0  0  0  0  0  0
    3.1475   -3.4382   -7.0538 H   0  0  0  0  0  0  0  0  0  0  0  0
   -1.4489   -5.4690   -9.3634 H   0  0  0  0  0  0  0  0  0  0  0  0
    0.0808   -6.3408   -9.3422 H   0  0  0  0  0  0  0  0  0  0  0  0
   -0.8235   -6.1136   -7.8329 H   0  0  0  0  0  0  0  0  0  0  0  0
   -2.6087    1.6179   -2.0663 H   0  0  0  0  0  0  0  0  0  0  0  0
   -3.6439   -0.1255   -0.7837 H   0  0  0  0  0  0  0  0  0  0  0  0
   -2.6317   -2.3242   -0.6624 H   0  0  0  0  0  0  0  0  0  0  0  0
   -0.5824   -2.7838   -1.8415 H   0  0  0  0  0  0  0  0  0  0  0  0
   -1.0307    2.4358   -3.6068 H   0  0  0  0  0  0  0  0  0  0  0  0
    0.5658    1.8728   -3.1550 H   0  0  0  0  0  0  0  0  0  0  0  0
   -0.2342    1.2156   -4.5923 H   0  0  0  0  0  0  0  0  0  0  0  0
    2.4728   -1.3179    0.4375 H   0  0  0  0  0  0  0  0  0  0  0  0
    1.0222   -0.6784   -0.3072 H   0  0  0  0  0  0  0  0  0  0  0  0
    1.5515   -2.3530   -0.6303 H   0  0  0  0  0  0  0  0  0  0  0  0
    1.7706    2.5898   -1.1225 H   0  0  0  0  0  0  0  0  0  0  0  0
    4.6188    0.7893    1.4088 H   0  0  0  0  0  0  0  0  0  0  0  0
    1.2588    2.9580    3.0283 H   0  0  0  0  0  0  0  0  0  0  0  0
    3.8368    2.9094   -2.5817 H   0  0  0  0  0  0  0  0  0  0  0  0
    2.7580    1.5718   -2.9563 H   0  0  0  0  0  0  0  0  0  0  0  0
    4.4260    1.4842   -3.4488 H   0  0  0  0  0  0  0  0  0  0  0  0
    5.8181    2.5449   -0.9204 H   0  0  0  0  0  0  0  0  0  0  0  0
    6.2500    1.1845   -1.9626 H   0  0  0  0  0  0  0  0  0  0  0  0
    6.1095    0.9450   -0.2430 H   0  0  0  0  0  0  0  0  0  0  0  0
  1  2  2  0  0  0  0 
  1  6  1  0  0  0  0 
  2  3  1  0  0  0  0 
  3  4  2  0  0  0  0 
  4  5  1  0  0  0  0 
  5  6  2  0  0  0  0 
  5  7  1  0  0  0  0 
  2  8  1  0  0  0  0 
  9 10  1  0  0  0  0 
 10 11  1  0  0  0  0 
 11 12  1  0  0  0  0 
  9 13  1  0  0  0  0 
 12  8  1  0  0  0  0 
  8 13  1  0  0  0  0 
 10 14  1  0  0  0  0 
  4 15  1  0  0  0  0 
 16 17  1  0  0  0  0 
 17 18  2  0  0  0  0 
 18 19  1  0  0  0  0 
 19 20  2  0  0  0  0 
 15 16  2  0  0  0  0 
 15 20  1  0  0  0  0 
 16 21  1  0  0  0  0 
  7 22  1  0  0  0  0 
  7 23  1  0  0  0  0 
 22 24  1  0  0  0  0 
 22 25  2  0  0  0  0 
 24 26  1  0  0  0  0 
 27 28  1  0  0  0  0 
 29 30  2  0  0  0  0 
 30 31  1  0  0  0  0 
 27 31  2  0  0  0  0 
 28 26  2  0  0  0  0 
 26 29  1  0  0  0  0 
 27 32  1  0  0  0  0 
 32 33  1  0  0  0  0 
 32 34  1  0  0  0  0 
 32 35  1  0  0  0  0 
 30 36  1  0  0  0  0 
 36 37  1  0  0  0  0 
 36 38  1  0  0  0  0 
 36 39  1  0  0  0  0 
 24 40  1  0  0  0  0 
 24 41  1  0  0  0  0 
  3 42  1  0  0  0  0 
  6 43  1  0  0  0  0 
  9 44  1  0  0  0  0 
  9 45  1  0  0  0  0 
 11 46  1  0  0  0  0 
 11 47  1  0  0  0  0 
 12 48  1  0  0  0  0 
 12 49  1  0  0  0  0 
 13 50  1  0  0  0  0 
 13 51  1  0  0  0  0 
 14 52  1  0  0  0  0 
 14 53  1  0  0  0  0 
 14 54  1  0  0  0  0 
 17 55  1  0  0  0  0 
 18 56  1  0  0  0  0 
 19 57  1  0  0  0  0 
 20 58  1  0  0  0  0 
 21 59  1  0  0  0  0 
 21 60  1  0  0  0  0 
 21 61  1  0  0  0  0 
 23 62  1  0  0  0  0 
 23 63  1  0  0  0  0 
 23 64  1  0  0  0  0 
 28 65  1  0  0  0  0 
 29 66  1  0  0  0  0 
 31 67  1  0  0  0  0 
 40 68  1  0  0  0  0 
 40 69  1  0  0  0  0 
 40 70  1  0  0  0  0 
 41 71  1  0  0  0  0 
 41 72  1  0  0  0  0 
 41 73  1  0  0  0  0 
M  END
> <cdk:Title>
netupitant

> <Conformer>
1

> <SuperDrugID>
SD003836

$$$$
