xenytropium
  CDK     0628171801

 68 72  0  0  0  0  0  0  0  0999 V2000
   -2.6173   -3.5482    2.1872 C   0  0  2  0  0  0  0  0  0  0  0  0
   -3.0977   -2.3171    1.4004 N   0  0  1  0  0  0  0  0  0  0  0  0
   -2.9609   -4.9076    1.6420 C   0  0  0  0  0  0  0  0  0  0  0  0
   -4.6201   -2.4412    1.2969 C   0  0  0  0  0  0  0  0  0  0  0  0
   -2.7248   -0.9717    2.0074 C   0  0  1  0  0  0  0  0  0  0  0  0
   -2.4245   -2.1061    0.0552 C   0  0  2  0  0  0  0  0  0  0  0  0
   -2.0765   -5.6134    0.7914 C   0  0  0  0  0  0  0  0  0  0  0  0
   -4.1843   -5.5394    1.9769 C   0  0  0  0  0  0  0  0  0  0  0  0
   -1.2128   -0.8550    2.4016 C   0  0  2  0  0  0  0  0  0  0  0  0
   -3.0392    0.0916    0.9018 C   0  0  1  0  0  0  0  0  0  0  0  0
   -0.8503   -2.1070    0.1180 C   0  0  1  0  0  0  0  0  0  0  0  0
   -2.9010   -0.7004   -0.4179 C   0  0  2  0  0  0  0  0  0  0  0  0
   -2.4221   -6.8653    0.2522 C   0  0  0  0  0  0  0  0  0  0  0  0
   -4.5435   -6.7834    1.4250 C   0  0  0  0  0  0  0  0  0  0  0  0
   -0.2391   -1.1678    1.2146 C   0  0  1  0  0  0  0  0  0  0  0  0
   -3.6714   -7.4551    0.5403 C   0  0  0  0  0  0  0  0  0  0  0  0
    0.2499    0.0476    0.6070 O   0  0  0  0  0  0  0  0  0  0  0  0
   -4.0432   -8.6730   -0.0863 C   0  0  0  0  0  0  0  0  0  0  0  0
    1.1301    0.9128    1.1981 C   0  0  0  0  0  0  0  0  0  0  0  0
   -3.2093   -9.8167   -0.0316 C   0  0  0  0  0  0  0  0  0  0  0  0
   -5.2494   -8.7478   -0.8228 C   0  0  0  0  0  0  0  0  0  0  0  0
    2.5650    0.5598    1.3726 C   0  0  1  0  0  0  0  0  0  0  0  0
    0.6936    2.0320    1.5522 O   0  0  0  0  0  0  0  0  0  0  0  0
   -3.5674  -10.9977   -0.7083 C   0  0  0  0  0  0  0  0  0  0  0  0
   -5.6035   -9.9258   -1.5039 C   0  0  0  0  0  0  0  0  0  0  0  0
    3.5209    1.6331    0.7688 C   0  0  2  0  0  0  0  0  0  0  0  0
    2.8300    0.2366    2.8177 C   0  0  0  0  0  0  0  0  0  0  0  0
   -4.7640  -11.0518   -1.4450 C   0  0  0  0  0  0  0  0  0  0  0  0
    3.2958    1.8096   -0.6278 O   0  0  0  0  0  0  0  0  0  0  0  0
    2.9668   -1.1179    3.2406 C   0  0  0  0  0  0  0  0  0  0  0  0
    2.9014    1.2684    3.7850 C   0  0  0  0  0  0  0  0  0  0  0  0
    3.1283   -1.5243    4.5868 C   0  0  0  0  0  0  0  0  0  0  0  0
    3.0867    0.8912    5.1674 C   0  0  0  0  0  0  0  0  0  0  0  0
    3.1912   -0.5133    5.6118 C   0  0  0  0  0  0  0  0  0  0  0  0
   -3.0158   -3.4868    3.2054 H   0  0  0  0  0  0  0  0  0  0  0  0
   -1.5381   -3.5396    2.3366 H   0  0  0  0  0  0  0  0  0  0  0  0
   -4.9060   -3.2510    0.6230 H   0  0  0  0  0  0  0  0  0  0  0  0
   -5.1224   -1.5549    0.9161 H   0  0  0  0  0  0  0  0  0  0  0  0
   -5.0734   -2.6301    2.2751 H   0  0  0  0  0  0  0  0  0  0  0  0
   -3.3155   -0.7629    2.9061 H   0  0  0  0  0  0  0  0  0  0  0  0
   -2.7398   -2.8690   -0.6670 H   0  0  0  0  0  0  0  0  0  0  0  0
   -1.1652   -5.2284    0.5524 H   0  0  0  0  0  0  0  0  0  0  0  0
   -4.8391   -5.0893    2.6199 H   0  0  0  0  0  0  0  0  0  0  0  0
   -1.0021   -1.5245    3.2359 H   0  0  0  0  0  0  0  0  0  0  0  0
   -1.0244    0.1476    2.7878 H   0  0  0  0  0  0  0  0  0  0  0  0
   -4.0538    0.4790    1.0151 H   0  0  0  0  0  0  0  0  0  0  0  0
   -2.3603    0.9496    0.9172 H   0  0  0  0  0  0  0  0  0  0  0  0
   -0.5064   -3.1208    0.2985 H   0  0  0  0  0  0  0  0  0  0  0  0
   -0.4462   -1.8437   -0.8652 H   0  0  0  0  0  0  0  0  0  0  0  0
   -3.8668   -0.7819   -0.9238 H   0  0  0  0  0  0  0  0  0  0  0  0
   -2.2040   -0.2202   -1.1104 H   0  0  0  0  0  0  0  0  0  0  0  0
   -1.7593   -7.3353   -0.3712 H   0  0  0  0  0  0  0  0  0  0  0  0
   -5.4486   -7.1947    1.6704 H   0  0  0  0  0  0  0  0  0  0  0  0
    0.6292   -1.6925    1.6214 H   0  0  0  0  0  0  0  0  0  0  0  0
   -2.3349   -9.8002    0.5006 H   0  0  0  0  0  0  0  0  0  0  0  0
   -5.8715   -7.9376   -0.8829 H   0  0  0  0  0  0  0  0  0  0  0  0
    2.7396   -0.3395    0.7739 H   0  0  0  0  0  0  0  0  0  0  0  0
   -2.9564  -11.8162   -0.6681 H   0  0  0  0  0  0  0  0  0  0  0  0
   -6.4689   -9.9592   -2.0463 H   0  0  0  0  0  0  0  0  0  0  0  0
    4.5611    1.3283    0.9045 H   0  0  0  0  0  0  0  0  0  0  0  0
    3.3824    2.6036    1.2500 H   0  0  0  0  0  0  0  0  0  0  0  0
   -5.0239  -11.9078   -1.9387 H   0  0  0  0  0  0  0  0  0  0  0  0
    3.9258    2.5140   -0.8959 H   0  0  0  0  0  0  0  0  0  0  0  0
    2.9339   -1.8606    2.5387 H   0  0  0  0  0  0  0  0  0  0  0  0
    2.8187    2.2529    3.5300 H   0  0  0  0  0  0  0  0  0  0  0  0
    3.1889   -2.5895    4.7295 H   0  0  0  0  0  0  0  0  0  0  0  0
    3.1326    1.7413    5.8186 H   0  0  0  0  0  0  0  0  0  0  0  0
    3.3006   -0.7556    6.5968 H   0  0  0  0  0  0  0  0  0  0  0  0
  1  2  1  0  0  0  0 
  1  3  1  0  0  0  0 
  2  4  1  0  0  0  0 
  3  7  2  0  0  0  0 
  3  8  1  0  0  0  0 
  5  2  1  0  0  0  0 
  5  9  1  0  0  0  0 
  5 10  1  0  0  0  0 
  6  2  1  0  0  0  0 
  6 11  1  0  0  0  0 
  6 12  1  0  0  0  0 
  7 13  1  0  0  0  0 
  8 14  2  0  0  0  0 
 15  9  1  0  0  0  0 
 10 12  1  0  0  0  0 
 15 11  1  0  0  0  0 
 13 16  2  0  0  0  0 
 14 16  1  0  0  0  0 
 15 17  1  0  0  0  0 
 16 18  1  0  0  0  0 
 17 19  1  0  0  0  0 
 18 20  2  0  0  0  0 
 18 21  1  0  0  0  0 
 19 22  1  0  0  0  0 
 19 23  2  0  0  0  0 
 20 24  1  0  0  0  0 
 21 25  2  0  0  0  0 
 22 26  1  0  0  0  0 
 22 27  1  0  0  0  0 
 24 28  2  0  0  0  0 
 25 28  1  0  0  0  0 
 26 29  1  0  0  0  0 
 27 30  2  0  0  0  0 
 27 31  1  0  0  0  0 
 30 32  1  0  0  0  0 
 31 33  2  0  0  0  0 
 32 34  2  0  0  0  0 
 33 34  1  0  0  0  0 
  1 35  1  0  0  0  0 
  1 36  1  0  0  0  0 
  4 37  1  0  0  0  0 
  4 38  1  0  0  0  0 
  4 39  1  0  0  0  0 
  5 40  1  0  0  0  0 
  6 41  1  0  0  0  0 
  7 42  1  0  0  0  0 
  8 43  1  0  0  0  0 
  9 44  1  0  0  0  0 
  9 45  1  0  0  0  0 
 10 46  1  0  0  0  0 
 10 47  1  0  0  0  0 
 11 48  1  0  0  0  0 
 11 49  1  0  0  0  0 
 12 50  1  0  0  0  0 
 12 51  1  0  0  0  0 
 13 52  1  0  0  0  0 
 14 53  1  0  0  0  0 
 15 54  1  0  0  0  0 
 20 55  1  0  0  0  0 
 21 56  1  0  0  0  0 
 22 57  1  0  0  0  0 
 24 58  1  0  0  0  0 
 25 59  1  0  0  0  0 
 26 60  1  0  0  0  0 
 26 61  1  0  0  0  0 
 28 62  1  0  0  0  0 
 29 63  1  0  0  0  0 
 30 64  1  0  0  0  0 
 31 65  1  0  0  0  0 
 32 66  1  0  0  0  0 
 33 67  1  0  0  0  0 
 34 68  1  0  0  0  0 
M  CHG  1   2   1
M  END
> <cdk:Title>
xenytropium

> <Conformer>
1

> <SuperDrugID>
SD002567

$$$$
