cinametic acid
  CDK     0628171802

 31 31  0  0  0  0  0  0  0  0999 V2000
   -0.7376   -6.1525    1.6061 O   0  0  0  0  0  0  0  0  0  0  0  0
   -0.6243   -6.1439    3.0405 C   0  0  0  0  0  0  0  0  0  0  0  0
   -1.5295   -5.1407    1.1357 C   0  0  0  0  0  0  0  0  0  0  0  0
   -2.8929   -5.3807    0.8686 C   0  0  0  0  0  0  0  0  0  0  0  0
   -0.9804   -3.8624    0.9051 C   0  0  0  0  0  0  0  0  0  0  0  0
   -3.4343   -6.6203    1.0830 O   0  0  0  0  0  0  0  0  0  0  0  0
   -3.7025   -4.3264    0.4089 C   0  0  0  0  0  0  0  0  0  0  0  0
   -1.7756   -2.7872    0.4252 C   0  0  0  0  0  0  0  0  0  0  0  0
   -3.3639   -7.4730   -0.0777 C   0  0  1  0  0  0  0  0  0  0  0  0
   -3.1504   -3.0512    0.1904 C   0  0  0  0  0  0  0  0  0  0  0  0
   -1.2876   -1.4893    0.2011 C   0  0  0  0  0  0  0  0  0  0  0  0
   -3.9146   -8.8647    0.2843 C   0  0  2  0  0  0  0  0  0  0  0  0
    0.0045   -1.1155    0.1168 C   0  0  0  0  0  0  0  0  0  0  0  0
   -3.8283   -9.7327   -0.8411 O   0  0  0  0  0  0  0  0  0  0  0  0
    0.4274    0.1889   -0.0765 C   0  0  0  0  0  0  0  0  0  0  0  0
   -0.4327    1.2308   -0.1947 O   0  0  0  0  0  0  0  0  0  0  0  0
    1.6508    0.4463   -0.1438 O   0  0  0  0  0  0  0  0  0  0  0  0
    0.0153   -6.9764    3.3332 H   0  0  0  0  0  0  0  0  0  0  0  0
   -0.1625   -5.2193    3.3975 H   0  0  0  0  0  0  0  0  0  0  0  0
   -1.5971   -6.2768    3.5222 H   0  0  0  0  0  0  0  0  0  0  0  0
    0.0087   -3.7329    1.1169 H   0  0  0  0  0  0  0  0  0  0  0  0
   -4.6976   -4.4842    0.2332 H   0  0  0  0  0  0  0  0  0  0  0  0
   -3.9610   -7.0572   -0.8964 H   0  0  0  0  0  0  0  0  0  0  0  0
   -2.3286   -7.5908   -0.4168 H   0  0  0  0  0  0  0  0  0  0  0  0
   -3.7746   -2.3120   -0.1476 H   0  0  0  0  0  0  0  0  0  0  0  0
   -1.9690   -0.7737    0.0907 H   0  0  0  0  0  0  0  0  0  0  0  0
   -4.9576   -8.7838    0.5960 H   0  0  0  0  0  0  0  0  0  0  0  0
   -3.3331   -9.2885    1.1050 H   0  0  0  0  0  0  0  0  0  0  0  0
    0.7159   -1.8025    0.1912 H   0  0  0  0  0  0  0  0  0  0  0  0
   -4.1774  -10.5930   -0.5283 H   0  0  0  0  0  0  0  0  0  0  0  0
   -0.0879    2.1391   -0.3230 H   0  0  0  0  0  0  0  0  0  0  0  0
  1  2  1  0  0  0  0 
  1  3  1  0  0  0  0 
  3  4  2  0  0  0  0 
  3  5  1  0  0  0  0 
  4  6  1  0  0  0  0 
  4  7  1  0  0  0  0 
  5  8  2  0  0  0  0 
  6  9  1  0  0  0  0 
  7 10  2  0  0  0  0 
  8 10  1  0  0  0  0 
  8 11  1  0  0  0  0 
  9 12  1  0  0  0  0 
 11 13  2  0  0  0  0 
 12 14  1  0  0  0  0 
 13 15  1  0  0  0  0 
 15 16  1  0  0  0  0 
 15 17  2  0  0  0  0 
  2 18  1  0  0  0  0 
  2 19  1  0  0  0  0 
  2 20  1  0  0  0  0 
  5 21  1  0  0  0  0 
  7 22  1  0  0  0  0 
  9 23  1  0  0  0  0 
  9 24  1  0  0  0  0 
 10 25  1  0  0  0  0 
 11 26  1  0  0  0  0 
 12 27  1  0  0  0  0 
 12 28  1  0  0  0  0 
 13 29  1  0  0  0  0 
 14 30  1  0  0  0  0 
 16 31  1  0  0  0  0 
M  END
> <cdk:Title>
cinametic acid

> <Conformer>
1

> <SuperDrugID>
SD000569

$$$$
