phenglutarimide
  CDK     0628171801

 45 46  0  0  0  0  0  0  0  0999 V2000
   -1.5955   -0.3680    0.5564 C   0  0  1  0  0  0  0  0  0  0  0  0
   -2.5245    0.1332   -0.5855 C   0  0  2  0  0  0  0  0  0  0  0  0
   -0.2153   -1.0441    0.1726 C   0  0  2  0  0  0  0  0  0  0  0  0
   -3.8887    0.5072   -0.0895 N   0  0  0  0  0  0  0  0  0  0  0  0
   -0.4631   -2.4667   -0.2877 C   0  0  0  0  0  0  0  0  0  0  0  0
    0.6281   -1.1444    1.5097 C   0  0  1  0  0  0  0  0  0  0  0  0
    0.5364   -0.1966   -0.8491 C   0  0  0  0  0  0  0  0  0  0  0  0
   -4.0197    1.6425    0.8860 C   0  0  1  0  0  0  0  0  0  0  0  0
   -5.0061    0.2976   -1.0643 C   0  0  1  0  0  0  0  0  0  0  0  0
   -1.3518   -2.7420   -1.1256 O   0  0  0  0  0  0  0  0  0  0  0  0
    0.2801   -3.5340    0.1178 N   0  0  0  0  0  0  0  0  0  0  0  0
    1.8220   -2.1274    1.4277 C   0  0  1  0  0  0  0  0  0  0  0  0
    0.8353    1.1669   -0.5655 C   0  0  0  0  0  0  0  0  0  0  0  0
    0.9707   -0.6846   -2.1146 C   0  0  0  0  0  0  0  0  0  0  0  0
   -3.4617    2.9973    0.3939 C   0  0  0  0  0  0  0  0  0  0  0  0
   -5.5676   -1.1326   -0.9000 C   0  0  0  0  0  0  0  0  0  0  0  0
    1.3505   -3.4368    0.9409 C   0  0  0  0  0  0  0  0  0  0  0  0
    1.4983    1.9968   -1.4879 C   0  0  0  0  0  0  0  0  0  0  0  0
    1.6330    0.1417   -3.0433 C   0  0  0  0  0  0  0  0  0  0  0  0
    1.9429   -4.4878    1.2746 O   0  0  0  0  0  0  0  0  0  0  0  0
    1.8900    1.4855   -2.7339 C   0  0  0  0  0  0  0  0  0  0  0  0
   -1.3932    0.5056    1.1779 H   0  0  0  0  0  0  0  0  0  0  0  0
   -2.1766   -1.0623    1.1729 H   0  0  0  0  0  0  0  0  0  0  0  0
   -2.6168   -0.6573   -1.3291 H   0  0  0  0  0  0  0  0  0  0  0  0
   -2.0788    0.9895   -1.0947 H   0  0  0  0  0  0  0  0  0  0  0  0
    1.0048   -0.1693    1.8264 H   0  0  0  0  0  0  0  0  0  0  0  0
   -0.0151   -1.4969    2.3245 H   0  0  0  0  0  0  0  0  0  0  0  0
   -5.0688    1.7852    1.1563 H   0  0  0  0  0  0  0  0  0  0  0  0
   -3.5132    1.3796    1.8162 H   0  0  0  0  0  0  0  0  0  0  0  0
   -5.8252    1.0040   -0.9072 H   0  0  0  0  0  0  0  0  0  0  0  0
   -4.6608    0.4368   -2.0938 H   0  0  0  0  0  0  0  0  0  0  0  0
    0.0368   -4.4155   -0.2079 H   0  0  0  0  0  0  0  0  0  0  0  0
    2.5762   -1.7440    0.7391 H   0  0  0  0  0  0  0  0  0  0  0  0
    2.2749   -2.2318    2.4169 H   0  0  0  0  0  0  0  0  0  0  0  0
    0.5679    1.5860    0.3277 H   0  0  0  0  0  0  0  0  0  0  0  0
    0.8127   -1.6544   -2.3871 H   0  0  0  0  0  0  0  0  0  0  0  0
   -2.3711    2.9929    0.4174 H   0  0  0  0  0  0  0  0  0  0  0  0
   -3.7942    3.1981   -0.6234 H   0  0  0  0  0  0  0  0  0  0  0  0
   -3.8091    3.8070    1.0388 H   0  0  0  0  0  0  0  0  0  0  0  0
   -6.4268   -1.2827   -1.5564 H   0  0  0  0  0  0  0  0  0  0  0  0
   -5.8850   -1.2882    0.1323 H   0  0  0  0  0  0  0  0  0  0  0  0
   -4.8083   -1.8764   -1.1484 H   0  0  0  0  0  0  0  0  0  0  0  0
    1.6943    2.9739   -1.2510 H   0  0  0  0  0  0  0  0  0  0  0  0
    1.9291   -0.2339   -3.9469 H   0  0  0  0  0  0  0  0  0  0  0  0
    2.3598    2.0905   -3.4123 H   0  0  0  0  0  0  0  0  0  0  0  0
  1  2  1  0  0  0  0 
  3  1  1  0  0  0  0 
  2  4  1  0  0  0  0 
  3  5  1  0  0  0  0 
  3  6  1  0  0  0  0 
  3  7  1  0  0  0  0 
  4  8  1  0  0  0  0 
  4  9  1  0  0  0  0 
  5 10  2  0  0  0  0 
  5 11  1  0  0  0  0 
  6 12  1  0  0  0  0 
  7 13  2  0  0  0  0 
  7 14  1  0  0  0  0 
  8 15  1  0  0  0  0 
  9 16  1  0  0  0  0 
 11 17  1  0  0  0  0 
 12 17  1  0  0  0  0 
 13 18  1  0  0  0  0 
 14 19  2  0  0  0  0 
 17 20  2  0  0  0  0 
 18 21  2  0  0  0  0 
 19 21  1  0  0  0  0 
  1 22  1  0  0  0  0 
  1 23  1  0  0  0  0 
  2 24  1  0  0  0  0 
  2 25  1  0  0  0  0 
  6 26  1  0  0  0  0 
  6 27  1  0  0  0  0 
  8 28  1  0  0  0  0 
  8 29  1  0  0  0  0 
  9 30  1  0  0  0  0 
  9 31  1  0  0  0  0 
 11 32  1  0  0  0  0 
 12 33  1  0  0  0  0 
 12 34  1  0  0  0  0 
 13 35  1  0  0  0  0 
 14 36  1  0  0  0  0 
 15 37  1  0  0  0  0 
 15 38  1  0  0  0  0 
 15 39  1  0  0  0  0 
 16 40  1  0  0  0  0 
 16 41  1  0  0  0  0 
 16 42  1  0  0  0  0 
 18 43  1  0  0  0  0 
 19 44  1  0  0  0  0 
 21 45  1  0  0  0  0 
M  END
> <cdk:Title>
phenglutarimide

> <Conformer>
1

> <SuperDrugID>
SD001907

$$$$
