dichlorobenzyl alcohol
  CDK     0628171801

 16 16  0  0  0  0  0  0  0  0999 V2000
    1.4093    0.3850    0.5341 O   0  0  0  0  0  0  0  0  0  0  0  0
    0.9093    0.3967   -0.7972 C   0  0  1  0  0  0  0  0  0  0  0  0
   -0.4885    0.9058   -0.8308 C   0  0  0  0  0  0  0  0  0  0  0  0
   -1.5571    0.2085   -0.2054 C   0  0  0  0  0  0  0  0  0  0  0  0
   -1.3226   -1.2349    0.6567 Cl  0  0  0  0  0  0  0  0  0  0  0  0
   -2.8752    0.7048   -0.2900 C   0  0  0  0  0  0  0  0  0  0  0  0
   -3.1479    1.8913   -0.9938 C   0  0  0  0  0  0  0  0  0  0  0  0
   -4.7367    2.4641   -1.1160 Cl  0  0  0  0  0  0  0  0  0  0  0  0
   -2.0941    2.6020   -1.5945 C   0  0  0  0  0  0  0  0  0  0  0  0
   -0.7785    2.1144   -1.5099 C   0  0  0  0  0  0  0  0  0  0  0  0
    2.3197    0.0300    0.4515 H   0  0  0  0  0  0  0  0  0  0  0  0
    1.5850    1.0109   -1.3967 H   0  0  0  0  0  0  0  0  0  0  0  0
    0.9424   -0.6181   -1.1977 H   0  0  0  0  0  0  0  0  0  0  0  0
   -3.6416    0.2004    0.1617 H   0  0  0  0  0  0  0  0  0  0  0  0
   -2.2769    3.4754   -2.0941 H   0  0  0  0  0  0  0  0  0  0  0  0
   -0.0318    2.6551   -1.9525 H   0  0  0  0  0  0  0  0  0  0  0  0
  1  2  1  0  0  0  0 
  2  3  1  0  0  0  0 
  3  4  2  0  0  0  0 
  4  5  1  0  0  0  0 
  4  6  1  0  0  0  0 
  6  7  2  0  0  0  0 
  7  8  1  0  0  0  0 
  7  9  1  0  0  0  0 
  9 10  2  0  0  0  0 
  3 10  1  0  0  0  0 
  1 11  1  0  0  0  0 
  2 12  1  0  0  0  0 
  2 13  1  0  0  0  0 
  6 14  1  0  0  0  0 
  9 15  1  0  0  0  0 
 10 16  1  0  0  0  0 
M  END
> <cdk:Title>
dichlorobenzyl alcohol

> <Conformer>
1

> <SuperDrugID>
SD002722

$$$$
