citalopram
  CDK     0628171802

 45 47  0  0  0  0  0  0  0  0999 V2000
    0.6669    1.2160   -1.7112 C   0  0  1  0  0  0  0  0  0  0  0  0
    0.2673    1.6216   -0.2629 C   0  0  2  0  0  0  0  0  0  0  0  0
   -0.3434    0.2315   -2.3986 C   0  0  1  0  0  0  0  0  0  0  0  0
    1.2942    2.5505    0.4417 C   0  0  2  0  0  0  0  0  0  0  0  0
    0.1841   -0.2275   -3.6977 C   0  0  0  0  0  0  0  0  0  0  0  0
   -0.3218   -0.9736   -1.5840 O   0  0  0  0  0  0  0  0  0  0  0  0
   -1.7583    0.7379   -2.5631 C   0  0  0  0  0  0  0  0  0  0  0  0
    2.7159    2.0679    0.4158 N   0  0  1  0  0  0  0  0  0  0  0  0
    0.5147   -1.5737   -3.6320 C   0  0  0  0  0  0  0  0  0  0  0  0
    0.4011    0.4949   -4.8882 C   0  0  0  0  0  0  0  0  0  0  0  0
    0.2343   -2.0876   -2.3047 C   0  0  1  0  0  0  0  0  0  0  0  0
   -2.0320    2.0731   -2.9594 C   0  0  0  0  0  0  0  0  0  0  0  0
   -2.8743   -0.1172   -2.3565 C   0  0  0  0  0  0  0  0  0  0  0  0
    3.6932    3.1616    0.6993 C   0  0  0  0  0  0  0  0  0  0  0  0
    2.9803    0.8556    1.2472 C   0  0  0  0  0  0  0  0  0  0  0  0
    1.0589   -2.2575   -4.7342 C   0  0  0  0  0  0  0  0  0  0  0  0
    0.9532   -0.1671   -6.0051 C   0  0  0  0  0  0  0  0  0  0  0  0
   -3.3498    2.5433   -3.1049 C   0  0  0  0  0  0  0  0  0  0  0  0
   -4.1946    0.3452   -2.5101 C   0  0  0  0  0  0  0  0  0  0  0  0
    1.2824   -1.5429   -5.9331 C   0  0  0  0  0  0  0  0  0  0  0  0
   -4.4347    1.6802   -2.8771 C   0  0  0  0  0  0  0  0  0  0  0  0
    1.7959   -2.1487   -6.9655 C   0  0  0  0  0  0  0  0  0  0  0  0
   -5.6581    2.1129   -3.0076 F   0  0  0  0  0  0  0  0  0  0  0  0
    2.2491   -2.6838   -7.8750 N   0  0  0  0  0  0  0  0  0  0  0  0
    0.7913    2.1211   -2.3117 H   0  0  0  0  0  0  0  0  0  0  0  0
    1.6454    0.7280   -1.6714 H   0  0  0  0  0  0  0  0  0  0  0  0
    0.1219    0.7246    0.3413 H   0  0  0  0  0  0  0  0  0  0  0  0
   -0.6906    2.1478   -0.2946 H   0  0  0  0  0  0  0  0  0  0  0  0
    0.9720    2.7045    1.4770 H   0  0  0  0  0  0  0  0  0  0  0  0
    1.2281    3.5210   -0.0611 H   0  0  0  0  0  0  0  0  0  0  0  0
    0.1685    1.4879   -4.9454 H   0  0  0  0  0  0  0  0  0  0  0  0
    1.1523   -2.4245   -1.8186 H   0  0  0  0  0  0  0  0  0  0  0  0
   -0.4875   -2.9055   -2.3481 H   0  0  0  0  0  0  0  0  0  0  0  0
   -1.2711    2.7255   -3.1474 H   0  0  0  0  0  0  0  0  0  0  0  0
   -2.7400   -1.0966   -2.0957 H   0  0  0  0  0  0  0  0  0  0  0  0
    4.7189    2.8031    0.5981 H   0  0  0  0  0  0  0  0  0  0  0  0
    3.5679    3.9751   -0.0181 H   0  0  0  0  0  0  0  0  0  0  0  0
    3.5591    3.5625    1.7070 H   0  0  0  0  0  0  0  0  0  0  0  0
    2.8067    1.0585    2.3057 H   0  0  0  0  0  0  0  0  0  0  0  0
    2.3414    0.0295    0.9380 H   0  0  0  0  0  0  0  0  0  0  0  0
    4.0135    0.5248    1.1234 H   0  0  0  0  0  0  0  0  0  0  0  0
    1.2888   -3.2528   -4.6527 H   0  0  0  0  0  0  0  0  0  0  0  0
    1.1145    0.3665   -6.8663 H   0  0  0  0  0  0  0  0  0  0  0  0
   -3.5175    3.5149   -3.3759 H   0  0  0  0  0  0  0  0  0  0  0  0
   -4.9801   -0.2915   -2.3520 H   0  0  0  0  0  0  0  0  0  0  0  0
  1  2  1  0  0  0  0 
  3  1  1  0  0  0  0 
  2  4  1  0  0  0  0 
  3  5  1  0  0  0  0 
  3  6  1  0  0  0  0 
  3  7  1  0  0  0  0 
  4  8  1  0  0  0  0 
  5  9  2  0  0  0  0 
  5 10  1  0  0  0  0 
  6 11  1  0  0  0  0 
  7 12  2  0  0  0  0 
  7 13  1  0  0  0  0 
  8 14  1  0  0  0  0 
  8 15  1  0  0  0  0 
  9 11  1  0  0  0  0 
  9 16  1  0  0  0  0 
 10 17  2  0  0  0  0 
 12 18  1  0  0  0  0 
 13 19  2  0  0  0  0 
 16 20  2  0  0  0  0 
 17 20  1  0  0  0  0 
 18 21  2  0  0  0  0 
 19 21  1  0  0  0  0 
 20 22  1  0  0  0  0 
 21 23  1  0  0  0  0 
 22 24  3  0  0  0  0 
  1 25  1  0  0  0  0 
  1 26  1  0  0  0  0 
  2 27  1  0  0  0  0 
  2 28  1  0  0  0  0 
  4 29  1  0  0  0  0 
  4 30  1  0  0  0  0 
 10 31  1  0  0  0  0 
 11 32  1  0  0  0  0 
 11 33  1  0  0  0  0 
 12 34  1  0  0  0  0 
 13 35  1  0  0  0  0 
 14 36  1  0  0  0  0 
 14 37  1  0  0  0  0 
 14 38  1  0  0  0  0 
 15 39  1  0  0  0  0 
 15 40  1  0  0  0  0 
 15 41  1  0  0  0  0 
 16 42  1  0  0  0  0 
 17 43  1  0  0  0  0 
 18 44  1  0  0  0  0 
 19 45  1  0  0  0  0 
M  END
> <cdk:Title>
citalopram

> <Conformer>
1

> <SuperDrugID>
SD000582

$$$$
