acetoxolone
  CDK     0628171802

 85 89  0  0  0  0  0  0  0  0999 V2000
   -2.7911  -10.9850   -4.0907 C   0  0  0  0  0  0  0  0  0  0  0  0
   -1.2827  -11.4668   -4.0158 C   0  0  2  0  0  0  0  0  0  0  0  0
   -0.5688  -10.7013   -2.7587 C   0  0  1  0  0  0  0  0  0  0  0  0
   -0.4566  -11.1470   -5.3510 C   0  0  1  0  0  0  0  0  0  0  0  0
   -1.3265  -13.0359   -3.9038 C   0  0  2  0  0  0  0  0  0  0  0  0
    0.9629  -11.0765   -2.6018 C   0  0  0  0  0  0  0  0  0  0  0  0
   -0.6105   -9.2144   -3.0424 C   0  0  0  0  0  0  0  0  0  0  0  0
   -1.2258  -11.1053   -1.3626 C   0  0  2  0  0  0  0  0  0  0  0  0
   -0.8964  -11.8763   -6.7243 C   0  0  2  0  0  0  0  0  0  0  0  0
   -0.1576   -9.6708   -5.3963 C   0  0  0  0  0  0  0  0  0  0  0  0
   -1.8958  -13.7998   -5.2177 C   0  0  1  0  0  0  0  0  0  0  0  0
   -1.0695   -8.1611   -2.0692 C   0  0  1  0  0  0  0  0  0  0  0  0
   -0.3863   -8.8161   -4.3231 C   0  0  0  0  0  0  0  0  0  0  0  0
   -2.1479  -10.0553   -0.7125 C   0  0  1  0  0  0  0  0  0  0  0  0
   -2.2059  -11.1961   -7.2878 C   0  0  0  0  0  0  0  0  0  0  0  0
   -1.0057  -13.4567   -6.4602 C   0  0  1  0  0  0  0  0  0  0  0  0
    0.2414  -11.7269   -7.8225 C   0  0  2  0  0  0  0  0  0  0  0  0
    0.3721   -9.1407   -6.3992 O   0  0  0  0  0  0  0  0  0  0  0  0
   -1.5071   -8.6355   -0.6274 C   0  0  2  0  0  0  0  0  0  0  0  0
   -0.2698   -6.7919   -1.9715 C   0  0  2  0  0  0  0  0  0  0  0  0
   -1.2284  -14.4009   -7.7369 C   0  0  2  0  0  0  0  0  0  0  0  0
    0.0846  -12.5905   -9.1035 C   0  0  2  0  0  0  0  0  0  0  0  0
   -2.6436   -7.7111   -0.0390 C   0  0  0  0  0  0  0  0  0  0  0  0
   -0.2672   -8.6496    0.3385 C   0  0  2  0  0  0  0  0  0  0  0  0
    0.8928   -6.6615   -0.9190 C   0  0  2  0  0  0  0  0  0  0  0  0
   -2.6526  -14.2628   -8.3867 C   0  0  0  0  0  0  0  0  0  0  0  0
   -1.0558  -15.9307   -7.3721 C   0  0  0  0  0  0  0  0  0  0  0  0
   -0.0998  -14.0951   -8.7956 C   0  0  2  0  0  0  0  0  0  0  0  0
    0.4509   -7.2866    0.4528 C   0  0  2  0  0  0  0  0  0  0  0  0
    1.2306   -5.2076   -0.7175 C   0  0  0  0  0  0  0  0  0  0  0  0
    2.1905   -7.3473   -1.4574 C   0  0  0  0  0  0  0  0  0  0  0  0
   -0.3679  -14.8426   -9.9980 O   0  0  0  0  0  0  0  0  0  0  0  0
    1.1941   -4.6045    0.5007 O   0  0  0  0  0  0  0  0  0  0  0  0
    1.5794   -4.4839   -1.6793 O   0  0  0  0  0  0  0  0  0  0  0  0
    0.4571  -15.1483  -11.0367 C   0  0  0  0  0  0  0  0  0  0  0  0
   -0.0469  -16.0188  -12.1075 C   0  0  0  0  0  0  0  0  0  0  0  0
    1.6362  -14.7295  -11.0874 O   0  0  0  0  0  0  0  0  0  0  0  0
   -3.3660  -11.4700   -4.8646 H   0  0  0  0  0  0  0  0  0  0  0  0
   -2.8819   -9.9140   -4.2669 H   0  0  0  0  0  0  0  0  0  0  0  0
   -3.3219  -11.2183   -3.1718 H   0  0  0  0  0  0  0  0  0  0  0  0
    0.5332  -11.5748   -5.1882 H   0  0  0  0  0  0  0  0  0  0  0  0
   -1.9770  -13.3669   -3.0972 H   0  0  0  0  0  0  0  0  0  0  0  0
   -0.3353  -13.4367   -3.6920 H   0  0  0  0  0  0  0  0  0  0  0  0
    1.1013  -12.1510   -2.4760 H   0  0  0  0  0  0  0  0  0  0  0  0
    1.5798  -10.7496   -3.4367 H   0  0  0  0  0  0  0  0  0  0  0  0
    1.3955  -10.6078   -1.7207 H   0  0  0  0  0  0  0  0  0  0  0  0
   -0.4801  -11.3615   -0.6057 H   0  0  0  0  0  0  0  0  0  0  0  0
   -1.8130  -12.0143   -1.4329 H   0  0  0  0  0  0  0  0  0  0  0  0
   -1.9102  -14.9155   -5.0935 H   0  0  0  0  0  0  0  0  0  0  0  0
   -2.9562  -13.5783   -5.4915 H   0  0  0  0  0  0  0  0  0  0  0  0
   -2.0119   -7.8677   -2.5474 H   0  0  0  0  0  0  0  0  0  0  0  0
   -0.4347   -7.8515   -4.5538 H   0  0  0  0  0  0  0  0  0  0  0  0
   -3.0773  -10.0058   -1.2808 H   0  0  0  0  0  0  0  0  0  0  0  0
   -2.4168  -10.4072    0.2894 H   0  0  0  0  0  0  0  0  0  0  0  0
   -2.1981  -11.0784   -8.3697 H   0  0  0  0  0  0  0  0  0  0  0  0
   -2.3416  -10.1878   -6.8962 H   0  0  0  0  0  0  0  0  0  0  0  0
   -3.1004  -11.7645   -7.0472 H   0  0  0  0  0  0  0  0  0  0  0  0
   -0.0067  -13.7534   -6.1160 H   0  0  0  0  0  0  0  0  0  0  0  0
    1.2115  -11.9713   -7.3801 H   0  0  0  0  0  0  0  0  0  0  0  0
    0.3071  -10.6990   -8.1777 H   0  0  0  0  0  0  0  0  0  0  0  0
   -1.0064   -6.0201   -1.7290 H   0  0  0  0  0  0  0  0  0  0  0  0
    0.1171   -6.4858   -2.9420 H   0  0  0  0  0  0  0  0  0  0  0  0
    0.9849  -12.4608   -9.7115 H   0  0  0  0  0  0  0  0  0  0  0  0
   -0.7519  -12.2338   -9.7031 H   0  0  0  0  0  0  0  0  0  0  0  0
   -2.3268   -6.6740    0.0606 H   0  0  0  0  0  0  0  0  0  0  0  0
   -3.5233   -7.7151   -0.6900 H   0  0  0  0  0  0  0  0  0  0  0  0
   -2.9558   -8.0576    0.9504 H   0  0  0  0  0  0  0  0  0  0  0  0
    0.4775   -9.3687    0.0087 H   0  0  0  0  0  0  0  0  0  0  0  0
   -0.5816   -8.9637    1.3384 H   0  0  0  0  0  0  0  0  0  0  0  0
   -2.8268  -15.0404   -9.1337 H   0  0  0  0  0  0  0  0  0  0  0  0
   -3.4397  -14.3551   -7.6395 H   0  0  0  0  0  0  0  0  0  0  0  0
   -2.7783  -13.3159   -8.9013 H   0  0  0  0  0  0  0  0  0  0  0  0
   -0.9805  -16.5589   -8.2650 H   0  0  0  0  0  0  0  0  0  0  0  0
   -1.9057  -16.3180   -6.8077 H   0  0  0  0  0  0  0  0  0  0  0  0
   -0.1489  -16.0948   -6.7831 H   0  0  0  0  0  0  0  0  0  0  0  0
    0.8556  -14.4468   -8.3910 H   0  0  0  0  0  0  0  0  0  0  0  0
    1.3203   -7.4057    1.1057 H   0  0  0  0  0  0  0  0  0  0  0  0
   -0.2287   -6.6144    0.9794 H   0  0  0  0  0  0  0  0  0  0  0  0
    3.0117   -7.2452   -0.7439 H   0  0  0  0  0  0  0  0  0  0  0  0
    2.5088   -6.9002   -2.4020 H   0  0  0  0  0  0  0  0  0  0  0  0
    2.0284   -8.4035   -1.6380 H   0  0  0  0  0  0  0  0  0  0  0  0
    1.4143   -3.6542    0.5958 H   0  0  0  0  0  0  0  0  0  0  0  0
   -1.0962  -16.2742  -11.9416 H   0  0  0  0  0  0  0  0  0  0  0  0
    0.0420  -15.5145  -13.0710 H   0  0  0  0  0  0  0  0  0  0  0  0
    0.5375  -16.9418  -12.1269 H   0  0  0  0  0  0  0  0  0  0  0  0
  2  1  1  0  0  0  0 
  2  3  1  0  0  0  0 
  2  4  1  0  0  0  0 
  2  5  1  0  0  0  0 
  3  6  1  0  0  0  0 
  3  7  1  0  0  0  0 
  3  8  1  0  0  0  0 
  4  9  1  0  0  0  0 
  4 10  1  0  0  0  0 
  5 11  1  0  0  0  0 
 12  7  1  0  0  0  0 
  7 13  2  0  0  0  0 
  8 14  1  0  0  0  0 
  9 15  1  0  0  0  0 
  9 16  1  0  0  0  0 
  9 17  1  0  0  0  0 
 10 13  1  0  0  0  0 
 10 18  2  0  0  0  0 
 16 11  1  0  0  0  0 
 12 19  1  0  0  0  0 
 12 20  1  0  0  0  0 
 19 14  1  0  0  0  0 
 16 21  1  0  0  0  0 
 17 22  1  0  0  0  0 
 19 23  1  0  0  0  0 
 19 24  1  0  0  0  0 
 25 20  1  0  0  0  0 
 21 26  1  0  0  0  0 
 21 27  1  0  0  0  0 
 28 21  1  0  0  0  0 
 28 22  1  0  0  0  0 
 24 29  1  0  0  0  0 
 25 29  1  0  0  0  0 
 25 30  1  0  0  0  0 
 25 31  1  0  0  0  0 
 28 32  1  0  0  0  0 
 30 33  1  0  0  0  0 
 30 34  2  0  0  0  0 
 32 35  1  0  0  0  0 
 35 36  1  0  0  0  0 
 35 37  2  0  0  0  0 
 38  1  1  0  0  0  0 
 39  1  1  0  0  0  0 
 40  1  1  0  0  0  0 
  4 41  1  0  0  0  0 
 42  5  1  0  0  0  0 
 43  5  1  0  0  0  0 
 44  6  1  0  0  0  0 
 45  6  1  0  0  0  0 
 46  6  1  0  0  0  0 
 47  8  1  0  0  0  0 
 48  8  1  0  0  0  0 
 49 11  1  0  0  0  0 
 50 11  1  0  0  0  0 
 12 51  1  0  0  0  0 
 52 13  1  0  0  0  0 
 53 14  1  0  0  0  0 
 54 14  1  0  0  0  0 
 55 15  1  0  0  0  0 
 56 15  1  0  0  0  0 
 57 15  1  0  0  0  0 
 16 58  1  0  0  0  0 
 59 17  1  0  0  0  0 
 60 17  1  0  0  0  0 
 61 20  1  0  0  0  0 
 62 20  1  0  0  0  0 
 63 22  1  0  0  0  0 
 64 22  1  0  0  0  0 
 65 23  1  0  0  0  0 
 66 23  1  0  0  0  0 
 67 23  1  0  0  0  0 
 68 24  1  0  0  0  0 
 69 24  1  0  0  0  0 
 70 26  1  0  0  0  0 
 71 26  1  0  0  0  0 
 72 26  1  0  0  0  0 
 73 27  1  0  0  0  0 
 74 27  1  0  0  0  0 
 75 27  1  0  0  0  0 
 28 76  1  0  0  0  0 
 77 29  1  0  0  0  0 
 78 29  1  0  0  0  0 
 79 31  1  0  0  0  0 
 80 31  1  0  0  0  0 
 81 31  1  0  0  0  0 
 82 33  1  0  0  0  0 
 83 36  1  0  0  0  0 
 84 36  1  0  0  0  0 
 85 36  1  0  0  0  0 
M  END
> <cdk:Title>
acetoxolone

> <Conformer>
1

> <SuperDrugID>
SD000039

$$$$
