etilefrine pivalate
  CDK     0628171802

 42 42  0  0  0  0  0  0  0  0999 V2000
    0.0230    4.5092    2.6444 C   0  0  0  0  0  0  0  0  0  0  0  0
    0.5051    5.2512    3.7435 C   0  0  0  0  0  0  0  0  0  0  0  0
    0.0234    4.9433    5.0307 C   0  0  0  0  0  0  0  0  0  0  0  0
   -0.9217    3.9178    5.2152 C   0  0  0  0  0  0  0  0  0  0  0  0
   -1.3827    3.1790    4.1113 C   0  0  0  0  0  0  0  0  0  0  0  0
   -0.9136    3.4623    2.8091 C   0  0  0  0  0  0  0  0  0  0  0  0
    1.4590    6.2319    3.6487 O   0  0  0  0  0  0  0  0  0  0  0  0
   -1.3709    2.6798    1.6257 C   0  0  2  0  0  0  0  0  0  0  0  0
    1.9201    6.9630    2.5831 C   0  0  0  0  0  0  0  0  0  0  0  0
    3.1034    7.8692    2.7235 C   0  0  1  0  0  0  0  0  0  0  0  0
    1.3329    6.9171    1.4754 O   0  0  0  0  0  0  0  0  0  0  0  0
    3.6320    7.8926    4.1968 C   0  0  0  0  0  0  0  0  0  0  0  0
    4.2375    7.3387    1.7879 C   0  0  0  0  0  0  0  0  0  0  0  0
    2.7124    9.3236    2.3077 C   0  0  0  0  0  0  0  0  0  0  0  0
   -0.1970    1.9317    0.9331 C   0  0  2  0  0  0  0  0  0  0  0  0
   -0.7096    0.9850   -0.0811 N   0  0  1  0  0  0  0  0  0  0  0  0
    0.3392    0.2940   -0.8626 C   0  0  2  0  0  0  0  0  0  0  0  0
   -0.3025   -0.7743   -1.7671 C   0  0  0  0  0  0  0  0  0  0  0  0
   -2.0030    3.5736    0.7081 O   0  0  0  0  0  0  0  0  0  0  0  0
    0.3685    4.7105    1.7092 H   0  0  0  0  0  0  0  0  0  0  0  0
    0.3598    5.4674    5.8419 H   0  0  0  0  0  0  0  0  0  0  0  0
   -1.2706    3.7082    6.1527 H   0  0  0  0  0  0  0  0  0  0  0  0
   -2.0659    2.4336    4.2666 H   0  0  0  0  0  0  0  0  0  0  0  0
   -2.1210    1.9410    1.9262 H   0  0  0  0  0  0  0  0  0  0  0  0
    4.4987    8.5492    4.2903 H   0  0  0  0  0  0  0  0  0  0  0  0
    3.9285    6.8926    4.5218 H   0  0  0  0  0  0  0  0  0  0  0  0
    2.8593    8.2569    4.8782 H   0  0  0  0  0  0  0  0  0  0  0  0
    5.1161    7.9863    1.8408 H   0  0  0  0  0  0  0  0  0  0  0  0
    4.5385    6.3291    2.0790 H   0  0  0  0  0  0  0  0  0  0  0  0
    3.9054    7.3070    0.7467 H   0  0  0  0  0  0  0  0  0  0  0  0
    3.5659    9.9993    2.4137 H   0  0  0  0  0  0  0  0  0  0  0  0
    2.3859    9.3613    1.2643 H   0  0  0  0  0  0  0  0  0  0  0  0
    1.8979    9.7000    2.9337 H   0  0  0  0  0  0  0  0  0  0  0  0
    0.3734    1.3737    1.6819 H   0  0  0  0  0  0  0  0  0  0  0  0
    0.4697    2.6532    0.4526 H   0  0  0  0  0  0  0  0  0  0  0  0
   -1.2235    0.2633    0.4289 H   0  0  0  0  0  0  0  0  0  0  0  0
    1.0563   -0.1914   -0.1951 H   0  0  0  0  0  0  0  0  0  0  0  0
    0.8728    1.0169   -1.4846 H   0  0  0  0  0  0  0  0  0  0  0  0
   -0.8218   -1.5173   -1.1593 H   0  0  0  0  0  0  0  0  0  0  0  0
    0.4678   -1.2775   -2.3531 H   0  0  0  0  0  0  0  0  0  0  0  0
   -1.0172   -0.3115   -2.4495 H   0  0  0  0  0  0  0  0  0  0  0  0
   -2.3361    3.0061   -0.0174 H   0  0  0  0  0  0  0  0  0  0  0  0
  1  2  2  0  0  0  0 
  1  6  1  0  0  0  0 
  2  3  1  0  0  0  0 
  3  4  2  0  0  0  0 
  4  5  1  0  0  0  0 
  5  6  2  0  0  0  0 
  2  7  1  0  0  0  0 
  8  6  1  0  0  0  0 
  7  9  1  0  0  0  0 
  9 10  1  0  0  0  0 
  9 11  2  0  0  0  0 
 10 12  1  0  0  0  0 
 10 13  1  0  0  0  0 
 10 14  1  0  0  0  0 
  8 15  1  0  0  0  0 
 15 16  1  0  0  0  0 
 16 17  1  0  0  0  0 
 17 18  1  0  0  0  0 
  8 19  1  0  0  0  0 
  1 20  1  0  0  0  0 
  3 21  1  0  0  0  0 
  4 22  1  0  0  0  0 
  5 23  1  0  0  0  0 
  8 24  1  0  0  0  0 
 12 25  1  0  0  0  0 
 12 26  1  0  0  0  0 
 12 27  1  0  0  0  0 
 13 28  1  0  0  0  0 
 13 29  1  0  0  0  0 
 13 30  1  0  0  0  0 
 14 31  1  0  0  0  0 
 14 32  1  0  0  0  0 
 14 33  1  0  0  0  0 
 15 34  1  0  0  0  0 
 15 35  1  0  0  0  0 
 16 36  1  0  0  0  0 
 17 37  1  0  0  0  0 
 17 38  1  0  0  0  0 
 18 39  1  0  0  0  0 
 18 40  1  0  0  0  0 
 18 41  1  0  0  0  0 
 19 42  1  0  0  0  0 
M  END
> <cdk:Title>
etilefrine pivalate

> <Conformer>
1

> <SuperDrugID>
SD003786

$$$$
