methandriol
  CDK     0628171801

 54 57  0  0  0  0  0  0  0  0999 V2000
   -1.2775   -0.0946   -5.2141 C   0  0  0  0  0  0  0  0  0  0  0  0
    0.1862    0.4579   -5.4026 C   0  0  1  0  0  0  0  0  0  0  0  0
    0.9509    0.5075   -3.9983 C   0  0  2  0  0  0  0  0  0  0  0  0
    0.8931   -0.4179   -6.3967 C   0  0  0  0  0  0  0  0  0  0  0  0
    0.1137    1.9250   -5.9921 C   0  0  2  0  0  0  0  0  0  0  0  0
    1.4884   -0.9153   -3.5976 C   0  0  2  0  0  0  0  0  0  0  0  0
    0.1960    1.2232   -2.8157 C   0  0  1  0  0  0  0  0  0  0  0  0
    1.8948   -1.2617   -6.0560 C   0  0  0  0  0  0  0  0  0  0  0  0
    0.4941   -0.3614   -7.8187 C   0  0  1  0  0  0  0  0  0  0  0  0
   -0.3526    2.0176   -7.4714 C   0  0  1  0  0  0  0  0  0  0  0  0
    2.2218   -0.8668   -2.2172 C   0  0  1  0  0  0  0  0  0  0  0  0
    2.4255   -1.4364   -4.7220 C   0  0  2  0  0  0  0  0  0  0  0  0
    0.9536    1.1617   -1.4554 C   0  0  1  0  0  0  0  0  0  0  0  0
    0.5014    1.0874   -8.3642 C   0  0  2  0  0  0  0  0  0  0  0  0
    1.3450   -0.3064   -1.0517 C   0  0  1  0  0  0  0  0  0  0  0  0
    2.8113   -2.1708   -1.6403 C   0  0  2  0  0  0  0  0  0  0  0  0
    0.0054    1.1074   -9.7009 O   0  0  0  0  0  0  0  0  0  0  0  0
    0.0265   -1.1394   -0.7845 C   0  0  0  0  0  0  0  0  0  0  0  0
    2.3289   -0.4962    0.1737 C   0  0  1  0  0  0  0  0  0  0  0  0
    3.0461   -1.8539   -0.1407 C   0  0  1  0  0  0  0  0  0  0  0  0
    3.3610    0.6554    0.4026 C   0  0  0  0  0  0  0  0  0  0  0  0
    1.6353   -0.6223    1.4232 O   0  0  0  0  0  0  0  0  0  0  0  0
    0.6583   -1.6186   -3.5279 H   0  0  0  0  0  0  0  0  0  0  0  0
    1.8529    1.1150   -4.1466 H   0  0  0  0  0  0  0  0  0  0  0  0
    3.0769   -0.1949   -2.3719 H   0  0  0  0  0  0  0  0  0  0  0  0
   -1.8874    0.5796   -4.6126 H   0  0  0  0  0  0  0  0  0  0  0  0
   -1.2729   -1.0720   -4.7309 H   0  0  0  0  0  0  0  0  0  0  0  0
   -1.8085   -0.2044   -6.1582 H   0  0  0  0  0  0  0  0  0  0  0  0
    1.1038    2.3895   -5.9458 H   0  0  0  0  0  0  0  0  0  0  0  0
   -0.5540    2.5473   -5.3908 H   0  0  0  0  0  0  0  0  0  0  0  0
    0.0387    2.2747   -3.0661 H   0  0  0  0  0  0  0  0  0  0  0  0
   -0.7886    0.7878   -2.6623 H   0  0  0  0  0  0  0  0  0  0  0  0
    2.3309   -1.8181   -6.7571 H   0  0  0  0  0  0  0  0  0  0  0  0
    1.1493   -0.9513   -8.4673 H   0  0  0  0  0  0  0  0  0  0  0  0
   -0.5030   -0.7902   -7.9346 H   0  0  0  0  0  0  0  0  0  0  0  0
   -1.4075    1.7442   -7.5531 H   0  0  0  0  0  0  0  0  0  0  0  0
   -0.2502    3.0480   -7.8221 H   0  0  0  0  0  0  0  0  0  0  0  0
    2.6093   -2.5024   -4.5609 H   0  0  0  0  0  0  0  0  0  0  0  0
    3.3908   -0.9226   -4.6855 H   0  0  0  0  0  0  0  0  0  0  0  0
    1.8449    1.7848   -1.5623 H   0  0  0  0  0  0  0  0  0  0  0  0
    0.3373    1.6147   -0.6729 H   0  0  0  0  0  0  0  0  0  0  0  0
    1.5309    1.4576   -8.3887 H   0  0  0  0  0  0  0  0  0  0  0  0
    3.7419   -2.4429   -2.1461 H   0  0  0  0  0  0  0  0  0  0  0  0
    2.1026   -2.9960   -1.7530 H   0  0  0  0  0  0  0  0  0  0  0  0
    0.6303    0.5504  -10.2127 H   0  0  0  0  0  0  0  0  0  0  0  0
   -0.5815   -1.2699   -1.6757 H   0  0  0  0  0  0  0  0  0  0  0  0
    0.2423   -2.1388   -0.4051 H   0  0  0  0  0  0  0  0  0  0  0  0
   -0.5952   -0.6358   -0.0423 H   0  0  0  0  0  0  0  0  0  0  0  0
    2.6305   -2.6641    0.4667 H   0  0  0  0  0  0  0  0  0  0  0  0
    4.1182   -1.8097    0.0671 H   0  0  0  0  0  0  0  0  0  0  0  0
    3.9871    0.4291    1.2675 H   0  0  0  0  0  0  0  0  0  0  0  0
    2.8518    1.5988    0.6064 H   0  0  0  0  0  0  0  0  0  0  0  0
    4.0162    0.7915   -0.4582 H   0  0  0  0  0  0  0  0  0  0  0  0
    1.1523    0.2211    1.5451 H   0  0  0  0  0  0  0  0  0  0  0  0
  2  1  1  0  0  0  0 
  3  2  1  0  0  0  0 
  2  4  1  0  0  0  0 
  2  5  1  0  0  0  0 
  6  3  1  0  0  0  0 
  3  7  1  0  0  0  0 
  3 24  1  0  0  0  0 
  4  8  2  0  0  0  0 
  4  9  1  0  0  0  0 
  5 10  1  0  0  0  0 
 11  6  1  0  0  0  0 
  6 12  1  0  0  0  0 
  6 23  1  0  0  0  0 
  7 13  1  0  0  0  0 
  8 12  1  0  0  0  0 
 14  9  1  0  0  0  0 
 14 10  1  0  0  0  0 
 15 11  1  0  0  0  0 
 11 16  1  0  0  0  0 
 11 25  1  0  0  0  0 
 15 13  1  0  0  0  0 
 14 17  1  0  0  0  0 
 15 18  1  0  0  0  0 
 15 19  1  0  0  0  0 
 16 20  1  0  0  0  0 
 19 20  1  0  0  0  0 
 19 21  1  0  0  0  0 
 19 22  1  0  0  0  0 
  1 26  1  0  0  0  0 
  1 27  1  0  0  0  0 
  1 28  1  0  0  0  0 
  5 29  1  0  0  0  0 
  5 30  1  0  0  0  0 
  7 31  1  0  0  0  0 
  7 32  1  0  0  0  0 
  8 33  1  0  0  0  0 
  9 34  1  0  0  0  0 
  9 35  1  0  0  0  0 
 10 36  1  0  0  0  0 
 10 37  1  0  0  0  0 
 12 38  1  0  0  0  0 
 12 39  1  0  0  0  0 
 13 40  1  0  0  0  0 
 13 41  1  0  0  0  0 
 14 42  1  0  0  0  0 
 16 43  1  0  0  0  0 
 16 44  1  0  0  0  0 
 17 45  1  0  0  0  0 
 18 46  1  0  0  0  0 
 18 47  1  0  0  0  0 
 18 48  1  0  0  0  0 
 20 49  1  0  0  0  0 
 20 50  1  0  0  0  0 
 21 51  1  0  0  0  0 
 21 52  1  0  0  0  0 
 21 53  1  0  0  0  0 
 22 54  1  0  0  0  0 
M  END
> <cdk:Title>
methandriol

> <Conformer>
1

> <SuperDrugID>
SD001533

$$$$
