meradimate
  CDK     0628171801

 45 46  0  0  0  0  0  0  0  0999 V2000
    3.0697   -0.6024    0.8693 C   0  0  2  0  0  0  0  0  0  0  0  0
    4.1794   -0.5083    1.9615 C   0  0  0  0  0  0  0  0  0  0  0  0
    3.0958   -2.0376    0.2649 C   0  0  0  0  0  0  0  0  0  0  0  0
    3.1418    0.5654   -0.1994 C   0  0  1  0  0  0  0  0  0  0  0  0
    2.0377    0.4555   -1.3151 C   0  0  2  0  0  0  0  0  0  0  0  0
    3.0839    1.9597    0.5213 C   0  0  2  0  0  0  0  0  0  0  0  0
    2.3320   -0.6062   -2.2482 O   0  0  0  0  0  0  0  0  0  0  0  0
    1.8805    1.7306   -2.1932 C   0  0  1  0  0  0  0  0  0  0  0  0
    2.9285    3.1838   -0.4115 C   0  0  1  0  0  0  0  0  0  0  0  0
    1.4520   -1.4747   -2.8412 C   0  0  0  0  0  0  0  0  0  0  0  0
    1.7021    3.0186   -1.3456 C   0  0  1  0  0  0  0  0  0  0  0  0
    0.2388   -1.3771   -2.5312 O   0  0  0  0  0  0  0  0  0  0  0  0
    1.8766   -2.4491   -3.7994 C   0  0  0  0  0  0  0  0  0  0  0  0
    1.4818    4.2687   -2.2364 C   0  0  0  0  0  0  0  0  0  0  0  0
    3.2347   -2.8518   -3.9697 C   0  0  0  0  0  0  0  0  0  0  0  0
    0.9016   -3.0544   -4.6382 C   0  0  0  0  0  0  0  0  0  0  0  0
    4.2529   -2.3504   -3.2330 N   0  0  0  0  0  0  0  0  0  0  0  0
    3.5764   -3.8248   -4.9359 C   0  0  0  0  0  0  0  0  0  0  0  0
    1.2517   -4.0103   -5.6078 C   0  0  0  0  0  0  0  0  0  0  0  0
    2.5910   -4.3995   -5.7544 C   0  0  0  0  0  0  0  0  0  0  0  0
    2.1128   -0.5137    1.3918 H   0  0  0  0  0  0  0  0  0  0  0  0
    4.0423    0.3751    2.5849 H   0  0  0  0  0  0  0  0  0  0  0  0
    4.1471   -1.3685    2.6338 H   0  0  0  0  0  0  0  0  0  0  0  0
    5.1664   -0.4658    1.4980 H   0  0  0  0  0  0  0  0  0  0  0  0
    2.1851   -2.2378   -0.2968 H   0  0  0  0  0  0  0  0  0  0  0  0
    3.1420   -2.7967    1.0490 H   0  0  0  0  0  0  0  0  0  0  0  0
    3.9608   -2.1621   -0.3875 H   0  0  0  0  0  0  0  0  0  0  0  0
    4.1096    0.5053   -0.7067 H   0  0  0  0  0  0  0  0  0  0  0  0
    1.0774    0.2702   -0.8228 H   0  0  0  0  0  0  0  0  0  0  0  0
    4.0068    2.1199    1.0826 H   0  0  0  0  0  0  0  0  0  0  0  0
    2.2529    1.9669    1.2333 H   0  0  0  0  0  0  0  0  0  0  0  0
    2.7561    1.8380   -2.8413 H   0  0  0  0  0  0  0  0  0  0  0  0
    1.0058    1.6028   -2.8365 H   0  0  0  0  0  0  0  0  0  0  0  0
    2.8027    4.0783    0.2072 H   0  0  0  0  0  0  0  0  0  0  0  0
    3.8424    3.3116   -1.0009 H   0  0  0  0  0  0  0  0  0  0  0  0
    0.8070    2.9072   -0.7235 H   0  0  0  0  0  0  0  0  0  0  0  0
    2.3388    4.4380   -2.8918 H   0  0  0  0  0  0  0  0  0  0  0  0
    1.3344    5.1554   -1.6159 H   0  0  0  0  0  0  0  0  0  0  0  0
    0.5902    4.1345   -2.8520 H   0  0  0  0  0  0  0  0  0  0  0  0
   -0.0855   -2.7953   -4.5600 H   0  0  0  0  0  0  0  0  0  0  0  0
    5.1604   -2.6597   -3.3820 H   0  0  0  0  0  0  0  0  0  0  0  0
    4.0886   -1.6849   -2.5507 H   0  0  0  0  0  0  0  0  0  0  0  0
    4.5465   -4.1255   -5.0508 H   0  0  0  0  0  0  0  0  0  0  0  0
    0.5309   -4.4216   -6.2040 H   0  0  0  0  0  0  0  0  0  0  0  0
    2.8447   -5.1015   -6.4531 H   0  0  0  0  0  0  0  0  0  0  0  0
  1  2  1  0  0  0  0 
  1  3  1  0  0  0  0 
  1  4  1  0  0  0  0 
  4  5  1  0  0  0  0 
  4  6  1  0  0  0  0 
  5  7  1  0  0  0  0 
  5  8  1  0  0  0  0 
  6  9  1  0  0  0  0 
  7 10  1  0  0  0  0 
  8 11  1  0  0  0  0 
  9 11  1  0  0  0  0 
 10 12  2  0  0  0  0 
 10 13  1  0  0  0  0 
 11 14  1  0  0  0  0 
 13 15  2  0  0  0  0 
 13 16  1  0  0  0  0 
 15 17  1  0  0  0  0 
 15 18  1  0  0  0  0 
 16 19  2  0  0  0  0 
 18 20  2  0  0  0  0 
 19 20  1  0  0  0  0 
  1 21  1  0  0  0  0 
  2 22  1  0  0  0  0 
  2 23  1  0  0  0  0 
  2 24  1  0  0  0  0 
  3 25  1  0  0  0  0 
  3 26  1  0  0  0  0 
  3 27  1  0  0  0  0 
  4 28  1  0  0  0  0 
  5 29  1  0  0  0  0 
  6 30  1  0  0  0  0 
  6 31  1  0  0  0  0 
  8 32  1  0  0  0  0 
  8 33  1  0  0  0  0 
  9 34  1  0  0  0  0 
  9 35  1  0  0  0  0 
 11 36  1  0  0  0  0 
 14 37  1  0  0  0  0 
 14 38  1  0  0  0  0 
 14 39  1  0  0  0  0 
 16 40  1  0  0  0  0 
 17 41  1  0  0  0  0 
 17 42  1  0  0  0  0 
 18 43  1  0  0  0  0 
 19 44  1  0  0  0  0 
 20 45  1  0  0  0  0 
M  END
> <cdk:Title>
meradimate

> <Conformer>
1

> <SuperDrugID>
SD003568

$$$$
