dexmedetomidine
  CDK     0628171802

 31 32  0  0  0  0  0  0  0  0999 V2000
   -1.4966    1.2824   -1.0587 C   0  0  1  0  0  0  0  0  0  0  0  0
   -2.4339    2.0577   -0.0895 C   0  0  0  0  0  0  0  0  0  0  0  0
   -1.5294    1.7989   -2.4821 C   0  0  0  0  0  0  0  0  0  0  0  0
   -0.1089    1.2335   -0.5217 C   0  0  0  0  0  0  0  0  0  0  0  0
   -1.8899    1.0090   -3.6315 C   0  0  0  0  0  0  0  0  0  0  0  0
   -1.1706    3.1555   -2.6898 C   0  0  0  0  0  0  0  0  0  0  0  0
    0.6420    0.0992   -0.2157 C   0  0  0  0  0  0  0  0  0  0  0  0
    0.6805    2.2744   -0.2171 N   0  0  0  0  0  0  0  0  0  0  0  0
   -2.2715   -0.4308   -3.4613 C   0  0  0  0  0  0  0  0  0  0  0  0
   -1.8765    1.6114   -4.9354 C   0  0  0  0  0  0  0  0  0  0  0  0
   -1.1293    3.7258   -3.9643 C   0  0  0  0  0  0  0  0  0  0  0  0
    1.8480    0.4717    0.2428 N   0  0  0  0  0  0  0  0  0  0  0  0
    1.8552    1.8146    0.2332 C   0  0  0  0  0  0  0  0  0  0  0  0
   -2.2814    0.8963   -6.1808 C   0  0  0  0  0  0  0  0  0  0  0  0
   -1.4712    2.9581   -5.0786 C   0  0  0  0  0  0  0  0  0  0  0  0
   -1.8665    0.2596   -1.0161 H   0  0  0  0  0  0  0  0  0  0  0  0
   -2.4410    1.5694    0.8888 H   0  0  0  0  0  0  0  0  0  0  0  0
   -2.1107    3.0918    0.0532 H   0  0  0  0  0  0  0  0  0  0  0  0
   -3.4559    2.0647   -0.4744 H   0  0  0  0  0  0  0  0  0  0  0  0
   -0.9216    3.7592   -1.9056 H   0  0  0  0  0  0  0  0  0  0  0  0
    0.3319   -0.8692   -0.3219 H   0  0  0  0  0  0  0  0  0  0  0  0
    0.4398    3.2095   -0.3012 H   0  0  0  0  0  0  0  0  0  0  0  0
   -2.5386   -0.9455   -4.3837 H   0  0  0  0  0  0  0  0  0  0  0  0
   -1.4338   -0.9830   -3.0265 H   0  0  0  0  0  0  0  0  0  0  0  0
   -3.1386   -0.5052   -2.8015 H   0  0  0  0  0  0  0  0  0  0  0  0
   -0.8478    4.7006   -4.0821 H   0  0  0  0  0  0  0  0  0  0  0  0
    2.6357    2.4014    0.5294 H   0  0  0  0  0  0  0  0  0  0  0  0
   -3.3140    0.5569   -6.0905 H   0  0  0  0  0  0  0  0  0  0  0  0
   -1.6304    0.0389   -6.3482 H   0  0  0  0  0  0  0  0  0  0  0  0
   -2.2258    1.5214   -7.0750 H   0  0  0  0  0  0  0  0  0  0  0  0
   -1.4245    3.3992   -6.0018 H   0  0  0  0  0  0  0  0  0  0  0  0
  1  2  1  0  0  0  0 
  1  3  1  0  0  0  0 
  1  4  1  0  0  0  0 
  3  5  2  0  0  0  0 
  3  6  1  0  0  0  0 
  4  7  2  0  0  0  0 
  4  8  1  0  0  0  0 
  5  9  1  0  0  0  0 
  5 10  1  0  0  0  0 
  6 11  2  0  0  0  0 
  7 12  1  0  0  0  0 
  8 13  1  0  0  0  0 
 10 14  1  0  0  0  0 
 10 15  2  0  0  0  0 
 11 15  1  0  0  0  0 
 12 13  2  0  0  0  0 
  1 16  1  0  0  0  0 
 17  2  1  0  0  0  0 
 18  2  1  0  0  0  0 
 19  2  1  0  0  0  0 
 20  6  1  0  0  0  0 
 21  7  1  0  0  0  0 
 22  8  1  0  0  0  0 
 23  9  1  0  0  0  0 
 24  9  1  0  0  0  0 
 25  9  1  0  0  0  0 
 26 11  1  0  0  0  0 
 27 13  1  0  0  0  0 
 28 14  1  0  0  0  0 
 29 14  1  0  0  0  0 
 30 14  1  0  0  0  0 
 31 15  1  0  0  0  0 
M  END
> <cdk:Title>
dexmedetomidine

> <Conformer>
1

> <SuperDrugID>
SD000739

$$$$
