pridinol
  CDK     0628171801

 47 49  0  0  0  0  0  0  0  0999 V2000
   -3.1587    0.2862    0.9773 C   0  0  1  0  0  0  0  0  0  0  0  0
   -2.3797    0.7984    2.2479 C   0  0  1  0  0  0  0  0  0  0  0  0
   -2.1181   -0.2473    0.1406 O   0  0  0  0  0  0  0  0  0  0  0  0
   -4.1300   -0.8486    1.1975 C   0  0  0  0  0  0  0  0  0  0  0  0
   -3.9005    1.4173    0.3064 C   0  0  0  0  0  0  0  0  0  0  0  0
   -1.3372    1.9210    1.9494 C   0  0  2  0  0  0  0  0  0  0  0  0
   -4.7380   -1.1277    2.4496 C   0  0  0  0  0  0  0  0  0  0  0  0
   -4.4920   -1.6800    0.1033 C   0  0  0  0  0  0  0  0  0  0  0  0
   -4.8947    2.1397    1.0172 C   0  0  0  0  0  0  0  0  0  0  0  0
   -3.6303    1.8185   -1.0275 C   0  0  0  0  0  0  0  0  0  0  0  0
   -0.4857    2.3660    3.1041 N   0  0  2  0  0  0  0  0  0  0  0  0
   -5.6395   -2.1970    2.6055 C   0  0  0  0  0  0  0  0  0  0  0  0
   -5.3745   -2.7634    0.2588 C   0  0  0  0  0  0  0  0  0  0  0  0
   -5.5641    3.2325    0.4390 C   0  0  0  0  0  0  0  0  0  0  0  0
   -4.3081    2.9034   -1.6161 C   0  0  0  0  0  0  0  0  0  0  0  0
   -1.2580    2.9363    4.2576 C   0  0  2  0  0  0  0  0  0  0  0  0
    0.6069    3.2823    2.6293 C   0  0  1  0  0  0  0  0  0  0  0  0
   -5.9537   -3.0187    1.5110 C   0  0  0  0  0  0  0  0  0  0  0  0
   -5.2702    3.6142   -0.8795 C   0  0  0  0  0  0  0  0  0  0  0  0
   -0.3424    3.3954    5.4211 C   0  0  2  0  0  0  0  0  0  0  0  0
    1.5503    3.7483    3.7644 C   0  0  1  0  0  0  0  0  0  0  0  0
    0.7545    4.3704    4.9335 C   0  0  1  0  0  0  0  0  0  0  0  0
   -3.0932    1.1897    2.9722 H   0  0  0  0  0  0  0  0  0  0  0  0
   -1.8612   -0.0435    2.7182 H   0  0  0  0  0  0  0  0  0  0  0  0
   -1.7674   -1.0310    0.6160 H   0  0  0  0  0  0  0  0  0  0  0  0
   -1.8582    2.7918    1.5377 H   0  0  0  0  0  0  0  0  0  0  0  0
   -0.6735    1.5359    1.1703 H   0  0  0  0  0  0  0  0  0  0  0  0
   -4.5430   -0.5527    3.2684 H   0  0  0  0  0  0  0  0  0  0  0  0
   -4.1076   -1.5068   -0.8275 H   0  0  0  0  0  0  0  0  0  0  0  0
   -5.1344    1.8804    1.9752 H   0  0  0  0  0  0  0  0  0  0  0  0
   -2.9323    1.3273   -1.5876 H   0  0  0  0  0  0  0  0  0  0  0  0
   -6.0649   -2.3771    3.5176 H   0  0  0  0  0  0  0  0  0  0  0  0
   -5.5942   -3.3658   -0.5361 H   0  0  0  0  0  0  0  0  0  0  0  0
   -6.2635    3.7480    0.9780 H   0  0  0  0  0  0  0  0  0  0  0  0
   -4.1016    3.1765   -2.5789 H   0  0  0  0  0  0  0  0  0  0  0  0
   -1.9207    2.1741    4.6712 H   0  0  0  0  0  0  0  0  0  0  0  0
   -1.8762    3.7767    3.9263 H   0  0  0  0  0  0  0  0  0  0  0  0
    1.2231    2.7615    1.8907 H   0  0  0  0  0  0  0  0  0  0  0  0
    0.1774    4.1637    2.1429 H   0  0  0  0  0  0  0  0  0  0  0  0
   -6.6020   -3.7997    1.6274 H   0  0  0  0  0  0  0  0  0  0  0  0
   -5.7599    4.4051   -1.3027 H   0  0  0  0  0  0  0  0  0  0  0  0
    0.1302    2.5192    5.8729 H   0  0  0  0  0  0  0  0  0  0  0  0
   -0.9481    3.8832    6.1882 H   0  0  0  0  0  0  0  0  0  0  0  0
    2.1258    2.8943    4.1305 H   0  0  0  0  0  0  0  0  0  0  0  0
    2.2543    4.4862    3.3717 H   0  0  0  0  0  0  0  0  0  0  0  0
    0.2961    5.3085    4.6101 H   0  0  0  0  0  0  0  0  0  0  0  0
    1.4362    4.6004    5.7560 H   0  0  0  0  0  0  0  0  0  0  0  0
  1  2  1  0  0  0  0 
  1  3  1  0  0  0  0 
  1  4  1  0  0  0  0 
  1  5  1  0  0  0  0 
  2  6  1  0  0  0  0 
  4  7  2  0  0  0  0 
  4  8  1  0  0  0  0 
  5  9  2  0  0  0  0 
  5 10  1  0  0  0  0 
  6 11  1  0  0  0  0 
  7 12  1  0  0  0  0 
  8 13  2  0  0  0  0 
  9 14  1  0  0  0  0 
 10 15  2  0  0  0  0 
 11 16  1  0  0  0  0 
 11 17  1  0  0  0  0 
 12 18  2  0  0  0  0 
 13 18  1  0  0  0  0 
 14 19  2  0  0  0  0 
 15 19  1  0  0  0  0 
 16 20  1  0  0  0  0 
 17 21  1  0  0  0  0 
 20 22  1  0  0  0  0 
 21 22  1  0  0  0  0 
  2 23  1  0  0  0  0 
  2 24  1  0  0  0  0 
  3 25  1  0  0  0  0 
  6 26  1  0  0  0  0 
  6 27  1  0  0  0  0 
  7 28  1  0  0  0  0 
  8 29  1  0  0  0  0 
  9 30  1  0  0  0  0 
 10 31  1  0  0  0  0 
 12 32  1  0  0  0  0 
 13 33  1  0  0  0  0 
 14 34  1  0  0  0  0 
 15 35  1  0  0  0  0 
 16 36  1  0  0  0  0 
 16 37  1  0  0  0  0 
 17 38  1  0  0  0  0 
 17 39  1  0  0  0  0 
 18 40  1  0  0  0  0 
 19 41  1  0  0  0  0 
 20 42  1  0  0  0  0 
 20 43  1  0  0  0  0 
 21 44  1  0  0  0  0 
 21 45  1  0  0  0  0 
 22 46  1  0  0  0  0 
 22 47  1  0  0  0  0 
M  END
> <cdk:Title>
pridinol

> <Conformer>
1

> <SuperDrugID>
SD002029

$$$$
