leteprinim
  CDK     0628171801

 37 39  0  0  0  0  0  0  0  0999 V2000
   -7.1604   -4.2479   -0.1200 C   0  0  2  0  0  0  0  0  0  0  0  0
   -6.4375   -3.8751   -1.4397 C   0  0  1  0  0  0  0  0  0  0  0  0
   -8.4574   -4.7868   -0.4144 N   0  0  0  0  0  0  0  0  0  0  0  0
   -5.0301   -3.4609   -1.2531 C   0  0  0  0  0  0  0  0  0  0  0  0
   -9.5762   -4.1010   -0.7057 C   0  0  0  0  0  0  0  0  0  0  0  0
   -8.7806   -6.0966   -0.5083 C   0  0  0  0  0  0  0  0  0  0  0  0
   -4.7434   -2.3366   -0.5290 N   0  0  0  0  0  0  0  0  0  0  0  0
   -4.1473   -4.1372   -1.8324 O   0  0  0  0  0  0  0  0  0  0  0  0
  -10.5642   -5.0308   -1.0074 C   0  0  0  0  0  0  0  0  0  0  0  0
   -9.8313   -2.7682   -0.7391 N   0  0  0  0  0  0  0  0  0  0  0  0
  -10.0650   -6.2671   -0.8780 N   0  0  0  0  0  0  0  0  0  0  0  0
   -3.5238   -1.7487   -0.3036 C   0  0  0  0  0  0  0  0  0  0  0  0
  -11.8403   -4.5741   -1.3749 C   0  0  0  0  0  0  0  0  0  0  0  0
  -11.0783   -2.3360   -1.0784 C   0  0  0  0  0  0  0  0  0  0  0  0
   -2.2787   -2.4228   -0.3283 C   0  0  0  0  0  0  0  0  0  0  0  0
   -3.5172   -0.3646   -0.0241 C   0  0  0  0  0  0  0  0  0  0  0  0
  -12.7568   -5.3721   -1.6698 O   0  0  0  0  0  0  0  0  0  0  0  0
  -12.0593   -3.2292   -1.4003 N   0  0  0  0  0  0  0  0  0  0  0  0
   -1.0704   -1.7200   -0.1666 C   0  0  0  0  0  0  0  0  0  0  0  0
   -2.3084    0.3391    0.1390 C   0  0  0  0  0  0  0  0  0  0  0  0
   -1.0606   -0.3194    0.0405 C   0  0  0  0  0  0  0  0  0  0  0  0
    0.1568    0.4070    0.1311 C   0  0  0  0  0  0  0  0  0  0  0  0
    0.1714    1.7377    0.3917 O   0  0  0  0  0  0  0  0  0  0  0  0
    1.2716   -0.1350   -0.0473 O   0  0  0  0  0  0  0  0  0  0  0  0
   -7.2593   -3.3667    0.5222 H   0  0  0  0  0  0  0  0  0  0  0  0
   -6.5603   -4.9885    0.4191 H   0  0  0  0  0  0  0  0  0  0  0  0
   -6.4746   -4.7479   -2.1018 H   0  0  0  0  0  0  0  0  0  0  0  0
   -6.9773   -3.0615   -1.9338 H   0  0  0  0  0  0  0  0  0  0  0  0
   -8.1335   -6.8689   -0.3352 H   0  0  0  0  0  0  0  0  0  0  0  0
   -5.5127   -1.8680   -0.1673 H   0  0  0  0  0  0  0  0  0  0  0  0
  -11.2802   -1.3355   -1.0908 H   0  0  0  0  0  0  0  0  0  0  0  0
   -2.2314   -3.4340   -0.4561 H   0  0  0  0  0  0  0  0  0  0  0  0
   -4.3969    0.1540    0.0477 H   0  0  0  0  0  0  0  0  0  0  0  0
  -12.9366   -2.8985   -1.6530 H   0  0  0  0  0  0  0  0  0  0  0  0
   -0.1960   -2.2500   -0.2064 H   0  0  0  0  0  0  0  0  0  0  0  0
   -2.3533    1.3448    0.3199 H   0  0  0  0  0  0  0  0  0  0  0  0
    1.0174    2.2334    0.4179 H   0  0  0  0  0  0  0  0  0  0  0  0
  1  2  1  0  0  0  0 
  1  3  1  0  0  0  0 
  2  4  1  0  0  0  0 
  3  5  1  0  0  0  0 
  3  6  1  0  0  0  0 
  4  7  1  0  0  0  0 
  4  8  2  0  0  0  0 
  5  9  2  0  0  0  0 
  5 10  1  0  0  0  0 
  6 11  2  0  0  0  0 
  7 12  1  0  0  0  0 
  9 11  1  0  0  0  0 
  9 13  1  0  0  0  0 
 10 14  2  0  0  0  0 
 12 15  2  0  0  0  0 
 12 16  1  0  0  0  0 
 13 17  2  0  0  0  0 
 13 18  1  0  0  0  0 
 14 18  1  0  0  0  0 
 15 19  1  0  0  0  0 
 16 20  2  0  0  0  0 
 19 21  2  0  0  0  0 
 20 21  1  0  0  0  0 
 21 22  1  0  0  0  0 
 22 23  1  0  0  0  0 
 22 24  2  0  0  0  0 
 25  1  1  0  0  0  0 
 26  1  1  0  0  0  0 
 27  2  1  0  0  0  0 
 28  2  1  0  0  0  0 
 29  6  1  0  0  0  0 
 30  7  1  0  0  0  0 
 31 14  1  0  0  0  0 
 32 15  1  0  0  0  0 
 33 16  1  0  0  0  0 
 34 18  1  0  0  0  0 
 35 19  1  0  0  0  0 
 36 20  1  0  0  0  0 
 37 23  1  0  0  0  0 
M  END
> <cdk:Title>
leteprinim

> <Conformer>
1

> <SuperDrugID>
SD002866

$$$$
