fluphenazine
  CDK     0628171801

 56 59  0  0  0  0  0  0  0  0999 V2000
   -4.5112    2.8772   -6.8934 O   0  0  0  0  0  0  0  0  0  0  0  0
   -4.3434    2.4593   -5.5429 C   0  0  1  0  0  0  0  0  0  0  0  0
   -3.2939    1.3266   -5.4702 C   0  0  1  0  0  0  0  0  0  0  0  0
   -3.2626    0.5909   -4.1641 N   0  0  1  0  0  0  0  0  0  0  0  0
   -2.3968   -0.6286   -4.2369 C   0  0  2  0  0  0  0  0  0  0  0  0
   -2.4867   -1.4580   -2.9352 C   0  0  2  0  0  0  0  0  0  0  0  0
   -2.1264   -0.6250   -1.7466 N   0  0  2  0  0  0  0  0  0  0  0  0
   -2.0896   -1.4278   -0.4797 C   0  0  1  0  0  0  0  0  0  0  0  0
   -1.3481   -0.7544    0.7073 C   0  0  2  0  0  0  0  0  0  0  0  0
    0.0430   -0.1518    0.3688 C   0  0  1  0  0  0  0  0  0  0  0  0
    1.0035   -1.0908   -0.1993 N   0  0  0  0  0  0  0  0  0  0  0  0
    1.3268   -2.2661    0.4813 C   0  0  0  0  0  0  0  0  0  0  0  0
    1.5444   -2.2902    1.8837 C   0  0  0  0  0  0  0  0  0  0  0  0
    1.8674   -3.4844    2.5538 C   0  0  0  0  0  0  0  0  0  0  0  0
    1.9680   -4.6871    1.8365 C   0  0  0  0  0  0  0  0  0  0  0  0
    1.7558   -4.6958    0.4489 C   0  0  0  0  0  0  0  0  0  0  0  0
    1.4528   -3.4947   -0.2195 C   0  0  0  0  0  0  0  0  0  0  0  0
    1.2704   -3.5034   -1.9696 S   0  0  0  0  0  0  0  0  0  0  0  0
    1.7348   -1.8606   -2.4036 C   0  0  0  0  0  0  0  0  0  0  0  0
    2.2864   -1.5968   -3.6708 C   0  0  0  0  0  0  0  0  0  0  0  0
    2.6929   -0.2931   -4.0047 C   0  0  0  0  0  0  0  0  0  0  0  0
    2.5612    0.7644   -3.0749 C   0  0  0  0  0  0  0  0  0  0  0  0
    2.0230    0.4683   -1.7999 C   0  0  0  0  0  0  0  0  0  0  0  0
    1.5745   -0.8302   -1.4450 C   0  0  0  0  0  0  0  0  0  0  0  0
    2.9575    2.1676   -3.3882 C   0  0  1  0  0  0  0  0  0  0  0  0
    3.4692    2.3505   -4.6512 F   0  0  0  0  0  0  0  0  0  0  0  0
    1.8636    2.9926   -3.2797 F   0  0  0  0  0  0  0  0  0  0  0  0
    3.9152    2.5975   -2.5021 F   0  0  0  0  0  0  0  0  0  0  0  0
   -2.9577    0.6183   -1.6610 C   0  0  1  0  0  0  0  0  0  0  0  0
   -2.9272    1.4352   -2.9768 C   0  0  2  0  0  0  0  0  0  0  0  0
   -5.1831    3.5886   -6.8517 H   0  0  0  0  0  0  0  0  0  0  0  0
   -4.0205    3.3212   -4.9580 H   0  0  0  0  0  0  0  0  0  0  0  0
   -5.3014    2.1105   -5.1522 H   0  0  0  0  0  0  0  0  0  0  0  0
   -3.5507    0.6154   -6.2621 H   0  0  0  0  0  0  0  0  0  0  0  0
   -2.3073    1.7427   -5.7009 H   0  0  0  0  0  0  0  0  0  0  0  0
   -1.3500   -0.3536   -4.4101 H   0  0  0  0  0  0  0  0  0  0  0  0
   -2.7129   -1.2692   -5.0674 H   0  0  0  0  0  0  0  0  0  0  0  0
   -1.7896   -2.2984   -3.0271 H   0  0  0  0  0  0  0  0  0  0  0  0
   -3.4978   -1.8657   -2.8330 H   0  0  0  0  0  0  0  0  0  0  0  0
   -3.1105   -1.6643   -0.1606 H   0  0  0  0  0  0  0  0  0  0  0  0
   -1.5878   -2.3811   -0.6619 H   0  0  0  0  0  0  0  0  0  0  0  0
   -1.2372   -1.4874    1.5078 H   0  0  0  0  0  0  0  0  0  0  0  0
   -1.9790    0.0407    1.1093 H   0  0  0  0  0  0  0  0  0  0  0  0
   -0.1537    0.6899   -0.2993 H   0  0  0  0  0  0  0  0  0  0  0  0
    0.4614    0.2893    1.2746 H   0  0  0  0  0  0  0  0  0  0  0  0
    1.4752   -1.4372    2.4392 H   0  0  0  0  0  0  0  0  0  0  0  0
    2.0316   -3.4780    3.5629 H   0  0  0  0  0  0  0  0  0  0  0  0
    2.2012   -5.5556    2.3210 H   0  0  0  0  0  0  0  0  0  0  0  0
    1.8321   -5.5761   -0.0660 H   0  0  0  0  0  0  0  0  0  0  0  0
    2.4005   -2.3525   -4.3518 H   0  0  0  0  0  0  0  0  0  0  0  0
    3.0908   -0.1304   -4.9319 H   0  0  0  0  0  0  0  0  0  0  0  0
    1.9589    1.2222   -1.1116 H   0  0  0  0  0  0  0  0  0  0  0  0
   -3.9953    0.3667   -1.4240 H   0  0  0  0  0  0  0  0  0  0  0  0
   -2.5811    1.2723   -0.8721 H   0  0  0  0  0  0  0  0  0  0  0  0
   -3.6642    2.2350   -2.8709 H   0  0  0  0  0  0  0  0  0  0  0  0
   -1.9391    1.8901   -3.1050 H   0  0  0  0  0  0  0  0  0  0  0  0
  1  2  1  0  0  0  0 
  2  3  1  0  0  0  0 
  3  4  1  0  0  0  0 
  4  5  1  0  0  0  0 
  5  6  1  0  0  0  0 
  6  7  1  0  0  0  0 
  7  8  1  0  0  0  0 
  8  9  1  0  0  0  0 
  9 10  1  0  0  0  0 
 10 11  1  0  0  0  0 
 11 12  1  0  0  0  0 
 12 13  2  0  0  0  0 
 13 14  1  0  0  0  0 
 14 15  2  0  0  0  0 
 15 16  1  0  0  0  0 
 16 17  2  0  0  0  0 
 12 17  1  0  0  0  0 
 17 18  1  0  0  0  0 
 18 19  1  0  0  0  0 
 19 20  2  0  0  0  0 
 20 21  1  0  0  0  0 
 21 22  2  0  0  0  0 
 22 23  1  0  0  0  0 
 23 24  2  0  0  0  0 
 11 24  1  0  0  0  0 
 19 24  1  0  0  0  0 
 22 25  1  0  0  0  0 
 25 26  1  0  0  0  0 
 25 27  1  0  0  0  0 
 25 28  1  0  0  0  0 
  7 29  1  0  0  0  0 
 29 30  1  0  0  0  0 
  4 30  1  0  0  0  0 
  1 31  1  0  0  0  0 
  2 32  1  0  0  0  0 
  2 33  1  0  0  0  0 
  3 34  1  0  0  0  0 
  3 35  1  0  0  0  0 
  5 36  1  0  0  0  0 
  5 37  1  0  0  0  0 
  6 38  1  0  0  0  0 
  6 39  1  0  0  0  0 
  8 40  1  0  0  0  0 
  8 41  1  0  0  0  0 
  9 42  1  0  0  0  0 
  9 43  1  0  0  0  0 
 10 44  1  0  0  0  0 
 10 45  1  0  0  0  0 
 13 46  1  0  0  0  0 
 14 47  1  0  0  0  0 
 15 48  1  0  0  0  0 
 16 49  1  0  0  0  0 
 20 50  1  0  0  0  0 
 21 51  1  0  0  0  0 
 23 52  1  0  0  0  0 
 29 53  1  0  0  0  0 
 29 54  1  0  0  0  0 
 30 55  1  0  0  0  0 
 30 56  1  0  0  0  0 
M  END
> <cdk:Title>
fluphenazine

> <Conformer>
1

> <SuperDrugID>
SD001085

$$$$
