framycetin
  CDK     0628171801

 88 91  0  0  0  0  0  0  0  0999 V2000
   -8.4384   76.1253   17.1155 O   0  0  0  0  0  0  0  0  0  0  0  0
   -7.3184   76.7976   17.7538 C   0  0  1  0  0  0  0  0  0  0  0  0
   -9.1769   75.0918   17.8111 C   0  0  1  0  0  0  0  0  0  0  0  0
   -6.0024   75.9384   17.7908 C   0  0  2  0  0  0  0  0  0  0  0  0
   -7.1248   78.1093   16.9192 C   0  0  1  0  0  0  0  0  0  0  0  0
   -9.5480   75.4418   19.1659 O   0  0  0  0  0  0  0  0  0  0  0  0
  -10.4277   74.6742   16.9861 C   0  0  2  0  0  0  0  0  0  0  0  0
   -6.2987   74.7277   18.5705 O   0  0  0  0  0  0  0  0  0  0  0  0
   -4.7938   76.8126   18.4198 C   0  0  1  0  0  0  0  0  0  0  0  0
   -8.3669   78.8992   16.8822 N   0  0  2  0  0  0  0  0  0  0  0  0
   -5.9902   79.0228   17.4511 C   0  0  1  0  0  0  0  0  0  0  0  0
  -10.5361   76.4909   19.3003 C   0  0  2  0  0  0  0  0  0  0  0  0
  -10.0772   74.4076   15.5823 N   0  0  1  0  0  0  0  0  0  0  0  0
  -11.5425   75.7525   17.0786 C   0  0  2  0  0  0  0  0  0  0  0  0
   -5.5680   73.5536   18.1757 C   0  0  1  0  0  0  0  0  0  0  0  0
   -3.5492   76.0839   18.3639 O   0  0  0  0  0  0  0  0  0  0  0  0
   -4.6582   78.1849   17.5865 C   0  0  1  0  0  0  0  0  0  0  0  0
  -10.7293   76.7803   20.8130 C   0  0  1  0  0  0  0  0  0  0  0  0
  -11.8503   76.0918   18.5624 C   0  0  2  0  0  0  0  0  0  0  0  0
  -12.7262   75.2915   16.4267 O   0  0  0  0  0  0  0  0  0  0  0  0
   -5.7168   72.4387   19.2191 C   0  0  2  0  0  0  0  0  0  0  0  0
   -6.0813   73.0298   16.9426 O   0  0  0  0  0  0  0  0  0  0  0  0
   -3.6510   79.0220   18.2551 N   0  0  1  0  0  0  0  0  0  0  0  0
  -11.1852   75.6008   21.5584 N   0  0  1  0  0  0  0  0  0  0  0  0
  -12.8161   77.1414   18.6154 O   0  0  0  0  0  0  0  0  0  0  0  0
   -4.8214   72.6092   20.3174 O   0  0  0  0  0  0  0  0  0  0  0  0
   -5.4100   71.2023   18.3636 C   0  0  1  0  0  0  0  0  0  0  0  0
   -6.0669   71.5954   17.0100 C   0  0  1  0  0  0  0  0  0  0  0  0
   -3.9689   71.0773   18.2926 O   0  0  0  0  0  0  0  0  0  0  0  0
   -7.5224   71.0889   16.8427 C   0  0  2  0  0  0  0  0  0  0  0  0
   -3.4142   69.9097   17.6532 C   0  0  1  0  0  0  0  0  0  0  0  0
   -8.0570   71.5104   15.5925 O   0  0  0  0  0  0  0  0  0  0  0  0
   -2.9477   70.2332   16.3208 O   0  0  0  0  0  0  0  0  0  0  0  0
   -2.2820   69.3151   18.5390 C   0  0  2  0  0  0  0  0  0  0  0  0
   -1.7540   71.0499   16.1900 C   0  0  1  0  0  0  0  0  0  0  0  0
   -2.7487   69.1395   19.9243 N   0  0  1  0  0  0  0  0  0  0  0  0
   -1.0136   70.2108   18.5030 C   0  0  2  0  0  0  0  0  0  0  0  0
   -1.9982   72.5721   16.4052 C   0  0  2  0  0  0  0  0  0  0  0  0
   -0.5781   70.4697   17.0369 C   0  0  2  0  0  0  0  0  0  0  0  0
    0.0541   69.5963   19.2248 O   0  0  0  0  0  0  0  0  0  0  0  0
   -3.0752   73.0780   15.5509 N   0  0  2  0  0  0  0  0  0  0  0  0
    0.5700   71.3166   17.0051 O   0  0  0  0  0  0  0  0  0  0  0  0
   -7.5817   77.0856   18.7756 H   0  0  0  0  0  0  0  0  0  0  0  0
   -4.5051   73.7722   18.0491 H   0  0  0  0  0  0  0  0  0  0  0  0
   -4.1722   69.1285   17.5364 H   0  0  0  0  0  0  0  0  0  0  0  0
   -8.5554   74.2012   17.8752 H   0  0  0  0  0  0  0  0  0  0  0  0
   -5.8584   75.6307   16.7166 H   0  0  0  0  0  0  0  0  0  0  0  0
   -6.8883   77.8381   15.8858 H   0  0  0  0  0  0  0  0  0  0  0  0
  -10.8138   73.7387   17.4024 H   0  0  0  0  0  0  0  0  0  0  0  0
   -5.0192   77.0313   19.4678 H   0  0  0  0  0  0  0  0  0  0  0  0
   -9.0860   78.3151   16.4523 H   0  0  0  0  0  0  0  0  0  0  0  0
   -8.2042   79.6798   16.2427 H   0  0  0  0  0  0  0  0  0  0  0  0
   -5.8341   79.8647   16.7699 H   0  0  0  0  0  0  0  0  0  0  0  0
   -6.2735   79.4163   18.4318 H   0  0  0  0  0  0  0  0  0  0  0  0
  -10.1514   77.4120   18.8497 H   0  0  0  0  0  0  0  0  0  0  0  0
   -9.3586   73.6820   15.5838 H   0  0  0  0  0  0  0  0  0  0  0  0
  -10.9053   74.0009   15.1420 H   0  0  0  0  0  0  0  0  0  0  0  0
  -11.2179   76.6617   16.5611 H   0  0  0  0  0  0  0  0  0  0  0  0
   -2.8231   76.5894   18.8202 H   0  0  0  0  0  0  0  0  0  0  0  0
   -4.2750   78.0662   16.5353 H   0  0  0  0  0  0  0  0  0  0  0  0
   -9.7797   77.1052   21.2446 H   0  0  0  0  0  0  0  0  0  0  0  0
  -11.4518   77.5862   20.9537 H   0  0  0  0  0  0  0  0  0  0  0  0
  -12.2801   75.2056   19.0373 H   0  0  0  0  0  0  0  0  0  0  0  0
  -12.9647   74.4603   16.8887 H   0  0  0  0  0  0  0  0  0  0  0  0
   -6.7424   72.3978   19.5987 H   0  0  0  0  0  0  0  0  0  0  0  0
   -3.5841   79.8933   17.7258 H   0  0  0  0  0  0  0  0  0  0  0  0
   -4.0137   79.2599   19.1801 H   0  0  0  0  0  0  0  0  0  0  0  0
  -11.3102   75.8905   22.5309 H   0  0  0  0  0  0  0  0  0  0  0  0
  -12.1113   75.3591   21.2019 H   0  0  0  0  0  0  0  0  0  0  0  0
  -13.0456   77.2347   19.5632 H   0  0  0  0  0  0  0  0  0  0  0  0
   -5.0382   73.4892   20.6894 H   0  0  0  0  0  0  0  0  0  0  0  0
   -5.8535   70.3097   18.8154 H   0  0  0  0  0  0  0  0  0  0  0  0
   -5.4803   71.2141   16.1713 H   0  0  0  0  0  0  0  0  0  0  0  0
   -8.1591   71.4810   17.6389 H   0  0  0  0  0  0  0  0  0  0  0  0
   -7.5458   69.9986   16.8771 H   0  0  0  0  0  0  0  0  0  0  0  0
   -8.9625   71.1357   15.5659 H   0  0  0  0  0  0  0  0  0  0  0  0
   -2.0243   68.3238   18.1511 H   0  0  0  0  0  0  0  0  0  0  0  0
   -1.4589   70.9473   15.1420 H   0  0  0  0  0  0  0  0  0  0  0  0
   -3.5697   68.5305   19.8947 H   0  0  0  0  0  0  0  0  0  0  0  0
   -2.0178   68.6282   20.4238 H   0  0  0  0  0  0  0  0  0  0  0  0
   -1.2264   71.1631   18.9964 H   0  0  0  0  0  0  0  0  0  0  0  0
   -1.0941   73.1270   16.1453 H   0  0  0  0  0  0  0  0  0  0  0  0
   -2.2386   72.7922   17.4443 H   0  0  0  0  0  0  0  0  0  0  0  0
   -0.2782   69.5156   16.5937 H   0  0  0  0  0  0  0  0  0  0  0  0
    0.2464   68.7656   18.7420 H   0  0  0  0  0  0  0  0  0  0  0  0
   -3.1031   74.0920   15.6772 H   0  0  0  0  0  0  0  0  0  0  0  0
   -3.9492   72.7115   15.9263 H   0  0  0  0  0  0  0  0  0  0  0  0
    0.7934   71.4028   16.0548 H   0  0  0  0  0  0  0  0  0  0  0  0
  2  1  1  0  0  0  0 
  4  2  1  0  0  0  0 
  2  5  1  0  0  0  0 
  2 43  1  0  0  0  0 
  3  1  1  0  0  0  0 
  3  6  1  0  0  0  0 
  7  3  1  0  0  0  0 
  4  8  1  0  0  0  0 
  9  4  1  0  0  0  0 
  5 10  1  0  0  0  0 
  5 11  1  0  0  0  0 
 12  6  1  0  0  0  0 
  7 13  1  0  0  0  0 
 14  7  1  0  0  0  0 
 15  8  1  0  0  0  0 
  9 16  1  0  0  0  0 
 17  9  1  0  0  0  0 
 17 11  1  0  0  0  0 
 12 18  1  0  0  0  0 
 19 12  1  0  0  0  0 
 19 14  1  0  0  0  0 
 14 20  1  0  0  0  0 
 21 15  1  0  0  0  0 
 15 22  1  0  0  0  0 
 15 44  1  0  0  0  0 
 17 23  1  0  0  0  0 
 18 24  1  0  0  0  0 
 19 25  1  0  0  0  0 
 21 26  1  0  0  0  0 
 27 21  1  0  0  0  0 
 28 22  1  0  0  0  0 
 28 27  1  0  0  0  0 
 27 29  1  0  0  0  0 
 28 30  1  0  0  0  0 
 31 29  1  0  0  0  0 
 30 32  1  0  0  0  0 
 31 33  1  0  0  0  0 
 31 34  1  0  0  0  0 
 31 45  1  0  0  0  0 
 35 33  1  0  0  0  0 
 34 36  1  0  0  0  0 
 34 37  1  0  0  0  0 
 35 38  1  0  0  0  0 
 39 35  1  0  0  0  0 
 37 39  1  0  0  0  0 
 37 40  1  0  0  0  0 
 38 41  1  0  0  0  0 
 39 42  1  0  0  0  0 
  3 46  1  0  0  0  0 
  4 47  1  0  0  0  0 
  5 48  1  0  0  0  0 
  7 49  1  0  0  0  0 
  9 50  1  0  0  0  0 
 10 51  1  0  0  0  0 
 10 52  1  0  0  0  0 
 11 53  1  0  0  0  0 
 11 54  1  0  0  0  0 
 12 55  1  0  0  0  0 
 13 56  1  0  0  0  0 
 13 57  1  0  0  0  0 
 14 58  1  0  0  0  0 
 16 59  1  0  0  0  0 
 17 60  1  0  0  0  0 
 18 61  1  0  0  0  0 
 18 62  1  0  0  0  0 
 19 63  1  0  0  0  0 
 20 64  1  0  0  0  0 
 21 65  1  0  0  0  0 
 23 66  1  0  0  0  0 
 23 67  1  0  0  0  0 
 24 68  1  0  0  0  0 
 24 69  1  0  0  0  0 
 25 70  1  0  0  0  0 
 26 71  1  0  0  0  0 
 27 72  1  0  0  0  0 
 28 73  1  0  0  0  0 
 30 74  1  0  0  0  0 
 30 75  1  0  0  0  0 
 32 76  1  0  0  0  0 
 34 77  1  0  0  0  0 
 35 78  1  0  0  0  0 
 36 79  1  0  0  0  0 
 36 80  1  0  0  0  0 
 37 81  1  0  0  0  0 
 38 82  1  0  0  0  0 
 38 83  1  0  0  0  0 
 39 84  1  0  0  0  0 
 40 85  1  0  0  0  0 
 41 86  1  0  0  0  0 
 41 87  1  0  0  0  0 
 42 88  1  0  0  0  0 
M  END
> <cdk:Title>
framycetin

> <Conformer>
1

> <SuperDrugID>
SD001691

$$$$
