lonazolac
  CDK     0628171801

 35 37  0  0  0  0  0  0  0  0999 V2000
   -1.6424   -5.7657   -1.2357 C   0  0  2  0  0  0  0  0  0  0  0  0
   -2.3861   -5.5776   -2.4959 C   0  0  0  0  0  0  0  0  0  0  0  0
   -1.1445   -4.4804   -0.6930 C   0  0  0  0  0  0  0  0  0  0  0  0
   -1.8117   -4.9764   -3.5645 O   0  0  0  0  0  0  0  0  0  0  0  0
   -3.5676   -5.9760   -2.6106 O   0  0  0  0  0  0  0  0  0  0  0  0
   -1.5989   -3.7496    0.4075 C   0  0  0  0  0  0  0  0  0  0  0  0
   -0.0578   -3.7544   -1.1674 C   0  0  0  0  0  0  0  0  0  0  0  0
   -0.8126   -2.6676    0.5401 N   0  0  0  0  0  0  0  0  0  0  0  0
   -2.6696   -4.0480    1.2745 C   0  0  0  0  0  0  0  0  0  0  0  0
    0.0962   -2.6663   -0.3883 N   0  0  0  0  0  0  0  0  0  0  0  0
   -2.4312   -4.2206    2.6570 C   0  0  0  0  0  0  0  0  0  0  0  0
   -3.9883   -4.1865    0.7840 C   0  0  0  0  0  0  0  0  0  0  0  0
    1.0411   -1.6901   -0.5221 C   0  0  0  0  0  0  0  0  0  0  0  0
   -3.4861   -4.5577    3.5265 C   0  0  0  0  0  0  0  0  0  0  0  0
   -5.0464   -4.5072    1.6573 C   0  0  0  0  0  0  0  0  0  0  0  0
    0.6678   -0.3282   -0.4315 C   0  0  0  0  0  0  0  0  0  0  0  0
    2.4036   -2.0087   -0.7366 C   0  0  0  0  0  0  0  0  0  0  0  0
   -4.7968   -4.6988    3.0307 C   0  0  0  0  0  0  0  0  0  0  0  0
    1.6291    0.6905   -0.5647 C   0  0  0  0  0  0  0  0  0  0  0  0
    3.3675   -0.9896   -0.8564 C   0  0  0  0  0  0  0  0  0  0  0  0
   -6.0645   -5.0997    4.0798 Cl  0  0  0  0  0  0  0  0  0  0  0  0
    2.9790    0.3599   -0.7796 C   0  0  0  0  0  0  0  0  0  0  0  0
   -0.7945   -6.4268   -1.4177 H   0  0  0  0  0  0  0  0  0  0  0  0
   -2.2825   -6.2552   -0.4994 H   0  0  0  0  0  0  0  0  0  0  0  0
   -2.3348   -4.8227   -4.3790 H   0  0  0  0  0  0  0  0  0  0  0  0
    0.5174   -4.0050   -1.9747 H   0  0  0  0  0  0  0  0  0  0  0  0
   -1.4867   -4.1260    3.0403 H   0  0  0  0  0  0  0  0  0  0  0  0
   -4.1922   -4.0486   -0.2103 H   0  0  0  0  0  0  0  0  0  0  0  0
   -3.2936   -4.7045    4.5209 H   0  0  0  0  0  0  0  0  0  0  0  0
   -5.9972   -4.6050    1.2869 H   0  0  0  0  0  0  0  0  0  0  0  0
   -0.3105   -0.0702   -0.2774 H   0  0  0  0  0  0  0  0  0  0  0  0
    2.7044   -2.9853   -0.7915 H   0  0  0  0  0  0  0  0  0  0  0  0
    1.3454    1.6707   -0.5057 H   0  0  0  0  0  0  0  0  0  0  0  0
    4.3508   -1.2311   -0.9982 H   0  0  0  0  0  0  0  0  0  0  0  0
    3.6780    1.0998   -0.8788 H   0  0  0  0  0  0  0  0  0  0  0  0
  1  2  1  0  0  0  0 
  1  3  1  0  0  0  0 
  2  4  1  0  0  0  0 
  2  5  2  0  0  0  0 
  3  6  1  0  0  0  0 
  3  7  2  0  0  0  0 
  6  8  2  0  0  0  0 
  6  9  1  0  0  0  0 
  7 10  1  0  0  0  0 
  8 10  1  0  0  0  0 
  9 11  2  0  0  0  0 
  9 12  1  0  0  0  0 
 10 13  1  0  0  0  0 
 11 14  1  0  0  0  0 
 12 15  2  0  0  0  0 
 13 16  2  0  0  0  0 
 13 17  1  0  0  0  0 
 14 18  2  0  0  0  0 
 15 18  1  0  0  0  0 
 16 19  1  0  0  0  0 
 17 20  2  0  0  0  0 
 18 21  1  0  0  0  0 
 19 22  2  0  0  0  0 
 20 22  1  0  0  0  0 
  1 23  1  0  0  0  0 
  1 24  1  0  0  0  0 
  4 25  1  0  0  0  0 
  7 26  1  0  0  0  0 
 11 27  1  0  0  0  0 
 12 28  1  0  0  0  0 
 14 29  1  0  0  0  0 
 15 30  1  0  0  0  0 
 16 31  1  0  0  0  0 
 17 32  1  0  0  0  0 
 19 33  1  0  0  0  0 
 20 34  1  0  0  0  0 
 22 35  1  0  0  0  0 
M  END
> <cdk:Title>
lonazolac

> <Conformer>
1

> <SuperDrugID>
SD001411

$$$$
