fluoresone
  CDK     0628171801

 21 21  0  0  0  0  0  0  0  0999 V2000
    2.1244    1.6935    0.0094 S   0  0  1  0  0  0  0  0  0  0  0  0
    1.4622   -0.0147    0.1356 C   0  0  2  0  0  0  0  0  0  0  0  0
    1.6803    2.5044    1.3218 O   0  0  0  0  0  0  0  0  0  0  0  0
    3.7266    1.6072   -0.0077 O   0  0  0  0  0  0  0  0  0  0  0  0
    1.5609    2.5308   -1.4505 C   0  0  0  0  0  0  0  0  0  0  0  0
   -0.0791   -0.0457    0.1329 C   0  0  0  0  0  0  0  0  0  0  0  0
    1.3279    3.9236   -1.4305 C   0  0  0  0  0  0  0  0  0  0  0  0
    1.3316    1.8143   -2.6447 C   0  0  0  0  0  0  0  0  0  0  0  0
    0.8398    4.5809   -2.5750 C   0  0  0  0  0  0  0  0  0  0  0  0
    0.8309    2.4657   -3.7853 C   0  0  0  0  0  0  0  0  0  0  0  0
    0.5818    3.8505   -3.7516 C   0  0  0  0  0  0  0  0  0  0  0  0
    0.1155    4.4549   -4.8088 F   0  0  0  0  0  0  0  0  0  0  0  0
    1.8329   -0.4595    1.0625 H   0  0  0  0  0  0  0  0  0  0  0  0
    1.8434   -0.6096   -0.6962 H   0  0  0  0  0  0  0  0  0  0  0  0
   -0.4662    0.4852    1.0037 H   0  0  0  0  0  0  0  0  0  0  0  0
   -0.4211   -1.0798    0.1686 H   0  0  0  0  0  0  0  0  0  0  0  0
   -0.4741    0.4187   -0.7713 H   0  0  0  0  0  0  0  0  0  0  0  0
    1.5066    4.4698   -0.5842 H   0  0  0  0  0  0  0  0  0  0  0  0
    1.5195    0.8118   -2.6959 H   0  0  0  0  0  0  0  0  0  0  0  0
    0.6719    5.5896   -2.5487 H   0  0  0  0  0  0  0  0  0  0  0  0
    0.6479    1.9259   -4.6349 H   0  0  0  0  0  0  0  0  0  0  0  0
  1  2  1  0  0  0  0 
  1  3  2  0  0  0  0 
  1  4  2  0  0  0  0 
  1  5  1  0  0  0  0 
  2  6  1  0  0  0  0 
  5  7  2  0  0  0  0 
  5  8  1  0  0  0  0 
  7  9  1  0  0  0  0 
  8 10  2  0  0  0  0 
  9 11  2  0  0  0  0 
 10 11  1  0  0  0  0 
 11 12  1  0  0  0  0 
  2 13  1  0  0  0  0 
  2 14  1  0  0  0  0 
  6 15  1  0  0  0  0 
  6 16  1  0  0  0  0 
  6 17  1  0  0  0  0 
  7 18  1  0  0  0  0 
  8 19  1  0  0  0  0 
  9 20  1  0  0  0  0 
 10 21  1  0  0  0  0 
M  END
> <cdk:Title>
fluoresone

> <Conformer>
1

> <SuperDrugID>
SD002799

$$$$
