repaglinide
  CDK     0628171801

 69 71  0  0  0  0  0  0  0  0999 V2000
   -1.1726   -2.2414    0.4122 C   0  0  1  0  0  0  0  0  0  0  0  0
   -0.3150   -1.1620    0.0226 N   0  0  0  0  0  0  0  0  0  0  0  0
   -0.5142   -3.6159    0.0334 C   0  0  2  0  0  0  0  0  0  0  0  0
   -1.4906   -2.1741    1.8829 C   0  0  0  0  0  0  0  0  0  0  0  0
   -0.6541    0.1517   -0.0867 C   0  0  0  0  0  0  0  0  0  0  0  0
   -0.5626   -4.0149   -1.4818 C   0  0  2  0  0  0  0  0  0  0  0  0
   -2.8778   -2.1338    2.3500 C   0  0  0  0  0  0  0  0  0  0  0  0
   -0.3279   -2.1513    2.7678 C   0  0  0  0  0  0  0  0  0  0  0  0
    0.3985    1.1181   -0.4677 C   0  0  2  0  0  0  0  0  0  0  0  0
   -1.8214    0.5514    0.1375 O   0  0  0  0  0  0  0  0  0  0  0  0
   -0.1662   -5.5084   -1.6716 C   0  0  0  0  0  0  0  0  0  0  0  0
    0.3234   -3.1229   -2.3942 C   0  0  0  0  0  0  0  0  0  0  0  0
   -2.9563   -2.0899    3.8315 C   0  0  0  0  0  0  0  0  0  0  0  0
   -4.0329   -2.1134    1.6009 N   0  0  0  0  0  0  0  0  0  0  0  0
   -0.5255   -2.1105    4.1602 C   0  0  0  0  0  0  0  0  0  0  0  0
    0.9461    0.8356   -1.8223 C   0  0  0  0  0  0  0  0  0  0  0  0
   -1.8154   -2.0856    4.7202 C   0  0  0  0  0  0  0  0  0  0  0  0
   -4.3721   -3.1641    0.6609 C   0  0  2  0  0  0  0  0  0  0  0  0
   -4.9984   -1.0489    1.7871 C   0  0  1  0  0  0  0  0  0  0  0  0
    0.2870    1.3012   -2.9804 C   0  0  0  0  0  0  0  0  0  0  0  0
    2.1230    0.0726   -1.9827 C   0  0  0  0  0  0  0  0  0  0  0  0
   -5.7585   -3.7870    0.9785 C   0  0  2  0  0  0  0  0  0  0  0  0
   -6.3668   -1.6361    2.2182 C   0  0  1  0  0  0  0  0  0  0  0  0
    0.7810    1.0107   -4.2707 C   0  0  0  0  0  0  0  0  0  0  0  0
    2.6037   -0.2459   -3.2649 C   0  0  0  0  0  0  0  0  0  0  0  0
   -6.8398   -2.6969    1.1930 C   0  0  1  0  0  0  0  0  0  0  0  0
    0.0907    1.5179   -5.3431 O   0  0  0  0  0  0  0  0  0  0  0  0
    1.9320    0.1897   -4.4341 C   0  0  0  0  0  0  0  0  0  0  0  0
    0.4998    2.8520   -5.7159 C   0  0  1  0  0  0  0  0  0  0  0  0
    2.4019   -0.2207   -5.7150 C   0  0  0  0  0  0  0  0  0  0  0  0
   -0.2712    3.2695   -6.9824 C   0  0  0  0  0  0  0  0  0  0  0  0
    3.5699   -0.8917   -5.8679 O   0  0  0  0  0  0  0  0  0  0  0  0
    1.7507   -0.0213   -6.7660 O   0  0  0  0  0  0  0  0  0  0  0  0
   -2.0777   -2.1450   -0.1838 H   0  0  0  0  0  0  0  0  0  0  0  0
    0.6056   -1.3891   -0.1749 H   0  0  0  0  0  0  0  0  0  0  0  0
   -1.0421   -4.4005    0.5886 H   0  0  0  0  0  0  0  0  0  0  0  0
    0.5282   -3.6438    0.3693 H   0  0  0  0  0  0  0  0  0  0  0  0
   -1.5967   -3.9131   -1.8239 H   0  0  0  0  0  0  0  0  0  0  0  0
    0.6281   -2.1565    2.3998 H   0  0  0  0  0  0  0  0  0  0  0  0
    1.1916    1.0673    0.2827 H   0  0  0  0  0  0  0  0  0  0  0  0
    0.0107    2.1398   -0.4363 H   0  0  0  0  0  0  0  0  0  0  0  0
   -0.8059   -6.1544   -1.0681 H   0  0  0  0  0  0  0  0  0  0  0  0
   -0.2821   -5.8094   -2.7154 H   0  0  0  0  0  0  0  0  0  0  0  0
    0.8722   -5.6754   -1.3763 H   0  0  0  0  0  0  0  0  0  0  0  0
   -0.0297   -2.0961   -2.3926 H   0  0  0  0  0  0  0  0  0  0  0  0
    0.2821   -3.4738   -3.4257 H   0  0  0  0  0  0  0  0  0  0  0  0
    1.3622   -3.1429   -2.0631 H   0  0  0  0  0  0  0  0  0  0  0  0
   -3.8727   -2.0600    4.3852 H   0  0  0  0  0  0  0  0  0  0  0  0
    0.2900   -2.0961    4.7776 H   0  0  0  0  0  0  0  0  0  0  0  0
   -1.9378   -2.0637    5.7349 H   0  0  0  0  0  0  0  0  0  0  0  0
   -3.6336   -3.9723    0.6626 H   0  0  0  0  0  0  0  0  0  0  0  0
   -4.3950   -2.7418   -0.3486 H   0  0  0  0  0  0  0  0  0  0  0  0
   -4.6846   -0.3139    2.5347 H   0  0  0  0  0  0  0  0  0  0  0  0
   -5.1201   -0.5064    0.8432 H   0  0  0  0  0  0  0  0  0  0  0  0
   -0.5669    1.8587   -2.8889 H   0  0  0  0  0  0  0  0  0  0  0  0
    2.6293   -0.2729   -1.1629 H   0  0  0  0  0  0  0  0  0  0  0  0
   -5.6765   -4.3960    1.8825 H   0  0  0  0  0  0  0  0  0  0  0  0
   -6.0617   -4.4449    0.1614 H   0  0  0  0  0  0  0  0  0  0  0  0
   -6.2693   -2.0988    3.2045 H   0  0  0  0  0  0  0  0  0  0  0  0
   -7.1094   -0.8378    2.2958 H   0  0  0  0  0  0  0  0  0  0  0  0
    3.4507   -0.8173   -3.3267 H   0  0  0  0  0  0  0  0  0  0  0  0
   -7.0514   -2.2064    0.2402 H   0  0  0  0  0  0  0  0  0  0  0  0
   -7.7640   -3.1595    1.5456 H   0  0  0  0  0  0  0  0  0  0  0  0
    0.2725    3.5633   -4.9154 H   0  0  0  0  0  0  0  0  0  0  0  0
    1.5729    2.8954   -5.9329 H   0  0  0  0  0  0  0  0  0  0  0  0
   -0.0395    2.5903   -7.8043 H   0  0  0  0  0  0  0  0  0  0  0  0
    0.0039    4.2830   -7.2793 H   0  0  0  0  0  0  0  0  0  0  0  0
   -1.3451    3.2391   -6.7942 H   0  0  0  0  0  0  0  0  0  0  0  0
    3.8577   -1.1844   -6.7593 H   0  0  0  0  0  0  0  0  0  0  0  0
  1  2  1  0  0  0  0 
  1  3  1  0  0  0  0 
  1  4  1  0  0  0  0 
  2  5  1  0  0  0  0 
  3  6  1  0  0  0  0 
  4  7  2  0  0  0  0 
  4  8  1  0  0  0  0 
  5  9  1  0  0  0  0 
  5 10  2  0  0  0  0 
  6 11  1  0  0  0  0 
  6 12  1  0  0  0  0 
  7 13  1  0  0  0  0 
  7 14  1  0  0  0  0 
  8 15  2  0  0  0  0 
  9 16  1  0  0  0  0 
 13 17  2  0  0  0  0 
 14 18  1  0  0  0  0 
 14 19  1  0  0  0  0 
 15 17  1  0  0  0  0 
 16 20  2  0  0  0  0 
 16 21  1  0  0  0  0 
 18 22  1  0  0  0  0 
 19 23  1  0  0  0  0 
 20 24  1  0  0  0  0 
 21 25  2  0  0  0  0 
 22 26  1  0  0  0  0 
 23 26  1  0  0  0  0 
 24 27  1  0  0  0  0 
 24 28  2  0  0  0  0 
 25 28  1  0  0  0  0 
 27 29  1  0  0  0  0 
 28 30  1  0  0  0  0 
 29 31  1  0  0  0  0 
 30 32  1  0  0  0  0 
 30 33  2  0  0  0  0 
  1 34  1  0  0  0  0 
  2 35  1  0  0  0  0 
  3 36  1  0  0  0  0 
  3 37  1  0  0  0  0 
  6 38  1  0  0  0  0 
  8 39  1  0  0  0  0 
  9 40  1  0  0  0  0 
  9 41  1  0  0  0  0 
 11 42  1  0  0  0  0 
 11 43  1  0  0  0  0 
 11 44  1  0  0  0  0 
 12 45  1  0  0  0  0 
 12 46  1  0  0  0  0 
 12 47  1  0  0  0  0 
 13 48  1  0  0  0  0 
 15 49  1  0  0  0  0 
 17 50  1  0  0  0  0 
 18 51  1  0  0  0  0 
 18 52  1  0  0  0  0 
 19 53  1  0  0  0  0 
 19 54  1  0  0  0  0 
 20 55  1  0  0  0  0 
 21 56  1  0  0  0  0 
 22 57  1  0  0  0  0 
 22 58  1  0  0  0  0 
 23 59  1  0  0  0  0 
 23 60  1  0  0  0  0 
 25 61  1  0  0  0  0 
 26 62  1  0  0  0  0 
 26 63  1  0  0  0  0 
 29 64  1  0  0  0  0 
 29 65  1  0  0  0  0 
 31 66  1  0  0  0  0 
 31 67  1  0  0  0  0 
 31 68  1  0  0  0  0 
 32 69  1  0  0  0  0 
M  END
> <cdk:Title>
repaglinide

> <Conformer>
1

> <SuperDrugID>
SD002128

$$$$
