ethadione
  CDK     0628171801

 22 22  0  0  0  0  0  0  0  0999 V2000
    0.6979    0.4603    0.5857 C   0  0  0  0  0  0  0  0  0  0  0  0
    0.9030   -0.7761   -0.3171 C   0  0  2  0  0  0  0  0  0  0  0  0
    1.7580   -0.4991   -1.4406 N   0  0  0  0  0  0  0  0  0  0  0  0
    1.3769   -0.3839   -2.7286 C   0  0  0  0  0  0  0  0  0  0  0  0
    0.2079   -0.4819   -3.1634 O   0  0  0  0  0  0  0  0  0  0  0  0
    2.4391   -0.1294   -3.5235 O   0  0  0  0  0  0  0  0  0  0  0  0
    3.6415   -0.0683   -2.7537 C   0  0  1  0  0  0  0  0  0  0  0  0
    4.6034   -1.1997   -3.2051 C   0  0  0  0  0  0  0  0  0  0  0  0
    4.2706    1.3452   -2.8747 C   0  0  0  0  0  0  0  0  0  0  0  0
    3.0965   -0.3164   -1.4028 C   0  0  0  0  0  0  0  0  0  0  0  0
    3.7991   -0.3511   -0.3656 O   0  0  0  0  0  0  0  0  0  0  0  0
   -0.0163    0.2269    1.3781 H   0  0  0  0  0  0  0  0  0  0  0  0
    0.3067    1.2936   -0.0023 H   0  0  0  0  0  0  0  0  0  0  0  0
    1.6397    0.7619    1.0473 H   0  0  0  0  0  0  0  0  0  0  0  0
   -0.0819   -1.1104   -0.6539 H   0  0  0  0  0  0  0  0  0  0  0  0
    1.3287   -1.5911    0.2744 H   0  0  0  0  0  0  0  0  0  0  0  0
    4.1181   -2.1741   -3.1176 H   0  0  0  0  0  0  0  0  0  0  0  0
    4.8911   -1.0601   -4.2487 H   0  0  0  0  0  0  0  0  0  0  0  0
    5.5055   -1.2081   -2.5916 H   0  0  0  0  0  0  0  0  0  0  0  0
    4.4966    1.5724   -3.9191 H   0  0  0  0  0  0  0  0  0  0  0  0
    5.1920    1.4068   -2.2917 H   0  0  0  0  0  0  0  0  0  0  0  0
    3.5790    2.1057   -2.5061 H   0  0  0  0  0  0  0  0  0  0  0  0
  1  2  1  0  0  0  0 
  2  3  1  0  0  0  0 
  3  4  1  0  0  0  0 
  4  5  2  0  0  0  0 
  4  6  1  0  0  0  0 
  6  7  1  0  0  0  0 
  7  8  1  0  0  0  0 
  7  9  1  0  0  0  0 
  7 10  1  0  0  0  0 
  3 10  1  0  0  0  0 
 10 11  2  0  0  0  0 
  1 12  1  0  0  0  0 
  1 13  1  0  0  0  0 
  1 14  1  0  0  0  0 
  2 15  1  0  0  0  0 
  2 16  1  0  0  0  0 
  8 17  1  0  0  0  0 
  8 18  1  0  0  0  0 
  8 19  1  0  0  0  0 
  9 20  1  0  0  0  0 
  9 21  1  0  0  0  0 
  9 22  1  0  0  0  0 
M  END
> <cdk:Title>
ethadione

> <Conformer>
1

> <SuperDrugID>
SD000957

$$$$
