fluticasone furoate
  CDK     0628171801

 66 70  0  0  0  0  0  0  0  0999 V2000
   -8.6548   -2.4901   -2.2201 C   0  0  0  0  0  0  0  0  0  0  0  0
   -8.8589   -3.3814   -3.2550 C   0  0  0  0  0  0  0  0  0  0  0  0
   -7.9788   -4.4281   -3.4715 C   0  0  0  0  0  0  0  0  0  0  0  0
   -6.8773   -4.6093   -2.7037 C   0  0  0  0  0  0  0  0  0  0  0  0
   -6.5519   -3.6660   -1.5754 C   0  0  2  0  0  0  0  0  0  0  0  0
   -7.5824   -2.6029   -1.4198 C   0  0  0  0  0  0  0  0  0  0  0  0
   -5.9193   -5.6906   -3.0001 C   0  0  2  0  0  0  0  0  0  0  0  0
   -4.5550   -5.0683   -3.3865 C   0  0  2  0  0  0  0  0  0  0  0  0
   -4.0297   -4.0705   -2.3102 C   0  0  2  0  0  0  0  0  0  0  0  0
   -5.1329   -3.0037   -1.9085 C   0  0  2  0  0  0  0  0  0  0  0  0
   -2.7315   -3.3305   -2.7923 C   0  0  1  0  0  0  0  0  0  0  0  0
   -2.0619   -2.3950   -1.7290 C   0  0  2  0  0  0  0  0  0  0  0  0
   -3.1719   -1.3706   -1.2723 C   0  0  2  0  0  0  0  0  0  0  0  0
   -4.5306   -2.0167   -0.8348 C   0  0  2  0  0  0  0  0  0  0  0  0
   -1.5557   -4.1274   -3.3786 C   0  0  2  0  0  0  0  0  0  0  0  0
   -0.3834   -3.0958   -3.4039 C   0  0  2  0  0  0  0  0  0  0  0  0
   -0.8569   -1.8134   -2.5924 C   0  0  2  0  0  0  0  0  0  0  0  0
   -6.5920   -4.4689   -0.2228 C   0  0  0  0  0  0  0  0  0  0  0  0
   -1.5139   -3.1653   -0.4620 C   0  0  0  0  0  0  0  0  0  0  0  0
   -5.3718   -2.2072   -3.0225 F   0  0  0  0  0  0  0  0  0  0  0  0
   -9.8425   -3.2273   -4.0174 O   0  0  0  0  0  0  0  0  0  0  0  0
   -5.7922   -6.3218   -2.1186 H   0  0  0  0  0  0  0  0  0  0  0  0
   -6.2883   -6.5609   -4.0069 F   0  0  0  0  0  0  0  0  0  0  0  0
   -3.7871   -4.6812   -1.4394 H   0  0  0  0  0  0  0  0  0  0  0  0
    0.4500   -3.5767   -2.8797 H   0  0  0  0  0  0  0  0  0  0  0  0
    0.1414   -2.8232   -4.8446 C   0  0  0  0  0  0  0  0  0  0  0  0
    0.2463   -1.1570   -1.8045 C   0  0  0  0  0  0  0  0  0  0  0  0
    1.4420   -1.4993   -1.9566 O   0  0  0  0  0  0  0  0  0  0  0  0
   -0.0633    0.1477   -0.6644 S   0  0  0  0  0  0  0  0  0  0  0  0
    1.5603    0.8697   -0.2615 C   0  0  2  0  0  0  0  0  0  0  0  0
    1.3876    1.8873    0.6409 F   0  0  0  0  0  0  0  0  0  0  0  0
   -5.2268   -1.1897   -0.6804 H   0  0  0  0  0  0  0  0  0  0  0  0
   -4.3683   -2.6368    0.4395 O   0  0  0  0  0  0  0  0  0  0  0  0
   -3.0710   -2.7220   -3.6382 H   0  0  0  0  0  0  0  0  0  0  0  0
   -1.4254   -0.8834   -3.5533 O   0  0  0  0  0  0  0  0  0  0  0  0
   -1.0945    0.3465   -4.0558 C   0  0  0  0  0  0  0  0  0  0  0  0
   -1.9745    0.9498   -4.9650 C   0  0  0  0  0  0  0  0  0  0  0  0
   -3.1517    0.3944   -5.4640 C   0  0  0  0  0  0  0  0  0  0  0  0
   -3.7050    1.3203   -6.3321 C   0  0  0  0  0  0  0  0  0  0  0  0
   -2.8610    2.4217   -6.3297 C   0  0  0  0  0  0  0  0  0  0  0  0
   -1.8142    2.1846   -5.5030 O   0  0  0  0  0  0  0  0  0  0  0  0
   -0.0314    0.9380   -3.7602 O   0  0  0  0  0  0  0  0  0  0  0  0
   -9.3098   -1.7579   -2.0631 H   0  0  0  0  0  0  0  0  0  0  0  0
   -8.1736   -5.0381   -4.2319 H   0  0  0  0  0  0  0  0  0  0  0  0
   -7.4841   -1.9337   -0.6904 H   0  0  0  0  0  0  0  0  0  0  0  0
   -4.6565   -4.5575   -4.3498 H   0  0  0  0  0  0  0  0  0  0  0  0
   -3.8303   -5.8788   -3.5132 H   0  0  0  0  0  0  0  0  0  0  0  0
   -3.3962   -0.6789   -2.0870 H   0  0  0  0  0  0  0  0  0  0  0  0
   -2.8000   -0.7591   -0.4489 H   0  0  0  0  0  0  0  0  0  0  0  0
   -1.8056   -4.5183   -4.3697 H   0  0  0  0  0  0  0  0  0  0  0  0
   -1.3231   -4.9725   -2.7251 H   0  0  0  0  0  0  0  0  0  0  0  0
   -5.7464   -5.1490   -0.1270 H   0  0  0  0  0  0  0  0  0  0  0  0
   -6.5713   -3.8116    0.6488 H   0  0  0  0  0  0  0  0  0  0  0  0
   -7.5080   -5.0627   -0.1486 H   0  0  0  0  0  0  0  0  0  0  0  0
   -1.2647   -2.4632    0.3334 H   0  0  0  0  0  0  0  0  0  0  0  0
   -0.6119   -3.7360   -0.6834 H   0  0  0  0  0  0  0  0  0  0  0  0
   -2.2357   -3.8669   -0.0559 H   0  0  0  0  0  0  0  0  0  0  0  0
   -0.6667   -2.5031   -5.5028 H   0  0  0  0  0  0  0  0  0  0  0  0
    0.9080   -2.0483   -4.8309 H   0  0  0  0  0  0  0  0  0  0  0  0
    0.5818   -3.7298   -5.2646 H   0  0  0  0  0  0  0  0  0  0  0  0
    2.0209    1.2673   -1.1655 H   0  0  0  0  0  0  0  0  0  0  0  0
    2.2112    0.1125    0.1745 H   0  0  0  0  0  0  0  0  0  0  0  0
   -4.0517   -1.9246    1.0334 H   0  0  0  0  0  0  0  0  0  0  0  0
   -3.5396   -0.5236   -5.2369 H   0  0  0  0  0  0  0  0  0  0  0  0
   -4.5679    1.2110   -6.8677 H   0  0  0  0  0  0  0  0  0  0  0  0
   -3.0063    3.2779   -6.8660 H   0  0  0  0  0  0  0  0  0  0  0  0
  1  2  1  0  0  0  0 
  2  3  1  0  0  0  0 
  3  4  2  0  0  0  0 
  4  5  1  0  0  0  0 
  5  6  1  0  0  0  0 
  6  1  2  0  0  0  0 
  4  7  1  0  0  0  0 
  7  8  1  0  0  0  0 
  8  9  1  0  0  0  0 
  9 10  1  0  0  0  0 
 10  5  1  0  0  0  0 
  9 11  1  0  0  0  0 
 11 12  1  0  0  0  0 
 12 13  1  0  0  0  0 
 13 14  1  0  0  0  0 
 14 10  1  0  0  0  0 
 11 15  1  0  0  0  0 
 15 16  1  0  0  0  0 
 16 17  1  0  0  0  0 
 17 12  1  0  0  0  0 
  5 18  1  0  0  0  0 
 12 19  1  0  0  0  0 
 10 20  1  0  0  0  0 
  2 21  2  0  0  0  0 
  7 22  1  0  0  0  0 
  7 23  1  0  0  0  0 
  9 24  1  0  0  0  0 
 16 25  1  0  0  0  0 
 16 26  1  0  0  0  0 
 17 27  1  0  0  0  0 
 27 28  2  0  0  0  0 
 27 29  1  0  0  0  0 
 29 30  1  0  0  0  0 
 30 31  1  0  0  0  0 
 14 32  1  0  0  0  0 
 14 33  1  0  0  0  0 
 11 34  1  0  0  0  0 
 17 35  1  0  0  0  0 
 35 36  1  0  0  0  0 
 36 37  1  0  0  0  0 
 37 38  2  0  0  0  0 
 38 39  1  0  0  0  0 
 39 40  2  0  0  0  0 
 40 41  1  0  0  0  0 
 41 37  1  0  0  0  0 
 36 42  2  0  0  0  0 
  1 43  1  0  0  0  0 
  3 44  1  0  0  0  0 
  6 45  1  0  0  0  0 
  8 46  1  0  0  0  0 
  8 47  1  0  0  0  0 
 13 48  1  0  0  0  0 
 13 49  1  0  0  0  0 
 15 50  1  0  0  0  0 
 15 51  1  0  0  0  0 
 18 52  1  0  0  0  0 
 18 53  1  0  0  0  0 
 18 54  1  0  0  0  0 
 19 55  1  0  0  0  0 
 19 56  1  0  0  0  0 
 19 57  1  0  0  0  0 
 26 58  1  0  0  0  0 
 26 59  1  0  0  0  0 
 26 60  1  0  0  0  0 
 30 61  1  0  0  0  0 
 30 62  1  0  0  0  0 
 33 63  1  0  0  0  0 
 38 64  1  0  0  0  0 
 39 65  1  0  0  0  0 
 40 66  1  0  0  0  0 
M  END
> <cdk:Title>
fluticasone furoate

> <Conformer>
1

> <SuperDrugID>
SD003620

$$$$
