octotiamine
  CDK     0628171801

 71 71  0  0  0  0  0  0  0  0999 V2000
    2.2728   -0.4471   -2.9714 N   0  0  0  0  0  0  0  0  0  0  0  0
    1.9145   -0.3954   -1.6641 C   0  0  0  0  0  0  0  0  0  0  0  0
    1.5217    0.8253   -1.0714 C   0  0  0  0  0  0  0  0  0  0  0  0
    1.5206    1.9647   -1.9203 C   0  0  0  0  0  0  0  0  0  0  0  0
    1.8906    1.8463   -3.2172 N   0  0  0  0  0  0  0  0  0  0  0  0
    2.2667    0.6608   -3.7568 C   0  0  0  0  0  0  0  0  0  0  0  0
    2.6565    0.5804   -5.1702 C   0  0  0  0  0  0  0  0  0  0  0  0
    1.1713    3.2082   -1.5348 N   0  0  0  0  0  0  0  0  0  0  0  0
    1.1327    0.8722    0.3690 C   0  0  2  0  0  0  0  0  0  0  0  0
    2.1576    0.5368    1.3434 N   0  0  0  0  0  0  0  0  0  0  0  0
    1.8333   -0.2059    2.4332 C   0  0  0  0  0  0  0  0  0  0  0  0
    3.4579    0.9940    1.2468 C   0  0  0  0  0  0  0  0  0  0  0  0
    3.8579    1.7528    0.3362 O   0  0  0  0  0  0  0  0  0  0  0  0
    1.5967    0.3748    3.6435 C   0  0  0  0  0  0  0  0  0  0  0  0
    1.7916   -1.6528    2.2301 C   0  0  0  0  0  0  0  0  0  0  0  0
    1.3659   -0.3686    4.8896 C   0  0  2  0  0  0  0  0  0  0  0  0
    1.6507    2.1050    3.8193 S   0  0  0  0  0  0  0  0  0  0  0  0
   -0.3373    2.6622    4.2438 S   0  0  0  0  0  0  0  0  0  0  0  0
   -1.0567    2.6904    2.5771 C   0  0  1  0  0  0  0  0  0  0  0  0
    2.6884   -0.5834    5.6659 C   0  0  2  0  0  0  0  0  0  0  0  0
    2.4451   -1.2460    6.9022 O   0  0  0  0  0  0  0  0  0  0  0  0
   -2.4987    3.2509    2.5176 C   0  0  1  0  0  0  0  0  0  0  0  0
   -3.1735    3.0517    1.1235 C   0  0  1  0  0  0  0  0  0  0  0  0
   -4.6551    3.5383    1.1109 C   0  0  1  0  0  0  0  0  0  0  0  0
   -2.1945    3.8835   -0.1893 S   0  0  0  0  0  0  0  0  0  0  0  0
   -2.1974    2.7739   -1.5491 C   0  0  0  0  0  0  0  0  0  0  0  0
   -2.4823    3.2415   -2.9126 C   0  0  0  0  0  0  0  0  0  0  0  0
   -1.9443    1.5633   -1.3528 O   0  0  0  0  0  0  0  0  0  0  0  0
   -5.3982    3.2587   -0.2270 C   0  0  1  0  0  0  0  0  0  0  0  0
   -6.9295    3.4809   -0.1626 C   0  0  2  0  0  0  0  0  0  0  0  0
   -7.6232    3.1946   -1.6331 C   0  0  2  0  0  0  0  0  0  0  0  0
   -9.1252    3.2788   -1.7329 C   0  0  0  0  0  0  0  0  0  0  0  0
   -9.8593    2.1398   -1.9126 O   0  0  0  0  0  0  0  0  0  0  0  0
   -9.6740    4.3988   -1.6125 O   0  0  0  0  0  0  0  0  0  0  0  0
  -11.2833    2.0100   -1.9958 C   0  0  0  0  0  0  0  0  0  0  0  0
    1.9335   -1.2587   -1.1199 H   0  0  0  0  0  0  0  0  0  0  0  0
    1.9849   -0.0999   -5.6968 H   0  0  0  0  0  0  0  0  0  0  0  0
    3.6799    0.2085   -5.2478 H   0  0  0  0  0  0  0  0  0  0  0  0
    2.6026    1.5638   -5.6450 H   0  0  0  0  0  0  0  0  0  0  0  0
    0.8950    3.3908   -0.6250 H   0  0  0  0  0  0  0  0  0  0  0  0
    1.2006    3.9343   -2.1777 H   0  0  0  0  0  0  0  0  0  0  0  0
    0.2548    0.2264    0.4775 H   0  0  0  0  0  0  0  0  0  0  0  0
    0.8037    1.8742    0.6187 H   0  0  0  0  0  0  0  0  0  0  0  0
    4.1570    0.7281    1.9454 H   0  0  0  0  0  0  0  0  0  0  0  0
    2.0546   -1.9352    1.2096 H   0  0  0  0  0  0  0  0  0  0  0  0
    2.5027   -2.1448    2.8940 H   0  0  0  0  0  0  0  0  0  0  0  0
    0.7884   -2.0352    2.4288 H   0  0  0  0  0  0  0  0  0  0  0  0
    0.8990   -1.3386    4.7107 H   0  0  0  0  0  0  0  0  0  0  0  0
    0.6708    0.1733    5.5344 H   0  0  0  0  0  0  0  0  0  0  0  0
   -0.4058    3.3109    1.9607 H   0  0  0  0  0  0  0  0  0  0  0  0
   -1.0507    1.6653    2.2034 H   0  0  0  0  0  0  0  0  0  0  0  0
    3.1645    0.3754    5.8846 H   0  0  0  0  0  0  0  0  0  0  0  0
    3.3792   -1.1901    5.0764 H   0  0  0  0  0  0  0  0  0  0  0  0
    3.3257   -1.3091    7.3312 H   0  0  0  0  0  0  0  0  0  0  0  0
   -3.0896    2.7307    3.2759 H   0  0  0  0  0  0  0  0  0  0  0  0
   -2.4804    4.3142    2.7723 H   0  0  0  0  0  0  0  0  0  0  0  0
   -3.1843    1.9764    0.9271 H   0  0  0  0  0  0  0  0  0  0  0  0
   -5.1893    3.0315    1.9183 H   0  0  0  0  0  0  0  0  0  0  0  0
   -4.6911    4.6105    1.3196 H   0  0  0  0  0  0  0  0  0  0  0  0
   -3.3866    2.7544   -3.2771 H   0  0  0  0  0  0  0  0  0  0  0  0
   -2.6355    4.3214   -2.9399 H   0  0  0  0  0  0  0  0  0  0  0  0
   -1.6507    2.9882   -3.5727 H   0  0  0  0  0  0  0  0  0  0  0  0
   -4.9926    3.9143   -1.0003 H   0  0  0  0  0  0  0  0  0  0  0  0
   -5.2139    2.2249   -0.5289 H   0  0  0  0  0  0  0  0  0  0  0  0
   -7.1419    4.5092    0.1397 H   0  0  0  0  0  0  0  0  0  0  0  0
   -7.3671    2.7981    0.5699 H   0  0  0  0  0  0  0  0  0  0  0  0
   -7.3804    2.1813   -2.0486 H   0  0  0  0  0  0  0  0  0  0  0  0
   -7.2660    3.8898   -2.4377 H   0  0  0  0  0  0  0  0  0  0  0  0
  -11.6365    1.4933   -1.1040 H   0  0  0  0  0  0  0  0  0  0  0  0
  -11.5343    1.4103   -2.8694 H   0  0  0  0  0  0  0  0  0  0  0  0
  -11.7894    2.9726   -2.0718 H   0  0  0  0  0  0  0  0  0  0  0  0
  1  2  2  0  0  0  0 
  1  6  1  0  0  0  0 
  2  3  1  0  0  0  0 
  3  4  2  0  0  0  0 
  4  5  1  0  0  0  0 
  5  6  2  0  0  0  0 
  6  7  1  0  0  0  0 
  4  8  1  0  0  0  0 
  3  9  1  0  0  0  0 
  9 10  1  0  0  0  0 
 10 11  1  0  0  0  0 
 10 12  1  0  0  0  0 
 12 13  2  0  0  0  0 
 11 14  2  0  0  0  0 
 11 15  1  0  0  0  0 
 14 16  1  0  0  0  0 
 14 17  1  0  0  0  0 
 17 18  1  0  0  0  0 
 18 19  1  0  0  0  0 
 16 20  1  0  0  0  0 
 20 21  1  0  0  0  0 
 19 22  1  0  0  0  0 
 23 22  1  0  0  0  0 
 23 24  1  0  0  0  0 
 23 25  1  0  0  0  0 
 25 26  1  0  0  0  0 
 26 27  1  0  0  0  0 
 26 28  2  0  0  0  0 
 24 29  1  0  0  0  0 
 29 30  1  0  0  0  0 
 30 31  1  0  0  0  0 
 31 32  1  0  0  0  0 
 32 33  1  0  0  0  0 
 32 34  2  0  0  0  0 
 33 35  1  0  0  0  0 
  2 36  1  0  0  0  0 
  7 37  1  0  0  0  0 
  7 38  1  0  0  0  0 
  7 39  1  0  0  0  0 
  8 40  1  0  0  0  0 
  8 41  1  0  0  0  0 
  9 42  1  0  0  0  0 
  9 43  1  0  0  0  0 
 12 44  1  0  0  0  0 
 15 45  1  0  0  0  0 
 15 46  1  0  0  0  0 
 15 47  1  0  0  0  0 
 16 48  1  0  0  0  0 
 16 49  1  0  0  0  0 
 19 50  1  0  0  0  0 
 19 51  1  0  0  0  0 
 20 52  1  0  0  0  0 
 20 53  1  0  0  0  0 
 21 54  1  0  0  0  0 
 22 55  1  0  0  0  0 
 22 56  1  0  0  0  0 
 23 57  1  0  0  0  0 
 24 58  1  0  0  0  0 
 24 59  1  0  0  0  0 
 27 60  1  0  0  0  0 
 27 61  1  0  0  0  0 
 27 62  1  0  0  0  0 
 29 63  1  0  0  0  0 
 29 64  1  0  0  0  0 
 30 65  1  0  0  0  0 
 30 66  1  0  0  0  0 
 31 67  1  0  0  0  0 
 31 68  1  0  0  0  0 
 35 69  1  0  0  0  0 
 35 70  1  0  0  0  0 
 35 71  1  0  0  0  0 
M  END
> <cdk:Title>
octotiamine

> <Conformer>
1

> <SuperDrugID>
SD001770

$$$$
