meclofenamic acid
  CDK     0628171801

 30 31  0  0  0  0  0  0  0  0999 V2000
   -3.7349   -2.2577   -0.2641 C   0  0  0  0  0  0  0  0  0  0  0  0
   -2.9121   -1.5362    0.7442 C   0  0  0  0  0  0  0  0  0  0  0  0
   -2.9396   -1.9675    2.0910 C   0  0  0  0  0  0  0  0  0  0  0  0
   -2.1932   -1.3033    3.0766 C   0  0  0  0  0  0  0  0  0  0  0  0
   -1.3805   -0.2093    2.7328 C   0  0  0  0  0  0  0  0  0  0  0  0
   -0.5084    0.5536    3.9753 Cl  0  0  0  0  0  0  0  0  0  0  0  0
   -1.3055    0.2225    1.3864 C   0  0  0  0  0  0  0  0  0  0  0  0
   -0.4973    1.2905    1.1149 N   0  0  0  0  0  0  0  0  0  0  0  0
    0.6343    1.3460    0.3348 C   0  0  0  0  0  0  0  0  0  0  0  0
    1.1120    0.2146   -0.3761 C   0  0  0  0  0  0  0  0  0  0  0  0
    2.2399    0.2963   -1.2067 C   0  0  0  0  0  0  0  0  0  0  0  0
    2.9281    1.5109   -1.3310 C   0  0  0  0  0  0  0  0  0  0  0  0
    2.4896    2.6381   -0.6166 C   0  0  0  0  0  0  0  0  0  0  0  0
    1.3566    2.5746    0.2349 C   0  0  0  0  0  0  0  0  0  0  0  0
    1.0081    3.7418    0.9717 C   0  0  0  0  0  0  0  0  0  0  0  0
    0.5531    3.6675    2.2472 O   0  0  0  0  0  0  0  0  0  0  0  0
    1.1513    4.8889    0.4903 O   0  0  0  0  0  0  0  0  0  0  0  0
   -2.1015   -0.4184    0.3968 C   0  0  0  0  0  0  0  0  0  0  0  0
   -2.1174    0.1853   -1.1965 Cl  0  0  0  0  0  0  0  0  0  0  0  0
   -4.4571   -1.5746   -0.7146 H   0  0  0  0  0  0  0  0  0  0  0  0
   -4.2923   -3.0948    0.1647 H   0  0  0  0  0  0  0  0  0  0  0  0
   -3.0875   -2.6584   -1.0463 H   0  0  0  0  0  0  0  0  0  0  0  0
   -3.5101   -2.7697    2.3730 H   0  0  0  0  0  0  0  0  0  0  0  0
   -2.2467   -1.6236    4.0455 H   0  0  0  0  0  0  0  0  0  0  0  0
   -0.7250    2.0983    1.5941 H   0  0  0  0  0  0  0  0  0  0  0  0
    0.6406   -0.6891   -0.3002 H   0  0  0  0  0  0  0  0  0  0  0  0
    2.5571   -0.5304   -1.7199 H   0  0  0  0  0  0  0  0  0  0  0  0
    3.7539    1.5727   -1.9323 H   0  0  0  0  0  0  0  0  0  0  0  0
    3.0234    3.5065   -0.7160 H   0  0  0  0  0  0  0  0  0  0  0  0
    0.3502    4.4836    2.7530 H   0  0  0  0  0  0  0  0  0  0  0  0
  1  2  1  0  0  0  0 
  2  3  2  0  0  0  0 
  3  4  1  0  0  0  0 
  4  5  2  0  0  0  0 
  5  6  1  0  0  0  0 
  5  7  1  0  0  0  0 
  7  8  1  0  0  0  0 
  8  9  1  0  0  0  0 
  9 10  2  0  0  0  0 
 10 11  1  0  0  0  0 
 11 12  2  0  0  0  0 
 12 13  1  0  0  0  0 
 13 14  2  0  0  0  0 
  9 14  1  0  0  0  0 
 14 15  1  0  0  0  0 
 15 16  1  0  0  0  0 
 15 17  2  0  0  0  0 
  7 18  2  0  0  0  0 
  2 18  1  0  0  0  0 
 18 19  1  0  0  0  0 
  1 20  1  0  0  0  0 
  1 21  1  0  0  0  0 
  1 22  1  0  0  0  0 
  3 23  1  0  0  0  0 
  4 24  1  0  0  0  0 
  8 25  1  0  0  0  0 
 10 26  1  0  0  0  0 
 11 27  1  0  0  0  0 
 12 28  1  0  0  0  0 
 13 29  1  0  0  0  0 
 16 30  1  0  0  0  0 
M  END
> <cdk:Title>
meclofenamic acid

> <Conformer>
1

> <SuperDrugID>
SD001460

$$$$
