isothipendyl
  CDK     0628171801

 39 41  0  0  0  0  0  0  0  0999 V2000
   -2.1672   -0.3419   -4.1391 C   0  0  2  0  0  0  0  0  0  0  0  0
   -2.7325   -1.7524   -4.5406 C   0  0  1  0  0  0  0  0  0  0  0  0
   -1.2131   -0.2589   -3.0393 N   0  0  0  0  0  0  0  0  0  0  0  0
   -3.4878   -1.7352   -5.8503 N   0  0  2  0  0  0  0  0  0  0  0  0
   -1.6856   -2.9043   -4.4902 C   0  0  0  0  0  0  0  0  0  0  0  0
   -0.0211    0.4622   -3.1848 C   0  0  0  0  0  0  0  0  0  0  0  0
   -1.5082   -0.8885   -1.8370 C   0  0  0  0  0  0  0  0  0  0  0  0
   -2.6912   -1.6029   -7.1095 C   0  0  0  0  0  0  0  0  0  0  0  0
   -4.7052   -0.8680   -5.8675 C   0  0  0  0  0  0  0  0  0  0  0  0
    1.1875    0.0125   -2.5888 C   0  0  0  0  0  0  0  0  0  0  0  0
    0.0328    1.6878   -3.9034 C   0  0  0  0  0  0  0  0  0  0  0  0
   -0.5018   -1.4956   -1.0472 C   0  0  0  0  0  0  0  0  0  0  0  0
   -2.7939   -0.9660   -1.3855 N   0  0  0  0  0  0  0  0  0  0  0  0
    1.1697   -1.4315   -1.5856 S   0  0  0  0  0  0  0  0  0  0  0  0
    2.3970    0.7183   -2.7447 C   0  0  0  0  0  0  0  0  0  0  0  0
    1.2368    2.4002   -4.0562 C   0  0  0  0  0  0  0  0  0  0  0  0
   -0.8381   -2.1392    0.1587 C   0  0  0  0  0  0  0  0  0  0  0  0
   -3.1597   -1.5799   -0.2310 C   0  0  0  0  0  0  0  0  0  0  0  0
    2.4226    1.9074   -3.4904 C   0  0  0  0  0  0  0  0  0  0  0  0
   -2.1793   -2.1800    0.5770 C   0  0  0  0  0  0  0  0  0  0  0  0
   -3.0114    0.3028   -3.8787 H   0  0  0  0  0  0  0  0  0  0  0  0
   -1.7271    0.0704   -5.0478 H   0  0  0  0  0  0  0  0  0  0  0  0
   -3.4710   -2.0347   -3.7838 H   0  0  0  0  0  0  0  0  0  0  0  0
   -2.0802   -3.7929   -4.9869 H   0  0  0  0  0  0  0  0  0  0  0  0
   -0.7562   -2.6136   -4.9799 H   0  0  0  0  0  0  0  0  0  0  0  0
   -1.4606   -3.1812   -3.4596 H   0  0  0  0  0  0  0  0  0  0  0  0
   -1.8710   -2.3203   -7.1464 H   0  0  0  0  0  0  0  0  0  0  0  0
   -3.3243   -1.8015   -7.9768 H   0  0  0  0  0  0  0  0  0  0  0  0
   -2.2792   -0.5989   -7.2139 H   0  0  0  0  0  0  0  0  0  0  0  0
   -5.3047   -1.0218   -4.9698 H   0  0  0  0  0  0  0  0  0  0  0  0
   -5.3346   -1.1137   -6.7248 H   0  0  0  0  0  0  0  0  0  0  0  0
   -4.4352    0.1887   -5.9285 H   0  0  0  0  0  0  0  0  0  0  0  0
   -0.8110    2.0855   -4.3191 H   0  0  0  0  0  0  0  0  0  0  0  0
    3.2575    0.3784   -2.3093 H   0  0  0  0  0  0  0  0  0  0  0  0
    1.2489    3.2811   -4.5754 H   0  0  0  0  0  0  0  0  0  0  0  0
   -0.1158   -2.5774    0.7362 H   0  0  0  0  0  0  0  0  0  0  0  0
   -4.1439   -1.6027    0.0427 H   0  0  0  0  0  0  0  0  0  0  0  0
    3.2990    2.4185   -3.6124 H   0  0  0  0  0  0  0  0  0  0  0  0
   -2.4376   -2.6404    1.4538 H   0  0  0  0  0  0  0  0  0  0  0  0
  2  1  1  0  0  0  0 
  1  3  1  0  0  0  0 
  2  4  1  0  0  0  0 
  2  5  1  0  0  0  0 
  3  6  1  0  0  0  0 
  3  7  1  0  0  0  0 
  4  8  1  0  0  0  0 
  4  9  1  0  0  0  0 
  6 10  2  0  0  0  0 
  6 11  1  0  0  0  0 
  7 12  2  0  0  0  0 
  7 13  1  0  0  0  0 
 10 14  1  0  0  0  0 
 10 15  1  0  0  0  0 
 11 16  2  0  0  0  0 
 12 14  1  0  0  0  0 
 12 17  1  0  0  0  0 
 13 18  2  0  0  0  0 
 15 19  2  0  0  0  0 
 16 19  1  0  0  0  0 
 17 20  2  0  0  0  0 
 18 20  1  0  0  0  0 
  1 21  1  0  0  0  0 
  1 22  1  0  0  0  0 
  2 23  1  0  0  0  0 
  5 24  1  0  0  0  0 
  5 25  1  0  0  0  0 
  5 26  1  0  0  0  0 
  8 27  1  0  0  0  0 
  8 28  1  0  0  0  0 
  8 29  1  0  0  0  0 
  9 30  1  0  0  0  0 
  9 31  1  0  0  0  0 
  9 32  1  0  0  0  0 
 11 33  1  0  0  0  0 
 15 34  1  0  0  0  0 
 16 35  1  0  0  0  0 
 17 36  1  0  0  0  0 
 18 37  1  0  0  0  0 
 19 38  1  0  0  0  0 
 20 39  1  0  0  0  0 
M  END
> <cdk:Title>
isothipendyl

> <Conformer>
1

> <SuperDrugID>
SD001334

$$$$
