ruboxistaurin
  CDK     0628171801

 63 68  0  0  0  0  0  0  0  0999 V2000
    6.3320    1.6910   -0.1357 O   0  0  0  0  0  0  0  0  0  0  0  0
    5.6749    2.3911    0.6665 C   0  0  0  0  0  0  0  0  0  0  0  0
    4.3480    2.2636    0.9890 C   0  0  0  0  0  0  0  0  0  0  0  0
    6.1729    3.4374    1.3312 N   0  0  0  0  0  0  0  0  0  0  0  0
    4.0494    3.2484    1.8542 C   0  0  0  0  0  0  0  0  0  0  0  0
    3.4731    1.3066    0.4860 C   0  0  0  0  0  0  0  0  0  0  0  0
    5.1967    3.9692    2.0732 C   0  0  0  0  0  0  0  0  0  0  0  0
    2.8113    3.4880    2.4416 C   0  0  0  0  0  0  0  0  0  0  0  0
    3.6042   -0.0787    0.4630 C   0  0  0  0  0  0  0  0  0  0  0  0
    2.2188    1.5613   -0.0704 C   0  0  0  0  0  0  0  0  0  0  0  0
    5.3479    4.9380    2.8521 O   0  0  0  0  0  0  0  0  0  0  0  0
    2.1116    4.6841    2.5753 C   0  0  0  0  0  0  0  0  0  0  0  0
    1.9714    2.5178    2.9880 C   0  0  0  0  0  0  0  0  0  0  0  0
    2.4148   -0.6052   -0.0563 C   0  0  0  0  0  0  0  0  0  0  0  0
    4.6598   -0.9171    0.8740 C   0  0  0  0  0  0  0  0  0  0  0  0
    1.5700    0.4106   -0.3611 N   0  0  0  0  0  0  0  0  0  0  0  0
    0.8878    4.3891    3.1884 C   0  0  0  0  0  0  0  0  0  0  0  0
    2.4347    5.9954    2.1784 C   0  0  0  0  0  0  0  0  0  0  0  0
    0.7905    3.0501    3.3746 N   0  0  0  0  0  0  0  0  0  0  0  0
    2.2659   -2.0010   -0.1954 C   0  0  0  0  0  0  0  0  0  0  0  0
    4.5095   -2.3110    0.7334 C   0  0  0  0  0  0  0  0  0  0  0  0
    0.2472    0.3341   -0.9333 C   0  0  1  0  0  0  0  0  0  0  0  0
   -0.0186    5.4269    3.4916 C   0  0  0  0  0  0  0  0  0  0  0  0
    1.5275    7.0320    2.4728 C   0  0  0  0  0  0  0  0  0  0  0  0
   -0.3564    2.3215    3.8653 C   0  0  2  0  0  0  0  0  0  0  0  0
    3.3190   -2.8497    0.2038 C   0  0  0  0  0  0  0  0  0  0  0  0
   -0.8438    1.2082   -0.2422 C   0  0  2  0  0  0  0  0  0  0  0  0
    0.3168    6.7528    3.1439 C   0  0  0  0  0  0  0  0  0  0  0  0
   -0.4359    0.8189    3.4663 C   0  0  2  0  0  0  0  0  0  0  0  0
   -1.3564    0.7619    1.1614 C   0  0  2  0  0  0  0  0  0  0  0  0
   -0.2281    0.5841    2.0528 O   0  0  0  0  0  0  0  0  0  0  0  0
   -2.2484   -0.5217    1.0892 C   0  0  2  0  0  0  0  0  0  0  0  0
   -3.2419   -0.6671    2.2072 N   0  0  1  0  0  0  0  0  0  0  0  0
   -4.4074    0.2660    2.1132 C   0  0  0  0  0  0  0  0  0  0  0  0
   -3.6900   -2.0794    2.3970 C   0  0  0  0  0  0  0  0  0  0  0  0
   -1.9642    1.6013    1.5015 H   0  0  0  0  0  0  0  0  0  0  0  0
    7.0874    3.7575    1.2832 H   0  0  0  0  0  0  0  0  0  0  0  0
    1.8443    2.5007   -0.2250 H   0  0  0  0  0  0  0  0  0  0  0  0
    2.2212    1.5299    3.0599 H   0  0  0  0  0  0  0  0  0  0  0  0
    5.5187   -0.5292    1.2681 H   0  0  0  0  0  0  0  0  0  0  0  0
    3.3031    6.1963    1.6813 H   0  0  0  0  0  0  0  0  0  0  0  0
    1.4132   -2.4068   -0.5805 H   0  0  0  0  0  0  0  0  0  0  0  0
    5.2681   -2.9357    1.0143 H   0  0  0  0  0  0  0  0  0  0  0  0
    0.3367    0.6751   -1.9688 H   0  0  0  0  0  0  0  0  0  0  0  0
   -0.1103   -0.6953   -0.9735 H   0  0  0  0  0  0  0  0  0  0  0  0
   -0.9046    5.2316    3.9628 H   0  0  0  0  0  0  0  0  0  0  0  0
    1.7512    7.9913    2.1982 H   0  0  0  0  0  0  0  0  0  0  0  0
   -1.2666    2.7999    3.4946 H   0  0  0  0  0  0  0  0  0  0  0  0
   -0.3684    2.3992    4.9565 H   0  0  0  0  0  0  0  0  0  0  0  0
    3.2218   -3.8619    0.1064 H   0  0  0  0  0  0  0  0  0  0  0  0
   -1.7047    1.2569   -0.9165 H   0  0  0  0  0  0  0  0  0  0  0  0
   -0.4833    2.2358   -0.1574 H   0  0  0  0  0  0  0  0  0  0  0  0
   -0.3224    7.5163    3.3792 H   0  0  0  0  0  0  0  0  0  0  0  0
   -1.3825    0.3966    3.8095 H   0  0  0  0  0  0  0  0  0  0  0  0
    0.3539    0.2837    3.9967 H   0  0  0  0  0  0  0  0  0  0  0  0
   -1.5661   -1.3767    1.0845 H   0  0  0  0  0  0  0  0  0  0  0  0
   -2.7952   -0.5547    0.1411 H   0  0  0  0  0  0  0  0  0  0  0  0
   -4.0823    1.3033    2.1638 H   0  0  0  0  0  0  0  0  0  0  0  0
   -5.0980    0.1174    2.9460 H   0  0  0  0  0  0  0  0  0  0  0  0
   -4.9556    0.1173    1.1801 H   0  0  0  0  0  0  0  0  0  0  0  0
   -2.8336   -2.7181    2.6236 H   0  0  0  0  0  0  0  0  0  0  0  0
   -4.3813   -2.1589    3.2401 H   0  0  0  0  0  0  0  0  0  0  0  0
   -4.1857   -2.4606    1.4993 H   0  0  0  0  0  0  0  0  0  0  0  0
  1  2  2  0  0  0  0 
  2  3  1  0  0  0  0 
  2  4  1  0  0  0  0 
  3  5  2  0  0  0  0 
  3  6  1  0  0  0  0 
  4  7  1  0  0  0  0 
  5  7  1  0  0  0  0 
  5  8  1  0  0  0  0 
  6  9  1  0  0  0  0 
  6 10  2  0  0  0  0 
  7 11  2  0  0  0  0 
  8 12  1  0  0  0  0 
  8 13  2  0  0  0  0 
  9 14  1  0  0  0  0 
  9 15  2  0  0  0  0 
 10 16  1  0  0  0  0 
 12 17  1  0  0  0  0 
 12 18  2  0  0  0  0 
 13 19  1  0  0  0  0 
 14 16  1  0  0  0  0 
 14 20  2  0  0  0  0 
 15 21  1  0  0  0  0 
 16 22  1  0  0  0  0 
 17 19  1  0  0  0  0 
 17 23  2  0  0  0  0 
 18 24  1  0  0  0  0 
 19 25  1  0  0  0  0 
 20 26  1  0  0  0  0 
 21 26  2  0  0  0  0 
 22 27  1  0  0  0  0 
 23 28  1  0  0  0  0 
 24 28  2  0  0  0  0 
 25 29  1  0  0  0  0 
 30 27  1  0  0  0  0 
 29 31  1  0  0  0  0 
 30 31  1  0  0  0  0 
 30 32  1  0  0  0  0 
 30 36  1  0  0  0  0 
 32 33  1  0  0  0  0 
 33 34  1  0  0  0  0 
 33 35  1  0  0  0  0 
  4 37  1  0  0  0  0 
 10 38  1  0  0  0  0 
 13 39  1  0  0  0  0 
 15 40  1  0  0  0  0 
 18 41  1  0  0  0  0 
 20 42  1  0  0  0  0 
 21 43  1  0  0  0  0 
 22 44  1  0  0  0  0 
 22 45  1  0  0  0  0 
 23 46  1  0  0  0  0 
 24 47  1  0  0  0  0 
 25 48  1  0  0  0  0 
 25 49  1  0  0  0  0 
 26 50  1  0  0  0  0 
 27 51  1  0  0  0  0 
 27 52  1  0  0  0  0 
 28 53  1  0  0  0  0 
 29 54  1  0  0  0  0 
 29 55  1  0  0  0  0 
 32 56  1  0  0  0  0 
 32 57  1  0  0  0  0 
 34 58  1  0  0  0  0 
 34 59  1  0  0  0  0 
 34 60  1  0  0  0  0 
 35 61  1  0  0  0  0 
 35 62  1  0  0  0  0 
 35 63  1  0  0  0  0 
M  END
> <cdk:Title>
ruboxistaurin

> <Conformer>
1

> <SuperDrugID>
SD003040

$$$$
