glisentide
  CDK     0628171801

 58 60  0  0  0  0  0  0  0  0999 V2000
   -2.7049    3.2776    9.3874 C   0  0  0  0  0  0  0  0  0  0  0  0
   -1.9947    4.2560    8.7542 N   0  0  0  0  0  0  0  0  0  0  0  0
   -2.7544    2.1299    8.8820 O   0  0  0  0  0  0  0  0  0  0  0  0
   -3.4013    3.5414   10.6000 C   0  0  0  0  0  0  0  0  0  0  0  0
   -1.2641    4.0782    7.5398 C   0  0  1  0  0  0  0  0  0  0  0  0
   -4.6137    2.8653   10.9134 C   0  0  0  0  0  0  0  0  0  0  0  0
   -2.9008    4.4880   11.5296 C   0  0  0  0  0  0  0  0  0  0  0  0
   -2.1900    4.2247    6.3051 C   0  0  2  0  0  0  0  0  0  0  0  0
   -5.1982    1.9807   10.0431 O   0  0  0  0  0  0  0  0  0  0  0  0
   -5.2668    3.0997   12.1404 C   0  0  0  0  0  0  0  0  0  0  0  0
   -3.5701    4.7338   12.7427 C   0  0  0  0  0  0  0  0  0  0  0  0
   -1.4860    3.8571    5.0470 C   0  0  0  0  0  0  0  0  0  0  0  0
   -6.1095    2.6292    9.1368 C   0  0  0  0  0  0  0  0  0  0  0  0
   -4.7514    4.0382   13.0481 C   0  0  0  0  0  0  0  0  0  0  0  0
   -1.0572    4.8458    4.1309 C   0  0  0  0  0  0  0  0  0  0  0  0
   -1.2186    2.4994    4.7523 C   0  0  0  0  0  0  0  0  0  0  0  0
   -0.3526    4.4888    2.9657 C   0  0  0  0  0  0  0  0  0  0  0  0
   -0.5186    2.1427    3.5868 C   0  0  0  0  0  0  0  0  0  0  0  0
   -0.0620    3.1356    2.6977 C   0  0  0  0  0  0  0  0  0  0  0  0
    0.9084    2.6953    1.2819 S   0  0  1  0  0  0  0  0  0  0  0  0
    0.0706    3.0784   -0.1669 N   0  0  0  0  0  0  0  0  0  0  0  0
    2.2918    3.5083    1.3081 O   0  0  0  0  0  0  0  0  0  0  0  0
    1.2496    1.1261    1.2815 O   0  0  0  0  0  0  0  0  0  0  0  0
    0.4260    2.6081   -1.3856 C   0  0  0  0  0  0  0  0  0  0  0  0
   -0.3933    2.8763   -2.4367 N   0  0  0  0  0  0  0  0  0  0  0  0
    1.4671    1.9251   -1.5375 O   0  0  0  0  0  0  0  0  0  0  0  0
   -0.1965    2.3766   -3.7653 C   0  0  2  0  0  0  0  0  0  0  0  0
   -1.2246    2.9279   -4.7730 C   0  0  2  0  0  0  0  0  0  0  0  0
   -0.4070    0.8493   -3.8805 C   0  0  2  0  0  0  0  0  0  0  0  0
   -1.1257    1.9594   -5.9681 C   0  0  2  0  0  0  0  0  0  0  0  0
   -0.7340    0.5898   -5.3667 C   0  0  2  0  0  0  0  0  0  0  0  0
   -2.0065    5.1487    9.1350 H   0  0  0  0  0  0  0  0  0  0  0  0
   -0.4860    4.8427    7.4962 H   0  0  0  0  0  0  0  0  0  0  0  0
   -0.7610    3.1070    7.5397 H   0  0  0  0  0  0  0  0  0  0  0  0
   -2.0384    5.0032   11.3391 H   0  0  0  0  0  0  0  0  0  0  0  0
   -2.5448    5.2586    6.2651 H   0  0  0  0  0  0  0  0  0  0  0  0
   -3.0747    3.5925    6.4167 H   0  0  0  0  0  0  0  0  0  0  0  0
   -6.1260    2.5894   12.3652 H   0  0  0  0  0  0  0  0  0  0  0  0
   -3.1968    5.4147   13.4053 H   0  0  0  0  0  0  0  0  0  0  0  0
   -6.5008    1.8739    8.4572 H   0  0  0  0  0  0  0  0  0  0  0  0
   -6.9478    3.0741    9.6775 H   0  0  0  0  0  0  0  0  0  0  0  0
   -5.6159    3.4005    8.5392 H   0  0  0  0  0  0  0  0  0  0  0  0
   -5.2389    4.2173   13.9271 H   0  0  0  0  0  0  0  0  0  0  0  0
   -1.2424    5.8356    4.3125 H   0  0  0  0  0  0  0  0  0  0  0  0
   -1.5288    1.7569    5.3860 H   0  0  0  0  0  0  0  0  0  0  0  0
   -0.0443    5.2212    2.3219 H   0  0  0  0  0  0  0  0  0  0  0  0
   -0.3401    1.1551    3.3983 H   0  0  0  0  0  0  0  0  0  0  0  0
   -0.7124    3.6460   -0.1042 H   0  0  0  0  0  0  0  0  0  0  0  0
   -1.1796    3.4208   -2.2687 H   0  0  0  0  0  0  0  0  0  0  0  0
    0.8109    2.6437   -4.1105 H   0  0  0  0  0  0  0  0  0  0  0  0
   -0.9934    3.9550   -5.0671 H   0  0  0  0  0  0  0  0  0  0  0  0
   -2.2352    2.8961   -4.3519 H   0  0  0  0  0  0  0  0  0  0  0  0
   -1.2527    0.5383   -3.2579 H   0  0  0  0  0  0  0  0  0  0  0  0
    0.4808    0.2973   -3.5629 H   0  0  0  0  0  0  0  0  0  0  0  0
   -0.3430    2.3045   -6.6511 H   0  0  0  0  0  0  0  0  0  0  0  0
   -2.0699    1.9041   -6.5168 H   0  0  0  0  0  0  0  0  0  0  0  0
   -1.5539   -0.1283   -5.4601 H   0  0  0  0  0  0  0  0  0  0  0  0
    0.1415    0.1862   -5.8831 H   0  0  0  0  0  0  0  0  0  0  0  0
  1  2  1  0  0  0  0 
  1  3  2  0  0  0  0 
  1  4  1  0  0  0  0 
  2  5  1  0  0  0  0 
  4  6  2  0  0  0  0 
  4  7  1  0  0  0  0 
  5  8  1  0  0  0  0 
  6  9  1  0  0  0  0 
  6 10  1  0  0  0  0 
  7 11  2  0  0  0  0 
  8 12  1  0  0  0  0 
  9 13  1  0  0  0  0 
 10 14  2  0  0  0  0 
 11 14  1  0  0  0  0 
 12 15  2  0  0  0  0 
 12 16  1  0  0  0  0 
 15 17  1  0  0  0  0 
 16 18  2  0  0  0  0 
 17 19  2  0  0  0  0 
 18 19  1  0  0  0  0 
 19 20  1  0  0  0  0 
 20 21  1  0  0  0  0 
 20 22  2  0  0  0  0 
 20 23  2  0  0  0  0 
 21 24  1  0  0  0  0 
 24 25  1  0  0  0  0 
 24 26  2  0  0  0  0 
 25 27  1  0  0  0  0 
 27 28  1  0  0  0  0 
 27 29  1  0  0  0  0 
 28 30  1  0  0  0  0 
 29 31  1  0  0  0  0 
 30 31  1  0  0  0  0 
  2 32  1  0  0  0  0 
  5 33  1  0  0  0  0 
  5 34  1  0  0  0  0 
  7 35  1  0  0  0  0 
  8 36  1  0  0  0  0 
  8 37  1  0  0  0  0 
 10 38  1  0  0  0  0 
 11 39  1  0  0  0  0 
 13 40  1  0  0  0  0 
 13 41  1  0  0  0  0 
 13 42  1  0  0  0  0 
 14 43  1  0  0  0  0 
 15 44  1  0  0  0  0 
 16 45  1  0  0  0  0 
 17 46  1  0  0  0  0 
 18 47  1  0  0  0  0 
 21 48  1  0  0  0  0 
 25 49  1  0  0  0  0 
 27 50  1  0  0  0  0 
 28 51  1  0  0  0  0 
 28 52  1  0  0  0  0 
 29 53  1  0  0  0  0 
 29 54  1  0  0  0  0 
 30 55  1  0  0  0  0 
 30 56  1  0  0  0  0 
 31 57  1  0  0  0  0 
 31 58  1  0  0  0  0 
M  END
> <cdk:Title>
glisentide

> <Conformer>
1

> <SuperDrugID>
SD001159

$$$$
