mepindolol
  CDK     0628171801

 41 42  0  0  0  0  0  0  0  0999 V2000
    0.3147   -0.8611   -0.0489 O   0  0  0  0  0  0  0  0  0  0  0  0
   -0.5260   -1.0195   -1.2126 C   0  0  1  0  0  0  0  0  0  0  0  0
    0.6481    0.4381    0.2203 C   0  0  0  0  0  0  0  0  0  0  0  0
   -0.7158   -2.5268   -1.5176 C   0  0  1  0  0  0  0  0  0  0  0  0
    1.8216    1.0101   -0.3095 C   0  0  0  0  0  0  0  0  0  0  0  0
   -0.1524    1.2418    1.0648 C   0  0  0  0  0  0  0  0  0  0  0  0
    0.6334   -3.2443   -1.7880 C   0  0  2  0  0  0  0  0  0  0  0  0
   -1.4019   -3.1342   -0.4236 O   0  0  0  0  0  0  0  0  0  0  0  0
    2.1664    2.3362   -0.0483 C   0  0  0  0  0  0  0  0  0  0  0  0
    2.8165    0.4865   -1.1252 C   0  0  0  0  0  0  0  0  0  0  0  0
    0.2068    2.5814    1.3396 C   0  0  0  0  0  0  0  0  0  0  0  0
    0.4237   -4.6483   -2.2119 N   0  0  1  0  0  0  0  0  0  0  0  0
    3.3087    2.6190   -0.6898 N   0  0  0  0  0  0  0  0  0  0  0  0
    1.3678    3.1466    0.7730 C   0  0  0  0  0  0  0  0  0  0  0  0
    3.7253    1.5229   -1.3532 C   0  0  0  0  0  0  0  0  0  0  0  0
    1.6601   -5.4593   -2.3939 C   0  0  1  0  0  0  0  0  0  0  0  0
    4.9446    1.4537   -2.1678 C   0  0  0  0  0  0  0  0  0  0  0  0
    1.2404   -6.9402   -2.5808 C   0  0  0  0  0  0  0  0  0  0  0  0
    2.5280   -4.9773   -3.5908 C   0  0  0  0  0  0  0  0  0  0  0  0
   -1.5062   -0.5632   -1.0320 H   0  0  0  0  0  0  0  0  0  0  0  0
   -0.0828   -0.5410   -2.0938 H   0  0  0  0  0  0  0  0  0  0  0  0
   -1.3519   -2.6203   -2.4026 H   0  0  0  0  0  0  0  0  0  0  0  0
   -0.9990    0.8512    1.4849 H   0  0  0  0  0  0  0  0  0  0  0  0
    1.2497   -3.2175   -0.8854 H   0  0  0  0  0  0  0  0  0  0  0  0
    1.1555   -2.7062   -2.5809 H   0  0  0  0  0  0  0  0  0  0  0  0
   -1.6284   -4.0384   -0.7264 H   0  0  0  0  0  0  0  0  0  0  0  0
    2.8690   -0.4700   -1.4876 H   0  0  0  0  0  0  0  0  0  0  0  0
   -0.3790    3.1463    1.9557 H   0  0  0  0  0  0  0  0  0  0  0  0
   -0.1131   -5.1010   -1.4676 H   0  0  0  0  0  0  0  0  0  0  0  0
    3.7635    3.4765   -0.6772 H   0  0  0  0  0  0  0  0  0  0  0  0
    1.6220    4.1179    0.9579 H   0  0  0  0  0  0  0  0  0  0  0  0
    2.2667   -5.4062   -1.4827 H   0  0  0  0  0  0  0  0  0  0  0  0
    5.7752    1.1332   -1.5393 H   0  0  0  0  0  0  0  0  0  0  0  0
    5.1709    2.4363   -2.5845 H   0  0  0  0  0  0  0  0  0  0  0  0
    4.8203    0.7470   -2.9899 H   0  0  0  0  0  0  0  0  0  0  0  0
    0.6790   -7.2840   -1.7082 H   0  0  0  0  0  0  0  0  0  0  0  0
    0.6130   -7.0503   -3.4691 H   0  0  0  0  0  0  0  0  0  0  0  0
    2.1228   -7.5768   -2.6909 H   0  0  0  0  0  0  0  0  0  0  0  0
    1.9144   -4.8773   -4.4875 H   0  0  0  0  0  0  0  0  0  0  0  0
    2.9830   -4.0101   -3.3693 H   0  0  0  0  0  0  0  0  0  0  0  0
    3.3351   -5.6849   -3.7973 H   0  0  0  0  0  0  0  0  0  0  0  0
  1  2  1  0  0  0  0 
  1  3  1  0  0  0  0 
  4  2  1  0  0  0  0 
  3  5  2  0  0  0  0 
  3  6  1  0  0  0  0 
  4  7  1  0  0  0  0 
  4  8  1  0  0  0  0 
  5  9  1  0  0  0  0 
  5 10  1  0  0  0  0 
  6 11  2  0  0  0  0 
  7 12  1  0  0  0  0 
  9 13  1  0  0  0  0 
  9 14  2  0  0  0  0 
 10 15  2  0  0  0  0 
 11 14  1  0  0  0  0 
 12 16  1  0  0  0  0 
 13 15  1  0  0  0  0 
 15 17  1  0  0  0  0 
 16 18  1  0  0  0  0 
 16 19  1  0  0  0  0 
  2 20  1  0  0  0  0 
  2 21  1  0  0  0  0 
  4 22  1  0  0  0  0 
  6 23  1  0  0  0  0 
  7 24  1  0  0  0  0 
  7 25  1  0  0  0  0 
  8 26  1  0  0  0  0 
 10 27  1  0  0  0  0 
 11 28  1  0  0  0  0 
 12 29  1  0  0  0  0 
 13 30  1  0  0  0  0 
 14 31  1  0  0  0  0 
 16 32  1  0  0  0  0 
 17 33  1  0  0  0  0 
 17 34  1  0  0  0  0 
 17 35  1  0  0  0  0 
 18 36  1  0  0  0  0 
 18 37  1  0  0  0  0 
 18 38  1  0  0  0  0 
 19 39  1  0  0  0  0 
 19 40  1  0  0  0  0 
 19 41  1  0  0  0  0 
M  END
> <cdk:Title>
mepindolol

> <Conformer>
1

> <SuperDrugID>
SD001501

$$$$
