roxatidine acetate
  CDK     0628171801

 53 54  0  0  0  0  0  0  0  0999 V2000
   -2.0658  -12.6343   -3.1205 C   0  0  1  0  0  0  0  0  0  0  0  0
   -1.2151  -11.6183   -3.7970 C   0  0  0  0  0  0  0  0  0  0  0  0
   -1.6468  -12.9125   -1.7038 N   0  0  2  0  0  0  0  0  0  0  0  0
   -1.6088  -10.2615   -3.8210 C   0  0  0  0  0  0  0  0  0  0  0  0
    0.0048  -11.9806   -4.4164 C   0  0  0  0  0  0  0  0  0  0  0  0
   -2.3211  -14.1337   -1.1537 C   0  0  2  0  0  0  0  0  0  0  0  0
   -1.7826  -11.7299   -0.7873 C   0  0  1  0  0  0  0  0  0  0  0  0
   -0.7882   -9.2776   -4.4089 C   0  0  0  0  0  0  0  0  0  0  0  0
    0.8006  -11.0108   -5.0565 C   0  0  0  0  0  0  0  0  0  0  0  0
   -1.8386  -14.4864    0.2779 C   0  0  2  0  0  0  0  0  0  0  0  0
   -1.2854  -12.0268    0.6499 C   0  0  1  0  0  0  0  0  0  0  0  0
   -1.1567   -7.9586   -4.3472 O   0  0  0  0  0  0  0  0  0  0  0  0
    0.4068   -9.6610   -5.0474 C   0  0  0  0  0  0  0  0  0  0  0  0
   -1.9810  -13.2783    1.2360 C   0  0  1  0  0  0  0  0  0  0  0  0
   -0.7779   -7.3380   -3.0982 C   0  0  2  0  0  0  0  0  0  0  0  0
   -1.5302   -6.0013   -2.9001 C   0  0  2  0  0  0  0  0  0  0  0  0
   -3.0776   -6.1249   -3.0263 C   0  0  2  0  0  0  0  0  0  0  0  0
   -3.7407   -5.3383   -2.0372 N   0  0  0  0  0  0  0  0  0  0  0  0
   -5.0103   -4.8608   -2.1125 C   0  0  0  0  0  0  0  0  0  0  0  0
   -5.5878   -4.1606   -0.9519 C   0  0  2  0  0  0  0  0  0  0  0  0
   -5.7146   -5.0118   -3.1394 O   0  0  0  0  0  0  0  0  0  0  0  0
   -5.9009   -2.8026   -1.2814 O   0  0  0  0  0  0  0  0  0  0  0  0
   -6.4221   -1.8782   -0.4213 C   0  0  0  0  0  0  0  0  0  0  0  0
   -6.6309   -0.4978   -0.8758 C   0  0  0  0  0  0  0  0  0  0  0  0
   -6.7178   -2.1759    0.7605 O   0  0  0  0  0  0  0  0  0  0  0  0
   -3.1139  -12.3188   -3.1452 H   0  0  0  0  0  0  0  0  0  0  0  0
   -2.0139  -13.5521   -3.7140 H   0  0  0  0  0  0  0  0  0  0  0  0
   -2.4881   -9.9752   -3.3834 H   0  0  0  0  0  0  0  0  0  0  0  0
    0.3188  -12.9556   -4.4122 H   0  0  0  0  0  0  0  0  0  0  0  0
   -2.1048  -14.9929   -1.7949 H   0  0  0  0  0  0  0  0  0  0  0  0
   -3.4065  -13.9917   -1.1391 H   0  0  0  0  0  0  0  0  0  0  0  0
   -1.1832  -10.8969   -1.1577 H   0  0  0  0  0  0  0  0  0  0  0  0
   -2.8247  -11.3979   -0.7436 H   0  0  0  0  0  0  0  0  0  0  0  0
    1.6666  -11.2864   -5.5234 H   0  0  0  0  0  0  0  0  0  0  0  0
   -0.7916  -14.7988    0.2381 H   0  0  0  0  0  0  0  0  0  0  0  0
   -2.4261  -15.3231    0.6630 H   0  0  0  0  0  0  0  0  0  0  0  0
   -0.2031  -12.1842    0.6317 H   0  0  0  0  0  0  0  0  0  0  0  0
   -1.4904  -11.1640    1.2886 H   0  0  0  0  0  0  0  0  0  0  0  0
    0.9948   -8.9565   -5.4995 H   0  0  0  0  0  0  0  0  0  0  0  0
   -3.0409  -13.0628    1.4008 H   0  0  0  0  0  0  0  0  0  0  0  0
   -1.5381  -13.5239    2.2051 H   0  0  0  0  0  0  0  0  0  0  0  0
    0.2992   -7.1437   -3.0970 H   0  0  0  0  0  0  0  0  0  0  0  0
   -1.0084   -7.9756   -2.2371 H   0  0  0  0  0  0  0  0  0  0  0  0
   -1.1637   -5.2748   -3.6289 H   0  0  0  0  0  0  0  0  0  0  0  0
   -1.2620   -5.6263   -1.9093 H   0  0  0  0  0  0  0  0  0  0  0  0
   -3.3937   -7.1596   -2.8751 H   0  0  0  0  0  0  0  0  0  0  0  0
   -3.3773   -5.8243   -4.0348 H   0  0  0  0  0  0  0  0  0  0  0  0
   -3.2585   -5.1742   -1.2140 H   0  0  0  0  0  0  0  0  0  0  0  0
   -4.8840   -4.1593   -0.1165 H   0  0  0  0  0  0  0  0  0  0  0  0
   -6.4889   -4.6877   -0.6333 H   0  0  0  0  0  0  0  0  0  0  0  0
   -6.3775   -0.3960   -1.9326 H   0  0  0  0  0  0  0  0  0  0  0  0
   -5.9949    0.1732   -0.2962 H   0  0  0  0  0  0  0  0  0  0  0  0
   -7.6752   -0.2135   -0.7355 H   0  0  0  0  0  0  0  0  0  0  0  0
  1  2  1  0  0  0  0 
  1  3  1  0  0  0  0 
  2  4  2  0  0  0  0 
  2  5  1  0  0  0  0 
  3  6  1  0  0  0  0 
  3  7  1  0  0  0  0 
  4  8  1  0  0  0  0 
  5  9  2  0  0  0  0 
  6 10  1  0  0  0  0 
  7 11  1  0  0  0  0 
  8 12  1  0  0  0  0 
  8 13  2  0  0  0  0 
  9 13  1  0  0  0  0 
 10 14  1  0  0  0  0 
 11 14  1  0  0  0  0 
 12 15  1  0  0  0  0 
 15 16  1  0  0  0  0 
 16 17  1  0  0  0  0 
 17 18  1  0  0  0  0 
 18 19  1  0  0  0  0 
 19 20  1  0  0  0  0 
 19 21  2  0  0  0  0 
 20 22  1  0  0  0  0 
 22 23  1  0  0  0  0 
 23 24  1  0  0  0  0 
 23 25  2  0  0  0  0 
  1 26  1  0  0  0  0 
  1 27  1  0  0  0  0 
  4 28  1  0  0  0  0 
  5 29  1  0  0  0  0 
  6 30  1  0  0  0  0 
  6 31  1  0  0  0  0 
  7 32  1  0  0  0  0 
  7 33  1  0  0  0  0 
  9 34  1  0  0  0  0 
 10 35  1  0  0  0  0 
 10 36  1  0  0  0  0 
 11 37  1  0  0  0  0 
 11 38  1  0  0  0  0 
 13 39  1  0  0  0  0 
 14 40  1  0  0  0  0 
 14 41  1  0  0  0  0 
 15 42  1  0  0  0  0 
 15 43  1  0  0  0  0 
 16 44  1  0  0  0  0 
 16 45  1  0  0  0  0 
 17 46  1  0  0  0  0 
 17 47  1  0  0  0  0 
 18 48  1  0  0  0  0 
 20 49  1  0  0  0  0 
 20 50  1  0  0  0  0 
 24 51  1  0  0  0  0 
 24 52  1  0  0  0  0 
 24 53  1  0  0  0  0 
M  END
> <cdk:Title>
roxatidine acetate

> <Conformer>
1

> <SuperDrugID>
SD002168

$$$$
