avobenzone
  CDK     0628171801

 45 46  0  0  0  0  0  0  0  0999 V2000
    3.3192    4.0695    4.7149 C   0  0  0  0  0  0  0  0  0  0  0  0
    4.0017    2.9074    4.8519 C   0  0  0  0  0  0  0  0  0  0  0  0
    2.2966    4.0987    3.8609 O   0  0  0  0  0  0  0  0  0  0  0  0
    3.5800    5.2602    5.4362 C   0  0  0  0  0  0  0  0  0  0  0  0
    3.7135    1.6732    4.2425 C   0  0  0  0  0  0  0  0  0  0  0  0
    3.1461    6.5163    4.9418 C   0  0  0  0  0  0  0  0  0  0  0  0
    4.2181    5.2748    6.7028 C   0  0  0  0  0  0  0  0  0  0  0  0
    2.9312    1.6394    3.2610 O   0  0  0  0  0  0  0  0  0  0  0  0
    4.2437    0.4144    4.6925 C   0  0  0  0  0  0  0  0  0  0  0  0
    3.3081    7.7031    5.6790 C   0  0  0  0  0  0  0  0  0  0  0  0
    4.3925    6.4664    7.4325 C   0  0  0  0  0  0  0  0  0  0  0  0
    4.6842    0.2237    6.0284 C   0  0  0  0  0  0  0  0  0  0  0  0
    4.3215   -0.7072    3.8215 C   0  0  0  0  0  0  0  0  0  0  0  0
    3.9286    7.7192    6.9546 C   0  0  0  0  0  0  0  0  0  0  0  0
    5.1874   -1.0129    6.4691 C   0  0  0  0  0  0  0  0  0  0  0  0
    4.8293   -1.9460    4.2599 C   0  0  0  0  0  0  0  0  0  0  0  0
    4.0574    9.0224    7.7340 C   0  0  2  0  0  0  0  0  0  0  0  0
    5.2685   -2.1047    5.5862 C   0  0  0  0  0  0  0  0  0  0  0  0
    4.7935    8.8886    9.1150 C   0  0  0  0  0  0  0  0  0  0  0  0
    2.6249    9.5789    8.0455 C   0  0  0  0  0  0  0  0  0  0  0  0
    4.8752   10.0647    6.8944 C   0  0  0  0  0  0  0  0  0  0  0  0
    5.7275   -3.3204    6.0127 O   0  0  0  0  0  0  0  0  0  0  0  0
    7.1621   -3.4163    6.0218 C   0  0  0  0  0  0  0  0  0  0  0  0
    4.7903    2.9150    5.4508 H   0  0  0  0  0  0  0  0  0  0  0  0
    2.6149    4.6394    3.1085 H   0  0  0  0  0  0  0  0  0  0  0  0
    2.6920    6.5863    4.0294 H   0  0  0  0  0  0  0  0  0  0  0  0
    4.5514    4.4120    7.1372 H   0  0  0  0  0  0  0  0  0  0  0  0
    2.9521    8.5654    5.2622 H   0  0  0  0  0  0  0  0  0  0  0  0
    4.8601    6.3881    8.3351 H   0  0  0  0  0  0  0  0  0  0  0  0
    4.6343    0.9812    6.7125 H   0  0  0  0  0  0  0  0  0  0  0  0
    4.0080   -0.6350    2.8497 H   0  0  0  0  0  0  0  0  0  0  0  0
    5.4892   -1.1140    7.4394 H   0  0  0  0  0  0  0  0  0  0  0  0
    4.8759   -2.7355    3.6148 H   0  0  0  0  0  0  0  0  0  0  0  0
    4.8563    9.8540    9.6254 H   0  0  0  0  0  0  0  0  0  0  0  0
    4.2608    8.2043    9.7792 H   0  0  0  0  0  0  0  0  0  0  0  0
    5.8139    8.5222    8.9801 H   0  0  0  0  0  0  0  0  0  0  0  0
    2.6760   10.4821    8.6604 H   0  0  0  0  0  0  0  0  0  0  0  0
    2.0389    8.8347    8.5926 H   0  0  0  0  0  0  0  0  0  0  0  0
    2.0794    9.8346    7.1346 H   0  0  0  0  0  0  0  0  0  0  0  0
    5.0390   10.9870    7.4593 H   0  0  0  0  0  0  0  0  0  0  0  0
    4.3623   10.3386    5.9702 H   0  0  0  0  0  0  0  0  0  0  0  0
    5.8539    9.6548    6.6294 H   0  0  0  0  0  0  0  0  0  0  0  0
    7.4360   -4.4322    6.3080 H   0  0  0  0  0  0  0  0  0  0  0  0
    7.5829   -3.2191    5.0325 H   0  0  0  0  0  0  0  0  0  0  0  0
    7.5952   -2.7271    6.7513 H   0  0  0  0  0  0  0  0  0  0  0  0
  1  2  2  0  0  0  0 
  1  3  1  0  0  0  0 
  1  4  1  0  0  0  0 
  2  5  1  0  0  0  0 
  4  6  2  0  0  0  0 
  4  7  1  0  0  0  0 
  5  8  2  0  0  0  0 
  5  9  1  0  0  0  0 
  6 10  1  0  0  0  0 
  7 11  2  0  0  0  0 
  9 12  2  0  0  0  0 
  9 13  1  0  0  0  0 
 10 14  2  0  0  0  0 
 11 14  1  0  0  0  0 
 12 15  1  0  0  0  0 
 13 16  2  0  0  0  0 
 14 17  1  0  0  0  0 
 15 18  2  0  0  0  0 
 16 18  1  0  0  0  0 
 17 19  1  0  0  0  0 
 17 20  1  0  0  0  0 
 17 21  1  0  0  0  0 
 18 22  1  0  0  0  0 
 22 23  1  0  0  0  0 
 24  2  1  0  0  0  0 
 25  3  1  0  0  0  0 
 26  6  1  0  0  0  0 
 27  7  1  0  0  0  0 
 28 10  1  0  0  0  0 
 29 11  1  0  0  0  0 
 30 12  1  0  0  0  0 
 31 13  1  0  0  0  0 
 32 15  1  0  0  0  0 
 33 16  1  0  0  0  0 
 34 19  1  0  0  0  0 
 35 19  1  0  0  0  0 
 36 19  1  0  0  0  0 
 37 20  1  0  0  0  0 
 38 20  1  0  0  0  0 
 39 20  1  0  0  0  0 
 40 21  1  0  0  0  0 
 41 21  1  0  0  0  0 
 42 21  1  0  0  0  0 
 43 23  1  0  0  0  0 
 44 23  1  0  0  0  0 
 45 23  1  0  0  0  0 
M  END
> <cdk:Title>
avobenzone

> <Conformer>
1

> <SuperDrugID>
SD003449

$$$$
