guggulsterone
  CDK     0628171801

 51 54  0  0  0  0  0  0  0  0999 V2000
    0.8975   -1.3657   -1.5005 C   0  0  0  0  0  0  0  0  0  0  0  0
    1.1121   -1.6278    0.0382 C   0  0  2  0  0  0  0  0  0  0  0  0
    1.5058   -3.0856    0.4452 C   0  0  2  0  0  0  0  0  0  0  0  0
   -0.2166   -1.5430    0.6591 C   0  0  0  0  0  0  0  0  0  0  0  0
    2.2570   -0.7127    0.5947 C   0  0  2  0  0  0  0  0  0  0  0  0
    2.7944   -3.5812   -0.2779 C   0  0  1  0  0  0  0  0  0  0  0  0
    0.1837   -3.8700    0.3460 C   0  0  1  0  0  0  0  0  0  0  0  0
   -0.8154   -0.3797    0.9965 C   0  0  0  0  0  0  0  0  0  0  0  0
   -0.7567   -2.8211    0.7599 C   0  0  0  0  0  0  0  0  0  0  0  0
    3.6658   -1.1238    0.0531 C   0  0  2  0  0  0  0  0  0  0  0  0
    4.0076   -2.6612    0.1352 C   0  0  2  0  0  0  0  0  0  0  0  0
    3.1382   -5.0569    0.0615 C   0  0  1  0  0  0  0  0  0  0  0  0
   -2.1356   -0.2523    1.5771 C   0  0  0  0  0  0  0  0  0  0  0  0
   -1.9184   -3.1103    1.1254 O   0  0  0  0  0  0  0  0  0  0  0  0
    5.3806   -3.1041   -0.5500 C   0  0  2  0  0  0  0  0  0  0  0  0
    4.4487   -5.4951   -0.6337 C   0  0  2  0  0  0  0  0  0  0  0  0
    5.4134   -2.8015   -2.0938 C   0  0  0  0  0  0  0  0  0  0  0  0
    5.5795   -4.5816   -0.3833 C   0  0  0  0  0  0  0  0  0  0  0  0
    6.5630   -2.3039    0.1364 C   0  0  1  0  0  0  0  0  0  0  0  0
    6.7815   -5.1159   -0.0607 C   0  0  0  0  0  0  0  0  0  0  0  0
    7.9592   -2.9149   -0.1360 C   0  0  1  0  0  0  0  0  0  0  0  0
    7.9362   -4.3706    0.1096 C   0  0  0  0  0  0  0  0  0  0  0  0
    8.9997   -4.9445    0.4427 O   0  0  0  0  0  0  0  0  0  0  0  0
    0.5706   -0.3355   -1.6650 H   0  0  0  0  0  0  0  0  0  0  0  0
    0.1371   -2.0271   -1.9221 H   0  0  0  0  0  0  0  0  0  0  0  0
    1.8079   -1.5080   -2.0781 H   0  0  0  0  0  0  0  0  0  0  0  0
    1.7542   -3.1081    1.5206 H   0  0  0  0  0  0  0  0  0  0  0  0
    2.2669   -0.7576    1.6895 H   0  0  0  0  0  0  0  0  0  0  0  0
    2.0705    0.3287    0.3180 H   0  0  0  0  0  0  0  0  0  0  0  0
    2.6244   -3.5322   -1.3521 H   0  0  0  0  0  0  0  0  0  0  0  0
   -0.0316   -4.2061   -0.6706 H   0  0  0  0  0  0  0  0  0  0  0  0
    0.1635   -4.7201    1.0345 H   0  0  0  0  0  0  0  0  0  0  0  0
   -0.3225    0.4679    0.8281 H   0  0  0  0  0  0  0  0  0  0  0  0
    4.4029   -0.5630    0.6326 H   0  0  0  0  0  0  0  0  0  0  0  0
    3.7498   -0.7790   -0.9767 H   0  0  0  0  0  0  0  0  0  0  0  0
    4.1416   -2.8420    1.2094 H   0  0  0  0  0  0  0  0  0  0  0  0
    3.2418   -5.1850    1.1440 H   0  0  0  0  0  0  0  0  0  0  0  0
    2.3293   -5.7124   -0.2741 H   0  0  0  0  0  0  0  0  0  0  0  0
   -2.1810   -0.7895    2.5256 H   0  0  0  0  0  0  0  0  0  0  0  0
   -2.8865   -0.6531    0.8950 H   0  0  0  0  0  0  0  0  0  0  0  0
   -2.3785    0.7948    1.7654 H   0  0  0  0  0  0  0  0  0  0  0  0
    4.2750   -5.5362   -1.7110 H   0  0  0  0  0  0  0  0  0  0  0  0
    4.6547   -6.5209   -0.3114 H   0  0  0  0  0  0  0  0  0  0  0  0
    6.2991   -3.2370   -2.5630 H   0  0  0  0  0  0  0  0  0  0  0  0
    4.5447   -3.2108   -2.6075 H   0  0  0  0  0  0  0  0  0  0  0  0
    5.4398   -1.7298   -2.2934 H   0  0  0  0  0  0  0  0  0  0  0  0
    6.5750   -1.2595   -0.1883 H   0  0  0  0  0  0  0  0  0  0  0  0
    6.4274   -2.2994    1.2227 H   0  0  0  0  0  0  0  0  0  0  0  0
    6.8677   -6.1009    0.0434 H   0  0  0  0  0  0  0  0  0  0  0  0
    8.2565   -2.7352   -1.1720 H   0  0  0  0  0  0  0  0  0  0  0  0
    8.6963   -2.4301    0.5105 H   0  0  0  0  0  0  0  0  0  0  0  0
  2  1  1  0  0  0  0 
  3  2  1  0  0  0  0 
  2  4  1  0  0  0  0 
  2  5  1  0  0  0  0 
  3  6  1  0  0  0  0 
  3  7  1  0  0  0  0 
  4  8  2  0  0  0  0 
  4  9  1  0  0  0  0 
  5 10  1  0  0  0  0 
  6 11  1  0  0  0  0 
  6 12  1  0  0  0  0 
  7  9  1  0  0  0  0 
  8 13  1  0  0  0  0 
  9 14  2  0  0  0  0 
 11 10  1  0  0  0  0 
 11 15  1  0  0  0  0 
 12 16  1  0  0  0  0 
 15 17  1  0  0  0  0 
 15 18  1  0  0  0  0 
 15 19  1  0  0  0  0 
 16 18  1  0  0  0  0 
 18 20  2  0  0  0  0 
 19 21  1  0  0  0  0 
 20 22  1  0  0  0  0 
 21 22  1  0  0  0  0 
 22 23  2  0  0  0  0 
 24  1  1  0  0  0  0 
 25  1  1  0  0  0  0 
 26  1  1  0  0  0  0 
  3 27  1  0  0  0  0 
 28  5  1  0  0  0  0 
 29  5  1  0  0  0  0 
  6 30  1  0  0  0  0 
 31  7  1  0  0  0  0 
 32  7  1  0  0  0  0 
  8 33  1  0  0  0  0 
 34 10  1  0  0  0  0 
 35 10  1  0  0  0  0 
 11 36  1  0  0  0  0 
 37 12  1  0  0  0  0 
 38 12  1  0  0  0  0 
 39 13  1  0  0  0  0 
 40 13  1  0  0  0  0 
 41 13  1  0  0  0  0 
 42 16  1  0  0  0  0 
 43 16  1  0  0  0  0 
 44 17  1  0  0  0  0 
 45 17  1  0  0  0  0 
 46 17  1  0  0  0  0 
 47 19  1  0  0  0  0 
 48 19  1  0  0  0  0 
 49 20  1  0  0  0  0 
 50 21  1  0  0  0  0 
 51 21  1  0  0  0  0 
M  END
> <cdk:Title>
guggulsterone

> <Conformer>
1

> <SuperDrugID>
SD003306

$$$$
