tienilic acid
  CDK     0628171801

 28 29  0  0  0  0  0  0  0  0999 V2000
   -0.0807    1.1668    6.0216 C   0  0  0  0  0  0  0  0  0  0  0  0
    0.9058    1.9408    6.0544 O   0  0  0  0  0  0  0  0  0  0  0  0
   -0.2231    0.3141    4.8918 C   0  0  0  0  0  0  0  0  0  0  0  0
   -0.9703    1.1561    7.1234 C   0  0  0  0  0  0  0  0  0  0  0  0
   -0.2405    0.7973    3.5524 C   0  0  0  0  0  0  0  0  0  0  0  0
   -0.3139   -1.0795    5.1116 C   0  0  0  0  0  0  0  0  0  0  0  0
   -0.7677    1.7515    8.3799 C   0  0  0  0  0  0  0  0  0  0  0  0
   -2.5603    0.4070    7.1952 S   0  0  0  0  0  0  0  0  0  0  0  0
   -0.2026    2.4719    3.2413 Cl  0  0  0  0  0  0  0  0  0  0  0  0
   -0.3149   -0.1158    2.4662 C   0  0  0  0  0  0  0  0  0  0  0  0
   -0.4275   -1.9755    4.0394 C   0  0  0  0  0  0  0  0  0  0  0  0
   -1.8094    1.5914    9.3113 C   0  0  0  0  0  0  0  0  0  0  0  0
   -2.9102    0.8695    8.8483 C   0  0  0  0  0  0  0  0  0  0  0  0
   -0.2413    0.4079    0.8491 Cl  0  0  0  0  0  0  0  0  0  0  0  0
   -0.4424   -1.5030    2.7145 C   0  0  0  0  0  0  0  0  0  0  0  0
   -0.5487   -2.4177    1.6924 O   0  0  0  0  0  0  0  0  0  0  0  0
   -1.8970   -2.6546    1.2256 C   0  0  2  0  0  0  0  0  0  0  0  0
   -2.7172   -3.4191    2.1828 C   0  0  0  0  0  0  0  0  0  0  0  0
   -3.8436   -2.8790    2.7021 O   0  0  0  0  0  0  0  0  0  0  0  0
   -2.3813   -4.5747    2.5275 O   0  0  0  0  0  0  0  0  0  0  0  0
   -0.2869   -1.4612    6.0600 H   0  0  0  0  0  0  0  0  0  0  0  0
    0.0826    2.2700    8.6132 H   0  0  0  0  0  0  0  0  0  0  0  0
   -0.4943   -2.9792    4.2281 H   0  0  0  0  0  0  0  0  0  0  0  0
   -1.7657    1.9734   10.2582 H   0  0  0  0  0  0  0  0  0  0  0  0
   -3.7602    0.6518    9.3706 H   0  0  0  0  0  0  0  0  0  0  0  0
   -1.8250   -3.2413    0.3074 H   0  0  0  0  0  0  0  0  0  0  0  0
   -2.3985   -1.7174    0.9648 H   0  0  0  0  0  0  0  0  0  0  0  0
   -4.3939   -3.3962    3.3274 H   0  0  0  0  0  0  0  0  0  0  0  0
  1  2  2  0  0  0  0 
  1  3  1  0  0  0  0 
  1  4  1  0  0  0  0 
  3  5  2  0  0  0  0 
  3  6  1  0  0  0  0 
  4  7  2  0  0  0  0 
  4  8  1  0  0  0  0 
  5  9  1  0  0  0  0 
  5 10  1  0  0  0  0 
  6 11  2  0  0  0  0 
  7 12  1  0  0  0  0 
  8 13  1  0  0  0  0 
 10 14  1  0  0  0  0 
 10 15  2  0  0  0  0 
 11 15  1  0  0  0  0 
 12 13  2  0  0  0  0 
 15 16  1  0  0  0  0 
 16 17  1  0  0  0  0 
 17 18  1  0  0  0  0 
 18 19  1  0  0  0  0 
 18 20  2  0  0  0  0 
  6 21  1  0  0  0  0 
  7 22  1  0  0  0  0 
 11 23  1  0  0  0  0 
 12 24  1  0  0  0  0 
 13 25  1  0  0  0  0 
 17 26  1  0  0  0  0 
 17 27  1  0  0  0  0 
 19 28  1  0  0  0  0 
M  END
> <cdk:Title>
tienilic acid

> <Conformer>
1

> <SuperDrugID>
SD002391

$$$$
