pidotimod
  CDK     0628171801

 28 29  0  0  0  0  0  0  0  0999 V2000
   -0.9258   -0.2066    1.0263 C   0  0  0  0  0  0  0  0  0  0  0  0
   -0.4935   -0.6600    2.1145 O   0  0  0  0  0  0  0  0  0  0  0  0
   -0.0362    0.4413    0.1704 N   0  0  0  0  0  0  0  0  0  0  0  0
   -2.3810   -0.4118    0.7368 C   0  0  1  0  0  0  0  0  0  0  0  0
    1.3540    0.7043    0.5459 C   0  0  2  0  0  0  0  0  0  0  0  0
   -0.4332    0.8408   -1.1582 C   0  0  2  0  0  0  0  0  0  0  0  0
   -3.0300   -1.2502    1.6823 N   0  0  0  0  0  0  0  0  0  0  0  0
   -3.2264    0.8956    0.7893 C   0  0  1  0  0  0  0  0  0  0  0  0
    1.4896    1.4319    1.8346 C   0  0  0  0  0  0  0  0  0  0  0  0
    2.1291    1.4706   -0.5668 C   0  0  1  0  0  0  0  0  0  0  0  0
    1.1146    1.1950   -2.0409 S   0  0  0  0  0  0  0  0  0  0  0  0
   -4.0184   -0.6628    2.3581 C   0  0  0  0  0  0  0  0  0  0  0  0
   -4.2142    0.7283    1.9666 C   0  0  1  0  0  0  0  0  0  0  0  0
    0.9492    2.6613    1.9953 O   0  0  0  0  0  0  0  0  0  0  0  0
    2.0992    0.9230    2.8039 O   0  0  0  0  0  0  0  0  0  0  0  0
   -4.6904   -1.2441    3.2386 O   0  0  0  0  0  0  0  0  0  0  0  0
   -2.4944   -0.9031   -0.2330 H   0  0  0  0  0  0  0  0  0  0  0  0
    1.8347   -0.2745    0.6488 H   0  0  0  0  0  0  0  0  0  0  0  0
   -1.0508    1.7399   -1.1316 H   0  0  0  0  0  0  0  0  0  0  0  0
   -0.9460    0.0479   -1.7058 H   0  0  0  0  0  0  0  0  0  0  0  0
   -2.7683   -2.1737    1.8285 H   0  0  0  0  0  0  0  0  0  0  0  0
   -2.6157    1.7916    0.9347 H   0  0  0  0  0  0  0  0  0  0  0  0
   -3.7816    1.0167   -0.1462 H   0  0  0  0  0  0  0  0  0  0  0  0
    2.1798    2.5486   -0.3924 H   0  0  0  0  0  0  0  0  0  0  0  0
    3.1348    1.0776   -0.7182 H   0  0  0  0  0  0  0  0  0  0  0  0
   -3.9628    1.3887    2.8006 H   0  0  0  0  0  0  0  0  0  0  0  0
   -5.2462    0.9042    1.6531 H   0  0  0  0  0  0  0  0  0  0  0  0
    1.0543    3.1365    2.8481 H   0  0  0  0  0  0  0  0  0  0  0  0
  1  2  2  0  0  0  0 
  1  3  1  0  0  0  0 
  5  3  1  0  0  0  0 
  3  6  1  0  0  0  0 
  4  1  1  0  0  0  0 
  4  7  1  0  0  0  0 
  4  8  1  0  0  0  0 
  5  9  1  0  0  0  0 
  5 10  1  0  0  0  0 
  6 11  1  0  0  0  0 
  7 12  1  0  0  0  0 
  8 13  1  0  0  0  0 
  9 14  1  0  0  0  0 
  9 15  2  0  0  0  0 
 10 11  1  0  0  0  0 
 12 13  1  0  0  0  0 
 12 16  2  0  0  0  0 
  4 17  1  0  0  0  0 
  5 18  1  0  0  0  0 
  6 19  1  0  0  0  0 
  6 20  1  0  0  0  0 
  7 21  1  0  0  0  0 
  8 22  1  0  0  0  0 
  8 23  1  0  0  0  0 
 10 24  1  0  0  0  0 
 10 25  1  0  0  0  0 
 13 26  1  0  0  0  0 
 13 27  1  0  0  0  0 
 14 28  1  0  0  0  0 
M  END
> <cdk:Title>
pidotimod

> <Conformer>
1

> <SuperDrugID>
SD001941

$$$$
