pemoline
  CDK     0628171801

 21 22  0  0  0  0  0  0  0  0999 V2000
   -3.2026   -3.4256    1.0798 N   0  0  0  0  0  0  0  0  0  0  0  0
   -2.2425   -2.7734    0.4055 C   0  0  0  0  0  0  0  0  0  0  0  0
   -1.6178   -3.2298   -0.6917 N   0  0  0  0  0  0  0  0  0  0  0  0
   -0.7422   -2.2802   -1.0556 C   0  0  0  0  0  0  0  0  0  0  0  0
    0.1004   -2.4007   -2.1096 O   0  0  0  0  0  0  0  0  0  0  0  0
   -0.8405   -1.2160   -0.1567 C   0  0  0  0  0  0  0  0  0  0  0  0
   -1.7825   -1.5542    0.7514 O   0  0  0  0  0  0  0  0  0  0  0  0
   -0.1237    0.0020   -0.1104 C   0  0  0  0  0  0  0  0  0  0  0  0
    0.0802    0.6312    1.1416 C   0  0  0  0  0  0  0  0  0  0  0  0
    0.7930    1.8403    1.2314 C   0  0  0  0  0  0  0  0  0  0  0  0
    1.3018    2.4433    0.0672 C   0  0  0  0  0  0  0  0  0  0  0  0
    1.0950    1.8383   -1.1849 C   0  0  0  0  0  0  0  0  0  0  0  0
    0.3867    0.6264   -1.2742 C   0  0  0  0  0  0  0  0  0  0  0  0
   -3.6204   -3.0113    1.8530 H   0  0  0  0  0  0  0  0  0  0  0  0
   -3.4876   -4.3055    0.7906 H   0  0  0  0  0  0  0  0  0  0  0  0
    0.8608   -1.8156   -1.9078 H   0  0  0  0  0  0  0  0  0  0  0  0
   -0.2812    0.2133    2.0046 H   0  0  0  0  0  0  0  0  0  0  0  0
    0.9386    2.2799    2.1429 H   0  0  0  0  0  0  0  0  0  0  0  0
    1.8201    3.3222    0.1307 H   0  0  0  0  0  0  0  0  0  0  0  0
    1.4532    2.2811   -2.0337 H   0  0  0  0  0  0  0  0  0  0  0  0
    0.2348    0.2187   -2.1986 H   0  0  0  0  0  0  0  0  0  0  0  0
  1  2  1  0  0  0  0 
  2  3  2  0  0  0  0 
  3  4  1  0  0  0  0 
  4  5  1  0  0  0  0 
  6  4  2  0  0  0  0 
  6  7  1  0  0  0  0 
  2  7  1  0  0  0  0 
  6  8  1  0  0  0  0 
  8  9  2  0  0  0  0 
  9 10  1  0  0  0  0 
 10 11  2  0  0  0  0 
 11 12  1  0  0  0  0 
 12 13  2  0  0  0  0 
  8 13  1  0  0  0  0 
 14  1  1  0  0  0  0 
 15  1  1  0  0  0  0 
 16  5  1  0  0  0  0 
 17  9  1  0  0  0  0 
 18 10  1  0  0  0  0 
 19 11  1  0  0  0  0 
 20 12  1  0  0  0  0 
 21 13  1  0  0  0  0 
M  END
> <cdk:Title>
pemoline

> <Conformer>
1

> <SuperDrugID>
SD001860

$$$$
