torsemide
  CDK     0628171801

 44 45  0  0  0  0  0  0  0  0999 V2000
   -2.3290    5.4620   -1.2476 S   0  0  2  0  0  0  0  0  0  0  0  0
   -2.9967    7.0324   -1.4191 N   0  0  0  0  0  0  0  0  0  0  0  0
   -2.8577    4.5631   -2.4686 O   0  0  0  0  0  0  0  0  0  0  0  0
   -2.8687    4.8086    0.1159 O   0  0  0  0  0  0  0  0  0  0  0  0
   -0.5501    5.4732   -1.2490 C   0  0  0  0  0  0  0  0  0  0  0  0
   -3.1042    7.9279   -0.4141 C   0  0  0  0  0  0  0  0  0  0  0  0
    0.1941    4.2783   -1.0574 C   0  0  0  0  0  0  0  0  0  0  0  0
    0.1467    6.6859   -1.4546 C   0  0  0  0  0  0  0  0  0  0  0  0
   -3.6481    9.1309   -0.7248 N   0  0  0  0  0  0  0  0  0  0  0  0
   -2.7077    7.6671    0.7470 O   0  0  0  0  0  0  0  0  0  0  0  0
   -0.4770    3.0991   -0.8526 N   0  0  0  0  0  0  0  0  0  0  0  0
    1.6075    4.3415   -1.1359 C   0  0  0  0  0  0  0  0  0  0  0  0
    1.5019    6.7005   -1.4936 N   0  0  0  0  0  0  0  0  0  0  0  0
   -3.7963   10.2384    0.1718 C   0  0  2  0  0  0  0  0  0  0  0  0
   -0.0045    1.9291   -0.3334 C   0  0  0  0  0  0  0  0  0  0  0  0
    2.2439    5.5760   -1.3485 C   0  0  0  0  0  0  0  0  0  0  0  0
   -4.9177   11.1714   -0.3509 C   0  0  0  0  0  0  0  0  0  0  0  0
   -2.4403   10.9735    0.3324 C   0  0  0  0  0  0  0  0  0  0  0  0
    0.8574    1.8709    0.7861 C   0  0  0  0  0  0  0  0  0  0  0  0
   -0.4205    0.7233   -0.9347 C   0  0  0  0  0  0  0  0  0  0  0  0
    1.3646    0.6374    1.2561 C   0  0  0  0  0  0  0  0  0  0  0  0
    0.0769   -0.5106   -0.4799 C   0  0  0  0  0  0  0  0  0  0  0  0
    2.2786    0.6158    2.4228 C   0  0  0  0  0  0  0  0  0  0  0  0
    0.9736   -0.5525    0.6016 C   0  0  0  0  0  0  0  0  0  0  0  0
   -3.3107    7.2964   -2.2986 H   0  0  0  0  0  0  0  0  0  0  0  0
   -0.3491    7.5701   -1.5831 H   0  0  0  0  0  0  0  0  0  0  0  0
   -3.9290    9.2613   -1.6429 H   0  0  0  0  0  0  0  0  0  0  0  0
   -1.4041    3.0833   -1.1337 H   0  0  0  0  0  0  0  0  0  0  0  0
    2.1818    3.5000   -1.0536 H   0  0  0  0  0  0  0  0  0  0  0  0
   -4.1110    9.8769    1.1555 H   0  0  0  0  0  0  0  0  0  0  0  0
    3.2640    5.6314   -1.3952 H   0  0  0  0  0  0  0  0  0  0  0  0
   -5.0745   12.0028    0.3395 H   0  0  0  0  0  0  0  0  0  0  0  0
   -5.8563   10.6198   -0.4382 H   0  0  0  0  0  0  0  0  0  0  0  0
   -4.6635   11.5758   -1.3321 H   0  0  0  0  0  0  0  0  0  0  0  0
   -2.5307   11.7989    1.0428 H   0  0  0  0  0  0  0  0  0  0  0  0
   -1.6844   10.2823    0.7097 H   0  0  0  0  0  0  0  0  0  0  0  0
   -2.0970   11.3656   -0.6274 H   0  0  0  0  0  0  0  0  0  0  0  0
    1.1182    2.7373    1.2640 H   0  0  0  0  0  0  0  0  0  0  0  0
   -1.0780    0.7367   -1.7186 H   0  0  0  0  0  0  0  0  0  0  0  0
   -0.2125   -1.3786   -0.9353 H   0  0  0  0  0  0  0  0  0  0  0  0
    1.7504    0.9651    3.3139 H   0  0  0  0  0  0  0  0  0  0  0  0
    3.1301    1.2734    2.2367 H   0  0  0  0  0  0  0  0  0  0  0  0
    2.6611   -0.3872    2.6240 H   0  0  0  0  0  0  0  0  0  0  0  0
    1.3325   -1.4565    0.9137 H   0  0  0  0  0  0  0  0  0  0  0  0
  1  2  1  0  0  0  0 
  1  3  2  0  0  0  0 
  1  4  2  0  0  0  0 
  1  5  1  0  0  0  0 
  2  6  1  0  0  0  0 
  5  7  2  0  0  0  0 
  5  8  1  0  0  0  0 
  6  9  1  0  0  0  0 
  6 10  2  0  0  0  0 
  7 11  1  0  0  0  0 
  7 12  1  0  0  0  0 
  8 13  2  0  0  0  0 
  9 14  1  0  0  0  0 
 11 15  1  0  0  0  0 
 12 16  2  0  0  0  0 
 13 16  1  0  0  0  0 
 14 17  1  0  0  0  0 
 14 18  1  0  0  0  0 
 15 19  2  0  0  0  0 
 15 20  1  0  0  0  0 
 19 21  1  0  0  0  0 
 20 22  2  0  0  0  0 
 21 23  1  0  0  0  0 
 21 24  2  0  0  0  0 
 22 24  1  0  0  0  0 
  2 25  1  0  0  0  0 
  8 26  1  0  0  0  0 
  9 27  1  0  0  0  0 
 11 28  1  0  0  0  0 
 12 29  1  0  0  0  0 
 14 30  1  0  0  0  0 
 16 31  1  0  0  0  0 
 17 32  1  0  0  0  0 
 17 33  1  0  0  0  0 
 17 34  1  0  0  0  0 
 18 35  1  0  0  0  0 
 18 36  1  0  0  0  0 
 18 37  1  0  0  0  0 
 19 38  1  0  0  0  0 
 20 39  1  0  0  0  0 
 22 40  1  0  0  0  0 
 23 41  1  0  0  0  0 
 23 42  1  0  0  0  0 
 23 43  1  0  0  0  0 
 24 44  1  0  0  0  0 
M  END
> <cdk:Title>
torsemide

> <Conformer>
1

> <SuperDrugID>
SD002439

$$$$
