vinylbital
  CDK     0628171801

 32 32  0  0  0  0  0  0  0  0999 V2000
    2.0588    0.7757    1.0015 C   0  0  2  0  0  0  0  0  0  0  0  0
    1.6928    0.1806   -0.4112 C   0  0  2  0  0  0  0  0  0  0  0  0
    1.3424    2.1506    1.2134 C   0  0  0  0  0  0  0  0  0  0  0  0
    3.6319    0.7976    1.2807 C   0  0  1  0  0  0  0  0  0  0  0  0
    0.1868   -0.0445   -0.7370 C   0  0  2  0  0  0  0  0  0  0  0  0
    3.9741    1.2767    2.6376 C   0  0  0  0  0  0  0  0  0  0  0  0
    4.1614   -0.6144    1.2201 C   0  0  0  0  0  0  0  0  0  0  0  0
    4.3236    1.6558    0.2501 C   0  0  0  0  0  0  0  0  0  0  0  0
   -0.5082   -1.1176    0.1302 C   0  0  0  0  0  0  0  0  0  0  0  0
    5.2137    1.5592    3.0680 C   0  0  0  0  0  0  0  0  0  0  0  0
    3.7588   -1.4945    2.0178 O   0  0  0  0  0  0  0  0  0  0  0  0
    5.0839   -1.0108    0.3058 N   0  0  0  0  0  0  0  0  0  0  0  0
    4.1028    2.8866    0.1672 O   0  0  0  0  0  0  0  0  0  0  0  0
    5.2361    1.1533   -0.6230 N   0  0  0  0  0  0  0  0  0  0  0  0
    5.6031   -0.1502   -0.6026 C   0  0  0  0  0  0  0  0  0  0  0  0
    6.4412   -0.5665   -1.4340 O   0  0  0  0  0  0  0  0  0  0  0  0
    1.6202    0.1089    1.7506 H   0  0  0  0  0  0  0  0  0  0  0  0
    2.1886   -0.7836   -0.5406 H   0  0  0  0  0  0  0  0  0  0  0  0
    2.0941    0.8442   -1.1815 H   0  0  0  0  0  0  0  0  0  0  0  0
    1.6723    2.6381    2.1288 H   0  0  0  0  0  0  0  0  0  0  0  0
    0.2637    2.0108    1.3030 H   0  0  0  0  0  0  0  0  0  0  0  0
    1.5255    2.8282    0.3788 H   0  0  0  0  0  0  0  0  0  0  0  0
    0.1141   -0.3660   -1.7803 H   0  0  0  0  0  0  0  0  0  0  0  0
   -0.3665    0.8931   -0.6587 H   0  0  0  0  0  0  0  0  0  0  0  0
    3.2456    1.3651    3.3085 H   0  0  0  0  0  0  0  0  0  0  0  0
   -1.5395   -1.2444   -0.2042 H   0  0  0  0  0  0  0  0  0  0  0  0
   -0.5223   -0.8222    1.1795 H   0  0  0  0  0  0  0  0  0  0  0  0
    0.0085   -2.0740    0.0343 H   0  0  0  0  0  0  0  0  0  0  0  0
    5.9988    1.4742    2.4691 H   0  0  0  0  0  0  0  0  0  0  0  0
    5.3636    1.8575    4.0018 H   0  0  0  0  0  0  0  0  0  0  0  0
    5.3814   -1.9356    0.3035 H   0  0  0  0  0  0  0  0  0  0  0  0
    5.6435    1.7475   -1.2737 H   0  0  0  0  0  0  0  0  0  0  0  0
  1  2  1  0  0  0  0 
  1  3  1  0  0  0  0 
  1  4  1  0  0  0  0 
  2  5  1  0  0  0  0 
  4  6  1  0  0  0  0 
  4  7  1  0  0  0  0 
  4  8  1  0  0  0  0 
  5  9  1  0  0  0  0 
  6 10  2  0  0  0  0 
  7 11  2  0  0  0  0 
  7 12  1  0  0  0  0 
  8 13  2  0  0  0  0 
  8 14  1  0  0  0  0 
 12 15  1  0  0  0  0 
 14 15  1  0  0  0  0 
 15 16  2  0  0  0  0 
 17  1  1  0  0  0  0 
 18  2  1  0  0  0  0 
 19  2  1  0  0  0  0 
 20  3  1  0  0  0  0 
 21  3  1  0  0  0  0 
 22  3  1  0  0  0  0 
 23  5  1  0  0  0  0 
 24  5  1  0  0  0  0 
 25  6  1  0  0  0  0 
 26  9  1  0  0  0  0 
 27  9  1  0  0  0  0 
 28  9  1  0  0  0  0 
 29 10  1  0  0  0  0 
 30 10  1  0  0  0  0 
 31 12  1  0  0  0  0 
 32 14  1  0  0  0  0 
M  END
> <cdk:Title>
vinylbital

> <Conformer>
1

> <SuperDrugID>
SD002552

$$$$
