diflunisal
  CDK     0628171802

 26 27  0  0  0  0  0  0  0  0999 V2000
   -2.7311   -2.6347    1.7015 F   0  0  0  0  0  0  0  0  0  0  0  0
   -1.7556   -1.9658    1.1423 C   0  0  0  0  0  0  0  0  0  0  0  0
   -2.0026   -1.0091    0.1251 C   0  0  0  0  0  0  0  0  0  0  0  0
   -0.4386   -2.2287    1.5651 C   0  0  0  0  0  0  0  0  0  0  0  0
   -0.9055   -0.3256   -0.4516 C   0  0  0  0  0  0  0  0  0  0  0  0
   -3.3215   -0.7270   -0.3155 C   0  0  0  0  0  0  0  0  0  0  0  0
    0.6435   -1.5453    0.9819 C   0  0  0  0  0  0  0  0  0  0  0  0
    0.4081   -0.5926   -0.0255 C   0  0  0  0  0  0  0  0  0  0  0  0
   -4.2905   -0.2398    0.5912 C   0  0  0  0  0  0  0  0  0  0  0  0
   -3.6845   -0.9283   -1.6637 C   0  0  0  0  0  0  0  0  0  0  0  0
    1.8624   -1.7952    1.3746 F   0  0  0  0  0  0  0  0  0  0  0  0
   -5.6202    0.0370    0.1890 C   0  0  0  0  0  0  0  0  0  0  0  0
   -4.9954   -0.6614   -2.0868 C   0  0  0  0  0  0  0  0  0  0  0  0
   -6.5553    0.5192    1.1517 C   0  0  0  0  0  0  0  0  0  0  0  0
   -5.9574   -0.1863   -1.1736 C   0  0  0  0  0  0  0  0  0  0  0  0
   -6.2093    0.7194    2.4503 O   0  0  0  0  0  0  0  0  0  0  0  0
   -7.7429    0.7844    0.8602 O   0  0  0  0  0  0  0  0  0  0  0  0
   -7.2030    0.0463   -1.6573 O   0  0  0  0  0  0  0  0  0  0  0  0
   -0.2671   -2.9216    2.2971 H   0  0  0  0  0  0  0  0  0  0  0  0
   -1.0556    0.3775   -1.1815 H   0  0  0  0  0  0  0  0  0  0  0  0
    1.1905   -0.0903   -0.4502 H   0  0  0  0  0  0  0  0  0  0  0  0
   -4.0112   -0.0824    1.5640 H   0  0  0  0  0  0  0  0  0  0  0  0
   -3.0023   -1.2777   -2.3425 H   0  0  0  0  0  0  0  0  0  0  0  0
   -5.2468   -0.8177   -3.0658 H   0  0  0  0  0  0  0  0  0  0  0  0
   -6.8638    1.0508    3.1015 H   0  0  0  0  0  0  0  0  0  0  0  0
   -7.2267    1.0120   -1.8190 H   0  0  0  0  0  0  0  0  0  0  0  0
  1  2  1  0  0  0  0 
  2  3  2  0  0  0  0 
  2  4  1  0  0  0  0 
  3  5  1  0  0  0  0 
  3  6  1  0  0  0  0 
  4  7  2  0  0  0  0 
  5  8  2  0  0  0  0 
  6  9  2  0  0  0  0 
  6 10  1  0  0  0  0 
  7  8  1  0  0  0  0 
  7 11  1  0  0  0  0 
  9 12  1  0  0  0  0 
 10 13  2  0  0  0  0 
 12 14  1  0  0  0  0 
 12 15  2  0  0  0  0 
 13 15  1  0  0  0  0 
 14 16  1  0  0  0  0 
 14 17  2  0  0  0  0 
 15 18  1  0  0  0  0 
  4 19  1  0  0  0  0 
  5 20  1  0  0  0  0 
  8 21  1  0  0  0  0 
  9 22  1  0  0  0  0 
 10 23  1  0  0  0  0 
 13 24  1  0  0  0  0 
 16 25  1  0  0  0  0 
 18 26  1  0  0  0  0 
M  END
> <cdk:Title>
diflunisal

> <Conformer>
1

> <SuperDrugID>
SD000782

$$$$
