carbocromen
  CDK     0628171801

 53 54  0  0  0  0  0  0  0  0999 V2000
   -4.6029   10.4440   -0.4557 C   0  0  0  0  0  0  0  0  0  0  0  0
   -3.9500    9.6795    0.6499 C   0  0  0  0  0  0  0  0  0  0  0  0
   -3.0213    8.6483    0.2936 C   0  0  0  0  0  0  0  0  0  0  0  0
   -4.2172    9.9597    2.0319 C   0  0  0  0  0  0  0  0  0  0  0  0
   -2.3843    7.9209    1.3344 C   0  0  0  0  0  0  0  0  0  0  0  0
   -2.6738    8.2958   -1.0411 C   0  0  0  0  0  0  0  0  0  0  0  0
   -5.1470   11.0420    2.5125 C   0  0  2  0  0  0  0  0  0  0  0  0
   -3.5594    9.1631    3.0035 C   0  0  0  0  0  0  0  0  0  0  0  0
   -1.4358    6.9150    1.0641 C   0  0  0  0  0  0  0  0  0  0  0  0
   -2.6812    8.1965    2.6313 O   0  0  0  0  0  0  0  0  0  0  0  0
   -1.7297    7.2883   -1.3154 C   0  0  0  0  0  0  0  0  0  0  0  0
   -6.6313   10.5751    2.5563 C   0  0  2  0  0  0  0  0  0  0  0  0
   -3.7338    9.2977    4.2369 O   0  0  0  0  0  0  0  0  0  0  0  0
   -1.0893    6.6079   -0.2644 C   0  0  0  0  0  0  0  0  0  0  0  0
   -7.6563   11.6211    2.8984 N   0  0  2  0  0  0  0  0  0  0  0  0
   -0.1447    5.6539   -0.5422 O   0  0  0  0  0  0  0  0  0  0  0  0
   -7.9465   12.6257    1.8158 C   0  0  1  0  0  0  0  0  0  0  0  0
   -7.5452   12.2353    4.2685 C   0  0  2  0  0  0  0  0  0  0  0  0
    1.1802    6.2075   -0.6781 C   0  0  1  0  0  0  0  0  0  0  0  0
   -8.6194   12.0494    0.5458 C   0  0  0  0  0  0  0  0  0  0  0  0
   -7.4607   11.2480    5.4604 C   0  0  0  0  0  0  0  0  0  0  0  0
    2.1147    5.1502   -1.0900 C   0  0  0  0  0  0  0  0  0  0  0  0
    3.1598    4.8280   -0.2734 O   0  0  0  0  0  0  0  0  0  0  0  0
    1.9480    4.5797   -2.1941 O   0  0  0  0  0  0  0  0  0  0  0  0
    4.1610    3.8320   -0.5137 C   0  0  1  0  0  0  0  0  0  0  0  0
    5.1671    3.8317    0.6509 C   0  0  0  0  0  0  0  0  0  0  0  0
   -5.1447    9.7552   -1.1035 H   0  0  0  0  0  0  0  0  0  0  0  0
   -5.3194   11.1915   -0.1369 H   0  0  0  0  0  0  0  0  0  0  0  0
   -3.8372   10.9579   -1.0392 H   0  0  0  0  0  0  0  0  0  0  0  0
   -3.0932    8.7679   -1.8438 H   0  0  0  0  0  0  0  0  0  0  0  0
   -5.0326   11.9372    1.9050 H   0  0  0  0  0  0  0  0  0  0  0  0
   -4.8673   11.3685    3.5150 H   0  0  0  0  0  0  0  0  0  0  0  0
   -0.9877    6.4120    1.8355 H   0  0  0  0  0  0  0  0  0  0  0  0
   -1.4996    7.0566   -2.2848 H   0  0  0  0  0  0  0  0  0  0  0  0
   -6.7097    9.7641    3.2837 H   0  0  0  0  0  0  0  0  0  0  0  0
   -6.8864   10.1167    1.6013 H   0  0  0  0  0  0  0  0  0  0  0  0
   -8.6361   13.3842    2.1963 H   0  0  0  0  0  0  0  0  0  0  0  0
   -7.0319   13.1439    1.5237 H   0  0  0  0  0  0  0  0  0  0  0  0
   -8.4371   12.8450    4.4475 H   0  0  0  0  0  0  0  0  0  0  0  0
   -6.6804   12.9022    4.3088 H   0  0  0  0  0  0  0  0  0  0  0  0
    1.2115    6.9940   -1.4384 H   0  0  0  0  0  0  0  0  0  0  0  0
    1.5088    6.6310    0.2756 H   0  0  0  0  0  0  0  0  0  0  0  0
   -7.9589   11.3634    0.0177 H   0  0  0  0  0  0  0  0  0  0  0  0
   -9.5395   11.5281    0.8106 H   0  0  0  0  0  0  0  0  0  0  0  0
   -8.8689   12.8587   -0.1431 H   0  0  0  0  0  0  0  0  0  0  0  0
   -7.5554   11.7914    6.4039 H   0  0  0  0  0  0  0  0  0  0  0  0
   -6.5034   10.7265    5.4718 H   0  0  0  0  0  0  0  0  0  0  0  0
   -8.2647   10.5143    5.3985 H   0  0  0  0  0  0  0  0  0  0  0  0
    3.6924    2.8479   -0.5952 H   0  0  0  0  0  0  0  0  0  0  0  0
    4.6877    4.0514   -1.4455 H   0  0  0  0  0  0  0  0  0  0  0  0
    5.9222    3.0607    0.4903 H   0  0  0  0  0  0  0  0  0  0  0  0
    5.6625    4.8019    0.7179 H   0  0  0  0  0  0  0  0  0  0  0  0
    4.6527    3.6327    1.5926 H   0  0  0  0  0  0  0  0  0  0  0  0
  1  2  1  0  0  0  0 
  2  3  1  0  0  0  0 
  2  4  2  0  0  0  0 
  3  5  1  0  0  0  0 
  3  6  2  0  0  0  0 
  4  7  1  0  0  0  0 
  4  8  1  0  0  0  0 
  5  9  2  0  0  0  0 
  5 10  1  0  0  0  0 
  6 11  1  0  0  0  0 
  7 12  1  0  0  0  0 
  8 10  1  0  0  0  0 
  8 13  2  0  0  0  0 
  9 14  1  0  0  0  0 
 11 14  2  0  0  0  0 
 12 15  1  0  0  0  0 
 14 16  1  0  0  0  0 
 15 17  1  0  0  0  0 
 15 18  1  0  0  0  0 
 16 19  1  0  0  0  0 
 17 20  1  0  0  0  0 
 18 21  1  0  0  0  0 
 19 22  1  0  0  0  0 
 22 23  1  0  0  0  0 
 22 24  2  0  0  0  0 
 23 25  1  0  0  0  0 
 25 26  1  0  0  0  0 
  1 27  1  0  0  0  0 
  1 28  1  0  0  0  0 
  1 29  1  0  0  0  0 
  6 30  1  0  0  0  0 
  7 31  1  0  0  0  0 
  7 32  1  0  0  0  0 
  9 33  1  0  0  0  0 
 11 34  1  0  0  0  0 
 12 35  1  0  0  0  0 
 12 36  1  0  0  0  0 
 17 37  1  0  0  0  0 
 17 38  1  0  0  0  0 
 18 39  1  0  0  0  0 
 18 40  1  0  0  0  0 
 19 41  1  0  0  0  0 
 19 42  1  0  0  0  0 
 20 43  1  0  0  0  0 
 20 44  1  0  0  0  0 
 20 45  1  0  0  0  0 
 21 46  1  0  0  0  0 
 21 47  1  0  0  0  0 
 21 48  1  0  0  0  0 
 25 49  1  0  0  0  0 
 25 50  1  0  0  0  0 
 26 51  1  0  0  0  0 
 26 52  1  0  0  0  0 
 26 53  1  0  0  0  0 
M  END
> <cdk:Title>
carbocromen

> <Conformer>
1

> <SuperDrugID>
SD002689

$$$$
