dimemorfan
  CDK     0628171802

 44 47  0  0  0  0  0  0  0  0999 V2000
   -7.0477    2.3422   -1.7626 C   0  0  0  0  0  0  0  0  0  0  0  0
   -5.6030    2.5926   -1.4914 N   0  0  1  0  0  0  0  0  0  0  0  0
   -4.8252    1.4310   -0.9317 C   0  0  2  0  0  0  0  0  0  0  0  0
   -4.9096    3.3595   -2.5714 C   0  0  2  0  0  0  0  0  0  0  0  0
   -3.4981    1.9872   -0.3342 C   0  0  2  0  0  0  0  0  0  0  0  0
   -4.5290    0.2827   -1.9488 C   0  0  1  0  0  0  0  0  0  0  0  0
   -3.4730    3.7713   -2.1459 C   0  0  2  0  0  0  0  0  0  0  0  0
   -2.6428    2.5931   -1.5150 C   0  0  2  0  0  0  0  0  0  0  0  0
   -2.7126    0.9442    0.5293 C   0  0  2  0  0  0  0  0  0  0  0  0
   -3.3019    0.4578   -2.7808 C   0  0  0  0  0  0  0  0  0  0  0  0
   -2.3993    1.5524   -2.6016 C   0  0  0  0  0  0  0  0  0  0  0  0
   -1.3360    3.1892   -0.8552 C   0  0  2  0  0  0  0  0  0  0  0  0
   -1.3879    1.5253    1.0829 C   0  0  2  0  0  0  0  0  0  0  0  0
   -3.0505   -0.5095   -3.7796 C   0  0  0  0  0  0  0  0  0  0  0  0
   -1.3105    1.6588   -3.5095 C   0  0  0  0  0  0  0  0  0  0  0  0
   -0.5215    2.1507   -0.0388 C   0  0  2  0  0  0  0  0  0  0  0  0
   -1.9486   -0.3925   -4.6380 C   0  0  0  0  0  0  0  0  0  0  0  0
   -1.0630    0.6975   -4.5131 C   0  0  0  0  0  0  0  0  0  0  0  0
    0.1093    0.8424   -5.4094 C   0  0  0  0  0  0  0  0  0  0  0  0
   -3.7748    2.7931    0.3581 H   0  0  0  0  0  0  0  0  0  0  0  0
   -5.4084    1.0125   -0.1038 H   0  0  0  0  0  0  0  0  0  0  0  0
   -7.1855    1.7542   -2.6709 H   0  0  0  0  0  0  0  0  0  0  0  0
   -7.5730    3.2908   -1.8827 H   0  0  0  0  0  0  0  0  0  0  0  0
   -7.5196    1.8181   -0.9293 H   0  0  0  0  0  0  0  0  0  0  0  0
   -5.4699    4.2721   -2.7956 H   0  0  0  0  0  0  0  0  0  0  0  0
   -4.8700    2.7647   -3.4880 H   0  0  0  0  0  0  0  0  0  0  0  0
   -4.4226   -0.6533   -1.3926 H   0  0  0  0  0  0  0  0  0  0  0  0
   -5.3905    0.1625   -2.6092 H   0  0  0  0  0  0  0  0  0  0  0  0
   -3.5733    4.5860   -1.4206 H   0  0  0  0  0  0  0  0  0  0  0  0
   -2.9525    4.1828   -3.0150 H   0  0  0  0  0  0  0  0  0  0  0  0
   -2.4746    0.0559   -0.0579 H   0  0  0  0  0  0  0  0  0  0  0  0
   -3.3354    0.6271    1.3699 H   0  0  0  0  0  0  0  0  0  0  0  0
   -1.6100    3.9946   -0.1656 H   0  0  0  0  0  0  0  0  0  0  0  0
   -0.6838    3.6530   -1.5954 H   0  0  0  0  0  0  0  0  0  0  0  0
   -0.8221    0.7313    1.5780 H   0  0  0  0  0  0  0  0  0  0  0  0
   -1.6145    2.2893    1.8324 H   0  0  0  0  0  0  0  0  0  0  0  0
   -3.6768   -1.3111   -3.8965 H   0  0  0  0  0  0  0  0  0  0  0  0
   -0.6713    2.4519   -3.4515 H   0  0  0  0  0  0  0  0  0  0  0  0
    0.3434    2.6447    0.4143 H   0  0  0  0  0  0  0  0  0  0  0  0
   -0.1463    1.3646   -0.6995 H   0  0  0  0  0  0  0  0  0  0  0  0
   -1.8046   -1.1050   -5.3583 H   0  0  0  0  0  0  0  0  0  0  0  0
   -0.0081    1.7357   -6.0249 H   0  0  0  0  0  0  0  0  0  0  0  0
    0.2314   -0.0161   -6.0725 H   0  0  0  0  0  0  0  0  0  0  0  0
    1.0185    0.9396   -4.8126 H   0  0  0  0  0  0  0  0  0  0  0  0
  1  2  1  0  0  0  0 
  3  2  1  0  0  0  0 
  2  4  1  0  0  0  0 
  5  3  1  0  0  0  0 
  3  6  1  0  0  0  0 
  3 21  1  0  0  0  0 
  4  7  1  0  0  0  0 
  8  5  1  0  0  0  0 
  5  9  1  0  0  0  0 
  5 20  1  0  0  0  0 
  6 10  1  0  0  0  0 
  8  7  1  0  0  0  0 
  8 11  1  0  0  0  0 
  8 12  1  0  0  0  0 
  9 13  1  0  0  0  0 
 10 11  2  0  0  0  0 
 10 14  1  0  0  0  0 
 11 15  1  0  0  0  0 
 12 16  1  0  0  0  0 
 13 16  1  0  0  0  0 
 14 17  2  0  0  0  0 
 15 18  2  0  0  0  0 
 17 18  1  0  0  0  0 
 18 19  1  0  0  0  0 
  1 22  1  0  0  0  0 
  1 23  1  0  0  0  0 
  1 24  1  0  0  0  0 
  4 25  1  0  0  0  0 
  4 26  1  0  0  0  0 
  6 27  1  0  0  0  0 
  6 28  1  0  0  0  0 
  7 29  1  0  0  0  0 
  7 30  1  0  0  0  0 
  9 31  1  0  0  0  0 
  9 32  1  0  0  0  0 
 12 33  1  0  0  0  0 
 12 34  1  0  0  0  0 
 13 35  1  0  0  0  0 
 13 36  1  0  0  0  0 
 14 37  1  0  0  0  0 
 15 38  1  0  0  0  0 
 16 39  1  0  0  0  0 
 16 40  1  0  0  0  0 
 17 41  1  0  0  0  0 
 19 42  1  0  0  0  0 
 19 43  1  0  0  0  0 
 19 44  1  0  0  0  0 
M  END
> <cdk:Title>
dimemorfan

> <Conformer>
1

> <SuperDrugID>
SD000801

$$$$
