indigo carmine
  CDK     0628171801

 38 41  0  0  0  0  0  0  0  0999 V2000
    4.0781    0.3181   -0.5503 O   0  0  0  0  0  0  0  0  0  0  0  0
    4.0016   -0.3062    0.5327 C   0  0  0  0  0  0  0  0  0  0  0  0
    5.0315   -0.7669    1.3281 C   0  0  0  0  0  0  0  0  0  0  0  0
    2.8328   -0.6766    1.1746 C   0  0  0  0  0  0  0  0  0  0  0  0
    4.5480   -1.3631    2.3613 N   0  0  0  0  0  0  0  0  0  0  0  0
    6.3895   -0.6325    1.0915 C   0  0  0  0  0  0  0  0  0  0  0  0
    3.2388   -1.3406    2.3237 C   0  0  0  0  0  0  0  0  0  0  0  0
    1.4731   -0.4993    0.8700 C   0  0  0  0  0  0  0  0  0  0  0  0
    7.4303   -1.1054    1.9020 C   0  0  0  0  0  0  0  0  0  0  0  0
    6.9457   -0.0139    0.0270 N   0  0  0  0  0  0  0  0  0  0  0  0
    2.2998   -1.8633    3.2287 C   0  0  0  0  0  0  0  0  0  0  0  0
    0.5111   -1.0174    1.7690 C   0  0  0  0  0  0  0  0  0  0  0  0
    7.3312   -1.7850    3.0672 O   0  0  0  0  0  0  0  0  0  0  0  0
    8.6190   -0.7476    1.2832 C   0  0  0  0  0  0  0  0  0  0  0  0
    8.2838   -0.0689    0.1158 C   0  0  0  0  0  0  0  0  0  0  0  0
    0.9279   -1.6969    2.9414 C   0  0  0  0  0  0  0  0  0  0  0  0
   -1.2028   -0.7969    1.4042 S   0  0  2  0  0  0  0  0  0  0  0  0
    9.9566   -0.9587    1.6515 C   0  0  0  0  0  0  0  0  0  0  0  0
    9.2785    0.4271   -0.7428 C   0  0  0  0  0  0  0  0  0  0  0  0
   -1.5713   -1.5091    0.0154 O   0  0  0  0  0  0  0  0  0  0  0  0
   -1.5550    0.7637    1.2964 O   0  0  0  0  0  0  0  0  0  0  0  0
   -2.1804   -1.4847    2.6282 O   0  0  0  0  0  0  0  0  0  0  0  0
   10.9734   -0.4663    0.8009 C   0  0  0  0  0  0  0  0  0  0  0  0
   10.6306    0.2214   -0.3922 C   0  0  0  0  0  0  0  0  0  0  0  0
   12.6592   -0.7244    1.2650 S   0  0  2  0  0  0  0  0  0  0  0  0
   12.9721   -2.2946    1.3608 O   0  0  0  0  0  0  0  0  0  0  0  0
   12.9560   -0.0507    2.6900 O   0  0  0  0  0  0  0  0  0  0  0  0
   13.7244   -0.0412    0.1126 O   0  0  0  0  0  0  0  0  0  0  0  0
    1.1938   -0.0058    0.0174 H   0  0  0  0  0  0  0  0  0  0  0  0
    6.4531    0.4082   -0.6945 H   0  0  0  0  0  0  0  0  0  0  0  0
    2.6036   -2.3513    4.0741 H   0  0  0  0  0  0  0  0  0  0  0  0
    7.2322   -1.0931    3.7546 H   0  0  0  0  0  0  0  0  0  0  0  0
    0.2397   -2.0756    3.5956 H   0  0  0  0  0  0  0  0  0  0  0  0
   10.1822   -1.4553    2.5172 H   0  0  0  0  0  0  0  0  0  0  0  0
    9.0262    0.9234   -1.6005 H   0  0  0  0  0  0  0  0  0  0  0  0
   -1.8353   -1.1034    3.4617 H   0  0  0  0  0  0  0  0  0  0  0  0
   11.3602    0.5770   -1.0119 H   0  0  0  0  0  0  0  0  0  0  0  0
   13.4121    0.8809    0.0055 H   0  0  0  0  0  0  0  0  0  0  0  0
  1  2  2  0  0  0  0 
  2  3  1  0  0  0  0 
  2  4  1  0  0  0  0 
  3  5  2  0  0  0  0 
  3  6  1  0  0  0  0 
  4  7  2  0  0  0  0 
  4  8  1  0  0  0  0 
  5  7  1  0  0  0  0 
  6  9  2  0  0  0  0 
  6 10  1  0  0  0  0 
  7 11  1  0  0  0  0 
  8 12  2  0  0  0  0 
  9 13  1  0  0  0  0 
  9 14  1  0  0  0  0 
 10 15  1  0  0  0  0 
 11 16  2  0  0  0  0 
 12 16  1  0  0  0  0 
 12 17  1  0  0  0  0 
 14 15  1  0  0  0  0 
 14 18  2  0  0  0  0 
 15 19  2  0  0  0  0 
 17 20  2  0  0  0  0 
 17 21  2  0  0  0  0 
 17 22  1  0  0  0  0 
 18 23  1  0  0  0  0 
 19 24  1  0  0  0  0 
 23 24  2  0  0  0  0 
 23 25  1  0  0  0  0 
 25 26  2  0  0  0  0 
 25 27  2  0  0  0  0 
 25 28  1  0  0  0  0 
 29  8  1  0  0  0  0 
 30 10  1  0  0  0  0 
 31 11  1  0  0  0  0 
 32 13  1  0  0  0  0 
 33 16  1  0  0  0  0 
 34 18  1  0  0  0  0 
 35 19  1  0  0  0  0 
 36 22  1  0  0  0  0 
 37 24  1  0  0  0  0 
 38 28  1  0  0  0  0 
M  END
> <cdk:Title>
indigo carmine

> <Conformer>
1

> <SuperDrugID>
SD003632

$$$$
