dasatinib
  CDK     0628171802

 59 62  0  0  0  0  0  0  0  0999 V2000
    2.7162   -7.0914    3.0557 N   0  0  0  0  0  0  0  0  0  0  0  0
    3.9139   -7.7325    2.9605 C   0  0  0  0  0  0  0  0  0  0  0  0
    2.2863   -6.1109    2.2280 C   0  0  0  0  0  0  0  0  0  0  0  0
    4.4957   -8.2554    4.1318 C   0  0  0  0  0  0  0  0  0  0  0  0
    4.5740   -7.8695    1.7791 N   0  0  0  0  0  0  0  0  0  0  0  0
    0.7457   -5.2772    2.3400 S   0  0  0  0  0  0  0  0  0  0  0  0
    2.9722   -5.5266    1.2213 N   0  0  0  0  0  0  0  0  0  0  0  0
    5.7550   -8.9074    4.0684 C   0  0  0  0  0  0  0  0  0  0  0  0
    5.7795   -8.4827    1.6935 C   0  0  0  0  0  0  0  0  0  0  0  0
    1.0959   -4.1216    1.0659 C   0  0  0  0  0  0  0  0  0  0  0  0
    2.3685   -4.4840    0.5993 C   0  0  0  0  0  0  0  0  0  0  0  0
    6.4378   -9.4320    5.1701 N   0  0  0  0  0  0  0  0  0  0  0  0
    6.3299   -8.9780    2.8312 N   0  0  0  0  0  0  0  0  0  0  0  0
    6.4738   -8.5885    0.3998 C   0  0  0  0  0  0  0  0  0  0  0  0
    0.2953   -3.0554    0.6278 C   0  0  0  0  0  0  0  0  0  0  0  0
    5.9109   -9.5158    6.5214 C   0  0  1  0  0  0  0  0  0  0  0  0
    7.8187   -9.8756    5.0851 C   0  0  1  0  0  0  0  0  0  0  0  0
    0.8775   -2.0419   -0.0691 N   0  0  0  0  0  0  0  0  0  0  0  0
   -0.9337   -3.0756    0.8741 O   0  0  0  0  0  0  0  0  0  0  0  0
    6.7202   -8.5547    7.4337 C   0  0  1  0  0  0  0  0  0  0  0  0
    8.6879   -8.9101    5.9279 C   0  0  2  0  0  0  0  0  0  0  0  0
    0.2658   -0.9310   -0.5652 C   0  0  0  0  0  0  0  0  0  0  0  0
    8.2009   -8.7917    7.3417 N   0  0  1  0  0  0  0  0  0  0  0  0
   -0.3379    0.0623    0.2621 C   0  0  0  0  0  0  0  0  0  0  0  0
    0.3050   -0.7515   -1.9716 C   0  0  0  0  0  0  0  0  0  0  0  0
    9.0322   -7.8141    8.1215 C   0  0  2  0  0  0  0  0  0  0  0  0
   -0.3062   -0.0105    1.7481 C   0  0  0  0  0  0  0  0  0  0  0  0
   -0.9473    1.1806   -0.3564 C   0  0  0  0  0  0  0  0  0  0  0  0
    1.0373   -1.8762   -3.0157 Cl  0  0  0  0  0  0  0  0  0  0  0  0
   -0.2790    0.3873   -2.5545 C   0  0  0  0  0  0  0  0  0  0  0  0
    8.7915   -7.8419    9.6479 C   0  0  1  0  0  0  0  0  0  0  0  0
   -0.9104    1.3463   -1.7513 C   0  0  0  0  0  0  0  0  0  0  0  0
    9.7688   -7.0580   10.3235 O   0  0  0  0  0  0  0  0  0  0  0  0
    2.1515   -7.3103    3.8153 H   0  0  0  0  0  0  0  0  0  0  0  0
    3.9992   -8.1251    5.0125 H   0  0  0  0  0  0  0  0  0  0  0  0
    2.8360   -3.9937   -0.1666 H   0  0  0  0  0  0  0  0  0  0  0  0
    6.5640   -7.5969   -0.0506 H   0  0  0  0  0  0  0  0  0  0  0  0
    7.4759   -9.0082    0.5277 H   0  0  0  0  0  0  0  0  0  0  0  0
    5.9068   -9.2336   -0.2746 H   0  0  0  0  0  0  0  0  0  0  0  0
    4.8548   -9.2784    6.6129 H   0  0  0  0  0  0  0  0  0  0  0  0
    6.0088  -10.5410    6.8931 H   0  0  0  0  0  0  0  0  0  0  0  0
    7.9113  -10.8947    5.4762 H   0  0  0  0  0  0  0  0  0  0  0  0
    8.2225   -9.9000    4.0705 H   0  0  0  0  0  0  0  0  0  0  0  0
    1.8186   -2.1428   -0.2865 H   0  0  0  0  0  0  0  0  0  0  0  0
    6.4884   -7.5217    7.1527 H   0  0  0  0  0  0  0  0  0  0  0  0
    6.3830   -8.7139    8.4619 H   0  0  0  0  0  0  0  0  0  0  0  0
    8.6764   -7.9269    5.4458 H   0  0  0  0  0  0  0  0  0  0  0  0
    9.7163   -9.2840    5.9213 H   0  0  0  0  0  0  0  0  0  0  0  0
    8.8599   -6.7977    7.7533 H   0  0  0  0  0  0  0  0  0  0  0  0
   10.0916   -8.0426    7.9687 H   0  0  0  0  0  0  0  0  0  0  0  0
    0.7208   -0.1593    2.0867 H   0  0  0  0  0  0  0  0  0  0  0  0
   -0.9216   -0.8354    2.1025 H   0  0  0  0  0  0  0  0  0  0  0  0
   -0.6815    0.9034    2.2166 H   0  0  0  0  0  0  0  0  0  0  0  0
   -1.4202    1.8952    0.2038 H   0  0  0  0  0  0  0  0  0  0  0  0
   -0.2527    0.5214   -3.5676 H   0  0  0  0  0  0  0  0  0  0  0  0
    7.8108   -7.4287    9.8849 H   0  0  0  0  0  0  0  0  0  0  0  0
    8.8485   -8.8676   10.0160 H   0  0  0  0  0  0  0  0  0  0  0  0
   -1.3403    2.1660   -2.1835 H   0  0  0  0  0  0  0  0  0  0  0  0
    9.5249   -7.1177   11.2715 H   0  0  0  0  0  0  0  0  0  0  0  0
  1  2  1  0  0  0  0 
  1  3  1  0  0  0  0 
  2  4  2  0  0  0  0 
  2  5  1  0  0  0  0 
  3  6  1  0  0  0  0 
  3  7  2  0  0  0  0 
  4  8  1  0  0  0  0 
  5  9  2  0  0  0  0 
  6 10  1  0  0  0  0 
  7 11  1  0  0  0  0 
  8 12  1  0  0  0  0 
  8 13  2  0  0  0  0 
  9 13  1  0  0  0  0 
  9 14  1  0  0  0  0 
 10 11  2  0  0  0  0 
 10 15  1  0  0  0  0 
 12 16  1  0  0  0  0 
 12 17  1  0  0  0  0 
 15 18  1  0  0  0  0 
 15 19  2  0  0  0  0 
 16 20  1  0  0  0  0 
 17 21  1  0  0  0  0 
 18 22  1  0  0  0  0 
 20 23  1  0  0  0  0 
 21 23  1  0  0  0  0 
 22 24  2  0  0  0  0 
 22 25  1  0  0  0  0 
 23 26  1  0  0  0  0 
 24 27  1  0  0  0  0 
 24 28  1  0  0  0  0 
 25 29  1  0  0  0  0 
 25 30  2  0  0  0  0 
 26 31  1  0  0  0  0 
 28 32  2  0  0  0  0 
 30 32  1  0  0  0  0 
 31 33  1  0  0  0  0 
  1 34  1  0  0  0  0 
  4 35  1  0  0  0  0 
 11 36  1  0  0  0  0 
 14 37  1  0  0  0  0 
 14 38  1  0  0  0  0 
 14 39  1  0  0  0  0 
 16 40  1  0  0  0  0 
 16 41  1  0  0  0  0 
 17 42  1  0  0  0  0 
 17 43  1  0  0  0  0 
 18 44  1  0  0  0  0 
 20 45  1  0  0  0  0 
 20 46  1  0  0  0  0 
 21 47  1  0  0  0  0 
 21 48  1  0  0  0  0 
 26 49  1  0  0  0  0 
 26 50  1  0  0  0  0 
 27 51  1  0  0  0  0 
 27 52  1  0  0  0  0 
 27 53  1  0  0  0  0 
 28 54  1  0  0  0  0 
 30 55  1  0  0  0  0 
 31 56  1  0  0  0  0 
 31 57  1  0  0  0  0 
 32 58  1  0  0  0  0 
 33 59  1  0  0  0  0 
M  END
> <cdk:Title>
dasatinib

> <Conformer>
1

> <SuperDrugID>
SD000692

$$$$
