bitolterol
  CDK     0628171801

 65 67  0  0  0  0  0  0  0  0999 V2000
    2.8477    0.1889    3.4206 O   0  0  0  0  0  0  0  0  0  0  0  0
    3.1699   -0.9782    4.0484 C   0  0  0  0  0  0  0  0  0  0  0  0
    2.8896    0.2714    2.0599 C   0  0  0  0  0  0  0  0  0  0  0  0
    4.3737   -1.1542    4.3497 O   0  0  0  0  0  0  0  0  0  0  0  0
    2.1837   -1.9686    4.3130 C   0  0  0  0  0  0  0  0  0  0  0  0
    4.0906    0.4759    1.3386 C   0  0  0  0  0  0  0  0  0  0  0  0
    1.6816    0.0901    1.3583 C   0  0  0  0  0  0  0  0  0  0  0  0
    0.8120   -1.6284    4.3998 C   0  0  0  0  0  0  0  0  0  0  0  0
    2.5426   -3.3322    4.4480 C   0  0  0  0  0  0  0  0  0  0  0  0
    5.2792    0.7904    1.9288 O   0  0  0  0  0  0  0  0  0  0  0  0
    4.0774    0.3944   -0.0670 C   0  0  0  0  0  0  0  0  0  0  0  0
    1.6578    0.0277   -0.0534 C   0  0  0  0  0  0  0  0  0  0  0  0
   -0.1728   -2.6245    4.5417 C   0  0  0  0  0  0  0  0  0  0  0  0
    1.5583   -4.3284    4.5928 C   0  0  0  0  0  0  0  0  0  0  0  0
    5.5063    2.0428    2.4179 C   0  0  0  0  0  0  0  0  0  0  0  0
    2.8758    0.1683   -0.7554 C   0  0  0  0  0  0  0  0  0  0  0  0
    0.3775   -0.1705   -0.7892 C   0  0  2  0  0  0  0  0  0  0  0  0
    0.1873   -3.9880    4.6221 C   0  0  0  0  0  0  0  0  0  0  0  0
    5.0867    2.2914    3.5726 O   0  0  0  0  0  0  0  0  0  0  0  0
    6.1586    3.0299    1.6218 C   0  0  0  0  0  0  0  0  0  0  0  0
   -0.5099    1.0996   -0.7669 C   0  0  2  0  0  0  0  0  0  0  0  0
   -0.3204   -1.2867   -0.2403 O   0  0  0  0  0  0  0  0  0  0  0  0
   -0.8655   -5.0243    4.7391 C   0  0  0  0  0  0  0  0  0  0  0  0
    6.9311    2.6425    0.4987 C   0  0  0  0  0  0  0  0  0  0  0  0
    6.0027    4.4117    1.9069 C   0  0  0  0  0  0  0  0  0  0  0  0
    0.2013    2.2034   -1.4597 N   0  0  1  0  0  0  0  0  0  0  0  0
    7.4812    3.5966   -0.3757 C   0  0  0  0  0  0  0  0  0  0  0  0
    6.5828    5.3764    1.0000 C   0  0  0  0  0  0  0  0  0  0  0  0
   -0.4436    3.5394   -1.6167 C   0  0  2  0  0  0  0  0  0  0  0  0
    7.2985    4.9752   -0.1472 C   0  0  0  0  0  0  0  0  0  0  0  0
   -0.7047    4.2049   -0.2341 C   0  0  0  0  0  0  0  0  0  0  0  0
   -1.7584    3.4363   -2.4463 C   0  0  0  0  0  0  0  0  0  0  0  0
    0.5894    4.3982   -2.4055 C   0  0  0  0  0  0  0  0  0  0  0  0
    7.8523    5.9643   -1.1012 C   0  0  0  0  0  0  0  0  0  0  0  0
    0.8130   -0.0180    1.8848 H   0  0  0  0  0  0  0  0  0  0  0  0
    0.5136   -0.6499    4.3578 H   0  0  0  0  0  0  0  0  0  0  0  0
    3.5257   -3.6180    4.4253 H   0  0  0  0  0  0  0  0  0  0  0  0
    4.9406    0.5186   -0.5998 H   0  0  0  0  0  0  0  0  0  0  0  0
   -1.1576   -2.3482    4.5856 H   0  0  0  0  0  0  0  0  0  0  0  0
    1.8523   -5.3065    4.6691 H   0  0  0  0  0  0  0  0  0  0  0  0
    2.8944    0.1228   -1.7769 H   0  0  0  0  0  0  0  0  0  0  0  0
    0.5756   -0.4208   -1.8340 H   0  0  0  0  0  0  0  0  0  0  0  0
   -0.7427    1.3727    0.2649 H   0  0  0  0  0  0  0  0  0  0  0  0
   -1.4432    0.8768   -1.2837 H   0  0  0  0  0  0  0  0  0  0  0  0
   -1.0967   -1.4181   -0.8252 H   0  0  0  0  0  0  0  0  0  0  0  0
   -1.4303   -4.8668    5.6598 H   0  0  0  0  0  0  0  0  0  0  0  0
   -0.4514   -6.0355    4.7600 H   0  0  0  0  0  0  0  0  0  0  0  0
   -1.5461   -4.9544    3.8878 H   0  0  0  0  0  0  0  0  0  0  0  0
    7.1010    1.6522    0.2990 H   0  0  0  0  0  0  0  0  0  0  0  0
    5.4358    4.6463    2.7925 H   0  0  0  0  0  0  0  0  0  0  0  0
    1.0811    2.3501   -0.9595 H   0  0  0  0  0  0  0  0  0  0  0  0
    8.0193    3.2773   -1.1871 H   0  0  0  0  0  0  0  0  0  0  0  0
    6.4556    6.3704    1.2071 H   0  0  0  0  0  0  0  0  0  0  0  0
    0.2052    4.1928    0.3688 H   0  0  0  0  0  0  0  0  0  0  0  0
   -1.4848    3.6714    0.3086 H   0  0  0  0  0  0  0  0  0  0  0  0
   -1.0274    5.2408   -0.3527 H   0  0  0  0  0  0  0  0  0  0  0  0
   -2.5258    2.8931   -1.8941 H   0  0  0  0  0  0  0  0  0  0  0  0
   -2.1558    4.4258   -2.6790 H   0  0  0  0  0  0  0  0  0  0  0  0
   -1.5717    2.9081   -3.3833 H   0  0  0  0  0  0  0  0  0  0  0  0
    0.2152    5.4118   -2.5696 H   0  0  0  0  0  0  0  0  0  0  0  0
    1.5314    4.4675   -1.8557 H   0  0  0  0  0  0  0  0  0  0  0  0
    0.7968    3.9484   -3.3794 H   0  0  0  0  0  0  0  0  0  0  0  0
    7.4437    5.7811   -2.0973 H   0  0  0  0  0  0  0  0  0  0  0  0
    7.6085    6.9924   -0.8204 H   0  0  0  0  0  0  0  0  0  0  0  0
    8.9392    5.8694   -1.1399 H   0  0  0  0  0  0  0  0  0  0  0  0
  1  2  1  0  0  0  0 
  1  3  1  0  0  0  0 
  2  4  2  0  0  0  0 
  2  5  1  0  0  0  0 
  3  6  2  0  0  0  0 
  3  7  1  0  0  0  0 
  5  8  2  0  0  0  0 
  5  9  1  0  0  0  0 
  6 10  1  0  0  0  0 
  6 11  1  0  0  0  0 
  7 12  2  0  0  0  0 
  8 13  1  0  0  0  0 
  9 14  2  0  0  0  0 
 10 15  1  0  0  0  0 
 11 16  2  0  0  0  0 
 12 16  1  0  0  0  0 
 17 12  1  0  0  0  0 
 13 18  2  0  0  0  0 
 14 18  1  0  0  0  0 
 15 19  2  0  0  0  0 
 15 20  1  0  0  0  0 
 17 21  1  0  0  0  0 
 17 22  1  0  0  0  0 
 18 23  1  0  0  0  0 
 20 24  2  0  0  0  0 
 20 25  1  0  0  0  0 
 21 26  1  0  0  0  0 
 24 27  1  0  0  0  0 
 25 28  2  0  0  0  0 
 26 29  1  0  0  0  0 
 27 30  2  0  0  0  0 
 28 30  1  0  0  0  0 
 29 31  1  0  0  0  0 
 29 32  1  0  0  0  0 
 29 33  1  0  0  0  0 
 30 34  1  0  0  0  0 
  7 35  1  0  0  0  0 
  8 36  1  0  0  0  0 
  9 37  1  0  0  0  0 
 11 38  1  0  0  0  0 
 13 39  1  0  0  0  0 
 14 40  1  0  0  0  0 
 16 41  1  0  0  0  0 
 17 42  1  0  0  0  0 
 21 43  1  0  0  0  0 
 21 44  1  0  0  0  0 
 22 45  1  0  0  0  0 
 23 46  1  0  0  0  0 
 23 47  1  0  0  0  0 
 23 48  1  0  0  0  0 
 24 49  1  0  0  0  0 
 25 50  1  0  0  0  0 
 26 51  1  0  0  0  0 
 27 52  1  0  0  0  0 
 28 53  1  0  0  0  0 
 31 54  1  0  0  0  0 
 31 55  1  0  0  0  0 
 31 56  1  0  0  0  0 
 32 57  1  0  0  0  0 
 32 58  1  0  0  0  0 
 32 59  1  0  0  0  0 
 33 60  1  0  0  0  0 
 33 61  1  0  0  0  0 
 33 62  1  0  0  0  0 
 34 63  1  0  0  0  0 
 34 64  1  0  0  0  0 
 34 65  1  0  0  0  0 
M  END
> <cdk:Title>
bitolterol

> <Conformer>
1

> <SuperDrugID>
SD000328

$$$$
