threonine
  CDK     0628171801

 17 16  0  0  0  0  0  0  0  0999 V2000
   -2.1068   -0.6123   -0.8639 C   0  0  1  0  0  0  0  0  0  0  0  0
   -0.5831   -0.5776   -1.1962 C   0  0  1  0  0  0  0  0  0  0  0  0
   -2.7421    0.7222   -0.9015 C   0  0  0  0  0  0  0  0  0  0  0  0
   -2.8389   -1.4975   -1.7820 N   0  0  1  0  0  0  0  0  0  0  0  0
    0.2423    0.3058   -0.2277 C   0  0  0  0  0  0  0  0  0  0  0  0
   -0.0427   -1.8979   -1.1438 O   0  0  0  0  0  0  0  0  0  0  0  0
   -3.2902    1.2544    0.2159 O   0  0  0  0  0  0  0  0  0  0  0  0
   -2.7705    1.3925   -1.9589 O   0  0  0  0  0  0  0  0  0  0  0  0
   -2.2257   -1.0315    0.1376 H   0  0  0  0  0  0  0  0  0  0  0  0
   -0.4385   -0.2103   -2.2171 H   0  0  0  0  0  0  0  0  0  0  0  0
   -2.6873   -1.1570   -2.7341 H   0  0  0  0  0  0  0  0  0  0  0  0
   -2.4104   -2.4235   -1.7223 H   0  0  0  0  0  0  0  0  0  0  0  0
    1.3043    0.2345   -0.4688 H   0  0  0  0  0  0  0  0  0  0  0  0
    0.0989   -0.0193    0.8038 H   0  0  0  0  0  0  0  0  0  0  0  0
   -0.0545    1.3516   -0.3115 H   0  0  0  0  0  0  0  0  0  0  0  0
   -0.5177   -2.3976   -1.8384 H   0  0  0  0  0  0  0  0  0  0  0  0
   -3.6996    2.1457    0.1958 H   0  0  0  0  0  0  0  0  0  0  0  0
  2  1  1  0  0  0  0 
  1  3  1  0  0  0  0 
  1  4  1  0  0  0  0 
  2  5  1  0  0  0  0 
  2  6  1  0  0  0  0 
  3  7  1  0  0  0  0 
  3  8  2  0  0  0  0 
  1  9  1  0  0  0  0 
  2 10  1  0  0  0  0 
  4 11  1  0  0  0  0 
  4 12  1  0  0  0  0 
  5 13  1  0  0  0  0 
  5 14  1  0  0  0  0 
  5 15  1  0  0  0  0 
  6 16  1  0  0  0  0 
  7 17  1  0  0  0  0 
M  END
> <cdk:Title>
threonine

> <Conformer>
1

> <SuperDrugID>
SD003454

$$$$
