iomeglamic acid
  CDK     0628171801

 33 33  0  0  0  0  0  0  0  0999 V2000
   -0.1154   -0.4182   -0.3708 N   0  0  0  0  0  0  0  0  0  0  0  0
   -0.9289    0.7076   -0.3387 C   0  0  0  0  0  0  0  0  0  0  0  0
   -0.6726   -1.7160   -0.6817 C   0  0  0  0  0  0  0  0  0  0  0  0
    1.2273   -0.3621   -0.0993 C   0  0  0  0  0  0  0  0  0  0  0  0
   -0.5118    2.0752    0.0883 C   0  0  2  0  0  0  0  0  0  0  0  0
   -2.1373    0.5916   -0.6635 O   0  0  0  0  0  0  0  0  0  0  0  0
    1.6948   -0.4273    1.2353 C   0  0  0  0  0  0  0  0  0  0  0  0
    2.1589   -0.2975   -1.1630 C   0  0  0  0  0  0  0  0  0  0  0  0
    0.4477    2.8105   -0.8871 C   0  0  1  0  0  0  0  0  0  0  0  0
    0.3498   -0.5717    2.7920 I   0  0  0  0  0  0  0  0  0  0  0  0
    3.0829   -0.4181    1.4997 C   0  0  0  0  0  0  0  0  0  0  0  0
    1.5638   -0.1998   -3.1292 I   0  0  0  0  0  0  0  0  0  0  0  0
    3.5376   -0.2954   -0.8932 C   0  0  0  0  0  0  0  0  0  0  0  0
    0.5321    4.3384   -0.6188 C   0  0  1  0  0  0  0  0  0  0  0  0
    3.5325   -0.4824    2.7671 N   0  0  0  0  0  0  0  0  0  0  0  0
    4.0030   -0.3562    0.4316 C   0  0  0  0  0  0  0  0  0  0  0  0
    1.6029    4.9999   -1.3894 C   0  0  0  0  0  0  0  0  0  0  0  0
    6.0328   -0.3603    0.7602 I   0  0  0  0  0  0  0  0  0  0  0  0
    2.6038    5.6506   -0.7478 O   0  0  0  0  0  0  0  0  0  0  0  0
    1.5940    4.9893   -2.6418 O   0  0  0  0  0  0  0  0  0  0  0  0
    0.0789   -2.5106   -0.7183 H   0  0  0  0  0  0  0  0  0  0  0  0
   -1.1725   -1.6894   -1.6511 H   0  0  0  0  0  0  0  0  0  0  0  0
   -1.4027   -1.9932    0.0799 H   0  0  0  0  0  0  0  0  0  0  0  0
   -0.0422    2.0102    1.0705 H   0  0  0  0  0  0  0  0  0  0  0  0
   -1.4055    2.6940    0.2142 H   0  0  0  0  0  0  0  0  0  0  0  0
    1.4470    2.3858   -0.7775 H   0  0  0  0  0  0  0  0  0  0  0  0
    0.1100    2.6521   -1.9150 H   0  0  0  0  0  0  0  0  0  0  0  0
    4.2038   -0.2569   -1.6653 H   0  0  0  0  0  0  0  0  0  0  0  0
   -0.4187    4.8115   -0.8790 H   0  0  0  0  0  0  0  0  0  0  0  0
    0.7087    4.5070    0.4477 H   0  0  0  0  0  0  0  0  0  0  0  0
    2.9059   -0.5252    3.5048 H   0  0  0  0  0  0  0  0  0  0  0  0
    4.4842   -0.4874    2.9482 H   0  0  0  0  0  0  0  0  0  0  0  0
    3.3018    6.1095   -1.2606 H   0  0  0  0  0  0  0  0  0  0  0  0
  1  2  1  0  0  0  0 
  1  3  1  0  0  0  0 
  1  4  1  0  0  0  0 
  2  5  1  0  0  0  0 
  2  6  2  0  0  0  0 
  4  7  2  0  0  0  0 
  4  8  1  0  0  0  0 
  5  9  1  0  0  0  0 
  7 10  1  0  0  0  0 
  7 11  1  0  0  0  0 
  8 12  1  0  0  0  0 
  8 13  2  0  0  0  0 
  9 14  1  0  0  0  0 
 11 15  1  0  0  0  0 
 11 16  2  0  0  0  0 
 13 16  1  0  0  0  0 
 14 17  1  0  0  0  0 
 16 18  1  0  0  0  0 
 17 19  1  0  0  0  0 
 17 20  2  0  0  0  0 
  3 21  1  0  0  0  0 
  3 22  1  0  0  0  0 
  3 23  1  0  0  0  0 
  5 24  1  0  0  0  0 
  5 25  1  0  0  0  0 
  9 26  1  0  0  0  0 
  9 27  1  0  0  0  0 
 13 28  1  0  0  0  0 
 14 29  1  0  0  0  0 
 14 30  1  0  0  0  0 
 15 31  1  0  0  0  0 
 15 32  1  0  0  0  0 
 19 33  1  0  0  0  0 
M  END
> <cdk:Title>
iomeglamic acid

> <Conformer>
1

> <SuperDrugID>
SD002856

$$$$
