(S)-nitrendipine
  CDK     0628171802

 46 47  0  0  0  0  0  0  0  0999 V2000
   -7.3669    3.8305    1.6525 C   0  0  0  0  0  0  0  0  0  0  0  0
   -8.1675    4.5584    2.4870 O   0  0  0  0  0  0  0  0  0  0  0  0
   -6.9486    4.4041    0.6167 O   0  0  0  0  0  0  0  0  0  0  0  0
   -6.9930    2.4983    1.9429 C   0  0  0  0  0  0  0  0  0  0  0  0
   -8.6040    5.9158    2.3538 C   0  0  1  0  0  0  0  0  0  0  0  0
   -5.8529    1.9038    1.1886 C   0  0  2  0  0  0  0  0  0  0  0  0
   -7.5918    1.7293    2.8917 C   0  0  0  0  0  0  0  0  0  0  0  0
   -9.4775    6.2833    3.5676 C   0  0  0  0  0  0  0  0  0  0  0  0
   -5.6037    0.4469    1.3632 C   0  0  0  0  0  0  0  0  0  0  0  0
   -4.5900    2.6606    1.5014 C   0  0  0  0  0  0  0  0  0  0  0  0
   -8.6936    2.1414    3.7563 C   0  0  0  0  0  0  0  0  0  0  0  0
   -7.1736    0.4726    3.0901 N   0  0  0  0  0  0  0  0  0  0  0  0
   -4.6913   -0.1932    0.4958 C   0  0  0  0  0  0  0  0  0  0  0  0
   -6.2927   -0.2005    2.3386 C   0  0  0  0  0  0  0  0  0  0  0  0
   -4.1400    2.8206    2.8370 C   0  0  0  0  0  0  0  0  0  0  0  0
   -3.8268    3.2435    0.4646 C   0  0  0  0  0  0  0  0  0  0  0  0
   -4.0252   -1.3389    0.8398 O   0  0  0  0  0  0  0  0  0  0  0  0
   -4.4529    0.2926   -0.6370 O   0  0  0  0  0  0  0  0  0  0  0  0
   -6.1925   -1.6235    2.6445 C   0  0  0  0  0  0  0  0  0  0  0  0
   -2.9924    3.5899    3.1629 C   0  0  0  0  0  0  0  0  0  0  0  0
   -2.6534    3.9553    0.7538 C   0  0  0  0  0  0  0  0  0  0  0  0
   -3.1371   -2.0999    0.0117 C   0  0  0  0  0  0  0  0  0  0  0  0
   -2.6213    3.8034    4.4393 N   0  0  0  0  0  0  0  0  0  0  0  0
   -2.2488    4.1361    2.0868 C   0  0  0  0  0  0  0  0  0  0  0  0
   -1.5673    4.4413    4.7514 O   0  0  0  0  0  0  0  0  0  0  0  0
   -3.2456    3.4355    5.3561 O   0  0  0  0  0  0  0  0  0  0  0  0
   -7.7351    6.5783    2.3266 H   0  0  0  0  0  0  0  0  0  0  0  0
   -9.1825    6.0371    1.4327 H   0  0  0  0  0  0  0  0  0  0  0  0
   -6.1224    2.0268    0.1325 H   0  0  0  0  0  0  0  0  0  0  0  0
   -9.8167    7.3146    3.4747 H   0  0  0  0  0  0  0  0  0  0  0  0
  -10.3493    5.6286    3.6247 H   0  0  0  0  0  0  0  0  0  0  0  0
   -8.9004    6.1871    4.4898 H   0  0  0  0  0  0  0  0  0  0  0  0
   -9.5328    2.4984    3.1566 H   0  0  0  0  0  0  0  0  0  0  0  0
   -9.0703    1.3228    4.3752 H   0  0  0  0  0  0  0  0  0  0  0  0
   -8.3648    2.9329    4.4342 H   0  0  0  0  0  0  0  0  0  0  0  0
   -7.5705   -0.0083    3.8352 H   0  0  0  0  0  0  0  0  0  0  0  0
   -4.6742    2.3773    3.5881 H   0  0  0  0  0  0  0  0  0  0  0  0
   -4.1161    3.1477   -0.5125 H   0  0  0  0  0  0  0  0  0  0  0  0
   -6.9371   -1.9472    3.3766 H   0  0  0  0  0  0  0  0  0  0  0  0
   -6.3547   -2.2128    1.7407 H   0  0  0  0  0  0  0  0  0  0  0  0
   -5.2097   -1.8497    3.0593 H   0  0  0  0  0  0  0  0  0  0  0  0
   -2.0962    4.3474   -0.0094 H   0  0  0  0  0  0  0  0  0  0  0  0
   -3.6653   -2.4732   -0.8678 H   0  0  0  0  0  0  0  0  0  0  0  0
   -2.7607   -2.9504    0.5788 H   0  0  0  0  0  0  0  0  0  0  0  0
   -2.2957   -1.4838   -0.3051 H   0  0  0  0  0  0  0  0  0  0  0  0
   -1.4000    4.6796    2.2594 H   0  0  0  0  0  0  0  0  0  0  0  0
  1  2  1  0  0  0  0 
  1  3  2  0  0  0  0 
  1  4  1  0  0  0  0 
  2  5  1  0  0  0  0 
  6  4  1  0  0  0  0 
  4  7  2  0  0  0  0 
  5  8  1  0  0  0  0 
  6  9  1  0  0  0  0 
  6 10  1  0  0  0  0 
  7 11  1  0  0  0  0 
  7 12  1  0  0  0  0 
  9 13  1  0  0  0  0 
  9 14  2  0  0  0  0 
 10 15  2  0  0  0  0 
 10 16  1  0  0  0  0 
 12 14  1  0  0  0  0 
 13 17  1  0  0  0  0 
 13 18  2  0  0  0  0 
 14 19  1  0  0  0  0 
 15 20  1  0  0  0  0 
 16 21  2  0  0  0  0 
 17 22  1  0  0  0  0 
 20 23  1  0  0  0  0 
 20 24  2  0  0  0  0 
 21 24  1  0  0  0  0 
 23 25  1  0  0  0  0 
 23 26  2  0  0  0  0 
 27  5  1  0  0  0  0 
 28  5  1  0  0  0  0 
  6 29  1  0  0  0  0 
 30  8  1  0  0  0  0 
 31  8  1  0  0  0  0 
 32  8  1  0  0  0  0 
 33 11  1  0  0  0  0 
 34 11  1  0  0  0  0 
 35 11  1  0  0  0  0 
 36 12  1  0  0  0  0 
 37 15  1  0  0  0  0 
 38 16  1  0  0  0  0 
 39 19  1  0  0  0  0 
 40 19  1  0  0  0  0 
 41 19  1  0  0  0  0 
 42 21  1  0  0  0  0 
 43 22  1  0  0  0  0 
 44 22  1  0  0  0  0 
 45 22  1  0  0  0  0 
 46 24  1  0  0  0  0 
M  CHG  1  23   1
M  CHG  1  25  -1
M  END
> <cdk:Title>
(S)-nitrendipine

> <Conformer>
1

> <SuperDrugID>
SD000003

$$$$
