nifuroxime
  CDK     0628171801

 15 15  0  0  0  0  0  0  0  0999 V2000
    1.3545    0.1526    0.2312 N   0  0  0  0  0  0  0  0  0  0  0  0
    0.4269    0.7127   -0.6269 C   0  0  2  0  0  0  0  0  0  0  0  0
   -0.4460   -0.3425   -1.1560 C   0  0  0  0  0  0  0  0  0  0  0  0
   -1.6393   -0.7788   -0.5894 C   0  0  0  0  0  0  0  0  0  0  0  0
   -2.1318   -1.7750   -1.4137 C   0  0  0  0  0  0  0  0  0  0  0  0
   -1.2310   -1.9315   -2.4670 C   0  0  0  0  0  0  0  0  0  0  0  0
   -0.2123   -1.0500   -2.2892 O   0  0  0  0  0  0  0  0  0  0  0  0
   -1.3359   -2.7854   -3.4736 N   0  0  0  0  0  0  0  0  0  0  0  0
   -2.3171   -3.5854   -3.5818 O   0  0  0  0  0  0  0  0  0  0  0  0
   -0.5204   -2.8328   -4.3056 O   0  0  0  0  0  0  0  0  0  0  0  0
    2.1554    0.7935    0.7878 O   0  0  0  0  0  0  0  0  0  0  0  0
    0.9339    1.2060   -1.4589 H   0  0  0  0  0  0  0  0  0  0  0  0
   -0.1778    1.4535   -0.0964 H   0  0  0  0  0  0  0  0  0  0  0  0
   -2.0751   -0.4332    0.2689 H   0  0  0  0  0  0  0  0  0  0  0  0
   -2.9991   -2.2950   -1.2684 H   0  0  0  0  0  0  0  0  0  0  0  0
  1  2  1  0  0  0  0 
  2  3  1  0  0  0  0 
  3  4  2  0  0  0  0 
  4  5  1  0  0  0  0 
  5  6  2  0  0  0  0 
  6  7  1  0  0  0  0 
  3  7  1  0  0  0  0 
  6  8  1  0  0  0  0 
  8  9  1  0  0  0  0 
  8 10  2  0  0  0  0 
  1 11  2  0  0  0  0 
 12  2  1  0  0  0  0 
 13  2  1  0  0  0  0 
 14  4  1  0  0  0  0 
 15  5  1  0  0  0  0 
M  CHG  1   8   1
M  CHG  1   9  -1
M  END
> <cdk:Title>
nifuroxime

> <Conformer>
1

> <SuperDrugID>
SD002911

$$$$
