aclarubicin
  CDK     0628171802

111117  0  0  0  0  0  0  0  0999 V2000
   -0.0538    0.5048    1.1671 C   0  0  0  0  0  0  0  0  0  0  0  0
    0.4895    0.2629   -0.0648 O   0  0  0  0  0  0  0  0  0  0  0  0
    0.6485    0.9879    2.0877 O   0  0  0  0  0  0  0  0  0  0  0  0
   -1.4959    0.2138    1.4224 C   0  0  2  0  0  0  0  0  0  0  0  0
    1.8423    0.5113   -0.4519 C   0  0  0  0  0  0  0  0  0  0  0  0
   -2.0336   -1.0235    0.7471 C   0  0  0  0  0  0  0  0  0  0  0  0
   -2.3693    1.4972    1.1607 C   0  0  2  0  0  0  0  0  0  0  0  0
   -3.3763   -1.1043    0.2804 C   0  0  0  0  0  0  0  0  0  0  0  0
   -1.2053   -2.1592    0.5957 C   0  0  0  0  0  0  0  0  0  0  0  0
   -2.1822    2.1268   -0.2695 C   0  0  2  0  0  0  0  0  0  0  0  0
   -2.0104    2.4972    2.1215 O   0  0  0  0  0  0  0  0  0  0  0  0
   -3.8434    1.1095    1.4839 C   0  0  1  0  0  0  0  0  0  0  0  0
   -4.3953   -0.0476    0.6011 C   0  0  2  0  0  0  0  0  0  0  0  0
   -3.7651   -2.2196   -0.5082 C   0  0  0  0  0  0  0  0  0  0  0  0
   -1.6075   -3.3050   -0.1271 C   0  0  0  0  0  0  0  0  0  0  0  0
   -3.0052    3.4111   -0.5348 C   0  0  0  0  0  0  0  0  0  0  0  0
   -5.5281   -0.7053    1.2439 O   0  0  0  0  0  0  0  0  0  0  0  0
   -4.9973   -2.1814   -1.0877 O   0  0  0  0  0  0  0  0  0  0  0  0
   -2.9025   -3.3343   -0.7095 C   0  0  0  0  0  0  0  0  0  0  0  0
   -0.7154   -4.4112   -0.2961 C   0  0  0  0  0  0  0  0  0  0  0  0
   -6.7591    0.0544    1.3826 C   0  0  1  0  0  0  0  0  0  0  0  0
   -3.2889   -4.4999   -1.4562 C   0  0  0  0  0  0  0  0  0  0  0  0
    0.4214   -4.3847    0.2383 O   0  0  0  0  0  0  0  0  0  0  0  0
   -1.0929   -5.5431   -1.0787 C   0  0  0  0  0  0  0  0  0  0  0  0
   -7.9961   -0.8663    1.6174 C   0  0  1  0  0  0  0  0  0  0  0  0
   -6.6507    1.0469    2.4287 O   0  0  0  0  0  0  0  0  0  0  0  0
   -4.4593   -4.5904   -1.8944 O   0  0  0  0  0  0  0  0  0  0  0  0
   -2.3840   -5.5880   -1.6837 C   0  0  0  0  0  0  0  0  0  0  0  0
   -0.2022   -6.6329   -1.2580 C   0  0  0  0  0  0  0  0  0  0  0  0
   -8.1839   -1.3673    3.0901 C   0  0  2  0  0  0  0  0  0  0  0  0
   -6.5978    0.4869    3.7576 C   0  0  2  0  0  0  0  0  0  0  0  0
   -2.7321   -6.7194   -2.4774 C   0  0  0  0  0  0  0  0  0  0  0  0
   -0.5716   -7.7458   -2.0285 C   0  0  0  0  0  0  0  0  0  0  0  0
   -9.5359   -2.0907    3.2923 N   0  0  1  0  0  0  0  0  0  0  0  0
   -7.9932   -0.1583    4.0743 C   0  0  1  0  0  0  0  0  0  0  0  0
   -6.0160    1.5140    4.7665 C   0  0  0  0  0  0  0  0  0  0  0  0
   -3.9216   -6.8480   -3.1218 O   0  0  0  0  0  0  0  0  0  0  0  0
   -1.8331   -7.7877   -2.6361 C   0  0  0  0  0  0  0  0  0  0  0  0
  -10.2339   -2.8783    2.1817 C   0  0  0  0  0  0  0  0  0  0  0  0
   -9.6002   -2.8629    4.5745 C   0  0  0  0  0  0  0  0  0  0  0  0
   -9.1934    0.6596    3.9338 O   0  0  0  0  0  0  0  0  0  0  0  0
   -9.2713    1.9203    4.6325 C   0  0  1  0  0  0  0  0  0  0  0  0
  -10.6689    2.5995    4.4928 C   0  0  1  0  0  0  0  0  0  0  0  0
   -8.8303    1.8179    6.0102 O   0  0  0  0  0  0  0  0  0  0  0  0
  -11.6801    2.1503    5.5791 C   0  0  2  0  0  0  0  0  0  0  0  0
   -9.7806    1.2282    6.9263 C   0  0  2  0  0  0  0  0  0  0  0  0
  -12.8649    2.9439    5.5370 O   0  0  0  0  0  0  0  0  0  0  0  0
  -11.0243    2.1612    6.9926 C   0  0  1  0  0  0  0  0  0  0  0  0
   -9.1143    1.0246    8.3097 C   0  0  0  0  0  0  0  0  0  0  0  0
  -10.5133    3.4495    7.4147 O   0  0  0  0  0  0  0  0  0  0  0  0
  -11.4232    4.4727    7.8674 C   0  0  2  0  0  0  0  0  0  0  0  0
  -11.6297    5.4633    6.8315 O   0  0  0  0  0  0  0  0  0  0  0  0
  -10.8365    5.1512    9.1380 C   0  0  2  0  0  0  0  0  0  0  0  0
  -10.4630    6.2340    6.4447 C   0  0  1  0  0  0  0  0  0  0  0  0
   -9.5723    5.9850    8.8025 C   0  0  1  0  0  0  0  0  0  0  0  0
  -10.9128    7.2350    5.3544 C   0  0  0  0  0  0  0  0  0  0  0  0
   -9.8480    6.8626    7.6458 C   0  0  0  0  0  0  0  0  0  0  0  0
   -9.6149    8.0925    7.7217 O   0  0  0  0  0  0  0  0  0  0  0  0
   -6.9462    0.5888    0.4466 H   0  0  0  0  0  0  0  0  0  0  0  0
   -8.5925    2.5910    4.1089 H   0  0  0  0  0  0  0  0  0  0  0  0
  -12.3980    4.0531    8.1335 H   0  0  0  0  0  0  0  0  0  0  0  0
   -1.5719   -0.0160    2.4921 H   0  0  0  0  0  0  0  0  0  0  0  0
    2.0508    1.5820   -0.4097 H   0  0  0  0  0  0  0  0  0  0  0  0
    1.9884    0.1522   -1.4716 H   0  0  0  0  0  0  0  0  0  0  0  0
    2.5277   -0.0221    0.2075 H   0  0  0  0  0  0  0  0  0  0  0  0
   -0.2757   -2.1426    1.0209 H   0  0  0  0  0  0  0  0  0  0  0  0
   -2.4215    1.3930   -1.0419 H   0  0  0  0  0  0  0  0  0  0  0  0
   -1.1329    2.4037   -0.4049 H   0  0  0  0  0  0  0  0  0  0  0  0
   -1.0862    2.7392    1.9090 H   0  0  0  0  0  0  0  0  0  0  0  0
   -3.8877    0.7927    2.5267 H   0  0  0  0  0  0  0  0  0  0  0  0
   -4.4902    1.9849    1.3958 H   0  0  0  0  0  0  0  0  0  0  0  0
   -4.7139    0.3801   -0.3532 H   0  0  0  0  0  0  0  0  0  0  0  0
   -2.7222    3.8428   -1.4966 H   0  0  0  0  0  0  0  0  0  0  0  0
   -2.8200    4.1525    0.2460 H   0  0  0  0  0  0  0  0  0  0  0  0
   -4.0691    3.1814   -0.5679 H   0  0  0  0  0  0  0  0  0  0  0  0
   -4.8407   -2.4166   -2.0248 H   0  0  0  0  0  0  0  0  0  0  0  0
   -8.8893   -0.3010    1.3371 H   0  0  0  0  0  0  0  0  0  0  0  0
   -7.9188   -1.7230    0.9399 H   0  0  0  0  0  0  0  0  0  0  0  0
    0.7308   -6.6312   -0.8335 H   0  0  0  0  0  0  0  0  0  0  0  0
   -7.3885   -2.0988    3.2718 H   0  0  0  0  0  0  0  0  0  0  0  0
   -5.8505   -0.3190    3.7858 H   0  0  0  0  0  0  0  0  0  0  0  0
    0.0802   -8.5257   -2.1488 H   0  0  0  0  0  0  0  0  0  0  0  0
   -7.9449   -0.5364    5.0969 H   0  0  0  0  0  0  0  0  0  0  0  0
   -4.9480    1.6462    4.5824 H   0  0  0  0  0  0  0  0  0  0  0  0
   -6.1309    1.1570    5.7917 H   0  0  0  0  0  0  0  0  0  0  0  0
   -6.4726    2.4969    4.6794 H   0  0  0  0  0  0  0  0  0  0  0  0
   -4.0839   -5.9810   -3.5468 H   0  0  0  0  0  0  0  0  0  0  0  0
   -2.0904   -8.5989   -3.2057 H   0  0  0  0  0  0  0  0  0  0  0  0
  -10.3791   -2.2498    1.3033 H   0  0  0  0  0  0  0  0  0  0  0  0
  -11.2272   -3.2135    2.4923 H   0  0  0  0  0  0  0  0  0  0  0  0
   -9.6377   -3.7492    1.8990 H   0  0  0  0  0  0  0  0  0  0  0  0
   -9.4002   -2.2271    5.4336 H   0  0  0  0  0  0  0  0  0  0  0  0
  -10.5931   -3.2852    4.7401 H   0  0  0  0  0  0  0  0  0  0  0  0
   -8.8763   -3.6812    4.5654 H   0  0  0  0  0  0  0  0  0  0  0  0
  -10.5386    3.6820    4.5801 H   0  0  0  0  0  0  0  0  0  0  0  0
  -11.0850    2.4011    3.5015 H   0  0  0  0  0  0  0  0  0  0  0  0
  -11.9997    1.1292    5.3506 H   0  0  0  0  0  0  0  0  0  0  0  0
  -10.0756    0.2326    6.5759 H   0  0  0  0  0  0  0  0  0  0  0  0
  -12.5687    3.8661    5.6677 H   0  0  0  0  0  0  0  0  0  0  0  0
  -11.7300    1.7657    7.7291 H   0  0  0  0  0  0  0  0  0  0  0  0
   -8.2807    0.3252    8.2219 H   0  0  0  0  0  0  0  0  0  0  0  0
   -9.8378    0.6183    9.0192 H   0  0  0  0  0  0  0  0  0  0  0  0
   -8.7376    1.9676    8.7073 H   0  0  0  0  0  0  0  0  0  0  0  0
  -10.5898    4.3917    9.8847 H   0  0  0  0  0  0  0  0  0  0  0  0
  -11.5945    5.8127    9.5683 H   0  0  0  0  0  0  0  0  0  0  0  0
   -9.7168    5.5722    5.9936 H   0  0  0  0  0  0  0  0  0  0  0  0
   -9.2732    6.5697    9.6766 H   0  0  0  0  0  0  0  0  0  0  0  0
   -8.7473    5.3147    8.5476 H   0  0  0  0  0  0  0  0  0  0  0  0
  -10.0706    7.8427    5.0169 H   0  0  0  0  0  0  0  0  0  0  0  0
  -11.6939    7.8928    5.7422 H   0  0  0  0  0  0  0  0  0  0  0  0
  -11.3113    6.6913    4.4960 H   0  0  0  0  0  0  0  0  0  0  0  0
  1  2  1  0  0  0  0 
  1  3  2  0  0  0  0 
  2  5  1  0  0  0  0 
  4  1  1  0  0  0  0 
  4  6  1  0  0  0  0 
  7  4  1  0  0  0  0 
  6  8  2  0  0  0  0 
  6  9  1  0  0  0  0 
  7 10  1  0  0  0  0 
  7 11  1  0  0  0  0 
  7 12  1  0  0  0  0 
 13  8  1  0  0  0  0 
  8 14  1  0  0  0  0 
  9 15  2  0  0  0  0 
 10 16  1  0  0  0  0 
 13 12  1  0  0  0  0 
 13 17  1  0  0  0  0 
 14 18  1  0  0  0  0 
 14 19  2  0  0  0  0 
 15 19  1  0  0  0  0 
 15 20  1  0  0  0  0 
 21 17  1  0  0  0  0 
 19 22  1  0  0  0  0 
 20 23  2  0  0  0  0 
 20 24  1  0  0  0  0 
 21 25  1  0  0  0  0 
 21 26  1  0  0  0  0 
 21 59  1  0  0  0  0 
 22 27  2  0  0  0  0 
 22 28  1  0  0  0  0 
 24 28  2  0  0  0  0 
 24 29  1  0  0  0  0 
 30 25  1  0  0  0  0 
 31 26  1  0  0  0  0 
 28 32  1  0  0  0  0 
 29 33  2  0  0  0  0 
 30 34  1  0  0  0  0 
 30 35  1  0  0  0  0 
 35 31  1  0  0  0  0 
 31 36  1  0  0  0  0 
 32 37  1  0  0  0  0 
 32 38  2  0  0  0  0 
 33 38  1  0  0  0  0 
 34 39  1  0  0  0  0 
 34 40  1  0  0  0  0 
 35 41  1  0  0  0  0 
 42 41  1  0  0  0  0 
 42 43  1  0  0  0  0 
 42 44  1  0  0  0  0 
 42 60  1  0  0  0  0 
 45 43  1  0  0  0  0 
 46 44  1  0  0  0  0 
 45 47  1  0  0  0  0 
 48 45  1  0  0  0  0 
 48 46  1  0  0  0  0 
 46 49  1  0  0  0  0 
 48 50  1  0  0  0  0 
 51 50  1  0  0  0  0 
 51 52  1  0  0  0  0 
 51 53  1  0  0  0  0 
 51 61  1  0  0  0  0 
 54 52  1  0  0  0  0 
 53 55  1  0  0  0  0 
 54 56  1  0  0  0  0 
 54 57  1  0  0  0  0 
 55 57  1  0  0  0  0 
 57 58  2  0  0  0  0 
  4 62  1  0  0  0  0 
  5 63  1  0  0  0  0 
  5 64  1  0  0  0  0 
  5 65  1  0  0  0  0 
  9 66  1  0  0  0  0 
 10 67  1  0  0  0  0 
 10 68  1  0  0  0  0 
 11 69  1  0  0  0  0 
 12 70  1  0  0  0  0 
 12 71  1  0  0  0  0 
 13 72  1  0  0  0  0 
 16 73  1  0  0  0  0 
 16 74  1  0  0  0  0 
 16 75  1  0  0  0  0 
 18 76  1  0  0  0  0 
 25 77  1  0  0  0  0 
 25 78  1  0  0  0  0 
 29 79  1  0  0  0  0 
 30 80  1  0  0  0  0 
 31 81  1  0  0  0  0 
 33 82  1  0  0  0  0 
 35 83  1  0  0  0  0 
 36 84  1  0  0  0  0 
 36 85  1  0  0  0  0 
 36 86  1  0  0  0  0 
 37 87  1  0  0  0  0 
 38 88  1  0  0  0  0 
 39 89  1  0  0  0  0 
 39 90  1  0  0  0  0 
 39 91  1  0  0  0  0 
 40 92  1  0  0  0  0 
 40 93  1  0  0  0  0 
 40 94  1  0  0  0  0 
 43 95  1  0  0  0  0 
 43 96  1  0  0  0  0 
 45 97  1  0  0  0  0 
 46 98  1  0  0  0  0 
 47 99  1  0  0  0  0 
 48100  1  0  0  0  0 
 49101  1  0  0  0  0 
 49102  1  0  0  0  0 
 49103  1  0  0  0  0 
 53104  1  0  0  0  0 
 53105  1  0  0  0  0 
 54106  1  0  0  0  0 
 55107  1  0  0  0  0 
 55108  1  0  0  0  0 
 56109  1  0  0  0  0 
 56110  1  0  0  0  0 
 56111  1  0  0  0  0 
M  END
> <cdk:Title>
aclarubicin

> <Conformer>
1

> <SuperDrugID>
SD000055

$$$$
