methopromazine
  CDK     0628171801

 44 46  0  0  0  0  0  0  0  0999 V2000
    0.8631   -0.0963   -0.3385 C   0  0  0  0  0  0  0  0  0  0  0  0
   -0.4820    0.1929    0.0832 O   0  0  0  0  0  0  0  0  0  0  0  0
   -0.5253    0.7047    1.3514 C   0  0  0  0  0  0  0  0  0  0  0  0
   -0.6961   -0.1527    2.4576 C   0  0  0  0  0  0  0  0  0  0  0  0
   -0.7134    0.3445    3.7845 C   0  0  0  0  0  0  0  0  0  0  0  0
   -0.5912    1.7482    3.9561 C   0  0  0  0  0  0  0  0  0  0  0  0
   -0.6949    2.4082    5.5825 S   0  0  0  0  0  0  0  0  0  0  0  0
   -1.7166    1.2274    6.3914 C   0  0  0  0  0  0  0  0  0  0  0  0
   -2.5581    1.6405    7.4432 C   0  0  0  0  0  0  0  0  0  0  0  0
   -3.4131    0.7122    8.0568 C   0  0  0  0  0  0  0  0  0  0  0  0
   -3.4181   -0.6247    7.6283 C   0  0  0  0  0  0  0  0  0  0  0  0
   -2.5725   -1.0326    6.5796 C   0  0  0  0  0  0  0  0  0  0  0  0
   -1.7030   -0.1169    5.9328 C   0  0  0  0  0  0  0  0  0  0  0  0
   -0.8679   -0.5017    4.8837 N   0  0  0  0  0  0  0  0  0  0  0  0
   -0.1334   -1.7613    4.9527 C   0  0  2  0  0  0  0  0  0  0  0  0
    0.7660   -1.9285    6.2110 C   0  0  2  0  0  0  0  0  0  0  0  0
    1.8120   -0.7999    6.4269 C   0  0  2  0  0  0  0  0  0  0  0  0
    2.5726   -0.4107    5.1932 N   0  0  1  0  0  0  0  0  0  0  0  0
    3.2024    0.9376    5.3076 C   0  0  0  0  0  0  0  0  0  0  0  0
    3.5409   -1.4426    4.7211 C   0  0  0  0  0  0  0  0  0  0  0  0
   -0.4404    2.6157    2.8567 C   0  0  0  0  0  0  0  0  0  0  0  0
   -0.4173    2.0938    1.5539 C   0  0  0  0  0  0  0  0  0  0  0  0
    1.3350   -0.8350    0.3156 H   0  0  0  0  0  0  0  0  0  0  0  0
    0.8253   -0.5121   -1.3446 H   0  0  0  0  0  0  0  0  0  0  0  0
    1.4715    0.8118   -0.3696 H   0  0  0  0  0  0  0  0  0  0  0  0
   -0.8161   -1.1539    2.2865 H   0  0  0  0  0  0  0  0  0  0  0  0
   -2.5641    2.6155    7.7526 H   0  0  0  0  0  0  0  0  0  0  0  0
   -4.0372    1.0111    8.8101 H   0  0  0  0  0  0  0  0  0  0  0  0
   -4.0430   -1.3008    8.0733 H   0  0  0  0  0  0  0  0  0  0  0  0
   -2.6118   -2.0088    6.2874 H   0  0  0  0  0  0  0  0  0  0  0  0
    0.5221   -1.8969    4.0900 H   0  0  0  0  0  0  0  0  0  0  0  0
   -0.8379   -2.5941    4.9128 H   0  0  0  0  0  0  0  0  0  0  0  0
    1.2924   -2.8826    6.1308 H   0  0  0  0  0  0  0  0  0  0  0  0
    0.1339   -1.9957    7.1012 H   0  0  0  0  0  0  0  0  0  0  0  0
    2.5075   -1.1079    7.2151 H   0  0  0  0  0  0  0  0  0  0  0  0
    1.2622    0.0641    6.8113 H   0  0  0  0  0  0  0  0  0  0  0  0
    3.9443    0.9608    6.1102 H   0  0  0  0  0  0  0  0  0  0  0  0
    2.4431    1.6950    5.5135 H   0  0  0  0  0  0  0  0  0  0  0  0
    3.6887    1.2168    4.3701 H   0  0  0  0  0  0  0  0  0  0  0  0
    4.3104   -1.6329    5.4710 H   0  0  0  0  0  0  0  0  0  0  0  0
    4.0233   -1.1223    3.7964 H   0  0  0  0  0  0  0  0  0  0  0  0
    3.0319   -2.3790    4.5015 H   0  0  0  0  0  0  0  0  0  0  0  0
   -0.3628    3.6255    2.9976 H   0  0  0  0  0  0  0  0  0  0  0  0
   -0.3246    2.7248    0.7543 H   0  0  0  0  0  0  0  0  0  0  0  0
  1  2  1  0  0  0  0 
  2  3  1  0  0  0  0 
  3  4  2  0  0  0  0 
  4  5  1  0  0  0  0 
  5  6  2  0  0  0  0 
  6  7  1  0  0  0  0 
  7  8  1  0  0  0  0 
  8  9  2  0  0  0  0 
  9 10  1  0  0  0  0 
 10 11  2  0  0  0  0 
 11 12  1  0  0  0  0 
 12 13  2  0  0  0  0 
  8 13  1  0  0  0  0 
 13 14  1  0  0  0  0 
  5 14  1  0  0  0  0 
 14 15  1  0  0  0  0 
 15 16  1  0  0  0  0 
 16 17  1  0  0  0  0 
 17 18  1  0  0  0  0 
 18 19  1  0  0  0  0 
 18 20  1  0  0  0  0 
  6 21  1  0  0  0  0 
 21 22  2  0  0  0  0 
  3 22  1  0  0  0  0 
  1 23  1  0  0  0  0 
  1 24  1  0  0  0  0 
  1 25  1  0  0  0  0 
  4 26  1  0  0  0  0 
  9 27  1  0  0  0  0 
 10 28  1  0  0  0  0 
 11 29  1  0  0  0  0 
 12 30  1  0  0  0  0 
 15 31  1  0  0  0  0 
 15 32  1  0  0  0  0 
 16 33  1  0  0  0  0 
 16 34  1  0  0  0  0 
 17 35  1  0  0  0  0 
 17 36  1  0  0  0  0 
 19 37  1  0  0  0  0 
 19 38  1  0  0  0  0 
 19 39  1  0  0  0  0 
 20 40  1  0  0  0  0 
 20 41  1  0  0  0  0 
 20 42  1  0  0  0  0 
 21 43  1  0  0  0  0 
 22 44  1  0  0  0  0 
M  END
> <cdk:Title>
methopromazine

> <Conformer>
1

> <SuperDrugID>
SD001556

$$$$
