clorotepine
  CDK     0628171801

 44 47  0  0  0  0  0  0  0  0999 V2000
    0.3483    3.3026    1.4787 C   0  0  0  0  0  0  0  0  0  0  0  0
    0.1190    2.2242    0.4791 N   0  0  1  0  0  0  0  0  0  0  0  0
    0.7577    2.4846   -0.8416 C   0  0  1  0  0  0  0  0  0  0  0  0
    0.2658    1.4341   -1.8674 C   0  0  1  0  0  0  0  0  0  0  0  0
    0.5171    0.0214   -1.4151 N   0  0  1  0  0  0  0  0  0  0  0  0
   -0.0142   -0.2097   -0.0268 C   0  0  2  0  0  0  0  0  0  0  0  0
    0.4531    0.8642    0.9853 C   0  0  1  0  0  0  0  0  0  0  0  0
    0.0654   -1.0225   -2.4174 C   0  0  2  0  0  0  0  0  0  0  0  0
    0.3309   -2.5083   -2.0028 C   0  0  2  0  0  0  0  0  0  0  0  0
    1.6638   -2.8990   -1.4380 C   0  0  0  0  0  0  0  0  0  0  0  0
    1.6648   -3.9931   -0.5311 C   0  0  0  0  0  0  0  0  0  0  0  0
    2.8465   -4.4666    0.0621 C   0  0  0  0  0  0  0  0  0  0  0  0
    4.0697   -3.8669   -0.2567 C   0  0  0  0  0  0  0  0  0  0  0  0
    4.1031   -2.7948   -1.1607 C   0  0  0  0  0  0  0  0  0  0  0  0
    2.9186   -2.2923   -1.7488 C   0  0  0  0  0  0  0  0  0  0  0  0
    3.1989   -0.8984   -2.7885 S   0  0  0  0  0  0  0  0  0  0  0  0
    2.0002   -0.8482   -4.0653 C   0  0  0  0  0  0  0  0  0  0  0  0
    0.6060   -0.8404   -3.8059 C   0  0  0  0  0  0  0  0  0  0  0  0
   -0.2822   -0.6906   -4.9031 C   0  0  0  0  0  0  0  0  0  0  0  0
    0.1991   -0.5581   -6.2192 C   0  0  0  0  0  0  0  0  0  0  0  0
   -0.8853   -0.3622   -7.5049 Cl  0  0  0  0  0  0  0  0  0  0  0  0
    1.5823   -0.5925   -6.4591 C   0  0  0  0  0  0  0  0  0  0  0  0
    2.4772   -0.7456   -5.3885 C   0  0  0  0  0  0  0  0  0  0  0  0
   -0.0128    4.2563    1.0894 H   0  0  0  0  0  0  0  0  0  0  0  0
   -0.2083    3.0938    2.3950 H   0  0  0  0  0  0  0  0  0  0  0  0
    1.4086    3.3962    1.7229 H   0  0  0  0  0  0  0  0  0  0  0  0
    0.4841    3.4782   -1.2083 H   0  0  0  0  0  0  0  0  0  0  0  0
    1.8487    2.4407   -0.7594 H   0  0  0  0  0  0  0  0  0  0  0  0
   -0.8039    1.5910   -2.0393 H   0  0  0  0  0  0  0  0  0  0  0  0
    0.7905    1.6350   -2.8037 H   0  0  0  0  0  0  0  0  0  0  0  0
    0.3341   -1.1688    0.3604 H   0  0  0  0  0  0  0  0  0  0  0  0
   -1.1092   -0.2286   -0.0363 H   0  0  0  0  0  0  0  0  0  0  0  0
    1.5310    0.7685    1.1533 H   0  0  0  0  0  0  0  0  0  0  0  0
   -0.0586    0.6816    1.9342 H   0  0  0  0  0  0  0  0  0  0  0  0
   -1.0271   -0.9287   -2.4663 H   0  0  0  0  0  0  0  0  0  0  0  0
    0.1337   -3.1735   -2.8491 H   0  0  0  0  0  0  0  0  0  0  0  0
   -0.4476   -2.7518   -1.2723 H   0  0  0  0  0  0  0  0  0  0  0  0
    0.7949   -4.4691   -0.2825 H   0  0  0  0  0  0  0  0  0  0  0  0
    2.8136   -5.2473    0.7215 H   0  0  0  0  0  0  0  0  0  0  0  0
    4.9353   -4.2096    0.1682 H   0  0  0  0  0  0  0  0  0  0  0  0
    5.0155   -2.3841   -1.3789 H   0  0  0  0  0  0  0  0  0  0  0  0
   -1.2946   -0.6812   -4.7516 H   0  0  0  0  0  0  0  0  0  0  0  0
    1.9428   -0.4991   -7.4106 H   0  0  0  0  0  0  0  0  0  0  0  0
    3.4815   -0.7725   -5.5843 H   0  0  0  0  0  0  0  0  0  0  0  0
  1  2  1  0  0  0  0 
  2  3  1  0  0  0  0 
  3  4  1  0  0  0  0 
  4  5  1  0  0  0  0 
  5  6  1  0  0  0  0 
  6  7  1  0  0  0  0 
  2  7  1  0  0  0  0 
  8  5  1  0  0  0  0 
  8  9  1  0  0  0  0 
  9 10  1  0  0  0  0 
 10 11  2  0  0  0  0 
 11 12  1  0  0  0  0 
 12 13  2  0  0  0  0 
 13 14  1  0  0  0  0 
 14 15  2  0  0  0  0 
 10 15  1  0  0  0  0 
 15 16  1  0  0  0  0 
 16 17  1  0  0  0  0 
 17 18  2  0  0  0  0 
  8 18  1  0  0  0  0 
 18 19  1  0  0  0  0 
 19 20  2  0  0  0  0 
 20 21  1  0  0  0  0 
 20 22  1  0  0  0  0 
 22 23  2  0  0  0  0 
 17 23  1  0  0  0  0 
  1 24  1  0  0  0  0 
  1 25  1  0  0  0  0 
  1 26  1  0  0  0  0 
  3 27  1  0  0  0  0 
  3 28  1  0  0  0  0 
  4 29  1  0  0  0  0 
  4 30  1  0  0  0  0 
  6 31  1  0  0  0  0 
  6 32  1  0  0  0  0 
  7 33  1  0  0  0  0 
  7 34  1  0  0  0  0 
  8 35  1  0  0  0  0 
  9 36  1  0  0  0  0 
  9 37  1  0  0  0  0 
 11 38  1  0  0  0  0 
 12 39  1  0  0  0  0 
 13 40  1  0  0  0  0 
 14 41  1  0  0  0  0 
 19 42  1  0  0  0  0 
 22 43  1  0  0  0  0 
 23 44  1  0  0  0  0 
M  END
> <cdk:Title>
clorotepine

> <Conformer>
1

> <SuperDrugID>
SD003298

$$$$
