maxacalcitol
  CDK     0628171801

 72 74  0  0  0  0  0  0  0  0999 V2000
   -3.9020   -0.3568    2.3567 C   0  0  0  0  0  0  0  0  0  0  0  0
   -3.7457   -0.8617    0.8714 C   0  0  2  0  0  0  0  0  0  0  0  0
   -3.7435   -2.4287    0.7609 C   0  0  2  0  0  0  0  0  0  0  0  0
   -2.3197   -0.5061    0.2919 C   0  0  1  0  0  0  0  0  0  0  0  0
   -4.9606   -0.3800    0.0025 C   0  0  1  0  0  0  0  0  0  0  0  0
   -4.9807   -3.0625    1.2750 C   0  0  0  0  0  0  0  0  0  0  0  0
   -2.3438   -2.8186    1.2892 C   0  0  1  0  0  0  0  0  0  0  0  0
   -1.6935    0.9217    0.5463 C   0  0  1  0  0  0  0  0  0  0  0  0
   -1.4275   -1.6614    0.8453 C   0  0  1  0  0  0  0  0  0  0  0  0
   -6.3536   -1.0323    0.5177 C   0  0  1  0  0  0  0  0  0  0  0  0
   -4.9415   -4.0213    2.2313 C   0  0  0  0  0  0  0  0  0  0  0  0
   -6.2149   -2.5819    0.6204 C   0  0  2  0  0  0  0  0  0  0  0  0
   -0.4092    1.1094   -0.1114 O   0  0  0  0  0  0  0  0  0  0  0  0
   -2.5557    2.0978    0.0227 C   0  0  0  0  0  0  0  0  0  0  0  0
   -5.9789   -4.6565    2.8559 C   0  0  0  0  0  0  0  0  0  0  0  0
    0.7833    0.6682    0.5727 C   0  0  2  0  0  0  0  0  0  0  0  0
   -5.9129   -5.2092    4.0918 C   0  0  0  0  0  0  0  0  0  0  0  0
    2.0223    1.4415    0.0572 C   0  0  1  0  0  0  0  0  0  0  0  0
   -4.7797   -5.1847    4.8781 C   0  0  0  0  0  0  0  0  0  0  0  0
   -7.0290   -5.9738    4.6675 C   0  0  2  0  0  0  0  0  0  0  0  0
    3.4060    0.8944    0.5507 C   0  0  2  0  0  0  0  0  0  0  0  0
   -4.3169   -4.0331    5.3999 C   0  0  0  0  0  0  0  0  0  0  0  0
   -4.1685   -6.4991    5.1288 C   0  0  1  0  0  0  0  0  0  0  0  0
   -6.5766   -7.4253    5.0204 C   0  0  2  0  0  0  0  0  0  0  0  0
    4.5286    1.9171    0.2141 C   0  0  0  0  0  0  0  0  0  0  0  0
    3.7695   -0.4877   -0.0707 C   0  0  0  0  0  0  0  0  0  0  0  0
    3.3817    0.7369    1.9730 O   0  0  0  0  0  0  0  0  0  0  0  0
   -2.9876   -6.4762    5.9341 O   0  0  0  0  0  0  0  0  0  0  0  0
   -5.2231   -7.4320    5.7962 C   0  0  1  0  0  0  0  0  0  0  0  0
   -6.4466   -8.1912    3.8227 O   0  0  0  0  0  0  0  0  0  0  0  0
   -3.7163   -2.7125   -0.3004 H   0  0  0  0  0  0  0  0  0  0  0  0
   -2.3594   -0.6275   -0.7973 H   0  0  0  0  0  0  0  0  0  0  0  0
   -4.7316   -0.8426    2.8692 H   0  0  0  0  0  0  0  0  0  0  0  0
   -4.0884    0.7160    2.3843 H   0  0  0  0  0  0  0  0  0  0  0  0
   -3.0062   -0.5504    2.9474 H   0  0  0  0  0  0  0  0  0  0  0  0
   -5.0682    0.7026    0.0306 H   0  0  0  0  0  0  0  0  0  0  0  0
   -4.8207   -0.6682   -1.0445 H   0  0  0  0  0  0  0  0  0  0  0  0
   -2.3286   -2.8855    2.3815 H   0  0  0  0  0  0  0  0  0  0  0  0
   -2.0104   -3.7736    0.8722 H   0  0  0  0  0  0  0  0  0  0  0  0
   -1.5866    1.0829    1.6221 H   0  0  0  0  0  0  0  0  0  0  0  0
   -0.7358   -2.0121    0.0745 H   0  0  0  0  0  0  0  0  0  0  0  0
   -0.8495   -1.3346    1.7152 H   0  0  0  0  0  0  0  0  0  0  0  0
   -6.7086   -0.6740    1.5219 H   0  0  0  0  0  0  0  0  0  0  0  0
   -7.2383   -0.8442   -0.1518 H   0  0  0  0  0  0  0  0  0  0  0  0
   -4.0462   -4.3261    2.5201 H   0  0  0  0  0  0  0  0  0  0  0  0
   -7.1242   -2.9531    1.0943 H   0  0  0  0  0  0  0  0  0  0  0  0
   -6.2148   -2.9854   -0.3959 H   0  0  0  0  0  0  0  0  0  0  0  0
   -1.9938    3.0322    0.0911 H   0  0  0  0  0  0  0  0  0  0  0  0
   -2.8409    1.9429   -1.0194 H   0  0  0  0  0  0  0  0  0  0  0  0
   -3.4506    2.2208    0.6283 H   0  0  0  0  0  0  0  0  0  0  0  0
   -6.8302   -4.7519    2.3613 H   0  0  0  0  0  0  0  0  0  0  0  0
    0.9298   -0.3888    0.3706 H   0  0  0  0  0  0  0  0  0  0  0  0
    0.7073    0.8238    1.6532 H   0  0  0  0  0  0  0  0  0  0  0  0
    2.0066    1.4469   -1.0356 H   0  0  0  0  0  0  0  0  0  0  0  0
    1.9110    2.4795    0.3839 H   0  0  0  0  0  0  0  0  0  0  0  0
   -7.8917   -6.0272    3.9956 H   0  0  0  0  0  0  0  0  0  0  0  0
   -7.3688   -5.4742    5.5808 H   0  0  0  0  0  0  0  0  0  0  0  0
   -3.5016   -4.0113    5.9670 H   0  0  0  0  0  0  0  0  0  0  0  0
   -4.7821   -3.1695    5.2313 H   0  0  0  0  0  0  0  0  0  0  0  0
   -3.8736   -6.9327    4.1673 H   0  0  0  0  0  0  0  0  0  0  0  0
   -7.3444   -7.9026    5.6344 H   0  0  0  0  0  0  0  0  0  0  0  0
    4.3357    2.8713    0.7066 H   0  0  0  0  0  0  0  0  0  0  0  0
    4.5800    2.0853   -0.8634 H   0  0  0  0  0  0  0  0  0  0  0  0
    5.4985    1.5495    0.5555 H   0  0  0  0  0  0  0  0  0  0  0  0
    3.0785   -1.2654    0.2568 H   0  0  0  0  0  0  0  0  0  0  0  0
    3.7433   -0.4362   -1.1606 H   0  0  0  0  0  0  0  0  0  0  0  0
    4.7733   -0.7948    0.2330 H   0  0  0  0  0  0  0  0  0  0  0  0
    3.1511    1.6228    2.3236 H   0  0  0  0  0  0  0  0  0  0  0  0
   -2.3363   -5.9660    5.4087 H   0  0  0  0  0  0  0  0  0  0  0  0
   -4.8334   -8.4526    5.8491 H   0  0  0  0  0  0  0  0  0  0  0  0
   -5.4011   -7.0911    6.8202 H   0  0  0  0  0  0  0  0  0  0  0  0
   -6.1420   -9.0749    4.1204 H   0  0  0  0  0  0  0  0  0  0  0  0
  2  1  1  0  0  0  0 
  2  3  1  0  0  0  0 
  4  2  1  0  0  0  0 
  2  5  1  0  0  0  0 
  3  6  1  0  0  0  0 
  3  7  1  0  0  0  0 
  3 31  1  0  0  0  0 
  8  4  1  0  0  0  0 
  4  9  1  0  0  0  0 
  4 32  1  0  0  0  0 
  5 10  1  0  0  0  0 
  6 11  2  0  0  0  0 
  6 12  1  0  0  0  0 
  7  9  1  0  0  0  0 
  8 13  1  0  0  0  0 
  8 14  1  0  0  0  0 
 10 12  1  0  0  0  0 
 11 15  1  0  0  0  0 
 13 16  1  0  0  0  0 
 15 17  2  0  0  0  0 
 16 18  1  0  0  0  0 
 17 19  1  0  0  0  0 
 17 20  1  0  0  0  0 
 18 21  1  0  0  0  0 
 19 22  2  0  0  0  0 
 23 19  1  0  0  0  0 
 24 20  1  0  0  0  0 
 21 25  1  0  0  0  0 
 21 26  1  0  0  0  0 
 21 27  1  0  0  0  0 
 23 28  1  0  0  0  0 
 23 29  1  0  0  0  0 
 24 29  1  0  0  0  0 
 24 30  1  0  0  0  0 
  1 33  1  0  0  0  0 
  1 34  1  0  0  0  0 
  1 35  1  0  0  0  0 
  5 36  1  0  0  0  0 
  5 37  1  0  0  0  0 
  7 38  1  0  0  0  0 
  7 39  1  0  0  0  0 
  8 40  1  0  0  0  0 
  9 41  1  0  0  0  0 
  9 42  1  0  0  0  0 
 10 43  1  0  0  0  0 
 10 44  1  0  0  0  0 
 11 45  1  0  0  0  0 
 12 46  1  0  0  0  0 
 12 47  1  0  0  0  0 
 14 48  1  0  0  0  0 
 14 49  1  0  0  0  0 
 14 50  1  0  0  0  0 
 15 51  1  0  0  0  0 
 16 52  1  0  0  0  0 
 16 53  1  0  0  0  0 
 18 54  1  0  0  0  0 
 18 55  1  0  0  0  0 
 20 56  1  0  0  0  0 
 20 57  1  0  0  0  0 
 22 58  1  0  0  0  0 
 22 59  1  0  0  0  0 
 23 60  1  0  0  0  0 
 24 61  1  0  0  0  0 
 25 62  1  0  0  0  0 
 25 63  1  0  0  0  0 
 25 64  1  0  0  0  0 
 26 65  1  0  0  0  0 
 26 66  1  0  0  0  0 
 26 67  1  0  0  0  0 
 27 68  1  0  0  0  0 
 28 69  1  0  0  0  0 
 29 70  1  0  0  0  0 
 29 71  1  0  0  0  0 
 30 72  1  0  0  0  0 
M  END
> <cdk:Title>
maxacalcitol

> <Conformer>
1

> <SuperDrugID>
SD001448

$$$$
