ibuproxam
  CDK     0628171801

 35 35  0  0  0  0  0  0  0  0999 V2000
   -7.5135    1.6695   11.6697 C   0  0  1  0  0  0  0  0  0  0  0  0
   -7.7519    1.9765   13.1041 C   0  0  0  0  0  0  0  0  0  0  0  0
   -5.9994    1.6929   11.3164 C   0  0  0  0  0  0  0  0  0  0  0  0
   -8.1970    0.3941   11.2777 C   0  0  0  0  0  0  0  0  0  0  0  0
   -8.5171    3.0384   13.4491 N   0  0  0  0  0  0  0  0  0  0  0  0
   -7.2530    1.2536   13.9997 O   0  0  0  0  0  0  0  0  0  0  0  0
   -9.3428    0.4227   10.4462 C   0  0  0  0  0  0  0  0  0  0  0  0
   -7.7421   -0.8687   11.7308 C   0  0  0  0  0  0  0  0  0  0  0  0
   -8.7553    3.3556   14.6901 O   0  0  0  0  0  0  0  0  0  0  0  0
  -10.0119   -0.7614   10.0867 C   0  0  0  0  0  0  0  0  0  0  0  0
   -8.4034   -2.0553   11.3626 C   0  0  0  0  0  0  0  0  0  0  0  0
   -9.5527   -2.0172   10.5415 C   0  0  0  0  0  0  0  0  0  0  0  0
  -10.2842   -3.2626   10.1642 C   0  0  2  0  0  0  0  0  0  0  0  0
  -10.2468   -3.5939    8.6373 C   0  0  1  0  0  0  0  0  0  0  0  0
   -8.8033   -3.8976    8.1472 C   0  0  0  0  0  0  0  0  0  0  0  0
  -11.1985   -4.7769    8.3001 C   0  0  0  0  0  0  0  0  0  0  0  0
   -7.9470    2.4901   11.0864 H   0  0  0  0  0  0  0  0  0  0  0  0
   -5.8558    1.4661   10.2584 H   0  0  0  0  0  0  0  0  0  0  0  0
   -5.4351    0.9671   11.9037 H   0  0  0  0  0  0  0  0  0  0  0  0
   -5.5855    2.6839   11.5113 H   0  0  0  0  0  0  0  0  0  0  0  0
   -8.9076    3.5836   12.7493 H   0  0  0  0  0  0  0  0  0  0  0  0
   -9.7102    1.3109   10.0973 H   0  0  0  0  0  0  0  0  0  0  0  0
   -6.9213   -0.9372   12.3357 H   0  0  0  0  0  0  0  0  0  0  0  0
   -8.0585    4.0051   14.9176 H   0  0  0  0  0  0  0  0  0  0  0  0
  -10.8436   -0.6998    9.4952 H   0  0  0  0  0  0  0  0  0  0  0  0
   -8.0395   -2.9494   11.7019 H   0  0  0  0  0  0  0  0  0  0  0  0
  -11.3249   -3.1400   10.4829 H   0  0  0  0  0  0  0  0  0  0  0  0
   -9.8904   -4.1232   10.7141 H   0  0  0  0  0  0  0  0  0  0  0  0
  -10.6138   -2.7280    8.0757 H   0  0  0  0  0  0  0  0  0  0  0  0
   -8.7975   -4.1087    7.0761 H   0  0  0  0  0  0  0  0  0  0  0  0
   -8.3941   -4.7602    8.6771 H   0  0  0  0  0  0  0  0  0  0  0  0
   -8.1496   -3.0399    8.3232 H   0  0  0  0  0  0  0  0  0  0  0  0
  -11.1968   -4.9750    7.2258 H   0  0  0  0  0  0  0  0  0  0  0  0
  -12.2231   -4.5382    8.5962 H   0  0  0  0  0  0  0  0  0  0  0  0
  -10.8868   -5.6831    8.8234 H   0  0  0  0  0  0  0  0  0  0  0  0
  1  2  1  0  0  0  0 
  1  3  1  0  0  0  0 
  1  4  1  0  0  0  0 
  2  5  1  0  0  0  0 
  2  6  2  0  0  0  0 
  4  7  2  0  0  0  0 
  4  8  1  0  0  0  0 
  5  9  1  0  0  0  0 
  7 10  1  0  0  0  0 
  8 11  2  0  0  0  0 
 10 12  2  0  0  0  0 
 11 12  1  0  0  0  0 
 12 13  1  0  0  0  0 
 13 14  1  0  0  0  0 
 14 15  1  0  0  0  0 
 14 16  1  0  0  0  0 
  1 17  1  0  0  0  0 
  3 18  1  0  0  0  0 
  3 19  1  0  0  0  0 
  3 20  1  0  0  0  0 
  5 21  1  0  0  0  0 
  7 22  1  0  0  0  0 
  8 23  1  0  0  0  0 
  9 24  1  0  0  0  0 
 10 25  1  0  0  0  0 
 11 26  1  0  0  0  0 
 13 27  1  0  0  0  0 
 13 28  1  0  0  0  0 
 14 29  1  0  0  0  0 
 15 30  1  0  0  0  0 
 15 31  1  0  0  0  0 
 15 32  1  0  0  0  0 
 16 33  1  0  0  0  0 
 16 34  1  0  0  0  0 
 16 35  1  0  0  0  0 
M  END
> <cdk:Title>
ibuproxam

> <Conformer>
1

> <SuperDrugID>
SD001253

$$$$
