bifluranol
  CDK     0628171801

 39 40  0  0  0  0  0  0  0  0999 V2000
    2.1829    0.7547   -3.8261 C   0  0  2  0  0  0  0  0  0  0  0  0
    3.6649    0.7354   -4.3717 C   0  0  2  0  0  0  0  0  0  0  0  0
    1.3020    1.8882   -4.4375 C   0  0  0  0  0  0  0  0  0  0  0  0
    2.1039    0.8332   -2.3251 C   0  0  0  0  0  0  0  0  0  0  0  0
    3.7528    0.4969   -5.9196 C   0  0  1  0  0  0  0  0  0  0  0  0
    4.5277   -0.2489   -3.6263 C   0  0  0  0  0  0  0  0  0  0  0  0
    1.4698   -0.1890   -1.5780 C   0  0  0  0  0  0  0  0  0  0  0  0
    2.6585    1.9293   -1.6162 C   0  0  0  0  0  0  0  0  0  0  0  0
    4.2723   -1.6423   -3.6730 C   0  0  0  0  0  0  0  0  0  0  0  0
    5.6344    0.2001   -2.8647 C   0  0  0  0  0  0  0  0  0  0  0  0
    1.4012   -0.1243   -0.1758 C   0  0  0  0  0  0  0  0  0  0  0  0
    2.5963    1.9936   -0.2108 C   0  0  0  0  0  0  0  0  0  0  0  0
    5.1068   -2.5532   -3.0003 C   0  0  0  0  0  0  0  0  0  0  0  0
    6.4695   -0.7074   -2.1859 C   0  0  0  0  0  0  0  0  0  0  0  0
    1.9664    0.9620    0.5146 C   0  0  0  0  0  0  0  0  0  0  0  0
    6.2105   -2.0905   -2.2600 C   0  0  0  0  0  0  0  0  0  0  0  0
    1.8870    0.9900    1.8709 O   0  0  0  0  0  0  0  0  0  0  0  0
    7.0267   -2.9690   -1.6211 O   0  0  0  0  0  0  0  0  0  0  0  0
    3.1207    3.0177    0.4067 F   0  0  0  0  0  0  0  0  0  0  0  0
    7.4817   -0.2595   -1.4947 F   0  0  0  0  0  0  0  0  0  0  0  0
    5.1891    0.5063   -6.4969 C   0  0  0  0  0  0  0  0  0  0  0  0
    1.7178   -0.1806   -4.1547 H   0  0  0  0  0  0  0  0  0  0  0  0
    4.0632    1.7433   -4.2137 H   0  0  0  0  0  0  0  0  0  0  0  0
    0.3181    1.9100   -3.9622 H   0  0  0  0  0  0  0  0  0  0  0  0
    1.1384    1.7222   -5.5031 H   0  0  0  0  0  0  0  0  0  0  0  0
    1.7710    2.8658   -4.3076 H   0  0  0  0  0  0  0  0  0  0  0  0
    3.2749   -0.4501   -6.1819 H   0  0  0  0  0  0  0  0  0  0  0  0
    3.2115    1.2890   -6.4397 H   0  0  0  0  0  0  0  0  0  0  0  0
    1.0480   -0.9912   -2.0525 H   0  0  0  0  0  0  0  0  0  0  0  0
    3.1128    2.6939   -2.1237 H   0  0  0  0  0  0  0  0  0  0  0  0
    3.4789   -2.0081   -4.2037 H   0  0  0  0  0  0  0  0  0  0  0  0
    5.8424    1.1980   -2.7998 H   0  0  0  0  0  0  0  0  0  0  0  0
    0.9340   -0.8716    0.3421 H   0  0  0  0  0  0  0  0  0  0  0  0
    4.9070   -3.5562   -3.0510 H   0  0  0  0  0  0  0  0  0  0  0  0
    2.5072    1.6928    2.1656 H   0  0  0  0  0  0  0  0  0  0  0  0
    6.6830   -3.8627   -1.8379 H   0  0  0  0  0  0  0  0  0  0  0  0
    5.1528    0.3558   -7.5766 H   0  0  0  0  0  0  0  0  0  0  0  0
    5.7929   -0.2917   -6.0632 H   0  0  0  0  0  0  0  0  0  0  0  0
    5.6708    1.4643   -6.2953 H   0  0  0  0  0  0  0  0  0  0  0  0
  2  1  1  0  0  0  0 
  1  3  1  0  0  0  0 
  1  4  1  0  0  0  0 
  2  5  1  0  0  0  0 
  2  6  1  0  0  0  0 
  4  7  2  0  0  0  0 
  4  8  1  0  0  0  0 
  6  9  2  0  0  0  0 
  6 10  1  0  0  0  0 
  7 11  1  0  0  0  0 
  8 12  2  0  0  0  0 
  9 13  1  0  0  0  0 
 10 14  2  0  0  0  0 
 11 15  2  0  0  0  0 
 12 15  1  0  0  0  0 
 13 16  2  0  0  0  0 
 14 16  1  0  0  0  0 
 15 17  1  0  0  0  0 
 16 18  1  0  0  0  0 
 12 19  1  0  0  0  0 
 14 20  1  0  0  0  0 
  5 21  1  0  0  0  0 
  1 22  1  0  0  0  0 
  2 23  1  0  0  0  0 
  3 24  1  0  0  0  0 
  3 25  1  0  0  0  0 
  3 26  1  0  0  0  0 
  5 27  1  0  0  0  0 
  5 28  1  0  0  0  0 
  7 29  1  0  0  0  0 
  8 30  1  0  0  0  0 
  9 31  1  0  0  0  0 
 10 32  1  0  0  0  0 
 11 33  1  0  0  0  0 
 13 34  1  0  0  0  0 
 17 35  1  0  0  0  0 
 18 36  1  0  0  0  0 
 21 37  1  0  0  0  0 
 21 38  1  0  0  0  0 
 21 39  1  0  0  0  0 
M  END
> <cdk:Title>
bifluranol

> <Conformer>
1

> <SuperDrugID>
SD002630

$$$$
