oxyphenisatine acetate
  CDK     0628171801

 49 52  0  0  0  0  0  0  0  0999 V2000
    2.0029    5.6571   -3.0731 O   0  0  0  0  0  0  0  0  0  0  0  0
    2.8823    5.2533   -2.2777 C   0  0  0  0  0  0  0  0  0  0  0  0
    3.7189    6.1259   -1.3955 C   0  0  1  0  0  0  0  0  0  0  0  0
    3.1516    3.9460   -2.1547 N   0  0  0  0  0  0  0  0  0  0  0  0
    4.4706    5.0212   -0.7274 C   0  0  0  0  0  0  0  0  0  0  0  0
    4.4858    7.0501   -2.3164 C   0  0  0  0  0  0  0  0  0  0  0  0
    2.9870    6.9064   -0.3253 C   0  0  0  0  0  0  0  0  0  0  0  0
    4.0795    3.7733   -1.2207 C   0  0  0  0  0  0  0  0  0  0  0  0
    5.4394    5.0791    0.2996 C   0  0  0  0  0  0  0  0  0  0  0  0
    5.8594    6.8904   -2.6195 C   0  0  0  0  0  0  0  0  0  0  0  0
    3.8189    8.1528   -2.9139 C   0  0  0  0  0  0  0  0  0  0  0  0
    1.6194    6.6969   -0.0201 C   0  0  0  0  0  0  0  0  0  0  0  0
    3.6638    7.9137    0.4151 C   0  0  0  0  0  0  0  0  0  0  0  0
    4.6138    2.5710   -0.7277 C   0  0  0  0  0  0  0  0  0  0  0  0
    5.9699    3.8835    0.8262 C   0  0  0  0  0  0  0  0  0  0  0  0
    6.5352    7.8004   -3.4544 C   0  0  0  0  0  0  0  0  0  0  0  0
    4.4945    9.0739   -3.7327 C   0  0  0  0  0  0  0  0  0  0  0  0
    0.9450    7.5014    0.9152 C   0  0  0  0  0  0  0  0  0  0  0  0
    2.9925    8.7129    1.3592 C   0  0  0  0  0  0  0  0  0  0  0  0
    5.5567    2.6346    0.3170 C   0  0  0  0  0  0  0  0  0  0  0  0
    5.8661    8.9062   -4.0171 C   0  0  0  0  0  0  0  0  0  0  0  0
    1.6135    8.5491    1.5835 C   0  0  0  0  0  0  0  0  0  0  0  0
    6.6216    9.7448   -4.7967 O   0  0  0  0  0  0  0  0  0  0  0  0
    1.0167    9.4467    2.4314 O   0  0  0  0  0  0  0  0  0  0  0  0
    6.3436   10.8991   -5.4767 C   0  0  0  0  0  0  0  0  0  0  0  0
   -0.2955    9.7981    2.5966 C   0  0  0  0  0  0  0  0  0  0  0  0
    7.4582   11.5685   -6.1603 C   0  0  0  0  0  0  0  0  0  0  0  0
    5.2038   11.4150   -5.5270 O   0  0  0  0  0  0  0  0  0  0  0  0
   -0.6226   10.8072    3.6122 C   0  0  0  0  0  0  0  0  0  0  0  0
   -1.2151    9.3448    1.8770 O   0  0  0  0  0  0  0  0  0  0  0  0
    2.7236    3.2351   -2.6588 H   0  0  0  0  0  0  0  0  0  0  0  0
    5.7554    5.9730    0.6725 H   0  0  0  0  0  0  0  0  0  0  0  0
    6.3906    6.1111   -2.2311 H   0  0  0  0  0  0  0  0  0  0  0  0
    2.8223    8.3086   -2.7415 H   0  0  0  0  0  0  0  0  0  0  0  0
    1.0887    5.9572   -0.4815 H   0  0  0  0  0  0  0  0  0  0  0  0
    4.6594    8.0944    0.2548 H   0  0  0  0  0  0  0  0  0  0  0  0
    4.3172    1.6703   -1.1082 H   0  0  0  0  0  0  0  0  0  0  0  0
    6.6564    3.9207    1.5835 H   0  0  0  0  0  0  0  0  0  0  0  0
    7.5292    7.6531   -3.6499 H   0  0  0  0  0  0  0  0  0  0  0  0
    3.9687    9.8606   -4.1110 H   0  0  0  0  0  0  0  0  0  0  0  0
   -0.0386    7.3106    1.0970 H   0  0  0  0  0  0  0  0  0  0  0  0
    3.5140    9.4365    1.8638 H   0  0  0  0  0  0  0  0  0  0  0  0
    5.9410    1.7714    0.7088 H   0  0  0  0  0  0  0  0  0  0  0  0
    7.1322   12.4863   -6.6564 H   0  0  0  0  0  0  0  0  0  0  0  0
    8.2267   11.8241   -5.4272 H   0  0  0  0  0  0  0  0  0  0  0  0
    7.8859   10.8991   -6.9070 H   0  0  0  0  0  0  0  0  0  0  0  0
   -0.1647   11.7580    3.3311 H   0  0  0  0  0  0  0  0  0  0  0  0
   -0.2328   10.4958    4.5831 H   0  0  0  0  0  0  0  0  0  0  0  0
   -1.7025   10.9488    3.6954 H   0  0  0  0  0  0  0  0  0  0  0  0
  1  2  2  0  0  0  0 
  2  3  1  0  0  0  0 
  2  4  1  0  0  0  0 
  3  5  1  0  0  0  0 
  3  6  1  0  0  0  0 
  3  7  1  0  0  0  0 
  4  8  1  0  0  0  0 
  5  8  2  0  0  0  0 
  5  9  1  0  0  0  0 
  6 10  2  0  0  0  0 
  6 11  1  0  0  0  0 
  7 12  2  0  0  0  0 
  7 13  1  0  0  0  0 
  8 14  1  0  0  0  0 
  9 15  2  0  0  0  0 
 10 16  1  0  0  0  0 
 11 17  2  0  0  0  0 
 12 18  1  0  0  0  0 
 13 19  2  0  0  0  0 
 14 20  2  0  0  0  0 
 15 20  1  0  0  0  0 
 16 21  2  0  0  0  0 
 17 21  1  0  0  0  0 
 18 22  2  0  0  0  0 
 19 22  1  0  0  0  0 
 21 23  1  0  0  0  0 
 22 24  1  0  0  0  0 
 23 25  1  0  0  0  0 
 24 26  1  0  0  0  0 
 25 27  1  0  0  0  0 
 25 28  2  0  0  0  0 
 26 29  1  0  0  0  0 
 26 30  2  0  0  0  0 
  4 31  1  0  0  0  0 
  9 32  1  0  0  0  0 
 10 33  1  0  0  0  0 
 11 34  1  0  0  0  0 
 12 35  1  0  0  0  0 
 13 36  1  0  0  0  0 
 14 37  1  0  0  0  0 
 15 38  1  0  0  0  0 
 16 39  1  0  0  0  0 
 17 40  1  0  0  0  0 
 18 41  1  0  0  0  0 
 19 42  1  0  0  0  0 
 20 43  1  0  0  0  0 
 27 44  1  0  0  0  0 
 27 45  1  0  0  0  0 
 27 46  1  0  0  0  0 
 29 47  1  0  0  0  0 
 29 48  1  0  0  0  0 
 29 49  1  0  0  0  0 
M  END
> <cdk:Title>
oxyphenisatine acetate

> <Conformer>
1

> <SuperDrugID>
SD001824

$$$$
