cefteram
  CDK     0628171801

 49 52  0  0  0  0  0  0  0  0999 V2000
   -2.1186    2.1988   -3.7334 C   0  0  0  0  0  0  0  0  0  0  0  0
   -2.6583    3.1309   -2.9147 O   0  0  0  0  0  0  0  0  0  0  0  0
   -1.4704    2.6019   -4.7263 O   0  0  0  0  0  0  0  0  0  0  0  0
   -2.2371    0.8396   -3.4714 C   0  0  0  0  0  0  0  0  0  0  0  0
   -1.0817    0.1401   -3.4552 N   0  0  0  0  0  0  0  0  0  0  0  0
   -3.4241    0.2223   -3.1976 C   0  0  0  0  0  0  0  0  0  0  0  0
   -0.8161   -1.2474   -3.5984 C   0  0  1  0  0  0  0  0  0  0  0  0
    0.1878    0.4425   -3.1418 C   0  0  0  0  0  0  0  0  0  0  0  0
   -4.7120    0.9413   -3.0896 C   0  0  2  0  0  0  0  0  0  0  0  0
   -3.5092   -1.2304   -2.9234 C   0  0  2  0  0  0  0  0  0  0  0  0
    0.6556   -0.9440   -3.1707 C   0  0  1  0  0  0  0  0  0  0  0  0
   -1.9579   -2.0767   -2.4510 S   0  0  0  0  0  0  0  0  0  0  0  0
    0.7667    1.5140   -2.8489 O   0  0  0  0  0  0  0  0  0  0  0  0
   -5.0541    1.8690   -4.1223 N   0  0  0  0  0  0  0  0  0  0  0  0
    1.0338   -1.4268   -1.8788 N   0  0  0  0  0  0  0  0  0  0  0  0
   -5.4530    3.0787   -3.8958 N   0  0  0  0  0  0  0  0  0  0  0  0
   -5.0733    1.6192   -5.3947 N   0  0  0  0  0  0  0  0  0  0  0  0
    2.1850   -1.1192   -1.2096 C   0  0  0  0  0  0  0  0  0  0  0  0
   -5.7363    3.6002   -5.0931 C   0  0  0  0  0  0  0  0  0  0  0  0
   -5.4880    2.6708   -6.0249 N   0  0  0  0  0  0  0  0  0  0  0  0
    2.3568   -1.5078    0.1248 C   0  0  0  0  0  0  0  0  0  0  0  0
    3.0821   -0.4645   -1.7935 O   0  0  0  0  0  0  0  0  0  0  0  0
   -6.2510    4.9539   -5.3372 C   0  0  0  0  0  0  0  0  0  0  0  0
    3.5199   -1.7479    0.6264 N   0  0  0  0  0  0  0  0  0  0  0  0
    1.2634   -1.6165    0.9903 C   0  0  0  0  0  0  0  0  0  0  0  0
    4.6585   -1.7092    0.0404 O   0  0  0  0  0  0  0  0  0  0  0  0
    0.0874   -0.9690    0.7335 N   0  0  0  0  0  0  0  0  0  0  0  0
    1.2492   -2.3642    2.1840 C   0  0  0  0  0  0  0  0  0  0  0  0
    5.7091   -1.6983    1.0196 C   0  0  0  0  0  0  0  0  0  0  0  0
   -0.9286   -1.1167    1.6058 C   0  0  0  0  0  0  0  0  0  0  0  0
   -0.3453   -2.1630    2.8856 S   0  0  0  0  0  0  0  0  0  0  0  0
   -2.1435   -0.5677    1.4902 N   0  0  0  0  0  0  0  0  0  0  0  0
   -0.9274   -1.5872   -4.6334 H   0  0  0  0  0  0  0  0  0  0  0  0
   -2.5599    4.0826   -3.1302 H   0  0  0  0  0  0  0  0  0  0  0  0
   -4.7139    1.4534   -2.1222 H   0  0  0  0  0  0  0  0  0  0  0  0
   -5.5534    0.2423   -3.0636 H   0  0  0  0  0  0  0  0  0  0  0  0
   -3.8973   -1.7218   -3.8182 H   0  0  0  0  0  0  0  0  0  0  0  0
   -4.2016   -1.4292   -2.1024 H   0  0  0  0  0  0  0  0  0  0  0  0
    1.3912   -1.1302   -3.9602 H   0  0  0  0  0  0  0  0  0  0  0  0
    0.3983   -1.9976   -1.4156 H   0  0  0  0  0  0  0  0  0  0  0  0
   -5.5924    5.4813   -6.0289 H   0  0  0  0  0  0  0  0  0  0  0  0
   -6.3104    5.5176   -4.4032 H   0  0  0  0  0  0  0  0  0  0  0  0
   -7.2505    4.8876   -5.7695 H   0  0  0  0  0  0  0  0  0  0  0  0
    2.0074   -2.9231    2.5725 H   0  0  0  0  0  0  0  0  0  0  0  0
    6.6718   -1.6632    0.5074 H   0  0  0  0  0  0  0  0  0  0  0  0
    5.6355   -0.8183    1.6637 H   0  0  0  0  0  0  0  0  0  0  0  0
    5.6912   -2.6021    1.6328 H   0  0  0  0  0  0  0  0  0  0  0  0
   -2.3412   -0.0032    0.7260 H   0  0  0  0  0  0  0  0  0  0  0  0
   -2.8236   -0.7344    2.1611 H   0  0  0  0  0  0  0  0  0  0  0  0
  1  2  1  0  0  0  0 
  1  3  2  0  0  0  0 
  1  4  1  0  0  0  0 
  4  5  1  0  0  0  0 
  4  6  2  0  0  0  0 
  7  5  1  0  0  0  0 
  5  8  1  0  0  0  0 
  6  9  1  0  0  0  0 
  6 10  1  0  0  0  0 
 11  7  1  0  0  0  0 
  7 12  1  0  0  0  0 
  7 33  1  0  0  0  0 
 11  8  1  0  0  0  0 
  8 13  2  0  0  0  0 
  9 14  1  0  0  0  0 
 10 12  1  0  0  0  0 
 11 15  1  0  0  0  0 
 14 16  1  0  0  0  0 
 14 17  1  0  0  0  0 
 15 18  1  0  0  0  0 
 16 19  2  0  0  0  0 
 17 20  2  0  0  0  0 
 18 21  1  0  0  0  0 
 18 22  2  0  0  0  0 
 19 20  1  0  0  0  0 
 19 23  1  0  0  0  0 
 21 24  2  0  0  0  0 
 21 25  1  0  0  0  0 
 24 26  1  0  0  0  0 
 25 27  1  0  0  0  0 
 25 28  2  0  0  0  0 
 26 29  1  0  0  0  0 
 27 30  2  0  0  0  0 
 28 31  1  0  0  0  0 
 30 31  1  0  0  0  0 
 30 32  1  0  0  0  0 
  2 34  1  0  0  0  0 
  9 35  1  0  0  0  0 
  9 36  1  0  0  0  0 
 10 37  1  0  0  0  0 
 10 38  1  0  0  0  0 
 11 39  1  0  0  0  0 
 15 40  1  0  0  0  0 
 23 41  1  0  0  0  0 
 23 42  1  0  0  0  0 
 23 43  1  0  0  0  0 
 28 44  1  0  0  0  0 
 29 45  1  0  0  0  0 
 29 46  1  0  0  0  0 
 29 47  1  0  0  0  0 
 32 48  1  0  0  0  0 
 32 49  1  0  0  0  0 
M  END
> <cdk:Title>
cefteram

> <Conformer>
1

> <SuperDrugID>
SD002671

$$$$
