guanethidine
  CDK     0628171801

 36 36  0  0  0  0  0  0  0  0999 V2000
    0.7074    2.7323    0.6977 C   0  0  2  0  0  0  0  0  0  0  0  0
   -0.0180    1.4098    0.3413 C   0  0  2  0  0  0  0  0  0  0  0  0
    1.7866    2.6863    1.7449 N   0  0  2  0  0  0  0  0  0  0  0  0
    0.8790    0.4163   -0.0559 N   0  0  0  0  0  0  0  0  0  0  0  0
    1.3979    2.0779    3.0593 C   0  0  1  0  0  0  0  0  0  0  0  0
    2.5482    3.9818    1.8425 C   0  0  1  0  0  0  0  0  0  0  0  0
    0.6016   -0.7728   -0.4613 C   0  0  0  0  0  0  0  0  0  0  0  0
    2.5419    1.8703    4.0939 C   0  0  1  0  0  0  0  0  0  0  0  0
    4.0038    3.7986    1.3484 C   0  0  2  0  0  0  0  0  0  0  0  0
   -0.6327   -1.2327   -0.5610 N   0  0  0  0  0  0  0  0  0  0  0  0
    1.5873   -1.5808   -0.7862 N   0  0  0  0  0  0  0  0  0  0  0  0
    3.7374    0.9918    3.6373 C   0  0  2  0  0  0  0  0  0  0  0  0
    4.9219    2.9125    2.2366 C   0  0  1  0  0  0  0  0  0  0  0  0
    4.5083    1.4129    2.3506 C   0  0  2  0  0  0  0  0  0  0  0  0
   -0.0489    3.4598    1.0060 H   0  0  0  0  0  0  0  0  0  0  0  0
    1.1501    3.0987   -0.2345 H   0  0  0  0  0  0  0  0  0  0  0  0
   -0.7189    1.6134   -0.4750 H   0  0  0  0  0  0  0  0  0  0  0  0
   -0.6076    1.0635    1.1937 H   0  0  0  0  0  0  0  0  0  0  0  0
    0.6308    2.7042    3.5226 H   0  0  0  0  0  0  0  0  0  0  0  0
    0.9632    1.0909    2.8941 H   0  0  0  0  0  0  0  0  0  0  0  0
    2.0936    4.7681    1.2291 H   0  0  0  0  0  0  0  0  0  0  0  0
    2.5619    4.3930    2.8538 H   0  0  0  0  0  0  0  0  0  0  0  0
    2.9194    2.8319    4.4412 H   0  0  0  0  0  0  0  0  0  0  0  0
    2.1076    1.3850    4.9736 H   0  0  0  0  0  0  0  0  0  0  0  0
    4.4638    4.7893    1.2768 H   0  0  0  0  0  0  0  0  0  0  0  0
    3.9783    3.3854    0.3371 H   0  0  0  0  0  0  0  0  0  0  0  0
   -1.3860   -0.6759   -0.3030 H   0  0  0  0  0  0  0  0  0  0  0  0
   -0.7924   -2.1298   -0.8934 H   0  0  0  0  0  0  0  0  0  0  0  0
    2.5074   -1.2865   -0.6990 H   0  0  0  0  0  0  0  0  0  0  0  0
    1.3960   -2.4766   -1.1092 H   0  0  0  0  0  0  0  0  0  0  0  0
    3.3781   -0.0316    3.4973 H   0  0  0  0  0  0  0  0  0  0  0  0
    4.4538    0.9642    4.4674 H   0  0  0  0  0  0  0  0  0  0  0  0
    5.9157    2.9499    1.7798 H   0  0  0  0  0  0  0  0  0  0  0  0
    5.0183    3.3591    3.2295 H   0  0  0  0  0  0  0  0  0  0  0  0
    3.9338    1.1144    1.4706 H   0  0  0  0  0  0  0  0  0  0  0  0
    5.4236    0.8114    2.3286 H   0  0  0  0  0  0  0  0  0  0  0  0
  1  2  1  0  0  0  0 
  1  3  1  0  0  0  0 
  2  4  1  0  0  0  0 
  3  5  1  0  0  0  0 
  3  6  1  0  0  0  0 
  4  7  2  0  0  0  0 
  5  8  1  0  0  0  0 
  6  9  1  0  0  0  0 
  7 10  1  0  0  0  0 
  7 11  1  0  0  0  0 
  8 12  1  0  0  0  0 
  9 13  1  0  0  0  0 
 12 14  1  0  0  0  0 
 13 14  1  0  0  0  0 
 15  1  1  0  0  0  0 
 16  1  1  0  0  0  0 
 17  2  1  0  0  0  0 
 18  2  1  0  0  0  0 
 19  5  1  0  0  0  0 
 20  5  1  0  0  0  0 
 21  6  1  0  0  0  0 
 22  6  1  0  0  0  0 
 23  8  1  0  0  0  0 
 24  8  1  0  0  0  0 
 25  9  1  0  0  0  0 
 26  9  1  0  0  0  0 
 27 10  1  0  0  0  0 
 28 10  1  0  0  0  0 
 29 11  1  0  0  0  0 
 30 11  1  0  0  0  0 
 31 12  1  0  0  0  0 
 32 12  1  0  0  0  0 
 33 13  1  0  0  0  0 
 34 13  1  0  0  0  0 
 35 14  1  0  0  0  0 
 36 14  1  0  0  0  0 
M  END
> <cdk:Title>
guanethidine

> <Conformer>
1

> <SuperDrugID>
SD001190

$$$$
