nitrendipine
  CDK     0628171801

 46 47  0  0  0  0  0  0  0  0999 V2000
   -1.1775    1.7360   -0.5276 C   0  0  0  0  0  0  0  0  0  0  0  0
   -0.7216    1.1869    0.6391 O   0  0  0  0  0  0  0  0  0  0  0  0
   -0.9662    1.0714   -1.5716 O   0  0  0  0  0  0  0  0  0  0  0  0
   -1.8545    2.9785   -0.5939 C   0  0  0  0  0  0  0  0  0  0  0  0
   -0.0439   -0.0660    0.8095 C   0  0  1  0  0  0  0  0  0  0  0  0
   -2.1034    3.5764   -1.9341 C   0  0  1  0  0  0  0  0  0  0  0  0
   -2.3004    3.6683    0.4899 C   0  0  0  0  0  0  0  0  0  0  0  0
    0.2596   -0.2801    2.3018 C   0  0  0  0  0  0  0  0  0  0  0  0
   -3.0208    4.7483   -2.0135 C   0  0  0  0  0  0  0  0  0  0  0  0
   -0.7858    3.9606   -2.5534 C   0  0  0  0  0  0  0  0  0  0  0  0
   -2.1120    3.2747    1.8822 C   0  0  0  0  0  0  0  0  0  0  0  0
   -2.9885    4.8074    0.3206 N   0  0  0  0  0  0  0  0  0  0  0  0
   -3.4130    5.2075   -3.2929 C   0  0  0  0  0  0  0  0  0  0  0  0
   -3.3989    5.3282   -0.8439 C   0  0  0  0  0  0  0  0  0  0  0  0
   -0.0182    5.0353   -2.0349 C   0  0  0  0  0  0  0  0  0  0  0  0
   -0.2930    3.2752   -3.6859 C   0  0  0  0  0  0  0  0  0  0  0  0
   -3.9834    6.4339   -3.4976 O   0  0  0  0  0  0  0  0  0  0  0  0
   -3.2351    4.4890   -4.3074 O   0  0  0  0  0  0  0  0  0  0  0  0
   -4.2384    6.5162   -0.7163 C   0  0  0  0  0  0  0  0  0  0  0  0
    1.1992    5.4570   -2.6310 C   0  0  0  0  0  0  0  0  0  0  0  0
    0.9211    3.6517   -4.2803 C   0  0  0  0  0  0  0  0  0  0  0  0
   -4.3506    7.0363   -4.7424 C   0  0  0  0  0  0  0  0  0  0  0  0
    1.8911    6.5110   -2.1558 N   0  0  0  0  0  0  0  0  0  0  0  0
    1.6536    4.7325   -3.7619 C   0  0  0  0  0  0  0  0  0  0  0  0
    1.5038    7.1870   -1.2841 O   0  0  0  0  0  0  0  0  0  0  0  0
    3.0195    6.8615   -2.6273 O   0  0  0  0  0  0  0  0  0  0  0  0
   -0.6740   -0.8814    0.4431 H   0  0  0  0  0  0  0  0  0  0  0  0
    0.8931   -0.0611    0.2463 H   0  0  0  0  0  0  0  0  0  0  0  0
   -2.5968    2.7860   -2.5136 H   0  0  0  0  0  0  0  0  0  0  0  0
    0.8119   -1.2114    2.4406 H   0  0  0  0  0  0  0  0  0  0  0  0
    0.8619    0.5482    2.6799 H   0  0  0  0  0  0  0  0  0  0  0  0
   -0.6715   -0.3313    2.8700 H   0  0  0  0  0  0  0  0  0  0  0  0
   -1.0461    3.2297    2.1122 H   0  0  0  0  0  0  0  0  0  0  0  0
   -2.5691    2.2992    2.0595 H   0  0  0  0  0  0  0  0  0  0  0  0
   -2.5633    3.9790    2.5869 H   0  0  0  0  0  0  0  0  0  0  0  0
   -3.2336    5.2938    1.1237 H   0  0  0  0  0  0  0  0  0  0  0  0
   -0.3670    5.5306   -1.2100 H   0  0  0  0  0  0  0  0  0  0  0  0
   -0.8184    2.4972   -4.0921 H   0  0  0  0  0  0  0  0  0  0  0  0
   -3.7307    7.3772   -1.1545 H   0  0  0  0  0  0  0  0  0  0  0  0
   -4.4579    6.7690    0.3239 H   0  0  0  0  0  0  0  0  0  0  0  0
   -5.1937    6.3585   -1.2189 H   0  0  0  0  0  0  0  0  0  0  0  0
    1.2682    3.1433   -5.0973 H   0  0  0  0  0  0  0  0  0  0  0  0
   -3.4591    7.2261   -5.3415 H   0  0  0  0  0  0  0  0  0  0  0  0
   -4.8493    7.9844   -4.5406 H   0  0  0  0  0  0  0  0  0  0  0  0
   -5.0319    6.3883   -5.2950 H   0  0  0  0  0  0  0  0  0  0  0  0
    2.5257    4.9888   -4.2296 H   0  0  0  0  0  0  0  0  0  0  0  0
  1  2  1  0  0  0  0 
  1  3  2  0  0  0  0 
  1  4  1  0  0  0  0 
  2  5  1  0  0  0  0 
  6  4  1  0  0  0  0 
  4  7  2  0  0  0  0 
  5  8  1  0  0  0  0 
  6  9  1  0  0  0  0 
  6 10  1  0  0  0  0 
  7 11  1  0  0  0  0 
  7 12  1  0  0  0  0 
  9 13  1  0  0  0  0 
  9 14  2  0  0  0  0 
 10 15  2  0  0  0  0 
 10 16  1  0  0  0  0 
 12 14  1  0  0  0  0 
 13 17  1  0  0  0  0 
 13 18  2  0  0  0  0 
 14 19  1  0  0  0  0 
 15 20  1  0  0  0  0 
 16 21  2  0  0  0  0 
 17 22  1  0  0  0  0 
 20 23  1  0  0  0  0 
 20 24  2  0  0  0  0 
 21 24  1  0  0  0  0 
 23 25  2  0  0  0  0 
 23 26  1  0  0  0  0 
 27  5  1  0  0  0  0 
 28  5  1  0  0  0  0 
 29  6  1  0  0  0  0 
 30  8  1  0  0  0  0 
 31  8  1  0  0  0  0 
 32  8  1  0  0  0  0 
 33 11  1  0  0  0  0 
 34 11  1  0  0  0  0 
 35 11  1  0  0  0  0 
 36 12  1  0  0  0  0 
 37 15  1  0  0  0  0 
 38 16  1  0  0  0  0 
 39 19  1  0  0  0  0 
 40 19  1  0  0  0  0 
 41 19  1  0  0  0  0 
 42 21  1  0  0  0  0 
 43 22  1  0  0  0  0 
 44 22  1  0  0  0  0 
 45 22  1  0  0  0  0 
 46 24  1  0  0  0  0 
M  CHG  1  23   1
M  CHG  1  26  -1
M  END
> <cdk:Title>
nitrendipine

> <Conformer>
1

> <SuperDrugID>
SD001741

$$$$
