spaglumic acid
  CDK     0628171801

 37 36  0  0  0  0  0  0  0  0999 V2000
    0.5343   -0.7766   -3.0096 C   0  0  2  0  0  0  0  0  0  0  0  0
   -0.3582   -1.7885   -2.2316 C   0  0  1  0  0  0  0  0  0  0  0  0
   -0.1698    0.4494   -3.2540 N   0  0  0  0  0  0  0  0  0  0  0  0
    0.9950   -1.3385   -4.3003 C   0  0  0  0  0  0  0  0  0  0  0  0
   -0.8617   -1.2479   -0.9480 C   0  0  0  0  0  0  0  0  0  0  0  0
    0.4130    1.6582   -3.4904 C   0  0  0  0  0  0  0  0  0  0  0  0
    0.1135   -1.7297   -5.2506 O   0  0  0  0  0  0  0  0  0  0  0  0
    2.2155   -1.4538   -4.5527 O   0  0  0  0  0  0  0  0  0  0  0  0
    0.0183   -0.9121    0.0394 N   0  0  0  0  0  0  0  0  0  0  0  0
   -2.0969   -1.0808   -0.8019 O   0  0  0  0  0  0  0  0  0  0  0  0
   -0.4407    2.8337   -3.7194 C   0  0  0  0  0  0  0  0  0  0  0  0
    1.6602    1.7910   -3.5167 O   0  0  0  0  0  0  0  0  0  0  0  0
   -0.3270   -0.2820    1.2797 C   0  0  1  0  0  0  0  0  0  0  0  0
    0.8338   -0.3759    2.3139 C   0  0  2  0  0  0  0  0  0  0  0  0
   -0.6757    1.1329    1.0091 C   0  0  0  0  0  0  0  0  0  0  0  0
    1.2683   -1.8310    2.6459 C   0  0  2  0  0  0  0  0  0  0  0  0
    0.2057    1.9498    0.3830 O   0  0  0  0  0  0  0  0  0  0  0  0
   -1.7955    1.5945    1.3255 O   0  0  0  0  0  0  0  0  0  0  0  0
    2.2526   -1.8616    3.7457 C   0  0  0  0  0  0  0  0  0  0  0  0
    1.8807   -1.5087    4.9987 O   0  0  0  0  0  0  0  0  0  0  0  0
    3.4401   -2.2023    3.5437 O   0  0  0  0  0  0  0  0  0  0  0  0
    1.4084   -0.5671   -2.3840 H   0  0  0  0  0  0  0  0  0  0  0  0
   -1.2095   -2.0731   -2.8585 H   0  0  0  0  0  0  0  0  0  0  0  0
    0.2180   -2.6946   -2.0205 H   0  0  0  0  0  0  0  0  0  0  0  0
   -1.1404    0.4155   -3.2566 H   0  0  0  0  0  0  0  0  0  0  0  0
    0.4458   -2.1019   -6.0948 H   0  0  0  0  0  0  0  0  0  0  0  0
    0.9594   -1.0813   -0.1253 H   0  0  0  0  0  0  0  0  0  0  0  0
    0.1607    3.7260   -3.9023 H   0  0  0  0  0  0  0  0  0  0  0  0
   -1.0781    2.6614   -4.5873 H   0  0  0  0  0  0  0  0  0  0  0  0
   -1.0681    3.0108   -2.8450 H   0  0  0  0  0  0  0  0  0  0  0  0
   -1.1943   -0.7939    1.7112 H   0  0  0  0  0  0  0  0  0  0  0  0
    0.5084    0.1161    3.2370 H   0  0  0  0  0  0  0  0  0  0  0  0
    1.7062    0.1679    1.9367 H   0  0  0  0  0  0  0  0  0  0  0  0
    1.7039   -2.2863    1.7501 H   0  0  0  0  0  0  0  0  0  0  0  0
    0.4022   -2.4290    2.9420 H   0  0  0  0  0  0  0  0  0  0  0  0
   -0.0399    2.8734    0.1641 H   0  0  0  0  0  0  0  0  0  0  0  0
    2.5330   -1.5102    5.7301 H   0  0  0  0  0  0  0  0  0  0  0  0
  1  2  1  0  0  0  0 
  1  3  1  0  0  0  0 
  1  4  1  0  0  0  0 
  2  5  1  0  0  0  0 
  3  6  1  0  0  0  0 
  4  7  1  0  0  0  0 
  4  8  2  0  0  0  0 
  5  9  1  0  0  0  0 
  5 10  2  0  0  0  0 
  6 11  1  0  0  0  0 
  6 12  2  0  0  0  0 
 13  9  1  0  0  0  0 
 13 14  1  0  0  0  0 
 13 15  1  0  0  0  0 
 14 16  1  0  0  0  0 
 15 17  1  0  0  0  0 
 15 18  2  0  0  0  0 
 16 19  1  0  0  0  0 
 19 20  1  0  0  0  0 
 19 21  2  0  0  0  0 
  1 22  1  0  0  0  0 
  2 23  1  0  0  0  0 
  2 24  1  0  0  0  0 
  3 25  1  0  0  0  0 
  7 26  1  0  0  0  0 
  9 27  1  0  0  0  0 
 11 28  1  0  0  0  0 
 11 29  1  0  0  0  0 
 11 30  1  0  0  0  0 
 13 31  1  0  0  0  0 
 14 32  1  0  0  0  0 
 14 33  1  0  0  0  0 
 16 34  1  0  0  0  0 
 16 35  1  0  0  0  0 
 17 36  1  0  0  0  0 
 20 37  1  0  0  0  0 
M  END
> <cdk:Title>
spaglumic acid

> <Conformer>
1

> <SuperDrugID>
SD003338

$$$$
