evans blue
  CDK     0628171801

 86 91  0  0  0  0  0  0  0  0999 V2000
    3.6399   -1.7563    3.3448 N   0  0  0  0  0  0  0  0  0  0  0  0
    2.6415   -1.3693    2.5147 C   0  0  0  0  0  0  0  0  0  0  0  0
    2.8794   -0.6921    1.2790 C   0  0  0  0  0  0  0  0  0  0  0  0
    1.3217   -1.6528    2.9418 C   0  0  0  0  0  0  0  0  0  0  0  0
    1.7507   -0.2748    0.4970 C   0  0  0  0  0  0  0  0  0  0  0  0
    4.1904   -0.4130    0.7815 C   0  0  0  0  0  0  0  0  0  0  0  0
    0.9782   -2.5176    4.4566 S   0  0  1  0  0  0  0  0  0  0  0  0
    0.2365   -1.2431    2.1528 C   0  0  0  0  0  0  0  0  0  0  0  0
    0.4268   -0.5505    0.9450 C   0  0  0  0  0  0  0  0  0  0  0  0
    1.9787    0.4072   -0.7243 C   0  0  0  0  0  0  0  0  0  0  0  0
    5.3177   -0.8160    1.4236 O   0  0  0  0  0  0  0  0  0  0  0  0
    4.3959    0.2828   -0.4323 C   0  0  0  0  0  0  0  0  0  0  0  0
    1.6880   -3.9556    4.4539 O   0  0  0  0  0  0  0  0  0  0  0  0
    1.5201   -1.6730    5.7070 O   0  0  0  0  0  0  0  0  0  0  0  0
   -0.7011   -2.7582    4.6837 O   0  0  0  0  0  0  0  0  0  0  0  0
   -1.0429   -0.0686    0.0628 S   0  0  2  0  0  0  0  0  0  0  0  0
    3.2729    0.6856   -1.1784 C   0  0  0  0  0  0  0  0  0  0  0  0
    5.6449    0.5160   -0.8310 N   0  0  0  0  0  0  0  0  0  0  0  0
   -1.0864   -0.7822   -1.3723 O   0  0  0  0  0  0  0  0  0  0  0  0
   -1.0931    1.5216   -0.1391 O   0  0  0  0  0  0  0  0  0  0  0  0
   -2.4670   -0.5198    0.9014 O   0  0  0  0  0  0  0  0  0  0  0  0
    6.0209    1.0746   -1.8585 N   0  0  0  0  0  0  0  0  0  0  0  0
    7.2783    1.2954   -2.2464 C   0  0  0  0  0  0  0  0  0  0  0  0
    7.5166    1.9947   -3.4621 C   0  0  0  0  0  0  0  0  0  0  0  0
    8.3862    0.8612   -1.4788 C   0  0  0  0  0  0  0  0  0  0  0  0
    6.3869    2.5219   -4.2814 C   0  0  0  0  0  0  0  0  0  0  0  0
    8.8521    2.2030   -3.8915 C   0  0  0  0  0  0  0  0  0  0  0  0
    9.7035    1.1096   -1.9014 C   0  0  0  0  0  0  0  0  0  0  0  0
    9.9568    1.7683   -3.1240 C   0  0  0  0  0  0  0  0  0  0  0  0
   11.2941    1.9933   -3.5601 C   0  0  0  0  0  0  0  0  0  0  0  0
   12.1999    2.7266   -2.7594 C   0  0  0  0  0  0  0  0  0  0  0  0
   11.7532    1.4804   -4.7934 C   0  0  0  0  0  0  0  0  0  0  0  0
   13.5373    2.9536   -3.1668 C   0  0  0  0  0  0  0  0  0  0  0  0
   13.0829    1.6795   -5.2059 C   0  0  0  0  0  0  0  0  0  0  0  0
   14.4497    3.7539   -2.2996 C   0  0  0  0  0  0  0  0  0  0  0  0
   13.9852    2.4167   -4.4049 C   0  0  0  0  0  0  0  0  0  0  0  0
   15.2437    2.6325   -4.7694 N   0  0  0  0  0  0  0  0  0  0  0  0
   15.8401    2.2716   -5.7791 N   0  0  0  0  0  0  0  0  0  0  0  0
   17.1119    2.5270   -6.0890 C   0  0  0  0  0  0  0  0  0  0  0  0
   18.0205    3.2748   -5.2959 C   0  0  0  0  0  0  0  0  0  0  0  0
   17.5632    2.0112   -7.3139 C   0  0  0  0  0  0  0  0  0  0  0  0
   17.5373    3.8254   -4.1564 O   0  0  0  0  0  0  0  0  0  0  0  0
   19.3767    3.4813   -5.6919 C   0  0  0  0  0  0  0  0  0  0  0  0
   18.8774    2.2360   -7.7455 C   0  0  0  0  0  0  0  0  0  0  0  0
   19.8034    2.9689   -6.9616 C   0  0  0  0  0  0  0  0  0  0  0  0
   20.3184    4.1896   -4.8834 C   0  0  0  0  0  0  0  0  0  0  0  0
   21.1327    3.2094   -7.4160 C   0  0  0  0  0  0  0  0  0  0  0  0
   20.0321    4.6264   -3.6303 N   0  0  0  0  0  0  0  0  0  0  0  0
   21.6248    4.4460   -5.3581 C   0  0  0  0  0  0  0  0  0  0  0  0
   21.7739    2.6185   -8.9668 S   0  0  2  0  0  0  0  0  0  0  0  0
   22.0130    3.9594   -6.6149 C   0  0  0  0  0  0  0  0  0  0  0  0
   22.7997    5.3721   -4.3987 S   0  0  1  0  0  0  0  0  0  0  0  0
   20.9529    3.2603  -10.1854 O   0  0  0  0  0  0  0  0  0  0  0  0
   21.6828    1.0199   -9.0561 O   0  0  0  0  0  0  0  0  0  0  0  0
   23.4182    3.0489   -9.1800 O   0  0  0  0  0  0  0  0  0  0  0  0
   22.2106    6.8227   -4.0519 O   0  0  0  0  0  0  0  0  0  0  0  0
   23.1154    4.6004   -3.0292 O   0  0  0  0  0  0  0  0  0  0  0  0
   24.2749    5.5871   -5.2353 O   0  0  0  0  0  0  0  0  0  0  0  0
    3.4328   -2.2236    4.1661 H   0  0  0  0  0  0  0  0  0  0  0  0
    4.5627   -1.5728    3.1445 H   0  0  0  0  0  0  0  0  0  0  0  0
   -0.7124   -1.4579    2.4648 H   0  0  0  0  0  0  0  0  0  0  0  0
    1.2074    0.7160   -1.3172 H   0  0  0  0  0  0  0  0  0  0  0  0
    5.3051   -1.7941    1.3653 H   0  0  0  0  0  0  0  0  0  0  0  0
   -0.9812   -3.2804    3.9035 H   0  0  0  0  0  0  0  0  0  0  0  0
    3.3862    1.1835   -2.0652 H   0  0  0  0  0  0  0  0  0  0  0  0
   -2.5114    0.0989    1.6614 H   0  0  0  0  0  0  0  0  0  0  0  0
    8.2412    0.3594   -0.5999 H   0  0  0  0  0  0  0  0  0  0  0  0
    5.8159    1.6941   -4.7086 H   0  0  0  0  0  0  0  0  0  0  0  0
    6.7312    3.1584   -5.1004 H   0  0  0  0  0  0  0  0  0  0  0  0
    5.7218    3.1245   -3.6575 H   0  0  0  0  0  0  0  0  0  0  0  0
    9.0255    2.6912   -4.7744 H   0  0  0  0  0  0  0  0  0  0  0  0
   10.4780    0.7967   -1.3101 H   0  0  0  0  0  0  0  0  0  0  0  0
   11.8765    3.1102   -1.8655 H   0  0  0  0  0  0  0  0  0  0  0  0
   11.1256    0.9444   -5.3976 H   0  0  0  0  0  0  0  0  0  0  0  0
   13.3893    1.2823   -6.0967 H   0  0  0  0  0  0  0  0  0  0  0  0
   15.3225    3.1571   -2.0259 H   0  0  0  0  0  0  0  0  0  0  0  0
   13.9694    4.0864   -1.3767 H   0  0  0  0  0  0  0  0  0  0  0  0
   14.7854    4.6423   -2.8388 H   0  0  0  0  0  0  0  0  0  0  0  0
   16.9314    1.4691   -7.9111 H   0  0  0  0  0  0  0  0  0  0  0  0
   16.8734    4.4789   -4.4622 H   0  0  0  0  0  0  0  0  0  0  0  0
   19.1354    1.8501   -8.6549 H   0  0  0  0  0  0  0  0  0  0  0  0
   20.6906    5.1270   -3.1278 H   0  0  0  0  0  0  0  0  0  0  0  0
   19.1863    4.4395   -3.2111 H   0  0  0  0  0  0  0  0  0  0  0  0
   22.9565    4.1582   -6.9502 H   0  0  0  0  0  0  0  0  0  0  0  0
   23.8946    2.5696   -8.4696 H   0  0  0  0  0  0  0  0  0  0  0  0
   24.0293    6.1078   -6.0281 H   0  0  0  0  0  0  0  0  0  0  0  0
  1  2  1  0  0  0  0 
  2  3  2  0  0  0  0 
  2  4  1  0  0  0  0 
  3  5  1  0  0  0  0 
  3  6  1  0  0  0  0 
  4  7  1  0  0  0  0 
  4  8  2  0  0  0  0 
  5  9  2  0  0  0  0 
  5 10  1  0  0  0  0 
  6 11  1  0  0  0  0 
  6 12  2  0  0  0  0 
  7 13  2  0  0  0  0 
  7 14  2  0  0  0  0 
  7 15  1  0  0  0  0 
  8  9  1  0  0  0  0 
  9 16  1  0  0  0  0 
 10 17  2  0  0  0  0 
 12 17  1  0  0  0  0 
 18 12  1  0  0  0  0 
 16 19  2  0  0  0  0 
 16 20  2  0  0  0  0 
 16 21  1  0  0  0  0 
 18 22  2  0  0  0  0 
 22 23  1  0  0  0  0 
 23 24  2  0  0  0  0 
 23 25  1  0  0  0  0 
 24 26  1  0  0  0  0 
 24 27  1  0  0  0  0 
 25 28  2  0  0  0  0 
 27 29  2  0  0  0  0 
 28 29  1  0  0  0  0 
 29 30  1  0  0  0  0 
 30 31  2  0  0  0  0 
 30 32  1  0  0  0  0 
 31 33  1  0  0  0  0 
 32 34  2  0  0  0  0 
 33 35  1  0  0  0  0 
 33 36  2  0  0  0  0 
 34 36  1  0  0  0  0 
 37 36  1  0  0  0  0 
 37 38  2  0  0  0  0 
 38 39  1  0  0  0  0 
 39 40  1  0  0  0  0 
 39 41  2  0  0  0  0 
 40 42  1  0  0  0  0 
 40 43  2  0  0  0  0 
 41 44  1  0  0  0  0 
 43 45  1  0  0  0  0 
 43 46  1  0  0  0  0 
 44 45  2  0  0  0  0 
 45 47  1  0  0  0  0 
 46 48  1  0  0  0  0 
 46 49  2  0  0  0  0 
 47 50  1  0  0  0  0 
 47 51  2  0  0  0  0 
 49 51  1  0  0  0  0 
 49 52  1  0  0  0  0 
 50 53  2  0  0  0  0 
 50 54  2  0  0  0  0 
 50 55  1  0  0  0  0 
 52 56  2  0  0  0  0 
 52 57  2  0  0  0  0 
 52 58  1  0  0  0  0 
 59  1  1  0  0  0  0 
 60  1  1  0  0  0  0 
 61  8  1  0  0  0  0 
 62 10  1  0  0  0  0 
 63 11  1  0  0  0  0 
 64 15  1  0  0  0  0 
 65 17  1  0  0  0  0 
 66 21  1  0  0  0  0 
 67 25  1  0  0  0  0 
 68 26  1  0  0  0  0 
 69 26  1  0  0  0  0 
 70 26  1  0  0  0  0 
 71 27  1  0  0  0  0 
 72 28  1  0  0  0  0 
 73 31  1  0  0  0  0 
 74 32  1  0  0  0  0 
 75 34  1  0  0  0  0 
 76 35  1  0  0  0  0 
 77 35  1  0  0  0  0 
 78 35  1  0  0  0  0 
 79 41  1  0  0  0  0 
 80 42  1  0  0  0  0 
 81 44  1  0  0  0  0 
 82 48  1  0  0  0  0 
 83 48  1  0  0  0  0 
 84 51  1  0  0  0  0 
 85 55  1  0  0  0  0 
 86 58  1  0  0  0  0 
M  END
> <cdk:Title>
evans blue

> <Conformer>
1

> <SuperDrugID>
SD002785

$$$$
