felodipine
  CDK     0628171801

 44 45  0  0  0  0  0  0  0  0999 V2000
   -3.2891    4.7253   -2.3214 C   0  0  0  0  0  0  0  0  0  0  0  0
   -4.0267    5.8663   -2.1783 O   0  0  0  0  0  0  0  0  0  0  0  0
   -3.1863    4.2550   -3.4809 O   0  0  0  0  0  0  0  0  0  0  0  0
   -2.6430    4.0949   -1.2330 C   0  0  0  0  0  0  0  0  0  0  0  0
   -4.7647    6.5756   -3.1806 C   0  0  1  0  0  0  0  0  0  0  0  0
   -1.5890    3.0830   -1.5256 C   0  0  2  0  0  0  0  0  0  0  0  0
   -2.9290    4.3457    0.0734 C   0  0  0  0  0  0  0  0  0  0  0  0
   -5.4092    7.8165   -2.5390 C   0  0  0  0  0  0  0  0  0  0  0  0
   -1.0734    2.2783   -0.3830 C   0  0  0  0  0  0  0  0  0  0  0  0
   -0.4437    3.7042   -2.3044 C   0  0  0  0  0  0  0  0  0  0  0  0
   -3.9154    5.3046    0.5606 C   0  0  0  0  0  0  0  0  0  0  0  0
   -2.2764    3.6843    1.0402 N   0  0  0  0  0  0  0  0  0  0  0  0
   -0.2510    1.1645   -0.6647 C   0  0  0  0  0  0  0  0  0  0  0  0
   -1.4492    2.6439    0.8714 C   0  0  0  0  0  0  0  0  0  0  0  0
    0.3889    4.7584   -1.8112 C   0  0  0  0  0  0  0  0  0  0  0  0
   -0.1821    3.2143   -3.6113 C   0  0  0  0  0  0  0  0  0  0  0  0
    0.5960    0.6119    0.2563 O   0  0  0  0  0  0  0  0  0  0  0  0
   -0.2685    0.6405   -1.8057 O   0  0  0  0  0  0  0  0  0  0  0  0
   -1.0383    1.9905    2.1101 C   0  0  0  0  0  0  0  0  0  0  0  0
    0.1778    5.4169   -0.2567 Cl  0  0  0  0  0  0  0  0  0  0  0  0
    1.4278    5.2916   -2.6201 C   0  0  0  0  0  0  0  0  0  0  0  0
    0.8676    3.7219   -4.3923 C   0  0  0  0  0  0  0  0  0  0  0  0
    1.4186   -0.5484    0.0883 C   0  0  0  0  0  0  0  0  0  0  0  0
    2.4247    6.5793   -2.1292 Cl  0  0  0  0  0  0  0  0  0  0  0  0
    1.6683    4.7594   -3.8992 C   0  0  0  0  0  0  0  0  0  0  0  0
   -4.0955    6.8798   -3.9896 H   0  0  0  0  0  0  0  0  0  0  0  0
   -5.5443    5.9292   -3.5918 H   0  0  0  0  0  0  0  0  0  0  0  0
   -2.1165    2.3426   -2.1400 H   0  0  0  0  0  0  0  0  0  0  0  0
   -6.0176    8.3457   -3.2744 H   0  0  0  0  0  0  0  0  0  0  0  0
   -6.0445    7.5144   -1.7048 H   0  0  0  0  0  0  0  0  0  0  0  0
   -4.6312    8.4871   -2.1704 H   0  0  0  0  0  0  0  0  0  0  0  0
   -3.6115    6.3159    0.2845 H   0  0  0  0  0  0  0  0  0  0  0  0
   -4.0248    5.2851    1.6482 H   0  0  0  0  0  0  0  0  0  0  0  0
   -4.8960    5.0846    0.1350 H   0  0  0  0  0  0  0  0  0  0  0  0
   -2.4271    3.9801    1.9541 H   0  0  0  0  0  0  0  0  0  0  0  0
   -0.7585    2.4706   -4.0144 H   0  0  0  0  0  0  0  0  0  0  0  0
    0.0358    2.1229    2.2561 H   0  0  0  0  0  0  0  0  0  0  0  0
   -1.2772    0.9253    2.0754 H   0  0  0  0  0  0  0  0  0  0  0  0
   -1.5407    2.4056    2.9896 H   0  0  0  0  0  0  0  0  0  0  0  0
    1.0471    3.3397   -5.3236 H   0  0  0  0  0  0  0  0  0  0  0  0
    0.7944   -1.4254   -0.0938 H   0  0  0  0  0  0  0  0  0  0  0  0
    1.9929   -0.7055    1.0012 H   0  0  0  0  0  0  0  0  0  0  0  0
    2.1077   -0.4117   -0.7471 H   0  0  0  0  0  0  0  0  0  0  0  0
    2.4262    5.1230   -4.4825 H   0  0  0  0  0  0  0  0  0  0  0  0
  1  2  1  0  0  0  0 
  1  3  2  0  0  0  0 
  1  4  1  0  0  0  0 
  2  5  1  0  0  0  0 
  6  4  1  0  0  0  0 
  4  7  2  0  0  0  0 
  5  8  1  0  0  0  0 
  6  9  1  0  0  0  0 
  6 10  1  0  0  0  0 
  7 11  1  0  0  0  0 
  7 12  1  0  0  0  0 
  9 13  1  0  0  0  0 
  9 14  2  0  0  0  0 
 10 15  2  0  0  0  0 
 10 16  1  0  0  0  0 
 12 14  1  0  0  0  0 
 13 17  1  0  0  0  0 
 13 18  2  0  0  0  0 
 14 19  1  0  0  0  0 
 15 20  1  0  0  0  0 
 15 21  1  0  0  0  0 
 16 22  2  0  0  0  0 
 17 23  1  0  0  0  0 
 21 24  1  0  0  0  0 
 21 25  2  0  0  0  0 
 22 25  1  0  0  0  0 
 26  5  1  0  0  0  0 
 27  5  1  0  0  0  0 
 28  6  1  0  0  0  0 
 29  8  1  0  0  0  0 
 30  8  1  0  0  0  0 
 31  8  1  0  0  0  0 
 32 11  1  0  0  0  0 
 33 11  1  0  0  0  0 
 34 11  1  0  0  0  0 
 35 12  1  0  0  0  0 
 36 16  1  0  0  0  0 
 37 19  1  0  0  0  0 
 38 19  1  0  0  0  0 
 39 19  1  0  0  0  0 
 40 22  1  0  0  0  0 
 41 23  1  0  0  0  0 
 42 23  1  0  0  0  0 
 43 23  1  0  0  0  0 
 44 25  1  0  0  0  0 
M  END
> <cdk:Title>
felodipine

> <Conformer>
1

> <SuperDrugID>
SD001019

$$$$
