metyrapone
  CDK     0628171801

 31 32  0  0  0  0  0  0  0  0999 V2000
   -1.4007    1.8907   -0.3933 C   0  0  0  0  0  0  0  0  0  0  0  0
   -0.1599    1.1313    0.0389 C   0  0  1  0  0  0  0  0  0  0  0  0
   -2.1490    1.3202   -1.2268 O   0  0  0  0  0  0  0  0  0  0  0  0
   -1.8011    3.2076    0.0468 C   0  0  0  0  0  0  0  0  0  0  0  0
   -0.1412    0.9492    1.5453 C   0  0  0  0  0  0  0  0  0  0  0  0
   -2.9064    3.8652   -0.5607 C   0  0  0  0  0  0  0  0  0  0  0  0
   -1.1552    3.9359    1.0828 C   0  0  0  0  0  0  0  0  0  0  0  0
   -1.3072    0.5127    2.2333 C   0  0  0  0  0  0  0  0  0  0  0  0
    1.0050    1.1927    2.3474 C   0  0  0  0  0  0  0  0  0  0  0  0
   -3.3169    5.1512   -0.1648 C   0  0  0  0  0  0  0  0  0  0  0  0
   -1.5713    5.1734    1.4516 N   0  0  0  0  0  0  0  0  0  0  0  0
   -1.3273    0.3821    3.6324 C   0  0  0  0  0  0  0  0  0  0  0  0
    0.9599    1.0552    3.6962 N   0  0  0  0  0  0  0  0  0  0  0  0
   -2.6190    5.7973    0.8655 C   0  0  0  0  0  0  0  0  0  0  0  0
   -0.1591    0.6709    4.3550 C   0  0  0  0  0  0  0  0  0  0  0  0
   -0.0967   -0.3225   -0.5613 C   0  0  0  0  0  0  0  0  0  0  0  0
    1.0609    1.9102   -0.5746 C   0  0  0  0  0  0  0  0  0  0  0  0
   -3.4329    3.4163   -1.3140 H   0  0  0  0  0  0  0  0  0  0  0  0
   -0.3558    3.5689    1.5903 H   0  0  0  0  0  0  0  0  0  0  0  0
   -2.1645    0.2930    1.7185 H   0  0  0  0  0  0  0  0  0  0  0  0
    1.8918    1.4830    1.9370 H   0  0  0  0  0  0  0  0  0  0  0  0
   -4.1082    5.6098   -0.6221 H   0  0  0  0  0  0  0  0  0  0  0  0
   -2.1788    0.0872    4.1147 H   0  0  0  0  0  0  0  0  0  0  0  0
   -2.8943    6.7304    1.1769 H   0  0  0  0  0  0  0  0  0  0  0  0
   -0.1413    0.5917    5.3720 H   0  0  0  0  0  0  0  0  0  0  0  0
   -0.1126   -0.2995   -1.6542 H   0  0  0  0  0  0  0  0  0  0  0  0
   -0.9458   -0.9274   -0.2318 H   0  0  0  0  0  0  0  0  0  0  0  0
    0.8184   -0.8354   -0.2520 H   0  0  0  0  0  0  0  0  0  0  0  0
    0.9236    2.0735   -1.6475 H   0  0  0  0  0  0  0  0  0  0  0  0
    1.9933    1.3566   -0.4496 H   0  0  0  0  0  0  0  0  0  0  0  0
    1.1941    2.8855   -0.1071 H   0  0  0  0  0  0  0  0  0  0  0  0
  1  2  1  0  0  0  0 
  1  3  2  0  0  0  0 
  1  4  1  0  0  0  0 
  2  5  1  0  0  0  0 
  4  6  2  0  0  0  0 
  4  7  1  0  0  0  0 
  5  8  2  0  0  0  0 
  5  9  1  0  0  0  0 
  6 10  1  0  0  0  0 
  7 11  2  0  0  0  0 
  8 12  1  0  0  0  0 
  9 13  2  0  0  0  0 
 10 14  2  0  0  0  0 
 11 14  1  0  0  0  0 
 12 15  2  0  0  0  0 
 13 15  1  0  0  0  0 
  2 16  1  0  0  0  0 
  2 17  1  0  0  0  0 
  6 18  1  0  0  0  0 
  7 19  1  0  0  0  0 
  8 20  1  0  0  0  0 
  9 21  1  0  0  0  0 
 10 22  1  0  0  0  0 
 12 23  1  0  0  0  0 
 14 24  1  0  0  0  0 
 15 25  1  0  0  0  0 
 16 26  1  0  0  0  0 
 16 27  1  0  0  0  0 
 16 28  1  0  0  0  0 
 17 29  1  0  0  0  0 
 17 30  1  0  0  0  0 
 17 31  1  0  0  0  0 
M  END
> <cdk:Title>
metyrapone

> <Conformer>
1

> <SuperDrugID>
SD001591

$$$$
