pyridoxal
  CDK     0628171801

 21 21  0  0  0  0  0  0  0  0999 V2000
    4.0859   -2.0563    3.8447 C   0  0  0  0  0  0  0  0  0  0  0  0
    3.1410   -1.3934    2.9217 C   0  0  0  0  0  0  0  0  0  0  0  0
    3.5638   -0.6574    1.7932 C   0  0  0  0  0  0  0  0  0  0  0  0
    4.8991   -0.5871    1.5505 O   0  0  0  0  0  0  0  0  0  0  0  0
    2.6130   -0.0307    0.9377 C   0  0  0  0  0  0  0  0  0  0  0  0
    3.1118    0.7316   -0.1629 C   0  0  0  0  0  0  0  0  0  0  0  0
    2.4091    1.1564   -1.1057 O   0  0  0  0  0  0  0  0  0  0  0  0
    1.2211   -0.1988    1.2330 C   0  0  0  0  0  0  0  0  0  0  0  0
    0.1108    0.3797    0.4257 C   0  0  2  0  0  0  0  0  0  0  0  0
    0.1011    1.7956    0.5628 O   0  0  0  0  0  0  0  0  0  0  0  0
    0.8676   -0.9504    2.3784 C   0  0  0  0  0  0  0  0  0  0  0  0
    1.8142   -1.5043    3.1656 N   0  0  0  0  0  0  0  0  0  0  0  0
    4.7371   -1.3149    4.3101 H   0  0  0  0  0  0  0  0  0  0  0  0
    3.5536   -2.5927    4.6333 H   0  0  0  0  0  0  0  0  0  0  0  0
    4.7009   -2.7705    3.2953 H   0  0  0  0  0  0  0  0  0  0  0  0
    5.0143   -1.0795    0.7108 H   0  0  0  0  0  0  0  0  0  0  0  0
    4.1061    0.9607   -0.2278 H   0  0  0  0  0  0  0  0  0  0  0  0
   -0.8695    0.0169    0.7456 H   0  0  0  0  0  0  0  0  0  0  0  0
    0.2174    0.1040   -0.6244 H   0  0  0  0  0  0  0  0  0  0  0  0
   -0.6821    2.0877    0.0507 H   0  0  0  0  0  0  0  0  0  0  0  0
   -0.1093   -1.0884    2.6443 H   0  0  0  0  0  0  0  0  0  0  0  0
  1  2  1  0  0  0  0 
  2  3  2  0  0  0  0 
  3  4  1  0  0  0  0 
  3  5  1  0  0  0  0 
  5  6  1  0  0  0  0 
  6  7  2  0  0  0  0 
  5  8  2  0  0  0  0 
  8  9  1  0  0  0  0 
  9 10  1  0  0  0  0 
  8 11  1  0  0  0  0 
 11 12  2  0  0  0  0 
  2 12  1  0  0  0  0 
  1 13  1  0  0  0  0 
  1 14  1  0  0  0  0 
  1 15  1  0  0  0  0 
  4 16  1  0  0  0  0 
  6 17  1  0  0  0  0 
  9 18  1  0  0  0  0 
  9 19  1  0  0  0  0 
 10 20  1  0  0  0  0 
 11 21  1  0  0  0  0 
M  END
> <cdk:Title>
pyridoxal

> <Conformer>
1

> <SuperDrugID>
SD003374

$$$$
