minaprine
  CDK     0628171801

 44 46  0  0  0  0  0  0  0  0999 V2000
   -6.4662    1.1877    2.7806 C   0  0  0  0  0  0  0  0  0  0  0  0
   -6.2675    2.4892    2.0928 C   0  0  0  0  0  0  0  0  0  0  0  0
   -7.1435    3.5717    2.3406 C   0  0  0  0  0  0  0  0  0  0  0  0
   -5.2010    2.6879    1.1795 C   0  0  0  0  0  0  0  0  0  0  0  0
   -6.9601    4.8122    1.6850 C   0  0  0  0  0  0  0  0  0  0  0  0
   -4.3249    1.6825    0.8870 N   0  0  0  0  0  0  0  0  0  0  0  0
   -5.0802    3.9108    0.5996 N   0  0  0  0  0  0  0  0  0  0  0  0
   -5.9008    4.8971    0.8364 N   0  0  0  0  0  0  0  0  0  0  0  0
   -7.8100    5.9506    1.8507 C   0  0  0  0  0  0  0  0  0  0  0  0
   -3.1905    1.7585    0.0150 C   0  0  2  0  0  0  0  0  0  0  0  0
   -9.1810    5.8293    2.1968 C   0  0  0  0  0  0  0  0  0  0  0  0
   -7.2974    7.2579    1.6420 C   0  0  0  0  0  0  0  0  0  0  0  0
   -2.0512    0.8419    0.5298 C   0  0  2  0  0  0  0  0  0  0  0  0
  -10.0029    6.9647    2.3328 C   0  0  0  0  0  0  0  0  0  0  0  0
   -8.1180    8.3942    1.7696 C   0  0  0  0  0  0  0  0  0  0  0  0
   -0.9081    0.6640   -0.4247 N   0  0  1  0  0  0  0  0  0  0  0  0
   -9.4713    8.2484    2.1169 C   0  0  0  0  0  0  0  0  0  0  0  0
   -0.1076    1.9085   -0.6556 C   0  0  1  0  0  0  0  0  0  0  0  0
   -0.0294   -0.4885   -0.0427 C   0  0  2  0  0  0  0  0  0  0  0  0
    1.0725    1.6557   -1.6271 C   0  0  1  0  0  0  0  0  0  0  0  0
    1.1152   -0.6802   -1.0642 C   0  0  2  0  0  0  0  0  0  0  0  0
    1.8723    0.5363   -1.2046 O   0  0  0  0  0  0  0  0  0  0  0  0
   -7.3417    1.1935    3.4332 H   0  0  0  0  0  0  0  0  0  0  0  0
   -6.6080    0.3962    2.0434 H   0  0  0  0  0  0  0  0  0  0  0  0
   -5.5891    0.9558    3.3881 H   0  0  0  0  0  0  0  0  0  0  0  0
   -7.9089    3.4555    3.0083 H   0  0  0  0  0  0  0  0  0  0  0  0
   -4.4907    0.8219    1.3033 H   0  0  0  0  0  0  0  0  0  0  0  0
   -2.8236    2.7833   -0.0577 H   0  0  0  0  0  0  0  0  0  0  0  0
   -3.4968    1.4241   -0.9780 H   0  0  0  0  0  0  0  0  0  0  0  0
   -9.6098    4.9108    2.3359 H   0  0  0  0  0  0  0  0  0  0  0  0
   -6.3158    7.4038    1.3929 H   0  0  0  0  0  0  0  0  0  0  0  0
   -2.4971   -0.1367    0.7254 H   0  0  0  0  0  0  0  0  0  0  0  0
   -1.6831    1.2263    1.4855 H   0  0  0  0  0  0  0  0  0  0  0  0
  -10.9893    6.8576    2.5809 H   0  0  0  0  0  0  0  0  0  0  0  0
   -7.7296    9.3269    1.6071 H   0  0  0  0  0  0  0  0  0  0  0  0
  -10.0696    9.0729    2.2060 H   0  0  0  0  0  0  0  0  0  0  0  0
   -0.7334    2.6872   -1.0955 H   0  0  0  0  0  0  0  0  0  0  0  0
    0.2886    2.2827    0.2928 H   0  0  0  0  0  0  0  0  0  0  0  0
   -0.6105   -1.4141   -0.0103 H   0  0  0  0  0  0  0  0  0  0  0  0
    0.4064   -0.3242    0.9479 H   0  0  0  0  0  0  0  0  0  0  0  0
    0.7007    1.4878   -2.6405 H   0  0  0  0  0  0  0  0  0  0  0  0
    1.7126    2.5392   -1.6497 H   0  0  0  0  0  0  0  0  0  0  0  0
    0.7101   -0.9978   -2.0286 H   0  0  0  0  0  0  0  0  0  0  0  0
    1.7865   -1.4639   -0.7075 H   0  0  0  0  0  0  0  0  0  0  0  0
  1  2  1  0  0  0  0 
  2  3  2  0  0  0  0 
  2  4  1  0  0  0  0 
  3  5  1  0  0  0  0 
  4  6  1  0  0  0  0 
  4  7  2  0  0  0  0 
  5  8  2  0  0  0  0 
  5  9  1  0  0  0  0 
  6 10  1  0  0  0  0 
  7  8  1  0  0  0  0 
  9 11  2  0  0  0  0 
  9 12  1  0  0  0  0 
 10 13  1  0  0  0  0 
 11 14  1  0  0  0  0 
 12 15  2  0  0  0  0 
 13 16  1  0  0  0  0 
 14 17  2  0  0  0  0 
 15 17  1  0  0  0  0 
 16 18  1  0  0  0  0 
 16 19  1  0  0  0  0 
 18 20  1  0  0  0  0 
 19 21  1  0  0  0  0 
 20 22  1  0  0  0  0 
 21 22  1  0  0  0  0 
  1 23  1  0  0  0  0 
  1 24  1  0  0  0  0 
  1 25  1  0  0  0  0 
  3 26  1  0  0  0  0 
  6 27  1  0  0  0  0 
 10 28  1  0  0  0  0 
 10 29  1  0  0  0  0 
 11 30  1  0  0  0  0 
 12 31  1  0  0  0  0 
 13 32  1  0  0  0  0 
 13 33  1  0  0  0  0 
 14 34  1  0  0  0  0 
 15 35  1  0  0  0  0 
 17 36  1  0  0  0  0 
 18 37  1  0  0  0  0 
 18 38  1  0  0  0  0 
 19 39  1  0  0  0  0 
 19 40  1  0  0  0  0 
 20 41  1  0  0  0  0 
 20 42  1  0  0  0  0 
 21 43  1  0  0  0  0 
 21 44  1  0  0  0  0 
M  END
> <cdk:Title>
minaprine

> <Conformer>
1

> <SuperDrugID>
SD001611

$$$$
