nifurtoinol
  CDK     0628171801

 27 28  0  0  0  0  0  0  0  0999 V2000
   -2.0208    4.3073    0.4685 N   0  0  0  0  0  0  0  0  0  0  0  0
   -1.0937    4.4352   -0.4100 C   0  0  0  0  0  0  0  0  0  0  0  0
   -3.0468    5.0553    0.5387 N   0  0  0  0  0  0  0  0  0  0  0  0
   -0.0163    3.5841   -0.4195 C   0  0  0  0  0  0  0  0  0  0  0  0
   -4.2504    4.8216   -0.0241 C   0  0  0  0  0  0  0  0  0  0  0  0
   -3.1198    6.2204    1.2012 C   0  0  0  0  0  0  0  0  0  0  0  0
    0.1903    2.5599    0.4464 O   0  0  0  0  0  0  0  0  0  0  0  0
    1.0519    3.6303   -1.3118 C   0  0  0  0  0  0  0  0  0  0  0  0
   -4.5380    3.8120   -0.7092 O   0  0  0  0  0  0  0  0  0  0  0  0
   -5.0885    5.8397    0.2730 N   0  0  0  0  0  0  0  0  0  0  0  0
   -4.4021    6.7212    1.0272 C   0  0  0  0  0  0  0  0  0  0  0  0
    1.3642    1.9503    0.1370 C   0  0  0  0  0  0  0  0  0  0  0  0
    1.9171    2.6077   -0.9635 C   0  0  0  0  0  0  0  0  0  0  0  0
   -6.4568    5.9810   -0.1232 C   0  0  1  0  0  0  0  0  0  0  0  0
   -4.8681    7.8885    1.5345 O   0  0  0  0  0  0  0  0  0  0  0  0
    1.8701    0.9156    0.7897 N   0  0  0  0  0  0  0  0  0  0  0  0
   -7.2817    6.0165    1.0356 O   0  0  0  0  0  0  0  0  0  0  0  0
    3.0002    0.4218    0.4873 O   0  0  0  0  0  0  0  0  0  0  0  0
    1.2883    0.4269    1.6747 O   0  0  0  0  0  0  0  0  0  0  0  0
   -1.1496    5.1611   -1.0886 H   0  0  0  0  0  0  0  0  0  0  0  0
   -2.3704    6.6676    1.7331 H   0  0  0  0  0  0  0  0  0  0  0  0
    1.1822    4.2912   -2.0798 H   0  0  0  0  0  0  0  0  0  0  0  0
    2.7956    2.3878   -1.4324 H   0  0  0  0  0  0  0  0  0  0  0  0
   -6.5854    6.9094   -0.6837 H   0  0  0  0  0  0  0  0  0  0  0  0
   -6.7873    5.1533   -0.7552 H   0  0  0  0  0  0  0  0  0  0  0  0
   -4.1133    8.2764    2.0269 H   0  0  0  0  0  0  0  0  0  0  0  0
   -8.1858    6.1959    0.7035 H   0  0  0  0  0  0  0  0  0  0  0  0
  1  2  2  0  0  0  0 
  1  3  1  0  0  0  0 
  2  4  1  0  0  0  0 
  3  5  1  0  0  0  0 
  3  6  1  0  0  0  0 
  4  7  1  0  0  0  0 
  4  8  2  0  0  0  0 
  5  9  2  0  0  0  0 
  5 10  1  0  0  0  0 
  6 11  2  0  0  0  0 
  7 12  1  0  0  0  0 
  8 13  1  0  0  0  0 
 10 11  1  0  0  0  0 
 10 14  1  0  0  0  0 
 11 15  1  0  0  0  0 
 12 13  2  0  0  0  0 
 12 16  1  0  0  0  0 
 14 17  1  0  0  0  0 
 16 18  1  0  0  0  0 
 16 19  2  0  0  0  0 
 20  2  1  0  0  0  0 
 21  6  1  0  0  0  0 
 22  8  1  0  0  0  0 
 23 13  1  0  0  0  0 
 24 14  1  0  0  0  0 
 25 14  1  0  0  0  0 
 26 15  1  0  0  0  0 
 27 17  1  0  0  0  0 
M  CHG  1  16   1
M  CHG  1  18  -1
M  END
> <cdk:Title>
nifurtoinol

> <Conformer>
1

> <SuperDrugID>
SD001725

$$$$
