dexamethasone acetate
  CDK     0628171802

 62 65  0  0  0  0  0  0  0  0999 V2000
   -3.6352    0.9290    4.6655 C   0  0  0  0  0  0  0  0  0  0  0  0
   -4.4200    1.5406    3.4390 C   0  0  2  0  0  0  0  0  0  0  0  0
   -4.1594    3.0626    3.1937 C   0  0  2  0  0  0  0  0  0  0  0  0
   -5.9673    1.5699    3.7818 C   0  0  2  0  0  0  0  0  0  0  0  0
   -3.9811    0.8142    2.1121 C   0  0  2  0  0  0  0  0  0  0  0  0
   -2.6621    3.4134    2.8998 C   0  0  1  0  0  0  0  0  0  0  0  0
   -4.8828    3.7757    4.3509 C   0  0  1  0  0  0  0  0  0  0  0  0
   -6.5174    0.3376    4.4542 C   0  0  0  0  0  0  0  0  0  0  0  0
   -6.7181    1.7343    2.5715 O   0  0  0  0  0  0  0  0  0  0  0  0
   -6.1224    2.8856    4.6514 C   0  0  1  0  0  0  0  0  0  0  0  0
   -2.5162    1.1394    1.6440 C   0  0  1  0  0  0  0  0  0  0  0  0
   -2.1705    2.6845    1.5808 C   0  0  1  0  0  0  0  0  0  0  0  0
   -2.4413    4.9531    2.8140 C   0  0  1  0  0  0  0  0  0  0  0  0
   -6.7838   -0.9673    3.8092 C   0  0  2  0  0  0  0  0  0  0  0  0
   -6.7872    0.3568    5.6790 O   0  0  0  0  0  0  0  0  0  0  0  0
   -7.4784    3.6309    4.4913 C   0  0  0  0  0  0  0  0  0  0  0  0
   -1.6012    0.4203    2.4660 O   0  0  0  0  0  0  0  0  0  0  0  0
   -2.9525    3.1597    0.5350 F   0  0  0  0  0  0  0  0  0  0  0  0
   -0.6655    3.0874    1.2038 C   0  0  2  0  0  0  0  0  0  0  0  0
   -0.9863    5.3106    2.4407 C   0  0  2  0  0  0  0  0  0  0  0  0
   -6.5696   -1.0018    2.3949 O   0  0  0  0  0  0  0  0  0  0  0  0
    0.4347    2.5366    2.1835 C   0  0  0  0  0  0  0  0  0  0  0  0
   -0.5723    4.5887    1.2297 C   0  0  0  0  0  0  0  0  0  0  0  0
   -0.2988    2.5294   -0.1235 C   0  0  0  0  0  0  0  0  0  0  0  0
   -6.7460   -2.0948    1.5938 C   0  0  0  0  0  0  0  0  0  0  0  0
   -0.1502    5.2899    0.1522 C   0  0  0  0  0  0  0  0  0  0  0  0
    0.1162    3.2864   -1.1533 C   0  0  0  0  0  0  0  0  0  0  0  0
   -6.4238   -2.0006    0.1651 C   0  0  0  0  0  0  0  0  0  0  0  0
   -7.1792   -3.1795    2.0510 O   0  0  0  0  0  0  0  0  0  0  0  0
    0.2063    4.6611   -1.0296 C   0  0  0  0  0  0  0  0  0  0  0  0
    0.6057    5.3464   -2.0010 O   0  0  0  0  0  0  0  0  0  0  0  0
   -3.8197   -0.1445    4.7298 H   0  0  0  0  0  0  0  0  0  0  0  0
   -3.9475    1.3731    5.6096 H   0  0  0  0  0  0  0  0  0  0  0  0
   -2.5609    1.0638    4.6030 H   0  0  0  0  0  0  0  0  0  0  0  0
   -4.7140    3.3765    2.2991 H   0  0  0  0  0  0  0  0  0  0  0  0
   -4.6588    1.0895    1.2977 H   0  0  0  0  0  0  0  0  0  0  0  0
   -4.0769   -0.2667    2.2363 H   0  0  0  0  0  0  0  0  0  0  0  0
   -2.0625    3.0742    3.7441 H   0  0  0  0  0  0  0  0  0  0  0  0
   -4.2235    3.8318    5.2239 H   0  0  0  0  0  0  0  0  0  0  0  0
   -5.1622    4.7965    4.0701 H   0  0  0  0  0  0  0  0  0  0  0  0
   -7.6597    1.7427    2.8441 H   0  0  0  0  0  0  0  0  0  0  0  0
   -6.0477    2.6487    5.7174 H   0  0  0  0  0  0  0  0  0  0  0  0
   -2.4081    0.7085    0.6438 H   0  0  0  0  0  0  0  0  0  0  0  0
   -3.1197    5.3861    2.0734 H   0  0  0  0  0  0  0  0  0  0  0  0
   -2.6618    5.4182    3.7786 H   0  0  0  0  0  0  0  0  0  0  0  0
   -7.8255   -1.2324    3.9970 H   0  0  0  0  0  0  0  0  0  0  0  0
   -6.1498   -1.7214    4.2836 H   0  0  0  0  0  0  0  0  0  0  0  0
   -7.5942    4.0090    3.4744 H   0  0  0  0  0  0  0  0  0  0  0  0
   -8.3067    2.9552    4.7128 H   0  0  0  0  0  0  0  0  0  0  0  0
   -7.5318    4.4760    5.1806 H   0  0  0  0  0  0  0  0  0  0  0  0
   -1.9168   -0.5090    2.4724 H   0  0  0  0  0  0  0  0  0  0  0  0
   -0.3230    5.0547    3.2698 H   0  0  0  0  0  0  0  0  0  0  0  0
   -0.9292    6.3989    2.3280 H   0  0  0  0  0  0  0  0  0  0  0  0
    0.1767    2.7233    3.2235 H   0  0  0  0  0  0  0  0  0  0  0  0
    0.5955    1.4623    2.0803 H   0  0  0  0  0  0  0  0  0  0  0  0
    1.4006    3.0130    1.9936 H   0  0  0  0  0  0  0  0  0  0  0  0
   -0.3412    1.5462   -0.2665 H   0  0  0  0  0  0  0  0  0  0  0  0
   -0.0963    6.2844    0.1860 H   0  0  0  0  0  0  0  0  0  0  0  0
    0.3626    2.8536   -2.0143 H   0  0  0  0  0  0  0  0  0  0  0  0
   -6.0189   -1.0159   -0.0766 H   0  0  0  0  0  0  0  0  0  0  0  0
   -5.6800   -2.7578   -0.0937 H   0  0  0  0  0  0  0  0  0  0  0  0
   -7.3230   -2.1682   -0.4272 H   0  0  0  0  0  0  0  0  0  0  0  0
  2  1  1  0  0  0  0 
  3  2  1  0  0  0  0 
  2  4  1  0  0  0  0 
  2  5  1  0  0  0  0 
  6  3  1  0  0  0  0 
  3  7  1  0  0  0  0 
  4  8  1  0  0  0  0 
  4  9  1  0  0  0  0 
  4 10  1  0  0  0  0 
 11  5  1  0  0  0  0 
 12  6  1  0  0  0  0 
  6 13  1  0  0  0  0 
 10  7  1  0  0  0  0 
  8 14  1  0  0  0  0 
  8 15  2  0  0  0  0 
 10 16  1  0  0  0  0 
 12 11  1  0  0  0  0 
 11 17  1  0  0  0  0 
 12 18  1  0  0  0  0 
 12 19  1  0  0  0  0 
 13 20  1  0  0  0  0 
 14 21  1  0  0  0  0 
 19 22  1  0  0  0  0 
 19 23  1  0  0  0  0 
 19 24  1  0  0  0  0 
 20 23  1  0  0  0  0 
 21 25  1  0  0  0  0 
 23 26  2  0  0  0  0 
 24 27  2  0  0  0  0 
 25 28  1  0  0  0  0 
 25 29  2  0  0  0  0 
 26 30  1  0  0  0  0 
 27 30  1  0  0  0  0 
 30 31  2  0  0  0  0 
 32  1  1  0  0  0  0 
 33  1  1  0  0  0  0 
 34  1  1  0  0  0  0 
  3 35  1  0  0  0  0 
 36  5  1  0  0  0  0 
 37  5  1  0  0  0  0 
  6 38  1  0  0  0  0 
 39  7  1  0  0  0  0 
 40  7  1  0  0  0  0 
 41  9  1  0  0  0  0 
 10 42  1  0  0  0  0 
 11 43  1  0  0  0  0 
 44 13  1  0  0  0  0 
 45 13  1  0  0  0  0 
 46 14  1  0  0  0  0 
 47 14  1  0  0  0  0 
 48 16  1  0  0  0  0 
 49 16  1  0  0  0  0 
 50 16  1  0  0  0  0 
 51 17  1  0  0  0  0 
 52 20  1  0  0  0  0 
 53 20  1  0  0  0  0 
 54 22  1  0  0  0  0 
 55 22  1  0  0  0  0 
 56 22  1  0  0  0  0 
 57 24  1  0  0  0  0 
 58 26  1  0  0  0  0 
 59 27  1  0  0  0  0 
 60 28  1  0  0  0  0 
 61 28  1  0  0  0  0 
 62 28  1  0  0  0  0 
M  END
> <cdk:Title>
dexamethasone acetate

> <Conformer>
1

> <SuperDrugID>
SD000730

$$$$
