viomycin
  CDK     0628171801

 91 92  0  0  0  0  0  0  0  0999 V2000
    4.4704    4.0049   -8.1179 O   0  0  0  0  0  0  0  0  0  0  0  0
    3.2692    3.8970   -7.7692 C   0  0  0  0  0  0  0  0  0  0  0  0
    2.3230    4.9093   -8.3270 C   0  0  2  0  0  0  0  0  0  0  0  0
    2.8970    2.9068   -6.8980 N   0  0  0  0  0  0  0  0  0  0  0  0
    0.8428    4.9132   -7.7861 C   0  0  1  0  0  0  0  0  0  0  0  0
    2.4072    4.9962   -9.7666 N   0  0  0  0  0  0  0  0  0  0  0  0
    3.7904    1.9862   -6.2550 C   0  0  1  0  0  0  0  0  0  0  0  0
    0.8096    5.1610   -6.1954 C   0  0  1  0  0  0  0  0  0  0  0  0
    0.1169    5.9173   -8.5907 N   0  0  0  0  0  0  0  0  0  0  0  0
    2.3545    4.0160  -10.7155 C   0  0  0  0  0  0  0  0  0  0  0  0
    3.1790    0.5572   -6.0748 C   0  0  2  0  0  0  0  0  0  0  0  0
   -0.5121    5.8532   -5.7432 C   0  0  2  0  0  0  0  0  0  0  0  0
   -0.6752    6.7756   -7.9957 C   0  0  0  0  0  0  0  0  0  0  0  0
    2.4633    4.3847  -11.9074 O   0  0  0  0  0  0  0  0  0  0  0  0
    2.2030    2.6626  -10.4828 C   0  0  0  0  0  0  0  0  0  0  0  0
    2.5404    0.3925   -4.8023 N   0  0  0  0  0  0  0  0  0  0  0  0
    4.2405   -0.4726   -6.2202 C   0  0  0  0  0  0  0  0  0  0  0  0
   -1.5492    4.8862   -5.6093 O   0  0  0  0  0  0  0  0  0  0  0  0
   -0.9745    6.8598   -6.6458 N   0  0  0  0  0  0  0  0  0  0  0  0
   -1.2618    7.6515   -8.7769 N   0  0  0  0  0  0  0  0  0  0  0  0
    0.9717    2.1791  -10.2252 C   0  0  0  0  0  0  0  0  0  0  0  0
    3.3502    1.9669  -10.5175 N   0  0  0  0  0  0  0  0  0  0  0  0
    1.7445   -0.6649   -4.4690 C   0  0  0  0  0  0  0  0  0  0  0  0
    5.2343   -0.4434   -5.4547 O   0  0  0  0  0  0  0  0  0  0  0  0
    4.1587   -1.3700   -7.2372 N   0  0  0  0  0  0  0  0  0  0  0  0
    0.7224    0.9072   -9.9153 N   0  0  0  0  0  0  0  0  0  0  0  0
    3.6005    0.7319  -11.0466 C   0  0  0  0  0  0  0  0  0  0  0  0
    1.2990   -0.8310   -3.0704 C   0  0  1  0  0  0  0  0  0  0  0  0
    1.4100   -1.5254   -5.3195 O   0  0  0  0  0  0  0  0  0  0  0  0
    5.2650   -2.0927   -7.7882 C   0  0  1  0  0  0  0  0  0  0  0  0
   -0.5102    0.3790   -9.6909 C   0  0  0  0  0  0  0  0  0  0  0  0
    2.7274    0.0972  -11.6869 O   0  0  0  0  0  0  0  0  0  0  0  0
    4.9463    0.1226  -10.8682 C   0  0  2  0  0  0  0  0  0  0  0  0
    0.3468    0.2905   -2.5694 C   0  0  2  0  0  0  0  0  0  0  0  0
    4.8462   -3.5300   -8.1817 C   0  0  1  0  0  0  0  0  0  0  0  0
    5.7051   -1.2475   -8.9256 C   0  0  0  0  0  0  0  0  0  0  0  0
   -0.6085   -0.9393   -9.4631 N   0  0  0  0  0  0  0  0  0  0  0  0
   -1.5649    1.0567   -9.7008 O   0  0  0  0  0  0  0  0  0  0  0  0
    5.5473   -0.4131  -12.1922 C   0  0  2  0  0  0  0  0  0  0  0  0
    4.8021   -0.9179   -9.8946 N   0  0  0  0  0  0  0  0  0  0  0  0
   -0.1945    0.0383   -1.1311 C   0  0  1  0  0  0  0  0  0  0  0  0
   -0.7964    0.4153   -3.4887 N   0  0  2  0  0  0  0  0  0  0  0  0
    5.9624   -4.2686   -8.6739 O   0  0  0  0  0  0  0  0  0  0  0  0
    6.8597   -0.7574   -8.9170 O   0  0  0  0  0  0  0  0  0  0  0  0
    6.8610   -0.9178  -11.9803 O   0  0  0  0  0  0  0  0  0  0  0  0
    0.8991   -0.0034   -0.0287 C   0  0  1  0  0  0  0  0  0  0  0  0
    0.2976   -0.0750    1.3938 C   0  0  1  0  0  0  0  0  0  0  0  0
    1.3568   -0.0850    2.4072 N   0  0  1  0  0  0  0  0  0  0  0  0
    2.7391    5.8699   -8.0106 H   0  0  0  0  0  0  0  0  0  0  0  0
    1.9572    2.8309   -6.6753 H   0  0  0  0  0  0  0  0  0  0  0  0
    0.4744    3.8512   -7.9087 H   0  0  0  0  0  0  0  0  0  0  0  0
    2.5144    5.8960  -10.1179 H   0  0  0  0  0  0  0  0  0  0  0  0
    4.7195    1.9203   -6.8322 H   0  0  0  0  0  0  0  0  0  0  0  0
    4.0574    2.4045   -5.2801 H   0  0  0  0  0  0  0  0  0  0  0  0
    0.9226    4.2238   -5.6436 H   0  0  0  0  0  0  0  0  0  0  0  0
    1.6348    5.8151   -5.9025 H   0  0  0  0  0  0  0  0  0  0  0  0
    2.4273    0.4196   -6.8601 H   0  0  0  0  0  0  0  0  0  0  0  0
   -0.3646    6.3143   -4.7627 H   0  0  0  0  0  0  0  0  0  0  0  0
    2.7287    1.0505   -4.1113 H   0  0  0  0  0  0  0  0  0  0  0  0
   -1.6429    4.4951   -6.5044 H   0  0  0  0  0  0  0  0  0  0  0  0
   -1.5425    7.5758   -6.3186 H   0  0  0  0  0  0  0  0  0  0  0  0
   -1.0973    7.6329   -9.7333 H   0  0  0  0  0  0  0  0  0  0  0  0
   -1.8649    8.3134   -8.4037 H   0  0  0  0  0  0  0  0  0  0  0  0
    0.1991    2.8119  -10.2512 H   0  0  0  0  0  0  0  0  0  0  0  0
    4.1231    2.4243  -10.1502 H   0  0  0  0  0  0  0  0  0  0  0  0
    3.3089   -1.4403   -7.7038 H   0  0  0  0  0  0  0  0  0  0  0  0
    1.4775    0.2999   -9.8543 H   0  0  0  0  0  0  0  0  0  0  0  0
    0.8018   -1.7988   -2.9548 H   0  0  0  0  0  0  0  0  0  0  0  0
    2.1988   -0.8485   -2.4526 H   0  0  0  0  0  0  0  0  0  0  0  0
    6.0796   -2.1847   -7.0600 H   0  0  0  0  0  0  0  0  0  0  0  0
    5.6272    0.8926  -10.4857 H   0  0  0  0  0  0  0  0  0  0  0  0
    0.8805    1.2449   -2.5796 H   0  0  0  0  0  0  0  0  0  0  0  0
    4.4533   -4.0492   -7.3021 H   0  0  0  0  0  0  0  0  0  0  0  0
    4.0681   -3.5133   -8.9476 H   0  0  0  0  0  0  0  0  0  0  0  0
   -1.4772   -1.3420   -9.3155 H   0  0  0  0  0  0  0  0  0  0  0  0
    0.1869   -1.4936   -9.4519 H   0  0  0  0  0  0  0  0  0  0  0  0
    5.6028    0.3919  -12.9274 H   0  0  0  0  0  0  0  0  0  0  0  0
    4.9289   -1.2152  -12.5994 H   0  0  0  0  0  0  0  0  0  0  0  0
    3.9558   -1.3914   -9.8783 H   0  0  0  0  0  0  0  0  0  0  0  0
   -0.9007    0.8376   -0.8877 H   0  0  0  0  0  0  0  0  0  0  0  0
   -0.7451   -0.9066   -1.1132 H   0  0  0  0  0  0  0  0  0  0  0  0
   -1.3920    1.1668   -3.1367 H   0  0  0  0  0  0  0  0  0  0  0  0
   -1.3345   -0.4505   -3.4180 H   0  0  0  0  0  0  0  0  0  0  0  0
    5.6124   -5.1700   -8.8377 H   0  0  0  0  0  0  0  0  0  0  0  0
    7.1402   -1.2699  -12.8497 H   0  0  0  0  0  0  0  0  0  0  0  0
    1.5318   -0.8823   -0.1724 H   0  0  0  0  0  0  0  0  0  0  0  0
    1.5259    0.8884   -0.1052 H   0  0  0  0  0  0  0  0  0  0  0  0
   -0.3470    0.7884    1.5751 H   0  0  0  0  0  0  0  0  0  0  0  0
   -0.2978   -0.9851    1.5019 H   0  0  0  0  0  0  0  0  0  0  0  0
    0.8949   -0.1860    3.3124 H   0  0  0  0  0  0  0  0  0  0  0  0
    1.9039   -0.9339    2.2557 H   0  0  0  0  0  0  0  0  0  0  0  0
  1  2  2  0  0  0  0 
  3  2  1  0  0  0  0 
  2  4  1  0  0  0  0 
  3  5  1  0  0  0  0 
  3  6  1  0  0  0  0 
  4  7  1  0  0  0  0 
  5  8  1  0  0  0  0 
  5  9  1  0  0  0  0 
  6 10  1  0  0  0  0 
 11  7  1  0  0  0  0 
 12  8  1  0  0  0  0 
  9 13  2  0  0  0  0 
 10 14  2  0  0  0  0 
 10 15  1  0  0  0  0 
 11 16  1  0  0  0  0 
 11 17  1  0  0  0  0 
 12 18  1  0  0  0  0 
 12 19  1  0  0  0  0 
 13 19  1  0  0  0  0 
 13 20  1  0  0  0  0 
 15 21  2  0  0  0  0 
 15 22  1  0  0  0  0 
 16 23  1  0  0  0  0 
 17 24  2  0  0  0  0 
 17 25  1  0  0  0  0 
 21 26  1  0  0  0  0 
 22 27  1  0  0  0  0 
 23 28  1  0  0  0  0 
 23 29  2  0  0  0  0 
 30 25  1  0  0  0  0 
 26 31  1  0  0  0  0 
 27 32  2  0  0  0  0 
 33 27  1  0  0  0  0 
 34 28  1  0  0  0  0 
 30 35  1  0  0  0  0 
 30 36  1  0  0  0  0 
 31 37  1  0  0  0  0 
 31 38  2  0  0  0  0 
 33 39  1  0  0  0  0 
 33 40  1  0  0  0  0 
 34 41  1  0  0  0  0 
 34 42  1  0  0  0  0 
 35 43  1  0  0  0  0 
 36 40  1  0  0  0  0 
 36 44  2  0  0  0  0 
 39 45  1  0  0  0  0 
 41 46  1  0  0  0  0 
 46 47  1  0  0  0  0 
 47 48  1  0  0  0  0 
  3 49  1  0  0  0  0 
 50  4  1  0  0  0  0 
  5 51  1  0  0  0  0 
 52  6  1  0  0  0  0 
 53  7  1  0  0  0  0 
 54  7  1  0  0  0  0 
 55  8  1  0  0  0  0 
 56  8  1  0  0  0  0 
 11 57  1  0  0  0  0 
 12 58  1  0  0  0  0 
 59 16  1  0  0  0  0 
 60 18  1  0  0  0  0 
 61 19  1  0  0  0  0 
 62 20  1  0  0  0  0 
 63 20  1  0  0  0  0 
 21 64  1  0  0  0  0 
 65 22  1  0  0  0  0 
 66 25  1  0  0  0  0 
 67 26  1  0  0  0  0 
 68 28  1  0  0  0  0 
 69 28  1  0  0  0  0 
 30 70  1  0  0  0  0 
 33 71  1  0  0  0  0 
 34 72  1  0  0  0  0 
 73 35  1  0  0  0  0 
 74 35  1  0  0  0  0 
 75 37  1  0  0  0  0 
 76 37  1  0  0  0  0 
 77 39  1  0  0  0  0 
 78 39  1  0  0  0  0 
 79 40  1  0  0  0  0 
 80 41  1  0  0  0  0 
 81 41  1  0  0  0  0 
 82 42  1  0  0  0  0 
 83 42  1  0  0  0  0 
 84 43  1  0  0  0  0 
 85 45  1  0  0  0  0 
 86 46  1  0  0  0  0 
 87 46  1  0  0  0  0 
 88 47  1  0  0  0  0 
 89 47  1  0  0  0  0 
 90 48  1  0  0  0  0 
 91 48  1  0  0  0  0 
M  END
> <cdk:Title>
viomycin

> <Conformer>
1

> <SuperDrugID>
SD002553

$$$$
