mitolactol
  CDK     0628171802

 24 23  0  0  0  0  0  0  0  0999 V2000
    2.6044   -2.8561   -0.2952 C   0  0  1  0  0  0  0  0  0  0  0  0
    1.7426   -1.7580   -0.9999 C   0  0  2  0  0  0  0  0  0  0  0  0
    3.9236   -2.3598    0.3775 C   0  0  2  0  0  0  0  0  0  0  0  0
    1.8034   -3.5201    0.6858 O   0  0  0  0  0  0  0  0  0  0  0  0
    2.4492   -0.9385   -2.1265 C   0  0  1  0  0  0  0  0  0  0  0  0
    1.2194   -0.8467   -0.0304 O   0  0  0  0  0  0  0  0  0  0  0  0
    4.8089   -3.5031    0.9334 C   0  0  1  0  0  0  0  0  0  0  0  0
    3.6332   -1.4777    1.4608 O   0  0  0  0  0  0  0  0  0  0  0  0
    2.9843   -1.7822   -3.3105 C   0  0  2  0  0  0  0  0  0  0  0  0
    1.5227    0.0057   -2.6621 O   0  0  0  0  0  0  0  0  0  0  0  0
    5.5034   -4.6404   -0.4640 Br  0  0  0  0  0  0  0  0  0  0  0  0
    3.8701   -0.6647   -4.6136 Br  0  0  0  0  0  0  0  0  0  0  0  0
    2.8512   -3.6081   -1.0467 H   0  0  0  0  0  0  0  0  0  0  0  0
    0.8791   -2.2554   -1.4516 H   0  0  0  0  0  0  0  0  0  0  0  0
    4.5252   -1.8093   -0.3472 H   0  0  0  0  0  0  0  0  0  0  0  0
    1.0452   -3.8982    0.1920 H   0  0  0  0  0  0  0  0  0  0  0  0
    3.2741   -0.3652   -1.7014 H   0  0  0  0  0  0  0  0  0  0  0  0
    0.6826   -1.3953    0.5811 H   0  0  0  0  0  0  0  0  0  0  0  0
    5.6649   -3.0781    1.4619 H   0  0  0  0  0  0  0  0  0  0  0  0
    4.2449   -4.1170    1.6378 H   0  0  0  0  0  0  0  0  0  0  0  0
    3.2187   -0.6921    1.0495 H   0  0  0  0  0  0  0  0  0  0  0  0
    2.1633   -2.3051   -3.8015 H   0  0  0  0  0  0  0  0  0  0  0  0
    3.7078   -2.5191   -2.9656 H   0  0  0  0  0  0  0  0  0  0  0  0
    1.3280    0.6231   -1.9265 H   0  0  0  0  0  0  0  0  0  0  0  0
  2  1  1  0  0  0  0 
  1  3  1  0  0  0  0 
  1  4  1  0  0  0  0 
  5  2  1  0  0  0  0 
  2  6  1  0  0  0  0 
  3  7  1  0  0  0  0 
  3  8  1  0  0  0  0 
  5  9  1  0  0  0  0 
  5 10  1  0  0  0  0 
  7 11  1  0  0  0  0 
  9 12  1  0  0  0  0 
  1 13  1  0  0  0  0 
  2 14  1  0  0  0  0 
  3 15  1  0  0  0  0 
  4 16  1  0  0  0  0 
  5 17  1  0  0  0  0 
  6 18  1  0  0  0  0 
  7 19  1  0  0  0  0 
  7 20  1  0  0  0  0 
  8 21  1  0  0  0  0 
  9 22  1  0  0  0  0 
  9 23  1  0  0  0  0 
 10 24  1  0  0  0  0 
M  END
> <cdk:Title>
mitolactol

> <Conformer>
1

> <SuperDrugID>
SD000760

$$$$
