dimepheptanol
  CDK     0628171801

 52 53  0  0  0  0  0  0  0  0999 V2000
    2.2846    3.3768    1.8671 C   0  0  2  0  0  0  0  0  0  0  0  0
    2.7253    2.1936    2.8404 C   0  0  1  0  0  0  0  0  0  0  0  0
    1.2630    2.7838    0.7717 C   0  0  1  0  0  0  0  0  0  0  0  0
    3.4196    4.0035    1.0362 C   0  0  0  0  0  0  0  0  0  0  0  0
    1.6244    4.4313    2.7801 C   0  0  0  0  0  0  0  0  0  0  0  0
    3.6589    2.4789    4.0788 C   0  0  1  0  0  0  0  0  0  0  0  0
    1.7123    1.6126   -0.1771 C   0  0  1  0  0  0  0  0  0  0  0  0
    0.0554    2.2706    1.3361 O   0  0  0  0  0  0  0  0  0  0  0  0
    3.1431    5.1291    0.2006 C   0  0  0  0  0  0  0  0  0  0  0  0
    4.7675    3.5452    1.0250 C   0  0  0  0  0  0  0  0  0  0  0  0
    2.2031    5.7100    3.0497 C   0  0  0  0  0  0  0  0  0  0  0  0
    0.4218    4.1629    3.5002 C   0  0  0  0  0  0  0  0  0  0  0  0
    3.0493    3.3759    5.1305 N   0  0  1  0  0  0  0  0  0  0  0  0
    4.2046    1.1435    4.6681 C   0  0  0  0  0  0  0  0  0  0  0  0
    2.8048    1.8974   -1.2354 C   0  0  0  0  0  0  0  0  0  0  0  0
    4.1406    5.7857   -0.5406 C   0  0  0  0  0  0  0  0  0  0  0  0
    5.7719    4.1939    0.2818 C   0  0  0  0  0  0  0  0  0  0  0  0
    1.5709    6.6835    3.8436 C   0  0  0  0  0  0  0  0  0  0  0  0
   -0.2253    5.1294    4.2926 C   0  0  0  0  0  0  0  0  0  0  0  0
    2.1074    2.7577    6.1107 C   0  0  0  0  0  0  0  0  0  0  0  0
    4.0006    4.3173    5.7950 C   0  0  0  0  0  0  0  0  0  0  0  0
    5.4606    5.3151   -0.5017 C   0  0  0  0  0  0  0  0  0  0  0  0
    0.3387    6.4031    4.4486 C   0  0  0  0  0  0  0  0  0  0  0  0
    1.8327    1.6997    3.2297 H   0  0  0  0  0  0  0  0  0  0  0  0
    3.2253    1.4370    2.2334 H   0  0  0  0  0  0  0  0  0  0  0  0
    0.9162    3.5913    0.1223 H   0  0  0  0  0  0  0  0  0  0  0  0
    4.5359    2.9919    3.6875 H   0  0  0  0  0  0  0  0  0  0  0  0
    2.0120    0.7426    0.4092 H   0  0  0  0  0  0  0  0  0  0  0  0
    0.8338    1.3006   -0.7531 H   0  0  0  0  0  0  0  0  0  0  0  0
   -0.4927    3.0583    1.5400 H   0  0  0  0  0  0  0  0  0  0  0  0
    2.1961    5.5095    0.1441 H   0  0  0  0  0  0  0  0  0  0  0  0
    5.0495    2.7112    1.5356 H   0  0  0  0  0  0  0  0  0  0  0  0
    3.1206    5.9633    2.6855 H   0  0  0  0  0  0  0  0  0  0  0  0
   -0.0036    3.2381    3.4910 H   0  0  0  0  0  0  0  0  0  0  0  0
    4.8480    1.3340    5.5271 H   0  0  0  0  0  0  0  0  0  0  0  0
    4.7906    0.6094    3.9197 H   0  0  0  0  0  0  0  0  0  0  0  0
    3.3878    0.4937    4.9830 H   0  0  0  0  0  0  0  0  0  0  0  0
    2.7617    1.1392   -2.0211 H   0  0  0  0  0  0  0  0  0  0  0  0
    3.7969    1.8421   -0.7915 H   0  0  0  0  0  0  0  0  0  0  0  0
    2.6579    2.8757   -1.6970 H   0  0  0  0  0  0  0  0  0  0  0  0
    3.9037    6.6067   -1.1021 H   0  0  0  0  0  0  0  0  0  0  0  0
    6.7321    3.8471    0.3063 H   0  0  0  0  0  0  0  0  0  0  0  0
    2.0143    7.5941    3.9852 H   0  0  0  0  0  0  0  0  0  0  0  0
   -1.1016    4.9003    4.7663 H   0  0  0  0  0  0  0  0  0  0  0  0
    1.4851    3.5306    6.5673 H   0  0  0  0  0  0  0  0  0  0  0  0
    1.4425    2.0426    5.6264 H   0  0  0  0  0  0  0  0  0  0  0  0
    2.6530    2.2438    6.9061 H   0  0  0  0  0  0  0  0  0  0  0  0
    4.5422    4.9048    5.0519 H   0  0  0  0  0  0  0  0  0  0  0  0
    3.4672    5.0227    6.4367 H   0  0  0  0  0  0  0  0  0  0  0  0
    4.7250    3.7716    6.4032 H   0  0  0  0  0  0  0  0  0  0  0  0
    6.1906    5.7859   -1.0430 H   0  0  0  0  0  0  0  0  0  0  0  0
   -0.1348    7.1140    5.0125 H   0  0  0  0  0  0  0  0  0  0  0  0
  1  2  1  0  0  0  0 
  1  3  1  0  0  0  0 
  1  4  1  0  0  0  0 
  1  5  1  0  0  0  0 
  2  6  1  0  0  0  0 
  3  7  1  0  0  0  0 
  3  8  1  0  0  0  0 
  4  9  2  0  0  0  0 
  4 10  1  0  0  0  0 
  5 11  2  0  0  0  0 
  5 12  1  0  0  0  0 
  6 13  1  0  0  0  0 
  6 14  1  0  0  0  0 
  7 15  1  0  0  0  0 
  9 16  1  0  0  0  0 
 10 17  2  0  0  0  0 
 11 18  1  0  0  0  0 
 12 19  2  0  0  0  0 
 13 20  1  0  0  0  0 
 13 21  1  0  0  0  0 
 16 22  2  0  0  0  0 
 17 22  1  0  0  0  0 
 18 23  2  0  0  0  0 
 19 23  1  0  0  0  0 
  2 24  1  0  0  0  0 
  2 25  1  0  0  0  0 
  3 26  1  0  0  0  0 
  6 27  1  0  0  0  0 
  7 28  1  0  0  0  0 
  7 29  1  0  0  0  0 
  8 30  1  0  0  0  0 
  9 31  1  0  0  0  0 
 10 32  1  0  0  0  0 
 11 33  1  0  0  0  0 
 12 34  1  0  0  0  0 
 14 35  1  0  0  0  0 
 14 36  1  0  0  0  0 
 14 37  1  0  0  0  0 
 15 38  1  0  0  0  0 
 15 39  1  0  0  0  0 
 15 40  1  0  0  0  0 
 16 41  1  0  0  0  0 
 17 42  1  0  0  0  0 
 18 43  1  0  0  0  0 
 19 44  1  0  0  0  0 
 20 45  1  0  0  0  0 
 20 46  1  0  0  0  0 
 20 47  1  0  0  0  0 
 21 48  1  0  0  0  0 
 21 49  1  0  0  0  0 
 21 50  1  0  0  0  0 
 22 51  1  0  0  0  0 
 23 52  1  0  0  0  0 
M  END
> <cdk:Title>
dimepheptanol

> <Conformer>
1

> <SuperDrugID>
SD003187

$$$$
