medroxalol
  CDK     0628171801

 51 53  0  0  0  0  0  0  0  0999 V2000
   -2.9668   -1.3485   -3.8985 C   0  0  2  0  0  0  0  0  0  0  0  0
   -4.4413   -0.8479   -3.8741 C   0  0  2  0  0  0  0  0  0  0  0  0
   -2.1100   -0.4787   -4.7496 C   0  0  0  0  0  0  0  0  0  0  0  0
   -5.3455   -1.5943   -2.8432 C   0  0  1  0  0  0  0  0  0  0  0  0
   -2.0495   -0.6838   -6.1516 C   0  0  0  0  0  0  0  0  0  0  0  0
   -1.3658    0.5897   -4.1801 C   0  0  0  0  0  0  0  0  0  0  0  0
   -4.7967   -1.5973   -1.4566 N   0  0  1  0  0  0  0  0  0  0  0  0
   -6.8237   -1.1186   -2.9038 C   0  0  0  0  0  0  0  0  0  0  0  0
   -1.2753    0.1793   -6.9458 C   0  0  0  0  0  0  0  0  0  0  0  0
   -0.5936    1.4478   -4.9919 C   0  0  0  0  0  0  0  0  0  0  0  0
   -4.6446   -0.3039   -0.7428 C   0  0  1  0  0  0  0  0  0  0  0  0
   -0.5637    1.2250   -6.3788 C   0  0  0  0  0  0  0  0  0  0  0  0
   -1.1252    0.1316   -8.2818 O   0  0  0  0  0  0  0  0  0  0  0  0
   -3.9343   -0.5010    0.6181 C   0  0  2  0  0  0  0  0  0  0  0  0
    0.1036    1.9378   -7.3046 O   0  0  0  0  0  0  0  0  0  0  0  0
   -0.2253    1.2315   -8.5171 C   0  0  1  0  0  0  0  0  0  0  0  0
   -3.9149    0.7525    1.3039 O   0  0  0  0  0  0  0  0  0  0  0  0
   -2.5565   -1.0556    0.4596 C   0  0  0  0  0  0  0  0  0  0  0  0
   -1.4520   -0.2064    0.2155 C   0  0  0  0  0  0  0  0  0  0  0  0
   -2.3296   -2.4480    0.5307 C   0  0  0  0  0  0  0  0  0  0  0  0
   -0.1324   -0.7063    0.0554 C   0  0  0  0  0  0  0  0  0  0  0  0
   -1.0387   -2.9714    0.3563 C   0  0  0  0  0  0  0  0  0  0  0  0
    0.9609    0.1853   -0.1638 C   0  0  0  0  0  0  0  0  0  0  0  0
    0.0526   -2.1143    0.1311 C   0  0  0  0  0  0  0  0  0  0  0  0
    0.8248    1.5211   -0.2487 N   0  0  0  0  0  0  0  0  0  0  0  0
    2.1393   -0.2202   -0.2848 O   0  0  0  0  0  0  0  0  0  0  0  0
    1.2679   -2.7068    0.0075 O   0  0  0  0  0  0  0  0  0  0  0  0
   -2.9383   -2.3779   -4.2729 H   0  0  0  0  0  0  0  0  0  0  0  0
   -2.5610   -1.3727   -2.8827 H   0  0  0  0  0  0  0  0  0  0  0  0
   -4.8654   -0.9816   -4.8746 H   0  0  0  0  0  0  0  0  0  0  0  0
   -4.4634    0.2244   -3.6614 H   0  0  0  0  0  0  0  0  0  0  0  0
   -5.3577   -2.6466   -3.1458 H   0  0  0  0  0  0  0  0  0  0  0  0
   -2.5641   -1.4472   -6.5952 H   0  0  0  0  0  0  0  0  0  0  0  0
   -1.3878    0.7559   -3.1711 H   0  0  0  0  0  0  0  0  0  0  0  0
   -5.4072   -2.1919   -0.8908 H   0  0  0  0  0  0  0  0  0  0  0  0
   -7.4280   -1.6809   -2.1880 H   0  0  0  0  0  0  0  0  0  0  0  0
   -7.2355   -1.2861   -3.9026 H   0  0  0  0  0  0  0  0  0  0  0  0
   -6.9035   -0.0544   -2.6735 H   0  0  0  0  0  0  0  0  0  0  0  0
   -0.0690    2.2216   -4.5801 H   0  0  0  0  0  0  0  0  0  0  0  0
   -4.0687    0.4023   -1.3431 H   0  0  0  0  0  0  0  0  0  0  0  0
   -5.6300    0.1254   -0.5553 H   0  0  0  0  0  0  0  0  0  0  0  0
   -4.5423   -1.1709    1.2326 H   0  0  0  0  0  0  0  0  0  0  0  0
    0.6920    0.8499   -8.9696 H   0  0  0  0  0  0  0  0  0  0  0  0
   -0.6857    1.9260   -9.2220 H   0  0  0  0  0  0  0  0  0  0  0  0
   -3.4244    0.5838    2.1356 H   0  0  0  0  0  0  0  0  0  0  0  0
   -1.6261    0.7986    0.1611 H   0  0  0  0  0  0  0  0  0  0  0  0
   -3.1026   -3.0953    0.7045 H   0  0  0  0  0  0  0  0  0  0  0  0
   -0.8926   -3.9842    0.3951 H   0  0  0  0  0  0  0  0  0  0  0  0
    1.6083    2.0723   -0.3951 H   0  0  0  0  0  0  0  0  0  0  0  0
   -0.0464    1.9373   -0.1662 H   0  0  0  0  0  0  0  0  0  0  0  0
    1.4369   -2.7333   -0.9572 H   0  0  0  0  0  0  0  0  0  0  0  0
  1  2  1  0  0  0  0 
  1  3  1  0  0  0  0 
  2  4  1  0  0  0  0 
  3  5  2  0  0  0  0 
  3  6  1  0  0  0  0 
  4  7  1  0  0  0  0 
  4  8  1  0  0  0  0 
  5  9  1  0  0  0  0 
  6 10  2  0  0  0  0 
  7 11  1  0  0  0  0 
  9 12  2  0  0  0  0 
  9 13  1  0  0  0  0 
 10 12  1  0  0  0  0 
 11 14  1  0  0  0  0 
 12 15  1  0  0  0  0 
 13 16  1  0  0  0  0 
 14 17  1  0  0  0  0 
 14 18  1  0  0  0  0 
 15 16  1  0  0  0  0 
 18 19  2  0  0  0  0 
 18 20  1  0  0  0  0 
 19 21  1  0  0  0  0 
 20 22  2  0  0  0  0 
 21 23  1  0  0  0  0 
 21 24  2  0  0  0  0 
 22 24  1  0  0  0  0 
 23 25  1  0  0  0  0 
 23 26  2  0  0  0  0 
 24 27  1  0  0  0  0 
  1 28  1  0  0  0  0 
  1 29  1  0  0  0  0 
  2 30  1  0  0  0  0 
  2 31  1  0  0  0  0 
  4 32  1  0  0  0  0 
  5 33  1  0  0  0  0 
  6 34  1  0  0  0  0 
  7 35  1  0  0  0  0 
  8 36  1  0  0  0  0 
  8 37  1  0  0  0  0 
  8 38  1  0  0  0  0 
 10 39  1  0  0  0  0 
 11 40  1  0  0  0  0 
 11 41  1  0  0  0  0 
 14 42  1  0  0  0  0 
 16 43  1  0  0  0  0 
 16 44  1  0  0  0  0 
 17 45  1  0  0  0  0 
 19 46  1  0  0  0  0 
 20 47  1  0  0  0  0 
 22 48  1  0  0  0  0 
 25 49  1  0  0  0  0 
 25 50  1  0  0  0  0 
 27 51  1  0  0  0  0 
M  END
> <cdk:Title>
medroxalol

> <Conformer>
1

> <SuperDrugID>
SD001468

$$$$
