mebicar
  CDK     0628171802

 28 29  0  0  0  0  0  0  0  0999 V2000
   -2.0890   -0.6631   -0.5091 N   0  0  0  0  0  0  0  0  0  0  0  0
   -0.8024   -1.0215   -0.6904 C   0  0  0  0  0  0  0  0  0  0  0  0
    0.0208   -0.2970    0.1029 N   0  0  0  0  0  0  0  0  0  0  0  0
   -0.7302    0.6088    0.9213 C   0  0  2  0  0  0  0  0  0  0  0  0
   -2.1792    0.4311    0.4038 C   0  0  1  0  0  0  0  0  0  0  0  0
   -2.4726    1.6963   -0.1998 N   0  0  0  0  0  0  0  0  0  0  0  0
   -0.4629    1.9974    0.7113 N   0  0  0  0  0  0  0  0  0  0  0  0
   -1.4717    2.5760    0.0271 C   0  0  0  0  0  0  0  0  0  0  0  0
   -0.4335   -1.9210   -1.4831 O   0  0  0  0  0  0  0  0  0  0  0  0
   -1.4735    3.7770   -0.3355 O   0  0  0  0  0  0  0  0  0  0  0  0
    0.6774    2.7094    1.2128 C   0  0  0  0  0  0  0  0  0  0  0  0
    1.4466   -0.4458    0.1632 C   0  0  0  0  0  0  0  0  0  0  0  0
   -3.6809    1.9865   -0.9184 C   0  0  0  0  0  0  0  0  0  0  0  0
   -3.2052   -1.3241   -1.1248 C   0  0  0  0  0  0  0  0  0  0  0  0
   -0.6499    0.3392    1.9814 H   0  0  0  0  0  0  0  0  0  0  0  0
   -2.8692    0.2147    1.2282 H   0  0  0  0  0  0  0  0  0  0  0  0
    1.2458    3.1416    0.3855 H   0  0  0  0  0  0  0  0  0  0  0  0
    1.3411    2.0600    1.7879 H   0  0  0  0  0  0  0  0  0  0  0  0
    0.3419    3.5137    1.8733 H   0  0  0  0  0  0  0  0  0  0  0  0
    1.9235    0.4637   -0.2001 H   0  0  0  0  0  0  0  0  0  0  0  0
    1.8085   -1.2789   -0.4447 H   0  0  0  0  0  0  0  0  0  0  0  0
    1.7619   -0.6223    1.1924 H   0  0  0  0  0  0  0  0  0  0  0  0
   -4.5497    1.6743   -0.3358 H   0  0  0  0  0  0  0  0  0  0  0  0
   -3.7868    3.0497   -1.1409 H   0  0  0  0  0  0  0  0  0  0  0  0
   -3.6745    1.4481   -1.8667 H   0  0  0  0  0  0  0  0  0  0  0  0
   -3.1983   -2.3835   -0.8617 H   0  0  0  0  0  0  0  0  0  0  0  0
   -4.1604   -0.9079   -0.7996 H   0  0  0  0  0  0  0  0  0  0  0  0
   -3.1426   -1.2318   -2.2106 H   0  0  0  0  0  0  0  0  0  0  0  0
  1  2  1  0  0  0  0 
  2  3  1  0  0  0  0 
  1  5  1  0  0  0  0 
  3  4  1  0  0  0  0 
  6  5  1  0  0  0  0 
  5  4  1  0  0  0  0 
  4  7  1  0  0  0  0 
  7  8  1  0  0  0  0 
  6  8  1  0  0  0  0 
  2  9  2  0  0  0  0 
  8 10  2  0  0  0  0 
  7 11  1  0  0  0  0 
  3 12  1  0  0  0  0 
  6 13  1  0  0  0  0 
  1 14  1  0  0  0  0 
  4 15  1  0  0  0  0 
  5 16  1  0  0  0  0 
 11 17  1  0  0  0  0 
 11 18  1  0  0  0  0 
 11 19  1  0  0  0  0 
 12 20  1  0  0  0  0 
 12 21  1  0  0  0  0 
 12 22  1  0  0  0  0 
 13 23  1  0  0  0  0 
 13 24  1  0  0  0  0 
 13 25  1  0  0  0  0 
 14 26  1  0  0  0  0 
 14 27  1  0  0  0  0 
 14 28  1  0  0  0  0 
M  END
> <cdk:Title>
mebicar

> <Conformer>
1

> <SuperDrugID>
SD003804

$$$$
