nealbarbital
  CDK     0628171801

 35 35  0  0  0  0  0  0  0  0999 V2000
    2.1452   -1.1748    1.2247 C   0  0  2  0  0  0  0  0  0  0  0  0
    2.0738   -0.4532   -0.1856 C   0  0  2  0  0  0  0  0  0  0  0  0
    1.6829   -2.6703    1.4681 C   0  0  2  0  0  0  0  0  0  0  0  0
    2.9618   -1.1601   -1.2618 C   0  0  0  0  0  0  0  0  0  0  0  0
    2.6325    1.0031    0.0097 C   0  0  0  0  0  0  0  0  0  0  0  0
    0.6179   -0.3158   -0.7425 C   0  0  0  0  0  0  0  0  0  0  0  0
    1.8260   -3.0544    2.9953 C   0  0  1  0  0  0  0  0  0  0  0  0
    2.4926   -3.6504    0.6611 C   0  0  0  0  0  0  0  0  0  0  0  0
    0.2185   -2.8322    1.1529 C   0  0  0  0  0  0  0  0  0  0  0  0
    3.1687   -3.0144    3.5686 C   0  0  0  0  0  0  0  0  0  0  0  0
    3.7438   -3.6651    0.7240 O   0  0  0  0  0  0  0  0  0  0  0  0
    1.9219   -4.5720   -0.1574 N   0  0  0  0  0  0  0  0  0  0  0  0
   -0.6455   -2.1003    1.6896 O   0  0  0  0  0  0  0  0  0  0  0  0
   -0.2486   -3.7762    0.2949 N   0  0  0  0  0  0  0  0  0  0  0  0
    3.6813   -1.9534    4.2054 C   0  0  0  0  0  0  0  0  0  0  0  0
    0.5829   -4.6315   -0.3462 C   0  0  0  0  0  0  0  0  0  0  0  0
    0.1095   -5.4879   -1.1258 O   0  0  0  0  0  0  0  0  0  0  0  0
    1.5897   -0.5506    1.9331 H   0  0  0  0  0  0  0  0  0  0  0  0
    3.1889   -1.1135    1.5436 H   0  0  0  0  0  0  0  0  0  0  0  0
    2.5408   -2.1220   -1.5530 H   0  0  0  0  0  0  0  0  0  0  0  0
    3.9741   -1.3249   -0.8872 H   0  0  0  0  0  0  0  0  0  0  0  0
    3.0331   -0.5547   -2.1677 H   0  0  0  0  0  0  0  0  0  0  0  0
    3.6602    0.9842    0.3805 H   0  0  0  0  0  0  0  0  0  0  0  0
    2.0267    1.5614    0.7278 H   0  0  0  0  0  0  0  0  0  0  0  0
    2.6304    1.5620   -0.9293 H   0  0  0  0  0  0  0  0  0  0  0  0
    0.2218   -1.2794   -1.0622 H   0  0  0  0  0  0  0  0  0  0  0  0
   -0.0498    0.1046    0.0131 H   0  0  0  0  0  0  0  0  0  0  0  0
    0.5957    0.3407   -1.6164 H   0  0  0  0  0  0  0  0  0  0  0  0
    1.1719   -2.4150    3.5991 H   0  0  0  0  0  0  0  0  0  0  0  0
    1.4542   -4.0759    3.1398 H   0  0  0  0  0  0  0  0  0  0  0  0
    3.7372   -3.8272    3.4853 H   0  0  0  0  0  0  0  0  0  0  0  0
    2.4909   -5.2060   -0.6215 H   0  0  0  0  0  0  0  0  0  0  0  0
   -1.2043   -3.8422    0.1383 H   0  0  0  0  0  0  0  0  0  0  0  0
    3.1628   -1.1142    4.3066 H   0  0  0  0  0  0  0  0  0  0  0  0
    4.5955   -1.9963    4.5865 H   0  0  0  0  0  0  0  0  0  0  0  0
  1  2  1  0  0  0  0 
  1  3  1  0  0  0  0 
  2  4  1  0  0  0  0 
  2  5  1  0  0  0  0 
  2  6  1  0  0  0  0 
  3  7  1  0  0  0  0 
  3  8  1  0  0  0  0 
  3  9  1  0  0  0  0 
  7 10  1  0  0  0  0 
  8 11  2  0  0  0  0 
  8 12  1  0  0  0  0 
  9 13  2  0  0  0  0 
  9 14  1  0  0  0  0 
 10 15  2  0  0  0  0 
 12 16  1  0  0  0  0 
 14 16  1  0  0  0  0 
 16 17  2  0  0  0  0 
 18  1  1  0  0  0  0 
 19  1  1  0  0  0  0 
 20  4  1  0  0  0  0 
 21  4  1  0  0  0  0 
 22  4  1  0  0  0  0 
 23  5  1  0  0  0  0 
 24  5  1  0  0  0  0 
 25  5  1  0  0  0  0 
 26  6  1  0  0  0  0 
 27  6  1  0  0  0  0 
 28  6  1  0  0  0  0 
 29  7  1  0  0  0  0 
 30  7  1  0  0  0  0 
 31 10  1  0  0  0  0 
 32 12  1  0  0  0  0 
 33 14  1  0  0  0  0 
 34 15  1  0  0  0  0 
 35 15  1  0  0  0  0 
M  END
> <cdk:Title>
nealbarbital

> <Conformer>
1

> <SuperDrugID>
SD003234

$$$$
