fenamisal
  CDK     0628171801

 28 29  0  0  0  0  0  0  0  0999 V2000
   -1.2503   -1.4752   -1.2048 C   0  0  0  0  0  0  0  0  0  0  0  0
   -0.6741   -1.4234    0.0394 O   0  0  0  0  0  0  0  0  0  0  0  0
   -0.8169   -0.7722   -2.1462 O   0  0  0  0  0  0  0  0  0  0  0  0
   -2.3420   -2.3581   -1.4285 C   0  0  0  0  0  0  0  0  0  0  0  0
    0.3387   -0.6645    0.5769 C   0  0  0  0  0  0  0  0  0  0  0  0
   -2.5549   -2.9961   -2.6803 C   0  0  0  0  0  0  0  0  0  0  0  0
   -3.2600   -2.6205   -0.3809 C   0  0  0  0  0  0  0  0  0  0  0  0
    0.9412    0.4565   -0.0445 C   0  0  0  0  0  0  0  0  0  0  0  0
    0.7915   -1.0491    1.8582 C   0  0  0  0  0  0  0  0  0  0  0  0
   -1.7262   -2.8260   -3.7413 O   0  0  0  0  0  0  0  0  0  0  0  0
   -3.6492   -3.8622   -2.8684 C   0  0  0  0  0  0  0  0  0  0  0  0
   -4.3584   -3.4789   -0.5781 C   0  0  0  0  0  0  0  0  0  0  0  0
    1.9784    1.1620    0.5953 C   0  0  0  0  0  0  0  0  0  0  0  0
    1.8282   -0.3453    2.5004 C   0  0  0  0  0  0  0  0  0  0  0  0
   -4.5554   -4.1096   -1.8213 C   0  0  0  0  0  0  0  0  0  0  0  0
    2.4232    0.7599    1.8672 C   0  0  0  0  0  0  0  0  0  0  0  0
   -5.6002   -4.9422   -2.0135 N   0  0  0  0  0  0  0  0  0  0  0  0
   -3.1455   -2.1771    0.5348 H   0  0  0  0  0  0  0  0  0  0  0  0
    0.6326    0.7815   -0.9596 H   0  0  0  0  0  0  0  0  0  0  0  0
    0.3669   -1.8505    2.3320 H   0  0  0  0  0  0  0  0  0  0  0  0
   -0.8430   -2.6482   -3.3612 H   0  0  0  0  0  0  0  0  0  0  0  0
   -3.7794   -4.3184   -3.7747 H   0  0  0  0  0  0  0  0  0  0  0  0
   -5.0154   -3.6430    0.1882 H   0  0  0  0  0  0  0  0  0  0  0  0
    2.4088    1.9686    0.1355 H   0  0  0  0  0  0  0  0  0  0  0  0
    2.1491   -0.6386    3.4262 H   0  0  0  0  0  0  0  0  0  0  0  0
    3.1757    1.2728    2.3324 H   0  0  0  0  0  0  0  0  0  0  0  0
   -5.7268   -5.3779   -2.8728 H   0  0  0  0  0  0  0  0  0  0  0  0
   -6.2283   -5.1103   -1.2931 H   0  0  0  0  0  0  0  0  0  0  0  0
  1  2  1  0  0  0  0 
  1  3  2  0  0  0  0 
  1  4  1  0  0  0  0 
  2  5  1  0  0  0  0 
  4  6  2  0  0  0  0 
  4  7  1  0  0  0  0 
  5  8  2  0  0  0  0 
  5  9  1  0  0  0  0 
  6 10  1  0  0  0  0 
  6 11  1  0  0  0  0 
  7 12  2  0  0  0  0 
  8 13  1  0  0  0  0 
  9 14  2  0  0  0  0 
 11 15  2  0  0  0  0 
 12 15  1  0  0  0  0 
 13 16  2  0  0  0  0 
 14 16  1  0  0  0  0 
 15 17  1  0  0  0  0 
  7 18  1  0  0  0  0 
  8 19  1  0  0  0  0 
  9 20  1  0  0  0  0 
 10 21  1  0  0  0  0 
 11 22  1  0  0  0  0 
 12 23  1  0  0  0  0 
 13 24  1  0  0  0  0 
 14 25  1  0  0  0  0 
 16 26  1  0  0  0  0 
 17 27  1  0  0  0  0 
 17 28  1  0  0  0  0 
M  END
> <cdk:Title>
fenamisal

> <Conformer>
1

> <SuperDrugID>
SD001923

$$$$
