nadolol
  CDK     0628171801

 49 50  0  0  0  0  0  0  0  0999 V2000
    3.7240    3.3911   -0.2894 C   0  0  0  0  0  0  0  0  0  0  0  0
    4.8895    3.6906    0.4771 C   0  0  0  0  0  0  0  0  0  0  0  0
    4.7674    4.4785    1.6439 C   0  0  0  0  0  0  0  0  0  0  0  0
    3.5117    4.9334    2.0791 C   0  0  0  0  0  0  0  0  0  0  0  0
    2.3583    4.6090    1.3486 C   0  0  0  0  0  0  0  0  0  0  0  0
    2.4555    3.8404    0.1732 C   0  0  0  0  0  0  0  0  0  0  0  0
    5.2445    2.4253   -2.1274 C   0  0  1  0  0  0  0  0  0  0  0  0
    6.2538    2.1034   -0.9969 C   0  0  1  0  0  0  0  0  0  0  0  0
    6.2483    3.2180    0.0824 C   0  0  1  0  0  0  0  0  0  0  0  0
    3.8092    2.6146   -1.5640 C   0  0  1  0  0  0  0  0  0  0  0  0
    5.6577    3.6003   -2.8300 O   0  0  0  0  0  0  0  0  0  0  0  0
    5.9475    0.8464   -0.3917 O   0  0  0  0  0  0  0  0  0  0  0  0
    1.3087    3.6026   -0.5381 O   0  0  0  0  0  0  0  0  0  0  0  0
    0.5628    2.4380   -0.1264 C   0  0  2  0  0  0  0  0  0  0  0  0
   -0.5542    2.1491   -1.1650 C   0  0  2  0  0  0  0  0  0  0  0  0
    0.0121    1.9832   -2.5997 C   0  0  2  0  0  0  0  0  0  0  0  0
   -1.5082    3.2110   -1.1588 O   0  0  0  0  0  0  0  0  0  0  0  0
   -1.0650    1.7171   -3.5852 N   0  0  1  0  0  0  0  0  0  0  0  0
   -0.7166    1.5962   -5.0375 C   0  0  2  0  0  0  0  0  0  0  0  0
    0.2589    0.4043   -5.2960 C   0  0  0  0  0  0  0  0  0  0  0  0
   -0.1206    2.9279   -5.5952 C   0  0  0  0  0  0  0  0  0  0  0  0
   -2.0678    1.3127   -5.7632 C   0  0  0  0  0  0  0  0  0  0  0  0
    5.5952    4.7236    2.1934 H   0  0  0  0  0  0  0  0  0  0  0  0
    3.4372    5.5003    2.9272 H   0  0  0  0  0  0  0  0  0  0  0  0
    1.4469    4.9429    1.6717 H   0  0  0  0  0  0  0  0  0  0  0  0
    5.2401    1.6033   -2.8499 H   0  0  0  0  0  0  0  0  0  0  0  0
    7.2600    2.0225   -1.4195 H   0  0  0  0  0  0  0  0  0  0  0  0
    6.8080    4.0802   -0.2914 H   0  0  0  0  0  0  0  0  0  0  0  0
    6.7772    2.8398    0.9630 H   0  0  0  0  0  0  0  0  0  0  0  0
    3.3718    1.6284   -1.3896 H   0  0  0  0  0  0  0  0  0  0  0  0
    3.2143    3.1107   -2.3367 H   0  0  0  0  0  0  0  0  0  0  0  0
    5.6382    4.3217   -2.1654 H   0  0  0  0  0  0  0  0  0  0  0  0
    6.0557    0.1881   -1.1099 H   0  0  0  0  0  0  0  0  0  0  0  0
    0.1083    2.6094    0.8541 H   0  0  0  0  0  0  0  0  0  0  0  0
    1.2095    1.5581   -0.0562 H   0  0  0  0  0  0  0  0  0  0  0  0
   -1.0722    1.2277   -0.8792 H   0  0  0  0  0  0  0  0  0  0  0  0
    0.7278    1.1596   -2.5985 H   0  0  0  0  0  0  0  0  0  0  0  0
    0.5321    2.8995   -2.8814 H   0  0  0  0  0  0  0  0  0  0  0  0
   -1.8702    3.2269   -0.2477 H   0  0  0  0  0  0  0  0  0  0  0  0
   -1.5131    0.8412   -3.3116 H   0  0  0  0  0  0  0  0  0  0  0  0
    0.3818    0.2291   -6.3665 H   0  0  0  0  0  0  0  0  0  0  0  0
    1.2465    0.6065   -4.8778 H   0  0  0  0  0  0  0  0  0  0  0  0
   -0.1271   -0.5094   -4.8384 H   0  0  0  0  0  0  0  0  0  0  0  0
   -0.7651    3.7699   -5.3330 H   0  0  0  0  0  0  0  0  0  0  0  0
   -0.0302    2.8864   -6.6823 H   0  0  0  0  0  0  0  0  0  0  0  0
    0.8742    3.1170   -5.1892 H   0  0  0  0  0  0  0  0  0  0  0  0
   -2.7737    2.1282   -5.5936 H   0  0  0  0  0  0  0  0  0  0  0  0
   -2.5194    0.3905   -5.3923 H   0  0  0  0  0  0  0  0  0  0  0  0
   -1.9190    1.2095   -6.8401 H   0  0  0  0  0  0  0  0  0  0  0  0
  1  2  2  0  0  0  0 
  2  3  1  0  0  0  0 
  3  4  2  0  0  0  0 
  4  5  1  0  0  0  0 
  5  6  2  0  0  0  0 
  1  6  1  0  0  0  0 
  8  7  1  0  0  0  0 
  8  9  1  0  0  0  0 
  7 10  1  0  0  0  0 
  1 10  1  0  0  0  0 
  9  2  1  0  0  0  0 
  7 11  1  0  0  0  0 
  8 12  1  0  0  0  0 
  6 13  1  0  0  0  0 
 13 14  1  0  0  0  0 
 15 14  1  0  0  0  0 
 15 16  1  0  0  0  0 
 15 17  1  0  0  0  0 
 16 18  1  0  0  0  0 
 18 19  1  0  0  0  0 
 19 20  1  0  0  0  0 
 19 21  1  0  0  0  0 
 19 22  1  0  0  0  0 
  3 23  1  0  0  0  0 
  4 24  1  0  0  0  0 
  5 25  1  0  0  0  0 
  7 26  1  0  0  0  0 
  8 27  1  0  0  0  0 
  9 28  1  0  0  0  0 
  9 29  1  0  0  0  0 
 10 30  1  0  0  0  0 
 10 31  1  0  0  0  0 
 11 32  1  0  0  0  0 
 12 33  1  0  0  0  0 
 14 34  1  0  0  0  0 
 14 35  1  0  0  0  0 
 15 36  1  0  0  0  0 
 16 37  1  0  0  0  0 
 16 38  1  0  0  0  0 
 17 39  1  0  0  0  0 
 18 40  1  0  0  0  0 
 20 41  1  0  0  0  0 
 20 42  1  0  0  0  0 
 20 43  1  0  0  0  0 
 21 44  1  0  0  0  0 
 21 45  1  0  0  0  0 
 21 46  1  0  0  0  0 
 22 47  1  0  0  0  0 
 22 48  1  0  0  0  0 
 22 49  1  0  0  0  0 
M  END
> <cdk:Title>
nadolol

> <Conformer>
1

> <SuperDrugID>
SD001661

$$$$
