ferric oxide
  CDK     0628171801

  5  4  0  0  0  0  0  0  0  0999 V2000
   -0.4541    0.0769    1.6266 Fe  0  0  0  0  0  0  0  0  0  0  0  0
    2.1873   -0.0566    0.0737 Fe  0  0  0  0  0  0  0  0  0  0  0  0
   -0.7855    1.8679    1.3911 O   0  0  0  0  0  0  0  0  0  0  0  0
    2.2763    1.7132   -0.4091 O   0  0  0  0  0  0  0  0  0  0  0  0
    0.2648   -0.1350   -0.1610 O   0  0  0  0  0  0  0  0  0  0  0  0
  1  3  2  0  0  0  0 
  2  4  2  0  0  0  0 
  1  5  1  0  0  0  0 
  5  2  1  0  0  0  0 
M  END
> <cdk:Title>
ferric oxide

> <Conformer>
1

> <SuperDrugID>
SD003567

$$$$
