selenomethionine
  CDK     0628171801

 20 19  0  0  0  0  0  0  0  0999 V2000
   -2.9438    2.4357   -1.0319 C   0  0  2  0  0  0  0  0  0  0  0  0
   -2.2118    3.6085   -1.5544 C   0  0  0  0  0  0  0  0  0  0  0  0
   -2.0118    1.2821   -0.5616 C   0  0  1  0  0  0  0  0  0  0  0  0
   -3.8721    1.9677   -2.0726 N   0  0  2  0  0  0  0  0  0  0  0  0
   -2.3304    4.8088   -0.9432 O   0  0  0  0  0  0  0  0  0  0  0  0
   -1.4672    3.5165   -2.5563 O   0  0  0  0  0  0  0  0  0  0  0  0
   -1.0612    1.6849    0.5967 C   0  0  1  0  0  0  0  0  0  0  0  0
   -0.0776    0.1386    1.3405 Se  0  0  0  0  0  0  0  0  0  0  0  0
    1.1079   -0.1451   -0.2134 C   0  0  0  0  0  0  0  0  0  0  0  0
   -3.5560    2.7496   -0.1823 H   0  0  0  0  0  0  0  0  0  0  0  0
   -2.6372    0.4534   -0.2160 H   0  0  0  0  0  0  0  0  0  0  0  0
   -1.4230    0.9236   -1.4094 H   0  0  0  0  0  0  0  0  0  0  0  0
   -4.3572    1.1528   -1.6929 H   0  0  0  0  0  0  0  0  0  0  0  0
   -3.3062    1.6355   -2.8569 H   0  0  0  0  0  0  0  0  0  0  0  0
   -1.8423    5.5862   -1.2832 H   0  0  0  0  0  0  0  0  0  0  0  0
   -0.3423    2.4361    0.2629 H   0  0  0  0  0  0  0  0  0  0  0  0
   -1.6515    2.1131    1.4091 H   0  0  0  0  0  0  0  0  0  0  0  0
    1.8623   -0.8884    0.0474 H   0  0  0  0  0  0  0  0  0  0  0  0
    1.6046    0.7882   -0.4819 H   0  0  0  0  0  0  0  0  0  0  0  0
    0.5306   -0.5131   -1.0616 H   0  0  0  0  0  0  0  0  0  0  0  0
  1  2  1  0  0  0  0 
  1  3  1  0  0  0  0 
  1  4  1  0  0  0  0 
  2  5  1  0  0  0  0 
  2  6  2  0  0  0  0 
  3  7  1  0  0  0  0 
  7  8  1  0  0  0  0 
  8  9  1  0  0  0  0 
  1 10  1  0  0  0  0 
  3 11  1  0  0  0  0 
  3 12  1  0  0  0  0 
  4 13  1  0  0  0  0 
  4 14  1  0  0  0  0 
  5 15  1  0  0  0  0 
  7 16  1  0  0  0  0 
  7 17  1  0  0  0  0 
  9 18  1  0  0  0  0 
  9 19  1  0  0  0  0 
  9 20  1  0  0  0  0 
M  END
> <cdk:Title>
selenomethionine

> <Conformer>
1

> <SuperDrugID>
SD003050

$$$$
