dehydrocholic acid
  CDK     0628171802

 63 66  0  0  0  0  0  0  0  0999 V2000
  -10.3092    3.6315  -10.0158 O   0  0  0  0  0  0  0  0  0  0  0  0
  -10.5243    2.9355   -8.9958 C   0  0  0  0  0  0  0  0  0  0  0  0
   -9.4549    2.1725   -8.3038 C   0  0  1  0  0  0  0  0  0  0  0  0
  -11.8727    2.9212   -8.3899 C   0  0  1  0  0  0  0  0  0  0  0  0
   -8.0565    2.1385   -9.0157 C   0  0  1  0  0  0  0  0  0  0  0  0
   -9.3043    2.7471   -6.8361 C   0  0  1  0  0  0  0  0  0  0  0  0
  -11.8089    3.4751   -6.9308 C   0  0  1  0  0  0  0  0  0  0  0  0
   -7.0058    1.2495   -8.2606 C   0  0  1  0  0  0  0  0  0  0  0  0
   -7.9749    1.6671  -10.4805 C   0  0  2  0  0  0  0  0  0  0  0  0
  -10.6925    2.7642   -6.0395 C   0  0  1  0  0  0  0  0  0  0  0  0
   -8.0728    2.1294   -6.0713 C   0  0  2  0  0  0  0  0  0  0  0  0
  -11.6901    5.0357   -6.9665 C   0  0  2  0  0  0  0  0  0  0  0  0
   -7.4562   -0.2443   -8.0300 C   0  0  0  0  0  0  0  0  0  0  0  0
   -5.7847    1.3114   -9.2668 C   0  0  2  0  0  0  0  0  0  0  0  0
   -6.8672    1.9307   -6.9318 C   0  0  0  0  0  0  0  0  0  0  0  0
   -6.4928    1.2621  -10.6619 C   0  0  1  0  0  0  0  0  0  0  0  0
  -11.1615    1.3027   -5.6856 C   0  0  0  0  0  0  0  0  0  0  0  0
  -10.6161    3.5266   -4.6530 C   0  0  1  0  0  0  0  0  0  0  0  0
  -11.5461    5.5948   -5.6094 C   0  0  0  0  0  0  0  0  0  0  0  0
   -4.6063    0.2584   -9.1326 C   0  0  1  0  0  0  0  0  0  0  0  0
   -5.7732    2.4185   -6.5629 O   0  0  0  0  0  0  0  0  0  0  0  0
  -10.4765    5.0701   -4.7358 C   0  0  2  0  0  0  0  0  0  0  0  0
  -12.3443    6.4685   -5.1950 O   0  0  0  0  0  0  0  0  0  0  0  0
   -3.5319    0.3168  -10.2799 C   0  0  2  0  0  0  0  0  0  0  0  0
   -3.9020    0.2788   -7.7440 C   0  0  0  0  0  0  0  0  0  0  0  0
   -2.5718    1.5407  -10.2662 C   0  0  2  0  0  0  0  0  0  0  0  0
   -1.6415    1.5214  -11.4143 C   0  0  0  0  0  0  0  0  0  0  0  0
   -2.0934    1.7179  -12.6769 O   0  0  0  0  0  0  0  0  0  0  0  0
   -0.4159    1.3258  -11.2484 O   0  0  0  0  0  0  0  0  0  0  0  0
   -9.8228    1.1496   -8.2727 H   0  0  0  0  0  0  0  0  0  0  0  0
   -9.0163    3.7943   -6.9718 H   0  0  0  0  0  0  0  0  0  0  0  0
   -7.7050    3.1818   -9.0309 H   0  0  0  0  0  0  0  0  0  0  0  0
  -12.7877    3.2696   -6.4826 H   0  0  0  0  0  0  0  0  0  0  0  0
   -5.3296    2.3045   -9.1736 H   0  0  0  0  0  0  0  0  0  0  0  0
  -12.5741    3.5057   -8.9924 H   0  0  0  0  0  0  0  0  0  0  0  0
  -12.2458    1.8945   -8.3839 H   0  0  0  0  0  0  0  0  0  0  0  0
   -8.2407    2.4702  -11.1746 H   0  0  0  0  0  0  0  0  0  0  0  0
   -8.6405    0.8168  -10.6575 H   0  0  0  0  0  0  0  0  0  0  0  0
   -8.3309    1.1647   -5.6410 H   0  0  0  0  0  0  0  0  0  0  0  0
   -7.8078    2.7852   -5.2374 H   0  0  0  0  0  0  0  0  0  0  0  0
  -12.5762    5.4587   -7.4501 H   0  0  0  0  0  0  0  0  0  0  0  0
  -10.8199    5.3428   -7.5486 H   0  0  0  0  0  0  0  0  0  0  0  0
   -8.3930   -0.3250   -7.4832 H   0  0  0  0  0  0  0  0  0  0  0  0
   -7.5856   -0.7736   -8.9755 H   0  0  0  0  0  0  0  0  0  0  0  0
   -6.7180   -0.7849   -7.4424 H   0  0  0  0  0  0  0  0  0  0  0  0
   -6.4599    0.2576  -11.0935 H   0  0  0  0  0  0  0  0  0  0  0  0
   -5.9986    1.9477  -11.3575 H   0  0  0  0  0  0  0  0  0  0  0  0
  -12.1636    1.3074   -5.2501 H   0  0  0  0  0  0  0  0  0  0  0  0
  -10.5007    0.8395   -4.9513 H   0  0  0  0  0  0  0  0  0  0  0  0
  -11.1984    0.6522   -6.5563 H   0  0  0  0  0  0  0  0  0  0  0  0
  -11.5302    3.3306   -4.0793 H   0  0  0  0  0  0  0  0  0  0  0  0
   -9.7944    3.1407   -4.0471 H   0  0  0  0  0  0  0  0  0  0  0  0
   -5.0517   -0.7359   -9.2279 H   0  0  0  0  0  0  0  0  0  0  0  0
   -9.4849    5.3151   -5.2310 H   0  0  0  0  0  0  0  0  0  0  0  0
  -10.6417    5.4779   -3.6855 H   0  0  0  0  0  0  0  0  0  0  0  0
   -4.0328    0.2766  -11.2484 H   0  0  0  0  0  0  0  0  0  0  0  0
   -2.9137   -0.5901  -10.2220 H   0  0  0  0  0  0  0  0  0  0  0  0
   -4.5861   -0.0235   -6.9540 H   0  0  0  0  0  0  0  0  0  0  0  0
   -3.5261    1.2758   -7.5141 H   0  0  0  0  0  0  0  0  0  0  0  0
   -3.0621   -0.4182   -7.7286 H   0  0  0  0  0  0  0  0  0  0  0  0
   -1.9859    1.5346   -9.3437 H   0  0  0  0  0  0  0  0  0  0  0  0
   -3.1380    2.4723  -10.3026 H   0  0  0  0  0  0  0  0  0  0  0  0
   -1.4677    1.7185  -13.4332 H   0  0  0  0  0  0  0  0  0  0  0  0
  1  2  2  0  0  0  0 
  3  2  1  0  0  0  0 
  2  4  1  0  0  0  0 
  5  3  1  0  0  0  0 
  3  6  1  0  0  0  0 
  3 30  1  0  0  0  0 
  7  4  1  0  0  0  0 
  8  5  1  0  0  0  0 
  5  9  1  0  0  0  0 
  5 32  1  0  0  0  0 
  6 10  1  0  0  0  0 
  6 11  1  0  0  0  0 
  6 31  1  0  0  0  0 
 10  7  1  0  0  0  0 
  7 12  1  0  0  0  0 
  7 33  1  0  0  0  0 
  8 13  1  0  0  0  0 
 14  8  1  0  0  0  0 
  8 15  1  0  0  0  0 
  9 16  1  0  0  0  0 
 10 17  1  0  0  0  0 
 10 18  1  0  0  0  0 
 11 15  1  0  0  0  0 
 12 19  1  0  0  0  0 
 14 16  1  0  0  0  0 
 14 20  1  0  0  0  0 
 14 34  1  0  0  0  0 
 15 21  2  0  0  0  0 
 18 22  1  0  0  0  0 
 19 22  1  0  0  0  0 
 19 23  2  0  0  0  0 
 20 24  1  0  0  0  0 
 20 25  1  0  0  0  0 
 24 26  1  0  0  0  0 
 26 27  1  0  0  0  0 
 27 28  1  0  0  0  0 
 27 29  2  0  0  0  0 
  4 35  1  0  0  0  0 
  4 36  1  0  0  0  0 
  9 37  1  0  0  0  0 
  9 38  1  0  0  0  0 
 11 39  1  0  0  0  0 
 11 40  1  0  0  0  0 
 12 41  1  0  0  0  0 
 12 42  1  0  0  0  0 
 13 43  1  0  0  0  0 
 13 44  1  0  0  0  0 
 13 45  1  0  0  0  0 
 16 46  1  0  0  0  0 
 16 47  1  0  0  0  0 
 17 48  1  0  0  0  0 
 17 49  1  0  0  0  0 
 17 50  1  0  0  0  0 
 18 51  1  0  0  0  0 
 18 52  1  0  0  0  0 
 20 53  1  0  0  0  0 
 22 54  1  0  0  0  0 
 22 55  1  0  0  0  0 
 24 56  1  0  0  0  0 
 24 57  1  0  0  0  0 
 25 58  1  0  0  0  0 
 25 59  1  0  0  0  0 
 25 60  1  0  0  0  0 
 26 61  1  0  0  0  0 
 26 62  1  0  0  0  0 
 28 63  1  0  0  0  0 
M  END
> <cdk:Title>
dehydrocholic acid

> <Conformer>
1

> <SuperDrugID>
SD000700

$$$$
