enalapril
  CDK     0628171801

 55 56  0  0  0  0  0  0  0  0999 V2000
   -1.1739    3.5066   -2.5998 C   0  0  0  0  0  0  0  0  0  0  0  0
   -2.6579    3.3040   -2.5976 C   0  0  1  0  0  0  0  0  0  0  0  0
   -0.6673    3.8592   -1.5060 O   0  0  0  0  0  0  0  0  0  0  0  0
   -0.3222    3.3638   -3.6941 N   0  0  0  0  0  0  0  0  0  0  0  0
   -3.2586    3.2294   -1.2318 N   0  0  2  0  0  0  0  0  0  0  0  0
   -3.4038    4.4644   -3.3069 C   0  0  0  0  0  0  0  0  0  0  0  0
   -0.6879    3.0484   -5.0569 C   0  0  2  0  0  0  0  0  0  0  0  0
    1.0968    3.5505   -3.5664 C   0  0  2  0  0  0  0  0  0  0  0  0
   -2.9570    2.0759   -0.3406 C   0  0  1  0  0  0  0  0  0  0  0  0
   -1.4156    1.7727   -5.2445 C   0  0  0  0  0  0  0  0  0  0  0  0
    0.6373    3.0288   -5.8660 C   0  0  2  0  0  0  0  0  0  0  0  0
    1.6148    3.8104   -4.9861 C   0  0  1  0  0  0  0  0  0  0  0  0
   -3.6478    2.3221    1.0375 C   0  0  1  0  0  0  0  0  0  0  0  0
   -3.3974    0.7960   -0.9380 C   0  0  0  0  0  0  0  0  0  0  0  0
   -2.5440    1.7313   -5.9926 O   0  0  0  0  0  0  0  0  0  0  0  0
   -0.9900    0.7110   -4.7353 O   0  0  0  0  0  0  0  0  0  0  0  0
   -2.9884    3.4695    1.8587 C   0  0  2  0  0  0  0  0  0  0  0  0
   -2.4633   -0.1712   -1.1692 O   0  0  0  0  0  0  0  0  0  0  0  0
   -4.6039    0.6202   -1.2309 O   0  0  0  0  0  0  0  0  0  0  0  0
   -3.7429    3.8625    3.0856 C   0  0  0  0  0  0  0  0  0  0  0  0
   -2.7048   -1.4765   -1.7024 C   0  0  1  0  0  0  0  0  0  0  0  0
   -4.2462    5.1771    3.2461 C   0  0  0  0  0  0  0  0  0  0  0  0
   -3.9366    2.9408    4.1427 C   0  0  0  0  0  0  0  0  0  0  0  0
   -1.3697   -2.2313   -1.8362 C   0  0  0  0  0  0  0  0  0  0  0  0
   -4.8889    5.5673    4.4361 C   0  0  0  0  0  0  0  0  0  0  0  0
   -4.5903    3.3236    5.3287 C   0  0  0  0  0  0  0  0  0  0  0  0
   -5.0577    4.6404    5.4784 C   0  0  0  0  0  0  0  0  0  0  0  0
   -2.9032    2.3788   -3.1176 H   0  0  0  0  0  0  0  0  0  0  0  0
   -4.2730    3.2292   -1.3537 H   0  0  0  0  0  0  0  0  0  0  0  0
   -3.1758    4.4978   -4.3690 H   0  0  0  0  0  0  0  0  0  0  0  0
   -3.1350    5.4247   -2.8622 H   0  0  0  0  0  0  0  0  0  0  0  0
   -4.4851    4.3341   -3.2131 H   0  0  0  0  0  0  0  0  0  0  0  0
   -1.2912    3.8709   -5.4487 H   0  0  0  0  0  0  0  0  0  0  0  0
    1.5485    2.6444   -3.1549 H   0  0  0  0  0  0  0  0  0  0  0  0
    1.3572    4.3986   -2.9283 H   0  0  0  0  0  0  0  0  0  0  0  0
   -1.8792    2.0183   -0.1685 H   0  0  0  0  0  0  0  0  0  0  0  0
    0.5274    3.4986   -6.8485 H   0  0  0  0  0  0  0  0  0  0  0  0
    1.0251    2.0143   -6.0106 H   0  0  0  0  0  0  0  0  0  0  0  0
    1.5579    4.8781   -5.2131 H   0  0  0  0  0  0  0  0  0  0  0  0
    2.6437    3.4667   -5.1173 H   0  0  0  0  0  0  0  0  0  0  0  0
   -4.7023    2.5596    0.8686 H   0  0  0  0  0  0  0  0  0  0  0  0
   -3.6105    1.4046    1.6334 H   0  0  0  0  0  0  0  0  0  0  0  0
   -3.0025    0.8794   -6.1563 H   0  0  0  0  0  0  0  0  0  0  0  0
   -2.8597    4.3379    1.2055 H   0  0  0  0  0  0  0  0  0  0  0  0
   -1.9869    3.1546    2.1665 H   0  0  0  0  0  0  0  0  0  0  0  0
   -3.3682   -2.0263   -1.0303 H   0  0  0  0  0  0  0  0  0  0  0  0
   -3.1789   -1.3963   -2.6843 H   0  0  0  0  0  0  0  0  0  0  0  0
   -4.1416    5.8684    2.5006 H   0  0  0  0  0  0  0  0  0  0  0  0
   -3.5931    1.9829    4.0600 H   0  0  0  0  0  0  0  0  0  0  0  0
   -1.5463   -3.2312   -2.2385 H   0  0  0  0  0  0  0  0  0  0  0  0
   -0.7007   -1.6912   -2.5098 H   0  0  0  0  0  0  0  0  0  0  0  0
   -0.8908   -2.3237   -0.8589 H   0  0  0  0  0  0  0  0  0  0  0  0
   -5.2311    6.5254    4.5460 H   0  0  0  0  0  0  0  0  0  0  0  0
   -4.7194    2.6460    6.0835 H   0  0  0  0  0  0  0  0  0  0  0  0
   -5.5190    4.9232    6.3446 H   0  0  0  0  0  0  0  0  0  0  0  0
  2  1  1  0  0  0  0 
  1  3  2  0  0  0  0 
  1  4  1  0  0  0  0 
  2  5  1  0  0  0  0 
  2  6  1  0  0  0  0 
  7  4  1  0  0  0  0 
  4  8  1  0  0  0  0 
  9  5  1  0  0  0  0 
  7 10  1  0  0  0  0 
  7 11  1  0  0  0  0 
  8 12  1  0  0  0  0 
  9 13  1  0  0  0  0 
  9 14  1  0  0  0  0 
 10 15  1  0  0  0  0 
 10 16  2  0  0  0  0 
 11 12  1  0  0  0  0 
 13 17  1  0  0  0  0 
 14 18  1  0  0  0  0 
 14 19  2  0  0  0  0 
 17 20  1  0  0  0  0 
 18 21  1  0  0  0  0 
 20 22  2  0  0  0  0 
 20 23  1  0  0  0  0 
 21 24  1  0  0  0  0 
 22 25  1  0  0  0  0 
 23 26  2  0  0  0  0 
 25 27  2  0  0  0  0 
 26 27  1  0  0  0  0 
  2 28  1  0  0  0  0 
  5 29  1  0  0  0  0 
  6 30  1  0  0  0  0 
  6 31  1  0  0  0  0 
  6 32  1  0  0  0  0 
  7 33  1  0  0  0  0 
  8 34  1  0  0  0  0 
  8 35  1  0  0  0  0 
  9 36  1  0  0  0  0 
 11 37  1  0  0  0  0 
 11 38  1  0  0  0  0 
 12 39  1  0  0  0  0 
 12 40  1  0  0  0  0 
 13 41  1  0  0  0  0 
 13 42  1  0  0  0  0 
 15 43  1  0  0  0  0 
 17 44  1  0  0  0  0 
 17 45  1  0  0  0  0 
 21 46  1  0  0  0  0 
 21 47  1  0  0  0  0 
 22 48  1  0  0  0  0 
 23 49  1  0  0  0  0 
 24 50  1  0  0  0  0 
 24 51  1  0  0  0  0 
 24 52  1  0  0  0  0 
 25 53  1  0  0  0  0 
 26 54  1  0  0  0  0 
 27 55  1  0  0  0  0 
M  END
> <cdk:Title>
enalapril

> <Conformer>
1

> <SuperDrugID>
SD000893

$$$$
