glyceryl trinitrate
  CDK     0628171801

 20 19  0  0  0  0  0  0  0  0999 V2000
   -0.9328    0.1991   -0.2943 C   0  0  1  0  0  0  0  0  0  0  0  0
   -2.0355   -0.8741   -0.1122 C   0  0  1  0  0  0  0  0  0  0  0  0
   -1.4219    1.5893    0.1967 C   0  0  1  0  0  0  0  0  0  0  0  0
    0.2335   -0.2666    0.4270 O   0  0  0  0  0  0  0  0  0  0  0  0
   -1.5414   -2.1515   -0.5635 O   0  0  0  0  0  0  0  0  0  0  0  0
   -0.4633    2.5905   -0.1876 O   0  0  0  0  0  0  0  0  0  0  0  0
    1.3165    0.3831    0.2131 N   0  0  0  0  0  0  0  0  0  0  0  0
   -2.3842   -3.0997   -0.3950 N   0  0  0  0  0  0  0  0  0  0  0  0
   -0.7714    3.7604    0.2228 N   0  0  0  0  0  0  0  0  0  0  0  0
    1.7892    1.0035    1.0793 O   0  0  0  0  0  0  0  0  0  0  0  0
    1.9274    0.3146   -0.8973 O   0  0  0  0  0  0  0  0  0  0  0  0
   -3.2751   -3.3389   -1.2636 O   0  0  0  0  0  0  0  0  0  0  0  0
   -2.3048   -3.7934    0.5401 O   0  0  0  0  0  0  0  0  0  0  0  0
   -0.5407    4.1111    1.4192 O   0  0  0  0  0  0  0  0  0  0  0  0
   -1.2229    4.5345   -0.5232 O   0  0  0  0  0  0  0  0  0  0  0  0
   -0.7131    0.2621   -1.3640 H   0  0  0  0  0  0  0  0  0  0  0  0
   -2.3114   -0.9252    0.9468 H   0  0  0  0  0  0  0  0  0  0  0  0
   -2.9184   -0.5880   -0.6937 H   0  0  0  0  0  0  0  0  0  0  0  0
   -2.3894    1.8265   -0.2600 H   0  0  0  0  0  0  0  0  0  0  0  0
   -1.5387    1.5642    1.2856 H   0  0  0  0  0  0  0  0  0  0  0  0
  1  2  1  0  0  0  0 
  1  3  1  0  0  0  0 
  1  4  1  0  0  0  0 
  2  5  1  0  0  0  0 
  3  6  1  0  0  0  0 
  4  7  1  0  0  0  0 
  5  8  1  0  0  0  0 
  6  9  1  0  0  0  0 
  7 10  2  0  0  0  0 
  7 11  1  0  0  0  0 
  8 12  1  0  0  0  0 
  8 13  2  0  0  0  0 
  9 14  1  0  0  0  0 
  9 15  2  0  0  0  0 
  1 16  1  0  0  0  0 
  2 17  1  0  0  0  0 
  2 18  1  0  0  0  0 
  3 19  1  0  0  0  0 
  3 20  1  0  0  0  0 
M  CHG  1   7   1
M  CHG  1   8   1
M  CHG  1   9   1
M  CHG  1  11  -1
M  CHG  1  12  -1
M  CHG  1  14  -1
M  END
> <cdk:Title>
glyceryl trinitrate

> <Conformer>
1

> <SuperDrugID>
SD001745

$$$$
