proxyphylline
  CDK     0628171801

 31 32  0  0  0  0  0  0  0  0999 V2000
    1.1260   -1.1684   -1.1386 C   0  0  1  0  0  0  0  0  0  0  0  0
    0.6452   -2.4955   -0.4867 C   0  0  1  0  0  0  0  0  0  0  0  0
    2.1895   -0.5509   -0.3930 N   0  0  0  0  0  0  0  0  0  0  0  0
   -0.1190   -2.2921    0.8439 C   0  0  0  0  0  0  0  0  0  0  0  0
   -0.1959   -3.1973   -1.4011 O   0  0  0  0  0  0  0  0  0  0  0  0
    2.1680    0.5392    0.4071 C   0  0  0  0  0  0  0  0  0  0  0  0
    3.4623   -1.0021   -0.3748 C   0  0  0  0  0  0  0  0  0  0  0  0
    3.4534    0.7293    0.9052 C   0  0  0  0  0  0  0  0  0  0  0  0
    1.1555    1.4331    0.8067 C   0  0  0  0  0  0  0  0  0  0  0  0
    4.2415   -0.2357    0.4038 N   0  0  0  0  0  0  0  0  0  0  0  0
    3.7666    1.7445    1.7615 N   0  0  0  0  0  0  0  0  0  0  0  0
   -0.0094    1.2557    0.3802 O   0  0  0  0  0  0  0  0  0  0  0  0
    1.4642    2.4744    1.6542 N   0  0  0  0  0  0  0  0  0  0  0  0
    5.1163    1.9058    2.2607 C   0  0  0  0  0  0  0  0  0  0  0  0
    2.7565    2.6075    2.1300 C   0  0  0  0  0  0  0  0  0  0  0  0
    0.4590    3.4545    2.0357 C   0  0  0  0  0  0  0  0  0  0  0  0
    3.0300    3.5439    2.9233 O   0  0  0  0  0  0  0  0  0  0  0  0
    1.4877   -1.3740   -2.1502 H   0  0  0  0  0  0  0  0  0  0  0  0
    0.2764   -0.4967   -1.2615 H   0  0  0  0  0  0  0  0  0  0  0  0
    1.5095   -3.1350   -0.2884 H   0  0  0  0  0  0  0  0  0  0  0  0
   -0.9404   -1.5854    0.7085 H   0  0  0  0  0  0  0  0  0  0  0  0
   -0.5324   -3.2453    1.1825 H   0  0  0  0  0  0  0  0  0  0  0  0
    0.5508   -1.9138    1.6193 H   0  0  0  0  0  0  0  0  0  0  0  0
   -0.9681   -2.6099   -1.5398 H   0  0  0  0  0  0  0  0  0  0  0  0
    3.8025   -1.8226   -0.8820 H   0  0  0  0  0  0  0  0  0  0  0  0
    5.1289    1.8146    3.3505 H   0  0  0  0  0  0  0  0  0  0  0  0
    5.8221    1.1726    1.8618 H   0  0  0  0  0  0  0  0  0  0  0  0
    5.4880    2.8960    1.9879 H   0  0  0  0  0  0  0  0  0  0  0  0
   -0.5152    3.2955    1.5694 H   0  0  0  0  0  0  0  0  0  0  0  0
    0.7861    4.4557    1.7438 H   0  0  0  0  0  0  0  0  0  0  0  0
    0.3093    3.4452    3.1177 H   0  0  0  0  0  0  0  0  0  0  0  0
  2  1  1  0  0  0  0 
  1  3  1  0  0  0  0 
  2  4  1  0  0  0  0 
  2  5  1  0  0  0  0 
  3  6  1  0  0  0  0 
  3  7  1  0  0  0  0 
  6  8  2  0  0  0  0 
  6  9  1  0  0  0  0 
  7 10  2  0  0  0  0 
  8 10  1  0  0  0  0 
  8 11  1  0  0  0  0 
  9 12  2  0  0  0  0 
  9 13  1  0  0  0  0 
 11 14  1  0  0  0  0 
 11 15  1  0  0  0  0 
 13 15  1  0  0  0  0 
 13 16  1  0  0  0  0 
 15 17  2  0  0  0  0 
  1 18  1  0  0  0  0 
  1 19  1  0  0  0  0 
  2 20  1  0  0  0  0 
  4 21  1  0  0  0  0 
  4 22  1  0  0  0  0 
  4 23  1  0  0  0  0 
  5 24  1  0  0  0  0 
  7 25  1  0  0  0  0 
 14 26  1  0  0  0  0 
 14 27  1  0  0  0  0 
 14 28  1  0  0  0  0 
 16 29  1  0  0  0  0 
 16 30  1  0  0  0  0 
 16 31  1  0  0  0  0 
M  END
> <cdk:Title>
proxyphylline

> <Conformer>
1

> <SuperDrugID>
SD002087

$$$$
