etofibrate
  CDK     0628171801

 43 44  0  0  0  0  0  0  0  0999 V2000
   -0.7451   -1.2097   -1.6334 O   0  0  0  0  0  0  0  0  0  0  0  0
   -0.0397   -0.5836   -2.7443 C   0  0  2  0  0  0  0  0  0  0  0  0
   -0.3010   -1.0676   -0.3432 C   0  0  0  0  0  0  0  0  0  0  0  0
   -0.9048   -0.8381   -3.9370 C   0  0  0  0  0  0  0  0  0  0  0  0
   -0.7673    0.0038    0.4478 C   0  0  0  0  0  0  0  0  0  0  0  0
    0.5430   -2.0377    0.2401 C   0  0  0  0  0  0  0  0  0  0  0  0
   -2.0851   -1.5237   -3.8055 O   0  0  0  0  0  0  0  0  0  0  0  0
   -0.5585   -0.4192   -5.0686 O   0  0  0  0  0  0  0  0  0  0  0  0
   -0.3661    0.1283    1.7899 C   0  0  0  0  0  0  0  0  0  0  0  0
    0.9301   -1.9253    1.5900 C   0  0  0  0  0  0  0  0  0  0  0  0
   -3.0736   -1.7538   -4.8195 C   0  0  2  0  0  0  0  0  0  0  0  0
    0.4768   -0.8409    2.3679 C   0  0  0  0  0  0  0  0  0  0  0  0
   -4.2046   -2.6762   -4.2955 C   0  0  1  0  0  0  0  0  0  0  0  0
    0.9286   -0.7028    3.9955 Cl  0  0  0  0  0  0  0  0  0  0  0  0
   -5.4934   -2.1529   -4.6558 O   0  0  0  0  0  0  0  0  0  0  0  0
   -6.7138   -2.7392   -4.4468 C   0  0  0  0  0  0  0  0  0  0  0  0
   -6.7584   -3.9121   -4.0032 O   0  0  0  0  0  0  0  0  0  0  0  0
   -7.9135   -2.0399   -4.7596 C   0  0  0  0  0  0  0  0  0  0  0  0
   -9.1798   -2.6794   -4.7448 C   0  0  0  0  0  0  0  0  0  0  0  0
   -7.8986   -0.6626   -5.0927 C   0  0  0  0  0  0  0  0  0  0  0  0
  -10.3533   -1.9758   -5.0744 C   0  0  0  0  0  0  0  0  0  0  0  0
   -9.0478   -0.0087   -5.4048 N   0  0  0  0  0  0  0  0  0  0  0  0
  -10.2592   -0.6152   -5.4086 C   0  0  0  0  0  0  0  0  0  0  0  0
    1.3611   -1.2402   -2.9535 C   0  0  0  0  0  0  0  0  0  0  0  0
    0.0944    0.9651   -2.5812 C   0  0  0  0  0  0  0  0  0  0  0  0
   -1.4127    0.6892    0.0513 H   0  0  0  0  0  0  0  0  0  0  0  0
    0.8647   -2.8371   -0.3108 H   0  0  0  0  0  0  0  0  0  0  0  0
   -0.7002    0.9203    2.3432 H   0  0  0  0  0  0  0  0  0  0  0  0
    1.5345   -2.6391    2.0042 H   0  0  0  0  0  0  0  0  0  0  0  0
   -2.6023   -2.2139   -5.6941 H   0  0  0  0  0  0  0  0  0  0  0  0
   -3.4836   -0.7891   -5.1262 H   0  0  0  0  0  0  0  0  0  0  0  0
   -4.0775   -3.6792   -4.7155 H   0  0  0  0  0  0  0  0  0  0  0  0
   -4.1602   -2.7551   -3.2063 H   0  0  0  0  0  0  0  0  0  0  0  0
   -9.2628   -3.6699   -4.5004 H   0  0  0  0  0  0  0  0  0  0  0  0
   -7.0280   -0.1274   -5.1001 H   0  0  0  0  0  0  0  0  0  0  0  0
  -11.2613   -2.4465   -5.0781 H   0  0  0  0  0  0  0  0  0  0  0  0
  -11.0947   -0.0801   -5.6487 H   0  0  0  0  0  0  0  0  0  0  0  0
    1.2679   -2.3249   -3.0458 H   0  0  0  0  0  0  0  0  0  0  0  0
    2.0190   -1.0186   -2.1101 H   0  0  0  0  0  0  0  0  0  0  0  0
    1.8436   -0.8594   -3.8552 H   0  0  0  0  0  0  0  0  0  0  0  0
   -0.8895    1.4212   -2.4484 H   0  0  0  0  0  0  0  0  0  0  0  0
    0.7129    1.2117   -1.7176 H   0  0  0  0  0  0  0  0  0  0  0  0
    0.5618    1.4167   -3.4600 H   0  0  0  0  0  0  0  0  0  0  0  0
  1  2  1  0  0  0  0 
  1  3  1  0  0  0  0 
  2  4  1  0  0  0  0 
  3  5  2  0  0  0  0 
  3  6  1  0  0  0  0 
  4  7  1  0  0  0  0 
  4  8  2  0  0  0  0 
  5  9  1  0  0  0  0 
  6 10  2  0  0  0  0 
  7 11  1  0  0  0  0 
  9 12  2  0  0  0  0 
 10 12  1  0  0  0  0 
 11 13  1  0  0  0  0 
 12 14  1  0  0  0  0 
 13 15  1  0  0  0  0 
 15 16  1  0  0  0  0 
 16 17  2  0  0  0  0 
 16 18  1  0  0  0  0 
 18 19  2  0  0  0  0 
 18 20  1  0  0  0  0 
 19 21  1  0  0  0  0 
 20 22  2  0  0  0  0 
 21 23  2  0  0  0  0 
 22 23  1  0  0  0  0 
  2 24  1  0  0  0  0 
  2 25  1  0  0  0  0 
  5 26  1  0  0  0  0 
  6 27  1  0  0  0  0 
  9 28  1  0  0  0  0 
 10 29  1  0  0  0  0 
 11 30  1  0  0  0  0 
 11 31  1  0  0  0  0 
 13 32  1  0  0  0  0 
 13 33  1  0  0  0  0 
 19 34  1  0  0  0  0 
 20 35  1  0  0  0  0 
 21 36  1  0  0  0  0 
 23 37  1  0  0  0  0 
 24 38  1  0  0  0  0 
 24 39  1  0  0  0  0 
 24 40  1  0  0  0  0 
 25 41  1  0  0  0  0 
 25 42  1  0  0  0  0 
 25 43  1  0  0  0  0 
M  END
> <cdk:Title>
etofibrate

> <Conformer>
1

> <SuperDrugID>
SD000987

$$$$
