azatadine
  CDK     0628171801

 44 47  0  0  0  0  0  0  0  0999 V2000
    7.2367    0.0662   -2.0641 C   0  0  0  0  0  0  0  0  0  0  0  0
    5.7678   -0.1621   -2.1670 N   0  0  1  0  0  0  0  0  0  0  0  0
    5.3844   -1.5793   -1.8781 C   0  0  1  0  0  0  0  0  0  0  0  0
    4.9577    0.8347   -1.3947 C   0  0  2  0  0  0  0  0  0  0  0  0
    3.8567   -1.7910   -2.0249 C   0  0  1  0  0  0  0  0  0  0  0  0
    3.4329    0.5600   -1.5208 C   0  0  2  0  0  0  0  0  0  0  0  0
    3.1445   -0.8372   -1.1499 C   0  0  0  0  0  0  0  0  0  0  0  0
    2.3344   -1.2123   -0.1194 C   0  0  0  0  0  0  0  0  0  0  0  0
    1.6486   -0.3369    0.7353 C   0  0  0  0  0  0  0  0  0  0  0  0
    2.0985   -2.5487    0.1820 C   0  0  0  0  0  0  0  0  0  0  0  0
    0.2193   -0.3018    0.8272 C   0  0  0  0  0  0  0  0  0  0  0  0
    2.4140    0.4890    1.5990 C   0  0  0  0  0  0  0  0  0  0  0  0
    0.8527   -3.1532   -0.1230 C   0  0  0  0  0  0  0  0  0  0  0  0
    3.0810   -3.2802    0.7761 N   0  0  0  0  0  0  0  0  0  0  0  0
   -0.7368   -1.1923    0.0829 C   0  0  1  0  0  0  0  0  0  0  0  0
   -0.3765    0.6198    1.7269 C   0  0  0  0  0  0  0  0  0  0  0  0
    1.7972    1.3634    2.5083 C   0  0  0  0  0  0  0  0  0  0  0  0
   -0.2070   -2.3586   -0.7967 C   0  0  2  0  0  0  0  0  0  0  0  0
    0.6724   -4.5127    0.2169 C   0  0  0  0  0  0  0  0  0  0  0  0
    2.9274   -4.5885    1.0993 C   0  0  0  0  0  0  0  0  0  0  0  0
    0.3994    1.4310    2.5699 C   0  0  0  0  0  0  0  0  0  0  0  0
    1.7121   -5.2394    0.8254 C   0  0  0  0  0  0  0  0  0  0  0  0
    7.5897   -0.0909   -1.0427 H   0  0  0  0  0  0  0  0  0  0  0  0
    7.4844    1.0834   -2.3697 H   0  0  0  0  0  0  0  0  0  0  0  0
    7.7718   -0.6164   -2.7262 H   0  0  0  0  0  0  0  0  0  0  0  0
    5.8936   -2.2467   -2.5792 H   0  0  0  0  0  0  0  0  0  0  0  0
    5.6881   -1.8601   -0.8639 H   0  0  0  0  0  0  0  0  0  0  0  0
    5.1578    1.8398   -1.7767 H   0  0  0  0  0  0  0  0  0  0  0  0
    5.2387    0.8151   -0.3370 H   0  0  0  0  0  0  0  0  0  0  0  0
    3.5659   -1.6208   -3.0652 H   0  0  0  0  0  0  0  0  0  0  0  0
    3.6409   -2.8391   -1.8218 H   0  0  0  0  0  0  0  0  0  0  0  0
    3.1314    0.7230   -2.5599 H   0  0  0  0  0  0  0  0  0  0  0  0
    2.8897    1.2986   -0.9314 H   0  0  0  0  0  0  0  0  0  0  0  0
    3.4365    0.4554    1.5812 H   0  0  0  0  0  0  0  0  0  0  0  0
   -1.3990   -1.6497    0.8231 H   0  0  0  0  0  0  0  0  0  0  0  0
   -1.3572   -0.5596   -0.5561 H   0  0  0  0  0  0  0  0  0  0  0  0
   -1.3949    0.6996    1.7898 H   0  0  0  0  0  0  0  0  0  0  0  0
    2.3637    1.9477    3.1279 H   0  0  0  0  0  0  0  0  0  0  0  0
   -1.0531   -2.9954   -1.0718 H   0  0  0  0  0  0  0  0  0  0  0  0
    0.1976   -1.9609   -1.7313 H   0  0  0  0  0  0  0  0  0  0  0  0
   -0.2144   -4.9834    0.0248 H   0  0  0  0  0  0  0  0  0  0  0  0
    3.6995   -5.0942    1.5355 H   0  0  0  0  0  0  0  0  0  0  0  0
   -0.0550    2.0628    3.2349 H   0  0  0  0  0  0  0  0  0  0  0  0
    1.5868   -6.2276    1.0629 H   0  0  0  0  0  0  0  0  0  0  0  0
  1  2  1  0  0  0  0 
  2  3  1  0  0  0  0 
  2  4  1  0  0  0  0 
  3  5  1  0  0  0  0 
  4  6  1  0  0  0  0 
  5  7  1  0  0  0  0 
  6  7  1  0  0  0  0 
  7  8  2  0  0  0  0 
  8  9  1  0  0  0  0 
  8 10  1  0  0  0  0 
  9 11  2  0  0  0  0 
  9 12  1  0  0  0  0 
 10 13  2  0  0  0  0 
 10 14  1  0  0  0  0 
 11 15  1  0  0  0  0 
 11 16  1  0  0  0  0 
 12 17  2  0  0  0  0 
 13 18  1  0  0  0  0 
 13 19  1  0  0  0  0 
 14 20  2  0  0  0  0 
 15 18  1  0  0  0  0 
 16 21  2  0  0  0  0 
 17 21  1  0  0  0  0 
 19 22  2  0  0  0  0 
 20 22  1  0  0  0  0 
  1 23  1  0  0  0  0 
  1 24  1  0  0  0  0 
  1 25  1  0  0  0  0 
  3 26  1  0  0  0  0 
  3 27  1  0  0  0  0 
  4 28  1  0  0  0  0 
  4 29  1  0  0  0  0 
  5 30  1  0  0  0  0 
  5 31  1  0  0  0  0 
  6 32  1  0  0  0  0 
  6 33  1  0  0  0  0 
 12 34  1  0  0  0  0 
 15 35  1  0  0  0  0 
 15 36  1  0  0  0  0 
 16 37  1  0  0  0  0 
 17 38  1  0  0  0  0 
 18 39  1  0  0  0  0 
 18 40  1  0  0  0  0 
 19 41  1  0  0  0  0 
 20 42  1  0  0  0  0 
 21 43  1  0  0  0  0 
 22 44  1  0  0  0  0 
M  END
> <cdk:Title>
azatadine

> <Conformer>
1

> <SuperDrugID>
SD000222

$$$$
