bazedoxifene
  CDK     0628171801

 69 73  0  0  0  0  0  0  0  0999 V2000
    5.9066    1.1176   -6.2492 C   0  0  2  0  0  0  0  0  0  0  0  0
    6.5803   -0.1610   -6.2488 N   0  0  0  0  0  0  0  0  0  0  0  0
    4.8687    1.1927   -5.1870 C   0  0  0  0  0  0  0  0  0  0  0  0
    7.3584   -0.6431   -5.2401 C   0  0  0  0  0  0  0  0  0  0  0  0
    6.5390   -1.1017   -7.2238 C   0  0  0  0  0  0  0  0  0  0  0  0
    4.9565    2.1382   -4.1377 C   0  0  0  0  0  0  0  0  0  0  0  0
    3.7784    0.2916   -5.2035 C   0  0  0  0  0  0  0  0  0  0  0  0
    7.8324   -1.9168   -5.5762 C   0  0  0  0  0  0  0  0  0  0  0  0
    7.6292    0.0266   -4.0252 C   0  0  0  0  0  0  0  0  0  0  0  0
    7.3198   -2.1931   -6.8390 C   0  0  0  0  0  0  0  0  0  0  0  0
    5.8563   -1.1302   -8.4593 C   0  0  0  0  0  0  0  0  0  0  0  0
    3.9935    2.1605   -3.1126 C   0  0  0  0  0  0  0  0  0  0  0  0
    2.8029    0.3313   -4.1907 C   0  0  0  0  0  0  0  0  0  0  0  0
    8.6959   -2.8103   -4.7808 C   0  0  0  0  0  0  0  0  0  0  0  0
    8.5198    1.1214   -3.9938 C   0  0  0  0  0  0  0  0  0  0  0  0
    6.9730   -0.3677   -2.8381 C   0  0  0  0  0  0  0  0  0  0  0  0
    7.4754   -3.3212   -7.6668 C   0  0  0  0  0  0  0  0  0  0  0  0
    5.9897   -2.2585   -9.2939 C   0  0  0  0  0  0  0  0  0  0  0  0
    2.9077    1.2622   -3.1377 C   0  0  0  0  0  0  0  0  0  0  0  0
    8.7386    1.8227   -2.7940 C   0  0  0  0  0  0  0  0  0  0  0  0
    7.1894    0.3379   -1.6406 C   0  0  0  0  0  0  0  0  0  0  0  0
    6.8081   -3.3441   -8.9100 C   0  0  0  0  0  0  0  0  0  0  0  0
    1.9793    1.2649   -2.1317 O   0  0  0  0  0  0  0  0  0  0  0  0
    8.0715    1.4360   -1.6164 C   0  0  0  0  0  0  0  0  0  0  0  0
    6.9481   -4.4027   -9.7455 O   0  0  0  0  0  0  0  0  0  0  0  0
    0.8985    2.1940   -2.3543 C   0  0  1  0  0  0  0  0  0  0  0  0
    8.2853    2.1347   -0.4730 O   0  0  0  0  0  0  0  0  0  0  0  0
   -0.1351    2.0661   -1.2093 C   0  0  2  0  0  0  0  0  0  0  0  0
   -0.5038    0.6463   -0.9147 N   0  0  1  0  0  0  0  0  0  0  0  0
   -0.9049    0.3477    0.5004 C   0  0  1  0  0  0  0  0  0  0  0  0
   -1.3176   -0.0705   -1.9514 C   0  0  2  0  0  0  0  0  0  0  0  0
   -0.2089   -0.9288    1.0278 C   0  0  2  0  0  0  0  0  0  0  0  0
   -0.7558   -1.4790   -2.2959 C   0  0  2  0  0  0  0  0  0  0  0  0
   -0.4992   -2.2109    0.2052 C   0  0  2  0  0  0  0  0  0  0  0  0
    0.1137   -2.1910   -1.2216 C   0  0  2  0  0  0  0  0  0  0  0  0
    5.4173    1.3243   -7.2010 H   0  0  0  0  0  0  0  0  0  0  0  0
    6.6604    1.8985   -6.1253 H   0  0  0  0  0  0  0  0  0  0  0  0
    5.7301    2.8078   -4.1047 H   0  0  0  0  0  0  0  0  0  0  0  0
    3.6914   -0.4036   -5.9509 H   0  0  0  0  0  0  0  0  0  0  0  0
    5.2667   -0.3524   -8.7564 H   0  0  0  0  0  0  0  0  0  0  0  0
    4.0832    2.8339   -2.3483 H   0  0  0  0  0  0  0  0  0  0  0  0
    2.0159   -0.3203   -4.2203 H   0  0  0  0  0  0  0  0  0  0  0  0
    9.6248   -2.9958   -5.3212 H   0  0  0  0  0  0  0  0  0  0  0  0
    8.9404   -2.3778   -3.8104 H   0  0  0  0  0  0  0  0  0  0  0  0
    8.1801   -3.7571   -4.6168 H   0  0  0  0  0  0  0  0  0  0  0  0
    9.0078    1.4200   -4.8413 H   0  0  0  0  0  0  0  0  0  0  0  0
    6.3236   -1.1582   -2.8399 H   0  0  0  0  0  0  0  0  0  0  0  0
    8.0568   -4.1105   -7.3752 H   0  0  0  0  0  0  0  0  0  0  0  0
    5.4916   -2.2870  -10.1863 H   0  0  0  0  0  0  0  0  0  0  0  0
    9.3784    2.6205   -2.7814 H   0  0  0  0  0  0  0  0  0  0  0  0
    6.6994    0.0551   -0.7892 H   0  0  0  0  0  0  0  0  0  0  0  0
    7.8061   -4.8125   -9.5085 H   0  0  0  0  0  0  0  0  0  0  0  0
    1.2812    3.2201   -2.3619 H   0  0  0  0  0  0  0  0  0  0  0  0
    0.4087    2.0057   -3.3142 H   0  0  0  0  0  0  0  0  0  0  0  0
    7.8257    1.6441    0.2411 H   0  0  0  0  0  0  0  0  0  0  0  0
   -1.0321    2.6462   -1.4431 H   0  0  0  0  0  0  0  0  0  0  0  0
    0.3334    2.5201   -0.3323 H   0  0  0  0  0  0  0  0  0  0  0  0
   -0.6256    1.1606    1.1759 H   0  0  0  0  0  0  0  0  0  0  0  0
   -1.9890    0.2396    0.5974 H   0  0  0  0  0  0  0  0  0  0  0  0
   -1.3696    0.4977   -2.8842 H   0  0  0  0  0  0  0  0  0  0  0  0
   -2.3582   -0.1658   -1.6243 H   0  0  0  0  0  0  0  0  0  0  0  0
   -0.5499   -1.0986    2.0528 H   0  0  0  0  0  0  0  0  0  0  0  0
    0.8716   -0.7557    1.0670 H   0  0  0  0  0  0  0  0  0  0  0  0
   -0.1500   -1.3963   -3.2022 H   0  0  0  0  0  0  0  0  0  0  0  0
   -1.5996   -2.1298   -2.5419 H   0  0  0  0  0  0  0  0  0  0  0  0
   -1.5783   -2.3766    0.1479 H   0  0  0  0  0  0  0  0  0  0  0  0
   -0.0682   -3.0546    0.7513 H   0  0  0  0  0  0  0  0  0  0  0  0
    1.1082   -1.7347   -1.1909 H   0  0  0  0  0  0  0  0  0  0  0  0
    0.2555   -3.2250   -1.5493 H   0  0  0  0  0  0  0  0  0  0  0  0
  1  2  1  0  0  0  0 
  1  3  1  0  0  0  0 
  2  4  1  0  0  0  0 
  2  5  1  0  0  0  0 
  3  6  2  0  0  0  0 
  3  7  1  0  0  0  0 
  4  8  2  0  0  0  0 
  4  9  1  0  0  0  0 
  5 10  1  0  0  0  0 
  5 11  2  0  0  0  0 
  6 12  1  0  0  0  0 
  7 13  2  0  0  0  0 
  8 10  1  0  0  0  0 
  8 14  1  0  0  0  0 
  9 15  2  0  0  0  0 
  9 16  1  0  0  0  0 
 10 17  2  0  0  0  0 
 11 18  1  0  0  0  0 
 12 19  2  0  0  0  0 
 13 19  1  0  0  0  0 
 15 20  1  0  0  0  0 
 16 21  2  0  0  0  0 
 17 22  1  0  0  0  0 
 18 22  2  0  0  0  0 
 19 23  1  0  0  0  0 
 20 24  2  0  0  0  0 
 21 24  1  0  0  0  0 
 22 25  1  0  0  0  0 
 23 26  1  0  0  0  0 
 24 27  1  0  0  0  0 
 26 28  1  0  0  0  0 
 28 29  1  0  0  0  0 
 29 30  1  0  0  0  0 
 29 31  1  0  0  0  0 
 30 32  1  0  0  0  0 
 31 33  1  0  0  0  0 
 32 34  1  0  0  0  0 
 33 35  1  0  0  0  0 
 34 35  1  0  0  0  0 
  1 36  1  0  0  0  0 
  1 37  1  0  0  0  0 
  6 38  1  0  0  0  0 
  7 39  1  0  0  0  0 
 11 40  1  0  0  0  0 
 12 41  1  0  0  0  0 
 13 42  1  0  0  0  0 
 14 43  1  0  0  0  0 
 14 44  1  0  0  0  0 
 14 45  1  0  0  0  0 
 15 46  1  0  0  0  0 
 16 47  1  0  0  0  0 
 17 48  1  0  0  0  0 
 18 49  1  0  0  0  0 
 20 50  1  0  0  0  0 
 21 51  1  0  0  0  0 
 25 52  1  0  0  0  0 
 26 53  1  0  0  0  0 
 26 54  1  0  0  0  0 
 27 55  1  0  0  0  0 
 28 56  1  0  0  0  0 
 28 57  1  0  0  0  0 
 30 58  1  0  0  0  0 
 30 59  1  0  0  0  0 
 31 60  1  0  0  0  0 
 31 61  1  0  0  0  0 
 32 62  1  0  0  0  0 
 32 63  1  0  0  0  0 
 33 64  1  0  0  0  0 
 33 65  1  0  0  0  0 
 34 66  1  0  0  0  0 
 34 67  1  0  0  0  0 
 35 68  1  0  0  0  0 
 35 69  1  0  0  0  0 
M  END
> <cdk:Title>
bazedoxifene

> <Conformer>
1

> <SuperDrugID>
SD003505

$$$$
