nicomorphine
  CDK     0628171801

 62 68  0  0  0  0  0  0  0  0999 V2000
   -6.0621   -1.9569    0.8277 O   0  0  0  0  0  0  0  0  0  0  0  0
   -6.1823   -2.6360    2.0091 C   0  0  0  0  0  0  0  0  0  0  0  0
   -6.4208   -0.6021    0.4974 C   0  0  2  0  0  0  0  0  0  0  0  0
   -6.7272   -2.0741    2.9903 O   0  0  0  0  0  0  0  0  0  0  0  0
   -5.6867   -3.9659    2.1056 C   0  0  0  0  0  0  0  0  0  0  0  0
   -7.8080   -0.5869   -0.2514 C   0  0  1  0  0  0  0  0  0  0  0  0
   -5.2769   -0.0566   -0.2281 C   0  0  0  0  0  0  0  0  0  0  0  0
   -4.8887   -4.5258    1.0764 C   0  0  0  0  0  0  0  0  0  0  0  0
   -5.9472   -4.7863    3.2323 C   0  0  0  0  0  0  0  0  0  0  0  0
   -7.7828    0.0650   -1.6707 C   0  0  2  0  0  0  0  0  0  0  0  0
   -8.3195   -1.9329   -0.4517 O   0  0  0  0  0  0  0  0  0  0  0  0
   -5.3603    0.6835   -1.3439 C   0  0  0  0  0  0  0  0  0  0  0  0
   -4.3462   -5.8183    1.2021 C   0  0  0  0  0  0  0  0  0  0  0  0
   -5.4223   -6.0366    3.3209 N   0  0  0  0  0  0  0  0  0  0  0  0
   -7.5199   -1.1593   -2.4249 C   0  0  0  0  0  0  0  0  0  0  0  0
   -6.6321    1.0873   -1.9362 C   0  0  1  0  0  0  0  0  0  0  0  0
   -9.1526    0.6992   -2.0897 C   0  0  1  0  0  0  0  0  0  0  0  0
   -7.8574   -2.2790   -1.6830 C   0  0  0  0  0  0  0  0  0  0  0  0
   -4.6328   -6.5669    2.3546 C   0  0  0  0  0  0  0  0  0  0  0  0
   -6.8942   -1.2388   -3.6816 C   0  0  0  0  0  0  0  0  0  0  0  0
   -6.6159    1.3212   -3.4959 C   0  0  1  0  0  0  0  0  0  0  0  0
   -9.1578    1.1749   -3.5680 C   0  0  1  0  0  0  0  0  0  0  0  0
   -7.6386   -3.5700   -2.1939 C   0  0  0  0  0  0  0  0  0  0  0  0
   -6.3488   -0.0010   -4.3085 C   0  0  2  0  0  0  0  0  0  0  0  0
   -6.7431   -2.5260   -4.2437 C   0  0  0  0  0  0  0  0  0  0  0  0
   -7.9204    1.9303   -3.9545 N   0  0  1  0  0  0  0  0  0  0  0  0
   -7.9434   -4.6010   -1.3436 O   0  0  0  0  0  0  0  0  0  0  0  0
   -7.1100   -3.6787   -3.5085 C   0  0  0  0  0  0  0  0  0  0  0  0
   -8.0362    3.4049   -3.7803 C   0  0  0  0  0  0  0  0  0  0  0  0
   -7.6553   -5.9396   -1.3574 C   0  0  0  0  0  0  0  0  0  0  0  0
   -6.9210   -6.4134   -2.2564 O   0  0  0  0  0  0  0  0  0  0  0  0
   -8.1725   -6.7901   -0.3396 C   0  0  0  0  0  0  0  0  0  0  0  0
   -8.8589   -6.2715    0.7879 C   0  0  0  0  0  0  0  0  0  0  0  0
   -8.0370   -8.1996   -0.4131 C   0  0  0  0  0  0  0  0  0  0  0  0
   -9.4123   -7.1304    1.7564 C   0  0  0  0  0  0  0  0  0  0  0  0
   -8.5775   -9.0047    0.5360 N   0  0  0  0  0  0  0  0  0  0  0  0
   -9.2613   -8.5187    1.6003 C   0  0  0  0  0  0  0  0  0  0  0  0
   -6.8762    2.0316   -1.4421 H   0  0  0  0  0  0  0  0  0  0  0  0
   -8.5233   -0.0579    0.3856 H   0  0  0  0  0  0  0  0  0  0  0  0
   -5.8011    2.0134   -3.7353 H   0  0  0  0  0  0  0  0  0  0  0  0
   -6.5163   -0.0113    1.4137 H   0  0  0  0  0  0  0  0  0  0  0  0
   -4.3672   -0.2476    0.1325 H   0  0  0  0  0  0  0  0  0  0  0  0
   -4.6817   -3.9971    0.2252 H   0  0  0  0  0  0  0  0  0  0  0  0
   -6.5334   -4.4553    4.0014 H   0  0  0  0  0  0  0  0  0  0  0  0
   -4.5153    1.0042   -1.7605 H   0  0  0  0  0  0  0  0  0  0  0  0
   -3.7474   -6.2054    0.4690 H   0  0  0  0  0  0  0  0  0  0  0  0
   -9.9677   -0.0160   -1.9476 H   0  0  0  0  0  0  0  0  0  0  0  0
   -9.3572    1.5594   -1.4462 H   0  0  0  0  0  0  0  0  0  0  0  0
   -4.2473   -7.5054    2.4686 H   0  0  0  0  0  0  0  0  0  0  0  0
   -9.2458    0.3046   -4.2205 H   0  0  0  0  0  0  0  0  0  0  0  0
  -10.0588    1.7686   -3.7455 H   0  0  0  0  0  0  0  0  0  0  0  0
   -6.7578    0.1034   -5.3176 H   0  0  0  0  0  0  0  0  0  0  0  0
   -5.2678   -0.1351   -4.4102 H   0  0  0  0  0  0  0  0  0  0  0  0
   -6.3441   -2.6289   -5.1803 H   0  0  0  0  0  0  0  0  0  0  0  0
   -6.9720   -4.5908   -3.9427 H   0  0  0  0  0  0  0  0  0  0  0  0
   -8.9346    3.7760   -4.2787 H   0  0  0  0  0  0  0  0  0  0  0  0
   -8.0886    3.6719   -2.7238 H   0  0  0  0  0  0  0  0  0  0  0  0
   -7.1834    3.9095   -4.2368 H   0  0  0  0  0  0  0  0  0  0  0  0
   -8.9635   -5.2620    0.9185 H   0  0  0  0  0  0  0  0  0  0  0  0
   -7.5396   -8.6448   -1.1858 H   0  0  0  0  0  0  0  0  0  0  0  0
   -9.9194   -6.7524    2.5608 H   0  0  0  0  0  0  0  0  0  0  0  0
   -9.6650   -9.1662    2.2795 H   0  0  0  0  0  0  0  0  0  0  0  0
  1  2  1  0  0  0  0 
  2  4  2  0  0  0  0 
  2  5  1  0  0  0  0 
  3  1  1  0  0  0  0 
  6  3  1  0  0  0  0 
  3  7  1  0  0  0  0 
  5  8  2  0  0  0  0 
  5  9  1  0  0  0  0 
 10  6  1  0  0  0  0 
  6 11  1  0  0  0  0 
  6 39  1  0  0  0  0 
  7 12  2  0  0  0  0 
  8 13  1  0  0  0  0 
  9 14  2  0  0  0  0 
 10 15  1  0  0  0  0 
 10 16  1  0  0  0  0 
 10 17  1  0  0  0  0 
 11 18  1  0  0  0  0 
 16 12  1  0  0  0  0 
 13 19  2  0  0  0  0 
 14 19  1  0  0  0  0 
 15 18  2  0  0  0  0 
 15 20  1  0  0  0  0 
 16 21  1  0  0  0  0 
 16 38  1  0  0  0  0 
 17 22  1  0  0  0  0 
 18 23  1  0  0  0  0 
 20 24  1  0  0  0  0 
 20 25  2  0  0  0  0 
 21 24  1  0  0  0  0 
 21 26  1  0  0  0  0 
 21 40  1  0  0  0  0 
 22 26  1  0  0  0  0 
 23 27  1  0  0  0  0 
 23 28  2  0  0  0  0 
 25 28  1  0  0  0  0 
 26 29  1  0  0  0  0 
 27 30  1  0  0  0  0 
 30 31  2  0  0  0  0 
 30 32  1  0  0  0  0 
 32 33  2  0  0  0  0 
 32 34  1  0  0  0  0 
 33 35  1  0  0  0  0 
 34 36  2  0  0  0  0 
 35 37  2  0  0  0  0 
 36 37  1  0  0  0  0 
  3 41  1  0  0  0  0 
  7 42  1  0  0  0  0 
  8 43  1  0  0  0  0 
  9 44  1  0  0  0  0 
 12 45  1  0  0  0  0 
 13 46  1  0  0  0  0 
 17 47  1  0  0  0  0 
 17 48  1  0  0  0  0 
 19 49  1  0  0  0  0 
 22 50  1  0  0  0  0 
 22 51  1  0  0  0  0 
 24 52  1  0  0  0  0 
 24 53  1  0  0  0  0 
 25 54  1  0  0  0  0 
 28 55  1  0  0  0  0 
 29 56  1  0  0  0  0 
 29 57  1  0  0  0  0 
 29 58  1  0  0  0  0 
 33 59  1  0  0  0  0 
 34 60  1  0  0  0  0 
 35 61  1  0  0  0  0 
 37 62  1  0  0  0  0 
M  END
> <cdk:Title>
nicomorphine

> <Conformer>
1

> <SuperDrugID>
SD001713

$$$$
