imiclopazine
  CDK     0628171801

 65 69  0  0  0  0  0  0  0  0999 V2000
   -4.5228  -11.9971    3.4426 C   0  0  0  0  0  0  0  0  0  0  0  0
   -4.1754  -10.8409    2.6664 N   0  0  0  0  0  0  0  0  0  0  0  0
   -4.0977  -10.8653    1.2483 C   0  0  1  0  0  0  0  0  0  0  0  0
   -3.6967   -9.4219    0.8780 C   0  0  2  0  0  0  0  0  0  0  0  0
   -3.6119   -8.7429    2.1307 N   0  0  0  0  0  0  0  0  0  0  0  0
   -3.2966   -7.3453    2.3350 C   0  0  1  0  0  0  0  0  0  0  0  0
   -2.9497   -6.5125    1.0666 C   0  0  1  0  0  0  0  0  0  0  0  0
   -2.9288   -5.0229    1.2467 N   0  0  1  0  0  0  0  0  0  0  0  0
   -1.9964   -4.5363    2.3074 C   0  0  1  0  0  0  0  0  0  0  0  0
   -2.0350   -2.9997    2.4511 C   0  0  1  0  0  0  0  0  0  0  0  0
   -1.7748   -2.3168    1.1469 N   0  0  2  0  0  0  0  0  0  0  0  0
   -1.7515   -0.8270    1.3097 C   0  0  1  0  0  0  0  0  0  0  0  0
   -0.9699   -0.0589    0.2086 C   0  0  2  0  0  0  0  0  0  0  0  0
    0.5696    0.0266    0.4172 C   0  0  1  0  0  0  0  0  0  0  0  0
    1.3080   -1.0752   -0.1897 N   0  0  0  0  0  0  0  0  0  0  0  0
    1.8845   -0.9117   -1.4483 C   0  0  0  0  0  0  0  0  0  0  0  0
    2.7008    0.2045   -1.7576 C   0  0  0  0  0  0  0  0  0  0  0  0
    3.2448    0.3719   -3.0437 C   0  0  0  0  0  0  0  0  0  0  0  0
    2.9969   -0.5832   -4.0450 C   0  0  0  0  0  0  0  0  0  0  0  0
    2.2209   -1.7194   -3.7557 C   0  0  0  0  0  0  0  0  0  0  0  0
    1.6875   -1.8853   -2.4633 C   0  0  0  0  0  0  0  0  0  0  0  0
    0.8238   -3.3620   -2.0485 S   0  0  0  0  0  0  0  0  0  0  0  0
    1.1916   -3.5077   -0.3318 C   0  0  0  0  0  0  0  0  0  0  0  0
    1.3912   -2.3225    0.4254 C   0  0  0  0  0  0  0  0  0  0  0  0
    1.7317   -2.4674    1.7941 C   0  0  0  0  0  0  0  0  0  0  0  0
    1.8741   -3.7402    2.3818 C   0  0  0  0  0  0  0  0  0  0  0  0
    2.2701   -3.8795    4.0227 Cl  0  0  0  0  0  0  0  0  0  0  0  0
    1.6965   -4.8959    1.5996 C   0  0  0  0  0  0  0  0  0  0  0  0
    1.3446   -4.7823    0.2450 C   0  0  0  0  0  0  0  0  0  0  0  0
   -2.7298   -2.7881    0.0915 C   0  0  2  0  0  0  0  0  0  0  0  0
   -2.6944   -4.3266   -0.0591 C   0  0  1  0  0  0  0  0  0  0  0  0
   -3.8918   -9.6052    3.1371 C   0  0  0  0  0  0  0  0  0  0  0  0
   -3.8929   -9.2906    4.3511 O   0  0  0  0  0  0  0  0  0  0  0  0
   -4.4675  -11.8118    4.5170 H   0  0  0  0  0  0  0  0  0  0  0  0
   -5.5435  -12.3034    3.2044 H   0  0  0  0  0  0  0  0  0  0  0  0
   -3.8463  -12.8214    3.2066 H   0  0  0  0  0  0  0  0  0  0  0  0
   -3.3440  -11.5816    0.9101 H   0  0  0  0  0  0  0  0  0  0  0  0
   -5.0700  -11.1276    0.8197 H   0  0  0  0  0  0  0  0  0  0  0  0
   -4.4631   -8.9704    0.2431 H   0  0  0  0  0  0  0  0  0  0  0  0
   -2.7328   -9.4054    0.3618 H   0  0  0  0  0  0  0  0  0  0  0  0
   -4.1463   -6.8739    2.8357 H   0  0  0  0  0  0  0  0  0  0  0  0
   -2.4420   -7.2964    3.0140 H   0  0  0  0  0  0  0  0  0  0  0  0
   -1.9882   -6.8581    0.6734 H   0  0  0  0  0  0  0  0  0  0  0  0
   -3.7128   -6.7329    0.3184 H   0  0  0  0  0  0  0  0  0  0  0  0
   -2.2765   -4.9480    3.2770 H   0  0  0  0  0  0  0  0  0  0  0  0
   -0.9792   -4.8555    2.0823 H   0  0  0  0  0  0  0  0  0  0  0  0
   -3.0130   -2.7069    2.8441 H   0  0  0  0  0  0  0  0  0  0  0  0
   -1.2731   -2.7167    3.1864 H   0  0  0  0  0  0  0  0  0  0  0  0
   -2.7797   -0.4527    1.3398 H   0  0  0  0  0  0  0  0  0  0  0  0
   -1.3060   -0.5517    2.2710 H   0  0  0  0  0  0  0  0  0  0  0  0
   -1.3585    0.9636    0.2020 H   0  0  0  0  0  0  0  0  0  0  0  0
   -1.1798   -0.4713   -0.7774 H   0  0  0  0  0  0  0  0  0  0  0  0
    0.8717    0.9837   -0.0136 H   0  0  0  0  0  0  0  0  0  0  0  0
    0.8030    0.1285    1.4762 H   0  0  0  0  0  0  0  0  0  0  0  0
    2.9157    0.9035   -1.0427 H   0  0  0  0  0  0  0  0  0  0  0  0
    3.8267    1.1873   -3.2475 H   0  0  0  0  0  0  0  0  0  0  0  0
    3.3912   -0.4558   -4.9800 H   0  0  0  0  0  0  0  0  0  0  0  0
    2.0608   -2.4251   -4.4798 H   0  0  0  0  0  0  0  0  0  0  0  0
    1.9044   -1.6441    2.3722 H   0  0  0  0  0  0  0  0  0  0  0  0
    1.8169   -5.8242    2.0121 H   0  0  0  0  0  0  0  0  0  0  0  0
    1.2160   -5.6293   -0.3137 H   0  0  0  0  0  0  0  0  0  0  0  0
   -2.4758   -2.3582   -0.8783 H   0  0  0  0  0  0  0  0  0  0  0  0
   -3.7529   -2.4797    0.3337 H   0  0  0  0  0  0  0  0  0  0  0  0
   -1.7291   -4.6244   -0.4809 H   0  0  0  0  0  0  0  0  0  0  0  0
   -3.4743   -4.6044   -0.7752 H   0  0  0  0  0  0  0  0  0  0  0  0
  1  2  1  0  0  0  0 
  2  3  1  0  0  0  0 
  3  4  1  0  0  0  0 
  4  5  1  0  0  0  0 
  5  6  1  0  0  0  0 
  6  7  1  0  0  0  0 
  7  8  1  0  0  0  0 
  8  9  1  0  0  0  0 
  9 10  1  0  0  0  0 
 10 11  1  0  0  0  0 
 11 12  1  0  0  0  0 
 12 13  1  0  0  0  0 
 13 14  1  0  0  0  0 
 14 15  1  0  0  0  0 
 15 16  1  0  0  0  0 
 16 17  2  0  0  0  0 
 17 18  1  0  0  0  0 
 18 19  2  0  0  0  0 
 19 20  1  0  0  0  0 
 20 21  2  0  0  0  0 
 16 21  1  0  0  0  0 
 21 22  1  0  0  0  0 
 22 23  1  0  0  0  0 
 23 24  2  0  0  0  0 
 15 24  1  0  0  0  0 
 24 25  1  0  0  0  0 
 25 26  2  0  0  0  0 
 26 27  1  0  0  0  0 
 26 28  1  0  0  0  0 
 28 29  2  0  0  0  0 
 23 29  1  0  0  0  0 
 11 30  1  0  0  0  0 
 30 31  1  0  0  0  0 
  8 31  1  0  0  0  0 
  5 32  1  0  0  0  0 
  2 32  1  0  0  0  0 
 32 33  2  0  0  0  0 
  1 34  1  0  0  0  0 
  1 35  1  0  0  0  0 
  1 36  1  0  0  0  0 
  3 37  1  0  0  0  0 
  3 38  1  0  0  0  0 
  4 39  1  0  0  0  0 
  4 40  1  0  0  0  0 
  6 41  1  0  0  0  0 
  6 42  1  0  0  0  0 
  7 43  1  0  0  0  0 
  7 44  1  0  0  0  0 
  9 45  1  0  0  0  0 
  9 46  1  0  0  0  0 
 10 47  1  0  0  0  0 
 10 48  1  0  0  0  0 
 12 49  1  0  0  0  0 
 12 50  1  0  0  0  0 
 13 51  1  0  0  0  0 
 13 52  1  0  0  0  0 
 14 53  1  0  0  0  0 
 14 54  1  0  0  0  0 
 17 55  1  0  0  0  0 
 18 56  1  0  0  0  0 
 19 57  1  0  0  0  0 
 20 58  1  0  0  0  0 
 25 59  1  0  0  0  0 
 28 60  1  0  0  0  0 
 29 61  1  0  0  0  0 
 30 62  1  0  0  0  0 
 30 63  1  0  0  0  0 
 31 64  1  0  0  0  0 
 31 65  1  0  0  0  0 
M  END
> <cdk:Title>
imiclopazine

> <Conformer>
1

> <SuperDrugID>
SD003210

$$$$
