floxacillin
  CDK     0628171801

 47 50  0  0  0  0  0  0  0  0999 V2000
    0.8452   -3.4811   -5.1018 C   0  0  0  0  0  0  0  0  0  0  0  0
    1.3956   -4.6373   -5.5429 O   0  0  0  0  0  0  0  0  0  0  0  0
   -0.3994   -3.4418   -4.9732 O   0  0  0  0  0  0  0  0  0  0  0  0
    1.7024   -2.3149   -4.7772 C   0  0  2  0  0  0  0  0  0  0  0  0
    1.4642   -1.9051   -3.4380 N   0  0  0  0  0  0  0  0  0  0  0  0
    1.4570   -0.9692   -5.5669 C   0  0  2  0  0  0  0  0  0  0  0  0
    0.4074   -1.0815   -3.0031 C   0  0  2  0  0  0  0  0  0  0  0  0
    2.1909   -1.8140   -2.3292 C   0  0  0  0  0  0  0  0  0  0  0  0
    0.4605    0.0693   -4.4144 S   0  0  0  0  0  0  0  0  0  0  0  0
    1.2389   -0.9064   -1.6932 C   0  0  1  0  0  0  0  0  0  0  0  0
    3.3199   -2.2395   -1.9989 O   0  0  0  0  0  0  0  0  0  0  0  0
    1.7760    0.3899   -1.4323 N   0  0  0  0  0  0  0  0  0  0  0  0
    1.0872    1.3898   -0.8217 C   0  0  0  0  0  0  0  0  0  0  0  0
   -0.1355    1.2453   -0.5843 O   0  0  0  0  0  0  0  0  0  0  0  0
    1.7336    2.5813   -0.4153 C   0  0  0  0  0  0  0  0  0  0  0  0
    3.0858    2.7790   -0.1067 C   0  0  0  0  0  0  0  0  0  0  0  0
    1.1504    3.8376   -0.2287 C   0  0  0  0  0  0  0  0  0  0  0  0
    3.2498    4.0672    0.2396 N   0  0  0  0  0  0  0  0  0  0  0  0
   -0.2457    4.2465   -0.4431 C   0  0  0  0  0  0  0  0  0  0  0  0
    2.1123    4.6965    0.1708 O   0  0  0  0  0  0  0  0  0  0  0  0
   -0.5294   -1.6367   -2.8964 H   0  0  0  0  0  0  0  0  0  0  0  0
    0.6962   -1.1133   -6.9189 C   0  0  0  0  0  0  0  0  0  0  0  0
    2.8036   -0.2201   -5.8086 C   0  0  0  0  0  0  0  0  0  0  0  0
    4.1755    1.8703   -0.1292 C   0  0  0  0  0  0  0  0  0  0  0  0
    5.2843    2.1659   -0.9650 C   0  0  0  0  0  0  0  0  0  0  0  0
    6.4020    1.3122   -1.0003 C   0  0  0  0  0  0  0  0  0  0  0  0
    6.4356    0.1603   -0.1998 C   0  0  0  0  0  0  0  0  0  0  0  0
    5.3453   -0.1493    0.6292 C   0  0  0  0  0  0  0  0  0  0  0  0
    4.2176    0.6979    0.6765 C   0  0  0  0  0  0  0  0  0  0  0  0
    2.9750    0.2664    1.7529 Cl  0  0  0  0  0  0  0  0  0  0  0  0
    5.3058    3.2294   -1.7298 F   0  0  0  0  0  0  0  0  0  0  0  0
    0.8232   -5.4062   -5.7514 H   0  0  0  0  0  0  0  0  0  0  0  0
    2.7419   -2.6427   -4.8829 H   0  0  0  0  0  0  0  0  0  0  0  0
    0.7763   -1.3716   -0.8163 H   0  0  0  0  0  0  0  0  0  0  0  0
    2.6957    0.5613   -1.6892 H   0  0  0  0  0  0  0  0  0  0  0  0
   -0.8945    3.7463    0.2748 H   0  0  0  0  0  0  0  0  0  0  0  0
   -0.3391    5.3247   -0.3117 H   0  0  0  0  0  0  0  0  0  0  0  0
   -0.5557    3.9921   -1.4577 H   0  0  0  0  0  0  0  0  0  0  0  0
    0.6025   -0.1468   -7.4182 H   0  0  0  0  0  0  0  0  0  0  0  0
    1.2315   -1.7941   -7.5820 H   0  0  0  0  0  0  0  0  0  0  0  0
   -0.3109   -1.5010   -6.7641 H   0  0  0  0  0  0  0  0  0  0  0  0
    2.6388    0.7447   -6.2930 H   0  0  0  0  0  0  0  0  0  0  0  0
    3.4570   -0.8143   -6.4498 H   0  0  0  0  0  0  0  0  0  0  0  0
    3.3244   -0.0401   -4.8656 H   0  0  0  0  0  0  0  0  0  0  0  0
    7.1952    1.5289   -1.6084 H   0  0  0  0  0  0  0  0  0  0  0  0
    7.2554   -0.4507   -0.2214 H   0  0  0  0  0  0  0  0  0  0  0  0
    5.3891   -0.9941    1.2049 H   0  0  0  0  0  0  0  0  0  0  0  0
  1  2  1  0  0  0  0 
  1  3  2  0  0  0  0 
  4  1  1  0  0  0  0 
  4  5  1  0  0  0  0 
  4  6  1  0  0  0  0 
  7  5  1  0  0  0  0 
  5  8  1  0  0  0  0 
  6  9  1  0  0  0  0 
  7  9  1  0  0  0  0 
 10  7  1  0  0  0  0 
  7 21  1  0  0  0  0 
 10  8  1  0  0  0  0 
  8 11  2  0  0  0  0 
 10 12  1  0  0  0  0 
 12 13  1  0  0  0  0 
 13 14  2  0  0  0  0 
 13 15  1  0  0  0  0 
 15 16  1  0  0  0  0 
 15 17  2  0  0  0  0 
 16 18  2  0  0  0  0 
 17 19  1  0  0  0  0 
 17 20  1  0  0  0  0 
 18 20  1  0  0  0  0 
  6 22  1  0  0  0  0 
  6 23  1  0  0  0  0 
 16 24  1  0  0  0  0 
 25 26  1  0  0  0  0 
 26 27  2  0  0  0  0 
 27 28  1  0  0  0  0 
 28 29  2  0  0  0  0 
 24 25  2  0  0  0  0 
 24 29  1  0  0  0  0 
 29 30  1  0  0  0  0 
 25 31  1  0  0  0  0 
  2 32  1  0  0  0  0 
  4 33  1  0  0  0  0 
 10 34  1  0  0  0  0 
 12 35  1  0  0  0  0 
 19 36  1  0  0  0  0 
 19 37  1  0  0  0  0 
 19 38  1  0  0  0  0 
 22 39  1  0  0  0  0 
 22 40  1  0  0  0  0 
 22 41  1  0  0  0  0 
 23 42  1  0  0  0  0 
 23 43  1  0  0  0  0 
 23 44  1  0  0  0  0 
 26 45  1  0  0  0  0 
 27 46  1  0  0  0  0 
 28 47  1  0  0  0  0 
M  END
> <cdk:Title>
floxacillin

> <Conformer>
1

> <SuperDrugID>
SD001059

$$$$
