liothyronine
  CDK     0628171801

 35 36  0  0  0  0  0  0  0  0999 V2000
   -3.0388    4.8082    8.0771 O   0  0  0  0  0  0  0  0  0  0  0  0
   -3.0847    3.4347    8.1194 C   0  0  0  0  0  0  0  0  0  0  0  0
   -1.7623    5.3287    7.9771 C   0  0  0  0  0  0  0  0  0  0  0  0
   -3.1170    2.6548    6.9380 C   0  0  0  0  0  0  0  0  0  0  0  0
   -3.1547    2.7705    9.3645 C   0  0  0  0  0  0  0  0  0  0  0  0
   -1.3706    5.9510    6.7726 C   0  0  0  0  0  0  0  0  0  0  0  0
   -0.8508    5.3364    9.0593 C   0  0  0  0  0  0  0  0  0  0  0  0
   -3.3246    3.5003    5.0773 I   0  0  0  0  0  0  0  0  0  0  0  0
   -3.0387    1.2508    7.0108 C   0  0  0  0  0  0  0  0  0  0  0  0
   -3.5037    3.7940   11.1133 I   0  0  0  0  0  0  0  0  0  0  0  0
   -3.0319    1.3707    9.4312 C   0  0  0  0  0  0  0  0  0  0  0  0
   -0.0887    6.5162    6.6255 C   0  0  0  0  0  0  0  0  0  0  0  0
    0.4260    5.9097    8.9244 C   0  0  0  0  0  0  0  0  0  0  0  0
   -2.9408    0.5909    8.2564 C   0  0  0  0  0  0  0  0  0  0  0  0
    0.4108    7.3966    4.8373 I   0  0  0  0  0  0  0  0  0  0  0  0
    0.8175    6.4885    7.7055 C   0  0  0  0  0  0  0  0  0  0  0  0
   -2.7212   -0.8827    8.3393 C   0  0  1  0  0  0  0  0  0  0  0  0
    2.0580    7.0287    7.6146 O   0  0  0  0  0  0  0  0  0  0  0  0
   -3.8629   -1.6830    9.0299 C   0  0  1  0  0  0  0  0  0  0  0  0
   -5.1286   -1.6246    8.2700 C   0  0  0  0  0  0  0  0  0  0  0  0
   -3.4683   -3.0914    9.1805 N   0  0  2  0  0  0  0  0  0  0  0  0
   -5.2011   -2.1173    7.0124 O   0  0  0  0  0  0  0  0  0  0  0  0
   -6.1582   -1.1174    8.7685 O   0  0  0  0  0  0  0  0  0  0  0  0
   -2.0248    6.0104    5.9940 H   0  0  0  0  0  0  0  0  0  0  0  0
   -1.1074    4.9353    9.9583 H   0  0  0  0  0  0  0  0  0  0  0  0
   -3.0457    0.7076    6.1442 H   0  0  0  0  0  0  0  0  0  0  0  0
   -3.0074    0.9227   10.3495 H   0  0  0  0  0  0  0  0  0  0  0  0
    1.0680    5.9102    9.7217 H   0  0  0  0  0  0  0  0  0  0  0  0
   -2.5494   -1.3069    7.3451 H   0  0  0  0  0  0  0  0  0  0  0  0
   -1.7974   -1.0404    8.9019 H   0  0  0  0  0  0  0  0  0  0  0  0
    2.1845    7.2581    6.6720 H   0  0  0  0  0  0  0  0  0  0  0  0
   -4.0246   -1.2960   10.0395 H   0  0  0  0  0  0  0  0  0  0  0  0
   -2.6088   -3.1044    9.7355 H   0  0  0  0  0  0  0  0  0  0  0  0
   -3.2234   -3.4392    8.2509 H   0  0  0  0  0  0  0  0  0  0  0  0
   -6.0425   -2.0655    6.5134 H   0  0  0  0  0  0  0  0  0  0  0  0
  1  2  1  0  0  0  0 
  1  3  1  0  0  0  0 
  2  4  2  0  0  0  0 
  2  5  1  0  0  0  0 
  3  6  2  0  0  0  0 
  3  7  1  0  0  0  0 
  4  8  1  0  0  0  0 
  4  9  1  0  0  0  0 
  5 10  1  0  0  0  0 
  5 11  2  0  0  0  0 
  6 12  1  0  0  0  0 
  7 13  2  0  0  0  0 
  9 14  2  0  0  0  0 
 11 14  1  0  0  0  0 
 12 15  1  0  0  0  0 
 12 16  2  0  0  0  0 
 13 16  1  0  0  0  0 
 14 17  1  0  0  0  0 
 16 18  1  0  0  0  0 
 19 17  1  0  0  0  0 
 19 20  1  0  0  0  0 
 19 21  1  0  0  0  0 
 20 22  1  0  0  0  0 
 20 23  2  0  0  0  0 
  6 24  1  0  0  0  0 
  7 25  1  0  0  0  0 
  9 26  1  0  0  0  0 
 11 27  1  0  0  0  0 
 13 28  1  0  0  0  0 
 17 29  1  0  0  0  0 
 17 30  1  0  0  0  0 
 18 31  1  0  0  0  0 
 19 32  1  0  0  0  0 
 21 33  1  0  0  0  0 
 21 34  1  0  0  0  0 
 22 35  1  0  0  0  0 
M  END
> <cdk:Title>
liothyronine

> <Conformer>
1

> <SuperDrugID>
SD001400

$$$$
