amoxicillin
  CDK     0628171801

 44 46  0  0  0  0  0  0  0  0999 V2000
   -3.4675    1.8363   -1.3708 C   0  0  0  0  0  0  0  0  0  0  0  0
   -3.8236    2.6928   -2.3570 O   0  0  0  0  0  0  0  0  0  0  0  0
   -3.8725    0.6539   -1.4432 O   0  0  0  0  0  0  0  0  0  0  0  0
   -2.6353    2.3214   -0.2406 C   0  0  2  0  0  0  0  0  0  0  0  0
   -1.5062    1.4797   -0.0421 N   0  0  0  0  0  0  0  0  0  0  0  0
   -3.2827    2.3231    1.1982 C   0  0  2  0  0  0  0  0  0  0  0  0
   -1.4878    0.2746    0.6915 C   0  0  2  0  0  0  0  0  0  0  0  0
   -0.1924    1.6741   -0.0419 C   0  0  0  0  0  0  0  0  0  0  0  0
   -2.7385    0.7279    1.9384 S   0  0  0  0  0  0  0  0  0  0  0  0
    0.0513    0.5233    0.8275 C   0  0  1  0  0  0  0  0  0  0  0  0
    0.5429    2.5924   -0.4680 O   0  0  0  0  0  0  0  0  0  0  0  0
    0.4943    0.9322    2.1240 N   0  0  0  0  0  0  0  0  0  0  0  0
    1.7940    1.0106    2.5227 C   0  0  0  0  0  0  0  0  0  0  0  0
    2.1209    1.5883    3.8498 C   0  0  2  0  0  0  0  0  0  0  0  0
    2.7193    0.6172    1.7725 O   0  0  0  0  0  0  0  0  0  0  0  0
    3.0346    2.7292    3.6866 N   0  0  1  0  0  0  0  0  0  0  0  0
    2.6757    0.5803    4.8041 C   0  0  0  0  0  0  0  0  0  0  0  0
    1.9341    0.1929    5.9472 C   0  0  0  0  0  0  0  0  0  0  0  0
    3.9457   -0.0156    4.6016 C   0  0  0  0  0  0  0  0  0  0  0  0
    2.4382   -0.7600    6.8522 C   0  0  0  0  0  0  0  0  0  0  0  0
    4.4491   -0.9726    5.5020 C   0  0  0  0  0  0  0  0  0  0  0  0
    3.6993   -1.3432    6.6337 C   0  0  0  0  0  0  0  0  0  0  0  0
    4.1808   -2.2500    7.5196 O   0  0  0  0  0  0  0  0  0  0  0  0
   -1.7677   -0.5924    0.0866 H   0  0  0  0  0  0  0  0  0  0  0  0
   -4.8364    2.4392    1.2242 C   0  0  0  0  0  0  0  0  0  0  0  0
   -2.6621    3.4418    2.0936 C   0  0  0  0  0  0  0  0  0  0  0  0
   -4.3917    2.3909   -3.0959 H   0  0  0  0  0  0  0  0  0  0  0  0
   -2.2995    3.3315   -0.4953 H   0  0  0  0  0  0  0  0  0  0  0  0
    0.6560   -0.2493    0.3442 H   0  0  0  0  0  0  0  0  0  0  0  0
   -0.1828    1.2124    2.7596 H   0  0  0  0  0  0  0  0  0  0  0  0
    1.2064    2.0186    4.2656 H   0  0  0  0  0  0  0  0  0  0  0  0
    3.2491    3.0830    4.6202 H   0  0  0  0  0  0  0  0  0  0  0  0
    3.9079    2.3732    3.2961 H   0  0  0  0  0  0  0  0  0  0  0  0
    1.0139    0.6015    6.1307 H   0  0  0  0  0  0  0  0  0  0  0  0
    4.5185    0.2434    3.7945 H   0  0  0  0  0  0  0  0  0  0  0  0
    1.8819   -1.0265    7.6682 H   0  0  0  0  0  0  0  0  0  0  0  0
    5.3636   -1.3971    5.3304 H   0  0  0  0  0  0  0  0  0  0  0  0
    5.0135   -2.5926    7.1308 H   0  0  0  0  0  0  0  0  0  0  0  0
   -5.2107    2.4370    2.2500 H   0  0  0  0  0  0  0  0  0  0  0  0
   -5.1549    3.3657    0.7428 H   0  0  0  0  0  0  0  0  0  0  0  0
   -5.3034    1.6036    0.7019 H   0  0  0  0  0  0  0  0  0  0  0  0
   -3.0404    3.3835    3.1170 H   0  0  0  0  0  0  0  0  0  0  0  0
   -2.9047    4.4276    1.6968 H   0  0  0  0  0  0  0  0  0  0  0  0
   -1.5752    3.3564    2.1337 H   0  0  0  0  0  0  0  0  0  0  0  0
  1  2  1  0  0  0  0 
  1  3  2  0  0  0  0 
  4  1  1  0  0  0  0 
  4  5  1  0  0  0  0 
  4  6  1  0  0  0  0 
  7  5  1  0  0  0  0 
  5  8  1  0  0  0  0 
  6  9  1  0  0  0  0 
  7  9  1  0  0  0  0 
 10  7  1  0  0  0  0 
  7 24  1  0  0  0  0 
 10  8  1  0  0  0  0 
  8 11  2  0  0  0  0 
 10 12  1  0  0  0  0 
 12 13  1  0  0  0  0 
 14 13  1  0  0  0  0 
 13 15  2  0  0  0  0 
 14 16  1  0  0  0  0 
 14 17  1  0  0  0  0 
 17 18  2  0  0  0  0 
 17 19  1  0  0  0  0 
 18 20  1  0  0  0  0 
 19 21  2  0  0  0  0 
 20 22  2  0  0  0  0 
 21 22  1  0  0  0  0 
 22 23  1  0  0  0  0 
  6 25  1  0  0  0  0 
  6 26  1  0  0  0  0 
  2 27  1  0  0  0  0 
  4 28  1  0  0  0  0 
 10 29  1  0  0  0  0 
 12 30  1  0  0  0  0 
 14 31  1  0  0  0  0 
 16 32  1  0  0  0  0 
 16 33  1  0  0  0  0 
 18 34  1  0  0  0  0 
 19 35  1  0  0  0  0 
 20 36  1  0  0  0  0 
 21 37  1  0  0  0  0 
 23 38  1  0  0  0  0 
 25 39  1  0  0  0  0 
 25 40  1  0  0  0  0 
 25 41  1  0  0  0  0 
 26 42  1  0  0  0  0 
 26 43  1  0  0  0  0 
 26 44  1  0  0  0  0 
M  END
> <cdk:Title>
amoxicillin

> <Conformer>
1

> <SuperDrugID>
SD000157

$$$$
