dexketoprofen
  CDK     0628171802

 33 34  0  0  0  0  0  0  0  0999 V2000
    2.5982    1.9719    6.1509 C   0  0  0  0  0  0  0  0  0  0  0  0
    3.1817    2.1694    7.2447 O   0  0  0  0  0  0  0  0  0  0  0  0
    1.3598    1.2656    6.1915 C   0  0  0  0  0  0  0  0  0  0  0  0
    3.1918    2.5036    4.9614 C   0  0  0  0  0  0  0  0  0  0  0  0
    1.0120    0.3144    5.2000 C   0  0  0  0  0  0  0  0  0  0  0  0
    0.4374    1.5099    7.2351 C   0  0  0  0  0  0  0  0  0  0  0  0
    2.4081    2.8497    3.8290 C   0  0  0  0  0  0  0  0  0  0  0  0
    4.5901    2.7391    4.8904 C   0  0  0  0  0  0  0  0  0  0  0  0
   -0.2398   -0.3517    5.2035 C   0  0  0  0  0  0  0  0  0  0  0  0
   -0.8108    0.8680    7.2559 C   0  0  0  0  0  0  0  0  0  0  0  0
    2.9960    3.3855    2.6690 C   0  0  0  0  0  0  0  0  0  0  0  0
    5.1778    3.2868    3.7342 C   0  0  0  0  0  0  0  0  0  0  0  0
   -0.5828   -1.3498    4.1359 C   0  0  1  0  0  0  0  0  0  0  0  0
   -1.1468   -0.0501    6.2480 C   0  0  0  0  0  0  0  0  0  0  0  0
    4.3816    3.6069    2.6220 C   0  0  0  0  0  0  0  0  0  0  0  0
   -0.6035   -2.7264    4.6863 C   0  0  0  0  0  0  0  0  0  0  0  0
   -1.9018   -1.0153    3.3802 C   0  0  0  0  0  0  0  0  0  0  0  0
    0.3130   -3.6407    4.2877 O   0  0  0  0  0  0  0  0  0  0  0  0
   -1.4554   -3.0781    5.5338 O   0  0  0  0  0  0  0  0  0  0  0  0
    1.6854    0.1003    4.4598 H   0  0  0  0  0  0  0  0  0  0  0  0
    0.6598    2.1706    7.9844 H   0  0  0  0  0  0  0  0  0  0  0  0
    1.3932    2.7266    3.8358 H   0  0  0  0  0  0  0  0  0  0  0  0
    5.2001    2.5131    5.6823 H   0  0  0  0  0  0  0  0  0  0  0  0
   -1.4768    1.0746    8.0035 H   0  0  0  0  0  0  0  0  0  0  0  0
    2.4132    3.6201    1.8626 H   0  0  0  0  0  0  0  0  0  0  0  0
    6.1858    3.4525    3.7034 H   0  0  0  0  0  0  0  0  0  0  0  0
    0.2022   -1.3331    3.3704 H   0  0  0  0  0  0  0  0  0  0  0  0
   -2.0642   -0.4989    6.2857 H   0  0  0  0  0  0  0  0  0  0  0  0
    4.8078    4.0015    1.7814 H   0  0  0  0  0  0  0  0  0  0  0  0
   -2.0135   -1.6597    2.5046 H   0  0  0  0  0  0  0  0  0  0  0  0
   -2.7776   -1.1561    4.0167 H   0  0  0  0  0  0  0  0  0  0  0  0
   -1.8890    0.0212    3.0362 H   0  0  0  0  0  0  0  0  0  0  0  0
    0.3014   -4.5505    4.6540 H   0  0  0  0  0  0  0  0  0  0  0  0
  1  2  2  0  0  0  0 
  1  3  1  0  0  0  0 
  1  4  1  0  0  0  0 
  3  5  2  0  0  0  0 
  3  6  1  0  0  0  0 
  4  7  2  0  0  0  0 
  4  8  1  0  0  0  0 
  5  9  1  0  0  0  0 
  6 10  2  0  0  0  0 
  7 11  1  0  0  0  0 
  8 12  2  0  0  0  0 
 13  9  1  0  0  0  0 
  9 14  2  0  0  0  0 
 10 14  1  0  0  0  0 
 11 15  2  0  0  0  0 
 12 15  1  0  0  0  0 
 13 16  1  0  0  0  0 
 13 17  1  0  0  0  0 
 16 18  1  0  0  0  0 
 16 19  2  0  0  0  0 
  5 20  1  0  0  0  0 
  6 21  1  0  0  0  0 
  7 22  1  0  0  0  0 
  8 23  1  0  0  0  0 
 10 24  1  0  0  0  0 
 11 25  1  0  0  0  0 
 12 26  1  0  0  0  0 
 13 27  1  0  0  0  0 
 14 28  1  0  0  0  0 
 15 29  1  0  0  0  0 
 17 30  1  0  0  0  0 
 17 31  1  0  0  0  0 
 17 32  1  0  0  0  0 
 18 33  1  0  0  0  0 
M  END
> <cdk:Title>
dexketoprofen

> <Conformer>
1

> <SuperDrugID>
SD000737

$$$$
