fosfluconazole
  CDK     0628171801

 39 41  0  0  0  0  0  0  0  0999 V2000
   -0.4491    2.2770    0.2096 C   0  0  2  0  0  0  0  0  0  0  0  0
    0.0173    3.0047   -1.1041 C   0  0  2  0  0  0  0  0  0  0  0  0
    0.7098    2.2220    1.2751 C   0  0  1  0  0  0  0  0  0  0  0  0
   -0.8886    0.9118   -0.1080 O   0  0  0  0  0  0  0  0  0  0  0  0
   -1.6406    3.0426    0.7992 C   0  0  0  0  0  0  0  0  0  0  0  0
   -1.0477    3.1220   -2.0601 N   0  0  0  0  0  0  0  0  0  0  0  0
    0.2648    1.7349    2.5505 N   0  0  0  0  0  0  0  0  0  0  0  0
   -0.0252   -0.2542   -0.8037 P   0  0  1  0  0  0  0  0  0  0  0  0
   -1.5551    4.4061    1.2217 C   0  0  0  0  0  0  0  0  0  0  0  0
   -2.9121    2.4204    0.9638 C   0  0  0  0  0  0  0  0  0  0  0  0
   -1.8199    4.2007   -2.2943 C   0  0  0  0  0  0  0  0  0  0  0  0
   -1.4627    2.1612   -2.8195 N   0  0  0  0  0  0  0  0  0  0  0  0
    0.2000    0.4552    2.9624 C   0  0  0  0  0  0  0  0  0  0  0  0
   -0.1918    2.4890    3.5014 N   0  0  0  0  0  0  0  0  0  0  0  0
    1.1745   -0.6109   -0.0430 O   0  0  0  0  0  0  0  0  0  0  0  0
   -0.9812   -1.5208   -0.8731 O   0  0  0  0  0  0  0  0  0  0  0  0
    0.3660    0.0833   -2.3002 O   0  0  0  0  0  0  0  0  0  0  0  0
   -0.4537    5.1018    1.1513 F   0  0  0  0  0  0  0  0  0  0  0  0
   -2.6655    5.0929    1.7507 C   0  0  0  0  0  0  0  0  0  0  0  0
   -4.0204    3.1030    1.4964 C   0  0  0  0  0  0  0  0  0  0  0  0
   -2.7441    3.8979   -3.2149 N   0  0  0  0  0  0  0  0  0  0  0  0
   -2.5000    2.6192   -3.5295 C   0  0  0  0  0  0  0  0  0  0  0  0
   -0.3288    0.4055    4.1902 N   0  0  0  0  0  0  0  0  0  0  0  0
   -0.5687    1.6836    4.5049 C   0  0  0  0  0  0  0  0  0  0  0  0
   -3.9028    4.4455    1.8866 C   0  0  0  0  0  0  0  0  0  0  0  0
   -4.9341    5.0880    2.3683 F   0  0  0  0  0  0  0  0  0  0  0  0
    0.8538    2.4669   -1.5529 H   0  0  0  0  0  0  0  0  0  0  0  0
    0.4175    3.9943   -0.8765 H   0  0  0  0  0  0  0  0  0  0  0  0
    1.5397    1.6133    0.9148 H   0  0  0  0  0  0  0  0  0  0  0  0
    1.1451    3.2129    1.4173 H   0  0  0  0  0  0  0  0  0  0  0  0
   -3.0624    1.4461    0.6995 H   0  0  0  0  0  0  0  0  0  0  0  0
   -1.7362    5.1087   -1.8334 H   0  0  0  0  0  0  0  0  0  0  0  0
    0.4983   -0.3644    2.4353 H   0  0  0  0  0  0  0  0  0  0  0  0
   -1.7536   -1.2196   -1.3967 H   0  0  0  0  0  0  0  0  0  0  0  0
   -0.4751    0.0192   -2.7994 H   0  0  0  0  0  0  0  0  0  0  0  0
   -2.5739    6.0714    2.0378 H   0  0  0  0  0  0  0  0  0  0  0  0
   -4.9157    2.6192    1.5962 H   0  0  0  0  0  0  0  0  0  0  0  0
   -3.0246    2.0658   -4.2072 H   0  0  0  0  0  0  0  0  0  0  0  0
   -0.9845    1.9981    5.3820 H   0  0  0  0  0  0  0  0  0  0  0  0
  1  2  1  0  0  0  0 
  1  3  1  0  0  0  0 
  1  4  1  0  0  0  0 
  1  5  1  0  0  0  0 
  2  6  1  0  0  0  0 
  3  7  1  0  0  0  0 
  4  8  1  0  0  0  0 
  5  9  2  0  0  0  0 
  5 10  1  0  0  0  0 
  6 11  1  0  0  0  0 
  6 12  1  0  0  0  0 
  7 13  1  0  0  0  0 
  7 14  1  0  0  0  0 
  8 15  2  0  0  0  0 
  8 16  1  0  0  0  0 
  8 17  1  0  0  0  0 
  9 18  1  0  0  0  0 
  9 19  1  0  0  0  0 
 10 20  2  0  0  0  0 
 11 21  2  0  0  0  0 
 12 22  2  0  0  0  0 
 13 23  2  0  0  0  0 
 14 24  2  0  0  0  0 
 19 25  2  0  0  0  0 
 20 25  1  0  0  0  0 
 21 22  1  0  0  0  0 
 23 24  1  0  0  0  0 
 25 26  1  0  0  0  0 
  2 27  1  0  0  0  0 
  2 28  1  0  0  0  0 
  3 29  1  0  0  0  0 
  3 30  1  0  0  0  0 
 10 31  1  0  0  0  0 
 11 32  1  0  0  0  0 
 13 33  1  0  0  0  0 
 16 34  1  0  0  0  0 
 17 35  1  0  0  0  0 
 19 36  1  0  0  0  0 
 20 37  1  0  0  0  0 
 22 38  1  0  0  0  0 
 24 39  1  0  0  0  0 
M  END
> <cdk:Title>
fosfluconazole

> <Conformer>
1

> <SuperDrugID>
SD001115

$$$$
