propranolol
  CDK     0628171801

 40 41  0  0  0  0  0  0  0  0999 V2000
    3.4077    0.5756    0.7982 C   0  0  0  0  0  0  0  0  0  0  0  0
    4.0389    1.3717    1.8007 C   0  0  0  0  0  0  0  0  0  0  0  0
    4.3282    0.8018    3.0605 C   0  0  0  0  0  0  0  0  0  0  0  0
    3.9968   -0.5379    3.3294 C   0  0  0  0  0  0  0  0  0  0  0  0
    3.3502   -1.3141    2.3551 C   0  0  0  0  0  0  0  0  0  0  0  0
    3.0401   -0.7646    1.0962 C   0  0  0  0  0  0  0  0  0  0  0  0
    3.5191    2.4780   -0.7458 C   0  0  0  0  0  0  0  0  0  0  0  0
    4.1127    3.2663    0.2525 C   0  0  0  0  0  0  0  0  0  0  0  0
    4.3749    2.7174    1.5196 C   0  0  0  0  0  0  0  0  0  0  0  0
    3.1671    1.1435   -0.4751 C   0  0  0  0  0  0  0  0  0  0  0  0
    2.4134   -1.5653    0.1744 O   0  0  0  0  0  0  0  0  0  0  0  0
    0.9699   -1.5030    0.2362 C   0  0  1  0  0  0  0  0  0  0  0  0
    0.3454   -2.2472   -0.9742 C   0  0  2  0  0  0  0  0  0  0  0  0
    0.8347   -1.6880   -2.3359 C   0  0  2  0  0  0  0  0  0  0  0  0
   -1.0765   -2.1376   -0.8973 O   0  0  0  0  0  0  0  0  0  0  0  0
    0.6036   -3.3080   -0.9153 H   0  0  0  0  0  0  0  0  0  0  0  0
    0.1622   -2.3550   -3.4766 N   0  0  1  0  0  0  0  0  0  0  0  0
    0.6218   -1.9538   -4.8358 C   0  0  1  0  0  0  0  0  0  0  0  0
   -0.0066   -2.9269   -5.8645 C   0  0  0  0  0  0  0  0  0  0  0  0
    0.2658   -0.4816   -5.1825 C   0  0  0  0  0  0  0  0  0  0  0  0
    4.7849    1.3534    3.7912 H   0  0  0  0  0  0  0  0  0  0  0  0
    4.2277   -0.9513    4.2348 H   0  0  0  0  0  0  0  0  0  0  0  0
    3.1096   -2.2867    2.5621 H   0  0  0  0  0  0  0  0  0  0  0  0
    3.3377    2.8782   -1.6693 H   0  0  0  0  0  0  0  0  0  0  0  0
    4.3556    4.2403    0.0540 H   0  0  0  0  0  0  0  0  0  0  0  0
    4.8169    3.3054    2.2302 H   0  0  0  0  0  0  0  0  0  0  0  0
    2.7342    0.5952   -1.2202 H   0  0  0  0  0  0  0  0  0  0  0  0
    0.6191   -1.9770    1.1586 H   0  0  0  0  0  0  0  0  0  0  0  0
    0.6128   -0.4664    0.2267 H   0  0  0  0  0  0  0  0  0  0  0  0
    1.9148   -1.8376   -2.4227 H   0  0  0  0  0  0  0  0  0  0  0  0
    0.6248   -0.6174   -2.3620 H   0  0  0  0  0  0  0  0  0  0  0  0
   -1.3155   -2.5277   -0.0313 H   0  0  0  0  0  0  0  0  0  0  0  0
    0.3571   -3.3558   -3.3841 H   0  0  0  0  0  0  0  0  0  0  0  0
    1.7080   -2.0704   -4.8966 H   0  0  0  0  0  0  0  0  0  0  0  0
    0.2995   -3.9525   -5.6465 H   0  0  0  0  0  0  0  0  0  0  0  0
   -1.0973   -2.8697   -5.8282 H   0  0  0  0  0  0  0  0  0  0  0  0
    0.3248   -2.6814   -6.8766 H   0  0  0  0  0  0  0  0  0  0  0  0
   -0.7880   -0.2874   -4.9736 H   0  0  0  0  0  0  0  0  0  0  0  0
    0.8740    0.2067   -4.5929 H   0  0  0  0  0  0  0  0  0  0  0  0
    0.4580   -0.2727   -6.2377 H   0  0  0  0  0  0  0  0  0  0  0  0
  1  6  2  0  0  0  0 
  2  3  2  0  0  0  0 
  3  4  1  0  0  0  0 
  4  5  2  0  0  0  0 
  5  6  1  0  0  0  0 
  9  2  1  0  0  0  0 
  1  2  1  0  0  0  0 
  1 10  1  0  0  0  0 
  7  8  1  0  0  0  0 
  7 10  2  0  0  0  0 
  8  9  2  0  0  0  0 
  6 11  1  0  0  0  0 
 11 12  1  0  0  0  0 
 13 12  1  0  0  0  0 
 13 14  1  0  0  0  0 
 13 15  1  0  0  0  0 
 13 16  1  0  0  0  0 
 14 17  1  0  0  0  0 
 17 18  1  0  0  0  0 
 18 19  1  0  0  0  0 
 18 20  1  0  0  0  0 
  3 21  1  0  0  0  0 
  4 22  1  0  0  0  0 
  5 23  1  0  0  0  0 
  7 24  1  0  0  0  0 
  8 25  1  0  0  0  0 
  9 26  1  0  0  0  0 
 10 27  1  0  0  0  0 
 12 28  1  0  0  0  0 
 12 29  1  0  0  0  0 
 14 30  1  0  0  0  0 
 14 31  1  0  0  0  0 
 15 32  1  0  0  0  0 
 17 33  1  0  0  0  0 
 18 34  1  0  0  0  0 
 19 35  1  0  0  0  0 
 19 36  1  0  0  0  0 
 19 37  1  0  0  0  0 
 20 38  1  0  0  0  0 
 20 39  1  0  0  0  0 
 20 40  1  0  0  0  0 
M  END
> <cdk:Title>
propranolol

> <Conformer>
1

> <SuperDrugID>
SD002068

$$$$
