nadide
  CDK     0628171801

 71 75  0  0  0  0  0  0  0  0999 V2000
   -3.7524    5.1846    2.2826 O   0  0  0  0  0  0  0  0  0  0  0  0
   -4.1360    5.7743    1.0392 C   0  0  1  0  0  0  0  0  0  0  0  0
   -2.9753    6.6089    0.4478 C   0  0  2  0  0  0  0  0  0  0  0  0
   -4.3556    4.7124   -0.0436 C   0  0  2  0  0  0  0  0  0  0  0  0
   -3.4229    7.7480   -0.3249 N   0  0  0  0  0  0  0  0  0  0  0  0
   -2.1820    5.6801   -0.3252 O   0  0  0  0  0  0  0  0  0  0  0  0
   -4.9729    3.5260    0.4575 O   0  0  0  0  0  0  0  0  0  0  0  0
   -2.9211    4.4624   -0.5437 C   0  0  2  0  0  0  0  0  0  0  0  0
   -4.1078    8.8174    0.1399 C   0  0  0  0  0  0  0  0  0  0  0  0
   -3.2159    7.9618   -1.6512 C   0  0  0  0  0  0  0  0  0  0  0  0
   -2.8366    3.9943   -2.0207 C   0  0  2  0  0  0  0  0  0  0  0  0
   -4.3087    9.6404   -1.0019 C   0  0  0  0  0  0  0  0  0  0  0  0
   -4.5446    9.0983    1.4373 N   0  0  0  0  0  0  0  0  0  0  0  0
   -3.7576    9.1123   -2.0946 N   0  0  0  0  0  0  0  0  0  0  0  0
   -1.6054    3.2711   -2.2287 O   0  0  0  0  0  0  0  0  0  0  0  0
   -5.0508   10.8312   -0.6854 C   0  0  0  0  0  0  0  0  0  0  0  0
   -5.2349   10.2657    1.6233 C   0  0  0  0  0  0  0  0  0  0  0  0
   -1.2112    2.9240   -3.7419 P   0  0  2  0  0  0  0  0  0  0  0  0
   -5.3346   11.7008   -1.6710 N   0  0  0  0  0  0  0  0  0  0  0  0
   -5.5036   11.1379    0.6034 N   0  0  0  0  0  0  0  0  0  0  0  0
   -1.1920    1.3510   -4.0319 O   0  0  0  0  0  0  0  0  0  0  0  0
    0.1453    3.4372   -3.9789 O   0  0  0  0  0  0  0  0  0  0  0  0
   -2.1908    3.6069   -4.7861 O   0  0  0  0  0  0  0  0  0  0  0  0
   -2.4421    0.4954   -3.5272 P   0  0  2  0  0  0  0  0  0  0  0  0
   -2.2794    0.3375   -1.9488 O   0  0  0  0  0  0  0  0  0  0  0  0
   -2.3931   -0.8332   -4.1496 O   0  0  0  0  0  0  0  0  0  0  0  0
   -3.8033    1.2089   -3.9077 O   0  0  0  0  0  0  0  0  0  0  0  0
   -3.4636    0.0449   -1.1872 C   0  0  2  0  0  0  0  0  0  0  0  0
   -3.0330   -0.1794    0.2873 C   0  0  1  0  0  0  0  0  0  0  0  0
   -2.0250    0.7678    0.6326 O   0  0  0  0  0  0  0  0  0  0  0  0
   -4.1454    0.0286    1.3387 C   0  0  1  0  0  0  0  0  0  0  0  0
   -1.9467    0.8982    2.0588 C   0  0  2  0  0  0  0  0  0  0  0  0
   -4.7496   -1.2088    1.7152 O   0  0  0  0  0  0  0  0  0  0  0  0
   -3.4323    0.7675    2.4965 C   0  0  2  0  0  0  0  0  0  0  0  0
   -1.2503    2.1209    2.4490 N   0  0  0  0  0  0  0  0  0  0  0  0
   -3.5403    0.0698    3.7359 O   0  0  0  0  0  0  0  0  0  0  0  0
   -0.4231    2.7756    1.5642 C   0  0  0  0  0  0  0  0  0  0  0  0
   -1.3872    2.6199    3.7187 C   0  0  0  0  0  0  0  0  0  0  0  0
    0.2253    3.9949    1.8761 C   0  0  0  0  0  0  0  0  0  0  0  0
   -0.7679    3.8201    4.1049 C   0  0  0  0  0  0  0  0  0  0  0  0
    1.0285    4.6834    0.9214 C   0  0  0  0  0  0  0  0  0  0  0  0
    0.0338    4.5049    3.1792 C   0  0  0  0  0  0  0  0  0  0  0  0
    1.0345    4.3800   -0.3942 N   0  0  0  0  0  0  0  0  0  0  0  0
    1.7750    5.6302    1.2609 O   0  0  0  0  0  0  0  0  0  0  0  0
   -3.6380    5.9449    2.8920 H   0  0  0  0  0  0  0  0  0  0  0  0
   -5.0457    6.3564    1.1944 H   0  0  0  0  0  0  0  0  0  0  0  0
   -2.3413    6.9902    1.2526 H   0  0  0  0  0  0  0  0  0  0  0  0
   -4.9775    5.1293   -0.8434 H   0  0  0  0  0  0  0  0  0  0  0  0
   -5.0554    2.9322   -0.3175 H   0  0  0  0  0  0  0  0  0  0  0  0
   -2.4798    3.6922    0.0890 H   0  0  0  0  0  0  0  0  0  0  0  0
   -2.7019    7.3334   -2.2698 H   0  0  0  0  0  0  0  0  0  0  0  0
   -2.9088    4.8787   -2.6616 H   0  0  0  0  0  0  0  0  0  0  0  0
   -3.6803    3.3370   -2.2432 H   0  0  0  0  0  0  0  0  0  0  0  0
   -5.5664   10.4977    2.5602 H   0  0  0  0  0  0  0  0  0  0  0  0
   -5.0518   11.5168   -2.5807 H   0  0  0  0  0  0  0  0  0  0  0  0
   -5.8280   12.5135   -1.4771 H   0  0  0  0  0  0  0  0  0  0  0  0
   -3.0789    3.2558   -4.5694 H   0  0  0  0  0  0  0  0  0  0  0  0
   -3.9800   -0.8481   -1.5540 H   0  0  0  0  0  0  0  0  0  0  0  0
   -4.1439    0.8982   -1.2459 H   0  0  0  0  0  0  0  0  0  0  0  0
   -2.5933   -1.1786    0.3830 H   0  0  0  0  0  0  0  0  0  0  0  0
   -4.9411    0.6662    0.9469 H   0  0  0  0  0  0  0  0  0  0  0  0
   -1.3722    0.0462    2.4435 H   0  0  0  0  0  0  0  0  0  0  0  0
   -4.0204   -1.7449    2.0884 H   0  0  0  0  0  0  0  0  0  0  0  0
   -3.8805    1.7579    2.6256 H   0  0  0  0  0  0  0  0  0  0  0  0
   -4.5044   -0.0278    3.8800 H   0  0  0  0  0  0  0  0  0  0  0  0
   -0.2605    2.3732    0.6385 H   0  0  0  0  0  0  0  0  0  0  0  0
   -1.9569    2.1349    4.4164 H   0  0  0  0  0  0  0  0  0  0  0  0
   -0.9049    4.1949    5.0464 H   0  0  0  0  0  0  0  0  0  0  0  0
    0.4733    5.3835    3.4665 H   0  0  0  0  0  0  0  0  0  0  0  0
    1.5966    4.8854   -1.0027 H   0  0  0  0  0  0  0  0  0  0  0  0
    0.4790    3.6633   -0.7406 H   0  0  0  0  0  0  0  0  0  0  0  0
  2  1  1  0  0  0  0 
  2  3  1  0  0  0  0 
  4  2  1  0  0  0  0 
  3  5  1  0  0  0  0 
  3  6  1  0  0  0  0 
  4  7  1  0  0  0  0 
  8  4  1  0  0  0  0 
  5  9  1  0  0  0  0 
  5 10  1  0  0  0  0 
  8  6  1  0  0  0  0 
  8 11  1  0  0  0  0 
  9 12  1  0  0  0  0 
  9 13  2  0  0  0  0 
 10 14  2  0  0  0  0 
 11 15  1  0  0  0  0 
 12 14  1  0  0  0  0 
 12 16  2  0  0  0  0 
 13 17  1  0  0  0  0 
 15 18  1  0  0  0  0 
 16 19  1  0  0  0  0 
 16 20  1  0  0  0  0 
 17 20  2  0  0  0  0 
 18 21  1  0  0  0  0 
 18 22  2  0  0  0  0 
 18 23  1  0  0  0  0 
 21 24  1  0  0  0  0 
 24 25  1  0  0  0  0 
 24 26  2  0  0  0  0 
 24 27  1  0  0  0  0 
 25 28  1  0  0  0  0 
 29 28  1  0  0  0  0 
 29 30  1  0  0  0  0 
 31 29  1  0  0  0  0 
 32 30  1  0  0  0  0 
 31 33  1  0  0  0  0 
 34 31  1  0  0  0  0 
 34 32  1  0  0  0  0 
 32 35  1  0  0  0  0 
 34 36  1  0  0  0  0 
 35 37  2  0  0  0  0 
 35 38  1  0  0  0  0 
 37 39  1  0  0  0  0 
 38 40  2  0  0  0  0 
 39 41  1  0  0  0  0 
 39 42  2  0  0  0  0 
 40 42  1  0  0  0  0 
 41 43  1  0  0  0  0 
 41 44  2  0  0  0  0 
  1 45  1  0  0  0  0 
  2 46  1  0  0  0  0 
  3 47  1  0  0  0  0 
  4 48  1  0  0  0  0 
  7 49  1  0  0  0  0 
  8 50  1  0  0  0  0 
 10 51  1  0  0  0  0 
 11 52  1  0  0  0  0 
 11 53  1  0  0  0  0 
 17 54  1  0  0  0  0 
 19 55  1  0  0  0  0 
 19 56  1  0  0  0  0 
 23 57  1  0  0  0  0 
 28 58  1  0  0  0  0 
 28 59  1  0  0  0  0 
 29 60  1  0  0  0  0 
 31 61  1  0  0  0  0 
 32 62  1  0  0  0  0 
 33 63  1  0  0  0  0 
 34 64  1  0  0  0  0 
 36 65  1  0  0  0  0 
 37 66  1  0  0  0  0 
 38 67  1  0  0  0  0 
 40 68  1  0  0  0  0 
 42 69  1  0  0  0  0 
 43 70  1  0  0  0  0 
 43 71  1  0  0  0  0 
M  CHG  1  27  -1
M  CHG  1  35   1
M  END
> <cdk:Title>
nadide

> <Conformer>
1

> <SuperDrugID>
SD003378

$$$$
