trolamine
  CDK     0628171801

 25 24  0  0  0  0  0  0  0  0999 V2000
   -1.0248   -4.3211   -1.3112 O   0  0  0  0  0  0  0  0  0  0  0  0
   -0.3072   -3.3695   -0.5355 C   0  0  1  0  0  0  0  0  0  0  0  0
   -1.2493   -2.2486   -0.0429 C   0  0  1  0  0  0  0  0  0  0  0  0
   -0.4901   -1.2784    0.8196 N   0  0  2  0  0  0  0  0  0  0  0  0
   -0.7560   -1.3803    2.2953 C   0  0  2  0  0  0  0  0  0  0  0  0
   -0.4528   -2.7667    2.9162 C   0  0  2  0  0  0  0  0  0  0  0  0
   -0.5783   -2.7176    4.3331 O   0  0  0  0  0  0  0  0  0  0  0  0
   -0.4595    0.1341    0.3072 C   0  0  1  0  0  0  0  0  0  0  0  0
    0.4025    0.2873   -0.9680 C   0  0  2  0  0  0  0  0  0  0  0  0
    0.5479    1.6607   -1.3130 O   0  0  0  0  0  0  0  0  0  0  0  0
   -0.3609   -5.0013   -1.5529 H   0  0  0  0  0  0  0  0  0  0  0  0
    0.1435   -3.8909    0.3076 H   0  0  0  0  0  0  0  0  0  0  0  0
    0.4909   -2.9478   -1.1487 H   0  0  0  0  0  0  0  0  0  0  0  0
   -1.6840   -1.7660   -0.9224 H   0  0  0  0  0  0  0  0  0  0  0  0
   -2.0894   -2.6956    0.4954 H   0  0  0  0  0  0  0  0  0  0  0  0
   -1.7963   -1.1131    2.5040 H   0  0  0  0  0  0  0  0  0  0  0  0
   -0.1174   -0.6680    2.8260 H   0  0  0  0  0  0  0  0  0  0  0  0
    0.5658   -3.0717    2.6709 H   0  0  0  0  0  0  0  0  0  0  0  0
   -1.1489   -3.5209    2.5460 H   0  0  0  0  0  0  0  0  0  0  0  0
   -0.3700   -3.6272    4.6354 H   0  0  0  0  0  0  0  0  0  0  0  0
   -1.4749    0.4913    0.1113 H   0  0  0  0  0  0  0  0  0  0  0  0
   -0.0209    0.8003    1.0551 H   0  0  0  0  0  0  0  0  0  0  0  0
   -0.0581   -0.2266   -1.8125 H   0  0  0  0  0  0  0  0  0  0  0  0
    1.3946   -0.1343   -0.7959 H   0  0  0  0  0  0  0  0  0  0  0  0
    1.1294    1.6579   -2.1025 H   0  0  0  0  0  0  0  0  0  0  0  0
  1  2  1  0  0  0  0 
  2  3  1  0  0  0  0 
  3  4  1  0  0  0  0 
  4  5  1  0  0  0  0 
  5  6  1  0  0  0  0 
  6  7  1  0  0  0  0 
  4  8  1  0  0  0  0 
  8  9  1  0  0  0  0 
  9 10  1  0  0  0  0 
  1 11  1  0  0  0  0 
  2 12  1  0  0  0  0 
  2 13  1  0  0  0  0 
  3 14  1  0  0  0  0 
  3 15  1  0  0  0  0 
  5 16  1  0  0  0  0 
  5 17  1  0  0  0  0 
  6 18  1  0  0  0  0 
  6 19  1  0  0  0  0 
  7 20  1  0  0  0  0 
  8 21  1  0  0  0  0 
  8 22  1  0  0  0  0 
  9 23  1  0  0  0  0 
  9 24  1  0  0  0  0 
 10 25  1  0  0  0  0 
M  END
> <cdk:Title>
trolamine

> <Conformer>
1

> <SuperDrugID>
SD002497

$$$$
