anagestone acetate
  CDK     0628171801

 63 66  0  0  0  0  0  0  0  0999 V2000
    6.8394    4.7916    0.8136 O   0  0  0  0  0  0  0  0  0  0  0  0
    6.4061    6.0804    0.9789 C   0  0  0  0  0  0  0  0  0  0  0  0
    6.8137    3.9353   -0.3573 C   0  0  1  0  0  0  0  0  0  0  0  0
    6.5383    6.7206    2.2915 C   0  0  0  0  0  0  0  0  0  0  0  0
    5.9192    6.7376    0.0295 O   0  0  0  0  0  0  0  0  0  0  0  0
    7.5442    4.6511   -1.4610 C   0  0  0  0  0  0  0  0  0  0  0  0
    7.3938    2.5122    0.0298 C   0  0  2  0  0  0  0  0  0  0  0  0
    5.3101    3.5986   -0.6769 C   0  0  2  0  0  0  0  0  0  0  0  0
    8.8917    5.2351   -1.2821 C   0  0  0  0  0  0  0  0  0  0  0  0
    6.9935    4.8436   -2.5719 O   0  0  0  0  0  0  0  0  0  0  0  0
    7.6431    1.6470   -1.2726 C   0  0  0  0  0  0  0  0  0  0  0  0
    6.2273    1.9846    0.9305 C   0  0  1  0  0  0  0  0  0  0  0  0
    8.6907    2.4885    0.9201 C   0  0  2  0  0  0  0  0  0  0  0  0
    4.9457    2.3336    0.1404 C   0  0  1  0  0  0  0  0  0  0  0  0
    6.4331    0.5219    1.4345 C   0  0  1  0  0  0  0  0  0  0  0  0
    8.9770    1.0779    1.5340 C   0  0  2  0  0  0  0  0  0  0  0  0
    7.7633    0.4113    2.2835 C   0  0  2  0  0  0  0  0  0  0  0  0
    5.2204    0.0239    2.2731 C   0  0  1  0  0  0  0  0  0  0  0  0
    7.9853   -1.0654    2.8566 C   0  0  2  0  0  0  0  0  0  0  0  0
    5.4386   -1.4070    2.8506 C   0  0  1  0  0  0  0  0  0  0  0  0
    8.2600   -2.1005    1.6980 C   0  0  0  0  0  0  0  0  0  0  0  0
    6.7232   -1.4162    3.6097 C   0  0  0  0  0  0  0  0  0  0  0  0
    9.2740   -1.1773    3.7816 C   0  0  1  0  0  0  0  0  0  0  0  0
    4.1194   -1.8535    3.5601 C   0  0  0  0  0  0  0  0  0  0  0  0
    6.7258   -1.6364    4.9496 C   0  0  0  0  0  0  0  0  0  0  0  0
    9.0327   -0.7074    5.2296 C   0  0  2  0  0  0  0  0  0  0  0  0
    7.8822   -1.5476    5.8225 C   0  0  2  0  0  0  0  0  0  0  0  0
    5.5681    7.0921    2.6195 H   0  0  0  0  0  0  0  0  0  0  0  0
    6.9072    6.0098    3.0321 H   0  0  0  0  0  0  0  0  0  0  0  0
    7.2372    7.5533    2.2216 H   0  0  0  0  0  0  0  0  0  0  0  0
    5.1651    3.3774   -1.7381 H   0  0  0  0  0  0  0  0  0  0  0  0
    4.6366    4.4231   -0.4312 H   0  0  0  0  0  0  0  0  0  0  0  0
    9.1031    5.9663   -2.0661 H   0  0  0  0  0  0  0  0  0  0  0  0
    9.6533    4.4575   -1.3296 H   0  0  0  0  0  0  0  0  0  0  0  0
    8.9663    5.7484   -0.3239 H   0  0  0  0  0  0  0  0  0  0  0  0
    7.9169    0.6197   -1.0434 H   0  0  0  0  0  0  0  0  0  0  0  0
    6.7641    1.5995   -1.9157 H   0  0  0  0  0  0  0  0  0  0  0  0
    8.4594    2.0669   -1.8637 H   0  0  0  0  0  0  0  0  0  0  0  0
    6.1773    2.5891    1.8469 H   0  0  0  0  0  0  0  0  0  0  0  0
    8.5230    3.1779    1.8104 H   0  0  0  0  0  0  0  0  0  0  0  0
    9.5818    2.7267    0.2561 H   0  0  0  0  0  0  0  0  0  0  0  0
    4.1104    2.5300    0.8206 H   0  0  0  0  0  0  0  0  0  0  0  0
    4.6653    1.5141   -0.5297 H   0  0  0  0  0  0  0  0  0  0  0  0
    6.4851   -0.1199    0.5566 H   0  0  0  0  0  0  0  0  0  0  0  0
    9.7973    1.2322    2.2368 H   0  0  0  0  0  0  0  0  0  0  0  0
    9.3487    0.4078    0.7573 H   0  0  0  0  0  0  0  0  0  0  0  0
    7.6125    1.0537    3.1593 H   0  0  0  0  0  0  0  0  0  0  0  0
    5.0386    0.7202    3.0989 H   0  0  0  0  0  0  0  0  0  0  0  0
    4.3272    0.0224    1.6405 H   0  0  0  0  0  0  0  0  0  0  0  0
    5.5333   -2.1047    2.0150 H   0  0  0  0  0  0  0  0  0  0  0  0
    9.2439   -1.9426    1.2502 H   0  0  0  0  0  0  0  0  0  0  0  0
    7.5365   -2.0513    0.8889 H   0  0  0  0  0  0  0  0  0  0  0  0
    8.2365   -3.1213    2.0860 H   0  0  0  0  0  0  0  0  0  0  0  0
    9.6004   -2.2216    3.8587 H   0  0  0  0  0  0  0  0  0  0  0  0
   10.1293   -0.6433    3.3709 H   0  0  0  0  0  0  0  0  0  0  0  0
    4.2188   -2.8668    3.9527 H   0  0  0  0  0  0  0  0  0  0  0  0
    3.8639   -1.1758    4.3785 H   0  0  0  0  0  0  0  0  0  0  0  0
    3.2869   -1.8529    2.8524 H   0  0  0  0  0  0  0  0  0  0  0  0
    5.8844   -1.8650    5.4199 H   0  0  0  0  0  0  0  0  0  0  0  0
    8.7816    0.3561    5.2518 H   0  0  0  0  0  0  0  0  0  0  0  0
    9.9374   -0.8542    5.8264 H   0  0  0  0  0  0  0  0  0  0  0  0
    8.2313   -2.5634    6.0300 H   0  0  0  0  0  0  0  0  0  0  0  0
    7.5847   -1.0980    6.7741 H   0  0  0  0  0  0  0  0  0  0  0  0
  1  2  1  0  0  0  0 
  2  4  1  0  0  0  0 
  2  5  2  0  0  0  0 
  3  1  1  0  0  0  0 
  3  6  1  0  0  0  0 
  7  3  1  0  0  0  0 
  3  8  1  0  0  0  0 
  6  9  1  0  0  0  0 
  6 10  2  0  0  0  0 
  7 11  1  0  0  0  0 
  7 12  1  0  0  0  0 
  7 13  1  0  0  0  0 
  8 14  1  0  0  0  0 
 12 14  1  0  0  0  0 
 12 15  1  0  0  0  0 
 13 16  1  0  0  0  0 
 15 17  1  0  0  0  0 
 15 18  1  0  0  0  0 
 17 16  1  0  0  0  0 
 17 19  1  0  0  0  0 
 20 18  1  0  0  0  0 
 19 21  1  0  0  0  0 
 19 22  1  0  0  0  0 
 19 23  1  0  0  0  0 
 20 22  1  0  0  0  0 
 20 24  1  0  0  0  0 
 22 25  2  0  0  0  0 
 23 26  1  0  0  0  0 
 25 27  1  0  0  0  0 
 26 27  1  0  0  0  0 
 28  4  1  0  0  0  0 
 29  4  1  0  0  0  0 
 30  4  1  0  0  0  0 
 31  8  1  0  0  0  0 
 32  8  1  0  0  0  0 
 33  9  1  0  0  0  0 
 34  9  1  0  0  0  0 
 35  9  1  0  0  0  0 
 36 11  1  0  0  0  0 
 37 11  1  0  0  0  0 
 38 11  1  0  0  0  0 
 12 39  1  0  0  0  0 
 40 13  1  0  0  0  0 
 41 13  1  0  0  0  0 
 42 14  1  0  0  0  0 
 43 14  1  0  0  0  0 
 15 44  1  0  0  0  0 
 45 16  1  0  0  0  0 
 46 16  1  0  0  0  0 
 17 47  1  0  0  0  0 
 48 18  1  0  0  0  0 
 49 18  1  0  0  0  0 
 20 50  1  0  0  0  0 
 51 21  1  0  0  0  0 
 52 21  1  0  0  0  0 
 53 21  1  0  0  0  0 
 54 23  1  0  0  0  0 
 55 23  1  0  0  0  0 
 56 24  1  0  0  0  0 
 57 24  1  0  0  0  0 
 58 24  1  0  0  0  0 
 59 25  1  0  0  0  0 
 60 26  1  0  0  0  0 
 61 26  1  0  0  0  0 
 62 27  1  0  0  0  0 
 63 27  1  0  0  0  0 
M  END
> <cdk:Title>
anagestone acetate

> <Conformer>
1

> <SuperDrugID>
SD000171

$$$$
