irbesartan
  CDK     0628171801

 60 64  0  0  0  0  0  0  0  0999 V2000
    3.9458    4.0623    0.5480 C   0  0  0  0  0  0  0  0  0  0  0  0
    3.0954    3.4077   -0.5630 C   0  0  2  0  0  0  0  0  0  0  0  0
    2.0184    2.4244   -0.0185 C   0  0  1  0  0  0  0  0  0  0  0  0
    1.1663    1.8286   -1.1760 C   0  0  2  0  0  0  0  0  0  0  0  0
    0.1359    0.8611   -0.8129 C   0  0  0  0  0  0  0  0  0  0  0  0
   -0.0405    0.4579    0.3900 N   0  0  0  0  0  0  0  0  0  0  0  0
   -1.0554   -0.4804    0.5268 C   0  0  1  0  0  0  0  0  0  0  0  0
   -0.5511   -1.7938    1.1690 C   0  0  2  0  0  0  0  0  0  0  0  0
   -0.6562   -1.5443    2.6893 C   0  0  1  0  0  0  0  0  0  0  0  0
   -1.6338   -0.3596    2.8862 C   0  0  2  0  0  0  0  0  0  0  0  0
   -2.1589    0.0170    1.4872 C   0  0  2  0  0  0  0  0  0  0  0  0
   -1.4658   -0.5870   -0.8767 C   0  0  0  0  0  0  0  0  0  0  0  0
   -2.3825   -1.3416   -1.2803 O   0  0  0  0  0  0  0  0  0  0  0  0
   -0.7315    0.2538   -1.6364 N   0  0  0  0  0  0  0  0  0  0  0  0
   -0.9241    0.4593   -3.0560 C   0  0  1  0  0  0  0  0  0  0  0  0
    0.3382    0.3351   -3.8274 C   0  0  0  0  0  0  0  0  0  0  0  0
    0.8864    1.4526   -4.4970 C   0  0  0  0  0  0  0  0  0  0  0  0
    2.1895    1.4014   -5.0174 C   0  0  0  0  0  0  0  0  0  0  0  0
    2.9599    0.2198   -4.9154 C   0  0  0  0  0  0  0  0  0  0  0  0
    2.3527   -0.9395   -4.3765 C   0  0  0  0  0  0  0  0  0  0  0  0
    1.0605   -0.8787   -3.8246 C   0  0  0  0  0  0  0  0  0  0  0  0
    4.3249    0.2183   -5.3244 C   0  0  0  0  0  0  0  0  0  0  0  0
    4.6084    0.5961   -6.6608 C   0  0  0  0  0  0  0  0  0  0  0  0
    5.9247    0.6109   -7.1467 C   0  0  0  0  0  0  0  0  0  0  0  0
    6.9845    0.2569   -6.3006 C   0  0  0  0  0  0  0  0  0  0  0  0
    6.7270   -0.1198   -4.9725 C   0  0  0  0  0  0  0  0  0  0  0  0
    5.4059   -0.1445   -4.4579 C   0  0  0  0  0  0  0  0  0  0  0  0
    5.2440   -0.5107   -3.0899 C   0  0  0  0  0  0  0  0  0  0  0  0
    4.2917   -0.1060   -2.2374 N   0  0  0  0  0  0  0  0  0  0  0  0
    4.5118   -0.6748   -1.0966 N   0  0  0  0  0  0  0  0  0  0  0  0
    5.5664   -1.4201   -1.1757 N   0  0  0  0  0  0  0  0  0  0  0  0
    6.0266   -1.3308   -2.3768 N   0  0  0  0  0  0  0  0  0  0  0  0
    4.6152    4.8035    0.1079 H   0  0  0  0  0  0  0  0  0  0  0  0
    4.5505    3.3115    1.0568 H   0  0  0  0  0  0  0  0  0  0  0  0
    3.3069    4.5609    1.2777 H   0  0  0  0  0  0  0  0  0  0  0  0
    3.7742    2.8725   -1.2344 H   0  0  0  0  0  0  0  0  0  0  0  0
    2.6105    4.2005   -1.1396 H   0  0  0  0  0  0  0  0  0  0  0  0
    2.5818    1.5621    0.4617 H   0  0  0  0  0  0  0  0  0  0  0  0
    1.3125    3.0223    0.6413 H   0  0  0  0  0  0  0  0  0  0  0  0
    1.8600    1.3285   -1.8496 H   0  0  0  0  0  0  0  0  0  0  0  0
    0.6871    2.6498   -1.7151 H   0  0  0  0  0  0  0  0  0  0  0  0
    0.4741   -2.0368    0.8714 H   0  0  0  0  0  0  0  0  0  0  0  0
   -1.2016   -2.6301    0.8910 H   0  0  0  0  0  0  0  0  0  0  0  0
   -1.0108   -2.4412    3.2061 H   0  0  0  0  0  0  0  0  0  0  0  0
    0.3268   -1.2800    3.0893 H   0  0  0  0  0  0  0  0  0  0  0  0
   -1.0994    0.4924    3.3174 H   0  0  0  0  0  0  0  0  0  0  0  0
   -2.4590   -0.6250    3.5516 H   0  0  0  0  0  0  0  0  0  0  0  0
   -3.1014   -0.5054    1.2918 H   0  0  0  0  0  0  0  0  0  0  0  0
   -2.3329    1.0938    1.3987 H   0  0  0  0  0  0  0  0  0  0  0  0
   -1.6412   -0.2530   -3.4714 H   0  0  0  0  0  0  0  0  0  0  0  0
   -1.3689    1.4497   -3.1820 H   0  0  0  0  0  0  0  0  0  0  0  0
    0.3626    2.3279   -4.5700 H   0  0  0  0  0  0  0  0  0  0  0  0
    2.5817    2.2441   -5.4456 H   0  0  0  0  0  0  0  0  0  0  0  0
    2.8613   -1.8278   -4.3480 H   0  0  0  0  0  0  0  0  0  0  0  0
    0.6647   -1.7140   -3.3866 H   0  0  0  0  0  0  0  0  0  0  0  0
    3.8533    0.8603   -7.3008 H   0  0  0  0  0  0  0  0  0  0  0  0
    6.1089    0.8794   -8.1159 H   0  0  0  0  0  0  0  0  0  0  0  0
    7.9445    0.2774   -6.6511 H   0  0  0  0  0  0  0  0  0  0  0  0
    7.5272   -0.3617   -4.3806 H   0  0  0  0  0  0  0  0  0  0  0  0
    6.8132   -1.7903   -2.7105 H   0  0  0  0  0  0  0  0  0  0  0  0
  1  2  1  0  0  0  0 
  2  3  1  0  0  0  0 
  3  4  1  0  0  0  0 
  4  5  1  0  0  0  0 
  5  6  2  0  0  0  0 
  6  7  1  0  0  0  0 
  7  8  1  0  0  0  0 
  8  9  1  0  0  0  0 
  9 10  1  0  0  0  0 
 10 11  1  0  0  0  0 
  7 11  1  0  0  0  0 
  7 12  1  0  0  0  0 
 12 13  2  0  0  0  0 
 12 14  1  0  0  0  0 
  5 14  1  0  0  0  0 
 14 15  1  0  0  0  0 
 15 16  1  0  0  0  0 
 16 17  2  0  0  0  0 
 17 18  1  0  0  0  0 
 18 19  2  0  0  0  0 
 19 20  1  0  0  0  0 
 20 21  2  0  0  0  0 
 16 21  1  0  0  0  0 
 19 22  1  0  0  0  0 
 22 23  2  0  0  0  0 
 23 24  1  0  0  0  0 
 24 25  2  0  0  0  0 
 25 26  1  0  0  0  0 
 26 27  2  0  0  0  0 
 22 27  1  0  0  0  0 
 27 28  1  0  0  0  0 
 28 29  2  0  0  0  0 
 29 30  1  0  0  0  0 
 30 31  2  0  0  0  0 
 31 32  1  0  0  0  0 
 28 32  1  0  0  0  0 
 33  1  1  0  0  0  0 
 34  1  1  0  0  0  0 
 35  1  1  0  0  0  0 
 36  2  1  0  0  0  0 
 37  2  1  0  0  0  0 
 38  3  1  0  0  0  0 
 39  3  1  0  0  0  0 
 40  4  1  0  0  0  0 
 41  4  1  0  0  0  0 
 42  8  1  0  0  0  0 
 43  8  1  0  0  0  0 
 44  9  1  0  0  0  0 
 45  9  1  0  0  0  0 
 46 10  1  0  0  0  0 
 47 10  1  0  0  0  0 
 48 11  1  0  0  0  0 
 49 11  1  0  0  0  0 
 50 15  1  0  0  0  0 
 51 15  1  0  0  0  0 
 52 17  1  0  0  0  0 
 53 18  1  0  0  0  0 
 54 20  1  0  0  0  0 
 55 21  1  0  0  0  0 
 56 23  1  0  0  0  0 
 57 24  1  0  0  0  0 
 58 25  1  0  0  0  0 
 59 26  1  0  0  0  0 
 60 32  1  0  0  0  0 
M  END
> <cdk:Title>
irbesartan

> <Conformer>
1

> <SuperDrugID>
SD001312

$$$$
