propiverine
  CDK     0628171801

 56 58  0  0  0  0  0  0  0  0999 V2000
    0.2236    2.2372   -0.4407 C   0  0  1  0  0  0  0  0  0  0  0  0
   -1.0143    2.2590   -1.2897 C   0  0  0  0  0  0  0  0  0  0  0  0
    0.4972    0.8237   -0.2033 O   0  0  0  0  0  0  0  0  0  0  0  0
    1.2571    2.8647   -1.3607 C   0  0  0  0  0  0  0  0  0  0  0  0
   -0.0251    2.9204    0.8992 C   0  0  0  0  0  0  0  0  0  0  0  0
   -1.5090    1.1037   -1.8436 O   0  0  0  0  0  0  0  0  0  0  0  0
   -1.6144    3.3422   -1.4985 O   0  0  0  0  0  0  0  0  0  0  0  0
    1.4676    0.4302    0.7949 C   0  0  2  0  0  0  0  0  0  0  0  0
    1.2905    4.2695   -1.5806 C   0  0  0  0  0  0  0  0  0  0  0  0
    2.1762    2.0795   -2.1073 C   0  0  0  0  0  0  0  0  0  0  0  0
   -1.2256    2.6853    1.6260 C   0  0  0  0  0  0  0  0  0  0  0  0
    0.9433    3.7601    1.5138 C   0  0  0  0  0  0  0  0  0  0  0  0
   -2.6495    0.9462   -2.7109 C   0  0  2  0  0  0  0  0  0  0  0  0
    1.9089   -1.0349    0.5705 C   0  0  1  0  0  0  0  0  0  0  0  0
    2.1923    4.8567   -2.4867 C   0  0  0  0  0  0  0  0  0  0  0  0
    3.0710    2.6614   -3.0266 C   0  0  0  0  0  0  0  0  0  0  0  0
   -1.4883    3.3353    2.8472 C   0  0  0  0  0  0  0  0  0  0  0  0
    0.6866    4.4119    2.7343 C   0  0  0  0  0  0  0  0  0  0  0  0
   -3.7461    0.1709   -1.9379 C   0  0  2  0  0  0  0  0  0  0  0  0
   -2.2327    0.1922   -4.0031 C   0  0  1  0  0  0  0  0  0  0  0  0
    0.7289   -2.0259    0.4477 C   0  0  0  0  0  0  0  0  0  0  0  0
    3.0741    4.0509   -3.2251 C   0  0  0  0  0  0  0  0  0  0  0  0
   -0.5422    4.2218    3.3890 C   0  0  0  0  0  0  0  0  0  0  0  0
   -4.9386   -0.2027   -2.8565 C   0  0  1  0  0  0  0  0  0  0  0  0
   -3.4702   -0.1826   -4.8661 C   0  0  1  0  0  0  0  0  0  0  0  0
   -4.5150   -0.9264   -4.0956 N   0  0  1  0  0  0  0  0  0  0  0  0
   -4.2324   -2.3772   -3.9036 C   0  0  0  0  0  0  0  0  0  0  0  0
    1.0177    0.5112    1.7883 H   0  0  0  0  0  0  0  0  0  0  0  0
    2.3555    1.0683    0.7600 H   0  0  0  0  0  0  0  0  0  0  0  0
    0.6489    4.8867   -1.0802 H   0  0  0  0  0  0  0  0  0  0  0  0
    2.1939    1.0650   -2.0064 H   0  0  0  0  0  0  0  0  0  0  0  0
   -1.9320    2.0378    1.2670 H   0  0  0  0  0  0  0  0  0  0  0  0
    1.8566    3.9051    1.0814 H   0  0  0  0  0  0  0  0  0  0  0  0
   -3.0555    1.9222   -3.0005 H   0  0  0  0  0  0  0  0  0  0  0  0
    2.5137   -1.0898   -0.3390 H   0  0  0  0  0  0  0  0  0  0  0  0
    2.5382   -1.3391    1.4111 H   0  0  0  0  0  0  0  0  0  0  0  0
    2.1994    5.8711   -2.6129 H   0  0  0  0  0  0  0  0  0  0  0  0
    3.7172    2.0737   -3.5555 H   0  0  0  0  0  0  0  0  0  0  0  0
   -2.3642    3.1607    3.3455 H   0  0  0  0  0  0  0  0  0  0  0  0
    1.3967    5.0204    3.1488 H   0  0  0  0  0  0  0  0  0  0  0  0
   -4.1068    0.7865   -1.1102 H   0  0  0  0  0  0  0  0  0  0  0  0
   -3.3152   -0.7389   -1.5159 H   0  0  0  0  0  0  0  0  0  0  0  0
   -1.5603    0.8229   -4.5886 H   0  0  0  0  0  0  0  0  0  0  0  0
   -1.6876   -0.7166   -3.7385 H   0  0  0  0  0  0  0  0  0  0  0  0
    1.1058   -3.0503    0.4572 H   0  0  0  0  0  0  0  0  0  0  0  0
    0.0282   -1.8982    1.2763 H   0  0  0  0  0  0  0  0  0  0  0  0
    0.2003   -1.8620   -0.4930 H   0  0  0  0  0  0  0  0  0  0  0  0
    3.7131    4.4704   -3.9076 H   0  0  0  0  0  0  0  0  0  0  0  0
   -0.7428    4.7191    4.2611 H   0  0  0  0  0  0  0  0  0  0  0  0
   -5.6551   -0.7981   -2.2849 H   0  0  0  0  0  0  0  0  0  0  0  0
   -5.4583    0.7120   -3.1536 H   0  0  0  0  0  0  0  0  0  0  0  0
   -3.9219    0.7334   -5.2578 H   0  0  0  0  0  0  0  0  0  0  0  0
   -3.1442   -0.7664   -5.7313 H   0  0  0  0  0  0  0  0  0  0  0  0
   -3.3261   -2.5321   -3.3156 H   0  0  0  0  0  0  0  0  0  0  0  0
   -4.1108   -2.8668   -4.8716 H   0  0  0  0  0  0  0  0  0  0  0  0
   -5.0673   -2.8646   -3.3964 H   0  0  0  0  0  0  0  0  0  0  0  0
  1  2  1  0  0  0  0 
  1  3  1  0  0  0  0 
  1  4  1  0  0  0  0 
  1  5  1  0  0  0  0 
  2  6  1  0  0  0  0 
  2  7  2  0  0  0  0 
  3  8  1  0  0  0  0 
  4  9  2  0  0  0  0 
  4 10  1  0  0  0  0 
  5 11  2  0  0  0  0 
  5 12  1  0  0  0  0 
  6 13  1  0  0  0  0 
  8 14  1  0  0  0  0 
  9 15  1  0  0  0  0 
 10 16  2  0  0  0  0 
 11 17  1  0  0  0  0 
 12 18  2  0  0  0  0 
 13 19  1  0  0  0  0 
 13 20  1  0  0  0  0 
 14 21  1  0  0  0  0 
 15 22  2  0  0  0  0 
 16 22  1  0  0  0  0 
 17 23  2  0  0  0  0 
 18 23  1  0  0  0  0 
 19 24  1  0  0  0  0 
 20 25  1  0  0  0  0 
 24 26  1  0  0  0  0 
 25 26  1  0  0  0  0 
 26 27  1  0  0  0  0 
  8 28  1  0  0  0  0 
  8 29  1  0  0  0  0 
  9 30  1  0  0  0  0 
 10 31  1  0  0  0  0 
 11 32  1  0  0  0  0 
 12 33  1  0  0  0  0 
 13 34  1  0  0  0  0 
 14 35  1  0  0  0  0 
 14 36  1  0  0  0  0 
 15 37  1  0  0  0  0 
 16 38  1  0  0  0  0 
 17 39  1  0  0  0  0 
 18 40  1  0  0  0  0 
 19 41  1  0  0  0  0 
 19 42  1  0  0  0  0 
 20 43  1  0  0  0  0 
 20 44  1  0  0  0  0 
 21 45  1  0  0  0  0 
 21 46  1  0  0  0  0 
 21 47  1  0  0  0  0 
 22 48  1  0  0  0  0 
 23 49  1  0  0  0  0 
 24 50  1  0  0  0  0 
 24 51  1  0  0  0  0 
 25 52  1  0  0  0  0 
 25 53  1  0  0  0  0 
 27 54  1  0  0  0  0 
 27 55  1  0  0  0  0 
 27 56  1  0  0  0  0 
M  END
> <cdk:Title>
propiverine

> <Conformer>
1

> <SuperDrugID>
SD002065

$$$$
