lauroguadine
  CDK     0628171801

 63 63  0  0  0  0  0  0  0  0999 V2000
    5.3388   -2.8048   -3.8147 N   0  0  0  0  0  0  0  0  0  0  0  0
    5.6180   -2.8941   -5.0665 C   0  0  0  0  0  0  0  0  0  0  0  0
    4.2590   -3.1337   -3.1067 C   0  0  0  0  0  0  0  0  0  0  0  0
    6.8168   -2.5182   -5.4443 N   0  0  0  0  0  0  0  0  0  0  0  0
    4.7845   -3.3023   -6.0060 N   0  0  0  0  0  0  0  0  0  0  0  0
    3.9217   -2.3095   -2.0082 C   0  0  0  0  0  0  0  0  0  0  0  0
    3.4680   -4.2789   -3.3770 C   0  0  0  0  0  0  0  0  0  0  0  0
    4.6528   -1.1830   -1.7049 O   0  0  0  0  0  0  0  0  0  0  0  0
    2.8245   -2.6512   -1.1923 C   0  0  0  0  0  0  0  0  0  0  0  0
    2.3210   -4.5883   -2.6074 C   0  0  0  0  0  0  0  0  0  0  0  0
    4.1311    0.0209   -2.3133 C   0  0  2  0  0  0  0  0  0  0  0  0
    2.0338   -3.7742   -1.4912 C   0  0  0  0  0  0  0  0  0  0  0  0
    1.4933   -5.6138   -2.8319 N   0  0  0  0  0  0  0  0  0  0  0  0
    5.0319    1.2350   -1.9702 C   0  0  1  0  0  0  0  0  0  0  0  0
    1.2082   -6.3538   -3.8464 C   0  0  0  0  0  0  0  0  0  0  0  0
    4.4671    2.5785   -2.5150 C   0  0  1  0  0  0  0  0  0  0  0  0
    1.6934   -6.2284   -5.0660 N   0  0  0  0  0  0  0  0  0  0  0  0
    0.3258   -7.3109   -3.6586 N   0  0  0  0  0  0  0  0  0  0  0  0
    5.3609    3.8093   -2.1891 C   0  0  2  0  0  0  0  0  0  0  0  0
    4.7725    5.1409   -2.7375 C   0  0  1  0  0  0  0  0  0  0  0  0
    5.6545    6.3833   -2.4317 C   0  0  1  0  0  0  0  0  0  0  0  0
    5.0502    7.7025   -2.9899 C   0  0  1  0  0  0  0  0  0  0  0  0
    5.9386    8.9386   -2.6825 C   0  0  1  0  0  0  0  0  0  0  0  0
    5.3488   10.2637   -3.2341 C   0  0  2  0  0  0  0  0  0  0  0  0
    6.2453   11.4931   -2.9220 C   0  0  2  0  0  0  0  0  0  0  0  0
    5.6458   12.8117   -3.4793 C   0  0  1  0  0  0  0  0  0  0  0  0
    6.5185   14.0517   -3.1834 C   0  0  0  0  0  0  0  0  0  0  0  0
    7.0680   -2.5597   -6.3797 H   0  0  0  0  0  0  0  0  0  0  0  0
    7.4556   -2.1996   -4.7892 H   0  0  0  0  0  0  0  0  0  0  0  0
    5.0769   -3.3302   -6.9310 H   0  0  0  0  0  0  0  0  0  0  0  0
    3.8757   -3.5603   -5.7848 H   0  0  0  0  0  0  0  0  0  0  0  0
    3.7545   -4.9072   -4.1233 H   0  0  0  0  0  0  0  0  0  0  0  0
    2.5935   -2.0745   -0.3811 H   0  0  0  0  0  0  0  0  0  0  0  0
    3.1189    0.2181   -1.9465 H   0  0  0  0  0  0  0  0  0  0  0  0
    4.0965   -0.0871   -3.4021 H   0  0  0  0  0  0  0  0  0  0  0  0
    1.2345   -3.9894   -0.8895 H   0  0  0  0  0  0  0  0  0  0  0  0
    5.1323    1.3058   -0.8844 H   0  0  0  0  0  0  0  0  0  0  0  0
    6.0258    1.0621   -2.3914 H   0  0  0  0  0  0  0  0  0  0  0  0
    4.3538    2.5023   -3.6002 H   0  0  0  0  0  0  0  0  0  0  0  0
    3.4761    2.7448   -2.0831 H   0  0  0  0  0  0  0  0  0  0  0  0
    2.3020   -5.5102   -5.2907 H   0  0  0  0  0  0  0  0  0  0  0  0
    1.4293   -6.8600   -5.7545 H   0  0  0  0  0  0  0  0  0  0  0  0
   -0.0594   -7.4476   -2.7795 H   0  0  0  0  0  0  0  0  0  0  0  0
    0.0509   -7.8826   -4.3953 H   0  0  0  0  0  0  0  0  0  0  0  0
    6.3539    3.6558   -2.6209 H   0  0  0  0  0  0  0  0  0  0  0  0
    5.4712    3.8919   -1.1043 H   0  0  0  0  0  0  0  0  0  0  0  0
    4.6543    5.0559   -3.8212 H   0  0  0  0  0  0  0  0  0  0  0  0
    3.7831    5.2977   -2.2989 H   0  0  0  0  0  0  0  0  0  0  0  0
    5.7746    6.4787   -1.3487 H   0  0  0  0  0  0  0  0  0  0  0  0
    6.6446    6.2341   -2.8717 H   0  0  0  0  0  0  0  0  0  0  0  0
    4.9302    7.6105   -4.0735 H   0  0  0  0  0  0  0  0  0  0  0  0
    4.0601    7.8570   -2.5509 H   0  0  0  0  0  0  0  0  0  0  0  0
    6.0568    9.0287   -1.5991 H   0  0  0  0  0  0  0  0  0  0  0  0
    6.9274    8.7819   -3.1226 H   0  0  0  0  0  0  0  0  0  0  0  0
    4.3602   10.4239   -2.7943 H   0  0  0  0  0  0  0  0  0  0  0  0
    5.2295   10.1768   -4.3179 H   0  0  0  0  0  0  0  0  0  0  0  0
    7.2348   11.3363   -3.3615 H   0  0  0  0  0  0  0  0  0  0  0  0
    6.3645   11.5842   -1.8383 H   0  0  0  0  0  0  0  0  0  0  0  0
    5.5265   12.7239   -4.5627 H   0  0  0  0  0  0  0  0  0  0  0  0
    4.6573   12.9722   -3.0402 H   0  0  0  0  0  0  0  0  0  0  0  0
    7.5061   13.9409   -3.6359 H   0  0  0  0  0  0  0  0  0  0  0  0
    6.6329   14.1906   -2.1064 H   0  0  0  0  0  0  0  0  0  0  0  0
    6.0427   14.9418   -3.6003 H   0  0  0  0  0  0  0  0  0  0  0  0
  1  2  2  0  0  0  0 
  1  3  1  0  0  0  0 
  2  4  1  0  0  0  0 
  2  5  1  0  0  0  0 
  3  6  2  0  0  0  0 
  3  7  1  0  0  0  0 
  6  8  1  0  0  0  0 
  6  9  1  0  0  0  0 
  7 10  2  0  0  0  0 
  8 11  1  0  0  0  0 
  9 12  2  0  0  0  0 
 10 12  1  0  0  0  0 
 10 13  1  0  0  0  0 
 11 14  1  0  0  0  0 
 13 15  2  0  0  0  0 
 14 16  1  0  0  0  0 
 15 17  1  0  0  0  0 
 15 18  1  0  0  0  0 
 16 19  1  0  0  0  0 
 19 20  1  0  0  0  0 
 20 21  1  0  0  0  0 
 21 22  1  0  0  0  0 
 22 23  1  0  0  0  0 
 23 24  1  0  0  0  0 
 24 25  1  0  0  0  0 
 25 26  1  0  0  0  0 
 26 27  1  0  0  0  0 
 28  4  1  0  0  0  0 
 29  4  1  0  0  0  0 
 30  5  1  0  0  0  0 
 31  5  1  0  0  0  0 
 32  7  1  0  0  0  0 
 33  9  1  0  0  0  0 
 34 11  1  0  0  0  0 
 35 11  1  0  0  0  0 
 36 12  1  0  0  0  0 
 37 14  1  0  0  0  0 
 38 14  1  0  0  0  0 
 39 16  1  0  0  0  0 
 40 16  1  0  0  0  0 
 41 17  1  0  0  0  0 
 42 17  1  0  0  0  0 
 43 18  1  0  0  0  0 
 44 18  1  0  0  0  0 
 45 19  1  0  0  0  0 
 46 19  1  0  0  0  0 
 47 20  1  0  0  0  0 
 48 20  1  0  0  0  0 
 49 21  1  0  0  0  0 
 50 21  1  0  0  0  0 
 51 22  1  0  0  0  0 
 52 22  1  0  0  0  0 
 53 23  1  0  0  0  0 
 54 23  1  0  0  0  0 
 55 24  1  0  0  0  0 
 56 24  1  0  0  0  0 
 57 25  1  0  0  0  0 
 58 25  1  0  0  0  0 
 59 26  1  0  0  0  0 
 60 26  1  0  0  0  0 
 61 27  1  0  0  0  0 
 62 27  1  0  0  0  0 
 63 27  1  0  0  0  0 
M  END
> <cdk:Title>
lauroguadine

> <Conformer>
1

> <SuperDrugID>
SD002863

$$$$
