talastine
  CDK     0628171801

 44 46  0  0  0  0  0  0  0  0999 V2000
    2.4220   -1.9612    4.3777 C   0  0  2  0  0  0  0  0  0  0  0  0
    1.5455   -2.4803    3.2873 C   0  0  0  0  0  0  0  0  0  0  0  0
    1.8427   -0.7562    5.0432 C   0  0  0  0  0  0  0  0  0  0  0  0
    0.4700   -3.4023    3.4167 C   0  0  0  0  0  0  0  0  0  0  0  0
    1.7946   -1.9893    2.0469 N   0  0  0  0  0  0  0  0  0  0  0  0
    0.8961   -0.8846    6.0889 C   0  0  0  0  0  0  0  0  0  0  0  0
    2.2363    0.5513    4.6601 C   0  0  0  0  0  0  0  0  0  0  0  0
   -0.3058   -3.7064    2.2565 C   0  0  0  0  0  0  0  0  0  0  0  0
    0.1245   -4.0314    4.6398 C   0  0  0  0  0  0  0  0  0  0  0  0
    1.1371   -2.2851    0.9537 N   0  0  0  0  0  0  0  0  0  0  0  0
    0.3307    0.2487    6.7023 C   0  0  0  0  0  0  0  0  0  0  0  0
    1.6766    1.6871    5.2789 C   0  0  0  0  0  0  0  0  0  0  0  0
    0.0585   -3.1287    1.0151 C   0  0  0  0  0  0  0  0  0  0  0  0
   -1.4262   -4.5684    2.3691 C   0  0  0  0  0  0  0  0  0  0  0  0
   -1.0001   -4.8687    4.7394 C   0  0  0  0  0  0  0  0  0  0  0  0
    1.5982   -1.6611   -0.2631 C   0  0  1  0  0  0  0  0  0  0  0  0
    0.7130    1.5365    6.2915 C   0  0  0  0  0  0  0  0  0  0  0  0
   -0.6055   -3.3881   -0.0194 O   0  0  0  0  0  0  0  0  0  0  0  0
   -1.7822   -5.1275    3.6053 C   0  0  0  0  0  0  0  0  0  0  0  0
    0.9668   -0.2595   -0.4768 C   0  0  1  0  0  0  0  0  0  0  0  0
    1.2672    0.7595    0.5848 N   0  0  1  0  0  0  0  0  0  0  0  0
    2.7114    1.1271    0.7037 C   0  0  0  0  0  0  0  0  0  0  0  0
    0.3977    1.9701    0.4671 C   0  0  0  0  0  0  0  0  0  0  0  0
    3.3978   -1.7040    3.9524 H   0  0  0  0  0  0  0  0  0  0  0  0
    2.6438   -2.7333    5.1157 H   0  0  0  0  0  0  0  0  0  0  0  0
    0.6133   -1.8049    6.4233 H   0  0  0  0  0  0  0  0  0  0  0  0
    2.9365    0.6880    3.9268 H   0  0  0  0  0  0  0  0  0  0  0  0
    0.6847   -3.8976    5.4777 H   0  0  0  0  0  0  0  0  0  0  0  0
   -0.3563    0.1371    7.4507 H   0  0  0  0  0  0  0  0  0  0  0  0
    1.9704    2.6237    4.9932 H   0  0  0  0  0  0  0  0  0  0  0  0
   -2.0025   -4.7955    1.5552 H   0  0  0  0  0  0  0  0  0  0  0  0
   -1.2516   -5.2934    5.6358 H   0  0  0  0  0  0  0  0  0  0  0  0
    2.6880   -1.5853   -0.2637 H   0  0  0  0  0  0  0  0  0  0  0  0
    1.3625   -2.2821   -1.1325 H   0  0  0  0  0  0  0  0  0  0  0  0
    0.2930    2.3601    6.7289 H   0  0  0  0  0  0  0  0  0  0  0  0
   -2.6079   -5.7260    3.6785 H   0  0  0  0  0  0  0  0  0  0  0  0
    1.2846    0.1214   -1.4518 H   0  0  0  0  0  0  0  0  0  0  0  0
   -0.1148   -0.4233   -0.5272 H   0  0  0  0  0  0  0  0  0  0  0  0
    3.3035    0.2691    1.0211 H   0  0  0  0  0  0  0  0  0  0  0  0
    2.8591    1.8944    1.4670 H   0  0  0  0  0  0  0  0  0  0  0  0
    3.1021    1.4974   -0.2481 H   0  0  0  0  0  0  0  0  0  0  0  0
   -0.6597    1.6953    0.4847 H   0  0  0  0  0  0  0  0  0  0  0  0
    0.5632    2.6521    1.3045 H   0  0  0  0  0  0  0  0  0  0  0  0
    0.6017    2.5061   -0.4627 H   0  0  0  0  0  0  0  0  0  0  0  0
  1  2  1  0  0  0  0 
  1  3  1  0  0  0  0 
  2  4  1  0  0  0  0 
  2  5  2  0  0  0  0 
  3  6  2  0  0  0  0 
  3  7  1  0  0  0  0 
  4  8  1  0  0  0  0 
  4  9  2  0  0  0  0 
  5 10  1  0  0  0  0 
  6 11  1  0  0  0  0 
  7 12  2  0  0  0  0 
  8 13  1  0  0  0  0 
  8 14  2  0  0  0  0 
  9 15  1  0  0  0  0 
 10 13  1  0  0  0  0 
 10 16  1  0  0  0  0 
 11 17  2  0  0  0  0 
 12 17  1  0  0  0  0 
 13 18  2  0  0  0  0 
 14 19  1  0  0  0  0 
 15 19  2  0  0  0  0 
 16 20  1  0  0  0  0 
 20 21  1  0  0  0  0 
 21 22  1  0  0  0  0 
 21 23  1  0  0  0  0 
  1 24  1  0  0  0  0 
  1 25  1  0  0  0  0 
  6 26  1  0  0  0  0 
  7 27  1  0  0  0  0 
  9 28  1  0  0  0  0 
 11 29  1  0  0  0  0 
 12 30  1  0  0  0  0 
 14 31  1  0  0  0  0 
 15 32  1  0  0  0  0 
 16 33  1  0  0  0  0 
 16 34  1  0  0  0  0 
 17 35  1  0  0  0  0 
 19 36  1  0  0  0  0 
 20 37  1  0  0  0  0 
 20 38  1  0  0  0  0 
 22 39  1  0  0  0  0 
 22 40  1  0  0  0  0 
 22 41  1  0  0  0  0 
 23 42  1  0  0  0  0 
 23 43  1  0  0  0  0 
 23 44  1  0  0  0  0 
M  END
> <cdk:Title>
talastine

> <Conformer>
1

> <SuperDrugID>
SD003075

$$$$
