orphenadrine
  CDK     0628171801

 43 44  0  0  0  0  0  0  0  0999 V2000
   -2.0426    1.0957    0.0276 C   0  0  2  0  0  0  0  0  0  0  0  0
   -2.4934   -0.0119   -0.7883 O   0  0  0  0  0  0  0  0  0  0  0  0
   -0.5354    1.1506    0.0810 C   0  0  0  0  0  0  0  0  0  0  0  0
   -2.6600    1.0837    1.3934 C   0  0  0  0  0  0  0  0  0  0  0  0
   -2.3668    0.1441   -2.2168 C   0  0  2  0  0  0  0  0  0  0  0  0
    0.2853    0.0677    0.5358 C   0  0  0  0  0  0  0  0  0  0  0  0
    0.1034    2.3373   -0.3665 C   0  0  0  0  0  0  0  0  0  0  0  0
   -3.3755   -0.0303    1.9052 C   0  0  0  0  0  0  0  0  0  0  0  0
   -2.5642    2.2390    2.2109 C   0  0  0  0  0  0  0  0  0  0  0  0
   -2.8119   -1.1655   -2.9058 C   0  0  1  0  0  0  0  0  0  0  0  0
   -0.2681   -1.2413    0.9833 C   0  0  0  0  0  0  0  0  0  0  0  0
    1.6942    0.2336    0.5662 C   0  0  0  0  0  0  0  0  0  0  0  0
    1.5010    2.4731   -0.3468 C   0  0  0  0  0  0  0  0  0  0  0  0
   -3.9597    0.0047    3.1858 C   0  0  0  0  0  0  0  0  0  0  0  0
   -3.1708    2.2856    3.4807 C   0  0  0  0  0  0  0  0  0  0  0  0
   -2.1004   -2.3872   -2.4037 N   0  0  2  0  0  0  0  0  0  0  0  0
    2.2979    1.4227    0.1288 C   0  0  0  0  0  0  0  0  0  0  0  0
   -3.8649    1.1661    3.9702 C   0  0  0  0  0  0  0  0  0  0  0  0
   -0.6596   -2.4536   -2.7918 C   0  0  0  0  0  0  0  0  0  0  0  0
   -2.8230   -3.6473   -2.7493 C   0  0  0  0  0  0  0  0  0  0  0  0
   -2.4456    2.0052   -0.4340 H   0  0  0  0  0  0  0  0  0  0  0  0
   -1.3431    0.3904   -2.5050 H   0  0  0  0  0  0  0  0  0  0  0  0
   -3.0138    0.9567   -2.5577 H   0  0  0  0  0  0  0  0  0  0  0  0
   -0.4463    3.1264   -0.7158 H   0  0  0  0  0  0  0  0  0  0  0  0
   -3.4696   -0.8864    1.3547 H   0  0  0  0  0  0  0  0  0  0  0  0
   -2.0580    3.0642    1.8798 H   0  0  0  0  0  0  0  0  0  0  0  0
   -3.8849   -1.2584   -2.7128 H   0  0  0  0  0  0  0  0  0  0  0  0
   -2.6858   -1.0658   -3.9878 H   0  0  0  0  0  0  0  0  0  0  0  0
   -0.8865   -1.6818    0.2021 H   0  0  0  0  0  0  0  0  0  0  0  0
   -0.8617   -1.1082    1.8860 H   0  0  0  0  0  0  0  0  0  0  0  0
    0.5134   -1.9683    1.2123 H   0  0  0  0  0  0  0  0  0  0  0  0
    2.3037   -0.5141    0.9124 H   0  0  0  0  0  0  0  0  0  0  0  0
    1.9397    3.3366   -0.6763 H   0  0  0  0  0  0  0  0  0  0  0  0
   -4.4562   -0.8123    3.5461 H   0  0  0  0  0  0  0  0  0  0  0  0
   -3.1110    3.1362    4.0467 H   0  0  0  0  0  0  0  0  0  0  0  0
    3.3156    1.5205    0.1536 H   0  0  0  0  0  0  0  0  0  0  0  0
   -4.3021    1.2000    4.8950 H   0  0  0  0  0  0  0  0  0  0  0  0
   -0.1127   -1.5970   -2.3982 H   0  0  0  0  0  0  0  0  0  0  0  0
   -0.1904   -3.3465   -2.3730 H   0  0  0  0  0  0  0  0  0  0  0  0
   -0.5457   -2.4741   -3.8794 H   0  0  0  0  0  0  0  0  0  0  0  0
   -3.8355   -3.6314   -2.3399 H   0  0  0  0  0  0  0  0  0  0  0  0
   -2.3179   -4.5132   -2.3175 H   0  0  0  0  0  0  0  0  0  0  0  0
   -2.8850   -3.7829   -3.8321 H   0  0  0  0  0  0  0  0  0  0  0  0
  1  2  1  0  0  0  0 
  1  3  1  0  0  0  0 
  1  4  1  0  0  0  0 
  2  5  1  0  0  0  0 
  3  6  2  0  0  0  0 
  3  7  1  0  0  0  0 
  4  8  2  0  0  0  0 
  4  9  1  0  0  0  0 
  5 10  1  0  0  0  0 
  6 11  1  0  0  0  0 
  6 12  1  0  0  0  0 
  7 13  2  0  0  0  0 
  8 14  1  0  0  0  0 
  9 15  2  0  0  0  0 
 10 16  1  0  0  0  0 
 12 17  2  0  0  0  0 
 13 17  1  0  0  0  0 
 14 18  2  0  0  0  0 
 15 18  1  0  0  0  0 
 16 19  1  0  0  0  0 
 16 20  1  0  0  0  0 
  1 21  1  0  0  0  0 
  5 22  1  0  0  0  0 
  5 23  1  0  0  0  0 
  7 24  1  0  0  0  0 
  8 25  1  0  0  0  0 
  9 26  1  0  0  0  0 
 10 27  1  0  0  0  0 
 10 28  1  0  0  0  0 
 11 29  1  0  0  0  0 
 11 30  1  0  0  0  0 
 11 31  1  0  0  0  0 
 12 32  1  0  0  0  0 
 13 33  1  0  0  0  0 
 14 34  1  0  0  0  0 
 15 35  1  0  0  0  0 
 17 36  1  0  0  0  0 
 18 37  1  0  0  0  0 
 19 38  1  0  0  0  0 
 19 39  1  0  0  0  0 
 19 40  1  0  0  0  0 
 20 41  1  0  0  0  0 
 20 42  1  0  0  0  0 
 20 43  1  0  0  0  0 
M  END
> <cdk:Title>
orphenadrine

> <Conformer>
1

> <SuperDrugID>
SD001788

$$$$
