felbinac
  CDK     0628171801

 28 29  0  0  0  0  0  0  0  0999 V2000
   -2.0405    1.5122    0.0462 C   0  0  1  0  0  0  0  0  0  0  0  0
   -2.6783    1.1555    1.3270 C   0  0  0  0  0  0  0  0  0  0  0  0
   -0.6401    1.0173   -0.0143 C   0  0  0  0  0  0  0  0  0  0  0  0
   -2.9256   -0.1372    1.6472 O   0  0  0  0  0  0  0  0  0  0  0  0
   -3.0053    2.0452    2.1443 O   0  0  0  0  0  0  0  0  0  0  0  0
    0.4449    1.8738    0.2843 C   0  0  0  0  0  0  0  0  0  0  0  0
   -0.3628   -0.3233   -0.3634 C   0  0  0  0  0  0  0  0  0  0  0  0
    1.7676    1.3994    0.2473 C   0  0  0  0  0  0  0  0  0  0  0  0
    0.9609   -0.7995   -0.4018 C   0  0  0  0  0  0  0  0  0  0  0  0
    2.0422    0.0534   -0.0839 C   0  0  0  0  0  0  0  0  0  0  0  0
    3.3754   -0.4365   -0.0723 C   0  0  0  0  0  0  0  0  0  0  0  0
    4.3832    0.1778   -0.8534 C   0  0  0  0  0  0  0  0  0  0  0  0
    3.7287   -1.5442    0.7366 C   0  0  0  0  0  0  0  0  0  0  0  0
    5.7051   -0.3084   -0.8351 C   0  0  0  0  0  0  0  0  0  0  0  0
    5.0506   -2.0302    0.7562 C   0  0  0  0  0  0  0  0  0  0  0  0
    6.0380   -1.4139   -0.0326 C   0  0  0  0  0  0  0  0  0  0  0  0
   -2.6240    1.0928   -0.7767 H   0  0  0  0  0  0  0  0  0  0  0  0
   -2.0615    2.5995   -0.0831 H   0  0  0  0  0  0  0  0  0  0  0  0
   -3.3393   -0.3648    2.5056 H   0  0  0  0  0  0  0  0  0  0  0  0
    0.2767    2.8497    0.5387 H   0  0  0  0  0  0  0  0  0  0  0  0
   -1.1256   -0.9643   -0.5934 H   0  0  0  0  0  0  0  0  0  0  0  0
    2.5289    2.0427    0.4795 H   0  0  0  0  0  0  0  0  0  0  0  0
    1.1294   -1.7731   -0.6664 H   0  0  0  0  0  0  0  0  0  0  0  0
    4.1615    0.9810   -1.4475 H   0  0  0  0  0  0  0  0  0  0  0  0
    3.0285   -2.0014    1.3276 H   0  0  0  0  0  0  0  0  0  0  0  0
    6.4232    0.1414   -1.4081 H   0  0  0  0  0  0  0  0  0  0  0  0
    5.2949   -2.8311    1.3447 H   0  0  0  0  0  0  0  0  0  0  0  0
    6.9961   -1.7687   -0.0232 H   0  0  0  0  0  0  0  0  0  0  0  0
  1  2  1  0  0  0  0 
  1  3  1  0  0  0  0 
  2  4  1  0  0  0  0 
  2  5  2  0  0  0  0 
  3  6  2  0  0  0  0 
  3  7  1  0  0  0  0 
  6  8  1  0  0  0  0 
  7  9  2  0  0  0  0 
  8 10  2  0  0  0  0 
  9 10  1  0  0  0  0 
 10 11  1  0  0  0  0 
 11 12  2  0  0  0  0 
 11 13  1  0  0  0  0 
 12 14  1  0  0  0  0 
 13 15  2  0  0  0  0 
 14 16  2  0  0  0  0 
 15 16  1  0  0  0  0 
  1 17  1  0  0  0  0 
  1 18  1  0  0  0  0 
  4 19  1  0  0  0  0 
  6 20  1  0  0  0  0 
  7 21  1  0  0  0  0 
  8 22  1  0  0  0  0 
  9 23  1  0  0  0  0 
 12 24  1  0  0  0  0 
 13 25  1  0  0  0  0 
 14 26  1  0  0  0  0 
 15 27  1  0  0  0  0 
 16 28  1  0  0  0  0 
M  END
> <cdk:Title>
felbinac

> <Conformer>
1

> <SuperDrugID>
SD001018

$$$$
