erythromycin propionate
  CDK     0628171801

126128  0  0  0  0  0  0  0  0999 V2000
   -1.8205    5.7598    2.1591 O   0  0  0  0  0  0  0  0  0  0  0  0
   -2.1967    4.5056    2.7788 C   0  0  1  0  0  0  0  0  0  0  0  0
   -0.5077    5.9616    1.5465 C   0  0  2  0  0  0  0  0  0  0  0  0
   -3.7514    4.4777    2.9401 C   0  0  2  0  0  0  0  0  0  0  0  0
   -1.7422    3.3975    1.9660 O   0  0  0  0  0  0  0  0  0  0  0  0
    0.6958    5.8795    2.5857 C   0  0  1  0  0  0  0  0  0  0  0  0
   -0.6274    7.2475    0.6205 C   0  0  2  0  0  0  0  0  0  0  0  0
   -4.2647    5.5041    3.8191 O   0  0  0  0  0  0  0  0  0  0  0  0
   -4.2752    3.0651    3.3660 C   0  0  1  0  0  0  0  0  0  0  0  0
   -2.0979    2.0925    2.4629 C   0  0  1  0  0  0  0  0  0  0  0  0
    1.9507    5.1732    1.9946 C   0  0  0  0  0  0  0  0  0  0  0  0
    1.0280    7.1417    3.4873 C   0  0  2  0  0  0  0  0  0  0  0  0
   -1.2870    6.8694   -0.7457 C   0  0  0  0  0  0  0  0  0  0  0  0
    0.6829    7.6674    0.2426 O   0  0  0  0  0  0  0  0  0  0  0  0
   -1.4795    8.4103    1.2830 C   0  0  1  0  0  0  0  0  0  0  0  0
   -4.0470    5.7091    5.1574 C   0  0  0  0  0  0  0  0  0  0  0  0
   -5.7833    3.0123    3.4440 N   0  0  1  0  0  0  0  0  0  0  0  0
   -3.6438    1.9543    2.4766 C   0  0  2  0  0  0  0  0  0  0  0  0
   -1.4315    1.0308    1.5628 C   0  0  0  0  0  0  0  0  0  0  0  0
    1.7556    8.2654    2.9129 O   0  0  0  0  0  0  0  0  0  0  0  0
    1.3680    6.8114    5.0088 C   0  0  1  0  0  0  0  0  0  0  0  0
   -0.9512    9.8916    1.2605 C   0  0  1  0  0  0  0  0  0  0  0  0
   -4.7679    6.7877    5.8651 C   0  0  1  0  0  0  0  0  0  0  0  0
   -3.2406    4.9966    5.7997 O   0  0  0  0  0  0  0  0  0  0  0  0
   -6.5447    3.0374    2.1553 C   0  0  0  0  0  0  0  0  0  0  0  0
   -6.3198    1.9867    4.3870 C   0  0  0  0  0  0  0  0  0  0  0  0
    3.0584    8.2090    2.2755 C   0  0  1  0  0  0  0  0  0  0  0  0
    2.6575    7.4244    5.6236 C   0  0  0  0  0  0  0  0  0  0  0  0
    0.2051    7.0533    5.9283 C   0  0  0  0  0  0  0  0  0  0  0  0
   -1.6599   10.7295    0.1597 C   0  0  0  0  0  0  0  0  0  0  0  0
   -1.0525   10.5801    2.5946 C   0  0  0  0  0  0  0  0  0  0  0  0
   -6.2795    6.5301    6.0003 C   0  0  0  0  0  0  0  0  0  0  0  0
    3.4871    9.6919    2.0961 C   0  0  2  0  0  0  0  0  0  0  0  0
    4.0434    7.4845    3.0370 O   0  0  0  0  0  0  0  0  0  0  0  0
   -0.4364    6.0660    6.3552 O   0  0  0  0  0  0  0  0  0  0  0  0
   -0.2027    8.2617    6.4423 O   0  0  0  0  0  0  0  0  0  0  0  0
   -0.0171   11.1137    3.0593 O   0  0  0  0  0  0  0  0  0  0  0  0
   -2.3243   10.7217    3.3697 C   0  0  2  0  0  0  0  0  0  0  0  0
    4.9240    9.8616    1.4941 C   0  0  2  0  0  0  0  0  0  0  0  0
    5.4090    7.4996    2.5651 C   0  0  2  0  0  0  0  0  0  0  0  0
   -0.0686    9.6262    5.9805 C   0  0  2  0  0  0  0  0  0  0  0  0
   -2.7539   12.2179    3.4397 C   0  0  0  0  0  0  0  0  0  0  0  0
   -2.4104    9.9644    4.7538 C   0  0  2  0  0  0  0  0  0  0  0  0
    5.1979   11.2768    1.7058 O   0  0  0  0  0  0  0  0  0  0  0  0
    4.9244    9.5766   -0.0460 C   0  0  0  0  0  0  0  0  0  0  0  0
    5.9248    8.9492    2.2924 C   0  0  2  0  0  0  0  0  0  0  0  0
    5.6619    6.4647    1.4386 C   0  0  0  0  0  0  0  0  0  0  0  0
    1.0035   10.3508    6.8657 C   0  0  1  0  0  0  0  0  0  0  0  0
   -1.4871   10.3353    5.9843 C   0  0  1  0  0  0  0  0  0  0  0  0
   -2.3193    8.5634    4.5297 O   0  0  0  0  0  0  0  0  0  0  0  0
    6.4651   11.8380    1.3098 C   0  0  0  0  0  0  0  0  0  0  0  0
    6.2094    9.5506    3.5598 O   0  0  0  0  0  0  0  0  0  0  0  0
    1.8305   11.4154    6.1051 C   0  0  0  0  0  0  0  0  0  0  0  0
   -2.2452   10.0058    7.3195 C   0  0  0  0  0  0  0  0  0  0  0  0
   -1.3096   11.7533    6.0081 O   0  0  0  0  0  0  0  0  0  0  0  0
    2.9503    7.7579    1.2945 H   0  0  0  0  0  0  0  0  0  0  0  0
   -1.7354    4.4460    3.7669 H   0  0  0  0  0  0  0  0  0  0  0  0
   -0.3624    5.1184    0.8666 H   0  0  0  0  0  0  0  0  0  0  0  0
   -4.1506    4.7031    1.9499 H   0  0  0  0  0  0  0  0  0  0  0  0
    0.3505    5.1310    3.2950 H   0  0  0  0  0  0  0  0  0  0  0  0
   -3.8873    2.8995    4.3774 H   0  0  0  0  0  0  0  0  0  0  0  0
   -1.7042    1.9608    3.4774 H   0  0  0  0  0  0  0  0  0  0  0  0
    2.7777    5.1853    2.7074 H   0  0  0  0  0  0  0  0  0  0  0  0
    2.2674    5.6373    1.0623 H   0  0  0  0  0  0  0  0  0  0  0  0
    1.7267    4.1259    1.7732 H   0  0  0  0  0  0  0  0  0  0  0  0
    0.0615    7.6194    3.5542 H   0  0  0  0  0  0  0  0  0  0  0  0
   -0.6773    6.1422   -1.2883 H   0  0  0  0  0  0  0  0  0  0  0  0
   -1.3924    7.7536   -1.3787 H   0  0  0  0  0  0  0  0  0  0  0  0
   -2.2787    6.4372   -0.5913 H   0  0  0  0  0  0  0  0  0  0  0  0
    0.5487    8.3780   -0.4204 H   0  0  0  0  0  0  0  0  0  0  0  0
   -2.4989    8.3919    0.8784 H   0  0  0  0  0  0  0  0  0  0  0  0
   -1.6332    8.1440    2.3135 H   0  0  0  0  0  0  0  0  0  0  0  0
   -4.0147    2.0521    1.4539 H   0  0  0  0  0  0  0  0  0  0  0  0
   -3.9225    0.9676    2.8533 H   0  0  0  0  0  0  0  0  0  0  0  0
   -1.6853    0.0286    1.9135 H   0  0  0  0  0  0  0  0  0  0  0  0
   -0.3455    1.1475    1.5966 H   0  0  0  0  0  0  0  0  0  0  0  0
   -1.7647    1.1422    0.5278 H   0  0  0  0  0  0  0  0  0  0  0  0
    1.5699    5.7362    5.0642 H   0  0  0  0  0  0  0  0  0  0  0  0
    0.1073    9.8887    0.9927 H   0  0  0  0  0  0  0  0  0  0  0  0
   -4.3580    6.9016    6.8710 H   0  0  0  0  0  0  0  0  0  0  0  0
   -4.6263    7.7254    5.3326 H   0  0  0  0  0  0  0  0  0  0  0  0
   -6.2392    3.8738    1.5282 H   0  0  0  0  0  0  0  0  0  0  0  0
   -7.6128    3.1620    2.3492 H   0  0  0  0  0  0  0  0  0  0  0  0
   -6.4081    2.1084    1.5966 H   0  0  0  0  0  0  0  0  0  0  0  0
   -5.8839    2.1132    5.3792 H   0  0  0  0  0  0  0  0  0  0  0  0
   -7.4003    2.0968    4.4942 H   0  0  0  0  0  0  0  0  0  0  0  0
   -6.1058    0.9762    4.0328 H   0  0  0  0  0  0  0  0  0  0  0  0
    3.5350    6.8572    5.3150 H   0  0  0  0  0  0  0  0  0  0  0  0
    2.7832    8.4635    5.3264 H   0  0  0  0  0  0  0  0  0  0  0  0
    2.6378    7.3736    6.7151 H   0  0  0  0  0  0  0  0  0  0  0  0
   -1.2305   11.7311    0.1039 H   0  0  0  0  0  0  0  0  0  0  0  0
   -1.5372   10.2507   -0.8142 H   0  0  0  0  0  0  0  0  0  0  0  0
   -2.7300   10.8202    0.3611 H   0  0  0  0  0  0  0  0  0  0  0  0
   -6.7281    7.3473    6.5669 H   0  0  0  0  0  0  0  0  0  0  0  0
   -6.7584    6.4842    5.0198 H   0  0  0  0  0  0  0  0  0  0  0  0
   -6.4580    5.5960    6.5355 H   0  0  0  0  0  0  0  0  0  0  0  0
    3.5179   10.1213    3.1501 H   0  0  0  0  0  0  0  0  0  0  0  0
    2.7462   10.1703    1.3759 H   0  0  0  0  0  0  0  0  0  0  0  0
   -3.1120   10.2555    2.7658 H   0  0  0  0  0  0  0  0  0  0  0  0
    5.9947    7.1189    3.4075 H   0  0  0  0  0  0  0  0  0  0  0  0
    0.3130    9.5911    4.9642 H   0  0  0  0  0  0  0  0  0  0  0  0
   -3.6558   12.3295    4.0450 H   0  0  0  0  0  0  0  0  0  0  0  0
   -1.9691   12.8430    3.8653 H   0  0  0  0  0  0  0  0  0  0  0  0
   -2.9743   12.5970    2.4393 H   0  0  0  0  0  0  0  0  0  0  0  0
   -3.4484   10.1166    5.0656 H   0  0  0  0  0  0  0  0  0  0  0  0
    5.9434    9.4990   -0.4301 H   0  0  0  0  0  0  0  0  0  0  0  0
    4.4248   10.3915   -0.5739 H   0  0  0  0  0  0  0  0  0  0  0  0
    4.4016    8.6584   -0.2993 H   0  0  0  0  0  0  0  0  0  0  0  0
    6.8834    8.9005    1.7681 H   0  0  0  0  0  0  0  0  0  0  0  0
    5.4274    5.4649    1.8093 H   0  0  0  0  0  0  0  0  0  0  0  0
    6.7129    6.4805    1.1417 H   0  0  0  0  0  0  0  0  0  0  0  0
    5.0465    6.6514    0.5628 H   0  0  0  0  0  0  0  0  0  0  0  0
    0.5410   10.8257    7.7326 H   0  0  0  0  0  0  0  0  0  0  0  0
    1.7079    9.6187    7.2627 H   0  0  0  0  0  0  0  0  0  0  0  0
   -2.5093    8.1495    5.3942 H   0  0  0  0  0  0  0  0  0  0  0  0
    6.4393   12.9025    1.5386 H   0  0  0  0  0  0  0  0  0  0  0  0
    6.6417   11.7309    0.2402 H   0  0  0  0  0  0  0  0  0  0  0  0
    7.2924   11.3943    1.8628 H   0  0  0  0  0  0  0  0  0  0  0  0
    5.3673    9.5187    4.0580 H   0  0  0  0  0  0  0  0  0  0  0  0
    2.5059   11.9218    6.7967 H   0  0  0  0  0  0  0  0  0  0  0  0
    1.1870   12.1621    5.6409 H   0  0  0  0  0  0  0  0  0  0  0  0
    2.4262   10.9381    5.3271 H   0  0  0  0  0  0  0  0  0  0  0  0
   -1.6306   10.2202    8.1937 H   0  0  0  0  0  0  0  0  0  0  0  0
   -2.5306    8.9530    7.3617 H   0  0  0  0  0  0  0  0  0  0  0  0
   -3.1564   10.6020    7.4078 H   0  0  0  0  0  0  0  0  0  0  0  0
   -2.2100   12.1314    6.0941 H   0  0  0  0  0  0  0  0  0  0  0  0
  2  1  1  0  0  0  0 
  4  2  1  0  0  0  0 
  2  5  1  0  0  0  0 
  2 57  1  0  0  0  0 
  3  1  1  0  0  0  0 
  6  3  1  0  0  0  0 
  3  7  1  0  0  0  0 
  4  8  1  0  0  0  0 
  9  4  1  0  0  0  0 
 10  5  1  0  0  0  0 
  6 11  1  0  0  0  0 
 12  6  1  0  0  0  0 
  7 13  1  0  0  0  0 
  7 14  1  0  0  0  0 
  7 15  1  0  0  0  0 
  8 16  1  0  0  0  0 
  9 17  1  0  0  0  0 
  9 18  1  0  0  0  0 
 10 18  1  0  0  0  0 
 10 19  1  0  0  0  0 
 12 20  1  0  0  0  0 
 21 12  1  0  0  0  0 
 22 15  1  0  0  0  0 
 16 23  1  0  0  0  0 
 16 24  2  0  0  0  0 
 17 25  1  0  0  0  0 
 17 26  1  0  0  0  0 
 27 20  1  0  0  0  0 
 21 28  1  0  0  0  0 
 21 29  1  0  0  0  0 
 22 30  1  0  0  0  0 
 22 31  1  0  0  0  0 
 23 32  1  0  0  0  0 
 27 33  1  0  0  0  0 
 27 34  1  0  0  0  0 
 27 56  1  0  0  0  0 
 29 35  2  0  0  0  0 
 29 36  1  0  0  0  0 
 31 37  2  0  0  0  0 
 38 31  1  0  0  0  0 
 39 33  1  0  0  0  0 
 40 34  1  0  0  0  0 
 41 36  1  0  0  0  0 
 38 42  1  0  0  0  0 
 43 38  1  0  0  0  0 
 39 44  1  0  0  0  0 
 39 45  1  0  0  0  0 
 46 39  1  0  0  0  0 
 46 40  1  0  0  0  0 
 40 47  1  0  0  0  0 
 41 48  1  0  0  0  0 
 49 41  1  0  0  0  0 
 49 43  1  0  0  0  0 
 43 50  1  0  0  0  0 
 44 51  1  0  0  0  0 
 46 52  1  0  0  0  0 
 48 53  1  0  0  0  0 
 49 54  1  0  0  0  0 
 49 55  1  0  0  0  0 
  3 58  1  0  0  0  0 
  4 59  1  0  0  0  0 
  6 60  1  0  0  0  0 
  9 61  1  0  0  0  0 
 10 62  1  0  0  0  0 
 11 63  1  0  0  0  0 
 11 64  1  0  0  0  0 
 11 65  1  0  0  0  0 
 12 66  1  0  0  0  0 
 13 67  1  0  0  0  0 
 13 68  1  0  0  0  0 
 13 69  1  0  0  0  0 
 14 70  1  0  0  0  0 
 15 71  1  0  0  0  0 
 15 72  1  0  0  0  0 
 18 73  1  0  0  0  0 
 18 74  1  0  0  0  0 
 19 75  1  0  0  0  0 
 19 76  1  0  0  0  0 
 19 77  1  0  0  0  0 
 21 78  1  0  0  0  0 
 22 79  1  0  0  0  0 
 23 80  1  0  0  0  0 
 23 81  1  0  0  0  0 
 25 82  1  0  0  0  0 
 25 83  1  0  0  0  0 
 25 84  1  0  0  0  0 
 26 85  1  0  0  0  0 
 26 86  1  0  0  0  0 
 26 87  1  0  0  0  0 
 28 88  1  0  0  0  0 
 28 89  1  0  0  0  0 
 28 90  1  0  0  0  0 
 30 91  1  0  0  0  0 
 30 92  1  0  0  0  0 
 30 93  1  0  0  0  0 
 32 94  1  0  0  0  0 
 32 95  1  0  0  0  0 
 32 96  1  0  0  0  0 
 33 97  1  0  0  0  0 
 33 98  1  0  0  0  0 
 38 99  1  0  0  0  0 
 40100  1  0  0  0  0 
 41101  1  0  0  0  0 
 42102  1  0  0  0  0 
 42103  1  0  0  0  0 
 42104  1  0  0  0  0 
 43105  1  0  0  0  0 
 45106  1  0  0  0  0 
 45107  1  0  0  0  0 
 45108  1  0  0  0  0 
 46109  1  0  0  0  0 
 47110  1  0  0  0  0 
 47111  1  0  0  0  0 
 47112  1  0  0  0  0 
 48113  1  0  0  0  0 
 48114  1  0  0  0  0 
 50115  1  0  0  0  0 
 51116  1  0  0  0  0 
 51117  1  0  0  0  0 
 51118  1  0  0  0  0 
 52119  1  0  0  0  0 
 53120  1  0  0  0  0 
 53121  1  0  0  0  0 
 53122  1  0  0  0  0 
 54123  1  0  0  0  0 
 54124  1  0  0  0  0 
 54125  1  0  0  0  0 
 55126  1  0  0  0  0 
M  END
> <cdk:Title>
erythromycin propionate

> <Conformer>
1

> <SuperDrugID>
SD000937

$$$$
