clometacin
  CDK     0628171802

 41 43  0  0  0  0  0  0  0  0999 V2000
    0.2526   -0.0355   -0.4057 C   0  0  0  0  0  0  0  0  0  0  0  0
    0.3084    1.1854   -0.1250 O   0  0  0  0  0  0  0  0  0  0  0  0
   -0.9401   -0.5234   -1.0082 C   0  0  0  0  0  0  0  0  0  0  0  0
    1.3657   -0.8566   -0.0708 C   0  0  0  0  0  0  0  0  0  0  0  0
   -1.5813   -1.7320   -0.7339 C   0  0  0  0  0  0  0  0  0  0  0  0
   -1.7317    0.1199   -1.9778 C   0  0  0  0  0  0  0  0  0  0  0  0
    2.0935   -0.6286    1.1240 C   0  0  0  0  0  0  0  0  0  0  0  0
    1.7688   -1.9268   -0.9071 C   0  0  0  0  0  0  0  0  0  0  0  0
   -2.7281   -1.7865   -1.5279 C   0  0  0  0  0  0  0  0  0  0  0  0
   -1.2706   -2.7708    0.1695 C   0  0  0  0  0  0  0  0  0  0  0  0
   -1.4049    1.4435   -2.5670 C   0  0  0  0  0  0  0  0  0  0  0  0
   -2.8139   -0.6560   -2.2720 N   0  0  0  0  0  0  0  0  0  0  0  0
    3.1665   -1.4637    1.4887 C   0  0  0  0  0  0  0  0  0  0  0  0
    2.8404   -2.7624   -0.5440 C   0  0  0  0  0  0  0  0  0  0  0  0
   -3.5953   -2.8969   -1.4346 C   0  0  0  0  0  0  0  0  0  0  0  0
   -2.1173   -3.8933    0.2366 C   0  0  0  0  0  0  0  0  0  0  0  0
   -3.8954   -0.3111   -3.1666 C   0  0  2  0  0  0  0  0  0  0  0  0
    3.5388   -2.5369    0.6569 C   0  0  0  0  0  0  0  0  0  0  0  0
   -3.2781   -3.9625   -0.5642 C   0  0  0  0  0  0  0  0  0  0  0  0
   -4.7780    0.6890   -2.5348 C   0  0  0  0  0  0  0  0  0  0  0  0
    4.8185   -3.5513    1.1008 Cl  0  0  0  0  0  0  0  0  0  0  0  0
   -4.1134   -5.0408   -0.4602 O   0  0  0  0  0  0  0  0  0  0  0  0
   -5.3309    0.4200   -1.3273 O   0  0  0  0  0  0  0  0  0  0  0  0
   -5.0314    1.7842   -3.0862 O   0  0  0  0  0  0  0  0  0  0  0  0
   -3.8142   -6.0811   -1.4083 C   0  0  0  0  0  0  0  0  0  0  0  0
    1.8413    0.1426    1.7490 H   0  0  0  0  0  0  0  0  0  0  0  0
    1.2833   -2.1083   -1.7905 H   0  0  0  0  0  0  0  0  0  0  0  0
   -0.4542   -2.7212    0.7794 H   0  0  0  0  0  0  0  0  0  0  0  0
   -1.4981    2.2155   -1.8019 H   0  0  0  0  0  0  0  0  0  0  0  0
   -2.0610    1.7112   -3.3927 H   0  0  0  0  0  0  0  0  0  0  0  0
   -0.3800    1.4380   -2.9452 H   0  0  0  0  0  0  0  0  0  0  0  0
    3.6701   -1.2838    2.3608 H   0  0  0  0  0  0  0  0  0  0  0  0
    3.1058   -3.5354   -1.1594 H   0  0  0  0  0  0  0  0  0  0  0  0
   -4.4533   -2.9431   -1.9819 H   0  0  0  0  0  0  0  0  0  0  0  0
   -1.8881   -4.6593    0.8731 H   0  0  0  0  0  0  0  0  0  0  0  0
   -4.5121   -1.1769   -3.4060 H   0  0  0  0  0  0  0  0  0  0  0  0
   -3.5021    0.0511   -4.1206 H   0  0  0  0  0  0  0  0  0  0  0  0
   -5.8974    1.0818   -0.8785 H   0  0  0  0  0  0  0  0  0  0  0  0
   -4.5336   -6.8890   -1.2618 H   0  0  0  0  0  0  0  0  0  0  0  0
   -3.9095   -5.7264   -2.4382 H   0  0  0  0  0  0  0  0  0  0  0  0
   -2.8117   -6.4886   -1.2526 H   0  0  0  0  0  0  0  0  0  0  0  0
  1  2  2  0  0  0  0 
  1  3  1  0  0  0  0 
  1  4  1  0  0  0  0 
  3  5  1  0  0  0  0 
  3  6  2  0  0  0  0 
  4  7  2  0  0  0  0 
  4  8  1  0  0  0  0 
  5  9  1  0  0  0  0 
  5 10  2  0  0  0  0 
  6 11  1  0  0  0  0 
  6 12  1  0  0  0  0 
  7 13  1  0  0  0  0 
  8 14  2  0  0  0  0 
  9 12  1  0  0  0  0 
  9 15  2  0  0  0  0 
 10 16  1  0  0  0  0 
 12 17  1  0  0  0  0 
 13 18  2  0  0  0  0 
 14 18  1  0  0  0  0 
 15 19  1  0  0  0  0 
 16 19  2  0  0  0  0 
 17 20  1  0  0  0  0 
 18 21  1  0  0  0  0 
 19 22  1  0  0  0  0 
 20 23  1  0  0  0  0 
 20 24  2  0  0  0  0 
 22 25  1  0  0  0  0 
 26  7  1  0  0  0  0 
 27  8  1  0  0  0  0 
 28 10  1  0  0  0  0 
 29 11  1  0  0  0  0 
 30 11  1  0  0  0  0 
 31 11  1  0  0  0  0 
 32 13  1  0  0  0  0 
 33 14  1  0  0  0  0 
 34 15  1  0  0  0  0 
 35 16  1  0  0  0  0 
 36 17  1  0  0  0  0 
 37 17  1  0  0  0  0 
 38 23  1  0  0  0  0 
 39 25  1  0  0  0  0 
 40 25  1  0  0  0  0 
 41 25  1  0  0  0  0 
M  END
> <cdk:Title>
clometacin

> <Conformer>
1

> <SuperDrugID>
SD000615

$$$$
