ibrutinib
  CDK     0628171802

 57 61  0  0  0  0  0  0  0  0999 V2000
    9.7005    0.4483    3.2395 N   0  0  0  0  0  0  0  0  0  0  0  0
    8.4493   -0.0277    3.3284 C   0  0  0  0  0  0  0  0  0  0  0  0
    7.6746   -0.3772    2.2043 C   0  0  0  0  0  0  0  0  0  0  0  0
    7.9036   -0.2029    4.5648 N   0  0  0  0  0  0  0  0  0  0  0  0
    6.4101   -0.9083    2.4142 C   0  0  0  0  0  0  0  0  0  0  0  0
    7.8551   -0.3635    0.8222 C   0  0  0  0  0  0  0  0  0  0  0  0
    6.6528   -0.7133    4.7398 C   0  0  0  0  0  0  0  0  0  0  0  0
    5.8757   -1.2156    1.2206 N   0  0  0  0  0  0  0  0  0  0  0  0
    5.9072   -1.0732    3.6631 N   0  0  0  0  0  0  0  0  0  0  0  0
    6.7382   -0.9066    0.2896 N   0  0  0  0  0  0  0  0  0  0  0  0
    8.9536    0.1174    0.0745 C   0  0  0  0  0  0  0  0  0  0  0  0
    4.5772   -1.7979    1.0177 C   0  0  1  0  0  0  0  0  0  0  0  0
    9.4290    1.4350    0.2675 C   0  0  0  0  0  0  0  0  0  0  0  0
    9.5856   -0.7017   -0.8893 C   0  0  0  0  0  0  0  0  0  0  0  0
    3.8021   -1.1350   -0.1580 C   0  0  1  0  0  0  0  0  0  0  0  0
    4.6807   -3.3384    0.8398 C   0  0  1  0  0  0  0  0  0  0  0  0
   10.5361    1.9098   -0.4572 C   0  0  0  0  0  0  0  0  0  0  0  0
   10.6989   -0.2270   -1.6097 C   0  0  0  0  0  0  0  0  0  0  0  0
    2.5058   -1.7751   -0.3216 N   0  0  0  0  0  0  0  0  0  0  0  0
    3.2923   -3.9578    0.5314 C   0  0  2  0  0  0  0  0  0  0  0  0
   11.1947    1.0736   -1.3811 C   0  0  0  0  0  0  0  0  0  0  0  0
    1.2909   -1.1117   -0.1610 C   0  0  0  0  0  0  0  0  0  0  0  0
    2.5727   -3.2017   -0.6179 C   0  0  2  0  0  0  0  0  0  0  0  0
   12.2960    1.5270   -2.0611 O   0  0  0  0  0  0  0  0  0  0  0  0
    1.1576    0.2295    0.1753 C   0  0  0  0  0  0  0  0  0  0  0  0
    0.2102   -1.7296   -0.3237 O   0  0  0  0  0  0  0  0  0  0  0  0
   13.4347    1.3073   -1.3295 C   0  0  0  0  0  0  0  0  0  0  0  0
    0.3532    0.6702    1.1535 C   0  0  0  0  0  0  0  0  0  0  0  0
   13.9140    2.2912   -0.4364 C   0  0  0  0  0  0  0  0  0  0  0  0
   14.1409    0.0925   -1.4634 C   0  0  0  0  0  0  0  0  0  0  0  0
   15.0612    2.0472    0.3413 C   0  0  0  0  0  0  0  0  0  0  0  0
   15.2888   -0.1519   -0.6874 C   0  0  0  0  0  0  0  0  0  0  0  0
   15.7483    0.8254    0.2151 C   0  0  0  0  0  0  0  0  0  0  0  0
   10.1902    0.6761    4.0443 H   0  0  0  0  0  0  0  0  0  0  0  0
   10.1252    0.5580    2.3770 H   0  0  0  0  0  0  0  0  0  0  0  0
    6.2763   -0.8345    5.6787 H   0  0  0  0  0  0  0  0  0  0  0  0
    3.9676   -1.6206    1.9118 H   0  0  0  0  0  0  0  0  0  0  0  0
    8.9740    2.0612    0.9374 H   0  0  0  0  0  0  0  0  0  0  0  0
    9.2497   -1.6533   -1.0638 H   0  0  0  0  0  0  0  0  0  0  0  0
    3.7429   -0.0657    0.0488 H   0  0  0  0  0  0  0  0  0  0  0  0
    4.3625   -1.2426   -1.0911 H   0  0  0  0  0  0  0  0  0  0  0  0
    5.3744   -3.5735    0.0274 H   0  0  0  0  0  0  0  0  0  0  0  0
    5.0763   -3.7821    1.7591 H   0  0  0  0  0  0  0  0  0  0  0  0
   10.8675    2.8658   -0.3076 H   0  0  0  0  0  0  0  0  0  0  0  0
   11.1538   -0.8331   -2.2971 H   0  0  0  0  0  0  0  0  0  0  0  0
    2.6680   -3.9113    1.4289 H   0  0  0  0  0  0  0  0  0  0  0  0
    3.4184   -5.0088    0.2625 H   0  0  0  0  0  0  0  0  0  0  0  0
    3.1284   -3.3519   -1.5478 H   0  0  0  0  0  0  0  0  0  0  0  0
    1.5941   -3.6658   -0.7658 H   0  0  0  0  0  0  0  0  0  0  0  0
    1.6999    0.8970   -0.3227 H   0  0  0  0  0  0  0  0  0  0  0  0
   -0.1880    0.0438    1.7041 H   0  0  0  0  0  0  0  0  0  0  0  0
    0.2976    1.6408    1.3539 H   0  0  0  0  0  0  0  0  0  0  0  0
   13.4222    3.1828   -0.3432 H   0  0  0  0  0  0  0  0  0  0  0  0
   13.8126   -0.6192   -2.1198 H   0  0  0  0  0  0  0  0  0  0  0  0
   15.3942    2.7566    0.9993 H   0  0  0  0  0  0  0  0  0  0  0  0
   15.7869   -1.0407   -0.7784 H   0  0  0  0  0  0  0  0  0  0  0  0
   16.5840    0.6489    0.7767 H   0  0  0  0  0  0  0  0  0  0  0  0
  1  2  1  0  0  0  0 
  2  3  2  0  0  0  0 
  2  4  1  0  0  0  0 
  3  5  1  0  0  0  0 
  3  6  1  0  0  0  0 
  4  7  2  0  0  0  0 
  5  8  1  0  0  0  0 
  5  9  2  0  0  0  0 
  6 10  2  0  0  0  0 
  6 11  1  0  0  0  0 
  7  9  1  0  0  0  0 
  8 10  1  0  0  0  0 
 11 13  2  0  0  0  0 
 11 14  1  0  0  0  0 
 12  8  1  0  0  0  0 
 12 15  1  0  0  0  0 
 12 16  1  0  0  0  0 
 13 17  1  0  0  0  0 
 14 18  2  0  0  0  0 
 15 19  1  0  0  0  0 
 16 20  1  0  0  0  0 
 17 21  2  0  0  0  0 
 18 21  1  0  0  0  0 
 19 22  1  0  0  0  0 
 19 23  1  0  0  0  0 
 20 23  1  0  0  0  0 
 21 24  1  0  0  0  0 
 22 25  1  0  0  0  0 
 22 26  2  0  0  0  0 
 24 27  1  0  0  0  0 
 25 28  2  0  0  0  0 
 27 29  2  0  0  0  0 
 27 30  1  0  0  0  0 
 29 31  1  0  0  0  0 
 30 32  2  0  0  0  0 
 31 33  2  0  0  0  0 
 32 33  1  0  0  0  0 
  1 34  1  0  0  0  0 
  1 35  1  0  0  0  0 
  7 36  1  0  0  0  0 
 12 37  1  0  0  0  0 
 13 38  1  0  0  0  0 
 14 39  1  0  0  0  0 
 15 40  1  0  0  0  0 
 15 41  1  0  0  0  0 
 16 42  1  0  0  0  0 
 16 43  1  0  0  0  0 
 17 44  1  0  0  0  0 
 18 45  1  0  0  0  0 
 20 46  1  0  0  0  0 
 20 47  1  0  0  0  0 
 23 48  1  0  0  0  0 
 23 49  1  0  0  0  0 
 25 50  1  0  0  0  0 
 28 51  1  0  0  0  0 
 28 52  1  0  0  0  0 
 29 53  1  0  0  0  0 
 30 54  1  0  0  0  0 
 31 55  1  0  0  0  0 
 32 56  1  0  0  0  0 
 33 57  1  0  0  0  0 
M  END
> <cdk:Title>
ibrutinib

> <Conformer>
1

> <SuperDrugID>
SD003772

$$$$
