mebutizide
  CDK     0628171801

 43 44  0  0  0  0  0  0  0  0999 V2000
   -5.4201    1.2579    2.8656 O   0  0  0  0  0  0  0  0  0  0  0  0
   -3.8904    1.3644    3.3332 S   0  0  2  0  0  0  0  0  0  0  0  0
   -3.5875    2.8139    3.9482 O   0  0  0  0  0  0  0  0  0  0  0  0
   -2.7662    1.0001    2.0241 C   0  0  0  0  0  0  0  0  0  0  0  0
   -3.5770    0.1469    4.5684 N   0  0  2  0  0  0  0  0  0  0  0  0
   -1.6067    0.2748    2.3668 C   0  0  0  0  0  0  0  0  0  0  0  0
   -3.0000    1.3917    0.6893 C   0  0  0  0  0  0  0  0  0  0  0  0
   -2.1232   -0.0101    4.8315 C   0  0  2  0  0  0  0  0  0  0  0  0
   -1.3337   -0.1673    3.6324 N   0  0  0  0  0  0  0  0  0  0  0  0
   -0.6672   -0.0168    1.3588 C   0  0  0  0  0  0  0  0  0  0  0  0
   -2.0721    1.0682   -0.3275 C   0  0  0  0  0  0  0  0  0  0  0  0
   -1.8843   -1.2322    5.7977 C   0  0  2  0  0  0  0  0  0  0  0  0
   -0.8851    0.3763    0.0239 C   0  0  0  0  0  0  0  0  0  0  0  0
   -2.4200    1.4969   -2.0167 S   0  0  1  0  0  0  0  0  0  0  0  0
   -2.7894   -1.2548    7.0987 C   0  0  2  0  0  0  0  0  0  0  0  0
   -0.3684   -1.4144    6.1372 C   0  0  0  0  0  0  0  0  0  0  0  0
    0.3226   -0.0197   -1.1021 Cl  0  0  0  0  0  0  0  0  0  0  0  0
   -1.2081    2.6122   -2.6318 N   0  0  2  0  0  0  0  0  0  0  0  0
   -2.3655    0.1774   -2.9282 O   0  0  0  0  0  0  0  0  0  0  0  0
   -3.8623    2.1754   -2.1922 O   0  0  0  0  0  0  0  0  0  0  0  0
   -2.5221   -0.0568    8.0692 C   0  0  1  0  0  0  0  0  0  0  0  0
   -2.7253   -2.6270    7.8454 C   0  0  0  0  0  0  0  0  0  0  0  0
   -3.4650    0.0228    9.2959 C   0  0  0  0  0  0  0  0  0  0  0  0
   -3.9012   -0.7455    4.1883 H   0  0  0  0  0  0  0  0  0  0  0  0
   -3.8544    1.9049    0.4634 H   0  0  0  0  0  0  0  0  0  0  0  0
   -1.7664    0.8988    5.3211 H   0  0  0  0  0  0  0  0  0  0  0  0
   -0.4871   -0.6231    3.7356 H   0  0  0  0  0  0  0  0  0  0  0  0
    0.1866   -0.5277    1.6026 H   0  0  0  0  0  0  0  0  0  0  0  0
   -2.1729   -2.1138    5.2155 H   0  0  0  0  0  0  0  0  0  0  0  0
   -3.8293   -1.1659    6.7695 H   0  0  0  0  0  0  0  0  0  0  0  0
    0.2183   -1.5949    5.2369 H   0  0  0  0  0  0  0  0  0  0  0  0
   -0.2068   -2.2758    6.7836 H   0  0  0  0  0  0  0  0  0  0  0  0
    0.0302   -0.5277    6.6328 H   0  0  0  0  0  0  0  0  0  0  0  0
   -1.4176    2.7691   -3.6201 H   0  0  0  0  0  0  0  0  0  0  0  0
   -0.3110    2.1251   -2.6007 H   0  0  0  0  0  0  0  0  0  0  0  0
   -1.4972   -0.1041    8.4407 H   0  0  0  0  0  0  0  0  0  0  0  0
   -2.6316    0.8790    7.5186 H   0  0  0  0  0  0  0  0  0  0  0  0
   -1.7994   -2.7249    8.4155 H   0  0  0  0  0  0  0  0  0  0  0  0
   -3.5601   -2.7295    8.5433 H   0  0  0  0  0  0  0  0  0  0  0  0
   -2.7847   -3.4586    7.1402 H   0  0  0  0  0  0  0  0  0  0  0  0
   -3.2999    0.9595    9.8310 H   0  0  0  0  0  0  0  0  0  0  0  0
   -3.2698   -0.8021    9.9836 H   0  0  0  0  0  0  0  0  0  0  0  0
   -4.5077   -0.0160    8.9791 H   0  0  0  0  0  0  0  0  0  0  0  0
  1  2  2  0  0  0  0 
  2  3  2  0  0  0  0 
  2  4  1  0  0  0  0 
  2  5  1  0  0  0  0 
  4  6  2  0  0  0  0 
  4  7  1  0  0  0  0 
  5  8  1  0  0  0  0 
  6  9  1  0  0  0  0 
  6 10  1  0  0  0  0 
  7 11  2  0  0  0  0 
  8  9  1  0  0  0  0 
  8 12  1  0  0  0  0 
 10 13  2  0  0  0  0 
 11 13  1  0  0  0  0 
 11 14  1  0  0  0  0 
 12 15  1  0  0  0  0 
 12 16  1  0  0  0  0 
 13 17  1  0  0  0  0 
 14 18  1  0  0  0  0 
 14 19  2  0  0  0  0 
 14 20  2  0  0  0  0 
 15 21  1  0  0  0  0 
 15 22  1  0  0  0  0 
 21 23  1  0  0  0  0 
  5 24  1  0  0  0  0 
  7 25  1  0  0  0  0 
  8 26  1  0  0  0  0 
  9 27  1  0  0  0  0 
 10 28  1  0  0  0  0 
 12 29  1  0  0  0  0 
 15 30  1  0  0  0  0 
 16 31  1  0  0  0  0 
 16 32  1  0  0  0  0 
 16 33  1  0  0  0  0 
 18 34  1  0  0  0  0 
 18 35  1  0  0  0  0 
 21 36  1  0  0  0  0 
 21 37  1  0  0  0  0 
 22 38  1  0  0  0  0 
 22 39  1  0  0  0  0 
 22 40  1  0  0  0  0 
 23 41  1  0  0  0  0 
 23 42  1  0  0  0  0 
 23 43  1  0  0  0  0 
M  END
> <cdk:Title>
mebutizide

> <Conformer>
1

> <SuperDrugID>
SD001455

$$$$
