nevirapine
  CDK     0628171801

 34 37  0  0  0  0  0  0  0  0999 V2000
   -3.6977    3.8747   -2.7837 C   0  0  0  0  0  0  0  0  0  0  0  0
   -2.4413    3.8235   -1.9897 C   0  0  0  0  0  0  0  0  0  0  0  0
   -1.6572    2.6371   -1.9253 C   0  0  0  0  0  0  0  0  0  0  0  0
   -2.0071    4.9772   -1.2980 C   0  0  0  0  0  0  0  0  0  0  0  0
   -0.4431    2.6557   -1.1882 C   0  0  0  0  0  0  0  0  0  0  0  0
   -2.1337    1.5180   -2.5410 N   0  0  0  0  0  0  0  0  0  0  0  0
   -0.8125    4.9398   -0.5671 C   0  0  0  0  0  0  0  0  0  0  0  0
    0.3982    1.5786   -1.0589 N   0  0  0  0  0  0  0  0  0  0  0  0
   -0.0848    3.8008   -0.5442 N   0  0  0  0  0  0  0  0  0  0  0  0
   -1.4511    0.4821   -3.0828 C   0  0  0  0  0  0  0  0  0  0  0  0
    0.8262    0.8682   -2.1527 C   0  0  0  0  0  0  0  0  0  0  0  0
    0.9549    1.2796    0.2371 C   0  0  2  0  0  0  0  0  0  0  0  0
   -2.1796   -0.4028   -3.5889 O   0  0  0  0  0  0  0  0  0  0  0  0
   -0.0411    0.3508   -3.1510 C   0  0  0  0  0  0  0  0  0  0  0  0
    2.1675    0.6450   -2.2704 N   0  0  0  0  0  0  0  0  0  0  0  0
    0.7905   -0.1468    0.7958 C   0  0  1  0  0  0  0  0  0  0  0  0
   -0.0246    1.0017    1.3940 C   0  0  1  0  0  0  0  0  0  0  0  0
    0.5394   -0.3442   -4.2413 C   0  0  0  0  0  0  0  0  0  0  0  0
    2.7380   -0.0287   -3.2985 C   0  0  0  0  0  0  0  0  0  0  0  0
    1.9275   -0.5358   -4.3229 C   0  0  0  0  0  0  0  0  0  0  0  0
   -4.1524    4.8664   -2.7844 H   0  0  0  0  0  0  0  0  0  0  0  0
   -3.4878    3.6003   -3.8194 H   0  0  0  0  0  0  0  0  0  0  0  0
   -4.4236    3.1719   -2.3731 H   0  0  0  0  0  0  0  0  0  0  0  0
   -2.5473    5.8454   -1.3198 H   0  0  0  0  0  0  0  0  0  0  0  0
   -3.0963    1.4740   -2.6491 H   0  0  0  0  0  0  0  0  0  0  0  0
   -0.4883    5.7623   -0.0553 H   0  0  0  0  0  0  0  0  0  0  0  0
    1.8721    1.7938    0.5353 H   0  0  0  0  0  0  0  0  0  0  0  0
    0.2226   -0.8509    0.1848 H   0  0  0  0  0  0  0  0  0  0  0  0
    1.6114   -0.5171    1.4131 H   0  0  0  0  0  0  0  0  0  0  0  0
    0.2924    1.3435    2.3818 H   0  0  0  0  0  0  0  0  0  0  0  0
   -1.0879    0.9871    1.1478 H   0  0  0  0  0  0  0  0  0  0  0  0
   -0.0458   -0.7170   -4.9939 H   0  0  0  0  0  0  0  0  0  0  0  0
    3.7506   -0.1615   -3.3257 H   0  0  0  0  0  0  0  0  0  0  0  0
    2.3392   -1.0361   -5.1140 H   0  0  0  0  0  0  0  0  0  0  0  0
  1  2  1  0  0  0  0 
  2  3  2  0  0  0  0 
  2  4  1  0  0  0  0 
  3  5  1  0  0  0  0 
  3  6  1  0  0  0  0 
  4  7  2  0  0  0  0 
  5  8  1  0  0  0  0 
  5  9  2  0  0  0  0 
  6 10  1  0  0  0  0 
  7  9  1  0  0  0  0 
  8 11  1  0  0  0  0 
  8 12  1  0  0  0  0 
 10 13  2  0  0  0  0 
 10 14  1  0  0  0  0 
 11 14  2  0  0  0  0 
 11 15  1  0  0  0  0 
 12 16  1  0  0  0  0 
 12 17  1  0  0  0  0 
 14 18  1  0  0  0  0 
 15 19  2  0  0  0  0 
 16 17  1  0  0  0  0 
 18 20  2  0  0  0  0 
 19 20  1  0  0  0  0 
  1 21  1  0  0  0  0 
  1 22  1  0  0  0  0 
  1 23  1  0  0  0  0 
  4 24  1  0  0  0  0 
  6 25  1  0  0  0  0 
  7 26  1  0  0  0  0 
 12 27  1  0  0  0  0 
 16 28  1  0  0  0  0 
 16 29  1  0  0  0  0 
 17 30  1  0  0  0  0 
 17 31  1  0  0  0  0 
 18 32  1  0  0  0  0 
 19 33  1  0  0  0  0 
 20 34  1  0  0  0  0 
M  END
> <cdk:Title>
nevirapine

> <Conformer>
1

> <SuperDrugID>
SD001699

$$$$
