bibrocathol
  CDK     0628171801

 15 16  0  0  0  0  0  0  0  0999 V2000
   -1.6535    4.3469   -1.9867 Br  0  0  0  0  0  0  0  0  0  0  0  0
   -2.5043    2.7271   -1.6137 C   0  0  0  0  0  0  0  0  0  0  0  0
   -1.7496    1.6660   -1.0707 C   0  0  0  0  0  0  0  0  0  0  0  0
   -3.8837    2.5561   -1.8678 C   0  0  0  0  0  0  0  0  0  0  0  0
   -2.3710    0.4307   -0.7819 C   0  0  0  0  0  0  0  0  0  0  0  0
   -0.4270    1.8653   -0.8355 O   0  0  0  0  0  0  0  0  0  0  0  0
   -4.8790    3.9625   -2.5889 Br  0  0  0  0  0  0  0  0  0  0  0  0
   -4.5074    1.3223   -1.5728 C   0  0  0  0  0  0  0  0  0  0  0  0
   -3.7487    0.2606   -1.0311 C   0  0  0  0  0  0  0  0  0  0  0  0
   -1.6687   -0.6126   -0.2654 O   0  0  0  0  0  0  0  0  0  0  0  0
    0.3741   -0.0341   -0.3337 Bi  0  0  0  0  0  0  0  0  0  0  0  0
   -6.3314    1.0904   -1.8990 Br  0  0  0  0  0  0  0  0  0  0  0  0
   -4.5440   -1.3805   -0.6321 Br  0  0  0  0  0  0  0  0  0  0  0  0
    2.3799   -0.7660   -0.0812 O   0  0  0  0  0  0  0  0  0  0  0  0
    2.8983    0.0265    0.1712 H   0  0  0  0  0  0  0  0  0  0  0  0
  1  2  1  0  0  0  0 
  2  3  2  0  0  0  0 
  2  4  1  0  0  0  0 
  3  5  1  0  0  0  0 
  3  6  1  0  0  0  0 
  4  7  1  0  0  0  0 
  4  8  2  0  0  0  0 
  5  9  2  0  0  0  0 
  5 10  1  0  0  0  0 
  6 11  1  0  0  0  0 
  8  9  1  0  0  0  0 
  8 12  1  0  0  0  0 
  9 13  1  0  0  0  0 
 10 11  1  0  0  0  0 
 11 14  1  0  0  0  0 
 14 15  1  0  0  0  0 
M  END
> <cdk:Title>
bibrocathol

> <Conformer>
1

> <SuperDrugID>
SD003512

$$$$
