diethadione
  CDK     0628171801

 25 25  0  0  0  0  0  0  0  0999 V2000
   -3.6378    1.2974   -1.0239 C   0  0  2  0  0  0  0  0  0  0  0  0
   -4.5095    2.2884   -0.2111 C   0  0  0  0  0  0  0  0  0  0  0  0
   -2.0981    1.6199   -1.1396 C   0  0  2  0  0  0  0  0  0  0  0  0
   -1.8605    2.9950   -1.8668 C   0  0  2  0  0  0  0  0  0  0  0  0
   -1.4419    0.5195   -1.9306 C   0  0  0  0  0  0  0  0  0  0  0  0
   -1.4399    1.6161    0.2923 C   0  0  2  0  0  0  0  0  0  0  0  0
   -0.3878    3.4030   -2.1377 C   0  0  0  0  0  0  0  0  0  0  0  0
   -1.8815    0.1728   -3.0523 O   0  0  0  0  0  0  0  0  0  0  0  0
   -0.3496   -0.1031   -1.5036 N   0  0  0  0  0  0  0  0  0  0  0  0
   -0.0199    1.3487    0.2637 O   0  0  0  0  0  0  0  0  0  0  0  0
    0.3122    0.2648   -0.4639 C   0  0  0  0  0  0  0  0  0  0  0  0
    1.3915   -0.4171   -0.1264 O   0  0  0  0  0  0  0  0  0  0  0  0
   -4.0743    1.2400   -2.0259 H   0  0  0  0  0  0  0  0  0  0  0  0
   -3.7639    0.3101   -0.5668 H   0  0  0  0  0  0  0  0  0  0  0  0
   -5.5400    1.9278   -0.1824 H   0  0  0  0  0  0  0  0  0  0  0  0
   -4.1521    2.3755    0.8153 H   0  0  0  0  0  0  0  0  0  0  0  0
   -4.5159    3.2755   -0.6723 H   0  0  0  0  0  0  0  0  0  0  0  0
   -2.2958    3.8004   -1.2694 H   0  0  0  0  0  0  0  0  0  0  0  0
   -2.3828    2.9910   -2.8273 H   0  0  0  0  0  0  0  0  0  0  0  0
   -1.9043    0.8589    0.9332 H   0  0  0  0  0  0  0  0  0  0  0  0
   -1.5860    2.5797    0.7856 H   0  0  0  0  0  0  0  0  0  0  0  0
   -0.3644    4.3324   -2.7106 H   0  0  0  0  0  0  0  0  0  0  0  0
    0.1460    3.5725   -1.2016 H   0  0  0  0  0  0  0  0  0  0  0  0
    0.1358    2.6371   -2.7110 H   0  0  0  0  0  0  0  0  0  0  0  0
    1.4070   -0.3882    0.8537 H   0  0  0  0  0  0  0  0  0  0  0  0
  1  2  1  0  0  0  0 
  1  3  1  0  0  0  0 
  3  4  1  0  0  0  0 
  3  5  1  0  0  0  0 
  3  6  1  0  0  0  0 
  4  7  1  0  0  0  0 
  5  8  2  0  0  0  0 
  5  9  1  0  0  0  0 
  6 10  1  0  0  0  0 
  9 11  2  0  0  0  0 
 10 11  1  0  0  0  0 
 11 12  1  0  0  0  0 
 13  1  1  0  0  0  0 
 14  1  1  0  0  0  0 
 15  2  1  0  0  0  0 
 16  2  1  0  0  0  0 
 17  2  1  0  0  0  0 
 18  4  1  0  0  0  0 
 19  4  1  0  0  0  0 
 20  6  1  0  0  0  0 
 21  6  1  0  0  0  0 
 22  7  1  0  0  0  0 
 23  7  1  0  0  0  0 
 24  7  1  0  0  0  0 
 25 12  1  0  0  0  0 
M  END
> <cdk:Title>
diethadione

> <Conformer>
1

> <SuperDrugID>
SD003186

$$$$
