conivaptan
  CDK     0628171802

 64 69  0  0  0  0  0  0  0  0999 V2000
    9.7283    5.1054   -1.3376 C   0  0  0  0  0  0  0  0  0  0  0  0
   10.7954    4.7775   -0.4905 C   0  0  0  0  0  0  0  0  0  0  0  0
   10.7459    3.5954    0.2551 C   0  0  0  0  0  0  0  0  0  0  0  0
    9.6323    2.7455    0.1534 C   0  0  0  0  0  0  0  0  0  0  0  0
    8.5292    3.0488   -0.6900 C   0  0  0  0  0  0  0  0  0  0  0  0
    8.5926    4.2622   -1.4456 C   0  0  0  0  0  0  0  0  0  0  0  0
    7.6513    0.9207   -0.4675 O   0  0  0  0  0  0  0  0  0  0  0  0
    7.4287    2.1302   -0.7162 C   0  0  0  0  0  0  0  0  0  0  0  0
    7.5760    4.6948   -2.3373 C   0  0  0  0  0  0  0  0  0  0  0  0
    7.3486    3.9974   -3.5454 C   0  0  0  0  0  0  0  0  0  0  0  0
    6.3781    4.4431   -4.4605 C   0  0  0  0  0  0  0  0  0  0  0  0
    5.6049    5.5916   -4.2118 C   0  0  0  0  0  0  0  0  0  0  0  0
    5.8267    6.2894   -2.9714 C   0  0  0  0  0  0  0  0  0  0  0  0
    6.8101    5.8426   -2.0159 C   0  0  0  0  0  0  0  0  0  0  0  0
    4.9761    1.8499   -0.9961 C   0  0  0  0  0  0  0  0  0  0  0  0
    4.8549    0.4559   -1.2225 C   0  0  0  0  0  0  0  0  0  0  0  0
    3.5944   -0.1717   -1.2191 C   0  0  0  0  0  0  0  0  0  0  0  0
    2.4261    0.5850   -0.9944 C   0  0  0  0  0  0  0  0  0  0  0  0
    2.5329    1.9805   -0.8207 C   0  0  0  0  0  0  0  0  0  0  0  0
    3.7931    2.6029   -0.8300 C   0  0  0  0  0  0  0  0  0  0  0  0
    1.1503   -0.0169   -0.9165 C   0  0  0  0  0  0  0  0  0  0  0  0
    0.5817   -0.4899    0.2716 N   0  0  0  0  0  0  0  0  0  0  0  0
    0.5205   -0.0383   -2.0023 O   0  0  0  0  0  0  0  0  0  0  0  0
    6.1488    2.5584   -0.9366 N   0  0  0  0  0  0  0  0  0  0  0  0
    1.4725   -0.7561    1.3964 C   0  0  2  0  0  0  0  0  0  0  0  0
    0.9384   -1.5397    2.6167 C   0  0  2  0  0  0  0  0  0  0  0  0
    0.3141   -2.8066    2.2073 C   0  0  0  0  0  0  0  0  0  0  0  0
   -0.7867   -2.9167    1.3650 C   0  0  0  0  0  0  0  0  0  0  0  0
   -1.4731   -1.8372    0.7596 C   0  0  0  0  0  0  0  0  0  0  0  0
   -0.8076   -0.6481    0.3316 C   0  0  0  0  0  0  0  0  0  0  0  0
   -1.6134    0.4394   -0.1050 C   0  0  0  0  0  0  0  0  0  0  0  0
   -3.0057    0.3273   -0.2371 C   0  0  0  0  0  0  0  0  0  0  0  0
   -3.6380   -0.8744    0.1049 C   0  0  0  0  0  0  0  0  0  0  0  0
   -2.8794   -1.9430    0.6104 C   0  0  0  0  0  0  0  0  0  0  0  0
    0.6419   -4.0433    2.6040 N   0  0  0  0  0  0  0  0  0  0  0  0
   -0.2424   -4.9011    2.0685 C   0  0  0  0  0  0  0  0  0  0  0  0
   -1.1161   -4.2199    1.3047 N   0  0  0  0  0  0  0  0  0  0  0  0
   -0.2967   -6.3542    2.2865 C   0  0  0  0  0  0  0  0  0  0  0  0
    9.7919    5.9742   -1.8778 H   0  0  0  0  0  0  0  0  0  0  0  0
   11.6029    5.3998   -0.4179 H   0  0  0  0  0  0  0  0  0  0  0  0
   11.5220    3.3533    0.8712 H   0  0  0  0  0  0  0  0  0  0  0  0
    9.6379    1.8930    0.7209 H   0  0  0  0  0  0  0  0  0  0  0  0
    7.8961    3.1619   -3.7721 H   0  0  0  0  0  0  0  0  0  0  0  0
    6.2330    3.9181   -5.3276 H   0  0  0  0  0  0  0  0  0  0  0  0
    4.9033    5.8450   -4.9848 H   0  0  0  0  0  0  0  0  0  0  0  0
    5.2747    7.1220   -2.7639 H   0  0  0  0  0  0  0  0  0  0  0  0
    7.0280    6.3022   -1.0664 H   0  0  0  0  0  0  0  0  0  0  0  0
    5.6731   -0.1209   -1.4076 H   0  0  0  0  0  0  0  0  0  0  0  0
    3.5343   -1.1832   -1.3703 H   0  0  0  0  0  0  0  0  0  0  0  0
    1.6965    2.5551   -0.6822 H   0  0  0  0  0  0  0  0  0  0  0  0
    3.8393    3.6181   -0.7043 H   0  0  0  0  0  0  0  0  0  0  0  0
    6.0483    3.5176   -1.0263 H   0  0  0  0  0  0  0  0  0  0  0  0
    1.8621    0.1972    1.7658 H   0  0  0  0  0  0  0  0  0  0  0  0
    2.3289   -1.3326    1.0329 H   0  0  0  0  0  0  0  0  0  0  0  0
    0.2012   -0.9329    3.1465 H   0  0  0  0  0  0  0  0  0  0  0  0
    1.7638   -1.7403    3.3065 H   0  0  0  0  0  0  0  0  0  0  0  0
   -1.1816    1.3348   -0.3526 H   0  0  0  0  0  0  0  0  0  0  0  0
   -3.5543    1.1167   -0.5886 H   0  0  0  0  0  0  0  0  0  0  0  0
   -4.6506   -0.9663   -0.0046 H   0  0  0  0  0  0  0  0  0  0  0  0
   -3.3782   -2.7943    0.8868 H   0  0  0  0  0  0  0  0  0  0  0  0
    1.3775   -4.2724    3.1946 H   0  0  0  0  0  0  0  0  0  0  0  0
   -0.1894   -6.8760    1.3344 H   0  0  0  0  0  0  0  0  0  0  0  0
   -1.2608   -6.6177    2.7250 H   0  0  0  0  0  0  0  0  0  0  0  0
    0.4957   -6.6825    2.9614 H   0  0  0  0  0  0  0  0  0  0  0  0
  1  2  2  0  0  0  0 
  2  3  1  0  0  0  0 
  3  4  2  0  0  0  0 
  4  5  1  0  0  0  0 
  5  6  2  0  0  0  0 
  1  6  1  0  0  0  0 
  7  8  2  0  0  0  0 
  5  8  1  0  0  0  0 
  6  9  1  0  0  0  0 
  9 10  2  0  0  0  0 
 10 11  1  0  0  0  0 
 11 12  2  0  0  0  0 
 12 13  1  0  0  0  0 
 13 14  2  0  0  0  0 
  9 14  1  0  0  0  0 
 15 16  2  0  0  0  0 
 16 17  1  0  0  0  0 
 17 18  2  0  0  0  0 
 18 19  1  0  0  0  0 
 19 20  2  0  0  0  0 
 15 20  1  0  0  0  0 
 18 21  1  0  0  0  0 
 21 22  1  0  0  0  0 
 21 23  2  0  0  0  0 
  8 24  1  0  0  0  0 
 15 24  1  0  0  0  0 
 25 26  1  0  0  0  0 
 26 27  1  0  0  0  0 
 27 28  2  0  0  0  0 
 28 29  1  0  0  0  0 
 22 25  1  0  0  0  0 
 30 22  1  0  0  0  0 
 31 32  1  0  0  0  0 
 32 33  2  0  0  0  0 
 33 34  1  0  0  0  0 
 29 34  2  0  0  0  0 
 30 31  2  0  0  0  0 
 29 30  1  0  0  0  0 
 35 36  1  0  0  0  0 
 36 37  2  0  0  0  0 
 27 35  1  0  0  0  0 
 28 37  1  0  0  0  0 
 36 38  1  0  0  0  0 
 39  1  1  0  0  0  0 
 40  2  1  0  0  0  0 
 41  3  1  0  0  0  0 
 42  4  1  0  0  0  0 
 43 10  1  0  0  0  0 
 44 11  1  0  0  0  0 
 45 12  1  0  0  0  0 
 46 13  1  0  0  0  0 
 47 14  1  0  0  0  0 
 48 16  1  0  0  0  0 
 49 17  1  0  0  0  0 
 50 19  1  0  0  0  0 
 51 20  1  0  0  0  0 
 52 24  1  0  0  0  0 
 53 25  1  0  0  0  0 
 54 25  1  0  0  0  0 
 55 26  1  0  0  0  0 
 56 26  1  0  0  0  0 
 57 31  1  0  0  0  0 
 58 32  1  0  0  0  0 
 59 33  1  0  0  0  0 
 60 34  1  0  0  0  0 
 61 35  1  0  0  0  0 
 62 38  1  0  0  0  0 
 63 38  1  0  0  0  0 
 64 38  1  0  0  0  0 
M  END
> <cdk:Title>
conivaptan

> <Conformer>
1

> <SuperDrugID>
SD000645

$$$$
