mabuterol
  CDK     0628171801

 38 38  0  0  0  0  0  0  0  0999 V2000
    1.8389   -0.1781    4.5976 C   0  0  1  0  0  0  0  0  0  0  0  0
    0.6158   -0.7131    4.9312 F   0  0  0  0  0  0  0  0  0  0  0  0
    1.9132    1.0450    5.2186 F   0  0  0  0  0  0  0  0  0  0  0  0
    2.7690   -1.0171    5.1616 F   0  0  0  0  0  0  0  0  0  0  0  0
    2.0949   -0.0334    3.1278 C   0  0  0  0  0  0  0  0  0  0  0  0
    1.0930   -0.3741    2.1842 C   0  0  0  0  0  0  0  0  0  0  0  0
    3.3440    0.4445    2.6379 C   0  0  0  0  0  0  0  0  0  0  0  0
    1.3130   -0.2874    0.7911 C   0  0  0  0  0  0  0  0  0  0  0  0
    4.3176    0.8387    3.4925 N   0  0  0  0  0  0  0  0  0  0  0  0
    3.5846    0.5185    1.2444 C   0  0  0  0  0  0  0  0  0  0  0  0
    0.2350   -0.6202   -0.1859 C   0  0  2  0  0  0  0  0  0  0  0  0
    2.5734    0.1555    0.3383 C   0  0  0  0  0  0  0  0  0  0  0  0
    5.0666    1.0496    0.6080 Cl  0  0  0  0  0  0  0  0  0  0  0  0
   -0.7527    0.5614   -0.3639 C   0  0  1  0  0  0  0  0  0  0  0  0
   -0.4552   -1.8054    0.2079 O   0  0  0  0  0  0  0  0  0  0  0  0
   -0.0143    1.7107   -0.9430 N   0  0  2  0  0  0  0  0  0  0  0  0
   -0.6932    3.0121   -1.2034 C   0  0  2  0  0  0  0  0  0  0  0  0
   -1.2444    3.6401    0.1133 C   0  0  0  0  0  0  0  0  0  0  0  0
   -1.8227    2.8574   -2.2666 C   0  0  0  0  0  0  0  0  0  0  0  0
    0.4330    3.9288   -1.7742 C   0  0  0  0  0  0  0  0  0  0  0  0
    0.1780   -0.6918    2.5131 H   0  0  0  0  0  0  0  0  0  0  0  0
    5.1656    1.1593    3.1484 H   0  0  0  0  0  0  0  0  0  0  0  0
    4.1737    0.8058    4.4525 H   0  0  0  0  0  0  0  0  0  0  0  0
    0.6705   -0.8480   -1.1645 H   0  0  0  0  0  0  0  0  0  0  0  0
    2.7521    0.2319   -0.6663 H   0  0  0  0  0  0  0  0  0  0  0  0
   -1.5529    0.2536   -1.0390 H   0  0  0  0  0  0  0  0  0  0  0  0
   -1.1910    0.8234    0.6009 H   0  0  0  0  0  0  0  0  0  0  0  0
   -1.0570   -2.0097   -0.5389 H   0  0  0  0  0  0  0  0  0  0  0  0
    0.3682    1.3911   -1.8363 H   0  0  0  0  0  0  0  0  0  0  0  0
   -0.4670    3.6585    0.8809 H   0  0  0  0  0  0  0  0  0  0  0  0
   -2.0899    3.0653    0.4949 H   0  0  0  0  0  0  0  0  0  0  0  0
   -1.5863    4.6629   -0.0597 H   0  0  0  0  0  0  0  0  0  0  0  0
   -2.6563    2.2773   -1.8680 H   0  0  0  0  0  0  0  0  0  0  0  0
   -2.2083    3.8328   -2.5688 H   0  0  0  0  0  0  0  0  0  0  0  0
   -1.4447    2.3456   -3.1544 H   0  0  0  0  0  0  0  0  0  0  0  0
    0.0509    4.9266   -1.9988 H   0  0  0  0  0  0  0  0  0  0  0  0
    1.2496    4.0309   -1.0555 H   0  0  0  0  0  0  0  0  0  0  0  0
    0.8460    3.5089   -2.6946 H   0  0  0  0  0  0  0  0  0  0  0  0
  1  2  1  0  0  0  0 
  1  3  1  0  0  0  0 
  1  4  1  0  0  0  0 
  1  5  1  0  0  0  0 
  5  6  2  0  0  0  0 
  5  7  1  0  0  0  0 
  6  8  1  0  0  0  0 
  7  9  1  0  0  0  0 
  7 10  2  0  0  0  0 
 11  8  1  0  0  0  0 
  8 12  2  0  0  0  0 
 10 12  1  0  0  0  0 
 10 13  1  0  0  0  0 
 11 14  1  0  0  0  0 
 11 15  1  0  0  0  0 
 14 16  1  0  0  0  0 
 16 17  1  0  0  0  0 
 17 18  1  0  0  0  0 
 17 19  1  0  0  0  0 
 17 20  1  0  0  0  0 
  6 21  1  0  0  0  0 
  9 22  1  0  0  0  0 
  9 23  1  0  0  0  0 
 11 24  1  0  0  0  0 
 12 25  1  0  0  0  0 
 14 26  1  0  0  0  0 
 14 27  1  0  0  0  0 
 15 28  1  0  0  0  0 
 16 29  1  0  0  0  0 
 18 30  1  0  0  0  0 
 18 31  1  0  0  0  0 
 18 32  1  0  0  0  0 
 19 33  1  0  0  0  0 
 19 34  1  0  0  0  0 
 19 35  1  0  0  0  0 
 20 36  1  0  0  0  0 
 20 37  1  0  0  0  0 
 20 38  1  0  0  0  0 
M  END
> <cdk:Title>
mabuterol

> <Conformer>
1

> <SuperDrugID>
SD001437

$$$$
