fluvastatin
  CDK     0628171801

 56 58  0  0  0  0  0  0  0  0999 V2000
    1.6624    0.0156   -2.3231 C   0  0  0  0  0  0  0  0  0  0  0  0
    2.5962   -0.6210   -3.0536 C   0  0  0  0  0  0  0  0  0  0  0  0
    1.9539    0.8508   -1.2470 C   0  0  0  0  0  0  0  0  0  0  0  0
    2.3034   -1.5125   -4.1764 C   0  0  1  0  0  0  0  0  0  0  0  0
    1.3482    0.6764    0.0057 C   0  0  0  0  0  0  0  0  0  0  0  0
    2.8252    1.9066   -1.1894 N   0  0  0  0  0  0  0  0  0  0  0  0
    3.2540   -2.7464   -4.3032 C   0  0  2  0  0  0  0  0  0  0  0  0
    0.9673   -2.0211   -4.1156 O   0  0  0  0  0  0  0  0  0  0  0  0
    1.9414    1.5984    0.8535 C   0  0  0  0  0  0  0  0  0  0  0  0
    0.3467   -0.2567    0.3638 C   0  0  0  0  0  0  0  0  0  0  0  0
    3.5153    2.5091   -2.3221 C   0  0  1  0  0  0  0  0  0  0  0  0
    2.8635    2.3312    0.1039 C   0  0  0  0  0  0  0  0  0  0  0  0
    4.7287   -2.4297   -4.6988 C   0  0  1  0  0  0  0  0  0  0  0  0
    1.7268    1.8375    2.2232 C   0  0  0  0  0  0  0  0  0  0  0  0
   -0.9623   -0.1191   -0.1499 C   0  0  0  0  0  0  0  0  0  0  0  0
    0.6354   -1.3286    1.2386 C   0  0  0  0  0  0  0  0  0  0  0  0
    3.0688    3.9808   -2.5480 C   0  0  0  0  0  0  0  0  0  0  0  0
    5.0586    2.3413   -2.2680 C   0  0  0  0  0  0  0  0  0  0  0  0
    3.6268    3.3315    0.7469 C   0  0  0  0  0  0  0  0  0  0  0  0
    5.6043   -3.7118   -4.8083 C   0  0  2  0  0  0  0  0  0  0  0  0
    4.7638   -1.7481   -5.9543 O   0  0  0  0  0  0  0  0  0  0  0  0
    2.4948    2.8305    2.8580 C   0  0  0  0  0  0  0  0  0  0  0  0
   -1.9631   -1.0454    0.1950 C   0  0  0  0  0  0  0  0  0  0  0  0
   -0.3646   -2.2593    1.5782 C   0  0  0  0  0  0  0  0  0  0  0  0
    3.4412    3.5738    2.1237 C   0  0  0  0  0  0  0  0  0  0  0  0
    7.0396   -3.4152   -5.0068 C   0  0  0  0  0  0  0  0  0  0  0  0
   -1.6641   -2.1195    1.0543 C   0  0  0  0  0  0  0  0  0  0  0  0
    7.6744   -3.7771   -6.1466 O   0  0  0  0  0  0  0  0  0  0  0  0
    7.7008   -2.8316   -4.1177 O   0  0  0  0  0  0  0  0  0  0  0  0
   -2.5919   -2.9818    1.3655 F   0  0  0  0  0  0  0  0  0  0  0  0
    0.7014   -0.1402   -2.5272 H   0  0  0  0  0  0  0  0  0  0  0  0
    3.5503   -0.4575   -2.8267 H   0  0  0  0  0  0  0  0  0  0  0  0
    2.3664   -0.9096   -5.0852 H   0  0  0  0  0  0  0  0  0  0  0  0
    2.8432   -3.4128   -5.0680 H   0  0  0  0  0  0  0  0  0  0  0  0
    3.2411   -3.3005   -3.3593 H   0  0  0  0  0  0  0  0  0  0  0  0
    0.8545   -2.5368   -4.9407 H   0  0  0  0  0  0  0  0  0  0  0  0
    3.2031    2.0037   -3.2401 H   0  0  0  0  0  0  0  0  0  0  0  0
    5.1678   -1.7760   -3.9425 H   0  0  0  0  0  0  0  0  0  0  0  0
    1.0385    1.2994    2.7542 H   0  0  0  0  0  0  0  0  0  0  0  0
   -1.1970    0.6592   -0.7730 H   0  0  0  0  0  0  0  0  0  0  0  0
    1.5748   -1.4396    1.6289 H   0  0  0  0  0  0  0  0  0  0  0  0
    3.3196    4.3067   -3.5600 H   0  0  0  0  0  0  0  0  0  0  0  0
    3.5521    4.6590   -1.8462 H   0  0  0  0  0  0  0  0  0  0  0  0
    1.9861    4.0642   -2.4275 H   0  0  0  0  0  0  0  0  0  0  0  0
    5.5119    2.7618   -3.1677 H   0  0  0  0  0  0  0  0  0  0  0  0
    5.5016    2.8348   -1.4046 H   0  0  0  0  0  0  0  0  0  0  0  0
    5.3143    1.2826   -2.2197 H   0  0  0  0  0  0  0  0  0  0  0  0
    4.3167    3.8813    0.2411 H   0  0  0  0  0  0  0  0  0  0  0  0
    5.2433   -4.3236   -5.6407 H   0  0  0  0  0  0  0  0  0  0  0  0
    5.5087   -4.3064   -3.8966 H   0  0  0  0  0  0  0  0  0  0  0  0
    4.3041   -0.8971   -5.8013 H   0  0  0  0  0  0  0  0  0  0  0  0
    2.3662    3.0085    3.8570 H   0  0  0  0  0  0  0  0  0  0  0  0
   -2.9075   -0.9325   -0.1812 H   0  0  0  0  0  0  0  0  0  0  0  0
   -0.1434   -3.0365    2.2053 H   0  0  0  0  0  0  0  0  0  0  0  0
    3.9933    4.2938    2.5945 H   0  0  0  0  0  0  0  0  0  0  0  0
    8.6245   -3.5636   -6.2666 H   0  0  0  0  0  0  0  0  0  0  0  0
  1  2  2  0  0  0  0 
  1  3  1  0  0  0  0 
  4  2  1  0  0  0  0 
  3  5  2  0  0  0  0 
  3  6  1  0  0  0  0 
  4  7  1  0  0  0  0 
  4  8  1  0  0  0  0 
  5  9  1  0  0  0  0 
  5 10  1  0  0  0  0 
  6 11  1  0  0  0  0 
  6 12  1  0  0  0  0 
 13  7  1  0  0  0  0 
  9 12  1  0  0  0  0 
  9 14  2  0  0  0  0 
 10 15  2  0  0  0  0 
 10 16  1  0  0  0  0 
 11 17  1  0  0  0  0 
 11 18  1  0  0  0  0 
 12 19  2  0  0  0  0 
 13 20  1  0  0  0  0 
 13 21  1  0  0  0  0 
 14 22  1  0  0  0  0 
 15 23  1  0  0  0  0 
 16 24  2  0  0  0  0 
 19 25  1  0  0  0  0 
 20 26  1  0  0  0  0 
 22 25  2  0  0  0  0 
 23 27  2  0  0  0  0 
 24 27  1  0  0  0  0 
 26 28  1  0  0  0  0 
 26 29  2  0  0  0  0 
 27 30  1  0  0  0  0 
  1 31  1  0  0  0  0 
  2 32  1  0  0  0  0 
  4 33  1  0  0  0  0 
  7 34  1  0  0  0  0 
  7 35  1  0  0  0  0 
  8 36  1  0  0  0  0 
 11 37  1  0  0  0  0 
 13 38  1  0  0  0  0 
 14 39  1  0  0  0  0 
 15 40  1  0  0  0  0 
 16 41  1  0  0  0  0 
 17 42  1  0  0  0  0 
 17 43  1  0  0  0  0 
 17 44  1  0  0  0  0 
 18 45  1  0  0  0  0 
 18 46  1  0  0  0  0 
 18 47  1  0  0  0  0 
 19 48  1  0  0  0  0 
 20 49  1  0  0  0  0 
 20 50  1  0  0  0  0 
 21 51  1  0  0  0  0 
 22 52  1  0  0  0  0 
 23 53  1  0  0  0  0 
 24 54  1  0  0  0  0 
 25 55  1  0  0  0  0 
 28 56  1  0  0  0  0 
M  END
> <cdk:Title>
fluvastatin

> <Conformer>
1

> <SuperDrugID>
SD001102

$$$$
