ibandronic acid
  CDK     0628171801

 42 41  0  0  0  0  0  0  0  0999 V2000
   -4.5643   -2.1338    4.9670 C   0  0  0  0  0  0  0  0  0  0  0  0
   -3.2454   -1.5476    4.4192 C   0  0  2  0  0  0  0  0  0  0  0  0
   -3.4749   -0.6168    3.1973 C   0  0  1  0  0  0  0  0  0  0  0  0
   -2.1524   -0.1588    2.5272 C   0  0  2  0  0  0  0  0  0  0  0  0
   -2.3894    0.6886    1.2439 C   0  0  1  0  0  0  0  0  0  0  0  0
   -1.1368    1.2013    0.5848 N   0  0  2  0  0  0  0  0  0  0  0  0
   -1.4283    2.3170   -0.3726 C   0  0  0  0  0  0  0  0  0  0  0  0
   -0.2697    0.1110    0.0079 C   0  0  1  0  0  0  0  0  0  0  0  0
    1.0845    0.5757   -0.6050 C   0  0  1  0  0  0  0  0  0  0  0  0
    2.1467   -0.5392   -0.9405 C   0  0  2  0  0  0  0  0  0  0  0  0
    2.4755   -1.2700    0.2428 O   0  0  0  0  0  0  0  0  0  0  0  0
    3.6326    0.1977   -1.4245 P   0  0  1  0  0  0  0  0  0  0  0  0
    4.7411   -0.9065   -1.7120 O   0  0  0  0  0  0  0  0  0  0  0  0
    3.4268    1.0223   -2.7681 O   0  0  0  0  0  0  0  0  0  0  0  0
    4.1418    1.1048   -0.3849 O   0  0  0  0  0  0  0  0  0  0  0  0
    1.6147   -1.6808   -2.1254 P   0  0  1  0  0  0  0  0  0  0  0  0
    0.4358   -2.5696   -1.5344 O   0  0  0  0  0  0  0  0  0  0  0  0
    1.0386   -0.9218   -3.3990 O   0  0  0  0  0  0  0  0  0  0  0  0
    2.6892   -2.5872   -2.5577 O   0  0  0  0  0  0  0  0  0  0  0  0
   -4.3562   -2.7802    5.8197 H   0  0  0  0  0  0  0  0  0  0  0  0
   -5.0643   -2.7271    4.1992 H   0  0  0  0  0  0  0  0  0  0  0  0
   -5.2318   -1.3338    5.2868 H   0  0  0  0  0  0  0  0  0  0  0  0
   -2.5956   -2.3794    4.1315 H   0  0  0  0  0  0  0  0  0  0  0  0
   -2.7456   -0.9867    5.2124 H   0  0  0  0  0  0  0  0  0  0  0  0
   -4.0702   -1.1512    2.4516 H   0  0  0  0  0  0  0  0  0  0  0  0
   -4.0394    0.2629    3.5196 H   0  0  0  0  0  0  0  0  0  0  0  0
   -1.5908   -1.0584    2.2766 H   0  0  0  0  0  0  0  0  0  0  0  0
   -1.5633    0.4297    3.2378 H   0  0  0  0  0  0  0  0  0  0  0  0
   -2.9760    0.1055    0.5281 H   0  0  0  0  0  0  0  0  0  0  0  0
   -3.0073    1.5378    1.5506 H   0  0  0  0  0  0  0  0  0  0  0  0
   -1.9044    1.9477   -1.2852 H   0  0  0  0  0  0  0  0  0  0  0  0
   -0.5116    2.8405   -0.6420 H   0  0  0  0  0  0  0  0  0  0  0  0
   -2.0802    3.0674    0.0792 H   0  0  0  0  0  0  0  0  0  0  0  0
    0.0036   -0.5741    0.8086 H   0  0  0  0  0  0  0  0  0  0  0  0
   -0.8414   -0.4480   -0.7367 H   0  0  0  0  0  0  0  0  0  0  0  0
    0.8710    1.1422   -1.5156 H   0  0  0  0  0  0  0  0  0  0  0  0
    1.5190    1.2727    0.1199 H   0  0  0  0  0  0  0  0  0  0  0  0
    1.6538   -1.7329    0.5060 H   0  0  0  0  0  0  0  0  0  0  0  0
    4.8177   -1.4075   -0.8721 H   0  0  0  0  0  0  0  0  0  0  0  0
    3.2108    0.3498   -3.4470 H   0  0  0  0  0  0  0  0  0  0  0  0
    0.8480   -3.0605   -0.7922 H   0  0  0  0  0  0  0  0  0  0  0  0
    0.2659   -0.4209   -3.0657 H   0  0  0  0  0  0  0  0  0  0  0  0
  1  2  1  0  0  0  0 
  2  3  1  0  0  0  0 
  3  4  1  0  0  0  0 
  4  5  1  0  0  0  0 
  5  6  1  0  0  0  0 
  6  7  1  0  0  0  0 
  6  8  1  0  0  0  0 
  8  9  1  0  0  0  0 
  9 10  1  0  0  0  0 
 10 11  1  0  0  0  0 
 10 12  1  0  0  0  0 
 12 13  1  0  0  0  0 
 12 14  1  0  0  0  0 
 12 15  2  0  0  0  0 
 10 16  1  0  0  0  0 
 16 17  1  0  0  0  0 
 16 18  1  0  0  0  0 
 16 19  2  0  0  0  0 
  1 20  1  0  0  0  0 
  1 21  1  0  0  0  0 
  1 22  1  0  0  0  0 
  2 23  1  0  0  0  0 
  2 24  1  0  0  0  0 
  3 25  1  0  0  0  0 
  3 26  1  0  0  0  0 
  4 27  1  0  0  0  0 
  4 28  1  0  0  0  0 
  5 29  1  0  0  0  0 
  5 30  1  0  0  0  0 
  7 31  1  0  0  0  0 
  7 32  1  0  0  0  0 
  7 33  1  0  0  0  0 
  8 34  1  0  0  0  0 
  8 35  1  0  0  0  0 
  9 36  1  0  0  0  0 
  9 37  1  0  0  0  0 
 11 38  1  0  0  0  0 
 13 39  1  0  0  0  0 
 14 40  1  0  0  0  0 
 17 41  1  0  0  0  0 
 18 42  1  0  0  0  0 
M  END
> <cdk:Title>
ibandronic acid

> <Conformer>
1

> <SuperDrugID>
SD001247

$$$$
