ciclonium
  CDK     0628171802

 58 60  0  0  0  0  0  0  0  0999 V2000
   -0.4743   -1.2915    0.4962 C   0  0  2  0  0  0  0  0  0  0  0  0
   -0.6260   -2.5927   -0.1610 O   0  0  0  0  0  0  0  0  0  0  0  0
   -1.8453   -0.9410    1.2165 C   0  0  1  0  0  0  0  0  0  0  0  0
   -0.2130   -0.2489   -0.5837 C   0  0  0  0  0  0  0  0  0  0  0  0
    0.0361   -3.7993    0.2815 C   0  0  2  0  0  0  0  0  0  0  0  0
   -3.0963   -0.7234    0.2842 C   0  0  2  0  0  0  0  0  0  0  0  0
   -2.4483   -1.9627    2.2497 C   0  0  2  0  0  0  0  0  0  0  0  0
   -0.0790    1.1300   -0.2552 C   0  0  0  0  0  0  0  0  0  0  0  0
   -0.1191   -0.5828   -1.9654 C   0  0  0  0  0  0  0  0  0  0  0  0
   -0.4075   -5.0224   -0.5776 C   0  0  2  0  0  0  0  0  0  0  0  0
   -4.2614   -0.7012    1.2973 C   0  0  2  0  0  0  0  0  0  0  0  0
   -3.4400   -1.9378   -0.4344 C   0  0  0  0  0  0  0  0  0  0  0  0
   -3.9161   -2.1328    1.7468 C   0  0  1  0  0  0  0  0  0  0  0  0
    0.1330    2.1139   -1.2383 C   0  0  0  0  0  0  0  0  0  0  0  0
    0.0992    0.3983   -2.9531 C   0  0  0  0  0  0  0  0  0  0  0  0
   -0.5703   -6.3789    0.1118 N   0  0  1  0  0  0  0  0  0  0  0  0
   -3.9288   -2.7988    0.4582 C   0  0  0  0  0  0  0  0  0  0  0  0
    0.2208    1.7484   -2.5897 C   0  0  0  0  0  0  0  0  0  0  0  0
   -0.8619   -7.4472   -0.9432 C   0  0  2  0  0  0  0  0  0  0  0  0
    0.7260   -6.7536    0.8353 C   0  0  1  0  0  0  0  0  0  0  0  0
   -1.7170   -6.3045    1.1018 C   0  0  0  0  0  0  0  0  0  0  0  0
   -2.0628   -7.2568   -1.9106 C   0  0  0  0  0  0  0  0  0  0  0  0
    0.8000   -8.1022    1.6103 C   0  0  0  0  0  0  0  0  0  0  0  0
    0.7134   -1.2469    1.5264 C   0  0  0  0  0  0  0  0  0  0  0  0
   -1.6946   -0.0016    1.7587 H   0  0  0  0  0  0  0  0  0  0  0  0
   -0.1959   -3.9691    1.3257 H   0  0  0  0  0  0  0  0  0  0  0  0
    1.1181   -3.6811    0.1936 H   0  0  0  0  0  0  0  0  0  0  0  0
   -3.0524    0.1715   -0.3435 H   0  0  0  0  0  0  0  0  0  0  0  0
   -2.4443   -1.5399    3.2610 H   0  0  0  0  0  0  0  0  0  0  0  0
   -1.9343   -2.9227    2.2810 H   0  0  0  0  0  0  0  0  0  0  0  0
   -0.1401    1.4410    0.7161 H   0  0  0  0  0  0  0  0  0  0  0  0
   -0.2133   -1.5480   -2.2840 H   0  0  0  0  0  0  0  0  0  0  0  0
    0.3155   -5.1120   -1.3963 H   0  0  0  0  0  0  0  0  0  0  0  0
   -1.3560   -4.7425   -1.0474 H   0  0  0  0  0  0  0  0  0  0  0  0
   -5.2586   -0.5975    0.8446 H   0  0  0  0  0  0  0  0  0  0  0  0
   -4.1506    0.0514    2.0876 H   0  0  0  0  0  0  0  0  0  0  0  0
   -3.3220   -2.1011   -1.4068 H   0  0  0  0  0  0  0  0  0  0  0  0
   -4.6089   -2.5523    2.4817 H   0  0  0  0  0  0  0  0  0  0  0  0
    0.2214    3.0971   -0.9668 H   0  0  0  0  0  0  0  0  0  0  0  0
    0.1667    0.1298   -3.9378 H   0  0  0  0  0  0  0  0  0  0  0  0
   -4.2470   -3.7221    0.2755 H   0  0  0  0  0  0  0  0  0  0  0  0
    0.3667    2.4637   -3.3066 H   0  0  0  0  0  0  0  0  0  0  0  0
   -1.0418   -8.4072   -0.4534 H   0  0  0  0  0  0  0  0  0  0  0  0
    0.0188   -7.5888   -1.5796 H   0  0  0  0  0  0  0  0  0  0  0  0
    1.5548   -6.7629    0.1192 H   0  0  0  0  0  0  0  0  0  0  0  0
    0.9815   -5.9899    1.5749 H   0  0  0  0  0  0  0  0  0  0  0  0
   -2.0253   -7.2947    1.4433 H   0  0  0  0  0  0  0  0  0  0  0  0
   -1.4545   -5.7341    1.9956 H   0  0  0  0  0  0  0  0  0  0  0  0
   -2.5996   -5.8283    0.6682 H   0  0  0  0  0  0  0  0  0  0  0  0
   -2.2176   -8.1758   -2.4827 H   0  0  0  0  0  0  0  0  0  0  0  0
   -2.9824   -7.0399   -1.3678 H   0  0  0  0  0  0  0  0  0  0  0  0
   -1.8683   -6.4511   -2.6196 H   0  0  0  0  0  0  0  0  0  0  0  0
    1.7556   -8.1725    2.1361 H   0  0  0  0  0  0  0  0  0  0  0  0
    0.7340   -8.9526    0.9325 H   0  0  0  0  0  0  0  0  0  0  0  0
    0.0057   -8.1754    2.3518 H   0  0  0  0  0  0  0  0  0  0  0  0
    0.8004   -0.2756    2.0154 H   0  0  0  0  0  0  0  0  0  0  0  0
    1.6619   -1.4552    1.0241 H   0  0  0  0  0  0  0  0  0  0  0  0
    0.5724   -1.9853    2.3164 H   0  0  0  0  0  0  0  0  0  0  0  0
  1  2  1  0  0  0  0 
  1  3  1  0  0  0  0 
  1  4  1  0  0  0  0 
  2  5  1  0  0  0  0 
  3  6  1  0  0  0  0 
  3  7  1  0  0  0  0 
  4  8  2  0  0  0  0 
  4  9  1  0  0  0  0 
  5 10  1  0  0  0  0 
  6 11  1  0  0  0  0 
  6 12  1  0  0  0  0 
  7 13  1  0  0  0  0 
  8 14  1  0  0  0  0 
  9 15  2  0  0  0  0 
 10 16  1  0  0  0  0 
 11 13  1  0  0  0  0 
 12 17  2  0  0  0  0 
 13 17  1  0  0  0  0 
 14 18  2  0  0  0  0 
 15 18  1  0  0  0  0 
 16 19  1  0  0  0  0 
 16 20  1  0  0  0  0 
 16 21  1  0  0  0  0 
 19 22  1  0  0  0  0 
 20 23  1  0  0  0  0 
  1 24  1  0  0  0  0 
  3 25  1  0  0  0  0 
  5 26  1  0  0  0  0 
  5 27  1  0  0  0  0 
  6 28  1  0  0  0  0 
  7 29  1  0  0  0  0 
  7 30  1  0  0  0  0 
  8 31  1  0  0  0  0 
  9 32  1  0  0  0  0 
 10 33  1  0  0  0  0 
 10 34  1  0  0  0  0 
 11 35  1  0  0  0  0 
 11 36  1  0  0  0  0 
 12 37  1  0  0  0  0 
 13 38  1  0  0  0  0 
 14 39  1  0  0  0  0 
 15 40  1  0  0  0  0 
 17 41  1  0  0  0  0 
 18 42  1  0  0  0  0 
 19 43  1  0  0  0  0 
 19 44  1  0  0  0  0 
 20 45  1  0  0  0  0 
 20 46  1  0  0  0  0 
 21 47  1  0  0  0  0 
 21 48  1  0  0  0  0 
 21 49  1  0  0  0  0 
 22 50  1  0  0  0  0 
 22 51  1  0  0  0  0 
 22 52  1  0  0  0  0 
 23 53  1  0  0  0  0 
 23 54  1  0  0  0  0 
 23 55  1  0  0  0  0 
 24 56  1  0  0  0  0 
 24 57  1  0  0  0  0 
 24 58  1  0  0  0  0 
M  CHG  1  16   1
M  END
> <cdk:Title>
ciclonium

> <Conformer>
1

> <SuperDrugID>
SD000556

$$$$
