eugenol
  CDK     0628171802

 24 24  0  0  0  0  0  0  0  0999 V2000
    0.1976   -2.2201   -3.7066 O   0  0  0  0  0  0  0  0  0  0  0  0
   -0.7569   -1.3419   -4.3309 C   0  0  0  0  0  0  0  0  0  0  0  0
    1.3184   -2.4255   -4.4675 C   0  0  0  0  0  0  0  0  0  0  0  0
    2.3563   -1.4681   -4.4667 C   0  0  0  0  0  0  0  0  0  0  0  0
    1.4637   -3.6060   -5.2256 C   0  0  0  0  0  0  0  0  0  0  0  0
    3.5371   -1.6648   -5.2209 C   0  0  0  0  0  0  0  0  0  0  0  0
    0.5051   -4.5657   -5.2136 O   0  0  0  0  0  0  0  0  0  0  0  0
    2.6214   -3.8033   -5.9998 C   0  0  0  0  0  0  0  0  0  0  0  0
    4.6403   -0.6679   -5.1628 C   0  0  2  0  0  0  0  0  0  0  0  0
    3.6484   -2.8420   -5.9966 C   0  0  0  0  0  0  0  0  0  0  0  0
    4.2822    0.5849   -5.8100 C   0  0  0  0  0  0  0  0  0  0  0  0
    4.0801    1.7354   -5.1542 C   0  0  0  0  0  0  0  0  0  0  0  0
   -1.5690   -1.1682   -3.6247 H   0  0  0  0  0  0  0  0  0  0  0  0
   -0.3179   -0.3714   -4.5806 H   0  0  0  0  0  0  0  0  0  0  0  0
   -1.1766   -1.7951   -5.2329 H   0  0  0  0  0  0  0  0  0  0  0  0
    2.2439   -0.6198   -3.9065 H   0  0  0  0  0  0  0  0  0  0  0  0
    0.4226   -4.8433   -4.2749 H   0  0  0  0  0  0  0  0  0  0  0  0
    2.7255   -4.6532   -6.5597 H   0  0  0  0  0  0  0  0  0  0  0  0
    5.5358   -1.0513   -5.6573 H   0  0  0  0  0  0  0  0  0  0  0  0
    4.9107   -0.5207   -4.1131 H   0  0  0  0  0  0  0  0  0  0  0  0
    4.4820   -3.0113   -6.5638 H   0  0  0  0  0  0  0  0  0  0  0  0
    4.1898    0.5878   -6.8024 H   0  0  0  0  0  0  0  0  0  0  0  0
    4.1559    1.7875   -4.1650 H   0  0  0  0  0  0  0  0  0  0  0  0
    3.8461    2.5592   -5.6558 H   0  0  0  0  0  0  0  0  0  0  0  0
  1  2  1  0  0  0  0 
  1  3  1  0  0  0  0 
  3  4  2  0  0  0  0 
  3  5  1  0  0  0  0 
  4  6  1  0  0  0  0 
  5  7  1  0  0  0  0 
  5  8  2  0  0  0  0 
  6  9  1  0  0  0  0 
  6 10  2  0  0  0  0 
  8 10  1  0  0  0  0 
  9 11  1  0  0  0  0 
 11 12  2  0  0  0  0 
  2 13  1  0  0  0  0 
  2 14  1  0  0  0  0 
  2 15  1  0  0  0  0 
  4 16  1  0  0  0  0 
  7 17  1  0  0  0  0 
  8 18  1  0  0  0  0 
  9 19  1  0  0  0  0 
  9 20  1  0  0  0  0 
 10 21  1  0  0  0  0 
 11 22  1  0  0  0  0 
 12 23  1  0  0  0  0 
 12 24  1  0  0  0  0 
M  END
> <cdk:Title>
eugenol

> <Conformer>
1

> <SuperDrugID>
SD003682

$$$$
