benzalamide
  CDK     0628171801

 26 26  0  0  0  0  0  0  0  0999 V2000
   -0.5197    3.9760   -1.2127 C   0  0  0  0  0  0  0  0  0  0  0  0
    0.1387    4.8100   -0.3712 C   0  0  0  0  0  0  0  0  0  0  0  0
   -0.0253    2.8414   -1.8505 C   0  0  0  0  0  0  0  0  0  0  0  0
   -0.5734    5.9590    0.2138 C   0  0  1  0  0  0  0  0  0  0  0  0
    1.5444    4.6149    0.0026 C   0  0  0  0  0  0  0  0  0  0  0  0
    1.1573    2.8487   -2.6312 C   0  0  0  0  0  0  0  0  0  0  0  0
   -0.7463    1.6273   -1.7360 C   0  0  0  0  0  0  0  0  0  0  0  0
   -0.1315    7.2330   -0.3857 C   0  0  0  0  0  0  0  0  0  0  0  0
    1.6402    1.6620   -3.2171 C   0  0  0  0  0  0  0  0  0  0  0  0
   -0.2605    0.4406   -2.3159 C   0  0  0  0  0  0  0  0  0  0  0  0
    0.4435    8.1921    0.3591 N   0  0  0  0  0  0  0  0  0  0  0  0
   -0.2954    7.4448   -1.6091 O   0  0  0  0  0  0  0  0  0  0  0  0
    0.9420    0.4547   -3.0426 C   0  0  0  0  0  0  0  0  0  0  0  0
   -1.4833    4.1554   -1.3838 H   0  0  0  0  0  0  0  0  0  0  0  0
   -1.6582    5.8932    0.0806 H   0  0  0  0  0  0  0  0  0  0  0  0
   -0.4063    5.9726    1.2957 H   0  0  0  0  0  0  0  0  0  0  0  0
    1.8175    5.1972    0.8857 H   0  0  0  0  0  0  0  0  0  0  0  0
    1.7393    3.5671    0.2389 H   0  0  0  0  0  0  0  0  0  0  0  0
    2.2014    4.9267   -0.8098 H   0  0  0  0  0  0  0  0  0  0  0  0
    1.6736    3.7170   -2.7897 H   0  0  0  0  0  0  0  0  0  0  0  0
   -1.6300    1.5907   -1.2191 H   0  0  0  0  0  0  0  0  0  0  0  0
    2.5010    1.6755   -3.7702 H   0  0  0  0  0  0  0  0  0  0  0  0
   -0.7798   -0.4336   -2.2037 H   0  0  0  0  0  0  0  0  0  0  0  0
    0.7159    9.0255   -0.0544 H   0  0  0  0  0  0  0  0  0  0  0  0
    0.5825    8.0530    1.3099 H   0  0  0  0  0  0  0  0  0  0  0  0
    1.3028   -0.4090   -3.4523 H   0  0  0  0  0  0  0  0  0  0  0  0
  1  2  2  0  0  0  0 
  1  3  1  0  0  0  0 
  2  4  1  0  0  0  0 
  2  5  1  0  0  0  0 
  3  6  2  0  0  0  0 
  3  7  1  0  0  0  0 
  4  8  1  0  0  0  0 
  6  9  1  0  0  0  0 
  7 10  2  0  0  0  0 
  8 11  1  0  0  0  0 
  8 12  2  0  0  0  0 
  9 13  2  0  0  0  0 
 10 13  1  0  0  0  0 
  1 14  1  0  0  0  0 
  4 15  1  0  0  0  0 
  4 16  1  0  0  0  0 
  5 17  1  0  0  0  0 
  5 18  1  0  0  0  0 
  5 19  1  0  0  0  0 
  6 20  1  0  0  0  0 
  7 21  1  0  0  0  0 
  9 22  1  0  0  0  0 
 10 23  1  0  0  0  0 
 11 24  1  0  0  0  0 
 11 25  1  0  0  0  0 
 13 26  1  0  0  0  0 
M  END
> <cdk:Title>
benzalamide

> <Conformer>
1

> <SuperDrugID>
SD003150

$$$$
