cefprozil
  CDK     0628171802

 46 48  0  0  0  0  0  0  0  0999 V2000
   -0.5043   -2.6020    0.5888 C   0  0  0  0  0  0  0  0  0  0  0  0
    0.2926   -2.1730   -0.4183 O   0  0  0  0  0  0  0  0  0  0  0  0
   -0.1907   -2.2256    1.7420 O   0  0  0  0  0  0  0  0  0  0  0  0
   -1.6357   -3.4015    0.3712 C   0  0  0  0  0  0  0  0  0  0  0  0
   -2.7250   -3.1399    1.1320 N   0  0  0  0  0  0  0  0  0  0  0  0
   -1.7080   -4.3732   -0.5875 C   0  0  0  0  0  0  0  0  0  0  0  0
   -3.8971   -3.8993    1.4030 C   0  0  1  0  0  0  0  0  0  0  0  0
   -3.1980   -2.0397    1.7377 C   0  0  0  0  0  0  0  0  0  0  0  0
   -0.6572   -4.6282   -1.4202 C   0  0  0  0  0  0  0  0  0  0  0  0
   -2.8863   -5.2434   -0.7938 C   0  0  2  0  0  0  0  0  0  0  0  0
   -4.5162   -2.6050    2.0130 C   0  0  1  0  0  0  0  0  0  0  0  0
   -4.4675   -4.5426   -0.2001 S   0  0  0  0  0  0  0  0  0  0  0  0
   -2.7357   -0.8903    1.9188 O   0  0  0  0  0  0  0  0  0  0  0  0
   -0.6295   -4.1710   -2.6845 C   0  0  0  0  0  0  0  0  0  0  0  0
   -5.4963   -1.9421    1.2119 N   0  0  0  0  0  0  0  0  0  0  0  0
    0.4941   -4.3797   -3.5674 C   0  0  0  0  0  0  0  0  0  0  0  0
   -6.4483   -1.0797    1.6600 C   0  0  0  0  0  0  0  0  0  0  0  0
   -7.3236   -0.3990    0.6763 C   0  0  2  0  0  0  0  0  0  0  0  0
   -6.5666   -0.8314    2.8838 O   0  0  0  0  0  0  0  0  0  0  0  0
   -7.1133    1.0554    0.7297 N   0  0  1  0  0  0  0  0  0  0  0  0
   -8.7682   -0.7351    0.8436 C   0  0  0  0  0  0  0  0  0  0  0  0
   -9.4415   -1.5131   -0.1305 C   0  0  0  0  0  0  0  0  0  0  0  0
   -9.5072   -0.2725    1.9608 C   0  0  0  0  0  0  0  0  0  0  0  0
  -10.8094   -1.8123    0.0032 C   0  0  0  0  0  0  0  0  0  0  0  0
  -10.8765   -0.5681    2.0924 C   0  0  0  0  0  0  0  0  0  0  0  0
  -11.5324   -1.3343    1.1105 C   0  0  0  0  0  0  0  0  0  0  0  0
  -12.8534   -1.6202    1.2173 O   0  0  0  0  0  0  0  0  0  0  0  0
   -3.7064   -4.6961    2.1301 H   0  0  0  0  0  0  0  0  0  0  0  0
    1.0560   -1.5943   -0.2180 H   0  0  0  0  0  0  0  0  0  0  0  0
    0.1173   -5.1375   -1.0576 H   0  0  0  0  0  0  0  0  0  0  0  0
   -2.7167   -6.1842   -0.2648 H   0  0  0  0  0  0  0  0  0  0  0  0
   -3.0460   -5.4813   -1.8487 H   0  0  0  0  0  0  0  0  0  0  0  0
   -4.7336   -2.6799    3.0835 H   0  0  0  0  0  0  0  0  0  0  0  0
   -1.4116   -3.6665   -3.0446 H   0  0  0  0  0  0  0  0  0  0  0  0
   -5.4521   -2.0945    0.2542 H   0  0  0  0  0  0  0  0  0  0  0  0
    0.3796   -3.7721   -4.4689 H   0  0  0  0  0  0  0  0  0  0  0  0
    0.5511   -5.4295   -3.8560 H   0  0  0  0  0  0  0  0  0  0  0  0
    1.4261   -4.0944   -3.0748 H   0  0  0  0  0  0  0  0  0  0  0  0
   -6.9985   -0.6954   -0.3259 H   0  0  0  0  0  0  0  0  0  0  0  0
   -7.7108    1.4701    0.0098 H   0  0  0  0  0  0  0  0  0  0  0  0
   -7.4577    1.3865    1.6320 H   0  0  0  0  0  0  0  0  0  0  0  0
   -8.9412   -1.8672   -0.9506 H   0  0  0  0  0  0  0  0  0  0  0  0
   -9.0560    0.2930    2.6850 H   0  0  0  0  0  0  0  0  0  0  0  0
  -11.2755   -2.3794   -0.7092 H   0  0  0  0  0  0  0  0  0  0  0  0
  -11.3937   -0.2211    2.9033 H   0  0  0  0  0  0  0  0  0  0  0  0
  -13.0987   -1.4032    2.1423 H   0  0  0  0  0  0  0  0  0  0  0  0
  1  2  1  0  0  0  0 
  1  3  2  0  0  0  0 
  1  4  1  0  0  0  0 
  4  5  1  0  0  0  0 
  4  6  2  0  0  0  0 
  7  5  1  0  0  0  0 
  5  8  1  0  0  0  0 
  6  9  1  0  0  0  0 
  6 10  1  0  0  0  0 
 11  7  1  0  0  0  0 
  7 12  1  0  0  0  0 
  7 28  1  0  0  0  0 
 11  8  1  0  0  0  0 
  8 13  2  0  0  0  0 
  9 14  2  0  0  0  0 
 10 12  1  0  0  0  0 
 11 15  1  0  0  0  0 
 14 16  1  0  0  0  0 
 15 17  1  0  0  0  0 
 18 17  1  0  0  0  0 
 17 19  2  0  0  0  0 
 18 20  1  0  0  0  0 
 18 21  1  0  0  0  0 
 21 22  2  0  0  0  0 
 21 23  1  0  0  0  0 
 22 24  1  0  0  0  0 
 23 25  2  0  0  0  0 
 24 26  2  0  0  0  0 
 25 26  1  0  0  0  0 
 26 27  1  0  0  0  0 
  2 29  1  0  0  0  0 
  9 30  1  0  0  0  0 
 10 31  1  0  0  0  0 
 10 32  1  0  0  0  0 
 11 33  1  0  0  0  0 
 14 34  1  0  0  0  0 
 15 35  1  0  0  0  0 
 16 36  1  0  0  0  0 
 16 37  1  0  0  0  0 
 16 38  1  0  0  0  0 
 18 39  1  0  0  0  0 
 20 40  1  0  0  0  0 
 20 41  1  0  0  0  0 
 22 42  1  0  0  0  0 
 23 43  1  0  0  0  0 
 24 44  1  0  0  0  0 
 25 45  1  0  0  0  0 
 27 46  1  0  0  0  0 
M  END
> <cdk:Title>
cefprozil

> <Conformer>
1

> <SuperDrugID>
SD000483

$$$$
