DL-Alanine
  CDK     0628171801

 13 12  0  0  0  0  0  0  0  0999 V2000
    2.4521   -1.3367   -0.4257 C   0  0  0  0  0  0  0  0  0  0  0  0
    1.9236   -0.0522    0.2574 C   0  0  2  0  0  0  0  0  0  0  0  0
    0.7295    0.4760   -0.4313 C   0  0  0  0  0  0  0  0  0  0  0  0
    2.9635    0.9829    0.2804 N   0  0  2  0  0  0  0  0  0  0  0  0
    0.7980    0.8720   -1.7240 O   0  0  0  0  0  0  0  0  0  0  0  0
   -0.3709    0.5599    0.1609 O   0  0  0  0  0  0  0  0  0  0  0  0
    2.7514   -1.1340   -1.4568 H   0  0  0  0  0  0  0  0  0  0  0  0
    3.3178   -1.7205    0.1167 H   0  0  0  0  0  0  0  0  0  0  0  0
    1.6811   -2.1103   -0.4306 H   0  0  0  0  0  0  0  0  0  0  0  0
    1.6757   -0.2891    1.2947 H   0  0  0  0  0  0  0  0  0  0  0  0
    3.7439    0.6053    0.8216 H   0  0  0  0  0  0  0  0  0  0  0  0
    2.5880    1.7706    0.8136 H   0  0  0  0  0  0  0  0  0  0  0  0
   -0.0001    1.1996   -2.1892 H   0  0  0  0  0  0  0  0  0  0  0  0
  1  2  1  0  0  0  0 
  2  3  1  0  0  0  0 
  2  4  1  0  0  0  0 
  3  5  1  0  0  0  0 
  3  6  2  0  0  0  0 
  1  7  1  0  0  0  0 
  1  8  1  0  0  0  0 
  1  9  1  0  0  0  0 
  2 10  1  0  0  0  0 
  4 11  1  0  0  0  0 
  4 12  1  0  0  0  0 
  5 13  1  0  0  0  0 
M  END
> <cdk:Title>
DL-Alanine

> <Conformer>
1

> <SuperDrugID>
SD003489

$$$$
