nandrolone decanoate
  CDK     0628171801

 75 78  0  0  0  0  0  0  0  0999 V2000
   -4.1863    1.8624   -5.6107 C   0  0  0  0  0  0  0  0  0  0  0  0
   -2.6441    1.9276   -5.9223 C   0  0  2  0  0  0  0  0  0  0  0  0
   -1.7801    2.7829   -4.9393 C   0  0  2  0  0  0  0  0  0  0  0  0
   -2.4114    2.7453   -7.2383 C   0  0  1  0  0  0  0  0  0  0  0  0
   -2.0371    0.4810   -5.8974 C   0  0  2  0  0  0  0  0  0  0  0  0
   -1.8347    2.2737   -3.4664 C   0  0  1  0  0  0  0  0  0  0  0  0
   -2.1612    4.2417   -5.2516 C   0  0  1  0  0  0  0  0  0  0  0  0
   -3.4213    2.6321   -8.2586 O   0  0  0  0  0  0  0  0  0  0  0  0
   -2.3495    4.2366   -6.7872 C   0  0  1  0  0  0  0  0  0  0  0  0
   -1.9551   -0.1209   -4.4534 C   0  0  2  0  0  0  0  0  0  0  0  0
   -1.2619    0.8106   -3.3933 C   0  0  2  0  0  0  0  0  0  0  0  0
   -1.0176    3.1748   -2.5026 C   0  0  1  0  0  0  0  0  0  0  0  0
   -3.3670    1.9775   -9.4562 C   0  0  0  0  0  0  0  0  0  0  0  0
   -1.2881    0.2508   -1.9126 C   0  0  2  0  0  0  0  0  0  0  0  0
   -1.1293    2.6533   -1.0529 C   0  0  2  0  0  0  0  0  0  0  0  0
   -4.3172    2.3835  -10.5172 C   0  0  1  0  0  0  0  0  0  0  0  0
   -2.5148    1.0822   -9.6646 O   0  0  0  0  0  0  0  0  0  0  0  0
   -0.7988    1.2302   -0.9020 C   0  0  0  0  0  0  0  0  0  0  0  0
   -0.5135   -1.1122   -1.8126 C   0  0  1  0  0  0  0  0  0  0  0  0
   -5.8181    2.2930  -10.1078 C   0  0  1  0  0  0  0  0  0  0  0  0
   -0.1323    0.8381    0.2098 C   0  0  0  0  0  0  0  0  0  0  0  0
   -0.3161   -1.5928   -0.3529 C   0  0  1  0  0  0  0  0  0  0  0  0
   -6.7135    3.3123  -10.8695 C   0  0  1  0  0  0  0  0  0  0  0  0
    0.1235   -0.4862    0.5210 C   0  0  0  0  0  0  0  0  0  0  0  0
   -8.2190    3.1642  -10.5126 C   0  0  2  0  0  0  0  0  0  0  0  0
    0.7006   -0.7655    1.5991 O   0  0  0  0  0  0  0  0  0  0  0  0
   -9.0908    4.3148  -11.0976 C   0  0  2  0  0  0  0  0  0  0  0  0
  -10.6086    3.9814  -11.0470 C   0  0  2  0  0  0  0  0  0  0  0  0
  -11.5208    5.1986  -11.3554 C   0  0  2  0  0  0  0  0  0  0  0  0
  -13.0043    4.7850  -11.5601 C   0  0  1  0  0  0  0  0  0  0  0  0
  -13.9675    5.9900  -11.6356 C   0  0  0  0  0  0  0  0  0  0  0  0
   -4.3925    1.4026   -4.6450 H   0  0  0  0  0  0  0  0  0  0  0  0
   -4.6425    2.8533   -5.6177 H   0  0  0  0  0  0  0  0  0  0  0  0
   -4.6993    1.2636   -6.3671 H   0  0  0  0  0  0  0  0  0  0  0  0
   -0.7240    2.7029   -5.2371 H   0  0  0  0  0  0  0  0  0  0  0  0
   -1.4370    2.4780   -7.6632 H   0  0  0  0  0  0  0  0  0  0  0  0
   -1.0244    0.4978   -6.3124 H   0  0  0  0  0  0  0  0  0  0  0  0
   -2.6256   -0.1859   -6.5346 H   0  0  0  0  0  0  0  0  0  0  0  0
   -2.8738    2.2843   -3.1242 H   0  0  0  0  0  0  0  0  0  0  0  0
   -3.0880    4.5186   -4.7408 H   0  0  0  0  0  0  0  0  0  0  0  0
   -1.3689    4.9341   -4.9492 H   0  0  0  0  0  0  0  0  0  0  0  0
   -1.5106    4.7447   -7.2730 H   0  0  0  0  0  0  0  0  0  0  0  0
   -3.2684    4.7733   -7.0467 H   0  0  0  0  0  0  0  0  0  0  0  0
   -1.3954   -1.0558   -4.5312 H   0  0  0  0  0  0  0  0  0  0  0  0
   -2.9588   -0.3785   -4.1090 H   0  0  0  0  0  0  0  0  0  0  0  0
   -0.2075    0.8659   -3.6922 H   0  0  0  0  0  0  0  0  0  0  0  0
    0.0343    3.2014   -2.8070 H   0  0  0  0  0  0  0  0  0  0  0  0
   -1.3983    4.1993   -2.5296 H   0  0  0  0  0  0  0  0  0  0  0  0
   -2.3340    0.0516   -1.6537 H   0  0  0  0  0  0  0  0  0  0  0  0
   -2.1598    2.7865   -0.7128 H   0  0  0  0  0  0  0  0  0  0  0  0
   -0.4939    3.2958   -0.4348 H   0  0  0  0  0  0  0  0  0  0  0  0
   -4.0719    3.4186  -10.7665 H   0  0  0  0  0  0  0  0  0  0  0  0
   -4.1539    1.7872  -11.4208 H   0  0  0  0  0  0  0  0  0  0  0  0
   -1.0383   -1.8980   -2.3610 H   0  0  0  0  0  0  0  0  0  0  0  0
    0.4783   -0.9942   -2.2590 H   0  0  0  0  0  0  0  0  0  0  0  0
   -6.1729    1.2755  -10.2978 H   0  0  0  0  0  0  0  0  0  0  0  0
   -5.9290    2.4869   -9.0371 H   0  0  0  0  0  0  0  0  0  0  0  0
    0.1831    1.5199    0.8645 H   0  0  0  0  0  0  0  0  0  0  0  0
   -1.2528   -1.9979    0.0402 H   0  0  0  0  0  0  0  0  0  0  0  0
    0.4327   -2.3920   -0.3397 H   0  0  0  0  0  0  0  0  0  0  0  0
   -6.3799    4.3239  -10.6227 H   0  0  0  0  0  0  0  0  0  0  0  0
   -6.5894    3.1682  -11.9451 H   0  0  0  0  0  0  0  0  0  0  0  0
   -8.3130    3.2408   -9.3811 H   0  0  0  0  0  0  0  0  0  0  0  0
   -8.5648    2.1978  -10.9975 H   0  0  0  0  0  0  0  0  0  0  0  0
   -8.8106    4.5046  -12.1387 H   0  0  0  0  0  0  0  0  0  0  0  0
   -8.8962    5.2297  -10.5277 H   0  0  0  0  0  0  0  0  0  0  0  0
  -10.8668    3.6026  -10.0544 H   0  0  0  0  0  0  0  0  0  0  0  0
  -10.8072    3.1877  -11.7736 H   0  0  0  0  0  0  0  0  0  0  0  0
  -11.1675    5.7001  -12.2603 H   0  0  0  0  0  0  0  0  0  0  0  0
  -11.4518    5.9073  -10.5253 H   0  0  0  0  0  0  0  0  0  0  0  0
  -13.0909    4.2109  -12.4874 H   0  0  0  0  0  0  0  0  0  0  0  0
  -13.3263    4.1427  -10.7346 H   0  0  0  0  0  0  0  0  0  0  0  0
  -13.6707    6.6727  -12.4347 H   0  0  0  0  0  0  0  0  0  0  0  0
  -13.9650    6.5293  -10.6863 H   0  0  0  0  0  0  0  0  0  0  0  0
  -14.9833    5.6410  -11.8345 H   0  0  0  0  0  0  0  0  0  0  0  0
  2  1  1  0  0  0  0 
  2  3  1  0  0  0  0 
  2  4  1  0  0  0  0 
  2  5  1  0  0  0  0 
  3  6  1  0  0  0  0 
  3  7  1  0  0  0  0 
  4  8  1  0  0  0  0 
  4  9  1  0  0  0  0 
  5 10  1  0  0  0  0 
  6 11  1  0  0  0  0 
  6 12  1  0  0  0  0 
  7  9  1  0  0  0  0 
  8 13  1  0  0  0  0 
 11 10  1  0  0  0  0 
 11 14  1  0  0  0  0 
 12 15  1  0  0  0  0 
 13 16  1  0  0  0  0 
 13 17  2  0  0  0  0 
 14 18  1  0  0  0  0 
 14 19  1  0  0  0  0 
 15 18  1  0  0  0  0 
 16 20  1  0  0  0  0 
 18 21  2  0  0  0  0 
 19 22  1  0  0  0  0 
 20 23  1  0  0  0  0 
 21 24  1  0  0  0  0 
 22 24  1  0  0  0  0 
 23 25  1  0  0  0  0 
 24 26  2  0  0  0  0 
 25 27  1  0  0  0  0 
 27 28  1  0  0  0  0 
 28 29  1  0  0  0  0 
 29 30  1  0  0  0  0 
 30 31  1  0  0  0  0 
 32  1  1  0  0  0  0 
 33  1  1  0  0  0  0 
 34  1  1  0  0  0  0 
  3 35  1  0  0  0  0 
  4 36  1  0  0  0  0 
 37  5  1  0  0  0  0 
 38  5  1  0  0  0  0 
  6 39  1  0  0  0  0 
 40  7  1  0  0  0  0 
 41  7  1  0  0  0  0 
 42  9  1  0  0  0  0 
 43  9  1  0  0  0  0 
 44 10  1  0  0  0  0 
 45 10  1  0  0  0  0 
 11 46  1  0  0  0  0 
 47 12  1  0  0  0  0 
 48 12  1  0  0  0  0 
 14 49  1  0  0  0  0 
 50 15  1  0  0  0  0 
 51 15  1  0  0  0  0 
 52 16  1  0  0  0  0 
 53 16  1  0  0  0  0 
 54 19  1  0  0  0  0 
 55 19  1  0  0  0  0 
 56 20  1  0  0  0  0 
 57 20  1  0  0  0  0 
 58 21  1  0  0  0  0 
 59 22  1  0  0  0  0 
 60 22  1  0  0  0  0 
 61 23  1  0  0  0  0 
 62 23  1  0  0  0  0 
 63 25  1  0  0  0  0 
 64 25  1  0  0  0  0 
 65 27  1  0  0  0  0 
 66 27  1  0  0  0  0 
 67 28  1  0  0  0  0 
 68 28  1  0  0  0  0 
 69 29  1  0  0  0  0 
 70 29  1  0  0  0  0 
 71 30  1  0  0  0  0 
 72 30  1  0  0  0  0 
 73 31  1  0  0  0  0 
 74 31  1  0  0  0  0 
 75 31  1  0  0  0  0 
M  END
> <cdk:Title>
nandrolone decanoate

> <Conformer>
1

> <SuperDrugID>
SD001677

$$$$
