acetohexamide
  CDK     0628171802

 42 43  0  0  0  0  0  0  0  0999 V2000
   -0.9617   -5.4628    1.0236 S   0  0  2  0  0  0  0  0  0  0  0  0
   -0.5828   -7.1112    0.7357 N   0  0  0  0  0  0  0  0  0  0  0  0
   -1.9676   -4.9702   -0.1268 O   0  0  0  0  0  0  0  0  0  0  0  0
    0.3866   -4.6000    0.9035 O   0  0  0  0  0  0  0  0  0  0  0  0
   -1.7190   -5.1888    2.5995 C   0  0  0  0  0  0  0  0  0  0  0  0
    0.0788   -7.5281   -0.3713 C   0  0  0  0  0  0  0  0  0  0  0  0
   -1.6790   -3.8965    3.1510 C   0  0  0  0  0  0  0  0  0  0  0  0
   -2.3897   -6.2136    3.2926 C   0  0  0  0  0  0  0  0  0  0  0  0
    0.2459   -8.8642   -0.5549 N   0  0  0  0  0  0  0  0  0  0  0  0
    0.5021   -6.7038   -1.2179 O   0  0  0  0  0  0  0  0  0  0  0  0
   -2.3092   -3.6275    4.3771 C   0  0  0  0  0  0  0  0  0  0  0  0
   -3.0228   -5.9399    4.5216 C   0  0  0  0  0  0  0  0  0  0  0  0
    0.7711   -9.4741   -1.7432 C   0  0  2  0  0  0  0  0  0  0  0  0
   -3.0048   -4.6377    5.0902 C   0  0  0  0  0  0  0  0  0  0  0  0
   -0.2441   -9.3492   -2.9209 C   0  0  1  0  0  0  0  0  0  0  0  0
    1.0922  -10.9698   -1.4632 C   0  0  2  0  0  0  0  0  0  0  0  0
   -3.6582   -4.3257    6.3278 C   0  0  0  0  0  0  0  0  0  0  0  0
    0.2486  -10.0666   -4.2038 C   0  0  2  0  0  0  0  0  0  0  0  0
    1.5980  -11.7019   -2.7366 C   0  0  2  0  0  0  0  0  0  0  0  0
   -4.3946   -5.3161    7.1455 C   0  0  0  0  0  0  0  0  0  0  0  0
   -3.6322   -3.1528    6.7756 O   0  0  0  0  0  0  0  0  0  0  0  0
    0.6183  -11.5471   -3.9303 C   0  0  2  0  0  0  0  0  0  0  0  0
   -0.8862   -7.7732    1.3764 H   0  0  0  0  0  0  0  0  0  0  0  0
   -1.1953   -3.1422    2.6587 H   0  0  0  0  0  0  0  0  0  0  0  0
   -2.4270   -7.1593    2.9057 H   0  0  0  0  0  0  0  0  0  0  0  0
   -0.0491   -9.4524    0.1584 H   0  0  0  0  0  0  0  0  0  0  0  0
   -2.2525   -2.6729    4.7396 H   0  0  0  0  0  0  0  0  0  0  0  0
   -3.5007   -6.7130    4.9904 H   0  0  0  0  0  0  0  0  0  0  0  0
    1.7061   -8.9722   -2.0161 H   0  0  0  0  0  0  0  0  0  0  0  0
   -1.2055   -9.7762   -2.6187 H   0  0  0  0  0  0  0  0  0  0  0  0
   -0.4097   -8.2964   -3.1608 H   0  0  0  0  0  0  0  0  0  0  0  0
    0.1976  -11.4762   -1.0877 H   0  0  0  0  0  0  0  0  0  0  0  0
    1.8622  -11.0390   -0.6900 H   0  0  0  0  0  0  0  0  0  0  0  0
    1.1207   -9.5401   -4.6010 H   0  0  0  0  0  0  0  0  0  0  0  0
   -0.5375  -10.0245   -4.9643 H   0  0  0  0  0  0  0  0  0  0  0  0
    1.7274  -12.7638   -2.5128 H   0  0  0  0  0  0  0  0  0  0  0  0
    2.5766  -11.3039   -3.0198 H   0  0  0  0  0  0  0  0  0  0  0  0
   -4.7984   -4.8668    8.0560 H   0  0  0  0  0  0  0  0  0  0  0  0
   -5.2264   -5.7219    6.5686 H   0  0  0  0  0  0  0  0  0  0  0  0
   -3.7257   -6.1269    7.4363 H   0  0  0  0  0  0  0  0  0  0  0  0
    1.0761  -11.9690   -4.8286 H   0  0  0  0  0  0  0  0  0  0  0  0
   -0.2945  -12.1121   -3.7236 H   0  0  0  0  0  0  0  0  0  0  0  0
  1  2  1  0  0  0  0 
  1  3  2  0  0  0  0 
  1  4  2  0  0  0  0 
  1  5  1  0  0  0  0 
  2  6  1  0  0  0  0 
  5  7  2  0  0  0  0 
  5  8  1  0  0  0  0 
  6  9  1  0  0  0  0 
  6 10  2  0  0  0  0 
  7 11  1  0  0  0  0 
  8 12  2  0  0  0  0 
  9 13  1  0  0  0  0 
 11 14  2  0  0  0  0 
 12 14  1  0  0  0  0 
 13 15  1  0  0  0  0 
 13 16  1  0  0  0  0 
 14 17  1  0  0  0  0 
 15 18  1  0  0  0  0 
 16 19  1  0  0  0  0 
 17 20  1  0  0  0  0 
 17 21  2  0  0  0  0 
 18 22  1  0  0  0  0 
 19 22  1  0  0  0  0 
 23  2  1  0  0  0  0 
 24  7  1  0  0  0  0 
 25  8  1  0  0  0  0 
 26  9  1  0  0  0  0 
 27 11  1  0  0  0  0 
 28 12  1  0  0  0  0 
 29 13  1  0  0  0  0 
 30 15  1  0  0  0  0 
 31 15  1  0  0  0  0 
 32 16  1  0  0  0  0 
 33 16  1  0  0  0  0 
 34 18  1  0  0  0  0 
 35 18  1  0  0  0  0 
 36 19  1  0  0  0  0 
 37 19  1  0  0  0  0 
 38 20  1  0  0  0  0 
 39 20  1  0  0  0  0 
 40 20  1  0  0  0  0 
 41 22  1  0  0  0  0 
 42 22  1  0  0  0  0 
M  END
> <cdk:Title>
acetohexamide

> <Conformer>
1

> <SuperDrugID>
SD000034

$$$$
