ethyl chloride
  CDK     0628171801

  8  7  0  0  0  0  0  0  0  0999 V2000
   -0.0069   -0.0002    0.0000 C   0  0  0  0  0  0  0  0  0  0  0  0
    1.5343    0.0067    0.0000 C   0  0  1  0  0  0  0  0  0  0  0  0
    2.1524    1.6560    0.0000 Cl  0  0  0  0  0  0  0  0  0  0  0  0
   -0.3888    0.5055    0.8889 H   0  0  0  0  0  0  0  0  0  0  0  0
   -0.3760   -1.0263    0.0000 H   0  0  0  0  0  0  0  0  0  0  0  0
   -0.3888    0.5055   -0.8889 H   0  0  0  0  0  0  0  0  0  0  0  0
    1.9081   -0.5091    0.8857 H   0  0  0  0  0  0  0  0  0  0  0  0
    1.9081   -0.5091   -0.8857 H   0  0  0  0  0  0  0  0  0  0  0  0
  1  2  1  0  0  0  0 
  2  3  1  0  0  0  0 
  1  4  1  0  0  0  0 
  1  5  1  0  0  0  0 
  1  6  1  0  0  0  0 
  2  7  1  0  0  0  0 
  2  8  1  0  0  0  0 
M  END
> <cdk:Title>
ethyl chloride

> <Conformer>
1

> <SuperDrugID>
SD002766

$$$$
