diphenoxylate
  CDK     0628171802

 66 69  0  0  0  0  0  0  0  0999 V2000
   -0.7255    4.1973    6.5173 C   0  0  2  0  0  0  0  0  0  0  0  0
   -1.5036    3.9363    5.1663 C   0  0  1  0  0  0  0  0  0  0  0  0
   -0.1260    2.9940    6.8697 C   0  0  0  0  0  0  0  0  0  0  0  0
   -1.6024    4.5117    7.7239 C   0  0  0  0  0  0  0  0  0  0  0  0
    0.2581    5.3361    6.2768 C   0  0  0  0  0  0  0  0  0  0  0  0
   -0.6686    3.5524    3.9045 C   0  0  1  0  0  0  0  0  0  0  0  0
   -1.0025    4.9443    8.9410 C   0  0  0  0  0  0  0  0  0  0  0  0
   -3.0231    4.4041    7.7235 C   0  0  0  0  0  0  0  0  0  0  0  0
   -0.2093    6.6788    6.2352 C   0  0  0  0  0  0  0  0  0  0  0  0
    1.6513    5.1363    6.0655 C   0  0  0  0  0  0  0  0  0  0  0  0
   -1.4470    3.6005    2.6189 N   0  0  2  0  0  0  0  0  0  0  0  0
   -1.7673    5.2686   10.0755 C   0  0  0  0  0  0  0  0  0  0  0  0
   -3.7918    4.7044    8.8642 C   0  0  0  0  0  0  0  0  0  0  0  0
    0.6673    7.7632    6.0377 C   0  0  0  0  0  0  0  0  0  0  0  0
    2.5289    6.2156    5.8469 C   0  0  0  0  0  0  0  0  0  0  0  0
   -2.5457    2.5861    2.5212 C   0  0  2  0  0  0  0  0  0  0  0  0
   -0.5361    3.5737    1.4301 C   0  0  1  0  0  0  0  0  0  0  0  0
   -3.1642    5.1394   10.0410 C   0  0  0  0  0  0  0  0  0  0  0  0
    2.0361    7.5309    5.8271 C   0  0  0  0  0  0  0  0  0  0  0  0
   -3.3360    2.7558    1.1934 C   0  0  2  0  0  0  0  0  0  0  0  0
   -1.2900    3.6646    0.0736 C   0  0  1  0  0  0  0  0  0  0  0  0
   -2.4558    2.6184   -0.1056 C   0  0  1  0  0  0  0  0  0  0  0  0
   -1.9824    1.1963   -0.1933 C   0  0  0  0  0  0  0  0  0  0  0  0
   -3.1761    2.9111   -1.4161 C   0  0  0  0  0  0  0  0  0  0  0  0
   -0.6507    0.8944   -0.2280 O   0  0  0  0  0  0  0  0  0  0  0  0
   -2.8206    0.2634   -0.2562 O   0  0  0  0  0  0  0  0  0  0  0  0
   -4.5484    3.2788   -1.5013 C   0  0  0  0  0  0  0  0  0  0  0  0
   -2.4711    2.8052   -2.6491 C   0  0  0  0  0  0  0  0  0  0  0  0
   -0.0649   -0.4114   -0.2721 C   0  0  1  0  0  0  0  0  0  0  0  0
   -5.1681    3.5497   -2.7362 C   0  0  0  0  0  0  0  0  0  0  0  0
   -3.0847    3.0749   -3.8857 C   0  0  0  0  0  0  0  0  0  0  0  0
    1.4687   -0.2849   -0.3050 C   0  0  0  0  0  0  0  0  0  0  0  0
   -4.4339    3.4570   -3.9282 C   0  0  0  0  0  0  0  0  0  0  0  0
    0.3576    1.9956    7.1696 N   0  0  0  0  0  0  0  0  0  0  0  0
   -2.2194    3.1248    5.3174 H   0  0  0  0  0  0  0  0  0  0  0  0
   -2.0775    4.8314    4.9130 H   0  0  0  0  0  0  0  0  0  0  0  0
    0.1618    4.2565    3.8299 H   0  0  0  0  0  0  0  0  0  0  0  0
   -0.2327    2.5570    4.0350 H   0  0  0  0  0  0  0  0  0  0  0  0
    0.0133    5.0332    9.0098 H   0  0  0  0  0  0  0  0  0  0  0  0
   -3.5333    4.0995    6.8940 H   0  0  0  0  0  0  0  0  0  0  0  0
   -1.2038    6.8818    6.3575 H   0  0  0  0  0  0  0  0  0  0  0  0
    2.0471    4.1941    6.0519 H   0  0  0  0  0  0  0  0  0  0  0  0
   -1.3060    5.5972   10.9283 H   0  0  0  0  0  0  0  0  0  0  0  0
   -4.8089    4.6066    8.8388 H   0  0  0  0  0  0  0  0  0  0  0  0
    0.3100    8.7228    6.0446 H   0  0  0  0  0  0  0  0  0  0  0  0
    3.5269    6.0419    5.6988 H   0  0  0  0  0  0  0  0  0  0  0  0
   -3.3080    2.8200    3.3299 H   0  0  0  0  0  0  0  0  0  0  0  0
   -2.0787    1.5480    2.5352 H   0  0  0  0  0  0  0  0  0  0  0  0
    0.1400    4.4330    1.4758 H   0  0  0  0  0  0  0  0  0  0  0  0
    0.0840    2.6732    1.4519 H   0  0  0  0  0  0  0  0  0  0  0  0
   -3.7214    5.3616   10.8693 H   0  0  0  0  0  0  0  0  0  0  0  0
    2.6681    8.3157    5.6568 H   0  0  0  0  0  0  0  0  0  0  0  0
   -3.7945    3.7490    1.2197 H   0  0  0  0  0  0  0  0  0  0  0  0
   -4.1500    2.0254    1.1876 H   0  0  0  0  0  0  0  0  0  0  0  0
   -1.7054    4.6760   -0.0071 H   0  0  0  0  0  0  0  0  0  0  0  0
   -0.5468    3.5634   -0.7233 H   0  0  0  0  0  0  0  0  0  0  0  0
   -5.1300    3.3568   -0.6665 H   0  0  0  0  0  0  0  0  0  0  0  0
   -1.4895    2.5214   -2.6619 H   0  0  0  0  0  0  0  0  0  0  0  0
   -0.3655   -0.9800    0.6122 H   0  0  0  0  0  0  0  0  0  0  0  0
   -0.4072   -0.9376   -1.1667 H   0  0  0  0  0  0  0  0  0  0  0  0
   -6.1560    3.8124   -2.7684 H   0  0  0  0  0  0  0  0  0  0  0  0
   -2.5483    2.9884   -4.7523 H   0  0  0  0  0  0  0  0  0  0  0  0
    1.9210   -1.2757   -0.3856 H   0  0  0  0  0  0  0  0  0  0  0  0
    1.7765    0.3152   -1.1644 H   0  0  0  0  0  0  0  0  0  0  0  0
    1.8235    0.1938    0.6106 H   0  0  0  0  0  0  0  0  0  0  0  0
   -4.8804    3.6599   -4.8242 H   0  0  0  0  0  0  0  0  0  0  0  0
  1  2  1  0  0  0  0 
  1  3  1  0  0  0  0 
  1  4  1  0  0  0  0 
  1  5  1  0  0  0  0 
  2  6  1  0  0  0  0 
  4  7  2  0  0  0  0 
  4  8  1  0  0  0  0 
  5  9  2  0  0  0  0 
  5 10  1  0  0  0  0 
  6 11  1  0  0  0  0 
  7 12  1  0  0  0  0 
  8 13  2  0  0  0  0 
  9 14  1  0  0  0  0 
 10 15  2  0  0  0  0 
 11 16  1  0  0  0  0 
 11 17  1  0  0  0  0 
 12 18  2  0  0  0  0 
 13 18  1  0  0  0  0 
 14 19  2  0  0  0  0 
 15 19  1  0  0  0  0 
 16 20  1  0  0  0  0 
 17 21  1  0  0  0  0 
 20 22  1  0  0  0  0 
 21 22  1  0  0  0  0 
 22 23  1  0  0  0  0 
 22 24  1  0  0  0  0 
 23 25  1  0  0  0  0 
 23 26  2  0  0  0  0 
 24 27  2  0  0  0  0 
 24 28  1  0  0  0  0 
 25 29  1  0  0  0  0 
 27 30  1  0  0  0  0 
 28 31  2  0  0  0  0 
 29 32  1  0  0  0  0 
 30 33  2  0  0  0  0 
 31 33  1  0  0  0  0 
  3 34  3  0  0  0  0 
  2 35  1  0  0  0  0 
  2 36  1  0  0  0  0 
  6 37  1  0  0  0  0 
  6 38  1  0  0  0  0 
  7 39  1  0  0  0  0 
  8 40  1  0  0  0  0 
  9 41  1  0  0  0  0 
 10 42  1  0  0  0  0 
 12 43  1  0  0  0  0 
 13 44  1  0  0  0  0 
 14 45  1  0  0  0  0 
 15 46  1  0  0  0  0 
 16 47  1  0  0  0  0 
 16 48  1  0  0  0  0 
 17 49  1  0  0  0  0 
 17 50  1  0  0  0  0 
 18 51  1  0  0  0  0 
 19 52  1  0  0  0  0 
 20 53  1  0  0  0  0 
 20 54  1  0  0  0  0 
 21 55  1  0  0  0  0 
 21 56  1  0  0  0  0 
 27 57  1  0  0  0  0 
 28 58  1  0  0  0  0 
 29 59  1  0  0  0  0 
 29 60  1  0  0  0  0 
 30 61  1  0  0  0  0 
 31 62  1  0  0  0  0 
 32 63  1  0  0  0  0 
 32 64  1  0  0  0  0 
 32 65  1  0  0  0  0 
 33 66  1  0  0  0  0 
M  END
> <cdk:Title>
diphenoxylate

> <Conformer>
1

> <SuperDrugID>
SD000815

$$$$
