pyricarbate
  CDK     0628171801

 33 33  0  0  0  0  0  0  0  0999 V2000
    0.8529   -2.3522   -0.6072 C   0  0  1  0  0  0  0  0  0  0  0  0
   -0.1776   -1.4677   -0.1544 O   0  0  0  0  0  0  0  0  0  0  0  0
    0.2452   -3.6675   -0.8728 C   0  0  0  0  0  0  0  0  0  0  0  0
   -0.0299   -0.1607    0.1911 C   0  0  0  0  0  0  0  0  0  0  0  0
    0.0969   -4.0822   -2.1581 N   0  0  0  0  0  0  0  0  0  0  0  0
   -0.2129   -4.5006    0.1710 C   0  0  0  0  0  0  0  0  0  0  0  0
   -1.1546    0.5194    0.5208 N   0  0  0  0  0  0  0  0  0  0  0  0
    1.1021    0.3810    0.1969 O   0  0  0  0  0  0  0  0  0  0  0  0
   -0.4826   -5.2612   -2.5086 C   0  0  0  0  0  0  0  0  0  0  0  0
   -0.8088   -5.7340   -0.1468 C   0  0  0  0  0  0  0  0  0  0  0  0
   -1.1836    1.8893    0.9008 C   0  0  0  0  0  0  0  0  0  0  0  0
   -0.6278   -5.5945   -3.9357 C   0  0  1  0  0  0  0  0  0  0  0  0
   -0.9522   -6.1194   -1.4911 C   0  0  0  0  0  0  0  0  0  0  0  0
   -2.0131   -5.4870   -4.2803 O   0  0  0  0  0  0  0  0  0  0  0  0
   -2.5635   -5.7087   -5.5041 C   0  0  0  0  0  0  0  0  0  0  0  0
   -3.8921   -5.4751   -5.6325 N   0  0  0  0  0  0  0  0  0  0  0  0
   -1.8612   -6.1080   -6.4644 O   0  0  0  0  0  0  0  0  0  0  0  0
   -4.6262   -5.6495   -6.8378 C   0  0  0  0  0  0  0  0  0  0  0  0
    1.2980   -1.9453   -1.5200 H   0  0  0  0  0  0  0  0  0  0  0  0
    1.6380   -2.4509    0.1457 H   0  0  0  0  0  0  0  0  0  0  0  0
   -0.1179   -4.2189    1.1491 H   0  0  0  0  0  0  0  0  0  0  0  0
   -1.9991    0.0421    0.4846 H   0  0  0  0  0  0  0  0  0  0  0  0
   -1.1401   -6.3483    0.5992 H   0  0  0  0  0  0  0  0  0  0  0  0
   -0.5732    2.0504    1.7914 H   0  0  0  0  0  0  0  0  0  0  0  0
   -2.2107    2.1774    1.1235 H   0  0  0  0  0  0  0  0  0  0  0  0
   -0.8133    2.5139    0.0861 H   0  0  0  0  0  0  0  0  0  0  0  0
   -0.0508   -4.8986   -4.5519 H   0  0  0  0  0  0  0  0  0  0  0  0
   -0.2596   -6.6062   -4.1201 H   0  0  0  0  0  0  0  0  0  0  0  0
   -1.3938   -7.0131   -1.7193 H   0  0  0  0  0  0  0  0  0  0  0  0
   -4.3732   -5.1568   -4.8519 H   0  0  0  0  0  0  0  0  0  0  0  0
   -5.6726   -5.4037   -6.6582 H   0  0  0  0  0  0  0  0  0  0  0  0
   -4.2388   -4.9872   -7.6138 H   0  0  0  0  0  0  0  0  0  0  0  0
   -4.5624   -6.6855   -7.1760 H   0  0  0  0  0  0  0  0  0  0  0  0
  1  2  1  0  0  0  0 
  1  3  1  0  0  0  0 
  2  4  1  0  0  0  0 
  3  5  2  0  0  0  0 
  3  6  1  0  0  0  0 
  4  7  1  0  0  0  0 
  4  8  2  0  0  0  0 
  5  9  1  0  0  0  0 
  6 10  2  0  0  0  0 
  7 11  1  0  0  0  0 
  9 12  1  0  0  0  0 
  9 13  2  0  0  0  0 
 10 13  1  0  0  0  0 
 12 14  1  0  0  0  0 
 14 15  1  0  0  0  0 
 15 16  1  0  0  0  0 
 15 17  2  0  0  0  0 
 16 18  1  0  0  0  0 
 19  1  1  0  0  0  0 
 20  1  1  0  0  0  0 
 21  6  1  0  0  0  0 
 22  7  1  0  0  0  0 
 23 10  1  0  0  0  0 
 24 11  1  0  0  0  0 
 25 11  1  0  0  0  0 
 26 11  1  0  0  0  0 
 27 12  1  0  0  0  0 
 28 12  1  0  0  0  0 
 29 13  1  0  0  0  0 
 30 16  1  0  0  0  0 
 31 18  1  0  0  0  0 
 32 18  1  0  0  0  0 
 33 18  1  0  0  0  0 
M  END
> <cdk:Title>
pyricarbate

> <Conformer>
1

> <SuperDrugID>
SD002093

$$$$
