cefadroxil
  CDK     0628171802

 42 44  0  0  0  0  0  0  0  0999 V2000
   -0.0115   -0.0034    3.2536 C   0  0  0  0  0  0  0  0  0  0  0  0
   -0.4382   -0.9900    2.2520 C   0  0  0  0  0  0  0  0  0  0  0  0
   -0.7258   -0.6405    0.9626 C   0  0  0  0  0  0  0  0  0  0  0  0
   -1.1555   -1.5839    0.0960 N   0  0  0  0  0  0  0  0  0  0  0  0
   -1.7712   -2.8427    0.3171 C   0  0  2  0  0  0  0  0  0  0  0  0
   -0.7092   -3.7043    1.5111 S   0  0  0  0  0  0  0  0  0  0  0  0
   -0.5163   -2.3783    2.7565 C   0  0  2  0  0  0  0  0  0  0  0  0
   -1.6283   -3.1082   -1.2122 C   0  0  2  0  0  0  0  0  0  0  0  0
   -0.6520   -4.0720   -1.6196 N   0  0  0  0  0  0  0  0  0  0  0  0
   -0.4531   -4.4712   -2.9076 C   0  0  0  0  0  0  0  0  0  0  0  0
   -1.2067   -4.0596   -3.8226 O   0  0  0  0  0  0  0  0  0  0  0  0
    0.6612   -5.3910   -3.2444 C   0  0  2  0  0  0  0  0  0  0  0  0
    1.3662   -4.9116   -4.4464 N   0  0  1  0  0  0  0  0  0  0  0  0
    0.1645   -6.7887   -3.4101 C   0  0  0  0  0  0  0  0  0  0  0  0
   -0.6347   -7.1521   -4.5224 C   0  0  0  0  0  0  0  0  0  0  0  0
   -1.1505   -8.4548   -4.6487 C   0  0  0  0  0  0  0  0  0  0  0  0
   -0.8746   -9.4217   -3.6655 C   0  0  0  0  0  0  0  0  0  0  0  0
   -1.3858  -10.6735   -3.7596 O   0  0  0  0  0  0  0  0  0  0  0  0
   -0.0664   -9.0844   -2.5660 C   0  0  0  0  0  0  0  0  0  0  0  0
    0.4562   -7.7837   -2.4439 C   0  0  0  0  0  0  0  0  0  0  0  0
   -1.0772   -1.7570   -1.2320 C   0  0  0  0  0  0  0  0  0  0  0  0
   -0.6163   -1.0600   -2.1633 O   0  0  0  0  0  0  0  0  0  0  0  0
   -0.5975    0.6553    0.4502 C   0  0  0  0  0  0  0  0  0  0  0  0
   -1.4891    1.1179   -0.4639 O   0  0  0  0  0  0  0  0  0  0  0  0
    0.3383    1.4260    0.7672 O   0  0  0  0  0  0  0  0  0  0  0  0
   -0.6183    0.9017    3.1978 H   0  0  0  0  0  0  0  0  0  0  0  0
    1.0361    0.2549    3.0902 H   0  0  0  0  0  0  0  0  0  0  0  0
   -0.1059   -0.3727    4.2778 H   0  0  0  0  0  0  0  0  0  0  0  0
   -2.8045   -2.7392    0.6663 H   0  0  0  0  0  0  0  0  0  0  0  0
   -1.3646   -2.4505    3.4406 H   0  0  0  0  0  0  0  0  0  0  0  0
    0.3906   -2.6255    3.3143 H   0  0  0  0  0  0  0  0  0  0  0  0
   -2.5957   -3.1899   -1.7156 H   0  0  0  0  0  0  0  0  0  0  0  0
   -0.0698   -4.4451   -0.9378 H   0  0  0  0  0  0  0  0  0  0  0  0
    1.4013   -5.3514   -2.4388 H   0  0  0  0  0  0  0  0  0  0  0  0
    2.0943   -5.5894   -4.6762 H   0  0  0  0  0  0  0  0  0  0  0  0
    0.6985   -4.9171   -5.2205 H   0  0  0  0  0  0  0  0  0  0  0  0
   -0.8531   -6.4659   -5.2487 H   0  0  0  0  0  0  0  0  0  0  0  0
   -1.7340   -8.6979   -5.4515 H   0  0  0  0  0  0  0  0  0  0  0  0
   -1.7118  -10.7575   -4.6792 H   0  0  0  0  0  0  0  0  0  0  0  0
    0.1394   -9.7848   -1.8513 H   0  0  0  0  0  0  0  0  0  0  0  0
    1.0400   -7.5660   -1.6328 H   0  0  0  0  0  0  0  0  0  0  0  0
   -1.3875    2.0098   -0.8565 H   0  0  0  0  0  0  0  0  0  0  0  0
  1  2  1  0  0  0  0 
  2  3  2  0  0  0  0 
  3  4  1  0  0  0  0 
  5  4  1  0  0  0  0 
  5  6  1  0  0  0  0 
  6  7  1  0  0  0  0 
  2  7  1  0  0  0  0 
  5  8  1  0  0  0  0 
  8  9  1  0  0  0  0 
  9 10  1  0  0  0  0 
 10 11  2  0  0  0  0 
 10 12  1  0  0  0  0 
 12 13  1  0  0  0  0 
 12 14  1  0  0  0  0 
 14 15  2  0  0  0  0 
 15 16  1  0  0  0  0 
 16 17  2  0  0  0  0 
 17 18  1  0  0  0  0 
 17 19  1  0  0  0  0 
 19 20  2  0  0  0  0 
 14 20  1  0  0  0  0 
  8 21  1  0  0  0  0 
  4 21  1  0  0  0  0 
 21 22  2  0  0  0  0 
  3 23  1  0  0  0  0 
 23 24  1  0  0  0  0 
 23 25  2  0  0  0  0 
  1 26  1  0  0  0  0 
  1 27  1  0  0  0  0 
  1 28  1  0  0  0  0 
  5 29  1  0  0  0  0 
  7 30  1  0  0  0  0 
  7 31  1  0  0  0  0 
  8 32  1  0  0  0  0 
  9 33  1  0  0  0  0 
 12 34  1  0  0  0  0 
 13 35  1  0  0  0  0 
 13 36  1  0  0  0  0 
 15 37  1  0  0  0  0 
 16 38  1  0  0  0  0 
 18 39  1  0  0  0  0 
 19 40  1  0  0  0  0 
 20 41  1  0  0  0  0 
 24 42  1  0  0  0  0 
M  END
> <cdk:Title>
cefadroxil

> <Conformer>
1

> <SuperDrugID>
SD000455

$$$$
