loprazolam
  CDK     0628171801

 54 58  0  0  0  0  0  0  0  0999 V2000
   -4.5209   -2.2696    2.9433 O   0  0  0  0  0  0  0  0  0  0  0  0
   -5.4979   -2.3733    2.1657 C   0  0  0  0  0  0  0  0  0  0  0  0
   -6.8364   -2.4361    2.4545 N   0  0  0  0  0  0  0  0  0  0  0  0
   -5.2952   -2.3937    0.7917 C   0  0  0  0  0  0  0  0  0  0  0  0
   -7.4487   -2.5286    3.6996 C   0  0  0  0  0  0  0  0  0  0  0  0
   -7.4048   -2.3736    1.2188 C   0  0  0  0  0  0  0  0  0  0  0  0
   -4.0264   -2.4012    0.0342 C   0  0  2  0  0  0  0  0  0  0  0  0
   -6.4976   -2.3923    0.2318 N   0  0  0  0  0  0  0  0  0  0  0  0
   -8.8481   -2.3139    3.9797 C   0  0  0  0  0  0  0  0  0  0  0  0
   -6.6446   -2.8989    4.8208 C   0  0  0  0  0  0  0  0  0  0  0  0
   -8.7366   -2.2854    0.8309 C   0  0  0  0  0  0  0  0  0  0  0  0
   -3.3760   -1.0553   -0.0651 N   0  0  1  0  0  0  0  0  0  0  0  0
   -9.8793   -2.1619    3.0028 C   0  0  0  0  0  0  0  0  0  0  0  0
   -9.2677   -2.2640    5.3463 C   0  0  0  0  0  0  0  0  0  0  0  0
   -7.1103   -2.9225    6.1413 C   0  0  0  0  0  0  0  0  0  0  0  0
   -9.7696   -2.1814    1.6642 N   0  0  0  0  0  0  0  0  0  0  0  0
   -1.9750   -1.1541   -0.5853 C   0  0  2  0  0  0  0  0  0  0  0  0
   -4.1769   -0.0435   -0.8302 C   0  0  1  0  0  0  0  0  0  0  0  0
  -11.2608   -2.0198    3.3050 C   0  0  0  0  0  0  0  0  0  0  0  0
   -8.4363   -2.5748    6.4437 C   0  0  0  0  0  0  0  0  0  0  0  0
   -1.2773    0.2271   -0.6001 C   0  0  2  0  0  0  0  0  0  0  0  0
   -3.4760    1.3392   -0.8394 C   0  0  2  0  0  0  0  0  0  0  0  0
  -11.9226   -0.7680    3.2089 C   0  0  0  0  0  0  0  0  0  0  0  0
  -11.9964   -3.1625    3.7021 C   0  0  0  0  0  0  0  0  0  0  0  0
   -8.8873   -2.5663    7.7162 N   0  0  0  0  0  0  0  0  0  0  0  0
   -2.0881    1.2098   -1.3770 N   0  0  1  0  0  0  0  0  0  0  0  0
  -11.0991    0.6642    2.8137 Cl  0  0  0  0  0  0  0  0  0  0  0  0
  -13.3054   -0.6879    3.4650 C   0  0  0  0  0  0  0  0  0  0  0  0
  -13.3688   -3.0648    3.9850 C   0  0  0  0  0  0  0  0  0  0  0  0
  -10.0078   -2.3859    7.9964 O   0  0  0  0  0  0  0  0  0  0  0  0
   -8.1315   -2.7734    8.7186 O   0  0  0  0  0  0  0  0  0  0  0  0
   -1.3949    2.5125   -1.5820 C   0  0  0  0  0  0  0  0  0  0  0  0
  -14.0243   -1.8289    3.8612 C   0  0  0  0  0  0  0  0  0  0  0  0
   -4.2083   -2.8030   -0.9667 H   0  0  0  0  0  0  0  0  0  0  0  0
   -3.3635   -3.1062    0.5424 H   0  0  0  0  0  0  0  0  0  0  0  0
   -5.6816   -3.2021    4.7133 H   0  0  0  0  0  0  0  0  0  0  0  0
   -8.9630   -2.2659   -0.1690 H   0  0  0  0  0  0  0  0  0  0  0  0
  -10.2265   -1.9988    5.5807 H   0  0  0  0  0  0  0  0  0  0  0  0
   -6.4651   -3.2030    6.8865 H   0  0  0  0  0  0  0  0  0  0  0  0
   -1.9725   -1.5667   -1.6000 H   0  0  0  0  0  0  0  0  0  0  0  0
   -1.3870   -1.8206    0.0505 H   0  0  0  0  0  0  0  0  0  0  0  0
   -4.3239   -0.3760   -1.8631 H   0  0  0  0  0  0  0  0  0  0  0  0
   -5.1621    0.0831   -0.3753 H   0  0  0  0  0  0  0  0  0  0  0  0
   -0.2918    0.1070   -1.0583 H   0  0  0  0  0  0  0  0  0  0  0  0
   -1.1332    0.5738    0.4278 H   0  0  0  0  0  0  0  0  0  0  0  0
   -3.4586    1.7460    0.1773 H   0  0  0  0  0  0  0  0  0  0  0  0
   -4.0595    2.0188   -1.4661 H   0  0  0  0  0  0  0  0  0  0  0  0
  -11.5391   -4.0737    3.7904 H   0  0  0  0  0  0  0  0  0  0  0  0
  -13.7938    0.2053    3.3732 H   0  0  0  0  0  0  0  0  0  0  0  0
  -13.8900   -3.8926    4.2796 H   0  0  0  0  0  0  0  0  0  0  0  0
   -0.4255    2.3538   -2.0595 H   0  0  0  0  0  0  0  0  0  0  0  0
   -1.9821    3.1511   -2.2447 H   0  0  0  0  0  0  0  0  0  0  0  0
   -1.2382    3.0352   -0.6357 H   0  0  0  0  0  0  0  0  0  0  0  0
  -15.0224   -1.7570    4.0684 H   0  0  0  0  0  0  0  0  0  0  0  0
  1  2  2  0  0  0  0 
  2  3  1  0  0  0  0 
  2  4  1  0  0  0  0 
  3  5  1  0  0  0  0 
  3  6  1  0  0  0  0 
  4  7  1  0  0  0  0 
  4  8  2  0  0  0  0 
  5  9  1  0  0  0  0 
  5 10  2  0  0  0  0 
  6  8  1  0  0  0  0 
  6 11  2  0  0  0  0 
  7 12  1  0  0  0  0 
  9 13  1  0  0  0  0 
  9 14  2  0  0  0  0 
 10 15  1  0  0  0  0 
 11 16  1  0  0  0  0 
 12 17  1  0  0  0  0 
 12 18  1  0  0  0  0 
 13 16  2  0  0  0  0 
 13 19  1  0  0  0  0 
 14 20  1  0  0  0  0 
 15 20  2  0  0  0  0 
 17 21  1  0  0  0  0 
 18 22  1  0  0  0  0 
 19 23  2  0  0  0  0 
 19 24  1  0  0  0  0 
 20 25  1  0  0  0  0 
 21 26  1  0  0  0  0 
 22 26  1  0  0  0  0 
 23 27  1  0  0  0  0 
 23 28  1  0  0  0  0 
 24 29  2  0  0  0  0 
 25 30  2  0  0  0  0 
 25 31  1  0  0  0  0 
 26 32  1  0  0  0  0 
 28 33  2  0  0  0  0 
 29 33  1  0  0  0  0 
 34  7  1  0  0  0  0 
 35  7  1  0  0  0  0 
 36 10  1  0  0  0  0 
 37 11  1  0  0  0  0 
 38 14  1  0  0  0  0 
 39 15  1  0  0  0  0 
 40 17  1  0  0  0  0 
 41 17  1  0  0  0  0 
 42 18  1  0  0  0  0 
 43 18  1  0  0  0  0 
 44 21  1  0  0  0  0 
 45 21  1  0  0  0  0 
 46 22  1  0  0  0  0 
 47 22  1  0  0  0  0 
 48 24  1  0  0  0  0 
 49 28  1  0  0  0  0 
 50 29  1  0  0  0  0 
 51 32  1  0  0  0  0 
 52 32  1  0  0  0  0 
 53 32  1  0  0  0  0 
 54 33  1  0  0  0  0 
M  CHG  1  25   1
M  CHG  1  31  -1
M  END
> <cdk:Title>
loprazolam

> <Conformer>
1

> <SuperDrugID>
SD001416

$$$$
