etiroxate
  CDK     0628171801

 44 45  0  0  0  0  0  0  0  0999 V2000
    1.7162    7.5268    1.6466 O   0  0  0  0  0  0  0  0  0  0  0  0
    0.8770    6.6029    1.0707 C   0  0  0  0  0  0  0  0  0  0  0  0
    1.9062    8.6613    0.8848 C   0  0  0  0  0  0  0  0  0  0  0  0
   -0.4868    6.5616    1.4420 C   0  0  0  0  0  0  0  0  0  0  0  0
    1.3507    5.6449    0.1429 C   0  0  0  0  0  0  0  0  0  0  0  0
    3.1711    8.8920    0.3055 C   0  0  0  0  0  0  0  0  0  0  0  0
    0.9021    9.6425    0.7146 C   0  0  0  0  0  0  0  0  0  0  0  0
   -1.2242    7.6784    3.0033 I   0  0  0  0  0  0  0  0  0  0  0  0
   -1.3830    5.7158    0.7639 C   0  0  0  0  0  0  0  0  0  0  0  0
    3.3463    5.4088   -0.2853 I   0  0  0  0  0  0  0  0  0  0  0  0
    0.4514    4.7820   -0.5110 C   0  0  0  0  0  0  0  0  0  0  0  0
    3.4103   10.0294   -0.4885 C   0  0  0  0  0  0  0  0  0  0  0  0
    1.1420   10.8014   -0.0451 C   0  0  0  0  0  0  0  0  0  0  0  0
   -0.9345    4.8270   -0.2397 C   0  0  0  0  0  0  0  0  0  0  0  0
    5.2618   10.2595   -1.3491 I   0  0  0  0  0  0  0  0  0  0  0  0
    2.3902   10.9881   -0.6700 C   0  0  0  0  0  0  0  0  0  0  0  0
   -0.3424   12.2148   -0.2137 I   0  0  0  0  0  0  0  0  0  0  0  0
   -1.9016    3.9955   -1.0193 C   0  0  2  0  0  0  0  0  0  0  0  0
    2.5778   12.0972   -1.4306 O   0  0  0  0  0  0  0  0  0  0  0  0
   -2.5529    2.7691   -0.2834 C   0  0  1  0  0  0  0  0  0  0  0  0
   -1.5804    1.7231    0.1455 C   0  0  0  0  0  0  0  0  0  0  0  0
   -0.3121    1.6941   -0.3600 O   0  0  0  0  0  0  0  0  0  0  0  0
   -1.9410    0.8332    0.9552 O   0  0  0  0  0  0  0  0  0  0  0  0
    0.6906    0.7172   -0.0554 C   0  0  1  0  0  0  0  0  0  0  0  0
    1.9691    1.0169   -0.8603 C   0  0  0  0  0  0  0  0  0  0  0  0
   -3.2922    3.2316    0.9047 N   0  0  2  0  0  0  0  0  0  0  0  0
   -3.6113    2.1105   -1.2195 C   0  0  0  0  0  0  0  0  0  0  0  0
    3.9308    8.2294    0.4604 H   0  0  0  0  0  0  0  0  0  0  0  0
   -0.0088    9.5281    1.1504 H   0  0  0  0  0  0  0  0  0  0  0  0
   -2.3747    5.7589    1.0064 H   0  0  0  0  0  0  0  0  0  0  0  0
    0.8179    4.1186   -1.1969 H   0  0  0  0  0  0  0  0  0  0  0  0
   -1.4188    3.6263   -1.9295 H   0  0  0  0  0  0  0  0  0  0  0  0
   -2.6931    4.6689   -1.3630 H   0  0  0  0  0  0  0  0  0  0  0  0
    3.4545   12.0047   -1.8533 H   0  0  0  0  0  0  0  0  0  0  0  0
    0.9193    0.7404    1.0141 H   0  0  0  0  0  0  0  0  0  0  0  0
    0.3201   -0.2802   -0.3138 H   0  0  0  0  0  0  0  0  0  0  0  0
    2.7167    0.2466   -0.6629 H   0  0  0  0  0  0  0  0  0  0  0  0
    1.7463    1.0300   -1.9294 H   0  0  0  0  0  0  0  0  0  0  0  0
    2.3840    1.9860   -0.5757 H   0  0  0  0  0  0  0  0  0  0  0  0
   -3.9001    3.9941    0.5981 H   0  0  0  0  0  0  0  0  0  0  0  0
   -2.6166    3.6228    1.5635 H   0  0  0  0  0  0  0  0  0  0  0  0
   -4.1286    1.2878   -0.7194 H   0  0  0  0  0  0  0  0  0  0  0  0
   -4.3645    2.8431   -1.5186 H   0  0  0  0  0  0  0  0  0  0  0  0
   -3.1419    1.7188   -2.1247 H   0  0  0  0  0  0  0  0  0  0  0  0
  1  2  1  0  0  0  0 
  1  3  1  0  0  0  0 
  2  4  2  0  0  0  0 
  2  5  1  0  0  0  0 
  3  6  2  0  0  0  0 
  3  7  1  0  0  0  0 
  4  8  1  0  0  0  0 
  4  9  1  0  0  0  0 
  5 10  1  0  0  0  0 
  5 11  2  0  0  0  0 
  6 12  1  0  0  0  0 
  7 13  2  0  0  0  0 
  9 14  2  0  0  0  0 
 11 14  1  0  0  0  0 
 12 15  1  0  0  0  0 
 12 16  2  0  0  0  0 
 13 16  1  0  0  0  0 
 13 17  1  0  0  0  0 
 14 18  1  0  0  0  0 
 16 19  1  0  0  0  0 
 20 18  1  0  0  0  0 
 20 21  1  0  0  0  0 
 21 22  1  0  0  0  0 
 21 23  2  0  0  0  0 
 22 24  1  0  0  0  0 
 24 25  1  0  0  0  0 
 20 26  1  0  0  0  0 
 20 27  1  0  0  0  0 
  6 28  1  0  0  0  0 
  7 29  1  0  0  0  0 
  9 30  1  0  0  0  0 
 11 31  1  0  0  0  0 
 18 32  1  0  0  0  0 
 18 33  1  0  0  0  0 
 19 34  1  0  0  0  0 
 24 35  1  0  0  0  0 
 24 36  1  0  0  0  0 
 25 37  1  0  0  0  0 
 25 38  1  0  0  0  0 
 25 39  1  0  0  0  0 
 26 40  1  0  0  0  0 
 26 41  1  0  0  0  0 
 27 42  1  0  0  0  0 
 27 43  1  0  0  0  0 
 27 44  1  0  0  0  0 
M  END
> <cdk:Title>
etiroxate

> <Conformer>
1

> <SuperDrugID>
SD002778

$$$$
