etidocaine
  CDK     0628171801

 48 48  0  0  0  0  0  0  0  0999 V2000
    0.9426    1.5526    0.5527 N   0  0  0  0  0  0  0  0  0  0  0  0
   -0.2920    1.9918    0.1717 C   0  0  0  0  0  0  0  0  0  0  0  0
    2.0539    1.3497   -0.2240 C   0  0  0  0  0  0  0  0  0  0  0  0
   -1.3210    2.2014    1.2330 C   0  0  2  0  0  0  0  0  0  0  0  0
   -0.5647    2.2390   -1.0268 O   0  0  0  0  0  0  0  0  0  0  0  0
    2.6514    2.3805   -1.0109 C   0  0  0  0  0  0  0  0  0  0  0  0
    2.6659    0.0648   -0.1600 C   0  0  0  0  0  0  0  0  0  0  0  0
   -2.7583    2.0847    0.7431 N   0  0  1  0  0  0  0  0  0  0  0  0
   -0.9585    3.5560    1.9661 C   0  0  1  0  0  0  0  0  0  0  0  0
    2.1284    3.7722   -1.0294 C   0  0  0  0  0  0  0  0  0  0  0  0
    3.8175    2.0854   -1.7577 C   0  0  0  0  0  0  0  0  0  0  0  0
    2.1078   -1.0091    0.7053 C   0  0  0  0  0  0  0  0  0  0  0  0
    3.8337   -0.1891   -0.9174 C   0  0  0  0  0  0  0  0  0  0  0  0
   -3.0901    0.8023    0.0058 C   0  0  2  0  0  0  0  0  0  0  0  0
   -3.8184    2.4409    1.7642 C   0  0  1  0  0  0  0  0  0  0  0  0
   -0.6421    3.4009    3.4749 C   0  0  0  0  0  0  0  0  0  0  0  0
    4.4095    0.8148   -1.7079 C   0  0  0  0  0  0  0  0  0  0  0  0
   -4.3097    0.9584   -0.9462 C   0  0  1  0  0  0  0  0  0  0  0  0
   -4.6458    3.6758    1.3396 C   0  0  0  0  0  0  0  0  0  0  0  0
   -4.5636   -0.2615   -1.8610 C   0  0  0  0  0  0  0  0  0  0  0  0
    1.0304    1.3111    1.4897 H   0  0  0  0  0  0  0  0  0  0  0  0
   -1.1975    1.3782    1.9454 H   0  0  0  0  0  0  0  0  0  0  0  0
   -0.0825    4.0476    1.5284 H   0  0  0  0  0  0  0  0  0  0  0  0
   -1.7680    4.2745    1.8542 H   0  0  0  0  0  0  0  0  0  0  0  0
    1.8892    4.1005   -0.0173 H   0  0  0  0  0  0  0  0  0  0  0  0
    1.2392    3.8307   -1.6533 H   0  0  0  0  0  0  0  0  0  0  0  0
    2.8530    4.4790   -1.4330 H   0  0  0  0  0  0  0  0  0  0  0  0
    4.2565    2.7986   -2.3431 H   0  0  0  0  0  0  0  0  0  0  0  0
    1.0587   -1.1825    0.4555 H   0  0  0  0  0  0  0  0  0  0  0  0
    2.6415   -1.9535    0.5916 H   0  0  0  0  0  0  0  0  0  0  0  0
    2.1811   -0.7048    1.7518 H   0  0  0  0  0  0  0  0  0  0  0  0
    4.2829   -1.1077   -0.8961 H   0  0  0  0  0  0  0  0  0  0  0  0
   -3.2750   -0.0045    0.7217 H   0  0  0  0  0  0  0  0  0  0  0  0
   -2.2579    0.4684   -0.6129 H   0  0  0  0  0  0  0  0  0  0  0  0
   -4.5164    1.6171    1.9429 H   0  0  0  0  0  0  0  0  0  0  0  0
   -3.3928    2.6554    2.7450 H   0  0  0  0  0  0  0  0  0  0  0  0
   -1.4892    2.9788    4.0152 H   0  0  0  0  0  0  0  0  0  0  0  0
    0.2193    2.7440    3.6099 H   0  0  0  0  0  0  0  0  0  0  0  0
   -0.4077    4.3771    3.9055 H   0  0  0  0  0  0  0  0  0  0  0  0
    5.2645    0.6239   -2.2394 H   0  0  0  0  0  0  0  0  0  0  0  0
   -5.2143    1.1239   -0.3569 H   0  0  0  0  0  0  0  0  0  0  0  0
   -4.1503    1.8354   -1.5798 H   0  0  0  0  0  0  0  0  0  0  0  0
   -5.4125    3.8744    2.0900 H   0  0  0  0  0  0  0  0  0  0  0  0
   -4.0111    4.5578    1.2564 H   0  0  0  0  0  0  0  0  0  0  0  0
   -5.1367    3.5004    0.3827 H   0  0  0  0  0  0  0  0  0  0  0  0
   -5.4238   -0.0609   -2.5038 H   0  0  0  0  0  0  0  0  0  0  0  0
   -4.7760   -1.1516   -1.2655 H   0  0  0  0  0  0  0  0  0  0  0  0
   -3.6969   -0.4551   -2.4963 H   0  0  0  0  0  0  0  0  0  0  0  0
  1  2  1  0  0  0  0 
  1  3  1  0  0  0  0 
  4  2  1  0  0  0  0 
  2  5  2  0  0  0  0 
  3  6  2  0  0  0  0 
  3  7  1  0  0  0  0 
  4  8  1  0  0  0  0 
  4  9  1  0  0  0  0 
  6 10  1  0  0  0  0 
  6 11  1  0  0  0  0 
  7 12  1  0  0  0  0 
  7 13  2  0  0  0  0 
  8 14  1  0  0  0  0 
  8 15  1  0  0  0  0 
  9 16  1  0  0  0  0 
 11 17  2  0  0  0  0 
 13 17  1  0  0  0  0 
 14 18  1  0  0  0  0 
 15 19  1  0  0  0  0 
 18 20  1  0  0  0  0 
  1 21  1  0  0  0  0 
  4 22  1  0  0  0  0 
  9 23  1  0  0  0  0 
  9 24  1  0  0  0  0 
 10 25  1  0  0  0  0 
 10 26  1  0  0  0  0 
 10 27  1  0  0  0  0 
 11 28  1  0  0  0  0 
 12 29  1  0  0  0  0 
 12 30  1  0  0  0  0 
 12 31  1  0  0  0  0 
 13 32  1  0  0  0  0 
 14 33  1  0  0  0  0 
 14 34  1  0  0  0  0 
 15 35  1  0  0  0  0 
 15 36  1  0  0  0  0 
 16 37  1  0  0  0  0 
 16 38  1  0  0  0  0 
 16 39  1  0  0  0  0 
 17 40  1  0  0  0  0 
 18 41  1  0  0  0  0 
 18 42  1  0  0  0  0 
 19 43  1  0  0  0  0 
 19 44  1  0  0  0  0 
 19 45  1  0  0  0  0 
 20 46  1  0  0  0  0 
 20 47  1  0  0  0  0 
 20 48  1  0  0  0  0 
M  END
> <cdk:Title>
etidocaine

> <Conformer>
1

> <SuperDrugID>
SD000978

$$$$
