azacyclonol
  CDK     0628171801

 41 43  0  0  0  0  0  0  0  0999 V2000
   -1.1300   -1.0950   -0.0796 C   0  0  2  0  0  0  0  0  0  0  0  0
   -0.4154   -1.8110   -1.1043 O   0  0  0  0  0  0  0  0  0  0  0  0
   -0.5722   -1.5360    1.2624 C   0  0  0  0  0  0  0  0  0  0  0  0
   -2.5975   -1.4663   -0.1359 C   0  0  0  0  0  0  0  0  0  0  0  0
   -0.8909    0.4353   -0.4386 C   0  0  2  0  0  0  0  0  0  0  0  0
   -0.0319   -2.8388    1.4467 C   0  0  0  0  0  0  0  0  0  0  0  0
   -0.5744   -0.6811    2.3984 C   0  0  0  0  0  0  0  0  0  0  0  0
   -3.1144   -2.3851   -1.0918 C   0  0  0  0  0  0  0  0  0  0  0  0
   -3.5310   -0.8877    0.7657 C   0  0  0  0  0  0  0  0  0  0  0  0
   -1.4918    0.8548   -1.8232 C   0  0  2  0  0  0  0  0  0  0  0  0
    0.6207    0.8535   -0.3992 C   0  0  1  0  0  0  0  0  0  0  0  0
    0.5314   -3.2390    2.6743 C   0  0  0  0  0  0  0  0  0  0  0  0
   -0.0196   -1.0784    3.6281 C   0  0  0  0  0  0  0  0  0  0  0  0
   -4.4848   -2.7021   -1.1473 C   0  0  0  0  0  0  0  0  0  0  0  0
   -4.9009   -1.2089    0.7200 C   0  0  0  0  0  0  0  0  0  0  0  0
   -1.2091    2.3426   -2.1577 C   0  0  1  0  0  0  0  0  0  0  0  0
    0.8346    2.3383   -0.7795 C   0  0  2  0  0  0  0  0  0  0  0  0
    0.5444   -2.3557    3.7655 C   0  0  0  0  0  0  0  0  0  0  0  0
   -5.3800   -2.1138   -0.2404 C   0  0  0  0  0  0  0  0  0  0  0  0
    0.2400    2.6334   -2.1017 N   0  0  2  0  0  0  0  0  0  0  0  0
    0.5344   -1.6486   -0.9351 H   0  0  0  0  0  0  0  0  0  0  0  0
   -1.4103    1.0532    0.2984 H   0  0  0  0  0  0  0  0  0  0  0  0
   -0.0349   -3.5170    0.6812 H   0  0  0  0  0  0  0  0  0  0  0  0
   -0.9749    0.2548    2.3508 H   0  0  0  0  0  0  0  0  0  0  0  0
   -2.5011   -2.8365   -1.7731 H   0  0  0  0  0  0  0  0  0  0  0  0
   -3.2246   -0.2163    1.4708 H   0  0  0  0  0  0  0  0  0  0  0  0
   -2.5740    0.7061   -1.8329 H   0  0  0  0  0  0  0  0  0  0  0  0
   -1.0599    0.2362   -2.6124 H   0  0  0  0  0  0  0  0  0  0  0  0
    1.0453    0.6959    0.5934 H   0  0  0  0  0  0  0  0  0  0  0  0
    1.1932    0.2476   -1.1033 H   0  0  0  0  0  0  0  0  0  0  0  0
    0.9328   -4.1747    2.7754 H   0  0  0  0  0  0  0  0  0  0  0  0
   -0.0217   -0.4344    4.4224 H   0  0  0  0  0  0  0  0  0  0  0  0
   -4.8318   -3.3577   -1.8519 H   0  0  0  0  0  0  0  0  0  0  0  0
   -5.5500   -0.7786    1.3824 H   0  0  0  0  0  0  0  0  0  0  0  0
   -1.5685    2.5635   -3.1649 H   0  0  0  0  0  0  0  0  0  0  0  0
   -1.7406    2.9980   -1.4623 H   0  0  0  0  0  0  0  0  0  0  0  0
    1.9051    2.5496   -0.8274 H   0  0  0  0  0  0  0  0  0  0  0  0
    0.3966    2.9900   -0.0195 H   0  0  0  0  0  0  0  0  0  0  0  0
    0.9617   -2.6408    4.6554 H   0  0  0  0  0  0  0  0  0  0  0  0
   -6.3763   -2.3414   -0.2810 H   0  0  0  0  0  0  0  0  0  0  0  0
    0.3589    3.6347   -2.2701 H   0  0  0  0  0  0  0  0  0  0  0  0
  1  2  1  0  0  0  0 
  1  3  1  0  0  0  0 
  1  4  1  0  0  0  0 
  1  5  1  0  0  0  0 
  3  6  2  0  0  0  0 
  3  7  1  0  0  0  0 
  4  8  2  0  0  0  0 
  4  9  1  0  0  0  0 
  5 10  1  0  0  0  0 
  5 11  1  0  0  0  0 
  6 12  1  0  0  0  0 
  7 13  2  0  0  0  0 
  8 14  1  0  0  0  0 
  9 15  2  0  0  0  0 
 10 16  1  0  0  0  0 
 11 17  1  0  0  0  0 
 12 18  2  0  0  0  0 
 13 18  1  0  0  0  0 
 14 19  2  0  0  0  0 
 15 19  1  0  0  0  0 
 16 20  1  0  0  0  0 
 17 20  1  0  0  0  0 
  2 21  1  0  0  0  0 
  5 22  1  0  0  0  0 
  6 23  1  0  0  0  0 
  7 24  1  0  0  0  0 
  8 25  1  0  0  0  0 
  9 26  1  0  0  0  0 
 10 27  1  0  0  0  0 
 10 28  1  0  0  0  0 
 11 29  1  0  0  0  0 
 11 30  1  0  0  0  0 
 12 31  1  0  0  0  0 
 13 32  1  0  0  0  0 
 14 33  1  0  0  0  0 
 15 34  1  0  0  0  0 
 16 35  1  0  0  0  0 
 16 36  1  0  0  0  0 
 17 37  1  0  0  0  0 
 17 38  1  0  0  0  0 
 18 39  1  0  0  0  0 
 19 40  1  0  0  0  0 
 20 41  1  0  0  0  0 
M  END
> <cdk:Title>
azacyclonol

> <Conformer>
1

> <SuperDrugID>
SD003148

$$$$
