phensuximide
  CDK     0628171801

 25 26  0  0  0  0  0  0  0  0999 V2000
    1.8376    1.6528    0.1666 C   0  0  0  0  0  0  0  0  0  0  0  0
    1.1692    2.6159   -0.6079 C   0  0  0  0  0  0  0  0  0  0  0  0
   -0.0765    2.3104   -1.1827 C   0  0  0  0  0  0  0  0  0  0  0  0
   -0.6505    1.0401   -0.9878 C   0  0  0  0  0  0  0  0  0  0  0  0
    0.0108    0.0544   -0.2154 C   0  0  0  0  0  0  0  0  0  0  0  0
    1.2700    0.3788    0.3497 C   0  0  0  0  0  0  0  0  0  0  0  0
   -0.6079   -1.2944   -0.0111 C   0  0  1  0  0  0  0  0  0  0  0  0
    0.2418   -2.3844   -0.5174 C   0  0  0  0  0  0  0  0  0  0  0  0
    0.5396   -3.2958    0.4339 N   0  0  0  0  0  0  0  0  0  0  0  0
   -0.0606   -2.9438    1.5934 C   0  0  0  0  0  0  0  0  0  0  0  0
   -0.8251   -1.6975    1.4749 C   0  0  2  0  0  0  0  0  0  0  0  0
    0.6261   -2.4492   -1.7100 O   0  0  0  0  0  0  0  0  0  0  0  0
    0.0057   -3.5847    2.6684 O   0  0  0  0  0  0  0  0  0  0  0  0
    1.3644   -4.4471    0.2154 C   0  0  0  0  0  0  0  0  0  0  0  0
    2.7360    1.8782    0.5974 H   0  0  0  0  0  0  0  0  0  0  0  0
    1.5870    3.5370   -0.7557 H   0  0  0  0  0  0  0  0  0  0  0  0
   -0.5660    3.0128   -1.7425 H   0  0  0  0  0  0  0  0  0  0  0  0
   -1.5574    0.8402   -1.4165 H   0  0  0  0  0  0  0  0  0  0  0  0
    1.7816   -0.3150    0.9013 H   0  0  0  0  0  0  0  0  0  0  0  0
   -1.5642   -1.3688   -0.5367 H   0  0  0  0  0  0  0  0  0  0  0  0
   -1.8814   -1.8839    1.6896 H   0  0  0  0  0  0  0  0  0  0  0  0
   -0.4409   -0.9544    2.1788 H   0  0  0  0  0  0  0  0  0  0  0  0
    0.9345   -5.0604   -0.5790 H   0  0  0  0  0  0  0  0  0  0  0  0
    1.4616   -5.0649    1.1101 H   0  0  0  0  0  0  0  0  0  0  0  0
    2.3627   -4.1271   -0.0883 H   0  0  0  0  0  0  0  0  0  0  0  0
  1  2  2  0  0  0  0 
  2  3  1  0  0  0  0 
  3  4  2  0  0  0  0 
  4  5  1  0  0  0  0 
  5  6  2  0  0  0  0 
  1  6  1  0  0  0  0 
  7  5  1  0  0  0  0 
  8  9  1  0  0  0  0 
  9 10  1  0  0  0  0 
 10 11  1  0  0  0  0 
  7  8  1  0  0  0  0 
  7 11  1  0  0  0  0 
  8 12  2  0  0  0  0 
 10 13  2  0  0  0  0 
  9 14  1  0  0  0  0 
  1 15  1  0  0  0  0 
  2 16  1  0  0  0  0 
  3 17  1  0  0  0  0 
  4 18  1  0  0  0  0 
  6 19  1  0  0  0  0 
  7 20  1  0  0  0  0 
 11 21  1  0  0  0  0 
 11 22  1  0  0  0  0 
 14 23  1  0  0  0  0 
 14 24  1  0  0  0  0 
 14 25  1  0  0  0  0 
M  END
> <cdk:Title>
phensuximide

> <Conformer>
1

> <SuperDrugID>
SD001919

$$$$
