levomenol
  CDK     0628171802

 42 42  0  0  0  0  0  0  0  0999 V2000
   -0.0482   -3.4282   -4.1649 C   0  0  2  0  0  0  0  0  0  0  0  0
   -0.9590   -2.1635   -4.4027 C   0  0  2  0  0  0  0  0  0  0  0  0
    0.5471   -3.3899   -2.7197 C   0  0  0  0  0  0  0  0  0  0  0  0
    1.0821   -3.2778   -5.0323 O   0  0  0  0  0  0  0  0  0  0  0  0
   -0.7722   -4.8085   -4.4777 C   0  0  1  0  0  0  0  0  0  0  0  0
   -2.3068   -2.1259   -3.6165 C   0  0  1  0  0  0  0  0  0  0  0  0
   -1.3965   -4.9320   -5.9077 C   0  0  1  0  0  0  0  0  0  0  0  0
    0.0856   -6.1046   -4.2658 C   0  0  2  0  0  0  0  0  0  0  0  0
   -3.0528   -0.8793   -3.7733 C   0  0  0  0  0  0  0  0  0  0  0  0
   -0.3099   -5.1231   -7.0033 C   0  0  1  0  0  0  0  0  0  0  0  0
    0.9730   -6.4453   -5.3674 C   0  0  0  0  0  0  0  0  0  0  0  0
   -2.8822    0.2618   -3.0633 C   0  0  0  0  0  0  0  0  0  0  0  0
    0.8035   -6.0063   -6.6332 C   0  0  0  0  0  0  0  0  0  0  0  0
   -3.7322    1.4272   -3.3165 C   0  0  0  0  0  0  0  0  0  0  0  0
   -1.8678    0.3884   -2.0155 C   0  0  0  0  0  0  0  0  0  0  0  0
    1.7307   -6.4235   -7.6823 C   0  0  0  0  0  0  0  0  0  0  0  0
   -1.6029   -4.8885   -3.7697 H   0  0  0  0  0  0  0  0  0  0  0  0
   -1.1737   -2.0680   -5.4697 H   0  0  0  0  0  0  0  0  0  0  0  0
   -0.3808   -1.2718   -4.1503 H   0  0  0  0  0  0  0  0  0  0  0  0
    0.8919   -2.3855   -2.4612 H   0  0  0  0  0  0  0  0  0  0  0  0
    1.4089   -4.0562   -2.6303 H   0  0  0  0  0  0  0  0  0  0  0  0
   -0.1988   -3.6935   -1.9865 H   0  0  0  0  0  0  0  0  0  0  0  0
    1.4942   -2.4217   -4.7882 H   0  0  0  0  0  0  0  0  0  0  0  0
   -2.9470   -2.9344   -3.9814 H   0  0  0  0  0  0  0  0  0  0  0  0
   -2.1303   -2.3205   -2.5576 H   0  0  0  0  0  0  0  0  0  0  0  0
   -2.0597   -5.8047   -5.9249 H   0  0  0  0  0  0  0  0  0  0  0  0
   -2.0264   -4.0766   -6.1564 H   0  0  0  0  0  0  0  0  0  0  0  0
   -0.5948   -6.9537   -4.1460 H   0  0  0  0  0  0  0  0  0  0  0  0
    0.6613   -6.0544   -3.3424 H   0  0  0  0  0  0  0  0  0  0  0  0
   -3.7539   -0.8881   -4.4826 H   0  0  0  0  0  0  0  0  0  0  0  0
   -0.7997   -5.5172   -7.8967 H   0  0  0  0  0  0  0  0  0  0  0  0
    0.0994   -4.1454   -7.2670 H   0  0  0  0  0  0  0  0  0  0  0  0
    1.7268   -7.0617   -5.1621 H   0  0  0  0  0  0  0  0  0  0  0  0
   -4.2458    1.7186   -2.3974 H   0  0  0  0  0  0  0  0  0  0  0  0
   -4.4965    1.2478   -4.0762 H   0  0  0  0  0  0  0  0  0  0  0  0
   -3.1189    2.2659   -3.6510 H   0  0  0  0  0  0  0  0  0  0  0  0
   -1.8653    1.3818   -1.5605 H   0  0  0  0  0  0  0  0  0  0  0  0
   -0.8720    0.2244   -2.4257 H   0  0  0  0  0  0  0  0  0  0  0  0
   -2.0502   -0.3375   -1.2210 H   0  0  0  0  0  0  0  0  0  0  0  0
    1.3477   -7.3257   -8.1625 H   0  0  0  0  0  0  0  0  0  0  0  0
    2.7286   -6.6356   -7.2902 H   0  0  0  0  0  0  0  0  0  0  0  0
    1.8412   -5.6461   -8.4417 H   0  0  0  0  0  0  0  0  0  0  0  0
  1  2  1  0  0  0  0 
  1  3  1  0  0  0  0 
  1  4  1  0  0  0  0 
  5  1  1  0  0  0  0 
  2  6  1  0  0  0  0 
  5  7  1  0  0  0  0 
  5  8  1  0  0  0  0 
  5 17  1  0  0  0  0 
  6  9  1  0  0  0  0 
  7 10  1  0  0  0  0 
  8 11  1  0  0  0  0 
  9 12  2  0  0  0  0 
 10 13  1  0  0  0  0 
 11 13  2  0  0  0  0 
 12 14  1  0  0  0  0 
 12 15  1  0  0  0  0 
 13 16  1  0  0  0  0 
  2 18  1  0  0  0  0 
  2 19  1  0  0  0  0 
  3 20  1  0  0  0  0 
  3 21  1  0  0  0  0 
  3 22  1  0  0  0  0 
  4 23  1  0  0  0  0 
  6 24  1  0  0  0  0 
  6 25  1  0  0  0  0 
  7 26  1  0  0  0  0 
  7 27  1  0  0  0  0 
  8 28  1  0  0  0  0 
  8 29  1  0  0  0  0 
  9 30  1  0  0  0  0 
 10 31  1  0  0  0  0 
 10 32  1  0  0  0  0 
 11 33  1  0  0  0  0 
 14 34  1  0  0  0  0 
 14 35  1  0  0  0  0 
 14 36  1  0  0  0  0 
 15 37  1  0  0  0  0 
 15 38  1  0  0  0  0 
 15 39  1  0  0  0  0 
 16 40  1  0  0  0  0 
 16 41  1  0  0  0  0 
 16 42  1  0  0  0  0 
M  END
> <cdk:Title>
levomenol

> <Conformer>
1

> <SuperDrugID>
SD003663

$$$$
