velpatasvir
  CDK     0628171802

119127  0  0  0  0  0  0  0  0999 V2000
   -6.3920    2.8642    4.0006 C   0  0  0  0  0  0  0  0  0  0  0  0
   -7.5881    2.3766    3.4437 C   0  0  0  0  0  0  0  0  0  0  0  0
   -7.5534    1.3308    2.5073 C   0  0  0  0  0  0  0  0  0  0  0  0
   -6.3168    0.7997    2.1042 C   0  0  0  0  0  0  0  0  0  0  0  0
   -5.1201    1.2861    2.6651 C   0  0  0  0  0  0  0  0  0  0  0  0
   -5.1340    2.3202    3.6368 C   0  0  0  0  0  0  0  0  0  0  0  0
   -3.8477    2.7808    4.2593 C   0  0  1  0  0  0  0  0  0  0  0  0
   -3.9521    3.8221    5.2450 N   0  0  0  0  0  0  0  0  0  0  0  0
   -3.1235    1.6579    4.9291 C   0  0  0  0  0  0  0  0  0  0  0  0
   -4.0858    5.1490    5.0069 C   0  0  0  0  0  0  0  0  0  0  0  0
   -4.1495    5.6535    3.7395 O   0  0  0  0  0  0  0  0  0  0  0  0
   -4.1640    5.8993    6.0066 O   0  0  0  0  0  0  0  0  0  0  0  0
   -4.3372    7.0296    3.3954 C   0  0  0  0  0  0  0  0  0  0  0  0
   -1.9400    1.4762    4.5510 O   0  0  0  0  0  0  0  0  0  0  0  0
   -3.6556    0.8345    5.9186 N   0  0  0  0  0  0  0  0  0  0  0  0
   -4.9760    0.9745    6.4612 C   0  0  1  0  0  0  0  0  0  0  0  0
   -4.9491    0.2319    7.8109 C   0  0  2  0  0  0  0  0  0  0  0  0
   -3.9337   -0.8919    7.5388 C   0  0  2  0  0  0  0  0  0  0  0  0
   -2.9313   -0.2377    6.5564 C   0  0  1  0  0  0  0  0  0  0  0  0
   -6.3472   -0.2286    8.2951 C   0  0  2  0  0  0  0  0  0  0  0  0
   -6.2288   -0.8515    9.5876 O   0  0  0  0  0  0  0  0  0  0  0  0
   -7.4831   -1.2757   10.1468 C   0  0  0  0  0  0  0  0  0  0  0  0
   -2.3376   -1.2194    5.6141 C   0  0  0  0  0  0  0  0  0  0  0  0
   -1.0215   -1.4327    5.4879 N   0  0  0  0  0  0  0  0  0  0  0  0
   -0.8289   -2.3288    4.5196 C   0  0  0  0  0  0  0  0  0  0  0  0
   -2.0787   -2.6975    4.0218 C   0  0  0  0  0  0  0  0  0  0  0  0
   -2.9922   -1.9965    4.7273 N   0  0  0  0  0  0  0  0  0  0  0  0
   -2.3580   -3.6062    2.9602 C   0  0  0  0  0  0  0  0  0  0  0  0
   -1.6768   -4.7986    0.9090 C   0  0  0  0  0  0  0  0  0  0  0  0
   -1.3851   -3.9333    1.9879 C   0  0  0  0  0  0  0  0  0  0  0  0
   -3.6354   -4.1909    2.8294 C   0  0  0  0  0  0  0  0  0  0  0  0
   -3.9262   -5.0690    1.7688 C   0  0  0  0  0  0  0  0  0  0  0  0
   -2.9645   -5.3829    0.7718 C   0  0  0  0  0  0  0  0  0  0  0  0
   -0.6473   -5.0557   -0.1323 C   0  0  2  0  0  0  0  0  0  0  0  0
   -0.8548   -6.2625   -0.8944 O   0  0  0  0  0  0  0  0  0  0  0  0
   -2.1534   -6.5532   -1.2357 C   0  0  0  0  0  0  0  0  0  0  0  0
   -3.2342   -6.2081   -0.3794 C   0  0  0  0  0  0  0  0  0  0  0  0
   -2.3731   -7.2521   -2.4417 C   0  0  0  0  0  0  0  0  0  0  0  0
   -4.5249   -6.6732   -0.7316 C   0  0  0  0  0  0  0  0  0  0  0  0
   -4.7575   -7.4075   -1.9145 C   0  0  0  0  0  0  0  0  0  0  0  0
   -3.6711   -7.6611   -2.8170 C   0  0  0  0  0  0  0  0  0  0  0  0
   -3.9195   -8.3024   -4.0624 C   0  0  0  0  0  0  0  0  0  0  0  0
   -6.0710   -7.8619   -2.1964 C   0  0  0  0  0  0  0  0  0  0  0  0
   -6.2688   -8.5602   -3.4870 C   0  0  0  0  0  0  0  0  0  0  0  0
   -5.1852   -8.7554   -4.4171 C   0  0  0  0  0  0  0  0  0  0  0  0
   -3.1093   -8.5702   -5.1077 N   0  0  0  0  0  0  0  0  0  0  0  0
   -3.8698   -9.1480   -6.0684 C   0  0  0  0  0  0  0  0  0  0  0  0
   -5.1338   -9.2870   -5.6347 N   0  0  0  0  0  0  0  0  0  0  0  0
   -3.4551   -9.5384   -7.4388 C   0  0  1  0  0  0  0  0  0  0  0  0
   -2.1686   -9.0611   -7.9042 N   0  0  0  0  0  0  0  0  0  0  0  0
   -1.3194  -10.1551   -8.3189 C   0  0  2  0  0  0  0  0  0  0  0  0
   -2.3507  -11.2499   -8.6874 C   0  0  1  0  0  0  0  0  0  0  0  0
   -3.4354  -11.0733   -7.6205 C   0  0  1  0  0  0  0  0  0  0  0  0
   -1.8903   -7.7003   -8.0135 C   0  0  0  0  0  0  0  0  0  0  0  0
   -2.7498   -6.8824   -7.5985 O   0  0  0  0  0  0  0  0  0  0  0  0
   -0.6784   -7.0568   -8.6136 C   0  0  1  0  0  0  0  0  0  0  0  0
    0.5218   -7.5672   -8.0223 N   0  0  0  0  0  0  0  0  0  0  0  0
   -0.6068   -7.1125  -10.1837 C   0  0  1  0  0  0  0  0  0  0  0  0
    0.9924   -7.2494   -6.7903 C   0  0  0  0  0  0  0  0  0  0  0  0
    0.3327   -6.3722   -5.9752 O   0  0  0  0  0  0  0  0  0  0  0  0
    2.0611   -7.7922   -6.4248 O   0  0  0  0  0  0  0  0  0  0  0  0
    0.7715   -5.9656   -4.6772 C   0  0  0  0  0  0  0  0  0  0  0  0
   -1.9650   -6.8018  -10.8807 C   0  0  0  0  0  0  0  0  0  0  0  0
   -0.3253  -10.6038   -7.2050 C   0  0  0  0  0  0  0  0  0  0  0  0
    0.4949   -6.1562  -10.7297 C   0  0  0  0  0  0  0  0  0  0  0  0
   -6.4553    3.6158    4.6870 H   0  0  0  0  0  0  0  0  0  0  0  0
   -8.4852    2.7817    3.7212 H   0  0  0  0  0  0  0  0  0  0  0  0
   -8.4245    0.9574    2.1213 H   0  0  0  0  0  0  0  0  0  0  0  0
   -6.2864    0.0579    1.4030 H   0  0  0  0  0  0  0  0  0  0  0  0
   -4.2332    0.8698    2.3673 H   0  0  0  0  0  0  0  0  0  0  0  0
   -3.2233    3.1596    3.4400 H   0  0  0  0  0  0  0  0  0  0  0  0
   -3.9428    3.5520    6.1771 H   0  0  0  0  0  0  0  0  0  0  0  0
   -3.5184    7.6396    3.7806 H   0  0  0  0  0  0  0  0  0  0  0  0
   -4.3633    7.1186    2.3092 H   0  0  0  0  0  0  0  0  0  0  0  0
   -5.2820    7.3924    3.8050 H   0  0  0  0  0  0  0  0  0  0  0  0
   -5.2611    2.0136    6.6397 H   0  0  0  0  0  0  0  0  0  0  0  0
   -5.6922    0.5154    5.7742 H   0  0  0  0  0  0  0  0  0  0  0  0
   -4.5320    0.9029    8.5708 H   0  0  0  0  0  0  0  0  0  0  0  0
   -4.4389   -1.7509    7.0863 H   0  0  0  0  0  0  0  0  0  0  0  0
   -3.4404   -1.2132    8.4598 H   0  0  0  0  0  0  0  0  0  0  0  0
   -2.1258    0.2178    7.1455 H   0  0  0  0  0  0  0  0  0  0  0  0
   -6.7782   -0.9286    7.5741 H   0  0  0  0  0  0  0  0  0  0  0  0
   -6.9959    0.6502    8.3642 H   0  0  0  0  0  0  0  0  0  0  0  0
   -8.1717   -0.4348   10.2493 H   0  0  0  0  0  0  0  0  0  0  0  0
   -7.3012   -1.6887   11.1392 H   0  0  0  0  0  0  0  0  0  0  0  0
   -7.9409   -2.0507    9.5292 H   0  0  0  0  0  0  0  0  0  0  0  0
   -0.3256   -0.9990    6.0052 H   0  0  0  0  0  0  0  0  0  0  0  0
    0.0820   -2.6705    4.2121 H   0  0  0  0  0  0  0  0  0  0  0  0
   -0.4517   -3.5207    2.0417 H   0  0  0  0  0  0  0  0  0  0  0  0
   -4.3701   -3.9870    3.5121 H   0  0  0  0  0  0  0  0  0  0  0  0
   -4.8634   -5.4649    1.7457 H   0  0  0  0  0  0  0  0  0  0  0  0
    0.3366   -5.1478    0.3338 H   0  0  0  0  0  0  0  0  0  0  0  0
   -0.6197   -4.2005   -0.8110 H   0  0  0  0  0  0  0  0  0  0  0  0
   -1.5746   -7.4675   -3.0450 H   0  0  0  0  0  0  0  0  0  0  0  0
   -5.3262   -6.4681   -0.1347 H   0  0  0  0  0  0  0  0  0  0  0  0
   -6.8591   -7.7194   -1.5615 H   0  0  0  0  0  0  0  0  0  0  0  0
   -7.1973   -8.9575   -3.8379 H   0  0  0  0  0  0  0  0  0  0  0  0
   -5.8761   -9.6703   -6.1311 H   0  0  0  0  0  0  0  0  0  0  0  0
   -4.2063   -9.1361   -8.1314 H   0  0  0  0  0  0  0  0  0  0  0  0
   -0.7502   -9.9295   -9.2215 H   0  0  0  0  0  0  0  0  0  0  0  0
   -2.7701  -11.0514   -9.6808 H   0  0  0  0  0  0  0  0  0  0  0  0
   -1.9379  -12.2614   -8.6898 H   0  0  0  0  0  0  0  0  0  0  0  0
   -3.1366  -11.5910   -6.7022 H   0  0  0  0  0  0  0  0  0  0  0  0
   -4.4013  -11.4634   -7.9567 H   0  0  0  0  0  0  0  0  0  0  0  0
   -0.7188   -5.9858   -8.3730 H   0  0  0  0  0  0  0  0  0  0  0  0
    1.0403   -8.1995   -8.5445 H   0  0  0  0  0  0  0  0  0  0  0  0
   -0.3168   -8.1171  -10.4934 H   0  0  0  0  0  0  0  0  0  0  0  0
    0.0495   -5.2625   -4.2628 H   0  0  0  0  0  0  0  0  0  0  0  0
    1.7438   -5.4734   -4.7459 H   0  0  0  0  0  0  0  0  0  0  0  0
    0.8447   -6.8334   -4.0181 H   0  0  0  0  0  0  0  0  0  0  0  0
   -2.6924   -7.5858  -10.6598 H   0  0  0  0  0  0  0  0  0  0  0  0
   -1.8463   -6.7578  -11.9666 H   0  0  0  0  0  0  0  0  0  0  0  0
   -2.3664   -5.8468  -10.5348 H   0  0  0  0  0  0  0  0  0  0  0  0
   -0.7201  -10.3906   -6.2096 H   0  0  0  0  0  0  0  0  0  0  0  0
   -0.1183  -11.6713   -7.2698 H   0  0  0  0  0  0  0  0  0  0  0  0
    0.6298  -10.0945   -7.3212 H   0  0  0  0  0  0  0  0  0  0  0  0
    1.4604   -6.3770  -10.2715 H   0  0  0  0  0  0  0  0  0  0  0  0
    0.6020   -6.2700  -11.8104 H   0  0  0  0  0  0  0  0  0  0  0  0
    0.2415   -5.1160  -10.5170 H   0  0  0  0  0  0  0  0  0  0  0  0
  1  2  2  0  0  0  0 
  1  6  1  0  0  0  0 
  2  3  1  0  0  0  0 
  3  4  2  0  0  0  0 
  4  5  1  0  0  0  0 
  5  6  2  0  0  0  0 
  7  6  1  0  0  0  0 
  7  8  1  0  0  0  0 
  7  9  1  0  0  0  0 
  8 10  1  0  0  0  0 
 10 11  1  0  0  0  0 
 10 12  2  0  0  0  0 
 11 13  1  0  0  0  0 
  9 14  2  0  0  0  0 
  9 15  1  0  0  0  0 
 17 16  1  0  0  0  0 
 17 18  1  0  0  0  0 
 19 18  1  0  0  0  0 
 15 16  1  0  0  0  0 
 19 15  1  0  0  0  0 
 17 20  1  0  0  0  0 
 20 21  1  0  0  0  0 
 21 22  1  0  0  0  0 
 19 23  1  0  0  0  0 
 24 25  1  0  0  0  0 
 25 26  2  0  0  0  0 
 26 27  1  0  0  0  0 
 23 24  1  0  0  0  0 
 23 27  2  0  0  0  0 
 26 28  1  0  0  0  0 
 29 30  1  0  0  0  0 
 31 32  2  0  0  0  0 
 32 33  1  0  0  0  0 
 29 33  2  0  0  0  0 
 30 28  2  0  0  0  0 
 28 31  1  0  0  0  0 
 34 35  1  0  0  0  0 
 35 36  1  0  0  0  0 
 29 34  1  0  0  0  0 
 33 37  1  0  0  0  0 
 39 40  2  0  0  0  0 
 40 41  1  0  0  0  0 
 38 41  2  0  0  0  0 
 38 36  1  0  0  0  0 
 37 39  1  0  0  0  0 
 36 37  2  0  0  0  0 
 43 44  2  0  0  0  0 
 44 45  1  0  0  0  0 
 42 45  2  0  0  0  0 
 40 43  1  0  0  0  0 
 42 41  1  0  0  0  0 
 46 47  2  0  0  0  0 
 47 48  1  0  0  0  0 
 45 48  1  0  0  0  0 
 42 46  1  0  0  0  0 
 49 47  1  0  0  0  0 
 51 50  1  0  0  0  0 
 51 52  1  0  0  0  0 
 52 53  1  0  0  0  0 
 49 50  1  0  0  0  0 
 49 53  1  0  0  0  0 
 50 54  1  0  0  0  0 
 54 55  2  0  0  0  0 
 56 54  1  0  0  0  0 
 56 57  1  0  0  0  0 
 56 58  1  0  0  0  0 
 57 59  1  0  0  0  0 
 59 60  1  0  0  0  0 
 59 61  2  0  0  0  0 
 60 62  1  0  0  0  0 
 58 63  1  0  0  0  0 
 51 64  1  0  0  0  0 
 58 65  1  0  0  0  0 
 66  1  1  0  0  0  0 
 67  2  1  0  0  0  0 
 68  3  1  0  0  0  0 
 69  4  1  0  0  0  0 
 70  5  1  0  0  0  0 
  7 71  1  0  0  0  0 
 72  8  1  0  0  0  0 
 73 13  1  0  0  0  0 
 74 13  1  0  0  0  0 
 75 13  1  0  0  0  0 
 76 16  1  0  0  0  0 
 77 16  1  0  0  0  0 
 17 78  1  0  0  0  0 
 79 18  1  0  0  0  0 
 80 18  1  0  0  0  0 
 19 81  1  0  0  0  0 
 82 20  1  0  0  0  0 
 83 20  1  0  0  0  0 
 84 22  1  0  0  0  0 
 85 22  1  0  0  0  0 
 86 22  1  0  0  0  0 
 87 24  1  0  0  0  0 
 88 25  1  0  0  0  0 
 89 30  1  0  0  0  0 
 90 31  1  0  0  0  0 
 91 32  1  0  0  0  0 
 92 34  1  0  0  0  0 
 93 34  1  0  0  0  0 
 94 38  1  0  0  0  0 
 95 39  1  0  0  0  0 
 96 43  1  0  0  0  0 
 97 44  1  0  0  0  0 
 98 48  1  0  0  0  0 
 49 99  1  0  0  0  0 
 51100  1  0  0  0  0 
101 52  1  0  0  0  0 
102 52  1  0  0  0  0 
103 53  1  0  0  0  0 
104 53  1  0  0  0  0 
 56105  1  0  0  0  0 
106 57  1  0  0  0  0 
107 58  1  0  0  0  0 
108 62  1  0  0  0  0 
109 62  1  0  0  0  0 
110 62  1  0  0  0  0 
111 63  1  0  0  0  0 
112 63  1  0  0  0  0 
113 63  1  0  0  0  0 
114 64  1  0  0  0  0 
115 64  1  0  0  0  0 
116 64  1  0  0  0  0 
117 65  1  0  0  0  0 
118 65  1  0  0  0  0 
119 65  1  0  0  0  0 
M  END
> <cdk:Title>
velpatasvir

> <Conformer>
1

> <SuperDrugID>
SD003923

$$$$
