paclitaxel
  CDK     0628171801

113119  0  0  0  0  0  0  0  0999 V2000
    0.9383   -7.3430    2.7134 O   0  0  0  0  0  0  0  0  0  0  0  0
    1.1777   -6.4257    3.7045 C   0  0  0  0  0  0  0  0  0  0  0  0
    1.5329   -8.6150    2.3389 C   0  0  2  0  0  0  0  0  0  0  0  0
    0.3940   -5.1862    3.7214 C   0  0  0  0  0  0  0  0  0  0  0  0
    2.0350   -6.5760    4.6026 O   0  0  0  0  0  0  0  0  0  0  0  0
    2.3147   -8.4365    0.9561 C   0  0  1  0  0  0  0  0  0  0  0  0
    0.3881   -9.6544    2.4237 C   0  0  2  0  0  0  0  0  0  0  0  0
    2.1169   -9.4581    3.5060 C   0  0  1  0  0  0  0  0  0  0  0  0
    3.7327   -7.7438    1.2442 C   0  0  2  0  0  0  0  0  0  0  0  0
    2.2348   -9.6482   -0.1173 C   0  0  2  0  0  0  0  0  0  0  0  0
    0.8843  -10.1608    3.6713 O   0  0  0  0  0  0  0  0  0  0  0  0
    0.3733  -10.8056    1.3989 C   0  0  2  0  0  0  0  0  0  0  0  0
    4.0029   -7.4440    2.6396 O   0  0  0  0  0  0  0  0  0  0  0  0
    4.1563   -6.3995    0.4849 C   0  0  1  0  0  0  0  0  0  0  0  0
    3.3076  -10.7616    0.1577 C   0  0  0  0  0  0  0  0  0  0  0  0
    2.3930   -9.2327   -1.5974 C   0  0  0  0  0  0  0  0  0  0  0  0
    0.7912  -10.3165    0.0013 C   0  0  2  0  0  0  0  0  0  0  0  0
    5.0005   -7.9521    3.4436 C   0  0  0  0  0  0  0  0  0  0  0  0
    5.2013   -5.7529    1.2393 O   0  0  0  0  0  0  0  0  0  0  0  0
    4.7747   -6.6217   -0.9534 C   0  0  2  0  0  0  0  0  0  0  0  0
    2.9878   -5.3424    0.4292 C   0  0  2  0  0  0  0  0  0  0  0  0
    1.4988   -9.5312   -2.4302 O   0  0  0  0  0  0  0  0  0  0  0  0
    3.5250   -8.5103   -2.2821 C   0  0  1  0  0  0  0  0  0  0  0  0
    0.6533  -11.4550   -0.8620 O   0  0  0  0  0  0  0  0  0  0  0  0
    5.5474   -9.0382    3.1353 O   0  0  0  0  0  0  0  0  0  0  0  0
    5.4304   -7.2464    4.5981 C   0  0  0  0  0  0  0  0  0  0  0  0
    6.1114   -7.4777   -0.9125 C   0  0  0  0  0  0  0  0  0  0  0  0
    5.3182   -5.2796   -1.6138 C   0  0  0  0  0  0  0  0  0  0  0  0
    3.6262   -7.1260   -1.7663 C   0  0  0  0  0  0  0  0  0  0  0  0
    2.1814   -5.2964   -0.9186 C   0  0  1  0  0  0  0  0  0  0  0  0
    4.6948   -9.3395   -2.2920 O   0  0  0  0  0  0  0  0  0  0  0  0
    6.2035   -7.8784    5.6051 C   0  0  0  0  0  0  0  0  0  0  0  0
    5.1454   -5.8665    4.7443 C   0  0  0  0  0  0  0  0  0  0  0  0
    2.5532   -6.2941   -1.9416 C   0  0  0  0  0  0  0  0  0  0  0  0
    0.7633   -5.4444   -0.6930 O   0  0  0  0  0  0  0  0  0  0  0  0
    4.9088  -10.5006   -2.9837 C   0  0  0  0  0  0  0  0  0  0  0  0
    6.6849   -7.1535    6.7107 C   0  0  0  0  0  0  0  0  0  0  0  0
    5.6294   -5.1404    5.8477 C   0  0  0  0  0  0  0  0  0  0  0  0
    1.6906   -6.3641   -3.1351 C   0  0  0  0  0  0  0  0  0  0  0  0
   -0.1111   -4.5055   -0.2302 C   0  0  0  0  0  0  0  0  0  0  0  0
    6.2026  -11.1848   -2.8586 C   0  0  0  0  0  0  0  0  0  0  0  0
    4.0326  -10.9784   -3.7421 O   0  0  0  0  0  0  0  0  0  0  0  0
    6.4041   -5.7816    6.8295 C   0  0  0  0  0  0  0  0  0  0  0  0
   -1.5693   -4.7716   -0.2787 C   0  0  1  0  0  0  0  0  0  0  0  0
    0.3146   -3.4087    0.2017 O   0  0  0  0  0  0  0  0  0  0  0  0
   -2.0579   -5.0789   -1.7367 C   0  0  1  0  0  0  0  0  0  0  0  0
   -1.8784   -5.8285    0.6294 O   0  0  0  0  0  0  0  0  0  0  0  0
   -1.8422   -6.4603   -2.0609 N   0  0  0  0  0  0  0  0  0  0  0  0
   -3.4944   -4.6992   -1.9400 C   0  0  0  0  0  0  0  0  0  0  0  0
   -1.9065   -7.0197   -3.3026 C   0  0  0  0  0  0  0  0  0  0  0  0
   -3.8235   -3.4977   -2.6149 C   0  0  0  0  0  0  0  0  0  0  0  0
   -4.5549   -5.5156   -1.4734 C   0  0  0  0  0  0  0  0  0  0  0  0
   -2.0288   -6.2761   -4.3066 O   0  0  0  0  0  0  0  0  0  0  0  0
   -1.8519   -8.4334   -3.4652 C   0  0  0  0  0  0  0  0  0  0  0  0
   -5.1633   -3.1241   -2.8228 C   0  0  0  0  0  0  0  0  0  0  0  0
   -5.8959   -5.1502   -1.6943 C   0  0  0  0  0  0  0  0  0  0  0  0
   -2.1379   -9.3126   -2.3869 C   0  0  0  0  0  0  0  0  0  0  0  0
   -1.5316   -9.0094   -4.7212 C   0  0  0  0  0  0  0  0  0  0  0  0
   -6.2017   -3.9519   -2.3628 C   0  0  0  0  0  0  0  0  0  0  0  0
   -2.0907  -10.7086   -2.5523 C   0  0  0  0  0  0  0  0  0  0  0  0
   -1.4851  -10.4065   -4.8871 C   0  0  0  0  0  0  0  0  0  0  0  0
   -1.7577  -11.2564   -3.8007 C   0  0  0  0  0  0  0  0  0  0  0  0
    1.0573   -4.3312    3.8638 H   0  0  0  0  0  0  0  0  0  0  0  0
   -0.1421   -5.0604    2.7805 H   0  0  0  0  0  0  0  0  0  0  0  0
   -0.3278   -5.2207    4.5382 H   0  0  0  0  0  0  0  0  0  0  0  0
    1.7094   -7.6862    0.4535 H   0  0  0  0  0  0  0  0  0  0  0  0
   -0.6090   -9.2134    2.5414 H   0  0  0  0  0  0  0  0  0  0  0  0
    2.9200  -10.1334    3.2120 H   0  0  0  0  0  0  0  0  0  0  0  0
    2.3777   -8.9296    4.4190 H   0  0  0  0  0  0  0  0  0  0  0  0
    4.4574   -8.4930    0.9967 H   0  0  0  0  0  0  0  0  0  0  0  0
   -0.6387  -11.2200    1.3540 H   0  0  0  0  0  0  0  0  0  0  0  0
    1.0319  -11.6179    1.7134 H   0  0  0  0  0  0  0  0  0  0  0  0
    3.1414  -11.6406   -0.4663 H   0  0  0  0  0  0  0  0  0  0  0  0
    3.2856  -11.0914    1.1913 H   0  0  0  0  0  0  0  0  0  0  0  0
    4.3216  -10.4293   -0.0474 H   0  0  0  0  0  0  0  0  0  0  0  0
    0.0392   -9.5821   -0.3134 H   0  0  0  0  0  0  0  0  0  0  0  0
    5.9008   -6.4287    1.3605 H   0  0  0  0  0  0  0  0  0  0  0  0
    3.3898   -4.3387    0.5906 H   0  0  0  0  0  0  0  0  0  0  0  0
    2.3122   -5.5038    1.2672 H   0  0  0  0  0  0  0  0  0  0  0  0
    3.3291   -8.4067   -3.3564 H   0  0  0  0  0  0  0  0  0  0  0  0
   -0.2851  -11.7227   -0.7906 H   0  0  0  0  0  0  0  0  0  0  0  0
    6.5002   -7.6423   -1.9210 H   0  0  0  0  0  0  0  0  0  0  0  0
    6.0042   -8.4511   -0.4486 H   0  0  0  0  0  0  0  0  0  0  0  0
    6.9002   -6.9726   -0.3508 H   0  0  0  0  0  0  0  0  0  0  0  0
    4.5881   -4.4797   -1.6677 H   0  0  0  0  0  0  0  0  0  0  0  0
    6.1588   -4.8643   -1.0542 H   0  0  0  0  0  0  0  0  0  0  0  0
    5.6550   -5.4585   -2.6387 H   0  0  0  0  0  0  0  0  0  0  0  0
    2.3205   -4.3132   -1.3801 H   0  0  0  0  0  0  0  0  0  0  0  0
    6.4303   -8.8744    5.5441 H   0  0  0  0  0  0  0  0  0  0  0  0
    4.5954   -5.3679    4.0406 H   0  0  0  0  0  0  0  0  0  0  0  0
    7.2416   -7.6260    7.4262 H   0  0  0  0  0  0  0  0  0  0  0  0
    5.4204   -4.1435    5.9297 H   0  0  0  0  0  0  0  0  0  0  0  0
    1.1043   -5.4525   -3.2727 H   0  0  0  0  0  0  0  0  0  0  0  0
    2.2975   -6.4709   -4.0366 H   0  0  0  0  0  0  0  0  0  0  0  0
    0.9922   -7.1936   -3.0721 H   0  0  0  0  0  0  0  0  0  0  0  0
    6.8425  -10.6837   -2.1285 H   0  0  0  0  0  0  0  0  0  0  0  0
    6.7050  -11.1801   -3.8272 H   0  0  0  0  0  0  0  0  0  0  0  0
    6.0513  -12.2167   -2.5376 H   0  0  0  0  0  0  0  0  0  0  0  0
    6.7617   -5.2493    7.6260 H   0  0  0  0  0  0  0  0  0  0  0  0
   -2.0863   -3.8782    0.0874 H   0  0  0  0  0  0  0  0  0  0  0  0
   -1.4401   -4.4898   -2.4252 H   0  0  0  0  0  0  0  0  0  0  0  0
   -2.8556   -5.9017    0.6089 H   0  0  0  0  0  0  0  0  0  0  0  0
   -1.6734   -7.0607   -1.3196 H   0  0  0  0  0  0  0  0  0  0  0  0
   -3.0867   -2.8779   -2.9582 H   0  0  0  0  0  0  0  0  0  0  0  0
   -4.3590   -6.3885   -0.9776 H   0  0  0  0  0  0  0  0  0  0  0  0
   -5.3785   -2.2490   -3.3065 H   0  0  0  0  0  0  0  0  0  0  0  0
   -6.6501   -5.7568   -1.3673 H   0  0  0  0  0  0  0  0  0  0  0  0
   -2.3943   -8.9526   -1.4645 H   0  0  0  0  0  0  0  0  0  0  0  0
   -1.3242   -8.4170   -5.5310 H   0  0  0  0  0  0  0  0  0  0  0  0
   -7.1771   -3.6839   -2.5116 H   0  0  0  0  0  0  0  0  0  0  0  0
   -2.2977  -11.3274   -1.7642 H   0  0  0  0  0  0  0  0  0  0  0  0
   -1.2520  -10.8027   -5.7997 H   0  0  0  0  0  0  0  0  0  0  0  0
   -1.7168  -12.2714   -3.9129 H   0  0  0  0  0  0  0  0  0  0  0  0
  1  2  1  0  0  0  0 
  2  4  1  0  0  0  0 
  2  5  2  0  0  0  0 
  3  1  1  0  0  0  0 
  6  3  1  0  0  0  0 
  3  7  1  0  0  0  0 
  3  8  1  0  0  0  0 
  6  9  1  0  0  0  0 
  6 10  1  0  0  0  0 
  7 11  1  0  0  0  0 
  7 12  1  0  0  0  0 
  8 11  1  0  0  0  0 
  9 13  1  0  0  0  0 
  9 14  1  0  0  0  0 
 10 15  1  0  0  0  0 
 10 16  1  0  0  0  0 
 10 17  1  0  0  0  0 
 17 12  1  0  0  0  0 
 13 18  1  0  0  0  0 
 14 19  1  0  0  0  0 
 14 20  1  0  0  0  0 
 14 21  1  0  0  0  0 
 16 22  2  0  0  0  0 
 23 16  1  0  0  0  0 
 17 24  1  0  0  0  0 
 18 25  2  0  0  0  0 
 18 26  1  0  0  0  0 
 20 27  1  0  0  0  0 
 20 28  1  0  0  0  0 
 20 29  1  0  0  0  0 
 30 21  1  0  0  0  0 
 23 29  1  0  0  0  0 
 23 31  1  0  0  0  0 
 26 32  2  0  0  0  0 
 26 33  1  0  0  0  0 
 29 34  2  0  0  0  0 
 30 34  1  0  0  0  0 
 30 35  1  0  0  0  0 
 31 36  1  0  0  0  0 
 32 37  1  0  0  0  0 
 33 38  2  0  0  0  0 
 34 39  1  0  0  0  0 
 35 40  1  0  0  0  0 
 36 41  1  0  0  0  0 
 36 42  2  0  0  0  0 
 37 43  2  0  0  0  0 
 38 43  1  0  0  0  0 
 44 40  1  0  0  0  0 
 40 45  2  0  0  0  0 
 44 46  1  0  0  0  0 
 44 47  1  0  0  0  0 
 46 48  1  0  0  0  0 
 46 49  1  0  0  0  0 
 48 50  1  0  0  0  0 
 49 51  2  0  0  0  0 
 49 52  1  0  0  0  0 
 50 53  2  0  0  0  0 
 50 54  1  0  0  0  0 
 51 55  1  0  0  0  0 
 52 56  2  0  0  0  0 
 54 57  2  0  0  0  0 
 54 58  1  0  0  0  0 
 55 59  2  0  0  0  0 
 56 59  1  0  0  0  0 
 57 60  1  0  0  0  0 
 58 61  2  0  0  0  0 
 60 62  2  0  0  0  0 
 61 62  1  0  0  0  0 
 63  4  1  0  0  0  0 
 64  4  1  0  0  0  0 
 65  4  1  0  0  0  0 
  6 66  1  0  0  0  0 
  7 67  1  0  0  0  0 
 68  8  1  0  0  0  0 
 69  8  1  0  0  0  0 
  9 70  1  0  0  0  0 
 71 12  1  0  0  0  0 
 72 12  1  0  0  0  0 
 73 15  1  0  0  0  0 
 74 15  1  0  0  0  0 
 75 15  1  0  0  0  0 
 17 76  1  0  0  0  0 
 77 19  1  0  0  0  0 
 78 21  1  0  0  0  0 
 79 21  1  0  0  0  0 
 23 80  1  0  0  0  0 
 81 24  1  0  0  0  0 
 82 27  1  0  0  0  0 
 83 27  1  0  0  0  0 
 84 27  1  0  0  0  0 
 85 28  1  0  0  0  0 
 86 28  1  0  0  0  0 
 87 28  1  0  0  0  0 
 30 88  1  0  0  0  0 
 89 32  1  0  0  0  0 
 90 33  1  0  0  0  0 
 91 37  1  0  0  0  0 
 92 38  1  0  0  0  0 
 93 39  1  0  0  0  0 
 94 39  1  0  0  0  0 
 95 39  1  0  0  0  0 
 96 41  1  0  0  0  0 
 97 41  1  0  0  0  0 
 98 41  1  0  0  0  0 
 99 43  1  0  0  0  0 
 44100  1  0  0  0  0 
 46101  1  0  0  0  0 
102 47  1  0  0  0  0 
103 48  1  0  0  0  0 
104 51  1  0  0  0  0 
105 52  1  0  0  0  0 
106 55  1  0  0  0  0 
107 56  1  0  0  0  0 
108 57  1  0  0  0  0 
109 58  1  0  0  0  0 
110 59  1  0  0  0  0 
111 60  1  0  0  0  0 
112 61  1  0  0  0  0 
113 62  1  0  0  0  0 
M  END
> <cdk:Title>
paclitaxel

> <Conformer>
1

> <SuperDrugID>
SD001831

$$$$
