oxaceprol
  CDK     0628171801

 23 23  0  0  0  0  0  0  0  0999 V2000
    3.5779    0.2703   -1.5791 C   0  0  0  0  0  0  0  0  0  0  0  0
    3.1759    0.4680   -2.8568 O   0  0  0  0  0  0  0  0  0  0  0  0
    4.3876    1.0827   -1.0786 O   0  0  0  0  0  0  0  0  0  0  0  0
    3.0722   -0.8771   -0.7866 C   0  0  1  0  0  0  0  0  0  0  0  0
    1.6346   -0.9980   -0.7212 N   0  0  0  0  0  0  0  0  0  0  0  0
    3.5486   -2.2241   -1.3795 C   0  0  1  0  0  0  0  0  0  0  0  0
    0.7780    0.0258   -0.3537 C   0  0  0  0  0  0  0  0  0  0  0  0
    1.1806   -2.3213   -1.0390 C   0  0  2  0  0  0  0  0  0  0  0  0
    2.4380   -3.2044   -0.9782 C   0  0  2  0  0  0  0  0  0  0  0  0
   -0.6922   -0.1343   -0.2803 C   0  0  0  0  0  0  0  0  0  0  0  0
    1.2379    1.1526   -0.0529 O   0  0  0  0  0  0  0  0  0  0  0  0
    2.6574   -3.6974    0.3452 O   0  0  0  0  0  0  0  0  0  0  0  0
    3.5253    1.2274   -3.3683 H   0  0  0  0  0  0  0  0  0  0  0  0
    3.4431   -0.8019    0.2426 H   0  0  0  0  0  0  0  0  0  0  0  0
    3.6062   -2.1848   -2.4725 H   0  0  0  0  0  0  0  0  0  0  0  0
    4.5236   -2.5219   -0.9855 H   0  0  0  0  0  0  0  0  0  0  0  0
    0.7536   -2.3287   -2.0472 H   0  0  0  0  0  0  0  0  0  0  0  0
    0.4329   -2.6924   -0.3305 H   0  0  0  0  0  0  0  0  0  0  0  0
    2.3738   -4.0479   -1.6693 H   0  0  0  0  0  0  0  0  0  0  0  0
   -1.1815    0.8054   -0.0143 H   0  0  0  0  0  0  0  0  0  0  0  0
   -1.0806   -0.4632   -1.2472 H   0  0  0  0  0  0  0  0  0  0  0  0
   -0.9455   -0.8767    0.4781 H   0  0  0  0  0  0  0  0  0  0  0  0
    1.8710   -4.2477    0.5462 H   0  0  0  0  0  0  0  0  0  0  0  0
  1  2  1  0  0  0  0 
  1  3  2  0  0  0  0 
  4  1  1  0  0  0  0 
  4  5  1  0  0  0  0 
  4  6  1  0  0  0  0 
  5  7  1  0  0  0  0 
  5  8  1  0  0  0  0 
  9  6  1  0  0  0  0 
  7 10  1  0  0  0  0 
  7 11  2  0  0  0  0 
  9  8  1  0  0  0  0 
  9 12  1  0  0  0  0 
  2 13  1  0  0  0  0 
  4 14  1  0  0  0  0 
  6 15  1  0  0  0  0 
  6 16  1  0  0  0  0 
  8 17  1  0  0  0  0 
  8 18  1  0  0  0  0 
  9 19  1  0  0  0  0 
 10 20  1  0  0  0  0 
 10 21  1  0  0  0  0 
 10 22  1  0  0  0  0 
 12 23  1  0  0  0  0 
M  END
> <cdk:Title>
oxaceprol

> <Conformer>
1

> <SuperDrugID>
SD001794

$$$$
