fenticonazole
  CDK     0628171801

 50 53  0  0  0  0  0  0  0  0999 V2000
    1.9695   -1.5839   -2.3114 C   0  0  0  0  0  0  0  0  0  0  0  0
    1.2244   -2.0995   -3.3879 C   0  0  0  0  0  0  0  0  0  0  0  0
   -0.1812   -2.1181   -3.3251 C   0  0  0  0  0  0  0  0  0  0  0  0
   -0.8412   -1.6478   -2.1746 C   0  0  0  0  0  0  0  0  0  0  0  0
   -0.0964   -1.1568   -1.0829 C   0  0  0  0  0  0  0  0  0  0  0  0
    1.3107   -1.1117   -1.1610 C   0  0  0  0  0  0  0  0  0  0  0  0
   -0.9229   -0.5925    0.3634 S   0  0  0  0  0  0  0  0  0  0  0  0
   -1.1141   -2.0129    1.3877 C   0  0  0  0  0  0  0  0  0  0  0  0
   -2.4054   -2.4327    1.7630 C   0  0  0  0  0  0  0  0  0  0  0  0
   -2.5758   -3.5653    2.5799 C   0  0  0  0  0  0  0  0  0  0  0  0
   -1.4590   -4.3041    3.0327 C   0  0  0  0  0  0  0  0  0  0  0  0
   -0.1644   -3.8548    2.6765 C   0  0  0  0  0  0  0  0  0  0  0  0
    0.0074   -2.7276    1.8532 C   0  0  0  0  0  0  0  0  0  0  0  0
   -1.6428   -5.5336    3.8456 C   0  0  2  0  0  0  0  0  0  0  0  0
   -1.3675   -5.2417    5.2307 O   0  0  0  0  0  0  0  0  0  0  0  0
   -1.5371   -6.3224    6.1851 C   0  0  1  0  0  0  0  0  0  0  0  0
   -0.3484   -7.3332    6.1488 C   0  0  1  0  0  0  0  0  0  0  0  0
   -1.6754   -5.7925    7.5833 C   0  0  0  0  0  0  0  0  0  0  0  0
   -1.0036   -4.5989    7.9522 C   0  0  0  0  0  0  0  0  0  0  0  0
   -1.0022   -4.1382    9.2794 C   0  0  0  0  0  0  0  0  0  0  0  0
   -1.6768   -4.8641   10.2755 C   0  0  0  0  0  0  0  0  0  0  0  0
   -2.3794   -6.0315    9.9282 C   0  0  0  0  0  0  0  0  0  0  0  0
   -2.3908   -6.4953    8.5957 C   0  0  0  0  0  0  0  0  0  0  0  0
   -3.2625   -7.9239    8.2965 Cl  0  0  0  0  0  0  0  0  0  0  0  0
   -1.6351   -4.3455   11.8861 Cl  0  0  0  0  0  0  0  0  0  0  0  0
    0.9248   -6.7097    6.3905 N   0  0  0  0  0  0  0  0  0  0  0  0
    1.6907   -6.0772    5.4863 C   0  0  0  0  0  0  0  0  0  0  0  0
    2.8089   -5.5907    6.1456 C   0  0  0  0  0  0  0  0  0  0  0  0
    2.7245   -5.9403    7.4362 N   0  0  0  0  0  0  0  0  0  0  0  0
    1.5751   -6.6246    7.5700 C   0  0  0  0  0  0  0  0  0  0  0  0
   -2.4590   -6.8538    5.9267 H   0  0  0  0  0  0  0  0  0  0  0  0
    2.9899   -1.5533   -2.3648 H   0  0  0  0  0  0  0  0  0  0  0  0
    1.7041   -2.4579   -4.2167 H   0  0  0  0  0  0  0  0  0  0  0  0
   -0.7227   -2.4742   -4.1156 H   0  0  0  0  0  0  0  0  0  0  0  0
   -1.8629   -1.6679   -2.1372 H   0  0  0  0  0  0  0  0  0  0  0  0
    1.8608   -0.7412   -0.3829 H   0  0  0  0  0  0  0  0  0  0  0  0
   -3.2295   -1.9220    1.4451 H   0  0  0  0  0  0  0  0  0  0  0  0
   -3.5230   -3.8507    2.8428 H   0  0  0  0  0  0  0  0  0  0  0  0
    0.6673   -4.3489    3.0027 H   0  0  0  0  0  0  0  0  0  0  0  0
    0.9530   -2.4326    1.5975 H   0  0  0  0  0  0  0  0  0  0  0  0
   -0.9746   -6.3087    3.4631 H   0  0  0  0  0  0  0  0  0  0  0  0
   -2.6664   -5.9050    3.7460 H   0  0  0  0  0  0  0  0  0  0  0  0
   -0.5203   -8.1156    6.8949 H   0  0  0  0  0  0  0  0  0  0  0  0
   -0.3316   -7.8427    5.1829 H   0  0  0  0  0  0  0  0  0  0  0  0
   -0.4775   -4.0610    7.2590 H   0  0  0  0  0  0  0  0  0  0  0  0
   -0.4970   -3.2796    9.5119 H   0  0  0  0  0  0  0  0  0  0  0  0
   -2.8780   -6.5510   10.6554 H   0  0  0  0  0  0  0  0  0  0  0  0
    1.4912   -5.9662    4.4927 H   0  0  0  0  0  0  0  0  0  0  0  0
    3.5678   -5.0539    5.7239 H   0  0  0  0  0  0  0  0  0  0  0  0
    1.2413   -7.0124    8.4551 H   0  0  0  0  0  0  0  0  0  0  0  0
  1  2  2  0  0  0  0 
  2  3  1  0  0  0  0 
  3  4  2  0  0  0  0 
  4  5  1  0  0  0  0 
  5  6  2  0  0  0  0 
  1  6  1  0  0  0  0 
  5  7  1  0  0  0  0 
  7  8  1  0  0  0  0 
  9 10  1  0  0  0  0 
 10 11  2  0  0  0  0 
 11 12  1  0  0  0  0 
 12 13  2  0  0  0  0 
  8  9  2  0  0  0  0 
  8 13  1  0  0  0  0 
 11 14  1  0  0  0  0 
 14 15  1  0  0  0  0 
 16 15  1  0  0  0  0 
 16 17  1  0  0  0  0 
 16 18  1  0  0  0  0 
 19 20  1  0  0  0  0 
 20 21  2  0  0  0  0 
 21 22  1  0  0  0  0 
 22 23  2  0  0  0  0 
 18 19  2  0  0  0  0 
 18 23  1  0  0  0  0 
 23 24  1  0  0  0  0 
 21 25  1  0  0  0  0 
 17 26  1  0  0  0  0 
 27 28  2  0  0  0  0 
 28 29  1  0  0  0  0 
 29 30  2  0  0  0  0 
 26 27  1  0  0  0  0 
 26 30  1  0  0  0  0 
 16 31  1  0  0  0  0 
  1 32  1  0  0  0  0 
  2 33  1  0  0  0  0 
  3 34  1  0  0  0  0 
  4 35  1  0  0  0  0 
  6 36  1  0  0  0  0 
  9 37  1  0  0  0  0 
 10 38  1  0  0  0  0 
 12 39  1  0  0  0  0 
 13 40  1  0  0  0  0 
 14 41  1  0  0  0  0 
 14 42  1  0  0  0  0 
 17 43  1  0  0  0  0 
 17 44  1  0  0  0  0 
 19 45  1  0  0  0  0 
 20 46  1  0  0  0  0 
 22 47  1  0  0  0  0 
 27 48  1  0  0  0  0 
 28 49  1  0  0  0  0 
 30 50  1  0  0  0  0 
M  END
> <cdk:Title>
fenticonazole

> <Conformer>
1

> <SuperDrugID>
SD001043

$$$$
