acetarsol
  CDK     0628171802

 25 25  0  0  0  0  0  0  0  0999 V2000
    2.1965    3.1237    0.1138 N   0  0  0  0  0  0  0  0  0  0  0  0
    2.5786    3.1781   -1.1934 C   0  0  0  0  0  0  0  0  0  0  0  0
    1.2625    2.3165    0.7010 C   0  0  0  0  0  0  0  0  0  0  0  0
    3.5768    4.1768   -1.6100 C   0  0  0  0  0  0  0  0  0  0  0  0
    2.0806    2.4485   -2.0822 O   0  0  0  0  0  0  0  0  0  0  0  0
    0.9559    1.0053    0.2593 C   0  0  0  0  0  0  0  0  0  0  0  0
    0.5760    2.8335    1.8262 C   0  0  0  0  0  0  0  0  0  0  0  0
   -0.0446    0.2457    0.8974 C   0  0  0  0  0  0  0  0  0  0  0  0
    0.8342    4.0929    2.2718 O   0  0  0  0  0  0  0  0  0  0  0  0
   -0.3959    2.0554    2.4860 C   0  0  0  0  0  0  0  0  0  0  0  0
   -0.5053   -1.4850    0.2272 As  0  0  1  0  0  0  0  0  0  0  0  0
   -0.7093    0.7681    2.0208 C   0  0  0  0  0  0  0  0  0  0  0  0
   -1.0667   -1.3560   -1.4394 O   0  0  0  0  0  0  0  0  0  0  0  0
    0.9967   -2.5868    0.2795 O   0  0  0  0  0  0  0  0  0  0  0  0
   -1.8544   -2.2470    1.2666 O   0  0  0  0  0  0  0  0  0  0  0  0
    2.6132    3.7787    0.6953 H   0  0  0  0  0  0  0  0  0  0  0  0
    3.9530    4.7427   -0.7562 H   0  0  0  0  0  0  0  0  0  0  0  0
    4.4205    3.6859   -2.0969 H   0  0  0  0  0  0  0  0  0  0  0  0
    3.1209    4.8767   -2.3120 H   0  0  0  0  0  0  0  0  0  0  0  0
    1.4642    0.5891   -0.5226 H   0  0  0  0  0  0  0  0  0  0  0  0
    0.0763    4.3364    2.8437 H   0  0  0  0  0  0  0  0  0  0  0  0
   -0.8841    2.4270    3.3043 H   0  0  0  0  0  0  0  0  0  0  0  0
   -1.4238    0.2173    2.5006 H   0  0  0  0  0  0  0  0  0  0  0  0
    0.6864   -3.4414   -0.0862 H   0  0  0  0  0  0  0  0  0  0  0  0
   -2.0221   -3.1225    0.8586 H   0  0  0  0  0  0  0  0  0  0  0  0
  1  2  1  0  0  0  0 
  1  3  1  0  0  0  0 
  2  4  1  0  0  0  0 
  2  5  2  0  0  0  0 
  3  6  2  0  0  0  0 
  3  7  1  0  0  0  0 
  6  8  1  0  0  0  0 
  7  9  1  0  0  0  0 
  7 10  2  0  0  0  0 
  8 11  1  0  0  0  0 
  8 12  2  0  0  0  0 
 10 12  1  0  0  0  0 
 11 13  2  0  0  0  0 
 11 14  1  0  0  0  0 
 11 15  1  0  0  0  0 
  1 16  1  0  0  0  0 
  4 17  1  0  0  0  0 
  4 18  1  0  0  0  0 
  4 19  1  0  0  0  0 
  6 20  1  0  0  0  0 
  9 21  1  0  0  0  0 
 10 22  1  0  0  0  0 
 12 23  1  0  0  0  0 
 14 24  1  0  0  0  0 
 15 25  1  0  0  0  0 
M  END
> <cdk:Title>
acetarsol

> <Conformer>
1

> <SuperDrugID>
SD000032

$$$$
