methylprednisolone
  CDK     0628171801

 57 60  0  0  0  0  0  0  0  0999 V2000
    0.6979   -3.7323   -1.1251 C   0  0  0  0  0  0  0  0  0  0  0  0
    1.0913   -3.1000    0.2708 C   0  0  2  0  0  0  0  0  0  0  0  0
    1.2557   -4.1441    1.4232 C   0  0  2  0  0  0  0  0  0  0  0  0
   -0.1179   -2.2511    0.8349 C   0  0  2  0  0  0  0  0  0  0  0  0
    2.4734   -2.3630    0.1538 C   0  0  2  0  0  0  0  0  0  0  0  0
    2.3383   -5.2346    1.1361 C   0  0  1  0  0  0  0  0  0  0  0  0
   -0.1852   -4.5914    1.7438 C   0  0  1  0  0  0  0  0  0  0  0  0
   -0.7756   -1.3205   -0.1444 C   0  0  0  0  0  0  0  0  0  0  0  0
    0.3008   -1.4304    1.9363 O   0  0  0  0  0  0  0  0  0  0  0  0
   -1.0603   -3.3461    1.4503 C   0  0  2  0  0  0  0  0  0  0  0  0
    3.6869   -3.3243   -0.0660 C   0  0  1  0  0  0  0  0  0  0  0  0
    3.7478   -4.5636    0.9105 C   0  0  2  0  0  0  0  0  0  0  0  0
    2.4349   -6.2894    2.2780 C   0  0  1  0  0  0  0  0  0  0  0  0
   -0.1472   -0.0731   -0.6340 C   0  0  1  0  0  0  0  0  0  0  0  0
   -1.9085   -1.5818   -0.6150 O   0  0  0  0  0  0  0  0  0  0  0  0
    3.7433   -3.7033   -1.4361 O   0  0  0  0  0  0  0  0  0  0  0  0
    4.8915   -5.6445    0.6415 C   0  0  2  0  0  0  0  0  0  0  0  0
    3.5315   -7.3558    1.9869 C   0  0  1  0  0  0  0  0  0  0  0  0
    0.4240   -0.2759   -1.9213 O   0  0  0  0  0  0  0  0  0  0  0  0
    4.7648   -6.4080   -0.7307 C   0  0  0  0  0  0  0  0  0  0  0  0
    4.8265   -6.6631    1.7520 C   0  0  0  0  0  0  0  0  0  0  0  0
    6.2043   -4.9542    0.5707 C   0  0  0  0  0  0  0  0  0  0  0  0
    3.4530   -8.4799    3.0639 C   0  0  0  0  0  0  0  0  0  0  0  0
    5.9164   -6.9004    2.5212 C   0  0  0  0  0  0  0  0  0  0  0  0
    7.2386   -5.2552    1.3676 C   0  0  0  0  0  0  0  0  0  0  0  0
    7.1178   -6.2386    2.3251 C   0  0  0  0  0  0  0  0  0  0  0  0
    8.1119   -6.5294    3.0300 O   0  0  0  0  0  0  0  0  0  0  0  0
    2.0386   -5.7787    0.2419 H   0  0  0  0  0  0  0  0  0  0  0  0
    4.0031   -4.1131    1.8800 H   0  0  0  0  0  0  0  0  0  0  0  0
    1.6057   -3.6201    2.3243 H   0  0  0  0  0  0  0  0  0  0  0  0
    1.3972   -4.4897   -1.4666 H   0  0  0  0  0  0  0  0  0  0  0  0
   -0.2854   -4.2027   -1.0997 H   0  0  0  0  0  0  0  0  0  0  0  0
    0.6687   -2.9650   -1.8975 H   0  0  0  0  0  0  0  0  0  0  0  0
    2.6704   -1.7944    1.0674 H   0  0  0  0  0  0  0  0  0  0  0  0
    2.4458   -1.6403   -0.6651 H   0  0  0  0  0  0  0  0  0  0  0  0
   -0.4753   -5.4310    1.1032 H   0  0  0  0  0  0  0  0  0  0  0  0
   -0.2684   -4.8927    2.7921 H   0  0  0  0  0  0  0  0  0  0  0  0
   -0.5224   -1.0174    2.2730 H   0  0  0  0  0  0  0  0  0  0  0  0
   -1.8570   -3.6381    0.7603 H   0  0  0  0  0  0  0  0  0  0  0  0
   -1.5422   -2.9904    2.3667 H   0  0  0  0  0  0  0  0  0  0  0  0
    4.5830   -2.7223    0.1006 H   0  0  0  0  0  0  0  0  0  0  0  0
    2.6540   -5.7926    3.2287 H   0  0  0  0  0  0  0  0  0  0  0  0
    1.4671   -6.7873    2.3814 H   0  0  0  0  0  0  0  0  0  0  0  0
   -0.9028    0.7114   -0.7124 H   0  0  0  0  0  0  0  0  0  0  0  0
    0.6275    0.2833    0.0463 H   0  0  0  0  0  0  0  0  0  0  0  0
    3.8826   -2.8661   -1.9268 H   0  0  0  0  0  0  0  0  0  0  0  0
    3.2600   -7.8700    1.0614 H   0  0  0  0  0  0  0  0  0  0  0  0
    0.7837    0.6000   -2.1755 H   0  0  0  0  0  0  0  0  0  0  0  0
    5.0366   -5.7881   -1.5866 H   0  0  0  0  0  0  0  0  0  0  0  0
    3.7533   -6.7616   -0.9159 H   0  0  0  0  0  0  0  0  0  0  0  0
    5.4231   -7.2802   -0.7497 H   0  0  0  0  0  0  0  0  0  0  0  0
    6.3472   -4.2431   -0.1103 H   0  0  0  0  0  0  0  0  0  0  0  0
    2.4575   -8.9293    3.0710 H   0  0  0  0  0  0  0  0  0  0  0  0
    3.6534   -8.0815    4.0591 H   0  0  0  0  0  0  0  0  0  0  0  0
    4.1688   -9.2731    2.8444 H   0  0  0  0  0  0  0  0  0  0  0  0
    5.8817   -7.5584    3.2616 H   0  0  0  0  0  0  0  0  0  0  0  0
    8.0990   -4.7663    1.2610 H   0  0  0  0  0  0  0  0  0  0  0  0
  2  1  1  0  0  0  0 
  3  2  1  0  0  0  0 
  2  4  1  0  0  0  0 
  2  5  1  0  0  0  0 
  6  3  1  0  0  0  0 
  3  7  1  0  0  0  0 
  3 30  1  0  0  0  0 
  4  8  1  0  0  0  0 
  4  9  1  0  0  0  0 
  4 10  1  0  0  0  0 
 11  5  1  0  0  0  0 
 12  6  1  0  0  0  0 
  6 13  1  0  0  0  0 
  6 28  1  0  0  0  0 
  7 10  1  0  0  0  0 
  8 14  1  0  0  0  0 
  8 15  2  0  0  0  0 
 12 11  1  0  0  0  0 
 11 16  1  0  0  0  0 
 12 17  1  0  0  0  0 
 12 29  1  0  0  0  0 
 18 13  1  0  0  0  0 
 14 19  1  0  0  0  0 
 17 20  1  0  0  0  0 
 17 21  1  0  0  0  0 
 17 22  1  0  0  0  0 
 18 21  1  0  0  0  0 
 18 23  1  0  0  0  0 
 21 24  2  0  0  0  0 
 22 25  2  0  0  0  0 
 24 26  1  0  0  0  0 
 25 26  1  0  0  0  0 
 26 27  2  0  0  0  0 
  1 31  1  0  0  0  0 
  1 32  1  0  0  0  0 
  1 33  1  0  0  0  0 
  5 34  1  0  0  0  0 
  5 35  1  0  0  0  0 
  7 36  1  0  0  0  0 
  7 37  1  0  0  0  0 
  9 38  1  0  0  0  0 
 10 39  1  0  0  0  0 
 10 40  1  0  0  0  0 
 11 41  1  0  0  0  0 
 13 42  1  0  0  0  0 
 13 43  1  0  0  0  0 
 14 44  1  0  0  0  0 
 14 45  1  0  0  0  0 
 16 46  1  0  0  0  0 
 18 47  1  0  0  0  0 
 19 48  1  0  0  0  0 
 20 49  1  0  0  0  0 
 20 50  1  0  0  0  0 
 20 51  1  0  0  0  0 
 22 52  1  0  0  0  0 
 23 53  1  0  0  0  0 
 23 54  1  0  0  0  0 
 23 55  1  0  0  0  0 
 24 56  1  0  0  0  0 
 25 57  1  0  0  0  0 
M  END
> <cdk:Title>
methylprednisolone

> <Conformer>
1

> <SuperDrugID>
SD001568

$$$$
