prozapine
  CDK     0628171801

 49 51  0  0  0  0  0  0  0  0999 V2000
   -2.1912    3.6389   -0.6861 C   0  0  1  0  0  0  0  0  0  0  0  0
   -0.6321    3.4786   -0.6471 C   0  0  2  0  0  0  0  0  0  0  0  0
   -2.7514    4.7123    0.2032 C   0  0  0  0  0  0  0  0  0  0  0  0
   -2.7130    3.7766   -2.0844 C   0  0  0  0  0  0  0  0  0  0  0  0
   -0.1051    2.1582   -1.2874 C   0  0  2  0  0  0  0  0  0  0  0  0
   -2.1293    5.9770    0.3585 C   0  0  0  0  0  0  0  0  0  0  0  0
   -3.9564    4.4794    0.9159 C   0  0  0  0  0  0  0  0  0  0  0  0
   -3.5091    2.7544   -2.6593 C   0  0  0  0  0  0  0  0  0  0  0  0
   -2.4250    4.9196   -2.8731 C   0  0  0  0  0  0  0  0  0  0  0  0
   -0.7931    0.9204   -0.8046 N   0  0  0  0  0  0  0  0  0  0  0  0
   -2.6788    6.9589    1.2030 C   0  0  0  0  0  0  0  0  0  0  0  0
   -4.4985    5.4553    1.7726 C   0  0  0  0  0  0  0  0  0  0  0  0
   -4.0184    2.8810   -3.9644 C   0  0  0  0  0  0  0  0  0  0  0  0
   -2.9422    5.0519   -4.1740 C   0  0  0  0  0  0  0  0  0  0  0  0
   -0.6916    0.5500    0.6407 C   0  0  1  0  0  0  0  0  0  0  0  0
   -0.9262   -0.2145   -1.7647 C   0  0  2  0  0  0  0  0  0  0  0  0
   -3.8573    6.6958    1.9204 C   0  0  0  0  0  0  0  0  0  0  0  0
   -3.7425    4.0338   -4.7184 C   0  0  0  0  0  0  0  0  0  0  0  0
    0.6239   -0.1418    1.0723 C   0  0  2  0  0  0  0  0  0  0  0  0
    0.3891   -0.9133   -2.2106 C   0  0  2  0  0  0  0  0  0  0  0  0
    0.9493   -1.4558    0.3119 C   0  0  2  0  0  0  0  0  0  0  0  0
    1.4650   -1.2204   -1.1309 C   0  0  2  0  0  0  0  0  0  0  0  0
   -2.5653    2.7013   -0.2655 H   0  0  0  0  0  0  0  0  0  0  0  0
   -0.2853    3.5251    0.3879 H   0  0  0  0  0  0  0  0  0  0  0  0
   -0.1551    4.3154   -1.1657 H   0  0  0  0  0  0  0  0  0  0  0  0
    0.9668    2.0692   -1.1033 H   0  0  0  0  0  0  0  0  0  0  0  0
   -0.2386    2.2569   -2.3680 H   0  0  0  0  0  0  0  0  0  0  0  0
   -1.2674    6.2023   -0.1409 H   0  0  0  0  0  0  0  0  0  0  0  0
   -4.4534    3.5905    0.8158 H   0  0  0  0  0  0  0  0  0  0  0  0
   -3.7245    1.9040   -2.1326 H   0  0  0  0  0  0  0  0  0  0  0  0
   -1.8357    5.6703   -2.5092 H   0  0  0  0  0  0  0  0  0  0  0  0
   -2.2175    7.8662    1.2947 H   0  0  0  0  0  0  0  0  0  0  0  0
   -5.3601    5.2629    2.2873 H   0  0  0  0  0  0  0  0  0  0  0  0
   -4.5917    2.1354   -4.3640 H   0  0  0  0  0  0  0  0  0  0  0  0
   -2.7370    5.8896   -4.7221 H   0  0  0  0  0  0  0  0  0  0  0  0
   -0.8314    1.4354    1.2631 H   0  0  0  0  0  0  0  0  0  0  0  0
   -1.5273   -0.1086    0.8909 H   0  0  0  0  0  0  0  0  0  0  0  0
   -1.4327    0.1508   -2.6623 H   0  0  0  0  0  0  0  0  0  0  0  0
   -1.5967   -0.9665   -1.3379 H   0  0  0  0  0  0  0  0  0  0  0  0
   -4.2469    7.4038    2.5461 H   0  0  0  0  0  0  0  0  0  0  0  0
   -4.1206    4.1299   -5.6624 H   0  0  0  0  0  0  0  0  0  0  0  0
    0.5328   -0.3847    2.1343 H   0  0  0  0  0  0  0  0  0  0  0  0
    1.4560    0.5610    0.9778 H   0  0  0  0  0  0  0  0  0  0  0  0
    0.8617   -0.3034   -2.9857 H   0  0  0  0  0  0  0  0  0  0  0  0
    0.1053   -1.8583   -2.6847 H   0  0  0  0  0  0  0  0  0  0  0  0
    0.0769   -2.1136    0.3000 H   0  0  0  0  0  0  0  0  0  0  0  0
    1.7354   -1.9749    0.8668 H   0  0  0  0  0  0  0  0  0  0  0  0
    2.1946   -0.4082   -1.1126 H   0  0  0  0  0  0  0  0  0  0  0  0
    2.0134   -2.1134   -1.4478 H   0  0  0  0  0  0  0  0  0  0  0  0
  1  2  1  0  0  0  0 
  1  3  1  0  0  0  0 
  1  4  1  0  0  0  0 
  2  5  1  0  0  0  0 
  3  6  2  0  0  0  0 
  3  7  1  0  0  0  0 
  4  8  2  0  0  0  0 
  4  9  1  0  0  0  0 
  5 10  1  0  0  0  0 
  6 11  1  0  0  0  0 
  7 12  2  0  0  0  0 
  8 13  1  0  0  0  0 
  9 14  2  0  0  0  0 
 10 15  1  0  0  0  0 
 10 16  1  0  0  0  0 
 11 17  2  0  0  0  0 
 12 17  1  0  0  0  0 
 13 18  2  0  0  0  0 
 14 18  1  0  0  0  0 
 15 19  1  0  0  0  0 
 16 20  1  0  0  0  0 
 19 21  1  0  0  0  0 
 20 22  1  0  0  0  0 
 21 22  1  0  0  0  0 
  1 23  1  0  0  0  0 
  2 24  1  0  0  0  0 
  2 25  1  0  0  0  0 
  5 26  1  0  0  0  0 
  5 27  1  0  0  0  0 
  6 28  1  0  0  0  0 
  7 29  1  0  0  0  0 
  8 30  1  0  0  0  0 
  9 31  1  0  0  0  0 
 11 32  1  0  0  0  0 
 12 33  1  0  0  0  0 
 13 34  1  0  0  0  0 
 14 35  1  0  0  0  0 
 15 36  1  0  0  0  0 
 15 37  1  0  0  0  0 
 16 38  1  0  0  0  0 
 16 39  1  0  0  0  0 
 17 40  1  0  0  0  0 
 18 41  1  0  0  0  0 
 19 42  1  0  0  0  0 
 19 43  1  0  0  0  0 
 20 44  1  0  0  0  0 
 20 45  1  0  0  0  0 
 21 46  1  0  0  0  0 
 21 47  1  0  0  0  0 
 22 48  1  0  0  0  0 
 22 49  1  0  0  0  0 
M  END
> <cdk:Title>
prozapine

> <Conformer>
1

> <SuperDrugID>
SD002088

$$$$
