eflornithine
  CDK     0628171802

 24 23  0  0  0  0  0  0  0  0999 V2000
    0.4929    0.0672   -1.0312 C   0  0  2  0  0  0  0  0  0  0  0  0
    0.0288    0.4992    0.4035 C   0  0  1  0  0  0  0  0  0  0  0  0
   -0.7419   -0.0946   -1.9796 C   0  0  2  0  0  0  0  0  0  0  0  0
    1.2502   -1.2190   -0.9767 C   0  0  0  0  0  0  0  0  0  0  0  0
    1.3490    1.1296   -1.6005 N   0  0  2  0  0  0  0  0  0  0  0  0
    1.1668    0.7352    1.4384 C   0  0  1  0  0  0  0  0  0  0  0  0
   -0.3773   -0.4967   -3.2451 F   0  0  0  0  0  0  0  0  0  0  0  0
   -1.4501    1.0779   -2.1147 F   0  0  0  0  0  0  0  0  0  0  0  0
    2.5396   -1.3184   -1.3854 O   0  0  0  0  0  0  0  0  0  0  0  0
    0.7084   -2.2607   -0.5424 O   0  0  0  0  0  0  0  0  0  0  0  0
    0.6319    1.1918    2.8156 C   0  0  1  0  0  0  0  0  0  0  0  0
    1.7403    1.3955    3.7531 N   0  0  1  0  0  0  0  0  0  0  0  0
   -0.5450    1.4278    0.3225 H   0  0  0  0  0  0  0  0  0  0  0  0
   -0.6476   -0.2611    0.8044 H   0  0  0  0  0  0  0  0  0  0  0  0
   -1.4300   -0.8416   -1.5773 H   0  0  0  0  0  0  0  0  0  0  0  0
    2.1679    1.2257   -0.9958 H   0  0  0  0  0  0  0  0  0  0  0  0
    0.8285    2.0085   -1.5351 H   0  0  0  0  0  0  0  0  0  0  0  0
    1.7370   -0.1870    1.5733 H   0  0  0  0  0  0  0  0  0  0  0  0
    1.8451    1.5056    1.0649 H   0  0  0  0  0  0  0  0  0  0  0  0
    3.0066   -2.1777   -1.3269 H   0  0  0  0  0  0  0  0  0  0  0  0
    0.0902    2.1348    2.7146 H   0  0  0  0  0  0  0  0  0  0  0  0
   -0.0422    0.4391    3.2300 H   0  0  0  0  0  0  0  0  0  0  0  0
    1.3346    1.7174    4.6347 H   0  0  0  0  0  0  0  0  0  0  0  0
    2.1483    0.4758    3.9328 H   0  0  0  0  0  0  0  0  0  0  0  0
  1  2  1  0  0  0  0 
  1  3  1  0  0  0  0 
  1  4  1  0  0  0  0 
  1  5  1  0  0  0  0 
  2  6  1  0  0  0  0 
  3  7  1  0  0  0  0 
  3  8  1  0  0  0  0 
  4  9  1  0  0  0  0 
  4 10  2  0  0  0  0 
  6 11  1  0  0  0  0 
 11 12  1  0  0  0  0 
  2 13  1  0  0  0  0 
  2 14  1  0  0  0  0 
  3 15  1  0  0  0  0 
  5 16  1  0  0  0  0 
  5 17  1  0  0  0  0 
  6 18  1  0  0  0  0 
  6 19  1  0  0  0  0 
  9 20  1  0  0  0  0 
 11 21  1  0  0  0  0 
 11 22  1  0  0  0  0 
 12 23  1  0  0  0  0 
 12 24  1  0  0  0  0 
M  END
> <cdk:Title>
eflornithine

> <Conformer>
1

> <SuperDrugID>
SD000878

$$$$
