bitoscanate
  CDK     0628171801

 16 16  0  0  0  0  0  0  0  0999 V2000
   -3.0858    6.2752    3.9956 S   0  0  0  0  0  0  0  0  0  0  0  0
   -3.5682    4.9600    3.1583 C   0  0  0  0  0  0  0  0  0  0  0  0
   -3.9284    3.9836    2.5365 N   0  0  0  0  0  0  0  0  0  0  0  0
   -3.1826    3.0540    1.9446 C   0  0  0  0  0  0  0  0  0  0  0  0
   -1.7656    3.0382    1.9346 C   0  0  0  0  0  0  0  0  0  0  0  0
   -1.0620    2.0102    1.2800 C   0  0  0  0  0  0  0  0  0  0  0  0
   -1.7543    0.9672    0.6159 C   0  0  0  0  0  0  0  0  0  0  0  0
   -3.1650    0.9863    0.6280 C   0  0  0  0  0  0  0  0  0  0  0  0
   -3.8684    2.0140    1.2824 C   0  0  0  0  0  0  0  0  0  0  0  0
   -1.1728   -0.0424   -0.0270 N   0  0  0  0  0  0  0  0  0  0  0  0
    0.0098   -0.2675   -0.1703 C   0  0  0  0  0  0  0  0  0  0  0  0
    1.6012   -0.5726   -0.3646 S   0  0  0  0  0  0  0  0  0  0  0  0
   -1.2337    3.7756    2.4040 H   0  0  0  0  0  0  0  0  0  0  0  0
   -0.0390    2.0302    1.2927 H   0  0  0  0  0  0  0  0  0  0  0  0
   -3.6960    0.2477    0.1577 H   0  0  0  0  0  0  0  0  0  0  0  0
   -4.8922    1.9954    1.2705 H   0  0  0  0  0  0  0  0  0  0  0  0
  1  2  2  0  0  0  0 
  2  3  2  0  0  0  0 
  3  4  1  0  0  0  0 
  4  5  2  0  0  0  0 
  5  6  1  0  0  0  0 
  6  7  2  0  0  0  0 
  7  8  1  0  0  0  0 
  8  9  2  0  0  0  0 
  4  9  1  0  0  0  0 
  7 10  1  0  0  0  0 
 10 11  2  0  0  0  0 
 11 12  2  0  0  0  0 
  5 13  1  0  0  0  0 
  6 14  1  0  0  0  0 
  8 15  1  0  0  0  0 
  9 16  1  0  0  0  0 
M  END
> <cdk:Title>
bitoscanate

> <Conformer>
1

> <SuperDrugID>
SD002635

$$$$
