cloricromen
  CDK     0628171802

 53 54  0  0  0  0  0  0  0  0999 V2000
   -6.1585    8.0161    0.2287 C   0  0  0  0  0  0  0  0  0  0  0  0
   -5.2974    7.9853   -0.9972 C   0  0  0  0  0  0  0  0  0  0  0  0
   -4.5696    6.7840   -1.2872 C   0  0  0  0  0  0  0  0  0  0  0  0
   -5.1791    9.1185   -1.8694 C   0  0  0  0  0  0  0  0  0  0  0  0
   -3.6993    6.7619   -2.4115 C   0  0  0  0  0  0  0  0  0  0  0  0
   -4.6546    5.5902   -0.5197 C   0  0  0  0  0  0  0  0  0  0  0  0
   -5.9242   10.4093   -1.6844 C   0  0  2  0  0  0  0  0  0  0  0  0
   -4.2916    9.0142   -2.9683 C   0  0  0  0  0  0  0  0  0  0  0  0
   -2.9284    5.6236   -2.7394 C   0  0  0  0  0  0  0  0  0  0  0  0
   -3.6006    7.8698   -3.1920 O   0  0  0  0  0  0  0  0  0  0  0  0
   -3.8896    4.4544   -0.8369 C   0  0  0  0  0  0  0  0  0  0  0  0
   -5.2042   11.3694   -0.6922 C   0  0  2  0  0  0  0  0  0  0  0  0
   -4.0791    9.9429   -3.7817 O   0  0  0  0  0  0  0  0  0  0  0  0
   -1.9170    5.6421   -4.1028 Cl  0  0  0  0  0  0  0  0  0  0  0  0
   -3.0051    4.4707   -1.9290 C   0  0  0  0  0  0  0  0  0  0  0  0
   -5.9341   12.6431   -0.3569 N   0  0  2  0  0  0  0  0  0  0  0  0
   -2.2557    3.3517   -2.1879 O   0  0  0  0  0  0  0  0  0  0  0  0
   -7.1184   12.4882    0.5599 C   0  0  1  0  0  0  0  0  0  0  0  0
   -6.1907   13.5859   -1.5023 C   0  0  2  0  0  0  0  0  0  0  0  0
   -0.9756    3.3657   -1.5231 C   0  0  1  0  0  0  0  0  0  0  0  0
   -6.7641   12.0419    1.9989 C   0  0  0  0  0  0  0  0  0  0  0  0
   -4.9494   13.9769   -2.3414 C   0  0  0  0  0  0  0  0  0  0  0  0
   -0.2749    2.1075   -1.8171 C   0  0  0  0  0  0  0  0  0  0  0  0
    0.8972    2.1308   -2.5172 O   0  0  0  0  0  0  0  0  0  0  0  0
   -0.7636    1.0281   -1.4082 O   0  0  0  0  0  0  0  0  0  0  0  0
    1.6936    0.9903   -2.8617 C   0  0  1  0  0  0  0  0  0  0  0  0
    2.9382    1.4429   -3.6455 C   0  0  0  0  0  0  0  0  0  0  0  0
   -5.5436    7.8113    1.1074 H   0  0  0  0  0  0  0  0  0  0  0  0
   -6.6528    8.9614    0.4206 H   0  0  0  0  0  0  0  0  0  0  0  0
   -6.9422    7.2601    0.1519 H   0  0  0  0  0  0  0  0  0  0  0  0
   -5.2734    5.5188    0.2891 H   0  0  0  0  0  0  0  0  0  0  0  0
   -6.9465   10.2105   -1.3686 H   0  0  0  0  0  0  0  0  0  0  0  0
   -6.0319   10.9262   -2.6402 H   0  0  0  0  0  0  0  0  0  0  0  0
   -3.9771    3.6103   -0.2662 H   0  0  0  0  0  0  0  0  0  0  0  0
   -4.2288   11.6272   -1.1116 H   0  0  0  0  0  0  0  0  0  0  0  0
   -4.9767   10.8307    0.2282 H   0  0  0  0  0  0  0  0  0  0  0  0
   -7.6386   13.4454    0.6663 H   0  0  0  0  0  0  0  0  0  0  0  0
   -7.8401   11.7866    0.1382 H   0  0  0  0  0  0  0  0  0  0  0  0
   -6.5934   14.5238   -1.1070 H   0  0  0  0  0  0  0  0  0  0  0  0
   -6.9496   13.1681   -2.1687 H   0  0  0  0  0  0  0  0  0  0  0  0
   -0.3712    4.2073   -1.8739 H   0  0  0  0  0  0  0  0  0  0  0  0
   -1.0883    3.4482   -0.4373 H   0  0  0  0  0  0  0  0  0  0  0  0
   -6.4119   11.0114    2.0166 H   0  0  0  0  0  0  0  0  0  0  0  0
   -5.9904   12.6906    2.4168 H   0  0  0  0  0  0  0  0  0  0  0  0
   -7.6533   12.0987    2.6319 H   0  0  0  0  0  0  0  0  0  0  0  0
   -5.2036   14.7915   -3.0229 H   0  0  0  0  0  0  0  0  0  0  0  0
   -4.6104   13.1319   -2.9421 H   0  0  0  0  0  0  0  0  0  0  0  0
   -4.1375   14.3063   -1.6891 H   0  0  0  0  0  0  0  0  0  0  0  0
    2.0057    0.4701   -1.9521 H   0  0  0  0  0  0  0  0  0  0  0  0
    1.1086    0.3042   -3.4792 H   0  0  0  0  0  0  0  0  0  0  0  0
    3.5291    0.5735   -3.9410 H   0  0  0  0  0  0  0  0  0  0  0  0
    2.6369    1.9861   -4.5436 H   0  0  0  0  0  0  0  0  0  0  0  0
    3.5562    2.0960   -3.0255 H   0  0  0  0  0  0  0  0  0  0  0  0
  1  2  1  0  0  0  0 
  2  3  1  0  0  0  0 
  2  4  2  0  0  0  0 
  3  5  1  0  0  0  0 
  3  6  2  0  0  0  0 
  4  7  1  0  0  0  0 
  4  8  1  0  0  0  0 
  5  9  2  0  0  0  0 
  5 10  1  0  0  0  0 
  6 11  1  0  0  0  0 
  7 12  1  0  0  0  0 
  8 10  1  0  0  0  0 
  8 13  2  0  0  0  0 
  9 14  1  0  0  0  0 
  9 15  1  0  0  0  0 
 11 15  2  0  0  0  0 
 12 16  1  0  0  0  0 
 15 17  1  0  0  0  0 
 16 18  1  0  0  0  0 
 16 19  1  0  0  0  0 
 17 20  1  0  0  0  0 
 18 21  1  0  0  0  0 
 19 22  1  0  0  0  0 
 20 23  1  0  0  0  0 
 23 24  1  0  0  0  0 
 23 25  2  0  0  0  0 
 24 26  1  0  0  0  0 
 26 27  1  0  0  0  0 
  1 28  1  0  0  0  0 
  1 29  1  0  0  0  0 
  1 30  1  0  0  0  0 
  6 31  1  0  0  0  0 
  7 32  1  0  0  0  0 
  7 33  1  0  0  0  0 
 11 34  1  0  0  0  0 
 12 35  1  0  0  0  0 
 12 36  1  0  0  0  0 
 18 37  1  0  0  0  0 
 18 38  1  0  0  0  0 
 19 39  1  0  0  0  0 
 19 40  1  0  0  0  0 
 20 41  1  0  0  0  0 
 20 42  1  0  0  0  0 
 21 43  1  0  0  0  0 
 21 44  1  0  0  0  0 
 21 45  1  0  0  0  0 
 22 46  1  0  0  0  0 
 22 47  1  0  0  0  0 
 22 48  1  0  0  0  0 
 26 49  1  0  0  0  0 
 26 50  1  0  0  0  0 
 27 51  1  0  0  0  0 
 27 52  1  0  0  0  0 
 27 53  1  0  0  0  0 
M  END
> <cdk:Title>
cloricromen

> <Conformer>
1

> <SuperDrugID>
SD000630

$$$$
