disufenton
  CDK     0628171801

 36 36  0  0  0  0  0  0  0  0999 V2000
    4.5060    0.9559    1.1884 S   0  0  1  0  0  0  0  0  0  0  0  0
    5.8987    0.2362    1.5236 O   0  0  0  0  0  0  0  0  0  0  0  0
    4.3010    2.2123    2.1619 O   0  0  0  0  0  0  0  0  0  0  0  0
    4.6530    1.5723   -0.4028 O   0  0  0  0  0  0  0  0  0  0  0  0
    3.1164   -0.1489    1.2923 C   0  0  0  0  0  0  0  0  0  0  0  0
    3.0277   -1.2351    2.2077 C   0  0  0  0  0  0  0  0  0  0  0  0
    2.0485    0.0909    0.3991 C   0  0  0  0  0  0  0  0  0  0  0  0
    4.1018   -1.5171    3.1957 C   0  0  0  0  0  0  0  0  0  0  0  0
    1.8922   -2.0806    2.1595 C   0  0  0  0  0  0  0  0  0  0  0  0
    0.9157   -0.7438    0.3737 C   0  0  0  0  0  0  0  0  0  0  0  0
    3.6972   -1.5175    4.5491 N   0  0  0  0  0  0  0  0  0  0  0  0
    0.8473   -1.8384    1.2532 C   0  0  0  0  0  0  0  0  0  0  0  0
   -0.3956   -0.4007   -0.7629 S   0  0  2  0  0  0  0  0  0  0  0  0
    3.7071   -0.3656    5.4115 C   0  0  2  0  0  0  0  0  0  0  0  0
    3.3424   -2.5571    4.9602 O   0  0  0  0  0  0  0  0  0  0  0  0
    0.1356   -0.4871   -2.2731 O   0  0  0  0  0  0  0  0  0  0  0  0
   -1.0029    1.0613   -0.5087 O   0  0  0  0  0  0  0  0  0  0  0  0
   -1.6652   -1.5332   -0.5858 O   0  0  0  0  0  0  0  0  0  0  0  0
    5.0549    0.4318    5.3161 C   0  0  0  0  0  0  0  0  0  0  0  0
    3.5243   -0.7495    6.9293 C   0  0  0  0  0  0  0  0  0  0  0  0
    2.5241    0.5813    5.0264 C   0  0  0  0  0  0  0  0  0  0  0  0
    4.1787    2.4298   -0.3800 H   0  0  0  0  0  0  0  0  0  0  0  0
    2.0869    0.8819   -0.2476 H   0  0  0  0  0  0  0  0  0  0  0  0
    4.5962   -2.4568    2.9182 H   0  0  0  0  0  0  0  0  0  0  0  0
    1.8074   -2.8881    2.7838 H   0  0  0  0  0  0  0  0  0  0  0  0
    0.0405   -2.4668    1.2433 H   0  0  0  0  0  0  0  0  0  0  0  0
   -1.9832   -1.3990    0.3328 H   0  0  0  0  0  0  0  0  0  0  0  0
    5.0551    1.2912    5.9906 H   0  0  0  0  0  0  0  0  0  0  0  0
    5.8975   -0.2099    5.5795 H   0  0  0  0  0  0  0  0  0  0  0  0
    5.2241    0.8110    4.3098 H   0  0  0  0  0  0  0  0  0  0  0  0
    3.5430    0.1327    7.5746 H   0  0  0  0  0  0  0  0  0  0  0  0
    2.5699   -1.2550    7.0895 H   0  0  0  0  0  0  0  0  0  0  0  0
    4.3215   -1.4217    7.2553 H   0  0  0  0  0  0  0  0  0  0  0  0
    2.4451    1.4183    5.7250 H   0  0  0  0  0  0  0  0  0  0  0  0
    1.5817    0.0320    5.0390 H   0  0  0  0  0  0  0  0  0  0  0  0
    2.6622    0.9987    4.0291 H   0  0  0  0  0  0  0  0  0  0  0  0
  1  2  2  0  0  0  0 
  1  3  2  0  0  0  0 
  1  4  1  0  0  0  0 
  1  5  1  0  0  0  0 
  5  6  2  0  0  0  0 
  5  7  1  0  0  0  0 
  8  6  1  0  0  0  0 
  6  9  1  0  0  0  0 
  7 10  2  0  0  0  0 
  8 11  1  0  0  0  0 
  9 12  2  0  0  0  0 
 10 12  1  0  0  0  0 
 10 13  1  0  0  0  0 
 11 14  1  0  0  0  0 
 11 15  2  0  0  0  0 
 13 16  2  0  0  0  0 
 13 17  2  0  0  0  0 
 13 18  1  0  0  0  0 
 14 19  1  0  0  0  0 
 14 20  1  0  0  0  0 
 14 21  1  0  0  0  0 
 22  4  1  0  0  0  0 
 23  7  1  0  0  0  0 
 24  8  1  0  0  0  0 
 25  9  1  0  0  0  0 
 26 12  1  0  0  0  0 
 27 18  1  0  0  0  0 
 28 19  1  0  0  0  0 
 29 19  1  0  0  0  0 
 30 19  1  0  0  0  0 
 31 20  1  0  0  0  0 
 32 20  1  0  0  0  0 
 33 20  1  0  0  0  0 
 34 21  1  0  0  0  0 
 35 21  1  0  0  0  0 
 36 21  1  0  0  0  0 
M  CHG  1   8  -1
M  CHG  1  11   1
M  END
> <cdk:Title>
disufenton

> <Conformer>
1

> <SuperDrugID>
SD002738

$$$$
