demecarium
  CDK     0628171802

 92 93  0  0  0  0  0  0  0  0999 V2000
   -1.8101    3.5572   -2.7428 O   0  0  0  0  0  0  0  0  0  0  0  0
   -1.4713    4.4255   -1.7401 C   0  0  0  0  0  0  0  0  0  0  0  0
   -3.0390    3.1380   -3.1831 C   0  0  0  0  0  0  0  0  0  0  0  0
   -0.1497    4.7820   -1.5185 N   0  0  0  0  0  0  0  0  0  0  0  0
   -2.3849    4.8274   -0.9785 O   0  0  0  0  0  0  0  0  0  0  0  0
   -4.1950    3.9524   -3.1884 C   0  0  0  0  0  0  0  0  0  0  0  0
   -3.1246    1.8269   -3.6766 C   0  0  0  0  0  0  0  0  0  0  0  0
    0.8981    4.5050   -2.4965 C   0  0  2  0  0  0  0  0  0  0  0  0
    0.2410    5.3914   -0.2602 C   0  0  0  0  0  0  0  0  0  0  0  0
   -5.4606    3.5069   -3.6769 C   0  0  0  0  0  0  0  0  0  0  0  0
   -4.3467    1.3343   -4.1462 C   0  0  0  0  0  0  0  0  0  0  0  0
    1.4920    5.7957   -3.1428 C   0  0  2  0  0  0  0  0  0  0  0  0
   -6.6369    4.3935   -3.7891 N   0  0  1  0  0  0  0  0  0  0  0  0
   -5.4839    2.1612   -4.1489 C   0  0  0  0  0  0  0  0  0  0  0  0
    2.7381    5.4634   -4.0729 C   0  0  1  0  0  0  0  0  0  0  0  0
   -6.6220    4.9726   -5.1843 C   0  0  0  0  0  0  0  0  0  0  0  0
   -7.9572    3.6697   -3.5715 C   0  0  0  0  0  0  0  0  0  0  0  0
   -6.6349    5.5512   -2.8039 C   0  0  0  0  0  0  0  0  0  0  0  0
    3.4379    6.7444   -4.6150 C   0  0  1  0  0  0  0  0  0  0  0  0
    4.7346    6.4293   -5.4124 C   0  0  1  0  0  0  0  0  0  0  0  0
    5.4830    7.7022   -5.9029 C   0  0  1  0  0  0  0  0  0  0  0  0
    6.7738    7.3655   -6.7013 C   0  0  2  0  0  0  0  0  0  0  0  0
    7.5963    8.6126   -7.1357 C   0  0  2  0  0  0  0  0  0  0  0  0
    8.8714    8.2308   -7.9400 C   0  0  1  0  0  0  0  0  0  0  0  0
    9.8660    9.4106   -8.1505 C   0  0  2  0  0  0  0  0  0  0  0  0
   11.0368    9.0245   -8.9202 N   0  0  0  0  0  0  0  0  0  0  0  0
   11.3379    9.5889  -10.1501 C   0  0  0  0  0  0  0  0  0  0  0  0
   11.9344    8.0235   -8.3796 C   0  0  0  0  0  0  0  0  0  0  0  0
   10.7094   10.7197  -10.6114 O   0  0  0  0  0  0  0  0  0  0  0  0
   12.2625    9.1103  -10.8540 O   0  0  0  0  0  0  0  0  0  0  0  0
   10.9109   11.3482  -11.8146 C   0  0  0  0  0  0  0  0  0  0  0  0
   10.8435   10.6657  -13.0489 C   0  0  0  0  0  0  0  0  0  0  0  0
   11.2203   12.7176  -11.8066 C   0  0  0  0  0  0  0  0  0  0  0  0
   11.1131   11.2932  -14.3027 C   0  0  0  0  0  0  0  0  0  0  0  0
   11.4893   13.3804  -13.0124 C   0  0  0  0  0  0  0  0  0  0  0  0
   11.0318   10.5303  -15.5616 N   0  0  1  0  0  0  0  0  0  0  0  0
   11.4369   12.6799  -14.2308 C   0  0  0  0  0  0  0  0  0  0  0  0
    9.5969   10.0963  -15.7741 C   0  0  0  0  0  0  0  0  0  0  0  0
   11.4520   11.3027  -16.8024 C   0  0  0  0  0  0  0  0  0  0  0  0
   11.9322    9.3094  -15.5006 C   0  0  0  0  0  0  0  0  0  0  0  0
   -4.0770    4.9021   -2.8520 H   0  0  0  0  0  0  0  0  0  0  0  0
   -2.2975    1.2221   -3.6888 H   0  0  0  0  0  0  0  0  0  0  0  0
    0.5458    3.8678   -3.3099 H   0  0  0  0  0  0  0  0  0  0  0  0
    1.6912    3.9412   -2.0015 H   0  0  0  0  0  0  0  0  0  0  0  0
    0.5443    6.4261   -0.4101 H   0  0  0  0  0  0  0  0  0  0  0  0
   -0.5503    5.3907    0.4926 H   0  0  0  0  0  0  0  0  0  0  0  0
    1.0765    4.8407    0.1761 H   0  0  0  0  0  0  0  0  0  0  0  0
   -4.4032    0.3744   -4.4944 H   0  0  0  0  0  0  0  0  0  0  0  0
    1.9449    6.3959   -2.2956 H   0  0  0  0  0  0  0  0  0  0  0  0
    0.5925    6.2979   -3.6882 H   0  0  0  0  0  0  0  0  0  0  0  0
   -6.3376    1.7538   -4.5285 H   0  0  0  0  0  0  0  0  0  0  0  0
    3.4626    4.8740   -3.5025 H   0  0  0  0  0  0  0  0  0  0  0  0
    2.4009    4.8602   -4.9217 H   0  0  0  0  0  0  0  0  0  0  0  0
   -7.4640    5.6485   -5.3568 H   0  0  0  0  0  0  0  0  0  0  0  0
   -5.7090    5.5461   -5.3678 H   0  0  0  0  0  0  0  0  0  0  0  0
   -6.6752    4.1950   -5.9501 H   0  0  0  0  0  0  0  0  0  0  0  0
   -8.8115    4.3530   -3.5652 H   0  0  0  0  0  0  0  0  0  0  0  0
   -7.9636    3.1308   -2.6211 H   0  0  0  0  0  0  0  0  0  0  0  0
   -8.1846    2.9515   -4.3594 H   0  0  0  0  0  0  0  0  0  0  0  0
   -7.5472    6.1537   -2.8610 H   0  0  0  0  0  0  0  0  0  0  0  0
   -6.5462    5.1929   -1.7755 H   0  0  0  0  0  0  0  0  0  0  0  0
   -5.8200    6.2543   -2.9857 H   0  0  0  0  0  0  0  0  0  0  0  0
    2.7417    7.2808   -5.2660 H   0  0  0  0  0  0  0  0  0  0  0  0
    3.6908    7.3999   -3.7763 H   0  0  0  0  0  0  0  0  0  0  0  0
    5.4067    5.8527   -4.7704 H   0  0  0  0  0  0  0  0  0  0  0  0
    4.4745    5.8082   -6.2743 H   0  0  0  0  0  0  0  0  0  0  0  0
    4.8124    8.2929   -6.5335 H   0  0  0  0  0  0  0  0  0  0  0  0
    5.7520    8.3079   -5.0332 H   0  0  0  0  0  0  0  0  0  0  0  0
    6.4977    6.7923   -7.5898 H   0  0  0  0  0  0  0  0  0  0  0  0
    7.4125    6.7348   -6.0768 H   0  0  0  0  0  0  0  0  0  0  0  0
    7.8897    9.1676   -6.2410 H   0  0  0  0  0  0  0  0  0  0  0  0
    6.9702    9.2648   -7.7494 H   0  0  0  0  0  0  0  0  0  0  0  0
    9.3846    7.4278   -7.4068 H   0  0  0  0  0  0  0  0  0  0  0  0
    8.5743    7.8418   -8.9171 H   0  0  0  0  0  0  0  0  0  0  0  0
   10.1971    9.7752   -7.1747 H   0  0  0  0  0  0  0  0  0  0  0  0
    9.3162   10.2304   -8.6188 H   0  0  0  0  0  0  0  0  0  0  0  0
   11.8448    7.1001   -8.9540 H   0  0  0  0  0  0  0  0  0  0  0  0
   11.7371    7.7931   -7.3304 H   0  0  0  0  0  0  0  0  0  0  0  0
   12.9696    8.3705   -8.4320 H   0  0  0  0  0  0  0  0  0  0  0  0
   10.5848    9.6799  -13.0182 H   0  0  0  0  0  0  0  0  0  0  0  0
   11.2721   13.2309  -10.9229 H   0  0  0  0  0  0  0  0  0  0  0  0
   11.7297   14.3753  -13.0021 H   0  0  0  0  0  0  0  0  0  0  0  0
   11.6398   13.2206  -15.0695 H   0  0  0  0  0  0  0  0  0  0  0  0
    9.4727    9.5354  -16.7051 H   0  0  0  0  0  0  0  0  0  0  0  0
    9.2379    9.4469  -14.9725 H   0  0  0  0  0  0  0  0  0  0  0  0
    8.9233   10.9576  -15.8194 H   0  0  0  0  0  0  0  0  0  0  0  0
   11.3794   10.6957  -17.7097 H   0  0  0  0  0  0  0  0  0  0  0  0
   12.4893   11.6427  -16.7283 H   0  0  0  0  0  0  0  0  0  0  0  0
   10.8239   12.1815  -16.9706 H   0  0  0  0  0  0  0  0  0  0  0  0
   11.9357    8.7509  -16.4423 H   0  0  0  0  0  0  0  0  0  0  0  0
   12.9667    9.5919  -15.2839 H   0  0  0  0  0  0  0  0  0  0  0  0
   11.6226    8.5952  -14.7353 H   0  0  0  0  0  0  0  0  0  0  0  0
  1  2  1  0  0  0  0 
  1  3  1  0  0  0  0 
  2  4  1  0  0  0  0 
  2  5  2  0  0  0  0 
  3  6  2  0  0  0  0 
  3  7  1  0  0  0  0 
  4  8  1  0  0  0  0 
  4  9  1  0  0  0  0 
  6 10  1  0  0  0  0 
  7 11  2  0  0  0  0 
  8 12  1  0  0  0  0 
 10 13  1  0  0  0  0 
 10 14  2  0  0  0  0 
 11 14  1  0  0  0  0 
 12 15  1  0  0  0  0 
 13 16  1  0  0  0  0 
 13 17  1  0  0  0  0 
 13 18  1  0  0  0  0 
 15 19  1  0  0  0  0 
 19 20  1  0  0  0  0 
 20 21  1  0  0  0  0 
 21 22  1  0  0  0  0 
 22 23  1  0  0  0  0 
 23 24  1  0  0  0  0 
 24 25  1  0  0  0  0 
 25 26  1  0  0  0  0 
 26 27  1  0  0  0  0 
 26 28  1  0  0  0  0 
 27 29  1  0  0  0  0 
 27 30  2  0  0  0  0 
 29 31  1  0  0  0  0 
 31 32  2  0  0  0  0 
 31 33  1  0  0  0  0 
 32 34  1  0  0  0  0 
 33 35  2  0  0  0  0 
 34 36  1  0  0  0  0 
 34 37  2  0  0  0  0 
 35 37  1  0  0  0  0 
 36 38  1  0  0  0  0 
 36 39  1  0  0  0  0 
 36 40  1  0  0  0  0 
  6 41  1  0  0  0  0 
  7 42  1  0  0  0  0 
  8 43  1  0  0  0  0 
  8 44  1  0  0  0  0 
  9 45  1  0  0  0  0 
  9 46  1  0  0  0  0 
  9 47  1  0  0  0  0 
 11 48  1  0  0  0  0 
 12 49  1  0  0  0  0 
 12 50  1  0  0  0  0 
 14 51  1  0  0  0  0 
 15 52  1  0  0  0  0 
 15 53  1  0  0  0  0 
 16 54  1  0  0  0  0 
 16 55  1  0  0  0  0 
 16 56  1  0  0  0  0 
 17 57  1  0  0  0  0 
 17 58  1  0  0  0  0 
 17 59  1  0  0  0  0 
 18 60  1  0  0  0  0 
 18 61  1  0  0  0  0 
 18 62  1  0  0  0  0 
 19 63  1  0  0  0  0 
 19 64  1  0  0  0  0 
 20 65  1  0  0  0  0 
 20 66  1  0  0  0  0 
 21 67  1  0  0  0  0 
 21 68  1  0  0  0  0 
 22 69  1  0  0  0  0 
 22 70  1  0  0  0  0 
 23 71  1  0  0  0  0 
 23 72  1  0  0  0  0 
 24 73  1  0  0  0  0 
 24 74  1  0  0  0  0 
 25 75  1  0  0  0  0 
 25 76  1  0  0  0  0 
 28 77  1  0  0  0  0 
 28 78  1  0  0  0  0 
 28 79  1  0  0  0  0 
 32 80  1  0  0  0  0 
 33 81  1  0  0  0  0 
 35 82  1  0  0  0  0 
 37 83  1  0  0  0  0 
 38 84  1  0  0  0  0 
 38 85  1  0  0  0  0 
 38 86  1  0  0  0  0 
 39 87  1  0  0  0  0 
 39 88  1  0  0  0  0 
 39 89  1  0  0  0  0 
 40 90  1  0  0  0  0 
 40 91  1  0  0  0  0 
 40 92  1  0  0  0  0 
M  CHG  1  13   1
M  CHG  1  36   1
M  END
> <cdk:Title>
demecarium

> <Conformer>
1

> <SuperDrugID>
SD000707

$$$$
