valbenazine
  CDK     0628171802

 68 70  0  0  0  0  0  0  0  0999 V2000
    0.2921    1.9316    2.2239 C   0  0  0  0  0  0  0  0  0  0  0  0
   -0.3117    0.9135    1.4626 C   0  0  0  0  0  0  0  0  0  0  0  0
    0.4386   -0.2314    1.1263 C   0  0  0  0  0  0  0  0  0  0  0  0
    1.7975   -0.3052    1.4894 C   0  0  0  0  0  0  0  0  0  0  0  0
    2.4205    0.7402    2.2084 C   0  0  0  0  0  0  0  0  0  0  0  0
    1.6364    1.8335    2.6703 C   0  0  0  0  0  0  0  0  0  0  0  0
    2.2443    2.9125    3.5277 C   0  0  2  0  0  0  0  0  0  0  0  0
    3.8956    0.6964    2.4115 C   0  0  2  0  0  0  0  0  0  0  0  0
    4.4829    2.0702    2.8323 C   0  0  2  0  0  0  0  0  0  0  0  0
    3.6835    2.6831    3.9351 N   0  0  2  0  0  0  0  0  0  0  0  0
   -0.1387   -1.2781    0.4594 O   0  0  0  0  0  0  0  0  0  0  0  0
   -1.5959    1.0630    1.0038 O   0  0  0  0  0  0  0  0  0  0  0  0
   -2.6118    0.7167    1.9583 C   0  0  0  0  0  0  0  0  0  0  0  0
   -0.1121   -1.1408   -0.9719 C   0  0  0  0  0  0  0  0  0  0  0  0
    1.6151    2.4997    6.0180 C   0  0  2  0  0  0  0  0  0  0  0  0
    1.3643    3.3418    4.7482 C   0  0  2  0  0  0  0  0  0  0  0  0
    3.9792    2.0637    5.2734 C   0  0  2  0  0  0  0  0  0  0  0  0
    3.1084    2.5874    6.4534 C   0  0  1  0  0  0  0  0  0  0  0  0
    2.2741    3.7851    2.8675 H   0  0  0  0  0  0  0  0  0  0  0  0
    3.6011    3.9762    6.9928 C   0  0  2  0  0  0  0  0  0  0  0  0
    1.3385    1.1042    5.8005 O   0  0  0  0  0  0  0  0  0  0  0  0
    0.4318    0.3045    6.4275 C   0  0  0  0  0  0  0  0  0  0  0  0
   -0.5863    0.7829    6.9805 O   0  0  0  0  0  0  0  0  0  0  0  0
    0.7121   -1.1474    6.4795 C   0  0  2  0  0  0  0  0  0  0  0  0
    1.9802   -1.4411    7.3449 C   0  0  1  0  0  0  0  0  0  0  0  0
    1.7766   -0.9776    8.9103 C   0  0  0  0  0  0  0  0  0  0  0  0
    2.4096   -3.0266    7.3253 C   0  0  0  0  0  0  0  0  0  0  0  0
    2.7466    4.6448    8.1232 C   0  0  1  0  0  0  0  0  0  0  0  0
    2.4689    3.7046    9.3323 C   0  0  0  0  0  0  0  0  0  0  0  0
    3.4111    5.9542    8.6307 C   0  0  0  0  0  0  0  0  0  0  0  0
    0.8520   -1.6515    5.1055 N   0  0  2  0  0  0  0  0  0  0  0  0
   -0.2661    2.7615    2.4370 H   0  0  0  0  0  0  0  0  0  0  0  0
    2.3427   -1.1210    1.2021 H   0  0  0  0  0  0  0  0  0  0  0  0
    4.3874    0.4014    1.4799 H   0  0  0  0  0  0  0  0  0  0  0  0
    4.1353   -0.0607    3.1607 H   0  0  0  0  0  0  0  0  0  0  0  0
    4.4680    2.7449    1.9697 H   0  0  0  0  0  0  0  0  0  0  0  0
    5.5312    1.9497    3.1230 H   0  0  0  0  0  0  0  0  0  0  0  0
   -3.5825    0.8173    1.4704 H   0  0  0  0  0  0  0  0  0  0  0  0
   -2.5042   -0.3164    2.2949 H   0  0  0  0  0  0  0  0  0  0  0  0
   -2.5937    1.3893    2.8183 H   0  0  0  0  0  0  0  0  0  0  0  0
   -0.5545   -2.0393   -1.4042 H   0  0  0  0  0  0  0  0  0  0  0  0
   -0.7022   -0.2810   -1.2984 H   0  0  0  0  0  0  0  0  0  0  0  0
    0.9100   -1.0490   -1.3490 H   0  0  0  0  0  0  0  0  0  0  0  0
    0.9655    2.8791    6.8090 H   0  0  0  0  0  0  0  0  0  0  0  0
    0.2989    3.3074    4.5271 H   0  0  0  0  0  0  0  0  0  0  0  0
    1.5796    4.3880    4.9774 H   0  0  0  0  0  0  0  0  0  0  0  0
    5.0295    2.2362    5.5172 H   0  0  0  0  0  0  0  0  0  0  0  0
    3.8501    0.9805    5.2197 H   0  0  0  0  0  0  0  0  0  0  0  0
    3.2446    1.8744    7.2738 H   0  0  0  0  0  0  0  0  0  0  0  0
    3.6637    4.6757    6.1561 H   0  0  0  0  0  0  0  0  0  0  0  0
    4.6219    3.8476    7.3687 H   0  0  0  0  0  0  0  0  0  0  0  0
   -0.1389   -1.6680    6.9244 H   0  0  0  0  0  0  0  0  0  0  0  0
    2.8327   -0.8887    6.9409 H   0  0  0  0  0  0  0  0  0  0  0  0
    2.5702   -1.3410    9.6104 H   0  0  0  0  0  0  0  0  0  0  0  0
    1.7650    0.1295    9.0722 H   0  0  0  0  0  0  0  0  0  0  0  0
    0.8274   -1.3295    9.3853 H   0  0  0  0  0  0  0  0  0  0  0  0
    2.8305   -3.3747    6.3495 H   0  0  0  0  0  0  0  0  0  0  0  0
    3.2156   -3.3020    8.0523 H   0  0  0  0  0  0  0  0  0  0  0  0
    1.5806   -3.7454    7.5482 H   0  0  0  0  0  0  0  0  0  0  0  0
    1.7838    4.9344    7.6918 H   0  0  0  0  0  0  0  0  0  0  0  0
    3.4062    3.3651    9.7784 H   0  0  0  0  0  0  0  0  0  0  0  0
    1.8979    2.8280    9.0298 H   0  0  0  0  0  0  0  0  0  0  0  0
    1.8819    4.2210   10.0960 H   0  0  0  0  0  0  0  0  0  0  0  0
    4.3581    5.7355    9.1300 H   0  0  0  0  0  0  0  0  0  0  0  0
    2.7542    6.4625    9.3414 H   0  0  0  0  0  0  0  0  0  0  0  0
    3.6003    6.6321    7.7965 H   0  0  0  0  0  0  0  0  0  0  0  0
    1.0216   -2.6582    5.1704 H   0  0  0  0  0  0  0  0  0  0  0  0
    1.6981   -1.2320    4.7138 H   0  0  0  0  0  0  0  0  0  0  0  0
  1  2  2  0  0  0  0 
  1  6  1  0  0  0  0 
  2  3  1  0  0  0  0 
  3  4  2  0  0  0  0 
  4  5  1  0  0  0  0 
  5  6  2  0  0  0  0 
  8  9  1  0  0  0  0 
  9 10  1  0  0  0  0 
  7 10  1  0  0  0  0 
  5  8  1  0  0  0  0 
  7  6  1  0  0  0  0 
  3 11  1  0  0  0  0 
  2 12  1  0  0  0  0 
 12 13  1  0  0  0  0 
 11 14  1  0  0  0  0 
 15 16  1  0  0  0  0 
 17 18  1  0  0  0  0 
 15 18  1  0  0  0  0 
 16  7  1  0  0  0  0 
 10 17  1  0  0  0  0 
  7 19  1  0  0  0  0 
 18 20  1  0  0  0  0 
 15 21  1  0  0  0  0 
 21 22  1  0  0  0  0 
 22 23  2  0  0  0  0 
 22 24  1  0  0  0  0 
 24 25  1  0  0  0  0 
 25 26  1  0  0  0  0 
 25 27  1  0  0  0  0 
 20 28  1  0  0  0  0 
 28 29  1  0  0  0  0 
 28 30  1  0  0  0  0 
 24 31  1  0  0  0  0 
  1 32  1  0  0  0  0 
  4 33  1  0  0  0  0 
  8 34  1  0  0  0  0 
  8 35  1  0  0  0  0 
  9 36  1  0  0  0  0 
  9 37  1  0  0  0  0 
 13 38  1  0  0  0  0 
 13 39  1  0  0  0  0 
 13 40  1  0  0  0  0 
 14 41  1  0  0  0  0 
 14 42  1  0  0  0  0 
 14 43  1  0  0  0  0 
 15 44  1  0  0  0  0 
 16 45  1  0  0  0  0 
 16 46  1  0  0  0  0 
 17 47  1  0  0  0  0 
 17 48  1  0  0  0  0 
 18 49  1  0  0  0  0 
 20 50  1  0  0  0  0 
 20 51  1  0  0  0  0 
 24 52  1  0  0  0  0 
 25 53  1  0  0  0  0 
 26 54  1  0  0  0  0 
 26 55  1  0  0  0  0 
 26 56  1  0  0  0  0 
 27 57  1  0  0  0  0 
 27 58  1  0  0  0  0 
 27 59  1  0  0  0  0 
 28 60  1  0  0  0  0 
 29 61  1  0  0  0  0 
 29 62  1  0  0  0  0 
 29 63  1  0  0  0  0 
 30 64  1  0  0  0  0 
 30 65  1  0  0  0  0 
 30 66  1  0  0  0  0 
 31 67  1  0  0  0  0 
 31 68  1  0  0  0  0 
M  END
> <cdk:Title>
valbenazine

> <Conformer>
1

> <SuperDrugID>
SD003949

$$$$
