finasteride
  CDK     0628171801

 63 66  0  0  0  0  0  0  0  0999 V2000
   -1.9221    1.5931    2.8742 C   0  0  0  0  0  0  0  0  0  0  0  0
   -1.8709    0.1242    3.4561 C   0  0  2  0  0  0  0  0  0  0  0  0
   -2.0928    0.0232    5.0003 C   0  0  2  0  0  0  0  0  0  0  0  0
   -0.4046   -0.4411    3.3516 C   0  0  1  0  0  0  0  0  0  0  0  0
   -2.9908   -0.7534    2.7938 C   0  0  2  0  0  0  0  0  0  0  0  0
   -3.4558    0.6355    5.4585 C   0  0  1  0  0  0  0  0  0  0  0  0
   -0.7844    0.5783    5.6008 C   0  0  1  0  0  0  0  0  0  0  0  0
    0.2690   -0.2088    2.0408 C   0  0  0  0  0  0  0  0  0  0  0  0
    0.3216    0.1413    4.6092 C   0  0  2  0  0  0  0  0  0  0  0  0
   -4.4303   -0.3111    3.2120 C   0  0  2  0  0  0  0  0  0  0  0  0
   -4.6562   -0.1305    4.7608 C   0  0  2  0  0  0  0  0  0  0  0  0
   -3.6194    0.6556    7.0073 C   0  0  1  0  0  0  0  0  0  0  0  0
   -0.1968   -0.8778    0.9477 N   0  0  0  0  0  0  0  0  0  0  0  0
    1.1993    0.6254    1.9381 O   0  0  0  0  0  0  0  0  0  0  0  0
   -6.0692    0.4832    5.1713 C   0  0  2  0  0  0  0  0  0  0  0  0
   -4.9718    1.2885    7.4277 C   0  0  2  0  0  0  0  0  0  0  0  0
    0.1624   -0.6970   -0.4377 C   0  0  2  0  0  0  0  0  0  0  0  0
   -6.2988    1.9085    4.5389 C   0  0  0  0  0  0  0  0  0  0  0  0
   -6.1378    0.5215    6.7551 C   0  0  1  0  0  0  0  0  0  0  0  0
   -7.2473   -0.3183    4.7458 C   0  0  0  0  0  0  0  0  0  0  0  0
    1.6873   -0.9282   -0.6755 C   0  0  0  0  0  0  0  0  0  0  0  0
   -0.2786    0.7182   -0.9297 C   0  0  0  0  0  0  0  0  0  0  0  0
   -0.6344   -1.7824   -1.2269 C   0  0  0  0  0  0  0  0  0  0  0  0
   -7.4354    0.9564    7.1928 N   0  0  0  0  0  0  0  0  0  0  0  0
   -8.4315   -0.2535    5.3923 C   0  0  0  0  0  0  0  0  0  0  0  0
   -8.5556    0.5081    6.5501 C   0  0  0  0  0  0  0  0  0  0  0  0
   -9.6834    0.8042    7.0079 O   0  0  0  0  0  0  0  0  0  0  0  0
   -3.4536    1.6823    5.1620 H   0  0  0  0  0  0  0  0  0  0  0  0
   -4.6383   -1.1501    5.1648 H   0  0  0  0  0  0  0  0  0  0  0  0
   -2.1253   -1.0376    5.2923 H   0  0  0  0  0  0  0  0  0  0  0  0
   -6.0578   -0.5098    7.1251 H   0  0  0  0  0  0  0  0  0  0  0  0
   -1.7675    1.5817    1.7937 H   0  0  0  0  0  0  0  0  0  0  0  0
   -1.1491    2.2262    3.3104 H   0  0  0  0  0  0  0  0  0  0  0  0
   -2.8774    2.0836    3.0439 H   0  0  0  0  0  0  0  0  0  0  0  0
   -0.4352   -1.5288    3.4906 H   0  0  0  0  0  0  0  0  0  0  0  0
   -2.8561   -1.8043    3.0686 H   0  0  0  0  0  0  0  0  0  0  0  0
   -2.9081   -0.7039    1.7056 H   0  0  0  0  0  0  0  0  0  0  0  0
   -0.8323    1.6687    5.6696 H   0  0  0  0  0  0  0  0  0  0  0  0
   -0.6023    0.1722    6.5991 H   0  0  0  0  0  0  0  0  0  0  0  0
    0.9444    1.0092    4.3744 H   0  0  0  0  0  0  0  0  0  0  0  0
    0.9678   -0.6170    5.0616 H   0  0  0  0  0  0  0  0  0  0  0  0
   -5.1256   -1.0642    2.8315 H   0  0  0  0  0  0  0  0  0  0  0  0
   -4.6546    0.6174    2.6893 H   0  0  0  0  0  0  0  0  0  0  0  0
   -3.5560   -0.3651    7.3947 H   0  0  0  0  0  0  0  0  0  0  0  0
   -2.8128    1.2319    7.4657 H   0  0  0  0  0  0  0  0  0  0  0  0
   -0.8811   -1.5421    1.1257 H   0  0  0  0  0  0  0  0  0  0  0  0
   -4.9955    2.3452    7.1506 H   0  0  0  0  0  0  0  0  0  0  0  0
   -5.0699    1.2271    8.5144 H   0  0  0  0  0  0  0  0  0  0  0  0
   -7.1750    2.4033    4.9653 H   0  0  0  0  0  0  0  0  0  0  0  0
   -5.4537    2.5729    4.7002 H   0  0  0  0  0  0  0  0  0  0  0  0
   -6.4673    1.8405    3.4608 H   0  0  0  0  0  0  0  0  0  0  0  0
   -7.1931   -0.8815    3.9319 H   0  0  0  0  0  0  0  0  0  0  0  0
    1.9161   -0.9356   -1.7446 H   0  0  0  0  0  0  0  0  0  0  0  0
    1.9935   -1.8865   -0.2497 H   0  0  0  0  0  0  0  0  0  0  0  0
    2.2862   -0.1415   -0.2164 H   0  0  0  0  0  0  0  0  0  0  0  0
   -0.0883    0.8368   -1.9986 H   0  0  0  0  0  0  0  0  0  0  0  0
   -1.3467    0.8691   -0.7538 H   0  0  0  0  0  0  0  0  0  0  0  0
    0.2645    1.5038   -0.4016 H   0  0  0  0  0  0  0  0  0  0  0  0
   -0.4124   -1.7314   -2.2957 H   0  0  0  0  0  0  0  0  0  0  0  0
   -1.7109   -1.6451   -1.0936 H   0  0  0  0  0  0  0  0  0  0  0  0
   -0.3728   -2.7830   -0.8700 H   0  0  0  0  0  0  0  0  0  0  0  0
   -7.5165    1.5394    7.9646 H   0  0  0  0  0  0  0  0  0  0  0  0
   -9.2193   -0.7480    5.0393 H   0  0  0  0  0  0  0  0  0  0  0  0
  2  1  1  0  0  0  0 
  3  2  1  0  0  0  0 
  2  4  1  0  0  0  0 
  2  5  1  0  0  0  0 
  6  3  1  0  0  0  0 
  3  7  1  0  0  0  0 
  3 30  1  0  0  0  0 
  4  8  1  0  0  0  0 
  4  9  1  0  0  0  0 
  5 10  1  0  0  0  0 
 11  6  1  0  0  0  0 
  6 12  1  0  0  0  0 
  6 28  1  0  0  0  0 
  7  9  1  0  0  0  0 
  8 13  1  0  0  0  0 
  8 14  2  0  0  0  0 
 11 10  1  0  0  0  0 
 15 11  1  0  0  0  0 
 11 29  1  0  0  0  0 
 12 16  1  0  0  0  0 
 13 17  1  0  0  0  0 
 15 18  1  0  0  0  0 
 15 19  1  0  0  0  0 
 15 20  1  0  0  0  0 
 19 16  1  0  0  0  0 
 17 21  1  0  0  0  0 
 17 22  1  0  0  0  0 
 17 23  1  0  0  0  0 
 19 24  1  0  0  0  0 
 19 31  1  0  0  0  0 
 20 25  2  0  0  0  0 
 24 26  1  0  0  0  0 
 25 26  1  0  0  0  0 
 26 27  2  0  0  0  0 
  1 32  1  0  0  0  0 
  1 33  1  0  0  0  0 
  1 34  1  0  0  0  0 
  4 35  1  0  0  0  0 
  5 36  1  0  0  0  0 
  5 37  1  0  0  0  0 
  7 38  1  0  0  0  0 
  7 39  1  0  0  0  0 
  9 40  1  0  0  0  0 
  9 41  1  0  0  0  0 
 10 42  1  0  0  0  0 
 10 43  1  0  0  0  0 
 12 44  1  0  0  0  0 
 12 45  1  0  0  0  0 
 13 46  1  0  0  0  0 
 16 47  1  0  0  0  0 
 16 48  1  0  0  0  0 
 18 49  1  0  0  0  0 
 18 50  1  0  0  0  0 
 18 51  1  0  0  0  0 
 20 52  1  0  0  0  0 
 21 53  1  0  0  0  0 
 21 54  1  0  0  0  0 
 21 55  1  0  0  0  0 
 22 56  1  0  0  0  0 
 22 57  1  0  0  0  0 
 22 58  1  0  0  0  0 
 23 59  1  0  0  0  0 
 23 60  1  0  0  0  0 
 23 61  1  0  0  0  0 
 24 62  1  0  0  0  0 
 25 63  1  0  0  0  0 
M  END
> <cdk:Title>
finasteride

> <Conformer>
1

> <SuperDrugID>
SD001048

$$$$
