sitagliptin
  CDK     0628171801

 43 45  0  0  0  0  0  0  0  0999 V2000
    2.9752   -3.4995   -4.8731 C   0  0  1  0  0  0  0  0  0  0  0  0
    2.4799   -4.2542   -5.9091 F   0  0  0  0  0  0  0  0  0  0  0  0
    4.2086   -3.9998   -4.5391 F   0  0  0  0  0  0  0  0  0  0  0  0
    3.1182   -2.2154   -5.3343 F   0  0  0  0  0  0  0  0  0  0  0  0
    2.0784   -3.5312   -3.6974 C   0  0  0  0  0  0  0  0  0  0  0  0
    2.1497   -2.7871   -2.5732 N   0  0  0  0  0  0  0  0  0  0  0  0
    1.0163   -4.3500   -3.5747 N   0  0  0  0  0  0  0  0  0  0  0  0
    1.1139   -3.1701   -1.8099 C   0  0  0  0  0  0  0  0  0  0  0  0
    3.0759   -1.7513   -2.2032 C   0  0  1  0  0  0  0  0  0  0  0  0
    0.4354   -4.1392   -2.4377 N   0  0  0  0  0  0  0  0  0  0  0  0
    0.8027   -2.5735   -0.4955 C   0  0  1  0  0  0  0  0  0  0  0  0
    2.9144   -1.3267   -0.7132 C   0  0  1  0  0  0  0  0  0  0  0  0
    1.5041   -1.3044   -0.3363 N   0  0  0  0  0  0  0  0  0  0  0  0
    0.8930   -0.1385    0.1200 C   0  0  0  0  0  0  0  0  0  0  0  0
   -0.5114   -0.0231    0.6043 C   0  0  1  0  0  0  0  0  0  0  0  0
    1.5416    0.9358    0.1487 O   0  0  0  0  0  0  0  0  0  0  0  0
   -1.5377    0.2142   -0.5448 C   0  0  1  0  0  0  0  0  0  0  0  0
   -3.0102    0.1221   -0.0412 C   0  0  2  0  0  0  0  0  0  0  0  0
   -1.2816    1.5364   -1.1490 N   0  0  1  0  0  0  0  0  0  0  0  0
   -4.0018    0.0932   -1.1579 C   0  0  0  0  0  0  0  0  0  0  0  0
   -4.3702   -1.1275   -1.7799 C   0  0  0  0  0  0  0  0  0  0  0  0
   -4.5863    1.2931   -1.6323 C   0  0  0  0  0  0  0  0  0  0  0  0
   -3.8530   -2.2683   -1.4028 F   0  0  0  0  0  0  0  0  0  0  0  0
   -5.3037   -1.1417   -2.8345 C   0  0  0  0  0  0  0  0  0  0  0  0
   -5.5088    1.2791   -2.6972 C   0  0  0  0  0  0  0  0  0  0  0  0
   -5.8753    0.0580   -3.2941 C   0  0  0  0  0  0  0  0  0  0  0  0
   -6.0173    2.4027   -3.1264 F   0  0  0  0  0  0  0  0  0  0  0  0
   -6.7342    0.0293   -4.2770 F   0  0  0  0  0  0  0  0  0  0  0  0
    4.1041   -2.0851   -2.3633 H   0  0  0  0  0  0  0  0  0  0  0  0
    2.8959   -0.8836   -2.8428 H   0  0  0  0  0  0  0  0  0  0  0  0
   -0.2815   -2.4840   -0.4314 H   0  0  0  0  0  0  0  0  0  0  0  0
    1.1220   -3.2698    0.2845 H   0  0  0  0  0  0  0  0  0  0  0  0
    3.4288   -2.0540   -0.0773 H   0  0  0  0  0  0  0  0  0  0  0  0
    3.4323   -0.3746   -0.5700 H   0  0  0  0  0  0  0  0  0  0  0  0
   -0.7638   -0.9164    1.1796 H   0  0  0  0  0  0  0  0  0  0  0  0
   -0.5896    0.8087    1.3120 H   0  0  0  0  0  0  0  0  0  0  0  0
   -1.3832   -0.5402   -1.3207 H   0  0  0  0  0  0  0  0  0  0  0  0
   -3.2155    0.9617    0.6290 H   0  0  0  0  0  0  0  0  0  0  0  0
   -3.1314   -0.7820    0.5625 H   0  0  0  0  0  0  0  0  0  0  0  0
   -1.9693    1.6844   -1.8902 H   0  0  0  0  0  0  0  0  0  0  0  0
   -1.4658    2.2375   -0.4262 H   0  0  0  0  0  0  0  0  0  0  0  0
   -4.3327    2.1907   -1.2100 H   0  0  0  0  0  0  0  0  0  0  0  0
   -5.5639   -2.0294   -3.2710 H   0  0  0  0  0  0  0  0  0  0  0  0
  1  2  1  0  0  0  0 
  1  3  1  0  0  0  0 
  1  4  1  0  0  0  0 
  1  5  1  0  0  0  0 
  5  6  1  0  0  0  0 
  5  7  2  0  0  0  0 
  6  8  1  0  0  0  0 
  6  9  1  0  0  0  0 
  7 10  1  0  0  0  0 
  8 10  2  0  0  0  0 
  8 11  1  0  0  0  0 
  9 12  1  0  0  0  0 
 11 13  1  0  0  0  0 
 12 13  1  0  0  0  0 
 13 14  1  0  0  0  0 
 14 15  1  0  0  0  0 
 14 16  2  0  0  0  0 
 17 15  1  0  0  0  0 
 17 18  1  0  0  0  0 
 17 19  1  0  0  0  0 
 18 20  1  0  0  0  0 
 20 21  2  0  0  0  0 
 20 22  1  0  0  0  0 
 21 23  1  0  0  0  0 
 21 24  1  0  0  0  0 
 22 25  2  0  0  0  0 
 24 26  2  0  0  0  0 
 25 26  1  0  0  0  0 
 25 27  1  0  0  0  0 
 26 28  1  0  0  0  0 
  9 29  1  0  0  0  0 
  9 30  1  0  0  0  0 
 11 31  1  0  0  0  0 
 11 32  1  0  0  0  0 
 12 33  1  0  0  0  0 
 12 34  1  0  0  0  0 
 15 35  1  0  0  0  0 
 15 36  1  0  0  0  0 
 17 37  1  0  0  0  0 
 18 38  1  0  0  0  0 
 18 39  1  0  0  0  0 
 19 40  1  0  0  0  0 
 19 41  1  0  0  0  0 
 22 42  1  0  0  0  0 
 24 43  1  0  0  0  0 
M  END
> <cdk:Title>
sitagliptin

> <Conformer>
1

> <SuperDrugID>
SD002200

$$$$
