velnacrine
  CDK     0628171801

 30 32  0  0  0  0  0  0  0  0999 V2000
    4.2492   -3.9702    1.1491 N   0  0  0  0  0  0  0  0  0  0  0  0
    4.6602   -2.6962    0.9373 C   0  0  0  0  0  0  0  0  0  0  0  0
    3.7668   -1.6148    1.1865 C   0  0  0  0  0  0  0  0  0  0  0  0
    5.9824   -2.4513    0.4762 C   0  0  0  0  0  0  0  0  0  0  0  0
    4.2265   -0.2944    0.9276 C   0  0  0  0  0  0  0  0  0  0  0  0
    2.3789   -1.8421    1.7010 C   0  0  2  0  0  0  0  0  0  0  0  0
    6.3686   -1.1029    0.2504 C   0  0  0  0  0  0  0  0  0  0  0  0
    6.9389   -3.4706    0.2289 C   0  0  0  0  0  0  0  0  0  0  0  0
    5.4906   -0.1008    0.4811 N   0  0  0  0  0  0  0  0  0  0  0  0
    3.4055    0.9245    1.1444 C   0  0  1  0  0  0  0  0  0  0  0  0
    1.5786   -2.3220    0.6210 O   0  0  0  0  0  0  0  0  0  0  0  0
    1.7275   -0.5811    2.3323 C   0  0  2  0  0  0  0  0  0  0  0  0
    7.6628   -0.7845   -0.2097 C   0  0  0  0  0  0  0  0  0  0  0  0
    8.2312   -3.1499   -0.2253 C   0  0  0  0  0  0  0  0  0  0  0  0
    1.9042    0.6479    1.4120 C   0  0  1  0  0  0  0  0  0  0  0  0
    8.5933   -1.8095   -0.4476 C   0  0  0  0  0  0  0  0  0  0  0  0
    3.3370   -4.1518    1.4183 H   0  0  0  0  0  0  0  0  0  0  0  0
    4.8636   -4.7088    1.0308 H   0  0  0  0  0  0  0  0  0  0  0  0
    2.3894   -2.6107    2.4798 H   0  0  0  0  0  0  0  0  0  0  0  0
    6.7149   -4.4581    0.3750 H   0  0  0  0  0  0  0  0  0  0  0  0
    3.8237    1.4621    1.9997 H   0  0  0  0  0  0  0  0  0  0  0  0
    3.4835    1.5766    0.2687 H   0  0  0  0  0  0  0  0  0  0  0  0
    0.7080   -2.5339    1.0203 H   0  0  0  0  0  0  0  0  0  0  0  0
    2.2018   -0.3749    3.2971 H   0  0  0  0  0  0  0  0  0  0  0  0
    0.6646   -0.7631    2.5135 H   0  0  0  0  0  0  0  0  0  0  0  0
    7.9276    0.1914   -0.3709 H   0  0  0  0  0  0  0  0  0  0  0  0
    8.9089   -3.8960   -0.3998 H   0  0  0  0  0  0  0  0  0  0  0  0
    1.4461    1.5260    1.8741 H   0  0  0  0  0  0  0  0  0  0  0  0
    1.3902    0.4684    0.4629 H   0  0  0  0  0  0  0  0  0  0  0  0
    9.5328   -1.5826   -0.7830 H   0  0  0  0  0  0  0  0  0  0  0  0
  1  2  1  0  0  0  0 
  2  3  1  0  0  0  0 
  2  4  2  0  0  0  0 
  3  5  2  0  0  0  0 
  6  3  1  0  0  0  0 
  4  7  1  0  0  0  0 
  4  8  1  0  0  0  0 
  5  9  1  0  0  0  0 
  5 10  1  0  0  0  0 
  6 11  1  0  0  0  0 
  6 12  1  0  0  0  0 
  7  9  2  0  0  0  0 
  7 13  1  0  0  0  0 
  8 14  2  0  0  0  0 
 10 15  1  0  0  0  0 
 12 15  1  0  0  0  0 
 13 16  2  0  0  0  0 
 14 16  1  0  0  0  0 
  1 17  1  0  0  0  0 
  1 18  1  0  0  0  0 
  6 19  1  0  0  0  0 
  8 20  1  0  0  0  0 
 10 21  1  0  0  0  0 
 10 22  1  0  0  0  0 
 11 23  1  0  0  0  0 
 12 24  1  0  0  0  0 
 12 25  1  0  0  0  0 
 13 26  1  0  0  0  0 
 14 27  1  0  0  0  0 
 15 28  1  0  0  0  0 
 15 29  1  0  0  0  0 
 16 30  1  0  0  0  0 
M  END
> <cdk:Title>
velnacrine

> <Conformer>
1

> <SuperDrugID>
SD003282

$$$$
