darunavir
  CDK     0628171801

 75 78  0  0  0  0  0  0  0  0999 V2000
   -2.4228   13.5069   -1.4379 O   0  0  0  0  0  0  0  0  0  0  0  0
   -2.2014   13.5198   -2.8599 C   0  0  2  0  0  0  0  0  0  0  0  0
   -2.3461   12.0154   -3.3224 C   0  0  2  0  0  0  0  0  0  0  0  0
   -2.1592   11.0227   -2.0285 C   0  0  2  0  0  0  0  0  0  0  0  0
   -1.9397   12.2153   -0.9315 C   0  0  1  0  0  0  0  0  0  0  0  0
   -0.8618   13.9187   -3.1640 O   0  0  0  0  0  0  0  0  0  0  0  0
   -1.3217   11.9909   -4.5109 C   0  0  2  0  0  0  0  0  0  0  0  0
   -0.5656   13.3330   -4.4327 C   0  0  1  0  0  0  0  0  0  0  0  0
   -1.1488   10.0042   -2.0523 O   0  0  0  0  0  0  0  0  0  0  0  0
    0.2105   10.0906   -2.1127 C   0  0  0  0  0  0  0  0  0  0  0  0
    0.8776    8.9084   -2.0486 N   0  0  0  0  0  0  0  0  0  0  0  0
    2.3015    8.7250   -1.9847 C   0  0  2  0  0  0  0  0  0  0  0  0
    2.6194    7.2443   -2.3972 C   0  0  1  0  0  0  0  0  0  0  0  0
    0.8044   11.1914   -2.2023 O   0  0  0  0  0  0  0  0  0  0  0  0
    2.8577    9.1866   -0.5953 C   0  0  1  0  0  0  0  0  0  0  0  0
    2.3523    8.4205    0.5790 C   0  0  0  0  0  0  0  0  0  0  0  0
    1.0171    8.5758    1.0257 C   0  0  0  0  0  0  0  0  0  0  0  0
    0.5200    7.8138    2.0974 C   0  0  0  0  0  0  0  0  0  0  0  0
    1.3639    6.9102    2.7660 C   0  0  0  0  0  0  0  0  0  0  0  0
    2.7007    6.7630    2.3561 C   0  0  0  0  0  0  0  0  0  0  0  0
    3.1918    7.5158    1.2728 C   0  0  0  0  0  0  0  0  0  0  0  0
    4.1253    6.9024   -2.6046 C   0  0  1  0  0  0  0  0  0  0  0  0
    4.4414    5.4455   -2.8070 N   0  0  2  0  0  0  0  0  0  0  0  0
    2.0493    6.3091   -1.4787 O   0  0  0  0  0  0  0  0  0  0  0  0
    5.9049    5.1105   -2.6926 C   0  0  1  0  0  0  0  0  0  0  0  0
    3.7435    4.7557   -4.2979 S   0  0  1  0  0  0  0  0  0  0  0  0
    4.3245    5.6376   -5.7227 C   0  0  0  0  0  0  0  0  0  0  0  0
    4.1663    3.2094   -4.4090 O   0  0  0  0  0  0  0  0  0  0  0  0
    2.1403    4.7726   -4.2209 O   0  0  0  0  0  0  0  0  0  0  0  0
    5.5530    5.2791   -6.3157 C   0  0  0  0  0  0  0  0  0  0  0  0
    6.0509    5.9975   -7.4175 C   0  0  0  0  0  0  0  0  0  0  0  0
    5.3226    7.0819   -7.9424 C   0  0  0  0  0  0  0  0  0  0  0  0
    4.0848    7.4339   -7.3675 C   0  0  0  0  0  0  0  0  0  0  0  0
    3.5863    6.7112   -6.2664 C   0  0  0  0  0  0  0  0  0  0  0  0
    5.8233    7.7801   -8.9799 N   0  0  0  0  0  0  0  0  0  0  0  0
    6.5369    5.2557   -1.2690 C   0  0  1  0  0  0  0  0  0  0  0  0
    5.6957    4.5220   -0.1894 C   0  0  0  0  0  0  0  0  0  0  0  0
    8.0086    4.7548   -1.2471 C   0  0  0  0  0  0  0  0  0  0  0  0
   -2.9240   14.1816   -3.3499 H   0  0  0  0  0  0  0  0  0  0  0  0
   -3.3596   11.9358   -3.8042 H   0  0  0  0  0  0  0  0  0  0  0  0
   -3.1157   10.5319   -1.8258 H   0  0  0  0  0  0  0  0  0  0  0  0
   -0.8786   12.4135   -0.6337 H   0  0  0  0  0  0  0  0  0  0  0  0
   -2.4626   12.0700    0.0467 H   0  0  0  0  0  0  0  0  0  0  0  0
   -1.8299   11.9109   -5.4779 H   0  0  0  0  0  0  0  0  0  0  0  0
   -0.6407   11.1455   -4.4289 H   0  0  0  0  0  0  0  0  0  0  0  0
   -0.8827   14.0129   -5.2306 H   0  0  0  0  0  0  0  0  0  0  0  0
    0.5103   13.1774   -4.5160 H   0  0  0  0  0  0  0  0  0  0  0  0
    0.3342    8.1054   -1.9959 H   0  0  0  0  0  0  0  0  0  0  0  0
    2.7584    9.3672   -2.7449 H   0  0  0  0  0  0  0  0  0  0  0  0
    2.1240    7.0924   -3.3570 H   0  0  0  0  0  0  0  0  0  0  0  0
    3.9478    9.1628   -0.6285 H   0  0  0  0  0  0  0  0  0  0  0  0
    2.6052   10.2377   -0.4455 H   0  0  0  0  0  0  0  0  0  0  0  0
    0.3937    9.2484    0.5768 H   0  0  0  0  0  0  0  0  0  0  0  0
   -0.4535    7.9223    2.3908 H   0  0  0  0  0  0  0  0  0  0  0  0
    1.0075    6.3695    3.5558 H   0  0  0  0  0  0  0  0  0  0  0  0
    3.3146    6.1093    2.8475 H   0  0  0  0  0  0  0  0  0  0  0  0
    4.1676    7.3941    0.9912 H   0  0  0  0  0  0  0  0  0  0  0  0
    4.5127    7.4846   -3.4428 H   0  0  0  0  0  0  0  0  0  0  0  0
    4.6415    7.2442   -1.7128 H   0  0  0  0  0  0  0  0  0  0  0  0
    1.0826    6.4706   -1.5072 H   0  0  0  0  0  0  0  0  0  0  0  0
    6.0558    4.0675   -2.9814 H   0  0  0  0  0  0  0  0  0  0  0  0
    6.4756    5.7202   -3.3995 H   0  0  0  0  0  0  0  0  0  0  0  0
    6.0999    4.4990   -5.9451 H   0  0  0  0  0  0  0  0  0  0  0  0
    6.9465    5.7274   -7.8308 H   0  0  0  0  0  0  0  0  0  0  0  0
    3.5436    8.2158   -7.7451 H   0  0  0  0  0  0  0  0  0  0  0  0
    2.6883    6.9805   -5.8598 H   0  0  0  0  0  0  0  0  0  0  0  0
    5.3363    8.5366   -9.3424 H   0  0  0  0  0  0  0  0  0  0  0  0
    6.6776    7.5275   -9.3650 H   0  0  0  0  0  0  0  0  0  0  0  0
    6.5796    6.3149   -1.0056 H   0  0  0  0  0  0  0  0  0  0  0  0
    4.6926    4.9462   -0.1279 H   0  0  0  0  0  0  0  0  0  0  0  0
    6.1622    4.6189    0.7929 H   0  0  0  0  0  0  0  0  0  0  0  0
    5.6098    3.4606   -0.4298 H   0  0  0  0  0  0  0  0  0  0  0  0
    8.6024    5.2749   -2.0014 H   0  0  0  0  0  0  0  0  0  0  0  0
    8.4593    4.9476   -0.2712 H   0  0  0  0  0  0  0  0  0  0  0  0
    8.0545    3.6822   -1.4448 H   0  0  0  0  0  0  0  0  0  0  0  0
  2  1  1  0  0  0  0 
  3  2  1  0  0  0  0 
  3  4  1  0  0  0  0 
  4  5  1  0  0  0  0 
  1  5  1  0  0  0  0 
  7  8  1  0  0  0  0 
  6  8  1  0  0  0  0 
  2  6  1  0  0  0  0 
  3  7  1  0  0  0  0 
  9 10  1  0  0  0  0 
 10 11  1  0  0  0  0 
 12 11  1  0  0  0  0 
 12 13  1  0  0  0  0 
 10 14  2  0  0  0  0 
 12 15  1  0  0  0  0 
  4  9  1  0  0  0  0 
 15 16  1  0  0  0  0 
 16 17  2  0  0  0  0 
 17 18  1  0  0  0  0 
 18 19  2  0  0  0  0 
 19 20  1  0  0  0  0 
 20 21  2  0  0  0  0 
 21 16  1  0  0  0  0 
 13 22  1  0  0  0  0 
 22 23  1  0  0  0  0 
 13 24  1  0  0  0  0 
 23 25  1  0  0  0  0 
 23 26  1  0  0  0  0 
 26 27  1  0  0  0  0 
 26 28  2  0  0  0  0 
 29 26  2  0  0  0  0 
 27 30  2  0  0  0  0 
 30 31  1  0  0  0  0 
 31 32  2  0  0  0  0 
 32 33  1  0  0  0  0 
 33 34  2  0  0  0  0 
 34 27  1  0  0  0  0 
 32 35  1  0  0  0  0 
 25 36  1  0  0  0  0 
 36 37  1  0  0  0  0 
 36 38  1  0  0  0  0 
  2 39  1  0  0  0  0 
  3 40  1  0  0  0  0 
  4 41  1  0  0  0  0 
 42  5  1  0  0  0  0 
 43  5  1  0  0  0  0 
 44  7  1  0  0  0  0 
 45  7  1  0  0  0  0 
 46  8  1  0  0  0  0 
 47  8  1  0  0  0  0 
 48 11  1  0  0  0  0 
 12 49  1  0  0  0  0 
 13 50  1  0  0  0  0 
 51 15  1  0  0  0  0 
 52 15  1  0  0  0  0 
 53 17  1  0  0  0  0 
 54 18  1  0  0  0  0 
 55 19  1  0  0  0  0 
 56 20  1  0  0  0  0 
 57 21  1  0  0  0  0 
 58 22  1  0  0  0  0 
 59 22  1  0  0  0  0 
 60 24  1  0  0  0  0 
 61 25  1  0  0  0  0 
 62 25  1  0  0  0  0 
 63 30  1  0  0  0  0 
 64 31  1  0  0  0  0 
 65 33  1  0  0  0  0 
 66 34  1  0  0  0  0 
 67 35  1  0  0  0  0 
 68 35  1  0  0  0  0 
 69 36  1  0  0  0  0 
 70 37  1  0  0  0  0 
 71 37  1  0  0  0  0 
 72 37  1  0  0  0  0 
 73 38  1  0  0  0  0 
 74 38  1  0  0  0  0 
 75 38  1  0  0  0  0 
M  END
> <cdk:Title>
darunavir

> <Conformer>
1

> <SuperDrugID>
SD003380

$$$$
