demecolcine
  CDK     0628171801

 52 54  0  0  0  0  0  0  0  0999 V2000
    0.2449    1.1267    0.4476 O   0  0  0  0  0  0  0  0  0  0  0  0
    1.4540    1.5577   -0.2054 C   0  0  0  0  0  0  0  0  0  0  0  0
    0.4248    0.8635    1.7846 C   0  0  0  0  0  0  0  0  0  0  0  0
    0.3499    1.9013    2.7651 C   0  0  0  0  0  0  0  0  0  0  0  0
    0.6812   -0.4777    2.1418 C   0  0  0  0  0  0  0  0  0  0  0  0
   -0.0864    3.1933    2.2880 C   0  0  0  0  0  0  0  0  0  0  0  0
    0.7222    1.5816    4.1070 C   0  0  0  0  0  0  0  0  0  0  0  0
    0.6867   -1.4662    1.1905 O   0  0  0  0  0  0  0  0  0  0  0  0
    0.9776   -0.7955    3.4782 C   0  0  0  0  0  0  0  0  0  0  0  0
    0.7670    4.3223    2.3867 C   0  0  0  0  0  0  0  0  0  0  0  0
   -1.3554    3.2119    1.6631 C   0  0  0  0  0  0  0  0  0  0  0  0
    0.9976    0.2282    4.4390 C   0  0  0  0  0  0  0  0  0  0  0  0
    0.8885    2.5555    5.2254 C   0  0  1  0  0  0  0  0  0  0  0  0
   -0.6190   -1.9965    0.8928 C   0  0  0  0  0  0  0  0  0  0  0  0
    1.2296   -2.0902    3.8579 O   0  0  0  0  0  0  0  0  0  0  0  0
    1.5696    4.5284    3.6512 C   0  0  2  0  0  0  0  0  0  0  0  0
    0.9433    5.2467    1.3276 C   0  0  0  0  0  0  0  0  0  0  0  0
   -1.8709    4.0914    0.7029 C   0  0  0  0  0  0  0  0  0  0  0  0
    0.7947    4.0696    4.9314 C   0  0  1  0  0  0  0  0  0  0  0  0
    2.6007   -2.4937    3.6839 C   0  0  0  0  0  0  0  0  0  0  0  0
    2.0601    5.9281    3.8615 N   0  0  1  0  0  0  0  0  0  0  0  0
    0.1213    5.5354    0.2242 C   0  0  0  0  0  0  0  0  0  0  0  0
   -1.1928    5.0934   -0.0051 C   0  0  0  0  0  0  0  0  0  0  0  0
    1.0600    6.9985    4.1086 C   0  0  0  0  0  0  0  0  0  0  0  0
    0.5956    6.3433   -0.6108 O   0  0  0  0  0  0  0  0  0  0  0  0
   -1.8938    5.6430   -1.0552 O   0  0  0  0  0  0  0  0  0  0  0  0
   -2.5796    6.8646   -0.7228 C   0  0  0  0  0  0  0  0  0  0  0  0
    1.2158    1.7551   -1.2500 H   0  0  0  0  0  0  0  0  0  0  0  0
    1.8481    2.4785    0.2316 H   0  0  0  0  0  0  0  0  0  0  0  0
    2.2251    0.7842   -0.1691 H   0  0  0  0  0  0  0  0  0  0  0  0
   -1.9961    2.4487    1.9121 H   0  0  0  0  0  0  0  0  0  0  0  0
    1.2269   -0.0348    5.4024 H   0  0  0  0  0  0  0  0  0  0  0  0
    0.1560    2.3183    6.0009 H   0  0  0  0  0  0  0  0  0  0  0  0
    1.8830    2.3919    5.6600 H   0  0  0  0  0  0  0  0  0  0  0  0
   -0.4969   -2.7854    0.1505 H   0  0  0  0  0  0  0  0  0  0  0  0
   -1.0917   -2.4311    1.7772 H   0  0  0  0  0  0  0  0  0  0  0  0
   -1.2762   -1.2337    0.4684 H   0  0  0  0  0  0  0  0  0  0  0  0
    2.4751    3.9222    3.5587 H   0  0  0  0  0  0  0  0  0  0  0  0
    1.7992    5.8095    1.3707 H   0  0  0  0  0  0  0  0  0  0  0  0
   -2.8453    3.9291    0.4317 H   0  0  0  0  0  0  0  0  0  0  0  0
   -0.2564    4.3634    4.8571 H   0  0  0  0  0  0  0  0  0  0  0  0
    1.1975    4.5779    5.8146 H   0  0  0  0  0  0  0  0  0  0  0  0
    2.6990   -3.5188    4.0437 H   0  0  0  0  0  0  0  0  0  0  0  0
    2.8894   -2.4770    2.6307 H   0  0  0  0  0  0  0  0  0  0  0  0
    3.2862   -1.8649    4.2580 H   0  0  0  0  0  0  0  0  0  0  0  0
    2.6894    5.9144    4.6671 H   0  0  0  0  0  0  0  0  0  0  0  0
    1.5758    7.9584    4.1154 H   0  0  0  0  0  0  0  0  0  0  0  0
    0.5774    6.8670    5.0766 H   0  0  0  0  0  0  0  0  0  0  0  0
    0.2935    7.0265    3.3331 H   0  0  0  0  0  0  0  0  0  0  0  0
   -3.1504    7.1793   -1.5959 H   0  0  0  0  0  0  0  0  0  0  0  0
   -1.8731    7.6600   -0.4736 H   0  0  0  0  0  0  0  0  0  0  0  0
   -3.2787    6.7252    0.1054 H   0  0  0  0  0  0  0  0  0  0  0  0
  1  2  1  0  0  0  0 
  1  3  1  0  0  0  0 
  3  4  2  0  0  0  0 
  3  5  1  0  0  0  0 
  4  6  1  0  0  0  0 
  4  7  1  0  0  0  0 
  5  8  1  0  0  0  0 
  5  9  2  0  0  0  0 
  6 10  1  0  0  0  0 
  6 11  2  0  0  0  0 
  7 12  2  0  0  0  0 
  7 13  1  0  0  0  0 
  8 14  1  0  0  0  0 
  9 12  1  0  0  0  0 
  9 15  1  0  0  0  0 
 16 10  1  0  0  0  0 
 10 17  2  0  0  0  0 
 11 18  1  0  0  0  0 
 13 19  1  0  0  0  0 
 15 20  1  0  0  0  0 
 16 19  1  0  0  0  0 
 16 21  1  0  0  0  0 
 17 22  1  0  0  0  0 
 18 23  2  0  0  0  0 
 21 24  1  0  0  0  0 
 22 23  1  0  0  0  0 
 22 25  2  0  0  0  0 
 23 26  1  0  0  0  0 
 26 27  1  0  0  0  0 
  2 28  1  0  0  0  0 
  2 29  1  0  0  0  0 
  2 30  1  0  0  0  0 
 11 31  1  0  0  0  0 
 12 32  1  0  0  0  0 
 13 33  1  0  0  0  0 
 13 34  1  0  0  0  0 
 14 35  1  0  0  0  0 
 14 36  1  0  0  0  0 
 14 37  1  0  0  0  0 
 16 38  1  0  0  0  0 
 17 39  1  0  0  0  0 
 18 40  1  0  0  0  0 
 19 41  1  0  0  0  0 
 19 42  1  0  0  0  0 
 20 43  1  0  0  0  0 
 20 44  1  0  0  0  0 
 20 45  1  0  0  0  0 
 21 46  1  0  0  0  0 
 24 47  1  0  0  0  0 
 24 48  1  0  0  0  0 
 24 49  1  0  0  0  0 
 27 50  1  0  0  0  0 
 27 51  1  0  0  0  0 
 27 52  1  0  0  0  0 
M  END
> <cdk:Title>
demecolcine

> <Conformer>
1

> <SuperDrugID>
SD003528

$$$$
