guanazodine
  CDK     0628171801

 33 33  0  0  0  0  0  0  0  0999 V2000
   -1.4664   -0.6935    0.3135 C   0  0  1  0  0  0  0  0  0  0  0  0
   -0.1050   -0.8495    0.0362 N   0  0  0  0  0  0  0  0  0  0  0  0
   -2.1747   -2.0560    0.5821 C   0  0  2  0  0  0  0  0  0  0  0  0
    0.7953    0.0579   -0.0992 C   0  0  0  0  0  0  0  0  0  0  0  0
   -1.6135   -2.7484    1.8642 C   0  0  2  0  0  0  0  0  0  0  0  0
   -2.0315   -2.9005   -0.6339 N   0  0  1  0  0  0  0  0  0  0  0  0
    0.5603    1.3482    0.0393 N   0  0  0  0  0  0  0  0  0  0  0  0
    2.0190   -0.3289   -0.3888 N   0  0  0  0  0  0  0  0  0  0  0  0
   -2.5271   -3.8248    2.5222 C   0  0  1  0  0  0  0  0  0  0  0  0
   -3.0360   -3.9630   -0.8656 C   0  0  1  0  0  0  0  0  0  0  0  0
   -2.2259   -5.3050    2.1492 C   0  0  2  0  0  0  0  0  0  0  0  0
   -2.5303   -5.3734   -0.4662 C   0  0  2  0  0  0  0  0  0  0  0  0
   -2.9896   -5.8773    0.9281 C   0  0  2  0  0  0  0  0  0  0  0  0
   -1.5954   -0.0483    1.1876 H   0  0  0  0  0  0  0  0  0  0  0  0
   -1.9458   -0.1990   -0.5360 H   0  0  0  0  0  0  0  0  0  0  0  0
   -3.2307   -1.8111    0.7409 H   0  0  0  0  0  0  0  0  0  0  0  0
   -1.4598   -1.9719    2.6196 H   0  0  0  0  0  0  0  0  0  0  0  0
   -0.6266   -3.1644    1.6486 H   0  0  0  0  0  0  0  0  0  0  0  0
   -2.1257   -2.2619   -1.4271 H   0  0  0  0  0  0  0  0  0  0  0  0
   -0.3304    1.6635    0.2633 H   0  0  0  0  0  0  0  0  0  0  0  0
    1.2790    1.9904   -0.0763 H   0  0  0  0  0  0  0  0  0  0  0  0
    2.7293    0.3255   -0.4773 H   0  0  0  0  0  0  0  0  0  0  0  0
    2.2157   -1.2711   -0.5201 H   0  0  0  0  0  0  0  0  0  0  0  0
   -2.3799   -3.7443    3.6055 H   0  0  0  0  0  0  0  0  0  0  0  0
   -3.5823   -3.5981    2.3474 H   0  0  0  0  0  0  0  0  0  0  0  0
   -3.9995   -3.7368   -0.4015 H   0  0  0  0  0  0  0  0  0  0  0  0
   -3.2098   -3.9678   -1.9449 H   0  0  0  0  0  0  0  0  0  0  0  0
   -2.5183   -5.9195    3.0067 H   0  0  0  0  0  0  0  0  0  0  0  0
   -1.1525   -5.4538    2.0139 H   0  0  0  0  0  0  0  0  0  0  0  0
   -1.4398   -5.4223   -0.5394 H   0  0  0  0  0  0  0  0  0  0  0  0
   -2.9239   -6.0841   -1.1999 H   0  0  0  0  0  0  0  0  0  0  0  0
   -4.0628   -5.7064    1.0504 H   0  0  0  0  0  0  0  0  0  0  0  0
   -2.8429   -6.9617    0.9412 H   0  0  0  0  0  0  0  0  0  0  0  0
  1  2  1  0  0  0  0 
  3  1  1  0  0  0  0 
  2  4  2  0  0  0  0 
  3  5  1  0  0  0  0 
  3  6  1  0  0  0  0 
  4  7  1  0  0  0  0 
  4  8  1  0  0  0  0 
  5  9  1  0  0  0  0 
  6 10  1  0  0  0  0 
  9 11  1  0  0  0  0 
 10 12  1  0  0  0  0 
 11 13  1  0  0  0  0 
 12 13  1  0  0  0  0 
 14  1  1  0  0  0  0 
 15  1  1  0  0  0  0 
 16  3  1  0  0  0  0 
 17  5  1  0  0  0  0 
 18  5  1  0  0  0  0 
 19  6  1  0  0  0  0 
 20  7  1  0  0  0  0 
 21  7  1  0  0  0  0 
 22  8  1  0  0  0  0 
 23  8  1  0  0  0  0 
 24  9  1  0  0  0  0 
 25  9  1  0  0  0  0 
 26 10  1  0  0  0  0 
 27 10  1  0  0  0  0 
 28 11  1  0  0  0  0 
 29 11  1  0  0  0  0 
 30 12  1  0  0  0  0 
 31 12  1  0  0  0  0 
 32 13  1  0  0  0  0 
 33 13  1  0  0  0  0 
M  END
> <cdk:Title>
guanazodine

> <Conformer>
1

> <SuperDrugID>
SD002977

$$$$
