propiram
  CDK     0628171801

 45 46  0  0  0  0  0  0  0  0999 V2000
   -2.5526    2.2504    1.9066 N   0  0  0  0  0  0  0  0  0  0  0  0
   -1.2905    1.6441    1.4743 C   0  0  1  0  0  0  0  0  0  0  0  0
   -3.3072    3.1073    1.1022 C   0  0  0  0  0  0  0  0  0  0  0  0
   -2.9308    2.0071    3.1998 C   0  0  0  0  0  0  0  0  0  0  0  0
   -1.4428    0.6748    0.2594 C   0  0  1  0  0  0  0  0  0  0  0  0
   -0.1870    2.7231    1.2647 C   0  0  0  0  0  0  0  0  0  0  0  0
   -4.5866    3.7766    1.4784 C   0  0  1  0  0  0  0  0  0  0  0  0
   -2.9129    3.3987   -0.0528 O   0  0  0  0  0  0  0  0  0  0  0  0
   -3.9411    1.0849    3.5465 C   0  0  0  0  0  0  0  0  0  0  0  0
   -2.2684    2.6672    4.1863 N   0  0  0  0  0  0  0  0  0  0  0  0
   -0.1255    0.0227   -0.0259 N   0  0  2  0  0  0  0  0  0  0  0  0
   -4.4093    5.2934    1.7144 C   0  0  0  0  0  0  0  0  0  0  0  0
   -4.2673    0.9132    4.9051 C   0  0  0  0  0  0  0  0  0  0  0  0
   -2.5463    2.5061    5.5035 C   0  0  0  0  0  0  0  0  0  0  0  0
    0.5088    0.3454   -1.3374 C   0  0  2  0  0  0  0  0  0  0  0  0
    0.0563   -1.3918    0.4175 C   0  0  1  0  0  0  0  0  0  0  0  0
   -3.5692    1.6266    5.8955 C   0  0  0  0  0  0  0  0  0  0  0  0
    2.0259    0.0411   -1.2953 C   0  0  2  0  0  0  0  0  0  0  0  0
    1.5663   -1.7343    0.5037 C   0  0  1  0  0  0  0  0  0  0  0  0
    2.3051   -1.4062   -0.8194 C   0  0  1  0  0  0  0  0  0  0  0  0
   -0.8942    1.0047    2.2757 H   0  0  0  0  0  0  0  0  0  0  0  0
   -2.2086   -0.0716    0.4915 H   0  0  0  0  0  0  0  0  0  0  0  0
   -1.8028    1.2187   -0.6164 H   0  0  0  0  0  0  0  0  0  0  0  0
   -0.3635    3.3041    0.3601 H   0  0  0  0  0  0  0  0  0  0  0  0
    0.7956    2.2537    1.1867 H   0  0  0  0  0  0  0  0  0  0  0  0
   -0.1557    3.4020    2.1178 H   0  0  0  0  0  0  0  0  0  0  0  0
   -5.3187    3.6250    0.6792 H   0  0  0  0  0  0  0  0  0  0  0  0
   -5.0207    3.3517    2.3805 H   0  0  0  0  0  0  0  0  0  0  0  0
   -4.4281    0.5468    2.8273 H   0  0  0  0  0  0  0  0  0  0  0  0
   -5.3683    5.7454    1.9702 H   0  0  0  0  0  0  0  0  0  0  0  0
   -3.7145    5.4737    2.5371 H   0  0  0  0  0  0  0  0  0  0  0  0
   -4.0297    5.7832    0.8163 H   0  0  0  0  0  0  0  0  0  0  0  0
   -5.0116    0.2681    5.1745 H   0  0  0  0  0  0  0  0  0  0  0  0
   -2.0087    3.0243    6.2011 H   0  0  0  0  0  0  0  0  0  0  0  0
    0.3930    1.4080   -1.5666 H   0  0  0  0  0  0  0  0  0  0  0  0
    0.0271   -0.2285   -2.1342 H   0  0  0  0  0  0  0  0  0  0  0  0
   -0.3819   -1.5476    1.4074 H   0  0  0  0  0  0  0  0  0  0  0  0
   -0.4402   -2.0695   -0.2831 H   0  0  0  0  0  0  0  0  0  0  0  0
   -3.7930    1.5058    6.8841 H   0  0  0  0  0  0  0  0  0  0  0  0
    2.5134    0.7452   -0.6144 H   0  0  0  0  0  0  0  0  0  0  0  0
    2.4498    0.1878   -2.2918 H   0  0  0  0  0  0  0  0  0  0  0  0
    2.0151   -1.1609    1.3195 H   0  0  0  0  0  0  0  0  0  0  0  0
    1.6903   -2.7959    0.7328 H   0  0  0  0  0  0  0  0  0  0  0  0
    1.9801   -2.1045   -1.5945 H   0  0  0  0  0  0  0  0  0  0  0  0
    3.3816   -1.5382   -0.6767 H   0  0  0  0  0  0  0  0  0  0  0  0
  2  1  1  0  0  0  0 
  1  3  1  0  0  0  0 
  1  4  1  0  0  0  0 
  2  5  1  0  0  0  0 
  2  6  1  0  0  0  0 
  3  7  1  0  0  0  0 
  3  8  2  0  0  0  0 
  4  9  2  0  0  0  0 
  4 10  1  0  0  0  0 
  5 11  1  0  0  0  0 
  7 12  1  0  0  0  0 
  9 13  1  0  0  0  0 
 10 14  2  0  0  0  0 
 11 15  1  0  0  0  0 
 11 16  1  0  0  0  0 
 13 17  2  0  0  0  0 
 14 17  1  0  0  0  0 
 15 18  1  0  0  0  0 
 16 19  1  0  0  0  0 
 18 20  1  0  0  0  0 
 19 20  1  0  0  0  0 
  2 21  1  0  0  0  0 
  5 22  1  0  0  0  0 
  5 23  1  0  0  0  0 
  6 24  1  0  0  0  0 
  6 25  1  0  0  0  0 
  6 26  1  0  0  0  0 
  7 27  1  0  0  0  0 
  7 28  1  0  0  0  0 
  9 29  1  0  0  0  0 
 12 30  1  0  0  0  0 
 12 31  1  0  0  0  0 
 12 32  1  0  0  0  0 
 13 33  1  0  0  0  0 
 14 34  1  0  0  0  0 
 15 35  1  0  0  0  0 
 15 36  1  0  0  0  0 
 16 37  1  0  0  0  0 
 16 38  1  0  0  0  0 
 17 39  1  0  0  0  0 
 18 40  1  0  0  0  0 
 18 41  1  0  0  0  0 
 19 42  1  0  0  0  0 
 19 43  1  0  0  0  0 
 20 44  1  0  0  0  0 
 20 45  1  0  0  0  0 
M  END
> <cdk:Title>
propiram

> <Conformer>
1

> <SuperDrugID>
SD002064

$$$$
