arginine hydrochloride
  CDK     0628171801

 26 25  0  0  0  0  0  0  0  0999 V2000
   -2.7103   -6.1469    0.9459 N   0  0  1  0  0  0  0  0  0  0  0  0
   -1.8041   -5.6838   -0.1150 C   0  0  1  0  0  0  0  0  0  0  0  0
   -0.7258   -4.7029    0.4323 C   0  0  1  0  0  0  0  0  0  0  0  0
   -1.3117   -3.3887    1.0233 C   0  0  2  0  0  0  0  0  0  0  0  0
   -0.2433   -2.4184    1.5925 C   0  0  2  0  0  0  0  0  0  0  0  0
    0.6351   -1.9721    0.6009 N   0  0  0  0  0  0  0  0  0  0  0  0
    1.6008   -1.1295    0.6942 C   0  0  0  0  0  0  0  0  0  0  0  0
    2.3008   -0.8679   -0.3854 N   0  0  0  0  0  0  0  0  0  0  0  0
    1.9238   -0.5055    1.8110 N   0  0  0  0  0  0  0  0  0  0  0  0
   -1.1901   -6.8732   -0.7420 C   0  0  0  0  0  0  0  0  0  0  0  0
   -1.3711   -7.1325   -2.0572 O   0  0  0  0  0  0  0  0  0  0  0  0
   -0.4944   -7.6710   -0.0722 O   0  0  0  0  0  0  0  0  0  0  0  0
   -3.1907   -5.3256    1.3172 H   0  0  0  0  0  0  0  0  0  0  0  0
   -3.4255   -6.7222    0.4963 H   0  0  0  0  0  0  0  0  0  0  0  0
   -2.4083   -5.1607   -0.8611 H   0  0  0  0  0  0  0  0  0  0  0  0
   -0.1396   -5.2068    1.2057 H   0  0  0  0  0  0  0  0  0  0  0  0
   -0.0486   -4.4414   -0.3862 H   0  0  0  0  0  0  0  0  0  0  0  0
   -1.9971   -3.6404    1.8376 H   0  0  0  0  0  0  0  0  0  0  0  0
   -1.8900   -2.8693    0.2516 H   0  0  0  0  0  0  0  0  0  0  0  0
    0.3137   -2.9214    2.3868 H   0  0  0  0  0  0  0  0  0  0  0  0
   -0.7614   -1.5602    2.0272 H   0  0  0  0  0  0  0  0  0  0  0  0
    2.0923   -1.3110   -1.2251 H   0  0  0  0  0  0  0  0  0  0  0  0
    3.0287   -0.2280   -0.3480 H   0  0  0  0  0  0  0  0  0  0  0  0
    1.4056   -0.6471    2.6191 H   0  0  0  0  0  0  0  0  0  0  0  0
    2.6785    0.1037    1.8263 H   0  0  0  0  0  0  0  0  0  0  0  0
   -0.9675   -7.9296   -2.4606 H   0  0  0  0  0  0  0  0  0  0  0  0
  2  1  1  0  0  0  0 
  2  3  1  0  0  0  0 
  3  4  1  0  0  0  0 
  4  5  1  0  0  0  0 
  5  6  1  0  0  0  0 
  6  7  2  0  0  0  0 
  7  8  1  0  0  0  0 
  7  9  1  0  0  0  0 
  2 10  1  0  0  0  0 
 10 11  1  0  0  0  0 
 10 12  2  0  0  0  0 
 13  1  1  0  0  0  0 
 14  1  1  0  0  0  0 
  2 15  1  0  0  0  0 
 16  3  1  0  0  0  0 
 17  3  1  0  0  0  0 
 18  4  1  0  0  0  0 
 19  4  1  0  0  0  0 
 20  5  1  0  0  0  0 
 21  5  1  0  0  0  0 
 22  8  1  0  0  0  0 
 23  8  1  0  0  0  0 
 24  9  1  0  0  0  0 
 25  9  1  0  0  0  0 
 26 11  1  0  0  0  0 
M  END
> <cdk:Title>
arginine hydrochloride

> <Conformer>
1

> <SuperDrugID>
SD001368

$$$$
