parecoxib
  CDK     0628171801

 44 46  0  0  0  0  0  0  0  0999 V2000
   -5.4831    4.2873    0.8602 C   0  0  0  0  0  0  0  0  0  0  0  0
   -6.2629    3.6276   -0.2016 C   0  0  0  0  0  0  0  0  0  0  0  0
   -6.0256    2.4051   -0.8389 C   0  0  0  0  0  0  0  0  0  0  0  0
   -7.4144    4.1398   -0.6926 O   0  0  0  0  0  0  0  0  0  0  0  0
   -7.0907    2.2715   -1.7425 C   0  0  0  0  0  0  0  0  0  0  0  0
   -4.9769    1.4715   -0.5884 C   0  0  0  0  0  0  0  0  0  0  0  0
   -7.9001    3.3352   -1.5962 N   0  0  0  0  0  0  0  0  0  0  0  0
   -7.3258    1.2471   -2.6942 C   0  0  0  0  0  0  0  0  0  0  0  0
   -3.6173    1.8642   -0.5307 C   0  0  0  0  0  0  0  0  0  0  0  0
   -5.2833    0.1015   -0.4067 C   0  0  0  0  0  0  0  0  0  0  0  0
   -8.6128    0.6782   -2.8454 C   0  0  0  0  0  0  0  0  0  0  0  0
   -6.2817    0.7802   -3.5274 C   0  0  0  0  0  0  0  0  0  0  0  0
   -2.5984    0.9170   -0.3070 C   0  0  0  0  0  0  0  0  0  0  0  0
   -4.2668   -0.8488   -0.1991 C   0  0  0  0  0  0  0  0  0  0  0  0
   -8.8422   -0.3450   -3.7860 C   0  0  0  0  0  0  0  0  0  0  0  0
   -6.5106   -0.2387   -4.4699 C   0  0  0  0  0  0  0  0  0  0  0  0
   -2.9153   -0.4486   -0.1539 C   0  0  0  0  0  0  0  0  0  0  0  0
   -7.7889   -0.8081   -4.5934 C   0  0  0  0  0  0  0  0  0  0  0  0
   -1.6177   -1.6433    0.0542 S   0  0  2  0  0  0  0  0  0  0  0  0
   -0.7278   -1.7764   -1.4098 N   0  0  0  0  0  0  0  0  0  0  0  0
   -2.2251   -3.0923    0.3864 O   0  0  0  0  0  0  0  0  0  0  0  0
   -0.6540   -1.2207    1.2648 O   0  0  0  0  0  0  0  0  0  0  0  0
    0.4743   -1.1978   -1.6692 C   0  0  0  0  0  0  0  0  0  0  0  0
    1.0780   -1.3491   -3.0133 C   0  0  1  0  0  0  0  0  0  0  0  0
    1.0907   -0.5431   -0.7950 O   0  0  0  0  0  0  0  0  0  0  0  0
    1.4548   -0.0020   -3.6713 C   0  0  0  0  0  0  0  0  0  0  0  0
   -5.9631    5.2214    1.1563 H   0  0  0  0  0  0  0  0  0  0  0  0
   -5.4202    3.6344    1.7303 H   0  0  0  0  0  0  0  0  0  0  0  0
   -4.4793    4.5182    0.5087 H   0  0  0  0  0  0  0  0  0  0  0  0
   -3.3490    2.8405   -0.6690 H   0  0  0  0  0  0  0  0  0  0  0  0
   -6.2540   -0.2213   -0.4316 H   0  0  0  0  0  0  0  0  0  0  0  0
   -9.3935    0.9937   -2.2653 H   0  0  0  0  0  0  0  0  0  0  0  0
   -5.3451    1.1833   -3.4639 H   0  0  0  0  0  0  0  0  0  0  0  0
   -1.6232    1.2290   -0.2712 H   0  0  0  0  0  0  0  0  0  0  0  0
   -4.5237   -1.8333   -0.0916 H   0  0  0  0  0  0  0  0  0  0  0  0
   -9.7746   -0.7540   -3.8839 H   0  0  0  0  0  0  0  0  0  0  0  0
   -5.7477   -0.5648   -5.0676 H   0  0  0  0  0  0  0  0  0  0  0  0
   -7.9532   -1.5535   -5.2726 H   0  0  0  0  0  0  0  0  0  0  0  0
   -1.1325   -2.3023   -2.1167 H   0  0  0  0  0  0  0  0  0  0  0  0
    1.9786   -1.9618   -2.9296 H   0  0  0  0  0  0  0  0  0  0  0  0
    0.3805   -1.8680   -3.6777 H   0  0  0  0  0  0  0  0  0  0  0  0
    1.7749   -0.1669   -4.7026 H   0  0  0  0  0  0  0  0  0  0  0  0
    0.5987    0.6733   -3.6797 H   0  0  0  0  0  0  0  0  0  0  0  0
    2.2737    0.4702   -3.1251 H   0  0  0  0  0  0  0  0  0  0  0  0
  1  2  1  0  0  0  0 
  2  3  2  0  0  0  0 
  2  4  1  0  0  0  0 
  3  5  1  0  0  0  0 
  3  6  1  0  0  0  0 
  4  7  1  0  0  0  0 
  5  7  2  0  0  0  0 
  5  8  1  0  0  0  0 
  6  9  2  0  0  0  0 
  6 10  1  0  0  0  0 
  8 11  2  0  0  0  0 
  8 12  1  0  0  0  0 
  9 13  1  0  0  0  0 
 10 14  2  0  0  0  0 
 11 15  1  0  0  0  0 
 12 16  2  0  0  0  0 
 13 17  2  0  0  0  0 
 14 17  1  0  0  0  0 
 15 18  2  0  0  0  0 
 16 18  1  0  0  0  0 
 17 19  1  0  0  0  0 
 19 20  1  0  0  0  0 
 19 21  2  0  0  0  0 
 19 22  2  0  0  0  0 
 20 23  1  0  0  0  0 
 23 24  1  0  0  0  0 
 23 25  2  0  0  0  0 
 24 26  1  0  0  0  0 
  1 27  1  0  0  0  0 
  1 28  1  0  0  0  0 
  1 29  1  0  0  0  0 
  9 30  1  0  0  0  0 
 10 31  1  0  0  0  0 
 11 32  1  0  0  0  0 
 12 33  1  0  0  0  0 
 13 34  1  0  0  0  0 
 14 35  1  0  0  0  0 
 15 36  1  0  0  0  0 
 16 37  1  0  0  0  0 
 18 38  1  0  0  0  0 
 20 39  1  0  0  0  0 
 24 40  1  0  0  0  0 
 24 41  1  0  0  0  0 
 26 42  1  0  0  0  0 
 26 43  1  0  0  0  0 
 26 44  1  0  0  0  0 
M  END
> <cdk:Title>
parecoxib

> <Conformer>
1

> <SuperDrugID>
SD001849

$$$$
