prednisolone tebutate
  CDK     0628171801

 71 74  0  0  0  0  0  0  0  0999 V2000
   -3.7210   -0.2773    1.5845 C   0  0  0  0  0  0  0  0  0  0  0  0
   -3.5590   -1.8486    1.5098 C   0  0  2  0  0  0  0  0  0  0  0  0
   -4.6776   -2.6525    2.2507 C   0  0  2  0  0  0  0  0  0  0  0  0
   -2.2923   -2.2857    2.3467 C   0  0  2  0  0  0  0  0  0  0  0  0
   -3.6047   -2.3258    0.0151 C   0  0  2  0  0  0  0  0  0  0  0  0
   -6.1181   -2.3683    1.7163 C   0  0  1  0  0  0  0  0  0  0  0  0
   -4.3802   -2.4243    3.7462 C   0  0  1  0  0  0  0  0  0  0  0  0
   -1.0620   -1.4443    2.1470 C   0  0  0  0  0  0  0  0  0  0  0  0
   -1.9194   -3.6375    2.0358 O   0  0  0  0  0  0  0  0  0  0  0  0
   -2.8366   -2.3136    3.8203 C   0  0  2  0  0  0  0  0  0  0  0  0
   -5.0027   -2.1364   -0.6661 C   0  0  1  0  0  0  0  0  0  0  0  0
   -6.2215   -2.6918    0.1721 C   0  0  2  0  0  0  0  0  0  0  0  0
   -7.1925   -3.1843    2.5018 C   0  0  1  0  0  0  0  0  0  0  0  0
   -0.1730   -1.5365    0.9690 C   0  0  2  0  0  0  0  0  0  0  0  0
   -0.7384   -0.5787    2.9956 O   0  0  0  0  0  0  0  0  0  0  0  0
   -5.1697   -0.7753   -1.0459 O   0  0  0  0  0  0  0  0  0  0  0  0
   -7.6922   -2.4181   -0.3896 C   0  0  2  0  0  0  0  0  0  0  0  0
   -8.6164   -2.9739    1.9318 C   0  0  2  0  0  0  0  0  0  0  0  0
   -0.2605   -0.3204    0.2134 O   0  0  0  0  0  0  0  0  0  0  0  0
   -8.1372   -0.9084   -0.3763 C   0  0  0  0  0  0  0  0  0  0  0  0
   -8.6490   -3.1871    0.4767 C   0  0  0  0  0  0  0  0  0  0  0  0
   -7.7800   -2.8212   -1.8156 C   0  0  0  0  0  0  0  0  0  0  0  0
    0.5860    0.0878   -0.7790 C   0  0  0  0  0  0  0  0  0  0  0  0
   -9.5089   -4.0874   -0.0528 C   0  0  0  0  0  0  0  0  0  0  0  0
   -8.6625   -3.7219   -2.2765 C   0  0  0  0  0  0  0  0  0  0  0  0
    0.2833    1.3212   -1.5367 C   0  0  2  0  0  0  0  0  0  0  0  0
    1.6359   -0.5492   -1.0323 O   0  0  0  0  0  0  0  0  0  0  0  0
   -9.5441   -4.3464   -1.4138 C   0  0  0  0  0  0  0  0  0  0  0  0
   -0.4247    1.0805   -2.9069 C   0  0  2  0  0  0  0  0  0  0  0  0
  -10.3748   -5.1694   -1.8648 O   0  0  0  0  0  0  0  0  0  0  0  0
   -0.7818    2.5267   -3.6044 C   0  0  0  0  0  0  0  0  0  0  0  0
   -1.8354    0.2555   -2.7204 C   0  0  0  0  0  0  0  0  0  0  0  0
    0.5389    0.2571   -3.9552 C   0  0  0  0  0  0  0  0  0  0  0  0
   -4.6848    0.0716    1.2285 H   0  0  0  0  0  0  0  0  0  0  0  0
   -3.6112    0.1001    2.6017 H   0  0  0  0  0  0  0  0  0  0  0  0
   -2.9613    0.2079    0.9713 H   0  0  0  0  0  0  0  0  0  0  0  0
   -4.5162   -3.7274    2.0858 H   0  0  0  0  0  0  0  0  0  0  0  0
   -3.3568   -3.3911   -0.0365 H   0  0  0  0  0  0  0  0  0  0  0  0
   -2.8419   -1.8002   -0.5624 H   0  0  0  0  0  0  0  0  0  0  0  0
   -6.3359   -1.3153    1.8864 H   0  0  0  0  0  0  0  0  0  0  0  0
   -4.8554   -1.5034    4.0949 H   0  0  0  0  0  0  0  0  0  0  0  0
   -4.7475   -3.2555    4.3529 H   0  0  0  0  0  0  0  0  0  0  0  0
   -1.1716   -3.8450    2.6351 H   0  0  0  0  0  0  0  0  0  0  0  0
   -2.5876   -1.4050    4.3730 H   0  0  0  0  0  0  0  0  0  0  0  0
   -2.4206   -3.1535    4.3839 H   0  0  0  0  0  0  0  0  0  0  0  0
   -4.9666   -2.6933   -1.6065 H   0  0  0  0  0  0  0  0  0  0  0  0
   -6.0869   -3.7801    0.1003 H   0  0  0  0  0  0  0  0  0  0  0  0
   -6.9525   -4.2512    2.4640 H   0  0  0  0  0  0  0  0  0  0  0  0
   -7.1934   -2.8852    3.5539 H   0  0  0  0  0  0  0  0  0  0  0  0
   -0.4419   -2.3743    0.3231 H   0  0  0  0  0  0  0  0  0  0  0  0
    0.8497   -1.6894    1.3256 H   0  0  0  0  0  0  0  0  0  0  0  0
   -4.4255   -0.5860   -1.6542 H   0  0  0  0  0  0  0  0  0  0  0  0
   -8.9486   -1.9602    2.1617 H   0  0  0  0  0  0  0  0  0  0  0  0
   -9.2901   -3.6474    2.4695 H   0  0  0  0  0  0  0  0  0  0  0  0
   -7.5796   -0.3032   -1.0921 H   0  0  0  0  0  0  0  0  0  0  0  0
   -8.0102   -0.4442    0.6002 H   0  0  0  0  0  0  0  0  0  0  0  0
   -9.1942   -0.8182   -0.6432 H   0  0  0  0  0  0  0  0  0  0  0  0
   -7.1798   -2.3887   -2.4808 H   0  0  0  0  0  0  0  0  0  0  0  0
  -10.1345   -4.5896    0.5353 H   0  0  0  0  0  0  0  0  0  0  0  0
   -8.6853   -3.9351   -3.2486 H   0  0  0  0  0  0  0  0  0  0  0  0
    1.2154    1.8673   -1.7056 H   0  0  0  0  0  0  0  0  0  0  0  0
   -0.3540    1.9613   -0.9206 H   0  0  0  0  0  0  0  0  0  0  0  0
   -1.2937    2.4511   -4.5987 H   0  0  0  0  0  0  0  0  0  0  0  0
   -1.4622    3.1799   -3.0019 H   0  0  0  0  0  0  0  0  0  0  0  0
    0.1052    3.1779   -3.8087 H   0  0  0  0  0  0  0  0  0  0  0  0
   -1.7100   -0.8248   -2.4591 H   0  0  0  0  0  0  0  0  0  0  0  0
   -2.4896    0.2294   -3.6282 H   0  0  0  0  0  0  0  0  0  0  0  0
   -2.5057    0.6581   -1.9197 H   0  0  0  0  0  0  0  0  0  0  0  0
    0.7982   -0.7837   -3.6394 H   0  0  0  0  0  0  0  0  0  0  0  0
    1.5301    0.7378   -4.1506 H   0  0  0  0  0  0  0  0  0  0  0  0
    0.1037    0.1186   -4.9764 H   0  0  0  0  0  0  0  0  0  0  0  0
  2  1  1  0  0  0  0 
  3  2  1  0  0  0  0 
  2  4  1  0  0  0  0 
  2  5  1  0  0  0  0 
  6  3  1  0  0  0  0 
  3  7  1  0  0  0  0 
  4  8  1  0  0  0  0 
  4  9  1  0  0  0  0 
  4 10  1  0  0  0  0 
 11  5  1  0  0  0  0 
 12  6  1  0  0  0  0 
  6 13  1  0  0  0  0 
  7 10  1  0  0  0  0 
  8 14  1  0  0  0  0 
  8 15  2  0  0  0  0 
 12 11  1  0  0  0  0 
 11 16  1  0  0  0  0 
 12 17  1  0  0  0  0 
 13 18  1  0  0  0  0 
 14 19  1  0  0  0  0 
 17 20  1  0  0  0  0 
 17 21  1  0  0  0  0 
 17 22  1  0  0  0  0 
 18 21  1  0  0  0  0 
 19 23  1  0  0  0  0 
 21 24  2  0  0  0  0 
 22 25  2  0  0  0  0 
 23 26  1  0  0  0  0 
 23 27  2  0  0  0  0 
 24 28  1  0  0  0  0 
 25 28  1  0  0  0  0 
 26 29  1  0  0  0  0 
 28 30  2  0  0  0  0 
 29 31  1  0  0  0  0 
 29 32  1  0  0  0  0 
 29 33  1  0  0  0  0 
 34  1  1  0  0  0  0 
 35  1  1  0  0  0  0 
 36  1  1  0  0  0  0 
  3 37  1  0  0  0  0 
 38  5  1  0  0  0  0 
 39  5  1  0  0  0  0 
  6 40  1  0  0  0  0 
 41  7  1  0  0  0  0 
 42  7  1  0  0  0  0 
 43  9  1  0  0  0  0 
 44 10  1  0  0  0  0 
 45 10  1  0  0  0  0 
 11 46  1  0  0  0  0 
 12 47  1  0  0  0  0 
 48 13  1  0  0  0  0 
 49 13  1  0  0  0  0 
 50 14  1  0  0  0  0 
 51 14  1  0  0  0  0 
 52 16  1  0  0  0  0 
 53 18  1  0  0  0  0 
 54 18  1  0  0  0  0 
 55 20  1  0  0  0  0 
 56 20  1  0  0  0  0 
 57 20  1  0  0  0  0 
 58 22  1  0  0  0  0 
 59 24  1  0  0  0  0 
 60 25  1  0  0  0  0 
 61 26  1  0  0  0  0 
 62 26  1  0  0  0  0 
 63 31  1  0  0  0  0 
 64 31  1  0  0  0  0 
 65 31  1  0  0  0  0 
 66 32  1  0  0  0  0 
 67 32  1  0  0  0  0 
 68 32  1  0  0  0  0 
 69 33  1  0  0  0  0 
 70 33  1  0  0  0  0 
 71 33  1  0  0  0  0 
M  END
> <cdk:Title>
prednisolone tebutate

> <Conformer>
1

> <SuperDrugID>
SD002019

$$$$
