emorfazone
  CDK     0628171801

 34 35  0  0  0  0  0  0  0  0999 V2000
    0.9409    0.6395   -0.2047 O   0  0  0  0  0  0  0  0  0  0  0  0
    1.4115    1.2019    1.0370 C   0  0  1  0  0  0  0  0  0  0  0  0
    1.0001    1.5360   -1.2415 C   0  0  0  0  0  0  0  0  0  0  0  0
    1.2185    0.1822    2.1718 C   0  0  0  0  0  0  0  0  0  0  0  0
    2.1824    1.6910   -2.0054 C   0  0  0  0  0  0  0  0  0  0  0  0
   -0.1296    2.3275   -1.5482 C   0  0  0  0  0  0  0  0  0  0  0  0
    2.1729    2.6420   -3.0445 C   0  0  0  0  0  0  0  0  0  0  0  0
    3.3092    0.9449   -1.7604 N   0  0  0  0  0  0  0  0  0  0  0  0
   -1.1855    2.1677   -0.8875 O   0  0  0  0  0  0  0  0  0  0  0  0
   -0.0402    3.2673   -2.5446 N   0  0  0  0  0  0  0  0  0  0  0  0
    1.0521    3.3684   -3.2670 N   0  0  0  0  0  0  0  0  0  0  0  0
    4.5610    1.5773   -1.4062 C   0  0  1  0  0  0  0  0  0  0  0  0
    3.2903   -0.4939   -1.8928 C   0  0  2  0  0  0  0  0  0  0  0  0
   -1.1085    4.1841   -2.8264 C   0  0  0  0  0  0  0  0  0  0  0  0
    5.6811    1.0802   -2.3525 C   0  0  1  0  0  0  0  0  0  0  0  0
    4.4592   -0.9497   -2.8046 C   0  0  2  0  0  0  0  0  0  0  0  0
    5.7115   -0.3617   -2.3945 O   0  0  0  0  0  0  0  0  0  0  0  0
    2.4761    1.4470    0.9716 H   0  0  0  0  0  0  0  0  0  0  0  0
    0.8566    2.1092    1.2968 H   0  0  0  0  0  0  0  0  0  0  0  0
    0.1685   -0.1003    2.2504 H   0  0  0  0  0  0  0  0  0  0  0  0
    1.5352    0.6234    3.1189 H   0  0  0  0  0  0  0  0  0  0  0  0
    1.8166   -0.7107    1.9813 H   0  0  0  0  0  0  0  0  0  0  0  0
    2.9887    2.7836   -3.6432 H   0  0  0  0  0  0  0  0  0  0  0  0
    4.5164    2.6696   -1.4549 H   0  0  0  0  0  0  0  0  0  0  0  0
    4.8170    1.3055   -0.3788 H   0  0  0  0  0  0  0  0  0  0  0  0
    2.3525   -0.8659   -2.3212 H   0  0  0  0  0  0  0  0  0  0  0  0
    3.4090   -0.9436   -0.9022 H   0  0  0  0  0  0  0  0  0  0  0  0
   -2.0164    3.6329   -3.0780 H   0  0  0  0  0  0  0  0  0  0  0  0
   -0.8741    4.8463   -3.6652 H   0  0  0  0  0  0  0  0  0  0  0  0
   -1.3006    4.8067   -1.9492 H   0  0  0  0  0  0  0  0  0  0  0  0
    5.5355    1.4901   -3.3565 H   0  0  0  0  0  0  0  0  0  0  0  0
    6.6479    1.4297   -1.9869 H   0  0  0  0  0  0  0  0  0  0  0  0
    4.2503   -0.6870   -3.8463 H   0  0  0  0  0  0  0  0  0  0  0  0
    4.5570   -2.0336   -2.7440 H   0  0  0  0  0  0  0  0  0  0  0  0
  1  2  1  0  0  0  0 
  1  3  1  0  0  0  0 
  2  4  1  0  0  0  0 
  3  5  2  0  0  0  0 
  3  6  1  0  0  0  0 
  5  7  1  0  0  0  0 
  5  8  1  0  0  0  0 
  6  9  2  0  0  0  0 
  6 10  1  0  0  0  0 
  7 11  2  0  0  0  0 
  8 12  1  0  0  0  0 
  8 13  1  0  0  0  0 
 10 11  1  0  0  0  0 
 10 14  1  0  0  0  0 
 12 15  1  0  0  0  0 
 13 16  1  0  0  0  0 
 15 17  1  0  0  0  0 
 16 17  1  0  0  0  0 
  2 18  1  0  0  0  0 
  2 19  1  0  0  0  0 
  4 20  1  0  0  0  0 
  4 21  1  0  0  0  0 
  4 22  1  0  0  0  0 
  7 23  1  0  0  0  0 
 12 24  1  0  0  0  0 
 12 25  1  0  0  0  0 
 13 26  1  0  0  0  0 
 13 27  1  0  0  0  0 
 14 28  1  0  0  0  0 
 14 29  1  0  0  0  0 
 14 30  1  0  0  0  0 
 15 31  1  0  0  0  0 
 15 32  1  0  0  0  0 
 16 33  1  0  0  0  0 
 16 34  1  0  0  0  0 
M  END
> <cdk:Title>
emorfazone

> <Conformer>
1

> <SuperDrugID>
SD000890

$$$$
