rimexolone
  CDK     0628171801

 61 64  0  0  0  0  0  0  0  0999 V2000
    2.3976    1.8790   -0.5904 C   0  0  0  0  0  0  0  0  0  0  0  0
    3.5773    0.8287   -0.7241 C   0  0  2  0  0  0  0  0  0  0  0  0
    4.3857    0.9615   -2.0623 C   0  0  2  0  0  0  0  0  0  0  0  0
    2.9602   -0.6475   -0.8444 C   0  0  2  0  0  0  0  0  0  0  0  0
    4.6369    1.1043    0.4087 C   0  0  2  0  0  0  0  0  0  0  0  0
    5.0585    2.3611   -2.3050 C   0  0  1  0  0  0  0  0  0  0  0  0
    3.4254    0.4140   -3.1297 C   0  0  1  0  0  0  0  0  0  0  0  0
    1.7467   -0.9132    0.0359 C   0  0  0  0  0  0  0  0  0  0  0  0
    3.9667   -1.7974   -0.4581 C   0  0  0  0  0  0  0  0  0  0  0  0
    2.5989   -0.6905   -2.4016 C   0  0  1  0  0  0  0  0  0  0  0  0
    5.3918    2.4680    0.2915 C   0  0  1  0  0  0  0  0  0  0  0  0
    6.0469    2.7116   -1.1225 C   0  0  2  0  0  0  0  0  0  0  0  0
    5.8128    2.4352   -3.6719 C   0  0  1  0  0  0  0  0  0  0  0  0
    1.7239   -0.7864    1.5203 C   0  0  2  0  0  0  0  0  0  0  0  0
    0.6496   -1.2448   -0.4754 O   0  0  0  0  0  0  0  0  0  0  0  0
    2.6741   -2.0667   -3.1269 C   0  0  0  0  0  0  0  0  0  0  0  0
    4.5454    3.5364    0.7059 O   0  0  0  0  0  0  0  0  0  0  0  0
    6.8119    4.0975   -1.3381 C   0  0  2  0  0  0  0  0  0  0  0  0
    6.5324    3.7945   -3.8602 C   0  0  2  0  0  0  0  0  0  0  0  0
    1.1729   -2.0303    2.2566 C   0  0  0  0  0  0  0  0  0  0  0  0
    5.8958    5.3717   -1.2379 C   0  0  0  0  0  0  0  0  0  0  0  0
    7.4101    4.0736   -2.7157 C   0  0  0  0  0  0  0  0  0  0  0  0
    7.8440    4.2813   -0.2851 C   0  0  0  0  0  0  0  0  0  0  0  0
    8.7343    4.2674   -2.9151 C   0  0  0  0  0  0  0  0  0  0  0  0
    9.1487    4.4554   -0.5520 C   0  0  0  0  0  0  0  0  0  0  0  0
    9.6053    4.4637   -1.8563 C   0  0  0  0  0  0  0  0  0  0  0  0
   10.8252    4.6439   -2.0776 O   0  0  0  0  0  0  0  0  0  0  0  0
    4.2766    3.1169   -2.3532 H   0  0  0  0  0  0  0  0  0  0  0  0
    6.8322    1.9467   -1.1801 H   0  0  0  0  0  0  0  0  0  0  0  0
    5.2198    0.2511   -2.0462 H   0  0  0  0  0  0  0  0  0  0  0  0
    2.6994    2.8979   -0.8052 H   0  0  0  0  0  0  0  0  0  0  0  0
    1.5655    1.6599   -1.2608 H   0  0  0  0  0  0  0  0  0  0  0  0
    2.0032    1.8804    0.4260 H   0  0  0  0  0  0  0  0  0  0  0  0
    5.4076    0.3302    0.3929 H   0  0  0  0  0  0  0  0  0  0  0  0
    4.1660    1.0550    1.3895 H   0  0  0  0  0  0  0  0  0  0  0  0
    2.7704    1.2162   -3.4845 H   0  0  0  0  0  0  0  0  0  0  0  0
    3.9838    0.0311   -3.9892 H   0  0  0  0  0  0  0  0  0  0  0  0
    3.4968   -2.7809   -0.5552 H   0  0  0  0  0  0  0  0  0  0  0  0
    4.3023   -1.7145    0.5764 H   0  0  0  0  0  0  0  0  0  0  0  0
    4.8538   -1.7949   -1.0905 H   0  0  0  0  0  0  0  0  0  0  0  0
    1.5563   -0.3849   -2.5348 H   0  0  0  0  0  0  0  0  0  0  0  0
    6.1928    2.4270    1.0337 H   0  0  0  0  0  0  0  0  0  0  0  0
    6.5487    1.6270   -3.7457 H   0  0  0  0  0  0  0  0  0  0  0  0
    5.1020    2.3089   -4.4938 H   0  0  0  0  0  0  0  0  0  0  0  0
    1.0944    0.0678    1.7805 H   0  0  0  0  0  0  0  0  0  0  0  0
    2.7196   -0.5937    1.9125 H   0  0  0  0  0  0  0  0  0  0  0  0
    2.2808   -1.9801   -4.1425 H   0  0  0  0  0  0  0  0  0  0  0  0
    2.0738   -2.8073   -2.5956 H   0  0  0  0  0  0  0  0  0  0  0  0
    3.7035   -2.4246   -3.1921 H   0  0  0  0  0  0  0  0  0  0  0  0
    4.3261    3.3429    1.6429 H   0  0  0  0  0  0  0  0  0  0  0  0
    5.7893    4.5877   -3.9558 H   0  0  0  0  0  0  0  0  0  0  0  0
    7.0709    3.7690   -4.8118 H   0  0  0  0  0  0  0  0  0  0  0  0
    1.2635   -1.8836    3.3350 H   0  0  0  0  0  0  0  0  0  0  0  0
    1.7329   -2.9242    1.9769 H   0  0  0  0  0  0  0  0  0  0  0  0
    0.1180   -2.1800    2.0197 H   0  0  0  0  0  0  0  0  0  0  0  0
    5.5883    5.5861   -0.2129 H   0  0  0  0  0  0  0  0  0  0  0  0
    4.9887    5.2705   -1.8339 H   0  0  0  0  0  0  0  0  0  0  0  0
    6.4303    6.2572   -1.5946 H   0  0  0  0  0  0  0  0  0  0  0  0
    7.5678    4.2998    0.6697 H   0  0  0  0  0  0  0  0  0  0  0  0
    9.1109    4.2634   -3.8354 H   0  0  0  0  0  0  0  0  0  0  0  0
    9.7911    4.5873    0.1965 H   0  0  0  0  0  0  0  0  0  0  0  0
  2  1  1  0  0  0  0 
  3  2  1  0  0  0  0 
  2  4  1  0  0  0  0 
  2  5  1  0  0  0  0 
  6  3  1  0  0  0  0 
  3  7  1  0  0  0  0 
  3 30  1  0  0  0  0 
  4  8  1  0  0  0  0 
  4  9  1  0  0  0  0 
  4 10  1  0  0  0  0 
 11  5  1  0  0  0  0 
 12  6  1  0  0  0  0 
  6 13  1  0  0  0  0 
  6 28  1  0  0  0  0 
 10  7  1  0  0  0  0 
  8 14  1  0  0  0  0 
  8 15  2  0  0  0  0 
 10 16  1  0  0  0  0 
 12 11  1  0  0  0  0 
 11 17  1  0  0  0  0 
 12 18  1  0  0  0  0 
 12 29  1  0  0  0  0 
 13 19  1  0  0  0  0 
 14 20  1  0  0  0  0 
 18 21  1  0  0  0  0 
 18 22  1  0  0  0  0 
 18 23  1  0  0  0  0 
 19 22  1  0  0  0  0 
 22 24  2  0  0  0  0 
 23 25  2  0  0  0  0 
 24 26  1  0  0  0  0 
 25 26  1  0  0  0  0 
 26 27  2  0  0  0  0 
  1 31  1  0  0  0  0 
  1 32  1  0  0  0  0 
  1 33  1  0  0  0  0 
  5 34  1  0  0  0  0 
  5 35  1  0  0  0  0 
  7 36  1  0  0  0  0 
  7 37  1  0  0  0  0 
  9 38  1  0  0  0  0 
  9 39  1  0  0  0  0 
  9 40  1  0  0  0  0 
 10 41  1  0  0  0  0 
 11 42  1  0  0  0  0 
 13 43  1  0  0  0  0 
 13 44  1  0  0  0  0 
 14 45  1  0  0  0  0 
 14 46  1  0  0  0  0 
 16 47  1  0  0  0  0 
 16 48  1  0  0  0  0 
 16 49  1  0  0  0  0 
 17 50  1  0  0  0  0 
 19 51  1  0  0  0  0 
 19 52  1  0  0  0  0 
 20 53  1  0  0  0  0 
 20 54  1  0  0  0  0 
 20 55  1  0  0  0  0 
 21 56  1  0  0  0  0 
 21 57  1  0  0  0  0 
 21 58  1  0  0  0  0 
 23 59  1  0  0  0  0 
 24 60  1  0  0  0  0 
 25 61  1  0  0  0  0 
M  END
> <cdk:Title>
rimexolone

> <Conformer>
1

> <SuperDrugID>
SD002145

$$$$
