kinetin
  CDK     0628171801

 25 27  0  0  0  0  0  0  0  0999 V2000
    3.6763    2.0504    0.1411 N   0  0  0  0  0  0  0  0  0  0  0  0
    3.1010    0.9511   -0.5634 C   0  0  2  0  0  0  0  0  0  0  0  0
    4.8967    2.5836   -0.1376 C   0  0  0  0  0  0  0  0  0  0  0  0
    1.6702    0.8210   -0.2454 C   0  0  0  0  0  0  0  0  0  0  0  0
    5.4892    3.5272    0.7208 C   0  0  0  0  0  0  0  0  0  0  0  0
    5.6056    2.2401   -1.2531 N   0  0  0  0  0  0  0  0  0  0  0  0
    1.0710   -0.1741    0.5257 C   0  0  0  0  0  0  0  0  0  0  0  0
    0.7111    1.6655   -0.6997 O   0  0  0  0  0  0  0  0  0  0  0  0
    6.7318    4.0668    0.4023 C   0  0  0  0  0  0  0  0  0  0  0  0
    5.1154    4.0712    1.8817 N   0  0  0  0  0  0  0  0  0  0  0  0
    6.8236    2.7778   -1.5498 C   0  0  0  0  0  0  0  0  0  0  0  0
   -0.2931    0.0748    0.5143 C   0  0  0  0  0  0  0  0  0  0  0  0
   -0.4852    1.2172   -0.2511 C   0  0  0  0  0  0  0  0  0  0  0  0
    7.0963    4.9299    1.3623 N   0  0  0  0  0  0  0  0  0  0  0  0
    7.3893    3.6997   -0.7225 N   0  0  0  0  0  0  0  0  0  0  0  0
    6.0918    4.9155    2.2618 C   0  0  0  0  0  0  0  0  0  0  0  0
    3.1844    2.4129    0.8950 H   0  0  0  0  0  0  0  0  0  0  0  0
    3.6380    0.0395   -0.2876 H   0  0  0  0  0  0  0  0  0  0  0  0
    3.1878    1.0939   -1.6444 H   0  0  0  0  0  0  0  0  0  0  0  0
    1.5405   -0.9454    1.0063 H   0  0  0  0  0  0  0  0  0  0  0  0
    4.2969    3.8821    2.3666 H   0  0  0  0  0  0  0  0  0  0  0  0
    7.3142    2.4903   -2.3953 H   0  0  0  0  0  0  0  0  0  0  0  0
   -1.0177   -0.4760    0.9776 H   0  0  0  0  0  0  0  0  0  0  0  0
   -1.3871    1.6524   -0.4505 H   0  0  0  0  0  0  0  0  0  0  0  0
    6.0782    5.4673    3.1207 H   0  0  0  0  0  0  0  0  0  0  0  0
  1  2  1  0  0  0  0 
  1  3  1  0  0  0  0 
  2  4  1  0  0  0  0 
  3  5  2  0  0  0  0 
  3  6  1  0  0  0  0 
  4  7  2  0  0  0  0 
  4  8  1  0  0  0  0 
  5  9  1  0  0  0  0 
  5 10  1  0  0  0  0 
  6 11  2  0  0  0  0 
  7 12  1  0  0  0  0 
  8 13  1  0  0  0  0 
  9 14  1  0  0  0  0 
  9 15  2  0  0  0  0 
 10 16  1  0  0  0  0 
 11 15  1  0  0  0  0 
 12 13  2  0  0  0  0 
 14 16  2  0  0  0  0 
 17  1  1  0  0  0  0 
 18  2  1  0  0  0  0 
 19  2  1  0  0  0  0 
 20  7  1  0  0  0  0 
 21 10  1  0  0  0  0 
 22 11  1  0  0  0  0 
 23 12  1  0  0  0  0 
 24 13  1  0  0  0  0 
 25 16  1  0  0  0  0 
M  END
> <cdk:Title>
kinetin

> <Conformer>
1

> <SuperDrugID>
SD003312

$$$$
