oxapropanium
  CDK     0628171801

 26 26  0  0  0  0  0  0  0  0999 V2000
    2.1258    3.2399    1.4338 C   0  0  0  0  0  0  0  0  0  0  0  0
    1.6723    4.1777    0.3328 N   0  0  1  0  0  0  0  0  0  0  0  0
    0.1654    4.2636    0.3825 C   0  0  0  0  0  0  0  0  0  0  0  0
    2.2623    5.5416    0.6046 C   0  0  0  0  0  0  0  0  0  0  0  0
    2.1574    3.6215   -1.0013 C   0  0  2  0  0  0  0  0  0  0  0  0
    1.7668    4.3501   -2.3265 C   0  0  2  0  0  0  0  0  0  0  0  0
    2.3462    3.6938   -3.5945 C   0  0  2  0  0  0  0  0  0  0  0  0
    2.4212    4.7311   -4.5697 O   0  0  0  0  0  0  0  0  0  0  0  0
    2.2656    5.9502   -3.8392 C   0  0  2  0  0  0  0  0  0  0  0  0
    2.3016    5.6659   -2.4373 O   0  0  0  0  0  0  0  0  0  0  0  0
    1.8044    3.5858    2.4205 H   0  0  0  0  0  0  0  0  0  0  0  0
    1.7182    2.2339    1.2995 H   0  0  0  0  0  0  0  0  0  0  0  0
    3.2153    3.1497    1.4625 H   0  0  0  0  0  0  0  0  0  0  0  0
   -0.2968    3.2977    0.1612 H   0  0  0  0  0  0  0  0  0  0  0  0
   -0.2215    4.9876   -0.3371 H   0  0  0  0  0  0  0  0  0  0  0  0
   -0.1879    4.5795    1.3682 H   0  0  0  0  0  0  0  0  0  0  0  0
    2.0631    5.8742    1.6272 H   0  0  0  0  0  0  0  0  0  0  0  0
    1.8481    6.3021   -0.0596 H   0  0  0  0  0  0  0  0  0  0  0  0
    3.3465    5.5395    0.4683 H   0  0  0  0  0  0  0  0  0  0  0  0
    1.7897    2.5955   -1.1111 H   0  0  0  0  0  0  0  0  0  0  0  0
    3.2508    3.5550   -0.9832 H   0  0  0  0  0  0  0  0  0  0  0  0
    0.6761    4.3838   -2.4171 H   0  0  0  0  0  0  0  0  0  0  0  0
    1.7092    2.8843   -3.9536 H   0  0  0  0  0  0  0  0  0  0  0  0
    3.3545    3.3094   -3.4230 H   0  0  0  0  0  0  0  0  0  0  0  0
    1.3092    6.4096   -4.1041 H   0  0  0  0  0  0  0  0  0  0  0  0
    3.0699    6.6424   -4.0915 H   0  0  0  0  0  0  0  0  0  0  0  0
  1  2  1  0  0  0  0 
  2  3  1  0  0  0  0 
  2  4  1  0  0  0  0 
  2  5  1  0  0  0  0 
  6  5  1  0  0  0  0 
  6  7  1  0  0  0  0 
  7  8  1  0  0  0  0 
  8  9  1  0  0  0  0 
  9 10  1  0  0  0  0 
  6 10  1  0  0  0  0 
  1 11  1  0  0  0  0 
  1 12  1  0  0  0  0 
  1 13  1  0  0  0  0 
  3 14  1  0  0  0  0 
  3 15  1  0  0  0  0 
  3 16  1  0  0  0  0 
  4 17  1  0  0  0  0 
  4 18  1  0  0  0  0 
  4 19  1  0  0  0  0 
  5 20  1  0  0  0  0 
  5 21  1  0  0  0  0 
  6 22  1  0  0  0  0 
  7 23  1  0  0  0  0 
  7 24  1  0  0  0  0 
  9 25  1  0  0  0  0 
  9 26  1  0  0  0  0 
M  CHG  1   2   1
M  END
> <cdk:Title>
oxapropanium

> <Conformer>
1

> <SuperDrugID>
SD002931

$$$$
