ertapenem
  CDK     0628171801

 58 61  0  0  0  0  0  0  0  0999 V2000
   -5.5985   -3.0395   -6.1210 C   0  0  0  0  0  0  0  0  0  0  0  0
   -5.9749   -3.2408   -4.8369 O   0  0  0  0  0  0  0  0  0  0  0  0
   -6.4963   -3.0824   -6.9922 O   0  0  0  0  0  0  0  0  0  0  0  0
   -4.2854   -2.7779   -6.4768 C   0  0  0  0  0  0  0  0  0  0  0  0
   -3.8828   -2.2614   -7.6080 N   0  0  0  0  0  0  0  0  0  0  0  0
   -3.1507   -2.8913   -5.7688 C   0  0  0  0  0  0  0  0  0  0  0  0
   -2.5350   -2.3252   -7.9850 C   0  0  2  0  0  0  0  0  0  0  0  0
   -4.2573   -1.2551   -8.3870 C   0  0  0  0  0  0  0  0  0  0  0  0
   -3.0381   -3.4108   -4.1227 S   0  0  0  0  0  0  0  0  0  0  0  0
   -1.9799   -2.4529   -6.5351 C   0  0  1  0  0  0  0  0  0  0  0  0
   -2.8712   -1.0235   -8.8102 C   0  0  2  0  0  0  0  0  0  0  0  0
   -5.3189   -0.6045   -8.5113 O   0  0  0  0  0  0  0  0  0  0  0  0
   -2.5980   -5.1886   -4.1503 C   0  0  1  0  0  0  0  0  0  0  0  0
   -1.3117   -1.1678   -5.9757 C   0  0  0  0  0  0  0  0  0  0  0  0
   -2.6051   -1.0820  -10.3394 C   0  0  1  0  0  0  0  0  0  0  0  0
   -2.5041   -5.7308   -2.7151 C   0  0  1  0  0  0  0  0  0  0  0  0
   -3.6928   -6.1018   -4.7325 C   0  0  2  0  0  0  0  0  0  0  0  0
   -3.1808    0.1424  -11.0955 C   0  0  0  0  0  0  0  0  0  0  0  0
   -1.1932   -1.1267  -10.5326 O   0  0  0  0  0  0  0  0  0  0  0  0
   -3.9650   -6.1114   -2.3546 C   0  0  2  0  0  0  0  0  0  0  0  0
   -4.6401   -6.3871   -3.6472 N   0  0  1  0  0  0  0  0  0  0  0  0
   -4.6953   -5.0962   -1.5433 C   0  0  0  0  0  0  0  0  0  0  0  0
   -4.1769   -4.6982   -0.3467 N   0  0  0  0  0  0  0  0  0  0  0  0
   -5.8081   -4.6704   -1.9342 O   0  0  0  0  0  0  0  0  0  0  0  0
   -4.6858   -3.8014    0.5538 C   0  0  0  0  0  0  0  0  0  0  0  0
   -5.4922   -2.6834    0.2272 C   0  0  0  0  0  0  0  0  0  0  0  0
   -4.3570   -4.0212    1.9068 C   0  0  0  0  0  0  0  0  0  0  0  0
   -6.0073   -1.8176    1.2251 C   0  0  0  0  0  0  0  0  0  0  0  0
   -4.8464   -3.1717    2.9119 C   0  0  0  0  0  0  0  0  0  0  0  0
   -6.8364   -0.7142    0.8774 C   0  0  0  0  0  0  0  0  0  0  0  0
   -5.6714   -2.0856    2.5745 C   0  0  0  0  0  0  0  0  0  0  0  0
   -7.2273   -0.4911   -0.4025 O   0  0  0  0  0  0  0  0  0  0  0  0
   -7.2520    0.1020    1.7322 O   0  0  0  0  0  0  0  0  0  0  0  0
   -2.3530   -3.2173   -8.5969 H   0  0  0  0  0  0  0  0  0  0  0  0
   -2.4658   -0.1139   -8.3595 H   0  0  0  0  0  0  0  0  0  0  0  0
   -6.9177   -3.3974   -4.6195 H   0  0  0  0  0  0  0  0  0  0  0  0
   -1.2321   -3.2511   -6.5386 H   0  0  0  0  0  0  0  0  0  0  0  0
   -1.6546   -5.3189   -4.6874 H   0  0  0  0  0  0  0  0  0  0  0  0
   -0.8448   -1.3730   -5.0090 H   0  0  0  0  0  0  0  0  0  0  0  0
   -0.5342   -0.8190   -6.6586 H   0  0  0  0  0  0  0  0  0  0  0  0
   -2.0436   -0.3679   -5.8445 H   0  0  0  0  0  0  0  0  0  0  0  0
   -3.0317   -1.9950  -10.7652 H   0  0  0  0  0  0  0  0  0  0  0  0
   -1.8780   -6.6303   -2.7129 H   0  0  0  0  0  0  0  0  0  0  0  0
   -2.0549   -5.0120   -2.0249 H   0  0  0  0  0  0  0  0  0  0  0  0
   -3.2602   -7.0510   -5.0628 H   0  0  0  0  0  0  0  0  0  0  0  0
   -4.2130   -5.6433   -5.5720 H   0  0  0  0  0  0  0  0  0  0  0  0
   -2.9005    0.1015  -12.1505 H   0  0  0  0  0  0  0  0  0  0  0  0
   -4.2701    0.1522  -11.0349 H   0  0  0  0  0  0  0  0  0  0  0  0
   -2.7981    1.0742  -10.6726 H   0  0  0  0  0  0  0  0  0  0  0  0
   -1.0652   -1.1721  -11.5032 H   0  0  0  0  0  0  0  0  0  0  0  0
   -3.9525   -7.0382   -1.7762 H   0  0  0  0  0  0  0  0  0  0  0  0
   -5.3956   -5.7069   -3.7558 H   0  0  0  0  0  0  0  0  0  0  0  0
   -3.3555   -5.1399   -0.0817 H   0  0  0  0  0  0  0  0  0  0  0  0
   -5.6990   -2.4911   -0.7526 H   0  0  0  0  0  0  0  0  0  0  0  0
   -3.7652   -4.8132    2.1745 H   0  0  0  0  0  0  0  0  0  0  0  0
   -4.6038   -3.3480    3.8899 H   0  0  0  0  0  0  0  0  0  0  0  0
   -6.0229   -1.4933    3.3294 H   0  0  0  0  0  0  0  0  0  0  0  0
   -7.8133    0.2642   -0.6251 H   0  0  0  0  0  0  0  0  0  0  0  0
  1  2  1  0  0  0  0 
  1  3  2  0  0  0  0 
  1  4  1  0  0  0  0 
  4  5  1  0  0  0  0 
  4  6  2  0  0  0  0 
  7  5  1  0  0  0  0 
  5  8  1  0  0  0  0 
  6  9  1  0  0  0  0 
 10  6  1  0  0  0  0 
  7 10  1  0  0  0  0 
 11  7  1  0  0  0  0 
  7 34  1  0  0  0  0 
 11  8  1  0  0  0  0 
  8 12  2  0  0  0  0 
 10 14  1  0  0  0  0 
 15 11  1  0  0  0  0 
 11 35  1  0  0  0  0 
 13  9  1  0  0  0  0 
 13 16  1  0  0  0  0 
 13 17  1  0  0  0  0 
 15 18  1  0  0  0  0 
 15 19  1  0  0  0  0 
 20 16  1  0  0  0  0 
 17 21  1  0  0  0  0 
 20 21  1  0  0  0  0 
 20 22  1  0  0  0  0 
 22 23  1  0  0  0  0 
 22 24  2  0  0  0  0 
 23 25  1  0  0  0  0 
 25 26  2  0  0  0  0 
 25 27  1  0  0  0  0 
 26 28  1  0  0  0  0 
 27 29  2  0  0  0  0 
 28 30  1  0  0  0  0 
 28 31  2  0  0  0  0 
 29 31  1  0  0  0  0 
 30 32  1  0  0  0  0 
 30 33  2  0  0  0  0 
  2 36  1  0  0  0  0 
 10 37  1  0  0  0  0 
 13 38  1  0  0  0  0 
 14 39  1  0  0  0  0 
 14 40  1  0  0  0  0 
 14 41  1  0  0  0  0 
 15 42  1  0  0  0  0 
 16 43  1  0  0  0  0 
 16 44  1  0  0  0  0 
 17 45  1  0  0  0  0 
 17 46  1  0  0  0  0 
 18 47  1  0  0  0  0 
 18 48  1  0  0  0  0 
 18 49  1  0  0  0  0 
 19 50  1  0  0  0  0 
 20 51  1  0  0  0  0 
 21 52  1  0  0  0  0 
 23 53  1  0  0  0  0 
 26 54  1  0  0  0  0 
 27 55  1  0  0  0  0 
 29 56  1  0  0  0  0 
 31 57  1  0  0  0  0 
 32 58  1  0  0  0  0 
M  END
> <cdk:Title>
ertapenem

> <Conformer>
1

> <SuperDrugID>
SD000932

$$$$
