phenoperidine
  CDK     0628171801

 56 58  0  0  0  0  0  0  0  0999 V2000
    0.6590    2.2926    2.0346 C   0  0  0  0  0  0  0  0  0  0  0  0
   -0.3892    1.4401    2.2629 O   0  0  0  0  0  0  0  0  0  0  0  0
    1.7712    1.8236    1.6921 O   0  0  0  0  0  0  0  0  0  0  0  0
    0.4978    3.7763    2.2374 C   0  0  1  0  0  0  0  0  0  0  0  0
   -0.4590    0.0127    2.1455 C   0  0  1  0  0  0  0  0  0  0  0  0
    0.7405    4.4727    0.8416 C   0  0  2  0  0  0  0  0  0  0  0  0
   -0.9653    4.1518    2.6997 C   0  0  1  0  0  0  0  0  0  0  0  0
    1.4650    4.2192    3.3330 C   0  0  0  0  0  0  0  0  0  0  0  0
   -0.3531   -0.4806    0.6892 C   0  0  0  0  0  0  0  0  0  0  0  0
   -0.3838    4.1986   -0.1904 C   0  0  1  0  0  0  0  0  0  0  0  0
   -2.0591    3.9794    1.5956 C   0  0  1  0  0  0  0  0  0  0  0  0
    1.4913    3.5286    4.5780 C   0  0  0  0  0  0  0  0  0  0  0  0
    2.3612    5.3215    3.2078 C   0  0  0  0  0  0  0  0  0  0  0  0
   -1.7164    4.6710    0.3116 N   0  0  1  0  0  0  0  0  0  0  0  0
    2.3828    3.8801    5.6080 C   0  0  0  0  0  0  0  0  0  0  0  0
    3.2235    5.7075    4.2509 C   0  0  0  0  0  0  0  0  0  0  0  0
   -1.9540    6.1544    0.3879 C   0  0  2  0  0  0  0  0  0  0  0  0
    3.2423    4.9785    5.4486 C   0  0  0  0  0  0  0  0  0  0  0  0
   -1.6578    6.9706   -0.8960 C   0  0  1  0  0  0  0  0  0  0  0  0
   -2.0415    8.4757   -0.7683 C   0  0  1  0  0  0  0  0  0  0  0  0
   -1.4482    9.0851    0.3787 O   0  0  0  0  0  0  0  0  0  0  0  0
   -1.6286    9.2684   -1.9617 C   0  0  0  0  0  0  0  0  0  0  0  0
   -2.5926    9.9074   -2.7778 C   0  0  0  0  0  0  0  0  0  0  0  0
   -0.2585    9.4161   -2.2966 C   0  0  0  0  0  0  0  0  0  0  0  0
   -2.1997   10.6593   -3.9000 C   0  0  0  0  0  0  0  0  0  0  0  0
    0.1347   10.1608   -3.4222 C   0  0  0  0  0  0  0  0  0  0  0  0
   -0.8374   10.7789   -4.2271 C   0  0  0  0  0  0  0  0  0  0  0  0
    0.3233   -0.4490    2.7520 H   0  0  0  0  0  0  0  0  0  0  0  0
   -1.4271   -0.2974    2.5447 H   0  0  0  0  0  0  0  0  0  0  0  0
    1.7030    4.1694    0.4196 H   0  0  0  0  0  0  0  0  0  0  0  0
    0.7696    5.5560    0.9552 H   0  0  0  0  0  0  0  0  0  0  0  0
   -1.2623    3.5541    3.5668 H   0  0  0  0  0  0  0  0  0  0  0  0
   -0.9818    5.1940    3.0312 H   0  0  0  0  0  0  0  0  0  0  0  0
   -0.3960   -1.5706    0.6644 H   0  0  0  0  0  0  0  0  0  0  0  0
   -1.1718   -0.0818    0.0878 H   0  0  0  0  0  0  0  0  0  0  0  0
    0.5944   -0.1631    0.2579 H   0  0  0  0  0  0  0  0  0  0  0  0
   -0.1288    4.6703   -1.1403 H   0  0  0  0  0  0  0  0  0  0  0  0
   -0.4320    3.1264   -0.3998 H   0  0  0  0  0  0  0  0  0  0  0  0
   -2.2124    2.9206    1.3787 H   0  0  0  0  0  0  0  0  0  0  0  0
   -3.0159    4.3411    1.9844 H   0  0  0  0  0  0  0  0  0  0  0  0
    0.8580    2.7450    4.7508 H   0  0  0  0  0  0  0  0  0  0  0  0
    2.4117    5.8828    2.3600 H   0  0  0  0  0  0  0  0  0  0  0  0
    2.4054    3.3364    6.4736 H   0  0  0  0  0  0  0  0  0  0  0  0
    3.8385    6.5199    4.1377 H   0  0  0  0  0  0  0  0  0  0  0  0
   -1.3657    6.5859    1.2019 H   0  0  0  0  0  0  0  0  0  0  0  0
   -3.0109    6.3064    0.6261 H   0  0  0  0  0  0  0  0  0  0  0  0
    3.8848    5.2477    6.1984 H   0  0  0  0  0  0  0  0  0  0  0  0
   -0.5912    6.8969   -1.1069 H   0  0  0  0  0  0  0  0  0  0  0  0
   -2.2029    6.5255   -1.7334 H   0  0  0  0  0  0  0  0  0  0  0  0
   -3.1245    8.5342   -0.6232 H   0  0  0  0  0  0  0  0  0  0  0  0
   -1.8535    8.6377    1.1502 H   0  0  0  0  0  0  0  0  0  0  0  0
   -3.5896    9.8340   -2.5609 H   0  0  0  0  0  0  0  0  0  0  0  0
    0.4677    8.9842   -1.7216 H   0  0  0  0  0  0  0  0  0  0  0  0
   -2.9056   11.1192   -4.4783 H   0  0  0  0  0  0  0  0  0  0  0  0
    1.1263   10.2536   -3.6542 H   0  0  0  0  0  0  0  0  0  0  0  0
   -0.5530   11.3177   -5.0483 H   0  0  0  0  0  0  0  0  0  0  0  0
  1  2  1  0  0  0  0 
  1  3  2  0  0  0  0 
  1  4  1  0  0  0  0 
  2  5  1  0  0  0  0 
  4  6  1  0  0  0  0 
  4  7  1  0  0  0  0 
  4  8  1  0  0  0  0 
  5  9  1  0  0  0  0 
  6 10  1  0  0  0  0 
  7 11  1  0  0  0  0 
  8 12  2  0  0  0  0 
  8 13  1  0  0  0  0 
 10 14  1  0  0  0  0 
 11 14  1  0  0  0  0 
 12 15  1  0  0  0  0 
 13 16  2  0  0  0  0 
 14 17  1  0  0  0  0 
 15 18  2  0  0  0  0 
 16 18  1  0  0  0  0 
 17 19  1  0  0  0  0 
 20 19  1  0  0  0  0 
 20 21  1  0  0  0  0 
 20 22  1  0  0  0  0 
 22 23  2  0  0  0  0 
 22 24  1  0  0  0  0 
 23 25  1  0  0  0  0 
 24 26  2  0  0  0  0 
 25 27  2  0  0  0  0 
 26 27  1  0  0  0  0 
  5 28  1  0  0  0  0 
  5 29  1  0  0  0  0 
  6 30  1  0  0  0  0 
  6 31  1  0  0  0  0 
  7 32  1  0  0  0  0 
  7 33  1  0  0  0  0 
  9 34  1  0  0  0  0 
  9 35  1  0  0  0  0 
  9 36  1  0  0  0  0 
 10 37  1  0  0  0  0 
 10 38  1  0  0  0  0 
 11 39  1  0  0  0  0 
 11 40  1  0  0  0  0 
 12 41  1  0  0  0  0 
 13 42  1  0  0  0  0 
 15 43  1  0  0  0  0 
 16 44  1  0  0  0  0 
 17 45  1  0  0  0  0 
 17 46  1  0  0  0  0 
 18 47  1  0  0  0  0 
 19 48  1  0  0  0  0 
 19 49  1  0  0  0  0 
 20 50  1  0  0  0  0 
 21 51  1  0  0  0  0 
 23 52  1  0  0  0  0 
 24 53  1  0  0  0  0 
 25 54  1  0  0  0  0 
 26 55  1  0  0  0  0 
 27 56  1  0  0  0  0 
M  END
> <cdk:Title>
phenoperidine

> <Conformer>
1

> <SuperDrugID>
SD002964

$$$$
