creatine
  CDK     0628171802

 18 17  0  0  0  0  0  0  0  0999 V2000
    1.3483    0.9364    0.0921 N   0  0  0  0  0  0  0  0  0  0  0  0
    1.5377   -0.0345   -0.9767 C   0  0  2  0  0  0  0  0  0  0  0  0
    2.3709    1.7226    0.5259 C   0  0  0  0  0  0  0  0  0  0  0  0
    0.0350    0.9922    0.7029 C   0  0  0  0  0  0  0  0  0  0  0  0
    2.0981   -1.3051   -0.4716 C   0  0  0  0  0  0  0  0  0  0  0  0
    3.3626    2.0513   -0.2137 N   0  0  0  0  0  0  0  0  0  0  0  0
    2.4326    2.2138    1.7507 N   0  0  0  0  0  0  0  0  0  0  0  0
    3.3283   -1.7200   -0.8597 O   0  0  0  0  0  0  0  0  0  0  0  0
    1.4446   -2.0302    0.3135 O   0  0  0  0  0  0  0  0  0  0  0  0
    2.1846    0.3570   -1.7659 H   0  0  0  0  0  0  0  0  0  0  0  0
    0.5939   -0.2639   -1.4780 H   0  0  0  0  0  0  0  0  0  0  0  0
   -0.0643    1.7521    1.4800 H   0  0  0  0  0  0  0  0  0  0  0  0
   -0.2018    0.0244    1.1520 H   0  0  0  0  0  0  0  0  0  0  0  0
   -0.7174    1.2195   -0.0545 H   0  0  0  0  0  0  0  0  0  0  0  0
    3.4197    1.7626   -1.1004 H   0  0  0  0  0  0  0  0  0  0  0  0
    1.7533    1.9855    2.4032 H   0  0  0  0  0  0  0  0  0  0  0  0
    3.1616    2.8042    2.0050 H   0  0  0  0  0  0  0  0  0  0  0  0
    3.6901   -2.5676   -0.5194 H   0  0  0  0  0  0  0  0  0  0  0  0
  1  2  1  0  0  0  0 
  1  3  1  0  0  0  0 
  1  4  1  0  0  0  0 
  2  5  1  0  0  0  0 
  3  6  2  0  0  0  0 
  3  7  1  0  0  0  0 
  5  8  1  0  0  0  0 
  5  9  2  0  0  0  0 
  2 10  1  0  0  0  0 
  2 11  1  0  0  0  0 
  4 12  1  0  0  0  0 
  4 13  1  0  0  0  0 
  4 14  1  0  0  0  0 
  6 15  1  0  0  0  0 
  7 16  1  0  0  0  0 
  7 17  1  0  0  0  0 
  8 18  1  0  0  0  0 
M  END
> <cdk:Title>
creatine

> <Conformer>
1

> <SuperDrugID>
SD003694

$$$$
