nimodipine
  CDK     0628171801

 56 57  0  0  0  0  0  0  0  0999 V2000
   -5.6959   -2.2933    1.6675 C   0  0  0  0  0  0  0  0  0  0  0  0
   -6.5840   -3.2904    1.9510 O   0  0  0  0  0  0  0  0  0  0  0  0
   -6.1442   -1.1230    1.6030 O   0  0  0  0  0  0  0  0  0  0  0  0
   -4.3168   -2.5352    1.4916 C   0  0  0  0  0  0  0  0  0  0  0  0
   -7.9961   -3.1735    2.1655 C   0  0  2  0  0  0  0  0  0  0  0  0
   -3.3705   -1.3979    1.6605 C   0  0  2  0  0  0  0  0  0  0  0  0
   -3.7936   -3.7546    1.2017 C   0  0  0  0  0  0  0  0  0  0  0  0
   -8.5932   -4.5603    2.4603 C   0  0  1  0  0  0  0  0  0  0  0  0
   -1.9518   -1.6251    1.2578 C   0  0  0  0  0  0  0  0  0  0  0  0
   -3.4399   -0.9279    3.0901 C   0  0  0  0  0  0  0  0  0  0  0  0
   -4.5539   -4.9874    1.0222 C   0  0  0  0  0  0  0  0  0  0  0  0
   -2.4709   -3.8900    1.0486 N   0  0  0  0  0  0  0  0  0  0  0  0
   -8.3553   -5.4273    1.3364 O   0  0  0  0  0  0  0  0  0  0  0  0
   -1.0841   -0.5093    1.1820 C   0  0  0  0  0  0  0  0  0  0  0  0
   -1.5715   -2.9022    0.9788 C   0  0  0  0  0  0  0  0  0  0  0  0
   -3.1048   -1.7900    4.1647 C   0  0  0  0  0  0  0  0  0  0  0  0
   -3.8577    0.3872    3.3961 C   0  0  0  0  0  0  0  0  0  0  0  0
   -8.9695   -6.7210    1.4506 C   0  0  0  0  0  0  0  0  0  0  0  0
    0.2198   -0.6087    0.7832 O   0  0  0  0  0  0  0  0  0  0  0  0
   -1.4878    0.6396    1.4821 O   0  0  0  0  0  0  0  0  0  0  0  0
   -0.2317   -3.3405    0.5871 C   0  0  0  0  0  0  0  0  0  0  0  0
   -3.2246   -1.3904    5.5215 C   0  0  0  0  0  0  0  0  0  0  0  0
   -3.9389    0.8264    4.7247 C   0  0  0  0  0  0  0  0  0  0  0  0
    1.2287    0.4084    0.6523 C   0  0  1  0  0  0  0  0  0  0  0  0
   -2.9609   -2.2468    6.5263 N   0  0  0  0  0  0  0  0  0  0  0  0
   -3.6439   -0.0578    5.7749 C   0  0  0  0  0  0  0  0  0  0  0  0
    2.5678   -0.3176    0.3795 C   0  0  0  0  0  0  0  0  0  0  0  0
    0.8902    1.4222   -0.4681 C   0  0  0  0  0  0  0  0  0  0  0  0
   -2.9056   -1.9159    7.6460 O   0  0  0  0  0  0  0  0  0  0  0  0
   -2.7648   -3.4884    6.3337 O   0  0  0  0  0  0  0  0  0  0  0  0
   -8.4760   -2.7558    1.2763 H   0  0  0  0  0  0  0  0  0  0  0  0
   -8.1836   -2.5094    3.0138 H   0  0  0  0  0  0  0  0  0  0  0  0
   -3.7311   -0.6149    0.9811 H   0  0  0  0  0  0  0  0  0  0  0  0
   -8.1265   -4.9686    3.3604 H   0  0  0  0  0  0  0  0  0  0  0  0
   -9.6651   -4.4401    2.6344 H   0  0  0  0  0  0  0  0  0  0  0  0
   -5.0170   -5.2845    1.9651 H   0  0  0  0  0  0  0  0  0  0  0  0
   -3.9299   -5.8231    0.6947 H   0  0  0  0  0  0  0  0  0  0  0  0
   -5.3260   -4.8466    0.2625 H   0  0  0  0  0  0  0  0  0  0  0  0
   -2.1339   -4.7933    0.9549 H   0  0  0  0  0  0  0  0  0  0  0  0
   -2.7771   -2.7343    3.9478 H   0  0  0  0  0  0  0  0  0  0  0  0
   -4.1033    1.0428    2.6519 H   0  0  0  0  0  0  0  0  0  0  0  0
   -8.6907   -7.3102    0.5762 H   0  0  0  0  0  0  0  0  0  0  0  0
  -10.0579   -6.6314    1.4730 H   0  0  0  0  0  0  0  0  0  0  0  0
   -8.6259   -7.2458    2.3448 H   0  0  0  0  0  0  0  0  0  0  0  0
    0.4879   -3.0997    1.3720 H   0  0  0  0  0  0  0  0  0  0  0  0
    0.0644   -2.8568   -0.3464 H   0  0  0  0  0  0  0  0  0  0  0  0
   -0.1713   -4.4188    0.4170 H   0  0  0  0  0  0  0  0  0  0  0  0
   -4.2151    1.7892    4.9291 H   0  0  0  0  0  0  0  0  0  0  0  0
    1.3178    0.9417    1.6031 H   0  0  0  0  0  0  0  0  0  0  0  0
   -3.7406    0.2854    6.7337 H   0  0  0  0  0  0  0  0  0  0  0  0
    3.3954    0.3936    0.3496 H   0  0  0  0  0  0  0  0  0  0  0  0
    2.7665   -1.0397    1.1730 H   0  0  0  0  0  0  0  0  0  0  0  0
    2.5248   -0.8518   -0.5720 H   0  0  0  0  0  0  0  0  0  0  0  0
    1.6982    2.1450   -0.5884 H   0  0  0  0  0  0  0  0  0  0  0  0
   -0.0176    1.9714   -0.2228 H   0  0  0  0  0  0  0  0  0  0  0  0
    0.7380    0.9021   -1.4141 H   0  0  0  0  0  0  0  0  0  0  0  0
  1  2  1  0  0  0  0 
  1  3  2  0  0  0  0 
  1  4  1  0  0  0  0 
  2  5  1  0  0  0  0 
  6  4  1  0  0  0  0 
  4  7  2  0  0  0  0 
  5  8  1  0  0  0  0 
  6  9  1  0  0  0  0 
  6 10  1  0  0  0  0 
  7 11  1  0  0  0  0 
  7 12  1  0  0  0  0 
  8 13  1  0  0  0  0 
  9 14  1  0  0  0  0 
  9 15  2  0  0  0  0 
 10 16  2  0  0  0  0 
 10 17  1  0  0  0  0 
 12 15  1  0  0  0  0 
 13 18  1  0  0  0  0 
 14 19  1  0  0  0  0 
 14 20  2  0  0  0  0 
 15 21  1  0  0  0  0 
 16 22  1  0  0  0  0 
 17 23  2  0  0  0  0 
 19 24  1  0  0  0  0 
 22 25  1  0  0  0  0 
 22 26  2  0  0  0  0 
 23 26  1  0  0  0  0 
 24 27  1  0  0  0  0 
 24 28  1  0  0  0  0 
 25 29  2  0  0  0  0 
 25 30  1  0  0  0  0 
 31  5  1  0  0  0  0 
 32  5  1  0  0  0  0 
 33  6  1  0  0  0  0 
 34  8  1  0  0  0  0 
 35  8  1  0  0  0  0 
 36 11  1  0  0  0  0 
 37 11  1  0  0  0  0 
 38 11  1  0  0  0  0 
 39 12  1  0  0  0  0 
 40 16  1  0  0  0  0 
 41 17  1  0  0  0  0 
 42 18  1  0  0  0  0 
 43 18  1  0  0  0  0 
 44 18  1  0  0  0  0 
 45 21  1  0  0  0  0 
 46 21  1  0  0  0  0 
 47 21  1  0  0  0  0 
 48 23  1  0  0  0  0 
 49 24  1  0  0  0  0 
 50 26  1  0  0  0  0 
 51 27  1  0  0  0  0 
 52 27  1  0  0  0  0 
 53 27  1  0  0  0  0 
 54 28  1  0  0  0  0 
 55 28  1  0  0  0  0 
 56 28  1  0  0  0  0 
M  CHG  1  25   1
M  CHG  1  30  -1
M  END
> <cdk:Title>
nimodipine

> <Conformer>
1

> <SuperDrugID>
SD001732

$$$$
