glypinamide
  CDK     0628171801

 39 40  0  0  0  0  0  0  0  0999 V2000
   -0.4491    4.2681   -3.9065 S   0  0  2  0  0  0  0  0  0  0  0  0
    1.1507    4.3937   -3.2952 N   0  0  0  0  0  0  0  0  0  0  0  0
   -1.4469    3.9801   -2.6822 O   0  0  0  0  0  0  0  0  0  0  0  0
   -0.5051    3.0153   -4.9079 O   0  0  0  0  0  0  0  0  0  0  0  0
   -0.8811    5.7549   -4.7709 C   0  0  0  0  0  0  0  0  0  0  0  0
    1.5274    5.2700   -2.3354 C   0  0  0  0  0  0  0  0  0  0  0  0
   -1.8482    6.6343   -4.2416 C   0  0  0  0  0  0  0  0  0  0  0  0
   -0.2602    6.0688   -5.9990 C   0  0  0  0  0  0  0  0  0  0  0  0
    2.8319    5.2799   -1.9800 N   0  0  0  0  0  0  0  0  0  0  0  0
    0.7092    6.0511   -1.7937 O   0  0  0  0  0  0  0  0  0  0  0  0
   -2.1982    7.8075   -4.9344 C   0  0  0  0  0  0  0  0  0  0  0  0
   -0.6090    7.2436   -6.6913 C   0  0  0  0  0  0  0  0  0  0  0  0
    3.3550    6.1602   -1.0820 N   0  0  2  0  0  0  0  0  0  0  0  0
   -1.5822    8.1144   -6.1640 C   0  0  0  0  0  0  0  0  0  0  0  0
    4.3489    7.1000   -1.6681 C   0  0  1  0  0  0  0  0  0  0  0  0
    3.6349    5.6139    0.2738 C   0  0  2  0  0  0  0  0  0  0  0  0
   -2.0189    9.5120   -7.0165 Cl  0  0  0  0  0  0  0  0  0  0  0  0
    5.6481    6.4342   -2.1909 C   0  0  2  0  0  0  0  0  0  0  0  0
    4.6201    4.4129    0.3698 C   0  0  2  0  0  0  0  0  0  0  0  0
    6.4308    5.6101   -1.1314 C   0  0  2  0  0  0  0  0  0  0  0  0
    5.7249    4.2890   -0.7166 C   0  0  2  0  0  0  0  0  0  0  0  0
    1.8281    3.8142   -3.6798 H   0  0  0  0  0  0  0  0  0  0  0  0
   -2.3068    6.4253   -3.3524 H   0  0  0  0  0  0  0  0  0  0  0  0
    0.4456    5.4443   -6.3971 H   0  0  0  0  0  0  0  0  0  0  0  0
    3.4287    4.6431   -2.4038 H   0  0  0  0  0  0  0  0  0  0  0  0
   -2.9055    8.4328   -4.5414 H   0  0  0  0  0  0  0  0  0  0  0  0
   -0.1547    7.4585   -7.5824 H   0  0  0  0  0  0  0  0  0  0  0  0
    3.8718    7.6333   -2.4959 H   0  0  0  0  0  0  0  0  0  0  0  0
    4.6181    7.8568   -0.9263 H   0  0  0  0  0  0  0  0  0  0  0  0
    2.6811    5.3089    0.7136 H   0  0  0  0  0  0  0  0  0  0  0  0
    4.0100    6.4246    0.9054 H   0  0  0  0  0  0  0  0  0  0  0  0
    6.3029    7.2263   -2.5634 H   0  0  0  0  0  0  0  0  0  0  0  0
    5.4099    5.7925   -3.0443 H   0  0  0  0  0  0  0  0  0  0  0  0
    4.0363    3.4870    0.3533 H   0  0  0  0  0  0  0  0  0  0  0  0
    5.1086    4.4561    1.3486 H   0  0  0  0  0  0  0  0  0  0  0  0
    6.6380    6.2226   -0.2485 H   0  0  0  0  0  0  0  0  0  0  0  0
    7.3982    5.3476   -1.5716 H   0  0  0  0  0  0  0  0  0  0  0  0
    5.3038    3.8071   -1.6041 H   0  0  0  0  0  0  0  0  0  0  0  0
    6.4864    3.6060   -0.3261 H   0  0  0  0  0  0  0  0  0  0  0  0
  1  2  1  0  0  0  0 
  1  3  2  0  0  0  0 
  1  4  2  0  0  0  0 
  1  5  1  0  0  0  0 
  2  6  1  0  0  0  0 
  5  7  2  0  0  0  0 
  5  8  1  0  0  0  0 
  6  9  1  0  0  0  0 
  6 10  2  0  0  0  0 
  7 11  1  0  0  0  0 
  8 12  2  0  0  0  0 
  9 13  1  0  0  0  0 
 11 14  2  0  0  0  0 
 12 14  1  0  0  0  0 
 13 15  1  0  0  0  0 
 13 16  1  0  0  0  0 
 14 17  1  0  0  0  0 
 15 18  1  0  0  0  0 
 16 19  1  0  0  0  0 
 18 20  1  0  0  0  0 
 19 21  1  0  0  0  0 
 20 21  1  0  0  0  0 
  2 22  1  0  0  0  0 
  7 23  1  0  0  0  0 
  8 24  1  0  0  0  0 
  9 25  1  0  0  0  0 
 11 26  1  0  0  0  0 
 12 27  1  0  0  0  0 
 15 28  1  0  0  0  0 
 15 29  1  0  0  0  0 
 16 30  1  0  0  0  0 
 16 31  1  0  0  0  0 
 18 32  1  0  0  0  0 
 18 33  1  0  0  0  0 
 19 34  1  0  0  0  0 
 19 35  1  0  0  0  0 
 20 36  1  0  0  0  0 
 20 37  1  0  0  0  0 
 21 38  1  0  0  0  0 
 21 39  1  0  0  0  0 
M  END
> <cdk:Title>
glypinamide

> <Conformer>
1

> <SuperDrugID>
SD002971

$$$$
