ethenzamide
  CDK     0628171801

 23 23  0  0  0  0  0  0  0  0999 V2000
    1.5079   -0.4984   -1.4046 C   0  0  0  0  0  0  0  0  0  0  0  0
    1.1603    0.1042   -0.0306 C   0  0  2  0  0  0  0  0  0  0  0  0
    1.7159    1.4333    0.0595 O   0  0  0  0  0  0  0  0  0  0  0  0
    1.5375    2.0180    1.2884 C   0  0  0  0  0  0  0  0  0  0  0  0
    0.3644    2.7814    1.4719 C   0  0  0  0  0  0  0  0  0  0  0  0
    0.0892    3.3855    2.7087 C   0  0  0  0  0  0  0  0  0  0  0  0
    0.9936    3.2367    3.7699 C   0  0  0  0  0  0  0  0  0  0  0  0
    2.1840    2.5092    3.5843 C   0  0  0  0  0  0  0  0  0  0  0  0
    2.4948    1.8968    2.3389 C   0  0  0  0  0  0  0  0  0  0  0  0
    3.7274    1.1943    2.1567 C   0  0  0  0  0  0  0  0  0  0  0  0
    4.6107    0.9694    3.1474 N   0  0  0  0  0  0  0  0  0  0  0  0
    4.0844    0.7403    1.0446 O   0  0  0  0  0  0  0  0  0  0  0  0
    1.0653    0.1018   -2.2027 H   0  0  0  0  0  0  0  0  0  0  0  0
    1.1184   -1.5166   -1.4707 H   0  0  0  0  0  0  0  0  0  0  0  0
    2.5914   -0.5264   -1.5389 H   0  0  0  0  0  0  0  0  0  0  0  0
    1.5683   -0.5514    0.7460 H   0  0  0  0  0  0  0  0  0  0  0  0
    0.0723    0.1372    0.0701 H   0  0  0  0  0  0  0  0  0  0  0  0
   -0.2958    2.8972    0.7000 H   0  0  0  0  0  0  0  0  0  0  0  0
   -0.7678    3.9310    2.8356 H   0  0  0  0  0  0  0  0  0  0  0  0
    0.7866    3.6637    4.6759 H   0  0  0  0  0  0  0  0  0  0  0  0
    2.8236    2.4425    4.3779 H   0  0  0  0  0  0  0  0  0  0  0  0
    5.4286    0.4841    2.9581 H   0  0  0  0  0  0  0  0  0  0  0  0
    4.4380    1.2899    4.0454 H   0  0  0  0  0  0  0  0  0  0  0  0
  1  2  1  0  0  0  0 
  2  3  1  0  0  0  0 
  3  4  1  0  0  0  0 
  4  5  2  0  0  0  0 
  5  6  1  0  0  0  0 
  6  7  2  0  0  0  0 
  7  8  1  0  0  0  0 
  8  9  2  0  0  0  0 
  4  9  1  0  0  0  0 
  9 10  1  0  0  0  0 
 10 11  1  0  0  0  0 
 10 12  2  0  0  0  0 
  1 13  1  0  0  0  0 
  1 14  1  0  0  0  0 
  1 15  1  0  0  0  0 
  2 16  1  0  0  0  0 
  2 17  1  0  0  0  0 
  5 18  1  0  0  0  0 
  6 19  1  0  0  0  0 
  7 20  1  0  0  0  0 
  8 21  1  0  0  0  0 
 11 22  1  0  0  0  0 
 11 23  1  0  0  0  0 
M  END
> <cdk:Title>
ethenzamide

> <Conformer>
1

> <SuperDrugID>
SD000964

$$$$
