levofloxacin
  CDK     0628171801

 46 49  0  0  0  0  0  0  0  0999 V2000
    2.3567   -0.9908   -0.5896 C   0  0  0  0  0  0  0  0  0  0  0  0
    1.5169   -0.8179    0.5343 C   0  0  0  0  0  0  0  0  0  0  0  0
    2.0871   -0.4053    1.7602 C   0  0  0  0  0  0  0  0  0  0  0  0
    3.4689   -0.1615    1.8566 C   0  0  0  0  0  0  0  0  0  0  0  0
    4.3194   -0.3330    0.7357 C   0  0  0  0  0  0  0  0  0  0  0  0
    3.7589   -0.7826   -0.4907 C   0  0  0  0  0  0  0  0  0  0  0  0
    4.5564   -1.0058   -1.5897 N   0  0  0  0  0  0  0  0  0  0  0  0
    5.7105   -0.0695    0.7829 C   0  0  0  0  0  0  0  0  0  0  0  0
    6.5306   -0.2633   -0.3603 C   0  0  0  0  0  0  0  0  0  0  0  0
    5.9012   -0.7585   -1.5254 C   0  0  0  0  0  0  0  0  0  0  0  0
    6.2140    0.3441    1.8547 O   0  0  0  0  0  0  0  0  0  0  0  0
    7.9307    0.0273   -0.3799 C   0  0  0  0  0  0  0  0  0  0  0  0
    8.7245   -0.3186   -1.4241 O   0  0  0  0  0  0  0  0  0  0  0  0
    8.5088    0.6313    0.5519 O   0  0  0  0  0  0  0  0  0  0  0  0
    2.5114   -1.0434   -2.9630 C   0  0  2  0  0  0  0  0  0  0  0  0
    1.7759   -1.3880   -1.7777 O   0  0  0  0  0  0  0  0  0  0  0  0
    3.9837   -1.5229   -2.8269 C   0  0  2  0  0  0  0  0  0  0  0  0
    4.0946   -3.0729   -2.8545 C   0  0  0  0  0  0  0  0  0  0  0  0
    0.1693   -1.0730    0.4140 N   0  0  0  0  0  0  0  0  0  0  0  0
    1.3466   -0.2566    2.8276 F   0  0  0  0  0  0  0  0  0  0  0  0
   -0.8121   -0.0224    0.5494 C   0  0  2  0  0  0  0  0  0  0  0  0
   -1.9554   -0.4474    1.5068 C   0  0  2  0  0  0  0  0  0  0  0  0
   -2.4901   -1.7953    1.1378 N   0  0  1  0  0  0  0  0  0  0  0  0
   -1.4167   -2.8348    1.0761 C   0  0  1  0  0  0  0  0  0  0  0  0
   -0.2973   -2.4044    0.1008 C   0  0  2  0  0  0  0  0  0  0  0  0
   -3.6351   -2.2158    1.9918 C   0  0  0  0  0  0  0  0  0  0  0  0
    3.8537    0.1376    2.7578 H   0  0  0  0  0  0  0  0  0  0  0  0
    6.4725   -0.9324   -2.3589 H   0  0  0  0  0  0  0  0  0  0  0  0
    9.6809   -0.0996   -1.4124 H   0  0  0  0  0  0  0  0  0  0  0  0
    2.4827    0.0418   -3.1085 H   0  0  0  0  0  0  0  0  0  0  0  0
    2.0300   -1.5080   -3.8257 H   0  0  0  0  0  0  0  0  0  0  0  0
    4.5164   -1.1319   -3.7007 H   0  0  0  0  0  0  0  0  0  0  0  0
    3.5675   -3.5152   -2.0054 H   0  0  0  0  0  0  0  0  0  0  0  0
    5.1449   -3.3696   -2.8023 H   0  0  0  0  0  0  0  0  0  0  0  0
    3.6685   -3.4741   -3.7771 H   0  0  0  0  0  0  0  0  0  0  0  0
   -1.2354    0.1835   -0.4380 H   0  0  0  0  0  0  0  0  0  0  0  0
   -0.3737    0.9116    0.9132 H   0  0  0  0  0  0  0  0  0  0  0  0
   -2.7503    0.3007    1.4370 H   0  0  0  0  0  0  0  0  0  0  0  0
   -1.5802   -0.4504    2.5359 H   0  0  0  0  0  0  0  0  0  0  0  0
   -0.9828   -2.9969    2.0683 H   0  0  0  0  0  0  0  0  0  0  0  0
   -1.8290   -3.7851    0.7224 H   0  0  0  0  0  0  0  0  0  0  0  0
    0.5066   -3.1465    0.1532 H   0  0  0  0  0  0  0  0  0  0  0  0
   -0.6889   -2.4098   -0.9206 H   0  0  0  0  0  0  0  0  0  0  0  0
   -4.4396   -1.4802    1.9388 H   0  0  0  0  0  0  0  0  0  0  0  0
   -3.3272   -2.3283    3.0344 H   0  0  0  0  0  0  0  0  0  0  0  0
   -4.0364   -3.1684    1.6405 H   0  0  0  0  0  0  0  0  0  0  0  0
  1  2  1  0  0  0  0 
  2  3  2  0  0  0  0 
  3  4  1  0  0  0  0 
  4  5  2  0  0  0  0 
  5  6  1  0  0  0  0 
  1  6  2  0  0  0  0 
  8  9  1  0  0  0  0 
  9 10  2  0  0  0  0 
  7 10  1  0  0  0  0 
  5  8  1  0  0  0  0 
  7  6  1  0  0  0  0 
  8 11  2  0  0  0  0 
  9 12  1  0  0  0  0 
 12 13  1  0  0  0  0 
 12 14  2  0  0  0  0 
 15 16  1  0  0  0  0 
 15 17  1  0  0  0  0 
 16  1  1  0  0  0  0 
  7 17  1  0  0  0  0 
 17 18  1  0  0  0  0 
  2 19  1  0  0  0  0 
  3 20  1  0  0  0  0 
 21 22  1  0  0  0  0 
 22 23  1  0  0  0  0 
 23 24  1  0  0  0  0 
 24 25  1  0  0  0  0 
 19 21  1  0  0  0  0 
 19 25  1  0  0  0  0 
 23 26  1  0  0  0  0 
  4 27  1  0  0  0  0 
 10 28  1  0  0  0  0 
 13 29  1  0  0  0  0 
 15 30  1  0  0  0  0 
 15 31  1  0  0  0  0 
 17 32  1  0  0  0  0 
 18 33  1  0  0  0  0 
 18 34  1  0  0  0  0 
 18 35  1  0  0  0  0 
 21 36  1  0  0  0  0 
 21 37  1  0  0  0  0 
 22 38  1  0  0  0  0 
 22 39  1  0  0  0  0 
 24 40  1  0  0  0  0 
 24 41  1  0  0  0  0 
 25 42  1  0  0  0  0 
 25 43  1  0  0  0  0 
 26 44  1  0  0  0  0 
 26 45  1  0  0  0  0 
 26 46  1  0  0  0  0 
M  END
> <cdk:Title>
levofloxacin

> <Conformer>
1

> <SuperDrugID>
SD001385

$$$$
