aciclovir
  CDK     0628171802

 27 28  0  0  0  0  0  0  0  0999 V2000
    3.8302    0.6626    3.1985 N   0  0  0  0  0  0  0  0  0  0  0  0
    3.6936    0.3920    1.8895 C   0  0  0  0  0  0  0  0  0  0  0  0
    2.4750    0.5308    1.2964 N   0  0  0  0  0  0  0  0  0  0  0  0
    2.3499    0.3070   -0.0361 C   0  0  0  0  0  0  0  0  0  0  0  0
    3.4430   -0.0663   -0.8079 C   0  0  0  0  0  0  0  0  0  0  0  0
    3.0584   -0.1988   -2.0849 N   0  0  0  0  0  0  0  0  0  0  0  0
    1.7431    0.0968   -2.0948 C   0  0  0  0  0  0  0  0  0  0  0  0
    1.2888    0.3939   -0.8552 N   0  0  0  0  0  0  0  0  0  0  0  0
   -0.0483    0.7403   -0.4819 C   0  0  2  0  0  0  0  0  0  0  0  0
   -0.5740   -0.2309    0.4481 O   0  0  0  0  0  0  0  0  0  0  0  0
   -1.9195    0.0422    0.8926 C   0  0  1  0  0  0  0  0  0  0  0  0
   -2.3690   -1.0315    1.9037 C   0  0  1  0  0  0  0  0  0  0  0  0
   -1.5276   -1.0290    3.0514 O   0  0  0  0  0  0  0  0  0  0  0  0
    4.6921   -0.2218   -0.1854 C   0  0  0  0  0  0  0  0  0  0  0  0
    5.7069   -0.5517   -0.8380 O   0  0  0  0  0  0  0  0  0  0  0  0
    4.7797    0.0095    1.1549 N   0  0  0  0  0  0  0  0  0  0  0  0
    4.7017    0.5948    3.6228 H   0  0  0  0  0  0  0  0  0  0  0  0
    3.0585    0.9369    3.7199 H   0  0  0  0  0  0  0  0  0  0  0  0
    1.1730    0.0947   -2.9443 H   0  0  0  0  0  0  0  0  0  0  0  0
   -0.6891    0.7874   -1.3693 H   0  0  0  0  0  0  0  0  0  0  0  0
   -0.0218    1.7318   -0.0229 H   0  0  0  0  0  0  0  0  0  0  0  0
   -1.9764    1.0227    1.3741 H   0  0  0  0  0  0  0  0  0  0  0  0
   -2.6089    0.0306    0.0432 H   0  0  0  0  0  0  0  0  0  0  0  0
   -3.3945   -0.8331    2.2229 H   0  0  0  0  0  0  0  0  0  0  0  0
   -2.3339   -2.0187    1.4397 H   0  0  0  0  0  0  0  0  0  0  0  0
   -1.9010   -1.7211    3.6382 H   0  0  0  0  0  0  0  0  0  0  0  0
    5.6391   -0.0965    1.5966 H   0  0  0  0  0  0  0  0  0  0  0  0
  1  2  1  0  0  0  0 
  2  3  2  0  0  0  0 
  3  4  1  0  0  0  0 
  4  5  2  0  0  0  0 
  5  6  1  0  0  0  0 
  6  7  2  0  0  0  0 
  7  8  1  0  0  0  0 
  4  8  1  0  0  0  0 
  8  9  1  0  0  0  0 
  9 10  1  0  0  0  0 
 10 11  1  0  0  0  0 
 11 12  1  0  0  0  0 
 12 13  1  0  0  0  0 
  5 14  1  0  0  0  0 
 14 15  2  0  0  0  0 
 14 16  1  0  0  0  0 
  2 16  1  0  0  0  0 
 17  1  1  0  0  0  0 
 18  1  1  0  0  0  0 
 19  7  1  0  0  0  0 
 20  9  1  0  0  0  0 
 21  9  1  0  0  0  0 
 22 11  1  0  0  0  0 
 23 11  1  0  0  0  0 
 24 12  1  0  0  0  0 
 25 12  1  0  0  0  0 
 26 13  1  0  0  0  0 
 27 16  1  0  0  0  0 
M  END
> <cdk:Title>
aciclovir

> <Conformer>
1

> <SuperDrugID>
SD000060

$$$$
