amoscanate
  CDK     0628171801

 28 29  0  0  0  0  0  0  0  0999 V2000
    9.9992   -4.7866    2.0076 O   0  0  0  0  0  0  0  0  0  0  0  0
    8.7744   -5.0458    1.7766 N   0  0  0  0  0  0  0  0  0  0  0  0
    8.5739   -6.1201    1.3611 O   0  0  0  0  0  0  0  0  0  0  0  0
    7.7902   -4.1496    1.9905 C   0  0  0  0  0  0  0  0  0  0  0  0
    8.0481   -2.9066    2.6249 C   0  0  0  0  0  0  0  0  0  0  0  0
    7.0206   -1.9727    2.8568 C   0  0  0  0  0  0  0  0  0  0  0  0
    5.6978   -2.2382    2.4494 C   0  0  0  0  0  0  0  0  0  0  0  0
    4.7366   -1.2992    2.7102 N   0  0  0  0  0  0  0  0  0  0  0  0
    3.5922   -1.0546    1.9996 C   0  0  0  0  0  0  0  0  0  0  0  0
    3.5271   -1.1723    0.5936 C   0  0  0  0  0  0  0  0  0  0  0  0
    2.3335   -0.9022   -0.0982 C   0  0  0  0  0  0  0  0  0  0  0  0
    1.1717   -0.4826    0.5965 C   0  0  0  0  0  0  0  0  0  0  0  0
    1.2396   -0.3624    2.0015 C   0  0  0  0  0  0  0  0  0  0  0  0
    2.4379   -0.6305    2.6920 C   0  0  0  0  0  0  0  0  0  0  0  0
    0.0145   -0.1761    0.0128 N   0  0  0  0  0  0  0  0  0  0  0  0
   -0.2385   -0.1282   -1.1724 C   0  0  0  0  0  0  0  0  0  0  0  0
   -0.5581   -0.0513   -2.7718 S   0  0  0  0  0  0  0  0  0  0  0  0
    5.4253   -3.4751    1.8246 C   0  0  0  0  0  0  0  0  0  0  0  0
    6.4524   -4.4075    1.5945 C   0  0  0  0  0  0  0  0  0  0  0  0
    8.9949   -2.6684    2.9307 H   0  0  0  0  0  0  0  0  0  0  0  0
    7.2485   -1.0906    3.3216 H   0  0  0  0  0  0  0  0  0  0  0  0
    4.8826   -0.7443    3.4931 H   0  0  0  0  0  0  0  0  0  0  0  0
    4.3552   -1.4431    0.0595 H   0  0  0  0  0  0  0  0  0  0  0  0
    2.3229   -1.0097   -1.1145 H   0  0  0  0  0  0  0  0  0  0  0  0
    0.4145   -0.0697    2.5330 H   0  0  0  0  0  0  0  0  0  0  0  0
    2.4584   -0.5178    3.7082 H   0  0  0  0  0  0  0  0  0  0  0  0
    4.4742   -3.7125    1.5388 H   0  0  0  0  0  0  0  0  0  0  0  0
    6.2102   -5.2871    1.1319 H   0  0  0  0  0  0  0  0  0  0  0  0
  1  2  1  0  0  0  0 
  2  3  2  0  0  0  0 
  2  4  1  0  0  0  0 
  4  5  2  0  0  0  0 
  5  6  1  0  0  0  0 
  6  7  2  0  0  0  0 
  7  8  1  0  0  0  0 
  8  9  1  0  0  0  0 
  9 10  2  0  0  0  0 
 10 11  1  0  0  0  0 
 11 12  2  0  0  0  0 
 12 13  1  0  0  0  0 
 13 14  2  0  0  0  0 
  9 14  1  0  0  0  0 
 12 15  1  0  0  0  0 
 15 16  2  0  0  0  0 
 16 17  2  0  0  0  0 
  7 18  1  0  0  0  0 
 18 19  2  0  0  0  0 
  4 19  1  0  0  0  0 
  5 20  1  0  0  0  0 
  6 21  1  0  0  0  0 
  8 22  1  0  0  0  0 
 10 23  1  0  0  0  0 
 11 24  1  0  0  0  0 
 13 25  1  0  0  0  0 
 14 26  1  0  0  0  0 
 18 27  1  0  0  0  0 
 19 28  1  0  0  0  0 
M  CHG  1   1  -1
M  CHG  1   2   1
M  END
> <cdk:Title>
amoscanate

> <Conformer>
1

> <SuperDrugID>
SD000154

$$$$
