testosterone undecanoate
  CDK     0628171801

 81 84  0  0  0  0  0  0  0  0999 V2000
   -3.6301    0.5591    0.7461 C   0  0  0  0  0  0  0  0  0  0  0  0
   -2.6967    0.3659   -0.5054 C   0  0  1  0  0  0  0  0  0  0  0  0
   -3.5062    0.4271   -1.8837 C   0  0  2  0  0  0  0  0  0  0  0  0
   -1.6573    1.4447   -0.4299 C   0  0  0  0  0  0  0  0  0  0  0  0
   -1.9986   -1.0504   -0.4132 C   0  0  1  0  0  0  0  0  0  0  0  0
   -3.9416    1.8934   -2.2547 C   0  0  2  0  0  0  0  0  0  0  0  0
   -4.6838   -0.6114   -2.0416 C   0  0  1  0  0  0  0  0  0  0  0  0
   -1.9645    2.7935   -0.9344 C   0  0  2  0  0  0  0  0  0  0  0  0
   -0.4664    1.2486    0.1848 C   0  0  0  0  0  0  0  0  0  0  0  0
   -0.9276   -1.1616    0.7008 C   0  0  1  0  0  0  0  0  0  0  0  0
   -4.7297    1.8996   -3.6018 C   0  0  1  0  0  0  0  0  0  0  0  0
   -2.6795    2.7960   -2.3024 C   0  0  2  0  0  0  0  0  0  0  0  0
   -5.5520   -0.4482   -3.3333 C   0  0  1  0  0  0  0  0  0  0  0  0
   -0.0986    0.0566    0.7842 C   0  0  0  0  0  0  0  0  0  0  0  0
   -6.0257    1.0272   -3.5591 C   0  0  1  0  0  0  0  0  0  0  0  0
   -5.1968    3.2443   -4.1860 C   0  0  1  0  0  0  0  0  0  0  0  0
    0.9554    0.0119    1.4609 O   0  0  0  0  0  0  0  0  0  0  0  0
   -7.0669    1.4126   -2.4436 C   0  0  0  0  0  0  0  0  0  0  0  0
   -6.6338    1.3456   -4.9712 C   0  0  2  0  0  0  0  0  0  0  0  0
   -6.2240    2.8219   -5.2584 C   0  0  2  0  0  0  0  0  0  0  0  0
   -8.0667    1.1897   -5.0511 O   0  0  0  0  0  0  0  0  0  0  0  0
   -8.8681    1.4226   -6.1380 C   0  0  0  0  0  0  0  0  0  0  0  0
  -10.3421    1.3846   -5.9969 C   0  0  1  0  0  0  0  0  0  0  0  0
   -8.3678    1.6985   -7.2538 O   0  0  0  0  0  0  0  0  0  0  0  0
  -10.8607    2.3947   -4.9278 C   0  0  1  0  0  0  0  0  0  0  0  0
  -10.8931    1.8114   -3.4821 C   0  0  1  0  0  0  0  0  0  0  0  0
  -10.6588    2.9193   -2.3696 C   0  0  2  0  0  0  0  0  0  0  0  0
  -10.5503    2.2890   -0.9539 C   0  0  2  0  0  0  0  0  0  0  0  0
   -9.9455    3.2476    0.1073 C   0  0  2  0  0  0  0  0  0  0  0  0
   -9.6422    2.5287    1.4515 C   0  0  1  0  0  0  0  0  0  0  0  0
   -8.7747    3.3805    2.4161 C   0  0  1  0  0  0  0  0  0  0  0  0
   -8.4523    2.6256    3.7331 C   0  0  2  0  0  0  0  0  0  0  0  0
   -7.5339    3.4386    4.6710 C   0  0  0  0  0  0  0  0  0  0  0  0
   -4.3259   -0.2722    0.8616 H   0  0  0  0  0  0  0  0  0  0  0  0
   -4.2139    1.4773    0.6754 H   0  0  0  0  0  0  0  0  0  0  0  0
   -3.0489    0.6166    1.6699 H   0  0  0  0  0  0  0  0  0  0  0  0
   -2.7968    0.1376   -2.6686 H   0  0  0  0  0  0  0  0  0  0  0  0
   -2.7357   -1.8429   -0.2559 H   0  0  0  0  0  0  0  0  0  0  0  0
   -1.4873   -1.2655   -1.3588 H   0  0  0  0  0  0  0  0  0  0  0  0
   -4.5887    2.2954   -1.4755 H   0  0  0  0  0  0  0  0  0  0  0  0
   -4.2747   -1.6248   -2.0632 H   0  0  0  0  0  0  0  0  0  0  0  0
   -5.3464   -0.5578   -1.1797 H   0  0  0  0  0  0  0  0  0  0  0  0
   -1.0709    3.4173   -1.0382 H   0  0  0  0  0  0  0  0  0  0  0  0
   -2.6103    3.2909   -0.2054 H   0  0  0  0  0  0  0  0  0  0  0  0
    0.1859    1.9986    0.2461 H   0  0  0  0  0  0  0  0  0  0  0  0
   -1.4056   -1.3361    1.6668 H   0  0  0  0  0  0  0  0  0  0  0  0
   -0.2880   -2.0208    0.4856 H   0  0  0  0  0  0  0  0  0  0  0  0
   -4.0424    1.4830   -4.3527 H   0  0  0  0  0  0  0  0  0  0  0  0
   -2.9659    3.8239   -2.5381 H   0  0  0  0  0  0  0  0  0  0  0  0
   -1.9901    2.4518   -3.0802 H   0  0  0  0  0  0  0  0  0  0  0  0
   -4.9571   -0.7791   -4.1901 H   0  0  0  0  0  0  0  0  0  0  0  0
   -6.4207   -1.1118   -3.2743 H   0  0  0  0  0  0  0  0  0  0  0  0
   -5.6655    3.8593   -3.4123 H   0  0  0  0  0  0  0  0  0  0  0  0
   -4.3683    3.8012   -4.6329 H   0  0  0  0  0  0  0  0  0  0  0  0
   -6.6465    1.3783   -1.4411 H   0  0  0  0  0  0  0  0  0  0  0  0
   -7.4687    2.4130   -2.5986 H   0  0  0  0  0  0  0  0  0  0  0  0
   -7.9016    0.7123   -2.4607 H   0  0  0  0  0  0  0  0  0  0  0  0
   -6.1705    0.6948   -5.7206 H   0  0  0  0  0  0  0  0  0  0  0  0
   -5.7828    2.8903   -6.2564 H   0  0  0  0  0  0  0  0  0  0  0  0
   -7.0855    3.4916   -5.2193 H   0  0  0  0  0  0  0  0  0  0  0  0
  -10.7997    1.6374   -6.9581 H   0  0  0  0  0  0  0  0  0  0  0  0
  -10.6596    0.3698   -5.7504 H   0  0  0  0  0  0  0  0  0  0  0  0
  -10.2448    3.2991   -4.9694 H   0  0  0  0  0  0  0  0  0  0  0  0
  -11.8785    2.7020   -5.1902 H   0  0  0  0  0  0  0  0  0  0  0  0
  -11.8289    1.1917   -3.3993 H   0  0  0  0  0  0  0  0  0  0  0  0
  -10.0679    1.1049   -3.3865 H   0  0  0  0  0  0  0  0  0  0  0  0
  -11.4846    3.6335   -2.3892 H   0  0  0  0  0  0  0  0  0  0  0  0
   -9.7386    3.4598   -2.6017 H   0  0  0  0  0  0  0  0  0  0  0  0
   -9.9134    1.4039   -1.0097 H   0  0  0  0  0  0  0  0  0  0  0  0
  -11.5424    1.9624   -0.6313 H   0  0  0  0  0  0  0  0  0  0  0  0
  -10.6384    4.0744    0.2871 H   0  0  0  0  0  0  0  0  0  0  0  0
   -9.0134    3.6639   -0.2856 H   0  0  0  0  0  0  0  0  0  0  0  0
  -10.5864    2.2777    1.9439 H   0  0  0  0  0  0  0  0  0  0  0  0
   -9.1066    1.5964    1.2472 H   0  0  0  0  0  0  0  0  0  0  0  0
   -7.8331    3.6366    1.9210 H   0  0  0  0  0  0  0  0  0  0  0  0
   -9.3004    4.3111    2.6477 H   0  0  0  0  0  0  0  0  0  0  0  0
   -7.9532    1.6802    3.4992 H   0  0  0  0  0  0  0  0  0  0  0  0
   -9.3830    2.3978    4.2596 H   0  0  0  0  0  0  0  0  0  0  0  0
   -7.3387    2.8681    5.5813 H   0  0  0  0  0  0  0  0  0  0  0  0
   -6.5814    3.6471    4.1780 H   0  0  0  0  0  0  0  0  0  0  0  0
   -8.0074    4.3839    4.9453 H   0  0  0  0  0  0  0  0  0  0  0  0
  2  1  1  0  0  0  0 
  3  2  1  0  0  0  0 
  2  4  1  0  0  0  0 
  2  5  1  0  0  0  0 
  3  6  1  0  0  0  0 
  3  7  1  0  0  0  0 
  4  8  1  0  0  0  0 
  4  9  2  0  0  0  0 
  5 10  1  0  0  0  0 
  6 11  1  0  0  0  0 
  6 12  1  0  0  0  0 
  7 13  1  0  0  0  0 
  8 12  1  0  0  0  0 
  9 14  1  0  0  0  0 
 10 14  1  0  0  0  0 
 11 15  1  0  0  0  0 
 11 16  1  0  0  0  0 
 15 13  1  0  0  0  0 
 14 17  2  0  0  0  0 
 15 18  1  0  0  0  0 
 15 19  1  0  0  0  0 
 16 20  1  0  0  0  0 
 19 20  1  0  0  0  0 
 19 21  1  0  0  0  0 
 21 22  1  0  0  0  0 
 22 23  1  0  0  0  0 
 22 24  2  0  0  0  0 
 23 25  1  0  0  0  0 
 25 26  1  0  0  0  0 
 26 27  1  0  0  0  0 
 27 28  1  0  0  0  0 
 28 29  1  0  0  0  0 
 29 30  1  0  0  0  0 
 30 31  1  0  0  0  0 
 31 32  1  0  0  0  0 
 32 33  1  0  0  0  0 
 34  1  1  0  0  0  0 
 35  1  1  0  0  0  0 
 36  1  1  0  0  0  0 
  3 37  1  0  0  0  0 
 38  5  1  0  0  0  0 
 39  5  1  0  0  0  0 
  6 40  1  0  0  0  0 
 41  7  1  0  0  0  0 
 42  7  1  0  0  0  0 
 43  8  1  0  0  0  0 
 44  8  1  0  0  0  0 
 45  9  1  0  0  0  0 
 46 10  1  0  0  0  0 
 47 10  1  0  0  0  0 
 11 48  1  0  0  0  0 
 49 12  1  0  0  0  0 
 50 12  1  0  0  0  0 
 51 13  1  0  0  0  0 
 52 13  1  0  0  0  0 
 53 16  1  0  0  0  0 
 54 16  1  0  0  0  0 
 55 18  1  0  0  0  0 
 56 18  1  0  0  0  0 
 57 18  1  0  0  0  0 
 19 58  1  0  0  0  0 
 59 20  1  0  0  0  0 
 60 20  1  0  0  0  0 
 61 23  1  0  0  0  0 
 62 23  1  0  0  0  0 
 63 25  1  0  0  0  0 
 64 25  1  0  0  0  0 
 65 26  1  0  0  0  0 
 66 26  1  0  0  0  0 
 67 27  1  0  0  0  0 
 68 27  1  0  0  0  0 
 69 28  1  0  0  0  0 
 70 28  1  0  0  0  0 
 71 29  1  0  0  0  0 
 72 29  1  0  0  0  0 
 73 30  1  0  0  0  0 
 74 30  1  0  0  0  0 
 75 31  1  0  0  0  0 
 76 31  1  0  0  0  0 
 77 32  1  0  0  0  0 
 78 32  1  0  0  0  0 
 79 33  1  0  0  0  0 
 80 33  1  0  0  0  0 
 81 33  1  0  0  0  0 
M  END
> <cdk:Title>
testosterone undecanoate

> <Conformer>
1

> <SuperDrugID>
SD002347

$$$$
