nemonapride
  CDK     0628171801

 53 55  0  0  0  0  0  0  0  0999 V2000
    4.8401   -2.3209    1.8216 C   0  0  0  0  0  0  0  0  0  0  0  0
    5.8413   -2.8865    1.0912 N   0  0  0  0  0  0  0  0  0  0  0  0
    4.8681   -2.3664    3.0753 O   0  0  0  0  0  0  0  0  0  0  0  0
    3.7584   -1.6808    1.1625 C   0  0  0  0  0  0  0  0  0  0  0  0
    6.9621   -3.6071    1.6236 C   0  0  1  0  0  0  0  0  0  0  0  0
    3.1273   -0.5298    1.6997 C   0  0  0  0  0  0  0  0  0  0  0  0
    3.2774   -2.1984   -0.0629 C   0  0  0  0  0  0  0  0  0  0  0  0
    7.7542   -4.3499    0.5159 C   0  0  1  0  0  0  0  0  0  0  0  0
    8.0121   -2.6305    2.1971 C   0  0  2  0  0  0  0  0  0  0  0  0
    3.5565    0.0604    2.8624 O   0  0  0  0  0  0  0  0  0  0  0  0
    2.0107    0.0314    1.0495 C   0  0  0  0  0  0  0  0  0  0  0  0
    2.1759   -1.6216   -0.7232 C   0  0  0  0  0  0  0  0  0  0  0  0
    6.8646   -5.1797   -0.4532 C   0  0  0  0  0  0  0  0  0  0  0  0
    8.5025   -3.2212   -0.0993 N   0  0  1  0  0  0  0  0  0  0  0  0
    8.9952   -2.3862    1.0312 C   0  0  2  0  0  0  0  0  0  0  0  0
    4.5536    1.0786    2.6544 C   0  0  0  0  0  0  0  0  0  0  0  0
    1.5094   -0.5085   -0.1584 C   0  0  0  0  0  0  0  0  0  0  0  0
    1.6727   -2.3212   -2.1870 Cl  0  0  0  0  0  0  0  0  0  0  0  0
    9.4975   -3.5060   -1.1773 C   0  0  2  0  0  0  0  0  0  0  0  0
    0.4089   -0.0006   -0.7960 N   0  0  0  0  0  0  0  0  0  0  0  0
    9.6803   -2.3121   -2.0506 C   0  0  0  0  0  0  0  0  0  0  0  0
   -0.5080    0.9619   -0.2830 C   0  0  0  0  0  0  0  0  0  0  0  0
    8.5909   -1.8303   -2.8153 C   0  0  0  0  0  0  0  0  0  0  0  0
   10.9222   -1.6385   -2.1446 C   0  0  0  0  0  0  0  0  0  0  0  0
    8.7323   -0.6974   -3.6379 C   0  0  0  0  0  0  0  0  0  0  0  0
   11.0638   -0.5048   -2.9690 C   0  0  0  0  0  0  0  0  0  0  0  0
    9.9682   -0.0330   -3.7136 C   0  0  0  0  0  0  0  0  0  0  0  0
    5.8040   -2.7746    0.1282 H   0  0  0  0  0  0  0  0  0  0  0  0
    6.6261   -4.3210    2.3818 H   0  0  0  0  0  0  0  0  0  0  0  0
    3.7190   -3.0234   -0.4790 H   0  0  0  0  0  0  0  0  0  0  0  0
    8.4558   -5.0485    0.9879 H   0  0  0  0  0  0  0  0  0  0  0  0
    8.5328   -3.0925    3.0406 H   0  0  0  0  0  0  0  0  0  0  0  0
    7.5631   -1.6956    2.5433 H   0  0  0  0  0  0  0  0  0  0  0  0
    1.5724    0.8509    1.4718 H   0  0  0  0  0  0  0  0  0  0  0  0
    6.1530   -5.7879    0.1103 H   0  0  0  0  0  0  0  0  0  0  0  0
    7.4778   -5.8592   -1.0489 H   0  0  0  0  0  0  0  0  0  0  0  0
    6.3135   -4.5256   -1.1295 H   0  0  0  0  0  0  0  0  0  0  0  0
   10.0070   -2.6736    1.3435 H   0  0  0  0  0  0  0  0  0  0  0  0
    9.0014   -1.3331    0.7407 H   0  0  0  0  0  0  0  0  0  0  0  0
    4.8296    1.4863    3.6283 H   0  0  0  0  0  0  0  0  0  0  0  0
    5.4549    0.6727    2.1870 H   0  0  0  0  0  0  0  0  0  0  0  0
    4.1664    1.8978    2.0436 H   0  0  0  0  0  0  0  0  0  0  0  0
    9.1487   -4.3197   -1.8153 H   0  0  0  0  0  0  0  0  0  0  0  0
   10.4429   -3.8350   -0.7353 H   0  0  0  0  0  0  0  0  0  0  0  0
    0.2041   -0.3542   -1.6742 H   0  0  0  0  0  0  0  0  0  0  0  0
   -1.2654    1.1659   -1.0401 H   0  0  0  0  0  0  0  0  0  0  0  0
    0.0035    1.8954   -0.0463 H   0  0  0  0  0  0  0  0  0  0  0  0
   -1.0034    0.5713    0.6095 H   0  0  0  0  0  0  0  0  0  0  0  0
    7.6865   -2.3078   -2.7761 H   0  0  0  0  0  0  0  0  0  0  0  0
   11.7302   -1.9689   -1.6114 H   0  0  0  0  0  0  0  0  0  0  0  0
    7.9369   -0.3549   -4.1816 H   0  0  0  0  0  0  0  0  0  0  0  0
   11.9636   -0.0229   -3.0262 H   0  0  0  0  0  0  0  0  0  0  0  0
   10.0677    0.7917   -4.3095 H   0  0  0  0  0  0  0  0  0  0  0  0
  1  2  1  0  0  0  0 
  1  3  2  0  0  0  0 
  1  4  1  0  0  0  0 
  4  6  2  0  0  0  0 
  4  7  1  0  0  0  0 
  5  2  1  0  0  0  0 
  8  5  1  0  0  0  0 
  5  9  1  0  0  0  0 
  6 10  1  0  0  0  0 
  6 11  1  0  0  0  0 
  7 12  2  0  0  0  0 
  8 13  1  0  0  0  0 
  8 14  1  0  0  0  0 
  9 15  1  0  0  0  0 
 10 16  1  0  0  0  0 
 11 17  2  0  0  0  0 
 12 17  1  0  0  0  0 
 12 18  1  0  0  0  0 
 14 15  1  0  0  0  0 
 14 19  1  0  0  0  0 
 17 20  1  0  0  0  0 
 19 21  1  0  0  0  0 
 20 22  1  0  0  0  0 
 21 23  2  0  0  0  0 
 21 24  1  0  0  0  0 
 23 25  1  0  0  0  0 
 24 26  2  0  0  0  0 
 25 27  2  0  0  0  0 
 26 27  1  0  0  0  0 
  2 28  1  0  0  0  0 
  5 29  1  0  0  0  0 
  7 30  1  0  0  0  0 
  8 31  1  0  0  0  0 
  9 32  1  0  0  0  0 
  9 33  1  0  0  0  0 
 11 34  1  0  0  0  0 
 13 35  1  0  0  0  0 
 13 36  1  0  0  0  0 
 13 37  1  0  0  0  0 
 15 38  1  0  0  0  0 
 15 39  1  0  0  0  0 
 16 40  1  0  0  0  0 
 16 41  1  0  0  0  0 
 16 42  1  0  0  0  0 
 19 43  1  0  0  0  0 
 19 44  1  0  0  0  0 
 20 45  1  0  0  0  0 
 22 46  1  0  0  0  0 
 22 47  1  0  0  0  0 
 22 48  1  0  0  0  0 
 23 49  1  0  0  0  0 
 24 50  1  0  0  0  0 
 25 51  1  0  0  0  0 
 26 52  1  0  0  0  0 
 27 53  1  0  0  0  0 
M  END
> <cdk:Title>
nemonapride

> <Conformer>
1

> <SuperDrugID>
SD001690

$$$$
