dexrabeprazole
  CDK     0628171802

 46 48  0  0  0  0  0  0  0  0999 V2000
   -0.3984   -0.0925   -0.0491 S   0  0  1  0  0  0  0  0  0  0  0  0
    1.1704   -0.7174   -0.7627 C   0  0  2  0  0  0  0  0  0  0  0  0
   -0.0521    1.3975    0.4347 O   0  0  0  0  0  0  0  0  0  0  0  0
   -1.5094    0.0831   -1.4030 C   0  0  0  0  0  0  0  0  0  0  0  0
    0.9802   -2.0620   -1.3615 C   0  0  0  0  0  0  0  0  0  0  0  0
   -2.6648   -0.5985   -1.5293 N   0  0  0  0  0  0  0  0  0  0  0  0
   -1.3070    0.8905   -2.4574 N   0  0  0  0  0  0  0  0  0  0  0  0
    1.0666   -3.2854   -0.6359 C   0  0  0  0  0  0  0  0  0  0  0  0
    0.6983   -2.0955   -2.6929 N   0  0  0  0  0  0  0  0  0  0  0  0
   -3.1918   -0.2065   -2.6993 C   0  0  0  0  0  0  0  0  0  0  0  0
   -2.3406    0.7254   -3.2862 C   0  0  0  0  0  0  0  0  0  0  0  0
    1.2930   -3.2960    0.8365 C   0  0  0  0  0  0  0  0  0  0  0  0
    0.9331   -4.4981   -1.3669 C   0  0  0  0  0  0  0  0  0  0  0  0
    0.5113   -3.2363   -3.3947 C   0  0  0  0  0  0  0  0  0  0  0  0
   -4.3833   -0.5948   -3.3335 C   0  0  0  0  0  0  0  0  0  0  0  0
   -2.6337    1.3063   -4.5316 C   0  0  0  0  0  0  0  0  0  0  0  0
    1.0964   -5.7222   -0.7677 O   0  0  0  0  0  0  0  0  0  0  0  0
    0.6329   -4.4710   -2.7447 C   0  0  0  0  0  0  0  0  0  0  0  0
   -4.6947   -0.0238   -4.5869 C   0  0  0  0  0  0  0  0  0  0  0  0
   -3.8235    0.9188   -5.1830 C   0  0  0  0  0  0  0  0  0  0  0  0
    2.4531   -6.2075   -0.8731 C   0  0  1  0  0  0  0  0  0  0  0  0
    2.5894   -7.5282   -0.0786 C   0  0  1  0  0  0  0  0  0  0  0  0
    4.0434   -8.0599   -0.0399 C   0  0  1  0  0  0  0  0  0  0  0  0
    4.0837   -9.2988    0.6983 O   0  0  0  0  0  0  0  0  0  0  0  0
    5.3963   -9.8811    0.7980 C   0  0  0  0  0  0  0  0  0  0  0  0
    1.9340   -0.7375    0.0171 H   0  0  0  0  0  0  0  0  0  0  0  0
    1.5137   -0.0074   -1.5196 H   0  0  0  0  0  0  0  0  0  0  0  0
   -0.5485    1.4805   -2.5972 H   0  0  0  0  0  0  0  0  0  0  0  0
    2.2934   -2.9242    1.0607 H   0  0  0  0  0  0  0  0  0  0  0  0
    1.1987   -4.2884    1.2805 H   0  0  0  0  0  0  0  0  0  0  0  0
    0.5581   -2.6565    1.3272 H   0  0  0  0  0  0  0  0  0  0  0  0
    0.2939   -3.1916   -4.3910 H   0  0  0  0  0  0  0  0  0  0  0  0
   -5.0096   -1.2745   -2.8990 H   0  0  0  0  0  0  0  0  0  0  0  0
   -1.9993    1.9907   -4.9511 H   0  0  0  0  0  0  0  0  0  0  0  0
    0.5128   -5.3405   -3.2718 H   0  0  0  0  0  0  0  0  0  0  0  0
   -5.5546   -0.2937   -5.0679 H   0  0  0  0  0  0  0  0  0  0  0  0
   -4.0570    1.3231   -6.0921 H   0  0  0  0  0  0  0  0  0  0  0  0
    2.7057   -6.3978   -1.9222 H   0  0  0  0  0  0  0  0  0  0  0  0
    3.1600   -5.4741   -0.4674 H   0  0  0  0  0  0  0  0  0  0  0  0
    2.2491   -7.3631    0.9476 H   0  0  0  0  0  0  0  0  0  0  0  0
    1.9412   -8.2819   -0.5349 H   0  0  0  0  0  0  0  0  0  0  0  0
    4.3946   -8.2161   -1.0653 H   0  0  0  0  0  0  0  0  0  0  0  0
    4.6809   -7.3129    0.4454 H   0  0  0  0  0  0  0  0  0  0  0  0
    5.3234  -10.8029    1.3758 H   0  0  0  0  0  0  0  0  0  0  0  0
    6.0889   -9.2109    1.3126 H   0  0  0  0  0  0  0  0  0  0  0  0
    5.7924  -10.1281   -0.1895 H   0  0  0  0  0  0  0  0  0  0  0  0
  1  2  1  0  0  0  0 
  1  3  2  0  0  0  0 
  1  4  1  0  0  0  0 
  2  5  1  0  0  0  0 
  4  6  2  0  0  0  0 
  4  7  1  0  0  0  0 
  5  8  2  0  0  0  0 
  5  9  1  0  0  0  0 
  6 10  1  0  0  0  0 
  7 11  1  0  0  0  0 
  8 12  1  0  0  0  0 
  8 13  1  0  0  0  0 
  9 14  2  0  0  0  0 
 10 11  1  0  0  0  0 
 10 15  2  0  0  0  0 
 11 16  2  0  0  0  0 
 13 17  1  0  0  0  0 
 13 18  2  0  0  0  0 
 14 18  1  0  0  0  0 
 15 19  1  0  0  0  0 
 16 20  1  0  0  0  0 
 17 21  1  0  0  0  0 
 19 20  2  0  0  0  0 
 21 22  1  0  0  0  0 
 22 23  1  0  0  0  0 
 23 24  1  0  0  0  0 
 24 25  1  0  0  0  0 
 26  2  1  0  0  0  0 
 27  2  1  0  0  0  0 
 28  7  1  0  0  0  0 
 29 12  1  0  0  0  0 
 30 12  1  0  0  0  0 
 31 12  1  0  0  0  0 
 32 14  1  0  0  0  0 
 33 15  1  0  0  0  0 
 34 16  1  0  0  0  0 
 35 18  1  0  0  0  0 
 36 19  1  0  0  0  0 
 37 20  1  0  0  0  0 
 38 21  1  0  0  0  0 
 39 21  1  0  0  0  0 
 40 22  1  0  0  0  0 
 41 22  1  0  0  0  0 
 42 23  1  0  0  0  0 
 43 23  1  0  0  0  0 
 44 25  1  0  0  0  0 
 45 25  1  0  0  0  0 
 46 25  1  0  0  0  0 
M  END
> <cdk:Title>
dexrabeprazole

> <Conformer>
1

> <SuperDrugID>
SD003810

$$$$
