cefoperazone
  CDK     0628171802

 71 75  0  0  0  0  0  0  0  0999 V2000
   -0.7505   -4.1230    4.0019 C   0  0  0  0  0  0  0  0  0  0  0  0
   -1.7643   -3.5375    3.3207 O   0  0  0  0  0  0  0  0  0  0  0  0
   -0.9103   -4.3380    5.2249 O   0  0  0  0  0  0  0  0  0  0  0  0
    0.4125   -4.5275    3.3602 C   0  0  0  0  0  0  0  0  0  0  0  0
    0.7215   -5.8435    3.4683 N   0  0  0  0  0  0  0  0  0  0  0  0
    1.1552   -3.6964    2.5682 C   0  0  0  0  0  0  0  0  0  0  0  0
    1.8456   -6.6010    3.0320 C   0  0  1  0  0  0  0  0  0  0  0  0
   -0.0151   -6.9430    3.7116 C   0  0  0  0  0  0  0  0  0  0  0  0
    0.7862   -2.3015    2.2784 C   0  0  2  0  0  0  0  0  0  0  0  0
    2.4055   -4.1412    1.9212 C   0  0  2  0  0  0  0  0  0  0  0  0
    0.9176   -7.8522    3.0447 C   0  0  1  0  0  0  0  0  0  0  0  0
    2.4230   -5.9062    1.4548 S   0  0  0  0  0  0  0  0  0  0  0  0
   -1.1676   -7.1305    4.1660 O   0  0  0  0  0  0  0  0  0  0  0  0
   -0.1174   -2.2711    0.6904 S   0  0  0  0  0  0  0  0  0  0  0  0
    0.3613   -8.1867    1.7690 N   0  0  0  0  0  0  0  0  0  0  0  0
   -0.5629   -0.5943    0.4510 C   0  0  0  0  0  0  0  0  0  0  0  0
   -0.6079   -9.1086    1.5369 C   0  0  0  0  0  0  0  0  0  0  0  0
   -1.7935   -0.0838    0.2935 N   0  0  0  0  0  0  0  0  0  0  0  0
    0.3039    0.4214    0.3932 N   0  0  0  0  0  0  0  0  0  0  0  0
   -1.4084   -9.0394    0.2860 C   0  0  2  0  0  0  0  0  0  0  0  0
   -0.9055   -9.9572    2.4110 O   0  0  0  0  0  0  0  0  0  0  0  0
   -3.0538   -0.7538    0.2753 C   0  0  0  0  0  0  0  0  0  0  0  0
   -1.6547    1.1953    0.1591 N   0  0  0  0  0  0  0  0  0  0  0  0
   -0.3958    1.4941    0.2148 N   0  0  0  0  0  0  0  0  0  0  0  0
   -0.5591   -8.8458   -0.8565 N   0  0  0  0  0  0  0  0  0  0  0  0
   -2.3893   -7.8696    0.4547 C   0  0  0  0  0  0  0  0  0  0  0  0
   -0.9602   -8.7188   -2.1647 C   0  0  0  0  0  0  0  0  0  0  0  0
   -3.7501   -8.1520    0.7085 C   0  0  0  0  0  0  0  0  0  0  0  0
   -1.9834   -6.5141    0.3688 C   0  0  0  0  0  0  0  0  0  0  0  0
   -2.1945   -8.8067   -2.3812 O   0  0  0  0  0  0  0  0  0  0  0  0
   -0.0814   -8.4984   -3.2292 N   0  0  0  0  0  0  0  0  0  0  0  0
   -4.6802   -7.1122    0.8861 C   0  0  0  0  0  0  0  0  0  0  0  0
   -2.9156   -5.4744    0.5424 C   0  0  0  0  0  0  0  0  0  0  0  0
    1.2946   -8.3594   -3.0769 C   0  0  0  0  0  0  0  0  0  0  0  0
   -0.5938   -8.3522   -4.5851 C   0  0  1  0  0  0  0  0  0  0  0  0
   -4.2660   -5.7698    0.8088 C   0  0  0  0  0  0  0  0  0  0  0  0
    1.8380   -8.2250   -1.9529 O   0  0  0  0  0  0  0  0  0  0  0  0
    2.1655   -8.3759   -4.2055 C   0  0  0  0  0  0  0  0  0  0  0  0
    0.3092   -9.0475   -5.6325 C   0  0  1  0  0  0  0  0  0  0  0  0
   -5.1717   -4.7759    0.9938 O   0  0  0  0  0  0  0  0  0  0  0  0
    3.3832   -8.1353   -4.0113 O   0  0  0  0  0  0  0  0  0  0  0  0
    1.7025   -8.6782   -5.4801 N   0  0  0  0  0  0  0  0  0  0  0  0
    2.6484   -8.7541   -6.5896 C   0  0  1  0  0  0  0  0  0  0  0  0
    2.1151   -8.6458   -8.0394 C   0  0  0  0  0  0  0  0  0  0  0  0
    2.6370   -6.6227    3.7894 H   0  0  0  0  0  0  0  0  0  0  0  0
   -2.5880   -3.2772    3.7833 H   0  0  0  0  0  0  0  0  0  0  0  0
    1.6739   -1.6683    2.1903 H   0  0  0  0  0  0  0  0  0  0  0  0
    0.1670   -1.8494    3.0528 H   0  0  0  0  0  0  0  0  0  0  0  0
    3.2295   -3.9627    2.6139 H   0  0  0  0  0  0  0  0  0  0  0  0
    2.6147   -3.5874    1.0032 H   0  0  0  0  0  0  0  0  0  0  0  0
    1.2725   -8.6797    3.6657 H   0  0  0  0  0  0  0  0  0  0  0  0
    0.6148   -7.6277    1.0187 H   0  0  0  0  0  0  0  0  0  0  0  0
   -1.8384  -10.0777    0.1393 H   0  0  0  0  0  0  0  0  0  0  0  0
   -2.9448   -1.8374    0.2901 H   0  0  0  0  0  0  0  0  0  0  0  0
   -3.6068   -0.4848   -0.6257 H   0  0  0  0  0  0  0  0  0  0  0  0
   -3.6371   -0.4526    1.1465 H   0  0  0  0  0  0  0  0  0  0  0  0
    0.3880   -8.8088   -0.6725 H   0  0  0  0  0  0  0  0  0  0  0  0
   -4.0731   -9.1211    0.7669 H   0  0  0  0  0  0  0  0  0  0  0  0
   -1.0065   -6.2732    0.1792 H   0  0  0  0  0  0  0  0  0  0  0  0
   -5.6590   -7.3378    1.0743 H   0  0  0  0  0  0  0  0  0  0  0  0
   -2.6086   -4.5030    0.4777 H   0  0  0  0  0  0  0  0  0  0  0  0
   -1.6121   -8.7324   -4.7155 H   0  0  0  0  0  0  0  0  0  0  0  0
   -0.6149   -7.2829   -4.8190 H   0  0  0  0  0  0  0  0  0  0  0  0
    0.2215  -10.1295   -5.5137 H   0  0  0  0  0  0  0  0  0  0  0  0
   -0.0867   -8.7875   -6.6157 H   0  0  0  0  0  0  0  0  0  0  0  0
   -4.6594   -3.9401    0.9781 H   0  0  0  0  0  0  0  0  0  0  0  0
    3.3856   -7.9512   -6.4974 H   0  0  0  0  0  0  0  0  0  0  0  0
    3.1915   -9.6994   -6.5033 H   0  0  0  0  0  0  0  0  0  0  0  0
    2.9526   -8.6292   -8.7389 H   0  0  0  0  0  0  0  0  0  0  0  0
    1.4829   -9.4994   -8.2848 H   0  0  0  0  0  0  0  0  0  0  0  0
    1.5435   -7.7235   -8.1603 H   0  0  0  0  0  0  0  0  0  0  0  0
  1  2  1  0  0  0  0 
  1  3  2  0  0  0  0 
  1  4  1  0  0  0  0 
  4  5  1  0  0  0  0 
  4  6  2  0  0  0  0 
  7  5  1  0  0  0  0 
  5  8  1  0  0  0  0 
  6  9  1  0  0  0  0 
  6 10  1  0  0  0  0 
 11  7  1  0  0  0  0 
  7 12  1  0  0  0  0 
  7 45  1  0  0  0  0 
 11  8  1  0  0  0  0 
  8 13  2  0  0  0  0 
  9 14  1  0  0  0  0 
 10 12  1  0  0  0  0 
 11 15  1  0  0  0  0 
 14 16  1  0  0  0  0 
 15 17  1  0  0  0  0 
 16 18  1  0  0  0  0 
 16 19  2  0  0  0  0 
 20 17  1  0  0  0  0 
 17 21  2  0  0  0  0 
 18 22  1  0  0  0  0 
 18 23  1  0  0  0  0 
 19 24  1  0  0  0  0 
 20 25  1  0  0  0  0 
 20 26  1  0  0  0  0 
 23 24  2  0  0  0  0 
 25 27  1  0  0  0  0 
 26 28  2  0  0  0  0 
 26 29  1  0  0  0  0 
 27 30  2  0  0  0  0 
 27 31  1  0  0  0  0 
 28 32  1  0  0  0  0 
 29 33  2  0  0  0  0 
 31 34  1  0  0  0  0 
 31 35  1  0  0  0  0 
 32 36  2  0  0  0  0 
 33 36  1  0  0  0  0 
 34 37  2  0  0  0  0 
 34 38  1  0  0  0  0 
 35 39  1  0  0  0  0 
 36 40  1  0  0  0  0 
 38 41  2  0  0  0  0 
 38 42  1  0  0  0  0 
 39 42  1  0  0  0  0 
 42 43  1  0  0  0  0 
 43 44  1  0  0  0  0 
  2 46  1  0  0  0  0 
  9 47  1  0  0  0  0 
  9 48  1  0  0  0  0 
 10 49  1  0  0  0  0 
 10 50  1  0  0  0  0 
 11 51  1  0  0  0  0 
 15 52  1  0  0  0  0 
 20 53  1  0  0  0  0 
 22 54  1  0  0  0  0 
 22 55  1  0  0  0  0 
 22 56  1  0  0  0  0 
 25 57  1  0  0  0  0 
 28 58  1  0  0  0  0 
 29 59  1  0  0  0  0 
 32 60  1  0  0  0  0 
 33 61  1  0  0  0  0 
 35 62  1  0  0  0  0 
 35 63  1  0  0  0  0 
 39 64  1  0  0  0  0 
 39 65  1  0  0  0  0 
 40 66  1  0  0  0  0 
 43 67  1  0  0  0  0 
 43 68  1  0  0  0  0 
 44 69  1  0  0  0  0 
 44 70  1  0  0  0  0 
 44 71  1  0  0  0  0 
M  END
> <cdk:Title>
cefoperazone

> <Conformer>
1

> <SuperDrugID>
SD000471

$$$$
