tolmetin
  CDK     0628171801

 34 35  0  0  0  0  0  0  0  0999 V2000
    2.1463    3.6452    1.3298 C   0  0  0  0  0  0  0  0  0  0  0  0
    3.1922    3.9601    1.9408 O   0  0  0  0  0  0  0  0  0  0  0  0
    1.3692    4.6161    0.6334 C   0  0  0  0  0  0  0  0  0  0  0  0
    1.8064    2.2753    1.3324 C   0  0  0  0  0  0  0  0  0  0  0  0
    1.6798    5.9150    0.3448 N   0  0  0  0  0  0  0  0  0  0  0  0
    0.1095    4.3538    0.0893 C   0  0  0  0  0  0  0  0  0  0  0  0
    2.3855    1.4069    0.3830 C   0  0  0  0  0  0  0  0  0  0  0  0
    0.8587    1.7672    2.2474 C   0  0  0  0  0  0  0  0  0  0  0  0
    2.8996    6.5851    0.7184 C   0  0  0  0  0  0  0  0  0  0  0  0
    0.6560    6.4645   -0.3674 C   0  0  0  0  0  0  0  0  0  0  0  0
   -0.3278    5.4977   -0.5425 C   0  0  0  0  0  0  0  0  0  0  0  0
    2.0039    0.0530    0.3370 C   0  0  0  0  0  0  0  0  0  0  0  0
    0.4788    0.4120    2.1956 C   0  0  0  0  0  0  0  0  0  0  0  0
    0.5344    7.8455   -0.8918 C   0  0  1  0  0  0  0  0  0  0  0  0
    1.0503   -0.4627    1.2441 C   0  0  0  0  0  0  0  0  0  0  0  0
    0.2631    8.8036    0.1926 C   0  0  0  0  0  0  0  0  0  0  0  0
    0.6437   -1.8873    1.2175 C   0  0  0  0  0  0  0  0  0  0  0  0
   -0.8493    8.6810    0.9537 O   0  0  0  0  0  0  0  0  0  0  0  0
    1.0401    9.7585    0.4172 O   0  0  0  0  0  0  0  0  0  0  0  0
   -0.4099    3.4742    0.1333 H   0  0  0  0  0  0  0  0  0  0  0  0
    3.0790    1.7560   -0.2863 H   0  0  0  0  0  0  0  0  0  0  0  0
    0.4321    2.3788    2.9507 H   0  0  0  0  0  0  0  0  0  0  0  0
    2.9912    6.6072    1.8054 H   0  0  0  0  0  0  0  0  0  0  0  0
    3.7579    6.0593    0.2965 H   0  0  0  0  0  0  0  0  0  0  0  0
    2.9472    7.6140    0.3666 H   0  0  0  0  0  0  0  0  0  0  0  0
   -1.2132    5.6034   -1.0402 H   0  0  0  0  0  0  0  0  0  0  0  0
    2.4280   -0.5508   -0.3688 H   0  0  0  0  0  0  0  0  0  0  0  0
   -0.2178    0.0636    2.8596 H   0  0  0  0  0  0  0  0  0  0  0  0
    1.4500    8.1113   -1.4244 H   0  0  0  0  0  0  0  0  0  0  0  0
   -0.2852    7.9154   -1.6116 H   0  0  0  0  0  0  0  0  0  0  0  0
   -0.4178   -1.9618    0.9781 H   0  0  0  0  0  0  0  0  0  0  0  0
    0.8169   -2.3436    2.1940 H   0  0  0  0  0  0  0  0  0  0  0  0
    1.2038   -2.4551    0.4732 H   0  0  0  0  0  0  0  0  0  0  0  0
   -1.0354    9.3340    1.6604 H   0  0  0  0  0  0  0  0  0  0  0  0
  1  2  2  0  0  0  0 
  1  3  1  0  0  0  0 
  1  4  1  0  0  0  0 
  3  5  1  0  0  0  0 
  3  6  2  0  0  0  0 
  4  7  2  0  0  0  0 
  4  8  1  0  0  0  0 
  5  9  1  0  0  0  0 
  5 10  1  0  0  0  0 
  6 11  1  0  0  0  0 
  7 12  1  0  0  0  0 
  8 13  2  0  0  0  0 
 10 11  2  0  0  0  0 
 10 14  1  0  0  0  0 
 12 15  2  0  0  0  0 
 13 15  1  0  0  0  0 
 14 16  1  0  0  0  0 
 15 17  1  0  0  0  0 
 16 18  1  0  0  0  0 
 16 19  2  0  0  0  0 
  6 20  1  0  0  0  0 
  7 21  1  0  0  0  0 
  8 22  1  0  0  0  0 
  9 23  1  0  0  0  0 
  9 24  1  0  0  0  0 
  9 25  1  0  0  0  0 
 11 26  1  0  0  0  0 
 12 27  1  0  0  0  0 
 13 28  1  0  0  0  0 
 14 29  1  0  0  0  0 
 14 30  1  0  0  0  0 
 17 31  1  0  0  0  0 
 17 32  1  0  0  0  0 
 17 33  1  0  0  0  0 
 18 34  1  0  0  0  0 
M  END
> <cdk:Title>
tolmetin

> <Conformer>
1

> <SuperDrugID>
SD002430

$$$$
