rotigotine
  CDK     0628171801

 47 49  0  0  0  0  0  0  0  0999 V2000
    9.2161    5.5385   -1.3557 O   0  0  0  0  0  0  0  0  0  0  0  0
    7.8961    5.7825   -1.1368 C   0  0  0  0  0  0  0  0  0  0  0  0
    7.1693    5.1508   -0.0941 C   0  0  0  0  0  0  0  0  0  0  0  0
    7.2602    6.7038   -1.9889 C   0  0  0  0  0  0  0  0  0  0  0  0
    5.7751    5.4151    0.0439 C   0  0  0  0  0  0  0  0  0  0  0  0
    7.8778    4.2172    0.8316 C   0  0  1  0  0  0  0  0  0  0  0  0
    5.8948    6.9884   -1.8309 C   0  0  0  0  0  0  0  0  0  0  0  0
    4.9757    4.7648    1.1233 C   0  0  1  0  0  0  0  0  0  0  0  0
    5.1546    6.3402   -0.8282 C   0  0  0  0  0  0  0  0  0  0  0  0
    7.0312    3.7407    2.0423 C   0  0  1  0  0  0  0  0  0  0  0  0
    5.5700    3.3932    1.6044 C   0  0  2  0  0  0  0  0  0  0  0  0
    5.4736    2.2468    0.6010 N   0  0  2  0  0  0  0  0  0  0  0  0
    4.1054    1.9927    0.0180 C   0  0  1  0  0  0  0  0  0  0  0  0
    6.2103    0.9914    1.0142 C   0  0  1  0  0  0  0  0  0  0  0  0
    3.0539    1.4317    1.0175 C   0  0  1  0  0  0  0  0  0  0  0  0
    6.1497   -0.2353    0.0582 C   0  0  1  0  0  0  0  0  0  0  0  0
    1.7415    1.1846    0.3907 C   0  0  0  0  0  0  0  0  0  0  0  0
    7.1270   -1.3650    0.4572 C   0  0  0  0  0  0  0  0  0  0  0  0
    1.1933   -0.0513    0.0200 C   0  0  0  0  0  0  0  0  0  0  0  0
    0.5279    2.3995    0.0221 S   0  0  0  0  0  0  0  0  0  0  0  0
   -0.1151   -0.0034   -0.4972 C   0  0  0  0  0  0  0  0  0  0  0  0
   -0.6768    1.2736   -0.5719 C   0  0  0  0  0  0  0  0  0  0  0  0
    9.3999    4.6658   -0.9496 H   0  0  0  0  0  0  0  0  0  0  0  0
    7.7917    7.1728   -2.7272 H   0  0  0  0  0  0  0  0  0  0  0  0
    8.1970    3.3463    0.2545 H   0  0  0  0  0  0  0  0  0  0  0  0
    8.7755    4.7059    1.2223 H   0  0  0  0  0  0  0  0  0  0  0  0
    5.4393    7.6685   -2.4446 H   0  0  0  0  0  0  0  0  0  0  0  0
    4.9543    5.4634    1.9654 H   0  0  0  0  0  0  0  0  0  0  0  0
    3.9325    4.6547    0.8303 H   0  0  0  0  0  0  0  0  0  0  0  0
    4.1583    6.5539   -0.7354 H   0  0  0  0  0  0  0  0  0  0  0  0
    7.5159    2.8971    2.5345 H   0  0  0  0  0  0  0  0  0  0  0  0
    7.0111    4.5396    2.7911 H   0  0  0  0  0  0  0  0  0  0  0  0
    5.0232    3.1009    2.5067 H   0  0  0  0  0  0  0  0  0  0  0  0
    3.7210    2.8960   -0.4511 H   0  0  0  0  0  0  0  0  0  0  0  0
    4.1955    1.3008   -0.8198 H   0  0  0  0  0  0  0  0  0  0  0  0
    7.2707    1.2251    1.0918 H   0  0  0  0  0  0  0  0  0  0  0  0
    5.8701    0.6802    2.0059 H   0  0  0  0  0  0  0  0  0  0  0  0
    3.4182    0.4967    1.4484 H   0  0  0  0  0  0  0  0  0  0  0  0
    2.9072    2.1342    1.8381 H   0  0  0  0  0  0  0  0  0  0  0  0
    5.1431   -0.6575    0.0628 H   0  0  0  0  0  0  0  0  0  0  0  0
    6.3819    0.0853   -0.9608 H   0  0  0  0  0  0  0  0  0  0  0  0
    7.0032   -2.2134   -0.2189 H   0  0  0  0  0  0  0  0  0  0  0  0
    6.9301   -1.7011    1.4785 H   0  0  0  0  0  0  0  0  0  0  0  0
    8.1600   -1.0163    0.3919 H   0  0  0  0  0  0  0  0  0  0  0  0
    1.7052   -0.9308    0.1226 H   0  0  0  0  0  0  0  0  0  0  0  0
   -0.6208   -0.8407   -0.7922 H   0  0  0  0  0  0  0  0  0  0  0  0
   -1.6125    1.5109   -0.9028 H   0  0  0  0  0  0  0  0  0  0  0  0
  1  2  1  0  0  0  0 
  2  3  2  0  0  0  0 
  2  4  1  0  0  0  0 
  3  5  1  0  0  0  0 
  3  6  1  0  0  0  0 
  4  7  2  0  0  0  0 
  5  8  1  0  0  0  0 
  5  9  2  0  0  0  0 
  6 10  1  0  0  0  0 
  7  9  1  0  0  0  0 
 11  8  1  0  0  0  0 
 11 10  1  0  0  0  0 
 11 12  1  0  0  0  0 
 12 13  1  0  0  0  0 
 12 14  1  0  0  0  0 
 13 15  1  0  0  0  0 
 14 16  1  0  0  0  0 
 15 17  1  0  0  0  0 
 16 18  1  0  0  0  0 
 17 19  2  0  0  0  0 
 17 20  1  0  0  0  0 
 19 21  1  0  0  0  0 
 20 22  1  0  0  0  0 
 21 22  2  0  0  0  0 
  1 23  1  0  0  0  0 
  4 24  1  0  0  0  0 
  6 25  1  0  0  0  0 
  6 26  1  0  0  0  0 
  7 27  1  0  0  0  0 
  8 28  1  0  0  0  0 
  8 29  1  0  0  0  0 
  9 30  1  0  0  0  0 
 10 31  1  0  0  0  0 
 10 32  1  0  0  0  0 
 11 33  1  0  0  0  0 
 13 34  1  0  0  0  0 
 13 35  1  0  0  0  0 
 14 36  1  0  0  0  0 
 14 37  1  0  0  0  0 
 15 38  1  0  0  0  0 
 15 39  1  0  0  0  0 
 16 40  1  0  0  0  0 
 16 41  1  0  0  0  0 
 18 42  1  0  0  0  0 
 18 43  1  0  0  0  0 
 18 44  1  0  0  0  0 
 19 45  1  0  0  0  0 
 21 46  1  0  0  0  0 
 22 47  1  0  0  0  0 
M  END
> <cdk:Title>
rotigotine

> <Conformer>
1

> <SuperDrugID>
SD002167

$$$$
