nimetazepam
  CDK     0628171801

 35 37  0  0  0  0  0  0  0  0999 V2000
    6.1978    1.7814    2.4822 C   0  0  0  0  0  0  0  0  0  0  0  0
    5.9235    1.6511    1.0626 N   0  0  0  0  0  0  0  0  0  0  0  0
    5.2380    2.6602    0.3841 C   0  0  0  0  0  0  0  0  0  0  0  0
    6.3386    0.4941    0.4108 C   0  0  0  0  0  0  0  0  0  0  0  0
    4.1358    2.4054   -0.4890 C   0  0  0  0  0  0  0  0  0  0  0  0
    5.6703    3.9990    0.5334 C   0  0  0  0  0  0  0  0  0  0  0  0
    7.0687   -0.3510    0.9866 O   0  0  0  0  0  0  0  0  0  0  0  0
    5.8982    0.1632   -0.9657 C   0  0  2  0  0  0  0  0  0  0  0  0
    3.6753    1.1009   -0.7514 C   0  0  0  0  0  0  0  0  0  0  0  0
    3.5135    3.4904   -1.1588 C   0  0  0  0  0  0  0  0  0  0  0  0
    5.0382    5.0581   -0.1379 C   0  0  0  0  0  0  0  0  0  0  0  0
    4.5057    0.1374   -0.9748 N   0  0  0  0  0  0  0  0  0  0  0  0
    2.3124    0.7730   -0.7726 C   0  0  0  0  0  0  0  0  0  0  0  0
    3.9450    4.8308   -1.0071 C   0  0  0  0  0  0  0  0  0  0  0  0
    1.7863   -0.1162   -1.7463 C   0  0  0  0  0  0  0  0  0  0  0  0
    1.4182    1.3040    0.1933 C   0  0  0  0  0  0  0  0  0  0  0  0
    3.3532    5.8446   -1.6734 N   0  0  0  0  0  0  0  0  0  0  0  0
    0.4256   -0.4731   -1.7435 C   0  0  0  0  0  0  0  0  0  0  0  0
    0.0533    0.9587    0.1864 C   0  0  0  0  0  0  0  0  0  0  0  0
    3.7038    7.0585   -1.5304 O   0  0  0  0  0  0  0  0  0  0  0  0
    2.4847    5.6829   -2.4392 O   0  0  0  0  0  0  0  0  0  0  0  0
   -0.4417    0.0662   -0.7797 C   0  0  0  0  0  0  0  0  0  0  0  0
    5.7753    2.6871    2.9249 H   0  0  0  0  0  0  0  0  0  0  0  0
    7.2755    1.7887    2.6632 H   0  0  0  0  0  0  0  0  0  0  0  0
    5.7594    0.9359    3.0196 H   0  0  0  0  0  0  0  0  0  0  0  0
    6.4714    4.2190    1.1303 H   0  0  0  0  0  0  0  0  0  0  0  0
    6.2546   -0.8243   -1.2700 H   0  0  0  0  0  0  0  0  0  0  0  0
    6.2863    0.8986   -1.6768 H   0  0  0  0  0  0  0  0  0  0  0  0
    2.7315    3.2984   -1.7935 H   0  0  0  0  0  0  0  0  0  0  0  0
    5.3944    6.0054    0.0098 H   0  0  0  0  0  0  0  0  0  0  0  0
    2.3897   -0.5112   -2.4715 H   0  0  0  0  0  0  0  0  0  0  0  0
    1.7544    1.9415    0.9214 H   0  0  0  0  0  0  0  0  0  0  0  0
    0.0679   -1.1256   -2.4443 H   0  0  0  0  0  0  0  0  0  0  0  0
   -0.5772    1.3519    0.8877 H   0  0  0  0  0  0  0  0  0  0  0  0
   -1.4310   -0.1919   -0.7805 H   0  0  0  0  0  0  0  0  0  0  0  0
  1  2  1  0  0  0  0 
  2  3  1  0  0  0  0 
  2  4  1  0  0  0  0 
  3  5  2  0  0  0  0 
  3  6  1  0  0  0  0 
  4  7  2  0  0  0  0 
  4  8  1  0  0  0  0 
  5  9  1  0  0  0  0 
  5 10  1  0  0  0  0 
  6 11  2  0  0  0  0 
  8 12  1  0  0  0  0 
  9 12  2  0  0  0  0 
  9 13  1  0  0  0  0 
 10 14  2  0  0  0  0 
 11 14  1  0  0  0  0 
 13 15  2  0  0  0  0 
 13 16  1  0  0  0  0 
 14 17  1  0  0  0  0 
 15 18  1  0  0  0  0 
 16 19  2  0  0  0  0 
 17 20  1  0  0  0  0 
 17 21  2  0  0  0  0 
 18 22  2  0  0  0  0 
 19 22  1  0  0  0  0 
  1 23  1  0  0  0  0 
  1 24  1  0  0  0  0 
  1 25  1  0  0  0  0 
  6 26  1  0  0  0  0 
  8 27  1  0  0  0  0 
  8 28  1  0  0  0  0 
 10 29  1  0  0  0  0 
 11 30  1  0  0  0  0 
 15 31  1  0  0  0  0 
 16 32  1  0  0  0  0 
 18 33  1  0  0  0  0 
 19 34  1  0  0  0  0 
 22 35  1  0  0  0  0 
M  CHG  1  17   1
M  CHG  1  20  -1
M  END
> <cdk:Title>
nimetazepam

> <Conformer>
1

> <SuperDrugID>
SD001731

$$$$
