iomazenil (123I)
  CDK     0628171801

 36 38  0  0  0  0  0  0  0  0999 V2000
   -1.9004    0.9802   -0.4496 C   0  0  0  0  0  0  0  0  0  0  0  0
   -0.5502    0.8275   -0.5640 O   0  0  0  0  0  0  0  0  0  0  0  0
   -2.5952    0.0824    0.0792 O   0  0  0  0  0  0  0  0  0  0  0  0
   -2.4735    2.1578   -0.9665 C   0  0  0  0  0  0  0  0  0  0  0  0
    0.2239   -0.3135   -0.1788 C   0  0  1  0  0  0  0  0  0  0  0  0
   -3.7732    2.6691   -0.8499 C   0  0  0  0  0  0  0  0  0  0  0  0
   -1.7798    3.0048   -1.7419 N   0  0  0  0  0  0  0  0  0  0  0  0
    1.7151   -0.0197   -0.4258 C   0  0  0  0  0  0  0  0  0  0  0  0
   -3.8433    3.7951   -1.5927 N   0  0  0  0  0  0  0  0  0  0  0  0
   -4.9328    2.1431   -0.0953 C   0  0  1  0  0  0  0  0  0  0  0  0
   -2.6123    3.9860   -2.1124 C   0  0  0  0  0  0  0  0  0  0  0  0
   -4.9552    4.5962   -1.7658 C   0  0  0  0  0  0  0  0  0  0  0  0
   -5.9264    1.7244   -1.0577 N   0  0  0  0  0  0  0  0  0  0  0  0
   -6.2795    4.0625   -1.8790 C   0  0  0  0  0  0  0  0  0  0  0  0
   -4.7756    6.0013   -1.7954 C   0  0  0  0  0  0  0  0  0  0  0  0
   -6.2479    0.3133   -1.0932 C   0  0  0  0  0  0  0  0  0  0  0  0
   -6.5187    2.6496   -1.9152 C   0  0  0  0  0  0  0  0  0  0  0  0
   -7.3769    4.9651   -1.9600 C   0  0  0  0  0  0  0  0  0  0  0  0
   -5.8648    6.8731   -1.9234 C   0  0  0  0  0  0  0  0  0  0  0  0
   -7.2970    2.2425   -2.8135 O   0  0  0  0  0  0  0  0  0  0  0  0
   -9.3506    4.3722   -1.9470 I   0  0  0  0  0  0  0  0  0  0  0  0
   -7.1635    6.3533   -2.0015 C   0  0  0  0  0  0  0  0  0  0  0  0
    0.0712   -0.5322    0.8821 H   0  0  0  0  0  0  0  0  0  0  0  0
   -0.0843   -1.1802   -0.7712 H   0  0  0  0  0  0  0  0  0  0  0  0
    2.3122   -0.9026   -0.1907 H   0  0  0  0  0  0  0  0  0  0  0  0
    1.8821    0.2503   -1.4710 H   0  0  0  0  0  0  0  0  0  0  0  0
    2.0401    0.8072    0.2107 H   0  0  0  0  0  0  0  0  0  0  0  0
   -4.6338    1.3442    0.5832 H   0  0  0  0  0  0  0  0  0  0  0  0
   -5.3371    2.9309    0.5464 H   0  0  0  0  0  0  0  0  0  0  0  0
   -2.3330    4.7611   -2.7178 H   0  0  0  0  0  0  0  0  0  0  0  0
   -3.8429    6.4105   -1.7092 H   0  0  0  0  0  0  0  0  0  0  0  0
   -6.6564    0.0127   -0.1270 H   0  0  0  0  0  0  0  0  0  0  0  0
   -5.3444   -0.2716   -1.2873 H   0  0  0  0  0  0  0  0  0  0  0  0
   -6.9811    0.0472   -1.8539 H   0  0  0  0  0  0  0  0  0  0  0  0
   -5.7120    7.8852   -1.9469 H   0  0  0  0  0  0  0  0  0  0  0  0
   -7.9552    6.9926   -2.0802 H   0  0  0  0  0  0  0  0  0  0  0  0
  1  2  1  0  0  0  0 
  1  3  2  0  0  0  0 
  1  4  1  0  0  0  0 
  2  5  1  0  0  0  0 
  4  6  2  0  0  0  0 
  4  7  1  0  0  0  0 
  5  8  1  0  0  0  0 
  6  9  1  0  0  0  0 
  6 10  1  0  0  0  0 
  7 11  2  0  0  0  0 
  9 11  1  0  0  0  0 
  9 12  1  0  0  0  0 
 10 13  1  0  0  0  0 
 12 14  2  0  0  0  0 
 12 15  1  0  0  0  0 
 13 16  1  0  0  0  0 
 13 17  1  0  0  0  0 
 14 17  1  0  0  0  0 
 14 18  1  0  0  0  0 
 15 19  2  0  0  0  0 
 17 20  2  0  0  0  0 
 18 21  1  0  0  0  0 
 18 22  2  0  0  0  0 
 19 22  1  0  0  0  0 
  5 23  1  0  0  0  0 
  5 24  1  0  0  0  0 
  8 25  1  0  0  0  0 
  8 26  1  0  0  0  0 
  8 27  1  0  0  0  0 
 10 28  1  0  0  0  0 
 10 29  1  0  0  0  0 
 11 30  1  0  0  0  0 
 15 31  1  0  0  0  0 
 16 32  1  0  0  0  0 
 16 33  1  0  0  0  0 
 16 34  1  0  0  0  0 
 19 35  1  0  0  0  0 
 22 36  1  0  0  0  0 
M  ISO  1  21 123
M  END
> <cdk:Title>
iomazenil (123I)

> <Conformer>
1

> <SuperDrugID>
SD001294

$$$$
