diprafenone
  CDK     0628171802

 58 59  0  0  0  0  0  0  0  0999 V2000
   -4.4940   -4.8763   -5.2906 C   0  0  0  0  0  0  0  0  0  0  0  0
   -5.8138   -5.0566   -5.9647 C   0  0  2  0  0  0  0  0  0  0  0  0
   -3.8464   -3.8338   -5.5461 O   0  0  0  0  0  0  0  0  0  0  0  0
   -3.9122   -5.8487   -4.4102 C   0  0  0  0  0  0  0  0  0  0  0  0
   -6.4994   -3.7751   -6.5268 C   0  0  2  0  0  0  0  0  0  0  0  0
   -2.9718   -5.4725   -3.4078 C   0  0  0  0  0  0  0  0  0  0  0  0
   -4.2560   -7.2230   -4.5030 C   0  0  0  0  0  0  0  0  0  0  0  0
   -7.0491   -2.8856   -5.4661 C   0  0  0  0  0  0  0  0  0  0  0  0
   -2.6572   -4.1564   -3.1738 O   0  0  0  0  0  0  0  0  0  0  0  0
   -2.3602   -6.4464   -2.5871 C   0  0  0  0  0  0  0  0  0  0  0  0
   -3.6654   -8.1863   -3.6649 C   0  0  0  0  0  0  0  0  0  0  0  0
   -8.3287   -3.1364   -4.9132 C   0  0  0  0  0  0  0  0  0  0  0  0
   -6.3188   -1.7679   -4.9986 C   0  0  0  0  0  0  0  0  0  0  0  0
   -3.5027   -3.5930   -2.1488 C   0  0  1  0  0  0  0  0  0  0  0  0
   -2.7047   -7.8008   -2.7169 C   0  0  0  0  0  0  0  0  0  0  0  0
   -8.8687   -2.2840   -3.9325 C   0  0  0  0  0  0  0  0  0  0  0  0
   -6.8579   -0.9155   -4.0171 C   0  0  0  0  0  0  0  0  0  0  0  0
   -3.2122   -2.0863   -1.9610 C   0  0  1  0  0  0  0  0  0  0  0  0
   -8.1350   -1.1695   -3.4885 C   0  0  0  0  0  0  0  0  0  0  0  0
   -4.1272   -1.4850   -0.8641 C   0  0  1  0  0  0  0  0  0  0  0  0
   -1.8389   -1.9140   -1.6098 O   0  0  0  0  0  0  0  0  0  0  0  0
   -3.8414   -0.0444   -0.6544 N   0  0  1  0  0  0  0  0  0  0  0  0
   -4.5636    0.6954    0.4281 C   0  0  2  0  0  0  0  0  0  0  0  0
   -4.2566    0.1283    1.8628 C   0  0  1  0  0  0  0  0  0  0  0  0
   -6.1053    0.6754    0.1749 C   0  0  0  0  0  0  0  0  0  0  0  0
   -4.0861    2.1772    0.3077 C   0  0  0  0  0  0  0  0  0  0  0  0
   -2.7594    0.0038    2.2394 C   0  0  0  0  0  0  0  0  0  0  0  0
   -6.5069   -5.5336   -5.2688 H   0  0  0  0  0  0  0  0  0  0  0  0
   -5.6639   -5.7501   -6.7946 H   0  0  0  0  0  0  0  0  0  0  0  0
   -7.3163   -4.0804   -7.1861 H   0  0  0  0  0  0  0  0  0  0  0  0
   -5.7987   -3.2276   -7.1629 H   0  0  0  0  0  0  0  0  0  0  0  0
   -4.9392   -7.5483   -5.1889 H   0  0  0  0  0  0  0  0  0  0  0  0
   -1.6754   -6.1654   -1.8785 H   0  0  0  0  0  0  0  0  0  0  0  0
   -3.9352   -9.1697   -3.7436 H   0  0  0  0  0  0  0  0  0  0  0  0
   -8.8799   -3.9393   -5.2280 H   0  0  0  0  0  0  0  0  0  0  0  0
   -5.3887   -1.5635   -5.3704 H   0  0  0  0  0  0  0  0  0  0  0  0
   -4.5591   -3.7044   -2.4183 H   0  0  0  0  0  0  0  0  0  0  0  0
   -3.3281   -4.1070   -1.1967 H   0  0  0  0  0  0  0  0  0  0  0  0
   -2.2638   -8.5019   -2.1150 H   0  0  0  0  0  0  0  0  0  0  0  0
   -9.7957   -2.4728   -3.5449 H   0  0  0  0  0  0  0  0  0  0  0  0
   -6.3213   -0.1084   -3.6915 H   0  0  0  0  0  0  0  0  0  0  0  0
   -3.4023   -1.5697   -2.9066 H   0  0  0  0  0  0  0  0  0  0  0  0
   -8.5287   -0.5457   -2.7828 H   0  0  0  0  0  0  0  0  0  0  0  0
   -5.1677   -1.6062   -1.1757 H   0  0  0  0  0  0  0  0  0  0  0  0
   -3.9682   -2.0401    0.0634 H   0  0  0  0  0  0  0  0  0  0  0  0
   -1.7059   -0.9443   -1.5597 H   0  0  0  0  0  0  0  0  0  0  0  0
   -2.8418    0.0389   -0.4570 H   0  0  0  0  0  0  0  0  0  0  0  0
   -4.7369    0.7612    2.6151 H   0  0  0  0  0  0  0  0  0  0  0  0
   -4.7028   -0.8648    1.9650 H   0  0  0  0  0  0  0  0  0  0  0  0
   -6.5122   -0.3280    0.3070 H   0  0  0  0  0  0  0  0  0  0  0  0
   -6.3300    1.0041   -0.8423 H   0  0  0  0  0  0  0  0  0  0  0  0
   -6.6235    1.3361    0.8734 H   0  0  0  0  0  0  0  0  0  0  0  0
   -3.0005    2.2500    0.3944 H   0  0  0  0  0  0  0  0  0  0  0  0
   -4.3663    2.5958   -0.6628 H   0  0  0  0  0  0  0  0  0  0  0  0
   -4.5359    2.7951    1.0898 H   0  0  0  0  0  0  0  0  0  0  0  0
   -2.6705   -0.4551    3.2249 H   0  0  0  0  0  0  0  0  0  0  0  0
   -2.2232   -0.6198    1.5232 H   0  0  0  0  0  0  0  0  0  0  0  0
   -2.2849    0.9841    2.2809 H   0  0  0  0  0  0  0  0  0  0  0  0
  1  2  1  0  0  0  0 
  1  3  2  0  0  0  0 
  1  4  1  0  0  0  0 
  2  5  1  0  0  0  0 
  4  6  2  0  0  0  0 
  4  7  1  0  0  0  0 
  5  8  1  0  0  0  0 
  6  9  1  0  0  0  0 
  6 10  1  0  0  0  0 
  7 11  2  0  0  0  0 
  8 12  2  0  0  0  0 
  8 13  1  0  0  0  0 
  9 14  1  0  0  0  0 
 10 15  2  0  0  0  0 
 11 15  1  0  0  0  0 
 12 16  1  0  0  0  0 
 13 17  2  0  0  0  0 
 18 14  1  0  0  0  0 
 16 19  2  0  0  0  0 
 17 19  1  0  0  0  0 
 18 20  1  0  0  0  0 
 18 21  1  0  0  0  0 
 20 22  1  0  0  0  0 
 22 23  1  0  0  0  0 
 23 24  1  0  0  0  0 
 23 25  1  0  0  0  0 
 23 26  1  0  0  0  0 
 24 27  1  0  0  0  0 
 28  2  1  0  0  0  0 
 29  2  1  0  0  0  0 
 30  5  1  0  0  0  0 
 31  5  1  0  0  0  0 
 32  7  1  0  0  0  0 
 33 10  1  0  0  0  0 
 34 11  1  0  0  0  0 
 35 12  1  0  0  0  0 
 36 13  1  0  0  0  0 
 37 14  1  0  0  0  0 
 38 14  1  0  0  0  0 
 39 15  1  0  0  0  0 
 40 16  1  0  0  0  0 
 41 17  1  0  0  0  0 
 42 18  1  0  0  0  0 
 43 19  1  0  0  0  0 
 44 20  1  0  0  0  0 
 45 20  1  0  0  0  0 
 46 21  1  0  0  0  0 
 47 22  1  0  0  0  0 
 48 24  1  0  0  0  0 
 49 24  1  0  0  0  0 
 50 25  1  0  0  0  0 
 51 25  1  0  0  0  0 
 52 25  1  0  0  0  0 
 53 26  1  0  0  0  0 
 54 26  1  0  0  0  0 
 55 26  1  0  0  0  0 
 56 27  1  0  0  0  0 
 57 27  1  0  0  0  0 
 58 27  1  0  0  0  0 
M  END
> <cdk:Title>
diprafenone

> <Conformer>
1

> <SuperDrugID>
SD000820

$$$$
