pholedrine
  CDK     0628171801

 27 27  0  0  0  0  0  0  0  0999 V2000
    0.0664    2.1626   -1.5737 C   0  0  1  0  0  0  0  0  0  0  0  0
   -0.1290    3.6811   -1.2651 C   0  0  1  0  0  0  0  0  0  0  0  0
    1.4680    1.6771   -1.4278 C   0  0  0  0  0  0  0  0  0  0  0  0
    0.3133    4.0463    0.1086 N   0  0  2  0  0  0  0  0  0  0  0  0
    0.6129    4.5944   -2.2778 C   0  0  0  0  0  0  0  0  0  0  0  0
    1.9797    1.3098   -0.1609 C   0  0  0  0  0  0  0  0  0  0  0  0
    2.3170    1.5788   -2.5555 C   0  0  0  0  0  0  0  0  0  0  0  0
   -0.6359    3.7347    1.1979 C   0  0  0  0  0  0  0  0  0  0  0  0
    3.3123    0.8748   -0.0216 C   0  0  0  0  0  0  0  0  0  0  0  0
    3.6483    1.1452   -2.4167 C   0  0  0  0  0  0  0  0  0  0  0  0
    4.1507    0.8012   -1.1487 C   0  0  0  0  0  0  0  0  0  0  0  0
    5.4370    0.4006   -1.0156 O   0  0  0  0  0  0  0  0  0  0  0  0
   -0.5827    1.5730   -0.9229 H   0  0  0  0  0  0  0  0  0  0  0  0
   -0.2888    1.9674   -2.5892 H   0  0  0  0  0  0  0  0  0  0  0  0
   -1.1963    3.9090   -1.3749 H   0  0  0  0  0  0  0  0  0  0  0  0
    0.4409    5.0600    0.1258 H   0  0  0  0  0  0  0  0  0  0  0  0
    0.3461    5.6389   -2.1034 H   0  0  0  0  0  0  0  0  0  0  0  0
    1.6951    4.4958   -2.1734 H   0  0  0  0  0  0  0  0  0  0  0  0
    0.3332    4.3395   -3.3026 H   0  0  0  0  0  0  0  0  0  0  0  0
    1.3852    1.3579    0.6703 H   0  0  0  0  0  0  0  0  0  0  0  0
    1.9716    1.8313   -3.4849 H   0  0  0  0  0  0  0  0  0  0  0  0
   -0.2192    4.1026    2.1356 H   0  0  0  0  0  0  0  0  0  0  0  0
   -1.5949    4.2280    1.0305 H   0  0  0  0  0  0  0  0  0  0  0  0
   -0.7930    2.6595    1.2868 H   0  0  0  0  0  0  0  0  0  0  0  0
    3.6691    0.6119    0.8992 H   0  0  0  0  0  0  0  0  0  0  0  0
    4.2508    1.0813   -3.2407 H   0  0  0  0  0  0  0  0  0  0  0  0
    5.9167    1.2097   -0.7395 H   0  0  0  0  0  0  0  0  0  0  0  0
  2  1  1  0  0  0  0 
  1  3  1  0  0  0  0 
  2  4  1  0  0  0  0 
  2  5  1  0  0  0  0 
  3  6  2  0  0  0  0 
  3  7  1  0  0  0  0 
  4  8  1  0  0  0  0 
  6  9  1  0  0  0  0 
  7 10  2  0  0  0  0 
  9 11  2  0  0  0  0 
 10 11  1  0  0  0  0 
 11 12  1  0  0  0  0 
  1 13  1  0  0  0  0 
  1 14  1  0  0  0  0 
  2 15  1  0  0  0  0 
  4 16  1  0  0  0  0 
  5 17  1  0  0  0  0 
  5 18  1  0  0  0  0 
  5 19  1  0  0  0  0 
  6 20  1  0  0  0  0 
  7 21  1  0  0  0  0 
  8 22  1  0  0  0  0 
  8 23  1  0  0  0  0 
  8 24  1  0  0  0  0 
  9 25  1  0  0  0  0 
 10 26  1  0  0  0  0 
 12 27  1  0  0  0  0 
M  END
> <cdk:Title>
pholedrine

> <Conformer>
1

> <SuperDrugID>
SD002985

$$$$
