perflenapent
  CDK     0628171802

 17 16  0  0  0  0  0  0  0  0999 V2000
   -0.2756   -1.0179    0.6170 C   0  0  1  0  0  0  0  0  0  0  0  0
   -0.1216   -2.2279   -0.3772 C   0  0  2  0  0  0  0  0  0  0  0  0
   -0.4704    0.4024   -0.0317 C   0  0  2  0  0  0  0  0  0  0  0  0
   -1.3513   -1.2687    1.4408 F   0  0  0  0  0  0  0  0  0  0  0  0
    0.8404   -0.9760    1.4240 F   0  0  0  0  0  0  0  0  0  0  0  0
    0.0701   -3.6238    0.3058 C   0  0  1  0  0  0  0  0  0  0  0  0
    0.9567   -2.0199   -1.2114 F   0  0  0  0  0  0  0  0  0  0  0  0
   -1.2292   -2.3119   -1.1946 F   0  0  0  0  0  0  0  0  0  0  0  0
   -0.6199    1.5801    0.9893 C   0  0  2  0  0  0  0  0  0  0  0  0
   -1.5893    0.4045   -0.8378 F   0  0  0  0  0  0  0  0  0  0  0  0
    0.5966    0.6965   -0.8546 F   0  0  0  0  0  0  0  0  0  0  0  0
    1.2005   -3.6684    1.0856 F   0  0  0  0  0  0  0  0  0  0  0  0
   -0.9972   -3.9620    1.1024 F   0  0  0  0  0  0  0  0  0  0  0  0
    0.1969   -4.6266   -0.6274 F   0  0  0  0  0  0  0  0  0  0  0  0
    0.4870    1.7134    1.7925 F   0  0  0  0  0  0  0  0  0  0  0  0
   -1.7107    1.4198    1.8093 F   0  0  0  0  0  0  0  0  0  0  0  0
   -0.7857    2.7848    0.3461 F   0  0  0  0  0  0  0  0  0  0  0  0
  1  2  1  0  0  0  0 
  1  3  1  0  0  0  0 
  1  4  1  0  0  0  0 
  1  5  1  0  0  0  0 
  2  6  1  0  0  0  0 
  2  7  1  0  0  0  0 
  2  8  1  0  0  0  0 
  3  9  1  0  0  0  0 
  3 10  1  0  0  0  0 
  3 11  1  0  0  0  0 
  6 12  1  0  0  0  0 
  6 13  1  0  0  0  0 
  6 14  1  0  0  0  0 
  9 15  1  0  0  0  0 
  9 16  1  0  0  0  0 
  9 17  1  0  0  0  0 
M  END
> <cdk:Title>
perflenapent

> <Conformer>
1

> <SuperDrugID>
SD003715

$$$$
