promazine
  CDK     0628171801

 40 42  0  0  0  0  0  0  0  0999 V2000
   -1.5172   -1.3273    0.7913 C   0  0  0  0  0  0  0  0  0  0  0  0
   -0.0753   -0.9467    0.7579 N   0  0  2  0  0  0  0  0  0  0  0  0
    0.8109   -2.1344    0.9497 C   0  0  0  0  0  0  0  0  0  0  0  0
    0.2263    0.1825    1.6968 C   0  0  1  0  0  0  0  0  0  0  0  0
    1.5999    0.8683    1.4760 C   0  0  2  0  0  0  0  0  0  0  0  0
    1.8507    1.3751    0.0252 C   0  0  1  0  0  0  0  0  0  0  0  0
    0.8129    2.2285   -0.5562 N   0  0  0  0  0  0  0  0  0  0  0  0
    0.2839    1.9199   -1.8150 C   0  0  0  0  0  0  0  0  0  0  0  0
    1.1058    1.4729   -2.8833 C   0  0  0  0  0  0  0  0  0  0  0  0
    0.5639    1.1431   -4.1393 C   0  0  0  0  0  0  0  0  0  0  0  0
   -0.8168    1.2673   -4.3655 C   0  0  0  0  0  0  0  0  0  0  0  0
   -1.6523    1.7340   -3.3373 C   0  0  0  0  0  0  0  0  0  0  0  0
   -1.1040    2.0556   -2.0810 C   0  0  0  0  0  0  0  0  0  0  0  0
   -2.1635    2.6735   -0.8245 S   0  0  0  0  0  0  0  0  0  0  0  0
   -1.0676    3.6228    0.1681 C   0  0  0  0  0  0  0  0  0  0  0  0
    0.3211    3.3229    0.1608 C   0  0  0  0  0  0  0  0  0  0  0  0
    1.1689    4.1610    0.9309 C   0  0  0  0  0  0  0  0  0  0  0  0
    0.6497    5.2111    1.7116 C   0  0  0  0  0  0  0  0  0  0  0  0
   -0.7327    5.4563    1.7330 C   0  0  0  0  0  0  0  0  0  0  0  0
   -1.5922    4.6712    0.9493 C   0  0  0  0  0  0  0  0  0  0  0  0
   -2.1362   -0.4688    0.5271 H   0  0  0  0  0  0  0  0  0  0  0  0
   -1.7236   -2.1118    0.0615 H   0  0  0  0  0  0  0  0  0  0  0  0
   -1.8128   -1.6829    1.7831 H   0  0  0  0  0  0  0  0  0  0  0  0
    0.5282   -2.9477    0.2791 H   0  0  0  0  0  0  0  0  0  0  0  0
    1.8435   -1.8828    0.7122 H   0  0  0  0  0  0  0  0  0  0  0  0
    0.7664   -2.5002    1.9794 H   0  0  0  0  0  0  0  0  0  0  0  0
   -0.5342    0.9573    1.5948 H   0  0  0  0  0  0  0  0  0  0  0  0
    0.1750   -0.1672    2.7315 H   0  0  0  0  0  0  0  0  0  0  0  0
    2.3949    0.1662    1.7436 H   0  0  0  0  0  0  0  0  0  0  0  0
    1.6888    1.7014    2.1768 H   0  0  0  0  0  0  0  0  0  0  0  0
    2.8031    1.9100    0.0134 H   0  0  0  0  0  0  0  0  0  0  0  0
    2.0095    0.4730   -0.5724 H   0  0  0  0  0  0  0  0  0  0  0  0
    2.1166    1.3890   -2.7607 H   0  0  0  0  0  0  0  0  0  0  0  0
    1.1743    0.8132   -4.8890 H   0  0  0  0  0  0  0  0  0  0  0  0
   -1.2121    1.0233   -5.2775 H   0  0  0  0  0  0  0  0  0  0  0  0
   -2.6553    1.8413   -3.5132 H   0  0  0  0  0  0  0  0  0  0  0  0
    2.1783    4.0105    0.9366 H   0  0  0  0  0  0  0  0  0  0  0  0
    1.2774    5.7933    2.2688 H   0  0  0  0  0  0  0  0  0  0  0  0
   -1.1134    6.2055    2.3173 H   0  0  0  0  0  0  0  0  0  0  0  0
   -2.5970    4.8658    0.9543 H   0  0  0  0  0  0  0  0  0  0  0  0
  1  2  1  0  0  0  0 
  2  3  1  0  0  0  0 
  2  4  1  0  0  0  0 
  4  5  1  0  0  0  0 
  5  6  1  0  0  0  0 
  6  7  1  0  0  0  0 
  7  8  1  0  0  0  0 
  8  9  2  0  0  0  0 
  9 10  1  0  0  0  0 
 10 11  2  0  0  0  0 
 11 12  1  0  0  0  0 
 12 13  2  0  0  0  0 
  8 13  1  0  0  0  0 
 13 14  1  0  0  0  0 
 14 15  1  0  0  0  0 
 15 16  2  0  0  0  0 
  7 16  1  0  0  0  0 
 16 17  1  0  0  0  0 
 17 18  2  0  0  0  0 
 18 19  1  0  0  0  0 
 19 20  2  0  0  0  0 
 15 20  1  0  0  0  0 
  1 21  1  0  0  0  0 
  1 22  1  0  0  0  0 
  1 23  1  0  0  0  0 
  3 24  1  0  0  0  0 
  3 25  1  0  0  0  0 
  3 26  1  0  0  0  0 
  4 27  1  0  0  0  0 
  4 28  1  0  0  0  0 
  5 29  1  0  0  0  0 
  5 30  1  0  0  0  0 
  6 31  1  0  0  0  0 
  6 32  1  0  0  0  0 
  9 33  1  0  0  0  0 
 10 34  1  0  0  0  0 
 11 35  1  0  0  0  0 
 12 36  1  0  0  0  0 
 17 37  1  0  0  0  0 
 18 38  1  0  0  0  0 
 19 39  1  0  0  0  0 
 20 40  1  0  0  0  0 
M  END
> <cdk:Title>
promazine

> <Conformer>
1

> <SuperDrugID>
SD002050

$$$$
