estradiol cypionate
  CDK     0628171801

 65 69  0  0  0  0  0  0  0  0999 V2000
   -4.4079   -0.8900   -7.9960 C   0  0  0  0  0  0  0  0  0  0  0  0
   -4.1229    0.2688   -6.9696 C   0  0  2  0  0  0  0  0  0  0  0  0
   -3.3843   -0.1551   -5.6544 C   0  0  2  0  0  0  0  0  0  0  0  0
   -5.4845    0.7419   -6.3516 C   0  0  1  0  0  0  0  0  0  0  0  0
   -3.2405    1.3720   -7.6574 C   0  0  2  0  0  0  0  0  0  0  0  0
   -1.9459   -0.7106   -5.9231 C   0  0  1  0  0  0  0  0  0  0  0  0
   -4.4213   -0.9874   -4.8781 C   0  0  1  0  0  0  0  0  0  0  0  0
   -6.6440    0.7697   -7.2063 O   0  0  0  0  0  0  0  0  0  0  0  0
   -5.7483   -0.2447   -5.1726 C   0  0  2  0  0  0  0  0  0  0  0  0
   -1.7445    0.9525   -7.8381 C   0  0  2  0  0  0  0  0  0  0  0  0
   -1.0733    0.4651   -6.5061 C   0  0  2  0  0  0  0  0  0  0  0  0
   -1.2490   -1.3216   -4.6846 C   0  0  1  0  0  0  0  0  0  0  0  0
   -6.9204    1.6064   -8.2510 C   0  0  0  0  0  0  0  0  0  0  0  0
    0.3986    0.1535   -6.5928 C   0  0  0  0  0  0  0  0  0  0  0  0
    0.1431   -1.8845   -5.0729 C   0  0  2  0  0  0  0  0  0  0  0  0
   -8.2561    1.5394   -8.8792 C   0  0  2  0  0  0  0  0  0  0  0  0
   -6.0934    2.4614   -8.6420 O   0  0  0  0  0  0  0  0  0  0  0  0
    0.9532   -0.9961   -5.9545 C   0  0  0  0  0  0  0  0  0  0  0  0
    1.2909    1.0401   -7.2517 C   0  0  0  0  0  0  0  0  0  0  0  0
   -8.5326    0.2443   -9.7028 C   0  0  1  0  0  0  0  0  0  0  0  0
    2.3218   -1.3127   -6.1377 C   0  0  0  0  0  0  0  0  0  0  0  0
    2.6501    0.7221   -7.4178 C   0  0  0  0  0  0  0  0  0  0  0  0
   -9.9805   -0.3115   -9.5203 C   0  0  2  0  0  0  0  0  0  0  0  0
    3.1613   -0.4768   -6.8936 C   0  0  0  0  0  0  0  0  0  0  0  0
  -10.1848   -1.0815   -8.1950 C   0  0  2  0  0  0  0  0  0  0  0  0
  -10.4164   -1.3386  -10.5921 C   0  0  1  0  0  0  0  0  0  0  0  0
    4.4547   -0.8312   -7.1010 O   0  0  0  0  0  0  0  0  0  0  0  0
  -11.4663   -1.9064   -8.4068 C   0  0  1  0  0  0  0  0  0  0  0  0
  -11.4264   -2.2869   -9.9032 C   0  0  2  0  0  0  0  0  0  0  0  0
   -2.0063   -1.5185   -6.6576 H   0  0  0  0  0  0  0  0  0  0  0  0
   -1.1198    1.3038   -5.8044 H   0  0  0  0  0  0  0  0  0  0  0  0
   -3.2374    0.7363   -5.0247 H   0  0  0  0  0  0  0  0  0  0  0  0
   -3.4941   -1.3443   -8.3717 H   0  0  0  0  0  0  0  0  0  0  0  0
   -5.0199   -1.6811   -7.5613 H   0  0  0  0  0  0  0  0  0  0  0  0
   -4.9486   -0.5028   -8.8602 H   0  0  0  0  0  0  0  0  0  0  0  0
   -5.3757    1.7477   -5.9277 H   0  0  0  0  0  0  0  0  0  0  0  0
   -3.2606    2.2852   -7.0572 H   0  0  0  0  0  0  0  0  0  0  0  0
   -3.6449    1.6292   -8.6384 H   0  0  0  0  0  0  0  0  0  0  0  0
   -4.4574   -2.0148   -5.2464 H   0  0  0  0  0  0  0  0  0  0  0  0
   -4.2001   -1.0071   -3.8070 H   0  0  0  0  0  0  0  0  0  0  0  0
   -6.5259   -0.9703   -5.4231 H   0  0  0  0  0  0  0  0  0  0  0  0
   -6.0792    0.3061   -4.2885 H   0  0  0  0  0  0  0  0  0  0  0  0
   -1.2166    1.8188   -8.2388 H   0  0  0  0  0  0  0  0  0  0  0  0
   -1.6692    0.1613   -8.5865 H   0  0  0  0  0  0  0  0  0  0  0  0
   -1.1432   -0.5569   -3.9112 H   0  0  0  0  0  0  0  0  0  0  0  0
   -1.8508   -2.1365   -4.2747 H   0  0  0  0  0  0  0  0  0  0  0  0
    0.0194   -2.8482   -5.5756 H   0  0  0  0  0  0  0  0  0  0  0  0
    0.6852   -2.0640   -4.1407 H   0  0  0  0  0  0  0  0  0  0  0  0
   -8.3908    2.3999   -9.5412 H   0  0  0  0  0  0  0  0  0  0  0  0
   -8.9869    1.6519   -8.0741 H   0  0  0  0  0  0  0  0  0  0  0  0
    0.9675    1.9347   -7.6239 H   0  0  0  0  0  0  0  0  0  0  0  0
   -8.3746    0.4713  -10.7622 H   0  0  0  0  0  0  0  0  0  0  0  0
   -7.8171   -0.5402   -9.4447 H   0  0  0  0  0  0  0  0  0  0  0  0
    2.7207   -2.1566   -5.7146 H   0  0  0  0  0  0  0  0  0  0  0  0
    3.2633    1.3661   -7.9250 H   0  0  0  0  0  0  0  0  0  0  0  0
  -10.6894    0.5247   -9.5538 H   0  0  0  0  0  0  0  0  0  0  0  0
  -10.2877   -0.4071   -7.3422 H   0  0  0  0  0  0  0  0  0  0  0  0
   -9.3425   -1.7550   -8.0078 H   0  0  0  0  0  0  0  0  0  0  0  0
  -10.8722   -0.8359  -11.4496 H   0  0  0  0  0  0  0  0  0  0  0  0
   -9.5570   -1.9131  -10.9487 H   0  0  0  0  0  0  0  0  0  0  0  0
    4.7071   -0.4136   -7.9510 H   0  0  0  0  0  0  0  0  0  0  0  0
  -11.4057   -2.8492   -7.7768 H   0  0  0  0  0  0  0  0  0  0  0  0
  -12.3526   -1.2142   -8.2395 H   0  0  0  0  0  0  0  0  0  0  0  0
  -11.1046   -3.3254  -10.0236 H   0  0  0  0  0  0  0  0  0  0  0  0
  -12.4221   -2.1898  -10.3440 H   0  0  0  0  0  0  0  0  0  0  0  0
  2  1  1  0  0  0  0 
  3  2  1  0  0  0  0 
  2  4  1  0  0  0  0 
  2  5  1  0  0  0  0 
  6  3  1  0  0  0  0 
  3  7  1  0  0  0  0 
  3 32  1  0  0  0  0 
  4  8  1  0  0  0  0 
  4  9  1  0  0  0  0 
  5 10  1  0  0  0  0 
 11  6  1  0  0  0  0 
  6 12  1  0  0  0  0 
  6 30  1  0  0  0  0 
  7  9  1  0  0  0  0 
  8 13  1  0  0  0  0 
 11 10  1  0  0  0  0 
 11 14  1  0  0  0  0 
 11 31  1  0  0  0  0 
 12 15  1  0  0  0  0 
 13 16  1  0  0  0  0 
 13 17  2  0  0  0  0 
 14 18  2  0  0  0  0 
 14 19  1  0  0  0  0 
 15 18  1  0  0  0  0 
 16 20  1  0  0  0  0 
 18 21  1  0  0  0  0 
 19 22  2  0  0  0  0 
 20 23  1  0  0  0  0 
 21 24  2  0  0  0  0 
 22 24  1  0  0  0  0 
 23 25  1  0  0  0  0 
 23 26  1  0  0  0  0 
 24 27  1  0  0  0  0 
 25 28  1  0  0  0  0 
 26 29  1  0  0  0  0 
 28 29  1  0  0  0  0 
  1 33  1  0  0  0  0 
  1 34  1  0  0  0  0 
  1 35  1  0  0  0  0 
  4 36  1  0  0  0  0 
  5 37  1  0  0  0  0 
  5 38  1  0  0  0  0 
  7 39  1  0  0  0  0 
  7 40  1  0  0  0  0 
  9 41  1  0  0  0  0 
  9 42  1  0  0  0  0 
 10 43  1  0  0  0  0 
 10 44  1  0  0  0  0 
 12 45  1  0  0  0  0 
 12 46  1  0  0  0  0 
 15 47  1  0  0  0  0 
 15 48  1  0  0  0  0 
 16 49  1  0  0  0  0 
 16 50  1  0  0  0  0 
 19 51  1  0  0  0  0 
 20 52  1  0  0  0  0 
 20 53  1  0  0  0  0 
 21 54  1  0  0  0  0 
 22 55  1  0  0  0  0 
 23 56  1  0  0  0  0 
 25 57  1  0  0  0  0 
 25 58  1  0  0  0  0 
 26 59  1  0  0  0  0 
 26 60  1  0  0  0  0 
 27 61  1  0  0  0  0 
 28 62  1  0  0  0  0 
 28 63  1  0  0  0  0 
 29 64  1  0  0  0  0 
 29 65  1  0  0  0  0 
M  END
> <cdk:Title>
estradiol cypionate

> <Conformer>
1

> <SuperDrugID>
SD000944

$$$$
