oleandomycin
  CDK     0628171801

109112  0  0  0  0  0  0  0  0999 V2000
    9.3682    3.8302   -3.1472 O   0  0  0  0  0  0  0  0  0  0  0  0
    8.9950    3.2437   -4.2512 C   0  0  0  0  0  0  0  0  0  0  0  0
    7.5250    3.3818   -4.7405 C   0  0  1  0  0  0  0  0  0  0  0  0
   10.0328    2.4545   -5.1096 C   0  0  2  0  0  0  0  0  0  0  0  0
    7.2312    4.8385   -5.0895 C   0  0  1  0  0  0  0  0  0  0  0  0
    7.2429    3.8158   -6.0840 O   0  0  0  0  0  0  0  0  0  0  0  0
    6.3416    2.7352   -3.9440 C   0  0  1  0  0  0  0  0  0  0  0  0
    9.6460    2.1799   -6.5859 C   0  0  0  0  0  0  0  0  0  0  0  0
   10.7648    1.2301   -4.4092 C   0  0  1  0  0  0  0  0  0  0  0  0
    6.6489    1.3003   -3.3991 C   0  0  2  0  0  0  0  0  0  0  0  0
   11.0590    1.6474   -3.0737 O   0  0  0  0  0  0  0  0  0  0  0  0
   10.1300   -0.2261   -4.4664 C   0  0  1  0  0  0  0  0  0  0  0  0
    5.9662    0.2165   -4.2879 C   0  0  0  0  0  0  0  0  0  0  0  0
    6.4901    1.0222   -1.8622 C   0  0  2  0  0  0  0  0  0  0  0  0
   10.4892   -1.0063   -5.7764 C   0  0  0  0  0  0  0  0  0  0  0  0
   10.3758   -1.1591   -3.2143 C   0  0  1  0  0  0  0  0  0  0  0  0
    5.1222    1.1749   -1.3951 O   0  0  0  0  0  0  0  0  0  0  0  0
    7.5328    1.7313   -0.8997 C   0  0  1  0  0  0  0  0  0  0  0  0
   11.8452   -1.6393   -3.0508 C   0  0  0  0  0  0  0  0  0  0  0  0
    9.9896   -0.5467   -1.9639 O   0  0  0  0  0  0  0  0  0  0  0  0
    4.4500   -0.0411   -0.9658 C   0  0  1  0  0  0  0  0  0  0  0  0
    7.2050    3.2326   -0.6180 C   0  0  0  0  0  0  0  0  0  0  0  0
    7.8135    0.8841    0.4110 C   0  0  2  0  0  0  0  0  0  0  0  0
    9.0582   -0.9469   -1.0330 C   0  0  0  0  0  0  0  0  0  0  0  0
    3.3225    0.2921    0.0395 C   0  0  2  0  0  0  0  0  0  0  0  0
    3.8914   -0.7202   -2.1115 O   0  0  0  0  0  0  0  0  0  0  0  0
    8.2941    1.7256    1.4935 O   0  0  0  0  0  0  0  0  0  0  0  0
    8.9608   -0.1940    0.2558 C   0  0  2  0  0  0  0  0  0  0  0  0
    8.3208   -1.9374   -1.2556 O   0  0  0  0  0  0  0  0  0  0  0  0
    3.8964    0.9201    1.1766 O   0  0  0  0  0  0  0  0  0  0  0  0
    2.5914   -1.0181    0.4687 C   0  0  1  0  0  0  0  0  0  0  0  0
    3.2488   -1.9816   -1.8110 C   0  0  1  0  0  0  0  0  0  0  0  0
    7.4549    2.0808    2.6174 C   0  0  1  0  0  0  0  0  0  0  0  0
    8.9530   -1.1861    1.4574 C   0  0  0  0  0  0  0  0  0  0  0  0
    1.5476   -0.7782    1.5267 N   0  0  2  0  0  0  0  0  0  0  0  0
    2.0908   -1.7856   -0.7896 C   0  0  2  0  0  0  0  0  0  0  0  0
    2.7294   -2.5916   -3.1311 C   0  0  0  0  0  0  0  0  0  0  0  0
    8.3199    3.0744    3.4475 C   0  0  1  0  0  0  0  0  0  0  0  0
    6.2013    2.6748    2.1992 O   0  0  0  0  0  0  0  0  0  0  0  0
    1.2993   -1.9485    2.4212 C   0  0  0  0  0  0  0  0  0  0  0  0
    0.2898   -0.0917    1.1085 C   0  0  0  0  0  0  0  0  0  0  0  0
    7.5310    3.7969    4.5716 C   0  0  2  0  0  0  0  0  0  0  0  0
    5.3920    3.3242    3.2125 C   0  0  2  0  0  0  0  0  0  0  0  0
    7.3008    2.8442    5.6340 O   0  0  0  0  0  0  0  0  0  0  0  0
    6.2186    4.3944    3.9887 C   0  0  2  0  0  0  0  0  0  0  0  0
    4.6339    2.3267    4.1324 C   0  0  0  0  0  0  0  0  0  0  0  0
    7.0388    3.3848    6.9409 C   0  0  0  0  0  0  0  0  0  0  0  0
    6.5430    5.4756    3.1116 O   0  0  0  0  0  0  0  0  0  0  0  0
    5.1528   -0.7094   -0.4508 H   0  0  0  0  0  0  0  0  0  0  0  0
    7.2595    1.1819    3.2065 H   0  0  0  0  0  0  0  0  0  0  0  0
   10.8295    3.2030   -5.2080 H   0  0  0  0  0  0  0  0  0  0  0  0
    6.2277    5.2407   -4.9328 H   0  0  0  0  0  0  0  0  0  0  0  0
    8.0577    5.5409   -5.2081 H   0  0  0  0  0  0  0  0  0  0  0  0
    6.0331    3.3930   -3.1365 H   0  0  0  0  0  0  0  0  0  0  0  0
    5.4679    2.7022   -4.6030 H   0  0  0  0  0  0  0  0  0  0  0  0
   10.4925    1.7392   -7.1150 H   0  0  0  0  0  0  0  0  0  0  0  0
    8.7870    1.5083   -6.6431 H   0  0  0  0  0  0  0  0  0  0  0  0
    9.4067    3.1111   -7.1017 H   0  0  0  0  0  0  0  0  0  0  0  0
   11.7502    1.1497   -4.8813 H   0  0  0  0  0  0  0  0  0  0  0  0
    7.7023    1.1395   -3.5417 H   0  0  0  0  0  0  0  0  0  0  0  0
   11.7398    1.0291   -2.7396 H   0  0  0  0  0  0  0  0  0  0  0  0
    9.0568   -0.1174   -4.5290 H   0  0  0  0  0  0  0  0  0  0  0  0
    4.8809    0.3238   -4.2494 H   0  0  0  0  0  0  0  0  0  0  0  0
    6.2874    0.3226   -5.3276 H   0  0  0  0  0  0  0  0  0  0  0  0
    6.2329   -0.7904   -3.9563 H   0  0  0  0  0  0  0  0  0  0  0  0
    6.7615   -0.0291   -1.8086 H   0  0  0  0  0  0  0  0  0  0  0  0
   10.0850   -2.0213   -5.7498 H   0  0  0  0  0  0  0  0  0  0  0  0
   11.5693   -1.0757   -5.9121 H   0  0  0  0  0  0  0  0  0  0  0  0
   10.0675   -0.5315   -6.6590 H   0  0  0  0  0  0  0  0  0  0  0  0
    9.7743   -2.0649   -3.3490 H   0  0  0  0  0  0  0  0  0  0  0  0
    8.4891    1.7716   -1.4258 H   0  0  0  0  0  0  0  0  0  0  0  0
   11.9611   -2.1862   -2.1131 H   0  0  0  0  0  0  0  0  0  0  0  0
   12.5412   -0.8002   -3.0450 H   0  0  0  0  0  0  0  0  0  0  0  0
   12.1230   -2.3181   -3.8583 H   0  0  0  0  0  0  0  0  0  0  0  0
    6.1747    3.3613   -0.2864 H   0  0  0  0  0  0  0  0  0  0  0  0
    7.3683    3.8453   -1.4980 H   0  0  0  0  0  0  0  0  0  0  0  0
    7.8715    3.6573    0.1331 H   0  0  0  0  0  0  0  0  0  0  0  0
    6.8948    0.3806    0.7192 H   0  0  0  0  0  0  0  0  0  0  0  0
    2.6298    0.9931   -0.4285 H   0  0  0  0  0  0  0  0  0  0  0  0
    9.9073    0.3546    0.3266 H   0  0  0  0  0  0  0  0  0  0  0  0
    3.1353    1.1103    1.7630 H   0  0  0  0  0  0  0  0  0  0  0  0
    3.3681   -1.6456    0.9228 H   0  0  0  0  0  0  0  0  0  0  0  0
    3.9865   -2.6775   -1.3926 H   0  0  0  0  0  0  0  0  0  0  0  0
    8.0236   -1.7611    1.4710 H   0  0  0  0  0  0  0  0  0  0  0  0
    9.0370   -0.6470    2.4031 H   0  0  0  0  0  0  0  0  0  0  0  0
    9.7929   -1.8820    1.3933 H   0  0  0  0  0  0  0  0  0  0  0  0
    1.2839   -1.2168   -1.2583 H   0  0  0  0  0  0  0  0  0  0  0  0
    1.6975   -2.7610   -0.4917 H   0  0  0  0  0  0  0  0  0  0  0  0
    2.2936   -3.5758   -2.9427 H   0  0  0  0  0  0  0  0  0  0  0  0
    3.5532   -2.6996   -3.8396 H   0  0  0  0  0  0  0  0  0  0  0  0
    1.9667   -1.9486   -3.5759 H   0  0  0  0  0  0  0  0  0  0  0  0
    9.1664    2.5389    3.8887 H   0  0  0  0  0  0  0  0  0  0  0  0
    8.7324    3.8339    2.7743 H   0  0  0  0  0  0  0  0  0  0  0  0
    2.2314   -2.2877    2.8797 H   0  0  0  0  0  0  0  0  0  0  0  0
    0.6225   -1.6810    3.2350 H   0  0  0  0  0  0  0  0  0  0  0  0
    0.8657   -2.7777    1.8589 H   0  0  0  0  0  0  0  0  0  0  0  0
    0.4936    0.7954    0.5074 H   0  0  0  0  0  0  0  0  0  0  0  0
   -0.2632    0.2392    1.9906 H   0  0  0  0  0  0  0  0  0  0  0  0
   -0.3469   -0.7648    0.5303 H   0  0  0  0  0  0  0  0  0  0  0  0
    8.1614    4.6147    4.9386 H   0  0  0  0  0  0  0  0  0  0  0  0
    4.6150    3.8635    2.6616 H   0  0  0  0  0  0  0  0  0  0  0  0
    5.6146    4.8258    4.7885 H   0  0  0  0  0  0  0  0  0  0  0  0
    5.3067    1.5865    4.5611 H   0  0  0  0  0  0  0  0  0  0  0  0
    4.1362    2.8598    4.9435 H   0  0  0  0  0  0  0  0  0  0  0  0
    3.8666    1.8001    3.5703 H   0  0  0  0  0  0  0  0  0  0  0  0
    6.8779    2.5479    7.6220 H   0  0  0  0  0  0  0  0  0  0  0  0
    6.1428    4.0096    6.9533 H   0  0  0  0  0  0  0  0  0  0  0  0
    7.8949    3.9609    7.2999 H   0  0  0  0  0  0  0  0  0  0  0  0
    5.6810    5.8829    2.8796 H   0  0  0  0  0  0  0  0  0  0  0  0
  1  2  2  0  0  0  0 
  3  2  1  0  0  0  0 
  4  2  1  0  0  0  0 
  3  5  1  0  0  0  0 
  3  6  1  0  0  0  0 
  3  7  1  0  0  0  0 
  4  8  1  0  0  0  0 
  9  4  1  0  0  0  0 
  5  6  1  0  0  0  0 
 10  7  1  0  0  0  0 
  9 11  1  0  0  0  0 
 12  9  1  0  0  0  0 
 10 13  1  0  0  0  0 
 14 10  1  0  0  0  0 
 12 15  1  0  0  0  0 
 16 12  1  0  0  0  0 
 14 17  1  0  0  0  0 
 14 18  1  0  0  0  0 
 16 19  1  0  0  0  0 
 16 20  1  0  0  0  0 
 21 17  1  0  0  0  0 
 18 22  1  0  0  0  0 
 23 18  1  0  0  0  0 
 20 24  1  0  0  0  0 
 25 21  1  0  0  0  0 
 21 26  1  0  0  0  0 
 21 49  1  0  0  0  0 
 23 27  1  0  0  0  0 
 28 23  1  0  0  0  0 
 28 24  1  0  0  0  0 
 24 29  2  0  0  0  0 
 25 30  1  0  0  0  0 
 31 25  1  0  0  0  0 
 32 26  1  0  0  0  0 
 33 27  1  0  0  0  0 
 28 34  1  0  0  0  0 
 31 35  1  0  0  0  0 
 31 36  1  0  0  0  0 
 32 36  1  0  0  0  0 
 32 37  1  0  0  0  0 
 33 38  1  0  0  0  0 
 33 39  1  0  0  0  0 
 33 50  1  0  0  0  0 
 35 40  1  0  0  0  0 
 35 41  1  0  0  0  0 
 42 38  1  0  0  0  0 
 43 39  1  0  0  0  0 
 42 44  1  0  0  0  0 
 45 42  1  0  0  0  0 
 45 43  1  0  0  0  0 
 43 46  1  0  0  0  0 
 44 47  1  0  0  0  0 
 45 48  1  0  0  0  0 
  4 51  1  0  0  0  0 
  5 52  1  0  0  0  0 
  5 53  1  0  0  0  0 
  7 54  1  0  0  0  0 
  7 55  1  0  0  0  0 
  8 56  1  0  0  0  0 
  8 57  1  0  0  0  0 
  8 58  1  0  0  0  0 
  9 59  1  0  0  0  0 
 10 60  1  0  0  0  0 
 11 61  1  0  0  0  0 
 12 62  1  0  0  0  0 
 13 63  1  0  0  0  0 
 13 64  1  0  0  0  0 
 13 65  1  0  0  0  0 
 14 66  1  0  0  0  0 
 15 67  1  0  0  0  0 
 15 68  1  0  0  0  0 
 15 69  1  0  0  0  0 
 16 70  1  0  0  0  0 
 18 71  1  0  0  0  0 
 19 72  1  0  0  0  0 
 19 73  1  0  0  0  0 
 19 74  1  0  0  0  0 
 22 75  1  0  0  0  0 
 22 76  1  0  0  0  0 
 22 77  1  0  0  0  0 
 23 78  1  0  0  0  0 
 25 79  1  0  0  0  0 
 28 80  1  0  0  0  0 
 30 81  1  0  0  0  0 
 31 82  1  0  0  0  0 
 32 83  1  0  0  0  0 
 34 84  1  0  0  0  0 
 34 85  1  0  0  0  0 
 34 86  1  0  0  0  0 
 36 87  1  0  0  0  0 
 36 88  1  0  0  0  0 
 37 89  1  0  0  0  0 
 37 90  1  0  0  0  0 
 37 91  1  0  0  0  0 
 38 92  1  0  0  0  0 
 38 93  1  0  0  0  0 
 40 94  1  0  0  0  0 
 40 95  1  0  0  0  0 
 40 96  1  0  0  0  0 
 41 97  1  0  0  0  0 
 41 98  1  0  0  0  0 
 41 99  1  0  0  0  0 
 42100  1  0  0  0  0 
 43101  1  0  0  0  0 
 45102  1  0  0  0  0 
 46103  1  0  0  0  0 
 46104  1  0  0  0  0 
 46105  1  0  0  0  0 
 47106  1  0  0  0  0 
 47107  1  0  0  0  0 
 47108  1  0  0  0  0 
 48109  1  0  0  0  0 
M  END
> <cdk:Title>
oleandomycin

> <Conformer>
1

> <SuperDrugID>
SD001774

$$$$
