canrenone
  CDK     0628171802

 53 57  0  0  0  0  0  0  0  0999 V2000
   -5.9645   -2.4791    5.0036 C   0  0  0  0  0  0  0  0  0  0  0  0
   -4.4895   -2.0397    5.3772 C   0  0  1  0  0  0  0  0  0  0  0  0
   -4.1605   -2.4598    6.8671 C   0  0  2  0  0  0  0  0  0  0  0  0
   -3.3776   -2.8633    4.6445 C   0  0  1  0  0  0  0  0  0  0  0  0
   -4.3625   -0.5207    4.9778 C   0  0  2  0  0  0  0  0  0  0  0  0
   -3.9182   -4.0038    6.7418 C   0  0  2  0  0  0  0  0  0  0  0  0
   -5.2521   -2.1813    7.7489 O   0  0  0  0  0  0  0  0  0  0  0  0
   -2.9694   -1.7196    7.5851 C   0  0  1  0  0  0  0  0  0  0  0  0
   -3.4696   -4.2708    5.2797 C   0  0  2  0  0  0  0  0  0  0  0  0
   -3.4112   -2.6942    3.0908 C   0  0  1  0  0  0  0  0  0  0  0  0
   -4.2767   -0.2850    3.4320 C   0  0  2  0  0  0  0  0  0  0  0  0
   -4.9703   -1.2595    8.6857 C   0  0  0  0  0  0  0  0  0  0  0  0
   -3.6046   -0.7656    8.6131 C   0  0  2  0  0  0  0  0  0  0  0  0
   -3.1699   -1.1686    2.7626 C   0  0  2  0  0  0  0  0  0  0  0  0
   -2.4742   -3.5566    2.3743 C   0  0  0  0  0  0  0  0  0  0  0  0
   -5.8163   -0.8493    9.5097 O   0  0  0  0  0  0  0  0  0  0  0  0
   -2.8675   -0.9442    1.2213 C   0  0  2  0  0  0  0  0  0  0  0  0
   -1.7085   -3.1358    1.3512 C   0  0  0  0  0  0  0  0  0  0  0  0
   -4.0745   -1.3638    0.3102 C   0  0  0  0  0  0  0  0  0  0  0  0
   -1.7075   -1.8338    0.8895 C   0  0  0  0  0  0  0  0  0  0  0  0
   -2.5328    0.5805    0.9551 C   0  0  1  0  0  0  0  0  0  0  0  0
   -0.6454   -1.3947    0.1718 C   0  0  0  0  0  0  0  0  0  0  0  0
   -1.7194    0.7945   -0.3438 C   0  0  1  0  0  0  0  0  0  0  0  0
   -0.5508   -0.1086   -0.3354 C   0  0  0  0  0  0  0  0  0  0  0  0
    0.5398    0.3044   -0.7931 O   0  0  0  0  0  0  0  0  0  0  0  0
   -6.6886   -1.9590    5.6339 H   0  0  0  0  0  0  0  0  0  0  0  0
   -6.1335   -3.5471    5.1343 H   0  0  0  0  0  0  0  0  0  0  0  0
   -6.2207   -2.2476    3.9703 H   0  0  0  0  0  0  0  0  0  0  0  0
   -2.3916   -2.4864    4.9473 H   0  0  0  0  0  0  0  0  0  0  0  0
   -3.4678   -0.0765    5.4090 H   0  0  0  0  0  0  0  0  0  0  0  0
   -5.2081    0.0437    5.3811 H   0  0  0  0  0  0  0  0  0  0  0  0
   -4.8463   -4.5469    6.9456 H   0  0  0  0  0  0  0  0  0  0  0  0
   -3.1705   -4.3779    7.4450 H   0  0  0  0  0  0  0  0  0  0  0  0
   -2.3302   -2.4183    8.1273 H   0  0  0  0  0  0  0  0  0  0  0  0
   -2.3126   -1.1763    6.9094 H   0  0  0  0  0  0  0  0  0  0  0  0
   -2.5012   -4.7780    5.2486 H   0  0  0  0  0  0  0  0  0  0  0  0
   -4.2013   -4.8927    4.7579 H   0  0  0  0  0  0  0  0  0  0  0  0
   -4.4012   -2.9871    2.7352 H   0  0  0  0  0  0  0  0  0  0  0  0
   -4.0568    0.7732    3.2728 H   0  0  0  0  0  0  0  0  0  0  0  0
   -5.2414   -0.4794    2.9619 H   0  0  0  0  0  0  0  0  0  0  0  0
   -3.6053    0.2677    8.2627 H   0  0  0  0  0  0  0  0  0  0  0  0
   -3.1094   -0.8303    9.5846 H   0  0  0  0  0  0  0  0  0  0  0  0
   -2.2434   -0.8734    3.2744 H   0  0  0  0  0  0  0  0  0  0  0  0
   -2.4233   -4.5143    2.6359 H   0  0  0  0  0  0  0  0  0  0  0  0
   -1.1233   -3.8170    0.9174 H   0  0  0  0  0  0  0  0  0  0  0  0
   -3.8258   -1.2403   -0.7444 H   0  0  0  0  0  0  0  0  0  0  0  0
   -4.3490   -2.4095    0.4497 H   0  0  0  0  0  0  0  0  0  0  0  0
   -4.9546   -0.7570    0.5233 H   0  0  0  0  0  0  0  0  0  0  0  0
   -3.4468    1.1806    0.9013 H   0  0  0  0  0  0  0  0  0  0  0  0
   -1.9309    0.9831    1.7777 H   0  0  0  0  0  0  0  0  0  0  0  0
    0.1245   -2.0028    0.0014 H   0  0  0  0  0  0  0  0  0  0  0  0
   -2.3333    0.5627   -1.2159 H   0  0  0  0  0  0  0  0  0  0  0  0
   -1.4113    1.8422   -0.4225 H   0  0  0  0  0  0  0  0  0  0  0  0
  2  1  1  0  0  0  0 
  2  3  1  0  0  0  0 
  2  4  1  0  0  0  0 
  2  5  1  0  0  0  0 
  3  6  1  0  0  0  0 
  3  7  1  0  0  0  0 
  3  8  1  0  0  0  0 
  4  9  1  0  0  0  0 
  4 10  1  0  0  0  0 
  5 11  1  0  0  0  0 
  6  9  1  0  0  0  0 
  7 12  1  0  0  0  0 
  8 13  1  0  0  0  0 
 10 14  1  0  0  0  0 
 10 15  1  0  0  0  0 
 14 11  1  0  0  0  0 
 12 13  1  0  0  0  0 
 12 16  2  0  0  0  0 
 14 17  1  0  0  0  0 
 15 18  2  0  0  0  0 
 17 19  1  0  0  0  0 
 17 20  1  0  0  0  0 
 17 21  1  0  0  0  0 
 18 20  1  0  0  0  0 
 20 22  2  0  0  0  0 
 21 23  1  0  0  0  0 
 22 24  1  0  0  0  0 
 23 24  1  0  0  0  0 
 24 25  2  0  0  0  0 
 26  1  1  0  0  0  0 
 27  1  1  0  0  0  0 
 28  1  1  0  0  0  0 
  4 29  1  0  0  0  0 
 30  5  1  0  0  0  0 
 31  5  1  0  0  0  0 
 32  6  1  0  0  0  0 
 33  6  1  0  0  0  0 
 34  8  1  0  0  0  0 
 35  8  1  0  0  0  0 
 36  9  1  0  0  0  0 
 37  9  1  0  0  0  0 
 10 38  1  0  0  0  0 
 39 11  1  0  0  0  0 
 40 11  1  0  0  0  0 
 41 13  1  0  0  0  0 
 42 13  1  0  0  0  0 
 14 43  1  0  0  0  0 
 44 15  1  0  0  0  0 
 45 18  1  0  0  0  0 
 46 19  1  0  0  0  0 
 47 19  1  0  0  0  0 
 48 19  1  0  0  0  0 
 49 21  1  0  0  0  0 
 50 21  1  0  0  0  0 
 51 22  1  0  0  0  0 
 52 23  1  0  0  0  0 
 53 23  1  0  0  0  0 
M  END
> <cdk:Title>
canrenone

> <Conformer>
1

> <SuperDrugID>
SD000414

$$$$
