olprinone
  CDK     0628171801

 29 31  0  0  0  0  0  0  0  0999 V2000
   -2.3327   -0.6361    0.2659 C   0  0  0  0  0  0  0  0  0  0  0  0
   -1.0003   -0.8706    0.1104 N   0  0  0  0  0  0  0  0  0  0  0  0
   -0.0931    0.1125   -0.0767 C   0  0  0  0  0  0  0  0  0  0  0  0
   -0.4903    1.4567   -0.1348 C   0  0  0  0  0  0  0  0  0  0  0  0
   -1.8619    1.7410    0.0205 C   0  0  0  0  0  0  0  0  0  0  0  0
   -2.8034    0.7009    0.2319 C   0  0  0  0  0  0  0  0  0  0  0  0
    1.1482   -0.3912   -0.1914 N   0  0  0  0  0  0  0  0  0  0  0  0
    1.0132   -1.7232   -0.0815 C   0  0  0  0  0  0  0  0  0  0  0  0
   -0.3294   -2.0323    0.1103 C   0  0  0  0  0  0  0  0  0  0  0  0
   -4.1760    1.0050    0.4376 C   0  0  0  0  0  0  0  0  0  0  0  0
   -4.5468    1.6985    1.6141 C   0  0  0  0  0  0  0  0  0  0  0  0
   -5.8926    2.0439    1.8596 C   0  0  0  0  0  0  0  0  0  0  0  0
   -6.8667    1.6378    0.9213 C   0  0  0  0  0  0  0  0  0  0  0  0
   -6.4904    0.9686   -0.1982 N   0  0  0  0  0  0  0  0  0  0  0  0
   -5.1968    0.6593   -0.4905 C   0  0  0  0  0  0  0  0  0  0  0  0
   -8.0877    1.8781    1.0738 O   0  0  0  0  0  0  0  0  0  0  0  0
   -6.2119    2.7279    2.9263 C   0  0  0  0  0  0  0  0  0  0  0  0
   -6.4943    3.3350    3.8596 N   0  0  0  0  0  0  0  0  0  0  0  0
   -4.9260    0.0013   -1.7910 C   0  0  0  0  0  0  0  0  0  0  0  0
   -2.9782   -1.4181    0.4142 H   0  0  0  0  0  0  0  0  0  0  0  0
    0.1938    2.2022   -0.2824 H   0  0  0  0  0  0  0  0  0  0  0  0
   -2.1694    2.7161   -0.0218 H   0  0  0  0  0  0  0  0  0  0  0  0
    1.7788   -2.3974   -0.1376 H   0  0  0  0  0  0  0  0  0  0  0  0
   -0.7219   -2.9695    0.2239 H   0  0  0  0  0  0  0  0  0  0  0  0
   -3.8230    1.9528    2.2964 H   0  0  0  0  0  0  0  0  0  0  0  0
   -7.1787    0.7051   -0.8294 H   0  0  0  0  0  0  0  0  0  0  0  0
   -4.4630   -0.9710   -1.6326 H   0  0  0  0  0  0  0  0  0  0  0  0
   -5.8434   -0.1589   -2.3630 H   0  0  0  0  0  0  0  0  0  0  0  0
   -4.2540    0.6247   -2.3850 H   0  0  0  0  0  0  0  0  0  0  0  0
  1  2  1  0  0  0  0 
  2  3  1  0  0  0  0 
  3  4  1  0  0  0  0 
  4  5  2  0  0  0  0 
  5  6  1  0  0  0  0 
  1  6  2  0  0  0  0 
  7  8  1  0  0  0  0 
  8  9  2  0  0  0  0 
  2  9  1  0  0  0  0 
  3  7  2  0  0  0  0 
  6 10  1  0  0  0  0 
 11 12  2  0  0  0  0 
 12 13  1  0  0  0  0 
 13 14  1  0  0  0  0 
 14 15  1  0  0  0  0 
 10 11  1  0  0  0  0 
 10 15  2  0  0  0  0 
 13 16  2  0  0  0  0 
 12 17  1  0  0  0  0 
 17 18  3  0  0  0  0 
 15 19  1  0  0  0  0 
  1 20  1  0  0  0  0 
  4 21  1  0  0  0  0 
  5 22  1  0  0  0  0 
  8 23  1  0  0  0  0 
  9 24  1  0  0  0  0 
 11 25  1  0  0  0  0 
 14 26  1  0  0  0  0 
 19 27  1  0  0  0  0 
 19 28  1  0  0  0  0 
 19 29  1  0  0  0  0 
M  END
> <cdk:Title>
olprinone

> <Conformer>
1

> <SuperDrugID>
SD001777

$$$$
