methylthioninium chloride
  CDK     0628171801

 38 40  0  0  0  0  0  0  0  0999 V2000
    9.9808    1.6568    1.2887 N   0  0  0  0  0  0  0  0  0  0  0  0
   11.2137    1.0709    1.7836 C   0  0  0  0  0  0  0  0  0  0  0  0
   10.0583    2.9898    0.7211 C   0  0  0  0  0  0  0  0  0  0  0  0
    8.7574    0.9592    1.3456 C   0  0  0  0  0  0  0  0  0  0  0  0
    7.5051    1.5787    1.0582 C   0  0  0  0  0  0  0  0  0  0  0  0
    8.7037   -0.4207    1.6878 C   0  0  0  0  0  0  0  0  0  0  0  0
    6.2845    0.8685    1.0945 C   0  0  0  0  0  0  0  0  0  0  0  0
    7.4938   -1.1329    1.7415 C   0  0  0  0  0  0  0  0  0  0  0  0
    6.2784   -0.4981    1.4445 C   0  0  0  0  0  0  0  0  0  0  0  0
    4.7759    1.6746    0.7064 S   0  0  0  0  0  0  0  0  0  0  0  0
    5.1473   -1.2375    1.5169 N   0  0  0  0  0  0  0  0  0  0  0  0
    3.5229    0.4650    0.9042 C   0  0  0  0  0  0  0  0  0  0  0  0
    3.8716   -0.8513    1.2859 C   0  0  0  0  0  0  0  0  0  0  0  0
    2.1686    0.7994    0.6901 C   0  0  0  0  0  0  0  0  0  0  0  0
    2.8610   -1.8165    1.4467 C   0  0  0  0  0  0  0  0  0  0  0  0
    1.1507   -0.1682    0.8544 C   0  0  0  0  0  0  0  0  0  0  0  0
    1.5133   -1.4804    1.2337 C   0  0  0  0  0  0  0  0  0  0  0  0
   -0.1738    0.1456    0.6579 N   0  0  0  0  0  0  0  0  0  0  0  0
   -1.1230   -0.0098    1.7327 C   0  0  0  0  0  0  0  0  0  0  0  0
   -0.6495    0.6130   -0.6198 C   0  0  0  0  0  0  0  0  0  0  0  0
   12.0627    1.7566    1.7877 H   0  0  0  0  0  0  0  0  0  0  0  0
   11.4941    0.2209    1.1588 H   0  0  0  0  0  0  0  0  0  0  0  0
   11.0828    0.7334    2.8133 H   0  0  0  0  0  0  0  0  0  0  0  0
   11.0783    3.3546    0.5833 H   0  0  0  0  0  0  0  0  0  0  0  0
    9.5920    3.0071   -0.2666 H   0  0  0  0  0  0  0  0  0  0  0  0
    9.5461    3.6986    1.3756 H   0  0  0  0  0  0  0  0  0  0  0  0
    7.4634    2.5712    0.8161 H   0  0  0  0  0  0  0  0  0  0  0  0
    9.5504   -0.9469    1.9027 H   0  0  0  0  0  0  0  0  0  0  0  0
    7.5035   -2.1226    1.9992 H   0  0  0  0  0  0  0  0  0  0  0  0
    1.9193    1.7546    0.4204 H   0  0  0  0  0  0  0  0  0  0  0  0
    3.0983   -2.7721    1.7229 H   0  0  0  0  0  0  0  0  0  0  0  0
    0.7990   -2.2020    1.3601 H   0  0  0  0  0  0  0  0  0  0  0  0
   -1.7006    0.9070    1.8620 H   0  0  0  0  0  0  0  0  0  0  0  0
   -1.8096   -0.8269    1.5044 H   0  0  0  0  0  0  0  0  0  0  0  0
   -0.6410   -0.2287    2.6898 H   0  0  0  0  0  0  0  0  0  0  0  0
   -1.3905   -0.0840   -1.0170 H   0  0  0  0  0  0  0  0  0  0  0  0
    0.1478    0.7039   -1.3620 H   0  0  0  0  0  0  0  0  0  0  0  0
   -1.1177    1.5927   -0.5095 H   0  0  0  0  0  0  0  0  0  0  0  0
  1  2  1  0  0  0  0 
  1  3  1  0  0  0  0 
  1  4  1  0  0  0  0 
  4  5  1  0  0  0  0 
  4  6  2  0  0  0  0 
  5  7  2  0  0  0  0 
  6  8  1  0  0  0  0 
  7  9  1  0  0  0  0 
  7 10  1  0  0  0  0 
  8  9  2  0  0  0  0 
  9 11  1  0  0  0  0 
 10 12  2  0  0  0  0 
 11 13  2  0  0  0  0 
 12 13  1  0  0  0  0 
 12 14  1  0  0  0  0 
 13 15  1  0  0  0  0 
 14 16  2  0  0  0  0 
 15 17  2  0  0  0  0 
 16 17  1  0  0  0  0 
 16 18  1  0  0  0  0 
 18 19  1  0  0  0  0 
 18 20  1  0  0  0  0 
  2 21  1  0  0  0  0 
  2 22  1  0  0  0  0 
  2 23  1  0  0  0  0 
  3 24  1  0  0  0  0 
  3 25  1  0  0  0  0 
  3 26  1  0  0  0  0 
  5 27  1  0  0  0  0 
  6 28  1  0  0  0  0 
  8 29  1  0  0  0  0 
 14 30  1  0  0  0  0 
 15 31  1  0  0  0  0 
 17 32  1  0  0  0  0 
 19 33  1  0  0  0  0 
 19 34  1  0  0  0  0 
 19 35  1  0  0  0  0 
 20 36  1  0  0  0  0 
 20 37  1  0  0  0  0 
 20 38  1  0  0  0  0 
M  CHG  1  10   1
M  END
> <cdk:Title>
methylthioninium chloride

> <Conformer>
1

> <SuperDrugID>
SD001563

$$$$
