penbutolol
  CDK     0628171801

 50 51  0  0  0  0  0  0  0  0999 V2000
   -0.5599    1.6565   -3.5997 O   0  0  0  0  0  0  0  0  0  0  0  0
   -1.8973    1.7672   -4.1349 C   0  0  2  0  0  0  0  0  0  0  0  0
   -0.1283    0.3632   -3.4257 C   0  0  0  0  0  0  0  0  0  0  0  0
   -2.3543    3.2511   -4.1768 C   0  0  2  0  0  0  0  0  0  0  0  0
    0.7288   -0.2829   -4.3619 C   0  0  0  0  0  0  0  0  0  0  0  0
   -0.5077   -0.3000   -2.2382 C   0  0  0  0  0  0  0  0  0  0  0  0
   -1.5926    4.1299   -5.2020 C   0  0  2  0  0  0  0  0  0  0  0  0
   -2.2574    3.8335   -2.8767 O   0  0  0  0  0  0  0  0  0  0  0  0
    1.1677   -1.5999   -4.0686 C   0  0  0  0  0  0  0  0  0  0  0  0
    1.1981    0.4132   -5.6068 C   0  0  2  0  0  0  0  0  0  0  0  0
   -0.0675   -1.6073   -1.9756 C   0  0  0  0  0  0  0  0  0  0  0  0
   -0.2309    4.4575   -4.7193 N   0  0  1  0  0  0  0  0  0  0  0  0
    0.7666   -2.2601   -2.8959 C   0  0  0  0  0  0  0  0  0  0  0  0
    0.6645    5.3303   -5.5366 C   0  0  2  0  0  0  0  0  0  0  0  0
    0.1215    6.7907   -5.6609 C   0  0  0  0  0  0  0  0  0  0  0  0
    0.9336    4.7243   -6.9496 C   0  0  0  0  0  0  0  0  0  0  0  0
    1.9974    5.3530   -4.7294 C   0  0  0  0  0  0  0  0  0  0  0  0
    1.0376   -0.3547   -6.9430 C   0  0  2  0  0  0  0  0  0  0  0  0
    1.9510    0.4076   -7.9238 C   0  0  1  0  0  0  0  0  0  0  0  0
    3.1164    0.9502   -7.0648 C   0  0  2  0  0  0  0  0  0  0  0  0
    2.7013    0.7778   -5.5845 C   0  0  2  0  0  0  0  0  0  0  0  0
   -2.6102    1.2195   -3.5090 H   0  0  0  0  0  0  0  0  0  0  0  0
   -1.9433    1.3455   -5.1449 H   0  0  0  0  0  0  0  0  0  0  0  0
   -3.4105    3.2671   -4.4591 H   0  0  0  0  0  0  0  0  0  0  0  0
   -1.1032    0.1736   -1.5549 H   0  0  0  0  0  0  0  0  0  0  0  0
   -2.1581    5.0527   -5.3507 H   0  0  0  0  0  0  0  0  0  0  0  0
   -1.5412    3.5998   -6.1548 H   0  0  0  0  0  0  0  0  0  0  0  0
   -2.8268    3.2785   -2.3055 H   0  0  0  0  0  0  0  0  0  0  0  0
    1.7949   -2.0952   -4.7029 H   0  0  0  0  0  0  0  0  0  0  0  0
    0.6504    1.3535   -5.7342 H   0  0  0  0  0  0  0  0  0  0  0  0
   -0.3509   -2.0821   -1.1139 H   0  0  0  0  0  0  0  0  0  0  0  0
   -0.3398    4.9147   -3.8099 H   0  0  0  0  0  0  0  0  0  0  0  0
    1.0885   -3.2118   -2.7068 H   0  0  0  0  0  0  0  0  0  0  0  0
    0.8648    7.4374   -6.1352 H   0  0  0  0  0  0  0  0  0  0  0  0
   -0.7861    6.8276   -6.2659 H   0  0  0  0  0  0  0  0  0  0  0  0
   -0.1078    7.2002   -4.6748 H   0  0  0  0  0  0  0  0  0  0  0  0
    1.2908    3.6966   -6.8593 H   0  0  0  0  0  0  0  0  0  0  0  0
    1.6921    5.3024   -7.4812 H   0  0  0  0  0  0  0  0  0  0  0  0
    0.0271    4.7217   -7.5594 H   0  0  0  0  0  0  0  0  0  0  0  0
    2.3993    4.3417   -4.6196 H   0  0  0  0  0  0  0  0  0  0  0  0
    1.8331    5.7639   -3.7295 H   0  0  0  0  0  0  0  0  0  0  0  0
    2.7463    5.9700   -5.2306 H   0  0  0  0  0  0  0  0  0  0  0  0
   -0.0030   -0.3662   -7.2822 H   0  0  0  0  0  0  0  0  0  0  0  0
    1.3931   -1.3862   -6.8686 H   0  0  0  0  0  0  0  0  0  0  0  0
    2.3124   -0.2508   -8.7182 H   0  0  0  0  0  0  0  0  0  0  0  0
    1.3994    1.2349   -8.3798 H   0  0  0  0  0  0  0  0  0  0  0  0
    3.2994    2.0028   -7.2937 H   0  0  0  0  0  0  0  0  0  0  0  0
    4.0332    0.3906   -7.2689 H   0  0  0  0  0  0  0  0  0  0  0  0
    3.2973   -0.0217   -5.1320 H   0  0  0  0  0  0  0  0  0  0  0  0
    2.8673    1.6948   -5.0114 H   0  0  0  0  0  0  0  0  0  0  0  0
  1  2  1  0  0  0  0 
  1  3  1  0  0  0  0 
  4  2  1  0  0  0  0 
  3  5  2  0  0  0  0 
  3  6  1  0  0  0  0 
  4  7  1  0  0  0  0 
  4  8  1  0  0  0  0 
  5  9  1  0  0  0  0 
  5 10  1  0  0  0  0 
  6 11  2  0  0  0  0 
  7 12  1  0  0  0  0 
  9 13  2  0  0  0  0 
 11 13  1  0  0  0  0 
 12 14  1  0  0  0  0 
 14 15  1  0  0  0  0 
 14 16  1  0  0  0  0 
 14 17  1  0  0  0  0 
 18 19  1  0  0  0  0 
 19 20  1  0  0  0  0 
 20 21  1  0  0  0  0 
 10 18  1  0  0  0  0 
 10 21  1  0  0  0  0 
  2 22  1  0  0  0  0 
  2 23  1  0  0  0  0 
  4 24  1  0  0  0  0 
  6 25  1  0  0  0  0 
  7 26  1  0  0  0  0 
  7 27  1  0  0  0  0 
  8 28  1  0  0  0  0 
  9 29  1  0  0  0  0 
 10 30  1  0  0  0  0 
 11 31  1  0  0  0  0 
 12 32  1  0  0  0  0 
 13 33  1  0  0  0  0 
 15 34  1  0  0  0  0 
 15 35  1  0  0  0  0 
 15 36  1  0  0  0  0 
 16 37  1  0  0  0  0 
 16 38  1  0  0  0  0 
 16 39  1  0  0  0  0 
 17 40  1  0  0  0  0 
 17 41  1  0  0  0  0 
 17 42  1  0  0  0  0 
 18 43  1  0  0  0  0 
 18 44  1  0  0  0  0 
 19 45  1  0  0  0  0 
 19 46  1  0  0  0  0 
 20 47  1  0  0  0  0 
 20 48  1  0  0  0  0 
 21 49  1  0  0  0  0 
 21 50  1  0  0  0  0 
M  END
> <cdk:Title>
penbutolol

> <Conformer>
1

> <SuperDrugID>
SD001863

$$$$
