methylephedrine
  CDK     0628171801

 30 30  0  0  0  0  0  0  0  0999 V2000
    0.4957   -0.1865   -1.1653 C   0  0  2  0  0  0  0  0  0  0  0  0
    1.9738    0.1525   -0.7586 C   0  0  1  0  0  0  0  0  0  0  0  0
   -0.4243    0.2393   -0.1578 O   0  0  0  0  0  0  0  0  0  0  0  0
    0.2355   -1.6344   -1.4233 C   0  0  0  0  0  0  0  0  0  0  0  0
    3.0281   -0.1460   -1.7987 N   0  0  2  0  0  0  0  0  0  0  0  0
    2.1044    1.6328   -0.2971 C   0  0  0  0  0  0  0  0  0  0  0  0
   -0.1004   -2.0942   -2.7207 C   0  0  0  0  0  0  0  0  0  0  0  0
    0.2973   -2.5838   -0.3728 C   0  0  0  0  0  0  0  0  0  0  0  0
    2.8416    0.4409   -3.1609 C   0  0  0  0  0  0  0  0  0  0  0  0
    3.5358   -1.5490   -1.8430 C   0  0  0  0  0  0  0  0  0  0  0  0
   -0.3636   -3.4558   -2.9595 C   0  0  0  0  0  0  0  0  0  0  0  0
    0.0274   -3.9454   -0.6096 C   0  0  0  0  0  0  0  0  0  0  0  0
   -0.3061   -4.3810   -1.9040 C   0  0  0  0  0  0  0  0  0  0  0  0
    0.2499    0.4105   -2.0470 H   0  0  0  0  0  0  0  0  0  0  0  0
    2.2088   -0.4294    0.1381 H   0  0  0  0  0  0  0  0  0  0  0  0
   -1.3139    0.0557   -0.5288 H   0  0  0  0  0  0  0  0  0  0  0  0
    3.1495    1.8883   -0.1108 H   0  0  0  0  0  0  0  0  0  0  0  0
    1.7094    2.3156   -1.0509 H   0  0  0  0  0  0  0  0  0  0  0  0
    1.5507    1.7951    0.6305 H   0  0  0  0  0  0  0  0  0  0  0  0
   -0.1508   -1.4417   -3.5056 H   0  0  0  0  0  0  0  0  0  0  0  0
    0.5305   -2.2885    0.5790 H   0  0  0  0  0  0  0  0  0  0  0  0
    2.6329    1.5085   -3.1066 H   0  0  0  0  0  0  0  0  0  0  0  0
    3.7476    0.3244   -3.7577 H   0  0  0  0  0  0  0  0  0  0  0  0
    2.0233   -0.0454   -3.6930 H   0  0  0  0  0  0  0  0  0  0  0  0
    3.6839   -1.9491   -0.8396 H   0  0  0  0  0  0  0  0  0  0  0  0
    4.5043   -1.5798   -2.3454 H   0  0  0  0  0  0  0  0  0  0  0  0
    2.8469   -2.2020   -2.3796 H   0  0  0  0  0  0  0  0  0  0  0  0
   -0.5940   -3.7737   -3.9028 H   0  0  0  0  0  0  0  0  0  0  0  0
    0.0667   -4.6184    0.1592 H   0  0  0  0  0  0  0  0  0  0  0  0
   -0.5078   -5.3691   -2.0767 H   0  0  0  0  0  0  0  0  0  0  0  0
  2  1  1  0  0  0  0 
  1  3  1  0  0  0  0 
  1  4  1  0  0  0  0 
  2  5  1  0  0  0  0 
  2  6  1  0  0  0  0 
  4  7  2  0  0  0  0 
  4  8  1  0  0  0  0 
  5  9  1  0  0  0  0 
  5 10  1  0  0  0  0 
  7 11  1  0  0  0  0 
  8 12  2  0  0  0  0 
 11 13  2  0  0  0  0 
 12 13  1  0  0  0  0 
  1 14  1  0  0  0  0 
  2 15  1  0  0  0  0 
  3 16  1  0  0  0  0 
  6 17  1  0  0  0  0 
  6 18  1  0  0  0  0 
  6 19  1  0  0  0  0 
  7 20  1  0  0  0  0 
  8 21  1  0  0  0  0 
  9 22  1  0  0  0  0 
  9 23  1  0  0  0  0 
  9 24  1  0  0  0  0 
 10 25  1  0  0  0  0 
 10 26  1  0  0  0  0 
 10 27  1  0  0  0  0 
 11 28  1  0  0  0  0 
 12 29  1  0  0  0  0 
 13 30  1  0  0  0  0 
M  END
> <cdk:Title>
methylephedrine

> <Conformer>
1

> <SuperDrugID>
SD002891

$$$$
