adenosine triphosphate
  CDK     0628171802

 47 49  0  0  0  0  0  0  0  0999 V2000
    2.2816   -1.0401   -0.7026 O   0  0  0  0  0  0  0  0  0  0  0  0
    3.5840   -1.4538   -0.2819 C   0  0  1  0  0  0  0  0  0  0  0  0
    4.1816   -2.4794   -1.2765 C   0  0  2  0  0  0  0  0  0  0  0  0
    4.5803   -0.2926   -0.3593 C   0  0  2  0  0  0  0  0  0  0  0  0
    5.0439   -3.4634   -0.6714 N   0  0  0  0  0  0  0  0  0  0  0  0
    4.8709   -1.7178   -2.2826 O   0  0  0  0  0  0  0  0  0  0  0  0
    3.9749    0.9622   -0.0453 O   0  0  0  0  0  0  0  0  0  0  0  0
    5.0813   -0.3756   -1.8202 C   0  0  2  0  0  0  0  0  0  0  0  0
    4.6740   -4.3981    0.2213 C   0  0  0  0  0  0  0  0  0  0  0  0
    6.3591   -3.6837   -0.9092 C   0  0  0  0  0  0  0  0  0  0  0  0
    6.5640    0.0340   -1.9885 C   0  0  1  0  0  0  0  0  0  0  0  0
    5.7893   -5.1767    0.5069 C   0  0  0  0  0  0  0  0  0  0  0  0
    3.4729   -4.6559    0.7970 N   0  0  0  0  0  0  0  0  0  0  0  0
    6.8345   -4.7227   -0.1956 N   0  0  0  0  0  0  0  0  0  0  0  0
    6.9364   -0.0487   -3.3779 O   0  0  0  0  0  0  0  0  0  0  0  0
    5.6589   -6.2504    1.4032 C   0  0  0  0  0  0  0  0  0  0  0  0
    3.3552   -5.6933    1.6709 C   0  0  0  0  0  0  0  0  0  0  0  0
    8.4681    0.2955   -3.6950 P   0  0  2  0  0  0  0  0  0  0  0  0
    6.6951   -7.0541    1.6974 N   0  0  0  0  0  0  0  0  0  0  0  0
    4.4363   -6.4726    1.9617 N   0  0  0  0  0  0  0  0  0  0  0  0
    8.8061    1.7210   -3.0573 O   0  0  0  0  0  0  0  0  0  0  0  0
    8.6311    0.3787   -5.1519 O   0  0  0  0  0  0  0  0  0  0  0  0
    9.3791   -0.8773   -3.1393 O   0  0  0  0  0  0  0  0  0  0  0  0
    9.9359    1.8058   -1.9342 P   0  0  2  0  0  0  0  0  0  0  0  0
    9.9535    3.2792   -1.3135 O   0  0  0  0  0  0  0  0  0  0  0  0
   11.2503    1.5466   -2.5357 O   0  0  0  0  0  0  0  0  0  0  0  0
    9.6886    0.7537   -0.7735 O   0  0  0  0  0  0  0  0  0  0  0  0
    8.5727    3.8683   -0.7669 P   0  0  2  0  0  0  0  0  0  0  0  0
    8.8257    5.1930   -0.1851 O   0  0  0  0  0  0  0  0  0  0  0  0
    7.9556    2.9286    0.3481 O   0  0  0  0  0  0  0  0  0  0  0  0
    7.5260    4.0270   -1.9474 O   0  0  0  0  0  0  0  0  0  0  0  0
    1.7228   -1.8436   -0.6308 H   0  0  0  0  0  0  0  0  0  0  0  0
    3.5131   -1.8358    0.7402 H   0  0  0  0  0  0  0  0  0  0  0  0
    3.3741   -3.0214   -1.7780 H   0  0  0  0  0  0  0  0  0  0  0  0
    5.3967   -0.4723    0.3477 H   0  0  0  0  0  0  0  0  0  0  0  0
    4.6850    1.6261   -0.1559 H   0  0  0  0  0  0  0  0  0  0  0  0
    4.4623    0.2741   -2.4465 H   0  0  0  0  0  0  0  0  0  0  0  0
    6.9353   -3.1495   -1.5611 H   0  0  0  0  0  0  0  0  0  0  0  0
    6.6683    1.0595   -1.6266 H   0  0  0  0  0  0  0  0  0  0  0  0
    7.1875   -0.6257   -1.3778 H   0  0  0  0  0  0  0  0  0  0  0  0
    2.4528   -5.8883    2.1048 H   0  0  0  0  0  0  0  0  0  0  0  0
    6.5719   -7.7957    2.3108 H   0  0  0  0  0  0  0  0  0  0  0  0
    7.5636   -6.9027    1.2898 H   0  0  0  0  0  0  0  0  0  0  0  0
    9.0908   -1.6736   -3.6325 H   0  0  0  0  0  0  0  0  0  0  0  0
    8.7798    0.9176   -0.4564 H   0  0  0  0  0  0  0  0  0  0  0  0
    7.6967    2.1139   -0.1259 H   0  0  0  0  0  0  0  0  0  0  0  0
    7.3152    3.1162   -2.2361 H   0  0  0  0  0  0  0  0  0  0  0  0
  2  1  1  0  0  0  0 
  2  3  1  0  0  0  0 
  4  2  1  0  0  0  0 
  3  5  1  0  0  0  0 
  3  6  1  0  0  0  0 
  4  7  1  0  0  0  0 
  8  4  1  0  0  0  0 
  5  9  1  0  0  0  0 
  5 10  1  0  0  0  0 
  8  6  1  0  0  0  0 
  8 11  1  0  0  0  0 
  9 12  1  0  0  0  0 
  9 13  2  0  0  0  0 
 10 14  2  0  0  0  0 
 11 15  1  0  0  0  0 
 12 14  1  0  0  0  0 
 12 16  2  0  0  0  0 
 13 17  1  0  0  0  0 
 15 18  1  0  0  0  0 
 16 19  1  0  0  0  0 
 16 20  1  0  0  0  0 
 17 20  2  0  0  0  0 
 18 21  1  0  0  0  0 
 18 22  2  0  0  0  0 
 18 23  1  0  0  0  0 
 21 24  1  0  0  0  0 
 24 25  1  0  0  0  0 
 24 26  2  0  0  0  0 
 24 27  1  0  0  0  0 
 25 28  1  0  0  0  0 
 28 29  2  0  0  0  0 
 28 30  1  0  0  0  0 
 28 31  1  0  0  0  0 
  1 32  1  0  0  0  0 
  2 33  1  0  0  0  0 
  3 34  1  0  0  0  0 
  4 35  1  0  0  0  0 
  7 36  1  0  0  0  0 
  8 37  1  0  0  0  0 
 10 38  1  0  0  0  0 
 11 39  1  0  0  0  0 
 11 40  1  0  0  0  0 
 17 41  1  0  0  0  0 
 19 42  1  0  0  0  0 
 19 43  1  0  0  0  0 
 23 44  1  0  0  0  0 
 27 45  1  0  0  0  0 
 30 46  1  0  0  0  0 
 31 47  1  0  0  0  0 
M  END
> <cdk:Title>
adenosine triphosphate

> <Conformer>
1

> <SuperDrugID>
SD000066

$$$$
