zileuton
  CDK     0628171801

 28 29  0  0  0  0  0  0  0  0999 V2000
   -0.0843    1.5672   -5.0184 C   0  0  2  0  0  0  0  0  0  0  0  0
   -1.4730    1.9132   -5.2509 N   0  0  0  0  0  0  0  0  0  0  0  0
    0.3836    0.2393   -5.6831 C   0  0  0  0  0  0  0  0  0  0  0  0
    0.1977    1.5170   -3.5620 C   0  0  0  0  0  0  0  0  0  0  0  0
   -1.9839    3.1579   -4.9697 C   0  0  0  0  0  0  0  0  0  0  0  0
   -2.2959    1.0093   -5.7284 O   0  0  0  0  0  0  0  0  0  0  0  0
    1.2307    2.1773   -2.8757 C   0  0  0  0  0  0  0  0  0  0  0  0
   -0.7181    0.6229   -2.3552 S   0  0  0  0  0  0  0  0  0  0  0  0
   -3.2890    3.4561   -5.1335 N   0  0  0  0  0  0  0  0  0  0  0  0
   -1.2614    4.0823   -4.5300 O   0  0  0  0  0  0  0  0  0  0  0  0
    1.2780    1.9526   -1.4842 C   0  0  0  0  0  0  0  0  0  0  0  0
    0.2648    1.1139   -0.9892 C   0  0  0  0  0  0  0  0  0  0  0  0
    2.2258    2.4836   -0.5853 C   0  0  0  0  0  0  0  0  0  0  0  0
    0.1498    0.7929    0.3733 C   0  0  0  0  0  0  0  0  0  0  0  0
    2.1398    2.1578    0.7854 C   0  0  0  0  0  0  0  0  0  0  0  0
    1.1052    1.3235    1.2630 C   0  0  0  0  0  0  0  0  0  0  0  0
    0.5290    2.3559   -5.4691 H   0  0  0  0  0  0  0  0  0  0  0  0
    1.4494    0.0708   -5.5042 H   0  0  0  0  0  0  0  0  0  0  0  0
    0.2297    0.2840   -6.7636 H   0  0  0  0  0  0  0  0  0  0  0  0
   -0.1692   -0.6172   -5.2916 H   0  0  0  0  0  0  0  0  0  0  0  0
   -2.6502    0.5497   -4.9391 H   0  0  0  0  0  0  0  0  0  0  0  0
    1.9076    2.7750   -3.3553 H   0  0  0  0  0  0  0  0  0  0  0  0
   -3.6113    4.3424   -4.9024 H   0  0  0  0  0  0  0  0  0  0  0  0
   -3.9121    2.7897   -5.4676 H   0  0  0  0  0  0  0  0  0  0  0  0
    2.9766    3.0919   -0.9192 H   0  0  0  0  0  0  0  0  0  0  0  0
   -0.6024    0.1884    0.7085 H   0  0  0  0  0  0  0  0  0  0  0  0
    2.8313    2.5296    1.4382 H   0  0  0  0  0  0  0  0  0  0  0  0
    1.0538    1.0981    2.2591 H   0  0  0  0  0  0  0  0  0  0  0  0
  1  2  1  0  0  0  0 
  1  3  1  0  0  0  0 
  1  4  1  0  0  0  0 
  2  5  1  0  0  0  0 
  2  6  1  0  0  0  0 
  4  7  2  0  0  0  0 
  4  8  1  0  0  0  0 
  5  9  1  0  0  0  0 
  5 10  2  0  0  0  0 
  7 11  1  0  0  0  0 
  8 12  1  0  0  0  0 
 11 12  1  0  0  0  0 
 11 13  2  0  0  0  0 
 12 14  2  0  0  0  0 
 13 15  1  0  0  0  0 
 14 16  1  0  0  0  0 
 15 16  2  0  0  0  0 
 17  1  1  0  0  0  0 
 18  3  1  0  0  0  0 
 19  3  1  0  0  0  0 
 20  3  1  0  0  0  0 
 21  6  1  0  0  0  0 
 22  7  1  0  0  0  0 
 23  9  1  0  0  0  0 
 24  9  1  0  0  0  0 
 25 13  1  0  0  0  0 
 26 14  1  0  0  0  0 
 27 15  1  0  0  0  0 
 28 16  1  0  0  0  0 
M  END
> <cdk:Title>
zileuton

> <Conformer>
1

> <SuperDrugID>
SD002579

$$$$
