chlorpropamide
  CDK     0628171802

 30 30  0  0  0  0  0  0  0  0999 V2000
   -0.2038    0.0666   -0.0068 S   0  0  1  0  0  0  0  0  0  0  0  0
   -0.6295   -1.1988    1.0730 N   0  0  0  0  0  0  0  0  0  0  0  0
    1.2879    0.5422    0.3514 O   0  0  0  0  0  0  0  0  0  0  0  0
   -0.1923   -0.5178   -1.5033 O   0  0  0  0  0  0  0  0  0  0  0  0
   -1.3215    1.4410    0.0525 C   0  0  0  0  0  0  0  0  0  0  0  0
    0.0259   -2.3854    1.1094 C   0  0  0  0  0  0  0  0  0  0  0  0
   -2.6845    1.2696    0.3749 C   0  0  0  0  0  0  0  0  0  0  0  0
   -0.8474    2.7272   -0.2799 C   0  0  0  0  0  0  0  0  0  0  0  0
   -0.4097   -3.3231    1.9884 N   0  0  0  0  0  0  0  0  0  0  0  0
    0.9977   -2.6211    0.3505 O   0  0  0  0  0  0  0  0  0  0  0  0
   -3.5639    2.3693    0.3472 C   0  0  0  0  0  0  0  0  0  0  0  0
   -1.7229    3.8271   -0.3077 C   0  0  0  0  0  0  0  0  0  0  0  0
    0.1504   -4.6297    2.1252 C   0  0  1  0  0  0  0  0  0  0  0  0
   -3.0853    3.6505    0.0056 C   0  0  0  0  0  0  0  0  0  0  0  0
   -0.6444   -5.4549    3.1638 C   0  0  1  0  0  0  0  0  0  0  0  0
   -4.1405    4.9746   -0.0291 Cl  0  0  0  0  0  0  0  0  0  0  0  0
   -0.0862   -6.8850    3.3384 C   0  0  0  0  0  0  0  0  0  0  0  0
   -1.3685   -1.0588    1.6863 H   0  0  0  0  0  0  0  0  0  0  0  0
   -3.0480    0.3467    0.6228 H   0  0  0  0  0  0  0  0  0  0  0  0
    0.1383    2.8706   -0.5123 H   0  0  0  0  0  0  0  0  0  0  0  0
   -1.1606   -3.0910    2.5584 H   0  0  0  0  0  0  0  0  0  0  0  0
   -4.5520    2.2326    0.5714 H   0  0  0  0  0  0  0  0  0  0  0  0
   -1.3618    4.7501   -0.5612 H   0  0  0  0  0  0  0  0  0  0  0  0
    0.1178   -5.1418    1.1577 H   0  0  0  0  0  0  0  0  0  0  0  0
    1.1935   -4.5465    2.4455 H   0  0  0  0  0  0  0  0  0  0  0  0
   -0.6101   -4.9456    4.1322 H   0  0  0  0  0  0  0  0  0  0  0  0
   -1.6910   -5.5214    2.8496 H   0  0  0  0  0  0  0  0  0  0  0  0
    0.9385   -6.8502    3.7181 H   0  0  0  0  0  0  0  0  0  0  0  0
   -0.0941   -7.4153    2.3823 H   0  0  0  0  0  0  0  0  0  0  0  0
   -0.7039   -7.4378    4.0504 H   0  0  0  0  0  0  0  0  0  0  0  0
  1  2  1  0  0  0  0 
  1  3  2  0  0  0  0 
  1  4  2  0  0  0  0 
  1  5  1  0  0  0  0 
  2  6  1  0  0  0  0 
  5  7  2  0  0  0  0 
  5  8  1  0  0  0  0 
  6  9  1  0  0  0  0 
  6 10  2  0  0  0  0 
  7 11  1  0  0  0  0 
  8 12  2  0  0  0  0 
  9 13  1  0  0  0  0 
 11 14  2  0  0  0  0 
 12 14  1  0  0  0  0 
 13 15  1  0  0  0  0 
 14 16  1  0  0  0  0 
 15 17  1  0  0  0  0 
  2 18  1  0  0  0  0 
  7 19  1  0  0  0  0 
  8 20  1  0  0  0  0 
  9 21  1  0  0  0  0 
 11 22  1  0  0  0  0 
 12 23  1  0  0  0  0 
 13 24  1  0  0  0  0 
 13 25  1  0  0  0  0 
 15 26  1  0  0  0  0 
 15 27  1  0  0  0  0 
 17 28  1  0  0  0  0 
 17 29  1  0  0  0  0 
 17 30  1  0  0  0  0 
M  END
> <cdk:Title>
chlorpropamide

> <Conformer>
1

> <SuperDrugID>
SD000543

$$$$
