adipic acid
  CDK     0628171801

 20 19  0  0  0  0  0  0  0  0999 V2000
    1.0268    1.6868    1.7260 O   0  0  0  0  0  0  0  0  0  0  0  0
    1.7496    0.5548    1.5480 C   0  0  0  0  0  0  0  0  0  0  0  0
    2.7150    0.3249    2.3114 O   0  0  0  0  0  0  0  0  0  0  0  0
    1.3996   -0.3823    0.4637 C   0  0  1  0  0  0  0  0  0  0  0  0
    0.0151   -1.0378    0.7046 C   0  0  1  0  0  0  0  0  0  0  0  0
   -0.4167   -1.9578   -0.4670 C   0  0  1  0  0  0  0  0  0  0  0  0
   -1.7879   -2.6359   -0.2048 C   0  0  2  0  0  0  0  0  0  0  0  0
   -2.2314   -3.4725   -1.3352 C   0  0  0  0  0  0  0  0  0  0  0  0
   -3.3711   -3.1766   -2.0020 O   0  0  0  0  0  0  0  0  0  0  0  0
   -1.5693   -4.4745   -1.6895 O   0  0  0  0  0  0  0  0  0  0  0  0
    1.2601    2.3192    2.4341 H   0  0  0  0  0  0  0  0  0  0  0  0
    1.3959    0.1674   -0.4808 H   0  0  0  0  0  0  0  0  0  0  0  0
    2.1590   -1.1675    0.3897 H   0  0  0  0  0  0  0  0  0  0  0  0
    0.0589   -1.6217    1.6276 H   0  0  0  0  0  0  0  0  0  0  0  0
   -0.7416   -0.2599    0.8404 H   0  0  0  0  0  0  0  0  0  0  0  0
   -0.4856   -1.3550   -1.3786 H   0  0  0  0  0  0  0  0  0  0  0  0
    0.3468   -2.7280   -0.6178 H   0  0  0  0  0  0  0  0  0  0  0  0
   -2.5375   -1.8636   -0.0122 H   0  0  0  0  0  0  0  0  0  0  0  0
   -1.7260   -3.2641    0.6865 H   0  0  0  0  0  0  0  0  0  0  0  0
   -3.6769   -3.7502   -2.7346 H   0  0  0  0  0  0  0  0  0  0  0  0
  1  2  1  0  0  0  0 
  2  3  2  0  0  0  0 
  2  4  1  0  0  0  0 
  4  5  1  0  0  0  0 
  5  6  1  0  0  0  0 
  6  7  1  0  0  0  0 
  7  8  1  0  0  0  0 
  8  9  1  0  0  0  0 
  8 10  2  0  0  0  0 
  1 11  1  0  0  0  0 
  4 12  1  0  0  0  0 
  4 13  1  0  0  0  0 
  5 14  1  0  0  0  0 
  5 15  1  0  0  0  0 
  6 16  1  0  0  0  0 
  6 17  1  0  0  0  0 
  7 18  1  0  0  0  0 
  7 19  1  0  0  0  0 
  9 20  1  0  0  0  0 
M  END
> <cdk:Title>
adipic acid

> <Conformer>
1

> <SuperDrugID>
SD002995

$$$$
