nifenalol
  CDK     0628171801

 32 32  0  0  0  0  0  0  0  0999 V2000
    0.2471   -0.4098   -1.9531 C   0  0  1  0  0  0  0  0  0  0  0  0
    0.5796   -0.7287   -3.4333 C   0  0  2  0  0  0  0  0  0  0  0  0
    1.4018    0.1279   -1.3077 O   0  0  0  0  0  0  0  0  0  0  0  0
   -0.9085    0.5260   -1.8212 C   0  0  0  0  0  0  0  0  0  0  0  0
   -0.6001   -1.2962   -4.1292 N   0  0  1  0  0  0  0  0  0  0  0  0
   -0.7412    1.9267   -1.8997 C   0  0  0  0  0  0  0  0  0  0  0  0
   -2.2164    0.0221   -1.6521 C   0  0  0  0  0  0  0  0  0  0  0  0
   -0.4480   -1.6457   -5.5645 C   0  0  1  0  0  0  0  0  0  0  0  0
   -1.8484    2.7915   -1.8306 C   0  0  0  0  0  0  0  0  0  0  0  0
   -3.3224    0.8864   -1.5961 C   0  0  0  0  0  0  0  0  0  0  0  0
   -1.7313   -2.3972   -5.9999 C   0  0  0  0  0  0  0  0  0  0  0  0
   -0.2110   -0.4020   -6.4659 C   0  0  0  0  0  0  0  0  0  0  0  0
   -3.1684    2.2949   -1.6789 C   0  0  0  0  0  0  0  0  0  0  0  0
   -4.2252    3.1274   -1.6082 N   0  0  0  0  0  0  0  0  0  0  0  0
   -5.3257    2.7492   -1.4886 O   0  0  0  0  0  0  0  0  0  0  0  0
   -4.1076    4.3944   -1.6526 O   0  0  0  0  0  0  0  0  0  0  0  0
    0.0254   -1.3526   -1.4427 H   0  0  0  0  0  0  0  0  0  0  0  0
    1.3941   -1.4556   -3.4624 H   0  0  0  0  0  0  0  0  0  0  0  0
    0.9134    0.1877   -3.9222 H   0  0  0  0  0  0  0  0  0  0  0  0
    2.1160   -0.5193   -1.4828 H   0  0  0  0  0  0  0  0  0  0  0  0
   -0.8188   -2.1683   -3.6420 H   0  0  0  0  0  0  0  0  0  0  0  0
    0.1908    2.3310   -2.0062 H   0  0  0  0  0  0  0  0  0  0  0  0
   -2.3743   -0.9848   -1.5763 H   0  0  0  0  0  0  0  0  0  0  0  0
    0.3962   -2.3331   -5.6783 H   0  0  0  0  0  0  0  0  0  0  0  0
   -1.6742    3.7964   -1.8930 H   0  0  0  0  0  0  0  0  0  0  0  0
   -4.2491    0.4699   -1.4924 H   0  0  0  0  0  0  0  0  0  0  0  0
   -1.6510   -2.7156   -7.0404 H   0  0  0  0  0  0  0  0  0  0  0  0
   -2.6076   -1.7537   -5.8968 H   0  0  0  0  0  0  0  0  0  0  0  0
   -1.8788   -3.2855   -5.3834 H   0  0  0  0  0  0  0  0  0  0  0  0
   -0.2237   -0.6877   -7.5193 H   0  0  0  0  0  0  0  0  0  0  0  0
    0.7636    0.0450   -6.2621 H   0  0  0  0  0  0  0  0  0  0  0  0
   -0.9870    0.3486   -6.2931 H   0  0  0  0  0  0  0  0  0  0  0  0
  1  2  1  0  0  0  0 
  1  3  1  0  0  0  0 
  1  4  1  0  0  0  0 
  2  5  1  0  0  0  0 
  4  6  2  0  0  0  0 
  4  7  1  0  0  0  0 
  5  8  1  0  0  0  0 
  6  9  1  0  0  0  0 
  7 10  2  0  0  0  0 
  8 11  1  0  0  0  0 
  8 12  1  0  0  0  0 
  9 13  2  0  0  0  0 
 10 13  1  0  0  0  0 
 13 14  1  0  0  0  0 
 14 15  2  0  0  0  0 
 14 16  1  0  0  0  0 
  1 17  1  0  0  0  0 
  2 18  1  0  0  0  0 
  2 19  1  0  0  0  0 
  3 20  1  0  0  0  0 
  5 21  1  0  0  0  0 
  6 22  1  0  0  0  0 
  7 23  1  0  0  0  0 
  8 24  1  0  0  0  0 
  9 25  1  0  0  0  0 
 10 26  1  0  0  0  0 
 11 27  1  0  0  0  0 
 11 28  1  0  0  0  0 
 11 29  1  0  0  0  0 
 12 30  1  0  0  0  0 
 12 31  1  0  0  0  0 
 12 32  1  0  0  0  0 
M  CHG  1  14   1
M  CHG  1  16  -1
M  END
> <cdk:Title>
nifenalol

> <Conformer>
1

> <SuperDrugID>
SD002910

$$$$
