norethynodrel
  CDK     0628171801

 48 51  0  0  0  0  0  0  0  0999 V2000
   -6.9247    0.5742   -2.9728 C   0  0  0  0  0  0  0  0  0  0  0  0
   -6.9254    1.1216   -1.4882 C   0  0  2  0  0  0  0  0  0  0  0  0
   -6.4050    0.1014   -0.4202 C   0  0  2  0  0  0  0  0  0  0  0  0
   -8.4236    1.2933   -1.0145 C   0  0  1  0  0  0  0  0  0  0  0  0
   -5.9875    2.3836   -1.4264 C   0  0  2  0  0  0  0  0  0  0  0  0
   -4.9249   -0.3651   -0.6488 C   0  0  1  0  0  0  0  0  0  0  0  0
   -7.5369   -0.9454   -0.3075 C   0  0  1  0  0  0  0  0  0  0  0  0
   -8.6111    2.1356    0.0673 C   0  0  0  0  0  0  0  0  0  0  0  0
   -9.2717    1.8226   -2.0400 O   0  0  0  0  0  0  0  0  0  0  0  0
   -8.8415   -0.1644   -0.6259 C   0  0  2  0  0  0  0  0  0  0  0  0
   -4.4765    2.0222   -1.5996 C   0  0  2  0  0  0  0  0  0  0  0  0
   -3.9812    0.8971   -0.6200 C   0  0  2  0  0  0  0  0  0  0  0  0
   -4.4465   -1.4649    0.3661 C   0  0  2  0  0  0  0  0  0  0  0  0
   -8.7990    2.8345    1.0175 C   0  0  0  0  0  0  0  0  0  0  0  0
   -2.5573    0.4738   -0.7003 C   0  0  0  0  0  0  0  0  0  0  0  0
   -3.0786   -1.1686    1.0444 C   0  0  1  0  0  0  0  0  0  0  0  0
   -2.1253   -0.5004    0.1512 C   0  0  0  0  0  0  0  0  0  0  0  0
   -1.6166    1.1325   -1.6281 C   0  0  2  0  0  0  0  0  0  0  0  0
   -0.7130   -0.9022    0.2676 C   0  0  1  0  0  0  0  0  0  0  0  0
   -0.2202    0.4728   -1.7763 C   0  0  2  0  0  0  0  0  0  0  0  0
    0.2203   -0.0284   -0.4683 C   0  0  0  0  0  0  0  0  0  0  0  0
    1.3153    0.3241    0.0277 O   0  0  0  0  0  0  0  0  0  0  0  0
   -4.8484   -0.8102   -1.6437 H   0  0  0  0  0  0  0  0  0  0  0  0
   -4.0787    1.3525    0.3746 H   0  0  0  0  0  0  0  0  0  0  0  0
   -6.3895    0.6041    0.5571 H   0  0  0  0  0  0  0  0  0  0  0  0
   -7.5656   -0.2993   -3.0908 H   0  0  0  0  0  0  0  0  0  0  0  0
   -7.2893    1.3386   -3.6595 H   0  0  0  0  0  0  0  0  0  0  0  0
   -5.9357    0.2926   -3.3242 H   0  0  0  0  0  0  0  0  0  0  0  0
   -6.0958    2.8951   -0.4658 H   0  0  0  0  0  0  0  0  0  0  0  0
   -6.2774    3.1035   -2.1970 H   0  0  0  0  0  0  0  0  0  0  0  0
   -7.3831   -1.7574   -1.0217 H   0  0  0  0  0  0  0  0  0  0  0  0
   -7.5753   -1.3700    0.6997 H   0  0  0  0  0  0  0  0  0  0  0  0
  -10.1774    1.8337   -1.6594 H   0  0  0  0  0  0  0  0  0  0  0  0
   -9.3552   -0.6466   -1.4624 H   0  0  0  0  0  0  0  0  0  0  0  0
   -9.5292   -0.2045    0.2272 H   0  0  0  0  0  0  0  0  0  0  0  0
   -3.8946    2.9306   -1.4248 H   0  0  0  0  0  0  0  0  0  0  0  0
   -4.2987    1.7273   -2.6341 H   0  0  0  0  0  0  0  0  0  0  0  0
   -4.3689   -2.4190   -0.1639 H   0  0  0  0  0  0  0  0  0  0  0  0
   -5.1737   -1.6063    1.1668 H   0  0  0  0  0  0  0  0  0  0  0  0
   -8.9510    3.3635    1.7562 H   0  0  0  0  0  0  0  0  0  0  0  0
   -3.2354   -0.5156    1.9084 H   0  0  0  0  0  0  0  0  0  0  0  0
   -2.6793   -2.1122    1.4305 H   0  0  0  0  0  0  0  0  0  0  0  0
   -1.4779    2.1610   -1.2858 H   0  0  0  0  0  0  0  0  0  0  0  0
   -2.0452    1.1702   -2.6314 H   0  0  0  0  0  0  0  0  0  0  0  0
   -0.4233   -0.9072    1.3235 H   0  0  0  0  0  0  0  0  0  0  0  0
   -0.6001   -1.9211   -0.1142 H   0  0  0  0  0  0  0  0  0  0  0  0
    0.4914    1.1931   -2.1851 H   0  0  0  0  0  0  0  0  0  0  0  0
   -0.2787   -0.3727   -2.4654 H   0  0  0  0  0  0  0  0  0  0  0  0
  2  1  1  0  0  0  0 
  3  2  1  0  0  0  0 
  2  4  1  0  0  0  0 
  2  5  1  0  0  0  0 
  6  3  1  0  0  0  0 
  3  7  1  0  0  0  0 
  3 25  1  0  0  0  0 
  4  8  1  0  0  0  0 
  4  9  1  0  0  0  0 
  4 10  1  0  0  0  0 
  5 11  1  0  0  0  0 
 12  6  1  0  0  0  0 
  6 13  1  0  0  0  0 
  6 23  1  0  0  0  0 
  7 10  1  0  0  0  0 
  8 14  3  0  0  0  0 
 12 11  1  0  0  0  0 
 12 15  1  0  0  0  0 
 12 24  1  0  0  0  0 
 13 16  1  0  0  0  0 
 15 17  2  0  0  0  0 
 15 18  1  0  0  0  0 
 16 17  1  0  0  0  0 
 17 19  1  0  0  0  0 
 18 20  1  0  0  0  0 
 19 21  1  0  0  0  0 
 20 21  1  0  0  0  0 
 21 22  2  0  0  0  0 
  1 26  1  0  0  0  0 
  1 27  1  0  0  0  0 
  1 28  1  0  0  0  0 
  5 29  1  0  0  0  0 
  5 30  1  0  0  0  0 
  7 31  1  0  0  0  0 
  7 32  1  0  0  0  0 
  9 33  1  0  0  0  0 
 10 34  1  0  0  0  0 
 10 35  1  0  0  0  0 
 11 36  1  0  0  0  0 
 11 37  1  0  0  0  0 
 13 38  1  0  0  0  0 
 13 39  1  0  0  0  0 
 14 40  1  0  0  0  0 
 16 41  1  0  0  0  0 
 16 42  1  0  0  0  0 
 18 43  1  0  0  0  0 
 18 44  1  0  0  0  0 
 19 45  1  0  0  0  0 
 19 46  1  0  0  0  0 
 20 47  1  0  0  0  0 
 20 48  1  0  0  0  0 
M  END
> <cdk:Title>
norethynodrel

> <Conformer>
1

> <SuperDrugID>
SD001757

$$$$
