acipimox
  CDK     0628171802

 17 17  0  0  0  0  0  0  0  0999 V2000
    0.0786   -5.5991   -1.1102 C   0  0  0  0  0  0  0  0  0  0  0  0
    0.0712   -4.1448   -0.8191 C   0  0  0  0  0  0  0  0  0  0  0  0
   -1.1424   -3.4554   -0.6026 C   0  0  0  0  0  0  0  0  0  0  0  0
   -1.1109   -2.1279   -0.3307 N   0  0  0  0  0  0  0  0  0  0  0  0
    0.0390   -1.4069   -0.2536 C   0  0  0  0  0  0  0  0  0  0  0  0
    1.2517   -2.0936   -0.4802 C   0  0  0  0  0  0  0  0  0  0  0  0
    1.2359   -3.4267   -0.7572 N   0  0  0  0  0  0  0  0  0  0  0  0
    2.3888   -4.0101   -0.9705 O   0  0  0  0  0  0  0  0  0  0  0  0
   -0.0147   -0.0276    0.0390 C   0  0  0  0  0  0  0  0  0  0  0  0
    1.1096    0.7175    0.1758 O   0  0  0  0  0  0  0  0  0  0  0  0
   -1.1112    0.5591    0.1865 O   0  0  0  0  0  0  0  0  0  0  0  0
    0.6724   -6.1250   -0.3588 H   0  0  0  0  0  0  0  0  0  0  0  0
   -0.9261   -6.0258   -1.1135 H   0  0  0  0  0  0  0  0  0  0  0  0
    0.5252   -5.7657   -2.0911 H   0  0  0  0  0  0  0  0  0  0  0  0
   -2.0453   -3.9324   -0.6465 H   0  0  0  0  0  0  0  0  0  0  0  0
    2.1448   -1.5945   -0.4430 H   0  0  0  0  0  0  0  0  0  0  0  0
    1.0473    1.6750    0.3834 H   0  0  0  0  0  0  0  0  0  0  0  0
  1  2  1  0  0  0  0 
  2  3  2  0  0  0  0 
  3  4  1  0  0  0  0 
  4  5  2  0  0  0  0 
  5  6  1  0  0  0  0 
  6  7  2  0  0  0  0 
  2  7  1  0  0  0  0 
  7  8  1  0  0  0  0 
  5  9  1  0  0  0  0 
  9 10  1  0  0  0  0 
  9 11  2  0  0  0  0 
  1 12  1  0  0  0  0 
  1 13  1  0  0  0  0 
  1 14  1  0  0  0  0 
  3 15  1  0  0  0  0 
  6 16  1  0  0  0  0 
 10 17  1  0  0  0  0 
M  CHG  1   7   1
M  CHG  1   8  -1
M  END
> <cdk:Title>
acipimox

> <Conformer>
1

> <SuperDrugID>
SD000052

$$$$
