phenobutiodil
  CDK     0628171801

 25 25  0  0  0  0  0  0  0  0999 V2000
    0.1982   -0.6880   -1.2713 O   0  0  0  0  0  0  0  0  0  0  0  0
    0.7548   -1.9273   -1.7914 C   0  0  1  0  0  0  0  0  0  0  0  0
    0.7849   -0.2196   -0.1178 C   0  0  0  0  0  0  0  0  0  0  0  0
    0.4917   -3.0834   -0.8965 C   0  0  0  0  0  0  0  0  0  0  0  0
    0.1801   -2.1927   -3.2153 C   0  0  1  0  0  0  0  0  0  0  0  0
    2.0288    0.4565   -0.1469 C   0  0  0  0  0  0  0  0  0  0  0  0
    0.1316   -0.4007    1.1240 C   0  0  0  0  0  0  0  0  0  0  0  0
    1.4876   -3.6049   -0.1415 O   0  0  0  0  0  0  0  0  0  0  0  0
   -0.6501   -3.5867   -0.7951 O   0  0  0  0  0  0  0  0  0  0  0  0
    0.5787   -1.1244   -4.2594 C   0  0  0  0  0  0  0  0  0  0  0  0
    2.9490    0.9451   -1.9198 I   0  0  0  0  0  0  0  0  0  0  0  0
    2.6594    0.8282    1.0558 C   0  0  0  0  0  0  0  0  0  0  0  0
   -1.7511   -1.2142    1.2349 I   0  0  0  0  0  0  0  0  0  0  0  0
    0.7637   -0.0192    2.3220 C   0  0  0  0  0  0  0  0  0  0  0  0
    2.0389    0.5708    2.2901 C   0  0  0  0  0  0  0  0  0  0  0  0
    2.9859    1.0689    4.0426 I   0  0  0  0  0  0  0  0  0  0  0  0
    1.8395   -1.8365   -1.9008 H   0  0  0  0  0  0  0  0  0  0  0  0
    0.5325   -3.1650   -3.5761 H   0  0  0  0  0  0  0  0  0  0  0  0
   -0.9128   -2.2308   -3.1709 H   0  0  0  0  0  0  0  0  0  0  0  0
    1.3024   -4.3431    0.4748 H   0  0  0  0  0  0  0  0  0  0  0  0
    0.1499   -1.3765   -5.2335 H   0  0  0  0  0  0  0  0  0  0  0  0
    1.6652   -1.0806   -4.3602 H   0  0  0  0  0  0  0  0  0  0  0  0
    0.2052   -0.1428   -3.9604 H   0  0  0  0  0  0  0  0  0  0  0  0
    3.5727    1.2840    1.0324 H   0  0  0  0  0  0  0  0  0  0  0  0
    0.2966   -0.1704    3.2185 H   0  0  0  0  0  0  0  0  0  0  0  0
  2  1  1  0  0  0  0 
  1  3  1  0  0  0  0 
  2  4  1  0  0  0  0 
  2  5  1  0  0  0  0 
  3  6  2  0  0  0  0 
  3  7  1  0  0  0  0 
  4  8  1  0  0  0  0 
  4  9  2  0  0  0  0 
  5 10  1  0  0  0  0 
  6 11  1  0  0  0  0 
  6 12  1  0  0  0  0 
  7 13  1  0  0  0  0 
  7 14  2  0  0  0  0 
 12 15  2  0  0  0  0 
 14 15  1  0  0  0  0 
 15 16  1  0  0  0  0 
  2 17  1  0  0  0  0 
  5 18  1  0  0  0  0 
  5 19  1  0  0  0  0 
  8 20  1  0  0  0  0 
 10 21  1  0  0  0  0 
 10 22  1  0  0  0  0 
 10 23  1  0  0  0  0 
 12 24  1  0  0  0  0 
 14 25  1  0  0  0  0 
M  END
> <cdk:Title>
phenobutiodil

> <Conformer>
1

> <SuperDrugID>
SD003251

$$$$
