ciclopirox
  CDK     0628171802

 32 33  0  0  0  0  0  0  0  0999 V2000
   -0.5793   -2.5904   -0.8327 O   0  0  0  0  0  0  0  0  0  0  0  0
   -1.1694   -1.4236   -0.9247 N   0  0  0  0  0  0  0  0  0  0  0  0
   -1.5559   -0.7356    0.2033 C   0  0  0  0  0  0  0  0  0  0  0  0
   -1.3821   -0.9409   -2.1854 C   0  0  0  0  0  0  0  0  0  0  0  0
   -2.1792    0.5273    0.0289 C   0  0  0  0  0  0  0  0  0  0  0  0
   -1.3774   -1.2672    1.6018 C   0  0  2  0  0  0  0  0  0  0  0  0
   -1.0307   -1.5913   -3.1982 O   0  0  0  0  0  0  0  0  0  0  0  0
   -2.0002    0.3073   -2.3727 C   0  0  0  0  0  0  0  0  0  0  0  0
   -2.4100    1.0600   -1.2563 C   0  0  0  0  0  0  0  0  0  0  0  0
    0.1144   -1.4513    2.0215 C   0  0  1  0  0  0  0  0  0  0  0  0
   -2.2144   -2.5603    1.8533 C   0  0  2  0  0  0  0  0  0  0  0  0
   -3.0584    2.3782   -1.4534 C   0  0  0  0  0  0  0  0  0  0  0  0
    0.2265   -1.9272    3.4961 C   0  0  2  0  0  0  0  0  0  0  0  0
   -2.0868   -3.0350    3.3250 C   0  0  2  0  0  0  0  0  0  0  0  0
   -0.6040   -3.2141    3.7482 C   0  0  2  0  0  0  0  0  0  0  0  0
    0.3822   -2.3935   -0.8444 H   0  0  0  0  0  0  0  0  0  0  0  0
   -2.4678    1.0708    0.8444 H   0  0  0  0  0  0  0  0  0  0  0  0
   -1.7773   -0.5332    2.3089 H   0  0  0  0  0  0  0  0  0  0  0  0
   -2.1528    0.6663   -3.3183 H   0  0  0  0  0  0  0  0  0  0  0  0
    0.6136   -2.1832    1.3817 H   0  0  0  0  0  0  0  0  0  0  0  0
    0.6414   -0.4986    1.9168 H   0  0  0  0  0  0  0  0  0  0  0  0
   -1.8913   -3.3718    1.1975 H   0  0  0  0  0  0  0  0  0  0  0  0
   -3.2691   -2.3609    1.6383 H   0  0  0  0  0  0  0  0  0  0  0  0
   -2.3539    3.0615   -1.9306 H   0  0  0  0  0  0  0  0  0  0  0  0
   -3.9325    2.2666   -2.0969 H   0  0  0  0  0  0  0  0  0  0  0  0
   -3.3852    2.8243   -0.5115 H   0  0  0  0  0  0  0  0  0  0  0  0
   -0.1263   -1.1339    4.1606 H   0  0  0  0  0  0  0  0  0  0  0  0
    1.2730   -2.1182    3.7435 H   0  0  0  0  0  0  0  0  0  0  0  0
   -2.6182   -3.9819    3.4495 H   0  0  0  0  0  0  0  0  0  0  0  0
   -2.5632   -2.2976    3.9780 H   0  0  0  0  0  0  0  0  0  0  0  0
   -0.5632   -3.4671    4.8107 H   0  0  0  0  0  0  0  0  0  0  0  0
   -0.1634   -4.0447    3.1895 H   0  0  0  0  0  0  0  0  0  0  0  0
  1  2  1  0  0  0  0 
  2  3  1  0  0  0  0 
  2  4  1  0  0  0  0 
  3  5  2  0  0  0  0 
  3  6  1  0  0  0  0 
  4  7  2  0  0  0  0 
  4  8  1  0  0  0  0 
  5  9  1  0  0  0  0 
  6 10  1  0  0  0  0 
  6 11  1  0  0  0  0 
  8  9  2  0  0  0  0 
  9 12  1  0  0  0  0 
 10 13  1  0  0  0  0 
 11 14  1  0  0  0  0 
 13 15  1  0  0  0  0 
 14 15  1  0  0  0  0 
  1 16  1  0  0  0  0 
  5 17  1  0  0  0  0 
  6 18  1  0  0  0  0 
  8 19  1  0  0  0  0 
 10 20  1  0  0  0  0 
 10 21  1  0  0  0  0 
 11 22  1  0  0  0  0 
 11 23  1  0  0  0  0 
 12 24  1  0  0  0  0 
 12 25  1  0  0  0  0 
 12 26  1  0  0  0  0 
 13 27  1  0  0  0  0 
 13 28  1  0  0  0  0 
 14 29  1  0  0  0  0 
 14 30  1  0  0  0  0 
 15 31  1  0  0  0  0 
 15 32  1  0  0  0  0 
M  END
> <cdk:Title>
ciclopirox

> <Conformer>
1

> <SuperDrugID>
SD000557

$$$$
