dibekacin
  CDK     0628171802

 68 70  0  0  0  0  0  0  0  0999 V2000
   -1.0534   -3.6548   -3.2989 O   0  0  0  0  0  0  0  0  0  0  0  0
   -0.0583   -3.4487   -4.3344 C   0  0  2  0  0  0  0  0  0  0  0  0
   -0.6621   -4.2913   -2.0639 C   0  0  1  0  0  0  0  0  0  0  0  0
    1.1674   -2.5877   -3.8760 C   0  0  1  0  0  0  0  0  0  0  0  0
   -0.8540   -2.8068   -5.5060 C   0  0  2  0  0  0  0  0  0  0  0  0
   -0.0421   -3.3478   -1.1595 O   0  0  0  0  0  0  0  0  0  0  0  0
   -1.8931   -4.9563   -1.3894 C   0  0  2  0  0  0  0  0  0  0  0  0
    1.9943   -3.4678   -3.1088 O   0  0  0  0  0  0  0  0  0  0  0  0
    2.0299   -1.9495   -5.0164 C   0  0  2  0  0  0  0  0  0  0  0  0
   -1.8607   -3.7551   -6.0151 N   0  0  1  0  0  0  0  0  0  0  0  0
    0.0800   -2.3711   -6.6612 C   0  0  2  0  0  0  0  0  0  0  0  0
   -0.9017   -2.2802   -0.6937 C   0  0  2  0  0  0  0  0  0  0  0  0
   -2.5816   -5.7822   -2.3257 O   0  0  0  0  0  0  0  0  0  0  0  0
   -2.8633   -3.8986   -0.7942 C   0  0  2  0  0  0  0  0  0  0  0  0
    2.8542   -0.8307   -4.5930 O   0  0  0  0  0  0  0  0  0  0  0  0
    1.1448   -1.3645   -6.1580 C   0  0  2  0  0  0  0  0  0  0  0  0
   -0.0494   -1.3063    0.1550 C   0  0  2  0  0  0  0  0  0  0  0  0
   -2.0939   -2.8870    0.1022 C   0  0  2  0  0  0  0  0  0  0  0  0
   -3.9295   -4.5590   -0.0272 N   0  0  2  0  0  0  0  0  0  0  0  0
    3.8529   -1.0047   -3.5611 C   0  0  1  0  0  0  0  0  0  0  0  0
    1.9768   -0.9317   -7.2941 N   0  0  2  0  0  0  0  0  0  0  0  0
    1.0346   -0.7979   -0.6160 O   0  0  0  0  0  0  0  0  0  0  0  0
   -2.9730   -1.8587    0.5568 O   0  0  0  0  0  0  0  0  0  0  0  0
    4.7617   -2.1046   -3.8100 O   0  0  0  0  0  0  0  0  0  0  0  0
    4.6293    0.3224   -3.3271 C   0  0  2  0  0  0  0  0  0  0  0  0
    5.6782   -1.9208   -4.9165 C   0  0  2  0  0  0  0  0  0  0  0  0
    3.6996    1.4569   -3.2161 N   0  0  2  0  0  0  0  0  0  0  0  0
    5.6576    0.5809   -4.4591 C   0  0  1  0  0  0  0  0  0  0  0  0
    6.5435   -3.1968   -5.0712 C   0  0  1  0  0  0  0  0  0  0  0  0
    6.5566   -0.6595   -4.6819 C   0  0  2  0  0  0  0  0  0  0  0  0
    5.7192   -4.3404   -5.4759 N   0  0  1  0  0  0  0  0  0  0  0  0
    0.0634   -5.0862   -2.2677 H   0  0  0  0  0  0  0  0  0  0  0  0
    3.3410   -1.2048   -2.6191 H   0  0  0  0  0  0  0  0  0  0  0  0
    0.3034   -4.4252   -4.6781 H   0  0  0  0  0  0  0  0  0  0  0  0
    0.8086   -1.7803   -3.2366 H   0  0  0  0  0  0  0  0  0  0  0  0
   -1.3910   -1.9268   -5.1382 H   0  0  0  0  0  0  0  0  0  0  0  0
   -1.5301   -5.5999   -0.5822 H   0  0  0  0  0  0  0  0  0  0  0  0
    2.5965   -2.9097   -2.5870 H   0  0  0  0  0  0  0  0  0  0  0  0
    2.6628   -2.7275   -5.4512 H   0  0  0  0  0  0  0  0  0  0  0  0
   -2.5122   -3.9437   -5.2512 H   0  0  0  0  0  0  0  0  0  0  0  0
   -2.3937   -3.2795   -6.7467 H   0  0  0  0  0  0  0  0  0  0  0  0
   -0.5216   -1.9000   -7.4446 H   0  0  0  0  0  0  0  0  0  0  0  0
    0.5726   -3.2496   -7.0915 H   0  0  0  0  0  0  0  0  0  0  0  0
   -1.2922   -1.7093   -1.5443 H   0  0  0  0  0  0  0  0  0  0  0  0
   -1.9091   -6.4278   -2.6305 H   0  0  0  0  0  0  0  0  0  0  0  0
   -3.3479   -3.3527   -1.6098 H   0  0  0  0  0  0  0  0  0  0  0  0
    0.6263   -0.4754   -5.7857 H   0  0  0  0  0  0  0  0  0  0  0  0
    0.3487   -1.8194    1.0327 H   0  0  0  0  0  0  0  0  0  0  0  0
   -0.6586   -0.4636    0.4911 H   0  0  0  0  0  0  0  0  0  0  0  0
   -1.6968   -3.4044    0.9803 H   0  0  0  0  0  0  0  0  0  0  0  0
   -3.4778   -5.1491    0.6728 H   0  0  0  0  0  0  0  0  0  0  0  0
   -4.4246   -5.1834   -0.6675 H   0  0  0  0  0  0  0  0  0  0  0  0
    2.5977   -0.1961   -6.9515 H   0  0  0  0  0  0  0  0  0  0  0  0
    1.3486   -0.4890   -7.9692 H   0  0  0  0  0  0  0  0  0  0  0  0
    1.5352   -0.2138   -0.0097 H   0  0  0  0  0  0  0  0  0  0  0  0
   -3.6400   -2.3263    1.1018 H   0  0  0  0  0  0  0  0  0  0  0  0
    5.1694    0.2438   -2.3778 H   0  0  0  0  0  0  0  0  0  0  0  0
    5.1156   -1.7914   -5.8485 H   0  0  0  0  0  0  0  0  0  0  0  0
    4.2500    2.2780   -2.9590 H   0  0  0  0  0  0  0  0  0  0  0  0
    3.0761    1.2556   -2.4313 H   0  0  0  0  0  0  0  0  0  0  0  0
    5.1340    0.8186   -5.3903 H   0  0  0  0  0  0  0  0  0  0  0  0
    6.2843    1.4371   -4.1988 H   0  0  0  0  0  0  0  0  0  0  0  0
    7.3062   -3.0434   -5.8391 H   0  0  0  0  0  0  0  0  0  0  0  0
    7.0399   -3.4346   -4.1282 H   0  0  0  0  0  0  0  0  0  0  0  0
    7.2035   -0.4860   -5.5450 H   0  0  0  0  0  0  0  0  0  0  0  0
    7.1918   -0.8092   -3.8023 H   0  0  0  0  0  0  0  0  0  0  0  0
    6.3449   -5.1440   -5.5650 H   0  0  0  0  0  0  0  0  0  0  0  0
    5.0844   -4.5424   -4.7010 H   0  0  0  0  0  0  0  0  0  0  0  0
  3  1  1  0  0  0  0 
  2  1  1  0  0  0  0 
  4  2  1  0  0  0  0 
  2  5  1  0  0  0  0 
  3  6  1  0  0  0  0 
  7  3  1  0  0  0  0 
  3 32  1  0  0  0  0 
  4  8  1  0  0  0  0 
  9  4  1  0  0  0  0 
  5 10  1  0  0  0  0 
  5 11  1  0  0  0  0 
 12  6  1  0  0  0  0 
  7 13  1  0  0  0  0 
 14  7  1  0  0  0  0 
  9 15  1  0  0  0  0 
 16  9  1  0  0  0  0 
 16 11  1  0  0  0  0 
 12 17  1  0  0  0  0 
 18 12  1  0  0  0  0 
 18 14  1  0  0  0  0 
 14 19  1  0  0  0  0 
 20 15  1  0  0  0  0 
 16 21  1  0  0  0  0 
 17 22  1  0  0  0  0 
 18 23  1  0  0  0  0 
 20 24  1  0  0  0  0 
 25 20  1  0  0  0  0 
 20 33  1  0  0  0  0 
 26 24  1  0  0  0  0 
 25 27  1  0  0  0  0 
 25 28  1  0  0  0  0 
 26 29  1  0  0  0  0 
 26 30  1  0  0  0  0 
 28 30  1  0  0  0  0 
 29 31  1  0  0  0  0 
  2 34  1  0  0  0  0 
  4 35  1  0  0  0  0 
  5 36  1  0  0  0  0 
  7 37  1  0  0  0  0 
  8 38  1  0  0  0  0 
  9 39  1  0  0  0  0 
 10 40  1  0  0  0  0 
 10 41  1  0  0  0  0 
 11 42  1  0  0  0  0 
 11 43  1  0  0  0  0 
 12 44  1  0  0  0  0 
 13 45  1  0  0  0  0 
 14 46  1  0  0  0  0 
 16 47  1  0  0  0  0 
 17 48  1  0  0  0  0 
 17 49  1  0  0  0  0 
 18 50  1  0  0  0  0 
 19 51  1  0  0  0  0 
 19 52  1  0  0  0  0 
 21 53  1  0  0  0  0 
 21 54  1  0  0  0  0 
 22 55  1  0  0  0  0 
 23 56  1  0  0  0  0 
 25 57  1  0  0  0  0 
 26 58  1  0  0  0  0 
 27 59  1  0  0  0  0 
 27 60  1  0  0  0  0 
 28 61  1  0  0  0  0 
 28 62  1  0  0  0  0 
 29 63  1  0  0  0  0 
 29 64  1  0  0  0  0 
 30 65  1  0  0  0  0 
 30 66  1  0  0  0  0 
 31 67  1  0  0  0  0 
 31 68  1  0  0  0  0 
M  END
> <cdk:Title>
dibekacin

> <Conformer>
1

> <SuperDrugID>
SD000758

$$$$
