hycanthone
  CDK     0628171801

 49 51  0  0  0  0  0  0  0  0999 V2000
   -1.3168    2.5169    5.2373 C   0  0  2  0  0  0  0  0  0  0  0  0
   -0.5077    3.3322    6.0768 O   0  0  0  0  0  0  0  0  0  0  0  0
   -0.7227    2.4045    3.8689 C   0  0  0  0  0  0  0  0  0  0  0  0
   -0.6095    3.4981    2.9580 C   0  0  0  0  0  0  0  0  0  0  0  0
   -0.2591    1.1411    3.4617 C   0  0  0  0  0  0  0  0  0  0  0  0
   -0.0449    3.3446    1.6493 C   0  0  0  0  0  0  0  0  0  0  0  0
   -1.2118    5.0499    3.5054 S   0  0  0  0  0  0  0  0  0  0  0  0
    0.2903    0.9594    2.1933 C   0  0  0  0  0  0  0  0  0  0  0  0
    0.3868    2.0252    1.2734 C   0  0  0  0  0  0  0  0  0  0  0  0
    0.0617    4.4565    0.7504 C   0  0  0  0  0  0  0  0  0  0  0  0
   -0.9721    6.1822    2.2062 C   0  0  0  0  0  0  0  0  0  0  0  0
    0.9205    1.7313    0.0414 N   0  0  0  0  0  0  0  0  0  0  0  0
    0.5706    4.2671   -0.3809 O   0  0  0  0  0  0  0  0  0  0  0  0
   -0.3661    5.7944    0.9870 C   0  0  0  0  0  0  0  0  0  0  0  0
   -1.4049    7.5061    2.4297 C   0  0  0  0  0  0  0  0  0  0  0  0
    0.7117    0.5374   -0.7201 C   0  0  2  0  0  0  0  0  0  0  0  0
   -0.2093    6.8135    0.0008 C   0  0  0  0  0  0  0  0  0  0  0  0
   -1.2508    8.4785    1.4315 C   0  0  0  0  0  0  0  0  0  0  0  0
    0.5217    0.8637   -2.2222 C   0  0  1  0  0  0  0  0  0  0  0  0
   -0.6527    8.1313    0.2126 C   0  0  0  0  0  0  0  0  0  0  0  0
    0.4496   -0.3589   -3.0954 N   0  0  1  0  0  0  0  0  0  0  0  0
   -0.7225   -1.2682   -2.8353 C   0  0  2  0  0  0  0  0  0  0  0  0
    0.7379   -0.0809   -4.5431 C   0  0  2  0  0  0  0  0  0  0  0  0
   -0.2567   -2.5569   -2.1225 C   0  0  0  0  0  0  0  0  0  0  0  0
    1.1467   -1.3348   -5.3531 C   0  0  0  0  0  0  0  0  0  0  0  0
   -2.3142    2.9545    5.1707 H   0  0  0  0  0  0  0  0  0  0  0  0
   -1.4249    1.5468    5.7309 H   0  0  0  0  0  0  0  0  0  0  0  0
   -1.0517    3.4728    6.8819 H   0  0  0  0  0  0  0  0  0  0  0  0
   -0.3188    0.3306    4.0837 H   0  0  0  0  0  0  0  0  0  0  0  0
    0.6274    0.0245    1.9488 H   0  0  0  0  0  0  0  0  0  0  0  0
    1.4662    2.4097   -0.3802 H   0  0  0  0  0  0  0  0  0  0  0  0
   -1.8368    7.7699    3.3188 H   0  0  0  0  0  0  0  0  0  0  0  0
   -0.1700    0.0066   -0.3567 H   0  0  0  0  0  0  0  0  0  0  0  0
    1.5867   -0.1050   -0.6015 H   0  0  0  0  0  0  0  0  0  0  0  0
    0.2355    6.6147   -0.8983 H   0  0  0  0  0  0  0  0  0  0  0  0
   -1.5743    9.4339    1.5917 H   0  0  0  0  0  0  0  0  0  0  0  0
   -0.3813    1.4702   -2.3580 H   0  0  0  0  0  0  0  0  0  0  0  0
    1.3810    1.4754   -2.5182 H   0  0  0  0  0  0  0  0  0  0  0  0
   -0.5377    8.8369   -0.5190 H   0  0  0  0  0  0  0  0  0  0  0  0
   -1.2260   -1.5629   -3.7592 H   0  0  0  0  0  0  0  0  0  0  0  0
   -1.4906   -0.7822   -2.2252 H   0  0  0  0  0  0  0  0  0  0  0  0
    1.5814    0.6122   -4.6244 H   0  0  0  0  0  0  0  0  0  0  0  0
   -0.1256    0.3997   -5.0138 H   0  0  0  0  0  0  0  0  0  0  0  0
   -1.0708   -3.2853   -2.0962 H   0  0  0  0  0  0  0  0  0  0  0  0
    0.0416   -2.3396   -1.0975 H   0  0  0  0  0  0  0  0  0  0  0  0
    0.5939   -2.9967   -2.6479 H   0  0  0  0  0  0  0  0  0  0  0  0
    1.5172   -1.0324   -6.3349 H   0  0  0  0  0  0  0  0  0  0  0  0
    0.2984   -2.0045   -5.5002 H   0  0  0  0  0  0  0  0  0  0  0  0
    1.9409   -1.8778   -4.8382 H   0  0  0  0  0  0  0  0  0  0  0  0
  1  2  1  0  0  0  0 
  1  3  1  0  0  0  0 
  3  4  2  0  0  0  0 
  3  5  1  0  0  0  0 
  4  6  1  0  0  0  0 
  4  7  1  0  0  0  0 
  5  8  2  0  0  0  0 
  6  9  2  0  0  0  0 
  6 10  1  0  0  0  0 
  7 11  1  0  0  0  0 
  8  9  1  0  0  0  0 
  9 12  1  0  0  0  0 
 10 13  2  0  0  0  0 
 10 14  1  0  0  0  0 
 11 14  1  0  0  0  0 
 11 15  2  0  0  0  0 
 12 16  1  0  0  0  0 
 14 17  2  0  0  0  0 
 15 18  1  0  0  0  0 
 16 19  1  0  0  0  0 
 17 20  1  0  0  0  0 
 18 20  2  0  0  0  0 
 19 21  1  0  0  0  0 
 21 22  1  0  0  0  0 
 21 23  1  0  0  0  0 
 22 24  1  0  0  0  0 
 23 25  1  0  0  0  0 
  1 26  1  0  0  0  0 
  1 27  1  0  0  0  0 
  2 28  1  0  0  0  0 
  5 29  1  0  0  0  0 
  8 30  1  0  0  0  0 
 12 31  1  0  0  0  0 
 15 32  1  0  0  0  0 
 16 33  1  0  0  0  0 
 16 34  1  0  0  0  0 
 17 35  1  0  0  0  0 
 18 36  1  0  0  0  0 
 19 37  1  0  0  0  0 
 19 38  1  0  0  0  0 
 20 39  1  0  0  0  0 
 22 40  1  0  0  0  0 
 22 41  1  0  0  0  0 
 23 42  1  0  0  0  0 
 23 43  1  0  0  0  0 
 24 44  1  0  0  0  0 
 24 45  1  0  0  0  0 
 24 46  1  0  0  0  0 
 25 47  1  0  0  0  0 
 25 48  1  0  0  0  0 
 25 49  1  0  0  0  0 
M  END
> <cdk:Title>
hycanthone

> <Conformer>
1

> <SuperDrugID>
SD001229

$$$$
