cefsulodin
  CDK     0628171802

 56 59  0  0  0  0  0  0  0  0999 V2000
    2.5174    2.4770    4.3447 C   0  0  0  0  0  0  0  0  0  0  0  0
    3.2372    1.3384    4.4542 O   0  0  0  0  0  0  0  0  0  0  0  0
    2.3231    3.1709    5.3680 O   0  0  0  0  0  0  0  0  0  0  0  0
    2.0587    2.9085    3.1134 C   0  0  0  0  0  0  0  0  0  0  0  0
    2.6179    4.0475    2.6571 N   0  0  0  0  0  0  0  0  0  0  0  0
    1.1391    2.2268    2.3700 C   0  0  0  0  0  0  0  0  0  0  0  0
    2.1888    4.9683    1.6683 C   0  0  1  0  0  0  0  0  0  0  0  0
    3.8072    4.6483    2.8301 C   0  0  0  0  0  0  0  0  0  0  0  0
    0.5483    0.9365    2.8009 C   0  0  1  0  0  0  0  0  0  0  0  0
    0.7050    2.7000    1.0363 C   0  0  2  0  0  0  0  0  0  0  0  0
    3.5936    5.6404    1.7812 C   0  0  1  0  0  0  0  0  0  0  0  0
    1.7554    3.9567    0.2210 S   0  0  0  0  0  0  0  0  0  0  0  0
    4.7917    4.4186    3.5689 O   0  0  0  0  0  0  0  0  0  0  0  0
   -0.0039    0.8818    4.1431 N   0  0  0  0  0  0  0  0  0  0  0  0
    4.4686    5.4377    0.6659 N   0  0  0  0  0  0  0  0  0  0  0  0
    0.5230    0.0285    5.0788 C   0  0  0  0  0  0  0  0  0  0  0  0
   -1.0791    1.6637    4.4766 C   0  0  0  0  0  0  0  0  0  0  0  0
    5.4937    6.2298    0.2491 C   0  0  0  0  0  0  0  0  0  0  0  0
    0.0189   -0.0230    6.3900 C   0  0  0  0  0  0  0  0  0  0  0  0
   -1.6353    1.6281    5.7693 C   0  0  0  0  0  0  0  0  0  0  0  0
    5.9635    7.4744    0.9246 C   0  0  2  0  0  0  0  0  0  0  0  0
    6.0662    5.8153   -0.7853 O   0  0  0  0  0  0  0  0  0  0  0  0
   -1.0777    0.7885    6.7630 C   0  0  0  0  0  0  0  0  0  0  0  0
    7.0358    8.5344   -0.1264 S   0  0  1  0  0  0  0  0  0  0  0  0
    6.6653    7.1933    2.2147 C   0  0  0  0  0  0  0  0  0  0  0  0
   -1.6036    0.7602    8.0860 C   0  0  0  0  0  0  0  0  0  0  0  0
    6.3045    8.8829   -1.5086 O   0  0  0  0  0  0  0  0  0  0  0  0
    7.3766    9.8963    0.6458 O   0  0  0  0  0  0  0  0  0  0  0  0
    8.5068    7.7390   -0.4817 O   0  0  0  0  0  0  0  0  0  0  0  0
    6.2546    7.8239    3.4161 C   0  0  0  0  0  0  0  0  0  0  0  0
    7.7720    6.3074    2.2714 C   0  0  0  0  0  0  0  0  0  0  0  0
   -0.8929    0.3147    9.1434 N   0  0  0  0  0  0  0  0  0  0  0  0
   -2.7643    1.1617    8.3347 O   0  0  0  0  0  0  0  0  0  0  0  0
    6.9346    7.5884    4.6261 C   0  0  0  0  0  0  0  0  0  0  0  0
    8.4480    6.0684    3.4816 C   0  0  0  0  0  0  0  0  0  0  0  0
    8.0326    6.7130    4.6585 C   0  0  0  0  0  0  0  0  0  0  0  0
    1.3592    5.5905    2.0211 H   0  0  0  0  0  0  0  0  0  0  0  0
   -0.2665    0.6287    2.1346 H   0  0  0  0  0  0  0  0  0  0  0  0
    1.3310    0.1855    2.6507 H   0  0  0  0  0  0  0  0  0  0  0  0
   -0.2973    3.1227    1.1279 H   0  0  0  0  0  0  0  0  0  0  0  0
    0.6595    1.8636    0.3346 H   0  0  0  0  0  0  0  0  0  0  0  0
    3.5494    6.6534    2.1847 H   0  0  0  0  0  0  0  0  0  0  0  0
    4.3203    4.6327    0.1443 H   0  0  0  0  0  0  0  0  0  0  0  0
    1.3072   -0.5878    4.8456 H   0  0  0  0  0  0  0  0  0  0  0  0
   -1.5009    2.2896    3.7848 H   0  0  0  0  0  0  0  0  0  0  0  0
    0.4562   -0.6629    7.0577 H   0  0  0  0  0  0  0  0  0  0  0  0
   -2.4399    2.2260    5.9746 H   0  0  0  0  0  0  0  0  0  0  0  0
    5.0822    8.0968    1.0944 H   0  0  0  0  0  0  0  0  0  0  0  0
    8.2496    6.8153   -0.6885 H   0  0  0  0  0  0  0  0  0  0  0  0
    5.4601    8.4681    3.4205 H   0  0  0  0  0  0  0  0  0  0  0  0
    8.0972    5.8263    1.4304 H   0  0  0  0  0  0  0  0  0  0  0  0
   -1.2913    0.3047   10.0285 H   0  0  0  0  0  0  0  0  0  0  0  0
    0.0210    0.0113    9.0274 H   0  0  0  0  0  0  0  0  0  0  0  0
    6.6373    8.0587    5.4836 H   0  0  0  0  0  0  0  0  0  0  0  0
    9.2457    5.4298    3.5056 H   0  0  0  0  0  0  0  0  0  0  0  0
    8.5311    6.5496    5.5360 H   0  0  0  0  0  0  0  0  0  0  0  0
  1  2  1  0  0  0  0 
  1  3  2  0  0  0  0 
  1  4  1  0  0  0  0 
  4  5  1  0  0  0  0 
  4  6  2  0  0  0  0 
  7  5  1  0  0  0  0 
  5  8  1  0  0  0  0 
  6  9  1  0  0  0  0 
  6 10  1  0  0  0  0 
 11  7  1  0  0  0  0 
  7 12  1  0  0  0  0 
  7 37  1  0  0  0  0 
 11  8  1  0  0  0  0 
  8 13  2  0  0  0  0 
  9 14  1  0  0  0  0 
 10 12  1  0  0  0  0 
 11 15  1  0  0  0  0 
 14 16  2  0  0  0  0 
 14 17  1  0  0  0  0 
 15 18  1  0  0  0  0 
 16 19  1  0  0  0  0 
 17 20  2  0  0  0  0 
 21 18  1  0  0  0  0 
 18 22  2  0  0  0  0 
 19 23  2  0  0  0  0 
 20 23  1  0  0  0  0 
 21 24  1  0  0  0  0 
 21 25  1  0  0  0  0 
 23 26  1  0  0  0  0 
 24 27  2  0  0  0  0 
 24 28  2  0  0  0  0 
 24 29  1  0  0  0  0 
 25 30  2  0  0  0  0 
 25 31  1  0  0  0  0 
 26 32  1  0  0  0  0 
 26 33  2  0  0  0  0 
 30 34  1  0  0  0  0 
 31 35  2  0  0  0  0 
 34 36  2  0  0  0  0 
 35 36  1  0  0  0  0 
  9 38  1  0  0  0  0 
  9 39  1  0  0  0  0 
 10 40  1  0  0  0  0 
 10 41  1  0  0  0  0 
 11 42  1  0  0  0  0 
 15 43  1  0  0  0  0 
 16 44  1  0  0  0  0 
 17 45  1  0  0  0  0 
 19 46  1  0  0  0  0 
 20 47  1  0  0  0  0 
 21 48  1  0  0  0  0 
 29 49  1  0  0  0  0 
 30 50  1  0  0  0  0 
 31 51  1  0  0  0  0 
 32 52  1  0  0  0  0 
 32 53  1  0  0  0  0 
 34 54  1  0  0  0  0 
 35 55  1  0  0  0  0 
 36 56  1  0  0  0  0 
M  CHG  1   2  -1
M  CHG  1  14   1
M  END
> <cdk:Title>
cefsulodin

> <Conformer>
1

> <SuperDrugID>
SD000485

$$$$
