vincamine
  CDK     0628171801

 52 56  0  0  0  0  0  0  0  0999 V2000
   -0.5140    0.2114    1.0687 C   0  0  0  0  0  0  0  0  0  0  0  0
    0.0236   -0.5397    0.0593 O   0  0  0  0  0  0  0  0  0  0  0  0
    0.1511    1.1444    1.5805 O   0  0  0  0  0  0  0  0  0  0  0  0
   -1.9011   -0.0577    1.5495 C   0  0  2  0  0  0  0  0  0  0  0  0
    1.3079   -0.3680   -0.5490 C   0  0  0  0  0  0  0  0  0  0  0  0
   -2.4856   -1.0699    0.7235 O   0  0  0  0  0  0  0  0  0  0  0  0
   -2.7497    1.1041    1.3848 N   0  0  0  0  0  0  0  0  0  0  0  0
   -1.8660   -0.5928    3.0342 C   0  0  1  0  0  0  0  0  0  0  0  0
   -3.5534    1.5930    2.3532 C   0  0  0  0  0  0  0  0  0  0  0  0
   -2.9621    1.8719    0.2821 C   0  0  0  0  0  0  0  0  0  0  0  0
   -3.1896   -0.4104    3.8811 C   0  0  2  0  0  0  0  0  0  0  0  0
   -3.6782    1.0841    3.7348 C   0  0  2  0  0  0  0  0  0  0  0  0
   -4.3112    2.6639    1.8895 C   0  0  0  0  0  0  0  0  0  0  0  0
   -3.9111    2.8583    0.5770 C   0  0  0  0  0  0  0  0  0  0  0  0
   -2.4078    1.8063   -1.0128 C   0  0  0  0  0  0  0  0  0  0  0  0
   -2.8771   -0.6595    5.4141 C   0  0  1  0  0  0  0  0  0  0  0  0
   -4.3216   -1.3761    3.3702 C   0  0  2  0  0  0  0  0  0  0  0  0
   -5.0702    1.3448    4.2585 N   0  0  1  0  0  0  0  0  0  0  0  0
   -5.3668    3.3425    2.6727 C   0  0  2  0  0  0  0  0  0  0  0  0
   -4.3243    3.8061   -0.3751 C   0  0  0  0  0  0  0  0  0  0  0  0
   -2.7970    2.7601   -1.9776 C   0  0  0  0  0  0  0  0  0  0  0  0
   -2.4007   -2.0679    5.8498 C   0  0  0  0  0  0  0  0  0  0  0  0
   -5.7200   -1.0784    3.9669 C   0  0  1  0  0  0  0  0  0  0  0  0
   -5.4528    2.7975    4.1325 C   0  0  1  0  0  0  0  0  0  0  0  0
   -6.1108    0.4007    3.7364 C   0  0  2  0  0  0  0  0  0  0  0  0
   -3.7514    3.7518   -1.6615 C   0  0  0  0  0  0  0  0  0  0  0  0
   -2.9979    1.7164    4.3162 H   0  0  0  0  0  0  0  0  0  0  0  0
    1.3802    0.6178   -1.0137 H   0  0  0  0  0  0  0  0  0  0  0  0
    1.4292   -1.1312   -1.3183 H   0  0  0  0  0  0  0  0  0  0  0  0
    2.1031   -0.4800    0.1907 H   0  0  0  0  0  0  0  0  0  0  0  0
   -1.9259   -1.8636    0.8500 H   0  0  0  0  0  0  0  0  0  0  0  0
   -1.5812   -1.6484    3.0183 H   0  0  0  0  0  0  0  0  0  0  0  0
   -1.0673   -0.0687    3.5674 H   0  0  0  0  0  0  0  0  0  0  0  0
   -1.7297    1.0860   -1.2596 H   0  0  0  0  0  0  0  0  0  0  0  0
   -2.0946    0.0354    5.7339 H   0  0  0  0  0  0  0  0  0  0  0  0
   -3.7583   -0.4209    6.0153 H   0  0  0  0  0  0  0  0  0  0  0  0
   -4.0617   -2.4145    3.5809 H   0  0  0  0  0  0  0  0  0  0  0  0
   -4.4244   -1.2984    2.2880 H   0  0  0  0  0  0  0  0  0  0  0  0
   -6.3189    3.1632    2.1697 H   0  0  0  0  0  0  0  0  0  0  0  0
   -5.1866    4.4198    2.6895 H   0  0  0  0  0  0  0  0  0  0  0  0
   -5.0182    4.5196   -0.1422 H   0  0  0  0  0  0  0  0  0  0  0  0
   -2.3872    2.7332   -2.9135 H   0  0  0  0  0  0  0  0  0  0  0  0
   -2.1390   -2.0497    6.9108 H   0  0  0  0  0  0  0  0  0  0  0  0
   -1.5165   -2.3727    5.2893 H   0  0  0  0  0  0  0  0  0  0  0  0
   -3.1888   -2.8085    5.7145 H   0  0  0  0  0  0  0  0  0  0  0  0
   -6.4614   -1.7237    3.4865 H   0  0  0  0  0  0  0  0  0  0  0  0
   -5.7341   -1.3036    5.0350 H   0  0  0  0  0  0  0  0  0  0  0  0
   -6.4601    2.9656    4.5228 H   0  0  0  0  0  0  0  0  0  0  0  0
   -4.7829    3.3860    4.7669 H   0  0  0  0  0  0  0  0  0  0  0  0
   -6.2676    0.5546    2.6643 H   0  0  0  0  0  0  0  0  0  0  0  0
   -7.0641    0.5841    4.2404 H   0  0  0  0  0  0  0  0  0  0  0  0
   -4.0313    4.4348   -2.3689 H   0  0  0  0  0  0  0  0  0  0  0  0
  1  2  1  0  0  0  0 
  1  3  2  0  0  0  0 
  4  1  1  0  0  0  0 
  2  5  1  0  0  0  0 
  4  6  1  0  0  0  0 
  4  7  1  0  0  0  0 
  4  8  1  0  0  0  0 
  7  9  1  0  0  0  0 
  7 10  1  0  0  0  0 
 11  8  1  0  0  0  0 
 12  9  1  0  0  0  0 
  9 13  2  0  0  0  0 
 10 14  1  0  0  0  0 
 10 15  2  0  0  0  0 
 12 11  1  0  0  0  0 
 11 16  1  0  0  0  0 
 11 17  1  0  0  0  0 
 12 18  1  0  0  0  0 
 12 27  1  0  0  0  0 
 13 14  1  0  0  0  0 
 13 19  1  0  0  0  0 
 14 20  2  0  0  0  0 
 15 21  1  0  0  0  0 
 16 22  1  0  0  0  0 
 17 23  1  0  0  0  0 
 18 24  1  0  0  0  0 
 18 25  1  0  0  0  0 
 19 24  1  0  0  0  0 
 20 26  1  0  0  0  0 
 21 26  2  0  0  0  0 
 23 25  1  0  0  0  0 
  5 28  1  0  0  0  0 
  5 29  1  0  0  0  0 
  5 30  1  0  0  0  0 
  6 31  1  0  0  0  0 
  8 32  1  0  0  0  0 
  8 33  1  0  0  0  0 
 15 34  1  0  0  0  0 
 16 35  1  0  0  0  0 
 16 36  1  0  0  0  0 
 17 37  1  0  0  0  0 
 17 38  1  0  0  0  0 
 19 39  1  0  0  0  0 
 19 40  1  0  0  0  0 
 20 41  1  0  0  0  0 
 21 42  1  0  0  0  0 
 22 43  1  0  0  0  0 
 22 44  1  0  0  0  0 
 22 45  1  0  0  0  0 
 23 46  1  0  0  0  0 
 23 47  1  0  0  0  0 
 24 48  1  0  0  0  0 
 24 49  1  0  0  0  0 
 25 50  1  0  0  0  0 
 25 51  1  0  0  0  0 
 26 52  1  0  0  0  0 
M  END
> <cdk:Title>
vincamine

> <Conformer>
1

> <SuperDrugID>
SD003122

$$$$
