perindopril
  CDK     0628171801

 58 59  0  0  0  0  0  0  0  0999 V2000
   -1.7041    3.9343    2.6012 C   0  0  0  0  0  0  0  0  0  0  0  0
   -1.3382    3.7867    1.1641 C   0  0  1  0  0  0  0  0  0  0  0  0
   -1.1778    3.1079    3.3870 O   0  0  0  0  0  0  0  0  0  0  0  0
   -2.5594    4.8999    3.1212 N   0  0  0  0  0  0  0  0  0  0  0  0
    0.0891    4.1381    0.9151 N   0  0  1  0  0  0  0  0  0  0  0  0
   -1.5880    2.3438    0.6533 C   0  0  0  0  0  0  0  0  0  0  0  0
   -3.0518    6.0505    2.4087 C   0  0  2  0  0  0  0  0  0  0  0  0
   -2.9876    4.8887    4.5033 C   0  0  2  0  0  0  0  0  0  0  0  0
    0.4674    5.5807    0.8222 C   0  0  2  0  0  0  0  0  0  0  0  0
   -3.1911    7.1040    3.5390 C   0  0  2  0  0  0  0  0  0  0  0  0
   -4.3893    5.7750    1.6473 C   0  0  2  0  0  0  0  0  0  0  0  0
   -3.8703    3.7487    4.8544 C   0  0  0  0  0  0  0  0  0  0  0  0
   -3.6792    6.2596    4.7329 C   0  0  1  0  0  0  0  0  0  0  0  0
   -0.1189    6.2440   -0.3723 C   0  0  0  0  0  0  0  0  0  0  0  0
    2.0185    5.7127    0.7635 C   0  0  1  0  0  0  0  0  0  0  0  0
   -4.0542    8.3494    3.1714 C   0  0  2  0  0  0  0  0  0  0  0  0
   -5.0744    7.0895    1.1960 C   0  0  2  0  0  0  0  0  0  0  0  0
   -4.3766    2.9211    3.9079 O   0  0  0  0  0  0  0  0  0  0  0  0
   -4.1771    3.5341    6.0497 O   0  0  0  0  0  0  0  0  0  0  0  0
   -0.7177    5.4914   -1.3386 O   0  0  0  0  0  0  0  0  0  0  0  0
   -0.0639    7.4926   -0.4813 O   0  0  0  0  0  0  0  0  0  0  0  0
    2.7519    5.2111    2.0372 C   0  0  2  0  0  0  0  0  0  0  0  0
   -5.3612    8.0049    2.4110 C   0  0  2  0  0  0  0  0  0  0  0  0
   -1.3660    5.9572   -2.5238 C   0  0  1  0  0  0  0  0  0  0  0  0
    4.2809    5.4152    1.9569 C   0  0  0  0  0  0  0  0  0  0  0  0
   -2.0451    4.7604   -3.2124 C   0  0  0  0  0  0  0  0  0  0  0  0
   -2.1873    7.4735    3.7906 H   0  0  0  0  0  0  0  0  0  0  0  0
   -2.3169    6.4343    1.6972 H   0  0  0  0  0  0  0  0  0  0  0  0
   -1.9807    4.4103    0.5493 H   0  0  0  0  0  0  0  0  0  0  0  0
    0.6280    3.7237    1.6776 H   0  0  0  0  0  0  0  0  0  0  0  0
   -1.3470    2.2784   -0.4099 H   0  0  0  0  0  0  0  0  0  0  0  0
   -2.6394    2.0731    0.7803 H   0  0  0  0  0  0  0  0  0  0  0  0
   -0.9722    1.6179    1.1902 H   0  0  0  0  0  0  0  0  0  0  0  0
   -2.0979    4.8440    5.1413 H   0  0  0  0  0  0  0  0  0  0  0  0
    0.1120    6.1018    1.7159 H   0  0  0  0  0  0  0  0  0  0  0  0
   -5.0825    5.2159    2.2819 H   0  0  0  0  0  0  0  0  0  0  0  0
   -4.1926    5.1647    0.7651 H   0  0  0  0  0  0  0  0  0  0  0  0
   -4.7698    6.1718    4.7213 H   0  0  0  0  0  0  0  0  0  0  0  0
   -3.3779    6.7069    5.6847 H   0  0  0  0  0  0  0  0  0  0  0  0
    2.3907    5.1536   -0.1007 H   0  0  0  0  0  0  0  0  0  0  0  0
    2.2833    6.7657    0.6163 H   0  0  0  0  0  0  0  0  0  0  0  0
   -3.4538    9.0089    2.5363 H   0  0  0  0  0  0  0  0  0  0  0  0
   -4.2989    8.9090    4.0783 H   0  0  0  0  0  0  0  0  0  0  0  0
   -6.0146    6.8576    0.6890 H   0  0  0  0  0  0  0  0  0  0  0  0
   -4.4312    7.6156    0.4840 H   0  0  0  0  0  0  0  0  0  0  0  0
   -4.9712    2.1838    4.1609 H   0  0  0  0  0  0  0  0  0  0  0  0
    2.5591    4.1450    2.1807 H   0  0  0  0  0  0  0  0  0  0  0  0
    2.3752    5.7483    2.9119 H   0  0  0  0  0  0  0  0  0  0  0  0
   -5.8339    8.9291    2.0668 H   0  0  0  0  0  0  0  0  0  0  0  0
   -6.0637    7.5067    3.0847 H   0  0  0  0  0  0  0  0  0  0  0  0
   -2.1230    6.7020   -2.2660 H   0  0  0  0  0  0  0  0  0  0  0  0
   -0.6312    6.4076   -3.1943 H   0  0  0  0  0  0  0  0  0  0  0  0
    4.6899    4.8814    1.0962 H   0  0  0  0  0  0  0  0  0  0  0  0
    4.5206    6.4765    1.8645 H   0  0  0  0  0  0  0  0  0  0  0  0
    4.7526    5.0295    2.8616 H   0  0  0  0  0  0  0  0  0  0  0  0
   -2.5532    5.0908   -4.1199 H   0  0  0  0  0  0  0  0  0  0  0  0
   -1.3022    4.0042   -3.4736 H   0  0  0  0  0  0  0  0  0  0  0  0
   -2.7806    4.3162   -2.5391 H   0  0  0  0  0  0  0  0  0  0  0  0
  2  1  1  0  0  0  0 
  1  3  2  0  0  0  0 
  1  4  1  0  0  0  0 
  2  5  1  0  0  0  0 
  2  6  1  0  0  0  0 
  7  4  1  0  0  0  0 
  8  4  1  0  0  0  0 
  9  5  1  0  0  0  0 
 10  7  1  0  0  0  0 
  7 11  1  0  0  0  0 
  7 28  1  0  0  0  0 
  8 12  1  0  0  0  0 
  8 13  1  0  0  0  0 
  9 14  1  0  0  0  0 
  9 15  1  0  0  0  0 
 10 13  1  0  0  0  0 
 10 16  1  0  0  0  0 
 10 27  1  0  0  0  0 
 11 17  1  0  0  0  0 
 12 18  1  0  0  0  0 
 12 19  2  0  0  0  0 
 14 20  1  0  0  0  0 
 14 21  2  0  0  0  0 
 15 22  1  0  0  0  0 
 16 23  1  0  0  0  0 
 17 23  1  0  0  0  0 
 20 24  1  0  0  0  0 
 22 25  1  0  0  0  0 
 24 26  1  0  0  0  0 
  2 29  1  0  0  0  0 
  5 30  1  0  0  0  0 
  6 31  1  0  0  0  0 
  6 32  1  0  0  0  0 
  6 33  1  0  0  0  0 
  8 34  1  0  0  0  0 
  9 35  1  0  0  0  0 
 11 36  1  0  0  0  0 
 11 37  1  0  0  0  0 
 13 38  1  0  0  0  0 
 13 39  1  0  0  0  0 
 15 40  1  0  0  0  0 
 15 41  1  0  0  0  0 
 16 42  1  0  0  0  0 
 16 43  1  0  0  0  0 
 17 44  1  0  0  0  0 
 17 45  1  0  0  0  0 
 18 46  1  0  0  0  0 
 22 47  1  0  0  0  0 
 22 48  1  0  0  0  0 
 23 49  1  0  0  0  0 
 23 50  1  0  0  0  0 
 24 51  1  0  0  0  0 
 24 52  1  0  0  0  0 
 25 53  1  0  0  0  0 
 25 54  1  0  0  0  0 
 25 55  1  0  0  0  0 
 26 56  1  0  0  0  0 
 26 57  1  0  0  0  0 
 26 58  1  0  0  0  0 
M  END
> <cdk:Title>
perindopril

> <Conformer>
1

> <SuperDrugID>
SD001890

$$$$
