nicoclonate
  CDK     0628171801

 36 37  0  0  0  0  0  0  0  0999 V2000
    3.8472   -1.9211    0.7371 C   0  0  1  0  0  0  0  0  0  0  0  0
    3.5531   -3.3035    1.0309 O   0  0  0  0  0  0  0  0  0  0  0  0
    3.2122   -0.9830    1.8209 C   0  0  1  0  0  0  0  0  0  0  0  0
    5.3362   -1.8166    0.6314 C   0  0  0  0  0  0  0  0  0  0  0  0
    2.8083   -4.2004    0.3062 C   0  0  0  0  0  0  0  0  0  0  0  0
    3.5048    0.5160    1.5290 C   0  0  0  0  0  0  0  0  0  0  0  0
    1.6780   -1.2118    1.9452 C   0  0  0  0  0  0  0  0  0  0  0  0
    6.1624   -2.1781    1.7233 C   0  0  0  0  0  0  0  0  0  0  0  0
    5.9630   -1.3798   -0.5614 C   0  0  0  0  0  0  0  0  0  0  0  0
    2.2671   -3.8234   -0.7602 O   0  0  0  0  0  0  0  0  0  0  0  0
    2.6526   -5.5404    0.7578 C   0  0  0  0  0  0  0  0  0  0  0  0
    7.5647   -2.1328    1.6211 C   0  0  0  0  0  0  0  0  0  0  0  0
    7.3662   -1.3240   -0.6647 C   0  0  0  0  0  0  0  0  0  0  0  0
    1.7105   -6.4269    0.1740 C   0  0  0  0  0  0  0  0  0  0  0  0
    3.4469   -6.0563    1.8108 C   0  0  0  0  0  0  0  0  0  0  0  0
    8.1712   -1.7054    0.4252 C   0  0  0  0  0  0  0  0  0  0  0  0
    1.6037   -7.7617    0.6104 C   0  0  0  0  0  0  0  0  0  0  0  0
    3.3217   -7.3481    2.2095 N   0  0  0  0  0  0  0  0  0  0  0  0
    9.8588   -1.6536    0.2947 Cl  0  0  0  0  0  0  0  0  0  0  0  0
    2.4430   -8.2099    1.6423 C   0  0  0  0  0  0  0  0  0  0  0  0
    3.3974   -1.6490   -0.2226 H   0  0  0  0  0  0  0  0  0  0  0  0
    3.6485   -1.2233    2.7949 H   0  0  0  0  0  0  0  0  0  0  0  0
    3.0554    1.1538    2.2927 H   0  0  0  0  0  0  0  0  0  0  0  0
    3.0987    0.7984    0.5558 H   0  0  0  0  0  0  0  0  0  0  0  0
    4.5793    0.7063    1.5267 H   0  0  0  0  0  0  0  0  0  0  0  0
    1.2528   -0.5753    2.7230 H   0  0  0  0  0  0  0  0  0  0  0  0
    1.4628   -2.2464    2.2150 H   0  0  0  0  0  0  0  0  0  0  0  0
    1.1764   -0.9876    1.0025 H   0  0  0  0  0  0  0  0  0  0  0  0
    5.7462   -2.4858    2.6046 H   0  0  0  0  0  0  0  0  0  0  0  0
    5.4036   -1.1008   -1.3704 H   0  0  0  0  0  0  0  0  0  0  0  0
    8.1371   -2.4134    2.4206 H   0  0  0  0  0  0  0  0  0  0  0  0
    7.7985   -1.0073   -1.5370 H   0  0  0  0  0  0  0  0  0  0  0  0
    1.0934   -6.1116   -0.5786 H   0  0  0  0  0  0  0  0  0  0  0  0
    4.1376   -5.4742    2.2882 H   0  0  0  0  0  0  0  0  0  0  0  0
    0.9287   -8.3989    0.1819 H   0  0  0  0  0  0  0  0  0  0  0  0
    2.3957   -9.1771    1.9685 H   0  0  0  0  0  0  0  0  0  0  0  0
  1  2  1  0  0  0  0 
  1  3  1  0  0  0  0 
  1  4  1  0  0  0  0 
  2  5  1  0  0  0  0 
  3  6  1  0  0  0  0 
  3  7  1  0  0  0  0 
  4  8  2  0  0  0  0 
  4  9  1  0  0  0  0 
  5 10  2  0  0  0  0 
  5 11  1  0  0  0  0 
  8 12  1  0  0  0  0 
  9 13  2  0  0  0  0 
 11 14  2  0  0  0  0 
 11 15  1  0  0  0  0 
 12 16  2  0  0  0  0 
 13 16  1  0  0  0  0 
 14 17  1  0  0  0  0 
 15 18  2  0  0  0  0 
 16 19  1  0  0  0  0 
 17 20  2  0  0  0  0 
 18 20  1  0  0  0  0 
  1 21  1  0  0  0  0 
  3 22  1  0  0  0  0 
  6 23  1  0  0  0  0 
  6 24  1  0  0  0  0 
  6 25  1  0  0  0  0 
  7 26  1  0  0  0  0 
  7 27  1  0  0  0  0 
  7 28  1  0  0  0  0 
  8 29  1  0  0  0  0 
  9 30  1  0  0  0  0 
 12 31  1  0  0  0  0 
 13 32  1  0  0  0  0 
 14 33  1  0  0  0  0 
 15 34  1  0  0  0  0 
 17 35  1  0  0  0  0 
 20 36  1  0  0  0  0 
M  END
> <cdk:Title>
nicoclonate

> <Conformer>
1

> <SuperDrugID>
SD001708

$$$$
