tiaprofenic acid
  CDK     0628171801

 30 31  0  0  0  0  0  0  0  0999 V2000
   -1.0960    0.1564   -5.6090 C   0  0  0  0  0  0  0  0  0  0  0  0
   -0.6557   -1.0023   -5.8149 O   0  0  0  0  0  0  0  0  0  0  0  0
   -1.0710    0.5406   -4.2235 C   0  0  0  0  0  0  0  0  0  0  0  0
   -1.5402    0.8915   -6.7739 C   0  0  0  0  0  0  0  0  0  0  0  0
   -1.6118    2.0118   -3.4279 S   0  0  0  0  0  0  0  0  0  0  0  0
   -0.5688   -0.2523   -3.1725 C   0  0  0  0  0  0  0  0  0  0  0  0
   -1.4604    0.2884   -8.0646 C   0  0  0  0  0  0  0  0  0  0  0  0
   -2.0649    2.2100   -6.7421 C   0  0  0  0  0  0  0  0  0  0  0  0
   -1.1700    1.5738   -1.7906 C   0  0  0  0  0  0  0  0  0  0  0  0
   -0.6152    0.2945   -1.8802 C   0  0  0  0  0  0  0  0  0  0  0  0
   -1.8736    0.9520   -9.2338 C   0  0  0  0  0  0  0  0  0  0  0  0
   -2.4861    2.8813   -7.9054 C   0  0  0  0  0  0  0  0  0  0  0  0
   -1.3439    2.3960   -0.5640 C   0  0  2  0  0  0  0  0  0  0  0  0
   -2.3901    2.2524   -9.1540 C   0  0  0  0  0  0  0  0  0  0  0  0
   -2.7772    2.6738   -0.3117 C   0  0  0  0  0  0  0  0  0  0  0  0
   -0.5066    3.7000   -0.6144 C   0  0  0  0  0  0  0  0  0  0  0  0
   -3.3922    2.1300    0.7633 O   0  0  0  0  0  0  0  0  0  0  0  0
   -3.4480    3.4149   -1.0666 O   0  0  0  0  0  0  0  0  0  0  0  0
   -0.1810   -1.1853   -3.3274 H   0  0  0  0  0  0  0  0  0  0  0  0
   -1.0944   -0.6576   -8.1815 H   0  0  0  0  0  0  0  0  0  0  0  0
   -2.1589    2.7278   -5.8798 H   0  0  0  0  0  0  0  0  0  0  0  0
   -0.2635   -0.2130   -1.0667 H   0  0  0  0  0  0  0  0  0  0  0  0
   -1.7991    0.4886  -10.1437 H   0  0  0  0  0  0  0  0  0  0  0  0
   -2.8633    3.8298   -7.8439 H   0  0  0  0  0  0  0  0  0  0  0  0
   -0.9688    1.8214    0.2884 H   0  0  0  0  0  0  0  0  0  0  0  0
   -2.6956    2.7395  -10.0003 H   0  0  0  0  0  0  0  0  0  0  0  0
   -0.6130    4.2523    0.3227 H   0  0  0  0  0  0  0  0  0  0  0  0
    0.5514    3.4654   -0.7536 H   0  0  0  0  0  0  0  0  0  0  0  0
   -0.8301    4.3455   -1.4343 H   0  0  0  0  0  0  0  0  0  0  0  0
   -4.3360    2.3194    0.9430 H   0  0  0  0  0  0  0  0  0  0  0  0
  1  2  2  0  0  0  0 
  1  3  1  0  0  0  0 
  1  4  1  0  0  0  0 
  3  5  1  0  0  0  0 
  3  6  2  0  0  0  0 
  4  7  2  0  0  0  0 
  4  8  1  0  0  0  0 
  5  9  1  0  0  0  0 
  6 10  1  0  0  0  0 
  7 11  1  0  0  0  0 
  8 12  2  0  0  0  0 
  9 10  2  0  0  0  0 
 13  9  1  0  0  0  0 
 11 14  2  0  0  0  0 
 12 14  1  0  0  0  0 
 13 15  1  0  0  0  0 
 13 16  1  0  0  0  0 
 15 17  1  0  0  0  0 
 15 18  2  0  0  0  0 
  6 19  1  0  0  0  0 
  7 20  1  0  0  0  0 
  8 21  1  0  0  0  0 
 10 22  1  0  0  0  0 
 11 23  1  0  0  0  0 
 12 24  1  0  0  0  0 
 13 25  1  0  0  0  0 
 14 26  1  0  0  0  0 
 16 27  1  0  0  0  0 
 16 28  1  0  0  0  0 
 16 29  1  0  0  0  0 
 17 30  1  0  0  0  0 
M  END
> <cdk:Title>
tiaprofenic acid

> <Conformer>
1

> <SuperDrugID>
SD002385

$$$$
