bretylium
  CDK     0628171801

 30 30  0  0  0  0  0  0  0  0999 V2000
   -1.0860    2.6108   -2.5968 C   0  0  1  0  0  0  0  0  0  0  0  0
   -2.1133    2.7958   -3.7192 N   0  0  1  0  0  0  0  0  0  0  0  0
   -1.5137    1.8566   -1.3704 C   0  0  0  0  0  0  0  0  0  0  0  0
   -2.6788    1.4419   -4.1330 C   0  0  2  0  0  0  0  0  0  0  0  0
   -3.2228    3.7270   -3.2809 C   0  0  0  0  0  0  0  0  0  0  0  0
   -1.3984    3.4452   -4.8878 C   0  0  0  0  0  0  0  0  0  0  0  0
   -1.1982    0.4839   -1.1590 C   0  0  0  0  0  0  0  0  0  0  0  0
   -2.2650    2.5291   -0.3744 C   0  0  0  0  0  0  0  0  0  0  0  0
   -3.6654    1.3654   -5.3283 C   0  0  0  0  0  0  0  0  0  0  0  0
   -0.1815   -0.5406   -2.3422 Br  0  0  0  0  0  0  0  0  0  0  0  0
   -1.6643   -0.1834   -0.0092 C   0  0  0  0  0  0  0  0  0  0  0  0
   -2.7401    1.8525    0.7620 C   0  0  0  0  0  0  0  0  0  0  0  0
   -2.4503    0.4914    0.9385 C   0  0  0  0  0  0  0  0  0  0  0  0
   -0.1951    2.1242   -3.0020 H   0  0  0  0  0  0  0  0  0  0  0  0
   -0.7191    3.5897   -2.2665 H   0  0  0  0  0  0  0  0  0  0  0  0
   -3.2066    0.9919   -3.2843 H   0  0  0  0  0  0  0  0  0  0  0  0
   -1.8558    0.7666   -4.3834 H   0  0  0  0  0  0  0  0  0  0  0  0
   -2.8249    4.6397   -2.8269 H   0  0  0  0  0  0  0  0  0  0  0  0
   -3.8860    3.2493   -2.5565 H   0  0  0  0  0  0  0  0  0  0  0  0
   -3.8500    4.0407   -4.1187 H   0  0  0  0  0  0  0  0  0  0  0  0
   -0.6167    2.7915   -5.2865 H   0  0  0  0  0  0  0  0  0  0  0  0
   -0.9226    4.3872   -4.5950 H   0  0  0  0  0  0  0  0  0  0  0  0
   -2.0809    3.6755   -5.7104 H   0  0  0  0  0  0  0  0  0  0  0  0
   -2.4789    3.5253   -0.4713 H   0  0  0  0  0  0  0  0  0  0  0  0
   -4.0241    0.3386   -5.4336 H   0  0  0  0  0  0  0  0  0  0  0  0
   -4.5321    2.0099   -5.1725 H   0  0  0  0  0  0  0  0  0  0  0  0
   -3.1712    1.6442   -6.2598 H   0  0  0  0  0  0  0  0  0  0  0  0
   -1.4335   -1.1689    0.1421 H   0  0  0  0  0  0  0  0  0  0  0  0
   -3.2959    2.3510    1.4584 H   0  0  0  0  0  0  0  0  0  0  0  0
   -2.8090   -0.0083    1.7541 H   0  0  0  0  0  0  0  0  0  0  0  0
  1  2  1  0  0  0  0 
  1  3  1  0  0  0  0 
  2  4  1  0  0  0  0 
  2  5  1  0  0  0  0 
  2  6  1  0  0  0  0 
  3  7  2  0  0  0  0 
  3  8  1  0  0  0  0 
  4  9  1  0  0  0  0 
  7 10  1  0  0  0  0 
  7 11  1  0  0  0  0 
  8 12  2  0  0  0  0 
 11 13  2  0  0  0  0 
 12 13  1  0  0  0  0 
  1 14  1  0  0  0  0 
  1 15  1  0  0  0  0 
  4 16  1  0  0  0  0 
  4 17  1  0  0  0  0 
  5 18  1  0  0  0  0 
  5 19  1  0  0  0  0 
  5 20  1  0  0  0  0 
  6 21  1  0  0  0  0 
  6 22  1  0  0  0  0 
  6 23  1  0  0  0  0 
  8 24  1  0  0  0  0 
  9 25  1  0  0  0  0 
  9 26  1  0  0  0  0 
  9 27  1  0  0  0  0 
 11 28  1  0  0  0  0 
 12 29  1  0  0  0  0 
 13 30  1  0  0  0  0 
M  CHG  1   2   1
M  END
> <cdk:Title>
bretylium

> <Conformer>
1

> <SuperDrugID>
SD000336

$$$$
