teprenone
  CDK     0628171801

 62 61  0  0  0  0  0  0  0  0999 V2000
   13.2508   -1.6681   -7.9541 C   0  0  0  0  0  0  0  0  0  0  0  0
   12.2761   -0.8121   -8.3410 C   0  0  0  0  0  0  0  0  0  0  0  0
   14.4498   -1.8326   -8.7773 C   0  0  0  0  0  0  0  0  0  0  0  0
   13.1581   -2.4690   -6.7301 C   0  0  0  0  0  0  0  0  0  0  0  0
   11.0211   -0.5633   -7.6503 C   0  0  1  0  0  0  0  0  0  0  0  0
   11.1446    0.5381   -6.5565 C   0  0  2  0  0  0  0  0  0  0  0  0
    9.9155    0.6782   -5.7583 C   0  0  0  0  0  0  0  0  0  0  0  0
    9.5707   -0.3264   -4.9163 C   0  0  0  0  0  0  0  0  0  0  0  0
    9.1333    1.9016   -5.9464 C   0  0  0  0  0  0  0  0  0  0  0  0
    8.3608   -0.4319   -4.1147 C   0  0  2  0  0  0  0  0  0  0  0  0
    7.1024   -0.7507   -4.9805 C   0  0  2  0  0  0  0  0  0  0  0  0
    5.8465   -0.6453   -4.2206 C   0  0  0  0  0  0  0  0  0  0  0  0
    5.4109    0.5860   -3.8559 C   0  0  0  0  0  0  0  0  0  0  0  0
    5.1578   -1.8964   -3.8942 C   0  0  0  0  0  0  0  0  0  0  0  0
    4.2585    0.9056   -3.0242 C   0  0  1  0  0  0  0  0  0  0  0  0
    4.5286    0.5760   -1.5243 C   0  0  2  0  0  0  0  0  0  0  0  0
    3.3635    0.7500   -0.6415 C   0  0  0  0  0  0  0  0  0  0  0  0
    2.3162   -0.1011   -0.7635 C   0  0  0  0  0  0  0  0  0  0  0  0
    3.4345    1.8355    0.3381 C   0  0  0  0  0  0  0  0  0  0  0  0
    1.0816   -0.1194    0.0133 C   0  0  2  0  0  0  0  0  0  0  0  0
    1.2160   -0.8877    1.3607 C   0  0  1  0  0  0  0  0  0  0  0  0
   -0.0069   -0.8900    2.2048 C   0  0  0  0  0  0  0  0  0  0  0  0
   -0.0247   -1.5976    3.5001 C   0  0  0  0  0  0  0  0  0  0  0  0
   -1.0467   -0.2870    1.8451 O   0  0  0  0  0  0  0  0  0  0  0  0
   12.4134   -0.2811   -9.1706 H   0  0  0  0  0  0  0  0  0  0  0  0
   14.5656   -2.8850   -9.0459 H   0  0  0  0  0  0  0  0  0  0  0  0
   14.4203   -1.2594   -9.7062 H   0  0  0  0  0  0  0  0  0  0  0  0
   15.3283   -1.5126   -8.2135 H   0  0  0  0  0  0  0  0  0  0  0  0
   14.0596   -3.0613   -6.5557 H   0  0  0  0  0  0  0  0  0  0  0  0
   12.3168   -3.1603   -6.7940 H   0  0  0  0  0  0  0  0  0  0  0  0
   13.0251   -1.8279   -5.8587 H   0  0  0  0  0  0  0  0  0  0  0  0
   10.2761   -0.2388   -8.3835 H   0  0  0  0  0  0  0  0  0  0  0  0
   10.6419   -1.4945   -7.2258 H   0  0  0  0  0  0  0  0  0  0  0  0
   11.4017    1.4774   -7.0552 H   0  0  0  0  0  0  0  0  0  0  0  0
   11.9773    0.3218   -5.8815 H   0  0  0  0  0  0  0  0  0  0  0  0
   10.1873   -1.1043   -4.8436 H   0  0  0  0  0  0  0  0  0  0  0  0
    8.7900    1.9587   -6.9816 H   0  0  0  0  0  0  0  0  0  0  0  0
    8.2648    1.9773   -5.2950 H   0  0  0  0  0  0  0  0  0  0  0  0
    9.7607    2.7717   -5.7413 H   0  0  0  0  0  0  0  0  0  0  0  0
    8.2354    0.4807   -3.5275 H   0  0  0  0  0  0  0  0  0  0  0  0
    8.4846   -1.2469   -3.3922 H   0  0  0  0  0  0  0  0  0  0  0  0
    7.2328   -1.7575   -5.3915 H   0  0  0  0  0  0  0  0  0  0  0  0
    7.0437   -0.0815   -5.8434 H   0  0  0  0  0  0  0  0  0  0  0  0
    5.9446    1.3731   -4.1517 H   0  0  0  0  0  0  0  0  0  0  0  0
    5.8076   -2.5230   -3.2796 H   0  0  0  0  0  0  0  0  0  0  0  0
    4.2167   -1.7616   -3.3636 H   0  0  0  0  0  0  0  0  0  0  0  0
    4.9279   -2.4369   -4.8146 H   0  0  0  0  0  0  0  0  0  0  0  0
    4.0536    1.9797   -3.1058 H   0  0  0  0  0  0  0  0  0  0  0  0
    3.3763    0.3906   -3.4090 H   0  0  0  0  0  0  0  0  0  0  0  0
    5.3680    1.2043   -1.2038 H   0  0  0  0  0  0  0  0  0  0  0  0
    4.8757   -0.4556   -1.4218 H   0  0  0  0  0  0  0  0  0  0  0  0
    2.3834   -0.8178   -1.4514 H   0  0  0  0  0  0  0  0  0  0  0  0
    3.5195    2.7954   -0.1765 H   0  0  0  0  0  0  0  0  0  0  0  0
    2.5754    1.8922    1.0035 H   0  0  0  0  0  0  0  0  0  0  0  0
    4.3199    1.6996    0.9629 H   0  0  0  0  0  0  0  0  0  0  0  0
    0.3133   -0.6237   -0.5845 H   0  0  0  0  0  0  0  0  0  0  0  0
    0.7210    0.8967    0.1798 H   0  0  0  0  0  0  0  0  0  0  0  0
    1.4788   -1.9273    1.1396 H   0  0  0  0  0  0  0  0  0  0  0  0
    2.0313   -0.4543    1.9453 H   0  0  0  0  0  0  0  0  0  0  0  0
   -0.9649   -1.4319    4.0322 H   0  0  0  0  0  0  0  0  0  0  0  0
    0.7900   -1.2410    4.1326 H   0  0  0  0  0  0  0  0  0  0  0  0
    0.0935   -2.6704    3.3417 H   0  0  0  0  0  0  0  0  0  0  0  0
  1  2  2  0  0  0  0 
  1  3  1  0  0  0  0 
  1  4  1  0  0  0  0 
  2  5  1  0  0  0  0 
  5  6  1  0  0  0  0 
  6  7  1  0  0  0  0 
  7  8  2  0  0  0  0 
  7  9  1  0  0  0  0 
  8 10  1  0  0  0  0 
 10 11  1  0  0  0  0 
 11 12  1  0  0  0  0 
 12 13  2  0  0  0  0 
 12 14  1  0  0  0  0 
 13 15  1  0  0  0  0 
 15 16  1  0  0  0  0 
 16 17  1  0  0  0  0 
 17 18  2  0  0  0  0 
 17 19  1  0  0  0  0 
 18 20  1  0  0  0  0 
 20 21  1  0  0  0  0 
 21 22  1  0  0  0  0 
 22 23  1  0  0  0  0 
 22 24  2  0  0  0  0 
  2 25  1  0  0  0  0 
  3 26  1  0  0  0  0 
  3 27  1  0  0  0  0 
  3 28  1  0  0  0  0 
  4 29  1  0  0  0  0 
  4 30  1  0  0  0  0 
  4 31  1  0  0  0  0 
  5 32  1  0  0  0  0 
  5 33  1  0  0  0  0 
  6 34  1  0  0  0  0 
  6 35  1  0  0  0  0 
  8 36  1  0  0  0  0 
  9 37  1  0  0  0  0 
  9 38  1  0  0  0  0 
  9 39  1  0  0  0  0 
 10 40  1  0  0  0  0 
 10 41  1  0  0  0  0 
 11 42  1  0  0  0  0 
 11 43  1  0  0  0  0 
 13 44  1  0  0  0  0 
 14 45  1  0  0  0  0 
 14 46  1  0  0  0  0 
 14 47  1  0  0  0  0 
 15 48  1  0  0  0  0 
 15 49  1  0  0  0  0 
 16 50  1  0  0  0  0 
 16 51  1  0  0  0  0 
 18 52  1  0  0  0  0 
 19 53  1  0  0  0  0 
 19 54  1  0  0  0  0 
 19 55  1  0  0  0  0 
 20 56  1  0  0  0  0 
 20 57  1  0  0  0  0 
 21 58  1  0  0  0  0 
 21 59  1  0  0  0  0 
 23 60  1  0  0  0  0 
 23 61  1  0  0  0  0 
 23 62  1  0  0  0  0 
M  END
> <cdk:Title>
teprenone

> <Conformer>
1

> <SuperDrugID>
SD002335

$$$$
