metergoline
  CDK     0628171801

 59 63  0  0  0  0  0  0  0  0999 V2000
    0.8340   -9.6839   -2.0419 C   0  0  2  0  0  0  0  0  0  0  0  0
    2.2289   -9.5554   -2.5180 C   0  0  0  0  0  0  0  0  0  0  0  0
    2.7434   -8.3513   -2.9465 C   0  0  0  0  0  0  0  0  0  0  0  0
    2.0642   -7.1250   -2.9784 C   0  0  0  0  0  0  0  0  0  0  0  0
    0.6631   -7.1166   -2.4349 C   0  0  2  0  0  0  0  0  0  0  0  0
   -0.0683   -8.5153   -2.5964 C   0  0  2  0  0  0  0  0  0  0  0  0
   -1.4464   -8.4546   -1.9728 N   0  0  1  0  0  0  0  0  0  0  0  0
   -0.2223   -5.9722   -3.0006 C   0  0  1  0  0  0  0  0  0  0  0  0
   -1.6283   -5.9796   -2.3402 C   0  0  2  0  0  0  0  0  0  0  0  0
   -2.2992   -7.3641   -2.5540 C   0  0  2  0  0  0  0  0  0  0  0  0
    4.0559   -8.5399   -3.3544 C   0  0  0  0  0  0  0  0  0  0  0  0
    4.7805   -7.4413   -3.8570 C   0  0  0  0  0  0  0  0  0  0  0  0
    4.1457   -6.1809   -3.9146 C   0  0  0  0  0  0  0  0  0  0  0  0
    2.8107   -6.0218   -3.4714 C   0  0  0  0  0  0  0  0  0  0  0  0
    4.3633   -9.8449   -3.1690 N   0  0  0  0  0  0  0  0  0  0  0  0
    3.2711  -10.4729   -2.6582 C   0  0  0  0  0  0  0  0  0  0  0  0
    5.6219  -10.4507   -3.4710 C   0  0  0  0  0  0  0  0  0  0  0  0
   -2.1930   -9.7474   -1.8900 C   0  0  0  0  0  0  0  0  0  0  0  0
   -2.5080   -4.7858   -2.8258 C   0  0  1  0  0  0  0  0  0  0  0  0
   -1.9113   -3.5054   -2.5657 N   0  0  0  0  0  0  0  0  0  0  0  0
   -1.7015   -2.9693   -1.3327 C   0  0  0  0  0  0  0  0  0  0  0  0
   -1.0826   -1.7534   -1.2548 O   0  0  0  0  0  0  0  0  0  0  0  0
   -2.0672   -3.5581   -0.2865 O   0  0  0  0  0  0  0  0  0  0  0  0
   -0.7237   -1.0862   -0.0357 C   0  0  1  0  0  0  0  0  0  0  0  0
   -0.1797    0.2638   -0.3155 C   0  0  0  0  0  0  0  0  0  0  0  0
   -1.0414    1.2920   -0.7645 C   0  0  0  0  0  0  0  0  0  0  0  0
   -0.5543    2.5925   -0.9943 C   0  0  0  0  0  0  0  0  0  0  0  0
    0.8070    2.8780   -0.7862 C   0  0  0  0  0  0  0  0  0  0  0  0
    1.6784    1.8632   -0.3503 C   0  0  0  0  0  0  0  0  0  0  0  0
    1.1877    0.5651   -0.1130 C   0  0  0  0  0  0  0  0  0  0  0  0
    0.8341   -9.6612   -0.9500 H   0  0  0  0  0  0  0  0  0  0  0  0
    0.4473  -10.6516   -2.3710 H   0  0  0  0  0  0  0  0  0  0  0  0
    0.7685   -6.9345   -1.3596 H   0  0  0  0  0  0  0  0  0  0  0  0
   -0.1916   -8.7030   -3.6724 H   0  0  0  0  0  0  0  0  0  0  0  0
    0.2475   -5.0115   -2.7810 H   0  0  0  0  0  0  0  0  0  0  0  0
   -0.3106   -6.0721   -4.0874 H   0  0  0  0  0  0  0  0  0  0  0  0
   -1.4928   -5.8638   -1.2586 H   0  0  0  0  0  0  0  0  0  0  0  0
   -3.2736   -7.3391   -2.0543 H   0  0  0  0  0  0  0  0  0  0  0  0
   -2.4745   -7.5418   -3.6207 H   0  0  0  0  0  0  0  0  0  0  0  0
    5.7441   -7.5498   -4.1778 H   0  0  0  0  0  0  0  0  0  0  0  0
    4.6579   -5.3750   -4.2779 H   0  0  0  0  0  0  0  0  0  0  0  0
    2.4008   -5.0904   -3.5107 H   0  0  0  0  0  0  0  0  0  0  0  0
    3.2140  -11.4661   -2.4203 H   0  0  0  0  0  0  0  0  0  0  0  0
    5.8584  -10.2994   -4.5259 H   0  0  0  0  0  0  0  0  0  0  0  0
    6.4055   -9.9952   -2.8626 H   0  0  0  0  0  0  0  0  0  0  0  0
    5.6103  -11.5237   -3.2730 H   0  0  0  0  0  0  0  0  0  0  0  0
   -2.2393  -10.2373   -2.8649 H   0  0  0  0  0  0  0  0  0  0  0  0
   -3.2141   -9.5977   -1.5293 H   0  0  0  0  0  0  0  0  0  0  0  0
   -1.7125  -10.4160   -1.1752 H   0  0  0  0  0  0  0  0  0  0  0  0
   -2.6680   -4.8735   -3.9018 H   0  0  0  0  0  0  0  0  0  0  0  0
   -3.4902   -4.8249   -2.3450 H   0  0  0  0  0  0  0  0  0  0  0  0
   -1.6068   -2.9889   -3.3305 H   0  0  0  0  0  0  0  0  0  0  0  0
   -1.6033   -0.9850    0.6063 H   0  0  0  0  0  0  0  0  0  0  0  0
    0.0040   -1.7071    0.4926 H   0  0  0  0  0  0  0  0  0  0  0  0
   -2.0360    1.1043   -0.9118 H   0  0  0  0  0  0  0  0  0  0  0  0
   -1.1901    3.3321   -1.3059 H   0  0  0  0  0  0  0  0  0  0  0  0
    1.1619    3.8247   -0.9448 H   0  0  0  0  0  0  0  0  0  0  0  0
    2.6686    2.0723   -0.2003 H   0  0  0  0  0  0  0  0  0  0  0  0
    1.8362   -0.1551    0.2150 H   0  0  0  0  0  0  0  0  0  0  0  0
  1  2  1  0  0  0  0 
  6  1  1  0  0  0  0 
  2  3  1  0  0  0  0 
  5  4  1  0  0  0  0 
  5  6  1  0  0  0  0 
  9  8  1  0  0  0  0 
  9 10  1  0  0  0  0 
  7 10  1  0  0  0  0 
  5  8  1  0  0  0  0 
  6  7  1  0  0  0  0 
 11 12  2  0  0  0  0 
 12 13  1  0  0  0  0 
 13 14  2  0  0  0  0 
  3 11  1  0  0  0  0 
  4 14  1  0  0  0  0 
  4  3  2  0  0  0  0 
 15 16  1  0  0  0  0 
 16  2  2  0  0  0  0 
 11 15  1  0  0  0  0 
 15 17  1  0  0  0  0 
  7 18  1  0  0  0  0 
  9 19  1  0  0  0  0 
 19 20  1  0  0  0  0 
 20 21  1  0  0  0  0 
 21 22  1  0  0  0  0 
 21 23  2  0  0  0  0 
 22 24  1  0  0  0  0 
 24 25  1  0  0  0  0 
 26 27  1  0  0  0  0 
 27 28  2  0  0  0  0 
 28 29  1  0  0  0  0 
 29 30  2  0  0  0  0 
 25 26  2  0  0  0  0 
 25 30  1  0  0  0  0 
 31  1  1  0  0  0  0 
 32  1  1  0  0  0  0 
  5 33  1  0  0  0  0 
  6 34  1  0  0  0  0 
 35  8  1  0  0  0  0 
 36  8  1  0  0  0  0 
  9 37  1  0  0  0  0 
 38 10  1  0  0  0  0 
 39 10  1  0  0  0  0 
 40 12  1  0  0  0  0 
 41 13  1  0  0  0  0 
 42 14  1  0  0  0  0 
 43 16  1  0  0  0  0 
 44 17  1  0  0  0  0 
 45 17  1  0  0  0  0 
 46 17  1  0  0  0  0 
 47 18  1  0  0  0  0 
 48 18  1  0  0  0  0 
 49 18  1  0  0  0  0 
 50 19  1  0  0  0  0 
 51 19  1  0  0  0  0 
 52 20  1  0  0  0  0 
 53 24  1  0  0  0  0 
 54 24  1  0  0  0  0 
 55 26  1  0  0  0  0 
 56 27  1  0  0  0  0 
 57 28  1  0  0  0  0 
 58 29  1  0  0  0  0 
 59 30  1  0  0  0  0 
M  END
> <cdk:Title>
metergoline

> <Conformer>
1

> <SuperDrugID>
SD001524

$$$$
