paroxetine
  CDK     0628171801

 44 47  0  0  0  0  0  0  0  0999 V2000
    4.9513   -3.1114    0.3929 C   0  0  1  0  0  0  0  0  0  0  0  0
    4.2393   -2.0471   -0.5032 C   0  0  2  0  0  0  0  0  0  0  0  0
    2.9071   -1.5242    0.1516 C   0  0  1  0  0  0  0  0  0  0  0  0
    3.1744   -1.0903    1.6266 C   0  0  1  0  0  0  0  0  0  0  0  0
    3.7988   -2.1858    2.4036 N   0  0  1  0  0  0  0  0  0  0  0  0
    5.1030   -2.6236    1.8549 C   0  0  2  0  0  0  0  0  0  0  0  0
    4.0415   -2.5494   -1.9042 C   0  0  0  0  0  0  0  0  0  0  0  0
    2.2271   -0.3702   -0.6513 C   0  0  1  0  0  0  0  0  0  0  0  0
    3.0745   -4.1611   -3.4947 C   0  0  0  0  0  0  0  0  0  0  0  0
    3.6282   -3.4448   -4.5716 C   0  0  0  0  0  0  0  0  0  0  0  0
    4.3859   -2.2860   -4.3247 C   0  0  0  0  0  0  0  0  0  0  0  0
    4.5972   -1.8486   -3.0039 C   0  0  0  0  0  0  0  0  0  0  0  0
    3.2790   -3.7150   -2.1763 C   0  0  0  0  0  0  0  0  0  0  0  0
    3.1463    0.7312   -0.8148 O   0  0  0  0  0  0  0  0  0  0  0  0
    2.6437    1.7812   -1.5333 C   0  0  0  0  0  0  0  0  0  0  0  0
    1.8958    2.7883   -0.8821 C   0  0  0  0  0  0  0  0  0  0  0  0
    1.4182    3.8761   -1.6324 C   0  0  0  0  0  0  0  0  0  0  0  0
    1.6725    3.9730   -2.9918 C   0  0  0  0  0  0  0  0  0  0  0  0
    2.4138    2.9828   -3.6595 C   0  0  0  0  0  0  0  0  0  0  0  0
    2.9079    1.8878   -2.9198 C   0  0  0  0  0  0  0  0  0  0  0  0
    1.1353    5.0847   -3.5257 O   0  0  0  0  0  0  0  0  0  0  0  0
    0.4772    5.6708   -2.3859 C   0  0  1  0  0  0  0  0  0  0  0  0
    0.6957    4.9155   -1.1794 O   0  0  0  0  0  0  0  0  0  0  0  0
    3.4372   -3.8531   -5.7957 F   0  0  0  0  0  0  0  0  0  0  0  0
    2.1897   -2.3512    0.1906 H   0  0  0  0  0  0  0  0  0  0  0  0
    4.9258   -1.1928   -0.5319 H   0  0  0  0  0  0  0  0  0  0  0  0
    4.3831   -4.0450    0.4097 H   0  0  0  0  0  0  0  0  0  0  0  0
    5.9442   -3.3275   -0.0135 H   0  0  0  0  0  0  0  0  0  0  0  0
    3.8222   -0.2087    1.6608 H   0  0  0  0  0  0  0  0  0  0  0  0
    2.2304   -0.8315    2.1129 H   0  0  0  0  0  0  0  0  0  0  0  0
    3.9678   -1.8278    3.3463 H   0  0  0  0  0  0  0  0  0  0  0  0
    5.8232   -1.8023    1.9094 H   0  0  0  0  0  0  0  0  0  0  0  0
    5.4839   -3.4445    2.4676 H   0  0  0  0  0  0  0  0  0  0  0  0
    1.9081   -0.7495   -1.6279 H   0  0  0  0  0  0  0  0  0  0  0  0
    1.3268   -0.0428   -0.1181 H   0  0  0  0  0  0  0  0  0  0  0  0
    2.5204   -5.0051   -3.6660 H   0  0  0  0  0  0  0  0  0  0  0  0
    4.7819   -1.7543   -5.1036 H   0  0  0  0  0  0  0  0  0  0  0  0
    5.1578   -1.0057   -2.8546 H   0  0  0  0  0  0  0  0  0  0  0  0
    2.8601   -4.2522   -1.4144 H   0  0  0  0  0  0  0  0  0  0  0  0
    1.7055    2.7339    0.1202 H   0  0  0  0  0  0  0  0  0  0  0  0
    2.5922    3.0604   -4.6622 H   0  0  0  0  0  0  0  0  0  0  0  0
    3.4629    1.1709   -3.3923 H   0  0  0  0  0  0  0  0  0  0  0  0
    0.8504    6.6861   -2.2401 H   0  0  0  0  0  0  0  0  0  0  0  0
   -0.5959    5.7242   -2.5828 H   0  0  0  0  0  0  0  0  0  0  0  0
  1  2  1  0  0  0  0 
  1  6  1  0  0  0  0 
  2  3  1  0  0  0  0 
  3  4  1  0  0  0  0 
  4  5  1  0  0  0  0 
  5  6  1  0  0  0  0 
  2  7  1  0  0  0  0 
  3  8  1  0  0  0  0 
  9 10  1  0  0  0  0 
 10 11  2  0  0  0  0 
 11 12  1  0  0  0  0 
  9 13  2  0  0  0  0 
 12  7  2  0  0  0  0 
  7 13  1  0  0  0  0 
  8 14  1  0  0  0  0 
 14 15  1  0  0  0  0 
 16 17  1  0  0  0  0 
 17 18  2  0  0  0  0 
 18 19  1  0  0  0  0 
 19 20  2  0  0  0  0 
 15 16  2  0  0  0  0 
 15 20  1  0  0  0  0 
 21 22  1  0  0  0  0 
 22 23  1  0  0  0  0 
 17 23  1  0  0  0  0 
 18 21  1  0  0  0  0 
 10 24  1  0  0  0  0 
  3 25  1  0  0  0  0 
  2 26  1  0  0  0  0 
  1 27  1  0  0  0  0 
  1 28  1  0  0  0  0 
  4 29  1  0  0  0  0 
  4 30  1  0  0  0  0 
  5 31  1  0  0  0  0 
  6 32  1  0  0  0  0 
  6 33  1  0  0  0  0 
  8 34  1  0  0  0  0 
  8 35  1  0  0  0  0 
  9 36  1  0  0  0  0 
 11 37  1  0  0  0  0 
 12 38  1  0  0  0  0 
 13 39  1  0  0  0  0 
 16 40  1  0  0  0  0 
 19 41  1  0  0  0  0 
 20 42  1  0  0  0  0 
 22 43  1  0  0  0  0 
 22 44  1  0  0  0  0 
M  END
> <cdk:Title>
paroxetine

> <Conformer>
1

> <SuperDrugID>
SD001854

$$$$
