spizofurone
  CDK     0628171801

 25 27  0  0  0  0  0  0  0  0999 V2000
    2.4809   -4.9562   -0.4536 O   0  0  0  0  0  0  0  0  0  0  0  0
    1.3063   -4.8700   -0.0286 C   0  0  0  0  0  0  0  0  0  0  0  0
    0.4114   -5.9509    0.3732 C   0  0  2  0  0  0  0  0  0  0  0  0
    0.5697   -3.7229    0.1713 C   0  0  0  0  0  0  0  0  0  0  0  0
   -0.8574   -5.4436    0.8157 O   0  0  0  0  0  0  0  0  0  0  0  0
    0.9607   -7.2087    1.0585 C   0  0  2  0  0  0  0  0  0  0  0  0
    0.4200   -7.2886   -0.3785 C   0  0  1  0  0  0  0  0  0  0  0  0
   -0.6822   -4.0978    0.6607 C   0  0  0  0  0  0  0  0  0  0  0  0
    0.9021   -2.3732   -0.0385 C   0  0  0  0  0  0  0  0  0  0  0  0
   -1.6419   -3.1171    0.9522 C   0  0  0  0  0  0  0  0  0  0  0  0
   -0.0508   -1.3558    0.2507 C   0  0  0  0  0  0  0  0  0  0  0  0
   -1.3234   -1.7595    0.7482 C   0  0  0  0  0  0  0  0  0  0  0  0
    0.2757    0.0229    0.0438 C   0  0  0  0  0  0  0  0  0  0  0  0
   -0.6492    1.1463    0.3190 C   0  0  0  0  0  0  0  0  0  0  0  0
    1.4077    0.3367   -0.3971 O   0  0  0  0  0  0  0  0  0  0  0  0
    0.3237   -7.6289    1.8372 H   0  0  0  0  0  0  0  0  0  0  0  0
    2.0452   -7.2619    1.1682 H   0  0  0  0  0  0  0  0  0  0  0  0
   -0.5565   -7.7590   -0.4987 H   0  0  0  0  0  0  0  0  0  0  0  0
    1.1704   -7.4024   -1.1629 H   0  0  0  0  0  0  0  0  0  0  0  0
    1.8330   -2.1471   -0.3984 H   0  0  0  0  0  0  0  0  0  0  0  0
   -2.5611   -3.3852    1.3098 H   0  0  0  0  0  0  0  0  0  0  0  0
   -2.0438   -1.0709    0.9730 H   0  0  0  0  0  0  0  0  0  0  0  0
   -0.1867    2.1080    0.0872 H   0  0  0  0  0  0  0  0  0  0  0  0
   -1.5486    1.0474   -0.2909 H   0  0  0  0  0  0  0  0  0  0  0  0
   -0.9289    1.1506    1.3738 H   0  0  0  0  0  0  0  0  0  0  0  0
  1  2  2  0  0  0  0 
  2  3  1  0  0  0  0 
  2  4  1  0  0  0  0 
  3  5  1  0  0  0  0 
  3  6  1  0  0  0  0 
  3  7  1  0  0  0  0 
  4  8  2  0  0  0  0 
  4  9  1  0  0  0  0 
  5  8  1  0  0  0  0 
  6  7  1  0  0  0  0 
  8 10  1  0  0  0  0 
  9 11  2  0  0  0  0 
 10 12  2  0  0  0  0 
 11 12  1  0  0  0  0 
 11 13  1  0  0  0  0 
 13 14  1  0  0  0  0 
 13 15  2  0  0  0  0 
 16  6  1  0  0  0  0 
 17  6  1  0  0  0  0 
 18  7  1  0  0  0  0 
 19  7  1  0  0  0  0 
 20  9  1  0  0  0  0 
 21 10  1  0  0  0  0 
 22 12  1  0  0  0  0 
 23 14  1  0  0  0  0 
 24 14  1  0  0  0  0 
 25 14  1  0  0  0  0 
M  END
> <cdk:Title>
spizofurone

> <Conformer>
1

> <SuperDrugID>
SD002224

$$$$
