diethylcarbamazine
  CDK     0628171802

 35 35  0  0  0  0  0  0  0  0999 V2000
   -1.5110   -0.4384   -0.3467 C   0  0  0  0  0  0  0  0  0  0  0  0
   -2.2183   -1.6106   -0.6310 N   0  0  0  0  0  0  0  0  0  0  0  0
   -0.3753   -0.5665    0.1738 O   0  0  0  0  0  0  0  0  0  0  0  0
   -1.9394    0.8704   -0.5328 N   0  0  0  0  0  0  0  0  0  0  0  0
   -1.5096   -2.8814   -0.7240 C   0  0  1  0  0  0  0  0  0  0  0  0
   -3.6751   -1.6411   -0.7121 C   0  0  1  0  0  0  0  0  0  0  0  0
   -2.6956    1.2912   -1.6963 C   0  0  2  0  0  0  0  0  0  0  0  0
   -1.6000    1.9170    0.4166 C   0  0  1  0  0  0  0  0  0  0  0  0
   -1.5420   -3.6942    0.5931 C   0  0  0  0  0  0  0  0  0  0  0  0
   -4.3502   -1.2475    0.6244 C   0  0  0  0  0  0  0  0  0  0  0  0
   -2.0602    2.5308   -2.3833 C   0  0  2  0  0  0  0  0  0  0  0  0
   -0.9216    3.1244   -0.2723 C   0  0  2  0  0  0  0  0  0  0  0  0
   -1.7739    3.6128   -1.3960 N   0  0  1  0  0  0  0  0  0  0  0  0
   -1.2596    4.8598   -2.0305 C   0  0  0  0  0  0  0  0  0  0  0  0
   -1.9359   -3.4927   -1.5247 H   0  0  0  0  0  0  0  0  0  0  0  0
   -0.4623   -2.7346   -1.0059 H   0  0  0  0  0  0  0  0  0  0  0  0
   -4.0526   -0.9981   -1.5041 H   0  0  0  0  0  0  0  0  0  0  0  0
   -4.0426   -2.6408   -0.9640 H   0  0  0  0  0  0  0  0  0  0  0  0
   -3.7193    1.5355   -1.3963 H   0  0  0  0  0  0  0  0  0  0  0  0
   -2.7344    0.5146   -2.4626 H   0  0  0  0  0  0  0  0  0  0  0  0
   -2.5266    2.2592    0.8869 H   0  0  0  0  0  0  0  0  0  0  0  0
   -0.9490    1.5709    1.2238 H   0  0  0  0  0  0  0  0  0  0  0  0
   -0.9028   -4.5742    0.4981 H   0  0  0  0  0  0  0  0  0  0  0  0
   -1.1778   -3.0878    1.4220 H   0  0  0  0  0  0  0  0  0  0  0  0
   -2.5564   -4.0274    0.8184 H   0  0  0  0  0  0  0  0  0  0  0  0
   -4.0828   -1.9570    1.4076 H   0  0  0  0  0  0  0  0  0  0  0  0
   -4.0420   -0.2507    0.9417 H   0  0  0  0  0  0  0  0  0  0  0  0
   -5.4357   -1.2484    0.5103 H   0  0  0  0  0  0  0  0  0  0  0  0
   -2.7586    2.8963   -3.1416 H   0  0  0  0  0  0  0  0  0  0  0  0
   -1.1376    2.2310   -2.8932 H   0  0  0  0  0  0  0  0  0  0  0  0
    0.0690    2.8290   -0.6328 H   0  0  0  0  0  0  0  0  0  0  0  0
   -0.7939    3.9146    0.4714 H   0  0  0  0  0  0  0  0  0  0  0  0
   -1.9644    5.2180   -2.7832 H   0  0  0  0  0  0  0  0  0  0  0  0
   -1.1504    5.6494   -1.2851 H   0  0  0  0  0  0  0  0  0  0  0  0
   -0.2929    4.6930   -2.5107 H   0  0  0  0  0  0  0  0  0  0  0  0
  1  2  1  0  0  0  0 
  1  3  2  0  0  0  0 
  1  4  1  0  0  0  0 
  2  5  1  0  0  0  0 
  2  6  1  0  0  0  0 
  4  7  1  0  0  0  0 
  4  8  1  0  0  0  0 
  5  9  1  0  0  0  0 
  6 10  1  0  0  0  0 
  7 11  1  0  0  0  0 
  8 12  1  0  0  0  0 
 11 13  1  0  0  0  0 
 12 13  1  0  0  0  0 
 13 14  1  0  0  0  0 
  5 15  1  0  0  0  0 
  5 16  1  0  0  0  0 
  6 17  1  0  0  0  0 
  6 18  1  0  0  0  0 
  7 19  1  0  0  0  0 
  7 20  1  0  0  0  0 
  8 21  1  0  0  0  0 
  8 22  1  0  0  0  0 
  9 23  1  0  0  0  0 
  9 24  1  0  0  0  0 
  9 25  1  0  0  0  0 
 10 26  1  0  0  0  0 
 10 27  1  0  0  0  0 
 10 28  1  0  0  0  0 
 11 29  1  0  0  0  0 
 11 30  1  0  0  0  0 
 12 31  1  0  0  0  0 
 12 32  1  0  0  0  0 
 14 33  1  0  0  0  0 
 14 34  1  0  0  0  0 
 14 35  1  0  0  0  0 
M  END
> <cdk:Title>
diethylcarbamazine

> <Conformer>
1

> <SuperDrugID>
SD000776

$$$$
