bosutinib
  CDK     0628171801

 65 68  0  0  0  0  0  0  0  0999 V2000
    0.2487    3.0093    2.3673 N   0  0  0  0  0  0  0  0  0  0  0  0
   -1.1004    3.0966    2.1265 C   0  0  0  0  0  0  0  0  0  0  0  0
    0.9325    1.8524    2.6347 C   0  0  0  0  0  0  0  0  0  0  0  0
   -1.7239    2.3619    1.0746 C   0  0  0  0  0  0  0  0  0  0  0  0
   -1.8943    3.9194    2.9695 C   0  0  0  0  0  0  0  0  0  0  0  0
    0.2835    0.7199    3.1806 C   0  0  0  0  0  0  0  0  0  0  0  0
    2.3123    1.7616    2.3379 C   0  0  0  0  0  0  0  0  0  0  0  0
   -3.1398    2.4057    0.9698 C   0  0  0  0  0  0  0  0  0  0  0  0
   -1.0148    1.5937    0.1179 C   0  0  0  0  0  0  0  0  0  0  0  0
   -1.3725    4.6429    3.9237 C   0  0  0  0  0  0  0  0  0  0  0  0
   -3.2931    3.9350    2.7875 C   0  0  0  0  0  0  0  0  0  0  0  0
    0.9444   -0.5192    3.3156 C   0  0  0  0  0  0  0  0  0  0  0  0
    3.1709    3.0771    1.6971 Cl  0  0  0  0  0  0  0  0  0  0  0  0
    2.9976    0.5442    2.5286 C   0  0  0  0  0  0  0  0  0  0  0  0
   -3.8139    1.6527   -0.0100 C   0  0  0  0  0  0  0  0  0  0  0  0
   -3.8599    3.1804    1.8179 N   0  0  0  0  0  0  0  0  0  0  0  0
   -1.6851    0.8327   -0.8637 C   0  0  0  0  0  0  0  0  0  0  0  0
   -0.9066    5.2772    4.7599 N   0  0  0  0  0  0  0  0  0  0  0  0
    0.2706   -1.6377    3.7507 O   0  0  0  0  0  0  0  0  0  0  0  0
    2.3178   -0.5973    2.9978 C   0  0  0  0  0  0  0  0  0  0  0  0
   -3.0952    0.8686   -0.9347 C   0  0  0  0  0  0  0  0  0  0  0  0
   -0.9740    0.0815   -1.7646 O   0  0  0  0  0  0  0  0  0  0  0  0
   -0.8191   -2.0562    2.9018 C   0  0  0  0  0  0  0  0  0  0  0  0
    3.1704   -2.0534    3.1596 Cl  0  0  0  0  0  0  0  0  0  0  0  0
   -3.7719    0.1173   -1.8619 O   0  0  0  0  0  0  0  0  0  0  0  0
   -0.5342   -1.1782   -1.2281 C   0  0  0  0  0  0  0  0  0  0  0  0
   -3.8705    0.6960   -3.1816 C   0  0  1  0  0  0  0  0  0  0  0  0
   -4.8953    1.8516   -3.2945 C   0  0  2  0  0  0  0  0  0  0  0  0
   -6.3584    1.4449   -2.9627 C   0  0  2  0  0  0  0  0  0  0  0  0
   -7.2607    2.6377   -2.8462 N   0  0  1  0  0  0  0  0  0  0  0  0
   -7.5752    3.3036   -4.1491 C   0  0  2  0  0  0  0  0  0  0  0  0
   -8.5018    2.3819   -2.0501 C   0  0  1  0  0  0  0  0  0  0  0  0
   -8.3553    4.6200   -3.9259 C   0  0  2  0  0  0  0  0  0  0  0  0
   -9.2891    3.6965   -1.8164 C   0  0  2  0  0  0  0  0  0  0  0  0
   -9.5809    4.3965   -3.1037 N   0  0  1  0  0  0  0  0  0  0  0  0
  -10.3618    5.6518   -2.9106 C   0  0  0  0  0  0  0  0  0  0  0  0
    0.7533    3.8410    2.3562 H   0  0  0  0  0  0  0  0  0  0  0  0
   -0.6930    0.7899    3.4695 H   0  0  0  0  0  0  0  0  0  0  0  0
    0.0052    1.5773    0.1192 H   0  0  0  0  0  0  0  0  0  0  0  0
   -3.9093    4.4997    3.3790 H   0  0  0  0  0  0  0  0  0  0  0  0
    3.9946    0.4850    2.3042 H   0  0  0  0  0  0  0  0  0  0  0  0
   -4.8348    1.6745   -0.0492 H   0  0  0  0  0  0  0  0  0  0  0  0
   -1.1199   -3.0629    3.1883 H   0  0  0  0  0  0  0  0  0  0  0  0
   -1.6856   -1.4012    3.0278 H   0  0  0  0  0  0  0  0  0  0  0  0
   -0.5281   -2.0753    1.8486 H   0  0  0  0  0  0  0  0  0  0  0  0
   -0.0486   -1.7361   -2.0279 H   0  0  0  0  0  0  0  0  0  0  0  0
    0.1934   -1.0281   -0.4273 H   0  0  0  0  0  0  0  0  0  0  0  0
   -1.3740   -1.7710   -0.8558 H   0  0  0  0  0  0  0  0  0  0  0  0
   -2.8946    1.0475   -3.5336 H   0  0  0  0  0  0  0  0  0  0  0  0
   -4.1850   -0.1017   -3.8582 H   0  0  0  0  0  0  0  0  0  0  0  0
   -4.8488    2.2276   -4.3182 H   0  0  0  0  0  0  0  0  0  0  0  0
   -4.5899    2.6626   -2.6296 H   0  0  0  0  0  0  0  0  0  0  0  0
   -6.3443    0.9002   -2.0142 H   0  0  0  0  0  0  0  0  0  0  0  0
   -6.7337    0.7540   -3.7220 H   0  0  0  0  0  0  0  0  0  0  0  0
   -8.1617    2.6364   -4.7902 H   0  0  0  0  0  0  0  0  0  0  0  0
   -6.6614    3.5629   -4.6851 H   0  0  0  0  0  0  0  0  0  0  0  0
   -9.1413    1.6551   -2.5615 H   0  0  0  0  0  0  0  0  0  0  0  0
   -8.2421    1.9717   -1.0700 H   0  0  0  0  0  0  0  0  0  0  0  0
   -8.6421    5.0150   -4.9050 H   0  0  0  0  0  0  0  0  0  0  0  0
   -7.6963    5.3469   -3.4414 H   0  0  0  0  0  0  0  0  0  0  0  0
   -8.7068    4.3461   -1.1537 H   0  0  0  0  0  0  0  0  0  0  0  0
  -10.2283    3.4469   -1.3145 H   0  0  0  0  0  0  0  0  0  0  0  0
  -10.6238    6.0885   -3.8766 H   0  0  0  0  0  0  0  0  0  0  0  0
  -11.2926    5.4410   -2.3814 H   0  0  0  0  0  0  0  0  0  0  0  0
   -9.7916    6.3890   -2.3385 H   0  0  0  0  0  0  0  0  0  0  0  0
  1  2  1  0  0  0  0 
  1  3  1  0  0  0  0 
  2  4  2  0  0  0  0 
  2  5  1  0  0  0  0 
  3  6  2  0  0  0  0 
  3  7  1  0  0  0  0 
  4  8  1  0  0  0  0 
  4  9  1  0  0  0  0 
  5 10  1  0  0  0  0 
  5 11  2  0  0  0  0 
  6 12  1  0  0  0  0 
  7 13  1  0  0  0  0 
  7 14  2  0  0  0  0 
  8 15  1  0  0  0  0 
  8 16  2  0  0  0  0 
  9 17  2  0  0  0  0 
 10 18  3  0  0  0  0 
 11 16  1  0  0  0  0 
 12 19  1  0  0  0  0 
 12 20  2  0  0  0  0 
 14 20  1  0  0  0  0 
 15 21  2  0  0  0  0 
 17 21  1  0  0  0  0 
 17 22  1  0  0  0  0 
 19 23  1  0  0  0  0 
 20 24  1  0  0  0  0 
 21 25  1  0  0  0  0 
 22 26  1  0  0  0  0 
 25 27  1  0  0  0  0 
 27 28  1  0  0  0  0 
 28 29  1  0  0  0  0 
 29 30  1  0  0  0  0 
 30 31  1  0  0  0  0 
 30 32  1  0  0  0  0 
 31 33  1  0  0  0  0 
 32 34  1  0  0  0  0 
 33 35  1  0  0  0  0 
 34 35  1  0  0  0  0 
 35 36  1  0  0  0  0 
  1 37  1  0  0  0  0 
  6 38  1  0  0  0  0 
  9 39  1  0  0  0  0 
 11 40  1  0  0  0  0 
 14 41  1  0  0  0  0 
 15 42  1  0  0  0  0 
 23 43  1  0  0  0  0 
 23 44  1  0  0  0  0 
 23 45  1  0  0  0  0 
 26 46  1  0  0  0  0 
 26 47  1  0  0  0  0 
 26 48  1  0  0  0  0 
 27 49  1  0  0  0  0 
 27 50  1  0  0  0  0 
 28 51  1  0  0  0  0 
 28 52  1  0  0  0  0 
 29 53  1  0  0  0  0 
 29 54  1  0  0  0  0 
 31 55  1  0  0  0  0 
 31 56  1  0  0  0  0 
 32 57  1  0  0  0  0 
 32 58  1  0  0  0  0 
 33 59  1  0  0  0  0 
 33 60  1  0  0  0  0 
 34 61  1  0  0  0  0 
 34 62  1  0  0  0  0 
 36 63  1  0  0  0  0 
 36 64  1  0  0  0  0 
 36 65  1  0  0  0  0 
M  END
> <cdk:Title>
bosutinib

> <Conformer>
1

> <SuperDrugID>
SD003517

$$$$
