methyprylon
  CDK     0628171801

 30 30  0  0  0  0  0  0  0  0999 V2000
   -0.7467    1.3605    0.0009 C   0  0  2  0  0  0  0  0  0  0  0  0
   -2.3104    1.3015   -0.0672 C   0  0  1  0  0  0  0  0  0  0  0  0
   -2.9094    0.0173   -0.0981 N   0  0  0  0  0  0  0  0  0  0  0  0
   -2.2530   -1.1595   -0.0540 C   0  0  0  0  0  0  0  0  0  0  0  0
   -0.7631   -1.2939   -0.0026 C   0  0  1  0  0  0  0  0  0  0  0  0
   -0.0636    0.0347    0.0164 C   0  0  0  0  0  0  0  0  0  0  0  0
   -0.3681   -2.1002    1.2948 C   0  0  1  0  0  0  0  0  0  0  0  0
   -0.3010   -2.1039   -1.2776 C   0  0  2  0  0  0  0  0  0  0  0  0
   -0.6414   -1.4776   -2.6582 C   0  0  0  0  0  0  0  0  0  0  0  0
   -0.7386   -1.4576    2.6591 C   0  0  0  0  0  0  0  0  0  0  0  0
   -2.9867   -2.1743   -0.0789 O   0  0  0  0  0  0  0  0  0  0  0  0
    1.1937    0.0434    0.0096 O   0  0  0  0  0  0  0  0  0  0  0  0
   -0.2704    2.2530    1.1853 C   0  0  0  0  0  0  0  0  0  0  0  0
   -0.4095    1.8491   -0.9191 H   0  0  0  0  0  0  0  0  0  0  0  0
   -2.7650    1.8171    0.7807 H   0  0  0  0  0  0  0  0  0  0  0  0
   -2.6534    1.8223   -0.9631 H   0  0  0  0  0  0  0  0  0  0  0  0
   -3.8777   -0.0157   -0.1570 H   0  0  0  0  0  0  0  0  0  0  0  0
   -0.8346   -3.0902    1.2654 H   0  0  0  0  0  0  0  0  0  0  0  0
    0.7133   -2.2708    1.3020 H   0  0  0  0  0  0  0  0  0  0  0  0
   -0.7469   -3.1039   -1.2562 H   0  0  0  0  0  0  0  0  0  0  0  0
    0.7832   -2.2537   -1.2435 H   0  0  0  0  0  0  0  0  0  0  0  0
   -0.2631   -2.1249   -3.4539 H   0  0  0  0  0  0  0  0  0  0  0  0
   -0.1761   -0.4954   -2.7643 H   0  0  0  0  0  0  0  0  0  0  0  0
   -1.7220   -1.3762   -2.7872 H   0  0  0  0  0  0  0  0  0  0  0  0
   -0.4635   -2.1364    3.4700 H   0  0  0  0  0  0  0  0  0  0  0  0
   -1.8104   -1.2632    2.7280 H   0  0  0  0  0  0  0  0  0  0  0  0
   -0.1979   -0.5224    2.8056 H   0  0  0  0  0  0  0  0  0  0  0  0
   -0.6935    3.2560    1.0911 H   0  0  0  0  0  0  0  0  0  0  0  0
    0.8181    2.3491    1.1993 H   0  0  0  0  0  0  0  0  0  0  0  0
   -0.5947    1.8263    2.1374 H   0  0  0  0  0  0  0  0  0  0  0  0
  1  2  1  0  0  0  0 
  2  3  1  0  0  0  0 
  3  4  1  0  0  0  0 
  4  5  1  0  0  0  0 
  5  6  1  0  0  0  0 
  1  6  1  0  0  0  0 
  8  9  1  0  0  0  0 
  7 10  1  0  0  0  0 
  7  5  1  0  0  0  0 
  5  8  1  0  0  0  0 
  4 11  2  0  0  0  0 
  6 12  2  0  0  0  0 
  1 13  1  0  0  0  0 
  1 14  1  0  0  0  0 
  2 15  1  0  0  0  0 
  2 16  1  0  0  0  0 
  3 17  1  0  0  0  0 
  7 18  1  0  0  0  0 
  7 19  1  0  0  0  0 
  8 20  1  0  0  0  0 
  8 21  1  0  0  0  0 
  9 22  1  0  0  0  0 
  9 23  1  0  0  0  0 
  9 24  1  0  0  0  0 
 10 25  1  0  0  0  0 
 10 26  1  0  0  0  0 
 10 27  1  0  0  0  0 
 13 28  1  0  0  0  0 
 13 29  1  0  0  0  0 
 13 30  1  0  0  0  0 
M  END
> <cdk:Title>
methyprylon

> <Conformer>
1

> <SuperDrugID>
SD001574

$$$$
