clostebol
  CDK     0628171801

 49 52  0  0  0  0  0  0  0  0999 V2000
   -3.9271    0.1475    0.0652 C   0  0  0  0  0  0  0  0  0  0  0  0
   -2.7360   -0.1385    1.0539 C   0  0  1  0  0  0  0  0  0  0  0  0
   -3.2684   -0.4385    2.5301 C   0  0  2  0  0  0  0  0  0  0  0  0
   -1.9576   -1.3281    0.5406 C   0  0  0  0  0  0  0  0  0  0  0  0
   -1.8298    1.1615    1.1049 C   0  0  1  0  0  0  0  0  0  0  0  0
   -4.0061   -1.8268    2.6549 C   0  0  2  0  0  0  0  0  0  0  0  0
   -4.1136    0.7103    3.2016 C   0  0  1  0  0  0  0  0  0  0  0  0
   -2.6260   -2.6454    0.6579 C   0  0  2  0  0  0  0  0  0  0  0  0
   -0.7194   -1.2028   -0.0227 C   0  0  0  0  0  0  0  0  0  0  0  0
   -0.9068    1.2844   -0.1251 C   0  0  1  0  0  0  0  0  0  0  0  0
   -4.4023   -2.0837    4.1430 C   0  0  1  0  0  0  0  0  0  0  0  0
   -3.1010   -2.9558    2.0951 C   0  0  2  0  0  0  0  0  0  0  0  0
   -4.6234    0.3752    4.6404 C   0  0  1  0  0  0  0  0  0  0  0  0
    0.2013   -2.5145   -0.5296 Cl  0  0  0  0  0  0  0  0  0  0  0  0
   -0.1200    0.0427   -0.2335 C   0  0  0  0  0  0  0  0  0  0  0  0
   -5.3746   -0.9997    4.7074 C   0  0  1  0  0  0  0  0  0  0  0  0
   -5.0536   -3.4253    4.5485 C   0  0  1  0  0  0  0  0  0  0  0  0
    1.0958    0.1633   -0.5214 O   0  0  0  0  0  0  0  0  0  0  0  0
   -6.7684   -0.8925    3.9745 C   0  0  0  0  0  0  0  0  0  0  0  0
   -5.5822   -1.5855    6.1411 C   0  0  2  0  0  0  0  0  0  0  0  0
   -5.6496   -3.1281    5.9488 C   0  0  2  0  0  0  0  0  0  0  0  0
   -6.7228   -1.0853    6.8337 O   0  0  0  0  0  0  0  0  0  0  0  0
   -4.4030    1.1070    0.2756 H   0  0  0  0  0  0  0  0  0  0  0  0
   -4.7036   -0.6129    0.1278 H   0  0  0  0  0  0  0  0  0  0  0  0
   -3.5827    0.1742   -0.9702 H   0  0  0  0  0  0  0  0  0  0  0  0
   -2.3717   -0.5270    3.1579 H   0  0  0  0  0  0  0  0  0  0  0  0
   -2.4340    2.0713    1.1680 H   0  0  0  0  0  0  0  0  0  0  0  0
   -1.1875    1.1483    1.9922 H   0  0  0  0  0  0  0  0  0  0  0  0
   -4.9169   -1.8235    2.0569 H   0  0  0  0  0  0  0  0  0  0  0  0
   -3.5096    1.6177    3.2752 H   0  0  0  0  0  0  0  0  0  0  0  0
   -4.9738    0.9541    2.5797 H   0  0  0  0  0  0  0  0  0  0  0  0
   -2.0096   -3.4930    0.3605 H   0  0  0  0  0  0  0  0  0  0  0  0
   -3.4855   -2.6638   -0.0149 H   0  0  0  0  0  0  0  0  0  0  0  0
   -1.4993    1.4164   -1.0338 H   0  0  0  0  0  0  0  0  0  0  0  0
   -0.2571    2.1593   -0.0191 H   0  0  0  0  0  0  0  0  0  0  0  0
   -3.4580   -2.0449    4.7074 H   0  0  0  0  0  0  0  0  0  0  0  0
   -3.6600   -3.8951    2.0752 H   0  0  0  0  0  0  0  0  0  0  0  0
   -2.2278   -3.0975    2.7401 H   0  0  0  0  0  0  0  0  0  0  0  0
   -3.7582    0.3628    5.3105 H   0  0  0  0  0  0  0  0  0  0  0  0
   -5.2785    1.1809    4.9877 H   0  0  0  0  0  0  0  0  0  0  0  0
   -5.8371   -3.7092    3.8386 H   0  0  0  0  0  0  0  0  0  0  0  0
   -4.3194   -4.2357    4.5964 H   0  0  0  0  0  0  0  0  0  0  0  0
   -6.6726   -0.6003    2.9299 H   0  0  0  0  0  0  0  0  0  0  0  0
   -7.3119   -1.8374    3.9965 H   0  0  0  0  0  0  0  0  0  0  0  0
   -7.3984   -0.1450    4.4612 H   0  0  0  0  0  0  0  0  0  0  0  0
   -4.7118   -1.3513    6.7615 H   0  0  0  0  0  0  0  0  0  0  0  0
   -5.0666   -3.6290    6.7245 H   0  0  0  0  0  0  0  0  0  0  0  0
   -6.6784   -3.4922    6.0012 H   0  0  0  0  0  0  0  0  0  0  0  0
   -6.7175   -1.5557    7.6946 H   0  0  0  0  0  0  0  0  0  0  0  0
  2  1  1  0  0  0  0 
  3  2  1  0  0  0  0 
  2  4  1  0  0  0  0 
  2  5  1  0  0  0  0 
  3  6  1  0  0  0  0 
  3  7  1  0  0  0  0 
  4  8  1  0  0  0  0 
  4  9  2  0  0  0  0 
  5 10  1  0  0  0  0 
  6 11  1  0  0  0  0 
  6 12  1  0  0  0  0 
  7 13  1  0  0  0  0 
  8 12  1  0  0  0  0 
  9 14  1  0  0  0  0 
  9 15  1  0  0  0  0 
 10 15  1  0  0  0  0 
 11 16  1  0  0  0  0 
 11 17  1  0  0  0  0 
 16 13  1  0  0  0  0 
 15 18  2  0  0  0  0 
 16 19  1  0  0  0  0 
 16 20  1  0  0  0  0 
 17 21  1  0  0  0  0 
 20 21  1  0  0  0  0 
 20 22  1  0  0  0  0 
 23  1  1  0  0  0  0 
 24  1  1  0  0  0  0 
 25  1  1  0  0  0  0 
  3 26  1  0  0  0  0 
 27  5  1  0  0  0  0 
 28  5  1  0  0  0  0 
  6 29  1  0  0  0  0 
 30  7  1  0  0  0  0 
 31  7  1  0  0  0  0 
 32  8  1  0  0  0  0 
 33  8  1  0  0  0  0 
 34 10  1  0  0  0  0 
 35 10  1  0  0  0  0 
 11 36  1  0  0  0  0 
 37 12  1  0  0  0  0 
 38 12  1  0  0  0  0 
 39 13  1  0  0  0  0 
 40 13  1  0  0  0  0 
 41 17  1  0  0  0  0 
 42 17  1  0  0  0  0 
 43 19  1  0  0  0  0 
 44 19  1  0  0  0  0 
 45 19  1  0  0  0  0 
 20 46  1  0  0  0  0 
 47 21  1  0  0  0  0 
 48 21  1  0  0  0  0 
 49 22  1  0  0  0  0 
M  END
> <cdk:Title>
clostebol

> <Conformer>
1

> <SuperDrugID>
SD002699

$$$$
