carfecillin
  CDK     0628171802

 54 57  0  0  0  0  0  0  0  0999 V2000
    4.3568   -2.9424   -5.9121 C   0  0  0  0  0  0  0  0  0  0  0  0
    3.5381   -3.7048   -6.6750 O   0  0  0  0  0  0  0  0  0  0  0  0
    5.4343   -2.5521   -6.4169 O   0  0  0  0  0  0  0  0  0  0  0  0
    3.9687   -2.5785   -4.5283 C   0  0  2  0  0  0  0  0  0  0  0  0
    3.9491   -1.1614   -4.4001 N   0  0  0  0  0  0  0  0  0  0  0  0
    4.9331   -3.0014   -3.3522 C   0  0  2  0  0  0  0  0  0  0  0  0
    5.0600   -0.3422   -4.1156 C   0  0  2  0  0  0  0  0  0  0  0  0
    3.0184   -0.2682   -4.0849 C   0  0  0  0  0  0  0  0  0  0  0  0
    5.9983   -1.5235   -3.0942 S   0  0  0  0  0  0  0  0  0  0  0  0
    4.0128    0.6751   -3.5612 C   0  0  1  0  0  0  0  0  0  0  0  0
    1.7679   -0.3036   -4.0490 O   0  0  0  0  0  0  0  0  0  0  0  0
    3.9401    0.7276   -2.1367 N   0  0  0  0  0  0  0  0  0  0  0  0
    3.0721    1.5003   -1.4338 C   0  0  0  0  0  0  0  0  0  0  0  0
    2.8003    1.1636   -0.0094 C   0  0  2  0  0  0  0  0  0  0  0  0
    2.4219    2.4048   -2.0116 O   0  0  0  0  0  0  0  0  0  0  0  0
    1.4670    0.5042    0.0405 C   0  0  0  0  0  0  0  0  0  0  0  0
    2.9740    2.3441    0.9056 C   0  0  0  0  0  0  0  0  0  0  0  0
    1.2941   -0.6414   -0.6954 O   0  0  0  0  0  0  0  0  0  0  0  0
    0.5427    0.9383    0.7691 O   0  0  0  0  0  0  0  0  0  0  0  0
    2.1203    3.4732    0.8201 C   0  0  0  0  0  0  0  0  0  0  0  0
    3.9949    2.3601    1.8904 C   0  0  0  0  0  0  0  0  0  0  0  0
    0.1563   -1.3494   -0.9795 C   0  0  0  0  0  0  0  0  0  0  0  0
    2.2762    4.5731    1.6820 C   0  0  0  0  0  0  0  0  0  0  0  0
    4.1577    3.4631    2.7508 C   0  0  0  0  0  0  0  0  0  0  0  0
   -1.1265   -0.7573   -1.0441 C   0  0  0  0  0  0  0  0  0  0  0  0
    0.2861   -2.7247   -1.2652 C   0  0  0  0  0  0  0  0  0  0  0  0
    3.2936    4.5674    2.6509 C   0  0  0  0  0  0  0  0  0  0  0  0
   -2.2612   -1.5344   -1.3378 C   0  0  0  0  0  0  0  0  0  0  0  0
   -0.8463   -3.5007   -1.5795 C   0  0  0  0  0  0  0  0  0  0  0  0
   -2.1229   -2.9086   -1.6026 C   0  0  0  0  0  0  0  0  0  0  0  0
    5.5794   -0.0234   -5.0226 H   0  0  0  0  0  0  0  0  0  0  0  0
    5.8144   -4.2523   -3.6372 C   0  0  0  0  0  0  0  0  0  0  0  0
    4.1485   -3.2134   -2.0186 C   0  0  0  0  0  0  0  0  0  0  0  0
    3.7910   -3.9370   -7.5938 H   0  0  0  0  0  0  0  0  0  0  0  0
    2.9666   -2.9775   -4.3482 H   0  0  0  0  0  0  0  0  0  0  0  0
    4.0107    1.6394   -4.0757 H   0  0  0  0  0  0  0  0  0  0  0  0
    4.4776    0.0930   -1.6362 H   0  0  0  0  0  0  0  0  0  0  0  0
    3.5060    0.3835    0.2987 H   0  0  0  0  0  0  0  0  0  0  0  0
    1.3651    3.5007    0.1320 H   0  0  0  0  0  0  0  0  0  0  0  0
    4.6312    1.5657    1.9940 H   0  0  0  0  0  0  0  0  0  0  0  0
    1.6475    5.3751    1.6048 H   0  0  0  0  0  0  0  0  0  0  0  0
    4.9032    3.4620    3.4511 H   0  0  0  0  0  0  0  0  0  0  0  0
   -1.2442    0.2437   -0.8949 H   0  0  0  0  0  0  0  0  0  0  0  0
    1.2056   -3.1721   -1.2390 H   0  0  0  0  0  0  0  0  0  0  0  0
    3.4008    5.3616    3.2847 H   0  0  0  0  0  0  0  0  0  0  0  0
   -3.1851   -1.0995   -1.3666 H   0  0  0  0  0  0  0  0  0  0  0  0
   -0.7394   -4.4949   -1.7897 H   0  0  0  0  0  0  0  0  0  0  0  0
   -2.9483   -3.4746   -1.8146 H   0  0  0  0  0  0  0  0  0  0  0  0
    6.4620   -4.0894   -4.4993 H   0  0  0  0  0  0  0  0  0  0  0  0
    5.1830   -5.1217   -3.8344 H   0  0  0  0  0  0  0  0  0  0  0  0
    6.4561   -4.4746   -2.7827 H   0  0  0  0  0  0  0  0  0  0  0  0
    3.5572   -2.3305   -1.7638 H   0  0  0  0  0  0  0  0  0  0  0  0
    3.4687   -4.0610   -2.1117 H   0  0  0  0  0  0  0  0  0  0  0  0
    4.8290   -3.4196   -1.1881 H   0  0  0  0  0  0  0  0  0  0  0  0
  1  2  1  0  0  0  0 
  1  3  2  0  0  0  0 
  4  1  1  0  0  0  0 
  4  5  1  0  0  0  0 
  4  6  1  0  0  0  0 
  7  5  1  0  0  0  0 
  5  8  1  0  0  0  0 
  6  9  1  0  0  0  0 
  7  9  1  0  0  0  0 
 10  7  1  0  0  0  0 
  7 31  1  0  0  0  0 
 10  8  1  0  0  0  0 
  8 11  2  0  0  0  0 
 10 12  1  0  0  0  0 
 12 13  1  0  0  0  0 
 13 14  1  0  0  0  0 
 13 15  2  0  0  0  0 
 14 16  1  0  0  0  0 
 14 17  1  0  0  0  0 
 16 18  1  0  0  0  0 
 16 19  2  0  0  0  0 
 17 20  2  0  0  0  0 
 17 21  1  0  0  0  0 
 18 22  1  0  0  0  0 
 20 23  1  0  0  0  0 
 21 24  2  0  0  0  0 
 22 25  2  0  0  0  0 
 22 26  1  0  0  0  0 
 23 27  2  0  0  0  0 
 24 27  1  0  0  0  0 
 25 28  1  0  0  0  0 
 26 29  2  0  0  0  0 
 28 30  2  0  0  0  0 
 29 30  1  0  0  0  0 
  6 32  1  0  0  0  0 
  6 33  1  0  0  0  0 
  2 34  1  0  0  0  0 
  4 35  1  0  0  0  0 
 10 36  1  0  0  0  0 
 12 37  1  0  0  0  0 
 14 38  1  0  0  0  0 
 20 39  1  0  0  0  0 
 21 40  1  0  0  0  0 
 23 41  1  0  0  0  0 
 24 42  1  0  0  0  0 
 25 43  1  0  0  0  0 
 26 44  1  0  0  0  0 
 27 45  1  0  0  0  0 
 28 46  1  0  0  0  0 
 29 47  1  0  0  0  0 
 30 48  1  0  0  0  0 
 32 49  1  0  0  0  0 
 32 50  1  0  0  0  0 
 32 51  1  0  0  0  0 
 33 52  1  0  0  0  0 
 33 53  1  0  0  0  0 
 33 54  1  0  0  0  0 
M  END
> <cdk:Title>
carfecillin

> <Conformer>
1

> <SuperDrugID>
SD000437

$$$$
