somatostatin
  CDK     0628171801

219224  0  0  0  0  0  0  0  0999 V2000
   -8.3140  -12.8448   -5.9244 H   0  0  0  0  0  0  0  0  0  0  0  0
   -8.1891  -12.1150   -6.6292 N   0  0  1  0  0  0  0  0  0  0  0  0
  -10.9904  -11.2240   -7.1266 N   0  0  0  0  0  0  0  0  0  0  0  0
  -12.0528   -8.9970   -5.4481 N   0  0  0  0  0  0  0  0  0  0  0  0
  -10.6822   -6.3987   -6.5347 N   0  0  0  0  0  0  0  0  0  0  0  0
   -7.8796   -7.0567   -4.5594 N   0  0  0  0  0  0  0  0  0  0  0  0
   -4.7874   -7.9420   -3.3779 N   0  0  0  0  0  0  0  0  0  0  0  0
   -2.0655   -9.0396   -1.3837 N   0  0  0  0  0  0  0  0  0  0  0  0
   -1.5248   -9.7488    1.3831 N   0  0  0  0  0  0  0  0  0  0  0  0
   -1.0224   -8.9273    4.4228 N   0  0  0  0  0  0  0  0  0  0  0  0
   -3.9465   -8.2661    2.7705 N   0  0  0  0  0  0  0  0  0  0  0  0
   -7.4994   -7.9351    2.9418 N   0  0  0  0  0  0  0  0  0  0  0  0
   -9.9639   -9.4688    2.0524 N   0  0  0  0  0  0  0  0  0  0  0  0
  -12.9095   -9.9846    2.3416 N   0  0  0  0  0  0  0  0  0  0  0  0
  -14.9694   -9.5250    0.5043 N   0  0  0  0  0  0  0  0  0  0  0  0
  -15.6010  -10.2111   -2.2412 O   0  0  0  0  0  0  0  0  0  0  0  0
  -10.4344  -12.4316   -7.4206 C   0  0  0  0  0  0  0  0  0  0  0  0
   -8.5249  -13.8590   -8.3401 C   0  0  0  0  0  0  0  0  0  0  0  0
   -9.0016  -12.4881   -7.7951 C   0  0  2  0  0  0  0  0  0  0  0  0
  -11.1294  -13.4762   -7.3803 O   0  0  0  0  0  0  0  0  0  0  0  0
  -12.6514   -9.6142   -6.5044 C   0  0  0  0  0  0  0  0  0  0  0  0
  -12.3606  -11.0331   -6.7772 C   0  0  1  0  0  0  0  0  0  0  0  0
  -13.4730   -9.0076   -7.2323 O   0  0  0  0  0  0  0  0  0  0  0  0
  -11.9163   -6.6113   -5.9890 C   0  0  0  0  0  0  0  0  0  0  0  0
  -12.4180   -5.9947   -2.7172 S   0  0  0  0  0  0  0  0  0  0  0  0
  -11.6854   -7.4073   -3.6093 C   0  0  2  0  0  0  0  0  0  0  0  0
  -12.3185   -7.6597   -5.0066 C   0  0  2  0  0  0  0  0  0  0  0  0
  -12.7951   -5.8044   -6.3700 O   0  0  0  0  0  0  0  0  0  0  0  0
   -8.4730   -6.4290   -5.6098 C   0  0  0  0  0  0  0  0  0  0  0  0
   -7.2761   -8.7925   -9.3160 C   0  0  2  0  0  0  0  0  0  0  0  0
   -7.7213   -8.4471   -7.8702 C   0  0  1  0  0  0  0  0  0  0  0  0
   -8.9503   -7.4937   -7.8404 C   0  0  1  0  0  0  0  0  0  0  0  0
   -9.4802   -7.1737   -6.4106 C   0  0  2  0  0  0  0  0  0  0  0  0
   -5.6778  -10.0111  -10.7570 N   0  0  2  0  0  0  0  0  0  0  0  0
   -6.0555   -9.7411   -9.3650 C   0  0  1  0  0  0  0  0  0  0  0  0
   -8.1565   -5.2574   -5.9267 O   0  0  0  0  0  0  0  0  0  0  0  0
   -6.1303   -7.7504   -3.1750 C   0  0  0  0  0  0  0  0  0  0  0  0
   -7.4276   -5.6634   -2.5770 C   0  0  1  0  0  0  0  0  0  0  0  0
   -6.4302   -5.2075   -1.5811 C   0  0  0  0  0  0  0  0  0  0  0  0
   -5.4954   -4.2946   -1.8991 N   0  0  0  0  0  0  0  0  0  0  0  0
   -6.4428   -5.6579   -0.4127 O   0  0  0  0  0  0  0  0  0  0  0  0
   -6.8339   -6.5564   -3.7102 C   0  0  2  0  0  0  0  0  0  0  0  0
   -6.8170   -8.5961   -2.5505 O   0  0  0  0  0  0  0  0  0  0  0  0
   -2.6024   -8.6847   -2.6528 C   0  0  0  0  0  0  0  0  0  0  0  0
   -4.0424  -10.1630   -4.1276 C   0  0  1  0  0  0  0  0  0  0  0  0
   -4.1138  -11.5570   -3.6013 C   0  0  0  0  0  0  0  0  0  0  0  0
   -5.3112  -12.3057   -3.7010 C   0  0  0  0  0  0  0  0  0  0  0  0
   -5.4059  -13.5881   -3.1313 C   0  0  0  0  0  0  0  0  0  0  0  0
   -4.3042  -14.1420   -2.4563 C   0  0  0  0  0  0  0  0  0  0  0  0
   -3.1011  -13.4198   -2.3685 C   0  0  0  0  0  0  0  0  0  0  0  0
   -3.0045  -12.1376   -2.9412 C   0  0  0  0  0  0  0  0  0  0  0  0
   -4.0390   -9.1060   -2.9676 C   0  0  2  0  0  0  0  0  0  0  0  0
   -1.9110   -8.0714   -3.4989 O   0  0  0  0  0  0  0  0  0  0  0  0
   -0.5793   -9.7193    0.3968 C   0  0  0  0  0  0  0  0  0  0  0  0
   -0.5833   -7.3136   -0.3000 C   0  0  2  0  0  0  0  0  0  0  0  0
   -0.5772   -6.3244   -1.4137 C   0  0  0  0  0  0  0  0  0  0  0  0
    0.5105   -6.2571   -2.3175 C   0  0  0  0  0  0  0  0  0  0  0  0
    0.4848   -5.3619   -3.4043 C   0  0  0  0  0  0  0  0  0  0  0  0
   -0.6201   -4.5114   -3.5892 C   0  0  0  0  0  0  0  0  0  0  0  0
   -1.6923   -4.5478   -2.6819 C   0  0  0  0  0  0  0  0  0  0  0  0
   -1.6711   -5.4465   -1.6023 C   0  0  0  0  0  0  0  0  0  0  0  0
   -0.7453   -8.7925   -0.7592 C   0  0  2  0  0  0  0  0  0  0  0  0
    0.4283  -10.4628    0.4368 O   0  0  0  0  0  0  0  0  0  0  0  0
   -0.7500  -10.0290    3.6474 C   0  0  0  0  0  0  0  0  0  0  0  0
   -1.5260  -12.1197    2.2700 C   0  0  2  0  0  0  0  0  0  0  0  0
   -1.4561  -13.0516    3.4307 C   0  0  0  0  0  0  0  0  0  0  0  0
   -0.6168  -14.1691    3.4633 C   0  0  0  0  0  0  0  0  0  0  0  0
   -0.7589  -14.8237    4.6232 N   0  0  0  0  0  0  0  0  0  0  0  0
   -1.6692  -14.1852    5.3645 C   0  0  0  0  0  0  0  0  0  0  0  0
   -2.1459  -13.0785    4.6528 C   0  0  0  0  0  0  0  0  0  0  0  0
   -3.1397  -12.2600    5.2305 C   0  0  0  0  0  0  0  0  0  0  0  0
   -3.6050  -12.5505    6.5306 C   0  0  0  0  0  0  0  0  0  0  0  0
   -3.1086  -13.6677    7.2356 C   0  0  0  0  0  0  0  0  0  0  0  0
   -2.1338  -14.5032    6.6528 C   0  0  0  0  0  0  0  0  0  0  0  0
   -1.5903  -10.5816    2.5544 C   0  0  2  0  0  0  0  0  0  0  0  0
    0.3308  -10.6009    3.9164 O   0  0  0  0  0  0  0  0  0  0  0  0
   -3.4503   -8.3734    4.0405 C   0  0  0  0  0  0  0  0  0  0  0  0
   -1.8522   -4.0967    3.2091 C   0  0  2  0  0  0  0  0  0  0  0  0
   -2.5005   -5.5047    3.3403 C   0  0  1  0  0  0  0  0  0  0  0  0
   -1.5029   -6.6758    3.6021 C   0  0  1  0  0  0  0  0  0  0  0  0
   -2.0621   -7.9200    4.3685 C   0  0  2  0  0  0  0  0  0  0  0  0
   -0.2865   -2.5698    2.0611 N   0  0  2  0  0  0  0  0  0  0  0  0
   -0.7665   -3.9548    2.1136 C   0  0  1  0  0  0  0  0  0  0  0  0
   -4.1321   -8.8634    4.9693 O   0  0  0  0  0  0  0  0  0  0  0  0
   -6.4195   -8.7530    3.0914 C   0  0  0  0  0  0  0  0  0  0  0  0
   -6.1838   -9.4935    0.1514 O   0  0  0  0  0  0  0  0  0  0  0  0
   -5.2383   -8.5647    2.2010 C   0  0  2  0  0  0  0  0  0  0  0  0
   -5.2056  -11.1530    1.5812 C   0  0  0  0  0  0  0  0  0  0  0  0
   -5.1391   -9.6778    1.1065 C   0  0  1  0  0  0  0  0  0  0  0  0
   -6.4484   -9.7021    3.9087 O   0  0  0  0  0  0  0  0  0  0  0  0
   -9.8129   -8.2306    2.6156 C   0  0  0  0  0  0  0  0  0  0  0  0
   -8.8983   -6.7203    4.4952 C   0  0  1  0  0  0  0  0  0  0  0  0
   -9.9944   -6.7902    5.5029 C   0  0  0  0  0  0  0  0  0  0  0  0
   -9.8390   -7.5956    6.6579 C   0  0  0  0  0  0  0  0  0  0  0  0
  -10.8532   -7.6658    7.6302 C   0  0  0  0  0  0  0  0  0  0  0  0
  -12.0421   -6.9348    7.4610 C   0  0  0  0  0  0  0  0  0  0  0  0
  -12.2085   -6.1211    6.3255 C   0  0  0  0  0  0  0  0  0  0  0  0
  -11.1929   -6.0507    5.3519 C   0  0  0  0  0  0  0  0  0  0  0  0
   -8.7513   -8.0157    3.6365 C   0  0  2  0  0  0  0  0  0  0  0  0
  -10.5510   -7.2790    2.2646 O   0  0  0  0  0  0  0  0  0  0  0  0
  -12.0097  -10.6183    1.5352 C   0  0  0  0  0  0  0  0  0  0  0  0
  -11.0409  -10.7631   -1.2680 O   0  0  0  0  0  0  0  0  0  0  0  0
  -10.8759   -9.8219    0.9969 C   0  0  2  0  0  0  0  0  0  0  0  0
   -9.2592  -11.6921    0.0570 C   0  0  0  0  0  0  0  0  0  0  0  0
  -10.1201  -10.4371   -0.2265 C   0  0  1  0  0  0  0  0  0  0  0  0
  -12.2063  -11.8042    1.1776 O   0  0  0  0  0  0  0  0  0  0  0  0
  -15.1100   -9.5007    1.8587 C   0  0  0  0  0  0  0  0  0  0  0  0
  -14.4873  -10.4673    4.1612 C   0  0  1  0  0  0  0  0  0  0  0  0
  -15.7786  -11.0024    4.4370 O   0  0  0  0  0  0  0  0  0  0  0  0
  -14.2452  -10.4291    2.6311 C   0  0  2  0  0  0  0  0  0  0  0  0
  -15.8670   -8.6766    2.4242 O   0  0  0  0  0  0  0  0  0  0  0  0
  -16.1690   -9.2276   -1.5004 C   0  0  0  0  0  0  0  0  0  0  0  0
  -14.3795   -6.6310   -2.2905 S   0  0  0  0  0  0  0  0  0  0  0  0
  -14.1100   -7.8614   -0.9764 C   0  0  1  0  0  0  0  0  0  0  0  0
  -15.4008   -8.5412   -0.4392 C   0  0  2  0  0  0  0  0  0  0  0  0
  -17.3584   -8.9160   -1.7369 O   0  0  0  0  0  0  0  0  0  0  0  0
   -7.2093  -12.1458   -6.9196 H   0  0  0  0  0  0  0  0  0  0  0  0
  -10.4196  -10.4411   -7.1662 H   0  0  0  0  0  0  0  0  0  0  0  0
  -11.4100   -9.5155   -4.9382 H   0  0  0  0  0  0  0  0  0  0  0  0
  -10.6124   -5.6226   -7.1134 H   0  0  0  0  0  0  0  0  0  0  0  0
   -8.2022   -7.9501   -4.3648 H   0  0  0  0  0  0  0  0  0  0  0  0
   -4.3137   -7.2510   -3.8685 H   0  0  0  0  0  0  0  0  0  0  0  0
   -2.6621   -9.5480   -0.7892 H   0  0  0  0  0  0  0  0  0  0  0  0
   -2.2432   -9.1101    1.2815 H   0  0  0  0  0  0  0  0  0  0  0  0
   -0.3642   -8.7647    5.1162 H   0  0  0  0  0  0  0  0  0  0  0  0
   -3.3162   -7.9105    2.1271 H   0  0  0  0  0  0  0  0  0  0  0  0
   -7.4126   -7.2266    2.2854 H   0  0  0  0  0  0  0  0  0  0  0  0
   -9.3896  -10.1735    2.3889 H   0  0  0  0  0  0  0  0  0  0  0  0
  -12.6644   -9.1027    2.6655 H   0  0  0  0  0  0  0  0  0  0  0  0
  -14.4469  -10.2582    0.1423 H   0  0  0  0  0  0  0  0  0  0  0  0
  -16.1168  -10.6636   -2.9427 H   0  0  0  0  0  0  0  0  0  0  0  0
   -9.1148  -14.1429   -9.2149 H   0  0  0  0  0  0  0  0  0  0  0  0
   -8.6282  -14.6360   -7.5784 H   0  0  0  0  0  0  0  0  0  0  0  0
   -7.4758  -13.8016   -8.6391 H   0  0  0  0  0  0  0  0  0  0  0  0
   -8.8273  -11.7463   -8.5780 H   0  0  0  0  0  0  0  0  0  0  0  0
  -12.9898  -11.3940   -7.5965 H   0  0  0  0  0  0  0  0  0  0  0  0
  -12.5993  -11.6160   -5.8836 H   0  0  0  0  0  0  0  0  0  0  0  0
  -11.7969   -8.2928   -2.9846 H   0  0  0  0  0  0  0  0  0  0  0  0
  -10.6154   -7.2213   -3.6994 H   0  0  0  0  0  0  0  0  0  0  0  0
  -13.4026   -7.6142   -4.8679 H   0  0  0  0  0  0  0  0  0  0  0  0
   -7.0223   -7.8682   -9.8416 H   0  0  0  0  0  0  0  0  0  0  0  0
   -8.1081   -9.2663   -9.8438 H   0  0  0  0  0  0  0  0  0  0  0  0
   -7.9778   -9.3693   -7.3449 H   0  0  0  0  0  0  0  0  0  0  0  0
   -6.8860   -7.9773   -7.3446 H   0  0  0  0  0  0  0  0  0  0  0  0
   -8.6906   -6.5598   -8.3492 H   0  0  0  0  0  0  0  0  0  0  0  0
   -9.7597   -7.9611   -8.4093 H   0  0  0  0  0  0  0  0  0  0  0  0
   -9.6879   -8.1300   -5.9266 H   0  0  0  0  0  0  0  0  0  0  0  0
   -6.4678  -10.4904  -11.1952 H   0  0  0  0  0  0  0  0  0  0  0  0
   -4.9002  -10.6749  -10.7374 H   0  0  0  0  0  0  0  0  0  0  0  0
   -5.2020   -9.2853   -8.8592 H   0  0  0  0  0  0  0  0  0  0  0  0
   -6.2897  -10.6885   -8.8750 H   0  0  0  0  0  0  0  0  0  0  0  0
   -8.2232   -6.2147   -2.0654 H   0  0  0  0  0  0  0  0  0  0  0  0
   -7.8884   -4.7785   -3.0237 H   0  0  0  0  0  0  0  0  0  0  0  0
   -4.8543   -4.0026   -1.2303 H   0  0  0  0  0  0  0  0  0  0  0  0
   -5.4654   -3.9207   -2.7933 H   0  0  0  0  0  0  0  0  0  0  0  0
   -6.1346   -5.9609   -4.3067 H   0  0  0  0  0  0  0  0  0  0  0  0
   -3.1585  -10.0628   -4.7654 H   0  0  0  0  0  0  0  0  0  0  0  0
   -4.8991   -9.9760   -4.7830 H   0  0  0  0  0  0  0  0  0  0  0  0
   -6.1292  -11.9179   -4.1786 H   0  0  0  0  0  0  0  0  0  0  0  0
   -6.2781  -14.1153   -3.2042 H   0  0  0  0  0  0  0  0  0  0  0  0
   -4.3777  -15.0690   -2.0322 H   0  0  0  0  0  0  0  0  0  0  0  0
   -2.2978  -13.8261   -1.8854 H   0  0  0  0  0  0  0  0  0  0  0  0
   -2.1203  -11.6283   -2.8662 H   0  0  0  0  0  0  0  0  0  0  0  0
   -4.6245   -9.5718   -2.1101 H   0  0  0  0  0  0  0  0  0  0  0  0
   -1.4020   -7.0852    0.3854 H   0  0  0  0  0  0  0  0  0  0  0  0
    0.3468   -7.1994    0.2654 H   0  0  0  0  0  0  0  0  0  0  0  0
    1.3240   -6.8665   -2.1960 H   0  0  0  0  0  0  0  0  0  0  0  0
    1.2659   -5.3298   -4.0630 H   0  0  0  0  0  0  0  0  0  0  0  0
   -0.6491   -3.8699   -4.3832 H   0  0  0  0  0  0  0  0  0  0  0  0
   -2.4902   -3.9246   -2.8113 H   0  0  0  0  0  0  0  0  0  0  0  0
   -2.4695   -5.4636   -0.9627 H   0  0  0  0  0  0  0  0  0  0  0  0
    0.0197   -9.0161   -1.5089 H   0  0  0  0  0  0  0  0  0  0  0  0
   -2.4104  -12.3992    1.6926 H   0  0  0  0  0  0  0  0  0  0  0  0
   -0.6703  -12.3234    1.6262 H   0  0  0  0  0  0  0  0  0  0  0  0
    0.0121  -14.4541    2.7121 H   0  0  0  0  0  0  0  0  0  0  0  0
   -0.2812  -15.6271    4.8852 H   0  0  0  0  0  0  0  0  0  0  0  0
   -3.5288  -11.4671    4.7312 H   0  0  0  0  0  0  0  0  0  0  0  0
   -4.3066  -11.9471    6.9703 H   0  0  0  0  0  0  0  0  0  0  0  0
   -3.4557  -13.8720    8.1761 H   0  0  0  0  0  0  0  0  0  0  0  0
   -1.7740  -15.3158    7.1591 H   0  0  0  0  0  0  0  0  0  0  0  0
   -2.5961  -10.4634    2.9048 H   0  0  0  0  0  0  0  0  0  0  0  0
   -1.4141   -3.8198    4.1697 H   0  0  0  0  0  0  0  0  0  0  0  0
   -2.6498   -3.3803    2.9914 H   0  0  0  0  0  0  0  0  0  0  0  0
   -3.2186   -5.4503    4.1616 H   0  0  0  0  0  0  0  0  0  0  0  0
   -3.0619   -5.7087    2.4244 H   0  0  0  0  0  0  0  0  0  0  0  0
   -1.0923   -7.0019    2.6493 H   0  0  0  0  0  0  0  0  0  0  0  0
   -0.6610   -6.2881    4.1819 H   0  0  0  0  0  0  0  0  0  0  0  0
   -2.1319   -7.5661    5.4040 H   0  0  0  0  0  0  0  0  0  0  0  0
   -1.0841   -1.9822    1.8108 H   0  0  0  0  0  0  0  0  0  0  0  0
    0.3894   -2.5076    1.2956 H   0  0  0  0  0  0  0  0  0  0  0  0
    0.0833   -4.6008    2.3359 H   0  0  0  0  0  0  0  0  0  0  0  0
   -1.1674   -4.2259    1.1367 H   0  0  0  0  0  0  0  0  0  0  0  0
   -6.0007  -10.1523   -0.5507 H   0  0  0  0  0  0  0  0  0  0  0  0
   -5.4211   -7.6422    1.6409 H   0  0  0  0  0  0  0  0  0  0  0  0
   -4.8072  -11.8096    0.8013 H   0  0  0  0  0  0  0  0  0  0  0  0
   -4.6305  -11.3049    2.4874 H   0  0  0  0  0  0  0  0  0  0  0  0
   -6.2351  -11.4491    1.7918 H   0  0  0  0  0  0  0  0  0  0  0  0
   -4.2035   -9.5395    0.5634 H   0  0  0  0  0  0  0  0  0  0  0  0
   -9.0276   -5.8593    3.8336 H   0  0  0  0  0  0  0  0  0  0  0  0
   -7.9644   -6.5427    5.0359 H   0  0  0  0  0  0  0  0  0  0  0  0
   -8.9805   -8.1349    6.8019 H   0  0  0  0  0  0  0  0  0  0  0  0
  -10.7252   -8.2497    8.4603 H   0  0  0  0  0  0  0  0  0  0  0  0
  -12.7843   -6.9959    8.1629 H   0  0  0  0  0  0  0  0  0  0  0  0
  -13.0711   -5.5820    6.2087 H   0  0  0  0  0  0  0  0  0  0  0  0
  -11.3373   -5.4564    4.5316 H   0  0  0  0  0  0  0  0  0  0  0  0
   -8.7678   -8.8759    4.3139 H   0  0  0  0  0  0  0  0  0  0  0  0
  -11.5075   -9.9282   -1.4736 H   0  0  0  0  0  0  0  0  0  0  0  0
  -11.3370   -8.9160    0.5924 H   0  0  0  0  0  0  0  0  0  0  0  0
   -8.5007  -11.4761    0.8078 H   0  0  0  0  0  0  0  0  0  0  0  0
   -9.8706  -12.5244    0.4061 H   0  0  0  0  0  0  0  0  0  0  0  0
   -8.7513  -12.0038   -0.8598 H   0  0  0  0  0  0  0  0  0  0  0  0
   -9.4523   -9.6720   -0.6303 H   0  0  0  0  0  0  0  0  0  0  0  0
  -14.4071   -9.4699    4.5975 H   0  0  0  0  0  0  0  0  0  0  0  0
  -13.7443  -11.1125    4.6340 H   0  0  0  0  0  0  0  0  0  0  0  0
  -15.8183  -11.0889    5.4122 H   0  0  0  0  0  0  0  0  0  0  0  0
  -14.4239  -11.4411    2.2552 H   0  0  0  0  0  0  0  0  0  0  0  0
  -13.4380   -8.6260   -1.3676 H   0  0  0  0  0  0  0  0  0  0  0  0
  -13.6017   -7.3556   -0.1524 H   0  0  0  0  0  0  0  0  0  0  0  0
  -16.0260   -7.7768    0.0332 H   0  0  0  0  0  0  0  0  0  0  0  0
  1  2  1  0  0  0  0 
 17  3  1  0  0  0  0 
 21  4  1  0  0  0  0 
 24  5  1  0  0  0  0 
 29  6  1  0  0  0  0 
 37  7  1  0  0  0  0 
 44  8  1  0  0  0  0 
 54  9  1  0  0  0  0 
 64 10  1  0  0  0  0 
 77 11  1  0  0  0  0 
 85 12  1  0  0  0  0 
 91 13  1  0  0  0  0 
101 14  1  0  0  0  0 
107 15  1  0  0  0  0 
112 16  1  0  0  0  0 
 25113  1  0  0  0  0 
 18 19  1  0  0  0  0 
 19  2  1  0  0  0  0 
 19 17  1  0  0  0  0 
 17 20  2  0  0  0  0 
  3 22  1  0  0  0  0 
 22 21  1  0  0  0  0 
 21 23  2  0  0  0  0 
 27  4  1  0  0  0  0 
 27 26  1  0  0  0  0 
 26 25  1  0  0  0  0 
 27 24  1  0  0  0  0 
 24 28  2  0  0  0  0 
 34 35  1  0  0  0  0 
 35 30  1  0  0  0  0 
 30 31  1  0  0  0  0 
 31 32  1  0  0  0  0 
 32 33  1  0  0  0  0 
 33  5  1  0  0  0  0 
 33 29  1  0  0  0  0 
 29 36  2  0  0  0  0 
 42  6  1  0  0  0  0 
 42 38  1  0  0  0  0 
 38 39  1  0  0  0  0 
 39 40  1  0  0  0  0 
 39 41  2  0  0  0  0 
 42 37  1  0  0  0  0 
 37 43  2  0  0  0  0 
 52  7  1  0  0  0  0 
 52 45  1  0  0  0  0 
 45 46  1  0  0  0  0 
 46 47  2  0  0  0  0 
 47 48  1  0  0  0  0 
 48 49  2  0  0  0  0 
 49 50  1  0  0  0  0 
 50 51  2  0  0  0  0 
 46 51  1  0  0  0  0 
 52 44  1  0  0  0  0 
 44 53  2  0  0  0  0 
 62  8  1  0  0  0  0 
 62 55  1  0  0  0  0 
 55 56  1  0  0  0  0 
 56 57  2  0  0  0  0 
 57 58  1  0  0  0  0 
 58 59  2  0  0  0  0 
 59 60  1  0  0  0  0 
 60 61  2  0  0  0  0 
 56 61  1  0  0  0  0 
 62 54  1  0  0  0  0 
 54 63  2  0  0  0  0 
 75  9  1  0  0  0  0 
 75 65  1  0  0  0  0 
 65 66  1  0  0  0  0 
 66 67  2  0  0  0  0 
 67 68  1  0  0  0  0 
 68 69  1  0  0  0  0 
 69 70  1  0  0  0  0 
 66 70  1  0  0  0  0 
 70 71  2  0  0  0  0 
 71 72  1  0  0  0  0 
 72 73  2  0  0  0  0 
 73 74  1  0  0  0  0 
 69 74  2  0  0  0  0 
 75 64  1  0  0  0  0 
 64 76  2  0  0  0  0 
 82 83  1  0  0  0  0 
 83 78  1  0  0  0  0 
 78 79  1  0  0  0  0 
 79 80  1  0  0  0  0 
 80 81  1  0  0  0  0 
 81 10  1  0  0  0  0 
 81 77  1  0  0  0  0 
 77 84  2  0  0  0  0 
 88 89  1  0  0  0  0 
 89 86  1  0  0  0  0 
 89 87  1  0  0  0  0 
 87 11  1  0  0  0  0 
 87 85  1  0  0  0  0 
 85 90  2  0  0  0  0 
 99 12  1  0  0  0  0 
 99 92  1  0  0  0  0 
 92 93  1  0  0  0  0 
 93 94  2  0  0  0  0 
 94 95  1  0  0  0  0 
 95 96  2  0  0  0  0 
 96 97  1  0  0  0  0 
 97 98  2  0  0  0  0 
 93 98  1  0  0  0  0 
 99 91  1  0  0  0  0 
 91100  2  0  0  0  0 
104105  1  0  0  0  0 
105102  1  0  0  0  0 
105103  1  0  0  0  0 
103 13  1  0  0  0  0 
103101  1  0  0  0  0 
101106  2  0  0  0  0 
110 14  1  0  0  0  0 
110108  1  0  0  0  0 
108109  1  0  0  0  0 
110107  1  0  0  0  0 
107111  2  0  0  0  0 
115 15  1  0  0  0  0 
115114  1  0  0  0  0 
114113  1  0  0  0  0 
115112  1  0  0  0  0 
112116  2  0  0  0  0 
  2117  1  0  0  0  0 
  3118  1  0  0  0  0 
  4119  1  0  0  0  0 
  5120  1  0  0  0  0 
  6121  1  0  0  0  0 
  7122  1  0  0  0  0 
  8123  1  0  0  0  0 
  9124  1  0  0  0  0 
 10125  1  0  0  0  0 
 11126  1  0  0  0  0 
 12127  1  0  0  0  0 
 13128  1  0  0  0  0 
 14129  1  0  0  0  0 
 15130  1  0  0  0  0 
 16131  1  0  0  0  0 
 18132  1  0  0  0  0 
 18133  1  0  0  0  0 
 18134  1  0  0  0  0 
 19135  1  0  0  0  0 
 22136  1  0  0  0  0 
 22137  1  0  0  0  0 
 26138  1  0  0  0  0 
 26139  1  0  0  0  0 
 27140  1  0  0  0  0 
 30141  1  0  0  0  0 
 30142  1  0  0  0  0 
 31143  1  0  0  0  0 
 31144  1  0  0  0  0 
 32145  1  0  0  0  0 
 32146  1  0  0  0  0 
 33147  1  0  0  0  0 
 34148  1  0  0  0  0 
 34149  1  0  0  0  0 
 35150  1  0  0  0  0 
 35151  1  0  0  0  0 
 38152  1  0  0  0  0 
 38153  1  0  0  0  0 
 40154  1  0  0  0  0 
 40155  1  0  0  0  0 
 42156  1  0  0  0  0 
 45157  1  0  0  0  0 
 45158  1  0  0  0  0 
 47159  1  0  0  0  0 
 48160  1  0  0  0  0 
 49161  1  0  0  0  0 
 50162  1  0  0  0  0 
 51163  1  0  0  0  0 
 52164  1  0  0  0  0 
 55165  1  0  0  0  0 
 55166  1  0  0  0  0 
 57167  1  0  0  0  0 
 58168  1  0  0  0  0 
 59169  1  0  0  0  0 
 60170  1  0  0  0  0 
 61171  1  0  0  0  0 
 62172  1  0  0  0  0 
 65173  1  0  0  0  0 
 65174  1  0  0  0  0 
 67175  1  0  0  0  0 
 68176  1  0  0  0  0 
 71177  1  0  0  0  0 
 72178  1  0  0  0  0 
 73179  1  0  0  0  0 
 74180  1  0  0  0  0 
 75181  1  0  0  0  0 
 78182  1  0  0  0  0 
 78183  1  0  0  0  0 
 79184  1  0  0  0  0 
 79185  1  0  0  0  0 
 80186  1  0  0  0  0 
 80187  1  0  0  0  0 
 81188  1  0  0  0  0 
 82189  1  0  0  0  0 
 82190  1  0  0  0  0 
 83191  1  0  0  0  0 
 83192  1  0  0  0  0 
 86193  1  0  0  0  0 
 87194  1  0  0  0  0 
 88195  1  0  0  0  0 
 88196  1  0  0  0  0 
 88197  1  0  0  0  0 
 89198  1  0  0  0  0 
 92199  1  0  0  0  0 
 92200  1  0  0  0  0 
 94201  1  0  0  0  0 
 95202  1  0  0  0  0 
 96203  1  0  0  0  0 
 97204  1  0  0  0  0 
 98205  1  0  0  0  0 
 99206  1  0  0  0  0 
102207  1  0  0  0  0 
103208  1  0  0  0  0 
104209  1  0  0  0  0 
104210  1  0  0  0  0 
104211  1  0  0  0  0 
105212  1  0  0  0  0 
108213  1  0  0  0  0 
108214  1  0  0  0  0 
109215  1  0  0  0  0 
110216  1  0  0  0  0 
114217  1  0  0  0  0 
114218  1  0  0  0  0 
115219  1  0  0  0  0 
M  END
> <cdk:Title>
somatostatin

> <Conformer>
1

> <SuperDrugID>
SD002611

$$$$
