procaterol
  CDK     0628171801

 43 44  0  0  0  0  0  0  0  0999 V2000
    0.0613   -0.1642    0.7291 C   0  0  1  0  0  0  0  0  0  0  0  0
    0.6076   -1.0945   -0.4068 C   0  0  2  0  0  0  0  0  0  0  0  0
   -0.3704   -0.9185    1.8656 O   0  0  0  0  0  0  0  0  0  0  0  0
    1.0919    0.8260    1.1777 C   0  0  0  0  0  0  0  0  0  0  0  0
    1.0550   -0.3155   -1.5965 N   0  0  2  0  0  0  0  0  0  0  0  0
   -0.4861   -2.0941   -0.8901 C   0  0  1  0  0  0  0  0  0  0  0  0
    1.0916    2.2169    0.8405 C   0  0  0  0  0  0  0  0  0  0  0  0
    2.1677    0.3143    1.9476 C   0  0  0  0  0  0  0  0  0  0  0  0
    2.4875    0.0516   -1.7915 C   0  0  1  0  0  0  0  0  0  0  0  0
   -0.0113   -3.0688   -1.9936 C   0  0  0  0  0  0  0  0  0  0  0  0
    2.1546    3.0477    1.3143 C   0  0  0  0  0  0  0  0  0  0  0  0
    0.1153    2.8482    0.0232 C   0  0  0  0  0  0  0  0  0  0  0  0
    3.2155    1.1358    2.3800 C   0  0  0  0  0  0  0  0  0  0  0  0
    3.4506   -1.1663   -1.8742 C   0  0  0  0  0  0  0  0  0  0  0  0
    2.5523    0.8750   -3.1028 C   0  0  0  0  0  0  0  0  0  0  0  0
    3.2107    2.5022    2.0718 C   0  0  0  0  0  0  0  0  0  0  0  0
    2.1789    4.3772    1.0219 N   0  0  0  0  0  0  0  0  0  0  0  0
    0.1814    4.2217   -0.2690 C   0  0  0  0  0  0  0  0  0  0  0  0
    4.2426    3.2753    2.4948 O   0  0  0  0  0  0  0  0  0  0  0  0
    1.2361    4.9778    0.2585 C   0  0  0  0  0  0  0  0  0  0  0  0
    1.3259    6.2045    0.0253 O   0  0  0  0  0  0  0  0  0  0  0  0
   -0.8465    0.3235    0.3788 H   0  0  0  0  0  0  0  0  0  0  0  0
    1.4307   -1.6880   -0.0040 H   0  0  0  0  0  0  0  0  0  0  0  0
   -1.1025   -1.4825    1.5407 H   0  0  0  0  0  0  0  0  0  0  0  0
    0.5000    0.5425   -1.6243 H   0  0  0  0  0  0  0  0  0  0  0  0
   -0.8167   -2.7034   -0.0457 H   0  0  0  0  0  0  0  0  0  0  0  0
   -1.3529   -1.5376   -1.2600 H   0  0  0  0  0  0  0  0  0  0  0  0
    2.2072   -0.6779    2.1968 H   0  0  0  0  0  0  0  0  0  0  0  0
    2.8218    0.6989   -0.9788 H   0  0  0  0  0  0  0  0  0  0  0  0
   -0.7963   -3.7980   -2.2068 H   0  0  0  0  0  0  0  0  0  0  0  0
    0.2142   -2.5273   -2.9135 H   0  0  0  0  0  0  0  0  0  0  0  0
    0.8812   -3.6069   -1.6691 H   0  0  0  0  0  0  0  0  0  0  0  0
   -0.6584    2.3331   -0.3915 H   0  0  0  0  0  0  0  0  0  0  0  0
    3.9857    0.7361    2.9189 H   0  0  0  0  0  0  0  0  0  0  0  0
    3.5958   -1.6089   -0.8881 H   0  0  0  0  0  0  0  0  0  0  0  0
    4.4332   -0.8618   -2.2437 H   0  0  0  0  0  0  0  0  0  0  0  0
    3.0509   -1.9280   -2.5465 H   0  0  0  0  0  0  0  0  0  0  0  0
    1.9054    1.7517   -3.0307 H   0  0  0  0  0  0  0  0  0  0  0  0
    3.5707    1.2170   -3.2973 H   0  0  0  0  0  0  0  0  0  0  0  0
    2.2225    0.2692   -3.9505 H   0  0  0  0  0  0  0  0  0  0  0  0
    2.9059    4.9177    1.3690 H   0  0  0  0  0  0  0  0  0  0  0  0
   -0.5249    4.6649   -0.8616 H   0  0  0  0  0  0  0  0  0  0  0  0
    4.9554    2.6473    2.7405 H   0  0  0  0  0  0  0  0  0  0  0  0
  2  1  1  0  0  0  0 
  1  3  1  0  0  0  0 
  1  4  1  0  0  0  0 
  2  5  1  0  0  0  0 
  2  6  1  0  0  0  0 
  4  7  2  0  0  0  0 
  4  8  1  0  0  0  0 
  5  9  1  0  0  0  0 
  6 10  1  0  0  0  0 
  7 11  1  0  0  0  0 
  7 12  1  0  0  0  0 
  8 13  2  0  0  0  0 
  9 14  1  0  0  0  0 
  9 15  1  0  0  0  0 
 11 16  2  0  0  0  0 
 11 17  1  0  0  0  0 
 12 18  2  0  0  0  0 
 13 16  1  0  0  0  0 
 16 19  1  0  0  0  0 
 17 20  1  0  0  0  0 
 18 20  1  0  0  0  0 
 20 21  2  0  0  0  0 
  1 22  1  0  0  0  0 
  2 23  1  0  0  0  0 
  3 24  1  0  0  0  0 
  5 25  1  0  0  0  0 
  6 26  1  0  0  0  0 
  6 27  1  0  0  0  0 
  8 28  1  0  0  0  0 
  9 29  1  0  0  0  0 
 10 30  1  0  0  0  0 
 10 31  1  0  0  0  0 
 10 32  1  0  0  0  0 
 12 33  1  0  0  0  0 
 13 34  1  0  0  0  0 
 14 35  1  0  0  0  0 
 14 36  1  0  0  0  0 
 14 37  1  0  0  0  0 
 15 38  1  0  0  0  0 
 15 39  1  0  0  0  0 
 15 40  1  0  0  0  0 
 17 41  1  0  0  0  0 
 18 42  1  0  0  0  0 
 19 43  1  0  0  0  0 
M  END
> <cdk:Title>
procaterol

> <Conformer>
1

> <SuperDrugID>
SD002039

$$$$
