phenolphthalol
  CDK     0628171801

 41 43  0  0  0  0  0  0  0  0999 V2000
   -0.4271    1.5770   -0.2805 C   0  0  2  0  0  0  0  0  0  0  0  0
    0.7964    0.6980   -0.0738 C   0  0  0  0  0  0  0  0  0  0  0  0
   -0.5141    2.2504   -1.6348 C   0  0  0  0  0  0  0  0  0  0  0  0
   -0.7565    2.4690    0.9004 C   0  0  0  0  0  0  0  0  0  0  0  0
    0.7334   -0.7344    0.0770 C   0  0  0  0  0  0  0  0  0  0  0  0
    2.0866    1.2908   -0.0094 C   0  0  0  0  0  0  0  0  0  0  0  0
    0.3299    3.3192   -2.0375 C   0  0  0  0  0  0  0  0  0  0  0  0
   -1.4915    1.8262   -2.5809 C   0  0  0  0  0  0  0  0  0  0  0  0
    0.0515    3.5644    1.3076 C   0  0  0  0  0  0  0  0  0  0  0  0
   -1.9247    2.2240    1.6785 C   0  0  0  0  0  0  0  0  0  0  0  0
   -0.5336   -1.5200    0.0131 C   0  0  2  0  0  0  0  0  0  0  0  0
    1.9254   -1.4741    0.2908 C   0  0  0  0  0  0  0  0  0  0  0  0
    3.2544    0.5442    0.2031 C   0  0  0  0  0  0  0  0  0  0  0  0
    0.1911    3.9468   -3.2892 C   0  0  0  0  0  0  0  0  0  0  0  0
   -1.6386    2.4504   -3.8328 C   0  0  0  0  0  0  0  0  0  0  0  0
   -0.2610    4.3426    2.4373 C   0  0  0  0  0  0  0  0  0  0  0  0
   -2.2451    2.9999    2.8081 C   0  0  0  0  0  0  0  0  0  0  0  0
   -1.0632   -1.4631   -1.3068 O   0  0  0  0  0  0  0  0  0  0  0  0
    3.1740   -0.8433    0.3547 C   0  0  0  0  0  0  0  0  0  0  0  0
   -0.8005    3.5188   -4.1883 C   0  0  0  0  0  0  0  0  0  0  0  0
   -1.4092    4.0591    3.1960 C   0  0  0  0  0  0  0  0  0  0  0  0
   -0.9565    4.1171   -5.3954 O   0  0  0  0  0  0  0  0  0  0  0  0
   -1.7203    4.7938    4.2933 O   0  0  0  0  0  0  0  0  0  0  0  0
   -1.2617    0.8870   -0.3021 H   0  0  0  0  0  0  0  0  0  0  0  0
    2.2149    2.2907   -0.1138 H   0  0  0  0  0  0  0  0  0  0  0  0
    1.0643    3.6706   -1.4331 H   0  0  0  0  0  0  0  0  0  0  0  0
   -2.1204    1.0470   -2.3686 H   0  0  0  0  0  0  0  0  0  0  0  0
    0.8875    3.8246    0.7961 H   0  0  0  0  0  0  0  0  0  0  0  0
   -2.5662    1.4654    1.4312 H   0  0  0  0  0  0  0  0  0  0  0  0
   -1.2602   -1.1300    0.7278 H   0  0  0  0  0  0  0  0  0  0  0  0
   -0.3939   -2.5753    0.2592 H   0  0  0  0  0  0  0  0  0  0  0  0
    1.9025   -2.4916    0.4011 H   0  0  0  0  0  0  0  0  0  0  0  0
    4.1636    1.0112    0.2477 H   0  0  0  0  0  0  0  0  0  0  0  0
    0.8138    4.7175   -3.5426 H   0  0  0  0  0  0  0  0  0  0  0  0
   -2.3588    2.1259   -4.4834 H   0  0  0  0  0  0  0  0  0  0  0  0
    0.3524    5.1154    2.7060 H   0  0  0  0  0  0  0  0  0  0  0  0
   -3.0878    2.7896    3.3484 H   0  0  0  0  0  0  0  0  0  0  0  0
   -1.9264   -1.9227   -1.2523 H   0  0  0  0  0  0  0  0  0  0  0  0
    4.0221   -1.3912    0.5101 H   0  0  0  0  0  0  0  0  0  0  0  0
   -0.2988    4.8418   -5.4231 H   0  0  0  0  0  0  0  0  0  0  0  0
   -1.0117    5.4649    4.3766 H   0  0  0  0  0  0  0  0  0  0  0  0
  1  2  1  0  0  0  0 
  1  3  1  0  0  0  0 
  1  4  1  0  0  0  0 
  2  5  2  0  0  0  0 
  2  6  1  0  0  0  0 
  3  7  2  0  0  0  0 
  3  8  1  0  0  0  0 
  4  9  2  0  0  0  0 
  4 10  1  0  0  0  0 
  5 11  1  0  0  0  0 
  5 12  1  0  0  0  0 
  6 13  2  0  0  0  0 
  7 14  1  0  0  0  0 
  8 15  2  0  0  0  0 
  9 16  1  0  0  0  0 
 10 17  2  0  0  0  0 
 11 18  1  0  0  0  0 
 12 19  2  0  0  0  0 
 13 19  1  0  0  0  0 
 14 20  2  0  0  0  0 
 15 20  1  0  0  0  0 
 16 21  2  0  0  0  0 
 17 21  1  0  0  0  0 
 20 22  1  0  0  0  0 
 21 23  1  0  0  0  0 
  1 24  1  0  0  0  0 
  6 25  1  0  0  0  0 
  7 26  1  0  0  0  0 
  8 27  1  0  0  0  0 
  9 28  1  0  0  0  0 
 10 29  1  0  0  0  0 
 11 30  1  0  0  0  0 
 11 31  1  0  0  0  0 
 12 32  1  0  0  0  0 
 13 33  1  0  0  0  0 
 14 34  1  0  0  0  0 
 15 35  1  0  0  0  0 
 16 36  1  0  0  0  0 
 17 37  1  0  0  0  0 
 18 38  1  0  0  0  0 
 19 39  1  0  0  0  0 
 22 40  1  0  0  0  0 
 23 41  1  0  0  0  0 
M  END
> <cdk:Title>
phenolphthalol

> <Conformer>
1

> <SuperDrugID>
SD002962

$$$$
