pheneturide
  CDK     0628171801

 29 29  0  0  0  0  0  0  0  0999 V2000
    2.1011   -0.2722    1.9891 C   0  0  2  0  0  0  0  0  0  0  0  0
    0.7588   -0.7107    1.5098 C   0  0  0  0  0  0  0  0  0  0  0  0
    2.8711   -1.3289    2.8518 C   0  0  1  0  0  0  0  0  0  0  0  0
    2.0058    1.0647    2.6683 C   0  0  0  0  0  0  0  0  0  0  0  0
   -0.1639   -1.2480    2.3620 N   0  0  0  0  0  0  0  0  0  0  0  0
    0.5084   -0.5757    0.2871 O   0  0  0  0  0  0  0  0  0  0  0  0
    3.2120   -2.6530    2.1270 C   0  0  0  0  0  0  0  0  0  0  0  0
    1.5012    1.2016    3.9872 C   0  0  0  0  0  0  0  0  0  0  0  0
    2.4426    2.2412    2.0071 C   0  0  0  0  0  0  0  0  0  0  0  0
   -1.4113   -1.6925    2.0474 C   0  0  0  0  0  0  0  0  0  0  0  0
    1.4709    2.4527    4.6306 C   0  0  0  0  0  0  0  0  0  0  0  0
    2.4027    3.4960    2.6433 C   0  0  0  0  0  0  0  0  0  0  0  0
   -2.1759   -2.2238    3.0139 N   0  0  0  0  0  0  0  0  0  0  0  0
   -1.8977   -1.6380    0.8945 O   0  0  0  0  0  0  0  0  0  0  0  0
    1.9243    3.6003    3.9598 C   0  0  0  0  0  0  0  0  0  0  0  0
    2.7265   -0.1449    1.0963 H   0  0  0  0  0  0  0  0  0  0  0  0
    3.8184   -0.8864    3.1751 H   0  0  0  0  0  0  0  0  0  0  0  0
    2.3057   -1.5788    3.7522 H   0  0  0  0  0  0  0  0  0  0  0  0
    0.1017   -1.3355    3.2897 H   0  0  0  0  0  0  0  0  0  0  0  0
    3.7502   -2.4556    1.1983 H   0  0  0  0  0  0  0  0  0  0  0  0
    3.8461   -3.2678    2.7698 H   0  0  0  0  0  0  0  0  0  0  0  0
    2.3067   -3.2176    1.9022 H   0  0  0  0  0  0  0  0  0  0  0  0
    1.1591    0.3897    4.5025 H   0  0  0  0  0  0  0  0  0  0  0  0
    2.7970    2.1959    1.0493 H   0  0  0  0  0  0  0  0  0  0  0  0
    1.1214    2.5273    5.5886 H   0  0  0  0  0  0  0  0  0  0  0  0
    2.7243    4.3326    2.1504 H   0  0  0  0  0  0  0  0  0  0  0  0
   -3.0672   -2.5442    2.8034 H   0  0  0  0  0  0  0  0  0  0  0  0
   -1.8435   -2.2877    3.9223 H   0  0  0  0  0  0  0  0  0  0  0  0
    1.9067    4.5099    4.4264 H   0  0  0  0  0  0  0  0  0  0  0  0
  1  2  1  0  0  0  0 
  1  3  1  0  0  0  0 
  1  4  1  0  0  0  0 
  2  5  1  0  0  0  0 
  2  6  2  0  0  0  0 
  3  7  1  0  0  0  0 
  4  8  2  0  0  0  0 
  4  9  1  0  0  0  0 
  5 10  1  0  0  0  0 
  8 11  1  0  0  0  0 
  9 12  2  0  0  0  0 
 10 13  1  0  0  0  0 
 10 14  2  0  0  0  0 
 11 15  2  0  0  0  0 
 12 15  1  0  0  0  0 
  1 16  1  0  0  0  0 
  3 17  1  0  0  0  0 
  3 18  1  0  0  0  0 
  5 19  1  0  0  0  0 
  7 20  1  0  0  0  0 
  7 21  1  0  0  0  0 
  7 22  1  0  0  0  0 
  8 23  1  0  0  0  0 
  9 24  1  0  0  0  0 
 11 25  1  0  0  0  0 
 12 26  1  0  0  0  0 
 13 27  1  0  0  0  0 
 13 28  1  0  0  0  0 
 15 29  1  0  0  0  0 
M  END
> <cdk:Title>
pheneturide

> <Conformer>
1

> <SuperDrugID>
SD001905

$$$$
