nicametate
  CDK     0628171801

 34 34  0  0  0  0  0  0  0  0999 V2000
    2.8120   -0.7014    0.1285 C   0  0  0  0  0  0  0  0  0  0  0  0
    2.5149   -1.9954    0.4604 O   0  0  0  0  0  0  0  0  0  0  0  0
    4.0154   -0.3662   -0.0042 O   0  0  0  0  0  0  0  0  0  0  0  0
    1.7700    0.2448   -0.0714 C   0  0  0  0  0  0  0  0  0  0  0  0
    3.4598   -3.0576    0.6240 C   0  0  2  0  0  0  0  0  0  0  0  0
    0.4105   -0.1116    0.1095 C   0  0  0  0  0  0  0  0  0  0  0  0
    2.0374    1.5785   -0.4704 C   0  0  0  0  0  0  0  0  0  0  0  0
    2.7419   -4.3836    0.9737 C   0  0  2  0  0  0  0  0  0  0  0  0
   -0.6174    0.8234   -0.1005 C   0  0  0  0  0  0  0  0  0  0  0  0
    1.0251    2.4632   -0.6621 N   0  0  0  0  0  0  0  0  0  0  0  0
    3.5889   -5.6198    0.8358 N   0  0  1  0  0  0  0  0  0  0  0  0
   -0.2783    2.1290   -0.4924 C   0  0  0  0  0  0  0  0  0  0  0  0
    3.7399   -6.0794   -0.5896 C   0  0  1  0  0  0  0  0  0  0  0  0
    4.8595   -5.6149    1.6407 C   0  0  1  0  0  0  0  0  0  0  0  0
    4.2291   -7.5377   -0.7531 C   0  0  0  0  0  0  0  0  0  0  0  0
    4.6534   -5.4010    3.1585 C   0  0  0  0  0  0  0  0  0  0  0  0
    4.1544   -2.7919    1.4227 H   0  0  0  0  0  0  0  0  0  0  0  0
    4.0207   -3.1768   -0.3036 H   0  0  0  0  0  0  0  0  0  0  0  0
    0.1535   -1.0601    0.3955 H   0  0  0  0  0  0  0  0  0  0  0  0
    2.9935    1.9040   -0.6291 H   0  0  0  0  0  0  0  0  0  0  0  0
    1.8469   -4.4735    0.3522 H   0  0  0  0  0  0  0  0  0  0  0  0
    2.3730   -4.3160    1.9987 H   0  0  0  0  0  0  0  0  0  0  0  0
   -1.5968    0.5587    0.0319 H   0  0  0  0  0  0  0  0  0  0  0  0
   -1.0050    2.8281   -0.6508 H   0  0  0  0  0  0  0  0  0  0  0  0
    2.7692   -6.0289   -1.0915 H   0  0  0  0  0  0  0  0  0  0  0  0
    4.4207   -5.4215   -1.1365 H   0  0  0  0  0  0  0  0  0  0  0  0
    5.3672   -6.5746    1.5424 H   0  0  0  0  0  0  0  0  0  0  0  0
    5.5450   -4.8530    1.2607 H   0  0  0  0  0  0  0  0  0  0  0  0
    5.3035   -7.6043   -0.5773 H   0  0  0  0  0  0  0  0  0  0  0  0
    3.7127   -8.1953   -0.0534 H   0  0  0  0  0  0  0  0  0  0  0  0
    4.0342   -7.8894   -1.7679 H   0  0  0  0  0  0  0  0  0  0  0  0
    5.5836   -5.6008    3.6906 H   0  0  0  0  0  0  0  0  0  0  0  0
    3.8836   -6.0761    3.5347 H   0  0  0  0  0  0  0  0  0  0  0  0
    4.3576   -4.3740    3.3722 H   0  0  0  0  0  0  0  0  0  0  0  0
  1  2  1  0  0  0  0 
  1  3  2  0  0  0  0 
  1  4  1  0  0  0  0 
  2  5  1  0  0  0  0 
  4  6  2  0  0  0  0 
  4  7  1  0  0  0  0 
  5  8  1  0  0  0  0 
  6  9  1  0  0  0  0 
  7 10  2  0  0  0  0 
  8 11  1  0  0  0  0 
  9 12  2  0  0  0  0 
 10 12  1  0  0  0  0 
 11 13  1  0  0  0  0 
 11 14  1  0  0  0  0 
 13 15  1  0  0  0  0 
 14 16  1  0  0  0  0 
  5 17  1  0  0  0  0 
  5 18  1  0  0  0  0 
  6 19  1  0  0  0  0 
  7 20  1  0  0  0  0 
  8 21  1  0  0  0  0 
  8 22  1  0  0  0  0 
  9 23  1  0  0  0  0 
 12 24  1  0  0  0  0 
 13 25  1  0  0  0  0 
 13 26  1  0  0  0  0 
 14 27  1  0  0  0  0 
 14 28  1  0  0  0  0 
 15 29  1  0  0  0  0 
 15 30  1  0  0  0  0 
 15 31  1  0  0  0  0 
 16 32  1  0  0  0  0 
 16 33  1  0  0  0  0 
 16 34  1  0  0  0  0 
M  END
> <cdk:Title>
nicametate

> <Conformer>
1

> <SuperDrugID>
SD003235

$$$$
