betamethasone dipropionate
  CDK     0628171801

 73 76  0  0  0  0  0  0  0  0999 V2000
   -4.3375   -9.8587   -4.6466 C   0  0  0  0  0  0  0  0  0  0  0  0
   -5.6073  -10.2369   -3.9731 C   0  0  2  0  0  0  0  0  0  0  0  0
   -4.4317   -9.8294   -5.8938 O   0  0  0  0  0  0  0  0  0  0  0  0
   -3.0514   -9.4719   -3.9479 C   0  0  2  0  0  0  0  0  0  0  0  0
   -5.5077  -10.5805   -2.5828 O   0  0  0  0  0  0  0  0  0  0  0  0
   -2.7757  -10.5451   -3.0119 O   0  0  0  0  0  0  0  0  0  0  0  0
   -3.1577   -8.1055   -3.1411 C   0  0  2  0  0  0  0  0  0  0  0  0
   -1.7082   -9.2754   -4.7988 C   0  0  1  0  0  0  0  0  0  0  0  0
   -6.5645  -10.8772   -1.7649 C   0  0  0  0  0  0  0  0  0  0  0  0
   -2.5609  -11.8753   -3.2607 C   0  0  0  0  0  0  0  0  0  0  0  0
   -3.8564   -7.0112   -4.0458 C   0  0  0  0  0  0  0  0  0  0  0  0
   -1.6467   -7.8227   -2.8419 C   0  0  1  0  0  0  0  0  0  0  0  0
   -3.8894   -8.1548   -1.7473 C   0  0  2  0  0  0  0  0  0  0  0  0
   -1.7539   -9.1991   -6.3516 C   0  0  0  0  0  0  0  0  0  0  0  0
   -0.9752   -8.0287   -4.2114 C   0  0  2  0  0  0  0  0  0  0  0  0
   -6.3487  -11.1351   -0.3277 C   0  0  1  0  0  0  0  0  0  0  0  0
   -7.7290  -10.9453   -2.2277 O   0  0  0  0  0  0  0  0  0  0  0  0
   -2.1810  -12.7625   -2.1521 C   0  0  2  0  0  0  0  0  0  0  0  0
   -2.6556  -12.3467   -4.4200 O   0  0  0  0  0  0  0  0  0  0  0  0
   -1.3690   -6.5120   -2.0181 C   0  0  1  0  0  0  0  0  0  0  0  0
   -3.6298   -6.9205   -0.8250 C   0  0  1  0  0  0  0  0  0  0  0  0
   -7.1320  -10.1545    0.5775 C   0  0  0  0  0  0  0  0  0  0  0  0
   -0.7154  -13.2357   -2.2834 C   0  0  0  0  0  0  0  0  0  0  0  0
   -2.1013   -6.5881   -0.6148 C   0  0  1  0  0  0  0  0  0  0  0  0
    0.1600   -6.2496   -1.8415 C   0  0  1  0  0  0  0  0  0  0  0  0
   -4.3615   -5.8050   -1.3246 O   0  0  0  0  0  0  0  0  0  0  0  0
   -1.5907   -7.6966    0.0527 F   0  0  0  0  0  0  0  0  0  0  0  0
   -1.7728   -5.3371    0.3275 C   0  0  2  0  0  0  0  0  0  0  0  0
    0.4651   -5.0695   -0.8859 C   0  0  2  0  0  0  0  0  0  0  0  0
   -2.3682   -3.9613   -0.1498 C   0  0  0  0  0  0  0  0  0  0  0  0
   -0.2794   -5.1898    0.3752 C   0  0  0  0  0  0  0  0  0  0  0  0
   -2.3612   -5.5554    1.6757 C   0  0  0  0  0  0  0  0  0  0  0  0
    0.3893   -5.2022    1.5513 C   0  0  0  0  0  0  0  0  0  0  0  0
   -1.6316   -5.5773    2.8026 C   0  0  0  0  0  0  0  0  0  0  0  0
   -0.2654   -5.3757    2.7593 C   0  0  0  0  0  0  0  0  0  0  0  0
    0.3902   -5.3558    3.8270 O   0  0  0  0  0  0  0  0  0  0  0  0
   -6.0459  -11.0930   -4.4966 H   0  0  0  0  0  0  0  0  0  0  0  0
   -6.2884   -9.3878   -4.0689 H   0  0  0  0  0  0  0  0  0  0  0  0
   -1.0406  -10.1240   -4.6067 H   0  0  0  0  0  0  0  0  0  0  0  0
   -3.6742   -5.9977   -3.7024 H   0  0  0  0  0  0  0  0  0  0  0  0
   -3.5163   -7.0533   -5.0782 H   0  0  0  0  0  0  0  0  0  0  0  0
   -4.9376   -7.1591   -4.0623 H   0  0  0  0  0  0  0  0  0  0  0  0
   -1.2490   -8.6353   -2.2176 H   0  0  0  0  0  0  0  0  0  0  0  0
   -3.5820   -9.0458   -1.1941 H   0  0  0  0  0  0  0  0  0  0  0  0
   -4.9678   -8.2339   -1.8944 H   0  0  0  0  0  0  0  0  0  0  0  0
   -0.7621   -8.9674   -6.7463 H   0  0  0  0  0  0  0  0  0  0  0  0
   -2.4415   -8.4266   -6.6957 H   0  0  0  0  0  0  0  0  0  0  0  0
   -2.0555  -10.1621   -6.7685 H   0  0  0  0  0  0  0  0  0  0  0  0
   -1.1116   -7.1379   -4.8295 H   0  0  0  0  0  0  0  0  0  0  0  0
    0.0995   -8.2103   -4.1129 H   0  0  0  0  0  0  0  0  0  0  0  0
   -6.6687  -12.1580   -0.1113 H   0  0  0  0  0  0  0  0  0  0  0  0
   -5.2841  -11.0599   -0.0907 H   0  0  0  0  0  0  0  0  0  0  0  0
   -2.8502  -13.6258   -2.1419 H   0  0  0  0  0  0  0  0  0  0  0  0
   -2.2959  -12.2334   -1.2029 H   0  0  0  0  0  0  0  0  0  0  0  0
   -1.7591   -5.6581   -2.5734 H   0  0  0  0  0  0  0  0  0  0  0  0
   -4.0811   -7.1626    0.1406 H   0  0  0  0  0  0  0  0  0  0  0  0
   -6.9692  -10.4057    1.6274 H   0  0  0  0  0  0  0  0  0  0  0  0
   -6.8043   -9.1245    0.4127 H   0  0  0  0  0  0  0  0  0  0  0  0
   -8.2028  -10.2211    0.3729 H   0  0  0  0  0  0  0  0  0  0  0  0
   -0.4487  -13.8570   -1.4269 H   0  0  0  0  0  0  0  0  0  0  0  0
   -0.5805  -13.8285   -3.1903 H   0  0  0  0  0  0  0  0  0  0  0  0
   -0.0348  -12.3810   -2.3165 H   0  0  0  0  0  0  0  0  0  0  0  0
    0.6501   -7.1482   -1.4545 H   0  0  0  0  0  0  0  0  0  0  0  0
    0.6069   -6.0237   -2.8149 H   0  0  0  0  0  0  0  0  0  0  0  0
   -5.2936   -6.1052   -1.3719 H   0  0  0  0  0  0  0  0  0  0  0  0
    0.2075   -4.1266   -1.3720 H   0  0  0  0  0  0  0  0  0  0  0  0
    1.5492   -5.0470   -0.7295 H   0  0  0  0  0  0  0  0  0  0  0  0
   -2.1393   -3.7601   -1.1959 H   0  0  0  0  0  0  0  0  0  0  0  0
   -1.9590   -3.1386    0.4447 H   0  0  0  0  0  0  0  0  0  0  0  0
   -3.4535   -3.9146   -0.0381 H   0  0  0  0  0  0  0  0  0  0  0  0
   -3.3433   -5.6867    1.7646 H   0  0  0  0  0  0  0  0  0  0  0  0
    1.3775   -5.0933    1.5679 H   0  0  0  0  0  0  0  0  0  0  0  0
   -2.0824   -5.7350    3.6754 H   0  0  0  0  0  0  0  0  0  0  0  0
  1  2  1  0  0  0  0 
  1  3  2  0  0  0  0 
  4  1  1  0  0  0  0 
  2  5  1  0  0  0  0 
  4  6  1  0  0  0  0 
  7  4  1  0  0  0  0 
  4  8  1  0  0  0  0 
  5  9  1  0  0  0  0 
  6 10  1  0  0  0  0 
  7 11  1  0  0  0  0 
 12  7  1  0  0  0  0 
  7 13  1  0  0  0  0 
  8 14  1  0  0  0  0 
  8 15  1  0  0  0  0 
  9 16  1  0  0  0  0 
  9 17  2  0  0  0  0 
 10 18  1  0  0  0  0 
 10 19  2  0  0  0  0 
 12 15  1  0  0  0  0 
 20 12  1  0  0  0  0 
 21 13  1  0  0  0  0 
 16 22  1  0  0  0  0 
 18 23  1  0  0  0  0 
 24 20  1  0  0  0  0 
 20 25  1  0  0  0  0 
 24 21  1  0  0  0  0 
 21 26  1  0  0  0  0 
 24 27  1  0  0  0  0 
 24 28  1  0  0  0  0 
 25 29  1  0  0  0  0 
 28 30  1  0  0  0  0 
 28 31  1  0  0  0  0 
 28 32  1  0  0  0  0 
 29 31  1  0  0  0  0 
 31 33  2  0  0  0  0 
 32 34  2  0  0  0  0 
 33 35  1  0  0  0  0 
 34 35  1  0  0  0  0 
 35 36  2  0  0  0  0 
 37  2  1  0  0  0  0 
 38  2  1  0  0  0  0 
  8 39  1  0  0  0  0 
 40 11  1  0  0  0  0 
 41 11  1  0  0  0  0 
 42 11  1  0  0  0  0 
 12 43  1  0  0  0  0 
 44 13  1  0  0  0  0 
 45 13  1  0  0  0  0 
 46 14  1  0  0  0  0 
 47 14  1  0  0  0  0 
 48 14  1  0  0  0  0 
 49 15  1  0  0  0  0 
 50 15  1  0  0  0  0 
 51 16  1  0  0  0  0 
 52 16  1  0  0  0  0 
 53 18  1  0  0  0  0 
 54 18  1  0  0  0  0 
 20 55  1  0  0  0  0 
 21 56  1  0  0  0  0 
 57 22  1  0  0  0  0 
 58 22  1  0  0  0  0 
 59 22  1  0  0  0  0 
 60 23  1  0  0  0  0 
 61 23  1  0  0  0  0 
 62 23  1  0  0  0  0 
 63 25  1  0  0  0  0 
 64 25  1  0  0  0  0 
 65 26  1  0  0  0  0 
 66 29  1  0  0  0  0 
 67 29  1  0  0  0  0 
 68 30  1  0  0  0  0 
 69 30  1  0  0  0  0 
 70 30  1  0  0  0  0 
 71 32  1  0  0  0  0 
 72 33  1  0  0  0  0 
 73 34  1  0  0  0  0 
M  END
> <cdk:Title>
betamethasone dipropionate

> <Conformer>
1

> <SuperDrugID>
SD000298

$$$$
