dichlorophen
  CDK     0628171802

 27 28  0  0  0  0  0  0  0  0999 V2000
    2.2355    0.3770    2.2246 C   0  0  2  0  0  0  0  0  0  0  0  0
    2.6295    1.7086    1.6817 C   0  0  0  0  0  0  0  0  0  0  0  0
    0.8331    0.0345    1.8516 C   0  0  0  0  0  0  0  0  0  0  0  0
    2.5477    2.8929    2.4610 C   0  0  0  0  0  0  0  0  0  0  0  0
    3.0866    1.8093    0.3449 C   0  0  0  0  0  0  0  0  0  0  0  0
   -0.2589    0.2774    2.7264 C   0  0  0  0  0  0  0  0  0  0  0  0
    0.5686   -0.5374    0.5831 C   0  0  0  0  0  0  0  0  0  0  0  0
    2.1052    2.8595    3.7459 O   0  0  0  0  0  0  0  0  0  0  0  0
    2.9262    4.1324    1.9075 C   0  0  0  0  0  0  0  0  0  0  0  0
    3.4578    3.0492   -0.2063 C   0  0  0  0  0  0  0  0  0  0  0  0
   -0.0674    0.8348    3.9514 O   0  0  0  0  0  0  0  0  0  0  0  0
   -1.5698   -0.0577    2.3328 C   0  0  0  0  0  0  0  0  0  0  0  0
   -0.7421   -0.8649    0.1909 C   0  0  0  0  0  0  0  0  0  0  0  0
    3.3876    4.2107    0.5832 C   0  0  0  0  0  0  0  0  0  0  0  0
    3.9809    3.1420   -1.8135 Cl  0  0  0  0  0  0  0  0  0  0  0  0
   -1.8111   -0.6343    1.0749 C   0  0  0  0  0  0  0  0  0  0  0  0
   -1.0302   -1.5282   -1.3396 Cl  0  0  0  0  0  0  0  0  0  0  0  0
    2.3624    0.3508    3.3093 H   0  0  0  0  0  0  0  0  0  0  0  0
    2.9171   -0.3926    1.8485 H   0  0  0  0  0  0  0  0  0  0  0  0
    3.1510    0.9724   -0.2382 H   0  0  0  0  0  0  0  0  0  0  0  0
    1.3365   -0.7186   -0.0666 H   0  0  0  0  0  0  0  0  0  0  0  0
    1.9461    3.7912    4.0093 H   0  0  0  0  0  0  0  0  0  0  0  0
    2.8650    4.9848    2.4684 H   0  0  0  0  0  0  0  0  0  0  0  0
   -0.9554    1.0871    4.2837 H   0  0  0  0  0  0  0  0  0  0  0  0
   -2.3556    0.1195    2.9621 H   0  0  0  0  0  0  0  0  0  0  0  0
    3.6682    5.1154    0.1992 H   0  0  0  0  0  0  0  0  0  0  0  0
   -2.7663   -0.8812    0.8078 H   0  0  0  0  0  0  0  0  0  0  0  0
  1  2  1  0  0  0  0 
  1  3  1  0  0  0  0 
  2  4  2  0  0  0  0 
  2  5  1  0  0  0  0 
  3  6  2  0  0  0  0 
  3  7  1  0  0  0  0 
  4  8  1  0  0  0  0 
  4  9  1  0  0  0  0 
  5 10  2  0  0  0  0 
  6 11  1  0  0  0  0 
  6 12  1  0  0  0  0 
  7 13  2  0  0  0  0 
  9 14  2  0  0  0  0 
 10 14  1  0  0  0  0 
 10 15  1  0  0  0  0 
 12 16  2  0  0  0  0 
 13 16  1  0  0  0  0 
 13 17  1  0  0  0  0 
  1 18  1  0  0  0  0 
  1 19  1  0  0  0  0 
  5 20  1  0  0  0  0 
  7 21  1  0  0  0  0 
  8 22  1  0  0  0  0 
  9 23  1  0  0  0  0 
 11 24  1  0  0  0  0 
 12 25  1  0  0  0  0 
 14 26  1  0  0  0  0 
 16 27  1  0  0  0  0 
M  END
> <cdk:Title>
dichlorophen

> <Conformer>
1

> <SuperDrugID>
SD000766

$$$$
