dexniguldipine
  CDK     0628171802

 84 88  0  0  0  0  0  0  0  0999 V2000
   -1.1091    2.1447   -0.4799 C   0  0  1  0  0  0  0  0  0  0  0  0
    0.1943    1.3190   -0.6830 C   0  0  2  0  0  0  0  0  0  0  0  0
   -1.0868    3.5330   -1.0584 N   0  0  2  0  0  0  0  0  0  0  0  0
    0.0655   -0.1304   -0.1601 C   0  0  2  0  0  0  0  0  0  0  0  0
   -0.0577    4.4275   -0.4368 C   0  0  2  0  0  0  0  0  0  0  0  0
   -2.4519    4.1615   -1.0732 C   0  0  1  0  0  0  0  0  0  0  0  0
    1.3243   -0.8151   -0.2533 O   0  0  0  0  0  0  0  0  0  0  0  0
   -0.0720    5.8323   -1.0905 C   0  0  2  0  0  0  0  0  0  0  0  0
   -2.4553    5.6130   -1.6492 C   0  0  1  0  0  0  0  0  0  0  0  0
    1.5491   -2.1307    0.0535 C   0  0  0  0  0  0  0  0  0  0  0  0
   -1.4546    6.5871   -0.9127 C   0  0  2  0  0  0  0  0  0  0  0  0
    0.5562   -2.8195    0.3930 O   0  0  0  0  0  0  0  0  0  0  0  0
    2.8202   -2.7345   -0.0140 C   0  0  0  0  0  0  0  0  0  0  0  0
   -1.4912    7.9318   -1.6419 C   0  0  0  0  0  0  0  0  0  0  0  0
   -1.7659    6.7840    0.5816 C   0  0  0  0  0  0  0  0  0  0  0  0
    3.1236   -3.8417    0.9934 C   0  0  1  0  0  0  0  0  0  0  0  0
    3.7822   -2.3758   -0.8987 C   0  0  0  0  0  0  0  0  0  0  0  0
   -2.3106    9.0085   -1.1924 C   0  0  0  0  0  0  0  0  0  0  0  0
   -0.7545    8.1781   -2.8377 C   0  0  0  0  0  0  0  0  0  0  0  0
   -3.0830    6.6607    1.1151 C   0  0  0  0  0  0  0  0  0  0  0  0
   -0.7551    7.1678    1.5103 C   0  0  0  0  0  0  0  0  0  0  0  0
    4.3240   -4.7065    0.6075 C   0  0  0  0  0  0  0  0  0  0  0  0
    3.1059   -3.3689    2.5387 C   0  0  0  0  0  0  0  0  0  0  0  0
    3.6703   -1.2651   -1.8417 C   0  0  0  0  0  0  0  0  0  0  0  0
    4.9184   -3.0872   -0.9670 N   0  0  0  0  0  0  0  0  0  0  0  0
   -2.3402   10.2546   -1.8447 C   0  0  0  0  0  0  0  0  0  0  0  0
   -0.7743    9.4229   -3.4919 C   0  0  0  0  0  0  0  0  0  0  0  0
   -3.3540    6.8129    2.4866 C   0  0  0  0  0  0  0  0  0  0  0  0
   -1.0125    7.2927    2.8874 C   0  0  0  0  0  0  0  0  0  0  0  0
    4.4900   -5.9105    1.3276 C   0  0  0  0  0  0  0  0  0  0  0  0
    5.1743   -4.2523   -0.3492 C   0  0  0  0  0  0  0  0  0  0  0  0
    4.3292   -2.9328    3.1820 C   0  0  0  0  0  0  0  0  0  0  0  0
    1.8607   -3.4159    3.2610 C   0  0  0  0  0  0  0  0  0  0  0  0
   -1.5632   10.4675   -2.9917 C   0  0  0  0  0  0  0  0  0  0  0  0
   -2.3117    7.1013    3.3790 C   0  0  0  0  0  0  0  0  0  0  0  0
    5.6706   -6.6019    1.3758 O   0  0  0  0  0  0  0  0  0  0  0  0
    3.5349   -6.3835    1.9922 O   0  0  0  0  0  0  0  0  0  0  0  0
    6.3796   -4.9470   -0.8013 C   0  0  0  0  0  0  0  0  0  0  0  0
    4.2996   -2.5734    4.5593 C   0  0  0  0  0  0  0  0  0  0  0  0
    1.8727   -3.0196    4.6053 C   0  0  0  0  0  0  0  0  0  0  0  0
    5.9486   -7.7902    2.1294 C   0  0  0  0  0  0  0  0  0  0  0  0
    5.4189   -2.2010    5.2202 N   0  0  0  0  0  0  0  0  0  0  0  0
    3.0578   -2.6218    5.2420 C   0  0  0  0  0  0  0  0  0  0  0  0
    6.4846   -2.2157    4.7390 O   0  0  0  0  0  0  0  0  0  0  0  0
    5.4112   -1.8104    6.4338 O   0  0  0  0  0  0  0  0  0  0  0  0
   -1.9194    1.5782   -0.9494 H   0  0  0  0  0  0  0  0  0  0  0  0
   -1.3307    2.1948    0.5912 H   0  0  0  0  0  0  0  0  0  0  0  0
    1.0219    1.7857   -0.1491 H   0  0  0  0  0  0  0  0  0  0  0  0
    0.4431    1.2943   -1.7471 H   0  0  0  0  0  0  0  0  0  0  0  0
   -0.6834   -0.6573   -0.7557 H   0  0  0  0  0  0  0  0  0  0  0  0
   -0.2523   -0.1229    0.8870 H   0  0  0  0  0  0  0  0  0  0  0  0
    0.9417    4.0232   -0.6073 H   0  0  0  0  0  0  0  0  0  0  0  0
   -0.2113    4.5037    0.6434 H   0  0  0  0  0  0  0  0  0  0  0  0
   -3.1182    3.5598   -1.6976 H   0  0  0  0  0  0  0  0  0  0  0  0
   -2.8726    4.1619   -0.0638 H   0  0  0  0  0  0  0  0  0  0  0  0
    0.1519    5.6449   -2.1435 H   0  0  0  0  0  0  0  0  0  0  0  0
    0.7602    6.4317   -0.7214 H   0  0  0  0  0  0  0  0  0  0  0  0
   -2.1886    5.5406   -2.7088 H   0  0  0  0  0  0  0  0  0  0  0  0
   -3.4716    6.0101   -1.6360 H   0  0  0  0  0  0  0  0  0  0  0  0
    2.2955   -4.5669    0.7379 H   0  0  0  0  0  0  0  0  0  0  0  0
   -2.9145    8.9094   -0.3752 H   0  0  0  0  0  0  0  0  0  0  0  0
   -0.1848    7.4565   -3.2753 H   0  0  0  0  0  0  0  0  0  0  0  0
   -3.8826    6.4718    0.5116 H   0  0  0  0  0  0  0  0  0  0  0  0
    0.1979    7.3610    1.2044 H   0  0  0  0  0  0  0  0  0  0  0  0
    3.6050   -0.3216   -1.2969 H   0  0  0  0  0  0  0  0  0  0  0  0
    2.7830   -1.3848   -2.4667 H   0  0  0  0  0  0  0  0  0  0  0  0
    4.5329   -1.1940   -2.5074 H   0  0  0  0  0  0  0  0  0  0  0  0
    5.6054   -2.7517   -1.5643 H   0  0  0  0  0  0  0  0  0  0  0  0
   -2.9321   11.0069   -1.4854 H   0  0  0  0  0  0  0  0  0  0  0  0
   -0.2150    9.5642   -4.3365 H   0  0  0  0  0  0  0  0  0  0  0  0
   -4.3118    6.7162    2.8325 H   0  0  0  0  0  0  0  0  0  0  0  0
   -0.2528    7.5254    3.5310 H   0  0  0  0  0  0  0  0  0  0  0  0
    5.2943   -2.8665    2.7094 H   0  0  0  0  0  0  0  0  0  0  0  0
    0.9004   -3.7255    2.8906 H   0  0  0  0  0  0  0  0  0  0  0  0
   -1.5758   11.3748   -3.4637 H   0  0  0  0  0  0  0  0  0  0  0  0
   -2.4998    7.1791    4.3807 H   0  0  0  0  0  0  0  0  0  0  0  0
    7.0962   -5.0420    0.0168 H   0  0  0  0  0  0  0  0  0  0  0  0
    6.8878   -4.4185   -1.6116 H   0  0  0  0  0  0  0  0  0  0  0  0
    6.1219   -5.9410   -1.1741 H   0  0  0  0  0  0  0  0  0  0  0  0
    0.9973   -3.0273    5.1337 H   0  0  0  0  0  0  0  0  0  0  0  0
    5.8445   -7.5937    3.1983 H   0  0  0  0  0  0  0  0  0  0  0  0
    6.9716   -8.1109    1.9306 H   0  0  0  0  0  0  0  0  0  0  0  0
    5.2654   -8.5903    1.8397 H   0  0  0  0  0  0  0  0  0  0  0  0
    2.9973   -2.3666    6.2299 H   0  0  0  0  0  0  0  0  0  0  0  0
  1  2  1  0  0  0  0 
  1  3  1  0  0  0  0 
  2  4  1  0  0  0  0 
  3  5  1  0  0  0  0 
  3  6  1  0  0  0  0 
  4  7  1  0  0  0  0 
  5  8  1  0  0  0  0 
  6  9  1  0  0  0  0 
  7 10  1  0  0  0  0 
  8 11  1  0  0  0  0 
  9 11  1  0  0  0  0 
 10 12  2  0  0  0  0 
 10 13  1  0  0  0  0 
 11 14  1  0  0  0  0 
 11 15  1  0  0  0  0 
 16 13  1  0  0  0  0 
 13 17  2  0  0  0  0 
 14 18  2  0  0  0  0 
 14 19  1  0  0  0  0 
 15 20  2  0  0  0  0 
 15 21  1  0  0  0  0 
 16 22  1  0  0  0  0 
 16 23  1  0  0  0  0 
 17 24  1  0  0  0  0 
 17 25  1  0  0  0  0 
 18 26  1  0  0  0  0 
 19 27  2  0  0  0  0 
 20 28  1  0  0  0  0 
 21 29  2  0  0  0  0 
 22 30  1  0  0  0  0 
 22 31  2  0  0  0  0 
 23 32  2  0  0  0  0 
 23 33  1  0  0  0  0 
 25 31  1  0  0  0  0 
 26 34  2  0  0  0  0 
 27 34  1  0  0  0  0 
 28 35  2  0  0  0  0 
 29 35  1  0  0  0  0 
 30 36  1  0  0  0  0 
 30 37  2  0  0  0  0 
 31 38  1  0  0  0  0 
 32 39  1  0  0  0  0 
 33 40  2  0  0  0  0 
 36 41  1  0  0  0  0 
 39 42  1  0  0  0  0 
 39 43  2  0  0  0  0 
 40 43  1  0  0  0  0 
 42 44  2  0  0  0  0 
 42 45  1  0  0  0  0 
 46  1  1  0  0  0  0 
 47  1  1  0  0  0  0 
 48  2  1  0  0  0  0 
 49  2  1  0  0  0  0 
 50  4  1  0  0  0  0 
 51  4  1  0  0  0  0 
 52  5  1  0  0  0  0 
 53  5  1  0  0  0  0 
 54  6  1  0  0  0  0 
 55  6  1  0  0  0  0 
 56  8  1  0  0  0  0 
 57  8  1  0  0  0  0 
 58  9  1  0  0  0  0 
 59  9  1  0  0  0  0 
 16 60  1  0  0  0  0 
 61 18  1  0  0  0  0 
 62 19  1  0  0  0  0 
 63 20  1  0  0  0  0 
 64 21  1  0  0  0  0 
 65 24  1  0  0  0  0 
 66 24  1  0  0  0  0 
 67 24  1  0  0  0  0 
 68 25  1  0  0  0  0 
 69 26  1  0  0  0  0 
 70 27  1  0  0  0  0 
 71 28  1  0  0  0  0 
 72 29  1  0  0  0  0 
 73 32  1  0  0  0  0 
 74 33  1  0  0  0  0 
 75 34  1  0  0  0  0 
 76 35  1  0  0  0  0 
 77 38  1  0  0  0  0 
 78 38  1  0  0  0  0 
 79 38  1  0  0  0  0 
 80 40  1  0  0  0  0 
 81 41  1  0  0  0  0 
 82 41  1  0  0  0  0 
 83 41  1  0  0  0  0 
 84 43  1  0  0  0  0 
M  CHG  1  42   1
M  CHG  1  45  -1
M  END
> <cdk:Title>
dexniguldipine

> <Conformer>
1

> <SuperDrugID>
SD000741

$$$$
