drotaverine
  CDK     0628171802

 60 62  0  0  0  0  0  0  0  0999 V2000
   -1.1614   -6.3481   -1.6773 C   0  0  1  0  0  0  0  0  0  0  0  0
    0.1683   -5.8499   -1.3077 C   0  0  0  0  0  0  0  0  0  0  0  0
   -1.9362   -6.7209   -0.4609 C   0  0  0  0  0  0  0  0  0  0  0  0
    0.4665   -4.5102   -0.9560 C   0  0  0  0  0  0  0  0  0  0  0  0
    1.0946   -6.7488   -1.2771 N   0  0  0  0  0  0  0  0  0  0  0  0
   -1.9563   -8.0595   -0.0025 C   0  0  0  0  0  0  0  0  0  0  0  0
   -2.6519   -5.7466    0.2753 C   0  0  0  0  0  0  0  0  0  0  0  0
    1.7252   -4.2201   -0.3526 C   0  0  0  0  0  0  0  0  0  0  0  0
   -0.4307   -3.4302   -1.1616 C   0  0  0  0  0  0  0  0  0  0  0  0
    2.4352   -6.5881   -0.9358 C   0  0  2  0  0  0  0  0  0  0  0  0
   -2.6520   -8.4128    1.1714 C   0  0  0  0  0  0  0  0  0  0  0  0
   -3.3674   -6.0977    1.4327 C   0  0  0  0  0  0  0  0  0  0  0  0
    2.0323   -2.9009    0.0554 C   0  0  0  0  0  0  0  0  0  0  0  0
    2.7099   -5.3084   -0.1016 C   0  0  1  0  0  0  0  0  0  0  0  0
   -0.1194   -2.1172   -0.7623 C   0  0  0  0  0  0  0  0  0  0  0  0
   -2.6242   -9.7097    1.6071 O   0  0  0  0  0  0  0  0  0  0  0  0
   -3.3922   -7.4356    1.8729 C   0  0  0  0  0  0  0  0  0  0  0  0
    1.1095   -1.8530   -0.1276 C   0  0  0  0  0  0  0  0  0  0  0  0
   -1.0275   -1.1111   -0.9676 O   0  0  0  0  0  0  0  0  0  0  0  0
   -1.5046   -9.9781    2.4748 C   0  0  1  0  0  0  0  0  0  0  0  0
   -4.1230   -7.7788    2.9790 O   0  0  0  0  0  0  0  0  0  0  0  0
    1.4187   -0.5798    0.2746 O   0  0  0  0  0  0  0  0  0  0  0  0
   -0.9890   -0.5801   -2.3071 C   0  0  1  0  0  0  0  0  0  0  0  0
   -1.5322  -11.4637    2.8709 C   0  0  0  0  0  0  0  0  0  0  0  0
   -5.4689   -8.1765    2.6445 C   0  0  1  0  0  0  0  0  0  0  0  0
    0.9770   -0.2801    1.6145 C   0  0  1  0  0  0  0  0  0  0  0  0
   -2.0906    0.4823   -2.4619 C   0  0  0  0  0  0  0  0  0  0  0  0
   -6.2083   -8.6191    3.9189 C   0  0  0  0  0  0  0  0  0  0  0  0
    1.2837    1.1951    1.9286 C   0  0  0  0  0  0  0  0  0  0  0  0
   -1.7248   -5.6308   -2.2762 H   0  0  0  0  0  0  0  0  0  0  0  0
   -1.0642   -7.2171   -2.3395 H   0  0  0  0  0  0  0  0  0  0  0  0
   -1.4545   -8.7885   -0.5172 H   0  0  0  0  0  0  0  0  0  0  0  0
   -2.6655   -4.7717   -0.0266 H   0  0  0  0  0  0  0  0  0  0  0  0
   -1.3333   -3.5677   -1.6118 H   0  0  0  0  0  0  0  0  0  0  0  0
    3.0134   -6.5668   -1.8635 H   0  0  0  0  0  0  0  0  0  0  0  0
    2.7530   -7.4623   -0.3623 H   0  0  0  0  0  0  0  0  0  0  0  0
   -3.8779   -5.3773    1.9491 H   0  0  0  0  0  0  0  0  0  0  0  0
    2.9325   -2.6947    0.4938 H   0  0  0  0  0  0  0  0  0  0  0  0
    3.7240   -4.9649   -0.3258 H   0  0  0  0  0  0  0  0  0  0  0  0
    2.6624   -5.5615    0.9617 H   0  0  0  0  0  0  0  0  0  0  0  0
   -0.5542   -9.7736    1.9696 H   0  0  0  0  0  0  0  0  0  0  0  0
   -1.5626   -9.3705    3.3840 H   0  0  0  0  0  0  0  0  0  0  0  0
   -0.0195   -0.1143   -2.5079 H   0  0  0  0  0  0  0  0  0  0  0  0
   -1.1684   -1.3647   -3.0490 H   0  0  0  0  0  0  0  0  0  0  0  0
   -2.4719  -11.7023    3.3722 H   0  0  0  0  0  0  0  0  0  0  0  0
   -1.4341  -12.0890    1.9815 H   0  0  0  0  0  0  0  0  0  0  0  0
   -0.7048  -11.6810    3.5480 H   0  0  0  0  0  0  0  0  0  0  0  0
   -6.0179   -7.3418    2.1971 H   0  0  0  0  0  0  0  0  0  0  0  0
   -5.4692   -9.0164    1.9419 H   0  0  0  0  0  0  0  0  0  0  0  0
   -0.1017   -0.4326    1.7213 H   0  0  0  0  0  0  0  0  0  0  0  0
    1.4991   -0.9092    2.3418 H   0  0  0  0  0  0  0  0  0  0  0  0
   -2.0461    0.9189   -3.4614 H   0  0  0  0  0  0  0  0  0  0  0  0
   -1.9550    1.2741   -1.7236 H   0  0  0  0  0  0  0  0  0  0  0  0
   -3.0737    0.0286   -2.3209 H   0  0  0  0  0  0  0  0  0  0  0  0
   -5.7026   -9.4751    4.3696 H   0  0  0  0  0  0  0  0  0  0  0  0
   -6.2381   -7.8015    4.6412 H   0  0  0  0  0  0  0  0  0  0  0  0
   -7.2312   -8.9062    3.6681 H   0  0  0  0  0  0  0  0  0  0  0  0
    0.9847    1.4263    2.9524 H   0  0  0  0  0  0  0  0  0  0  0  0
    0.7340    1.8467    1.2468 H   0  0  0  0  0  0  0  0  0  0  0  0
    2.3521    1.3894    1.8208 H   0  0  0  0  0  0  0  0  0  0  0  0
  1  2  1  0  0  0  0 
  1  3  1  0  0  0  0 
  2  4  1  0  0  0  0 
  2  5  2  0  0  0  0 
  3  6  2  0  0  0  0 
  3  7  1  0  0  0  0 
  4  8  2  0  0  0  0 
  4  9  1  0  0  0  0 
  5 10  1  0  0  0  0 
  6 11  1  0  0  0  0 
  7 12  2  0  0  0  0 
  8 13  1  0  0  0  0 
  8 14  1  0  0  0  0 
  9 15  2  0  0  0  0 
 10 14  1  0  0  0  0 
 11 16  1  0  0  0  0 
 11 17  2  0  0  0  0 
 12 17  1  0  0  0  0 
 13 18  2  0  0  0  0 
 15 18  1  0  0  0  0 
 15 19  1  0  0  0  0 
 16 20  1  0  0  0  0 
 17 21  1  0  0  0  0 
 18 22  1  0  0  0  0 
 19 23  1  0  0  0  0 
 20 24  1  0  0  0  0 
 21 25  1  0  0  0  0 
 22 26  1  0  0  0  0 
 23 27  1  0  0  0  0 
 25 28  1  0  0  0  0 
 26 29  1  0  0  0  0 
 30  1  1  0  0  0  0 
 31  1  1  0  0  0  0 
 32  6  1  0  0  0  0 
 33  7  1  0  0  0  0 
 34  9  1  0  0  0  0 
 35 10  1  0  0  0  0 
 36 10  1  0  0  0  0 
 37 12  1  0  0  0  0 
 38 13  1  0  0  0  0 
 39 14  1  0  0  0  0 
 40 14  1  0  0  0  0 
 41 20  1  0  0  0  0 
 42 20  1  0  0  0  0 
 43 23  1  0  0  0  0 
 44 23  1  0  0  0  0 
 45 24  1  0  0  0  0 
 46 24  1  0  0  0  0 
 47 24  1  0  0  0  0 
 48 25  1  0  0  0  0 
 49 25  1  0  0  0  0 
 50 26  1  0  0  0  0 
 51 26  1  0  0  0  0 
 52 27  1  0  0  0  0 
 53 27  1  0  0  0  0 
 54 27  1  0  0  0  0 
 55 28  1  0  0  0  0 
 56 28  1  0  0  0  0 
 57 28  1  0  0  0  0 
 58 29  1  0  0  0  0 
 59 29  1  0  0  0  0 
 60 29  1  0  0  0  0 
M  END
> <cdk:Title>
drotaverine

> <Conformer>
1

> <SuperDrugID>
SD000859

$$$$
