dimercaprol
  CDK     0628171801

 14 13  0  0  0  0  0  0  0  0999 V2000
    0.0436    2.9218    2.2203 O   0  0  0  0  0  0  0  0  0  0  0  0
   -0.9413    2.0422    1.6872 C   0  0  1  0  0  0  0  0  0  0  0  0
   -0.2965    0.7615    1.0963 C   0  0  2  0  0  0  0  0  0  0  0  0
    0.8352    1.2137   -0.2474 S   0  0  0  0  0  0  0  0  0  0  0  0
   -1.3815   -0.2399    0.6084 C   0  0  1  0  0  0  0  0  0  0  0  0
   -0.6998   -1.8374    0.1001 S   0  0  0  0  0  0  0  0  0  0  0  0
   -0.4633    3.7015    2.5316 H   0  0  0  0  0  0  0  0  0  0  0  0
   -1.6278    1.7797    2.4962 H   0  0  0  0  0  0  0  0  0  0  0  0
   -1.5055    2.5746    0.9175 H   0  0  0  0  0  0  0  0  0  0  0  0
    0.2950    0.2841    1.8833 H   0  0  0  0  0  0  0  0  0  0  0  0
    1.2568   -0.0661   -0.4416 H   0  0  0  0  0  0  0  0  0  0  0  0
   -2.0926   -0.4384    1.4142 H   0  0  0  0  0  0  0  0  0  0  0  0
   -1.9348    0.1859   -0.2321 H   0  0  0  0  0  0  0  0  0  0  0  0
   -1.9083   -2.3254   -0.2956 H   0  0  0  0  0  0  0  0  0  0  0  0
  1  2  1  0  0  0  0 
  2  3  1  0  0  0  0 
  3  4  1  0  0  0  0 
  3  5  1  0  0  0  0 
  5  6  1  0  0  0  0 
  1  7  1  0  0  0  0 
  2  8  1  0  0  0  0 
  2  9  1  0  0  0  0 
  3 10  1  0  0  0  0 
  4 11  1  0  0  0  0 
  5 12  1  0  0  0  0 
  5 13  1  0  0  0  0 
  6 14  1  0  0  0  0 
M  END
> <cdk:Title>
dimercaprol

> <Conformer>
1

> <SuperDrugID>
SD002729

$$$$
