hydrocortisone probutate
  CDK     0628171801

 75 78  0  0  0  0  0  0  0  0999 V2000
   -2.0967    3.1901    2.1433 C   0  0  0  0  0  0  0  0  0  0  0  0
   -2.3764    2.2771    1.0160 C   0  0  1  0  0  0  0  0  0  0  0  0
   -1.8730    4.3806    1.8195 O   0  0  0  0  0  0  0  0  0  0  0  0
   -2.0845    2.7600    3.5907 C   0  0  2  0  0  0  0  0  0  0  0  0
   -3.6161    2.6552    0.4037 O   0  0  0  0  0  0  0  0  0  0  0  0
   -1.1482    1.6619    3.7831 O   0  0  0  0  0  0  0  0  0  0  0  0
   -3.5107    2.3627    4.1642 C   0  0  2  0  0  0  0  0  0  0  0  0
   -1.6252    3.8840    4.5988 C   0  0  2  0  0  0  0  0  0  0  0  0
   -3.8818    2.8496   -0.9222 C   0  0  0  0  0  0  0  0  0  0  0  0
    0.1146    1.4966    3.2728 C   0  0  0  0  0  0  0  0  0  0  0  0
   -4.5946    3.4087    3.6747 C   0  0  0  0  0  0  0  0  0  0  0  0
   -3.2394    2.4182    5.7050 C   0  0  1  0  0  0  0  0  0  0  0  0
   -3.9959    0.8946    3.8597 C   0  0  2  0  0  0  0  0  0  0  0  0
   -2.4584    3.7330    5.8954 C   0  0  1  0  0  0  0  0  0  0  0  0
   -5.2012    3.3832   -1.3141 C   0  0  1  0  0  0  0  0  0  0  0  0
   -3.0470    2.5574   -1.8121 O   0  0  0  0  0  0  0  0  0  0  0  0
    1.2770    1.4499    4.1805 C   0  0  1  0  0  0  0  0  0  0  0  0
    0.2952    1.3421    2.0428 O   0  0  0  0  0  0  0  0  0  0  0  0
   -4.5128    2.1665    6.5791 C   0  0  1  0  0  0  0  0  0  0  0  0
   -5.2622    0.4863    4.6842 C   0  0  1  0  0  0  0  0  0  0  0  0
   -5.0820    4.7562   -2.0140 C   0  0  0  0  0  0  0  0  0  0  0  0
    2.2563    2.6235    3.8851 C   0  0  1  0  0  0  0  0  0  0  0  0
   -5.1662    0.7735    6.2344 C   0  0  2  0  0  0  0  0  0  0  0  0
   -4.1986    2.2149    8.1018 C   0  0  1  0  0  0  0  0  0  0  0  0
   -6.4163    1.0594    4.0821 O   0  0  0  0  0  0  0  0  0  0  0  0
    3.4097    2.7424    4.9049 C   0  0  0  0  0  0  0  0  0  0  0  0
   -6.4706    0.4710    7.1119 C   0  0  2  0  0  0  0  0  0  0  0  0
   -5.4650    1.9471    8.9465 C   0  0  2  0  0  0  0  0  0  0  0  0
   -7.7017    1.3912    6.7631 C   0  0  0  0  0  0  0  0  0  0  0  0
   -6.1664    0.7105    8.5602 C   0  0  0  0  0  0  0  0  0  0  0  0
   -6.8911   -1.0374    6.8730 C   0  0  1  0  0  0  0  0  0  0  0  0
   -6.5722   -0.1378    9.5367 C   0  0  0  0  0  0  0  0  0  0  0  0
   -7.8429   -1.5962    7.9578 C   0  0  1  0  0  0  0  0  0  0  0  0
   -7.3271   -1.2750    9.3030 C   0  0  0  0  0  0  0  0  0  0  0  0
   -7.6154   -2.0322   10.2602 O   0  0  0  0  0  0  0  0  0  0  0  0
   -1.5508    2.3363    0.3034 H   0  0  0  0  0  0  0  0  0  0  0  0
   -2.4471    1.2462    1.3556 H   0  0  0  0  0  0  0  0  0  0  0  0
   -1.7829    4.8942    4.2121 H   0  0  0  0  0  0  0  0  0  0  0  0
   -0.5617    3.8000    4.8317 H   0  0  0  0  0  0  0  0  0  0  0  0
   -4.8452    3.2365    2.6291 H   0  0  0  0  0  0  0  0  0  0  0  0
   -4.2387    4.4356    3.7638 H   0  0  0  0  0  0  0  0  0  0  0  0
   -5.5259    3.3511    4.2285 H   0  0  0  0  0  0  0  0  0  0  0  0
   -2.5343    1.6182    5.9739 H   0  0  0  0  0  0  0  0  0  0  0  0
   -3.1767    0.1779    4.1965 H   0  0  0  0  0  0  0  0  0  0  0  0
   -4.2890    0.8372    2.7613 H   0  0  0  0  0  0  0  0  0  0  0  0
   -1.8195    3.6926    6.7796 H   0  0  0  0  0  0  0  0  0  0  0  0
   -3.1457    4.5737    6.0098 H   0  0  0  0  0  0  0  0  0  0  0  0
   -5.6951    2.6756   -1.9833 H   0  0  0  0  0  0  0  0  0  0  0  0
   -5.8297    3.4938   -0.4268 H   0  0  0  0  0  0  0  0  0  0  0  0
    0.9272    1.5163    5.2148 H   0  0  0  0  0  0  0  0  0  0  0  0
    1.7898    0.4925    4.0587 H   0  0  0  0  0  0  0  0  0  0  0  0
   -5.2203    2.9707    6.3865 H   0  0  0  0  0  0  0  0  0  0  0  0
   -5.3781   -0.5918    4.5467 H   0  0  0  0  0  0  0  0  0  0  0  0
   -6.0699    5.0980   -2.3304 H   0  0  0  0  0  0  0  0  0  0  0  0
   -4.6566    5.4953   -1.3308 H   0  0  0  0  0  0  0  0  0  0  0  0
   -4.4448    4.6796   -2.8975 H   0  0  0  0  0  0  0  0  0  0  0  0
    2.6902    2.4913    2.8895 H   0  0  0  0  0  0  0  0  0  0  0  0
    1.7101    3.5717    3.8890 H   0  0  0  0  0  0  0  0  0  0  0  0
   -4.4188    0.0417    6.5675 H   0  0  0  0  0  0  0  0  0  0  0  0
   -3.4332    1.4755    8.3551 H   0  0  0  0  0  0  0  0  0  0  0  0
   -3.8087    3.2005    8.3665 H   0  0  0  0  0  0  0  0  0  0  0  0
   -6.3997    0.7516    3.1512 H   0  0  0  0  0  0  0  0  0  0  0  0
    4.0650    3.5736    4.6308 H   0  0  0  0  0  0  0  0  0  0  0  0
    4.0032    1.8278    4.9187 H   0  0  0  0  0  0  0  0  0  0  0  0
    3.0108    2.9251    5.9052 H   0  0  0  0  0  0  0  0  0  0  0  0
   -6.1536    2.7870    8.8258 H   0  0  0  0  0  0  0  0  0  0  0  0
   -5.1586    1.9494    9.9961 H   0  0  0  0  0  0  0  0  0  0  0  0
   -7.4239    2.4432    6.7104 H   0  0  0  0  0  0  0  0  0  0  0  0
   -8.1559    1.1229    5.8102 H   0  0  0  0  0  0  0  0  0  0  0  0
   -8.4886    1.3049    7.5175 H   0  0  0  0  0  0  0  0  0  0  0  0
   -7.3692   -1.1664    5.8986 H   0  0  0  0  0  0  0  0  0  0  0  0
   -6.0037   -1.6782    6.8766 H   0  0  0  0  0  0  0  0  0  0  0  0
   -6.3443    0.0623   10.4844 H   0  0  0  0  0  0  0  0  0  0  0  0
   -8.8377   -1.1596    7.8483 H   0  0  0  0  0  0  0  0  0  0  0  0
   -7.9383   -2.6797    7.8374 H   0  0  0  0  0  0  0  0  0  0  0  0
  1  2  1  0  0  0  0 
  1  3  2  0  0  0  0 
  4  1  1  0  0  0  0 
  2  5  1  0  0  0  0 
  4  6  1  0  0  0  0 
  7  4  1  0  0  0  0 
  4  8  1  0  0  0  0 
  5  9  1  0  0  0  0 
  6 10  1  0  0  0  0 
  7 11  1  0  0  0  0 
 12  7  1  0  0  0  0 
  7 13  1  0  0  0  0 
  8 14  1  0  0  0  0 
  9 15  1  0  0  0  0 
  9 16  2  0  0  0  0 
 10 17  1  0  0  0  0 
 10 18  2  0  0  0  0 
 12 14  1  0  0  0  0 
 19 12  1  0  0  0  0 
 20 13  1  0  0  0  0 
 15 21  1  0  0  0  0 
 17 22  1  0  0  0  0 
 23 19  1  0  0  0  0 
 19 24  1  0  0  0  0 
 23 20  1  0  0  0  0 
 20 25  1  0  0  0  0 
 22 26  1  0  0  0  0 
 23 27  1  0  0  0  0 
 24 28  1  0  0  0  0 
 27 29  1  0  0  0  0 
 27 30  1  0  0  0  0 
 27 31  1  0  0  0  0 
 28 30  1  0  0  0  0 
 30 32  2  0  0  0  0 
 31 33  1  0  0  0  0 
 32 34  1  0  0  0  0 
 33 34  1  0  0  0  0 
 34 35  2  0  0  0  0 
 36  2  1  0  0  0  0 
 37  2  1  0  0  0  0 
 38  8  1  0  0  0  0 
 39  8  1  0  0  0  0 
 40 11  1  0  0  0  0 
 41 11  1  0  0  0  0 
 42 11  1  0  0  0  0 
 12 43  1  0  0  0  0 
 44 13  1  0  0  0  0 
 45 13  1  0  0  0  0 
 46 14  1  0  0  0  0 
 47 14  1  0  0  0  0 
 48 15  1  0  0  0  0 
 49 15  1  0  0  0  0 
 50 17  1  0  0  0  0 
 51 17  1  0  0  0  0 
 19 52  1  0  0  0  0 
 20 53  1  0  0  0  0 
 54 21  1  0  0  0  0 
 55 21  1  0  0  0  0 
 56 21  1  0  0  0  0 
 57 22  1  0  0  0  0 
 58 22  1  0  0  0  0 
 23 59  1  0  0  0  0 
 60 24  1  0  0  0  0 
 61 24  1  0  0  0  0 
 62 25  1  0  0  0  0 
 63 26  1  0  0  0  0 
 64 26  1  0  0  0  0 
 65 26  1  0  0  0  0 
 66 28  1  0  0  0  0 
 67 28  1  0  0  0  0 
 68 29  1  0  0  0  0 
 69 29  1  0  0  0  0 
 70 29  1  0  0  0  0 
 71 31  1  0  0  0  0 
 72 31  1  0  0  0  0 
 73 32  1  0  0  0  0 
 74 33  1  0  0  0  0 
 75 33  1  0  0  0  0 
M  END
> <cdk:Title>
hydrocortisone probutate

> <Conformer>
1

> <SuperDrugID>
SD003626

$$$$
