crotamiton
  CDK     0628171802

 32 32  0  0  0  0  0  0  0  0999 V2000
    0.2041    2.7314    0.1971 N   0  0  0  0  0  0  0  0  0  0  0  0
   -1.0056    2.1727   -0.2160 C   0  0  0  0  0  0  0  0  0  0  0  0
    0.5918    4.1286    0.0000 C   0  0  1  0  0  0  0  0  0  0  0  0
    1.0992    1.9782    0.9388 C   0  0  0  0  0  0  0  0  0  0  0  0
   -1.3600    0.8283   -0.1577 C   0  0  0  0  0  0  0  0  0  0  0  0
   -1.9349    2.8987   -0.6412 O   0  0  0  0  0  0  0  0  0  0  0  0
   -0.0910    4.9952   -1.0900 C   0  0  0  0  0  0  0  0  0  0  0  0
    0.9262    1.7492    2.3360 C   0  0  0  0  0  0  0  0  0  0  0  0
    2.2390    1.4500    0.2888 C   0  0  0  0  0  0  0  0  0  0  0  0
   -0.6188   -0.1886   -0.6292 C   0  0  0  0  0  0  0  0  0  0  0  0
   -0.2425    2.2886    3.0763 C   0  0  0  0  0  0  0  0  0  0  0  0
    1.8989    0.9963    3.0371 C   0  0  0  0  0  0  0  0  0  0  0  0
    3.1917    0.7010    0.9999 C   0  0  0  0  0  0  0  0  0  0  0  0
    3.0228    0.4764    2.3757 C   0  0  0  0  0  0  0  0  0  0  0  0
   -1.0684   -1.5633   -0.5591 C   0  0  0  0  0  0  0  0  0  0  0  0
    0.4790    4.6519    0.9522 H   0  0  0  0  0  0  0  0  0  0  0  0
    1.6558    4.1635   -0.2552 H   0  0  0  0  0  0  0  0  0  0  0  0
   -2.2512    0.6141    0.2284 H   0  0  0  0  0  0  0  0  0  0  0  0
   -0.0965    4.4705   -2.0486 H   0  0  0  0  0  0  0  0  0  0  0  0
    0.4578    5.9337   -1.2107 H   0  0  0  0  0  0  0  0  0  0  0  0
   -1.1125    5.2486   -0.8040 H   0  0  0  0  0  0  0  0  0  0  0  0
    2.3754    1.6086   -0.7124 H   0  0  0  0  0  0  0  0  0  0  0  0
    0.2596   -0.0103   -1.0596 H   0  0  0  0  0  0  0  0  0  0  0  0
   -1.1630    1.8465    2.6924 H   0  0  0  0  0  0  0  0  0  0  0  0
   -0.2904    3.3723    2.9589 H   0  0  0  0  0  0  0  0  0  0  0  0
   -0.1902    2.0722    4.1462 H   0  0  0  0  0  0  0  0  0  0  0  0
    1.7995    0.8180    4.0395 H   0  0  0  0  0  0  0  0  0  0  0  0
    4.0093    0.3222    0.5164 H   0  0  0  0  0  0  0  0  0  0  0  0
    3.7196   -0.0619    2.8962 H   0  0  0  0  0  0  0  0  0  0  0  0
   -0.3320   -2.2276   -1.0146 H   0  0  0  0  0  0  0  0  0  0  0  0
   -1.2089   -1.8611    0.4814 H   0  0  0  0  0  0  0  0  0  0  0  0
   -2.0154   -1.6819   -1.0902 H   0  0  0  0  0  0  0  0  0  0  0  0
  1  2  1  0  0  0  0 
  1  3  1  0  0  0  0 
  1  4  1  0  0  0  0 
  2  5  1  0  0  0  0 
  2  6  2  0  0  0  0 
  3  7  1  0  0  0  0 
  4  8  2  0  0  0  0 
  4  9  1  0  0  0  0 
  5 10  2  0  0  0  0 
  8 11  1  0  0  0  0 
  8 12  1  0  0  0  0 
  9 13  2  0  0  0  0 
 12 14  2  0  0  0  0 
 13 14  1  0  0  0  0 
 10 15  1  0  0  0  0 
  3 16  1  0  0  0  0 
  3 17  1  0  0  0  0 
  5 18  1  0  0  0  0 
  7 19  1  0  0  0  0 
  7 20  1  0  0  0  0 
  7 21  1  0  0  0  0 
  9 22  1  0  0  0  0 
 10 23  1  0  0  0  0 
 11 24  1  0  0  0  0 
 11 25  1  0  0  0  0 
 11 26  1  0  0  0  0 
 12 27  1  0  0  0  0 
 13 28  1  0  0  0  0 
 14 29  1  0  0  0  0 
 15 30  1  0  0  0  0 
 15 31  1  0  0  0  0 
 15 32  1  0  0  0  0 
M  END
> <cdk:Title>
crotamiton

> <Conformer>
1

> <SuperDrugID>
SD000654

$$$$
