proline
  CDK     0628171801

 17 17  0  0  0  0  0  0  0  0999 V2000
    0.0707    1.1524   -1.9613 C   0  0  2  0  0  0  0  0  0  0  0  0
    0.9321   -0.1090   -2.1210 C   0  0  1  0  0  0  0  0  0  0  0  0
    1.3615   -0.4046   -0.6708 C   0  0  2  0  0  0  0  0  0  0  0  0
    1.6000    0.9218   -0.0760 N   0  0  2  0  0  0  0  0  0  0  0  0
    0.6437    1.8481   -0.7081 C   0  0  2  0  0  0  0  0  0  0  0  0
    2.5534   -1.2673   -0.5528 C   0  0  0  0  0  0  0  0  0  0  0  0
    3.6604   -0.9090   -1.0135 O   0  0  0  0  0  0  0  0  0  0  0  0
    2.4734   -2.4655    0.0704 O   0  0  0  0  0  0  0  0  0  0  0  0
   -0.9752    0.8769   -1.7948 H   0  0  0  0  0  0  0  0  0  0  0  0
    0.1328    1.7914   -2.8460 H   0  0  0  0  0  0  0  0  0  0  0  0
    0.3629   -0.9351   -2.5569 H   0  0  0  0  0  0  0  0  0  0  0  0
    1.7957    0.1135   -2.7564 H   0  0  0  0  0  0  0  0  0  0  0  0
    0.5253   -0.8771   -0.1413 H   0  0  0  0  0  0  0  0  0  0  0  0
    2.5263    1.2155   -0.3962 H   0  0  0  0  0  0  0  0  0  0  0  0
   -0.1542    2.0899   -0.0011 H   0  0  0  0  0  0  0  0  0  0  0  0
    1.1665    2.7691   -0.9774 H   0  0  0  0  0  0  0  0  0  0  0  0
    3.2685   -3.0311    0.1587 H   0  0  0  0  0  0  0  0  0  0  0  0
  1  2  1  0  0  0  0 
  3  2  1  0  0  0  0 
  3  4  1  0  0  0  0 
  4  5  1  0  0  0  0 
  1  5  1  0  0  0  0 
  3  6  1  0  0  0  0 
  6  7  2  0  0  0  0 
  6  8  1  0  0  0  0 
  1  9  1  0  0  0  0 
  1 10  1  0  0  0  0 
  2 11  1  0  0  0  0 
  2 12  1  0  0  0  0 
  3 13  1  0  0  0  0 
  4 14  1  0  0  0  0 
  5 15  1  0  0  0  0 
  5 16  1  0  0  0  0 
  8 17  1  0  0  0  0 
M  END
> <cdk:Title>
proline

> <Conformer>
1

> <SuperDrugID>
SD003368

$$$$
