ripazepam
  CDK     0628171801

 36 38  0  0  0  0  0  0  0  0999 V2000
   -0.8461    3.4827    1.6957 C   0  0  1  0  0  0  0  0  0  0  0  0
   -1.6431    3.1724    0.4123 C   0  0  0  0  0  0  0  0  0  0  0  0
    0.1148    4.5388    1.5057 N   0  0  0  0  0  0  0  0  0  0  0  0
    1.3669    4.5352    0.9547 C   0  0  0  0  0  0  0  0  0  0  0  0
   -0.2095    5.7411    1.8743 N   0  0  0  0  0  0  0  0  0  0  0  0
    2.1296    3.4638    0.4706 C   0  0  0  0  0  0  0  0  0  0  0  0
    1.7901    5.8701    0.9822 C   0  0  0  0  0  0  0  0  0  0  0  0
    0.7713    6.5989    1.5849 C   0  0  0  0  0  0  0  0  0  0  0  0
    3.1901    3.5603   -0.2506 N   0  0  0  0  0  0  0  0  0  0  0  0
    1.8809    2.1369    0.7823 C   0  0  0  0  0  0  0  0  0  0  0  0
    2.9340    6.4512    0.5528 N   0  0  0  0  0  0  0  0  0  0  0  0
    0.7023    8.0419    1.8799 C   0  0  0  0  0  0  0  0  0  0  0  0
    3.9654    4.5727   -0.7931 C   0  0  1  0  0  0  0  0  0  0  0  0
    1.4378    1.2177   -0.2023 C   0  0  0  0  0  0  0  0  0  0  0  0
    2.1515    1.6600    2.0884 C   0  0  0  0  0  0  0  0  0  0  0  0
    3.9043    5.9318   -0.2256 C   0  0  0  0  0  0  0  0  0  0  0  0
    1.2775   -0.1448    0.1098 C   0  0  0  0  0  0  0  0  0  0  0  0
    1.9834    0.2979    2.4002 C   0  0  0  0  0  0  0  0  0  0  0  0
    4.8307    6.7237   -0.5151 O   0  0  0  0  0  0  0  0  0  0  0  0
    1.5432   -0.6030    1.4125 C   0  0  0  0  0  0  0  0  0  0  0  0
   -1.5720    3.7844    2.4572 H   0  0  0  0  0  0  0  0  0  0  0  0
   -0.3860    2.5739    2.0773 H   0  0  0  0  0  0  0  0  0  0  0  0
   -2.4284    2.4501    0.6396 H   0  0  0  0  0  0  0  0  0  0  0  0
   -2.1110    4.0777    0.0202 H   0  0  0  0  0  0  0  0  0  0  0  0
   -0.9890    2.7535   -0.3495 H   0  0  0  0  0  0  0  0  0  0  0  0
    3.0607    7.3762    0.8147 H   0  0  0  0  0  0  0  0  0  0  0  0
   -0.1686    8.4730    1.3841 H   0  0  0  0  0  0  0  0  0  0  0  0
    1.5903    8.5724    1.5352 H   0  0  0  0  0  0  0  0  0  0  0  0
    0.6048    8.1828    2.9580 H   0  0  0  0  0  0  0  0  0  0  0  0
    4.9930    4.2258   -0.6658 H   0  0  0  0  0  0  0  0  0  0  0  0
    3.7650    4.6190   -1.8645 H   0  0  0  0  0  0  0  0  0  0  0  0
    1.2322    1.5283   -1.1543 H   0  0  0  0  0  0  0  0  0  0  0  0
    2.4835    2.2973    2.8179 H   0  0  0  0  0  0  0  0  0  0  0  0
    0.9757   -0.8031   -0.6129 H   0  0  0  0  0  0  0  0  0  0  0  0
    2.1857   -0.0375    3.3447 H   0  0  0  0  0  0  0  0  0  0  0  0
    1.4164   -1.5941    1.6389 H   0  0  0  0  0  0  0  0  0  0  0  0
  1  2  1  0  0  0  0 
  1  3  1  0  0  0  0 
  3  4  1  0  0  0  0 
  3  5  1  0  0  0  0 
  4  6  1  0  0  0  0 
  4  7  2  0  0  0  0 
  5  8  2  0  0  0  0 
  6  9  2  0  0  0  0 
  6 10  1  0  0  0  0 
  7  8  1  0  0  0  0 
  7 11  1  0  0  0  0 
  8 12  1  0  0  0  0 
  9 13  1  0  0  0  0 
 10 14  2  0  0  0  0 
 10 15  1  0  0  0  0 
 11 16  1  0  0  0  0 
 13 16  1  0  0  0  0 
 14 17  1  0  0  0  0 
 15 18  2  0  0  0  0 
 16 19  2  0  0  0  0 
 17 20  2  0  0  0  0 
 18 20  1  0  0  0  0 
  1 21  1  0  0  0  0 
  1 22  1  0  0  0  0 
  2 23  1  0  0  0  0 
  2 24  1  0  0  0  0 
  2 25  1  0  0  0  0 
 11 26  1  0  0  0  0 
 12 27  1  0  0  0  0 
 12 28  1  0  0  0  0 
 12 29  1  0  0  0  0 
 13 30  1  0  0  0  0 
 13 31  1  0  0  0  0 
 14 32  1  0  0  0  0 
 15 33  1  0  0  0  0 
 17 34  1  0  0  0  0 
 18 35  1  0  0  0  0 
 20 36  1  0  0  0  0 
M  END
> <cdk:Title>
ripazepam

> <Conformer>
1

> <SuperDrugID>
SD002147

$$$$
