methylphenobarbital
  CDK     0628171801

 32 33  0  0  0  0  0  0  0  0999 V2000
   -1.8694   -0.7962   -0.3159 C   0  0  2  0  0  0  0  0  0  0  0  0
   -2.6674   -2.1211   -0.4666 C   0  0  0  0  0  0  0  0  0  0  0  0
   -0.3988   -0.9225    0.2554 C   0  0  2  0  0  0  0  0  0  0  0  0
    0.3134   -1.9510   -0.5872 C   0  0  0  0  0  0  0  0  0  0  0  0
   -0.4985   -1.3750    1.6791 C   0  0  0  0  0  0  0  0  0  0  0  0
    0.3979    0.3757    0.2819 C   0  0  0  0  0  0  0  0  0  0  0  0
    0.4967   -1.6656   -1.7988 O   0  0  0  0  0  0  0  0  0  0  0  0
    0.7575   -3.1651   -0.0828 N   0  0  0  0  0  0  0  0  0  0  0  0
   -1.0660   -0.6689    2.5458 O   0  0  0  0  0  0  0  0  0  0  0  0
   -0.0148   -2.5640    2.0970 N   0  0  0  0  0  0  0  0  0  0  0  0
   -0.2270    1.6527    0.3210 C   0  0  0  0  0  0  0  0  0  0  0  0
    1.8214    0.3645    0.3360 C   0  0  0  0  0  0  0  0  0  0  0  0
    1.3946   -4.1135   -0.9707 C   0  0  0  0  0  0  0  0  0  0  0  0
    0.5890   -3.4377    1.2612 C   0  0  0  0  0  0  0  0  0  0  0  0
    0.5192    2.8429    0.4001 C   0  0  0  0  0  0  0  0  0  0  0  0
    2.5735    1.5513    0.4015 C   0  0  0  0  0  0  0  0  0  0  0  0
    0.9857   -4.4996    1.7968 O   0  0  0  0  0  0  0  0  0  0  0  0
    1.9210    2.7933    0.4381 C   0  0  0  0  0  0  0  0  0  0  0  0
   -2.4734   -0.1546    0.3310 H   0  0  0  0  0  0  0  0  0  0  0  0
   -1.8369   -0.3112   -1.2978 H   0  0  0  0  0  0  0  0  0  0  0  0
   -3.6734   -1.9077   -0.8341 H   0  0  0  0  0  0  0  0  0  0  0  0
   -2.7521   -2.6279    0.4953 H   0  0  0  0  0  0  0  0  0  0  0  0
   -2.1810   -2.7914   -1.1785 H   0  0  0  0  0  0  0  0  0  0  0  0
   -0.1137   -2.8023    3.0324 H   0  0  0  0  0  0  0  0  0  0  0  0
   -1.2415    1.7474    0.3066 H   0  0  0  0  0  0  0  0  0  0  0  0
    2.3357   -0.5183    0.3299 H   0  0  0  0  0  0  0  0  0  0  0  0
    2.3098   -3.6767   -1.3768 H   0  0  0  0  0  0  0  0  0  0  0  0
    0.7250   -4.3584   -1.7986 H   0  0  0  0  0  0  0  0  0  0  0  0
    1.6663   -5.0563   -0.4924 H   0  0  0  0  0  0  0  0  0  0  0  0
    0.0412    3.7462    0.4315 H   0  0  0  0  0  0  0  0  0  0  0  0
    3.5952    1.5107    0.4236 H   0  0  0  0  0  0  0  0  0  0  0  0
    2.4648    3.6577    0.4924 H   0  0  0  0  0  0  0  0  0  0  0  0
  1  2  1  0  0  0  0 
  3  1  1  0  0  0  0 
  3  4  1  0  0  0  0 
  3  5  1  0  0  0  0 
  3  6  1  0  0  0  0 
  4  7  2  0  0  0  0 
  4  8  1  0  0  0  0 
  5  9  2  0  0  0  0 
  5 10  1  0  0  0  0 
  6 11  2  0  0  0  0 
  6 12  1  0  0  0  0 
  8 13  1  0  0  0  0 
  8 14  1  0  0  0  0 
 10 14  1  0  0  0  0 
 11 15  1  0  0  0  0 
 12 16  2  0  0  0  0 
 14 17  2  0  0  0  0 
 15 18  2  0  0  0  0 
 16 18  1  0  0  0  0 
 19  1  1  0  0  0  0 
 20  1  1  0  0  0  0 
 21  2  1  0  0  0  0 
 22  2  1  0  0  0  0 
 23  2  1  0  0  0  0 
 24 10  1  0  0  0  0 
 25 11  1  0  0  0  0 
 26 12  1  0  0  0  0 
 27 13  1  0  0  0  0 
 28 13  1  0  0  0  0 
 29 13  1  0  0  0  0 
 30 15  1  0  0  0  0 
 31 16  1  0  0  0  0 
 32 18  1  0  0  0  0 
M  END
> <cdk:Title>
methylphenobarbital

> <Conformer>
1

> <SuperDrugID>
SD001500

$$$$
