gefitinib
  CDK     0628171801

 55 58  0  0  0  0  0  0  0  0999 V2000
    0.4424    1.0352    0.3686 N   0  0  0  0  0  0  0  0  0  0  0  0
    1.0485    1.4277   -0.7929 C   0  0  0  0  0  0  0  0  0  0  0  0
   -0.5556    1.6586    1.0677 C   0  0  0  0  0  0  0  0  0  0  0  0
    2.3458    0.9563   -1.1326 C   0  0  0  0  0  0  0  0  0  0  0  0
    0.4510    2.3236   -1.6236 N   0  0  0  0  0  0  0  0  0  0  0  0
   -1.6182    2.4108    0.5073 C   0  0  0  0  0  0  0  0  0  0  0  0
   -0.4891    1.5351    2.4729 C   0  0  0  0  0  0  0  0  0  0  0  0
    2.9581    1.5177   -2.2884 C   0  0  0  0  0  0  0  0  0  0  0  0
    3.0688   -0.0088   -0.3887 C   0  0  0  0  0  0  0  0  0  0  0  0
    1.0324    2.8030   -2.7453 C   0  0  0  0  0  0  0  0  0  0  0  0
   -2.5419    3.0832    1.3336 C   0  0  0  0  0  0  0  0  0  0  0  0
   -1.4204    2.1876    3.2995 C   0  0  0  0  0  0  0  0  0  0  0  0
    4.2715    1.1708   -2.6454 C   0  0  0  0  0  0  0  0  0  0  0  0
    2.2848    2.4074   -3.0594 N   0  0  0  0  0  0  0  0  0  0  0  0
    4.3746   -0.3826   -0.7679 C   0  0  0  0  0  0  0  0  0  0  0  0
   -3.7589    4.0247    0.6242 Cl  0  0  0  0  0  0  0  0  0  0  0  0
   -2.4430    2.9704    2.7355 C   0  0  0  0  0  0  0  0  0  0  0  0
    4.9914    0.2404   -1.8752 C   0  0  0  0  0  0  0  0  0  0  0  0
    5.0522   -1.3264   -0.0448 O   0  0  0  0  0  0  0  0  0  0  0  0
   -3.2884    3.5778    3.5259 F   0  0  0  0  0  0  0  0  0  0  0  0
    6.2776   -0.0683   -2.2240 O   0  0  0  0  0  0  0  0  0  0  0  0
    4.9760   -2.6457   -0.6269 C   0  0  1  0  0  0  0  0  0  0  0  0
    7.2351    0.8287   -1.6352 C   0  0  0  0  0  0  0  0  0  0  0  0
    5.8431   -3.6261    0.1998 C   0  0  2  0  0  0  0  0  0  0  0  0
    7.3561   -3.2666    0.1962 C   0  0  1  0  0  0  0  0  0  0  0  0
    8.2430   -4.2447    0.9162 N   0  0  1  0  0  0  0  0  0  0  0  0
    9.6931   -3.9873    0.6295 C   0  0  1  0  0  0  0  0  0  0  0  0
    7.9780   -4.3507    2.3881 C   0  0  2  0  0  0  0  0  0  0  0  0
   10.6108   -4.9926    1.3672 C   0  0  1  0  0  0  0  0  0  0  0  0
    8.9520   -5.3401    3.0726 C   0  0  2  0  0  0  0  0  0  0  0  0
   10.3220   -5.0109    2.7773 O   0  0  0  0  0  0  0  0  0  0  0  0
    0.8428    0.2768    0.8184 H   0  0  0  0  0  0  0  0  0  0  0  0
   -1.7372    2.4719   -0.5041 H   0  0  0  0  0  0  0  0  0  0  0  0
    0.2531    0.9811    2.9111 H   0  0  0  0  0  0  0  0  0  0  0  0
    2.6580   -0.4500    0.4366 H   0  0  0  0  0  0  0  0  0  0  0  0
    0.5347    3.4650   -3.3399 H   0  0  0  0  0  0  0  0  0  0  0  0
   -1.3446    2.0973    4.3148 H   0  0  0  0  0  0  0  0  0  0  0  0
    4.7119    1.6015   -3.4623 H   0  0  0  0  0  0  0  0  0  0  0  0
    3.9369   -2.9960   -0.6124 H   0  0  0  0  0  0  0  0  0  0  0  0
    5.3296   -2.6523   -1.6652 H   0  0  0  0  0  0  0  0  0  0  0  0
    8.2271    0.5393   -1.9814 H   0  0  0  0  0  0  0  0  0  0  0  0
    7.0561    1.8631   -1.9408 H   0  0  0  0  0  0  0  0  0  0  0  0
    7.2187    0.7649   -0.5444 H   0  0  0  0  0  0  0  0  0  0  0  0
    5.7194   -4.6301   -0.2137 H   0  0  0  0  0  0  0  0  0  0  0  0
    5.4587   -3.6262    1.2222 H   0  0  0  0  0  0  0  0  0  0  0  0
    7.6653   -3.2171   -0.8534 H   0  0  0  0  0  0  0  0  0  0  0  0
    7.4850   -2.2678    0.6225 H   0  0  0  0  0  0  0  0  0  0  0  0
    9.8857   -4.0772   -0.4438 H   0  0  0  0  0  0  0  0  0  0  0  0
    9.9662   -2.9751    0.9424 H   0  0  0  0  0  0  0  0  0  0  0  0
    6.9645   -4.7170    2.5653 H   0  0  0  0  0  0  0  0  0  0  0  0
    8.0809   -3.3707    2.8624 H   0  0  0  0  0  0  0  0  0  0  0  0
   10.4894   -5.9927    0.9422 H   0  0  0  0  0  0  0  0  0  0  0  0
   11.6546   -4.6945    1.2375 H   0  0  0  0  0  0  0  0  0  0  0  0
    8.7338   -6.3628    2.7535 H   0  0  0  0  0  0  0  0  0  0  0  0
    8.8164   -5.2897    4.1555 H   0  0  0  0  0  0  0  0  0  0  0  0
  1  2  1  0  0  0  0 
  1  3  1  0  0  0  0 
  2  4  2  0  0  0  0 
  2  5  1  0  0  0  0 
  3  6  2  0  0  0  0 
  3  7  1  0  0  0  0 
  4  8  1  0  0  0  0 
  4  9  1  0  0  0  0 
  5 10  2  0  0  0  0 
  6 11  1  0  0  0  0 
  7 12  2  0  0  0  0 
  8 13  1  0  0  0  0 
  8 14  2  0  0  0  0 
  9 15  2  0  0  0  0 
 10 14  1  0  0  0  0 
 11 16  1  0  0  0  0 
 11 17  2  0  0  0  0 
 12 17  1  0  0  0  0 
 13 18  2  0  0  0  0 
 15 18  1  0  0  0  0 
 15 19  1  0  0  0  0 
 17 20  1  0  0  0  0 
 18 21  1  0  0  0  0 
 19 22  1  0  0  0  0 
 21 23  1  0  0  0  0 
 22 24  1  0  0  0  0 
 24 25  1  0  0  0  0 
 25 26  1  0  0  0  0 
 26 27  1  0  0  0  0 
 26 28  1  0  0  0  0 
 27 29  1  0  0  0  0 
 28 30  1  0  0  0  0 
 29 31  1  0  0  0  0 
 30 31  1  0  0  0  0 
  1 32  1  0  0  0  0 
  6 33  1  0  0  0  0 
  7 34  1  0  0  0  0 
  9 35  1  0  0  0  0 
 10 36  1  0  0  0  0 
 12 37  1  0  0  0  0 
 13 38  1  0  0  0  0 
 22 39  1  0  0  0  0 
 22 40  1  0  0  0  0 
 23 41  1  0  0  0  0 
 23 42  1  0  0  0  0 
 23 43  1  0  0  0  0 
 24 44  1  0  0  0  0 
 24 45  1  0  0  0  0 
 25 46  1  0  0  0  0 
 25 47  1  0  0  0  0 
 27 48  1  0  0  0  0 
 27 49  1  0  0  0  0 
 28 50  1  0  0  0  0 
 28 51  1  0  0  0  0 
 29 52  1  0  0  0  0 
 29 53  1  0  0  0  0 
 30 54  1  0  0  0  0 
 30 55  1  0  0  0  0 
M  END
> <cdk:Title>
gefitinib

> <Conformer>
1

> <SuperDrugID>
SD001143

$$$$
