mecamylamine
  CDK     0628171801

 33 34  0  0  0  0  0  0  0  0999 V2000
   -0.2305   -1.9636   -1.1501 N   0  0  1  0  0  0  0  0  0  0  0  0
    1.0626   -1.4838   -0.5580 C   0  0  1  0  0  0  0  0  0  0  0  0
    1.5523   -2.4078    0.6212 C   0  0  2  0  0  0  0  0  0  0  0  0
    2.2740   -1.6554   -1.5943 C   0  0  2  0  0  0  0  0  0  0  0  0
    3.0716   -2.1742    0.6686 C   0  0  2  0  0  0  0  0  0  0  0  0
    1.5014   -3.9280    0.2778 C   0  0  2  0  0  0  0  0  0  0  0  0
    1.8561   -2.2377   -2.9954 C   0  0  0  0  0  0  0  0  0  0  0  0
    3.2267   -2.6322   -0.7949 C   0  0  1  0  0  0  0  0  0  0  0  0
    2.7065   -4.0950   -0.6756 C   0  0  2  0  0  0  0  0  0  0  0  0
   -1.4552   -2.0725   -0.3254 C   0  0  0  0  0  0  0  0  0  0  0  0
    1.0629   -2.1925    1.5758 H   0  0  0  0  0  0  0  0  0  0  0  0
    4.2655   -2.6079   -1.1378 H   0  0  0  0  0  0  0  0  0  0  0  0
    0.8124   -0.0168   -0.0527 C   0  0  0  0  0  0  0  0  0  0  0  0
    3.0730   -0.3429   -1.9439 C   0  0  0  0  0  0  0  0  0  0  0  0
   -0.4530   -1.3551   -1.9406 H   0  0  0  0  0  0  0  0  0  0  0  0
    3.5957   -2.8060    1.3969 H   0  0  0  0  0  0  0  0  0  0  0  0
    3.3602   -1.1387    0.8538 H   0  0  0  0  0  0  0  0  0  0  0  0
    0.5658   -4.2309   -0.1951 H   0  0  0  0  0  0  0  0  0  0  0  0
    1.6376   -4.5293    1.1824 H   0  0  0  0  0  0  0  0  0  0  0  0
    1.2365   -3.1295   -2.9094 H   0  0  0  0  0  0  0  0  0  0  0  0
    2.7382   -2.5009   -3.5849 H   0  0  0  0  0  0  0  0  0  0  0  0
    1.2743   -1.5026   -3.5564 H   0  0  0  0  0  0  0  0  0  0  0  0
    2.4284   -4.5417   -1.6299 H   0  0  0  0  0  0  0  0  0  0  0  0
    3.4715   -4.7341   -0.2225 H   0  0  0  0  0  0  0  0  0  0  0  0
   -2.1955   -2.6342   -0.8945 H   0  0  0  0  0  0  0  0  0  0  0  0
   -1.8691   -1.0873   -0.1124 H   0  0  0  0  0  0  0  0  0  0  0  0
   -1.2698   -2.6002    0.6099 H   0  0  0  0  0  0  0  0  0  0  0  0
    1.7082    0.4418    0.3615 H   0  0  0  0  0  0  0  0  0  0  0  0
    0.4540    0.6070   -0.8740 H   0  0  0  0  0  0  0  0  0  0  0  0
    0.0651    0.0054    0.7415 H   0  0  0  0  0  0  0  0  0  0  0  0
    2.4228    0.3857   -2.4328 H   0  0  0  0  0  0  0  0  0  0  0  0
    3.5100    0.1323   -1.0670 H   0  0  0  0  0  0  0  0  0  0  0  0
    3.9007   -0.5604   -2.6236 H   0  0  0  0  0  0  0  0  0  0  0  0
  2  1  1  0  0  0  0 
  3  2  1  0  0  0  0 
  2  4  1  0  0  0  0 
  3  5  1  0  0  0  0 
  3  6  1  0  0  0  0 
  4  7  1  0  0  0  0 
  8  4  1  0  0  0  0 
  8  5  1  0  0  0  0 
  6  9  1  0  0  0  0 
  8  9  1  0  0  0  0 
  1 10  1  0  0  0  0 
  3 11  1  0  0  0  0 
  8 12  1  0  0  0  0 
  2 13  1  0  0  0  0 
  4 14  1  0  0  0  0 
  1 15  1  0  0  0  0 
  5 16  1  0  0  0  0 
  5 17  1  0  0  0  0 
  6 18  1  0  0  0  0 
  6 19  1  0  0  0  0 
  7 20  1  0  0  0  0 
  7 21  1  0  0  0  0 
  7 22  1  0  0  0  0 
  9 23  1  0  0  0  0 
  9 24  1  0  0  0  0 
 10 25  1  0  0  0  0 
 10 26  1  0  0  0  0 
 10 27  1  0  0  0  0 
 13 28  1  0  0  0  0 
 13 29  1  0  0  0  0 
 13 30  1  0  0  0  0 
 14 31  1  0  0  0  0 
 14 32  1  0  0  0  0 
 14 33  1  0  0  0  0 
M  END
> <cdk:Title>
mecamylamine

> <Conformer>
1

> <SuperDrugID>
SD001456

$$$$
