beta-Ergocryptine
  CDK     0628171801

 83 89  0  0  0  0  0  0  0  0999 V2000
    0.2793    4.1856   -1.9275 O   0  0  0  0  0  0  0  0  0  0  0  0
   -0.1591    4.9096   -0.7775 C   0  0  1  0  0  0  0  0  0  0  0  0
    0.9349    5.1943    0.0816 N   0  0  0  0  0  0  0  0  0  0  0  0
   -0.8339    6.2653   -1.1339 C   0  0  1  0  0  0  0  0  0  0  0  0
   -1.0512    4.0647   -0.0332 O   0  0  0  0  0  0  0  0  0  0  0  0
    0.7889    4.5031    1.2262 C   0  0  0  0  0  0  0  0  0  0  0  0
    1.9871    6.1400   -0.2526 C   0  0  1  0  0  0  0  0  0  0  0  0
    0.1007    7.3000   -1.4501 N   0  0  0  0  0  0  0  0  0  0  0  0
   -1.7814    6.2698   -2.3493 C   0  0  1  0  0  0  0  0  0  0  0  0
   -0.4459    3.7019    1.2271 C   0  0  2  0  0  0  0  0  0  0  0  0
    1.6275    4.4926    2.1574 O   0  0  0  0  0  0  0  0  0  0  0  0
    3.1510    5.4644   -1.0866 C   0  0  2  0  0  0  0  0  0  0  0  0
    1.3784    7.3281   -0.9394 C   0  0  0  0  0  0  0  0  0  0  0  0
   -0.4371    8.2919   -2.3306 C   0  0  2  0  0  0  0  0  0  0  0  0
   -1.8274    7.7582   -2.7361 C   0  0  1  0  0  0  0  0  0  0  0  0
   -0.1293    2.3107    1.0409 N   0  0  0  0  0  0  0  0  0  0  0  0
   -1.5124    4.0740    2.3362 C   0  0  1  0  0  0  0  0  0  0  0  0
    3.7118    4.1881   -0.3649 C   0  0  2  0  0  0  0  0  0  0  0  0
    4.3002    6.4599   -1.4450 C   0  0  0  0  0  0  0  0  0  0  0  0
    2.0482    8.3837   -1.0418 O   0  0  0  0  0  0  0  0  0  0  0  0
    0.3417    1.4037    1.9432 C   0  0  0  0  0  0  0  0  0  0  0  0
   -2.6436    3.0137    2.4693 C   0  0  0  0  0  0  0  0  0  0  0  0
   -0.9709    4.4654    3.7443 C   0  0  0  0  0  0  0  0  0  0  0  0
    0.5963    1.7176    3.1277 O   0  0  0  0  0  0  0  0  0  0  0  0
    0.5619   -0.0044    1.5189 C   0  0  2  0  0  0  0  0  0  0  0  0
    1.7255   -0.0929    0.6344 C   0  0  0  0  0  0  0  0  0  0  0  0
   -0.7682   -0.6630    0.9901 C   0  0  2  0  0  0  0  0  0  0  0  0
    1.6388   -0.6723   -0.6193 C   0  0  0  0  0  0  0  0  0  0  0  0
   -0.5702   -1.7129   -0.0636 N   0  0  1  0  0  0  0  0  0  0  0  0
    2.8819   -0.8766   -1.3670 C   0  0  0  0  0  0  0  0  0  0  0  0
    0.2357   -1.1330   -1.1880 C   0  0  2  0  0  0  0  0  0  0  0  0
   -0.0906   -3.0159    0.4928 C   0  0  0  0  0  0  0  0  0  0  0  0
    2.7893   -1.5762   -2.5919 C   0  0  0  0  0  0  0  0  0  0  0  0
    4.2069   -0.4788   -1.0122 C   0  0  0  0  0  0  0  0  0  0  0  0
    0.3163   -2.0420   -2.5703 C   0  0  2  0  0  0  0  0  0  0  0  0
    1.6751   -2.1216   -3.2043 C   0  0  0  0  0  0  0  0  0  0  0  0
    3.8745   -1.8694   -3.4125 C   0  0  0  0  0  0  0  0  0  0  0  0
    5.3243   -0.7735   -1.8303 C   0  0  0  0  0  0  0  0  0  0  0  0
    2.1024   -2.7133   -4.3914 C   0  0  0  0  0  0  0  0  0  0  0  0
    3.4366   -2.5475   -4.4882 N   0  0  0  0  0  0  0  0  0  0  0  0
    5.1674   -1.4756   -3.0425 C   0  0  0  0  0  0  0  0  0  0  0  0
    4.8700    3.4404   -1.0703 C   0  0  0  0  0  0  0  0  0  0  0  0
    0.6343    3.3403   -1.5786 H   0  0  0  0  0  0  0  0  0  0  0  0
   -1.3922    6.6054   -0.2517 H   0  0  0  0  0  0  0  0  0  0  0  0
    2.4160    6.5114    0.6837 H   0  0  0  0  0  0  0  0  0  0  0  0
   -1.3591    5.6932   -3.1761 H   0  0  0  0  0  0  0  0  0  0  0  0
   -2.7700    5.8807   -2.0987 H   0  0  0  0  0  0  0  0  0  0  0  0
    2.7299    5.1313   -2.0396 H   0  0  0  0  0  0  0  0  0  0  0  0
    0.1994    8.3966   -3.2149 H   0  0  0  0  0  0  0  0  0  0  0  0
   -0.5191    9.2584   -1.8269 H   0  0  0  0  0  0  0  0  0  0  0  0
   -2.0185    7.8869   -3.8051 H   0  0  0  0  0  0  0  0  0  0  0  0
   -2.6084    8.2732   -2.1681 H   0  0  0  0  0  0  0  0  0  0  0  0
   -0.2553    1.9697    0.1406 H   0  0  0  0  0  0  0  0  0  0  0  0
   -2.0108    4.9864    1.9904 H   0  0  0  0  0  0  0  0  0  0  0  0
    2.9024    3.4625   -0.2549 H   0  0  0  0  0  0  0  0  0  0  0  0
    4.0520    4.4618    0.6368 H   0  0  0  0  0  0  0  0  0  0  0  0
    3.9450    7.2450   -2.1126 H   0  0  0  0  0  0  0  0  0  0  0  0
    4.7098    6.9181   -0.5428 H   0  0  0  0  0  0  0  0  0  0  0  0
    5.1102    5.9651   -1.9810 H   0  0  0  0  0  0  0  0  0  0  0  0
   -3.0617    2.7750    1.4897 H   0  0  0  0  0  0  0  0  0  0  0  0
   -3.4509    3.3942    3.1005 H   0  0  0  0  0  0  0  0  0  0  0  0
   -2.2667    2.0965    2.9219 H   0  0  0  0  0  0  0  0  0  0  0  0
   -0.3076    5.3281    3.6754 H   0  0  0  0  0  0  0  0  0  0  0  0
   -1.7968    4.7459    4.4010 H   0  0  0  0  0  0  0  0  0  0  0  0
   -0.4346    3.6482    4.2183 H   0  0  0  0  0  0  0  0  0  0  0  0
    0.8478   -0.5876    2.4018 H   0  0  0  0  0  0  0  0  0  0  0  0
    2.5804    0.2383    1.0076 H   0  0  0  0  0  0  0  0  0  0  0  0
   -1.4329    0.0895    0.5548 H   0  0  0  0  0  0  0  0  0  0  0  0
   -1.3273   -1.0736    1.8348 H   0  0  0  0  0  0  0  0  0  0  0  0
   -0.2588   -0.2129   -1.5141 H   0  0  0  0  0  0  0  0  0  0  0  0
   -0.7765   -3.3675    1.2662 H   0  0  0  0  0  0  0  0  0  0  0  0
   -0.0707   -3.7851   -0.2761 H   0  0  0  0  0  0  0  0  0  0  0  0
    0.9086   -2.9328    0.9256 H   0  0  0  0  0  0  0  0  0  0  0  0
    4.3960    0.0307   -0.1499 H   0  0  0  0  0  0  0  0  0  0  0  0
   -0.3522   -1.6770   -3.3926 H   0  0  0  0  0  0  0  0  0  0  0  0
    0.0136   -3.1086   -2.4476 H   0  0  0  0  0  0  0  0  0  0  0  0
    6.2590   -0.4772   -1.5373 H   0  0  0  0  0  0  0  0  0  0  0  0
    1.5079   -3.1971   -5.0678 H   0  0  0  0  0  0  0  0  0  0  0  0
    3.9927   -2.8711   -5.2150 H   0  0  0  0  0  0  0  0  0  0  0  0
    5.9722   -1.6954   -3.6323 H   0  0  0  0  0  0  0  0  0  0  0  0
    5.8130    3.9669   -0.9162 H   0  0  0  0  0  0  0  0  0  0  0  0
    4.9780    2.4415   -0.6482 H   0  0  0  0  0  0  0  0  0  0  0  0
    4.6772    3.3477   -2.1404 H   0  0  0  0  0  0  0  0  0  0  0  0
  2  1  1  0  0  0  0 
  2  3  1  0  0  0  0 
  2  4  1  0  0  0  0 
  2  5  1  0  0  0  0 
  3  6  1  0  0  0  0 
  7  3  1  0  0  0  0 
  4  8  1  0  0  0  0 
  4  9  1  0  0  0  0 
 10  5  1  0  0  0  0 
 10  6  1  0  0  0  0 
  6 11  2  0  0  0  0 
  7 12  1  0  0  0  0 
  7 13  1  0  0  0  0 
  8 13  1  0  0  0  0 
  8 14  1  0  0  0  0 
  9 15  1  0  0  0  0 
 10 16  1  0  0  0  0 
 10 17  1  0  0  0  0 
 12 18  1  0  0  0  0 
 12 19  1  0  0  0  0 
 13 20  2  0  0  0  0 
 14 15  1  0  0  0  0 
 16 21  1  0  0  0  0 
 17 22  1  0  0  0  0 
 17 23  1  0  0  0  0 
 21 24  2  0  0  0  0 
 25 21  1  0  0  0  0 
 25 26  1  0  0  0  0 
 25 27  1  0  0  0  0 
 26 28  2  0  0  0  0 
 27 29  1  0  0  0  0 
 28 30  1  0  0  0  0 
 31 28  1  0  0  0  0 
 31 29  1  0  0  0  0 
 29 32  1  0  0  0  0 
 30 33  2  0  0  0  0 
 30 34  1  0  0  0  0 
 31 35  1  0  0  0  0 
 33 36  1  0  0  0  0 
 33 37  1  0  0  0  0 
 34 38  2  0  0  0  0 
 35 36  1  0  0  0  0 
 36 39  2  0  0  0  0 
 37 40  1  0  0  0  0 
 37 41  2  0  0  0  0 
 38 41  1  0  0  0  0 
 39 40  1  0  0  0  0 
 18 42  1  0  0  0  0 
 43  1  1  0  0  0  0 
  4 44  1  0  0  0  0 
  7 45  1  0  0  0  0 
 46  9  1  0  0  0  0 
 47  9  1  0  0  0  0 
 12 48  1  0  0  0  0 
 49 14  1  0  0  0  0 
 50 14  1  0  0  0  0 
 51 15  1  0  0  0  0 
 52 15  1  0  0  0  0 
 53 16  1  0  0  0  0 
 54 17  1  0  0  0  0 
 55 18  1  0  0  0  0 
 56 18  1  0  0  0  0 
 57 19  1  0  0  0  0 
 58 19  1  0  0  0  0 
 59 19  1  0  0  0  0 
 60 22  1  0  0  0  0 
 61 22  1  0  0  0  0 
 62 22  1  0  0  0  0 
 63 23  1  0  0  0  0 
 64 23  1  0  0  0  0 
 65 23  1  0  0  0  0 
 25 66  1  0  0  0  0 
 67 26  1  0  0  0  0 
 68 27  1  0  0  0  0 
 69 27  1  0  0  0  0 
 31 70  1  0  0  0  0 
 71 32  1  0  0  0  0 
 72 32  1  0  0  0  0 
 73 32  1  0  0  0  0 
 74 34  1  0  0  0  0 
 75 35  1  0  0  0  0 
 76 35  1  0  0  0  0 
 77 38  1  0  0  0  0 
 78 39  1  0  0  0  0 
 79 40  1  0  0  0  0 
 80 41  1  0  0  0  0 
 81 42  1  0  0  0  0 
 82 42  1  0  0  0  0 
 83 42  1  0  0  0  0 
M  END
> <cdk:Title>
beta-Ergocryptine

> <Conformer>
1

> <SuperDrugID>
SD002756

$$$$
