proglumide
  CDK     0628171801

 50 50  0  0  0  0  0  0  0  0999 V2000
   -1.8248    0.7716    1.4201 C   0  0  2  0  0  0  0  0  0  0  0  0
   -1.9637    1.9440    0.4913 C   0  0  0  0  0  0  0  0  0  0  0  0
   -1.4435   -0.4692    0.8209 N   0  0  0  0  0  0  0  0  0  0  0  0
   -3.1050    0.5598    2.2850 C   0  0  2  0  0  0  0  0  0  0  0  0
   -2.6135    2.0136   -0.7464 N   0  0  0  0  0  0  0  0  0  0  0  0
   -1.4377    2.9935    0.9401 O   0  0  0  0  0  0  0  0  0  0  0  0
   -0.2202   -0.7929    0.3201 C   0  0  0  0  0  0  0  0  0  0  0  0
   -2.8724   -0.3871    3.5003 C   0  0  1  0  0  0  0  0  0  0  0  0
   -2.7800    3.3105   -1.4039 C   0  0  1  0  0  0  0  0  0  0  0  0
   -3.1485    0.8458   -1.4288 C   0  0  2  0  0  0  0  0  0  0  0  0
    0.6610    0.0991    0.2578 O   0  0  0  0  0  0  0  0  0  0  0  0
    0.0710   -2.1250   -0.0998 C   0  0  0  0  0  0  0  0  0  0  0  0
   -4.0285   -0.4504    4.4135 C   0  0  0  0  0  0  0  0  0  0  0  0
   -3.8836    4.1996   -0.7629 C   0  0  1  0  0  0  0  0  0  0  0  0
   -2.1789    0.3338   -2.5315 C   0  0  2  0  0  0  0  0  0  0  0  0
   -0.8091   -3.2053    0.1785 C   0  0  0  0  0  0  0  0  0  0  0  0
    1.2783   -2.4187   -0.7845 C   0  0  0  0  0  0  0  0  0  0  0  0
   -5.1963   -0.9949    4.0052 O   0  0  0  0  0  0  0  0  0  0  0  0
   -3.9492   -0.0239    5.5876 O   0  0  0  0  0  0  0  0  0  0  0  0
   -5.2968    3.5797   -0.8195 C   0  0  0  0  0  0  0  0  0  0  0  0
   -2.5984   -1.0068   -3.1762 C   0  0  0  0  0  0  0  0  0  0  0  0
   -0.4804   -4.5238   -0.1827 C   0  0  0  0  0  0  0  0  0  0  0  0
    1.6081   -3.7378   -1.1440 C   0  0  0  0  0  0  0  0  0  0  0  0
    0.7319   -4.7916   -0.8365 C   0  0  0  0  0  0  0  0  0  0  0  0
   -1.0252    1.0091    2.1310 H   0  0  0  0  0  0  0  0  0  0  0  0
   -2.1232   -1.1572    0.8045 H   0  0  0  0  0  0  0  0  0  0  0  0
   -3.9085    0.1552    1.6624 H   0  0  0  0  0  0  0  0  0  0  0  0
   -3.4347    1.5307    2.6665 H   0  0  0  0  0  0  0  0  0  0  0  0
   -2.6642   -1.4005    3.1478 H   0  0  0  0  0  0  0  0  0  0  0  0
   -1.9987   -0.0455    4.0621 H   0  0  0  0  0  0  0  0  0  0  0  0
   -1.8372    3.8683   -1.3846 H   0  0  0  0  0  0  0  0  0  0  0  0
   -3.0265    3.1986   -2.4641 H   0  0  0  0  0  0  0  0  0  0  0  0
   -4.1060    1.0894   -1.8969 H   0  0  0  0  0  0  0  0  0  0  0  0
   -3.3712    0.0369   -0.7356 H   0  0  0  0  0  0  0  0  0  0  0  0
   -3.6365    4.4053    0.2798 H   0  0  0  0  0  0  0  0  0  0  0  0
   -3.9098    5.1592   -1.2872 H   0  0  0  0  0  0  0  0  0  0  0  0
   -1.1824    0.2059   -2.1082 H   0  0  0  0  0  0  0  0  0  0  0  0
   -2.1034    1.0840   -3.3212 H   0  0  0  0  0  0  0  0  0  0  0  0
   -1.6977   -3.0559    0.6600 H   0  0  0  0  0  0  0  0  0  0  0  0
    1.9367   -1.6735   -1.0275 H   0  0  0  0  0  0  0  0  0  0  0  0
   -5.9596   -1.0508    4.6183 H   0  0  0  0  0  0  0  0  0  0  0  0
   -6.0287    4.2945   -0.4428 H   0  0  0  0  0  0  0  0  0  0  0  0
   -5.5598    3.3229   -1.8473 H   0  0  0  0  0  0  0  0  0  0  0  0
   -5.3439    2.6817   -0.2020 H   0  0  0  0  0  0  0  0  0  0  0  0
   -1.8901   -1.2654   -3.9653 H   0  0  0  0  0  0  0  0  0  0  0  0
   -2.5915   -1.8095   -2.4361 H   0  0  0  0  0  0  0  0  0  0  0  0
   -3.5951   -0.9311   -3.6128 H   0  0  0  0  0  0  0  0  0  0  0  0
   -1.1211   -5.2886    0.0367 H   0  0  0  0  0  0  0  0  0  0  0  0
    2.4883   -3.9302   -1.6267 H   0  0  0  0  0  0  0  0  0  0  0  0
    0.9769   -5.7512   -1.0868 H   0  0  0  0  0  0  0  0  0  0  0  0
  1  2  1  0  0  0  0 
  1  3  1  0  0  0  0 
  1  4  1  0  0  0  0 
  2  5  1  0  0  0  0 
  2  6  2  0  0  0  0 
  3  7  1  0  0  0  0 
  4  8  1  0  0  0  0 
  5  9  1  0  0  0  0 
  5 10  1  0  0  0  0 
  7 11  2  0  0  0  0 
  7 12  1  0  0  0  0 
  8 13  1  0  0  0  0 
  9 14  1  0  0  0  0 
 10 15  1  0  0  0  0 
 12 16  2  0  0  0  0 
 12 17  1  0  0  0  0 
 13 18  1  0  0  0  0 
 13 19  2  0  0  0  0 
 14 20  1  0  0  0  0 
 15 21  1  0  0  0  0 
 16 22  1  0  0  0  0 
 17 23  2  0  0  0  0 
 22 24  2  0  0  0  0 
 23 24  1  0  0  0  0 
  1 25  1  0  0  0  0 
  3 26  1  0  0  0  0 
  4 27  1  0  0  0  0 
  4 28  1  0  0  0  0 
  8 29  1  0  0  0  0 
  8 30  1  0  0  0  0 
  9 31  1  0  0  0  0 
  9 32  1  0  0  0  0 
 10 33  1  0  0  0  0 
 10 34  1  0  0  0  0 
 14 35  1  0  0  0  0 
 14 36  1  0  0  0  0 
 15 37  1  0  0  0  0 
 15 38  1  0  0  0  0 
 16 39  1  0  0  0  0 
 17 40  1  0  0  0  0 
 18 41  1  0  0  0  0 
 20 42  1  0  0  0  0 
 20 43  1  0  0  0  0 
 20 44  1  0  0  0  0 
 21 45  1  0  0  0  0 
 21 46  1  0  0  0  0 
 21 47  1  0  0  0  0 
 22 48  1  0  0  0  0 
 23 49  1  0  0  0  0 
 24 50  1  0  0  0  0 
M  END
> <cdk:Title>
proglumide

> <Conformer>
1

> <SuperDrugID>
SD002047

$$$$
