mazaticol
  CDK     0628171801

 54 57  0  0  0  0  0  0  0  0999 V2000
    1.0863    0.2844    7.0587 C   0  0  1  0  0  0  0  0  0  0  0  0
    0.1183   -0.1268    6.0028 C   0  0  0  0  0  0  0  0  0  0  0  0
    0.4648    0.0010    4.6810 O   0  0  0  0  0  0  0  0  0  0  0  0
   -0.3395   -0.2300    3.5062 C   0  0  2  0  0  0  0  0  0  0  0  0
    0.2360   -1.4505    2.7394 C   0  0  2  0  0  0  0  0  0  0  0  0
   -0.2255   -1.5667    1.2448 C   0  0  2  0  0  0  0  0  0  0  0  0
    0.0584   -0.2729    0.5379 N   0  0  1  0  0  0  0  0  0  0  0  0
   -0.7266    0.8490    1.1361 C   0  0  2  0  0  0  0  0  0  0  0  0
   -0.3592    1.0654    2.6411 C   0  0  1  0  0  0  0  0  0  0  0  0
   -2.2384    0.5904    0.8520 C   0  0  1  0  0  0  0  0  0  0  0  0
   -2.7371   -0.8133    1.2895 C   0  0  1  0  0  0  0  0  0  0  0  0
   -1.7346   -1.9838    0.9630 C   0  0  2  0  0  0  0  0  0  0  0  0
   -2.1570   -3.2526    1.7806 C   0  0  0  0  0  0  0  0  0  0  0  0
   -1.8812   -2.3533   -0.5564 C   0  0  0  0  0  0  0  0  0  0  0  0
    1.4873    0.0291    0.2127 C   0  0  0  0  0  0  0  0  0  0  0  0
   -1.0172   -0.5582    6.3164 O   0  0  0  0  0  0  0  0  0  0  0  0
    0.4168    0.2908    8.3272 O   0  0  0  0  0  0  0  0  0  0  0  0
    2.2479   -0.6396    7.1945 C   0  0  0  0  0  0  0  0  0  0  0  0
    3.1771   -0.6608    8.2518 C   0  0  0  0  0  0  0  0  0  0  0  0
    4.2330   -1.5817    8.1291 C   0  0  0  0  0  0  0  0  0  0  0  0
    4.2201   -2.3383    6.9568 C   0  0  0  0  0  0  0  0  0  0  0  0
    2.8072   -1.8483    6.0457 S   0  0  0  0  0  0  0  0  0  0  0  0
    1.5265    1.6688    6.7355 C   0  0  0  0  0  0  0  0  0  0  0  0
    0.7644    2.8432    6.8496 C   0  0  0  0  0  0  0  0  0  0  0  0
    1.3634    4.0134    6.3520 C   0  0  0  0  0  0  0  0  0  0  0  0
    2.6479    3.8472    5.8345 C   0  0  0  0  0  0  0  0  0  0  0  0
    3.0470    2.1511    5.9915 S   0  0  0  0  0  0  0  0  0  0  0  0
   -1.3566   -0.4632    3.8153 H   0  0  0  0  0  0  0  0  0  0  0  0
    0.0010   -2.3655    3.2867 H   0  0  0  0  0  0  0  0  0  0  0  0
    1.3252   -1.3663    2.7473 H   0  0  0  0  0  0  0  0  0  0  0  0
    0.4048   -2.3494    0.8056 H   0  0  0  0  0  0  0  0  0  0  0  0
   -0.4820    1.7789    0.6101 H   0  0  0  0  0  0  0  0  0  0  0  0
   -1.0526    1.7829    3.0864 H   0  0  0  0  0  0  0  0  0  0  0  0
    0.6345    1.5222    2.6792 H   0  0  0  0  0  0  0  0  0  0  0  0
   -2.8473    1.3589    1.3354 H   0  0  0  0  0  0  0  0  0  0  0  0
   -2.4081    0.6844   -0.2245 H   0  0  0  0  0  0  0  0  0  0  0  0
   -2.9563   -0.7817    2.3548 H   0  0  0  0  0  0  0  0  0  0  0  0
   -3.7050   -1.0001    0.8119 H   0  0  0  0  0  0  0  0  0  0  0  0
   -2.1755   -3.0507    2.8529 H   0  0  0  0  0  0  0  0  0  0  0  0
   -1.4668   -4.0799    1.6003 H   0  0  0  0  0  0  0  0  0  0  0  0
   -3.1619   -3.5801    1.5023 H   0  0  0  0  0  0  0  0  0  0  0  0
   -1.6361   -1.5062   -1.1974 H   0  0  0  0  0  0  0  0  0  0  0  0
   -1.2190   -3.1793   -0.8241 H   0  0  0  0  0  0  0  0  0  0  0  0
   -2.9044   -2.6575   -0.7885 H   0  0  0  0  0  0  0  0  0  0  0  0
    2.0845    0.2142    1.1078 H   0  0  0  0  0  0  0  0  0  0  0  0
    1.5554    0.9112   -0.4285 H   0  0  0  0  0  0  0  0  0  0  0  0
    1.9326   -0.8040   -0.3335 H   0  0  0  0  0  0  0  0  0  0  0  0
    1.0752    0.6121    8.9785 H   0  0  0  0  0  0  0  0  0  0  0  0
    3.1033   -0.0430    9.0641 H   0  0  0  0  0  0  0  0  0  0  0  0
    4.9587   -1.6877    8.8418 H   0  0  0  0  0  0  0  0  0  0  0  0
    4.9022   -3.0439    6.6767 H   0  0  0  0  0  0  0  0  0  0  0  0
   -0.1734    2.8497    7.2549 H   0  0  0  0  0  0  0  0  0  0  0  0
    0.8962    4.9212    6.3711 H   0  0  0  0  0  0  0  0  0  0  0  0
    3.2513    4.5743    5.4546 H   0  0  0  0  0  0  0  0  0  0  0  0
  1  2  1  0  0  0  0 
  1 17  1  0  0  0  0 
  1 18  1  0  0  0  0 
  1 23  1  0  0  0  0 
  2  3  1  0  0  0  0 
  2 16  2  0  0  0  0 
  4  3  1  0  0  0  0 
  4  5  1  0  0  0  0 
  4  9  1  0  0  0  0 
  6  5  1  0  0  0  0 
  6  7  1  0  0  0  0 
  6 12  1  0  0  0  0 
  7 15  1  0  0  0  0 
  8  7  1  0  0  0  0 
  8 10  1  0  0  0  0 
  8  9  1  0  0  0  0 
 10 11  1  0  0  0  0 
 12 11  1  0  0  0  0 
 12 13  1  0  0  0  0 
 12 14  1  0  0  0  0 
 18 19  2  0  0  0  0 
 18 22  1  0  0  0  0 
 19 20  1  0  0  0  0 
 20 21  2  0  0  0  0 
 22 21  1  0  0  0  0 
 23 24  2  0  0  0  0 
 23 27  1  0  0  0  0 
 24 25  1  0  0  0  0 
 25 26  2  0  0  0  0 
 27 26  1  0  0  0  0 
  4 28  1  0  0  0  0 
  5 29  1  0  0  0  0 
  5 30  1  0  0  0  0 
  6 31  1  0  0  0  0 
  8 32  1  0  0  0  0 
  9 33  1  0  0  0  0 
  9 34  1  0  0  0  0 
 10 35  1  0  0  0  0 
 10 36  1  0  0  0  0 
 11 37  1  0  0  0  0 
 11 38  1  0  0  0  0 
 13 39  1  0  0  0  0 
 13 40  1  0  0  0  0 
 13 41  1  0  0  0  0 
 14 42  1  0  0  0  0 
 14 43  1  0  0  0  0 
 14 44  1  0  0  0  0 
 15 45  1  0  0  0  0 
 15 46  1  0  0  0  0 
 15 47  1  0  0  0  0 
 17 48  1  0  0  0  0 
 19 49  1  0  0  0  0 
 20 50  1  0  0  0  0 
 21 51  1  0  0  0  0 
 24 52  1  0  0  0  0 
 25 53  1  0  0  0  0 
 26 54  1  0  0  0  0 
M  END
> <cdk:Title>
mazaticol

> <Conformer>
1

> <SuperDrugID>
SD001449

$$$$
