rifaximin
  CDK     0628171801

108113  0  0  0  0  0  0  0  0999 V2000
   -2.1077    0.0278    3.7033 C   0  0  0  0  0  0  0  0  0  0  0  0
   -0.9553   -0.3959    4.3906 C   0  0  0  0  0  0  0  0  0  0  0  0
    0.2930    0.1342    4.0622 C   0  0  0  0  0  0  0  0  0  0  0  0
    0.4360    1.1561    3.0973 C   0  0  0  0  0  0  0  0  0  0  0  0
   -0.7542    1.8088    2.6353 C   0  0  0  0  0  0  0  0  0  0  0  0
   -2.0241    1.2214    2.9366 C   0  0  0  0  0  0  0  0  0  0  0  0
    1.6757    1.5366    2.5304 C   0  0  0  0  0  0  0  0  0  0  0  0
    1.7770    2.6178    1.6588 C   0  0  0  0  0  0  0  0  0  0  0  0
    0.6461    3.3957    1.3323 C   0  0  0  0  0  0  0  0  0  0  0  0
   -0.6185    2.9736    1.8221 C   0  0  0  0  0  0  0  0  0  0  0  0
    2.9443    0.9782    2.5806 C   0  0  0  0  0  0  0  0  0  0  0  0
    3.8404    1.7311    1.6926 C   0  0  1  0  0  0  0  0  0  0  0  0
    3.0380    2.8128    1.1678 O   0  0  0  0  0  0  0  0  0  0  0  0
   -0.7598   -1.3100    5.3639 N   0  0  0  0  0  0  0  0  0  0  0  0
    0.5718   -1.3652    5.5812 C   0  0  0  0  0  0  0  0  0  0  0  0
    1.2235   -0.4960    4.7968 N   0  0  0  0  0  0  0  0  0  0  0  0
   -1.6371   -2.0597    6.0898 C   0  0  0  0  0  0  0  0  0  0  0  0
   -1.1392   -2.9612    7.0530 C   0  0  0  0  0  0  0  0  0  0  0  0
    0.2558   -3.0547    7.2847 C   0  0  0  0  0  0  0  0  0  0  0  0
    1.1287   -2.2311    6.5348 C   0  0  0  0  0  0  0  0  0  0  0  0
   -3.1593   -0.8337    3.5987 N   0  0  0  0  0  0  0  0  0  0  0  0
   -3.1644    1.7291    2.3972 O   0  0  0  0  0  0  0  0  0  0  0  0
   -1.7044    3.7117    1.4700 O   0  0  0  0  0  0  0  0  0  0  0  0
    0.7689    4.6019    0.4701 C   0  0  0  0  0  0  0  0  0  0  0  0
    5.0290    2.3423    2.4777 C   0  0  0  0  0  0  0  0  0  0  0  0
    4.4004    0.8631    0.6777 O   0  0  0  0  0  0  0  0  0  0  0  0
    3.6205    0.5253   -0.3611 C   0  0  0  0  0  0  0  0  0  0  0  0
    3.0088   -0.6696   -0.4323 C   0  0  0  0  0  0  0  0  0  0  0  0
   -4.4852   -0.6180    3.8120 C   0  0  0  0  0  0  0  0  0  0  0  0
    2.3035   -1.1274   -1.6303 C   0  0  2  0  0  0  0  0  0  0  0  0
    1.2868   -0.1424   -1.9433 O   0  0  0  0  0  0  0  0  0  0  0  0
    0.5407   -2.8639   -0.6091 C   0  0  1  0  0  0  0  0  0  0  0  0
   -0.4688   -1.8772   -0.9123 O   0  0  0  0  0  0  0  0  0  0  0  0
   -0.9691   -0.9004   -0.1045 C   0  0  0  0  0  0  0  0  0  0  0  0
   -1.9794    0.0330   -0.6215 C   0  0  0  0  0  0  0  0  0  0  0  0
   -0.5899   -0.8084    1.0824 O   0  0  0  0  0  0  0  0  0  0  0  0
   -0.1432   -4.2900   -0.6803 C   0  0  1  0  0  0  0  0  0  0  0  0
   -1.0973   -4.6357    0.5357 C   0  0  2  0  0  0  0  0  0  0  0  0
    0.6521   -5.0316   -0.6698 H   0  0  0  0  0  0  0  0  0  0  0  0
   -1.8222   -5.3968    0.2262 H   0  0  0  0  0  0  0  0  0  0  0  0
   -0.8894   -4.5149   -2.0288 C   0  0  0  0  0  0  0  0  0  0  0  0
    0.9126   -2.7279    0.4114 H   0  0  0  0  0  0  0  0  0  0  0  0
    3.0574   -1.0935   -2.4275 H   0  0  0  0  0  0  0  0  0  0  0  0
    1.7666   -2.6156   -1.5762 C   0  0  2  0  0  0  0  0  0  0  0  0
    1.4236   -2.8251   -2.5890 H   0  0  0  0  0  0  0  0  0  0  0  0
    2.9426   -3.6157   -1.3458 C   0  0  0  0  0  0  0  0  0  0  0  0
    3.3075   -0.0481    3.1970 O   0  0  0  0  0  0  0  0  0  0  0  0
    0.7745   -3.9905    8.3104 C   0  0  0  0  0  0  0  0  0  0  0  0
   -1.8904   -3.4966    0.8631 O   0  0  0  0  0  0  0  0  0  0  0  0
   -0.3804   -5.2136    1.8123 C   0  0  1  0  0  0  0  0  0  0  0  0
   -1.1537   -5.0288    3.1725 C   0  0  2  0  0  0  0  0  0  0  0  0
    0.0330   -6.7077    1.6154 C   0  0  0  0  0  0  0  0  0  0  0  0
    0.5583   -4.6654    1.9285 H   0  0  0  0  0  0  0  0  0  0  0  0
   -2.5999   -5.6467    3.2795 C   0  0  2  0  0  0  0  0  0  0  0  0
   -1.1527   -3.6486    3.5252 O   0  0  0  0  0  0  0  0  0  0  0  0
   -0.5320   -5.4912    3.9458 H   0  0  0  0  0  0  0  0  0  0  0  0
   -4.8230    0.4193    4.4336 O   0  0  0  0  0  0  0  0  0  0  0  0
   -5.4566   -1.4912    3.2734 C   0  0  0  0  0  0  0  0  0  0  0  0
   -6.7288   -0.8924    2.8361 C   0  0  0  0  0  0  0  0  0  0  0  0
   -5.3127   -2.8336    3.0834 C   0  0  0  0  0  0  0  0  0  0  0  0
   -4.1917   -3.5794    3.5563 C   0  0  0  0  0  0  0  0  0  0  0  0
   -3.7288   -4.7136    2.8623 C   0  0  0  0  0  0  0  0  0  0  0  0
   -2.6369   -6.5217    2.6255 H   0  0  0  0  0  0  0  0  0  0  0  0
   -2.8909   -6.2114    4.7014 C   0  0  0  0  0  0  0  0  0  0  0  0
    0.8165   -0.0944   -3.3050 C   0  0  0  0  0  0  0  0  0  0  0  0
   -2.6448   -1.9724    5.9580 H   0  0  0  0  0  0  0  0  0  0  0  0
   -1.7956   -3.5388    7.5843 H   0  0  0  0  0  0  0  0  0  0  0  0
    2.1411   -2.2516    6.6772 H   0  0  0  0  0  0  0  0  0  0  0  0
   -2.9192   -1.7072    3.2579 H   0  0  0  0  0  0  0  0  0  0  0  0
   -3.7093    0.9560    2.1484 H   0  0  0  0  0  0  0  0  0  0  0  0
   -2.2439    3.1148    0.9123 H   0  0  0  0  0  0  0  0  0  0  0  0
    0.4416    5.4863    1.0217 H   0  0  0  0  0  0  0  0  0  0  0  0
    0.1400    4.4858   -0.4149 H   0  0  0  0  0  0  0  0  0  0  0  0
    1.7930    4.7779    0.1326 H   0  0  0  0  0  0  0  0  0  0  0  0
    5.6625    1.5556    2.8931 H   0  0  0  0  0  0  0  0  0  0  0  0
    5.6373    2.9558    1.8104 H   0  0  0  0  0  0  0  0  0  0  0  0
    4.6701    2.9728    3.2940 H   0  0  0  0  0  0  0  0  0  0  0  0
    3.5526    1.1696   -1.1155 H   0  0  0  0  0  0  0  0  0  0  0  0
    3.0787   -1.2733    0.3524 H   0  0  0  0  0  0  0  0  0  0  0  0
   -1.6084    1.0581   -0.5611 H   0  0  0  0  0  0  0  0  0  0  0  0
   -2.2180   -0.1947   -1.6629 H   0  0  0  0  0  0  0  0  0  0  0  0
   -2.8936   -0.0527   -0.0273 H   0  0  0  0  0  0  0  0  0  0  0  0
   -1.7483   -3.8484   -2.1115 H   0  0  0  0  0  0  0  0  0  0  0  0
   -0.2347   -4.3452   -2.8809 H   0  0  0  0  0  0  0  0  0  0  0  0
   -1.2429   -5.5442   -2.0997 H   0  0  0  0  0  0  0  0  0  0  0  0
    3.8225   -3.3210   -1.9220 H   0  0  0  0  0  0  0  0  0  0  0  0
    2.6708   -4.6178   -1.6776 H   0  0  0  0  0  0  0  0  0  0  0  0
    3.2212   -3.6616   -0.2917 H   0  0  0  0  0  0  0  0  0  0  0  0
    0.5002   -5.0143    8.0507 H   0  0  0  0  0  0  0  0  0  0  0  0
    1.8621   -3.9435    8.4027 H   0  0  0  0  0  0  0  0  0  0  0  0
    0.3429   -3.7445    9.2823 H   0  0  0  0  0  0  0  0  0  0  0  0
   -2.3364   -3.2365    0.0308 H   0  0  0  0  0  0  0  0  0  0  0  0
   -0.8346   -7.3334    1.4021 H   0  0  0  0  0  0  0  0  0  0  0  0
    0.5182   -7.0931    2.5137 H   0  0  0  0  0  0  0  0  0  0  0  0
    0.7347   -6.8261    0.7901 H   0  0  0  0  0  0  0  0  0  0  0  0
   -0.2061   -3.3980    3.5823 H   0  0  0  0  0  0  0  0  0  0  0  0
   -6.9004   -1.1035    1.7785 H   0  0  0  0  0  0  0  0  0  0  0  0
   -6.7720    0.1920    2.9521 H   0  0  0  0  0  0  0  0  0  0  0  0
   -7.5526   -1.3186    3.4122 H   0  0  0  0  0  0  0  0  0  0  0  0
   -6.1362   -3.2672    2.5616 H   0  0  0  0  0  0  0  0  0  0  0  0
   -3.7553   -3.3320    4.4085 H   0  0  0  0  0  0  0  0  0  0  0  0
   -4.1319   -5.0733    1.9406 H   0  0  0  0  0  0  0  0  0  0  0  0
   -2.7669   -5.4417    5.4664 H   0  0  0  0  0  0  0  0  0  0  0  0
   -2.2027   -7.0310    4.9214 H   0  0  0  0  0  0  0  0  0  0  0  0
   -3.9092   -6.6038    4.7600 H   0  0  0  0  0  0  0  0  0  0  0  0
    0.0994    0.7229   -3.3902 H   0  0  0  0  0  0  0  0  0  0  0  0
    0.3101   -1.0168   -3.5932 H   0  0  0  0  0  0  0  0  0  0  0  0
    1.6413    0.1013   -3.9931 H   0  0  0  0  0  0  0  0  0  0  0  0
  1  2  1  0  0  0  0 
  2  3  2  0  0  0  0 
  3  4  1  0  0  0  0 
  4  5  1  0  0  0  0 
  5  6  1  0  0  0  0 
  6  1  2  0  0  0  0 
  4  7  2  0  0  0  0 
  7  8  1  0  0  0  0 
  8  9  2  0  0  0  0 
  9 10  1  0  0  0  0 
 10  5  2  0  0  0  0 
  7 11  1  0  0  0  0 
 11 12  1  0  0  0  0 
 12 13  1  0  0  0  0 
 13  8  1  0  0  0  0 
  2 14  1  0  0  0  0 
 14 15  1  0  0  0  0 
 15 16  2  0  0  0  0 
 16  3  1  0  0  0  0 
 14 17  1  0  0  0  0 
 17 18  2  0  0  0  0 
 18 19  1  0  0  0  0 
 19 20  2  0  0  0  0 
 20 15  1  0  0  0  0 
  1 21  1  0  0  0  0 
  6 22  1  0  0  0  0 
 10 23  1  0  0  0  0 
  9 24  1  0  0  0  0 
 12 25  1  0  0  0  0 
 12 26  1  0  0  0  0 
 26 27  1  0  0  0  0 
 27 28  2  0  0  0  0 
 21 29  1  0  0  0  0 
 30 31  1  0  0  0  0 
 32 33  1  0  0  0  0 
 33 34  1  0  0  0  0 
 34 35  1  0  0  0  0 
 34 36  2  0  0  0  0 
 32 37  1  0  0  0  0 
 37 38  1  0  0  0  0 
 37 39  1  0  0  0  0 
 38 40  1  0  0  0  0 
 37 41  1  0  0  0  0 
 32 42  1  0  0  0  0 
 30 43  1  0  0  0  0 
 30 44  1  0  0  0  0 
 32 44  1  0  0  0  0 
 44 45  1  0  0  0  0 
 44 46  1  0  0  0  0 
 30 28  1  0  0  0  0 
 11 47  2  0  0  0  0 
 19 48  1  0  0  0  0 
 38 49  1  0  0  0  0 
 38 50  1  0  0  0  0 
 50 51  1  0  0  0  0 
 50 52  1  0  0  0  0 
 50 53  1  0  0  0  0 
 51 54  1  0  0  0  0 
 51 55  1  0  0  0  0 
 51 56  1  0  0  0  0 
 29 57  2  0  0  0  0 
 29 58  1  0  0  0  0 
 58 59  1  0  0  0  0 
 58 60  2  0  0  0  0 
 60 61  1  0  0  0  0 
 61 62  2  0  0  0  0 
 54 62  1  0  0  0  0 
 54 63  1  0  0  0  0 
 54 64  1  0  0  0  0 
 31 65  1  0  0  0  0 
 17 66  1  0  0  0  0 
 18 67  1  0  0  0  0 
 20 68  1  0  0  0  0 
 21 69  1  0  0  0  0 
 22 70  1  0  0  0  0 
 23 71  1  0  0  0  0 
 24 72  1  0  0  0  0 
 24 73  1  0  0  0  0 
 24 74  1  0  0  0  0 
 25 75  1  0  0  0  0 
 25 76  1  0  0  0  0 
 25 77  1  0  0  0  0 
 27 78  1  0  0  0  0 
 28 79  1  0  0  0  0 
 35 80  1  0  0  0  0 
 35 81  1  0  0  0  0 
 35 82  1  0  0  0  0 
 41 83  1  0  0  0  0 
 41 84  1  0  0  0  0 
 41 85  1  0  0  0  0 
 46 86  1  0  0  0  0 
 46 87  1  0  0  0  0 
 46 88  1  0  0  0  0 
 48 89  1  0  0  0  0 
 48 90  1  0  0  0  0 
 48 91  1  0  0  0  0 
 49 92  1  0  0  0  0 
 52 93  1  0  0  0  0 
 52 94  1  0  0  0  0 
 52 95  1  0  0  0  0 
 55 96  1  0  0  0  0 
 59 97  1  0  0  0  0 
 59 98  1  0  0  0  0 
 59 99  1  0  0  0  0 
 60100  1  0  0  0  0 
 61101  1  0  0  0  0 
 62102  1  0  0  0  0 
 64103  1  0  0  0  0 
 64104  1  0  0  0  0 
 64105  1  0  0  0  0 
 65106  1  0  0  0  0 
 65107  1  0  0  0  0 
 65108  1  0  0  0  0 
M  END
> <cdk:Title>
rifaximin

> <Conformer>
1

> <SuperDrugID>
SD002140

$$$$
