pheneticillin
  CDK     0628171801

 45 47  0  0  0  0  0  0  0  0999 V2000
   -4.7294   -3.5254    4.3004 C   0  0  0  0  0  0  0  0  0  0  0  0
   -5.7005   -3.2451    5.2003 O   0  0  0  0  0  0  0  0  0  0  0  0
   -5.0694   -4.0395    3.2109 O   0  0  0  0  0  0  0  0  0  0  0  0
   -3.3139   -3.1940    4.5983 C   0  0  2  0  0  0  0  0  0  0  0  0
   -2.8152   -2.3569    3.5656 N   0  0  0  0  0  0  0  0  0  0  0  0
   -2.2488   -4.3627    4.6310 C   0  0  2  0  0  0  0  0  0  0  0  0
   -2.2230   -2.7844    2.3601 C   0  0  2  0  0  0  0  0  0  0  0  0
   -2.4195   -1.0960    3.4892 C   0  0  0  0  0  0  0  0  0  0  0  0
   -1.3427   -4.2286    3.0320 S   0  0  0  0  0  0  0  0  0  0  0  0
   -1.6303   -1.3396    2.2781 C   0  0  1  0  0  0  0  0  0  0  0  0
   -2.5644   -0.1058    4.2394 O   0  0  0  0  0  0  0  0  0  0  0  0
   -0.2192   -1.2561    2.4870 N   0  0  0  0  0  0  0  0  0  0  0  0
    0.4569   -0.1179    2.8062 C   0  0  0  0  0  0  0  0  0  0  0  0
    1.8987   -0.2338    3.1383 C   0  0  2  0  0  0  0  0  0  0  0  0
   -0.1401    0.9856    2.8494 O   0  0  0  0  0  0  0  0  0  0  0  0
    2.0150   -1.2742    4.1409 O   0  0  0  0  0  0  0  0  0  0  0  0
    2.5256    1.0836    3.6704 C   0  0  0  0  0  0  0  0  0  0  0  0
    3.1904   -1.9811    4.1282 C   0  0  0  0  0  0  0  0  0  0  0  0
    4.1552   -1.7607    5.1328 C   0  0  0  0  0  0  0  0  0  0  0  0
    3.4268   -2.9635    3.1418 C   0  0  0  0  0  0  0  0  0  0  0  0
    5.3504   -2.5048    5.1434 C   0  0  0  0  0  0  0  0  0  0  0  0
    4.6228   -3.7044    3.1486 C   0  0  0  0  0  0  0  0  0  0  0  0
    5.5854   -3.4748    4.1492 C   0  0  0  0  0  0  0  0  0  0  0  0
   -2.9737   -3.0362    1.6046 H   0  0  0  0  0  0  0  0  0  0  0  0
   -2.8584   -5.7886    4.7611 C   0  0  0  0  0  0  0  0  0  0  0  0
   -1.1786   -4.1418    5.7462 C   0  0  0  0  0  0  0  0  0  0  0  0
   -6.6374   -3.4582    5.0016 H   0  0  0  0  0  0  0  0  0  0  0  0
   -3.2965   -2.6513    5.5494 H   0  0  0  0  0  0  0  0  0  0  0  0
   -1.9891   -0.7739    1.4137 H   0  0  0  0  0  0  0  0  0  0  0  0
    0.2944   -2.0777    2.4245 H   0  0  0  0  0  0  0  0  0  0  0  0
    2.4032   -0.5066    2.2052 H   0  0  0  0  0  0  0  0  0  0  0  0
    3.5838    0.9430    3.8950 H   0  0  0  0  0  0  0  0  0  0  0  0
    2.4410    1.8711    2.9201 H   0  0  0  0  0  0  0  0  0  0  0  0
    2.0151    1.4080    4.5809 H   0  0  0  0  0  0  0  0  0  0  0  0
    3.9868   -1.0609    5.8590 H   0  0  0  0  0  0  0  0  0  0  0  0
    2.7256   -3.1434    2.4194 H   0  0  0  0  0  0  0  0  0  0  0  0
    6.0463   -2.3410    5.8755 H   0  0  0  0  0  0  0  0  0  0  0  0
    4.7888   -4.4133    2.4299 H   0  0  0  0  0  0  0  0  0  0  0  0
    6.4539   -4.0140    4.1517 H   0  0  0  0  0  0  0  0  0  0  0  0
   -3.4754   -6.0281    3.8932 H   0  0  0  0  0  0  0  0  0  0  0  0
   -3.4795   -5.8516    5.6586 H   0  0  0  0  0  0  0  0  0  0  0  0
   -2.0713   -6.5423    4.8266 H   0  0  0  0  0  0  0  0  0  0  0  0
   -0.7016   -3.1628    5.6438 H   0  0  0  0  0  0  0  0  0  0  0  0
   -1.6383   -4.2000    6.7358 H   0  0  0  0  0  0  0  0  0  0  0  0
   -0.3979   -4.9052    5.6896 H   0  0  0  0  0  0  0  0  0  0  0  0
  1  2  1  0  0  0  0 
  1  3  2  0  0  0  0 
  4  1  1  0  0  0  0 
  4  5  1  0  0  0  0 
  4  6  1  0  0  0  0 
  7  5  1  0  0  0  0 
  5  8  1  0  0  0  0 
  6  9  1  0  0  0  0 
  7  9  1  0  0  0  0 
 10  7  1  0  0  0  0 
  7 24  1  0  0  0  0 
 10  8  1  0  0  0  0 
  8 11  2  0  0  0  0 
 10 12  1  0  0  0  0 
 12 13  1  0  0  0  0 
 14 13  1  0  0  0  0 
 13 15  2  0  0  0  0 
 14 16  1  0  0  0  0 
 14 17  1  0  0  0  0 
 16 18  1  0  0  0  0 
 18 19  2  0  0  0  0 
 18 20  1  0  0  0  0 
 19 21  1  0  0  0  0 
 20 22  2  0  0  0  0 
 21 23  2  0  0  0  0 
 22 23  1  0  0  0  0 
  6 25  1  0  0  0  0 
  6 26  1  0  0  0  0 
  2 27  1  0  0  0  0 
  4 28  1  0  0  0  0 
 10 29  1  0  0  0  0 
 12 30  1  0  0  0  0 
 14 31  1  0  0  0  0 
 17 32  1  0  0  0  0 
 17 33  1  0  0  0  0 
 17 34  1  0  0  0  0 
 19 35  1  0  0  0  0 
 20 36  1  0  0  0  0 
 21 37  1  0  0  0  0 
 22 38  1  0  0  0  0 
 23 39  1  0  0  0  0 
 25 40  1  0  0  0  0 
 25 41  1  0  0  0  0 
 25 42  1  0  0  0  0 
 26 43  1  0  0  0  0 
 26 44  1  0  0  0  0 
 26 45  1  0  0  0  0 
M  END
> <cdk:Title>
pheneticillin

> <Conformer>
1

> <SuperDrugID>
SD001904

$$$$
