bilastine
  CDK     0628171801

 71 74  0  0  0  0  0  0  0  0999 V2000
   -2.8949   18.3473   12.3118 C   0  0  2  0  0  0  0  0  0  0  0  0
   -1.5592   17.5708   12.2882 C   0  0  1  0  0  0  0  0  0  0  0  0
   -3.0805   19.1549   11.1353 N   0  0  0  0  0  0  0  0  0  0  0  0
   -0.4451   18.4791   12.1711 O   0  0  0  0  0  0  0  0  0  0  0  0
   -3.6694   18.7888    9.9629 C   0  0  0  0  0  0  0  0  0  0  0  0
   -2.7123   20.4470   10.9956 C   0  0  0  0  0  0  0  0  0  0  0  0
    0.8326   17.8221   12.0746 C   0  0  2  0  0  0  0  0  0  0  0  0
   -3.7060   19.8392    9.1143 N   0  0  0  0  0  0  0  0  0  0  0  0
   -4.2281   17.4588    9.5871 C   0  0  2  0  0  0  0  0  0  0  0  0
   -3.1103   20.8618    9.7295 C   0  0  0  0  0  0  0  0  0  0  0  0
   -2.0446   21.3433   11.8562 C   0  0  0  0  0  0  0  0  0  0  0  0
    1.9478   18.8762   11.9655 C   0  0  0  0  0  0  0  0  0  0  0  0
   -3.8045   17.0469    8.1419 C   0  0  2  0  0  0  0  0  0  0  0  0
   -5.7755   17.4531    9.7720 C   0  0  1  0  0  0  0  0  0  0  0  0
   -2.8687   22.1633    9.2626 C   0  0  0  0  0  0  0  0  0  0  0  0
   -1.7857   22.6560   11.4039 C   0  0  0  0  0  0  0  0  0  0  0  0
   -4.5544   15.7825    7.6494 C   0  0  1  0  0  0  0  0  0  0  0  0
   -6.4217   16.1470    9.2276 C   0  0  1  0  0  0  0  0  0  0  0  0
   -2.1959   23.0634   10.1143 C   0  0  0  0  0  0  0  0  0  0  0  0
   -6.0440   15.9012    7.7921 N   0  0  1  0  0  0  0  0  0  0  0  0
   -6.7358   16.8158    6.8135 C   0  0  1  0  0  0  0  0  0  0  0  0
   -6.6518   16.4228    5.3133 C   0  0  1  0  0  0  0  0  0  0  0  0
   -7.2388   15.0849    5.0232 C   0  0  0  0  0  0  0  0  0  0  0  0
   -8.6098   14.9502    4.7141 C   0  0  0  0  0  0  0  0  0  0  0  0
   -6.4446   13.9187    5.0362 C   0  0  0  0  0  0  0  0  0  0  0  0
   -9.1684   13.6877    4.4439 C   0  0  0  0  0  0  0  0  0  0  0  0
   -7.0070   12.6571    4.7743 C   0  0  0  0  0  0  0  0  0  0  0  0
   -8.3923   12.4981    4.4989 C   0  0  0  0  0  0  0  0  0  0  0  0
   -9.0506   11.1462    4.2732 C   0  0  2  0  0  0  0  0  0  0  0  0
   -9.5240   11.0954    2.8553 C   0  0  0  0  0  0  0  0  0  0  0  0
   -8.6303   11.1974    1.8396 O   0  0  0  0  0  0  0  0  0  0  0  0
  -10.7317   10.9638    2.5474 O   0  0  0  0  0  0  0  0  0  0  0  0
  -10.2289   10.9659    5.2983 C   0  0  0  0  0  0  0  0  0  0  0  0
   -8.0973    9.9154    4.4737 C   0  0  0  0  0  0  0  0  0  0  0  0
   -2.9311   18.9703   13.2090 H   0  0  0  0  0  0  0  0  0  0  0  0
   -3.7156   17.6334   12.4117 H   0  0  0  0  0  0  0  0  0  0  0  0
   -1.4760   16.9996   13.2185 H   0  0  0  0  0  0  0  0  0  0  0  0
   -1.5726   16.8695   11.4482 H   0  0  0  0  0  0  0  0  0  0  0  0
    0.8657   17.1853   11.1861 H   0  0  0  0  0  0  0  0  0  0  0  0
    1.0157   17.2080   12.9606 H   0  0  0  0  0  0  0  0  0  0  0  0
   -3.8225   16.6957   10.2585 H   0  0  0  0  0  0  0  0  0  0  0  0
   -1.7457   21.0563   12.7894 H   0  0  0  0  0  0  0  0  0  0  0  0
    1.9641   19.5002   12.8606 H   0  0  0  0  0  0  0  0  0  0  0  0
    2.9153   18.3816   11.8630 H   0  0  0  0  0  0  0  0  0  0  0  0
    1.7819   19.5104   11.0929 H   0  0  0  0  0  0  0  0  0  0  0  0
   -2.7278   16.8536    8.1215 H   0  0  0  0  0  0  0  0  0  0  0  0
   -4.0090   17.8584    7.4390 H   0  0  0  0  0  0  0  0  0  0  0  0
   -6.0139   17.5393   10.8373 H   0  0  0  0  0  0  0  0  0  0  0  0
   -6.2217   18.3146    9.2655 H   0  0  0  0  0  0  0  0  0  0  0  0
   -3.1699   22.4482    8.3284 H   0  0  0  0  0  0  0  0  0  0  0  0
   -1.2979   23.3163   12.0137 H   0  0  0  0  0  0  0  0  0  0  0  0
   -4.2660   15.5848    6.6169 H   0  0  0  0  0  0  0  0  0  0  0  0
   -4.2120   14.9187    8.2276 H   0  0  0  0  0  0  0  0  0  0  0  0
   -5.9919   15.2865    9.8408 H   0  0  0  0  0  0  0  0  0  0  0  0
   -7.5501   16.2866    9.2906 H   0  0  0  0  0  0  0  0  0  0  0  0
   -2.0003   24.0149    9.7935 H   0  0  0  0  0  0  0  0  0  0  0  0
   -7.8003   16.8621    7.0608 H   0  0  0  0  0  0  0  0  0  0  0  0
   -6.3494   17.8334    6.9106 H   0  0  0  0  0  0  0  0  0  0  0  0
   -7.1849   17.1829    4.7341 H   0  0  0  0  0  0  0  0  0  0  0  0
   -5.6180   16.4745    4.9685 H   0  0  0  0  0  0  0  0  0  0  0  0
   -9.2139   15.7749    4.6766 H   0  0  0  0  0  0  0  0  0  0  0  0
   -5.4434   13.9750    5.2319 H   0  0  0  0  0  0  0  0  0  0  0  0
  -10.1637   13.6472    4.2100 H   0  0  0  0  0  0  0  0  0  0  0  0
   -6.3723   11.8580    4.7919 H   0  0  0  0  0  0  0  0  0  0  0  0
   -8.9329   11.1451    0.9100 H   0  0  0  0  0  0  0  0  0  0  0  0
  -10.6719    9.9687    5.2291 H   0  0  0  0  0  0  0  0  0  0  0  0
   -9.8751   11.1152    6.3208 H   0  0  0  0  0  0  0  0  0  0  0  0
  -11.0326   11.6810    5.1195 H   0  0  0  0  0  0  0  0  0  0  0  0
   -8.6306    8.9703    4.3530 H   0  0  0  0  0  0  0  0  0  0  0  0
   -7.6652    9.9250    5.4755 H   0  0  0  0  0  0  0  0  0  0  0  0
   -7.2762    9.9231    3.7537 H   0  0  0  0  0  0  0  0  0  0  0  0
  1  2  1  0  0  0  0 
  1  3  1  0  0  0  0 
  2  4  1  0  0  0  0 
  3  5  1  0  0  0  0 
  3  6  1  0  0  0  0 
  4  7  1  0  0  0  0 
  5  8  2  0  0  0  0 
  5  9  1  0  0  0  0 
  6 10  1  0  0  0  0 
  6 11  2  0  0  0  0 
  7 12  1  0  0  0  0 
  8 10  1  0  0  0  0 
  9 13  1  0  0  0  0 
  9 14  1  0  0  0  0 
 10 15  2  0  0  0  0 
 11 16  1  0  0  0  0 
 13 17  1  0  0  0  0 
 14 18  1  0  0  0  0 
 15 19  1  0  0  0  0 
 16 19  2  0  0  0  0 
 17 20  1  0  0  0  0 
 18 20  1  0  0  0  0 
 20 21  1  0  0  0  0 
 21 22  1  0  0  0  0 
 22 23  1  0  0  0  0 
 23 24  2  0  0  0  0 
 23 25  1  0  0  0  0 
 24 26  1  0  0  0  0 
 25 27  2  0  0  0  0 
 26 28  2  0  0  0  0 
 27 28  1  0  0  0  0 
 28 29  1  0  0  0  0 
 29 30  1  0  0  0  0 
 30 31  1  0  0  0  0 
 30 32  2  0  0  0  0 
 29 33  1  0  0  0  0 
 29 34  1  0  0  0  0 
  1 35  1  0  0  0  0 
  1 36  1  0  0  0  0 
  2 37  1  0  0  0  0 
  2 38  1  0  0  0  0 
  7 39  1  0  0  0  0 
  7 40  1  0  0  0  0 
  9 41  1  0  0  0  0 
 11 42  1  0  0  0  0 
 12 43  1  0  0  0  0 
 12 44  1  0  0  0  0 
 12 45  1  0  0  0  0 
 13 46  1  0  0  0  0 
 13 47  1  0  0  0  0 
 14 48  1  0  0  0  0 
 14 49  1  0  0  0  0 
 15 50  1  0  0  0  0 
 16 51  1  0  0  0  0 
 17 52  1  0  0  0  0 
 17 53  1  0  0  0  0 
 18 54  1  0  0  0  0 
 18 55  1  0  0  0  0 
 19 56  1  0  0  0  0 
 21 57  1  0  0  0  0 
 21 58  1  0  0  0  0 
 22 59  1  0  0  0  0 
 22 60  1  0  0  0  0 
 24 61  1  0  0  0  0 
 25 62  1  0  0  0  0 
 26 63  1  0  0  0  0 
 27 64  1  0  0  0  0 
 31 65  1  0  0  0  0 
 33 66  1  0  0  0  0 
 33 67  1  0  0  0  0 
 33 68  1  0  0  0  0 
 34 69  1  0  0  0  0 
 34 70  1  0  0  0  0 
 34 71  1  0  0  0  0 
M  END
> <cdk:Title>
bilastine

> <Conformer>
1

> <SuperDrugID>
SD003513

$$$$
