tipranavir
  CDK     0628171801

 75 78  0  0  0  0  0  0  0  0999 V2000
    6.0256   -4.1914    0.1553 C   0  0  1  0  0  0  0  0  0  0  0  0
    4.9263   -3.1661   -0.2790 C   0  0  1  0  0  0  0  0  0  0  0  0
    6.0052   -4.4842    1.7642 C   0  0  2  0  0  0  0  0  0  0  0  0
    4.8269   -2.9685   -1.7531 C   0  0  0  0  0  0  0  0  0  0  0  0
    6.4975   -3.2797    2.6323 C   0  0  1  0  0  0  0  0  0  0  0  0
    6.8656   -5.8324    2.1022 C   0  0  2  0  0  0  0  0  0  0  0  0
    4.6490   -4.7397    2.1393 O   0  0  0  0  0  0  0  0  0  0  0  0
    4.3268   -4.0079   -2.5731 C   0  0  0  0  0  0  0  0  0  0  0  0
    5.2103   -1.7506   -2.3671 C   0  0  0  0  0  0  0  0  0  0  0  0
    7.9770   -2.8419    2.4279 C   0  0  1  0  0  0  0  0  0  0  0  0
    6.0572   -7.0641    2.1505 C   0  0  0  0  0  0  0  0  0  0  0  0
    4.0415   -5.9085    1.8192 C   0  0  0  0  0  0  0  0  0  0  0  0
    4.2481   -3.8504   -3.9681 C   0  0  0  0  0  0  0  0  0  0  0  0
    5.1338   -1.5921   -3.7626 C   0  0  0  0  0  0  0  0  0  0  0  0
    8.4532   -1.8006    3.4659 C   0  0  0  0  0  0  0  0  0  0  0  0
    6.7599   -8.1795    2.3671 O   0  0  0  0  0  0  0  0  0  0  0  0
    4.7017   -7.1204    2.0441 C   0  0  0  0  0  0  0  0  0  0  0  0
    2.8975   -5.7996    1.3258 O   0  0  0  0  0  0  0  0  0  0  0  0
    4.6566   -2.6446   -4.5634 C   0  0  0  0  0  0  0  0  0  0  0  0
    3.9334   -8.3946    2.1920 C   0  0  2  0  0  0  0  0  0  0  0  0
    3.0657   -8.8181    0.9588 C   0  0  1  0  0  0  0  0  0  0  0  0
    3.1542   -8.4122    3.4872 C   0  0  0  0  0  0  0  0  0  0  0  0
    3.8646   -8.9434   -0.3609 C   0  0  0  0  0  0  0  0  0  0  0  0
    1.9895   -7.6264    3.6835 C   0  0  0  0  0  0  0  0  0  0  0  0
    3.5731   -9.2163    4.5761 C   0  0  0  0  0  0  0  0  0  0  0  0
    1.3287   -7.5394    4.9307 C   0  0  0  0  0  0  0  0  0  0  0  0
    2.8962   -9.1928    5.8096 C   0  0  0  0  0  0  0  0  0  0  0  0
    0.2758   -6.7065    5.1821 N   0  0  0  0  0  0  0  0  0  0  0  0
    1.7868   -8.3517    5.9871 C   0  0  0  0  0  0  0  0  0  0  0  0
   -0.1366   -5.3179    4.2561 S   0  0  1  0  0  0  0  0  0  0  0  0
    1.2063   -4.6203    3.7190 O   0  0  0  0  0  0  0  0  0  0  0  0
   -1.0225   -5.7844    3.0016 O   0  0  0  0  0  0  0  0  0  0  0  0
   -1.0472   -4.1654    5.2398 C   0  0  0  0  0  0  0  0  0  0  0  0
   -2.3307   -4.4611    5.7303 C   0  0  0  0  0  0  0  0  0  0  0  0
   -0.4987   -2.9537    5.5061 N   0  0  0  0  0  0  0  0  0  0  0  0
   -3.0197   -3.4850    6.4738 C   0  0  0  0  0  0  0  0  0  0  0  0
   -1.1394   -1.9936    6.2157 C   0  0  0  0  0  0  0  0  0  0  0  0
   -2.4426   -2.2155    6.7183 C   0  0  0  0  0  0  0  0  0  0  0  0
   -3.1461   -1.1272    7.4501 C   0  0  1  0  0  0  0  0  0  0  0  0
   -3.2945   -0.0382    6.6275 F   0  0  0  0  0  0  0  0  0  0  0  0
   -4.4006   -1.4627    7.8979 F   0  0  0  0  0  0  0  0  0  0  0  0
   -2.4225   -0.7398    8.5501 F   0  0  0  0  0  0  0  0  0  0  0  0
    5.8497   -5.1067   -0.4713 H   0  0  0  0  0  0  0  0  0  0  0  0
    6.9932   -3.7914   -0.2441 H   0  0  0  0  0  0  0  0  0  0  0  0
    3.9467   -3.4987    0.0666 H   0  0  0  0  0  0  0  0  0  0  0  0
    5.1180   -2.2116    0.2117 H   0  0  0  0  0  0  0  0  0  0  0  0
    5.8541   -2.4166    2.4532 H   0  0  0  0  0  0  0  0  0  0  0  0
    6.3619   -3.5544    3.6816 H   0  0  0  0  0  0  0  0  0  0  0  0
    7.3712   -5.8246    3.1040 H   0  0  0  0  0  0  0  0  0  0  0  0
    7.7071   -6.0373    1.3864 H   0  0  0  0  0  0  0  0  0  0  0  0
    4.0155   -4.8897   -2.1581 H   0  0  0  0  0  0  0  0  0  0  0  0
    5.5529   -0.9692   -1.8043 H   0  0  0  0  0  0  0  0  0  0  0  0
    8.6355   -3.7080    2.5032 H   0  0  0  0  0  0  0  0  0  0  0  0
    8.0973   -2.4093    1.4338 H   0  0  0  0  0  0  0  0  0  0  0  0
    3.8956   -4.6160   -4.5464 H   0  0  0  0  0  0  0  0  0  0  0  0
    5.4282   -0.7141   -4.1969 H   0  0  0  0  0  0  0  0  0  0  0  0
    9.4856   -1.5127    3.2590 H   0  0  0  0  0  0  0  0  0  0  0  0
    8.4101   -2.2226    4.4712 H   0  0  0  0  0  0  0  0  0  0  0  0
    7.8289   -0.9070    3.4268 H   0  0  0  0  0  0  0  0  0  0  0  0
    7.6366   -8.0404    1.9495 H   0  0  0  0  0  0  0  0  0  0  0  0
    4.6080   -2.5307   -5.5776 H   0  0  0  0  0  0  0  0  0  0  0  0
    4.6435   -9.2240    2.2558 H   0  0  0  0  0  0  0  0  0  0  0  0
    2.6174   -9.7949    1.1672 H   0  0  0  0  0  0  0  0  0  0  0  0
    2.2409   -8.1252    0.7919 H   0  0  0  0  0  0  0  0  0  0  0  0
    4.3631   -8.0015   -0.5988 H   0  0  0  0  0  0  0  0  0  0  0  0
    4.6142   -9.7329   -0.2733 H   0  0  0  0  0  0  0  0  0  0  0  0
    3.1891   -9.1935   -1.1822 H   0  0  0  0  0  0  0  0  0  0  0  0
    1.6029   -7.1097    2.9018 H   0  0  0  0  0  0  0  0  0  0  0  0
    4.3854   -9.8276    4.4828 H   0  0  0  0  0  0  0  0  0  0  0  0
    3.2226   -9.7769    6.5835 H   0  0  0  0  0  0  0  0  0  0  0  0
   -0.2624   -6.8805    5.9716 H   0  0  0  0  0  0  0  0  0  0  0  0
    1.3199   -8.3248    6.8971 H   0  0  0  0  0  0  0  0  0  0  0  0
   -2.7659   -5.3665    5.5451 H   0  0  0  0  0  0  0  0  0  0  0  0
   -3.9497   -3.7114    6.8279 H   0  0  0  0  0  0  0  0  0  0  0  0
   -0.6602   -1.1051    6.3700 H   0  0  0  0  0  0  0  0  0  0  0  0
  1  2  1  0  0  0  0 
  3  1  1  0  0  0  0 
  2  4  1  0  0  0  0 
  3  5  1  0  0  0  0 
  3  6  1  0  0  0  0 
  3  7  1  0  0  0  0 
  4  8  2  0  0  0  0 
  4  9  1  0  0  0  0 
  5 10  1  0  0  0  0 
  6 11  1  0  0  0  0 
  7 12  1  0  0  0  0 
  8 13  1  0  0  0  0 
  9 14  2  0  0  0  0 
 10 15  1  0  0  0  0 
 11 16  1  0  0  0  0 
 11 17  2  0  0  0  0 
 12 17  1  0  0  0  0 
 12 18  2  0  0  0  0 
 13 19  2  0  0  0  0 
 14 19  1  0  0  0  0 
 20 17  1  0  0  0  0 
 20 21  1  0  0  0  0 
 20 22  1  0  0  0  0 
 21 23  1  0  0  0  0 
 22 24  2  0  0  0  0 
 22 25  1  0  0  0  0 
 24 26  1  0  0  0  0 
 25 27  2  0  0  0  0 
 26 28  1  0  0  0  0 
 26 29  2  0  0  0  0 
 27 29  1  0  0  0  0 
 28 30  1  0  0  0  0 
 30 31  2  0  0  0  0 
 30 32  2  0  0  0  0 
 30 33  1  0  0  0  0 
 33 34  2  0  0  0  0 
 33 35  1  0  0  0  0 
 34 36  1  0  0  0  0 
 35 37  2  0  0  0  0 
 36 38  2  0  0  0  0 
 37 38  1  0  0  0  0 
 38 39  1  0  0  0  0 
 39 40  1  0  0  0  0 
 39 41  1  0  0  0  0 
 39 42  1  0  0  0  0 
 43  1  1  0  0  0  0 
 44  1  1  0  0  0  0 
 45  2  1  0  0  0  0 
 46  2  1  0  0  0  0 
 47  5  1  0  0  0  0 
 48  5  1  0  0  0  0 
 49  6  1  0  0  0  0 
 50  6  1  0  0  0  0 
 51  8  1  0  0  0  0 
 52  9  1  0  0  0  0 
 53 10  1  0  0  0  0 
 54 10  1  0  0  0  0 
 55 13  1  0  0  0  0 
 56 14  1  0  0  0  0 
 57 15  1  0  0  0  0 
 58 15  1  0  0  0  0 
 59 15  1  0  0  0  0 
 60 16  1  0  0  0  0 
 61 19  1  0  0  0  0 
 20 62  1  0  0  0  0 
 63 21  1  0  0  0  0 
 64 21  1  0  0  0  0 
 65 23  1  0  0  0  0 
 66 23  1  0  0  0  0 
 67 23  1  0  0  0  0 
 68 24  1  0  0  0  0 
 69 25  1  0  0  0  0 
 70 27  1  0  0  0  0 
 71 28  1  0  0  0  0 
 72 29  1  0  0  0  0 
 73 34  1  0  0  0  0 
 74 36  1  0  0  0  0 
 75 37  1  0  0  0  0 
M  END
> <cdk:Title>
tipranavir

> <Conformer>
1

> <SuperDrugID>
SD003093

$$$$
