oxatomide
  CDK     0628171801

 62 66  0  0  0  0  0  0  0  0999 V2000
    4.3324   -2.8765    4.9665 C   0  0  2  0  0  0  0  0  0  0  0  0
    3.0074   -2.8676    4.2309 N   0  0  1  0  0  0  0  0  0  0  0  0
    4.8996   -4.2505    5.1782 C   0  0  0  0  0  0  0  0  0  0  0  0
    4.3011   -2.1591    6.2881 C   0  0  0  0  0  0  0  0  0  0  0  0
    2.4830   -1.4822    3.9747 C   0  0  1  0  0  0  0  0  0  0  0  0
    2.9986   -3.6577    2.9514 C   0  0  1  0  0  0  0  0  0  0  0  0
    4.1771   -5.2413    5.8889 C   0  0  0  0  0  0  0  0  0  0  0  0
    6.1609   -4.6069    4.6357 C   0  0  0  0  0  0  0  0  0  0  0  0
    5.3960   -1.3515    6.6836 C   0  0  0  0  0  0  0  0  0  0  0  0
    3.1774   -2.2263    7.1532 C   0  0  0  0  0  0  0  0  0  0  0  0
    1.0707   -1.5082    3.3507 C   0  0  1  0  0  0  0  0  0  0  0  0
    1.6050   -3.6657    2.2725 C   0  0  2  0  0  0  0  0  0  0  0  0
    4.6963   -6.5389    6.0528 C   0  0  0  0  0  0  0  0  0  0  0  0
    6.6741   -5.9087    4.7868 C   0  0  0  0  0  0  0  0  0  0  0  0
    5.3569   -0.6116    7.8799 C   0  0  0  0  0  0  0  0  0  0  0  0
    3.1286   -1.4698    8.3393 C   0  0  0  0  0  0  0  0  0  0  0  0
    1.0853   -2.2764    2.0684 N   0  0  1  0  0  0  0  0  0  0  0  0
    5.9417   -6.8759    5.4957 C   0  0  0  0  0  0  0  0  0  0  0  0
    4.2189   -0.6615    8.7031 C   0  0  0  0  0  0  0  0  0  0  0  0
   -0.1954   -2.2383    1.2848 C   0  0  1  0  0  0  0  0  0  0  0  0
   -0.6242   -0.8331    0.7637 C   0  0  1  0  0  0  0  0  0  0  0  0
    0.3064   -0.2200   -0.3190 C   0  0  1  0  0  0  0  0  0  0  0  0
    1.6520    0.0082    0.1344 N   0  0  0  0  0  0  0  0  0  0  0  0
    2.7363   -0.7655   -0.0971 C   0  0  0  0  0  0  0  0  0  0  0  0
    2.0743    1.0497    0.8927 C   0  0  0  0  0  0  0  0  0  0  0  0
    3.8242   -0.1757    0.5440 C   0  0  0  0  0  0  0  0  0  0  0  0
    2.9003   -1.9758   -0.8046 C   0  0  0  0  0  0  0  0  0  0  0  0
    1.3690    1.9946    1.3146 O   0  0  0  0  0  0  0  0  0  0  0  0
    3.3879    0.9351    1.1470 N   0  0  0  0  0  0  0  0  0  0  0  0
    5.1052   -0.7483    0.5001 C   0  0  0  0  0  0  0  0  0  0  0  0
    4.1756   -2.5769   -0.8401 C   0  0  0  0  0  0  0  0  0  0  0  0
    5.2748   -1.9590   -0.2030 C   0  0  0  0  0  0  0  0  0  0  0  0
    5.0173   -2.3225    4.3115 H   0  0  0  0  0  0  0  0  0  0  0  0
    2.4016   -0.9092    4.8988 H   0  0  0  0  0  0  0  0  0  0  0  0
    3.1641   -0.9350    3.3155 H   0  0  0  0  0  0  0  0  0  0  0  0
    3.7357   -3.2522    2.2521 H   0  0  0  0  0  0  0  0  0  0  0  0
    3.2604   -4.6995    3.1444 H   0  0  0  0  0  0  0  0  0  0  0  0
    3.2602   -5.0301    6.2863 H   0  0  0  0  0  0  0  0  0  0  0  0
    6.7174   -3.9217    4.1185 H   0  0  0  0  0  0  0  0  0  0  0  0
    6.2305   -1.2898    6.0957 H   0  0  0  0  0  0  0  0  0  0  0  0
    2.3687   -2.8051    6.9124 H   0  0  0  0  0  0  0  0  0  0  0  0
    0.3565   -1.9368    4.0626 H   0  0  0  0  0  0  0  0  0  0  0  0
    0.7957   -0.4678    3.1792 H   0  0  0  0  0  0  0  0  0  0  0  0
    0.9106   -4.2515    2.8861 H   0  0  0  0  0  0  0  0  0  0  0  0
    1.7115   -4.1662    1.3047 H   0  0  0  0  0  0  0  0  0  0  0  0
    4.1637   -7.2406    6.5709 H   0  0  0  0  0  0  0  0  0  0  0  0
    7.5780   -6.1538    4.3764 H   0  0  0  0  0  0  0  0  0  0  0  0
    6.1553   -0.0318    8.1480 H   0  0  0  0  0  0  0  0  0  0  0  0
    2.2966   -1.4992    8.9320 H   0  0  0  0  0  0  0  0  0  0  0  0
    6.3132   -7.8232    5.6030 H   0  0  0  0  0  0  0  0  0  0  0  0
    4.1846   -0.1088    9.5629 H   0  0  0  0  0  0  0  0  0  0  0  0
   -0.0984   -2.8828    0.4043 H   0  0  0  0  0  0  0  0  0  0  0  0
   -1.0093   -2.6526    1.8900 H   0  0  0  0  0  0  0  0  0  0  0  0
   -1.6171   -0.9332    0.3174 H   0  0  0  0  0  0  0  0  0  0  0  0
   -0.7360   -0.1308    1.5910 H   0  0  0  0  0  0  0  0  0  0  0  0
    0.3052   -0.8735   -1.1939 H   0  0  0  0  0  0  0  0  0  0  0  0
   -0.1181    0.7334   -0.6501 H   0  0  0  0  0  0  0  0  0  0  0  0
    2.1160   -2.4216   -1.2818 H   0  0  0  0  0  0  0  0  0  0  0  0
    3.9211    1.5452    1.6809 H   0  0  0  0  0  0  0  0  0  0  0  0
    5.8931   -0.3020    0.9713 H   0  0  0  0  0  0  0  0  0  0  0  0
    4.3040   -3.4655   -1.3287 H   0  0  0  0  0  0  0  0  0  0  0  0
    6.1986   -2.3951   -0.2492 H   0  0  0  0  0  0  0  0  0  0  0  0
  1  2  1  0  0  0  0 
  1  3  1  0  0  0  0 
  1  4  1  0  0  0  0 
  2  5  1  0  0  0  0 
  2  6  1  0  0  0  0 
  3  7  2  0  0  0  0 
  3  8  1  0  0  0  0 
  4  9  2  0  0  0  0 
  4 10  1  0  0  0  0 
  5 11  1  0  0  0  0 
  6 12  1  0  0  0  0 
  7 13  1  0  0  0  0 
  8 14  2  0  0  0  0 
  9 15  1  0  0  0  0 
 10 16  2  0  0  0  0 
 11 17  1  0  0  0  0 
 12 17  1  0  0  0  0 
 13 18  2  0  0  0  0 
 14 18  1  0  0  0  0 
 15 19  2  0  0  0  0 
 16 19  1  0  0  0  0 
 17 20  1  0  0  0  0 
 20 21  1  0  0  0  0 
 21 22  1  0  0  0  0 
 22 23  1  0  0  0  0 
 23 24  1  0  0  0  0 
 23 25  1  0  0  0  0 
 24 26  1  0  0  0  0 
 24 27  2  0  0  0  0 
 25 28  2  0  0  0  0 
 25 29  1  0  0  0  0 
 26 29  1  0  0  0  0 
 26 30  2  0  0  0  0 
 27 31  1  0  0  0  0 
 30 32  1  0  0  0  0 
 31 32  2  0  0  0  0 
  1 33  1  0  0  0  0 
  5 34  1  0  0  0  0 
  5 35  1  0  0  0  0 
  6 36  1  0  0  0  0 
  6 37  1  0  0  0  0 
  7 38  1  0  0  0  0 
  8 39  1  0  0  0  0 
  9 40  1  0  0  0  0 
 10 41  1  0  0  0  0 
 11 42  1  0  0  0  0 
 11 43  1  0  0  0  0 
 12 44  1  0  0  0  0 
 12 45  1  0  0  0  0 
 13 46  1  0  0  0  0 
 14 47  1  0  0  0  0 
 15 48  1  0  0  0  0 
 16 49  1  0  0  0  0 
 18 50  1  0  0  0  0 
 19 51  1  0  0  0  0 
 20 52  1  0  0  0  0 
 20 53  1  0  0  0  0 
 21 54  1  0  0  0  0 
 21 55  1  0  0  0  0 
 22 56  1  0  0  0  0 
 22 57  1  0  0  0  0 
 27 58  1  0  0  0  0 
 29 59  1  0  0  0  0 
 30 60  1  0  0  0  0 
 31 61  1  0  0  0  0 
 32 62  1  0  0  0  0 
M  END
> <cdk:Title>
oxatomide

> <Conformer>
1

> <SuperDrugID>
SD001802

$$$$
