gusperimus
  CDK     0628171801

 64 63  0  0  0  0  0  0  0  0999 V2000
   -2.7390    2.0342   -0.5618 N   0  0  0  0  0  0  0  0  0  0  0  0
   -1.7025    3.0174   -0.5581 C   0  0  2  0  0  0  0  0  0  0  0  0
   -3.1527    1.3579   -1.6670 C   0  0  0  0  0  0  0  0  0  0  0  0
   -0.3566    2.3388   -0.7995 C   0  0  0  0  0  0  0  0  0  0  0  0
   -1.6980    3.6431    0.7181 O   0  0  0  0  0  0  0  0  0  0  0  0
   -3.8768    0.0797   -1.5080 C   0  0  1  0  0  0  0  0  0  0  0  0
   -2.8362    1.7429   -2.8187 O   0  0  0  0  0  0  0  0  0  0  0  0
   -0.1296    1.2667    0.0058 N   0  0  0  0  0  0  0  0  0  0  0  0
    0.5164    2.6367   -1.6800 O   0  0  0  0  0  0  0  0  0  0  0  0
   -5.2920    0.1712   -0.8745 C   0  0  1  0  0  0  0  0  0  0  0  0
    0.9315    0.3224   -0.0915 C   0  0  1  0  0  0  0  0  0  0  0  0
   -5.8426   -1.2527   -0.5716 C   0  0  1  0  0  0  0  0  0  0  0  0
    0.6618   -0.7938    0.9485 C   0  0  1  0  0  0  0  0  0  0  0  0
   -7.3445   -1.3157   -0.1847 C   0  0  1  0  0  0  0  0  0  0  0  0
    1.6322   -1.9971    0.8551 C   0  0  2  0  0  0  0  0  0  0  0  0
   -7.7580   -2.7697    0.1743 C   0  0  2  0  0  0  0  0  0  0  0  0
    1.3475   -3.0494    1.9559 C   0  0  2  0  0  0  0  0  0  0  0  0
   -9.2720   -2.9495    0.4358 C   0  0  2  0  0  0  0  0  0  0  0  0
    2.3537   -4.1253    1.8710 N   0  0  1  0  0  0  0  0  0  0  0  0
   -9.5260   -4.2827    0.7478 N   0  0  0  0  0  0  0  0  0  0  0  0
    2.2546   -5.1664    2.9155 C   0  0  2  0  0  0  0  0  0  0  0  0
  -10.6402   -4.8466    1.0436 C   0  0  0  0  0  0  0  0  0  0  0  0
    3.4409   -6.1428    2.7322 C   0  0  2  0  0  0  0  0  0  0  0  0
  -11.7933   -4.2072    1.0972 N   0  0  0  0  0  0  0  0  0  0  0  0
  -10.6164   -6.1309    1.3215 N   0  0  0  0  0  0  0  0  0  0  0  0
    3.4532   -7.2828    3.7742 C   0  0  1  0  0  0  0  0  0  0  0  0
    4.6042   -8.1680    3.5687 N   0  0  2  0  0  0  0  0  0  0  0  0
   -3.0847    1.7527    0.3014 H   0  0  0  0  0  0  0  0  0  0  0  0
   -1.8907    3.7825   -1.3158 H   0  0  0  0  0  0  0  0  0  0  0  0
   -1.0231    4.3520    0.6484 H   0  0  0  0  0  0  0  0  0  0  0  0
   -3.9815   -0.3927   -2.4891 H   0  0  0  0  0  0  0  0  0  0  0  0
   -3.2444   -0.5712   -0.8963 H   0  0  0  0  0  0  0  0  0  0  0  0
   -0.7922    1.1037    0.6953 H   0  0  0  0  0  0  0  0  0  0  0  0
   -5.2551    0.7470    0.0537 H   0  0  0  0  0  0  0  0  0  0  0  0
   -5.9584    0.6888   -1.5698 H   0  0  0  0  0  0  0  0  0  0  0  0
    0.9442   -0.1043   -1.0971 H   0  0  0  0  0  0  0  0  0  0  0  0
    1.8875    0.8097    0.1094 H   0  0  0  0  0  0  0  0  0  0  0  0
   -5.6969   -1.8843   -1.4526 H   0  0  0  0  0  0  0  0  0  0  0  0
   -5.2527   -1.6838    0.2417 H   0  0  0  0  0  0  0  0  0  0  0  0
    0.7347   -0.3578    1.9489 H   0  0  0  0  0  0  0  0  0  0  0  0
   -0.3599   -1.1651    0.8178 H   0  0  0  0  0  0  0  0  0  0  0  0
   -7.5335   -0.6610    0.6705 H   0  0  0  0  0  0  0  0  0  0  0  0
   -7.9420   -0.9621   -1.0293 H   0  0  0  0  0  0  0  0  0  0  0  0
    2.6590   -1.6384    0.9592 H   0  0  0  0  0  0  0  0  0  0  0  0
    1.5352   -2.4727   -0.1252 H   0  0  0  0  0  0  0  0  0  0  0  0
   -7.2080   -3.0752    1.0698 H   0  0  0  0  0  0  0  0  0  0  0  0
   -7.4643   -3.4349   -0.6435 H   0  0  0  0  0  0  0  0  0  0  0  0
    0.3464   -3.4690    1.8180 H   0  0  0  0  0  0  0  0  0  0  0  0
    1.4024   -2.5738    2.9399 H   0  0  0  0  0  0  0  0  0  0  0  0
   -9.8427   -2.6616   -0.4506 H   0  0  0  0  0  0  0  0  0  0  0  0
   -9.5739   -2.3202    1.2744 H   0  0  0  0  0  0  0  0  0  0  0  0
    2.2084   -4.5929    0.9739 H   0  0  0  0  0  0  0  0  0  0  0  0
    1.3058   -5.7020    2.8157 H   0  0  0  0  0  0  0  0  0  0  0  0
    2.3046   -4.7133    3.9106 H   0  0  0  0  0  0  0  0  0  0  0  0
    4.3740   -5.5781    2.8153 H   0  0  0  0  0  0  0  0  0  0  0  0
    3.3936   -6.5764    1.7291 H   0  0  0  0  0  0  0  0  0  0  0  0
  -12.6025   -4.6880    1.3262 H   0  0  0  0  0  0  0  0  0  0  0  0
  -11.8405   -3.2569    0.9088 H   0  0  0  0  0  0  0  0  0  0  0  0
  -11.4329   -6.5928    1.5685 H   0  0  0  0  0  0  0  0  0  0  0  0
   -9.7798   -6.6238    1.2892 H   0  0  0  0  0  0  0  0  0  0  0  0
    3.5197   -6.8639    4.7793 H   0  0  0  0  0  0  0  0  0  0  0  0
    2.5394   -7.8743    3.6963 H   0  0  0  0  0  0  0  0  0  0  0  0
    4.5124   -8.5808    2.6377 H   0  0  0  0  0  0  0  0  0  0  0  0
    4.5119   -8.9316    4.2410 H   0  0  0  0  0  0  0  0  0  0  0  0
  2  1  1  0  0  0  0 
  1  3  1  0  0  0  0 
  2  4  1  0  0  0  0 
  2  5  1  0  0  0  0 
  3  6  1  0  0  0  0 
  3  7  2  0  0  0  0 
  4  8  1  0  0  0  0 
  4  9  2  0  0  0  0 
  6 10  1  0  0  0  0 
  8 11  1  0  0  0  0 
 10 12  1  0  0  0  0 
 11 13  1  0  0  0  0 
 12 14  1  0  0  0  0 
 13 15  1  0  0  0  0 
 14 16  1  0  0  0  0 
 15 17  1  0  0  0  0 
 16 18  1  0  0  0  0 
 17 19  1  0  0  0  0 
 18 20  1  0  0  0  0 
 19 21  1  0  0  0  0 
 20 22  2  0  0  0  0 
 21 23  1  0  0  0  0 
 22 24  1  0  0  0  0 
 22 25  1  0  0  0  0 
 23 26  1  0  0  0  0 
 26 27  1  0  0  0  0 
 28  1  1  0  0  0  0 
 29  2  1  0  0  0  0 
 30  5  1  0  0  0  0 
 31  6  1  0  0  0  0 
 32  6  1  0  0  0  0 
 33  8  1  0  0  0  0 
 34 10  1  0  0  0  0 
 35 10  1  0  0  0  0 
 36 11  1  0  0  0  0 
 37 11  1  0  0  0  0 
 38 12  1  0  0  0  0 
 39 12  1  0  0  0  0 
 40 13  1  0  0  0  0 
 41 13  1  0  0  0  0 
 42 14  1  0  0  0  0 
 43 14  1  0  0  0  0 
 44 15  1  0  0  0  0 
 45 15  1  0  0  0  0 
 46 16  1  0  0  0  0 
 47 16  1  0  0  0  0 
 48 17  1  0  0  0  0 
 49 17  1  0  0  0  0 
 50 18  1  0  0  0  0 
 51 18  1  0  0  0  0 
 52 19  1  0  0  0  0 
 53 21  1  0  0  0  0 
 54 21  1  0  0  0  0 
 55 23  1  0  0  0  0 
 56 23  1  0  0  0  0 
 57 24  1  0  0  0  0 
 58 24  1  0  0  0  0 
 59 25  1  0  0  0  0 
 60 25  1  0  0  0  0 
 61 26  1  0  0  0  0 
 62 26  1  0  0  0  0 
 63 27  1  0  0  0  0 
 64 27  1  0  0  0  0 
M  END
> <cdk:Title>
gusperimus

> <Conformer>
1

> <SuperDrugID>
SD001195

$$$$
