idoxuridine
  CDK     0628171801

 28 29  0  0  0  0  0  0  0  0999 V2000
    4.2386   -4.6368    0.7847 O   0  0  0  0  0  0  0  0  0  0  0  0
    5.3094   -4.0350    0.5319 C   0  0  0  0  0  0  0  0  0  0  0  0
    5.3742   -2.6730    0.3443 N   0  0  0  0  0  0  0  0  0  0  0  0
    6.4247   -4.8042    0.4427 N   0  0  0  0  0  0  0  0  0  0  0  0
    4.1699   -1.8575    0.3980 C   0  0  2  0  0  0  0  0  0  0  0  0
    6.6030   -2.1064    0.1144 C   0  0  0  0  0  0  0  0  0  0  0  0
    7.6386   -4.2706    0.1720 C   0  0  0  0  0  0  0  0  0  0  0  0
    4.3004   -0.6000   -0.2964 O   0  0  0  0  0  0  0  0  0  0  0  0
    3.7394   -1.5445    1.8517 C   0  0  1  0  0  0  0  0  0  0  0  0
    7.7674   -2.8838    0.0069 C   0  0  0  0  0  0  0  0  0  0  0  0
    8.6293   -5.0289    0.0808 O   0  0  0  0  0  0  0  0  0  0  0  0
    3.8933    0.4625    0.5744 C   0  0  1  0  0  0  0  0  0  0  0  0
    4.1006   -0.0645    2.0081 C   0  0  1  0  0  0  0  0  0  0  0  0
    9.5802   -1.9976   -0.3806 I   0  0  0  0  0  0  0  0  0  0  0  0
    4.6720    1.7603    0.2506 C   0  0  2  0  0  0  0  0  0  0  0  0
    3.2757    0.6017    2.9595 O   0  0  0  0  0  0  0  0  0  0  0  0
    6.0757    1.5866    0.4339 O   0  0  0  0  0  0  0  0  0  0  0  0
    6.3542   -5.7633    0.5691 H   0  0  0  0  0  0  0  0  0  0  0  0
    3.3559   -2.3813   -0.1155 H   0  0  0  0  0  0  0  0  0  0  0  0
    6.7064   -1.0958    0.0134 H   0  0  0  0  0  0  0  0  0  0  0  0
    2.6598   -1.6885    1.9667 H   0  0  0  0  0  0  0  0  0  0  0  0
    4.2591   -2.1588    2.5914 H   0  0  0  0  0  0  0  0  0  0  0  0
    2.8255    0.6476    0.4048 H   0  0  0  0  0  0  0  0  0  0  0  0
    5.1458    0.0266    2.3208 H   0  0  0  0  0  0  0  0  0  0  0  0
    4.3250    2.5724    0.8932 H   0  0  0  0  0  0  0  0  0  0  0  0
    4.4896    2.0457   -0.7870 H   0  0  0  0  0  0  0  0  0  0  0  0
    3.6110    1.5227    2.9802 H   0  0  0  0  0  0  0  0  0  0  0  0
    6.4742    2.4547    0.2099 H   0  0  0  0  0  0  0  0  0  0  0  0
  1  2  2  0  0  0  0 
  2  3  1  0  0  0  0 
  2  4  1  0  0  0  0 
  3  6  1  0  0  0  0 
  4  7  1  0  0  0  0 
  5  3  1  0  0  0  0 
  5  8  1  0  0  0  0 
  5  9  1  0  0  0  0 
  6 10  2  0  0  0  0 
  7 10  1  0  0  0  0 
  7 11  2  0  0  0  0 
 12  8  1  0  0  0  0 
 13  9  1  0  0  0  0 
 10 14  1  0  0  0  0 
 12 13  1  0  0  0  0 
 12 15  1  0  0  0  0 
 13 16  1  0  0  0  0 
 15 17  1  0  0  0  0 
 18  4  1  0  0  0  0 
  5 19  1  0  0  0  0 
 20  6  1  0  0  0  0 
 21  9  1  0  0  0  0 
 22  9  1  0  0  0  0 
 12 23  1  0  0  0  0 
 13 24  1  0  0  0  0 
 25 15  1  0  0  0  0 
 26 15  1  0  0  0  0 
 27 16  1  0  0  0  0 
 28 17  1  0  0  0  0 
M  END
> <cdk:Title>
idoxuridine

> <Conformer>
1

> <SuperDrugID>
SD001258

$$$$
