levetiracetam
  CDK     0628171801

 26 26  0  0  0  0  0  0  0  0999 V2000
   -0.7071   -0.4053   -1.5432 C   0  0  0  0  0  0  0  0  0  0  0  0
    0.4597   -0.0997   -0.5777 C   0  0  1  0  0  0  0  0  0  0  0  0
    1.7881   -0.8501   -0.9156 C   0  0  2  0  0  0  0  0  0  0  0  0
    1.6788   -2.2936   -1.0255 N   0  0  0  0  0  0  0  0  0  0  0  0
    2.1820   -3.0131   -2.1548 C   0  0  2  0  0  0  0  0  0  0  0  0
    1.9438   -4.5096   -1.8507 C   0  0  2  0  0  0  0  0  0  0  0  0
    1.2536   -4.5469   -0.4743 C   0  0  2  0  0  0  0  0  0  0  0  0
    1.1662   -3.1400   -0.0944 C   0  0  0  0  0  0  0  0  0  0  0  0
    0.6697   -2.7962    1.0032 O   0  0  0  0  0  0  0  0  0  0  0  0
    2.8572   -0.5078    0.0569 C   0  0  0  0  0  0  0  0  0  0  0  0
    4.0303    0.0085   -0.3480 N   0  0  0  0  0  0  0  0  0  0  0  0
    2.7027   -0.6990    1.2856 O   0  0  0  0  0  0  0  0  0  0  0  0
   -0.9236   -1.4743   -1.5629 H   0  0  0  0  0  0  0  0  0  0  0  0
   -1.6036    0.1213   -1.2098 H   0  0  0  0  0  0  0  0  0  0  0  0
   -0.4611   -0.0722   -2.5527 H   0  0  0  0  0  0  0  0  0  0  0  0
    0.6465    0.9780   -0.6127 H   0  0  0  0  0  0  0  0  0  0  0  0
    0.1328   -0.3349    0.4378 H   0  0  0  0  0  0  0  0  0  0  0  0
    2.0978   -0.4582   -1.8931 H   0  0  0  0  0  0  0  0  0  0  0  0
    3.2519   -2.8174   -2.2840 H   0  0  0  0  0  0  0  0  0  0  0  0
    1.6501   -2.7144   -3.0639 H   0  0  0  0  0  0  0  0  0  0  0  0
    2.8937   -5.0531   -1.8154 H   0  0  0  0  0  0  0  0  0  0  0  0
    1.3065   -4.9651   -2.6155 H   0  0  0  0  0  0  0  0  0  0  0  0
    1.8540   -5.0971    0.2560 H   0  0  0  0  0  0  0  0  0  0  0  0
    0.2543   -4.9848   -0.5407 H   0  0  0  0  0  0  0  0  0  0  0  0
    4.7079    0.2374    0.3062 H   0  0  0  0  0  0  0  0  0  0  0  0
    4.2016    0.1509   -1.2925 H   0  0  0  0  0  0  0  0  0  0  0  0
  1  2  1  0  0  0  0 
  2  3  1  0  0  0  0 
  3  4  1  0  0  0  0 
  4  5  1  0  0  0  0 
  5  6  1  0  0  0  0 
  6  7  1  0  0  0  0 
  7  8  1  0  0  0  0 
  4  8  1  0  0  0  0 
  8  9  2  0  0  0  0 
  3 10  1  0  0  0  0 
 10 11  1  0  0  0  0 
 10 12  2  0  0  0  0 
  1 13  1  0  0  0  0 
  1 14  1  0  0  0  0 
  1 15  1  0  0  0  0 
  2 16  1  0  0  0  0 
  2 17  1  0  0  0  0 
  3 18  1  0  0  0  0 
  5 19  1  0  0  0  0 
  5 20  1  0  0  0  0 
  6 21  1  0  0  0  0 
  6 22  1  0  0  0  0 
  7 23  1  0  0  0  0 
  7 24  1  0  0  0  0 
 11 25  1  0  0  0  0 
 11 26  1  0  0  0  0 
M  END
> <cdk:Title>
levetiracetam

> <Conformer>
1

> <SuperDrugID>
SD001380

$$$$
