iproniazid
  CDK     0628171801

 26 26  0  0  0  0  0  0  0  0999 V2000
   -3.6562    2.0261   -0.1304 C   0  0  0  0  0  0  0  0  0  0  0  0
   -2.5798    1.2074   -0.0061 N   0  0  0  0  0  0  0  0  0  0  0  0
   -4.7816    1.5923    0.2176 O   0  0  0  0  0  0  0  0  0  0  0  0
   -3.5149    3.3564   -0.6242 C   0  0  0  0  0  0  0  0  0  0  0  0
   -2.6512   -0.0702    0.4407 N   0  0  2  0  0  0  0  0  0  0  0  0
   -4.5283    4.3250   -0.4081 C   0  0  0  0  0  0  0  0  0  0  0  0
   -2.3613    3.7629   -1.3446 C   0  0  0  0  0  0  0  0  0  0  0  0
   -2.0342   -0.2905    1.7682 C   0  0  1  0  0  0  0  0  0  0  0  0
   -4.3643    5.6361   -0.8912 C   0  0  0  0  0  0  0  0  0  0  0  0
   -2.2447    5.0864   -1.8067 C   0  0  0  0  0  0  0  0  0  0  0  0
   -2.2816   -1.7618    2.1835 C   0  0  0  0  0  0  0  0  0  0  0  0
   -0.5272    0.0772    1.7821 C   0  0  0  0  0  0  0  0  0  0  0  0
   -3.2405    5.9749   -1.5685 N   0  0  0  0  0  0  0  0  0  0  0  0
   -1.7053    1.5548   -0.2410 H   0  0  0  0  0  0  0  0  0  0  0  0
   -2.2131   -0.6838   -0.2495 H   0  0  0  0  0  0  0  0  0  0  0  0
   -5.3838    4.0946    0.1039 H   0  0  0  0  0  0  0  0  0  0  0  0
   -1.6022    3.1101   -1.5481 H   0  0  0  0  0  0  0  0  0  0  0  0
   -2.5457    0.3462    2.4977 H   0  0  0  0  0  0  0  0  0  0  0  0
   -5.0851    6.3397   -0.7319 H   0  0  0  0  0  0  0  0  0  0  0  0
   -1.4130    5.3851   -2.3216 H   0  0  0  0  0  0  0  0  0  0  0  0
   -1.8996   -1.9434    3.1898 H   0  0  0  0  0  0  0  0  0  0  0  0
   -1.7898   -2.4481    1.4921 H   0  0  0  0  0  0  0  0  0  0  0  0
   -3.3529   -1.9756    2.1828 H   0  0  0  0  0  0  0  0  0  0  0  0
   -0.0952   -0.1405    2.7598 H   0  0  0  0  0  0  0  0  0  0  0  0
   -0.4033    1.1446    1.5898 H   0  0  0  0  0  0  0  0  0  0  0  0
    0.0168   -0.4797    1.0180 H   0  0  0  0  0  0  0  0  0  0  0  0
  1  2  1  0  0  0  0 
  1  3  2  0  0  0  0 
  1  4  1  0  0  0  0 
  2  5  1  0  0  0  0 
  4  6  2  0  0  0  0 
  4  7  1  0  0  0  0 
  5  8  1  0  0  0  0 
  6  9  1  0  0  0  0 
  7 10  2  0  0  0  0 
  8 11  1  0  0  0  0 
  8 12  1  0  0  0  0 
  9 13  2  0  0  0  0 
 10 13  1  0  0  0  0 
  2 14  1  0  0  0  0 
  5 15  1  0  0  0  0 
  6 16  1  0  0  0  0 
  7 17  1  0  0  0  0 
  8 18  1  0  0  0  0 
  9 19  1  0  0  0  0 
 10 20  1  0  0  0  0 
 11 21  1  0  0  0  0 
 11 22  1  0  0  0  0 
 11 23  1  0  0  0  0 
 12 24  1  0  0  0  0 
 12 25  1  0  0  0  0 
 12 26  1  0  0  0  0 
M  END
> <cdk:Title>
iproniazid

> <Conformer>
1

> <SuperDrugID>
SD001311

$$$$
