glymidine
  CDK     0628171801

 36 37  0  0  0  0  0  0  0  0999 V2000
   -8.5377   -0.5474    2.4353 S   0  0  2  0  0  0  0  0  0  0  0  0
   -7.3922    0.7238    2.6003 N   0  0  0  0  0  0  0  0  0  0  0  0
   -8.7559   -1.2173    3.8771 O   0  0  0  0  0  0  0  0  0  0  0  0
   -7.9039   -1.6612    1.4685 O   0  0  0  0  0  0  0  0  0  0  0  0
  -10.1002    0.0212    1.8175 C   0  0  0  0  0  0  0  0  0  0  0  0
   -7.2138    1.7212    1.7018 C   0  0  0  0  0  0  0  0  0  0  0  0
  -10.6662   -0.5634    0.6643 C   0  0  0  0  0  0  0  0  0  0  0  0
  -10.7893    1.0610    2.4772 C   0  0  0  0  0  0  0  0  0  0  0  0
   -6.1783    2.5812    1.8831 N   0  0  0  0  0  0  0  0  0  0  0  0
   -8.0217    1.8916    0.6215 N   0  0  0  0  0  0  0  0  0  0  0  0
  -11.9128   -0.1255    0.1833 C   0  0  0  0  0  0  0  0  0  0  0  0
  -12.0379    1.4994    1.9962 C   0  0  0  0  0  0  0  0  0  0  0  0
   -5.9203    3.5903    1.0115 C   0  0  0  0  0  0  0  0  0  0  0  0
   -7.8248    2.8853   -0.2801 C   0  0  0  0  0  0  0  0  0  0  0  0
  -12.6003    0.9038    0.8520 C   0  0  0  0  0  0  0  0  0  0  0  0
   -6.7409    3.7705   -0.1202 C   0  0  0  0  0  0  0  0  0  0  0  0
   -6.5079    4.7803   -1.0170 O   0  0  0  0  0  0  0  0  0  0  0  0
   -5.7544    4.3391   -2.1651 C   0  0  1  0  0  0  0  0  0  0  0  0
   -5.6106    5.4782   -3.1927 C   0  0  1  0  0  0  0  0  0  0  0  0
   -6.9147    5.9151   -3.6250 O   0  0  0  0  0  0  0  0  0  0  0  0
   -6.8815    6.8773   -4.6938 C   0  0  0  0  0  0  0  0  0  0  0  0
   -6.8021    0.6949    3.3722 H   0  0  0  0  0  0  0  0  0  0  0  0
  -10.1782   -1.3086    0.1659 H   0  0  0  0  0  0  0  0  0  0  0  0
  -10.3882    1.5048    3.3056 H   0  0  0  0  0  0  0  0  0  0  0  0
  -12.3198   -0.5555   -0.6522 H   0  0  0  0  0  0  0  0  0  0  0  0
  -12.5382    2.2509    2.4766 H   0  0  0  0  0  0  0  0  0  0  0  0
   -5.1272    4.2110    1.1833 H   0  0  0  0  0  0  0  0  0  0  0  0
   -8.4617    2.9832   -1.0730 H   0  0  0  0  0  0  0  0  0  0  0  0
  -13.5082    1.2195    0.5030 H   0  0  0  0  0  0  0  0  0  0  0  0
   -4.7530    4.0225   -1.8564 H   0  0  0  0  0  0  0  0  0  0  0  0
   -6.2558    3.5018   -2.6619 H   0  0  0  0  0  0  0  0  0  0  0  0
   -5.0617    6.3075   -2.7377 H   0  0  0  0  0  0  0  0  0  0  0  0
   -5.0336    5.0953   -4.0410 H   0  0  0  0  0  0  0  0  0  0  0  0
   -6.4048    6.4574   -5.5824 H   0  0  0  0  0  0  0  0  0  0  0  0
   -7.9065    7.1413   -4.9519 H   0  0  0  0  0  0  0  0  0  0  0  0
   -6.3569    7.7865   -4.3922 H   0  0  0  0  0  0  0  0  0  0  0  0
  1  2  1  0  0  0  0 
  1  3  2  0  0  0  0 
  1  4  2  0  0  0  0 
  1  5  1  0  0  0  0 
  2  6  1  0  0  0  0 
  5  7  2  0  0  0  0 
  5  8  1  0  0  0  0 
  6  9  2  0  0  0  0 
  6 10  1  0  0  0  0 
  7 11  1  0  0  0  0 
  8 12  2  0  0  0  0 
  9 13  1  0  0  0  0 
 10 14  2  0  0  0  0 
 11 15  2  0  0  0  0 
 12 15  1  0  0  0  0 
 13 16  2  0  0  0  0 
 14 16  1  0  0  0  0 
 16 17  1  0  0  0  0 
 17 18  1  0  0  0  0 
 18 19  1  0  0  0  0 
 19 20  1  0  0  0  0 
 20 21  1  0  0  0  0 
  2 22  1  0  0  0  0 
  7 23  1  0  0  0  0 
  8 24  1  0  0  0  0 
 11 25  1  0  0  0  0 
 12 26  1  0  0  0  0 
 13 27  1  0  0  0  0 
 14 28  1  0  0  0  0 
 15 29  1  0  0  0  0 
 18 30  1  0  0  0  0 
 18 31  1  0  0  0  0 
 19 32  1  0  0  0  0 
 19 33  1  0  0  0  0 
 21 34  1  0  0  0  0 
 21 35  1  0  0  0  0 
 21 36  1  0  0  0  0 
M  END
> <cdk:Title>
glymidine

> <Conformer>
1

> <SuperDrugID>
SD001174

$$$$
