clotiapine
  CDK     0628171802

 41 44  0  0  0  0  0  0  0  0999 V2000
    2.3513   -3.2242    1.5166 C   0  0  0  0  0  0  0  0  0  0  0  0
    1.3315   -2.3660    0.8547 N   0  0  1  0  0  0  0  0  0  0  0  0
    0.0820   -2.1795    1.6541 C   0  0  1  0  0  0  0  0  0  0  0  0
   -0.9885   -1.4358    0.8103 C   0  0  1  0  0  0  0  0  0  0  0  0
   -0.4438   -0.2209    0.2337 N   0  0  0  0  0  0  0  0  0  0  0  0
    0.8005   -0.3558   -0.5024 C   0  0  2  0  0  0  0  0  0  0  0  0
    1.8743   -1.0694    0.3542 C   0  0  1  0  0  0  0  0  0  0  0  0
   -1.0755    0.9771    0.3331 C   0  0  0  0  0  0  0  0  0  0  0  0
   -2.3359    0.9697    0.0534 N   0  0  0  0  0  0  0  0  0  0  0  0
   -3.2736    1.9074   -0.0528 C   0  0  0  0  0  0  0  0  0  0  0  0
   -4.5616    1.5839    0.4269 C   0  0  0  0  0  0  0  0  0  0  0  0
   -5.6180    2.5078    0.3329 C   0  0  0  0  0  0  0  0  0  0  0  0
   -5.4020    3.7588   -0.2683 C   0  0  0  0  0  0  0  0  0  0  0  0
   -4.1332    4.0827   -0.7805 C   0  0  0  0  0  0  0  0  0  0  0  0
   -3.0670    3.1649   -0.6723 C   0  0  0  0  0  0  0  0  0  0  0  0
   -1.4989    3.6006   -1.3456 S   0  0  0  0  0  0  0  0  0  0  0  0
   -0.3828    3.3380   -0.0098 C   0  0  0  0  0  0  0  0  0  0  0  0
   -0.3471    2.1170    0.7131 C   0  0  0  0  0  0  0  0  0  0  0  0
    0.5109    2.0306    1.8386 C   0  0  0  0  0  0  0  0  0  0  0  0
    1.3601    3.0960    2.1946 C   0  0  0  0  0  0  0  0  0  0  0  0
    2.4121    2.9474    3.5129 Cl  0  0  0  0  0  0  0  0  0  0  0  0
    1.3451    4.2800    1.4370 C   0  0  0  0  0  0  0  0  0  0  0  0
    0.4808    4.3988    0.3369 C   0  0  0  0  0  0  0  0  0  0  0  0
    2.7039   -2.7761    2.4486 H   0  0  0  0  0  0  0  0  0  0  0  0
    3.2058   -3.3755    0.8534 H   0  0  0  0  0  0  0  0  0  0  0  0
    1.9288   -4.2078    1.7322 H   0  0  0  0  0  0  0  0  0  0  0  0
   -0.3240   -3.1518    1.9435 H   0  0  0  0  0  0  0  0  0  0  0  0
    0.2869   -1.6140    2.5700 H   0  0  0  0  0  0  0  0  0  0  0  0
   -1.3198   -2.0905   -0.0012 H   0  0  0  0  0  0  0  0  0  0  0  0
   -1.8567   -1.2431    1.4471 H   0  0  0  0  0  0  0  0  0  0  0  0
    1.2072    0.5981   -0.8513 H   0  0  0  0  0  0  0  0  0  0  0  0
    0.6087   -0.9586   -1.3929 H   0  0  0  0  0  0  0  0  0  0  0  0
    2.1690   -0.4289    1.1903 H   0  0  0  0  0  0  0  0  0  0  0  0
    2.7545   -1.2389   -0.2715 H   0  0  0  0  0  0  0  0  0  0  0  0
   -4.7401    0.6712    0.8533 H   0  0  0  0  0  0  0  0  0  0  0  0
   -6.5420    2.2687    0.6999 H   0  0  0  0  0  0  0  0  0  0  0  0
   -6.1681    4.4308   -0.3372 H   0  0  0  0  0  0  0  0  0  0  0  0
   -3.9915    4.9906   -1.2290 H   0  0  0  0  0  0  0  0  0  0  0  0
    0.5229    1.1798    2.4085 H   0  0  0  0  0  0  0  0  0  0  0  0
    1.9616    5.0598    1.6802 H   0  0  0  0  0  0  0  0  0  0  0  0
    0.4887    5.2664   -0.2075 H   0  0  0  0  0  0  0  0  0  0  0  0
  1  2  1  0  0  0  0 
  2  3  1  0  0  0  0 
  3  4  1  0  0  0  0 
  4  5  1  0  0  0  0 
  5  6  1  0  0  0  0 
  6  7  1  0  0  0  0 
  2  7  1  0  0  0  0 
  5  8  1  0  0  0  0 
  8  9  2  0  0  0  0 
  9 10  1  0  0  0  0 
 10 11  2  0  0  0  0 
 11 12  1  0  0  0  0 
 12 13  2  0  0  0  0 
 13 14  1  0  0  0  0 
 14 15  2  0  0  0  0 
 10 15  1  0  0  0  0 
 15 16  1  0  0  0  0 
 16 17  1  0  0  0  0 
 17 18  2  0  0  0  0 
  8 18  1  0  0  0  0 
 18 19  1  0  0  0  0 
 19 20  2  0  0  0  0 
 20 21  1  0  0  0  0 
 20 22  1  0  0  0  0 
 22 23  2  0  0  0  0 
 17 23  1  0  0  0  0 
  1 24  1  0  0  0  0 
  1 25  1  0  0  0  0 
  1 26  1  0  0  0  0 
  3 27  1  0  0  0  0 
  3 28  1  0  0  0  0 
  4 29  1  0  0  0  0 
  4 30  1  0  0  0  0 
  6 31  1  0  0  0  0 
  6 32  1  0  0  0  0 
  7 33  1  0  0  0  0 
  7 34  1  0  0  0  0 
 11 35  1  0  0  0  0 
 12 36  1  0  0  0  0 
 13 37  1  0  0  0  0 
 14 38  1  0  0  0  0 
 19 39  1  0  0  0  0 
 22 40  1  0  0  0  0 
 23 41  1  0  0  0  0 
M  END
> <cdk:Title>
clotiapine

> <Conformer>
1

> <SuperDrugID>
SD000634

$$$$
