bendazac
  CDK     0628171801

 35 37  0  0  0  0  0  0  0  0999 V2000
    3.5824   -4.3567   -1.3252 C   0  0  2  0  0  0  0  0  0  0  0  0
    2.5067   -3.4278   -1.5090 N   0  0  0  0  0  0  0  0  0  0  0  0
    4.2974   -4.0703   -0.0537 C   0  0  0  0  0  0  0  0  0  0  0  0
    2.3525   -2.5198   -2.4986 C   0  0  0  0  0  0  0  0  0  0  0  0
    1.4996   -3.3345   -0.6834 N   0  0  0  0  0  0  0  0  0  0  0  0
    5.3584   -3.1356   -0.0128 C   0  0  0  0  0  0  0  0  0  0  0  0
    3.9060   -4.7101    1.1463 C   0  0  0  0  0  0  0  0  0  0  0  0
    1.1712   -1.8270   -2.2502 C   0  0  0  0  0  0  0  0  0  0  0  0
    3.1414   -2.1950   -3.6208 C   0  0  0  0  0  0  0  0  0  0  0  0
    0.6613   -2.3564   -1.0736 C   0  0  0  0  0  0  0  0  0  0  0  0
    6.0246   -2.8649    1.1976 C   0  0  0  0  0  0  0  0  0  0  0  0
    4.5699   -4.4342    2.3551 C   0  0  0  0  0  0  0  0  0  0  0  0
    0.7114   -0.8040   -3.0969 C   0  0  0  0  0  0  0  0  0  0  0  0
    2.6987   -1.1727   -4.4889 C   0  0  0  0  0  0  0  0  0  0  0  0
   -0.4707   -1.9642   -0.4148 O   0  0  0  0  0  0  0  0  0  0  0  0
    5.6338   -3.5161    2.3811 C   0  0  0  0  0  0  0  0  0  0  0  0
    1.4913   -0.4840   -4.2295 C   0  0  0  0  0  0  0  0  0  0  0  0
   -0.2123   -0.8839    0.5020 C   0  0  1  0  0  0  0  0  0  0  0  0
   -1.4686   -0.4870    1.1528 C   0  0  0  0  0  0  0  0  0  0  0  0
   -1.6138   -0.5714    2.4957 O   0  0  0  0  0  0  0  0  0  0  0  0
   -2.4208   -0.0476    0.4708 O   0  0  0  0  0  0  0  0  0  0  0  0
    4.2875   -4.3345   -2.1608 H   0  0  0  0  0  0  0  0  0  0  0  0
    3.1712   -5.3683   -1.3102 H   0  0  0  0  0  0  0  0  0  0  0  0
    5.6512   -2.6484   -0.8643 H   0  0  0  0  0  0  0  0  0  0  0  0
    3.1306   -5.3783    1.1457 H   0  0  0  0  0  0  0  0  0  0  0  0
    4.0210   -2.6815   -3.8055 H   0  0  0  0  0  0  0  0  0  0  0  0
    6.7922   -2.1923    1.2202 H   0  0  0  0  0  0  0  0  0  0  0  0
    4.2776   -4.8990    3.2161 H   0  0  0  0  0  0  0  0  0  0  0  0
   -0.1595   -0.3038   -2.8996 H   0  0  0  0  0  0  0  0  0  0  0  0
    3.2567   -0.9281   -5.3101 H   0  0  0  0  0  0  0  0  0  0  0  0
    6.1194   -3.3201    3.2605 H   0  0  0  0  0  0  0  0  0  0  0  0
    1.1794    0.2531   -4.8658 H   0  0  0  0  0  0  0  0  0  0  0  0
    0.5062   -1.1897    1.2686 H   0  0  0  0  0  0  0  0  0  0  0  0
    0.1863   -0.0119   -0.0247 H   0  0  0  0  0  0  0  0  0  0  0  0
   -2.4507   -0.2933    2.9251 H   0  0  0  0  0  0  0  0  0  0  0  0
  1  2  1  0  0  0  0 
  1  3  1  0  0  0  0 
  2  4  1  0  0  0  0 
  2  5  1  0  0  0  0 
  3  6  2  0  0  0  0 
  3  7  1  0  0  0  0 
  4  8  1  0  0  0  0 
  4  9  2  0  0  0  0 
  5 10  2  0  0  0  0 
  6 11  1  0  0  0  0 
  7 12  2  0  0  0  0 
  8 10  1  0  0  0  0 
  8 13  2  0  0  0  0 
  9 14  1  0  0  0  0 
 10 15  1  0  0  0  0 
 11 16  2  0  0  0  0 
 12 16  1  0  0  0  0 
 13 17  1  0  0  0  0 
 14 17  2  0  0  0  0 
 15 18  1  0  0  0  0 
 18 19  1  0  0  0  0 
 19 20  1  0  0  0  0 
 19 21  2  0  0  0  0 
  1 22  1  0  0  0  0 
  1 23  1  0  0  0  0 
  6 24  1  0  0  0  0 
  7 25  1  0  0  0  0 
  9 26  1  0  0  0  0 
 11 27  1  0  0  0  0 
 12 28  1  0  0  0  0 
 13 29  1  0  0  0  0 
 14 30  1  0  0  0  0 
 16 31  1  0  0  0  0 
 17 32  1  0  0  0  0 
 18 33  1  0  0  0  0 
 18 34  1  0  0  0  0 
 20 35  1  0  0  0  0 
M  END
> <cdk:Title>
bendazac

> <Conformer>
1

> <SuperDrugID>
SD000254

$$$$
