octanoic acid
  CDK     0628171801

 26 25  0  0  0  0  0  0  0  0999 V2000
    2.0284    5.1267   -1.9860 C   0  0  0  0  0  0  0  0  0  0  0  0
    3.0064    3.9940   -2.3759 C   0  0  2  0  0  0  0  0  0  0  0  0
    2.6786    2.6658   -1.6419 C   0  0  1  0  0  0  0  0  0  0  0  0
    3.6459    1.5073   -2.0067 C   0  0  2  0  0  0  0  0  0  0  0  0
    3.3008    0.1925   -1.2562 C   0  0  1  0  0  0  0  0  0  0  0  0
    4.2425   -0.9813   -1.6321 C   0  0  2  0  0  0  0  0  0  0  0  0
    3.8641   -2.3046   -0.9159 C   0  0  1  0  0  0  0  0  0  0  0  0
    4.7275   -3.4202   -1.3468 C   0  0  0  0  0  0  0  0  0  0  0  0
    4.2302   -4.4459   -2.0770 O   0  0  0  0  0  0  0  0  0  0  0  0
    5.9469   -3.4336   -1.0670 O   0  0  0  0  0  0  0  0  0  0  0  0
    2.0790    5.3201   -0.9119 H   0  0  0  0  0  0  0  0  0  0  0  0
    1.0043    4.8501   -2.2474 H   0  0  0  0  0  0  0  0  0  0  0  0
    2.2889    6.0423   -2.5177 H   0  0  0  0  0  0  0  0  0  0  0  0
    4.0240    4.3093   -2.1302 H   0  0  0  0  0  0  0  0  0  0  0  0
    2.9502    3.8390   -3.4566 H   0  0  0  0  0  0  0  0  0  0  0  0
    2.7254    2.8387   -0.5626 H   0  0  0  0  0  0  0  0  0  0  0  0
    1.6569    2.3671   -1.8943 H   0  0  0  0  0  0  0  0  0  0  0  0
    4.6682    1.8027   -1.7548 H   0  0  0  0  0  0  0  0  0  0  0  0
    3.5979    1.3282   -3.0853 H   0  0  0  0  0  0  0  0  0  0  0  0
    3.3659    0.3706   -0.1796 H   0  0  0  0  0  0  0  0  0  0  0  0
    2.2698   -0.0879   -1.4910 H   0  0  0  0  0  0  0  0  0  0  0  0
    5.2722   -0.7106   -1.3762 H   0  0  0  0  0  0  0  0  0  0  0  0
    4.1925   -1.1380   -2.7139 H   0  0  0  0  0  0  0  0  0  0  0  0
    3.9540   -2.1850    0.1678 H   0  0  0  0  0  0  0  0  0  0  0  0
    2.8225   -2.5462   -1.1424 H   0  0  0  0  0  0  0  0  0  0  0  0
    4.8286   -5.1593   -2.3849 H   0  0  0  0  0  0  0  0  0  0  0  0
  1  2  1  0  0  0  0 
  2  3  1  0  0  0  0 
  3  4  1  0  0  0  0 
  4  5  1  0  0  0  0 
  5  6  1  0  0  0  0 
  6  7  1  0  0  0  0 
  7  8  1  0  0  0  0 
  8  9  1  0  0  0  0 
  8 10  2  0  0  0  0 
  1 11  1  0  0  0  0 
  1 12  1  0  0  0  0 
  1 13  1  0  0  0  0 
  2 14  1  0  0  0  0 
  2 15  1  0  0  0  0 
  3 16  1  0  0  0  0 
  3 17  1  0  0  0  0 
  4 18  1  0  0  0  0 
  4 19  1  0  0  0  0 
  5 20  1  0  0  0  0 
  5 21  1  0  0  0  0 
  6 22  1  0  0  0  0 
  6 23  1  0  0  0  0 
  7 24  1  0  0  0  0 
  7 25  1  0  0  0  0 
  9 26  1  0  0  0  0 
M  END
> <cdk:Title>
octanoic acid

> <Conformer>
1

> <SuperDrugID>
SD003321

$$$$
