exifone
  Mrv0541 09131710103D              43.91484

 30 31  0  0  0  0            999 V2000
   -1.5305    6.3447    6.2558 O   0  0  0  0  0  0  0  0  0  0  0  0
   -1.1585    5.1186    5.8060 C   0  0  0  0  0  0  0  0  0  0  0  0
   -0.8078    4.9443    4.4556 C   0  0  0  0  0  0  0  0  0  0  0  0
   -0.4166    3.6800    3.9849 C   0  0  0  0  0  0  0  0  0  0  0  0
   -0.3743    2.5620    4.8525 C   0  0  0  0  0  0  0  0  0  0  0  0
    0.0813    1.3056    4.3635 C   0  0  0  0  0  0  0  0  0  0  0  0
    0.9132    0.6828    5.0669 O   0  0  0  0  0  0  0  0  0  0  0  0
   -0.3220    0.7327    3.1198 C   0  0  0  0  0  0  0  0  0  0  0  0
   -1.6318    0.9195    2.6131 C   0  0  0  0  0  0  0  0  0  0  0  0
   -2.0322    0.3294    1.3966 C   0  0  0  0  0  0  0  0  0  0  0  0
   -3.3001    0.4923    0.9419 O   0  0  0  0  0  0  0  0  0  0  0  0
   -1.1145   -0.4388    0.6509 C   0  0  0  0  0  0  0  0  0  0  0  0
   -1.4768   -1.0052   -0.5299 O   0  0  0  0  0  0  0  0  0  0  0  0
    0.1959   -0.6268    1.1344 C   0  0  0  0  0  0  0  0  0  0  0  0
    1.1122   -1.3478    0.4374 O   0  0  0  0  0  0  0  0  0  0  0  0
    0.5807   -0.0538    2.3614 C   0  0  0  0  0  0  0  0  0  0  0  0
   -0.7547    2.7421    6.2096 C   0  0  0  0  0  0  0  0  0  0  0  0
   -0.7820    1.7061    7.0922 O   0  0  0  0  0  0  0  0  0  0  0  0
   -1.1278    4.0174    6.6860 C   0  0  0  0  0  0  0  0  0  0  0  0
   -1.4565    4.1683    7.9965 O   0  0  0  0  0  0  0  0  0  0  0  0
   -1.6791    6.8890    5.4538 H   0  0  0  0  0  0  0  0  0  0  0  0
   -0.8306    5.7387    3.8130 H   0  0  0  0  0  0  0  0  0  0  0  0
   -0.1506    3.5890    3.0004 H   0  0  0  0  0  0  0  0  0  0  0  0
   -2.3096    1.4840    3.1342 H   0  0  0  0  0  0  0  0  0  0  0  0
   -3.7897    0.9258    1.6722 H   0  0  0  0  0  0  0  0  0  0  0  0
   -2.3735   -0.6652   -0.7294 H   0  0  0  0  0  0  0  0  0  0  0  0
    0.6826   -1.5991   -0.4063 H   0  0  0  0  0  0  0  0  0  0  0  0
    1.5373   -0.2110    2.6930 H   0  0  0  0  0  0  0  0  0  0  0  0
   -0.8748    0.8926    6.5537 H   0  0  0  0  0  0  0  0  0  0  0  0
   -1.4714    5.1333    8.1648 H   0  0  0  0  0  0  0  0  0  0  0  0
  1  2  1  0  0  0  0
  2  3  2  0  0  0  0
  3  4  1  0  0  0  0
  4  5  2  0  0  0  0
  5  6  1  0  0  0  0
  6  7  2  0  0  0  0
  6  8  1  0  0  0  0
  8  9  2  0  0  0  0
  9 10  1  0  0  0  0
 10 11  1  0  0  0  0
 10 12  2  0  0  0  0
 12 13  1  0  0  0  0
 12 14  1  0  0  0  0
 14 15  1  0  0  0  0
 14 16  2  0  0  0  0
  5 17  1  0  0  0  0
 17 18  1  0  0  0  0
 17 19  2  0  0  0  0
 19 20  1  0  0  0  0
 19  2  1  0  0  0  0
 16  8  1  0  0  0  0
  1 21  1  0  0  0  0
  3 22  1  0  0  0  0
  4 23  1  0  0  0  0
  9 24  1  0  0  0  0
 11 25  1  0  0  0  0
 13 26  1  0  0  0  0
 15 27  1  0  0  0  0
 16 28  1  0  0  0  0
 18 29  1  0  0  0  0
 20 30  1  0  0  0  0
M  END
>  <SuperDrugID>
SD006025

>  <_MOLCOUNT>
1

$$$$
