menbutone
  CDK     0628171801

 33 34  0  0  0  0  0  0  0  0999 V2000
   -1.5562    1.1780   -0.1164 C   0  0  0  0  0  0  0  0  0  0  0  0
   -0.1187    0.8772    0.1543 C   0  0  2  0  0  0  0  0  0  0  0  0
   -2.3456    0.2084   -0.2237 O   0  0  0  0  0  0  0  0  0  0  0  0
   -2.1030    2.5059   -0.0931 C   0  0  0  0  0  0  0  0  0  0  0  0
    0.4281   -0.4946   -0.3359 C   0  0  2  0  0  0  0  0  0  0  0  0
   -3.2132    2.9302   -0.8946 C   0  0  0  0  0  0  0  0  0  0  0  0
   -1.5456    3.4346    0.8215 C   0  0  0  0  0  0  0  0  0  0  0  0
    0.6742   -0.5332   -1.7889 C   0  0  0  0  0  0  0  0  0  0  0  0
   -3.8028    4.2184   -0.6665 C   0  0  0  0  0  0  0  0  0  0  0  0
   -3.7525    2.1347   -1.9427 C   0  0  0  0  0  0  0  0  0  0  0  0
   -2.0952    4.7089    1.0010 C   0  0  0  0  0  0  0  0  0  0  0  0
    1.6100    0.2775   -2.3330 O   0  0  0  0  0  0  0  0  0  0  0  0
    0.0554   -1.3271   -2.5324 O   0  0  0  0  0  0  0  0  0  0  0  0
   -3.2430    5.0993    0.2933 C   0  0  0  0  0  0  0  0  0  0  0  0
   -4.9353    4.6208   -1.4178 C   0  0  0  0  0  0  0  0  0  0  0  0
   -4.8835    2.5429   -2.6703 C   0  0  0  0  0  0  0  0  0  0  0  0
   -3.7469    6.3597    0.5151 O   0  0  0  0  0  0  0  0  0  0  0  0
   -5.4867    3.7779   -2.3959 C   0  0  0  0  0  0  0  0  0  0  0  0
   -4.5700    6.4649    1.6914 C   0  0  0  0  0  0  0  0  0  0  0  0
    0.0108    0.9059    1.2392 H   0  0  0  0  0  0  0  0  0  0  0  0
    0.5059    1.6717   -0.2679 H   0  0  0  0  0  0  0  0  0  0  0  0
   -0.2506   -1.2992   -0.0434 H   0  0  0  0  0  0  0  0  0  0  0  0
    1.3835   -0.6824    0.1614 H   0  0  0  0  0  0  0  0  0  0  0  0
   -0.7337    3.1938    1.3945 H   0  0  0  0  0  0  0  0  0  0  0  0
   -3.3222    1.2492   -2.2123 H   0  0  0  0  0  0  0  0  0  0  0  0
   -1.6572    5.3549    1.6609 H   0  0  0  0  0  0  0  0  0  0  0  0
    1.8036    0.2323   -3.2917 H   0  0  0  0  0  0  0  0  0  0  0  0
   -5.3737    5.5343   -1.2681 H   0  0  0  0  0  0  0  0  0  0  0  0
   -5.2632    1.9457   -3.4087 H   0  0  0  0  0  0  0  0  0  0  0  0
   -6.3181    4.0700   -2.9180 H   0  0  0  0  0  0  0  0  0  0  0  0
   -4.8808    7.5044    1.7932 H   0  0  0  0  0  0  0  0  0  0  0  0
   -5.4654    5.8464    1.6056 H   0  0  0  0  0  0  0  0  0  0  0  0
   -4.0247    6.1897    2.5969 H   0  0  0  0  0  0  0  0  0  0  0  0
  1  2  1  0  0  0  0 
  1  3  2  0  0  0  0 
  1  4  1  0  0  0  0 
  2  5  1  0  0  0  0 
  4  6  2  0  0  0  0 
  4  7  1  0  0  0  0 
  5  8  1  0  0  0  0 
  6  9  1  0  0  0  0 
  6 10  1  0  0  0  0 
  7 11  2  0  0  0  0 
  8 12  1  0  0  0  0 
  8 13  2  0  0  0  0 
  9 14  2  0  0  0  0 
  9 15  1  0  0  0  0 
 10 16  2  0  0  0  0 
 11 14  1  0  0  0  0 
 14 17  1  0  0  0  0 
 15 18  2  0  0  0  0 
 16 18  1  0  0  0  0 
 17 19  1  0  0  0  0 
 20  2  1  0  0  0  0 
 21  2  1  0  0  0  0 
 22  5  1  0  0  0  0 
 23  5  1  0  0  0  0 
 24  7  1  0  0  0  0 
 25 10  1  0  0  0  0 
 26 11  1  0  0  0  0 
 27 12  1  0  0  0  0 
 28 15  1  0  0  0  0 
 29 16  1  0  0  0  0 
 30 18  1  0  0  0  0 
 31 19  1  0  0  0  0 
 32 19  1  0  0  0  0 
 33 19  1  0  0  0  0 
M  END
> <cdk:Title>
menbutone

> <Conformer>
1

> <SuperDrugID>
SD002881

$$$$
