tolvaptan
  CDK     0628171801

 57 60  0  0  0  0  0  0  0  0999 V2000
   -7.3668    0.8392   -0.6459 C   0  0  0  0  0  0  0  0  0  0  0  0
   -8.4323    0.3936   -0.1534 O   0  0  0  0  0  0  0  0  0  0  0  0
   -6.2232    0.9148    0.1423 N   0  0  0  0  0  0  0  0  0  0  0  0
   -7.4685    1.2368   -2.0102 C   0  0  0  0  0  0  0  0  0  0  0  0
   -4.9799    1.1923   -0.3801 C   0  0  0  0  0  0  0  0  0  0  0  0
   -6.2814    0.7146    1.5798 C   0  0  2  0  0  0  0  0  0  0  0  0
   -8.3308    2.2980   -2.4100 C   0  0  0  0  0  0  0  0  0  0  0  0
   -6.7278    0.5498   -2.9988 C   0  0  0  0  0  0  0  0  0  0  0  0
   -3.9545    0.2037   -0.3841 C   0  0  0  0  0  0  0  0  0  0  0  0
   -4.7047    2.4903   -0.8666 C   0  0  0  0  0  0  0  0  0  0  0  0
   -5.9931   -0.7503    1.9873 C   0  0  1  0  0  0  0  0  0  0  0  0
   -9.1070    3.0954   -1.4231 C   0  0  0  0  0  0  0  0  0  0  0  0
   -8.4511    2.6092   -3.7845 C   0  0  0  0  0  0  0  0  0  0  0  0
   -6.8416    0.8937   -4.3596 C   0  0  0  0  0  0  0  0  0  0  0  0
   -2.6708    0.5565   -0.8709 C   0  0  0  0  0  0  0  0  0  0  0  0
   -4.2101   -1.1860    0.1100 C   0  0  1  0  0  0  0  0  0  0  0  0
   -3.4253    2.8212   -1.3427 C   0  0  0  0  0  0  0  0  0  0  0  0
   -4.5687   -1.2479    1.6231 C   0  0  1  0  0  0  0  0  0  0  0  0
   -7.7083    1.9268   -4.7730 C   0  0  0  0  0  0  0  0  0  0  0  0
   -2.4024    1.8564   -1.3420 C   0  0  0  0  0  0  0  0  0  0  0  0
   -5.2312   -1.7971   -0.6767 O   0  0  0  0  0  0  0  0  0  0  0  0
   -7.8664    2.1781   -6.1116 N   0  0  0  0  0  0  0  0  0  0  0  0
   -0.8543    2.2593   -1.9013 Cl  0  0  0  0  0  0  0  0  0  0  0  0
   -8.0989    3.3894   -6.7248 C   0  0  0  0  0  0  0  0  0  0  0  0
   -7.9203    4.4242   -6.0393 O   0  0  0  0  0  0  0  0  0  0  0  0
   -8.5169    3.4877   -8.1027 C   0  0  0  0  0  0  0  0  0  0  0  0
   -9.1316    4.6524   -8.6795 C   0  0  0  0  0  0  0  0  0  0  0  0
   -8.3292    2.3624   -8.9520 C   0  0  0  0  0  0  0  0  0  0  0  0
   -9.3947    5.9043   -7.9133 C   0  0  0  0  0  0  0  0  0  0  0  0
   -9.5298    4.6359  -10.0424 C   0  0  0  0  0  0  0  0  0  0  0  0
   -8.7439    2.3595  -10.2949 C   0  0  0  0  0  0  0  0  0  0  0  0
   -9.3486    3.4985  -10.8419 C   0  0  0  0  0  0  0  0  0  0  0  0
   -7.2666    0.9888    1.9682 H   0  0  0  0  0  0  0  0  0  0  0  0
   -5.5764    1.3775    2.0961 H   0  0  0  0  0  0  0  0  0  0  0  0
   -6.1098   -0.2225   -2.7374 H   0  0  0  0  0  0  0  0  0  0  0  0
   -5.4360    3.2051   -0.8669 H   0  0  0  0  0  0  0  0  0  0  0  0
   -6.1173   -0.8385    3.0705 H   0  0  0  0  0  0  0  0  0  0  0  0
   -6.7356   -1.4033    1.5223 H   0  0  0  0  0  0  0  0  0  0  0  0
   -8.4287    3.5077   -0.6733 H   0  0  0  0  0  0  0  0  0  0  0  0
   -9.6332    3.9313   -1.8875 H   0  0  0  0  0  0  0  0  0  0  0  0
   -9.8494    2.4645   -0.9312 H   0  0  0  0  0  0  0  0  0  0  0  0
   -9.1152    3.3292   -4.0744 H   0  0  0  0  0  0  0  0  0  0  0  0
   -6.2932    0.3721   -5.0485 H   0  0  0  0  0  0  0  0  0  0  0  0
   -1.9174   -0.1373   -0.8831 H   0  0  0  0  0  0  0  0  0  0  0  0
   -3.3208   -1.8059   -0.0323 H   0  0  0  0  0  0  0  0  0  0  0  0
   -3.2435    3.7680   -1.6830 H   0  0  0  0  0  0  0  0  0  0  0  0
   -3.8257   -0.6844    2.1964 H   0  0  0  0  0  0  0  0  0  0  0  0
   -4.4980   -2.2908    1.9476 H   0  0  0  0  0  0  0  0  0  0  0  0
   -5.3914   -2.6640   -0.2492 H   0  0  0  0  0  0  0  0  0  0  0  0
   -7.8300    1.3981   -6.6844 H   0  0  0  0  0  0  0  0  0  0  0  0
   -7.8739    1.5145   -8.6086 H   0  0  0  0  0  0  0  0  0  0  0  0
   -8.4525    6.3403   -7.5767 H   0  0  0  0  0  0  0  0  0  0  0  0
   -9.9057    6.6682   -8.5049 H   0  0  0  0  0  0  0  0  0  0  0  0
  -10.0248    5.6847   -7.0478 H   0  0  0  0  0  0  0  0  0  0  0  0
   -9.9601    5.4584  -10.4752 H   0  0  0  0  0  0  0  0  0  0  0  0
   -8.5982    1.5274  -10.8732 H   0  0  0  0  0  0  0  0  0  0  0  0
   -9.6511    3.5073  -11.8198 H   0  0  0  0  0  0  0  0  0  0  0  0
  1  2  2  0  0  0  0 
  1  3  1  0  0  0  0 
  1  4  1  0  0  0  0 
  3  5  1  0  0  0  0 
  3  6  1  0  0  0  0 
  4  7  2  0  0  0  0 
  4  8  1  0  0  0  0 
  5  9  2  0  0  0  0 
  5 10  1  0  0  0  0 
  6 11  1  0  0  0  0 
  7 12  1  0  0  0  0 
  7 13  1  0  0  0  0 
  8 14  2  0  0  0  0 
  9 15  1  0  0  0  0 
 16  9  1  0  0  0  0 
 10 17  2  0  0  0  0 
 11 18  1  0  0  0  0 
 13 19  2  0  0  0  0 
 14 19  1  0  0  0  0 
 15 20  2  0  0  0  0 
 16 18  1  0  0  0  0 
 16 21  1  0  0  0  0 
 17 20  1  0  0  0  0 
 19 22  1  0  0  0  0 
 20 23  1  0  0  0  0 
 22 24  1  0  0  0  0 
 24 25  2  0  0  0  0 
 24 26  1  0  0  0  0 
 26 27  2  0  0  0  0 
 26 28  1  0  0  0  0 
 27 29  1  0  0  0  0 
 27 30  1  0  0  0  0 
 28 31  2  0  0  0  0 
 30 32  2  0  0  0  0 
 31 32  1  0  0  0  0 
  6 33  1  0  0  0  0 
  6 34  1  0  0  0  0 
  8 35  1  0  0  0  0 
 10 36  1  0  0  0  0 
 11 37  1  0  0  0  0 
 11 38  1  0  0  0  0 
 12 39  1  0  0  0  0 
 12 40  1  0  0  0  0 
 12 41  1  0  0  0  0 
 13 42  1  0  0  0  0 
 14 43  1  0  0  0  0 
 15 44  1  0  0  0  0 
 16 45  1  0  0  0  0 
 17 46  1  0  0  0  0 
 18 47  1  0  0  0  0 
 18 48  1  0  0  0  0 
 21 49  1  0  0  0  0 
 22 50  1  0  0  0  0 
 28 51  1  0  0  0  0 
 29 52  1  0  0  0  0 
 29 53  1  0  0  0  0 
 29 54  1  0  0  0  0 
 30 55  1  0  0  0  0 
 31 56  1  0  0  0  0 
 32 57  1  0  0  0  0 
M  END
> <cdk:Title>
tolvaptan

> <Conformer>
1

> <SuperDrugID>
SD003355

$$$$
