Florbetapir F-18
  CDK     0628171801

 51 52  0  0  0  0  0  0  0  0999 V2000
    0.0535   -1.2319   -8.1081 C   0  0  0  0  0  0  0  0  0  0  0  0
   -0.9998   -0.4619   -8.4490 C   0  0  0  0  0  0  0  0  0  0  0  0
    0.4568   -1.5583   -6.8027 C   0  0  0  0  0  0  0  0  0  0  0  0
   -1.4581   -0.1881   -9.7477 C   0  0  0  0  0  0  0  0  0  0  0  0
    1.7807   -2.0162   -6.5749 C   0  0  0  0  0  0  0  0  0  0  0  0
   -0.3917   -1.4971   -5.6651 C   0  0  0  0  0  0  0  0  0  0  0  0
   -2.7734    0.3183   -9.8980 C   0  0  0  0  0  0  0  0  0  0  0  0
   -0.7026   -0.3966  -10.9337 C   0  0  0  0  0  0  0  0  0  0  0  0
    2.2182   -2.3851   -5.2897 C   0  0  0  0  0  0  0  0  0  0  0  0
    0.0524   -1.8698   -4.4368 N   0  0  0  0  0  0  0  0  0  0  0  0
   -3.3117    0.5943  -11.1666 C   0  0  0  0  0  0  0  0  0  0  0  0
   -1.2491   -0.1386  -12.2061 C   0  0  0  0  0  0  0  0  0  0  0  0
    1.3168   -2.3089   -4.2123 C   0  0  0  0  0  0  0  0  0  0  0  0
   -2.5604    0.3691  -12.3359 C   0  0  0  0  0  0  0  0  0  0  0  0
    1.6794   -2.7130   -2.9573 O   0  0  0  0  0  0  0  0  0  0  0  0
   -3.1684    0.6600  -13.5221 N   0  0  0  0  0  0  0  0  0  0  0  0
    2.2234   -1.6582   -2.1428 C   0  0  1  0  0  0  0  0  0  0  0  0
   -2.6860    0.3723  -14.8272 C   0  0  0  0  0  0  0  0  0  0  0  0
    2.6145   -2.2377   -0.7686 C   0  0  1  0  0  0  0  0  0  0  0  0
    3.1398   -1.1685    0.0370 O   0  0  0  0  0  0  0  0  0  0  0  0
    3.5313   -1.5412    1.3707 C   0  0  1  0  0  0  0  0  0  0  0  0
    4.0940   -0.2905    2.0772 C   0  0  1  0  0  0  0  0  0  0  0  0
    3.0754    0.7285    2.1346 O   0  0  0  0  0  0  0  0  0  0  0  0
    3.4961    1.9490    2.7743 C   0  0  1  0  0  0  0  0  0  0  0  0
    2.3335    2.9599    2.7749 C   0  0  1  0  0  0  0  0  0  0  0  0
    2.7209    4.1328    3.3761 F   0  0  0  0  0  0  0  0  0  0  0  0
    0.5974   -1.6191   -8.8426 H   0  0  0  0  0  0  0  0  0  0  0  0
   -1.5198   -0.0561   -7.7058 H   0  0  0  0  0  0  0  0  0  0  0  0
    2.4438   -2.0869   -7.3502 H   0  0  0  0  0  0  0  0  0  0  0  0
   -1.3647   -1.1955   -5.7368 H   0  0  0  0  0  0  0  0  0  0  0  0
   -3.3694    0.4775   -9.0805 H   0  0  0  0  0  0  0  0  0  0  0  0
    0.2573   -0.7411  -10.8975 H   0  0  0  0  0  0  0  0  0  0  0  0
    3.1767   -2.7117   -5.1430 H   0  0  0  0  0  0  0  0  0  0  0  0
   -4.2677    0.9537  -11.2303 H   0  0  0  0  0  0  0  0  0  0  0  0
   -0.6809   -0.3265  -13.0366 H   0  0  0  0  0  0  0  0  0  0  0  0
   -4.0316    1.0990  -13.4676 H   0  0  0  0  0  0  0  0  0  0  0  0
    3.1177   -1.2319   -2.6086 H   0  0  0  0  0  0  0  0  0  0  0  0
    1.4862   -0.8625   -1.9936 H   0  0  0  0  0  0  0  0  0  0  0  0
   -3.4247    0.7273  -15.5457 H   0  0  0  0  0  0  0  0  0  0  0  0
   -2.5565   -0.7036  -14.9573 H   0  0  0  0  0  0  0  0  0  0  0  0
   -1.7388    0.8856  -15.0055 H   0  0  0  0  0  0  0  0  0  0  0  0
    1.7311   -2.6787   -0.2973 H   0  0  0  0  0  0  0  0  0  0  0  0
    3.3694   -3.0170   -0.9094 H   0  0  0  0  0  0  0  0  0  0  0  0
    2.6723   -1.9173    1.9346 H   0  0  0  0  0  0  0  0  0  0  0  0
    4.3029   -2.3169    1.3426 H   0  0  0  0  0  0  0  0  0  0  0  0
    4.4162   -0.5631    3.0863 H   0  0  0  0  0  0  0  0  0  0  0  0
    4.9618    0.0706    1.5167 H   0  0  0  0  0  0  0  0  0  0  0  0
    3.7908    1.7514    3.8091 H   0  0  0  0  0  0  0  0  0  0  0  0
    4.3434    2.3875    2.2384 H   0  0  0  0  0  0  0  0  0  0  0  0
    2.0244    3.1772    1.7508 H   0  0  0  0  0  0  0  0  0  0  0  0
    1.4819    2.5510    3.3218 H   0  0  0  0  0  0  0  0  0  0  0  0
  1  2  2  0  0  0  0 
  1  3  1  0  0  0  0 
  2  4  1  0  0  0  0 
  3  5  2  0  0  0  0 
  3  6  1  0  0  0  0 
  4  7  2  0  0  0  0 
  4  8  1  0  0  0  0 
  5  9  1  0  0  0  0 
  6 10  2  0  0  0  0 
  7 11  1  0  0  0  0 
  8 12  2  0  0  0  0 
  9 13  2  0  0  0  0 
 10 13  1  0  0  0  0 
 11 14  2  0  0  0  0 
 12 14  1  0  0  0  0 
 13 15  1  0  0  0  0 
 14 16  1  0  0  0  0 
 15 17  1  0  0  0  0 
 16 18  1  0  0  0  0 
 17 19  1  0  0  0  0 
 19 20  1  0  0  0  0 
 20 21  1  0  0  0  0 
 21 22  1  0  0  0  0 
 22 23  1  0  0  0  0 
 23 24  1  0  0  0  0 
 24 25  1  0  0  0  0 
 25 26  1  0  0  0  0 
  1 27  1  0  0  0  0 
  2 28  1  0  0  0  0 
  5 29  1  0  0  0  0 
  6 30  1  0  0  0  0 
  7 31  1  0  0  0  0 
  8 32  1  0  0  0  0 
  9 33  1  0  0  0  0 
 11 34  1  0  0  0  0 
 12 35  1  0  0  0  0 
 16 36  1  0  0  0  0 
 17 37  1  0  0  0  0 
 17 38  1  0  0  0  0 
 18 39  1  0  0  0  0 
 18 40  1  0  0  0  0 
 18 41  1  0  0  0  0 
 19 42  1  0  0  0  0 
 19 43  1  0  0  0  0 
 21 44  1  0  0  0  0 
 21 45  1  0  0  0  0 
 22 46  1  0  0  0  0 
 22 47  1  0  0  0  0 
 24 48  1  0  0  0  0 
 24 49  1  0  0  0  0 
 25 50  1  0  0  0  0 
 25 51  1  0  0  0  0 
M  ISO  1  26  18
M  END
> <cdk:Title>
Florbetapir F-18

> <Conformer>
1

> <SuperDrugID>
SD003475

$$$$
