guanadrel
  CDK     0628171801

 34 35  0  0  0  0  0  0  0  0999 V2000
   -1.4884   -1.5801   -0.0501 C   0  0  1  0  0  0  0  0  0  0  0  0
   -0.1307   -1.2778    0.0511 N   0  0  0  0  0  0  0  0  0  0  0  0
   -1.7227   -3.1001    0.1194 C   0  0  2  0  0  0  0  0  0  0  0  0
    0.4447   -0.1331   -0.0514 C   0  0  0  0  0  0  0  0  0  0  0  0
   -1.0253   -3.8524   -0.8687 O   0  0  0  0  0  0  0  0  0  0  0  0
   -3.1796   -3.5304   -0.0993 C   0  0  2  0  0  0  0  0  0  0  0  0
   -0.2021    0.9937   -0.2798 N   0  0  0  0  0  0  0  0  0  0  0  0
    1.7514   -0.0853    0.0670 N   0  0  0  0  0  0  0  0  0  0  0  0
   -1.7820   -5.0612   -1.0598 C   0  0  2  0  0  0  0  0  0  0  0  0
   -3.0823   -4.9030   -0.4598 O   0  0  0  0  0  0  0  0  0  0  0  0
   -1.0540   -6.2521   -0.3691 C   0  0  1  0  0  0  0  0  0  0  0  0
   -1.9069   -5.2936   -2.5935 C   0  0  2  0  0  0  0  0  0  0  0  0
   -1.7046   -7.6207   -0.7071 C   0  0  2  0  0  0  0  0  0  0  0  0
   -2.5458   -6.6638   -2.9384 C   0  0  2  0  0  0  0  0  0  0  0  0
   -1.8164   -7.8405   -2.2381 C   0  0  2  0  0  0  0  0  0  0  0  0
   -2.0481   -1.0452    0.7235 H   0  0  0  0  0  0  0  0  0  0  0  0
   -1.8528   -1.2638   -1.0318 H   0  0  0  0  0  0  0  0  0  0  0  0
   -1.3848   -3.4185    1.1123 H   0  0  0  0  0  0  0  0  0  0  0  0
   -3.6469   -2.9835   -0.9219 H   0  0  0  0  0  0  0  0  0  0  0  0
   -3.7792   -3.4056    0.8056 H   0  0  0  0  0  0  0  0  0  0  0  0
    0.2890    1.8268   -0.3655 H   0  0  0  0  0  0  0  0  0  0  0  0
   -1.1680    0.9954   -0.3632 H   0  0  0  0  0  0  0  0  0  0  0  0
    2.2143    0.7628   -0.0137 H   0  0  0  0  0  0  0  0  0  0  0  0
    2.2571   -0.8970    0.2349 H   0  0  0  0  0  0  0  0  0  0  0  0
   -0.0082   -6.2661   -0.6863 H   0  0  0  0  0  0  0  0  0  0  0  0
   -1.0695   -6.1093    0.7150 H   0  0  0  0  0  0  0  0  0  0  0  0
   -0.9124   -5.2420   -3.0461 H   0  0  0  0  0  0  0  0  0  0  0  0
   -2.5121   -4.4957   -3.0338 H   0  0  0  0  0  0  0  0  0  0  0  0
   -2.7028   -7.6693   -0.2619 H   0  0  0  0  0  0  0  0  0  0  0  0
   -1.1080   -8.4249   -0.2678 H   0  0  0  0  0  0  0  0  0  0  0  0
   -2.5161   -6.8124   -4.0211 H   0  0  0  0  0  0  0  0  0  0  0  0
   -3.5956   -6.6560   -2.6320 H   0  0  0  0  0  0  0  0  0  0  0  0
   -2.3679   -8.7644   -2.4279 H   0  0  0  0  0  0  0  0  0  0  0  0
   -0.8149   -7.9567   -2.6627 H   0  0  0  0  0  0  0  0  0  0  0  0
  1  2  1  0  0  0  0 
  1  3  1  0  0  0  0 
  2  4  2  0  0  0  0 
  3  5  1  0  0  0  0 
  3  6  1  0  0  0  0 
  4  7  1  0  0  0  0 
  4  8  1  0  0  0  0 
  5  9  1  0  0  0  0 
  6 10  1  0  0  0  0 
  9 10  1  0  0  0  0 
  9 11  1  0  0  0  0 
  9 12  1  0  0  0  0 
 11 13  1  0  0  0  0 
 12 14  1  0  0  0  0 
 13 15  1  0  0  0  0 
 14 15  1  0  0  0  0 
 16  1  1  0  0  0  0 
 17  1  1  0  0  0  0 
 18  3  1  0  0  0  0 
 19  6  1  0  0  0  0 
 20  6  1  0  0  0  0 
 21  7  1  0  0  0  0 
 22  7  1  0  0  0  0 
 23  8  1  0  0  0  0 
 24  8  1  0  0  0  0 
 25 11  1  0  0  0  0 
 26 11  1  0  0  0  0 
 27 12  1  0  0  0  0 
 28 12  1  0  0  0  0 
 29 13  1  0  0  0  0 
 30 13  1  0  0  0  0 
 31 14  1  0  0  0  0 
 32 14  1  0  0  0  0 
 33 15  1  0  0  0  0 
 34 15  1  0  0  0  0 
M  END
> <cdk:Title>
guanadrel

> <Conformer>
1

> <SuperDrugID>
SD001188

$$$$
