bezitramide
  CDK     0628171801

 69 73  0  0  0  0  0  0  0  0999 V2000
   -4.1507   -1.9761    1.5406 C   0  0  1  0  0  0  0  0  0  0  0  0
   -3.9961   -0.5766    2.2727 C   0  0  1  0  0  0  0  0  0  0  0  0
   -3.0683   -2.0885    0.6800 C   0  0  0  0  0  0  0  0  0  0  0  0
   -4.2292   -3.0714    2.5968 C   0  0  0  0  0  0  0  0  0  0  0  0
   -5.3542   -2.0995    0.6135 C   0  0  0  0  0  0  0  0  0  0  0  0
   -2.8068   -0.4179    3.2717 C   0  0  1  0  0  0  0  0  0  0  0  0
   -5.3556   -3.1189    3.4629 C   0  0  0  0  0  0  0  0  0  0  0  0
   -3.2404   -4.0809    2.7759 C   0  0  0  0  0  0  0  0  0  0  0  0
   -5.7295   -3.3717    0.0876 C   0  0  0  0  0  0  0  0  0  0  0  0
   -6.1592   -0.9926    0.2246 C   0  0  0  0  0  0  0  0  0  0  0  0
   -2.8846    0.8671    4.0595 N   0  0  2  0  0  0  0  0  0  0  0  0
   -5.4910   -4.1149    4.4475 C   0  0  0  0  0  0  0  0  0  0  0  0
   -3.3711   -5.0783    3.7627 C   0  0  0  0  0  0  0  0  0  0  0  0
   -6.8647   -3.5346   -0.7272 C   0  0  0  0  0  0  0  0  0  0  0  0
   -7.2837   -1.1476   -0.6072 C   0  0  0  0  0  0  0  0  0  0  0  0
   -2.3033    2.0554    3.3321 C   0  0  2  0  0  0  0  0  0  0  0  0
   -2.3702    0.7164    5.4678 C   0  0  1  0  0  0  0  0  0  0  0  0
   -4.4990   -5.0971    4.5994 C   0  0  0  0  0  0  0  0  0  0  0  0
   -7.6432   -2.4203   -1.0763 C   0  0  0  0  0  0  0  0  0  0  0  0
   -2.6593    3.4209    4.1262 C   0  0  2  0  0  0  0  0  0  0  0  0
   -2.6540    1.9416    6.3741 C   0  0  1  0  0  0  0  0  0  0  0  0
   -2.1410    3.2551    5.6518 C   0  0  2  0  0  0  0  0  0  0  0  0
   -2.4675    4.4513    6.4175 N   0  0  0  0  0  0  0  0  0  0  0  0
   -1.6055    5.3420    6.9608 C   0  0  0  0  0  0  0  0  0  0  0  0
   -3.7092    4.9027    6.7318 C   0  0  0  0  0  0  0  0  0  0  0  0
   -2.3503    6.3213    7.6276 C   0  0  0  0  0  0  0  0  0  0  0  0
   -0.1930    5.4120    6.9309 C   0  0  0  0  0  0  0  0  0  0  0  0
   -4.7551    4.3188    6.3635 O   0  0  0  0  0  0  0  0  0  0  0  0
   -3.6683    6.0242    7.5006 N   0  0  0  0  0  0  0  0  0  0  0  0
   -1.6912    7.4038    8.2568 C   0  0  0  0  0  0  0  0  0  0  0  0
    0.4603    6.4788    7.5775 C   0  0  0  0  0  0  0  0  0  0  0  0
   -4.7404    6.7167    8.0528 C   0  0  0  0  0  0  0  0  0  0  0  0
   -0.2863    7.4721    8.2365 C   0  0  0  0  0  0  0  0  0  0  0  0
   -6.1749    6.5284    7.7024 C   0  0  2  0  0  0  0  0  0  0  0  0
   -4.5350    7.5896    8.9285 O   0  0  0  0  0  0  0  0  0  0  0  0
   -6.5067    7.1132    6.3095 C   0  0  0  0  0  0  0  0  0  0  0  0
   -2.1797   -2.1737   -0.0440 N   0  0  0  0  0  0  0  0  0  0  0  0
   -3.9000    0.2169    1.5272 H   0  0  0  0  0  0  0  0  0  0  0  0
   -4.9122   -0.3670    2.8326 H   0  0  0  0  0  0  0  0  0  0  0  0
   -2.8310   -1.2749    3.9468 H   0  0  0  0  0  0  0  0  0  0  0  0
   -1.8562   -0.4804    2.7337 H   0  0  0  0  0  0  0  0  0  0  0  0
   -6.1010   -2.4233    3.3762 H   0  0  0  0  0  0  0  0  0  0  0  0
   -2.4074   -4.1083    2.1860 H   0  0  0  0  0  0  0  0  0  0  0  0
   -5.1790   -4.2063    0.3067 H   0  0  0  0  0  0  0  0  0  0  0  0
   -5.9453   -0.0464    0.5352 H   0  0  0  0  0  0  0  0  0  0  0  0
   -6.3152   -4.1280    5.0508 H   0  0  0  0  0  0  0  0  0  0  0  0
   -2.6455   -5.7922    3.8724 H   0  0  0  0  0  0  0  0  0  0  0  0
   -7.1276   -4.4643   -1.0620 H   0  0  0  0  0  0  0  0  0  0  0  0
   -7.8426   -0.3322   -0.8669 H   0  0  0  0  0  0  0  0  0  0  0  0
   -2.6875    2.0317    2.2764 H   0  0  0  0  0  0  0  0  0  0  0  0
   -1.2032    1.8544    3.2150 H   0  0  0  0  0  0  0  0  0  0  0  0
   -2.8446   -0.1421    5.9534 H   0  0  0  0  0  0  0  0  0  0  0  0
   -1.2926    0.5287    5.4452 H   0  0  0  0  0  0  0  0  0  0  0  0
   -4.5986   -5.8223    5.3165 H   0  0  0  0  0  0  0  0  0  0  0  0
   -8.4692   -2.5355   -1.6688 H   0  0  0  0  0  0  0  0  0  0  0  0
   -3.7356    3.5838    4.0849 H   0  0  0  0  0  0  0  0  0  0  0  0
   -2.1554    4.2635    3.6484 H   0  0  0  0  0  0  0  0  0  0  0  0
   -3.7297    1.9991    6.5508 H   0  0  0  0  0  0  0  0  0  0  0  0
   -2.1529    1.8128    7.3378 H   0  0  0  0  0  0  0  0  0  0  0  0
   -1.0267    3.1186    5.7260 H   0  0  0  0  0  0  0  0  0  0  0  0
    0.3698    4.7140    6.4459 H   0  0  0  0  0  0  0  0  0  0  0  0
   -2.2067    8.1515    8.7171 H   0  0  0  0  0  0  0  0  0  0  0  0
    1.4797    6.5380    7.5655 H   0  0  0  0  0  0  0  0  0  0  0  0
    0.1913    8.2513    8.6956 H   0  0  0  0  0  0  0  0  0  0  0  0
   -6.8131    7.0384    8.4328 H   0  0  0  0  0  0  0  0  0  0  0  0
   -6.4427    5.4737    7.7499 H   0  0  0  0  0  0  0  0  0  0  0  0
   -6.2775    8.1816    6.2873 H   0  0  0  0  0  0  0  0  0  0  0  0
   -7.5692    6.9863    6.0958 H   0  0  0  0  0  0  0  0  0  0  0  0
   -5.9360    6.6145    5.5244 H   0  0  0  0  0  0  0  0  0  0  0  0
  1  2  1  0  0  0  0 
  1  3  1  0  0  0  0 
  1  4  1  0  0  0  0 
  1  5  1  0  0  0  0 
  2  6  1  0  0  0  0 
  4  7  2  0  0  0  0 
  4  8  1  0  0  0  0 
  5  9  2  0  0  0  0 
  5 10  1  0  0  0  0 
  6 11  1  0  0  0  0 
  7 12  1  0  0  0  0 
  8 13  2  0  0  0  0 
  9 14  1  0  0  0  0 
 10 15  2  0  0  0  0 
 11 16  1  0  0  0  0 
 11 17  1  0  0  0  0 
 12 18  2  0  0  0  0 
 13 18  1  0  0  0  0 
 14 19  2  0  0  0  0 
 15 19  1  0  0  0  0 
 16 20  1  0  0  0  0 
 17 21  1  0  0  0  0 
 20 22  1  0  0  0  0 
 21 22  1  0  0  0  0 
 22 23  1  0  0  0  0 
 23 24  1  0  0  0  0 
 23 25  1  0  0  0  0 
 24 26  1  0  0  0  0 
 24 27  2  0  0  0  0 
 25 28  2  0  0  0  0 
 25 29  1  0  0  0  0 
 26 29  1  0  0  0  0 
 26 30  2  0  0  0  0 
 27 31  1  0  0  0  0 
 29 32  1  0  0  0  0 
 30 33  1  0  0  0  0 
 31 33  2  0  0  0  0 
 32 34  1  0  0  0  0 
 32 35  2  0  0  0  0 
 34 36  1  0  0  0  0 
  3 37  3  0  0  0  0 
 38  2  1  0  0  0  0 
 39  2  1  0  0  0  0 
 40  6  1  0  0  0  0 
 41  6  1  0  0  0  0 
 42  7  1  0  0  0  0 
 43  8  1  0  0  0  0 
 44  9  1  0  0  0  0 
 45 10  1  0  0  0  0 
 46 12  1  0  0  0  0 
 47 13  1  0  0  0  0 
 48 14  1  0  0  0  0 
 49 15  1  0  0  0  0 
 50 16  1  0  0  0  0 
 51 16  1  0  0  0  0 
 52 17  1  0  0  0  0 
 53 17  1  0  0  0  0 
 54 18  1  0  0  0  0 
 55 19  1  0  0  0  0 
 56 20  1  0  0  0  0 
 57 20  1  0  0  0  0 
 58 21  1  0  0  0  0 
 59 21  1  0  0  0  0 
 60 22  1  0  0  0  0 
 61 27  1  0  0  0  0 
 62 30  1  0  0  0  0 
 63 31  1  0  0  0  0 
 64 33  1  0  0  0  0 
 65 34  1  0  0  0  0 
 66 34  1  0  0  0  0 
 67 36  1  0  0  0  0 
 68 36  1  0  0  0  0 
 69 36  1  0  0  0  0 
M  END
> <cdk:Title>
bezitramide

> <Conformer>
1

> <SuperDrugID>
SD000308

$$$$
