bacampicillin
  CDK     0628171801

 59 61  0  0  0  0  0  0  0  0999 V2000
   -4.0455   -3.4791    0.2602 C   0  0  0  0  0  0  0  0  0  0  0  0
   -4.0679   -4.7322    0.8037 O   0  0  0  0  0  0  0  0  0  0  0  0
   -5.1062   -2.8720   -0.0223 O   0  0  0  0  0  0  0  0  0  0  0  0
   -2.7267   -2.8693   -0.0267 C   0  0  2  0  0  0  0  0  0  0  0  0
   -5.2103   -5.5560    1.0706 C   0  0  1  0  0  0  0  0  0  0  0  0
   -2.6325   -1.5538    0.5049 N   0  0  0  0  0  0  0  0  0  0  0  0
   -2.3446   -2.6849   -1.5508 C   0  0  2  0  0  0  0  0  0  0  0  0
   -4.7651   -6.8514    1.4947 O   0  0  0  0  0  0  0  0  0  0  0  0
   -6.0908   -4.9831    2.1996 C   0  0  0  0  0  0  0  0  0  0  0  0
   -2.9759   -0.3674   -0.1717 C   0  0  2  0  0  0  0  0  0  0  0  0
   -1.9583   -0.9692    1.4937 C   0  0  0  0  0  0  0  0  0  0  0  0
   -2.2900   -0.8589   -1.7836 S   0  0  0  0  0  0  0  0  0  0  0  0
   -3.9150   -7.6956    0.8449 C   0  0  0  0  0  0  0  0  0  0  0  0
   -2.1602    0.3719    0.9398 C   0  0  1  0  0  0  0  0  0  0  0  0
   -1.3038   -1.4077    2.4653 O   0  0  0  0  0  0  0  0  0  0  0  0
   -3.6652   -8.8955    1.4405 O   0  0  0  0  0  0  0  0  0  0  0  0
   -3.3810   -7.3821   -0.2458 O   0  0  0  0  0  0  0  0  0  0  0  0
   -0.9540    1.0335    0.5471 N   0  0  0  0  0  0  0  0  0  0  0  0
   -2.7439   -9.8917    0.9828 C   0  0  1  0  0  0  0  0  0  0  0  0
   -0.9112    2.1474   -0.2350 C   0  0  0  0  0  0  0  0  0  0  0  0
   -2.7931  -11.1321    1.8947 C   0  0  0  0  0  0  0  0  0  0  0  0
    0.3825    2.7954   -0.5556 C   0  0  2  0  0  0  0  0  0  0  0  0
   -1.9644    2.6436   -0.7031 O   0  0  0  0  0  0  0  0  0  0  0  0
    1.2752    1.8244   -1.2101 N   0  0  1  0  0  0  0  0  0  0  0  0
    0.9753    3.4767    0.6357 C   0  0  0  0  0  0  0  0  0  0  0  0
    2.0306    2.9117    1.3949 C   0  0  0  0  0  0  0  0  0  0  0  0
    0.4818    4.7473    1.0274 C   0  0  0  0  0  0  0  0  0  0  0  0
    2.5960    3.6063    2.4808 C   0  0  0  0  0  0  0  0  0  0  0  0
    1.0429    5.4408    2.1152 C   0  0  0  0  0  0  0  0  0  0  0  0
    2.1080    4.8753    2.8365 C   0  0  0  0  0  0  0  0  0  0  0  0
   -4.0570   -0.1943   -0.1721 H   0  0  0  0  0  0  0  0  0  0  0  0
   -3.3427   -3.2819   -2.5925 C   0  0  0  0  0  0  0  0  0  0  0  0
   -0.9198   -3.2486   -1.8309 C   0  0  0  0  0  0  0  0  0  0  0  0
   -1.9787   -3.4878    0.4762 H   0  0  0  0  0  0  0  0  0  0  0  0
   -5.8032   -5.6655    0.1556 H   0  0  0  0  0  0  0  0  0  0  0  0
   -6.9214   -5.6641    2.3887 H   0  0  0  0  0  0  0  0  0  0  0  0
   -5.5122   -4.8697    3.1185 H   0  0  0  0  0  0  0  0  0  0  0  0
   -6.4960   -4.0115    1.9181 H   0  0  0  0  0  0  0  0  0  0  0  0
   -2.7859    0.9852    1.5932 H   0  0  0  0  0  0  0  0  0  0  0  0
   -0.1111    0.6826    0.8786 H   0  0  0  0  0  0  0  0  0  0  0  0
   -2.9920  -10.1867   -0.0393 H   0  0  0  0  0  0  0  0  0  0  0  0
   -1.7343   -9.4754    0.9947 H   0  0  0  0  0  0  0  0  0  0  0  0
   -2.0302  -11.8488    1.5847 H   0  0  0  0  0  0  0  0  0  0  0  0
   -2.6075  -10.8484    2.9322 H   0  0  0  0  0  0  0  0  0  0  0  0
   -3.7726  -11.6091    1.8270 H   0  0  0  0  0  0  0  0  0  0  0  0
    0.2158    3.5618   -1.3190 H   0  0  0  0  0  0  0  0  0  0  0  0
    2.1517    2.3103   -1.4076 H   0  0  0  0  0  0  0  0  0  0  0  0
    1.4890    1.0859   -0.5357 H   0  0  0  0  0  0  0  0  0  0  0  0
    2.4011    1.9872    1.1670 H   0  0  0  0  0  0  0  0  0  0  0  0
   -0.2910    5.1812    0.5151 H   0  0  0  0  0  0  0  0  0  0  0  0
    3.3625    3.1883    3.0136 H   0  0  0  0  0  0  0  0  0  0  0  0
    0.6764    6.3569    2.3829 H   0  0  0  0  0  0  0  0  0  0  0  0
    2.5273    5.3850    3.6170 H   0  0  0  0  0  0  0  0  0  0  0  0
   -4.3313   -2.8308   -2.4975 H   0  0  0  0  0  0  0  0  0  0  0  0
   -3.4414   -4.3607   -2.4520 H   0  0  0  0  0  0  0  0  0  0  0  0
   -2.9989   -3.1025   -3.6145 H   0  0  0  0  0  0  0  0  0  0  0  0
   -0.1936   -2.8375   -1.1252 H   0  0  0  0  0  0  0  0  0  0  0  0
   -0.9170   -4.3364   -1.7254 H   0  0  0  0  0  0  0  0  0  0  0  0
   -0.5929   -3.0009   -2.8423 H   0  0  0  0  0  0  0  0  0  0  0  0
  1  2  1  0  0  0  0 
  1  3  2  0  0  0  0 
  5  2  1  0  0  0  0 
  4  1  1  0  0  0  0 
  4  6  1  0  0  0  0 
  4  7  1  0  0  0  0 
  5  8  1  0  0  0  0 
  5  9  1  0  0  0  0 
 10  6  1  0  0  0  0 
  6 11  1  0  0  0  0 
  7 12  1  0  0  0  0 
  8 13  1  0  0  0  0 
 10 12  1  0  0  0  0 
 10 14  1  0  0  0  0 
 10 31  1  0  0  0  0 
 14 11  1  0  0  0  0 
 11 15  2  0  0  0  0 
 13 16  1  0  0  0  0 
 13 17  2  0  0  0  0 
 14 18  1  0  0  0  0 
 16 19  1  0  0  0  0 
 18 20  1  0  0  0  0 
 19 21  1  0  0  0  0 
 22 20  1  0  0  0  0 
 20 23  2  0  0  0  0 
 22 24  1  0  0  0  0 
 22 25  1  0  0  0  0 
 25 26  2  0  0  0  0 
 25 27  1  0  0  0  0 
 26 28  1  0  0  0  0 
 27 29  2  0  0  0  0 
 28 30  2  0  0  0  0 
 29 30  1  0  0  0  0 
  7 32  1  0  0  0  0 
  7 33  1  0  0  0  0 
  4 34  1  0  0  0  0 
  5 35  1  0  0  0  0 
  9 36  1  0  0  0  0 
  9 37  1  0  0  0  0 
  9 38  1  0  0  0  0 
 14 39  1  0  0  0  0 
 18 40  1  0  0  0  0 
 19 41  1  0  0  0  0 
 19 42  1  0  0  0  0 
 21 43  1  0  0  0  0 
 21 44  1  0  0  0  0 
 21 45  1  0  0  0  0 
 22 46  1  0  0  0  0 
 24 47  1  0  0  0  0 
 24 48  1  0  0  0  0 
 26 49  1  0  0  0  0 
 27 50  1  0  0  0  0 
 28 51  1  0  0  0  0 
 29 52  1  0  0  0  0 
 30 53  1  0  0  0  0 
 32 54  1  0  0  0  0 
 32 55  1  0  0  0  0 
 32 56  1  0  0  0  0 
 33 57  1  0  0  0  0 
 33 58  1  0  0  0  0 
 33 59  1  0  0  0  0 
M  END
> <cdk:Title>
bacampicillin

> <Conformer>
1

> <SuperDrugID>
SD000234

$$$$
