alphaprodine
  CDK     0628171801

 42 43  0  0  0  0  0  0  0  0999 V2000
    0.3978   -1.3620    0.5731 O   0  0  0  0  0  0  0  0  0  0  0  0
    1.5969   -1.1205   -0.0407 C   0  0  0  0  0  0  0  0  0  0  0  0
   -0.9101   -0.7523    0.4317 C   0  0  1  0  0  0  0  0  0  0  0  0
    2.7692   -1.9231    0.3554 C   0  0  1  0  0  0  0  0  0  0  0  0
    1.7319   -0.2084   -0.8878 O   0  0  0  0  0  0  0  0  0  0  0  0
   -1.6182   -1.3083   -0.8744 C   0  0  1  0  0  0  0  0  0  0  0  0
   -1.7142   -1.2735    1.6770 C   0  0  1  0  0  0  0  0  0  0  0  0
   -0.8235    0.7596    0.5774 C   0  0  0  0  0  0  0  0  0  0  0  0
    3.2954   -2.8239   -0.7832 C   0  0  0  0  0  0  0  0  0  0  0  0
   -0.9234   -0.9479   -2.2239 C   0  0  0  0  0  0  0  0  0  0  0  0
   -1.8547   -2.8508   -0.8075 C   0  0  2  0  0  0  0  0  0  0  0  0
   -1.9380   -2.8088    1.6700 C   0  0  1  0  0  0  0  0  0  0  0  0
    0.0744    1.3267    1.5238 C   0  0  0  0  0  0  0  0  0  0  0  0
   -1.6317    1.6689   -0.1568 C   0  0  0  0  0  0  0  0  0  0  0  0
   -2.6190   -3.2427    0.4158 N   0  0  2  0  0  0  0  0  0  0  0  0
    0.1850    2.7183    1.7004 C   0  0  0  0  0  0  0  0  0  0  0  0
   -1.5184    3.0625    0.0060 C   0  0  0  0  0  0  0  0  0  0  0  0
   -2.9926   -4.6867    0.4271 C   0  0  0  0  0  0  0  0  0  0  0  0
   -0.6077    3.5879    0.9354 C   0  0  0  0  0  0  0  0  0  0  0  0
    3.5658   -1.2484    0.6750 H   0  0  0  0  0  0  0  0  0  0  0  0
    2.5102   -2.5554    1.2085 H   0  0  0  0  0  0  0  0  0  0  0  0
   -2.6210   -0.8762   -0.9168 H   0  0  0  0  0  0  0  0  0  0  0  0
   -1.1885   -1.0229    2.6052 H   0  0  0  0  0  0  0  0  0  0  0  0
   -2.6963   -0.7891    1.7189 H   0  0  0  0  0  0  0  0  0  0  0  0
    4.1754   -3.3728   -0.4401 H   0  0  0  0  0  0  0  0  0  0  0  0
    2.5309   -3.5440   -1.0835 H   0  0  0  0  0  0  0  0  0  0  0  0
    3.5817   -2.2232   -1.6493 H   0  0  0  0  0  0  0  0  0  0  0  0
   -0.6497    0.1063   -2.2662 H   0  0  0  0  0  0  0  0  0  0  0  0
   -0.0237   -1.5465   -2.3752 H   0  0  0  0  0  0  0  0  0  0  0  0
   -1.6018   -1.1458   -3.0568 H   0  0  0  0  0  0  0  0  0  0  0  0
   -0.8980   -3.3811   -0.8374 H   0  0  0  0  0  0  0  0  0  0  0  0
   -2.4273   -3.1501   -1.6917 H   0  0  0  0  0  0  0  0  0  0  0  0
   -0.9789   -3.3250    1.7815 H   0  0  0  0  0  0  0  0  0  0  0  0
   -2.5545   -3.0649    2.5379 H   0  0  0  0  0  0  0  0  0  0  0  0
    0.6643    0.7259    2.1029 H   0  0  0  0  0  0  0  0  0  0  0  0
   -2.3268    1.3401   -0.8254 H   0  0  0  0  0  0  0  0  0  0  0  0
    0.8403    3.0990    2.3884 H   0  0  0  0  0  0  0  0  0  0  0  0
   -2.1027    3.6930   -0.5486 H   0  0  0  0  0  0  0  0  0  0  0  0
   -3.5943   -4.9203    1.3084 H   0  0  0  0  0  0  0  0  0  0  0  0
   -3.5958   -4.9265   -0.4509 H   0  0  0  0  0  0  0  0  0  0  0  0
   -2.1056   -5.3256    0.4286 H   0  0  0  0  0  0  0  0  0  0  0  0
   -0.5265    4.5999    1.0577 H   0  0  0  0  0  0  0  0  0  0  0  0
  1  2  1  0  0  0  0 
  2  4  1  0  0  0  0 
  2  5  2  0  0  0  0 
  3  1  1  0  0  0  0 
  6  3  1  0  0  0  0 
  3  7  1  0  0  0  0 
  3  8  1  0  0  0  0 
  4  9  1  0  0  0  0 
  6 10  1  0  0  0  0 
  6 11  1  0  0  0  0 
  7 12  1  0  0  0  0 
  8 13  2  0  0  0  0 
  8 14  1  0  0  0  0 
 11 15  1  0  0  0  0 
 12 15  1  0  0  0  0 
 13 16  1  0  0  0  0 
 14 17  2  0  0  0  0 
 15 18  1  0  0  0  0 
 16 19  2  0  0  0  0 
 17 19  1  0  0  0  0 
  4 20  1  0  0  0  0 
  4 21  1  0  0  0  0 
  6 22  1  0  0  0  0 
  7 23  1  0  0  0  0 
  7 24  1  0  0  0  0 
  9 25  1  0  0  0  0 
  9 26  1  0  0  0  0 
  9 27  1  0  0  0  0 
 10 28  1  0  0  0  0 
 10 29  1  0  0  0  0 
 10 30  1  0  0  0  0 
 11 31  1  0  0  0  0 
 11 32  1  0  0  0  0 
 12 33  1  0  0  0  0 
 12 34  1  0  0  0  0 
 13 35  1  0  0  0  0 
 14 36  1  0  0  0  0 
 16 37  1  0  0  0  0 
 17 38  1  0  0  0  0 
 18 39  1  0  0  0  0 
 18 40  1  0  0  0  0 
 18 41  1  0  0  0  0 
 19 42  1  0  0  0  0 
M  END
> <cdk:Title>
alphaprodine

> <Conformer>
1

> <SuperDrugID>
SD000101

$$$$
