cypermethrin
  CDK     0628171801

 47 49  0  0  0  0  0  0  0  0999 V2000
    1.7804   -0.9367    1.4234 C   0  0  0  0  0  0  0  0  0  0  0  0
    0.9056   -1.7624    2.0788 O   0  0  0  0  0  0  0  0  0  0  0  0
    2.9009   -0.6583    1.9120 O   0  0  0  0  0  0  0  0  0  0  0  0
    1.4237   -0.3797    0.1015 C   0  0  1  0  0  0  0  0  0  0  0  0
    1.0542   -2.3281    3.3959 C   0  0  1  0  0  0  0  0  0  0  0  0
    0.0413    0.2931   -0.0892 C   0  0  1  0  0  0  0  0  0  0  0  0
    1.3246    1.1652   -0.0489 C   0  0  1  0  0  0  0  0  0  0  0  0
   -0.1050   -2.9925    3.7002 C   0  0  0  0  0  0  0  0  0  0  0  0
    2.2270   -3.2458    3.5218 C   0  0  0  0  0  0  0  0  0  0  0  0
   -0.6541    0.1430   -1.3554 C   0  0  0  0  0  0  0  0  0  0  0  0
    1.4524    2.0749    1.2044 C   0  0  0  0  0  0  0  0  0  0  0  0
    1.8988    1.7589   -1.3706 C   0  0  0  0  0  0  0  0  0  0  0  0
   -1.0766   -3.5474    3.9604 N   0  0  0  0  0  0  0  0  0  0  0  0
    2.4291   -4.2866    2.5851 C   0  0  0  0  0  0  0  0  0  0  0  0
    3.1733   -3.0907    4.5651 C   0  0  0  0  0  0  0  0  0  0  0  0
   -1.4847    1.0680   -1.8636 C   0  0  0  0  0  0  0  0  0  0  0  0
    3.5610   -5.1251    2.6533 C   0  0  0  0  0  0  0  0  0  0  0  0
    4.2820   -3.9523    4.6676 C   0  0  0  0  0  0  0  0  0  0  0  0
   -2.2272    0.8134   -3.3287 Cl  0  0  0  0  0  0  0  0  0  0  0  0
   -1.8383    2.5116   -1.1119 Cl  0  0  0  0  0  0  0  0  0  0  0  0
    3.7674   -6.0864    1.7012 O   0  0  0  0  0  0  0  0  0  0  0  0
    4.4701   -4.9709    3.7185 C   0  0  0  0  0  0  0  0  0  0  0  0
    4.4690   -5.5776    0.6400 C   0  0  0  0  0  0  0  0  0  0  0  0
    3.7893   -4.9872   -0.4475 C   0  0  0  0  0  0  0  0  0  0  0  0
    5.8783   -5.6561    0.6117 C   0  0  0  0  0  0  0  0  0  0  0  0
    4.5070   -4.4635   -1.5378 C   0  0  0  0  0  0  0  0  0  0  0  0
    6.5988   -5.1325   -0.4777 C   0  0  0  0  0  0  0  0  0  0  0  0
    5.9115   -4.5405   -1.5532 C   0  0  0  0  0  0  0  0  0  0  0  0
    1.8160   -0.9147   -0.7687 H   0  0  0  0  0  0  0  0  0  0  0  0
    1.1279   -1.4983    4.1052 H   0  0  0  0  0  0  0  0  0  0  0  0
   -0.5842    0.3101    0.8081 H   0  0  0  0  0  0  0  0  0  0  0  0
   -0.4993   -0.6944   -1.8673 H   0  0  0  0  0  0  0  0  0  0  0  0
    0.9767    1.6396    2.0842 H   0  0  0  0  0  0  0  0  0  0  0  0
    0.9798    3.0376    1.0042 H   0  0  0  0  0  0  0  0  0  0  0  0
    2.5071    2.2388    1.4251 H   0  0  0  0  0  0  0  0  0  0  0  0
    1.7698    1.0889   -2.2229 H   0  0  0  0  0  0  0  0  0  0  0  0
    1.3995    2.7031   -1.5991 H   0  0  0  0  0  0  0  0  0  0  0  0
    2.9655    1.9520   -1.2496 H   0  0  0  0  0  0  0  0  0  0  0  0
    1.7528   -4.4304    1.8334 H   0  0  0  0  0  0  0  0  0  0  0  0
    3.0632   -2.3479    5.2618 H   0  0  0  0  0  0  0  0  0  0  0  0
    4.9536   -3.8351    5.4312 H   0  0  0  0  0  0  0  0  0  0  0  0
    5.2749   -5.5941    3.8018 H   0  0  0  0  0  0  0  0  0  0  0  0
    2.7695   -4.9342   -0.4450 H   0  0  0  0  0  0  0  0  0  0  0  0
    6.3832   -6.0908    1.3862 H   0  0  0  0  0  0  0  0  0  0  0  0
    4.0090   -4.0287   -2.3179 H   0  0  0  0  0  0  0  0  0  0  0  0
    7.6203   -5.1815   -0.4884 H   0  0  0  0  0  0  0  0  0  0  0  0
    6.4336   -4.1614   -2.3458 H   0  0  0  0  0  0  0  0  0  0  0  0
  1  2  1  0  0  0  0 
  1  3  2  0  0  0  0 
  1  4  1  0  0  0  0 
  2  5  1  0  0  0  0 
  4  6  1  0  0  0  0 
  4  7  1  0  0  0  0 
  5  8  1  0  0  0  0 
  5  9  1  0  0  0  0 
  6  7  1  0  0  0  0 
  6 10  1  0  0  0  0 
  7 11  1  0  0  0  0 
  7 12  1  0  0  0  0 
  8 13  3  0  0  0  0 
  9 14  2  0  0  0  0 
  9 15  1  0  0  0  0 
 10 16  2  0  0  0  0 
 14 17  1  0  0  0  0 
 15 18  2  0  0  0  0 
 16 19  1  0  0  0  0 
 16 20  1  0  0  0  0 
 17 21  1  0  0  0  0 
 17 22  2  0  0  0  0 
 18 22  1  0  0  0  0 
 21 23  1  0  0  0  0 
 23 24  2  0  0  0  0 
 23 25  1  0  0  0  0 
 24 26  1  0  0  0  0 
 25 27  2  0  0  0  0 
 26 28  2  0  0  0  0 
 27 28  1  0  0  0  0 
  4 29  1  0  0  0  0 
  5 30  1  0  0  0  0 
  6 31  1  0  0  0  0 
 10 32  1  0  0  0  0 
 11 33  1  0  0  0  0 
 11 34  1  0  0  0  0 
 11 35  1  0  0  0  0 
 12 36  1  0  0  0  0 
 12 37  1  0  0  0  0 
 12 38  1  0  0  0  0 
 14 39  1  0  0  0  0 
 15 40  1  0  0  0  0 
 18 41  1  0  0  0  0 
 22 42  1  0  0  0  0 
 24 43  1  0  0  0  0 
 25 44  1  0  0  0  0 
 26 45  1  0  0  0  0 
 27 46  1  0  0  0  0 
 28 47  1  0  0  0  0 
M  END
> <cdk:Title>
cypermethrin

> <Conformer>
1

> <SuperDrugID>
SD003549

$$$$
