almitrine
  CDK     0628171801

 64 67  0  0  0  0  0  0  0  0999 V2000
    3.1712    4.8306   -3.5599 C   0  0  1  0  0  0  0  0  0  0  0  0
    4.2310    5.4220   -4.4673 N   0  0  1  0  0  0  0  0  0  0  0  0
    1.7583    4.9964   -4.0333 C   0  0  0  0  0  0  0  0  0  0  0  0
    3.3542    3.3775   -3.2299 C   0  0  0  0  0  0  0  0  0  0  0  0
    4.0156    6.8927   -4.7288 C   0  0  2  0  0  0  0  0  0  0  0  0
    5.6311    5.1311   -3.9856 C   0  0  1  0  0  0  0  0  0  0  0  0
    0.7406    5.3352   -3.1075 C   0  0  0  0  0  0  0  0  0  0  0  0
    1.3936    4.8029   -5.3884 C   0  0  0  0  0  0  0  0  0  0  0  0
    3.4925    2.4014   -4.2471 C   0  0  0  0  0  0  0  0  0  0  0  0
    3.3930    2.9459   -1.8804 C   0  0  0  0  0  0  0  0  0  0  0  0
    5.1594    7.5362   -5.5499 C   0  0  2  0  0  0  0  0  0  0  0  0
    6.7399    5.8632   -4.7824 C   0  0  2  0  0  0  0  0  0  0  0  0
   -0.5934    5.4886   -3.5215 C   0  0  0  0  0  0  0  0  0  0  0  0
    0.0583    4.9601   -5.8048 C   0  0  0  0  0  0  0  0  0  0  0  0
    3.6671    1.0427   -3.9264 C   0  0  0  0  0  0  0  0  0  0  0  0
    3.5723    1.5892   -1.5578 C   0  0  0  0  0  0  0  0  0  0  0  0
    6.3946    7.2673   -4.8468 N   0  0  0  0  0  0  0  0  0  0  0  0
   -0.9364    5.3036   -4.8723 C   0  0  0  0  0  0  0  0  0  0  0  0
    3.7122    0.6352   -2.5809 C   0  0  0  0  0  0  0  0  0  0  0  0
    7.1088    8.2509   -4.1784 C   0  0  0  0  0  0  0  0  0  0  0  0
   -2.1737    5.4568   -5.2575 F   0  0  0  0  0  0  0  0  0  0  0  0
    3.8874   -0.6233   -2.2809 F   0  0  0  0  0  0  0  0  0  0  0  0
    6.6122    9.5238   -4.0552 N   0  0  0  0  0  0  0  0  0  0  0  0
    8.3073    7.9550   -3.5839 N   0  0  0  0  0  0  0  0  0  0  0  0
    7.2329   10.5264   -3.3731 C   0  0  0  0  0  0  0  0  0  0  0  0
    9.0385    8.8353   -2.8577 C   0  0  0  0  0  0  0  0  0  0  0  0
    6.7682   11.7991   -3.2570 N   0  0  0  0  0  0  0  0  0  0  0  0
    8.4429   10.1092   -2.7883 N   0  0  0  0  0  0  0  0  0  0  0  0
   10.1970    8.4465   -2.2758 N   0  0  0  0  0  0  0  0  0  0  0  0
    5.5346   12.2511   -3.8284 C   0  0  2  0  0  0  0  0  0  0  0  0
   10.9213    9.2225   -1.3248 C   0  0  2  0  0  0  0  0  0  0  0  0
    5.4490   13.7027   -3.8403 C   0  0  0  0  0  0  0  0  0  0  0  0
   12.1202    8.5231   -0.8928 C   0  0  0  0  0  0  0  0  0  0  0  0
    4.3574   14.3901   -3.4786 C   0  0  0  0  0  0  0  0  0  0  0  0
   12.1050    7.3245   -0.2944 C   0  0  0  0  0  0  0  0  0  0  0  0
    3.2664    5.3999   -2.6263 H   0  0  0  0  0  0  0  0  0  0  0  0
    3.9287    7.4404   -3.7842 H   0  0  0  0  0  0  0  0  0  0  0  0
    3.0904    7.0424   -5.2893 H   0  0  0  0  0  0  0  0  0  0  0  0
    5.7319    5.4131   -2.9315 H   0  0  0  0  0  0  0  0  0  0  0  0
    5.8353    4.0606   -4.0661 H   0  0  0  0  0  0  0  0  0  0  0  0
    0.9644    5.4717   -2.1183 H   0  0  0  0  0  0  0  0  0  0  0  0
    2.0988    4.5549   -6.0870 H   0  0  0  0  0  0  0  0  0  0  0  0
    3.4740    2.6727   -5.2320 H   0  0  0  0  0  0  0  0  0  0  0  0
    3.2871    3.6175   -1.1165 H   0  0  0  0  0  0  0  0  0  0  0  0
    4.9534    8.6024   -5.6811 H   0  0  0  0  0  0  0  0  0  0  0  0
    5.1854    7.0965   -6.5536 H   0  0  0  0  0  0  0  0  0  0  0  0
    6.8148    5.4434   -5.7911 H   0  0  0  0  0  0  0  0  0  0  0  0
    7.6972    5.6672   -4.2906 H   0  0  0  0  0  0  0  0  0  0  0  0
   -1.3101    5.7349   -2.8354 H   0  0  0  0  0  0  0  0  0  0  0  0
   -0.1849    4.8236   -6.7885 H   0  0  0  0  0  0  0  0  0  0  0  0
    3.7640    0.3530   -4.6753 H   0  0  0  0  0  0  0  0  0  0  0  0
    3.6004    1.3002   -0.5775 H   0  0  0  0  0  0  0  0  0  0  0  0
    7.2953   12.4284   -2.7378 H   0  0  0  0  0  0  0  0  0  0  0  0
   10.5286    7.5597   -2.4896 H   0  0  0  0  0  0  0  0  0  0  0  0
    4.7074   11.8039   -3.2667 H   0  0  0  0  0  0  0  0  0  0  0  0
    5.4636   11.9113   -4.8659 H   0  0  0  0  0  0  0  0  0  0  0  0
   10.2834    9.4219   -0.4575 H   0  0  0  0  0  0  0  0  0  0  0  0
   11.1988   10.1827   -1.7728 H   0  0  0  0  0  0  0  0  0  0  0  0
    6.2418   14.2173   -4.1527 H   0  0  0  0  0  0  0  0  0  0  0  0
   13.0015    8.9560   -1.0475 H   0  0  0  0  0  0  0  0  0  0  0  0
    3.5369   13.9299   -3.1589 H   0  0  0  0  0  0  0  0  0  0  0  0
    4.3530   15.3826   -3.5315 H   0  0  0  0  0  0  0  0  0  0  0  0
   11.2517    6.8488   -0.1137 H   0  0  0  0  0  0  0  0  0  0  0  0
   12.9571    6.8926   -0.0188 H   0  0  0  0  0  0  0  0  0  0  0  0
  1  2  1  0  0  0  0 
  1  3  1  0  0  0  0 
  1  4  1  0  0  0  0 
  2  5  1  0  0  0  0 
  2  6  1  0  0  0  0 
  3  7  2  0  0  0  0 
  3  8  1  0  0  0  0 
  4  9  2  0  0  0  0 
  4 10  1  0  0  0  0 
  5 11  1  0  0  0  0 
  6 12  1  0  0  0  0 
  7 13  1  0  0  0  0 
  8 14  2  0  0  0  0 
  9 15  1  0  0  0  0 
 10 16  2  0  0  0  0 
 11 17  1  0  0  0  0 
 12 17  1  0  0  0  0 
 13 18  2  0  0  0  0 
 14 18  1  0  0  0  0 
 15 19  2  0  0  0  0 
 16 19  1  0  0  0  0 
 17 20  1  0  0  0  0 
 18 21  1  0  0  0  0 
 19 22  1  0  0  0  0 
 20 23  2  0  0  0  0 
 20 24  1  0  0  0  0 
 23 25  1  0  0  0  0 
 24 26  2  0  0  0  0 
 25 27  1  0  0  0  0 
 25 28  2  0  0  0  0 
 26 28  1  0  0  0  0 
 26 29  1  0  0  0  0 
 27 30  1  0  0  0  0 
 29 31  1  0  0  0  0 
 30 32  1  0  0  0  0 
 31 33  1  0  0  0  0 
 32 34  2  0  0  0  0 
 33 35  2  0  0  0  0 
  1 36  1  0  0  0  0 
  5 37  1  0  0  0  0 
  5 38  1  0  0  0  0 
  6 39  1  0  0  0  0 
  6 40  1  0  0  0  0 
  7 41  1  0  0  0  0 
  8 42  1  0  0  0  0 
  9 43  1  0  0  0  0 
 10 44  1  0  0  0  0 
 11 45  1  0  0  0  0 
 11 46  1  0  0  0  0 
 12 47  1  0  0  0  0 
 12 48  1  0  0  0  0 
 13 49  1  0  0  0  0 
 14 50  1  0  0  0  0 
 15 51  1  0  0  0  0 
 16 52  1  0  0  0  0 
 27 53  1  0  0  0  0 
 29 54  1  0  0  0  0 
 30 55  1  0  0  0  0 
 30 56  1  0  0  0  0 
 31 57  1  0  0  0  0 
 31 58  1  0  0  0  0 
 32 59  1  0  0  0  0 
 33 60  1  0  0  0  0 
 34 61  1  0  0  0  0 
 34 62  1  0  0  0  0 
 35 63  1  0  0  0  0 
 35 64  1  0  0  0  0 
M  END
> <cdk:Title>
almitrine

> <Conformer>
1

> <SuperDrugID>
SD000097

$$$$
