etimicin
  CDK     0628171802

 76 78  0  0  0  0  0  0  0  0999 V2000
    7.1693    4.6939   -1.5906 C   0  0  2  0  0  0  0  0  0  0  0  0
    7.4562    5.4544   -0.2664 C   0  0  1  0  0  0  0  0  0  0  0  0
    6.2083    6.2426    0.2089 C   0  0  2  0  0  0  0  0  0  0  0  0
    4.9634    5.3111    0.2582 C   0  0  2  0  0  0  0  0  0  0  0  0
    4.7746    4.6936   -1.0333 O   0  0  0  0  0  0  0  0  0  0  0  0
    5.8661    3.8533   -1.4705 C   0  0  1  0  0  0  0  0  0  0  0  0
    5.5727    3.2737   -2.7631 O   0  0  0  0  0  0  0  0  0  0  0  0
    4.4542    2.3607   -2.9321 C   0  0  1  0  0  0  0  0  0  0  0  0
    4.4312    1.1644   -1.9314 C   0  0  1  0  0  0  0  0  0  0  0  0
    3.0687    3.0690   -2.9993 C   0  0  2  0  0  0  0  0  0  0  0  0
    1.9252    2.0600   -3.2847 C   0  0  1  0  0  0  0  0  0  0  0  0
    1.8990    0.8896   -2.2524 C   0  0  2  0  0  0  0  0  0  0  0  0
    3.2952    0.1333   -2.2181 C   0  0  2  0  0  0  0  0  0  0  0  0
    3.5093   -0.8905   -1.1505 O   0  0  0  0  0  0  0  0  0  0  0  0
    2.6549   -2.0863   -1.1793 C   0  0  1  0  0  0  0  0  0  0  0  0
    2.6154   -2.6504   -2.5131 O   0  0  0  0  0  0  0  0  0  0  0  0
    1.7959   -3.8324   -2.6309 C   0  0  2  0  0  0  0  0  0  0  0  0
    2.3130   -4.9934   -1.7227 C   0  0  1  0  0  0  0  0  0  0  0  0
    2.5238   -4.4807   -0.2476 C   0  0  1  0  0  0  0  0  0  0  0  0
    3.2958   -3.1197   -0.2123 C   0  0  1  0  0  0  0  0  0  0  0  0
    1.1996   -4.3879    0.4369 N   0  0  1  0  0  0  0  0  0  0  0  0
    1.1963   -4.2870    1.9138 C   0  0  0  0  0  0  0  0  0  0  0  0
    1.3389   -6.0435   -1.7382 O   0  0  0  0  0  0  0  0  0  0  0  0
    3.5943   -5.6396   -2.3340 C   0  0  0  0  0  0  0  0  0  0  0  0
    4.6727   -3.3189   -0.5323 O   0  0  0  0  0  0  0  0  0  0  0  0
    0.8136   -0.0725   -2.5820 N   0  0  1  0  0  0  0  0  0  0  0  0
   -0.5779    0.2772   -2.2005 C   0  0  2  0  0  0  0  0  0  0  0  0
   -0.8763    0.0514   -0.7014 C   0  0  0  0  0  0  0  0  0  0  0  0
    5.6955    0.4992   -1.9730 O   0  0  0  0  0  0  0  0  0  0  0  0
    3.0780    4.1126   -4.0358 N   0  0  1  0  0  0  0  0  0  0  0  0
    8.3159    3.8416   -1.9426 N   0  0  2  0  0  0  0  0  0  0  0  0
    3.6682    6.0726    0.6421 C   0  0  1  0  0  0  0  0  0  0  0  0
    2.5455    5.1479    0.8315 N   0  0  1  0  0  0  0  0  0  0  0  0
    1.6029   -1.9142   -0.8287 H   0  0  0  0  0  0  0  0  0  0  0  0
    7.0428    5.4243   -2.3943 H   0  0  0  0  0  0  0  0  0  0  0  0
    7.7450    4.7410    0.5125 H   0  0  0  0  0  0  0  0  0  0  0  0
    8.2896    6.1482   -0.4131 H   0  0  0  0  0  0  0  0  0  0  0  0
    6.0230    7.0681   -0.4835 H   0  0  0  0  0  0  0  0  0  0  0  0
    6.4007    6.6646    1.1991 H   0  0  0  0  0  0  0  0  0  0  0  0
    5.1270    4.5368    1.0163 H   0  0  0  0  0  0  0  0  0  0  0  0
    6.0467    3.0611   -0.7390 H   0  0  0  0  0  0  0  0  0  0  0  0
    4.6296    1.9314   -3.9220 H   0  0  0  0  0  0  0  0  0  0  0  0
    4.2866    1.5496   -0.9175 H   0  0  0  0  0  0  0  0  0  0  0  0
    2.8474    3.5514   -2.0479 H   0  0  0  0  0  0  0  0  0  0  0  0
    0.9743    2.5969   -3.2510 H   0  0  0  0  0  0  0  0  0  0  0  0
    2.0386    1.6509   -4.2933 H   0  0  0  0  0  0  0  0  0  0  0  0
    1.7327    1.2986   -1.2533 H   0  0  0  0  0  0  0  0  0  0  0  0
    3.4753   -0.2488   -3.2571 H   0  0  0  0  0  0  0  0  0  0  0  0
    1.7982   -4.1424   -3.6785 H   0  0  0  0  0  0  0  0  0  0  0  0
    0.7604   -3.5857   -2.3820 H   0  0  0  0  0  0  0  0  0  0  0  0
    3.1128   -5.2273    0.2961 H   0  0  0  0  0  0  0  0  0  0  0  0
    3.2908   -2.7066    0.7969 H   0  0  0  0  0  0  0  0  0  0  0  0
    0.7009   -3.5756    0.0692 H   0  0  0  0  0  0  0  0  0  0  0  0
    0.1663   -4.3508    2.2660 H   0  0  0  0  0  0  0  0  0  0  0  0
    1.6012   -3.3294    2.2390 H   0  0  0  0  0  0  0  0  0  0  0  0
    1.7690   -5.0994    2.3674 H   0  0  0  0  0  0  0  0  0  0  0  0
    0.5043   -5.6321   -1.4329 H   0  0  0  0  0  0  0  0  0  0  0  0
    3.3640   -6.1021   -3.2974 H   0  0  0  0  0  0  0  0  0  0  0  0
    4.3805   -4.9016   -2.4992 H   0  0  0  0  0  0  0  0  0  0  0  0
    3.9805   -6.4194   -1.6735 H   0  0  0  0  0  0  0  0  0  0  0  0
    5.0961   -2.4431   -0.4098 H   0  0  0  0  0  0  0  0  0  0  0  0
    0.8311   -0.2093   -3.5955 H   0  0  0  0  0  0  0  0  0  0  0  0
   -1.2347   -0.3857   -2.7701 H   0  0  0  0  0  0  0  0  0  0  0  0
   -0.8270    1.3049   -2.4766 H   0  0  0  0  0  0  0  0  0  0  0  0
   -1.9217    0.2888   -0.4982 H   0  0  0  0  0  0  0  0  0  0  0  0
   -0.2530    0.6895   -0.0762 H   0  0  0  0  0  0  0  0  0  0  0  0
   -0.6976   -0.9922   -0.4392 H   0  0  0  0  0  0  0  0  0  0  0  0
    6.3595    1.1859   -1.7563 H   0  0  0  0  0  0  0  0  0  0  0  0
    2.1828    4.6028   -3.9847 H   0  0  0  0  0  0  0  0  0  0  0  0
    3.8010    4.7866   -3.7781 H   0  0  0  0  0  0  0  0  0  0  0  0
    8.0709    3.3487   -2.8041 H   0  0  0  0  0  0  0  0  0  0  0  0
    8.4061    3.1342   -1.2101 H   0  0  0  0  0  0  0  0  0  0  0  0
    3.8152    6.6140    1.5803 H   0  0  0  0  0  0  0  0  0  0  0  0
    3.3991    6.7887   -0.1370 H   0  0  0  0  0  0  0  0  0  0  0  0
    1.7402    5.7155    1.1047 H   0  0  0  0  0  0  0  0  0  0  0  0
    2.3265    4.7514   -0.0838 H   0  0  0  0  0  0  0  0  0  0  0  0
  1  2  1  0  0  0  0 
  1  6  1  0  0  0  0 
  2  3  1  0  0  0  0 
  3  4  1  0  0  0  0 
  4  5  1  0  0  0  0 
  5  6  1  0  0  0  0 
  6  7  1  0  0  0  0 
  8  7  1  0  0  0  0 
 10 11  1  0  0  0  0 
 11 12  1  0  0  0  0 
 12 13  1  0  0  0  0 
  9 13  1  0  0  0  0 
  9  8  1  0  0  0  0 
  8 10  1  0  0  0  0 
 13 14  1  0  0  0  0 
 14 15  1  0  0  0  0 
 16 17  1  0  0  0  0 
 17 18  1  0  0  0  0 
 18 19  1  0  0  0  0 
 19 20  1  0  0  0  0 
 15 16  1  0  0  0  0 
 15 20  1  0  0  0  0 
 19 21  1  0  0  0  0 
 21 22  1  0  0  0  0 
 18 23  1  0  0  0  0 
 18 24  1  0  0  0  0 
 20 25  1  0  0  0  0 
 12 26  1  0  0  0  0 
 26 27  1  0  0  0  0 
 27 28  1  0  0  0  0 
  9 29  1  0  0  0  0 
 10 30  1  0  0  0  0 
  1 31  1  0  0  0  0 
  4 32  1  0  0  0  0 
 32 33  1  0  0  0  0 
 15 34  1  0  0  0  0 
  1 35  1  0  0  0  0 
  2 36  1  0  0  0  0 
  2 37  1  0  0  0  0 
  3 38  1  0  0  0  0 
  3 39  1  0  0  0  0 
  4 40  1  0  0  0  0 
  6 41  1  0  0  0  0 
  8 42  1  0  0  0  0 
  9 43  1  0  0  0  0 
 10 44  1  0  0  0  0 
 11 45  1  0  0  0  0 
 11 46  1  0  0  0  0 
 12 47  1  0  0  0  0 
 13 48  1  0  0  0  0 
 17 49  1  0  0  0  0 
 17 50  1  0  0  0  0 
 19 51  1  0  0  0  0 
 20 52  1  0  0  0  0 
 21 53  1  0  0  0  0 
 22 54  1  0  0  0  0 
 22 55  1  0  0  0  0 
 22 56  1  0  0  0  0 
 23 57  1  0  0  0  0 
 24 58  1  0  0  0  0 
 24 59  1  0  0  0  0 
 24 60  1  0  0  0  0 
 25 61  1  0  0  0  0 
 26 62  1  0  0  0  0 
 27 63  1  0  0  0  0 
 27 64  1  0  0  0  0 
 28 65  1  0  0  0  0 
 28 66  1  0  0  0  0 
 28 67  1  0  0  0  0 
 29 68  1  0  0  0  0 
 30 69  1  0  0  0  0 
 30 70  1  0  0  0  0 
 31 71  1  0  0  0  0 
 31 72  1  0  0  0  0 
 32 73  1  0  0  0  0 
 32 74  1  0  0  0  0 
 33 75  1  0  0  0  0 
 33 76  1  0  0  0  0 
M  END
> <cdk:Title>
etimicin

> <Conformer>
1

> <SuperDrugID>
SD003927

$$$$
