difebarbamate
  CDK     0628171802

 83 84  0  0  0  0  0  0  0  0999 V2000
    1.8590    4.9919    2.8181 C   0  0  1  0  0  0  0  0  0  0  0  0
    2.3306    3.5391    3.0764 C   0  0  0  0  0  0  0  0  0  0  0  0
    1.0081    5.2136    1.4603 C   0  0  1  0  0  0  0  0  0  0  0  0
    1.6687    4.8100    0.1329 C   0  0  0  0  0  0  0  0  0  0  0  0
   -0.2735    4.4282    1.5354 C   0  0  0  0  0  0  0  0  0  0  0  0
    0.6983    6.7107    1.3764 C   0  0  0  0  0  0  0  0  0  0  0  0
    2.9206    4.9120    0.0965 O   0  0  0  0  0  0  0  0  0  0  0  0
    0.9691    4.3673   -0.9853 N   0  0  0  0  0  0  0  0  0  0  0  0
   -0.7383    4.1344    2.6664 O   0  0  0  0  0  0  0  0  0  0  0  0
   -1.0244    4.1790    0.3997 N   0  0  0  0  0  0  0  0  0  0  0  0
   -0.6122    7.2713    1.4788 C   0  0  0  0  0  0  0  0  0  0  0  0
    1.7585    7.6472    1.2148 C   0  0  0  0  0  0  0  0  0  0  0  0
    1.7345    4.0833   -2.2111 C   0  0  2  0  0  0  0  0  0  0  0  0
   -0.4010    4.2071   -0.8417 C   0  0  0  0  0  0  0  0  0  0  0  0
   -2.4564    3.9226    0.5073 C   0  0  1  0  0  0  0  0  0  0  0  0
   -0.8433    8.6587    1.4470 C   0  0  0  0  0  0  0  0  0  0  0  0
    1.5357    9.0381    1.1847 C   0  0  0  0  0  0  0  0  0  0  0  0
    1.1118    3.3961   -3.4757 C   0  0  1  0  0  0  0  0  0  0  0  0
   -1.1230    4.0611   -1.8549 O   0  0  0  0  0  0  0  0  0  0  0  0
   -2.9307    2.4950    0.0993 C   0  0  1  0  0  0  0  0  0  0  0  0
    0.2338    9.5446    1.3100 C   0  0  0  0  0  0  0  0  0  0  0  0
    0.5464    4.3830   -4.5369 C   0  0  1  0  0  0  0  0  0  0  0  0
    2.1404    2.6481   -4.1564 O   0  0  0  0  0  0  0  0  0  0  0  0
   -2.2121    1.3585    0.8652 C   0  0  2  0  0  0  0  0  0  0  0  0
   -4.3424    2.3400    0.3507 O   0  0  0  0  0  0  0  0  0  0  0  0
   -0.1346    5.5033   -3.9447 O   0  0  0  0  0  0  0  0  0  0  0  0
    2.1815    1.3153   -4.4465 C   0  0  0  0  0  0  0  0  0  0  0  0
   -0.8121    1.2987    0.5178 O   0  0  0  0  0  0  0  0  0  0  0  0
   -5.3847    2.9760   -0.2596 C   0  0  0  0  0  0  0  0  0  0  0  0
   -0.9403    6.2834   -4.8490 C   0  0  1  0  0  0  0  0  0  0  0  0
    3.2301    0.8469   -5.1356 N   0  0  0  0  0  0  0  0  0  0  0  0
    1.2787    0.5148   -4.1109 O   0  0  0  0  0  0  0  0  0  0  0  0
   -0.1535    0.0898    0.9459 C   0  0  2  0  0  0  0  0  0  0  0  0
   -6.6357    2.6711    0.1098 N   0  0  0  0  0  0  0  0  0  0  0  0
   -5.2223    3.8305   -1.1598 O   0  0  0  0  0  0  0  0  0  0  0  0
   -1.4678    7.5483   -4.1328 C   0  0  1  0  0  0  0  0  0  0  0  0
    1.3838    0.2184    0.8333 C   0  0  1  0  0  0  0  0  0  0  0  0
   -2.1814    7.2373   -2.7896 C   0  0  1  0  0  0  0  0  0  0  0  0
    1.9365    0.3021   -0.6134 C   0  0  2  0  0  0  0  0  0  0  0  0
   -2.7815    8.4948   -2.1278 C   0  0  0  0  0  0  0  0  0  0  0  0
    3.4773    0.4644   -0.6380 C   0  0  0  0  0  0  0  0  0  0  0  0
    1.2890    5.3353    3.6876 H   0  0  0  0  0  0  0  0  0  0  0  0
    2.7671    5.5965    2.7824 H   0  0  0  0  0  0  0  0  0  0  0  0
    2.9393    3.5081    3.9824 H   0  0  0  0  0  0  0  0  0  0  0  0
    1.4842    2.8658    3.2122 H   0  0  0  0  0  0  0  0  0  0  0  0
    2.9390    3.1809    2.2454 H   0  0  0  0  0  0  0  0  0  0  0  0
   -1.4377    6.6838    1.5910 H   0  0  0  0  0  0  0  0  0  0  0  0
    2.7246    7.3263    1.1259 H   0  0  0  0  0  0  0  0  0  0  0  0
    2.5396    3.4094   -1.9045 H   0  0  0  0  0  0  0  0  0  0  0  0
    2.2141    5.0128   -2.5349 H   0  0  0  0  0  0  0  0  0  0  0  0
   -2.8349    4.1148    1.5142 H   0  0  0  0  0  0  0  0  0  0  0  0
   -2.9594    4.6589   -0.1229 H   0  0  0  0  0  0  0  0  0  0  0  0
   -1.7955    9.0255    1.5298 H   0  0  0  0  0  0  0  0  0  0  0  0
    2.3223    9.6842    1.0769 H   0  0  0  0  0  0  0  0  0  0  0  0
    0.3291    2.6981   -3.1724 H   0  0  0  0  0  0  0  0  0  0  0  0
   -2.7556    2.3318   -0.9669 H   0  0  0  0  0  0  0  0  0  0  0  0
    0.0680   10.5538    1.3008 H   0  0  0  0  0  0  0  0  0  0  0  0
    1.3686    4.7742   -5.1438 H   0  0  0  0  0  0  0  0  0  0  0  0
   -0.1236    3.8202   -5.1928 H   0  0  0  0  0  0  0  0  0  0  0  0
   -2.7086    0.4190    0.6002 H   0  0  0  0  0  0  0  0  0  0  0  0
   -2.3188    1.5158    1.9431 H   0  0  0  0  0  0  0  0  0  0  0  0
   -0.3579    6.5934   -5.7217 H   0  0  0  0  0  0  0  0  0  0  0  0
   -1.7907    5.6884   -5.1921 H   0  0  0  0  0  0  0  0  0  0  0  0
    3.9404    1.4503   -5.4049 H   0  0  0  0  0  0  0  0  0  0  0  0
    3.2763   -0.0930   -5.3671 H   0  0  0  0  0  0  0  0  0  0  0  0
   -0.4938   -0.7478    0.3316 H   0  0  0  0  0  0  0  0  0  0  0  0
   -0.3944   -0.1297    1.9923 H   0  0  0  0  0  0  0  0  0  0  0  0
   -7.3846    3.1290   -0.3036 H   0  0  0  0  0  0  0  0  0  0  0  0
   -6.7912    1.9998    0.7916 H   0  0  0  0  0  0  0  0  0  0  0  0
   -0.6253    8.2203   -3.9467 H   0  0  0  0  0  0  0  0  0  0  0  0
   -2.1634    8.0584   -4.8054 H   0  0  0  0  0  0  0  0  0  0  0  0
    1.6901    1.1092    1.3819 H   0  0  0  0  0  0  0  0  0  0  0  0
    1.8321   -0.6527    1.3216 H   0  0  0  0  0  0  0  0  0  0  0  0
   -2.9792    6.5094   -2.9601 H   0  0  0  0  0  0  0  0  0  0  0  0
   -1.4635    6.8020   -2.0905 H   0  0  0  0  0  0  0  0  0  0  0  0
    1.4822    1.1462   -1.1361 H   0  0  0  0  0  0  0  0  0  0  0  0
    1.6758   -0.6125   -1.1522 H   0  0  0  0  0  0  0  0  0  0  0  0
   -3.2274    8.2274   -1.1675 H   0  0  0  0  0  0  0  0  0  0  0  0
   -2.0002    9.2384   -1.9557 H   0  0  0  0  0  0  0  0  0  0  0  0
   -3.5551    8.9280   -2.7653 H   0  0  0  0  0  0  0  0  0  0  0  0
    3.8380    0.4421   -1.6686 H   0  0  0  0  0  0  0  0  0  0  0  0
    3.7703    1.4162   -0.1870 H   0  0  0  0  0  0  0  0  0  0  0  0
    3.9570   -0.3497   -0.0870 H   0  0  0  0  0  0  0  0  0  0  0  0
  1  2  1  0  0  0  0 
  1  3  1  0  0  0  0 
  3  4  1  0  0  0  0 
  3  5  1  0  0  0  0 
  3  6  1  0  0  0  0 
  4  7  2  0  0  0  0 
  4  8  1  0  0  0  0 
  5  9  2  0  0  0  0 
  5 10  1  0  0  0  0 
  6 11  2  0  0  0  0 
  6 12  1  0  0  0  0 
  8 13  1  0  0  0  0 
  8 14  1  0  0  0  0 
 10 14  1  0  0  0  0 
 10 15  1  0  0  0  0 
 11 16  1  0  0  0  0 
 12 17  2  0  0  0  0 
 13 18  1  0  0  0  0 
 14 19  2  0  0  0  0 
 15 20  1  0  0  0  0 
 16 21  2  0  0  0  0 
 17 21  1  0  0  0  0 
 18 22  1  0  0  0  0 
 18 23  1  0  0  0  0 
 20 24  1  0  0  0  0 
 20 25  1  0  0  0  0 
 22 26  1  0  0  0  0 
 23 27  1  0  0  0  0 
 24 28  1  0  0  0  0 
 25 29  1  0  0  0  0 
 26 30  1  0  0  0  0 
 27 31  1  0  0  0  0 
 27 32  2  0  0  0  0 
 28 33  1  0  0  0  0 
 29 34  1  0  0  0  0 
 29 35  2  0  0  0  0 
 30 36  1  0  0  0  0 
 33 37  1  0  0  0  0 
 36 38  1  0  0  0  0 
 37 39  1  0  0  0  0 
 38 40  1  0  0  0  0 
 39 41  1  0  0  0  0 
 42  1  1  0  0  0  0 
 43  1  1  0  0  0  0 
 44  2  1  0  0  0  0 
 45  2  1  0  0  0  0 
 46  2  1  0  0  0  0 
 47 11  1  0  0  0  0 
 48 12  1  0  0  0  0 
 49 13  1  0  0  0  0 
 50 13  1  0  0  0  0 
 51 15  1  0  0  0  0 
 52 15  1  0  0  0  0 
 53 16  1  0  0  0  0 
 54 17  1  0  0  0  0 
 55 18  1  0  0  0  0 
 56 20  1  0  0  0  0 
 57 21  1  0  0  0  0 
 58 22  1  0  0  0  0 
 59 22  1  0  0  0  0 
 60 24  1  0  0  0  0 
 61 24  1  0  0  0  0 
 62 30  1  0  0  0  0 
 63 30  1  0  0  0  0 
 64 31  1  0  0  0  0 
 65 31  1  0  0  0  0 
 66 33  1  0  0  0  0 
 67 33  1  0  0  0  0 
 68 34  1  0  0  0  0 
 69 34  1  0  0  0  0 
 70 36  1  0  0  0  0 
 71 36  1  0  0  0  0 
 72 37  1  0  0  0  0 
 73 37  1  0  0  0  0 
 74 38  1  0  0  0  0 
 75 38  1  0  0  0  0 
 76 39  1  0  0  0  0 
 77 39  1  0  0  0  0 
 78 40  1  0  0  0  0 
 79 40  1  0  0  0  0 
 80 40  1  0  0  0  0 
 81 41  1  0  0  0  0 
 82 41  1  0  0  0  0 
 83 41  1  0  0  0  0 
M  END
> <cdk:Title>
difebarbamate

> <Conformer>
1

> <SuperDrugID>
SD000779

$$$$
