sotalol
  CDK     0628171801

 38 38  0  0  0  0  0  0  0  0999 V2000
   -1.9831   -3.1209   -0.6485 C   0  0  1  0  0  0  0  0  0  0  0  0
   -2.8951   -4.3671   -0.5071 C   0  0  2  0  0  0  0  0  0  0  0  0
   -1.8403   -2.7736   -2.0251 O   0  0  0  0  0  0  0  0  0  0  0  0
   -2.5007   -1.9607    0.1357 C   0  0  0  0  0  0  0  0  0  0  0  0
   -2.9930   -4.7529    0.9209 N   0  0  1  0  0  0  0  0  0  0  0  0
   -3.6266   -1.2242   -0.3003 C   0  0  0  0  0  0  0  0  0  0  0  0
   -1.9012   -1.5975    1.3639 C   0  0  0  0  0  0  0  0  0  0  0  0
   -3.7097   -6.0111    1.2421 C   0  0  1  0  0  0  0  0  0  0  0  0
   -4.1311   -0.1542    0.4617 C   0  0  0  0  0  0  0  0  0  0  0  0
   -2.4127   -0.5368    2.1324 C   0  0  0  0  0  0  0  0  0  0  0  0
   -3.4652   -6.3023    2.7443 C   0  0  0  0  0  0  0  0  0  0  0  0
   -5.2271   -5.9305    0.9253 C   0  0  0  0  0  0  0  0  0  0  0  0
   -3.5292    0.2098    1.6869 C   0  0  0  0  0  0  0  0  0  0  0  0
   -4.0710    1.2588    2.3688 N   0  0  0  0  0  0  0  0  0  0  0  0
   -3.3985    2.0789    3.7204 S   0  0  2  0  0  0  0  0  0  0  0  0
   -3.8064    1.1995    5.2704 C   0  0  0  0  0  0  0  0  0  0  0  0
   -4.0399    3.5477    3.7817 O   0  0  0  0  0  0  0  0  0  0  0  0
   -1.8096    2.2240    3.5621 O   0  0  0  0  0  0  0  0  0  0  0  0
   -0.9834   -3.3988   -0.2992 H   0  0  0  0  0  0  0  0  0  0  0  0
   -2.4759   -5.1931   -1.0912 H   0  0  0  0  0  0  0  0  0  0  0  0
   -3.8882   -4.1372   -0.8994 H   0  0  0  0  0  0  0  0  0  0  0  0
   -1.4683   -3.5742   -2.4526 H   0  0  0  0  0  0  0  0  0  0  0  0
   -2.0322   -4.8763    1.2489 H   0  0  0  0  0  0  0  0  0  0  0  0
   -4.0926   -1.4642   -1.1787 H   0  0  0  0  0  0  0  0  0  0  0  0
   -1.0914   -2.1138    1.7214 H   0  0  0  0  0  0  0  0  0  0  0  0
   -3.2717   -6.8347    0.6687 H   0  0  0  0  0  0  0  0  0  0  0  0
   -4.9461    0.3588    0.1149 H   0  0  0  0  0  0  0  0  0  0  0  0
   -1.9634   -0.3253    3.0240 H   0  0  0  0  0  0  0  0  0  0  0  0
   -3.9338   -7.2439    3.0346 H   0  0  0  0  0  0  0  0  0  0  0  0
   -3.8742   -5.5013    3.3639 H   0  0  0  0  0  0  0  0  0  0  0  0
   -2.3945   -6.3804    2.9441 H   0  0  0  0  0  0  0  0  0  0  0  0
   -5.7434   -6.8212    1.2876 H   0  0  0  0  0  0  0  0  0  0  0  0
   -5.3900   -5.8701   -0.1515 H   0  0  0  0  0  0  0  0  0  0  0  0
   -5.6705   -5.0507    1.3959 H   0  0  0  0  0  0  0  0  0  0  0  0
   -4.9222    1.5963    2.0505 H   0  0  0  0  0  0  0  0  0  0  0  0
   -3.4121    0.1840    5.2390 H   0  0  0  0  0  0  0  0  0  0  0  0
   -3.3671    1.7317    6.1152 H   0  0  0  0  0  0  0  0  0  0  0  0
   -4.8896    1.1644    5.3907 H   0  0  0  0  0  0  0  0  0  0  0  0
  1  2  1  0  0  0  0 
  1  3  1  0  0  0  0 
  1  4  1  0  0  0  0 
  2  5  1  0  0  0  0 
  4  6  2  0  0  0  0 
  4  7  1  0  0  0  0 
  5  8  1  0  0  0  0 
  6  9  1  0  0  0  0 
  7 10  2  0  0  0  0 
  8 11  1  0  0  0  0 
  8 12  1  0  0  0  0 
  9 13  2  0  0  0  0 
 10 13  1  0  0  0  0 
 13 14  1  0  0  0  0 
 14 15  1  0  0  0  0 
 15 16  1  0  0  0  0 
 15 17  2  0  0  0  0 
 15 18  2  0  0  0  0 
  1 19  1  0  0  0  0 
  2 20  1  0  0  0  0 
  2 21  1  0  0  0  0 
  3 22  1  0  0  0  0 
  5 23  1  0  0  0  0 
  6 24  1  0  0  0  0 
  7 25  1  0  0  0  0 
  8 26  1  0  0  0  0 
  9 27  1  0  0  0  0 
 10 28  1  0  0  0  0 
 11 29  1  0  0  0  0 
 11 30  1  0  0  0  0 
 11 31  1  0  0  0  0 
 12 32  1  0  0  0  0 
 12 33  1  0  0  0  0 
 12 34  1  0  0  0  0 
 14 35  1  0  0  0  0 
 16 36  1  0  0  0  0 
 16 37  1  0  0  0  0 
 16 38  1  0  0  0  0 
M  END
> <cdk:Title>
sotalol

> <Conformer>
1

> <SuperDrugID>
SD002212

$$$$
