pipoxolan
  CDK     0628171801

 51 54  0  0  0  0  0  0  0  0999 V2000
   -4.4816   -0.2240    5.7782 O   0  0  0  0  0  0  0  0  0  0  0  0
   -3.7637    0.5130    5.0646 C   0  0  0  0  0  0  0  0  0  0  0  0
   -2.8124    1.5339    5.5483 C   0  0  1  0  0  0  0  0  0  0  0  0
   -3.8347    0.4749    3.7293 O   0  0  0  0  0  0  0  0  0  0  0  0
   -2.2604    2.0131    4.2995 O   0  0  0  0  0  0  0  0  0  0  0  0
   -3.5582    2.5997    6.3106 C   0  0  0  0  0  0  0  0  0  0  0  0
   -1.6229    1.0550    6.3446 C   0  0  0  0  0  0  0  0  0  0  0  0
   -2.9601    1.4433    3.1798 C   0  0  1  0  0  0  0  0  0  0  0  0
   -4.1008    2.3131    7.5925 C   0  0  0  0  0  0  0  0  0  0  0  0
   -3.7252    3.9161    5.8051 C   0  0  0  0  0  0  0  0  0  0  0  0
   -1.4739   -0.2675    6.8429 C   0  0  0  0  0  0  0  0  0  0  0  0
   -0.5818    1.9792    6.6261 C   0  0  0  0  0  0  0  0  0  0  0  0
   -1.9915    0.8091    2.1432 C   0  0  2  0  0  0  0  0  0  0  0  0
   -4.7952    3.2912    8.3292 C   0  0  0  0  0  0  0  0  0  0  0  0
   -4.4232    4.8948    6.5392 C   0  0  0  0  0  0  0  0  0  0  0  0
   -0.3415   -0.6458    7.5892 C   0  0  0  0  0  0  0  0  0  0  0  0
    0.5578    1.6023    7.3587 C   0  0  0  0  0  0  0  0  0  0  0  0
   -0.7457    1.6888    1.8345 C   0  0  2  0  0  0  0  0  0  0  0  0
   -4.9714    4.5781    7.7941 C   0  0  0  0  0  0  0  0  0  0  0  0
    0.6767    0.2898    7.8447 C   0  0  0  0  0  0  0  0  0  0  0  0
   -0.0818    1.4044    0.5163 N   0  0  2  0  0  0  0  0  0  0  0  0
    0.5382    0.0416    0.4200 C   0  0  2  0  0  0  0  0  0  0  0  0
    0.8788    2.4911    0.1301 C   0  0  1  0  0  0  0  0  0  0  0  0
    1.1480   -0.2367   -0.9804 C   0  0  2  0  0  0  0  0  0  0  0  0
    1.4550    2.2783   -1.2905 C   0  0  1  0  0  0  0  0  0  0  0  0
    2.1196    0.8866   -1.4219 C   0  0  1  0  0  0  0  0  0  0  0  0
   -3.5579    2.2197    2.6931 H   0  0  0  0  0  0  0  0  0  0  0  0
   -3.9895    1.3845    8.0051 H   0  0  0  0  0  0  0  0  0  0  0  0
   -3.3414    4.1832    4.8962 H   0  0  0  0  0  0  0  0  0  0  0  0
   -2.1877   -0.9786    6.6775 H   0  0  0  0  0  0  0  0  0  0  0  0
   -0.6479    2.9459    6.2955 H   0  0  0  0  0  0  0  0  0  0  0  0
   -2.5479    0.6260    1.2196 H   0  0  0  0  0  0  0  0  0  0  0  0
   -1.6489   -0.1557    2.5256 H   0  0  0  0  0  0  0  0  0  0  0  0
   -5.1705    3.0658    9.2553 H   0  0  0  0  0  0  0  0  0  0  0  0
   -4.5311    5.8389    6.1607 H   0  0  0  0  0  0  0  0  0  0  0  0
   -0.2569   -1.6015    7.9493 H   0  0  0  0  0  0  0  0  0  0  0  0
    1.2987    2.2841    7.5397 H   0  0  0  0  0  0  0  0  0  0  0  0
   -0.0239    1.5718    2.6489 H   0  0  0  0  0  0  0  0  0  0  0  0
   -1.0785    2.7306    1.8417 H   0  0  0  0  0  0  0  0  0  0  0  0
   -5.4977    5.2841    8.3172 H   0  0  0  0  0  0  0  0  0  0  0  0
    1.5019    0.0158    8.3833 H   0  0  0  0  0  0  0  0  0  0  0  0
   -0.2185   -0.7244    0.5990 H   0  0  0  0  0  0  0  0  0  0  0  0
    1.3175   -0.0750    1.1790 H   0  0  0  0  0  0  0  0  0  0  0  0
    0.3701    3.4594    0.1315 H   0  0  0  0  0  0  0  0  0  0  0  0
    1.6997    2.5511    0.8525 H   0  0  0  0  0  0  0  0  0  0  0  0
    0.3397   -0.3222   -1.7140 H   0  0  0  0  0  0  0  0  0  0  0  0
    1.6849   -1.1903   -0.9591 H   0  0  0  0  0  0  0  0  0  0  0  0
    0.6455    2.3679   -2.0229 H   0  0  0  0  0  0  0  0  0  0  0  0
    2.1940    3.0580   -1.5045 H   0  0  0  0  0  0  0  0  0  0  0  0
    3.0228    0.8531   -0.8032 H   0  0  0  0  0  0  0  0  0  0  0  0
    2.4154    0.7245   -2.4626 H   0  0  0  0  0  0  0  0  0  0  0  0
  1  2  2  0  0  0  0 
  2  3  1  0  0  0  0 
  2  4  1  0  0  0  0 
  3  5  1  0  0  0  0 
  3  6  1  0  0  0  0 
  3  7  1  0  0  0  0 
  4  8  1  0  0  0  0 
  5  8  1  0  0  0  0 
  6  9  2  0  0  0  0 
  6 10  1  0  0  0  0 
  7 11  2  0  0  0  0 
  7 12  1  0  0  0  0 
  8 13  1  0  0  0  0 
  9 14  1  0  0  0  0 
 10 15  2  0  0  0  0 
 11 16  1  0  0  0  0 
 12 17  2  0  0  0  0 
 13 18  1  0  0  0  0 
 14 19  2  0  0  0  0 
 15 19  1  0  0  0  0 
 16 20  2  0  0  0  0 
 17 20  1  0  0  0  0 
 18 21  1  0  0  0  0 
 21 22  1  0  0  0  0 
 21 23  1  0  0  0  0 
 22 24  1  0  0  0  0 
 23 25  1  0  0  0  0 
 24 26  1  0  0  0  0 
 25 26  1  0  0  0  0 
  8 27  1  0  0  0  0 
  9 28  1  0  0  0  0 
 10 29  1  0  0  0  0 
 11 30  1  0  0  0  0 
 12 31  1  0  0  0  0 
 13 32  1  0  0  0  0 
 13 33  1  0  0  0  0 
 14 34  1  0  0  0  0 
 15 35  1  0  0  0  0 
 16 36  1  0  0  0  0 
 17 37  1  0  0  0  0 
 18 38  1  0  0  0  0 
 18 39  1  0  0  0  0 
 19 40  1  0  0  0  0 
 20 41  1  0  0  0  0 
 22 42  1  0  0  0  0 
 22 43  1  0  0  0  0 
 23 44  1  0  0  0  0 
 23 45  1  0  0  0  0 
 24 46  1  0  0  0  0 
 24 47  1  0  0  0  0 
 25 48  1  0  0  0  0 
 25 49  1  0  0  0  0 
 26 50  1  0  0  0  0 
 26 51  1  0  0  0  0 
M  END
> <cdk:Title>
pipoxolan

> <Conformer>
1

> <SuperDrugID>
SD001969

$$$$
