peruvoside
  CDK     0628171801

 83 88  0  0  0  0  0  0  0  0999 V2000
   48.1851   14.7933   16.4583 C   0  0  0  0  0  0  0  0  0  0  0  0
   49.2460   14.4009   16.9990 O   0  0  0  0  0  0  0  0  0  0  0  0
   46.8210   14.2150   16.7407 C   0  0  1  0  0  0  0  0  0  0  0  0
   45.9151   15.3353   17.4299 C   0  0  2  0  0  0  0  0  0  0  0  0
   46.1409   13.7577   15.3815 C   0  0  2  0  0  0  0  0  0  0  0  0
   47.0145   12.9046   17.6122 C   0  0  2  0  0  0  0  0  0  0  0  0
   45.5582   16.5222   16.4499 C   0  0  2  0  0  0  0  0  0  0  0  0
   46.4795   15.9172   18.7659 C   0  0  1  0  0  0  0  0  0  0  0  0
   45.8331   14.9425   14.4166 C   0  0  2  0  0  0  0  0  0  0  0  0
   44.8401   12.9093   15.6164 C   0  0  1  0  0  0  0  0  0  0  0  0
   45.7708   11.9894   17.7660 C   0  0  1  0  0  0  0  0  0  0  0  0
   44.6586   17.6487   17.0840 C   0  0  2  0  0  0  0  0  0  0  0  0
   44.9628   16.0232   15.0935 C   0  0  2  0  0  0  0  0  0  0  0  0
   45.5300   16.9630   19.4115 C   0  0  1  0  0  0  0  0  0  0  0  0
   45.1404   11.6029   16.3994 C   0  0  2  0  0  0  0  0  0  0  0  0
   44.6451   18.7283   16.1390 O   0  0  0  0  0  0  0  0  0  0  0  0
   45.1495   18.1826   18.4766 C   0  0  1  0  0  0  0  0  0  0  0  0
   43.1703   17.2517   17.3285 C   0  0  1  0  0  0  0  0  0  0  0  0
   46.0084   10.6754   15.6839 O   0  0  0  0  0  0  0  0  0  0  0  0
   46.4101   19.1148   18.3875 C   0  0  0  0  0  0  0  0  0  0  0  0
   43.8667   18.9229   19.0306 C   0  0  2  0  0  0  0  0  0  0  0  0
   42.6852   18.0153   18.5828 C   0  0  2  0  0  0  0  0  0  0  0  0
   45.5169   10.1630   14.4184 C   0  0  1  0  0  0  0  0  0  0  0  0
   43.6658   20.3408   18.6534 C   0  0  0  0  0  0  0  0  0  0  0  0
   46.5144    9.1465   13.7989 C   0  0  1  0  0  0  0  0  0  0  0  0
   44.2167    9.5493   14.6034 O   0  0  0  0  0  0  0  0  0  0  0  0
   44.0573   21.4602   19.4870 C   0  0  1  0  0  0  0  0  0  0  0  0
   43.0937   20.8260   17.5440 C   0  0  0  0  0  0  0  0  0  0  0  0
   46.7924    8.0978   14.7254 O   0  0  0  0  0  0  0  0  0  0  0  0
   45.9458    8.5720   12.4632 C   0  0  2  0  0  0  0  0  0  0  0  0
   43.5756    9.0288   13.4178 C   0  0  2  0  0  0  0  0  0  0  0  0
   43.6421   22.5953   18.7275 O   0  0  0  0  0  0  0  0  0  0  0  0
   43.0918   22.1792   17.5737 C   0  0  0  0  0  0  0  0  0  0  0  0
   46.0251    9.6335   11.4800 O   0  0  0  0  0  0  0  0  0  0  0  0
   44.5033    8.0138   12.6827 C   0  0  2  0  0  0  0  0  0  0  0  0
   42.9792   10.1533   12.5311 C   0  0  0  0  0  0  0  0  0  0  0  0
   42.6460   22.9292   16.6766 O   0  0  0  0  0  0  0  0  0  0  0  0
   45.7606    9.2944   10.1072 C   0  0  0  0  0  0  0  0  0  0  0  0
   44.5938    6.8185   13.4634 O   0  0  0  0  0  0  0  0  0  0  0  0
   46.5008   17.0149   16.1986 H   0  0  0  0  0  0  0  0  0  0  0  0
   44.9772   14.8583   17.7125 H   0  0  0  0  0  0  0  0  0  0  0  0
   46.8458   13.1131   14.8448 H   0  0  0  0  0  0  0  0  0  0  0  0
   45.4540   10.9968   13.7155 H   0  0  0  0  0  0  0  0  0  0  0  0
   48.2937   15.5679   15.8050 H   0  0  0  0  0  0  0  0  0  0  0  0
   47.3834   13.1558   18.6088 H   0  0  0  0  0  0  0  0  0  0  0  0
   47.7849   12.2782   17.1495 H   0  0  0  0  0  0  0  0  0  0  0  0
   46.6138   15.1136   19.4902 H   0  0  0  0  0  0  0  0  0  0  0  0
   47.4591   16.3666   18.5983 H   0  0  0  0  0  0  0  0  0  0  0  0
   45.3178   14.5737   13.5239 H   0  0  0  0  0  0  0  0  0  0  0  0
   46.7619   15.3976   14.0652 H   0  0  0  0  0  0  0  0  0  0  0  0
   44.0940   13.4757   16.1774 H   0  0  0  0  0  0  0  0  0  0  0  0
   44.3567   12.6719   14.6677 H   0  0  0  0  0  0  0  0  0  0  0  0
   46.0617   11.0755   18.2948 H   0  0  0  0  0  0  0  0  0  0  0  0
   45.0296   12.4985   18.3874 H   0  0  0  0  0  0  0  0  0  0  0  0
   44.8694   16.8582   14.3957 H   0  0  0  0  0  0  0  0  0  0  0  0
   43.9597   15.6217   15.2464 H   0  0  0  0  0  0  0  0  0  0  0  0
   44.6366   16.4204   19.7260 H   0  0  0  0  0  0  0  0  0  0  0  0
   45.9928   17.3290   20.3329 H   0  0  0  0  0  0  0  0  0  0  0  0
   44.1941   11.1018   16.6217 H   0  0  0  0  0  0  0  0  0  0  0  0
   45.5863   18.9691   15.9988 H   0  0  0  0  0  0  0  0  0  0  0  0
   42.5473   17.5031   16.4647 H   0  0  0  0  0  0  0  0  0  0  0  0
   43.0689   16.1786   17.5061 H   0  0  0  0  0  0  0  0  0  0  0  0
   47.2664   18.5937   17.9595 H   0  0  0  0  0  0  0  0  0  0  0  0
   46.2258   19.9888   17.7638 H   0  0  0  0  0  0  0  0  0  0  0  0
   46.6920   19.4656   19.3826 H   0  0  0  0  0  0  0  0  0  0  0  0
   43.8990   18.9104   20.1250 H   0  0  0  0  0  0  0  0  0  0  0  0
   42.4429   17.3028   19.3761 H   0  0  0  0  0  0  0  0  0  0  0  0
   41.7707   18.5782   18.3754 H   0  0  0  0  0  0  0  0  0  0  0  0
   47.4621    9.6536   13.5980 H   0  0  0  0  0  0  0  0  0  0  0  0
   43.5324   21.4345   20.4432 H   0  0  0  0  0  0  0  0  0  0  0  0
   45.1368   21.4920   19.6460 H   0  0  0  0  0  0  0  0  0  0  0  0
   42.7105   20.2918   16.8012 H   0  0  0  0  0  0  0  0  0  0  0  0
   47.4707    7.5453   14.2813 H   0  0  0  0  0  0  0  0  0  0  0  0
   46.6002    7.7527   12.1409 H   0  0  0  0  0  0  0  0  0  0  0  0
   42.7107    8.4668   13.7786 H   0  0  0  0  0  0  0  0  0  0  0  0
   44.0586    7.7143   11.7336 H   0  0  0  0  0  0  0  0  0  0  0  0
   42.3319   10.7869   13.1370 H   0  0  0  0  0  0  0  0  0  0  0  0
   42.3817    9.7239   11.7260 H   0  0  0  0  0  0  0  0  0  0  0  0
   43.7519   10.7800   12.0909 H   0  0  0  0  0  0  0  0  0  0  0  0
   46.0357   10.1504    9.4884 H   0  0  0  0  0  0  0  0  0  0  0  0
   44.7010    9.0971    9.9492 H   0  0  0  0  0  0  0  0  0  0  0  0
   46.3489    8.4349    9.7794 H   0  0  0  0  0  0  0  0  0  0  0  0
   43.6742    6.4805   13.5392 H   0  0  0  0  0  0  0  0  0  0  0  0
  1  2  2  0  0  0  0 
  3  1  1  0  0  0  0 
  4  3  1  0  0  0  0 
  3  5  1  0  0  0  0 
  3  6  1  0  0  0  0 
  7  4  1  0  0  0  0 
  4  8  1  0  0  0  0 
  4 41  1  0  0  0  0 
  5  9  1  0  0  0  0 
  5 10  1  0  0  0  0 
  5 42  1  0  0  0  0 
  6 11  1  0  0  0  0 
 12  7  1  0  0  0  0 
  7 13  1  0  0  0  0 
  7 40  1  0  0  0  0 
  8 14  1  0  0  0  0 
  9 13  1  0  0  0  0 
 15 10  1  0  0  0  0 
 15 11  1  0  0  0  0 
 12 16  1  0  0  0  0 
 17 12  1  0  0  0  0 
 12 18  1  0  0  0  0 
 17 14  1  0  0  0  0 
 15 19  1  0  0  0  0 
 17 20  1  0  0  0  0 
 21 17  1  0  0  0  0 
 18 22  1  0  0  0  0 
 23 19  1  0  0  0  0 
 21 22  1  0  0  0  0 
 21 24  1  0  0  0  0 
 25 23  1  0  0  0  0 
 23 26  1  0  0  0  0 
 23 43  1  0  0  0  0 
 24 27  1  0  0  0  0 
 24 28  2  0  0  0  0 
 25 29  1  0  0  0  0 
 30 25  1  0  0  0  0 
 31 26  1  0  0  0  0 
 27 32  1  0  0  0  0 
 28 33  1  0  0  0  0 
 30 34  1  0  0  0  0 
 30 35  1  0  0  0  0 
 35 31  1  0  0  0  0 
 31 36  1  0  0  0  0 
 32 33  1  0  0  0  0 
 33 37  2  0  0  0  0 
 34 38  1  0  0  0  0 
 35 39  1  0  0  0  0 
  1 44  1  0  0  0  0 
  6 45  1  0  0  0  0 
  6 46  1  0  0  0  0 
  8 47  1  0  0  0  0 
  8 48  1  0  0  0  0 
  9 49  1  0  0  0  0 
  9 50  1  0  0  0  0 
 10 51  1  0  0  0  0 
 10 52  1  0  0  0  0 
 11 53  1  0  0  0  0 
 11 54  1  0  0  0  0 
 13 55  1  0  0  0  0 
 13 56  1  0  0  0  0 
 14 57  1  0  0  0  0 
 14 58  1  0  0  0  0 
 15 59  1  0  0  0  0 
 16 60  1  0  0  0  0 
 18 61  1  0  0  0  0 
 18 62  1  0  0  0  0 
 20 63  1  0  0  0  0 
 20 64  1  0  0  0  0 
 20 65  1  0  0  0  0 
 21 66  1  0  0  0  0 
 22 67  1  0  0  0  0 
 22 68  1  0  0  0  0 
 25 69  1  0  0  0  0 
 27 70  1  0  0  0  0 
 27 71  1  0  0  0  0 
 28 72  1  0  0  0  0 
 29 73  1  0  0  0  0 
 30 74  1  0  0  0  0 
 31 75  1  0  0  0  0 
 35 76  1  0  0  0  0 
 36 77  1  0  0  0  0 
 36 78  1  0  0  0  0 
 36 79  1  0  0  0  0 
 38 80  1  0  0  0  0 
 38 81  1  0  0  0  0 
 38 82  1  0  0  0  0 
 39 83  1  0  0  0  0 
M  END
> <cdk:Title>
peruvoside

> <Conformer>
1

> <SuperDrugID>
SD003248

$$$$
