sunitinib
  CDK     0628171801

 56 58  0  0  0  0  0  0  0  0999 V2000
    2.1020    3.1796    0.9462 N   0  0  0  0  0  0  0  0  0  0  0  0
    1.7983    1.9358    0.4781 C   0  0  0  0  0  0  0  0  0  0  0  0
    0.7869    1.1315    1.0840 C   0  0  0  0  0  0  0  0  0  0  0  0
    2.4485    1.4866   -0.4953 O   0  0  0  0  0  0  0  0  0  0  0  0
   -0.2163    1.5427    1.9789 C   0  0  0  0  0  0  0  0  0  0  0  0
   -0.9510    0.4736    2.3147 N   0  0  0  0  0  0  0  0  0  0  0  0
   -0.4899   -0.6327    1.7203 C   0  0  0  0  0  0  0  0  0  0  0  0
    0.5979   -0.2554    0.9191 C   0  0  0  0  0  0  0  0  0  0  0  0
   -0.5123    2.8836    2.5138 C   0  0  0  0  0  0  0  0  0  0  0  0
    1.4078   -1.1667    0.0748 C   0  0  0  0  0  0  0  0  0  0  0  0
    3.1644    4.0095    0.4716 C   0  0  1  0  0  0  0  0  0  0  0  0
    3.3370    5.2576    1.3810 C   0  0  1  0  0  0  0  0  0  0  0  0
   -1.0556   -1.8874    1.8558 C   0  0  0  0  0  0  0  0  0  0  0  0
   -1.4742   -2.4626    3.0025 C   0  0  0  0  0  0  0  0  0  0  0  0
   -1.3914   -1.9947    4.3069 C   0  0  0  0  0  0  0  0  0  0  0  0
   -1.9415   -2.8814    5.1553 N   0  0  0  0  0  0  0  0  0  0  0  0
   -2.3713   -3.9302    4.4510 C   0  0  0  0  0  0  0  0  0  0  0  0
   -2.0780   -3.7018    3.1069 C   0  0  0  0  0  0  0  0  0  0  0  0
   -3.0086   -5.1048    4.8838 C   0  0  0  0  0  0  0  0  0  0  0  0
   -3.3430   -6.0799    3.9217 C   0  0  0  0  0  0  0  0  0  0  0  0
   -3.0428   -5.8701    2.5566 C   0  0  0  0  0  0  0  0  0  0  0  0
   -2.4087   -4.6776    2.1411 C   0  0  0  0  0  0  0  0  0  0  0  0
   -0.8636   -0.9346    4.7132 O   0  0  0  0  0  0  0  0  0  0  0  0
   -3.3529   -6.7813    1.6754 F   0  0  0  0  0  0  0  0  0  0  0  0
    4.7381    5.7958    1.3403 N   0  0  1  0  0  0  0  0  0  0  0  0
    4.8321    7.2884    1.4574 C   0  0  2  0  0  0  0  0  0  0  0  0
    5.7185    5.0376    2.1922 C   0  0  2  0  0  0  0  0  0  0  0  0
    7.1116    4.9723    1.5256 C   0  0  0  0  0  0  0  0  0  0  0  0
    4.6144    7.9681    0.0879 C   0  0  0  0  0  0  0  0  0  0  0  0
    1.5692    3.5278    1.6723 H   0  0  0  0  0  0  0  0  0  0  0  0
   -1.7163    0.5010    2.9115 H   0  0  0  0  0  0  0  0  0  0  0  0
   -0.6328    3.5926    1.6944 H   0  0  0  0  0  0  0  0  0  0  0  0
   -1.4361    2.8706    3.0947 H   0  0  0  0  0  0  0  0  0  0  0  0
    0.2950    3.2117    3.1693 H   0  0  0  0  0  0  0  0  0  0  0  0
    1.2242   -0.9451   -0.9776 H   0  0  0  0  0  0  0  0  0  0  0  0
    1.1686   -2.2165    0.2478 H   0  0  0  0  0  0  0  0  0  0  0  0
    2.4685   -1.0319    0.2921 H   0  0  0  0  0  0  0  0  0  0  0  0
    4.0891    3.4273    0.4513 H   0  0  0  0  0  0  0  0  0  0  0  0
    2.9473    4.3288   -0.5515 H   0  0  0  0  0  0  0  0  0  0  0  0
    2.6121    6.0020    1.0381 H   0  0  0  0  0  0  0  0  0  0  0  0
    3.0718    5.0232    2.4178 H   0  0  0  0  0  0  0  0  0  0  0  0
   -1.1557   -2.4027    1.0149 H   0  0  0  0  0  0  0  0  0  0  0  0
   -2.0019   -2.7827    6.1192 H   0  0  0  0  0  0  0  0  0  0  0  0
   -3.2242   -5.2480    5.8718 H   0  0  0  0  0  0  0  0  0  0  0  0
   -3.8029   -6.9439    4.2170 H   0  0  0  0  0  0  0  0  0  0  0  0
   -2.1959   -4.5334    1.1520 H   0  0  0  0  0  0  0  0  0  0  0  0
    5.8187    7.5985    1.8116 H   0  0  0  0  0  0  0  0  0  0  0  0
    4.1034    7.6698    2.1801 H   0  0  0  0  0  0  0  0  0  0  0  0
    5.3946    4.0040    2.3486 H   0  0  0  0  0  0  0  0  0  0  0  0
    5.8047    5.4907    3.1848 H   0  0  0  0  0  0  0  0  0  0  0  0
    7.7686    4.3103    2.0941 H   0  0  0  0  0  0  0  0  0  0  0  0
    7.5713    5.9609    1.4855 H   0  0  0  0  0  0  0  0  0  0  0  0
    7.0205    4.5834    0.5092 H   0  0  0  0  0  0  0  0  0  0  0  0
    4.7478    9.0472    0.1870 H   0  0  0  0  0  0  0  0  0  0  0  0
    3.6092    7.7765   -0.2908 H   0  0  0  0  0  0  0  0  0  0  0  0
    5.3414    7.5903   -0.6345 H   0  0  0  0  0  0  0  0  0  0  0  0
  1  2  1  0  0  0  0 
  2  3  1  0  0  0  0 
  2  4  2  0  0  0  0 
  5  6  1  0  0  0  0 
  6  7  1  0  0  0  0 
  7  8  2  0  0  0  0 
  3  5  2  0  0  0  0 
  3  8  1  0  0  0  0 
  5  9  1  0  0  0  0 
  8 10  1  0  0  0  0 
  1 11  1  0  0  0  0 
 11 12  1  0  0  0  0 
  7 13  1  0  0  0  0 
 13 14  2  0  0  0  0 
 15 16  1  0  0  0  0 
 16 17  1  0  0  0  0 
 14 15  1  0  0  0  0 
 14 18  1  0  0  0  0 
 19 20  1  0  0  0  0 
 20 21  2  0  0  0  0 
 21 22  1  0  0  0  0 
 17 19  2  0  0  0  0 
 18 22  2  0  0  0  0 
 18 17  1  0  0  0  0 
 15 23  2  0  0  0  0 
 21 24  1  0  0  0  0 
 12 25  1  0  0  0  0 
 25 26  1  0  0  0  0 
 25 27  1  0  0  0  0 
 27 28  1  0  0  0  0 
 26 29  1  0  0  0  0 
  1 30  1  0  0  0  0 
  6 31  1  0  0  0  0 
  9 32  1  0  0  0  0 
  9 33  1  0  0  0  0 
  9 34  1  0  0  0  0 
 10 35  1  0  0  0  0 
 10 36  1  0  0  0  0 
 10 37  1  0  0  0  0 
 11 38  1  0  0  0  0 
 11 39  1  0  0  0  0 
 12 40  1  0  0  0  0 
 12 41  1  0  0  0  0 
 13 42  1  0  0  0  0 
 16 43  1  0  0  0  0 
 19 44  1  0  0  0  0 
 20 45  1  0  0  0  0 
 22 46  1  0  0  0  0 
 26 47  1  0  0  0  0 
 26 48  1  0  0  0  0 
 27 49  1  0  0  0  0 
 27 50  1  0  0  0  0 
 28 51  1  0  0  0  0 
 28 52  1  0  0  0  0 
 28 53  1  0  0  0  0 
 29 54  1  0  0  0  0 
 29 55  1  0  0  0  0 
 29 56  1  0  0  0  0 
M  END
> <cdk:Title>
sunitinib

> <Conformer>
1

> <SuperDrugID>
SD002289

$$$$
