pipamperone
  CDK     0628171801

 57 59  0  0  0  0  0  0  0  0999 V2000
   -8.5460   -8.2495   -1.2972 C   0  0  0  0  0  0  0  0  0  0  0  0
   -7.7076   -8.0203   -2.3300 N   0  0  0  0  0  0  0  0  0  0  0  0
   -9.6495   -7.6576   -1.3566 O   0  0  0  0  0  0  0  0  0  0  0  0
   -8.2461   -9.1894   -0.1553 C   0  0  1  0  0  0  0  0  0  0  0  0
   -6.7331   -9.6222   -0.0877 C   0  0  1  0  0  0  0  0  0  0  0  0
   -8.4965   -8.3917    1.1827 C   0  0  2  0  0  0  0  0  0  0  0  0
   -9.1820  -10.3907   -0.3267 N   0  0  2  0  0  0  0  0  0  0  0  0
   -5.7410   -8.4520    0.1948 C   0  0  1  0  0  0  0  0  0  0  0  0
   -7.5313   -7.1912    1.3806 C   0  0  2  0  0  0  0  0  0  0  0  0
   -9.3744  -11.3208    0.8444 C   0  0  2  0  0  0  0  0  0  0  0  0
   -9.0433  -11.1597   -1.6219 C   0  0  1  0  0  0  0  0  0  0  0  0
   -6.1005   -7.6337    1.3990 N   0  0  2  0  0  0  0  0  0  0  0  0
  -10.5091  -12.3584    0.6396 C   0  0  2  0  0  0  0  0  0  0  0  0
  -10.2209  -12.1355   -1.8641 C   0  0  1  0  0  0  0  0  0  0  0  0
   -5.1168   -6.5249    1.6598 C   0  0  2  0  0  0  0  0  0  0  0  0
  -10.3418  -13.1291   -0.6878 C   0  0  1  0  0  0  0  0  0  0  0  0
   -5.1790   -5.9832    3.1155 C   0  0  1  0  0  0  0  0  0  0  0  0
   -3.9882   -5.0682    3.5210 C   0  0  2  0  0  0  0  0  0  0  0  0
   -3.8999   -3.7990    2.7453 C   0  0  0  0  0  0  0  0  0  0  0  0
   -2.8630   -3.6378    2.0567 O   0  0  0  0  0  0  0  0  0  0  0  0
   -4.9066   -2.7813    2.7354 C   0  0  0  0  0  0  0  0  0  0  0  0
   -5.0026   -1.8669    1.6538 C   0  0  0  0  0  0  0  0  0  0  0  0
   -5.8430   -2.6405    3.7921 C   0  0  0  0  0  0  0  0  0  0  0  0
   -5.9948   -0.8687    1.6196 C   0  0  0  0  0  0  0  0  0  0  0  0
   -6.8435   -1.6509    3.7573 C   0  0  0  0  0  0  0  0  0  0  0  0
   -6.9204   -0.7643    2.6706 C   0  0  0  0  0  0  0  0  0  0  0  0
   -7.8458    0.1556    2.6410 F   0  0  0  0  0  0  0  0  0  0  0  0
   -6.8534   -8.4738   -2.3754 H   0  0  0  0  0  0  0  0  0  0  0  0
   -7.9525   -7.3983   -3.0347 H   0  0  0  0  0  0  0  0  0  0  0  0
   -6.6078  -10.3557    0.7137 H   0  0  0  0  0  0  0  0  0  0  0  0
   -6.4316  -10.1131   -1.0169 H   0  0  0  0  0  0  0  0  0  0  0  0
   -8.3321   -9.0375    2.0490 H   0  0  0  0  0  0  0  0  0  0  0  0
   -9.5309   -8.0409    1.2370 H   0  0  0  0  0  0  0  0  0  0  0  0
   -4.7525   -8.8940    0.3443 H   0  0  0  0  0  0  0  0  0  0  0  0
   -5.6734   -7.8044   -0.6820 H   0  0  0  0  0  0  0  0  0  0  0  0
   -7.7914   -6.7282    2.3347 H   0  0  0  0  0  0  0  0  0  0  0  0
   -7.6904   -6.4472    0.5970 H   0  0  0  0  0  0  0  0  0  0  0  0
   -9.6586  -10.7656    1.7363 H   0  0  0  0  0  0  0  0  0  0  0  0
   -8.4418  -11.8529    1.0523 H   0  0  0  0  0  0  0  0  0  0  0  0
   -9.0190  -10.4908   -2.4843 H   0  0  0  0  0  0  0  0  0  0  0  0
   -8.1092  -11.7282   -1.6230 H   0  0  0  0  0  0  0  0  0  0  0  0
  -11.4740  -11.8437    0.6392 H   0  0  0  0  0  0  0  0  0  0  0  0
  -10.5074  -13.0708    1.4693 H   0  0  0  0  0  0  0  0  0  0  0  0
  -11.1515  -11.5660   -1.9653 H   0  0  0  0  0  0  0  0  0  0  0  0
  -10.0601  -12.6901   -2.7925 H   0  0  0  0  0  0  0  0  0  0  0  0
   -5.2774   -5.7013    0.9555 H   0  0  0  0  0  0  0  0  0  0  0  0
   -4.0999   -6.8964    1.4989 H   0  0  0  0  0  0  0  0  0  0  0  0
   -9.4485  -13.7578   -0.6415 H   0  0  0  0  0  0  0  0  0  0  0  0
  -11.2023  -13.7835   -0.8424 H   0  0  0  0  0  0  0  0  0  0  0  0
   -6.1094   -5.4317    3.2573 H   0  0  0  0  0  0  0  0  0  0  0  0
   -5.1951   -6.8376    3.7986 H   0  0  0  0  0  0  0  0  0  0  0  0
   -3.0643   -5.6436    3.4100 H   0  0  0  0  0  0  0  0  0  0  0  0
   -4.0670   -4.8301    4.5854 H   0  0  0  0  0  0  0  0  0  0  0  0
   -4.3517   -1.9204    0.8676 H   0  0  0  0  0  0  0  0  0  0  0  0
   -5.8084   -3.2525    4.6079 H   0  0  0  0  0  0  0  0  0  0  0  0
   -6.0402   -0.2227    0.8276 H   0  0  0  0  0  0  0  0  0  0  0  0
   -7.5128   -1.5776    4.5263 H   0  0  0  0  0  0  0  0  0  0  0  0
  1  2  1  0  0  0  0 
  1  3  2  0  0  0  0 
  1  4  1  0  0  0  0 
  4  5  1  0  0  0  0 
  4  6  1  0  0  0  0 
  4  7  1  0  0  0  0 
  5  8  1  0  0  0  0 
  6  9  1  0  0  0  0 
  7 10  1  0  0  0  0 
  7 11  1  0  0  0  0 
  8 12  1  0  0  0  0 
  9 12  1  0  0  0  0 
 10 13  1  0  0  0  0 
 11 14  1  0  0  0  0 
 12 15  1  0  0  0  0 
 13 16  1  0  0  0  0 
 14 16  1  0  0  0  0 
 15 17  1  0  0  0  0 
 17 18  1  0  0  0  0 
 18 19  1  0  0  0  0 
 19 20  2  0  0  0  0 
 19 21  1  0  0  0  0 
 21 22  2  0  0  0  0 
 21 23  1  0  0  0  0 
 22 24  1  0  0  0  0 
 23 25  2  0  0  0  0 
 24 26  2  0  0  0  0 
 25 26  1  0  0  0  0 
 26 27  1  0  0  0  0 
 28  2  1  0  0  0  0 
 29  2  1  0  0  0  0 
 30  5  1  0  0  0  0 
 31  5  1  0  0  0  0 
 32  6  1  0  0  0  0 
 33  6  1  0  0  0  0 
 34  8  1  0  0  0  0 
 35  8  1  0  0  0  0 
 36  9  1  0  0  0  0 
 37  9  1  0  0  0  0 
 38 10  1  0  0  0  0 
 39 10  1  0  0  0  0 
 40 11  1  0  0  0  0 
 41 11  1  0  0  0  0 
 42 13  1  0  0  0  0 
 43 13  1  0  0  0  0 
 44 14  1  0  0  0  0 
 45 14  1  0  0  0  0 
 46 15  1  0  0  0  0 
 47 15  1  0  0  0  0 
 48 16  1  0  0  0  0 
 49 16  1  0  0  0  0 
 50 17  1  0  0  0  0 
 51 17  1  0  0  0  0 
 52 18  1  0  0  0  0 
 53 18  1  0  0  0  0 
 54 22  1  0  0  0  0 
 55 23  1  0  0  0  0 
 56 24  1  0  0  0  0 
 57 25  1  0  0  0  0 
M  END
> <cdk:Title>
pipamperone

> <Conformer>
1

> <SuperDrugID>
SD001956

$$$$
