meptazinol
  CDK     0628171801

 40 41  0  0  0  0  0  0  0  0999 V2000
   -0.1271    3.7135    1.7262 C   0  0  1  0  0  0  0  0  0  0  0  0
    1.1642    3.2535    2.4578 C   0  0  0  0  0  0  0  0  0  0  0  0
   -0.0641    3.7568    0.1437 C   0  0  2  0  0  0  0  0  0  0  0  0
    0.9078    4.9337   -0.2853 C   0  0  2  0  0  0  0  0  0  0  0  0
   -1.4987    4.0224   -0.4667 C   0  0  1  0  0  0  0  0  0  0  0  0
    0.3700    2.3760   -0.3631 C   0  0  0  0  0  0  0  0  0  0  0  0
    0.5910    6.2530    0.3613 N   0  0  1  0  0  0  0  0  0  0  0  0
   -2.1827    5.4069   -0.2618 C   0  0  1  0  0  0  0  0  0  0  0  0
   -0.3435    1.2052    0.0314 C   0  0  0  0  0  0  0  0  0  0  0  0
    1.4851    2.1609   -1.2236 C   0  0  0  0  0  0  0  0  0  0  0  0
    1.7555    6.9557    0.9848 C   0  0  0  0  0  0  0  0  0  0  0  0
   -0.2814    7.1872   -0.4126 C   0  0  2  0  0  0  0  0  0  0  0  0
   -1.5371    6.5598   -1.0723 C   0  0  1  0  0  0  0  0  0  0  0  0
    0.0563   -0.0897   -0.3512 C   0  0  0  0  0  0  0  0  0  0  0  0
    1.8854    0.8711   -1.6211 C   0  0  0  0  0  0  0  0  0  0  0  0
   -0.6161   -1.1836    0.0872 O   0  0  0  0  0  0  0  0  0  0  0  0
    1.1739   -0.2555   -1.1824 C   0  0  0  0  0  0  0  0  0  0  0  0
   -0.9334    3.0520    2.0506 H   0  0  0  0  0  0  0  0  0  0  0  0
   -0.3890    4.6963    2.1227 H   0  0  0  0  0  0  0  0  0  0  0  0
    0.9876    3.2372    3.5339 H   0  0  0  0  0  0  0  0  0  0  0  0
    1.9870    3.9368    2.2584 H   0  0  0  0  0  0  0  0  0  0  0  0
    1.4627    2.2510    2.1499 H   0  0  0  0  0  0  0  0  0  0  0  0
    0.9050    5.0506   -1.3736 H   0  0  0  0  0  0  0  0  0  0  0  0
    1.9295    4.6460   -0.0272 H   0  0  0  0  0  0  0  0  0  0  0  0
   -1.4606    3.8404   -1.5463 H   0  0  0  0  0  0  0  0  0  0  0  0
   -2.1990    3.2888   -0.0597 H   0  0  0  0  0  0  0  0  0  0  0  0
   -3.2160    5.3102   -0.6124 H   0  0  0  0  0  0  0  0  0  0  0  0
   -2.2343    5.6624    0.8000 H   0  0  0  0  0  0  0  0  0  0  0  0
   -1.1731    1.2753    0.6232 H   0  0  0  0  0  0  0  0  0  0  0  0
    2.0371    2.9380   -1.5825 H   0  0  0  0  0  0  0  0  0  0  0  0
    1.4306    7.8384    1.5430 H   0  0  0  0  0  0  0  0  0  0  0  0
    2.4733    7.2680    0.2224 H   0  0  0  0  0  0  0  0  0  0  0  0
    2.2634    6.3016    1.6935 H   0  0  0  0  0  0  0  0  0  0  0  0
    0.3067    7.6785   -1.1940 H   0  0  0  0  0  0  0  0  0  0  0  0
   -0.6306    7.9683    0.2709 H   0  0  0  0  0  0  0  0  0  0  0  0
   -1.2805    6.2019   -2.0721 H   0  0  0  0  0  0  0  0  0  0  0  0
   -2.2789    7.3524   -1.2046 H   0  0  0  0  0  0  0  0  0  0  0  0
    2.7011    0.7505   -2.2272 H   0  0  0  0  0  0  0  0  0  0  0  0
   -1.1524   -0.8760    0.8476 H   0  0  0  0  0  0  0  0  0  0  0  0
    1.4719   -1.1915   -1.4664 H   0  0  0  0  0  0  0  0  0  0  0  0
  1  2  1  0  0  0  0 
  3  1  1  0  0  0  0 
  3  4  1  0  0  0  0 
  3  5  1  0  0  0  0 
  3  6  1  0  0  0  0 
  4  7  1  0  0  0  0 
  5  8  1  0  0  0  0 
  6  9  2  0  0  0  0 
  6 10  1  0  0  0  0 
  7 11  1  0  0  0  0 
  7 12  1  0  0  0  0 
  8 13  1  0  0  0  0 
  9 14  1  0  0  0  0 
 10 15  2  0  0  0  0 
 12 13  1  0  0  0  0 
 14 16  1  0  0  0  0 
 14 17  2  0  0  0  0 
 15 17  1  0  0  0  0 
  1 18  1  0  0  0  0 
  1 19  1  0  0  0  0 
  2 20  1  0  0  0  0 
  2 21  1  0  0  0  0 
  2 22  1  0  0  0  0 
  4 23  1  0  0  0  0 
  4 24  1  0  0  0  0 
  5 25  1  0  0  0  0 
  5 26  1  0  0  0  0 
  8 27  1  0  0  0  0 
  8 28  1  0  0  0  0 
  9 29  1  0  0  0  0 
 10 30  1  0  0  0  0 
 11 31  1  0  0  0  0 
 11 32  1  0  0  0  0 
 11 33  1  0  0  0  0 
 12 34  1  0  0  0  0 
 12 35  1  0  0  0  0 
 13 36  1  0  0  0  0 
 13 37  1  0  0  0  0 
 15 38  1  0  0  0  0 
 16 39  1  0  0  0  0 
 17 40  1  0  0  0  0 
M  END
> <cdk:Title>
meptazinol

> <Conformer>
1

> <SuperDrugID>
SD001509

$$$$
