corbadrine
  CDK     0628171801

 26 26  0  0  0  0  0  0  0  0999 V2000
    0.3373   -1.5931   -0.6606 C   0  0  2  0  0  0  0  0  0  0  0  0
   -1.0812   -1.8585   -0.0717 C   0  0  2  0  0  0  0  0  0  0  0  0
    1.2236   -2.6644   -0.3285 O   0  0  0  0  0  0  0  0  0  0  0  0
    0.9162   -0.2632   -0.2936 C   0  0  0  0  0  0  0  0  0  0  0  0
   -1.1100   -2.0258    1.4701 C   0  0  0  0  0  0  0  0  0  0  0  0
   -1.6499   -3.0729   -0.6791 N   0  0  2  0  0  0  0  0  0  0  0  0
    1.9172   -0.1258    0.6997 C   0  0  0  0  0  0  0  0  0  0  0  0
    0.4942    0.9022   -0.9784 C   0  0  0  0  0  0  0  0  0  0  0  0
    2.5160    1.1235    0.9642 C   0  0  0  0  0  0  0  0  0  0  0  0
    1.1000    2.1478   -0.7290 C   0  0  0  0  0  0  0  0  0  0  0  0
    3.4830    1.2341    1.9115 O   0  0  0  0  0  0  0  0  0  0  0  0
    2.1225    2.2603    0.2301 C   0  0  0  0  0  0  0  0  0  0  0  0
    2.7174    3.4660    0.4206 O   0  0  0  0  0  0  0  0  0  0  0  0
    0.2646   -1.6231   -1.7530 H   0  0  0  0  0  0  0  0  0  0  0  0
   -1.7433   -1.0312   -0.3427 H   0  0  0  0  0  0  0  0  0  0  0  0
    0.8056   -3.4679   -0.6994 H   0  0  0  0  0  0  0  0  0  0  0  0
   -2.1297   -2.2270    1.8088 H   0  0  0  0  0  0  0  0  0  0  0  0
   -0.4741   -2.8591    1.7796 H   0  0  0  0  0  0  0  0  0  0  0  0
   -0.7609   -1.1149    1.9604 H   0  0  0  0  0  0  0  0  0  0  0  0
   -1.0135   -3.8428   -0.4620 H   0  0  0  0  0  0  0  0  0  0  0  0
   -1.6262   -2.9455   -1.6934 H   0  0  0  0  0  0  0  0  0  0  0  0
    2.2222   -0.9413    1.2366 H   0  0  0  0  0  0  0  0  0  0  0  0
   -0.2451    0.8493   -1.6848 H   0  0  0  0  0  0  0  0  0  0  0  0
    0.7980    2.9729   -1.2535 H   0  0  0  0  0  0  0  0  0  0  0  0
    3.6610    0.3227    2.2226 H   0  0  0  0  0  0  0  0  0  0  0  0
    3.5115    3.2930    0.9687 H   0  0  0  0  0  0  0  0  0  0  0  0
  2  1  1  0  0  0  0 
  1  3  1  0  0  0  0 
  1  4  1  0  0  0  0 
  2  5  1  0  0  0  0 
  2  6  1  0  0  0  0 
  4  7  2  0  0  0  0 
  4  8  1  0  0  0  0 
  7  9  1  0  0  0  0 
  8 10  2  0  0  0  0 
  9 11  1  0  0  0  0 
  9 12  2  0  0  0  0 
 10 12  1  0  0  0  0 
 12 13  1  0  0  0  0 
  1 14  1  0  0  0  0 
  2 15  1  0  0  0  0 
  3 16  1  0  0  0  0 
  5 17  1  0  0  0  0 
  5 18  1  0  0  0  0 
  5 19  1  0  0  0  0 
  6 20  1  0  0  0  0 
  6 21  1  0  0  0  0 
  7 22  1  0  0  0  0 
  8 23  1  0  0  0  0 
 10 24  1  0  0  0  0 
 11 25  1  0  0  0  0 
 13 26  1  0  0  0  0 
M  END
> <cdk:Title>
corbadrine

> <Conformer>
1

> <SuperDrugID>
SD003589

$$$$
