protokylol
  CDK     0628171801

 45 47  0  0  0  0  0  0  0  0999 V2000
    2.8823    2.9042    2.7096 C   0  0  0  0  0  0  0  0  0  0  0  0
    2.8954    1.6839    1.7537 C   0  0  1  0  0  0  0  0  0  0  0  0
    2.9916    0.3381    2.5405 C   0  0  2  0  0  0  0  0  0  0  0  0
    4.3261    0.1155    3.1603 C   0  0  0  0  0  0  0  0  0  0  0  0
    5.4543   -0.1714    2.3442 C   0  0  0  0  0  0  0  0  0  0  0  0
    6.7272   -0.3849    2.9121 C   0  0  0  0  0  0  0  0  0  0  0  0
    6.8659   -0.3023    4.3069 C   0  0  0  0  0  0  0  0  0  0  0  0
    7.9869   -0.4827    5.0285 O   0  0  0  0  0  0  0  0  0  0  0  0
    7.5521   -0.0807    6.3419 C   0  0  1  0  0  0  0  0  0  0  0  0
    6.1179    0.0294    6.4159 O   0  0  0  0  0  0  0  0  0  0  0  0
    5.7757   -0.0143    5.1147 C   0  0  0  0  0  0  0  0  0  0  0  0
    4.4987    0.1869    4.5654 C   0  0  0  0  0  0  0  0  0  0  0  0
    1.6630    1.7636    0.9181 N   0  0  2  0  0  0  0  0  0  0  0  0
    1.5935    0.9671   -0.3349 C   0  0  2  0  0  0  0  0  0  0  0  0
    2.6353    1.3314   -1.4301 C   0  0  1  0  0  0  0  0  0  0  0  0
    2.4589    0.4713   -2.5553 O   0  0  0  0  0  0  0  0  0  0  0  0
    2.5515    2.7579   -1.8633 C   0  0  0  0  0  0  0  0  0  0  0  0
    3.5206    3.7038   -1.4470 C   0  0  0  0  0  0  0  0  0  0  0  0
    3.4299    5.0504   -1.8438 C   0  0  0  0  0  0  0  0  0  0  0  0
    2.3821    5.4761   -2.6814 C   0  0  0  0  0  0  0  0  0  0  0  0
    2.3324    6.7841   -3.0443 O   0  0  0  0  0  0  0  0  0  0  0  0
    1.4203    4.5440   -3.1247 C   0  0  0  0  0  0  0  0  0  0  0  0
    0.4278    4.9398   -3.9648 O   0  0  0  0  0  0  0  0  0  0  0  0
    1.4986    3.2007   -2.7006 C   0  0  0  0  0  0  0  0  0  0  0  0
    3.7889    2.9287    3.3184 H   0  0  0  0  0  0  0  0  0  0  0  0
    2.0159    2.8653    3.3732 H   0  0  0  0  0  0  0  0  0  0  0  0
    2.8394    3.8313    2.1349 H   0  0  0  0  0  0  0  0  0  0  0  0
    3.7741    1.8007    1.1188 H   0  0  0  0  0  0  0  0  0  0  0  0
    2.8011   -0.5046    1.8760 H   0  0  0  0  0  0  0  0  0  0  0  0
    2.1991    0.3119    3.2941 H   0  0  0  0  0  0  0  0  0  0  0  0
    5.3542   -0.2311    1.3282 H   0  0  0  0  0  0  0  0  0  0  0  0
    7.5364   -0.5972    2.3226 H   0  0  0  0  0  0  0  0  0  0  0  0
    7.8942   -0.8119    7.0771 H   0  0  0  0  0  0  0  0  0  0  0  0
    7.9995    0.8880    6.5841 H   0  0  0  0  0  0  0  0  0  0  0  0
    3.7129    0.3884    5.1874 H   0  0  0  0  0  0  0  0  0  0  0  0
    1.5431    2.7420    0.6492 H   0  0  0  0  0  0  0  0  0  0  0  0
    0.5916    1.1120   -0.7442 H   0  0  0  0  0  0  0  0  0  0  0  0
    1.6784   -0.0936   -0.0999 H   0  0  0  0  0  0  0  0  0  0  0  0
    3.6352    1.1028   -1.0553 H   0  0  0  0  0  0  0  0  0  0  0  0
    2.6133   -0.4333   -2.2080 H   0  0  0  0  0  0  0  0  0  0  0  0
    4.3017    3.4213   -0.8469 H   0  0  0  0  0  0  0  0  0  0  0  0
    4.1321    5.7223   -1.5212 H   0  0  0  0  0  0  0  0  0  0  0  0
    1.4510    6.9207   -3.4466 H   0  0  0  0  0  0  0  0  0  0  0  0
    0.0974    4.1220   -4.3919 H   0  0  0  0  0  0  0  0  0  0  0  0
    0.7834    2.5385   -3.0127 H   0  0  0  0  0  0  0  0  0  0  0  0
  1  2  1  0  0  0  0 
  2  3  1  0  0  0  0 
  3  4  1  0  0  0  0 
  4  5  2  0  0  0  0 
  5  6  1  0  0  0  0 
  6  7  2  0  0  0  0 
  7  8  1  0  0  0  0 
  8  9  1  0  0  0  0 
  9 10  1  0  0  0  0 
 10 11  1  0  0  0  0 
  7 11  1  0  0  0  0 
 11 12  2  0  0  0  0 
  4 12  1  0  0  0  0 
  2 13  1  0  0  0  0 
 13 14  1  0  0  0  0 
 14 15  1  0  0  0  0 
 15 16  1  0  0  0  0 
 15 17  1  0  0  0  0 
 17 18  2  0  0  0  0 
 18 19  1  0  0  0  0 
 19 20  2  0  0  0  0 
 20 21  1  0  0  0  0 
 20 22  1  0  0  0  0 
 22 23  1  0  0  0  0 
 22 24  2  0  0  0  0 
 17 24  1  0  0  0  0 
  1 25  1  0  0  0  0 
  1 26  1  0  0  0  0 
  1 27  1  0  0  0  0 
  2 28  1  0  0  0  0 
  3 29  1  0  0  0  0 
  3 30  1  0  0  0  0 
  5 31  1  0  0  0  0 
  6 32  1  0  0  0  0 
  9 33  1  0  0  0  0 
  9 34  1  0  0  0  0 
 12 35  1  0  0  0  0 
 13 36  1  0  0  0  0 
 14 37  1  0  0  0  0 
 14 38  1  0  0  0  0 
 15 39  1  0  0  0  0 
 16 40  1  0  0  0  0 
 18 41  1  0  0  0  0 
 19 42  1  0  0  0  0 
 21 43  1  0  0  0  0 
 23 44  1  0  0  0  0 
 24 45  1  0  0  0  0 
M  END
> <cdk:Title>
protokylol

> <Conformer>
1

> <SuperDrugID>
SD002082

$$$$
