atropine oxyde
  CDK     0628171801

 45 47  0  0  0  0  0  0  0  0999 V2000
    4.6125   -4.6476    1.8616 C   0  0  0  0  0  0  0  0  0  0  0  0
    4.0450   -3.5458    1.0117 N   0  0  1  0  0  0  0  0  0  0  0  0
    5.1363   -3.1132    0.2955 O   0  0  0  0  0  0  0  0  0  0  0  0
    2.9292   -3.8938    0.0695 C   0  0  1  0  0  0  0  0  0  0  0  0
    3.4317   -2.3814    1.7299 C   0  0  1  0  0  0  0  0  0  0  0  0
    1.6982   -4.5348    0.8019 C   0  0  2  0  0  0  0  0  0  0  0  0
    2.5479   -2.5149   -0.5487 C   0  0  1  0  0  0  0  0  0  0  0  0
    2.8592   -1.5004    0.5793 C   0  0  2  0  0  0  0  0  0  0  0  0
    2.3018   -2.8379    2.7140 C   0  0  1  0  0  0  0  0  0  0  0  0
    1.1895   -3.6973    2.0276 C   0  0  1  0  0  0  0  0  0  0  0  0
    0.1095   -2.8134    1.6768 O   0  0  0  0  0  0  0  0  0  0  0  0
   -1.1782   -3.1465    1.3582 C   0  0  0  0  0  0  0  0  0  0  0  0
   -2.1433   -2.0452    1.1168 C   0  0  1  0  0  0  0  0  0  0  0  0
   -1.5309   -4.3494    1.3116 O   0  0  0  0  0  0  0  0  0  0  0  0
   -3.4093   -2.4740    0.3198 C   0  0  2  0  0  0  0  0  0  0  0  0
   -2.4695   -1.3917    2.4250 C   0  0  0  0  0  0  0  0  0  0  0  0
   -3.0343   -2.9655   -0.9657 O   0  0  0  0  0  0  0  0  0  0  0  0
   -3.2089   -2.0730    3.4247 C   0  0  0  0  0  0  0  0  0  0  0  0
   -2.0257   -0.0758    2.7120 C   0  0  0  0  0  0  0  0  0  0  0  0
   -3.4928   -1.4659    4.6623 C   0  0  0  0  0  0  0  0  0  0  0  0
   -2.3083    0.5350    3.9503 C   0  0  0  0  0  0  0  0  0  0  0  0
   -3.0392   -0.1623    4.9277 C   0  0  0  0  0  0  0  0  0  0  0  0
    3.8591   -5.1804    2.4432 H   0  0  0  0  0  0  0  0  0  0  0  0
    5.3341   -4.2350    2.5712 H   0  0  0  0  0  0  0  0  0  0  0  0
    5.1321   -5.3851    1.2424 H   0  0  0  0  0  0  0  0  0  0  0  0
    3.2702   -4.5767   -0.7173 H   0  0  0  0  0  0  0  0  0  0  0  0
    4.1888   -1.8228    2.2926 H   0  0  0  0  0  0  0  0  0  0  0  0
    1.9718   -5.5370    1.1389 H   0  0  0  0  0  0  0  0  0  0  0  0
    0.8903   -4.6789    0.0809 H   0  0  0  0  0  0  0  0  0  0  0  0
    3.1789   -2.3097   -1.4205 H   0  0  0  0  0  0  0  0  0  0  0  0
    1.5020   -2.4630   -0.8656 H   0  0  0  0  0  0  0  0  0  0  0  0
    3.6168   -0.7837    0.2462 H   0  0  0  0  0  0  0  0  0  0  0  0
    1.9685   -0.9406    0.8792 H   0  0  0  0  0  0  0  0  0  0  0  0
    2.7552   -3.4137    3.5235 H   0  0  0  0  0  0  0  0  0  0  0  0
    1.8568   -1.9579    3.1881 H   0  0  0  0  0  0  0  0  0  0  0  0
    0.7950   -4.3843    2.7818 H   0  0  0  0  0  0  0  0  0  0  0  0
   -1.6279   -1.3274    0.4713 H   0  0  0  0  0  0  0  0  0  0  0  0
   -4.0745   -1.6195    0.1807 H   0  0  0  0  0  0  0  0  0  0  0  0
   -3.9629   -3.2576    0.8411 H   0  0  0  0  0  0  0  0  0  0  0  0
   -3.8772   -3.2265   -1.3978 H   0  0  0  0  0  0  0  0  0  0  0  0
   -3.5456   -3.0243    3.2597 H   0  0  0  0  0  0  0  0  0  0  0  0
   -1.4825    0.4526    2.0243 H   0  0  0  0  0  0  0  0  0  0  0  0
   -4.0296   -1.9751    5.3704 H   0  0  0  0  0  0  0  0  0  0  0  0
   -1.9829    1.4859    4.1422 H   0  0  0  0  0  0  0  0  0  0  0  0
   -3.2426    0.2774    5.8277 H   0  0  0  0  0  0  0  0  0  0  0  0
  1  2  1  0  0  0  0 
  4  2  1  0  0  0  0 
  4  6  1  0  0  0  0 
  4  7  1  0  0  0  0 
  5  2  1  0  0  0  0 
  5  8  1  0  0  0  0 
  5  9  1  0  0  0  0 
 10  6  1  0  0  0  0 
  7  8  1  0  0  0  0 
 10  9  1  0  0  0  0 
 10 11  1  0  0  0  0 
 11 12  1  0  0  0  0 
 12 13  1  0  0  0  0 
 12 14  2  0  0  0  0 
 13 15  1  0  0  0  0 
 13 16  1  0  0  0  0 
 15 17  1  0  0  0  0 
 16 18  2  0  0  0  0 
 16 19  1  0  0  0  0 
 18 20  1  0  0  0  0 
 19 21  2  0  0  0  0 
 20 22  2  0  0  0  0 
 21 22  1  0  0  0  0 
  2  3  1  0  0  0  0 
  1 23  1  0  0  0  0 
  1 24  1  0  0  0  0 
  1 25  1  0  0  0  0 
  4 26  1  0  0  0  0 
  5 27  1  0  0  0  0 
  6 28  1  0  0  0  0 
  6 29  1  0  0  0  0 
  7 30  1  0  0  0  0 
  7 31  1  0  0  0  0 
  8 32  1  0  0  0  0 
  8 33  1  0  0  0  0 
  9 34  1  0  0  0  0 
  9 35  1  0  0  0  0 
 10 36  1  0  0  0  0 
 13 37  1  0  0  0  0 
 15 38  1  0  0  0  0 
 15 39  1  0  0  0  0 
 17 40  1  0  0  0  0 
 18 41  1  0  0  0  0 
 19 42  1  0  0  0  0 
 20 43  1  0  0  0  0 
 21 44  1  0  0  0  0 
 22 45  1  0  0  0  0 
M  CHG  1   2   1
M  CHG  1   3  -1
M  END
> <cdk:Title>
atropine oxyde

> <Conformer>
1

> <SuperDrugID>
SD000217

$$$$
