androstenedione
  CDK     0628171801

 47 50  0  0  0  0  0  0  0  0999 V2000
   -4.2637   -4.2521    1.6887 C   0  0  0  0  0  0  0  0  0  0  0  0
   -3.6864   -3.1849    2.6857 C   0  0  1  0  0  0  0  0  0  0  0  0
   -2.5899   -2.2484    1.9951 C   0  0  2  0  0  0  0  0  0  0  0  0
   -4.8474   -2.3759    3.1821 C   0  0  0  0  0  0  0  0  0  0  0  0
   -3.0015   -3.9392    3.8971 C   0  0  1  0  0  0  0  0  0  0  0  0
   -3.2059   -1.1514    1.0439 C   0  0  2  0  0  0  0  0  0  0  0  0
   -1.3883   -2.9954    1.2964 C   0  0  1  0  0  0  0  0  0  0  0  0
   -5.3886   -1.2945    2.3419 C   0  0  2  0  0  0  0  0  0  0  0  0
   -5.4682   -2.6473    4.3558 C   0  0  0  0  0  0  0  0  0  0  0  0
   -4.0000   -4.6045    4.8772 C   0  0  2  0  0  0  0  0  0  0  0  0
   -2.0605   -0.2334    0.5092 C   0  0  1  0  0  0  0  0  0  0  0  0
   -4.2925   -0.3483    1.8077 C   0  0  2  0  0  0  0  0  0  0  0  0
   -0.3374   -2.0517    0.6273 C   0  0  1  0  0  0  0  0  0  0  0  0
   -5.1203   -3.6959    5.1913 C   0  0  0  0  0  0  0  0  0  0  0  0
   -1.0183   -1.0284   -0.3392 C   0  0  1  0  0  0  0  0  0  0  0  0
   -2.3681    1.0134   -0.3490 C   0  0  2  0  0  0  0  0  0  0  0  0
   -5.8007   -3.9145    6.2211 O   0  0  0  0  0  0  0  0  0  0  0  0
   -1.5517   -1.7435   -1.6357 C   0  0  0  0  0  0  0  0  0  0  0  0
   -0.2013    0.1124   -0.8046 C   0  0  0  0  0  0  0  0  0  0  0  0
   -0.9787    1.3588   -0.9445 C   0  0  1  0  0  0  0  0  0  0  0  0
    1.0114    0.0294   -1.1032 O   0  0  0  0  0  0  0  0  0  0  0  0
   -5.0853   -4.8152    2.1397 H   0  0  0  0  0  0  0  0  0  0  0  0
   -4.6452   -3.7847    0.7795 H   0  0  0  0  0  0  0  0  0  0  0  0
   -3.5009   -4.9760    1.3981 H   0  0  0  0  0  0  0  0  0  0  0  0
   -2.1230   -1.6844    2.8109 H   0  0  0  0  0  0  0  0  0  0  0  0
   -2.3059   -4.7036    3.5445 H   0  0  0  0  0  0  0  0  0  0  0  0
   -2.4171   -3.2247    4.4878 H   0  0  0  0  0  0  0  0  0  0  0  0
   -3.6962   -1.6324    0.1951 H   0  0  0  0  0  0  0  0  0  0  0  0
   -0.8574   -3.6110    2.0262 H   0  0  0  0  0  0  0  0  0  0  0  0
   -1.7708   -3.6692    0.5295 H   0  0  0  0  0  0  0  0  0  0  0  0
   -6.1222   -0.6722    2.8658 H   0  0  0  0  0  0  0  0  0  0  0  0
   -5.9167   -1.7476    1.4981 H   0  0  0  0  0  0  0  0  0  0  0  0
   -6.2397   -2.0864    4.6451 H   0  0  0  0  0  0  0  0  0  0  0  0
   -3.4673   -4.8677    5.7956 H   0  0  0  0  0  0  0  0  0  0  0  0
   -4.4028   -5.5245    4.4462 H   0  0  0  0  0  0  0  0  0  0  0  0
   -1.5669    0.1708    1.4095 H   0  0  0  0  0  0  0  0  0  0  0  0
   -4.7575    0.3754    1.1336 H   0  0  0  0  0  0  0  0  0  0  0  0
   -3.8498    0.2042    2.6434 H   0  0  0  0  0  0  0  0  0  0  0  0
    0.2082   -1.5203    1.4136 H   0  0  0  0  0  0  0  0  0  0  0  0
    0.3947   -2.6530    0.0815 H   0  0  0  0  0  0  0  0  0  0  0  0
   -2.7549    1.8384    0.2571 H   0  0  0  0  0  0  0  0  0  0  0  0
   -3.0895    0.7751   -1.1355 H   0  0  0  0  0  0  0  0  0  0  0  0
   -0.7230   -2.2113   -2.1716 H   0  0  0  0  0  0  0  0  0  0  0  0
   -2.0345   -1.0463   -2.3233 H   0  0  0  0  0  0  0  0  0  0  0  0
   -2.2771   -2.5225   -1.4107 H   0  0  0  0  0  0  0  0  0  0  0  0
   -1.0599    1.6480   -1.9954 H   0  0  0  0  0  0  0  0  0  0  0  0
   -0.4964    2.1600   -0.3772 H   0  0  0  0  0  0  0  0  0  0  0  0
  2  1  1  0  0  0  0 
  3  2  1  0  0  0  0 
  2  4  1  0  0  0  0 
  2  5  1  0  0  0  0 
  3  6  1  0  0  0  0 
  3  7  1  0  0  0  0 
  4  8  1  0  0  0  0 
  4  9  2  0  0  0  0 
  5 10  1  0  0  0  0 
  6 11  1  0  0  0  0 
  6 12  1  0  0  0  0 
  7 13  1  0  0  0  0 
  8 12  1  0  0  0  0 
  9 14  1  0  0  0  0 
 10 14  1  0  0  0  0 
 11 15  1  0  0  0  0 
 11 16  1  0  0  0  0 
 15 13  1  0  0  0  0 
 14 17  2  0  0  0  0 
 15 18  1  0  0  0  0 
 15 19  1  0  0  0  0 
 16 20  1  0  0  0  0 
 19 20  1  0  0  0  0 
 19 21  2  0  0  0  0 
 22  1  1  0  0  0  0 
 23  1  1  0  0  0  0 
 24  1  1  0  0  0  0 
  3 25  1  0  0  0  0 
 26  5  1  0  0  0  0 
 27  5  1  0  0  0  0 
  6 28  1  0  0  0  0 
 29  7  1  0  0  0  0 
 30  7  1  0  0  0  0 
 31  8  1  0  0  0  0 
 32  8  1  0  0  0  0 
 33  9  1  0  0  0  0 
 34 10  1  0  0  0  0 
 35 10  1  0  0  0  0 
 11 36  1  0  0  0  0 
 37 12  1  0  0  0  0 
 38 12  1  0  0  0  0 
 39 13  1  0  0  0  0 
 40 13  1  0  0  0  0 
 41 16  1  0  0  0  0 
 42 16  1  0  0  0  0 
 43 18  1  0  0  0  0 
 44 18  1  0  0  0  0 
 45 18  1  0  0  0  0 
 46 20  1  0  0  0  0 
 47 20  1  0  0  0  0 
M  END
> <cdk:Title>
androstenedione

> <Conformer>
1

> <SuperDrugID>
SD000178

$$$$
