paliperidone palmitate
  CDK     0628171801

105109  0  0  0  0  0  0  0  0999 V2000
   -1.5572   12.8350   -3.3047 F   0  0  0  0  0  0  0  0  0  0  0  0
   -1.7636   11.6011   -2.9301 C   0  0  0  0  0  0  0  0  0  0  0  0
   -1.5187   10.5467   -3.8384 C   0  0  0  0  0  0  0  0  0  0  0  0
   -2.2265   11.3245   -1.6202 C   0  0  0  0  0  0  0  0  0  0  0  0
   -1.7485    9.2322   -3.4047 C   0  0  0  0  0  0  0  0  0  0  0  0
   -2.4523    9.9935   -1.2016 C   0  0  0  0  0  0  0  0  0  0  0  0
   -2.2016    8.9559   -2.1200 C   0  0  0  0  0  0  0  0  0  0  0  0
   -1.6065    8.0725   -4.0764 O   0  0  0  0  0  0  0  0  0  0  0  0
   -2.3235    7.5723   -2.0577 C   0  0  0  0  0  0  0  0  0  0  0  0
   -1.9559    7.1040   -3.2701 N   0  0  0  0  0  0  0  0  0  0  0  0
   -2.8139    6.7260   -0.9368 C   0  0  2  0  0  0  0  0  0  0  0  0
   -2.0123    5.3880   -0.8554 C   0  0  2  0  0  0  0  0  0  0  0  0
   -4.3461    6.4868   -1.1007 C   0  0  1  0  0  0  0  0  0  0  0  0
   -2.6740    4.3478    0.0841 C   0  0  1  0  0  0  0  0  0  0  0  0
   -4.8822    5.3763   -0.1523 C   0  0  1  0  0  0  0  0  0  0  0  0
   -4.1077    4.0976   -0.2715 N   0  0  1  0  0  0  0  0  0  0  0  0
   -4.4146    3.3398   -1.5379 C   0  0  2  0  0  0  0  0  0  0  0  0
   -3.7083    1.9703   -1.7307 C   0  0  1  0  0  0  0  0  0  0  0  0
   -4.1152    1.3191   -3.0213 C   0  0  0  0  0  0  0  0  0  0  0  0
   -5.3006    0.5373   -3.1209 C   0  0  0  0  0  0  0  0  0  0  0  0
   -3.3577    1.4794   -4.2113 C   0  0  0  0  0  0  0  0  0  0  0  0
   -6.0081    0.3959   -2.0931 O   0  0  0  0  0  0  0  0  0  0  0  0
   -5.6851   -0.0592   -4.3053 N   0  0  0  0  0  0  0  0  0  0  0  0
   -2.1001    2.2596   -4.3031 C   0  0  0  0  0  0  0  0  0  0  0  0
   -3.7938    0.8940   -5.3497 N   0  0  0  0  0  0  0  0  0  0  0  0
   -4.9241    0.1514   -5.4322 C   0  0  0  0  0  0  0  0  0  0  0  0
   -6.8828   -0.8883   -4.3640 C   0  0  1  0  0  0  0  0  0  0  0  0
   -5.2397   -0.4036   -6.7781 C   0  0  2  0  0  0  0  0  0  0  0  0
   -6.9677   -1.8412   -5.5852 C   0  0  1  0  0  0  0  0  0  0  0  0
   -5.1418    0.6554   -7.7455 O   0  0  0  0  0  0  0  0  0  0  0  0
   -6.6467   -1.0543   -6.8704 C   0  0  1  0  0  0  0  0  0  0  0  0
   -5.1374    0.5052   -9.0999 C   0  0  0  0  0  0  0  0  0  0  0  0
   -4.0016   -0.1241   -9.8088 C   0  0  2  0  0  0  0  0  0  0  0  0
   -6.0778    1.0231   -9.7457 O   0  0  0  0  0  0  0  0  0  0  0  0
   -3.2181    0.9187  -10.6460 C   0  0  1  0  0  0  0  0  0  0  0  0
   -1.9717    0.3341  -11.3612 C   0  0  2  0  0  0  0  0  0  0  0  0
   -1.2479    1.4231  -12.1968 C   0  0  2  0  0  0  0  0  0  0  0  0
   -0.0160    0.8912  -12.9724 C   0  0  2  0  0  0  0  0  0  0  0  0
    0.6598    2.0037  -13.8192 C   0  0  1  0  0  0  0  0  0  0  0  0
    1.8839    1.4792  -14.6119 C   0  0  1  0  0  0  0  0  0  0  0  0
    2.5564    2.5885  -15.4604 C   0  0  1  0  0  0  0  0  0  0  0  0
    3.7789    2.0546  -16.2475 C   0  0  2  0  0  0  0  0  0  0  0  0
    4.4564    3.1586  -17.0956 C   0  0  1  0  0  0  0  0  0  0  0  0
    5.6775    2.6138  -17.8766 C   0  0  2  0  0  0  0  0  0  0  0  0
    6.3607    3.7130  -18.7270 C   0  0  2  0  0  0  0  0  0  0  0  0
    7.5823    3.1654  -19.5072 C   0  0  1  0  0  0  0  0  0  0  0  0
    8.2710    4.2605  -20.3606 C   0  0  1  0  0  0  0  0  0  0  0  0
    9.4877    3.7150  -21.1378 C   0  0  0  0  0  0  0  0  0  0  0  0
   -1.1879   10.7252   -4.7905 H   0  0  0  0  0  0  0  0  0  0  0  0
   -2.4041   12.0935   -0.9684 H   0  0  0  0  0  0  0  0  0  0  0  0
   -2.7959    9.7953   -0.2579 H   0  0  0  0  0  0  0  0  0  0  0  0
   -2.6631    7.2594    0.0078 H   0  0  0  0  0  0  0  0  0  0  0  0
   -0.9980    5.5936   -0.5021 H   0  0  0  0  0  0  0  0  0  0  0  0
   -1.9323    4.9345   -1.8465 H   0  0  0  0  0  0  0  0  0  0  0  0
   -4.8868    7.4138   -0.8927 H   0  0  0  0  0  0  0  0  0  0  0  0
   -4.5759    6.2135   -2.1329 H   0  0  0  0  0  0  0  0  0  0  0  0
   -2.0994    3.4198    0.0801 H   0  0  0  0  0  0  0  0  0  0  0  0
   -2.6280    4.7231    1.1114 H   0  0  0  0  0  0  0  0  0  0  0  0
   -4.8174    5.7318    0.8803 H   0  0  0  0  0  0  0  0  0  0  0  0
   -5.9437    5.2048   -0.3514 H   0  0  0  0  0  0  0  0  0  0  0  0
   -4.1927    3.9572   -2.4115 H   0  0  0  0  0  0  0  0  0  0  0  0
   -5.4914    3.1435   -1.5482 H   0  0  0  0  0  0  0  0  0  0  0  0
   -2.6292    2.1148   -1.7083 H   0  0  0  0  0  0  0  0  0  0  0  0
   -3.9354    1.3177   -0.8862 H   0  0  0  0  0  0  0  0  0  0  0  0
   -1.7225    2.3146   -5.3269 H   0  0  0  0  0  0  0  0  0  0  0  0
   -2.2636    3.2795   -3.9545 H   0  0  0  0  0  0  0  0  0  0  0  0
   -1.3306    1.7904   -3.6876 H   0  0  0  0  0  0  0  0  0  0  0  0
   -6.9522   -1.5233   -3.4777 H   0  0  0  0  0  0  0  0  0  0  0  0
   -7.7589   -0.2332   -4.3661 H   0  0  0  0  0  0  0  0  0  0  0  0
   -4.4841   -1.1641   -6.9943 H   0  0  0  0  0  0  0  0  0  0  0  0
   -6.2481   -2.6570   -5.4696 H   0  0  0  0  0  0  0  0  0  0  0  0
   -7.9667   -2.2796   -5.6578 H   0  0  0  0  0  0  0  0  0  0  0  0
   -7.4024   -0.2739   -7.0061 H   0  0  0  0  0  0  0  0  0  0  0  0
   -6.6927   -1.7159   -7.7425 H   0  0  0  0  0  0  0  0  0  0  0  0
   -4.3814   -0.9207  -10.4544 H   0  0  0  0  0  0  0  0  0  0  0  0
   -3.3208   -0.5731   -9.0821 H   0  0  0  0  0  0  0  0  0  0  0  0
   -3.8884    1.3437  -11.3994 H   0  0  0  0  0  0  0  0  0  0  0  0
   -2.8929    1.7284   -9.9847 H   0  0  0  0  0  0  0  0  0  0  0  0
   -2.2814   -0.4823  -12.0195 H   0  0  0  0  0  0  0  0  0  0  0  0
   -1.2798   -0.0702  -10.6166 H   0  0  0  0  0  0  0  0  0  0  0  0
   -0.9235    2.2262  -11.5284 H   0  0  0  0  0  0  0  0  0  0  0  0
   -1.9562    1.8457  -12.9153 H   0  0  0  0  0  0  0  0  0  0  0  0
   -0.3312    0.0798  -13.6349 H   0  0  0  0  0  0  0  0  0  0  0  0
    0.7114    0.4884  -12.2613 H   0  0  0  0  0  0  0  0  0  0  0  0
   -0.0710    2.4132  -14.5237 H   0  0  0  0  0  0  0  0  0  0  0  0
    0.9826    2.8133  -13.1573 H   0  0  0  0  0  0  0  0  0  0  0  0
    2.6161    1.0727  -13.9081 H   0  0  0  0  0  0  0  0  0  0  0  0
    1.5602    0.6699  -15.2731 H   0  0  0  0  0  0  0  0  0  0  0  0
    1.8255    2.9946  -16.1658 H   0  0  0  0  0  0  0  0  0  0  0  0
    2.8805    3.3987  -14.8007 H   0  0  0  0  0  0  0  0  0  0  0  0
    3.4543    1.2452  -16.9078 H   0  0  0  0  0  0  0  0  0  0  0  0
    4.5089    1.6471  -15.5421 H   0  0  0  0  0  0  0  0  0  0  0  0
    3.7296    3.5662  -17.8042 H   0  0  0  0  0  0  0  0  0  0  0  0
    4.7834    3.9691  -16.4379 H   0  0  0  0  0  0  0  0  0  0  0  0
    5.3506    1.8031  -18.5347 H   0  0  0  0  0  0  0  0  0  0  0  0
    6.4043    2.2056  -17.1680 H   0  0  0  0  0  0  0  0  0  0  0  0
    6.6880    4.5236  -18.0690 H   0  0  0  0  0  0  0  0  0  0  0  0
    5.6342    4.1211  -19.4361 H   0  0  0  0  0  0  0  0  0  0  0  0
    8.3062    2.7559  -18.7961 H   0  0  0  0  0  0  0  0  0  0  0  0
    7.2528    2.3535  -20.1627 H   0  0  0  0  0  0  0  0  0  0  0  0
    7.5520    4.6712  -21.0751 H   0  0  0  0  0  0  0  0  0  0  0  0
    8.6047    5.0734  -19.7094 H   0  0  0  0  0  0  0  0  0  0  0  0
    9.9389    4.5180  -21.7221 H   0  0  0  0  0  0  0  0  0  0  0  0
   10.2355    3.3220  -20.4461 H   0  0  0  0  0  0  0  0  0  0  0  0
    9.1785    2.9181  -21.8173 H   0  0  0  0  0  0  0  0  0  0  0  0
  1  2  1  0  0  0  0 
  2  3  1  0  0  0  0 
  2  4  2  0  0  0  0 
  3  5  2  0  0  0  0 
  4  6  1  0  0  0  0 
  5  7  1  0  0  0  0 
  5  8  1  0  0  0  0 
  6  7  2  0  0  0  0 
  7  9  1  0  0  0  0 
  8 10  1  0  0  0  0 
  9 10  2  0  0  0  0 
  9 11  1  0  0  0  0 
 11 12  1  0  0  0  0 
 11 13  1  0  0  0  0 
 12 14  1  0  0  0  0 
 13 15  1  0  0  0  0 
 14 16  1  0  0  0  0 
 15 16  1  0  0  0  0 
 16 17  1  0  0  0  0 
 17 18  1  0  0  0  0 
 18 19  1  0  0  0  0 
 19 20  1  0  0  0  0 
 19 21  2  0  0  0  0 
 20 22  2  0  0  0  0 
 20 23  1  0  0  0  0 
 21 24  1  0  0  0  0 
 21 25  1  0  0  0  0 
 23 26  1  0  0  0  0 
 23 27  1  0  0  0  0 
 25 26  2  0  0  0  0 
 28 26  1  0  0  0  0 
 27 29  1  0  0  0  0 
 28 30  1  0  0  0  0 
 28 31  1  0  0  0  0 
 29 31  1  0  0  0  0 
 30 32  1  0  0  0  0 
 32 33  1  0  0  0  0 
 32 34  2  0  0  0  0 
 33 35  1  0  0  0  0 
 35 36  1  0  0  0  0 
 36 37  1  0  0  0  0 
 37 38  1  0  0  0  0 
 38 39  1  0  0  0  0 
 39 40  1  0  0  0  0 
 40 41  1  0  0  0  0 
 41 42  1  0  0  0  0 
 42 43  1  0  0  0  0 
 43 44  1  0  0  0  0 
 44 45  1  0  0  0  0 
 45 46  1  0  0  0  0 
 46 47  1  0  0  0  0 
 47 48  1  0  0  0  0 
  3 49  1  0  0  0  0 
  4 50  1  0  0  0  0 
  6 51  1  0  0  0  0 
 11 52  1  0  0  0  0 
 12 53  1  0  0  0  0 
 12 54  1  0  0  0  0 
 13 55  1  0  0  0  0 
 13 56  1  0  0  0  0 
 14 57  1  0  0  0  0 
 14 58  1  0  0  0  0 
 15 59  1  0  0  0  0 
 15 60  1  0  0  0  0 
 17 61  1  0  0  0  0 
 17 62  1  0  0  0  0 
 18 63  1  0  0  0  0 
 18 64  1  0  0  0  0 
 24 65  1  0  0  0  0 
 24 66  1  0  0  0  0 
 24 67  1  0  0  0  0 
 27 68  1  0  0  0  0 
 27 69  1  0  0  0  0 
 28 70  1  0  0  0  0 
 29 71  1  0  0  0  0 
 29 72  1  0  0  0  0 
 31 73  1  0  0  0  0 
 31 74  1  0  0  0  0 
 33 75  1  0  0  0  0 
 33 76  1  0  0  0  0 
 35 77  1  0  0  0  0 
 35 78  1  0  0  0  0 
 36 79  1  0  0  0  0 
 36 80  1  0  0  0  0 
 37 81  1  0  0  0  0 
 37 82  1  0  0  0  0 
 38 83  1  0  0  0  0 
 38 84  1  0  0  0  0 
 39 85  1  0  0  0  0 
 39 86  1  0  0  0  0 
 40 87  1  0  0  0  0 
 40 88  1  0  0  0  0 
 41 89  1  0  0  0  0 
 41 90  1  0  0  0  0 
 42 91  1  0  0  0  0 
 42 92  1  0  0  0  0 
 43 93  1  0  0  0  0 
 43 94  1  0  0  0  0 
 44 95  1  0  0  0  0 
 44 96  1  0  0  0  0 
 45 97  1  0  0  0  0 
 45 98  1  0  0  0  0 
 46 99  1  0  0  0  0 
 46100  1  0  0  0  0 
 47101  1  0  0  0  0 
 47102  1  0  0  0  0 
 48103  1  0  0  0  0 
 48104  1  0  0  0  0 
 48105  1  0  0  0  0 
M  END
> <cdk:Title>
paliperidone palmitate

> <Conformer>
1

> <SuperDrugID>
SD003597

$$$$
