repirinast
  CDK     0628171801

 47 49  0  0  0  0  0  0  0  0999 V2000
   -3.9099    2.3725   -3.8538 O   0  0  0  0  0  0  0  0  0  0  0  0
   -3.2285    1.4429   -3.3659 C   0  0  0  0  0  0  0  0  0  0  0  0
   -3.2838    0.1168   -3.8539 C   0  0  0  0  0  0  0  0  0  0  0  0
   -2.4086    1.7625   -2.3333 N   0  0  0  0  0  0  0  0  0  0  0  0
   -2.4468   -0.8403   -3.2273 C   0  0  0  0  0  0  0  0  0  0  0  0
   -4.1043   -0.3171   -4.9254 C   0  0  0  0  0  0  0  0  0  0  0  0
   -1.6005    0.8688   -1.6900 C   0  0  0  0  0  0  0  0  0  0  0  0
   -1.6124   -0.4812   -2.1428 C   0  0  0  0  0  0  0  0  0  0  0  0
   -2.4496   -2.1230   -3.6998 O   0  0  0  0  0  0  0  0  0  0  0  0
   -4.8731    0.4709   -5.5252 O   0  0  0  0  0  0  0  0  0  0  0  0
   -4.0785   -1.6550   -5.3632 C   0  0  0  0  0  0  0  0  0  0  0  0
   -0.7542    1.2606   -0.6068 C   0  0  0  0  0  0  0  0  0  0  0  0
   -0.7901   -1.4320   -1.5068 C   0  0  0  0  0  0  0  0  0  0  0  0
   -3.2140   -2.5742   -4.7378 C   0  0  0  0  0  0  0  0  0  0  0  0
   -0.7290    2.6777   -0.1313 C   0  0  0  0  0  0  0  0  0  0  0  0
    0.0960    0.2844    0.0011 C   0  0  0  0  0  0  0  0  0  0  0  0
    0.0474   -1.0530   -0.4522 C   0  0  0  0  0  0  0  0  0  0  0  0
   -3.0910   -3.9205   -5.1404 C   0  0  0  0  0  0  0  0  0  0  0  0
    1.0451    0.6088    1.1050 C   0  0  0  0  0  0  0  0  0  0  0  0
   -3.8773   -4.4389   -6.1336 O   0  0  0  0  0  0  0  0  0  0  0  0
   -2.2355   -4.6435   -4.5755 O   0  0  0  0  0  0  0  0  0  0  0  0
   -3.8028   -5.7749   -6.6550 C   0  0  2  0  0  0  0  0  0  0  0  0
   -4.8708   -6.0162   -7.7517 C   0  0  1  0  0  0  0  0  0  0  0  0
   -6.3489   -5.7208   -7.3390 C   0  0  2  0  0  0  0  0  0  0  0  0
   -6.8090   -6.5674   -6.1206 C   0  0  0  0  0  0  0  0  0  0  0  0
   -7.3121   -5.9367   -8.5421 C   0  0  0  0  0  0  0  0  0  0  0  0
   -2.4028    2.6873   -2.0463 H   0  0  0  0  0  0  0  0  0  0  0  0
   -4.6785   -1.9509   -6.1380 H   0  0  0  0  0  0  0  0  0  0  0  0
   -0.7871   -2.4116   -1.8031 H   0  0  0  0  0  0  0  0  0  0  0  0
    0.1037    3.2006   -0.6030 H   0  0  0  0  0  0  0  0  0  0  0  0
   -0.6112    2.7392    0.9500 H   0  0  0  0  0  0  0  0  0  0  0  0
   -1.6500    3.2122   -0.3561 H   0  0  0  0  0  0  0  0  0  0  0  0
    0.6262   -1.7757   -0.0159 H   0  0  0  0  0  0  0  0  0  0  0  0
    1.7095    1.4221    0.8079 H   0  0  0  0  0  0  0  0  0  0  0  0
    1.6732   -0.2407    1.3798 H   0  0  0  0  0  0  0  0  0  0  0  0
    0.4948    0.9056    1.9987 H   0  0  0  0  0  0  0  0  0  0  0  0
   -3.9251   -6.4988   -5.8434 H   0  0  0  0  0  0  0  0  0  0  0  0
   -2.8120   -5.9298   -7.0924 H   0  0  0  0  0  0  0  0  0  0  0  0
   -4.6128   -5.3829   -8.6032 H   0  0  0  0  0  0  0  0  0  0  0  0
   -4.7909   -7.0560   -8.0813 H   0  0  0  0  0  0  0  0  0  0  0  0
   -6.4266   -4.6649   -7.0577 H   0  0  0  0  0  0  0  0  0  0  0  0
   -6.2501   -6.2850   -5.2278 H   0  0  0  0  0  0  0  0  0  0  0  0
   -7.8680   -6.3993   -5.9138 H   0  0  0  0  0  0  0  0  0  0  0  0
   -6.6536   -7.6306   -6.3144 H   0  0  0  0  0  0  0  0  0  0  0  0
   -7.0171   -5.3119   -9.3885 H   0  0  0  0  0  0  0  0  0  0  0  0
   -8.3344   -5.6650   -8.2670 H   0  0  0  0  0  0  0  0  0  0  0  0
   -7.3054   -6.9816   -8.8624 H   0  0  0  0  0  0  0  0  0  0  0  0
  1  2  2  0  0  0  0 
  2  3  1  0  0  0  0 
  2  4  1  0  0  0  0 
  3  5  2  0  0  0  0 
  3  6  1  0  0  0  0 
  4  7  1  0  0  0  0 
  5  8  1  0  0  0  0 
  5  9  1  0  0  0  0 
  6 10  2  0  0  0  0 
  6 11  1  0  0  0  0 
  7  8  1  0  0  0  0 
  7 12  2  0  0  0  0 
  8 13  2  0  0  0  0 
  9 14  1  0  0  0  0 
 11 14  2  0  0  0  0 
 12 15  1  0  0  0  0 
 12 16  1  0  0  0  0 
 13 17  1  0  0  0  0 
 14 18  1  0  0  0  0 
 16 17  2  0  0  0  0 
 16 19  1  0  0  0  0 
 18 20  1  0  0  0  0 
 18 21  2  0  0  0  0 
 20 22  1  0  0  0  0 
 22 23  1  0  0  0  0 
 23 24  1  0  0  0  0 
 24 25  1  0  0  0  0 
 24 26  1  0  0  0  0 
  4 27  1  0  0  0  0 
 11 28  1  0  0  0  0 
 13 29  1  0  0  0  0 
 15 30  1  0  0  0  0 
 15 31  1  0  0  0  0 
 15 32  1  0  0  0  0 
 17 33  1  0  0  0  0 
 19 34  1  0  0  0  0 
 19 35  1  0  0  0  0 
 19 36  1  0  0  0  0 
 22 37  1  0  0  0  0 
 22 38  1  0  0  0  0 
 23 39  1  0  0  0  0 
 23 40  1  0  0  0  0 
 24 41  1  0  0  0  0 
 25 42  1  0  0  0  0 
 25 43  1  0  0  0  0 
 25 44  1  0  0  0  0 
 26 45  1  0  0  0  0 
 26 46  1  0  0  0  0 
 26 47  1  0  0  0  0 
M  END
> <cdk:Title>
repirinast

> <Conformer>
1

> <SuperDrugID>
SD002129

$$$$
