fluostigmine
  CDK     0628171801

 25 24  0  0  0  0  0  0  0  0999 V2000
   -1.0887    0.1402   -3.5519 C   0  0  0  0  0  0  0  0  0  0  0  0
   -0.6593    0.2654   -2.0694 C   0  0  1  0  0  0  0  0  0  0  0  0
   -1.8986    0.2306   -1.1337 C   0  0  0  0  0  0  0  0  0  0  0  0
    0.2571   -0.8288   -1.8155 O   0  0  0  0  0  0  0  0  0  0  0  0
    1.2551   -0.7140   -0.5669 P   0  0  2  0  0  0  0  0  0  0  0  0
    2.0326    0.6112   -0.6749 F   0  0  0  0  0  0  0  0  0  0  0  0
    2.1753   -1.8584   -0.6114 O   0  0  0  0  0  0  0  0  0  0  0  0
    0.3931   -0.7548    0.7794 O   0  0  0  0  0  0  0  0  0  0  0  0
    1.0983   -0.8236    2.0405 C   0  0  2  0  0  0  0  0  0  0  0  0
    0.0793   -1.3475    3.0810 C   0  0  0  0  0  0  0  0  0  0  0  0
    1.6837    0.5465    2.4785 C   0  0  0  0  0  0  0  0  0  0  0  0
   -1.6191   -0.7979   -3.7197 H   0  0  0  0  0  0  0  0  0  0  0  0
   -1.7407    0.9691   -3.8385 H   0  0  0  0  0  0  0  0  0  0  0  0
   -0.2075    0.1612   -4.1963 H   0  0  0  0  0  0  0  0  0  0  0  0
   -0.1639    1.2369   -1.9721 H   0  0  0  0  0  0  0  0  0  0  0  0
   -1.6295    0.5788   -0.1362 H   0  0  0  0  0  0  0  0  0  0  0  0
   -2.6945    0.8782   -1.5071 H   0  0  0  0  0  0  0  0  0  0  0  0
   -2.2826   -0.7880   -1.0591 H   0  0  0  0  0  0  0  0  0  0  0  0
    1.9091   -1.5606    2.0051 H   0  0  0  0  0  0  0  0  0  0  0  0
   -0.3183   -2.3132    2.7609 H   0  0  0  0  0  0  0  0  0  0  0  0
   -0.7531   -0.6483    3.1922 H   0  0  0  0  0  0  0  0  0  0  0  0
    0.5626   -1.4819    4.0511 H   0  0  0  0  0  0  0  0  0  0  0  0
    2.0343    0.5028    3.5118 H   0  0  0  0  0  0  0  0  0  0  0  0
    0.9249    1.3286    2.3958 H   0  0  0  0  0  0  0  0  0  0  0  0
    2.5359    0.8175    1.8536 H   0  0  0  0  0  0  0  0  0  0  0  0
  1  2  1  0  0  0  0 
  2  3  1  0  0  0  0 
  2  4  1  0  0  0  0 
  4  5  1  0  0  0  0 
  5  6  1  0  0  0  0 
  5  7  2  0  0  0  0 
  5  8  1  0  0  0  0 
  8  9  1  0  0  0  0 
  9 10  1  0  0  0  0 
  9 11  1  0  0  0  0 
  1 12  1  0  0  0  0 
  1 13  1  0  0  0  0 
  1 14  1  0  0  0  0 
  2 15  1  0  0  0  0 
  3 16  1  0  0  0  0 
  3 17  1  0  0  0  0 
  3 18  1  0  0  0  0 
  9 19  1  0  0  0  0 
 10 20  1  0  0  0  0 
 10 21  1  0  0  0  0 
 10 22  1  0  0  0  0 
 11 23  1  0  0  0  0 
 11 24  1  0  0  0  0 
 11 25  1  0  0  0  0 
M  END
> <cdk:Title>
fluostigmine

> <Conformer>
1

> <SuperDrugID>
SD001324

$$$$
