phenprobamate
  CDK     0628171801

 26 26  0  0  0  0  0  0  0  0999 V2000
   -2.0787    0.4981    1.7591 C   0  0  2  0  0  0  0  0  0  0  0  0
   -2.0909   -0.1788    0.3630 C   0  0  2  0  0  0  0  0  0  0  0  0
   -3.4088    1.0799    2.0885 C   0  0  0  0  0  0  0  0  0  0  0  0
   -0.7552   -0.8621   -0.0107 C   0  0  2  0  0  0  0  0  0  0  0  0
   -4.3917    0.3058    2.7521 C   0  0  0  0  0  0  0  0  0  0  0  0
   -3.7305    2.4083    1.7179 C   0  0  0  0  0  0  0  0  0  0  0  0
    0.3207    0.0849   -0.0493 O   0  0  0  0  0  0  0  0  0  0  0  0
   -5.6611    0.8415    3.0328 C   0  0  0  0  0  0  0  0  0  0  0  0
   -4.9994    2.9458    1.9983 C   0  0  0  0  0  0  0  0  0  0  0  0
    1.6290   -0.2081   -0.2988 C   0  0  0  0  0  0  0  0  0  0  0  0
   -5.9641    2.1621    2.6560 C   0  0  0  0  0  0  0  0  0  0  0  0
    2.5338    0.7809   -0.2815 N   0  0  0  0  0  0  0  0  0  0  0  0
    2.0162   -1.3750   -0.5327 O   0  0  0  0  0  0  0  0  0  0  0  0
   -1.3158    1.2815    1.7776 H   0  0  0  0  0  0  0  0  0  0  0  0
   -1.7954   -0.2368    2.5182 H   0  0  0  0  0  0  0  0  0  0  0  0
   -2.3218    0.5713   -0.3982 H   0  0  0  0  0  0  0  0  0  0  0  0
   -2.8803   -0.9353    0.3414 H   0  0  0  0  0  0  0  0  0  0  0  0
   -0.8600   -1.3253   -0.9948 H   0  0  0  0  0  0  0  0  0  0  0  0
   -0.5282   -1.6453    0.7177 H   0  0  0  0  0  0  0  0  0  0  0  0
   -4.1885   -0.6571    3.0314 H   0  0  0  0  0  0  0  0  0  0  0  0
   -3.0410    2.9914    1.2370 H   0  0  0  0  0  0  0  0  0  0  0  0
   -6.3625    0.2715    3.5093 H   0  0  0  0  0  0  0  0  0  0  0  0
   -5.2201    3.9048    1.7235 H   0  0  0  0  0  0  0  0  0  0  0  0
   -6.8845    2.5522    2.8615 H   0  0  0  0  0  0  0  0  0  0  0  0
    3.4697    0.5856   -0.4459 H   0  0  0  0  0  0  0  0  0  0  0  0
    2.2561    1.6925   -0.1017 H   0  0  0  0  0  0  0  0  0  0  0  0
  1  2  1  0  0  0  0 
  1  3  1  0  0  0  0 
  2  4  1  0  0  0  0 
  3  5  2  0  0  0  0 
  3  6  1  0  0  0  0 
  4  7  1  0  0  0  0 
  5  8  1  0  0  0  0 
  6  9  2  0  0  0  0 
  7 10  1  0  0  0  0 
  8 11  2  0  0  0  0 
  9 11  1  0  0  0  0 
 10 12  1  0  0  0  0 
 10 13  2  0  0  0  0 
 14  1  1  0  0  0  0 
 15  1  1  0  0  0  0 
 16  2  1  0  0  0  0 
 17  2  1  0  0  0  0 
 18  4  1  0  0  0  0 
 19  4  1  0  0  0  0 
 20  5  1  0  0  0  0 
 21  6  1  0  0  0  0 
 22  8  1  0  0  0  0 
 23  9  1  0  0  0  0 
 24 11  1  0  0  0  0 
 25 12  1  0  0  0  0 
 26 12  1  0  0  0  0 
M  END
> <cdk:Title>
phenprobamate

> <Conformer>
1

> <SuperDrugID>
SD001917

$$$$
