hyoscyamine
  CDK     0628171801

 44 46  0  0  0  0  0  0  0  0999 V2000
   -3.3539    0.0349    1.4884 O   0  0  0  0  0  0  0  0  0  0  0  0
   -4.6769   -0.1877    1.7576 C   0  0  0  0  0  0  0  0  0  0  0  0
   -2.2333   -0.0897    2.3824 C   0  0  2  0  0  0  0  0  0  0  0  0
   -5.6426   -0.0707    0.6395 C   0  0  2  0  0  0  0  0  0  0  0  0
   -5.0477   -0.5201    2.9091 O   0  0  0  0  0  0  0  0  0  0  0  0
   -1.9798    1.2610    3.1275 C   0  0  2  0  0  0  0  0  0  0  0  0
   -0.9922   -0.5845    1.5707 C   0  0  1  0  0  0  0  0  0  0  0  0
   -7.1076    0.1868    1.0996 C   0  0  1  0  0  0  0  0  0  0  0  0
   -5.4803   -1.2756   -0.2346 C   0  0  0  0  0  0  0  0  0  0  0  0
   -1.0253    2.2194    2.3469 C   0  0  1  0  0  0  0  0  0  0  0  0
   -0.1406    0.5815    0.9761 C   0  0  2  0  0  0  0  0  0  0  0  0
   -7.9830    0.3025   -0.0165 O   0  0  0  0  0  0  0  0  0  0  0  0
   -5.9463   -2.5495    0.1790 C   0  0  0  0  0  0  0  0  0  0  0  0
   -4.8129   -1.1809   -1.4811 C   0  0  0  0  0  0  0  0  0  0  0  0
    0.2294    1.4545    2.1224 N   0  0  1  0  0  0  0  0  0  0  0  0
   -1.5180    2.5973    0.9235 C   0  0  2  0  0  0  0  0  0  0  0  0
   -0.9314    1.4994    0.0069 C   0  0  1  0  0  0  0  0  0  0  0  0
   -5.7545   -3.6874   -0.6236 C   0  0  0  0  0  0  0  0  0  0  0  0
   -4.6038   -2.3235   -2.2761 C   0  0  0  0  0  0  0  0  0  0  0  0
    1.4730    2.2595    1.9632 C   0  0  0  0  0  0  0  0  0  0  0  0
   -5.0776   -3.5759   -1.8500 C   0  0  0  0  0  0  0  0  0  0  0  0
   -2.4728   -0.8584    3.1235 H   0  0  0  0  0  0  0  0  0  0  0  0
   -5.3559    0.8304    0.0881 H   0  0  0  0  0  0  0  0  0  0  0  0
   -1.5207    1.0431    4.0967 H   0  0  0  0  0  0  0  0  0  0  0  0
   -2.9280    1.7647    3.3318 H   0  0  0  0  0  0  0  0  0  0  0  0
   -0.3487   -1.1732    2.2321 H   0  0  0  0  0  0  0  0  0  0  0  0
   -1.3169   -1.2502    0.7666 H   0  0  0  0  0  0  0  0  0  0  0  0
   -7.4681   -0.6185    1.7416 H   0  0  0  0  0  0  0  0  0  0  0  0
   -7.1572    1.1185    1.6681 H   0  0  0  0  0  0  0  0  0  0  0  0
   -0.8644    3.1159    2.9548 H   0  0  0  0  0  0  0  0  0  0  0  0
    0.7354    0.1548    0.4790 H   0  0  0  0  0  0  0  0  0  0  0  0
   -8.8586    0.5030    0.3746 H   0  0  0  0  0  0  0  0  0  0  0  0
   -6.4260   -2.6615    1.0744 H   0  0  0  0  0  0  0  0  0  0  0  0
   -4.4603   -0.2798   -1.8149 H   0  0  0  0  0  0  0  0  0  0  0  0
   -1.1163    3.5758    0.6416 H   0  0  0  0  0  0  0  0  0  0  0  0
   -2.6084    2.6421    0.8623 H   0  0  0  0  0  0  0  0  0  0  0  0
   -0.2553    1.9428   -0.7292 H   0  0  0  0  0  0  0  0  0  0  0  0
   -1.7118    0.9571   -0.5322 H   0  0  0  0  0  0  0  0  0  0  0  0
   -6.1050   -4.5956   -0.3130 H   0  0  0  0  0  0  0  0  0  0  0  0
   -4.1042   -2.2435   -3.1645 H   0  0  0  0  0  0  0  0  0  0  0  0
    1.4320    2.9058    1.0838 H   0  0  0  0  0  0  0  0  0  0  0  0
    1.6320    2.8785    2.8501 H   0  0  0  0  0  0  0  0  0  0  0  0
    2.3302    1.5903    1.8664 H   0  0  0  0  0  0  0  0  0  0  0  0
   -4.9276   -4.4040   -2.4287 H   0  0  0  0  0  0  0  0  0  0  0  0
  1  2  1  0  0  0  0 
  4  2  1  0  0  0  0 
  2  5  2  0  0  0  0 
  3  1  1  0  0  0  0 
  3  6  1  0  0  0  0 
  3  7  1  0  0  0  0 
  4  8  1  0  0  0  0 
  4  9  1  0  0  0  0 
 10  6  1  0  0  0  0 
 11  7  1  0  0  0  0 
  8 12  1  0  0  0  0 
  9 13  2  0  0  0  0 
  9 14  1  0  0  0  0 
 10 15  1  0  0  0  0 
 10 16  1  0  0  0  0 
 11 15  1  0  0  0  0 
 11 17  1  0  0  0  0 
 13 18  1  0  0  0  0 
 14 19  2  0  0  0  0 
 15 20  1  0  0  0  0 
 16 17  1  0  0  0  0 
 18 21  2  0  0  0  0 
 19 21  1  0  0  0  0 
  3 22  1  0  0  0  0 
  4 23  1  0  0  0  0 
  6 24  1  0  0  0  0 
  6 25  1  0  0  0  0 
  7 26  1  0  0  0  0 
  7 27  1  0  0  0  0 
  8 28  1  0  0  0  0 
  8 29  1  0  0  0  0 
 10 30  1  0  0  0  0 
 11 31  1  0  0  0  0 
 12 32  1  0  0  0  0 
 13 33  1  0  0  0  0 
 14 34  1  0  0  0  0 
 16 35  1  0  0  0  0 
 16 36  1  0  0  0  0 
 17 37  1  0  0  0  0 
 17 38  1  0  0  0  0 
 18 39  1  0  0  0  0 
 19 40  1  0  0  0  0 
 20 41  1  0  0  0  0 
 20 42  1  0  0  0  0 
 20 43  1  0  0  0  0 
 21 44  1  0  0  0  0 
M  END
> <cdk:Title>
hyoscyamine

> <Conformer>
1

> <SuperDrugID>
SD001246

$$$$
