ornithine
  CDK     0628171801

 21 20  0  0  0  0  0  0  0  0999 V2000
   -2.5272    0.8134    3.2086 N   0  0  1  0  0  0  0  0  0  0  0  0
   -1.3373    0.1158    2.7130 C   0  0  2  0  0  0  0  0  0  0  0  0
   -0.1227    1.0708    2.6442 C   0  0  2  0  0  0  0  0  0  0  0  0
    1.1567    0.3507    2.1332 C   0  0  2  0  0  0  0  0  0  0  0  0
    2.4017    1.2763    2.0134 C   0  0  2  0  0  0  0  0  0  0  0  0
    3.4802    0.5520    1.3271 N   0  0  1  0  0  0  0  0  0  0  0  0
    2.9062    1.7475    3.3216 C   0  0  0  0  0  0  0  0  0  0  0  0
    3.3761    0.8705    4.2404 O   0  0  0  0  0  0  0  0  0  0  0  0
    2.9133    2.9660    3.6065 O   0  0  0  0  0  0  0  0  0  0  0  0
   -3.2680    0.1130    3.2834 H   0  0  0  0  0  0  0  0  0  0  0  0
   -2.3180    1.1240    4.1601 H   0  0  0  0  0  0  0  0  0  0  0  0
   -1.5597   -0.2821    1.7203 H   0  0  0  0  0  0  0  0  0  0  0  0
   -1.1196   -0.7176    3.3850 H   0  0  0  0  0  0  0  0  0  0  0  0
    0.0634    1.4749    3.6426 H   0  0  0  0  0  0  0  0  0  0  0  0
   -0.3646    1.9034    1.9779 H   0  0  0  0  0  0  0  0  0  0  0  0
    0.9392   -0.0675    1.1448 H   0  0  0  0  0  0  0  0  0  0  0  0
    1.3901   -0.4877    2.7981 H   0  0  0  0  0  0  0  0  0  0  0  0
    2.1454    2.1339    1.3837 H   0  0  0  0  0  0  0  0  0  0  0  0
    4.2865    1.1760    1.2797 H   0  0  0  0  0  0  0  0  0  0  0  0
    3.7425   -0.2287    1.9301 H   0  0  0  0  0  0  0  0  0  0  0  0
    3.7253    1.1970    5.0969 H   0  0  0  0  0  0  0  0  0  0  0  0
  1  2  1  0  0  0  0 
  2  3  1  0  0  0  0 
  3  4  1  0  0  0  0 
  4  5  1  0  0  0  0 
  5  6  1  0  0  0  0 
  5  7  1  0  0  0  0 
  7  8  1  0  0  0  0 
  7  9  2  0  0  0  0 
  1 10  1  0  0  0  0 
  1 11  1  0  0  0  0 
  2 12  1  0  0  0  0 
  2 13  1  0  0  0  0 
  3 14  1  0  0  0  0 
  3 15  1  0  0  0  0 
  4 16  1  0  0  0  0 
  4 17  1  0  0  0  0 
  5 18  1  0  0  0  0 
  6 19  1  0  0  0  0 
  6 20  1  0  0  0  0 
  8 21  1  0  0  0  0 
M  END
> <cdk:Title>
ornithine

> <Conformer>
1

> <SuperDrugID>
SD002927

$$$$
