fenoxypropazine
  CDK     0628171801

 26 26  0  0  0  0  0  0  0  0999 V2000
   -1.9738   -3.3594   -2.8655 C   0  0  0  0  0  0  0  0  0  0  0  0
   -1.6829   -2.9569   -1.3946 C   0  0  2  0  0  0  0  0  0  0  0  0
   -0.9157   -1.6086   -1.3569 C   0  0  1  0  0  0  0  0  0  0  0  0
   -0.6771   -1.1704   -0.0003 O   0  0  0  0  0  0  0  0  0  0  0  0
    0.0070    0.0176    0.0349 C   0  0  0  0  0  0  0  0  0  0  0  0
   -0.6937    1.2428    0.0445 C   0  0  0  0  0  0  0  0  0  0  0  0
    0.0123    2.4601    0.0228 C   0  0  0  0  0  0  0  0  0  0  0  0
    1.4194    2.4594    0.0075 C   0  0  0  0  0  0  0  0  0  0  0  0
    2.1217    1.2391    0.0231 C   0  0  0  0  0  0  0  0  0  0  0  0
    1.4187    0.0215    0.0450 C   0  0  0  0  0  0  0  0  0  0  0  0
   -0.8976   -3.9872   -0.6770 N   0  0  2  0  0  0  0  0  0  0  0  0
   -1.5720   -5.2144   -0.5836 N   0  0  1  0  0  0  0  0  0  0  0  0
   -2.5482   -2.5745   -3.3643 H   0  0  0  0  0  0  0  0  0  0  0  0
   -2.5615   -4.2778   -2.9011 H   0  0  0  0  0  0  0  0  0  0  0  0
   -1.0419   -3.5170   -3.4137 H   0  0  0  0  0  0  0  0  0  0  0  0
   -2.6373   -2.8191   -0.8771 H   0  0  0  0  0  0  0  0  0  0  0  0
    0.0353   -1.7299   -1.8893 H   0  0  0  0  0  0  0  0  0  0  0  0
   -1.5140   -0.8552   -1.8832 H   0  0  0  0  0  0  0  0  0  0  0  0
   -1.7165    1.2477    0.0549 H   0  0  0  0  0  0  0  0  0  0  0  0
   -0.4974    3.3464    0.0154 H   0  0  0  0  0  0  0  0  0  0  0  0
    1.9318    3.3440   -0.0073 H   0  0  0  0  0  0  0  0  0  0  0  0
    3.1440    1.2387    0.0156 H   0  0  0  0  0  0  0  0  0  0  0  0
    1.9319   -0.8633    0.0555 H   0  0  0  0  0  0  0  0  0  0  0  0
   -0.7829   -3.6569    0.2835 H   0  0  0  0  0  0  0  0  0  0  0  0
   -0.9840   -5.8298   -0.0170 H   0  0  0  0  0  0  0  0  0  0  0  0
   -2.4305   -5.0520   -0.0532 H   0  0  0  0  0  0  0  0  0  0  0  0
  2  1  1  0  0  0  0 
  2  3  1  0  0  0  0 
  3  4  1  0  0  0  0 
  4  5  1  0  0  0  0 
  5  6  2  0  0  0  0 
  6  7  1  0  0  0  0 
  7  8  2  0  0  0  0 
  8  9  1  0  0  0  0 
  9 10  2  0  0  0  0 
  5 10  1  0  0  0  0 
  2 11  1  0  0  0  0 
 11 12  1  0  0  0  0 
  1 13  1  0  0  0  0 
  1 14  1  0  0  0  0 
  1 15  1  0  0  0  0 
  2 16  1  0  0  0  0 
  3 17  1  0  0  0  0 
  3 18  1  0  0  0  0 
  6 19  1  0  0  0  0 
  7 20  1  0  0  0  0 
  8 21  1  0  0  0  0 
  9 22  1  0  0  0  0 
 10 23  1  0  0  0  0 
 11 24  1  0  0  0  0 
 12 25  1  0  0  0  0 
 12 26  1  0  0  0  0 
M  END
> <cdk:Title>
fenoxypropazine

> <Conformer>
1

> <SuperDrugID>
SD003253

$$$$
