cefotiam hexetil
  CDK     0628171802

 83 87  0  0  0  0  0  0  0  0999 V2000
   -4.1606   -3.5044   -0.6227 C   0  0  0  0  0  0  0  0  0  0  0  0
   -3.1171   -4.3826   -0.4624 O   0  0  0  0  0  0  0  0  0  0  0  0
   -4.3385   -2.5910    0.2200 O   0  0  0  0  0  0  0  0  0  0  0  0
   -5.0282   -3.5819   -1.7142 C   0  0  0  0  0  0  0  0  0  0  0  0
   -2.1409   -4.3710    0.5952 C   0  0  1  0  0  0  0  0  0  0  0  0
   -5.3819   -2.4072   -2.2839 N   0  0  0  0  0  0  0  0  0  0  0  0
   -5.5297   -4.7532   -2.2107 C   0  0  0  0  0  0  0  0  0  0  0  0
   -2.7999   -4.4951    1.8691 O   0  0  0  0  0  0  0  0  0  0  0  0
   -1.1583   -5.5443    0.4317 C   0  0  0  0  0  0  0  0  0  0  0  0
   -6.5407   -2.0675   -3.0302 C   0  0  1  0  0  0  0  0  0  0  0  0
   -4.7920   -1.2050   -2.4286 C   0  0  0  0  0  0  0  0  0  0  0  0
   -5.3102   -6.0579   -1.5632 C   0  0  2  0  0  0  0  0  0  0  0  0
   -6.3644   -4.8194   -3.4336 C   0  0  2  0  0  0  0  0  0  0  0  0
   -2.9760   -3.5135    2.7994 C   0  0  0  0  0  0  0  0  0  0  0  0
   -5.9192   -0.6586   -3.2479 C   0  0  1  0  0  0  0  0  0  0  0  0
   -6.5782   -3.2738   -4.3882 S   0  0  0  0  0  0  0  0  0  0  0  0
   -3.6609   -0.7857   -2.0315 O   0  0  0  0  0  0  0  0  0  0  0  0
   -3.9762   -6.9727   -2.4116 S   0  0  0  0  0  0  0  0  0  0  0  0
   -3.7202   -3.8076    3.9056 O   0  0  0  0  0  0  0  0  0  0  0  0
   -2.4776   -2.3726    2.6433 O   0  0  0  0  0  0  0  0  0  0  0  0
   -5.5013   -0.3294   -4.5707 N   0  0  0  0  0  0  0  0  0  0  0  0
   -3.7838   -8.4474   -1.4826 C   0  0  0  0  0  0  0  0  0  0  0  0
   -4.1700   -2.8609    4.8917 C   0  0  2  0  0  0  0  0  0  0  0  0
   -4.9292    0.8514   -4.9265 C   0  0  0  0  0  0  0  0  0  0  0  0
   -4.6326   -9.4801   -1.3271 N   0  0  0  0  0  0  0  0  0  0  0  0
   -2.6802   -8.7300   -0.7842 N   0  0  0  0  0  0  0  0  0  0  0  0
   -4.6359   -3.6055    6.1718 C   0  0  1  0  0  0  0  0  0  0  0  0
   -5.3397   -2.0245    4.2914 C   0  0  2  0  0  0  0  0  0  0  0  0
   -4.3442    0.9759   -6.2751 C   0  0  2  0  0  0  0  0  0  0  0  0
   -4.8582    1.8152   -4.1266 O   0  0  0  0  0  0  0  0  0  0  0  0
   -5.9406   -9.6835   -1.8797 C   0  0  2  0  0  0  0  0  0  0  0  0
   -4.0397  -10.3332   -0.5550 N   0  0  0  0  0  0  0  0  0  0  0  0
   -2.8722   -9.8808   -0.2299 N   0  0  0  0  0  0  0  0  0  0  0  0
   -5.2284   -2.6248    7.2204 C   0  0  2  0  0  0  0  0  0  0  0  0
   -5.9527   -1.0406    5.3199 C   0  0  2  0  0  0  0  0  0  0  0  0
   -3.1581    0.0986   -6.3632 C   0  0  0  0  0  0  0  0  0  0  0  0
   -7.0267   -9.7839   -0.7749 C   0  0  1  0  0  0  0  0  0  0  0  0
   -6.3779   -1.7666    6.6240 C   0  0  2  0  0  0  0  0  0  0  0  0
   -1.9757    0.4725   -5.7951 N   0  0  0  0  0  0  0  0  0  0  0  0
   -3.1678   -1.1705   -6.9632 C   0  0  0  0  0  0  0  0  0  0  0  0
   -8.4070   -9.9416   -1.3434 N   0  0  1  0  0  0  0  0  0  0  0  0
   -0.9556   -0.4069   -5.8694 C   0  0  0  0  0  0  0  0  0  0  0  0
   -1.5479   -1.8052   -6.7483 S   0  0  0  0  0  0  0  0  0  0  0  0
   -9.3139  -10.7427   -0.4678 C   0  0  0  0  0  0  0  0  0  0  0  0
   -9.0340   -8.6578   -1.7827 C   0  0  0  0  0  0  0  0  0  0  0  0
    0.2702   -0.2312   -5.3544 N   0  0  0  0  0  0  0  0  0  0  0  0
   -7.4489   -2.0716   -2.4177 H   0  0  0  0  0  0  0  0  0  0  0  0
   -1.5736   -3.4392    0.5224 H   0  0  0  0  0  0  0  0  0  0  0  0
   -0.3824   -5.4903    1.1981 H   0  0  0  0  0  0  0  0  0  0  0  0
   -1.6894   -6.4918    0.5350 H   0  0  0  0  0  0  0  0  0  0  0  0
   -0.6830   -5.5016   -0.5498 H   0  0  0  0  0  0  0  0  0  0  0  0
   -6.2234   -6.6561   -1.5916 H   0  0  0  0  0  0  0  0  0  0  0  0
   -5.0599   -5.9706   -0.5047 H   0  0  0  0  0  0  0  0  0  0  0  0
   -7.3619   -5.1706   -3.1640 H   0  0  0  0  0  0  0  0  0  0  0  0
   -5.9438   -5.5406   -4.1362 H   0  0  0  0  0  0  0  0  0  0  0  0
   -6.4691    0.1329   -2.7290 H   0  0  0  0  0  0  0  0  0  0  0  0
   -5.5818   -1.0109   -5.2561 H   0  0  0  0  0  0  0  0  0  0  0  0
   -3.3379   -2.2022    5.1639 H   0  0  0  0  0  0  0  0  0  0  0  0
   -5.3935   -4.3475    5.9064 H   0  0  0  0  0  0  0  0  0  0  0  0
   -3.7875   -4.1368    6.6109 H   0  0  0  0  0  0  0  0  0  0  0  0
   -6.1230   -2.7034    3.9404 H   0  0  0  0  0  0  0  0  0  0  0  0
   -4.9841   -1.4595    3.4267 H   0  0  0  0  0  0  0  0  0  0  0  0
   -4.0358    2.0067   -6.4678 H   0  0  0  0  0  0  0  0  0  0  0  0
   -5.0935    0.7124   -7.0271 H   0  0  0  0  0  0  0  0  0  0  0  0
   -5.9367  -10.6163   -2.4520 H   0  0  0  0  0  0  0  0  0  0  0  0
   -6.1920   -8.8834   -2.5754 H   0  0  0  0  0  0  0  0  0  0  0  0
   -4.4370   -1.9664    7.5926 H   0  0  0  0  0  0  0  0  0  0  0  0
   -5.6116   -3.1956    8.0705 H   0  0  0  0  0  0  0  0  0  0  0  0
   -6.8282   -0.5586    4.8747 H   0  0  0  0  0  0  0  0  0  0  0  0
   -5.2234   -0.2594    5.5544 H   0  0  0  0  0  0  0  0  0  0  0  0
   -6.7641  -10.6590   -0.1689 H   0  0  0  0  0  0  0  0  0  0  0  0
   -6.9783   -8.9077   -0.1174 H   0  0  0  0  0  0  0  0  0  0  0  0
   -6.6938   -1.0224    7.3600 H   0  0  0  0  0  0  0  0  0  0  0  0
   -7.2377   -2.4105    6.4135 H   0  0  0  0  0  0  0  0  0  0  0  0
   -3.9572   -1.6441   -7.4077 H   0  0  0  0  0  0  0  0  0  0  0  0
   -8.9332  -11.7625   -0.3758 H   0  0  0  0  0  0  0  0  0  0  0  0
  -10.3177  -10.8094   -0.8934 H   0  0  0  0  0  0  0  0  0  0  0  0
   -9.3862  -10.3063    0.5319 H   0  0  0  0  0  0  0  0  0  0  0  0
   -8.3781   -8.1031   -2.4536 H   0  0  0  0  0  0  0  0  0  0  0  0
   -9.9535   -8.8622   -2.3355 H   0  0  0  0  0  0  0  0  0  0  0  0
   -9.2704   -8.0165   -0.9292 H   0  0  0  0  0  0  0  0  0  0  0  0
    0.9393   -0.9285   -5.4340 H   0  0  0  0  0  0  0  0  0  0  0  0
    0.4880    0.5985   -4.9002 H   0  0  0  0  0  0  0  0  0  0  0  0
  1  2  1  0  0  0  0 
  1  3  2  0  0  0  0 
  1  4  1  0  0  0  0 
  2  5  1  0  0  0  0 
  4  6  1  0  0  0  0 
  4  7  2  0  0  0  0 
  5  8  1  0  0  0  0 
  5  9  1  0  0  0  0 
 10  6  1  0  0  0  0 
  6 11  1  0  0  0  0 
  7 12  1  0  0  0  0 
  7 13  1  0  0  0  0 
  8 14  1  0  0  0  0 
 15 10  1  0  0  0  0 
 10 16  1  0  0  0  0 
 10 47  1  0  0  0  0 
 15 11  1  0  0  0  0 
 11 17  2  0  0  0  0 
 12 18  1  0  0  0  0 
 13 16  1  0  0  0  0 
 14 19  1  0  0  0  0 
 14 20  2  0  0  0  0 
 15 21  1  0  0  0  0 
 18 22  1  0  0  0  0 
 19 23  1  0  0  0  0 
 21 24  1  0  0  0  0 
 22 25  1  0  0  0  0 
 22 26  2  0  0  0  0 
 23 27  1  0  0  0  0 
 23 28  1  0  0  0  0 
 24 29  1  0  0  0  0 
 24 30  2  0  0  0  0 
 25 31  1  0  0  0  0 
 25 32  1  0  0  0  0 
 26 33  1  0  0  0  0 
 27 34  1  0  0  0  0 
 28 35  1  0  0  0  0 
 29 36  1  0  0  0  0 
 31 37  1  0  0  0  0 
 32 33  2  0  0  0  0 
 34 38  1  0  0  0  0 
 35 38  1  0  0  0  0 
 36 39  1  0  0  0  0 
 36 40  2  0  0  0  0 
 37 41  1  0  0  0  0 
 39 42  2  0  0  0  0 
 40 43  1  0  0  0  0 
 41 44  1  0  0  0  0 
 41 45  1  0  0  0  0 
 42 43  1  0  0  0  0 
 42 46  1  0  0  0  0 
  5 48  1  0  0  0  0 
  9 49  1  0  0  0  0 
  9 50  1  0  0  0  0 
  9 51  1  0  0  0  0 
 12 52  1  0  0  0  0 
 12 53  1  0  0  0  0 
 13 54  1  0  0  0  0 
 13 55  1  0  0  0  0 
 15 56  1  0  0  0  0 
 21 57  1  0  0  0  0 
 23 58  1  0  0  0  0 
 27 59  1  0  0  0  0 
 27 60  1  0  0  0  0 
 28 61  1  0  0  0  0 
 28 62  1  0  0  0  0 
 29 63  1  0  0  0  0 
 29 64  1  0  0  0  0 
 31 65  1  0  0  0  0 
 31 66  1  0  0  0  0 
 34 67  1  0  0  0  0 
 34 68  1  0  0  0  0 
 35 69  1  0  0  0  0 
 35 70  1  0  0  0  0 
 37 71  1  0  0  0  0 
 37 72  1  0  0  0  0 
 38 73  1  0  0  0  0 
 38 74  1  0  0  0  0 
 40 75  1  0  0  0  0 
 44 76  1  0  0  0  0 
 44 77  1  0  0  0  0 
 44 78  1  0  0  0  0 
 45 79  1  0  0  0  0 
 45 80  1  0  0  0  0 
 45 81  1  0  0  0  0 
 46 82  1  0  0  0  0 
 46 83  1  0  0  0  0 
M  END
> <cdk:Title>
cefotiam hexetil

> <Conformer>
1

> <SuperDrugID>
SD000477

$$$$
