ciclobendazole
  CDK     0628171801

 32 34  0  0  0  0  0  0  0  0999 V2000
    0.9977    2.2306   -0.8788 C   0  0  0  0  0  0  0  0  0  0  0  0
    0.9836    3.4395   -1.2130 O   0  0  0  0  0  0  0  0  0  0  0  0
    1.0719    1.2036   -1.8724 C   0  0  0  0  0  0  0  0  0  0  0  0
    0.9881    1.9433    0.5750 C   0  0  2  0  0  0  0  0  0  0  0  0
    1.2721    1.5412   -3.2419 C   0  0  0  0  0  0  0  0  0  0  0  0
    0.9717   -0.1786   -1.5324 C   0  0  0  0  0  0  0  0  0  0  0  0
   -0.3805    1.5438    1.1542 C   0  0  1  0  0  0  0  0  0  0  0  0
    0.2692    2.8688    1.5737 C   0  0  1  0  0  0  0  0  0  0  0  0
    1.3936    0.5179   -4.1944 C   0  0  0  0  0  0  0  0  0  0  0  0
    1.0879   -1.1951   -2.5044 C   0  0  0  0  0  0  0  0  0  0  0  0
    1.3146   -0.8207   -3.8362 C   0  0  0  0  0  0  0  0  0  0  0  0
    1.6071    0.5577   -5.5134 N   0  0  0  0  0  0  0  0  0  0  0  0
    1.4916   -1.5729   -4.9326 N   0  0  0  0  0  0  0  0  0  0  0  0
    1.6775   -0.7107   -5.9573 C   0  0  0  0  0  0  0  0  0  0  0  0
    1.9083   -1.0189   -7.2586 N   0  0  0  0  0  0  0  0  0  0  0  0
    2.1533   -2.2511   -7.7748 C   0  0  0  0  0  0  0  0  0  0  0  0
    2.3391   -2.3180   -9.1217 O   0  0  0  0  0  0  0  0  0  0  0  0
    2.2158   -3.2866   -7.0700 O   0  0  0  0  0  0  0  0  0  0  0  0
    2.6299   -3.4900   -9.8860 C   0  0  0  0  0  0  0  0  0  0  0  0
    1.8342    1.3898    0.9917 H   0  0  0  0  0  0  0  0  0  0  0  0
    1.3465    2.5141   -3.5516 H   0  0  0  0  0  0  0  0  0  0  0  0
    0.8167   -0.4721   -0.5665 H   0  0  0  0  0  0  0  0  0  0  0  0
   -1.2491    1.6381    0.4972 H   0  0  0  0  0  0  0  0  0  0  0  0
   -0.3655    0.7470    1.9013 H   0  0  0  0  0  0  0  0  0  0  0  0
    0.6789    2.8844    2.5875 H   0  0  0  0  0  0  0  0  0  0  0  0
   -0.1948    3.7721    1.1731 H   0  0  0  0  0  0  0  0  0  0  0  0
    1.0102   -2.1808   -2.2422 H   0  0  0  0  0  0  0  0  0  0  0  0
    1.7079    1.3565   -6.0548 H   0  0  0  0  0  0  0  0  0  0  0  0
    1.9052   -0.2769   -7.8847 H   0  0  0  0  0  0  0  0  0  0  0  0
    2.6706   -3.2176  -10.9409 H   0  0  0  0  0  0  0  0  0  0  0  0
    1.8515   -4.2426   -9.7475 H   0  0  0  0  0  0  0  0  0  0  0  0
    3.5948   -3.9033   -9.5900 H   0  0  0  0  0  0  0  0  0  0  0  0
  1  2  2  0  0  0  0 
  1  3  1  0  0  0  0 
  1  4  1  0  0  0  0 
  3  5  1  0  0  0  0 
  3  6  2  0  0  0  0 
  4  7  1  0  0  0  0 
  4  8  1  0  0  0  0 
  5  9  2  0  0  0  0 
  6 10  1  0  0  0  0 
  7  8  1  0  0  0  0 
  9 11  1  0  0  0  0 
  9 12  1  0  0  0  0 
 10 11  2  0  0  0  0 
 11 13  1  0  0  0  0 
 12 14  1  0  0  0  0 
 13 14  2  0  0  0  0 
 14 15  1  0  0  0  0 
 15 16  1  0  0  0  0 
 16 17  1  0  0  0  0 
 16 18  2  0  0  0  0 
 17 19  1  0  0  0  0 
 20  4  1  0  0  0  0 
 21  5  1  0  0  0  0 
 22  6  1  0  0  0  0 
 23  7  1  0  0  0  0 
 24  7  1  0  0  0  0 
 25  8  1  0  0  0  0 
 26  8  1  0  0  0  0 
 27 10  1  0  0  0  0 
 28 12  1  0  0  0  0 
 29 15  1  0  0  0  0 
 30 19  1  0  0  0  0 
 31 19  1  0  0  0  0 
 32 19  1  0  0  0  0 
M  END
> <cdk:Title>
ciclobendazole

> <Conformer>
1

> <SuperDrugID>
SD002704

$$$$
