petrichloral
  CDK     0628171801

 49 48  0  0  0  0  0  0  0  0999 V2000
    1.8082    3.7715   -1.9853 C   0  0  1  0  0  0  0  0  0  0  0  0
    0.8070    2.5643   -2.1094 C   0  0  1  0  0  0  0  0  0  0  0  0
    3.2240    3.2673   -1.5255 C   0  0  1  0  0  0  0  0  0  0  0  0
    1.9078    4.4563   -3.3948 C   0  0  1  0  0  0  0  0  0  0  0  0
    1.2946    4.8005   -0.9138 C   0  0  1  0  0  0  0  0  0  0  0  0
    0.5968    1.8973   -0.8470 O   0  0  0  0  0  0  0  0  0  0  0  0
    3.8287    2.3853   -2.4936 O   0  0  0  0  0  0  0  0  0  0  0  0
    2.8508    5.5466   -3.4056 O   0  0  0  0  0  0  0  0  0  0  0  0
    0.0172    5.3668   -1.2706 O   0  0  0  0  0  0  0  0  0  0  0  0
   -0.2827    0.7482   -0.8790 C   0  0  1  0  0  0  0  0  0  0  0  0
    5.1369    1.8710   -2.1499 C   0  0  1  0  0  0  0  0  0  0  0  0
    2.9773    6.2597   -4.6581 C   0  0  1  0  0  0  0  0  0  0  0  0
   -0.5447    6.3042   -0.3219 C   0  0  2  0  0  0  0  0  0  0  0  0
   -0.2879    0.0696    0.5154 C   0  0  1  0  0  0  0  0  0  0  0  0
   -1.6156    1.1298   -1.2310 O   0  0  0  0  0  0  0  0  0  0  0  0
    5.5776    0.8371   -3.2194 C   0  0  1  0  0  0  0  0  0  0  0  0
    6.1040    2.9231   -2.0781 O   0  0  0  0  0  0  0  0  0  0  0  0
    3.9163    7.4795   -4.4612 C   0  0  2  0  0  0  0  0  0  0  0  0
    3.5037    5.4112   -5.6830 O   0  0  0  0  0  0  0  0  0  0  0  0
   -1.9645    6.7175   -0.7907 C   0  0  2  0  0  0  0  0  0  0  0  0
    0.2751    7.4703   -0.1982 O   0  0  0  0  0  0  0  0  0  0  0  0
   -1.3280   -1.3521    0.5364 Cl  0  0  0  0  0  0  0  0  0  0  0  0
    1.3296   -0.4691    0.9557 Cl  0  0  0  0  0  0  0  0  0  0  0  0
   -0.8546    1.1705    1.7688 Cl  0  0  0  0  0  0  0  0  0  0  0  0
    7.1549    0.1490   -2.8385 Cl  0  0  0  0  0  0  0  0  0  0  0  0
    4.4375   -0.5028   -3.3025 Cl  0  0  0  0  0  0  0  0  0  0  0  0
    5.6782    1.5658   -4.8210 Cl  0  0  0  0  0  0  0  0  0  0  0  0
    5.5247    6.9804   -3.9398 Cl  0  0  0  0  0  0  0  0  0  0  0  0
    3.2665    8.5786   -3.2472 Cl  0  0  0  0  0  0  0  0  0  0  0  0
    4.0930    8.4026   -5.9531 Cl  0  0  0  0  0  0  0  0  0  0  0  0
   -2.7151    7.8408    0.3413 Cl  0  0  0  0  0  0  0  0  0  0  0  0
   -3.0208    5.3125   -0.9001 Cl  0  0  0  0  0  0  0  0  0  0  0  0
   -1.9237    7.4924   -2.3732 Cl  0  0  0  0  0  0  0  0  0  0  0  0
   -0.1540    2.9301   -2.4865 H   0  0  0  0  0  0  0  0  0  0  0  0
    1.1970    1.8437   -2.8371 H   0  0  0  0  0  0  0  0  0  0  0  0
    3.8796    4.1304   -1.3750 H   0  0  0  0  0  0  0  0  0  0  0  0
    3.1352    2.7472   -0.5664 H   0  0  0  0  0  0  0  0  0  0  0  0
    2.2133    3.7134   -4.1364 H   0  0  0  0  0  0  0  0  0  0  0  0
    0.9227    4.8301   -3.6881 H   0  0  0  0  0  0  0  0  0  0  0  0
    1.2110    4.3043    0.0587 H   0  0  0  0  0  0  0  0  0  0  0  0
    2.0257    5.6078   -0.8118 H   0  0  0  0  0  0  0  0  0  0  0  0
    0.0694    0.0229   -1.6193 H   0  0  0  0  0  0  0  0  0  0  0  0
    5.1024    1.3733   -1.1754 H   0  0  0  0  0  0  0  0  0  0  0  0
    1.9980    6.6239   -4.9860 H   0  0  0  0  0  0  0  0  0  0  0  0
   -0.6245    5.8383    0.6656 H   0  0  0  0  0  0  0  0  0  0  0  0
   -1.5650    1.4321   -2.1632 H   0  0  0  0  0  0  0  0  0  0  0  0
    5.8424    3.4683   -1.3055 H   0  0  0  0  0  0  0  0  0  0  0  0
    2.8082    4.7386   -5.8469 H   0  0  0  0  0  0  0  0  0  0  0  0
    1.1085    7.1629    0.2188 H   0  0  0  0  0  0  0  0  0  0  0  0
  1  2  1  0  0  0  0 
  1  3  1  0  0  0  0 
  1  4  1  0  0  0  0 
  1  5  1  0  0  0  0 
  2  6  1  0  0  0  0 
  3  7  1  0  0  0  0 
  4  8  1  0  0  0  0 
  5  9  1  0  0  0  0 
  6 10  1  0  0  0  0 
  7 11  1  0  0  0  0 
  8 12  1  0  0  0  0 
  9 13  1  0  0  0  0 
 10 14  1  0  0  0  0 
 10 15  1  0  0  0  0 
 11 16  1  0  0  0  0 
 11 17  1  0  0  0  0 
 12 18  1  0  0  0  0 
 12 19  1  0  0  0  0 
 13 20  1  0  0  0  0 
 13 21  1  0  0  0  0 
 14 22  1  0  0  0  0 
 14 23  1  0  0  0  0 
 14 24  1  0  0  0  0 
 16 25  1  0  0  0  0 
 16 26  1  0  0  0  0 
 16 27  1  0  0  0  0 
 18 28  1  0  0  0  0 
 18 29  1  0  0  0  0 
 18 30  1  0  0  0  0 
 20 31  1  0  0  0  0 
 20 32  1  0  0  0  0 
 20 33  1  0  0  0  0 
  2 34  1  0  0  0  0 
  2 35  1  0  0  0  0 
  3 36  1  0  0  0  0 
  3 37  1  0  0  0  0 
  4 38  1  0  0  0  0 
  4 39  1  0  0  0  0 
  5 40  1  0  0  0  0 
  5 41  1  0  0  0  0 
 10 42  1  0  0  0  0 
 11 43  1  0  0  0  0 
 12 44  1  0  0  0  0 
 13 45  1  0  0  0  0 
 15 46  1  0  0  0  0 
 17 47  1  0  0  0  0 
 19 48  1  0  0  0  0 
 21 49  1  0  0  0  0 
M  END
> <cdk:Title>
petrichloral

> <Conformer>
1

> <SuperDrugID>
SD001870

$$$$
