cyclopentobarbital
  CDK     0628171801

 31 32  0  0  0  0  0  0  0  0999 V2000
    1.3252   -1.2504    0.1305 C   0  0  1  0  0  0  0  0  0  0  0  0
    1.6964   -2.6538    0.2826 C   0  0  0  0  0  0  0  0  0  0  0  0
    1.3297   -0.4144    1.4700 C   0  0  2  0  0  0  0  0  0  0  0  0
    2.8748   -3.1654   -0.0967 C   0  0  0  0  0  0  0  0  0  0  0  0
    2.7307   -0.4305    2.0289 C   0  0  0  0  0  0  0  0  0  0  0  0
    0.3785   -1.0394    2.4605 C   0  0  0  0  0  0  0  0  0  0  0  0
    0.9439    1.0993    1.1902 C   0  0  2  0  0  0  0  0  0  0  0  0
    3.6876    0.0269    1.3619 O   0  0  0  0  0  0  0  0  0  0  0  0
    3.0287   -0.9234    3.2608 N   0  0  0  0  0  0  0  0  0  0  0  0
   -0.8352   -1.1850    2.1851 O   0  0  0  0  0  0  0  0  0  0  0  0
    0.7825   -1.4946    3.6771 N   0  0  0  0  0  0  0  0  0  0  0  0
    0.9728    2.0564    2.4237 C   0  0  2  0  0  0  0  0  0  0  0  0
   -0.3917    1.3239    0.6795 C   0  0  0  0  0  0  0  0  0  0  0  0
    2.0767   -1.4426    4.0724 C   0  0  0  0  0  0  0  0  0  0  0  0
   -0.4841    2.5168    2.6480 C   0  0  2  0  0  0  0  0  0  0  0  0
   -1.1583    2.0693    1.4707 C   0  0  0  0  0  0  0  0  0  0  0  0
    2.4027   -1.8842    5.1967 O   0  0  0  0  0  0  0  0  0  0  0  0
    1.9809   -0.7653   -0.6000 H   0  0  0  0  0  0  0  0  0  0  0  0
    0.3272   -1.2354   -0.3156 H   0  0  0  0  0  0  0  0  0  0  0  0
    1.0306   -3.2685    0.6930 H   0  0  0  0  0  0  0  0  0  0  0  0
    3.5776   -2.5954   -0.5056 H   0  0  0  0  0  0  0  0  0  0  0  0
    3.0654   -4.1320    0.0322 H   0  0  0  0  0  0  0  0  0  0  0  0
    1.6306    1.4980    0.4328 H   0  0  0  0  0  0  0  0  0  0  0  0
    3.9496   -0.9036    3.5679 H   0  0  0  0  0  0  0  0  0  0  0  0
    0.1253   -1.8754    4.2807 H   0  0  0  0  0  0  0  0  0  0  0  0
    1.6037    2.9236    2.2008 H   0  0  0  0  0  0  0  0  0  0  0  0
    1.3647    1.5812    3.3266 H   0  0  0  0  0  0  0  0  0  0  0  0
   -0.7134    0.9596   -0.1876 H   0  0  0  0  0  0  0  0  0  0  0  0
   -0.5489    3.6054    2.7338 H   0  0  0  0  0  0  0  0  0  0  0  0
   -0.9215    2.0471    3.5336 H   0  0  0  0  0  0  0  0  0  0  0  0
   -2.1027    2.3027    1.2601 H   0  0  0  0  0  0  0  0  0  0  0  0
  1  2  1  0  0  0  0 
  1  3  1  0  0  0  0 
  2  4  2  0  0  0  0 
  3  5  1  0  0  0  0 
  3  6  1  0  0  0  0 
  3  7  1  0  0  0  0 
  5  8  2  0  0  0  0 
  5  9  1  0  0  0  0 
  6 10  2  0  0  0  0 
  6 11  1  0  0  0  0 
  7 12  1  0  0  0  0 
  7 13  1  0  0  0  0 
  9 14  1  0  0  0  0 
 11 14  1  0  0  0  0 
 12 15  1  0  0  0  0 
 13 16  2  0  0  0  0 
 14 17  2  0  0  0  0 
 15 16  1  0  0  0  0 
 18  1  1  0  0  0  0 
 19  1  1  0  0  0  0 
 20  2  1  0  0  0  0 
 21  4  1  0  0  0  0 
 22  4  1  0  0  0  0 
 23  7  1  0  0  0  0 
 24  9  1  0  0  0  0 
 25 11  1  0  0  0  0 
 26 12  1  0  0  0  0 
 27 12  1  0  0  0  0 
 28 13  1  0  0  0  0 
 29 15  1  0  0  0  0 
 30 15  1  0  0  0  0 
 31 16  1  0  0  0  0 
M  END
> <cdk:Title>
cyclopentobarbital

> <Conformer>
1

> <SuperDrugID>
SD003181

$$$$
