eletriptan
  CDK     0628171802

 53 56  0  0  0  0  0  0  0  0999 V2000
   -1.2441   -1.2296    7.3485 C   0  0  0  0  0  0  0  0  0  0  0  0
   -1.5959   -1.4175    5.9058 N   0  0  2  0  0  0  0  0  0  0  0  0
   -3.0520   -1.2204    5.6640 C   0  0  1  0  0  0  0  0  0  0  0  0
   -3.7142   -2.5939    5.9175 C   0  0  1  0  0  0  0  0  0  0  0  0
   -2.5721   -3.6201    5.7464 C   0  0  2  0  0  0  0  0  0  0  0  0
   -1.3529   -2.7701    5.3088 C   0  0  2  0  0  0  0  0  0  0  0  0
    0.0182   -3.4568    5.5752 C   0  0  2  0  0  0  0  0  0  0  0  0
    1.1625   -2.7051    5.0066 C   0  0  0  0  0  0  0  0  0  0  0  0
    2.1218   -1.9832    5.7225 C   0  0  0  0  0  0  0  0  0  0  0  0
    3.0151   -1.4485    4.8727 N   0  0  0  0  0  0  0  0  0  0  0  0
    2.6754   -1.7876    3.6223 C   0  0  0  0  0  0  0  0  0  0  0  0
    1.5336   -2.5874    3.6636 C   0  0  0  0  0  0  0  0  0  0  0  0
    0.9882   -3.1208    2.4791 C   0  0  0  0  0  0  0  0  0  0  0  0
    1.6109   -2.8243    1.2371 C   0  0  0  0  0  0  0  0  0  0  0  0
    1.1062   -3.4021   -0.0378 C   0  0  2  0  0  0  0  0  0  0  0  0
    0.2628   -2.4186   -0.8933 C   0  0  1  0  0  0  0  0  0  0  0  0
   -1.4359   -2.1330   -0.2465 S   0  0  1  0  0  0  0  0  0  0  0  0
   -1.3546   -1.2251    1.0742 O   0  0  0  0  0  0  0  0  0  0  0  0
   -2.2767   -1.3416   -1.3613 O   0  0  0  0  0  0  0  0  0  0  0  0
   -2.2384   -3.6782    0.0838 C   0  0  0  0  0  0  0  0  0  0  0  0
   -2.8775   -3.9149    1.3188 C   0  0  0  0  0  0  0  0  0  0  0  0
   -3.4461   -5.1739    1.5889 C   0  0  0  0  0  0  0  0  0  0  0  0
   -3.3974   -6.1921    0.6186 C   0  0  0  0  0  0  0  0  0  0  0  0
   -2.7714   -5.9566   -0.6187 C   0  0  0  0  0  0  0  0  0  0  0  0
   -2.2055   -4.6978   -0.8905 C   0  0  0  0  0  0  0  0  0  0  0  0
    2.7588   -1.9855    1.2183 C   0  0  0  0  0  0  0  0  0  0  0  0
    3.2972   -1.4584    2.4088 C   0  0  0  0  0  0  0  0  0  0  0  0
   -0.1748   -1.3393    7.5077 H   0  0  0  0  0  0  0  0  0  0  0  0
   -1.5102   -0.2210    7.6680 H   0  0  0  0  0  0  0  0  0  0  0  0
   -1.7662   -1.9395    7.9919 H   0  0  0  0  0  0  0  0  0  0  0  0
   -3.4973   -0.4396    6.2890 H   0  0  0  0  0  0  0  0  0  0  0  0
   -3.1972   -0.9224    4.6190 H   0  0  0  0  0  0  0  0  0  0  0  0
   -4.1186   -2.6386    6.9348 H   0  0  0  0  0  0  0  0  0  0  0  0
   -4.5248   -2.7720    5.2050 H   0  0  0  0  0  0  0  0  0  0  0  0
   -2.8201   -4.3742    4.9924 H   0  0  0  0  0  0  0  0  0  0  0  0
   -2.3730   -4.1233    6.6994 H   0  0  0  0  0  0  0  0  0  0  0  0
   -1.4182   -2.6548    4.2186 H   0  0  0  0  0  0  0  0  0  0  0  0
    0.0148   -4.4550    5.1303 H   0  0  0  0  0  0  0  0  0  0  0  0
    0.1558   -3.5954    6.6485 H   0  0  0  0  0  0  0  0  0  0  0  0
    2.1494   -1.8715    6.7368 H   0  0  0  0  0  0  0  0  0  0  0  0
    3.7817   -0.9079    5.1219 H   0  0  0  0  0  0  0  0  0  0  0  0
    0.1589   -3.7176    2.5199 H   0  0  0  0  0  0  0  0  0  0  0  0
    0.5249   -4.3055    0.1563 H   0  0  0  0  0  0  0  0  0  0  0  0
    1.9646   -3.7269   -0.6337 H   0  0  0  0  0  0  0  0  0  0  0  0
    0.7697   -1.4560   -0.9883 H   0  0  0  0  0  0  0  0  0  0  0  0
    0.1609   -2.8377   -1.8958 H   0  0  0  0  0  0  0  0  0  0  0  0
   -2.9276   -3.1806    2.0283 H   0  0  0  0  0  0  0  0  0  0  0  0
   -3.8928   -5.3491    2.4909 H   0  0  0  0  0  0  0  0  0  0  0  0
   -3.8201   -7.1026    0.8106 H   0  0  0  0  0  0  0  0  0  0  0  0
   -2.7244   -6.6986   -1.3199 H   0  0  0  0  0  0  0  0  0  0  0  0
   -1.7600   -4.5355   -1.7966 H   0  0  0  0  0  0  0  0  0  0  0  0
    3.2245   -1.7655    0.3336 H   0  0  0  0  0  0  0  0  0  0  0  0
    4.1251   -0.8585    2.3918 H   0  0  0  0  0  0  0  0  0  0  0  0
  1  2  1  0  0  0  0 
  2  3  1  0  0  0  0 
  3  4  1  0  0  0  0 
  4  5  1  0  0  0  0 
  5  6  1  0  0  0  0 
  2  6  1  0  0  0  0 
  6  7  1  0  0  0  0 
  7  8  1  0  0  0  0 
  8  9  2  0  0  0  0 
  9 10  1  0  0  0  0 
 10 11  1  0  0  0  0 
 11 12  1  0  0  0  0 
  8 12  1  0  0  0  0 
 12 13  2  0  0  0  0 
 13 14  1  0  0  0  0 
 14 15  1  0  0  0  0 
 15 16  1  0  0  0  0 
 16 17  1  0  0  0  0 
 17 18  2  0  0  0  0 
 17 19  2  0  0  0  0 
 17 20  1  0  0  0  0 
 20 21  2  0  0  0  0 
 21 22  1  0  0  0  0 
 22 23  2  0  0  0  0 
 23 24  1  0  0  0  0 
 24 25  2  0  0  0  0 
 20 25  1  0  0  0  0 
 14 26  2  0  0  0  0 
 26 27  1  0  0  0  0 
 11 27  2  0  0  0  0 
  1 28  1  0  0  0  0 
  1 29  1  0  0  0  0 
  1 30  1  0  0  0  0 
  3 31  1  0  0  0  0 
  3 32  1  0  0  0  0 
  4 33  1  0  0  0  0 
  4 34  1  0  0  0  0 
  5 35  1  0  0  0  0 
  5 36  1  0  0  0  0 
  6 37  1  0  0  0  0 
  7 38  1  0  0  0  0 
  7 39  1  0  0  0  0 
  9 40  1  0  0  0  0 
 10 41  1  0  0  0  0 
 13 42  1  0  0  0  0 
 15 43  1  0  0  0  0 
 15 44  1  0  0  0  0 
 16 45  1  0  0  0  0 
 16 46  1  0  0  0  0 
 21 47  1  0  0  0  0 
 22 48  1  0  0  0  0 
 23 49  1  0  0  0  0 
 24 50  1  0  0  0  0 
 25 51  1  0  0  0  0 
 26 52  1  0  0  0  0 
 27 53  1  0  0  0  0 
M  END
> <cdk:Title>
eletriptan

> <Conformer>
1

> <SuperDrugID>
SD000883

$$$$
