amiphenazole
  CDK     0628171801

 22 23  0  0  0  0  0  0  0  0999 V2000
    0.2770   -2.4523   -1.7992 N   0  0  0  0  0  0  0  0  0  0  0  0
   -0.5732   -2.3911   -0.7546 C   0  0  0  0  0  0  0  0  0  0  0  0
   -0.7338   -1.2538    0.0607 C   0  0  0  0  0  0  0  0  0  0  0  0
   -1.3465   -3.4686   -0.4474 N   0  0  0  0  0  0  0  0  0  0  0  0
   -2.0042   -1.6895    1.1916 S   0  0  0  0  0  0  0  0  0  0  0  0
   -0.0319   -0.0284    0.0323 C   0  0  0  0  0  0  0  0  0  0  0  0
   -2.1956   -3.3259    0.5921 C   0  0  0  0  0  0  0  0  0  0  0  0
   -0.7247    1.1990    0.1422 C   0  0  0  0  0  0  0  0  0  0  0  0
    1.3777   -0.0067   -0.0933 C   0  0  0  0  0  0  0  0  0  0  0  0
   -3.0226   -4.2651    1.0804 N   0  0  0  0  0  0  0  0  0  0  0  0
   -0.0262    2.4195    0.0982 C   0  0  0  0  0  0  0  0  0  0  0  0
    2.0756    1.2146   -0.1306 C   0  0  0  0  0  0  0  0  0  0  0  0
    1.3730    2.4287   -0.0374 C   0  0  0  0  0  0  0  0  0  0  0  0
    0.3465   -3.2656   -2.3226 H   0  0  0  0  0  0  0  0  0  0  0  0
    0.8215   -1.6834   -2.0354 H   0  0  0  0  0  0  0  0  0  0  0  0
   -1.7437    1.2180    0.2388 H   0  0  0  0  0  0  0  0  0  0  0  0
    1.9128   -0.8785   -0.1496 H   0  0  0  0  0  0  0  0  0  0  0  0
   -3.5891   -4.0667    1.8451 H   0  0  0  0  0  0  0  0  0  0  0  0
   -3.0509   -5.1459    0.6729 H   0  0  0  0  0  0  0  0  0  0  0  0
   -0.5392    3.3007    0.1614 H   0  0  0  0  0  0  0  0  0  0  0  0
    3.0933    1.2197   -0.2251 H   0  0  0  0  0  0  0  0  0  0  0  0
    1.8780    3.3153   -0.0680 H   0  0  0  0  0  0  0  0  0  0  0  0
  1  2  1  0  0  0  0 
  2  3  2  0  0  0  0 
  2  4  1  0  0  0  0 
  3  5  1  0  0  0  0 
  3  6  1  0  0  0  0 
  4  7  2  0  0  0  0 
  5  7  1  0  0  0  0 
  6  8  2  0  0  0  0 
  6  9  1  0  0  0  0 
  7 10  1  0  0  0  0 
  8 11  1  0  0  0  0 
  9 12  2  0  0  0  0 
 11 13  2  0  0  0  0 
 12 13  1  0  0  0  0 
  1 14  1  0  0  0  0 
  1 15  1  0  0  0  0 
  8 16  1  0  0  0  0 
  9 17  1  0  0  0  0 
 10 18  1  0  0  0  0 
 10 19  1  0  0  0  0 
 11 20  1  0  0  0  0 
 12 21  1  0  0  0  0 
 13 22  1  0  0  0  0 
M  END
> <cdk:Title>
amiphenazole

> <Conformer>
1

> <SuperDrugID>
SD000143

$$$$
