cerivastatin
  CDK     0628171802

 67 68  0  0  0  0  0  0  0  0999 V2000
   -1.2604    0.5897    1.6565 C   0  0  0  0  0  0  0  0  0  0  0  0
   -0.3073    0.1394    0.8228 C   0  0  0  0  0  0  0  0  0  0  0  0
   -2.5648    0.1175    1.6866 C   0  0  0  0  0  0  0  0  0  0  0  0
    1.0555    0.6540    0.8590 C   0  0  2  0  0  0  0  0  0  0  0  0
   -2.8734   -1.1396    2.2932 C   0  0  0  0  0  0  0  0  0  0  0  0
   -3.6232    0.9187    1.1803 C   0  0  0  0  0  0  0  0  0  0  0  0
    2.0544   -0.1449   -0.0347 C   0  0  1  0  0  0  0  0  0  0  0  0
    1.5250    0.6706    2.2111 O   0  0  0  0  0  0  0  0  0  0  0  0
   -4.2241   -1.5974    2.3812 C   0  0  0  0  0  0  0  0  0  0  0  0
   -1.8149   -1.9074    2.8542 C   0  0  0  0  0  0  0  0  0  0  0  0
   -3.5151    2.2441    0.4762 C   0  0  1  0  0  0  0  0  0  0  0  0
   -4.8815    0.4336    1.3018 N   0  0  0  0  0  0  0  0  0  0  0  0
    3.5509    0.2716    0.0904 C   0  0  2  0  0  0  0  0  0  0  0  0
   -4.5840   -2.9119    3.0058 C   0  0  1  0  0  0  0  0  0  0  0  0
   -5.2435   -0.7444    1.8676 C   0  0  0  0  0  0  0  0  0  0  0  0
   -1.4986   -1.7907    4.2266 C   0  0  0  0  0  0  0  0  0  0  0  0
   -1.0424   -2.7617    2.0366 C   0  0  0  0  0  0  0  0  0  0  0  0
   -2.6253    3.3234    1.1612 C   0  0  0  0  0  0  0  0  0  0  0  0
   -3.1371    2.0307   -1.0145 C   0  0  0  0  0  0  0  0  0  0  0  0
    3.7996    1.7933   -0.2749 C   0  0  1  0  0  0  0  0  0  0  0  0
    4.3217   -0.6983   -0.6739 O   0  0  0  0  0  0  0  0  0  0  0  0
   -5.2208   -2.6420    4.2702 O   0  0  0  0  0  0  0  0  0  0  0  0
   -6.7165   -1.0253    1.8823 C   0  0  2  0  0  0  0  0  0  0  0  0
   -0.4014   -2.4910    4.7630 C   0  0  0  0  0  0  0  0  0  0  0  0
    0.0618   -3.4498    2.5697 C   0  0  0  0  0  0  0  0  0  0  0  0
    5.2002    2.1969   -0.0598 C   0  0  0  0  0  0  0  0  0  0  0  0
   -5.6981   -3.8117    4.9525 C   0  0  0  0  0  0  0  0  0  0  0  0
   -7.2429   -1.2696    0.4432 C   0  0  0  0  0  0  0  0  0  0  0  0
   -7.5118    0.0952    2.6059 C   0  0  0  0  0  0  0  0  0  0  0  0
    0.3854   -3.3128    3.9327 C   0  0  0  0  0  0  0  0  0  0  0  0
    5.9640    2.6535   -1.0796 O   0  0  0  0  0  0  0  0  0  0  0  0
    5.7072    2.1466    1.0832 O   0  0  0  0  0  0  0  0  0  0  0  0
    1.4119   -3.9514    4.4239 F   0  0  0  0  0  0  0  0  0  0  0  0
   -1.0294    1.2941    2.3176 H   0  0  0  0  0  0  0  0  0  0  0  0
   -0.5414   -0.5468    0.1417 H   0  0  0  0  0  0  0  0  0  0  0  0
    1.0048    1.6854    0.5030 H   0  0  0  0  0  0  0  0  0  0  0  0
    1.9812   -1.2020    0.2385 H   0  0  0  0  0  0  0  0  0  0  0  0
    1.7533   -0.0555   -1.0822 H   0  0  0  0  0  0  0  0  0  0  0  0
    2.3448    1.2086    2.1928 H   0  0  0  0  0  0  0  0  0  0  0  0
   -4.5163    2.6924    0.4568 H   0  0  0  0  0  0  0  0  0  0  0  0
    3.8468    0.1231    1.1328 H   0  0  0  0  0  0  0  0  0  0  0  0
   -5.2390   -3.4730    2.3294 H   0  0  0  0  0  0  0  0  0  0  0  0
   -3.7178   -3.5512    3.1836 H   0  0  0  0  0  0  0  0  0  0  0  0
   -2.0565   -1.1913    4.8402 H   0  0  0  0  0  0  0  0  0  0  0  0
   -1.2691   -2.8737    1.0445 H   0  0  0  0  0  0  0  0  0  0  0  0
   -2.8741    4.3162    0.7809 H   0  0  0  0  0  0  0  0  0  0  0  0
   -1.5687    3.1620    0.9541 H   0  0  0  0  0  0  0  0  0  0  0  0
   -2.7802    3.3275    2.2415 H   0  0  0  0  0  0  0  0  0  0  0  0
   -3.0443    2.9903   -1.5269 H   0  0  0  0  0  0  0  0  0  0  0  0
   -2.1914    1.4929   -1.1103 H   0  0  0  0  0  0  0  0  0  0  0  0
   -3.9201    1.4567   -1.5161 H   0  0  0  0  0  0  0  0  0  0  0  0
    3.5378    1.9412   -1.3239 H   0  0  0  0  0  0  0  0  0  0  0  0
    3.1786    2.4576    0.3293 H   0  0  0  0  0  0  0  0  0  0  0  0
    4.1051   -1.5704   -0.2838 H   0  0  0  0  0  0  0  0  0  0  0  0
   -6.9377   -1.9351    2.4386 H   0  0  0  0  0  0  0  0  0  0  0  0
   -0.1734   -2.3963    5.7563 H   0  0  0  0  0  0  0  0  0  0  0  0
    0.6255   -4.0492    1.9617 H   0  0  0  0  0  0  0  0  0  0  0  0
   -4.8901   -4.5206    5.1513 H   0  0  0  0  0  0  0  0  0  0  0  0
   -6.1191   -3.4964    5.9063 H   0  0  0  0  0  0  0  0  0  0  0  0
   -6.4819   -4.3006    4.3703 H   0  0  0  0  0  0  0  0  0  0  0  0
   -8.2855   -1.5970    0.4752 H   0  0  0  0  0  0  0  0  0  0  0  0
   -7.1807   -0.3587   -0.1594 H   0  0  0  0  0  0  0  0  0  0  0  0
   -6.6566   -2.0542   -0.0439 H   0  0  0  0  0  0  0  0  0  0  0  0
   -8.5655   -0.1817    2.6845 H   0  0  0  0  0  0  0  0  0  0  0  0
   -7.4418    1.0413    2.0633 H   0  0  0  0  0  0  0  0  0  0  0  0
   -7.1223    0.2386    3.6160 H   0  0  0  0  0  0  0  0  0  0  0  0
    6.8935    2.9237   -0.9138 H   0  0  0  0  0  0  0  0  0  0  0  0
  1  2  2  0  0  0  0 
  1  3  1  0  0  0  0 
  4  2  1  0  0  0  0 
  3  5  2  0  0  0  0 
  3  6  1  0  0  0  0 
  4  7  1  0  0  0  0 
  4  8  1  0  0  0  0 
  5  9  1  0  0  0  0 
  5 10  1  0  0  0  0 
  6 11  1  0  0  0  0 
  6 12  2  0  0  0  0 
 13  7  1  0  0  0  0 
  9 14  1  0  0  0  0 
  9 15  2  0  0  0  0 
 10 16  2  0  0  0  0 
 10 17  1  0  0  0  0 
 11 18  1  0  0  0  0 
 11 19  1  0  0  0  0 
 12 15  1  0  0  0  0 
 13 20  1  0  0  0  0 
 13 21  1  0  0  0  0 
 14 22  1  0  0  0  0 
 15 23  1  0  0  0  0 
 16 24  1  0  0  0  0 
 17 25  2  0  0  0  0 
 20 26  1  0  0  0  0 
 22 27  1  0  0  0  0 
 23 28  1  0  0  0  0 
 23 29  1  0  0  0  0 
 24 30  2  0  0  0  0 
 25 30  1  0  0  0  0 
 26 31  1  0  0  0  0 
 26 32  2  0  0  0  0 
 30 33  1  0  0  0  0 
  1 34  1  0  0  0  0 
  2 35  1  0  0  0  0 
  4 36  1  0  0  0  0 
  7 37  1  0  0  0  0 
  7 38  1  0  0  0  0 
  8 39  1  0  0  0  0 
 11 40  1  0  0  0  0 
 13 41  1  0  0  0  0 
 14 42  1  0  0  0  0 
 14 43  1  0  0  0  0 
 16 44  1  0  0  0  0 
 17 45  1  0  0  0  0 
 18 46  1  0  0  0  0 
 18 47  1  0  0  0  0 
 18 48  1  0  0  0  0 
 19 49  1  0  0  0  0 
 19 50  1  0  0  0  0 
 19 51  1  0  0  0  0 
 20 52  1  0  0  0  0 
 20 53  1  0  0  0  0 
 21 54  1  0  0  0  0 
 23 55  1  0  0  0  0 
 24 56  1  0  0  0  0 
 25 57  1  0  0  0  0 
 27 58  1  0  0  0  0 
 27 59  1  0  0  0  0 
 27 60  1  0  0  0  0 
 28 61  1  0  0  0  0 
 28 62  1  0  0  0  0 
 28 63  1  0  0  0  0 
 29 64  1  0  0  0  0 
 29 65  1  0  0  0  0 
 29 66  1  0  0  0  0 
 31 67  1  0  0  0  0 
M  END
> <cdk:Title>
cerivastatin

> <Conformer>
1

> <SuperDrugID>
SD000504

$$$$
