kainic acid
  CDK     0628171801

 30 30  0  0  0  0  0  0  0  0999 V2000
   -0.9634    0.3569   -3.3587 C   0  0  2  0  0  0  0  0  0  0  0  0
    0.2811    0.7250   -4.0622 C   0  0  0  0  0  0  0  0  0  0  0  0
   -0.8049   -0.9624   -2.5298 C   0  0  1  0  0  0  0  0  0  0  0  0
    1.3937    1.0300   -3.3553 O   0  0  0  0  0  0  0  0  0  0  0  0
    0.3273    0.7673   -5.3128 O   0  0  0  0  0  0  0  0  0  0  0  0
   -2.0381   -1.3486   -1.6580 C   0  0  1  0  0  0  0  0  0  0  0  0
   -0.6167   -2.2236   -3.4438 C   0  0  1  0  0  0  0  0  0  0  0  0
   -2.7407   -0.2451   -0.9683 C   0  0  0  0  0  0  0  0  0  0  0  0
   -2.8345   -2.2509   -2.6266 C   0  0  2  0  0  0  0  0  0  0  0  0
    0.6087   -2.9994   -3.1452 C   0  0  0  0  0  0  0  0  0  0  0  0
   -1.8100   -3.0808   -3.2764 N   0  0  2  0  0  0  0  0  0  0  0  0
   -4.1088    0.1320   -1.3269 C   0  0  0  0  0  0  0  0  0  0  0  0
   -2.0911    0.4268    0.0015 C   0  0  0  0  0  0  0  0  0  0  0  0
    1.5662   -3.1684   -4.0873 O   0  0  0  0  0  0  0  0  0  0  0  0
    0.7883   -3.5110   -2.0177 O   0  0  0  0  0  0  0  0  0  0  0  0
   -1.7817    0.2483   -4.0757 H   0  0  0  0  0  0  0  0  0  0  0  0
   -1.2167    1.1910   -2.7022 H   0  0  0  0  0  0  0  0  0  0  0  0
    0.0499   -0.8275   -1.8565 H   0  0  0  0  0  0  0  0  0  0  0  0
    2.2235    1.2763   -3.8145 H   0  0  0  0  0  0  0  0  0  0  0  0
   -1.6818   -2.0233   -0.8656 H   0  0  0  0  0  0  0  0  0  0  0  0
   -0.5862   -1.9399   -4.5011 H   0  0  0  0  0  0  0  0  0  0  0  0
   -3.3660   -1.6740   -3.3894 H   0  0  0  0  0  0  0  0  0  0  0  0
   -3.5460   -2.8853   -2.0926 H   0  0  0  0  0  0  0  0  0  0  0  0
   -1.5631   -3.8020   -2.5935 H   0  0  0  0  0  0  0  0  0  0  0  0
   -4.1411    0.4448   -2.3716 H   0  0  0  0  0  0  0  0  0  0  0  0
   -4.7773   -0.7193   -1.1897 H   0  0  0  0  0  0  0  0  0  0  0  0
   -4.4997    0.9575   -0.7247 H   0  0  0  0  0  0  0  0  0  0  0  0
   -1.1606    0.1908    0.2576 H   0  0  0  0  0  0  0  0  0  0  0  0
   -2.5180    1.1760    0.4927 H   0  0  0  0  0  0  0  0  0  0  0  0
    2.3810   -3.6732   -3.8785 H   0  0  0  0  0  0  0  0  0  0  0  0
  1  2  1  0  0  0  0 
  2  4  1  0  0  0  0 
  2  5  2  0  0  0  0 
  3  1  1  0  0  0  0 
  3  6  1  0  0  0  0 
  7  3  1  0  0  0  0 
  6  8  1  0  0  0  0 
  6  9  1  0  0  0  0 
  7 10  1  0  0  0  0 
  7 11  1  0  0  0  0 
  8 12  1  0  0  0  0 
  8 13  2  0  0  0  0 
  9 11  1  0  0  0  0 
 10 14  1  0  0  0  0 
 10 15  2  0  0  0  0 
  1 16  1  0  0  0  0 
  1 17  1  0  0  0  0 
  3 18  1  0  0  0  0 
  4 19  1  0  0  0  0 
  6 20  1  0  0  0  0 
  7 21  1  0  0  0  0 
  9 22  1  0  0  0  0 
  9 23  1  0  0  0  0 
 11 24  1  0  0  0  0 
 12 25  1  0  0  0  0 
 12 26  1  0  0  0  0 
 12 27  1  0  0  0  0 
 13 28  1  0  0  0  0 
 13 29  1  0  0  0  0 
 14 30  1  0  0  0  0 
M  END
> <cdk:Title>
kainic acid

> <Conformer>
1

> <SuperDrugID>
SD002769

$$$$
