guanacline
  CDK     0628171801

 31 31  0  0  0  0  0  0  0  0999 V2000
   -0.5569    2.5263   -0.1607 C   0  0  1  0  0  0  0  0  0  0  0  0
   -0.0583    1.1228   -0.5914 C   0  0  2  0  0  0  0  0  0  0  0  0
   -0.9764    3.4106   -1.2969 N   0  0  2  0  0  0  0  0  0  0  0  0
    0.2423    0.3473    0.5306 N   0  0  0  0  0  0  0  0  0  0  0  0
    0.1233    3.8608   -2.2021 C   0  0  1  0  0  0  0  0  0  0  0  0
   -1.8052    4.5793   -0.8454 C   0  0  1  0  0  0  0  0  0  0  0  0
    0.7443   -0.8345    0.5714 C   0  0  0  0  0  0  0  0  0  0  0  0
   -0.4963    4.5644   -3.4377 C   0  0  1  0  0  0  0  0  0  0  0  0
   -2.1371    5.5305   -1.8955 C   0  0  0  0  0  0  0  0  0  0  0  0
    1.0710   -1.5241   -0.5043 N   0  0  0  0  0  0  0  0  0  0  0  0
    0.9583   -1.3757    1.7492 N   0  0  0  0  0  0  0  0  0  0  0  0
   -1.5444    5.5347   -3.1080 C   0  0  0  0  0  0  0  0  0  0  0  0
   -1.9308    6.5227   -4.1126 C   0  0  0  0  0  0  0  0  0  0  0  0
   -1.4192    2.3615    0.4938 H   0  0  0  0  0  0  0  0  0  0  0  0
    0.2160    3.0205    0.4370 H   0  0  0  0  0  0  0  0  0  0  0  0
    0.8437    1.2173   -1.1978 H   0  0  0  0  0  0  0  0  0  0  0  0
   -0.8320    0.6318   -1.1880 H   0  0  0  0  0  0  0  0  0  0  0  0
    0.7904    4.5507   -1.6752 H   0  0  0  0  0  0  0  0  0  0  0  0
    0.7180    3.0211   -2.5622 H   0  0  0  0  0  0  0  0  0  0  0  0
   -2.7449    4.1990   -0.4346 H   0  0  0  0  0  0  0  0  0  0  0  0
   -1.2877    5.1303   -0.0532 H   0  0  0  0  0  0  0  0  0  0  0  0
    0.3126    5.0549   -3.9875 H   0  0  0  0  0  0  0  0  0  0  0  0
   -0.9345    3.8041   -4.0917 H   0  0  0  0  0  0  0  0  0  0  0  0
   -2.8321    6.2112   -1.6843 H   0  0  0  0  0  0  0  0  0  0  0  0
    1.4580   -2.4103   -0.4204 H   0  0  0  0  0  0  0  0  0  0  0  0
    0.9345   -1.1409   -1.3861 H   0  0  0  0  0  0  0  0  0  0  0  0
    0.7419   -0.8835    2.5554 H   0  0  0  0  0  0  0  0  0  0  0  0
    1.3422   -2.2637    1.8139 H   0  0  0  0  0  0  0  0  0  0  0  0
   -1.8176    6.1235   -5.1231 H   0  0  0  0  0  0  0  0  0  0  0  0
   -2.9724    6.8348   -4.0007 H   0  0  0  0  0  0  0  0  0  0  0  0
   -1.2934    7.4029   -4.0160 H   0  0  0  0  0  0  0  0  0  0  0  0
  1  2  1  0  0  0  0 
  1  3  1  0  0  0  0 
  2  4  1  0  0  0  0 
  3  5  1  0  0  0  0 
  3  6  1  0  0  0  0 
  4  7  2  0  0  0  0 
  5  8  1  0  0  0  0 
  6  9  1  0  0  0  0 
  7 10  1  0  0  0  0 
  7 11  1  0  0  0  0 
  8 12  1  0  0  0  0 
  9 12  2  0  0  0  0 
 12 13  1  0  0  0  0 
 14  1  1  0  0  0  0 
 15  1  1  0  0  0  0 
 16  2  1  0  0  0  0 
 17  2  1  0  0  0  0 
 18  5  1  0  0  0  0 
 19  5  1  0  0  0  0 
 20  6  1  0  0  0  0 
 21  6  1  0  0  0  0 
 22  8  1  0  0  0  0 
 23  8  1  0  0  0  0 
 24  9  1  0  0  0  0 
 25 10  1  0  0  0  0 
 26 10  1  0  0  0  0 
 27 11  1  0  0  0  0 
 28 11  1  0  0  0  0 
 29 13  1  0  0  0  0 
 30 13  1  0  0  0  0 
 31 13  1  0  0  0  0 
M  END
> <cdk:Title>
guanacline

> <Conformer>
1

> <SuperDrugID>
SD002976

$$$$
