fenbufen
  CDK     0628171801

 33 34  0  0  0  0  0  0  0  0999 V2000
   -0.3735   -0.1808    1.8410 C   0  0  0  0  0  0  0  0  0  0  0  0
   -0.1350    0.2781    0.4414 C   0  0  2  0  0  0  0  0  0  0  0  0
   -0.1081   -1.3746    2.1248 O   0  0  0  0  0  0  0  0  0  0  0  0
   -0.8839    0.6861    2.8642 C   0  0  0  0  0  0  0  0  0  0  0  0
    0.4097   -0.7802   -0.5582 C   0  0  2  0  0  0  0  0  0  0  0  0
   -1.1031    0.2180    4.1873 C   0  0  0  0  0  0  0  0  0  0  0  0
   -1.1922    2.0453    2.5981 C   0  0  0  0  0  0  0  0  0  0  0  0
    0.6968   -0.1710   -1.8740 C   0  0  0  0  0  0  0  0  0  0  0  0
   -1.6121    1.0644    5.1904 C   0  0  0  0  0  0  0  0  0  0  0  0
   -1.6924    2.8957    3.5965 C   0  0  0  0  0  0  0  0  0  0  0  0
    1.7090    0.7182   -2.0039 O   0  0  0  0  0  0  0  0  0  0  0  0
    0.0086   -0.4489   -2.8825 O   0  0  0  0  0  0  0  0  0  0  0  0
   -1.9104    2.4142    4.9031 C   0  0  0  0  0  0  0  0  0  0  0  0
   -2.4269    3.2760    5.8997 C   0  0  0  0  0  0  0  0  0  0  0  0
   -1.7601    4.4805    6.2276 C   0  0  0  0  0  0  0  0  0  0  0  0
   -3.6249    2.9500    6.5767 C   0  0  0  0  0  0  0  0  0  0  0  0
   -2.2725    5.3316    7.2240 C   0  0  0  0  0  0  0  0  0  0  0  0
   -4.1399    3.8052    7.5677 C   0  0  0  0  0  0  0  0  0  0  0  0
   -3.4615    4.9931    7.8946 C   0  0  0  0  0  0  0  0  0  0  0  0
    0.5779    1.1076    0.4833 H   0  0  0  0  0  0  0  0  0  0  0  0
   -1.0809    0.6564    0.0422 H   0  0  0  0  0  0  0  0  0  0  0  0
   -0.3317   -1.5795   -0.6734 H   0  0  0  0  0  0  0  0  0  0  0  0
    1.3348   -1.2201   -0.1725 H   0  0  0  0  0  0  0  0  0  0  0  0
   -0.8948   -0.7504    4.4402 H   0  0  0  0  0  0  0  0  0  0  0  0
   -1.0614    2.4457    1.6684 H   0  0  0  0  0  0  0  0  0  0  0  0
   -1.7574    0.6911    6.1332 H   0  0  0  0  0  0  0  0  0  0  0  0
   -1.9065    3.8687    3.3580 H   0  0  0  0  0  0  0  0  0  0  0  0
    1.9020    1.1168   -2.8783 H   0  0  0  0  0  0  0  0  0  0  0  0
   -0.8932    4.7433    5.7499 H   0  0  0  0  0  0  0  0  0  0  0  0
   -4.1352    2.0925    6.3472 H   0  0  0  0  0  0  0  0  0  0  0  0
   -1.7785    6.1953    7.4616 H   0  0  0  0  0  0  0  0  0  0  0  0
   -5.0085    3.5619    8.0496 H   0  0  0  0  0  0  0  0  0  0  0  0
   -3.8326    5.6099    8.6188 H   0  0  0  0  0  0  0  0  0  0  0  0
  1  2  1  0  0  0  0 
  1  3  2  0  0  0  0 
  1  4  1  0  0  0  0 
  2  5  1  0  0  0  0 
  4  6  2  0  0  0  0 
  4  7  1  0  0  0  0 
  5  8  1  0  0  0  0 
  6  9  1  0  0  0  0 
  7 10  2  0  0  0  0 
  8 11  1  0  0  0  0 
  8 12  2  0  0  0  0 
  9 13  2  0  0  0  0 
 10 13  1  0  0  0  0 
 13 14  1  0  0  0  0 
 14 15  2  0  0  0  0 
 14 16  1  0  0  0  0 
 15 17  1  0  0  0  0 
 16 18  2  0  0  0  0 
 17 19  2  0  0  0  0 
 18 19  1  0  0  0  0 
 20  2  1  0  0  0  0 
 21  2  1  0  0  0  0 
 22  5  1  0  0  0  0 
 23  5  1  0  0  0  0 
 24  6  1  0  0  0  0 
 25  7  1  0  0  0  0 
 26  9  1  0  0  0  0 
 27 10  1  0  0  0  0 
 28 11  1  0  0  0  0 
 29 15  1  0  0  0  0 
 30 16  1  0  0  0  0 
 31 17  1  0  0  0  0 
 32 18  1  0  0  0  0 
 33 19  1  0  0  0  0 
M  END
> <cdk:Title>
fenbufen

> <Conformer>
1

> <SuperDrugID>
SD001022

$$$$
