iopanoic acid
  CDK     0628171801

 29 29  0  0  0  0  0  0  0  0999 V2000
    2.1233    6.4489   -4.4671 C   0  0  1  0  0  0  0  0  0  0  0  0
    1.9927    7.6395   -3.4568 C   0  0  1  0  0  0  0  0  0  0  0  0
    3.1251    5.4123   -4.0511 C   0  0  0  0  0  0  0  0  0  0  0  0
    3.2829    8.3667   -3.3381 C   0  0  0  0  0  0  0  0  0  0  0  0
    0.8472    8.6482   -3.7993 C   0  0  1  0  0  0  0  0  0  0  0  0
    2.7929    4.4363   -3.0651 C   0  0  0  0  0  0  0  0  0  0  0  0
    4.4332    5.3845   -4.6138 C   0  0  0  0  0  0  0  0  0  0  0  0
    4.0647    8.2041   -2.2455 O   0  0  0  0  0  0  0  0  0  0  0  0
    3.6942    9.1207   -4.2497 O   0  0  0  0  0  0  0  0  0  0  0  0
   -0.5866    8.0743   -3.7333 C   0  0  0  0  0  0  0  0  0  0  0  0
    0.9009    4.3145   -2.2425 I   0  0  0  0  0  0  0  0  0  0  0  0
    3.7613    3.5008   -2.6256 C   0  0  0  0  0  0  0  0  0  0  0  0
    5.0965    6.6604   -6.0906 I   0  0  0  0  0  0  0  0  0  0  0  0
    5.3810    4.4498   -4.1641 C   0  0  0  0  0  0  0  0  0  0  0  0
    3.4641    2.5803   -1.6845 N   0  0  0  0  0  0  0  0  0  0  0  0
    5.0577    3.5158   -3.1727 C   0  0  0  0  0  0  0  0  0  0  0  0
    6.5178    2.1954   -2.5734 I   0  0  0  0  0  0  0  0  0  0  0  0
    1.1592    5.9567   -4.5968 H   0  0  0  0  0  0  0  0  0  0  0  0
    2.3575    6.8535   -5.4527 H   0  0  0  0  0  0  0  0  0  0  0  0
    1.7653    7.2293   -2.4716 H   0  0  0  0  0  0  0  0  0  0  0  0
    0.8860    9.4804   -3.0888 H   0  0  0  0  0  0  0  0  0  0  0  0
    1.0085    9.0625   -4.7989 H   0  0  0  0  0  0  0  0  0  0  0  0
    4.9270    8.6629   -2.1846 H   0  0  0  0  0  0  0  0  0  0  0  0
   -1.3082    8.8802   -3.8797 H   0  0  0  0  0  0  0  0  0  0  0  0
   -0.7733    7.6156   -2.7609 H   0  0  0  0  0  0  0  0  0  0  0  0
   -0.7474    7.3343   -4.5168 H   0  0  0  0  0  0  0  0  0  0  0  0
    6.3218    4.4480   -4.5613 H   0  0  0  0  0  0  0  0  0  0  0  0
    2.5764    2.5372   -1.2973 H   0  0  0  0  0  0  0  0  0  0  0  0
    4.1420    1.9529   -1.3882 H   0  0  0  0  0  0  0  0  0  0  0  0
  2  1  1  0  0  0  0 
  1  3  1  0  0  0  0 
  2  4  1  0  0  0  0 
  2  5  1  0  0  0  0 
  3  6  2  0  0  0  0 
  3  7  1  0  0  0  0 
  4  8  1  0  0  0  0 
  4  9  2  0  0  0  0 
  5 10  1  0  0  0  0 
  6 11  1  0  0  0  0 
  6 12  1  0  0  0  0 
  7 13  1  0  0  0  0 
  7 14  2  0  0  0  0 
 12 15  1  0  0  0  0 
 12 16  2  0  0  0  0 
 14 16  1  0  0  0  0 
 16 17  1  0  0  0  0 
  1 18  1  0  0  0  0 
  1 19  1  0  0  0  0 
  2 20  1  0  0  0  0 
  5 21  1  0  0  0  0 
  5 22  1  0  0  0  0 
  8 23  1  0  0  0  0 
 10 24  1  0  0  0  0 
 10 25  1  0  0  0  0 
 10 26  1  0  0  0  0 
 14 27  1  0  0  0  0 
 15 28  1  0  0  0  0 
 15 29  1  0  0  0  0 
M  END
> <cdk:Title>
iopanoic acid

> <Conformer>
1

> <SuperDrugID>
SD001297

$$$$
