zinostatin
  CDK     0628171801

 81 87  0  0  0  0  0  0  0  0999 V2000
    8.4525    1.5009    0.6530 C   0  0  0  0  0  0  0  0  0  0  0  0
    8.3875    1.3957   -0.7608 C   0  0  0  0  0  0  0  0  0  0  0  0
    8.9674    2.3537   -1.6069 C   0  0  0  0  0  0  0  0  0  0  0  0
    9.7041    3.4070   -1.0493 C   0  0  0  0  0  0  0  0  0  0  0  0
    9.8636    3.5272    0.3489 C   0  0  0  0  0  0  0  0  0  0  0  0
    9.2293    2.5731    1.2059 C   0  0  0  0  0  0  0  0  0  0  0  0
    9.3443    2.6565    2.6153 C   0  0  0  0  0  0  0  0  0  0  0  0
    8.7393    1.7138    3.4552 C   0  0  0  0  0  0  0  0  0  0  0  0
    7.9719    0.6727    2.9159 C   0  0  0  0  0  0  0  0  0  0  0  0
    7.7792    0.5720    1.5147 C   0  0  0  0  0  0  0  0  0  0  0  0
    8.8386    2.2537   -2.9683 O   0  0  0  0  0  0  0  0  0  0  0  0
    7.6213    2.8488   -3.4563 C   0  0  0  0  0  0  0  0  0  0  0  0
   10.6963    4.6529    0.8609 C   0  0  0  0  0  0  0  0  0  0  0  0
    7.4044   -0.1846    3.8062 O   0  0  0  0  0  0  0  0  0  0  0  0
    6.8615   -0.4048    1.0396 C   0  0  0  0  0  0  0  0  0  0  0  0
    6.0164   -0.0677    0.1758 O   0  0  0  0  0  0  0  0  0  0  0  0
    6.8245   -1.6788    1.5517 O   0  0  0  0  0  0  0  0  0  0  0  0
    5.8944   -2.7021    1.1514 C   0  0  1  0  0  0  0  0  0  0  0  0
    6.5110   -4.9489    0.6581 C   0  0  0  0  0  0  0  0  0  0  0  0
    6.4658   -3.6295    0.0443 C   0  0  1  0  0  0  0  0  0  0  0  0
    5.5921   -3.6242    2.2074 C   0  0  0  0  0  0  0  0  0  0  0  0
    5.8923   -4.8830    1.8879 C   0  0  0  0  0  0  0  0  0  0  0  0
    5.7730   -3.5516   -1.2311 O   0  0  0  0  0  0  0  0  0  0  0  0
    4.4443   -4.1137   -1.3821 C   0  0  2  0  0  0  0  0  0  0  0  0
    2.1088   -3.8129   -0.6527 C   0  0  2  0  0  0  0  0  0  0  0  0
    1.5955   -3.9228   -2.1225 C   0  0  1  0  0  0  0  0  0  0  0  0
    2.6050   -4.6505   -3.0567 C   0  0  1  0  0  0  0  0  0  0  0  0
    4.0528   -4.0874   -2.8879 C   0  0  1  0  0  0  0  0  0  0  0  0
    3.4771   -3.3540   -0.6221 O   0  0  0  0  0  0  0  0  0  0  0  0
    1.9100   -5.0743    0.2338 C   0  0  0  0  0  0  0  0  0  0  0  0
    0.3109   -4.5418   -2.1775 O   0  0  0  0  0  0  0  0  0  0  0  0
    2.5890   -6.0587   -2.8186 O   0  0  0  0  0  0  0  0  0  0  0  0
    4.2079   -2.6914   -3.3824 N   0  0  1  0  0  0  0  0  0  0  0  0
    4.0539   -2.4653   -4.8336 C   0  0  0  0  0  0  0  0  0  0  0  0
    7.1020   -5.9961    0.0196 C   0  0  0  0  0  0  0  0  0  0  0  0
    5.6107   -5.8958    2.6223 C   0  0  0  0  0  0  0  0  0  0  0  0
    7.1287   -7.1833    0.4892 C   0  0  0  0  0  0  0  0  0  0  0  0
    5.4788   -7.0040    3.0564 C   0  0  0  0  0  0  0  0  0  0  0  0
    5.5618   -8.3858    3.1582 C   0  0  1  0  0  0  0  0  0  0  0  0
    6.9516   -8.1810    1.1253 C   0  0  0  0  0  0  0  0  0  0  0  0
    6.4664   -9.0473    2.0861 C   0  0  1  0  0  0  0  0  0  0  0  0
    6.8766   -8.8876    3.4561 O   0  0  0  0  0  0  0  0  0  0  0  0
    4.3142   -9.2220    3.5634 C   0  0  2  0  0  0  0  0  0  0  0  0
    3.2606   -8.9661    2.6358 O   0  0  0  0  0  0  0  0  0  0  0  0
    2.1827   -8.4626    3.2618 C   0  0  0  0  0  0  0  0  0  0  0  0
    2.3804   -8.3749    4.5899 O   0  0  0  0  0  0  0  0  0  0  0  0
    3.6764   -8.8570    4.9316 C   0  0  2  0  0  0  0  0  0  0  0  0
    1.1270   -8.1318    2.6792 O   0  0  0  0  0  0  0  0  0  0  0  0
    6.2258  -10.0710    1.7949 H   0  0  0  0  0  0  0  0  0  0  0  0
    4.5387  -10.2932    3.5414 H   0  0  0  0  0  0  0  0  0  0  0  0
    7.9141    0.6123   -1.2107 H   0  0  0  0  0  0  0  0  0  0  0  0
   10.1309    4.0879   -1.6833 H   0  0  0  0  0  0  0  0  0  0  0  0
    9.8718    3.4084    3.0624 H   0  0  0  0  0  0  0  0  0  0  0  0
    8.8514    1.7988    4.4697 H   0  0  0  0  0  0  0  0  0  0  0  0
    7.6031    2.7576   -4.5428 H   0  0  0  0  0  0  0  0  0  0  0  0
    6.7427    2.3331   -3.0596 H   0  0  0  0  0  0  0  0  0  0  0  0
    7.5684    3.9115   -3.2035 H   0  0  0  0  0  0  0  0  0  0  0  0
   11.5525    4.2581    1.4098 H   0  0  0  0  0  0  0  0  0  0  0  0
   11.0822    5.2963    0.0672 H   0  0  0  0  0  0  0  0  0  0  0  0
   10.1034    5.2800    1.5266 H   0  0  0  0  0  0  0  0  0  0  0  0
    7.7092   -1.0764    3.5373 H   0  0  0  0  0  0  0  0  0  0  0  0
    4.9560   -2.2345    0.8558 H   0  0  0  0  0  0  0  0  0  0  0  0
    7.4959   -3.3219   -0.1650 H   0  0  0  0  0  0  0  0  0  0  0  0
    5.1624   -3.3446    3.0614 H   0  0  0  0  0  0  0  0  0  0  0  0
    4.4609   -5.1538   -1.0463 H   0  0  0  0  0  0  0  0  0  0  0  0
    1.5318   -3.0165   -0.1720 H   0  0  0  0  0  0  0  0  0  0  0  0
    1.4639   -2.9056   -2.5056 H   0  0  0  0  0  0  0  0  0  0  0  0
    2.2754   -4.5236   -4.0895 H   0  0  0  0  0  0  0  0  0  0  0  0
    4.7542   -4.7278   -3.4331 H   0  0  0  0  0  0  0  0  0  0  0  0
    0.8462   -5.2752    0.3712 H   0  0  0  0  0  0  0  0  0  0  0  0
    2.3746   -5.9542   -0.2102 H   0  0  0  0  0  0  0  0  0  0  0  0
    2.3533   -4.9098    1.2186 H   0  0  0  0  0  0  0  0  0  0  0  0
    0.0200   -4.4466   -3.1092 H   0  0  0  0  0  0  0  0  0  0  0  0
    3.1669   -6.4420   -3.5134 H   0  0  0  0  0  0  0  0  0  0  0  0
    3.5220   -2.1049   -2.8997 H   0  0  0  0  0  0  0  0  0  0  0  0
    4.4344   -1.4721   -5.0692 H   0  0  0  0  0  0  0  0  0  0  0  0
    3.0013   -2.5039   -5.1148 H   0  0  0  0  0  0  0  0  0  0  0  0
    4.6165   -3.1973   -5.4151 H   0  0  0  0  0  0  0  0  0  0  0  0
    7.5232   -5.8582   -0.8689 H   0  0  0  0  0  0  0  0  0  0  0  0
    4.2344   -8.0890    5.4699 H   0  0  0  0  0  0  0  0  0  0  0  0
    3.5739   -9.7394    5.5681 H   0  0  0  0  0  0  0  0  0  0  0  0
  1  2  2  0  0  0  0 
  2  3  1  0  0  0  0 
  3  4  2  0  0  0  0 
  4  5  1  0  0  0  0 
  5  6  2  0  0  0  0 
  7  8  2  0  0  0  0 
  8  9  1  0  0  0  0 
  9 10  2  0  0  0  0 
  1  6  1  0  0  0  0 
  1 10  1  0  0  0  0 
  6  7  1  0  0  0  0 
  3 11  1  0  0  0  0 
 11 12  1  0  0  0  0 
  5 13  1  0  0  0  0 
  9 14  1  0  0  0  0 
 10 15  1  0  0  0  0 
 15 16  2  0  0  0  0 
 15 17  1  0  0  0  0 
 18 17  1  0  0  0  0 
 20 18  1  0  0  0  0 
 18 21  1  0  0  0  0 
 19 20  1  0  0  0  0 
 21 22  2  0  0  0  0 
 19 22  1  0  0  0  0 
 20 23  1  0  0  0  0 
 24 23  1  0  0  0  0 
 28 24  1  0  0  0  0 
 24 29  1  0  0  0  0 
 25 26  1  0  0  0  0 
 26 27  1  0  0  0  0 
 27 28  1  0  0  0  0 
 25 29  1  0  0  0  0 
 25 30  1  0  0  0  0 
 26 31  1  0  0  0  0 
 27 32  1  0  0  0  0 
 28 33  1  0  0  0  0 
 33 34  1  0  0  0  0 
 19 35  2  0  0  0  0 
 22 36  1  0  0  0  0 
 35 37  1  0  0  0  0 
 36 38  3  0  0  0  0 
 38 39  1  0  0  0  0 
 37 40  3  0  0  0  0 
 40 41  1  0  0  0  0 
 41 39  1  0  0  0  0 
 41 42  1  0  0  0  0 
 39 42  1  0  0  0  0 
 39 43  1  0  0  0  0 
 43 44  1  0  0  0  0 
 43 47  1  0  0  0  0 
 44 45  1  0  0  0  0 
 45 46  1  0  0  0  0 
 46 47  1  0  0  0  0 
 45 48  2  0  0  0  0 
 41 49  1  0  0  0  0 
 43 50  1  0  0  0  0 
  2 51  1  0  0  0  0 
  4 52  1  0  0  0  0 
  7 53  1  0  0  0  0 
  8 54  1  0  0  0  0 
 12 55  1  0  0  0  0 
 12 56  1  0  0  0  0 
 12 57  1  0  0  0  0 
 13 58  1  0  0  0  0 
 13 59  1  0  0  0  0 
 13 60  1  0  0  0  0 
 14 61  1  0  0  0  0 
 18 62  1  0  0  0  0 
 20 63  1  0  0  0  0 
 21 64  1  0  0  0  0 
 24 65  1  0  0  0  0 
 25 66  1  0  0  0  0 
 26 67  1  0  0  0  0 
 27 68  1  0  0  0  0 
 28 69  1  0  0  0  0 
 30 70  1  0  0  0  0 
 30 71  1  0  0  0  0 
 30 72  1  0  0  0  0 
 31 73  1  0  0  0  0 
 32 74  1  0  0  0  0 
 33 75  1  0  0  0  0 
 34 76  1  0  0  0  0 
 34 77  1  0  0  0  0 
 34 78  1  0  0  0  0 
 35 79  1  0  0  0  0 
 47 80  1  0  0  0  0 
 47 81  1  0  0  0  0 
M  END
> <cdk:Title>
zinostatin

> <Conformer>
1

> <SuperDrugID>
SD003353

$$$$
