sulbutiamine
  CDK     0628171801

 94 95  0  0  0  0  0  0  0  0999 V2000
    0.5432    3.7614   -1.0093 C   0  0  0  0  0  0  0  0  0  0  0  0
    1.4348    2.8391   -1.4538 N   0  0  0  0  0  0  0  0  0  0  0  0
    1.6459    1.6632   -0.8104 C   0  0  0  0  0  0  0  0  0  0  0  0
    0.9010    1.3791    0.2885 N   0  0  0  0  0  0  0  0  0  0  0  0
   -0.0081    2.2568    0.7848 C   0  0  0  0  0  0  0  0  0  0  0  0
   -0.1953    3.5206    0.1791 C   0  0  0  0  0  0  0  0  0  0  0  0
    2.6743    0.7209   -1.2802 C   0  0  0  0  0  0  0  0  0  0  0  0
   -1.0558    4.5426    0.8454 C   0  0  1  0  0  0  0  0  0  0  0  0
    0.4219    4.8820   -1.7487 N   0  0  0  0  0  0  0  0  0  0  0  0
   -2.4872    4.2883    0.8191 N   0  0  0  0  0  0  0  0  0  0  0  0
   -3.1799    4.0243    1.9694 C   0  0  0  0  0  0  0  0  0  0  0  0
   -3.1899    4.4282   -0.3634 C   0  0  0  0  0  0  0  0  0  0  0  0
   -2.6429    4.6472   -1.4683 O   0  0  0  0  0  0  0  0  0  0  0  0
   -3.8582    2.8569    2.1618 C   0  0  0  0  0  0  0  0  0  0  0  0
   -3.1821    5.0917    2.9778 C   0  0  0  0  0  0  0  0  0  0  0  0
   -4.7327    2.5727    3.3129 C   0  0  2  0  0  0  0  0  0  0  0  0
   -3.7921    1.6205    0.9415 S   0  0  0  0  0  0  0  0  0  0  0  0
   -3.1891   -0.1607    1.8732 S   0  0  0  0  0  0  0  0  0  0  0  0
   -4.6070   -1.1694    1.9415 C   0  0  0  0  0  0  0  0  0  0  0  0
   -5.1361   -1.7376    0.8231 C   0  0  0  0  0  0  0  0  0  0  0  0
   -5.1267   -1.3576    3.3044 C   0  0  1  0  0  0  0  0  0  0  0  0
   -6.3290   -2.5867    0.8578 C   0  0  0  0  0  0  0  0  0  0  0  0
   -4.6024   -1.5469   -0.4112 N   0  0  0  0  0  0  0  0  0  0  0  0
   -3.6554   -2.5114   -0.9491 C   0  0  2  0  0  0  0  0  0  0  0  0
   -5.0706   -0.4861   -1.1578 C   0  0  0  0  0  0  0  0  0  0  0  0
   -4.6384   -0.2005   -2.2980 O   0  0  0  0  0  0  0  0  0  0  0  0
   -4.0145    2.0873    4.5998 C   0  0  1  0  0  0  0  0  0  0  0  0
   -4.9978    1.6249    5.5371 O   0  0  0  0  0  0  0  0  0  0  0  0
   -4.7593    0.8868    6.6636 C   0  0  0  0  0  0  0  0  0  0  0  0
   -5.8947    0.4793    7.5300 C   0  0  1  0  0  0  0  0  0  0  0  0
   -6.5404    1.7274    8.1843 C   0  0  0  0  0  0  0  0  0  0  0  0
   -6.9446   -0.3563    6.7481 C   0  0  0  0  0  0  0  0  0  0  0  0
   -3.5924    0.5417    6.9691 O   0  0  0  0  0  0  0  0  0  0  0  0
   -2.3599   -2.5650   -0.2158 C   0  0  0  0  0  0  0  0  0  0  0  0
   -0.9886   -3.5642    1.4925 N   0  0  0  0  0  0  0  0  0  0  0  0
   -2.1584   -3.5163    0.8102 C   0  0  0  0  0  0  0  0  0  0  0  0
   -1.2820   -1.6811   -0.4782 C   0  0  0  0  0  0  0  0  0  0  0  0
   -0.1329   -1.7824    0.2363 N   0  0  0  0  0  0  0  0  0  0  0  0
    0.0281   -2.7079    1.2162 C   0  0  0  0  0  0  0  0  0  0  0  0
    1.2940   -2.7746    1.9608 C   0  0  0  0  0  0  0  0  0  0  0  0
   -1.3391   -0.7081   -1.4073 N   0  0  0  0  0  0  0  0  0  0  0  0
   -4.2613   -2.3342    4.1916 C   0  0  2  0  0  0  0  0  0  0  0  0
   -4.6914   -3.7859    4.1498 O   0  0  0  0  0  0  0  0  0  0  0  0
   -4.0763   -4.7776    4.8565 C   0  0  0  0  0  0  0  0  0  0  0  0
   -4.6412   -6.1488    4.8469 C   0  0  2  0  0  0  0  0  0  0  0  0
   -3.0404   -4.5330    5.5196 O   0  0  0  0  0  0  0  0  0  0  0  0
   -5.1000   -6.5614    6.2720 C   0  0  0  0  0  0  0  0  0  0  0  0
   -3.6435   -7.1718    4.2420 C   0  0  0  0  0  0  0  0  0  0  0  0
   -0.5343    1.9959    1.6225 H   0  0  0  0  0  0  0  0  0  0  0  0
    3.1582    1.0876   -2.1882 H   0  0  0  0  0  0  0  0  0  0  0  0
    3.4396    0.6025   -0.5110 H   0  0  0  0  0  0  0  0  0  0  0  0
    2.2267   -0.2517   -1.4898 H   0  0  0  0  0  0  0  0  0  0  0  0
   -0.6858    4.6215    1.8709 H   0  0  0  0  0  0  0  0  0  0  0  0
   -0.8859    5.5337    0.4165 H   0  0  0  0  0  0  0  0  0  0  0  0
    0.9968    5.0206   -2.5166 H   0  0  0  0  0  0  0  0  0  0  0  0
   -0.2400    5.5534   -1.5255 H   0  0  0  0  0  0  0  0  0  0  0  0
   -4.2121    4.3496   -0.3763 H   0  0  0  0  0  0  0  0  0  0  0  0
   -2.6553    5.9858    2.6379 H   0  0  0  0  0  0  0  0  0  0  0  0
   -4.1971    5.4063    3.2248 H   0  0  0  0  0  0  0  0  0  0  0  0
   -2.6843    4.7501    3.8851 H   0  0  0  0  0  0  0  0  0  0  0  0
   -5.4600    1.8069    3.0339 H   0  0  0  0  0  0  0  0  0  0  0  0
   -5.3441    3.4435    3.5508 H   0  0  0  0  0  0  0  0  0  0  0  0
   -5.1697   -0.3908    3.7966 H   0  0  0  0  0  0  0  0  0  0  0  0
   -6.1570   -1.7146    3.3262 H   0  0  0  0  0  0  0  0  0  0  0  0
   -6.1979   -3.4158    1.5554 H   0  0  0  0  0  0  0  0  0  0  0  0
   -6.5562   -3.0225   -0.1182 H   0  0  0  0  0  0  0  0  0  0  0  0
   -7.1971   -1.9970    1.1574 H   0  0  0  0  0  0  0  0  0  0  0  0
   -3.4375   -2.3308   -2.0041 H   0  0  0  0  0  0  0  0  0  0  0  0
   -4.1267   -3.4985   -0.9421 H   0  0  0  0  0  0  0  0  0  0  0  0
   -5.8042    0.1283   -0.7886 H   0  0  0  0  0  0  0  0  0  0  0  0
   -3.3347    1.2655    4.3636 H   0  0  0  0  0  0  0  0  0  0  0  0
   -3.4369    2.8896    5.0612 H   0  0  0  0  0  0  0  0  0  0  0  0
   -5.5138   -0.1563    8.3411 H   0  0  0  0  0  0  0  0  0  0  0  0
   -7.3182    1.4248    8.8883 H   0  0  0  0  0  0  0  0  0  0  0  0
   -6.9901    2.3719    7.4257 H   0  0  0  0  0  0  0  0  0  0  0  0
   -5.7900    2.3018    8.7320 H   0  0  0  0  0  0  0  0  0  0  0  0
   -7.7570   -0.6568    7.4129 H   0  0  0  0  0  0  0  0  0  0  0  0
   -7.3695    0.2214    5.9245 H   0  0  0  0  0  0  0  0  0  0  0  0
   -6.4923   -1.2617    6.3417 H   0  0  0  0  0  0  0  0  0  0  0  0
   -2.8929   -4.1821    1.0597 H   0  0  0  0  0  0  0  0  0  0  0  0
    2.1040   -3.0516    1.2837 H   0  0  0  0  0  0  0  0  0  0  0  0
    1.2413   -3.5139    2.7631 H   0  0  0  0  0  0  0  0  0  0  0  0
    1.5145   -1.7996    2.3985 H   0  0  0  0  0  0  0  0  0  0  0  0
   -0.5842   -0.1119   -1.5338 H   0  0  0  0  0  0  0  0  0  0  0  0
   -2.1291   -0.5938   -1.9557 H   0  0  0  0  0  0  0  0  0  0  0  0
   -4.3107   -1.9088    5.2261 H   0  0  0  0  0  0  0  0  0  0  0  0
   -3.1899   -2.1857    3.9104 H   0  0  0  0  0  0  0  0  0  0  0  0
   -5.5310   -6.1502    4.2102 H   0  0  0  0  0  0  0  0  0  0  0  0
   -5.5567   -7.5523    6.2522 H   0  0  0  0  0  0  0  0  0  0  0  0
   -4.2571   -6.5839    6.9659 H   0  0  0  0  0  0  0  0  0  0  0  0
   -5.8429   -5.8560    6.6500 H   0  0  0  0  0  0  0  0  0  0  0  0
   -4.0817   -8.1719    4.2422 H   0  0  0  0  0  0  0  0  0  0  0  0
   -2.7144   -7.2025    4.8154 H   0  0  0  0  0  0  0  0  0  0  0  0
   -3.4099   -6.9055    3.2091 H   0  0  0  0  0  0  0  0  0  0  0  0
  1  2  2  0  0  0  0 
  2  3  1  0  0  0  0 
  3  4  2  0  0  0  0 
  4  5  1  0  0  0  0 
  5  6  2  0  0  0  0 
  1  6  1  0  0  0  0 
  3  7  1  0  0  0  0 
  6  8  1  0  0  0  0 
  1  9  1  0  0  0  0 
  8 10  1  0  0  0  0 
 10 11  1  0  0  0  0 
 10 12  1  0  0  0  0 
 12 13  2  0  0  0  0 
 11 14  2  0  0  0  0 
 11 15  1  0  0  0  0 
 14 16  1  0  0  0  0 
 14 17  1  0  0  0  0 
 17 18  1  0  0  0  0 
 18 19  1  0  0  0  0 
 19 20  2  0  0  0  0 
 19 21  1  0  0  0  0 
 20 22  1  0  0  0  0 
 20 23  1  0  0  0  0 
 23 24  1  0  0  0  0 
 23 25  1  0  0  0  0 
 25 26  2  0  0  0  0 
 16 27  1  0  0  0  0 
 27 28  1  0  0  0  0 
 28 29  1  0  0  0  0 
 29 30  1  0  0  0  0 
 30 31  1  0  0  0  0 
 30 32  1  0  0  0  0 
 29 33  2  0  0  0  0 
 24 34  1  0  0  0  0 
 36 34  2  0  0  0  0 
 34 37  1  0  0  0  0 
 35 36  1  0  0  0  0 
 37 38  2  0  0  0  0 
 38 39  1  0  0  0  0 
 35 39  2  0  0  0  0 
 39 40  1  0  0  0  0 
 37 41  1  0  0  0  0 
 21 42  1  0  0  0  0 
 42 43  1  0  0  0  0 
 43 44  1  0  0  0  0 
 44 45  1  0  0  0  0 
 44 46  2  0  0  0  0 
 45 47  1  0  0  0  0 
 45 48  1  0  0  0  0 
  5 49  1  0  0  0  0 
  7 50  1  0  0  0  0 
  7 51  1  0  0  0  0 
  7 52  1  0  0  0  0 
  8 53  1  0  0  0  0 
  8 54  1  0  0  0  0 
  9 55  1  0  0  0  0 
  9 56  1  0  0  0  0 
 12 57  1  0  0  0  0 
 15 58  1  0  0  0  0 
 15 59  1  0  0  0  0 
 15 60  1  0  0  0  0 
 16 61  1  0  0  0  0 
 16 62  1  0  0  0  0 
 21 63  1  0  0  0  0 
 21 64  1  0  0  0  0 
 22 65  1  0  0  0  0 
 22 66  1  0  0  0  0 
 22 67  1  0  0  0  0 
 24 68  1  0  0  0  0 
 24 69  1  0  0  0  0 
 25 70  1  0  0  0  0 
 27 71  1  0  0  0  0 
 27 72  1  0  0  0  0 
 30 73  1  0  0  0  0 
 31 74  1  0  0  0  0 
 31 75  1  0  0  0  0 
 31 76  1  0  0  0  0 
 32 77  1  0  0  0  0 
 32 78  1  0  0  0  0 
 32 79  1  0  0  0  0 
 36 80  1  0  0  0  0 
 40 81  1  0  0  0  0 
 40 82  1  0  0  0  0 
 40 83  1  0  0  0  0 
 41 84  1  0  0  0  0 
 41 85  1  0  0  0  0 
 42 86  1  0  0  0  0 
 42 87  1  0  0  0  0 
 45 88  1  0  0  0  0 
 47 89  1  0  0  0  0 
 47 90  1  0  0  0  0 
 47 91  1  0  0  0  0 
 48 92  1  0  0  0  0 
 48 93  1  0  0  0  0 
 48 94  1  0  0  0  0 
M  END
> <cdk:Title>
sulbutiamine

> <Conformer>
1

> <SuperDrugID>
SD002241

$$$$
