bergapten
  CDK     0628171801

 24 26  0  0  0  0  0  0  0  0999 V2000
    0.3197   -0.3991   -0.8088 O   0  0  0  0  0  0  0  0  0  0  0  0
   -1.0795   -0.2100   -0.5198 C   0  0  0  0  0  0  0  0  0  0  0  0
    1.0897   -0.4172    0.3238 C   0  0  0  0  0  0  0  0  0  0  0  0
    1.3612   -1.6162    1.0387 C   0  0  0  0  0  0  0  0  0  0  0  0
    1.6375    0.7840    0.8154 C   0  0  0  0  0  0  0  0  0  0  0  0
    2.1309   -1.5694    2.2396 C   0  0  0  0  0  0  0  0  0  0  0  0
    0.8861   -2.8779    0.6163 C   0  0  0  0  0  0  0  0  0  0  0  0
    2.3903    0.8228    1.9872 C   0  0  0  0  0  0  0  0  0  0  0  0
    1.5734    2.0876    0.3437 C   0  0  0  0  0  0  0  0  0  0  0  0
    2.6440   -0.3466    2.7211 C   0  0  0  0  0  0  0  0  0  0  0  0
    2.3660   -2.7200    2.9385 O   0  0  0  0  0  0  0  0  0  0  0  0
    1.1356   -4.0389    1.3683 C   0  0  0  0  0  0  0  0  0  0  0  0
    2.7762    2.0947    2.2498 O   0  0  0  0  0  0  0  0  0  0  0  0
    2.2745    2.8712    1.2562 C   0  0  0  0  0  0  0  0  0  0  0  0
    1.8905   -3.9381    2.5483 C   0  0  0  0  0  0  0  0  0  0  0  0
    2.1285   -4.9469    3.2492 O   0  0  0  0  0  0  0  0  0  0  0  0
   -1.6279   -0.2375   -1.4612 H   0  0  0  0  0  0  0  0  0  0  0  0
   -1.4735   -1.0040    0.1208 H   0  0  0  0  0  0  0  0  0  0  0  0
   -1.2645    0.7590   -0.0489 H   0  0  0  0  0  0  0  0  0  0  0  0
    0.3471   -2.9639   -0.2481 H   0  0  0  0  0  0  0  0  0  0  0  0
    1.1038    2.4131   -0.5034 H   0  0  0  0  0  0  0  0  0  0  0  0
    3.1863   -0.3052    3.5872 H   0  0  0  0  0  0  0  0  0  0  0  0
    0.7691   -4.9428    1.0577 H   0  0  0  0  0  0  0  0  0  0  0  0
    2.3935    3.8840    1.1926 H   0  0  0  0  0  0  0  0  0  0  0  0
  1  2  1  0  0  0  0 
  1  3  1  0  0  0  0 
  3  4  2  0  0  0  0 
  3  5  1  0  0  0  0 
  4  6  1  0  0  0  0 
  4  7  1  0  0  0  0 
  5  8  2  0  0  0  0 
  5  9  1  0  0  0  0 
  6 10  2  0  0  0  0 
  6 11  1  0  0  0  0 
  7 12  2  0  0  0  0 
  8 10  1  0  0  0  0 
  8 13  1  0  0  0  0 
  9 14  2  0  0  0  0 
 11 15  1  0  0  0  0 
 12 15  1  0  0  0  0 
 13 14  1  0  0  0  0 
 15 16  2  0  0  0  0 
  2 17  1  0  0  0  0 
  2 18  1  0  0  0  0 
  2 19  1  0  0  0  0 
  7 20  1  0  0  0  0 
  9 21  1  0  0  0  0 
 10 22  1  0  0  0  0 
 12 23  1  0  0  0  0 
 14 24  1  0  0  0  0 
M  END
> <cdk:Title>
bergapten

> <Conformer>
1

> <SuperDrugID>
SD002625

$$$$
