cefazedone
  CDK     0628171801

 48 51  0  0  0  0  0  0  0  0999 V2000
   -4.9479    2.5130   -0.1415 C   0  0  0  0  0  0  0  0  0  0  0  0
   -4.2060    1.4388   -0.4977 O   0  0  0  0  0  0  0  0  0  0  0  0
   -4.8960    3.5207   -0.8825 O   0  0  0  0  0  0  0  0  0  0  0  0
   -5.7696    2.5140    0.9836 C   0  0  0  0  0  0  0  0  0  0  0  0
   -7.0463    2.9070    0.7846 N   0  0  0  0  0  0  0  0  0  0  0  0
   -5.3601    2.1153    2.2239 C   0  0  0  0  0  0  0  0  0  0  0  0
   -8.0502    3.3642    1.6776 C   0  0  1  0  0  0  0  0  0  0  0  0
   -7.8849    2.8415   -0.2610 C   0  0  0  0  0  0  0  0  0  0  0  0
   -4.0012    1.6225    2.4903 C   0  0  1  0  0  0  0  0  0  0  0  0
   -6.2500    2.1228    3.4048 C   0  0  2  0  0  0  0  0  0  0  0  0
   -9.0761    3.1956    0.5116 C   0  0  1  0  0  0  0  0  0  0  0  0
   -8.0452    2.2037    3.0758 S   0  0  0  0  0  0  0  0  0  0  0  0
   -7.7401    2.4818   -1.4521 O   0  0  0  0  0  0  0  0  0  0  0  0
   -4.0155   -0.1825    2.2315 S   0  0  0  0  0  0  0  0  0  0  0  0
   -9.9636    2.0794    0.5950 N   0  0  0  0  0  0  0  0  0  0  0  0
   -2.3560   -0.6984    2.3793 C   0  0  0  0  0  0  0  0  0  0  0  0
  -10.7529    1.6453   -0.4214 C   0  0  0  0  0  0  0  0  0  0  0  0
   -1.3446   -0.7001    3.8117 S   0  0  0  0  0  0  0  0  0  0  0  0
   -1.6152   -1.2752    1.4099 N   0  0  0  0  0  0  0  0  0  0  0  0
  -11.3406    0.2903   -0.3672 C   0  0  2  0  0  0  0  0  0  0  0  0
  -10.9297    2.3378   -1.4516 O   0  0  0  0  0  0  0  0  0  0  0  0
   -0.0029   -1.5032    3.0139 C   0  0  0  0  0  0  0  0  0  0  0  0
   -0.4084   -1.6826    1.7355 N   0  0  0  0  0  0  0  0  0  0  0  0
  -10.8011   -0.5463   -1.4226 N   0  0  0  0  0  0  0  0  0  0  0  0
    1.2781   -1.9018    3.6028 C   0  0  0  0  0  0  0  0  0  0  0  0
  -11.6104   -1.0325   -2.4163 C   0  0  0  0  0  0  0  0  0  0  0  0
   -9.4610   -0.8427   -1.4275 C   0  0  0  0  0  0  0  0  0  0  0  0
  -11.0869   -1.8074   -3.4700 C   0  0  0  0  0  0  0  0  0  0  0  0
   -8.8798   -1.6049   -2.4580 C   0  0  0  0  0  0  0  0  0  0  0  0
  -12.1262   -2.3767   -4.6849 Cl  0  0  0  0  0  0  0  0  0  0  0  0
   -9.7050   -2.0891   -3.4929 C   0  0  0  0  0  0  0  0  0  0  0  0
   -7.2106   -1.9142   -2.4320 Cl  0  0  0  0  0  0  0  0  0  0  0  0
   -9.2138   -2.7661   -4.4269 O   0  0  0  0  0  0  0  0  0  0  0  0
   -7.8833    4.4015    1.9851 H   0  0  0  0  0  0  0  0  0  0  0  0
   -3.6405    1.4714   -1.2979 H   0  0  0  0  0  0  0  0  0  0  0  0
   -3.2532    2.0847    1.8454 H   0  0  0  0  0  0  0  0  0  0  0  0
   -3.6911    1.8298    3.5172 H   0  0  0  0  0  0  0  0  0  0  0  0
   -5.9911    2.9849    4.0205 H   0  0  0  0  0  0  0  0  0  0  0  0
   -6.1040    1.2227    4.0048 H   0  0  0  0  0  0  0  0  0  0  0  0
   -9.5417    4.1307    0.1886 H   0  0  0  0  0  0  0  0  0  0  0  0
   -9.9450    1.5481    1.4038 H   0  0  0  0  0  0  0  0  0  0  0  0
  -12.4260    0.3993   -0.4268 H   0  0  0  0  0  0  0  0  0  0  0  0
  -11.1250   -0.1811    0.5964 H   0  0  0  0  0  0  0  0  0  0  0  0
    1.9108   -2.3741    2.8472 H   0  0  0  0  0  0  0  0  0  0  0  0
    1.7884   -1.0241    3.9962 H   0  0  0  0  0  0  0  0  0  0  0  0
    1.1031   -2.6118    4.4125 H   0  0  0  0  0  0  0  0  0  0  0  0
  -12.6144   -0.8281   -2.4109 H   0  0  0  0  0  0  0  0  0  0  0  0
   -8.8571   -0.4944   -0.6771 H   0  0  0  0  0  0  0  0  0  0  0  0
  1  2  1  0  0  0  0 
  1  3  2  0  0  0  0 
  1  4  1  0  0  0  0 
  4  5  1  0  0  0  0 
  4  6  2  0  0  0  0 
  7  5  1  0  0  0  0 
  5  8  1  0  0  0  0 
  6  9  1  0  0  0  0 
  6 10  1  0  0  0  0 
 11  7  1  0  0  0  0 
  7 12  1  0  0  0  0 
  7 34  1  0  0  0  0 
 11  8  1  0  0  0  0 
  8 13  2  0  0  0  0 
  9 14  1  0  0  0  0 
 10 12  1  0  0  0  0 
 11 15  1  0  0  0  0 
 14 16  1  0  0  0  0 
 15 17  1  0  0  0  0 
 16 18  1  0  0  0  0 
 16 19  2  0  0  0  0 
 17 20  1  0  0  0  0 
 17 21  2  0  0  0  0 
 18 22  1  0  0  0  0 
 19 23  1  0  0  0  0 
 20 24  1  0  0  0  0 
 22 23  2  0  0  0  0 
 22 25  1  0  0  0  0 
 24 26  1  0  0  0  0 
 24 27  1  0  0  0  0 
 26 28  2  0  0  0  0 
 27 29  2  0  0  0  0 
 28 30  1  0  0  0  0 
 28 31  1  0  0  0  0 
 29 31  1  0  0  0  0 
 29 32  1  0  0  0  0 
 31 33  2  0  0  0  0 
  2 35  1  0  0  0  0 
  9 36  1  0  0  0  0 
  9 37  1  0  0  0  0 
 10 38  1  0  0  0  0 
 10 39  1  0  0  0  0 
 11 40  1  0  0  0  0 
 15 41  1  0  0  0  0 
 20 42  1  0  0  0  0 
 20 43  1  0  0  0  0 
 25 44  1  0  0  0  0 
 25 45  1  0  0  0  0 
 25 46  1  0  0  0  0 
 26 47  1  0  0  0  0 
 27 48  1  0  0  0  0 
M  END
> <cdk:Title>
cefazedone

> <Conformer>
1

> <SuperDrugID>
SD002667

$$$$
