lomitapide
  CDK     0628171802

 87 92  0  0  0  0  0  0  0  0999 V2000
   -2.6365    0.5369    3.5703 C   0  0  2  0  0  0  0  0  0  0  0  0
   -2.2889    0.2114    5.0566 C   0  0  2  0  0  0  0  0  0  0  0  0
   -1.4049    0.7135    2.6106 C   0  0  1  0  0  0  0  0  0  0  0  0
   -3.5188   -0.2036    5.9035 C   0  0  2  0  0  0  0  0  0  0  0  0
   -1.7736    0.8855    1.1705 C   0  0  0  0  0  0  0  0  0  0  0  0
   -0.5082    1.8240    3.0376 C   0  0  0  0  0  0  0  0  0  0  0  0
   -0.4552   -0.4273    2.7527 C   0  0  0  0  0  0  0  0  0  0  0  0
   -3.1034   -0.8120    7.2714 C   0  0  2  0  0  0  0  0  0  0  0  0
   -0.7754    0.9162    0.2456 N   0  0  0  0  0  0  0  0  0  0  0  0
   -2.9723    0.9872    0.8116 O   0  0  0  0  0  0  0  0  0  0  0  0
    0.7755    1.3667    3.3668 C   0  0  0  0  0  0  0  0  0  0  0  0
   -0.8084    3.1994    3.1202 C   0  0  0  0  0  0  0  0  0  0  0  0
    0.8019   -0.0137    3.2136 C   0  0  0  0  0  0  0  0  0  0  0  0
   -0.7058   -1.7950    2.5163 C   0  0  0  0  0  0  0  0  0  0  0  0
   -4.2005   -0.7650    8.2885 N   0  0  2  0  0  0  0  0  0  0  0  0
   -0.9371    1.0095   -1.1647 C   0  0  2  0  0  0  0  0  0  0  0  0
    1.7886    2.2584    3.7730 C   0  0  0  0  0  0  0  0  0  0  0  0
    0.1975    4.1006    3.5279 C   0  0  0  0  0  0  0  0  0  0  0  0
    1.8319   -0.9422    3.4641 C   0  0  0  0  0  0  0  0  0  0  0  0
    0.3139   -2.7349    2.7731 C   0  0  0  0  0  0  0  0  0  0  0  0
   -3.6852   -0.8921    9.6869 C   0  0  2  0  0  0  0  0  0  0  0  0
   -5.3454   -1.6956    8.0205 C   0  0  1  0  0  0  0  0  0  0  0  0
    0.4444    0.8954   -1.8486 C   0  0  2  0  0  0  0  0  0  0  0  0
    1.4893    3.6328    3.8496 C   0  0  0  0  0  0  0  0  0  0  0  0
    1.5746   -2.3106    3.2463 C   0  0  0  0  0  0  0  0  0  0  0  0
   -4.7948   -0.5539   10.7018 C   0  0  2  0  0  0  0  0  0  0  0  0
   -6.5102   -1.4151    9.0061 C   0  0  1  0  0  0  0  0  0  0  0  0
    0.3081    0.9457   -3.2139 F   0  0  0  0  0  0  0  0  0  0  0  0
    1.0541   -0.2926   -1.5193 F   0  0  0  0  0  0  0  0  0  0  0  0
    1.2690    1.9235   -1.4574 F   0  0  0  0  0  0  0  0  0  0  0  0
   -6.0676   -1.4246   10.4981 C   0  0  2  0  0  0  0  0  0  0  0  0
   -7.1316   -0.8818   11.2896 N   0  0  0  0  0  0  0  0  0  0  0  0
   -7.1883   -0.8316   12.6521 C   0  0  0  0  0  0  0  0  0  0  0  0
   -6.3543   -1.5385   13.2706 O   0  0  0  0  0  0  0  0  0  0  0  0
   -8.0936    0.0207   13.3845 C   0  0  0  0  0  0  0  0  0  0  0  0
   -8.9781    0.9854   12.7960 C   0  0  0  0  0  0  0  0  0  0  0  0
   -8.0826   -0.0587   14.8060 C   0  0  0  0  0  0  0  0  0  0  0  0
   -9.7541    1.8382   13.6198 C   0  0  0  0  0  0  0  0  0  0  0  0
   -9.1726    1.1369   11.4001 C   0  0  0  0  0  0  0  0  0  0  0  0
   -8.8613    0.7866   15.6123 C   0  0  0  0  0  0  0  0  0  0  0  0
   -9.6905    1.7438   15.0177 C   0  0  0  0  0  0  0  0  0  0  0  0
   -8.3794    2.0087   10.6217 C   0  0  0  0  0  0  0  0  0  0  0  0
  -10.1582    0.3579   10.7584 C   0  0  0  0  0  0  0  0  0  0  0  0
   -8.5816    2.1040    9.2302 C   0  0  0  0  0  0  0  0  0  0  0  0
  -10.3461    0.4457    9.3691 C   0  0  0  0  0  0  0  0  0  0  0  0
   -9.5663    1.3220    8.5778 C   0  0  0  0  0  0  0  0  0  0  0  0
   -9.7901    1.3708    7.1026 C   0  0  1  0  0  0  0  0  0  0  0  0
  -11.1097    1.6326    6.8187 F   0  0  0  0  0  0  0  0  0  0  0  0
   -9.0547    2.3285    6.4436 F   0  0  0  0  0  0  0  0  0  0  0  0
   -9.4633    0.1565    6.5479 F   0  0  0  0  0  0  0  0  0  0  0  0
   -3.2457    1.4457    3.5492 H   0  0  0  0  0  0  0  0  0  0  0  0
   -3.2587   -0.2745    3.1780 H   0  0  0  0  0  0  0  0  0  0  0  0
   -1.8142    1.0837    5.5152 H   0  0  0  0  0  0  0  0  0  0  0  0
   -1.5740   -0.6124    5.0999 H   0  0  0  0  0  0  0  0  0  0  0  0
   -4.0992   -0.9485    5.3543 H   0  0  0  0  0  0  0  0  0  0  0  0
   -4.1541    0.6717    6.0633 H   0  0  0  0  0  0  0  0  0  0  0  0
   -2.2487   -0.2326    7.6353 H   0  0  0  0  0  0  0  0  0  0  0  0
   -2.7576   -1.8417    7.1278 H   0  0  0  0  0  0  0  0  0  0  0  0
    0.1354    0.8556    0.5789 H   0  0  0  0  0  0  0  0  0  0  0  0
   -1.7421    3.5440    2.8864 H   0  0  0  0  0  0  0  0  0  0  0  0
   -1.6178   -2.1070    2.1758 H   0  0  0  0  0  0  0  0  0  0  0  0
   -1.3959    1.9694   -1.4111 H   0  0  0  0  0  0  0  0  0  0  0  0
   -1.5866    0.2028   -1.5188 H   0  0  0  0  0  0  0  0  0  0  0  0
    2.7245    1.9227    4.0091 H   0  0  0  0  0  0  0  0  0  0  0  0
   -0.0119    5.0979    3.5917 H   0  0  0  0  0  0  0  0  0  0  0  0
    2.7461   -0.6370    3.8067 H   0  0  0  0  0  0  0  0  0  0  0  0
    0.1362   -3.7293    2.6211 H   0  0  0  0  0  0  0  0  0  0  0  0
   -2.8674   -0.1869    9.8615 H   0  0  0  0  0  0  0  0  0  0  0  0
   -3.3058   -1.9023    9.8708 H   0  0  0  0  0  0  0  0  0  0  0  0
   -5.7687   -1.4510    6.9953 H   0  0  0  0  0  0  0  0  0  0  0  0
   -4.9923   -2.7630    8.1957 H   0  0  0  0  0  0  0  0  0  0  0  0
    2.2108    4.2967    4.1414 H   0  0  0  0  0  0  0  0  0  0  0  0
    2.3051   -3.0023    3.4345 H   0  0  0  0  0  0  0  0  0  0  0  0
   -5.0518    0.5038   10.5903 H   0  0  0  0  0  0  0  0  0  0  0  0
   -4.3999   -0.7001   11.7103 H   0  0  0  0  0  0  0  0  0  0  0  0
   -6.9366   -0.4388    8.7535 H   0  0  0  0  0  0  0  0  0  0  0  0
   -7.2924   -2.1657    8.8561 H   0  0  0  0  0  0  0  0  0  0  0  0
   -5.8617   -2.4576   10.8011 H   0  0  0  0  0  0  0  0  0  0  0  0
   -7.8307   -0.4408   10.7947 H   0  0  0  0  0  0  0  0  0  0  0  0
   -7.4907   -0.7347   15.2945 H   0  0  0  0  0  0  0  0  0  0  0  0
  -10.3812    2.5383   13.2112 H   0  0  0  0  0  0  0  0  0  0  0  0
   -8.8172    0.7116   16.6315 H   0  0  0  0  0  0  0  0  0  0  0  0
  -10.2457    2.3726   15.6002 H   0  0  0  0  0  0  0  0  0  0  0  0
   -7.6393    2.5643   11.0582 H   0  0  0  0  0  0  0  0  0  0  0  0
  -10.7329   -0.2931   11.2985 H   0  0  0  0  0  0  0  0  0  0  0  0
   -7.9909    2.7423    8.6947 H   0  0  0  0  0  0  0  0  0  0  0  0
  -11.0587   -0.1451    8.9334 H   0  0  0  0  0  0  0  0  0  0  0  0
  1  2  1  0  0  0  0 
  1  3  1  0  0  0  0 
  2  4  1  0  0  0  0 
  3  5  1  0  0  0  0 
  3  6  1  0  0  0  0 
  3  7  1  0  0  0  0 
  4  8  1  0  0  0  0 
  5  9  1  0  0  0  0 
  5 10  2  0  0  0  0 
  6 11  2  0  0  0  0 
  6 12  1  0  0  0  0 
  7 13  2  0  0  0  0 
  7 14  1  0  0  0  0 
  8 15  1  0  0  0  0 
  9 16  1  0  0  0  0 
 11 13  1  0  0  0  0 
 11 17  1  0  0  0  0 
 12 18  2  0  0  0  0 
 13 19  1  0  0  0  0 
 14 20  2  0  0  0  0 
 15 21  1  0  0  0  0 
 15 22  1  0  0  0  0 
 16 23  1  0  0  0  0 
 17 24  2  0  0  0  0 
 18 24  1  0  0  0  0 
 19 25  2  0  0  0  0 
 20 25  1  0  0  0  0 
 21 26  1  0  0  0  0 
 22 27  1  0  0  0  0 
 23 28  1  0  0  0  0 
 23 29  1  0  0  0  0 
 23 30  1  0  0  0  0 
 26 31  1  0  0  0  0 
 27 31  1  0  0  0  0 
 31 32  1  0  0  0  0 
 32 33  1  0  0  0  0 
 33 34  2  0  0  0  0 
 33 35  1  0  0  0  0 
 35 36  2  0  0  0  0 
 35 37  1  0  0  0  0 
 36 38  1  0  0  0  0 
 36 39  1  0  0  0  0 
 37 40  2  0  0  0  0 
 38 41  2  0  0  0  0 
 39 42  2  0  0  0  0 
 39 43  1  0  0  0  0 
 40 41  1  0  0  0  0 
 42 44  1  0  0  0  0 
 43 45  2  0  0  0  0 
 44 46  2  0  0  0  0 
 45 46  1  0  0  0  0 
 46 47  1  0  0  0  0 
 47 48  1  0  0  0  0 
 47 49  1  0  0  0  0 
 47 50  1  0  0  0  0 
  1 51  1  0  0  0  0 
  1 52  1  0  0  0  0 
  2 53  1  0  0  0  0 
  2 54  1  0  0  0  0 
  4 55  1  0  0  0  0 
  4 56  1  0  0  0  0 
  8 57  1  0  0  0  0 
  8 58  1  0  0  0  0 
  9 59  1  0  0  0  0 
 12 60  1  0  0  0  0 
 14 61  1  0  0  0  0 
 16 62  1  0  0  0  0 
 16 63  1  0  0  0  0 
 17 64  1  0  0  0  0 
 18 65  1  0  0  0  0 
 19 66  1  0  0  0  0 
 20 67  1  0  0  0  0 
 21 68  1  0  0  0  0 
 21 69  1  0  0  0  0 
 22 70  1  0  0  0  0 
 22 71  1  0  0  0  0 
 24 72  1  0  0  0  0 
 25 73  1  0  0  0  0 
 26 74  1  0  0  0  0 
 26 75  1  0  0  0  0 
 27 76  1  0  0  0  0 
 27 77  1  0  0  0  0 
 31 78  1  0  0  0  0 
 32 79  1  0  0  0  0 
 37 80  1  0  0  0  0 
 38 81  1  0  0  0  0 
 40 82  1  0  0  0  0 
 41 83  1  0  0  0  0 
 42 84  1  0  0  0  0 
 43 85  1  0  0  0  0 
 44 86  1  0  0  0  0 
 45 87  1  0  0  0  0 
M  END
> <cdk:Title>
lomitapide

> <Conformer>
1

> <SuperDrugID>
SD003729

$$$$
