deoxycholic acid
  CDK     0628171802

 68 71  0  0  0  0  0  0  0  0999 V2000
   -1.1735   -5.1383   -7.7604 C   0  0  2  0  0  0  0  0  0  0  0  0
    0.0236   -6.0238   -8.1906 C   0  0  2  0  0  0  0  0  0  0  0  0
   -0.0011   -6.2742   -9.7168 C   0  0  2  0  0  0  0  0  0  0  0  0
   -1.3438   -6.9162  -10.1373 C   0  0  1  0  0  0  0  0  0  0  0  0
   -2.5791   -6.0561   -9.6998 C   0  0  2  0  0  0  0  0  0  0  0  0
   -2.6027   -5.6927   -8.1512 C   0  0  1  0  0  0  0  0  0  0  0  0
   -3.0430   -6.9751   -7.3036 C   0  0  2  0  0  0  0  0  0  0  0  0
   -3.9054   -6.7215  -10.1850 C   0  0  1  0  0  0  0  0  0  0  0  0
   -4.3067   -7.9506   -9.3344 C   0  0  2  0  0  0  0  0  0  0  0  0
   -4.3990   -7.5985   -7.8227 C   0  0  1  0  0  0  0  0  0  0  0  0
   -3.6053   -8.0018   -4.9177 C   0  0  1  0  0  0  0  0  0  0  0  0
   -3.0508   -6.7903   -5.7409 C   0  0  1  0  0  0  0  0  0  0  0  0
   -4.8040   -8.8335   -6.9529 C   0  0  1  0  0  0  0  0  0  0  0  0
   -5.0061   -8.5030   -5.4341 C   0  0  1  0  0  0  0  0  0  0  0  0
   -6.0625   -9.6285   -7.3494 C   0  0  1  0  0  0  0  0  0  0  0  0
   -6.4407  -10.3996   -6.0659 C   0  0  2  0  0  0  0  0  0  0  0  0
   -5.5203   -9.9040   -4.8997 C   0  0  2  0  0  0  0  0  0  0  0  0
    1.0881   -7.1172  -10.0867 O   0  0  0  0  0  0  0  0  0  0  0  0
   -3.5896   -4.4831   -7.9199 C   0  0  0  0  0  0  0  0  0  0  0  0
   -2.4882   -5.1220  -10.2683 H   0  0  0  0  0  0  0  0  0  0  0  0
   -2.2842   -7.7424   -7.4782 H   0  0  0  0  0  0  0  0  0  0  0  0
   -5.2021   -6.8693   -7.7411 H   0  0  0  0  0  0  0  0  0  0  0  0
   -3.9779   -9.5488   -7.0537 H   0  0  0  0  0  0  0  0  0  0  0  0
   -2.6357   -9.0519   -4.9232 O   0  0  0  0  0  0  0  0  0  0  0  0
   -6.2237  -10.0062   -3.4840 C   0  0  2  0  0  0  0  0  0  0  0  0
   -5.3501   -9.4837   -2.3049 C   0  0  0  0  0  0  0  0  0  0  0  0
   -6.8023  -11.4301   -3.1509 C   0  0  2  0  0  0  0  0  0  0  0  0
   -5.7701  -12.5353   -2.7840 C   0  0  2  0  0  0  0  0  0  0  0  0
   -7.0995   -9.3536   -3.5169 H   0  0  0  0  0  0  0  0  0  0  0  0
   -6.4291  -13.8312   -2.5089 C   0  0  0  0  0  0  0  0  0  0  0  0
   -7.0251  -14.5233   -3.5107 O   0  0  0  0  0  0  0  0  0  0  0  0
   -6.4488  -14.3193   -1.3550 O   0  0  0  0  0  0  0  0  0  0  0  0
   -6.0919   -7.3893   -5.1613 C   0  0  0  0  0  0  0  0  0  0  0  0
   -4.6624  -10.5857   -4.8673 H   0  0  0  0  0  0  0  0  0  0  0  0
   -1.0170   -4.1631   -8.2350 H   0  0  0  0  0  0  0  0  0  0  0  0
   -1.1068   -4.9574   -6.6869 H   0  0  0  0  0  0  0  0  0  0  0  0
    0.0046   -6.9722   -7.6487 H   0  0  0  0  0  0  0  0  0  0  0  0
    0.9557   -5.5145   -7.9303 H   0  0  0  0  0  0  0  0  0  0  0  0
    0.1232   -5.3223  -10.2426 H   0  0  0  0  0  0  0  0  0  0  0  0
   -1.3425   -7.0240  -11.2261 H   0  0  0  0  0  0  0  0  0  0  0  0
   -1.3973   -7.9194   -9.7102 H   0  0  0  0  0  0  0  0  0  0  0  0
   -4.7153   -5.9883  -10.1499 H   0  0  0  0  0  0  0  0  0  0  0  0
   -3.8140   -7.0292  -11.2300 H   0  0  0  0  0  0  0  0  0  0  0  0
   -3.5886   -8.7589   -9.4836 H   0  0  0  0  0  0  0  0  0  0  0  0
   -5.2754   -8.3058   -9.6932 H   0  0  0  0  0  0  0  0  0  0  0  0
   -3.6907   -7.6800   -3.8785 H   0  0  0  0  0  0  0  0  0  0  0  0
   -2.0315   -6.6063   -5.3940 H   0  0  0  0  0  0  0  0  0  0  0  0
   -3.6323   -5.9081   -5.4777 H   0  0  0  0  0  0  0  0  0  0  0  0
   -6.8715   -8.9565   -7.6513 H   0  0  0  0  0  0  0  0  0  0  0  0
   -5.8546  -10.3183   -8.1734 H   0  0  0  0  0  0  0  0  0  0  0  0
   -6.3095  -11.4749   -6.2218 H   0  0  0  0  0  0  0  0  0  0  0  0
   -7.4974  -10.2105   -5.8485 H   0  0  0  0  0  0  0  0  0  0  0  0
    1.0361   -7.1855  -11.0640 H   0  0  0  0  0  0  0  0  0  0  0  0
   -4.6293   -4.7415   -8.1075 H   0  0  0  0  0  0  0  0  0  0  0  0
   -3.3498   -3.6483   -8.5839 H   0  0  0  0  0  0  0  0  0  0  0  0
   -3.5244   -4.1034   -6.8996 H   0  0  0  0  0  0  0  0  0  0  0  0
   -1.8328   -8.6628   -4.5185 H   0  0  0  0  0  0  0  0  0  0  0  0
   -5.2787   -8.3979   -2.3228 H   0  0  0  0  0  0  0  0  0  0  0  0
   -4.3413   -9.8997   -2.3578 H   0  0  0  0  0  0  0  0  0  0  0  0
   -5.7907   -9.7565   -1.3417 H   0  0  0  0  0  0  0  0  0  0  0  0
   -7.4055  -11.7885   -3.9872 H   0  0  0  0  0  0  0  0  0  0  0  0
   -7.4964  -11.3267   -2.3087 H   0  0  0  0  0  0  0  0  0  0  0  0
   -5.2063  -12.2340   -1.8972 H   0  0  0  0  0  0  0  0  0  0  0  0
   -5.0556  -12.6803   -3.5977 H   0  0  0  0  0  0  0  0  0  0  0  0
   -7.4506  -15.3888   -3.3363 H   0  0  0  0  0  0  0  0  0  0  0  0
   -7.0854   -7.7026   -5.4851 H   0  0  0  0  0  0  0  0  0  0  0  0
   -6.1466   -7.1491   -4.0987 H   0  0  0  0  0  0  0  0  0  0  0  0
   -5.8746   -6.4544   -5.6714 H   0  0  0  0  0  0  0  0  0  0  0  0
  1  2  1  0  0  0  0 
  1  6  1  0  0  0  0 
  2  3  1  0  0  0  0 
  3  4  1  0  0  0  0 
  4  5  1  0  0  0  0 
  5  6  1  0  0  0  0 
  8  9  1  0  0  0  0 
  9 10  1  0  0  0  0 
  7 10  1  0  0  0  0 
  5  8  1  0  0  0  0 
  7  6  1  0  0  0  0 
 11 12  1  0  0  0  0 
 13 14  1  0  0  0  0 
 11 14  1  0  0  0  0 
 12  7  1  0  0  0  0 
 10 13  1  0  0  0  0 
 15 16  1  0  0  0  0 
 16 17  1  0  0  0  0 
 13 15  1  0  0  0  0 
 14 17  1  0  0  0  0 
  3 18  1  0  0  0  0 
  6 19  1  0  0  0  0 
  5 20  1  0  0  0  0 
  7 21  1  0  0  0  0 
 10 22  1  0  0  0  0 
 13 23  1  0  0  0  0 
 11 24  1  0  0  0  0 
 17 25  1  0  0  0  0 
 25 26  1  0  0  0  0 
 25 27  1  0  0  0  0 
 27 28  1  0  0  0  0 
 25 29  1  0  0  0  0 
 28 30  1  0  0  0  0 
 30 31  1  0  0  0  0 
 30 32  2  0  0  0  0 
 14 33  1  0  0  0  0 
 17 34  1  0  0  0  0 
  1 35  1  0  0  0  0 
  1 36  1  0  0  0  0 
  2 37  1  0  0  0  0 
  2 38  1  0  0  0  0 
  3 39  1  0  0  0  0 
  4 40  1  0  0  0  0 
  4 41  1  0  0  0  0 
  8 42  1  0  0  0  0 
  8 43  1  0  0  0  0 
  9 44  1  0  0  0  0 
  9 45  1  0  0  0  0 
 11 46  1  0  0  0  0 
 12 47  1  0  0  0  0 
 12 48  1  0  0  0  0 
 15 49  1  0  0  0  0 
 15 50  1  0  0  0  0 
 16 51  1  0  0  0  0 
 16 52  1  0  0  0  0 
 18 53  1  0  0  0  0 
 19 54  1  0  0  0  0 
 19 55  1  0  0  0  0 
 19 56  1  0  0  0  0 
 24 57  1  0  0  0  0 
 26 58  1  0  0  0  0 
 26 59  1  0  0  0  0 
 26 60  1  0  0  0  0 
 27 61  1  0  0  0  0 
 27 62  1  0  0  0  0 
 28 63  1  0  0  0  0 
 28 64  1  0  0  0  0 
 31 65  1  0  0  0  0 
 33 66  1  0  0  0  0 
 33 67  1  0  0  0  0 
 33 68  1  0  0  0  0 
M  END
> <cdk:Title>
deoxycholic acid

> <Conformer>
1

> <SuperDrugID>
SD003867

$$$$
