acebutolol
  CDK     0628171801

 52 52  0  0  0  0  0  0  0  0999 V2000
    3.3518   -1.5746   -0.4266 O   0  0  0  0  0  0  0  0  0  0  0  0
    4.2072   -0.9662    0.5692 C   0  0  1  0  0  0  0  0  0  0  0  0
    2.1296   -1.9240    0.0948 C   0  0  0  0  0  0  0  0  0  0  0  0
    5.4609   -0.3263   -0.0744 C   0  0  2  0  0  0  0  0  0  0  0  0
    1.0156   -1.0371    0.0678 C   0  0  0  0  0  0  0  0  0  0  0  0
    2.0246   -3.1884    0.7054 C   0  0  0  0  0  0  0  0  0  0  0  0
    6.3787   -1.3569   -0.7750 C   0  0  2  0  0  0  0  0  0  0  0  0
    6.1952    0.3435    0.9504 O   0  0  0  0  0  0  0  0  0  0  0  0
    1.0822    0.2179   -0.6245 C   0  0  0  0  0  0  0  0  0  0  0  0
   -0.1571   -1.4340    0.7662 C   0  0  0  0  0  0  0  0  0  0  0  0
    0.8487   -3.5600    1.3691 C   0  0  0  0  0  0  0  0  0  0  0  0
    7.6503   -0.7090   -1.1747 N   0  0  1  0  0  0  0  0  0  0  0  0
    0.1586    1.3516   -0.3934 C   0  0  0  0  0  0  0  0  0  0  0  0
    1.9577    0.4049   -1.5015 O   0  0  0  0  0  0  0  0  0  0  0  0
   -0.2492   -2.6814    1.4311 C   0  0  0  0  0  0  0  0  0  0  0  0
    8.5957   -1.5323   -1.9699 C   0  0  1  0  0  0  0  0  0  0  0  0
   -1.3034   -3.0942    2.1975 N   0  0  0  0  0  0  0  0  0  0  0  0
    9.7153   -0.5845   -2.4680 C   0  0  0  0  0  0  0  0  0  0  0  0
    9.1904   -2.7125   -1.1530 C   0  0  0  0  0  0  0  0  0  0  0  0
   -2.6181   -2.7375    2.1359 C   0  0  0  0  0  0  0  0  0  0  0  0
   -3.5374   -3.2495    3.1754 C   0  0  2  0  0  0  0  0  0  0  0  0
   -3.0811   -2.0063    1.2292 O   0  0  0  0  0  0  0  0  0  0  0  0
   -3.3515   -2.4833    4.5140 C   0  0  1  0  0  0  0  0  0  0  0  0
   -4.3289   -2.9537    5.6151 C   0  0  0  0  0  0  0  0  0  0  0  0
    3.6778   -0.1748    1.1126 H   0  0  0  0  0  0  0  0  0  0  0  0
    4.5273   -1.7202    1.2951 H   0  0  0  0  0  0  0  0  0  0  0  0
    5.1428    0.4241   -0.8047 H   0  0  0  0  0  0  0  0  0  0  0  0
    2.8167   -3.8342    0.6899 H   0  0  0  0  0  0  0  0  0  0  0  0
    5.8661   -1.7549   -1.6549 H   0  0  0  0  0  0  0  0  0  0  0  0
    6.5847   -2.1770   -0.0824 H   0  0  0  0  0  0  0  0  0  0  0  0
    5.5698    0.9999    1.3208 H   0  0  0  0  0  0  0  0  0  0  0  0
   -0.9526   -0.7999    0.8162 H   0  0  0  0  0  0  0  0  0  0  0  0
    0.8050   -4.4750    1.8246 H   0  0  0  0  0  0  0  0  0  0  0  0
    7.4029    0.0971   -1.7540 H   0  0  0  0  0  0  0  0  0  0  0  0
    0.4339    2.2225   -0.9925 H   0  0  0  0  0  0  0  0  0  0  0  0
   -0.8579    1.0724   -0.6659 H   0  0  0  0  0  0  0  0  0  0  0  0
    0.1854    1.6391    0.6574 H   0  0  0  0  0  0  0  0  0  0  0  0
    8.0779   -1.9344   -2.8478 H   0  0  0  0  0  0  0  0  0  0  0  0
   -1.0828   -3.7451    2.8839 H   0  0  0  0  0  0  0  0  0  0  0  0
   10.4077   -1.1190   -3.1213 H   0  0  0  0  0  0  0  0  0  0  0  0
   10.2728   -0.1749   -1.6224 H   0  0  0  0  0  0  0  0  0  0  0  0
    9.2853    0.2440   -3.0349 H   0  0  0  0  0  0  0  0  0  0  0  0
    9.9960   -3.1966   -1.7077 H   0  0  0  0  0  0  0  0  0  0  0  0
    8.4275   -3.4663   -0.9520 H   0  0  0  0  0  0  0  0  0  0  0  0
    9.5860   -2.3554   -0.2005 H   0  0  0  0  0  0  0  0  0  0  0  0
   -3.3534   -4.3180    3.3241 H   0  0  0  0  0  0  0  0  0  0  0  0
   -4.5721   -3.1417    2.8380 H   0  0  0  0  0  0  0  0  0  0  0  0
   -2.3274   -2.6186    4.8756 H   0  0  0  0  0  0  0  0  0  0  0  0
   -3.5089   -1.4130    4.3483 H   0  0  0  0  0  0  0  0  0  0  0  0
   -4.1607   -2.3830    6.5303 H   0  0  0  0  0  0  0  0  0  0  0  0
   -4.1746   -4.0110    5.8382 H   0  0  0  0  0  0  0  0  0  0  0  0
   -5.3627   -2.8027    5.2983 H   0  0  0  0  0  0  0  0  0  0  0  0
  1  2  1  0  0  0  0 
  1  3  1  0  0  0  0 
  4  2  1  0  0  0  0 
  3  5  2  0  0  0  0 
  3  6  1  0  0  0  0 
  4  7  1  0  0  0  0 
  4  8  1  0  0  0  0 
  5  9  1  0  0  0  0 
  5 10  1  0  0  0  0 
  6 11  2  0  0  0  0 
  7 12  1  0  0  0  0 
  9 13  1  0  0  0  0 
  9 14  2  0  0  0  0 
 10 15  2  0  0  0  0 
 11 15  1  0  0  0  0 
 12 16  1  0  0  0  0 
 15 17  1  0  0  0  0 
 16 18  1  0  0  0  0 
 16 19  1  0  0  0  0 
 17 20  1  0  0  0  0 
 20 21  1  0  0  0  0 
 20 22  2  0  0  0  0 
 21 23  1  0  0  0  0 
 23 24  1  0  0  0  0 
 25  2  1  0  0  0  0 
 26  2  1  0  0  0  0 
 27  4  1  0  0  0  0 
 28  6  1  0  0  0  0 
 29  7  1  0  0  0  0 
 30  7  1  0  0  0  0 
 31  8  1  0  0  0  0 
 32 10  1  0  0  0  0 
 33 11  1  0  0  0  0 
 34 12  1  0  0  0  0 
 35 13  1  0  0  0  0 
 36 13  1  0  0  0  0 
 37 13  1  0  0  0  0 
 38 16  1  0  0  0  0 
 39 17  1  0  0  0  0 
 40 18  1  0  0  0  0 
 41 18  1  0  0  0  0 
 42 18  1  0  0  0  0 
 43 19  1  0  0  0  0 
 44 19  1  0  0  0  0 
 45 19  1  0  0  0  0 
 46 21  1  0  0  0  0 
 47 21  1  0  0  0  0 
 48 23  1  0  0  0  0 
 49 23  1  0  0  0  0 
 50 24  1  0  0  0  0 
 51 24  1  0  0  0  0 
 52 24  1  0  0  0  0 
M  END
> <cdk:Title>
acebutolol

> <Conformer>
1

> <SuperDrugID>
SD000018

$$$$
