mezlocillin
  CDK     0628171801

 61 64  0  0  0  0  0  0  0  0999 V2000
    3.8896   -0.8052    6.4071 N   0  0  0  0  0  0  0  0  0  0  0  0
    3.3677   -0.0036    5.4413 C   0  0  0  0  0  0  0  0  0  0  0  0
    5.0225   -0.5205    7.2222 C   0  0  1  0  0  0  0  0  0  0  0  0
    2.4776   -0.6016    4.4132 C   0  0  2  0  0  0  0  0  0  0  0  0
    3.7216    1.1947    5.3278 O   0  0  0  0  0  0  0  0  0  0  0  0
    5.2422   -1.5469    8.3803 C   0  0  2  0  0  0  0  0  0  0  0  0
    6.2260   -1.1234    6.6453 C   0  0  0  0  0  0  0  0  0  0  0  0
    1.7264   -1.6989    4.9582 N   0  0  0  0  0  0  0  0  0  0  0  0
    3.3711   -0.9986    3.2796 C   0  0  0  0  0  0  0  0  0  0  0  0
    6.3126   -2.0399    7.6075 N   0  0  0  0  0  0  0  0  0  0  0  0
    4.3367   -3.1206    8.5093 S   0  0  0  0  0  0  0  0  0  0  0  0
    6.8418   -0.9422    5.5708 O   0  0  0  0  0  0  0  0  0  0  0  0
    1.0385   -2.6565    4.2718 C   0  0  0  0  0  0  0  0  0  0  0  0
    4.2543   -2.1029    3.4011 C   0  0  0  0  0  0  0  0  0  0  0  0
    3.3694   -0.2678    2.0671 C   0  0  0  0  0  0  0  0  0  0  0  0
    6.9147   -3.3290    7.7238 C   0  0  2  0  0  0  0  0  0  0  0  0
    5.7738   -4.2541    8.3188 C   0  0  1  0  0  0  0  0  0  0  0  0
    0.9093   -2.5465    3.0280 O   0  0  0  0  0  0  0  0  0  0  0  0
    0.5342   -3.7517    4.9370 N   0  0  0  0  0  0  0  0  0  0  0  0
    5.1299   -2.4446    2.3556 C   0  0  0  0  0  0  0  0  0  0  0  0
    4.2459   -0.6096    1.0201 C   0  0  0  0  0  0  0  0  0  0  0  0
    8.1911   -3.2447    8.4731 C   0  0  0  0  0  0  0  0  0  0  0  0
    6.0583   -4.8740    9.7223 C   0  0  0  0  0  0  0  0  0  0  0  0
    5.3590   -5.3775    7.3201 C   0  0  0  0  0  0  0  0  0  0  0  0
   -0.0855   -4.8172    4.3679 C   0  0  0  0  0  0  0  0  0  0  0  0
    0.6430   -3.9651    6.3474 C   0  0  2  0  0  0  0  0  0  0  0  0
    5.1271   -1.6960    1.1661 C   0  0  0  0  0  0  0  0  0  0  0  0
    9.3089   -3.8202    7.9715 O   0  0  0  0  0  0  0  0  0  0  0  0
    8.2744   -2.6340    9.5631 O   0  0  0  0  0  0  0  0  0  0  0  0
   -0.2996   -4.9653    3.1409 O   0  0  0  0  0  0  0  0  0  0  0  0
   -0.4281   -5.7306    5.2943 N   0  0  0  0  0  0  0  0  0  0  0  0
   -0.1073   -5.2901    6.5982 C   0  0  2  0  0  0  0  0  0  0  0  0
   -1.1809   -7.2393    4.9642 S   0  0  2  0  0  0  0  0  0  0  0  0
   -2.9685   -6.9759    4.6885 C   0  0  0  0  0  0  0  0  0  0  0  0
   -0.9834   -8.2326    6.2074 O   0  0  0  0  0  0  0  0  0  0  0  0
   -0.5379   -7.9022    3.6527 O   0  0  0  0  0  0  0  0  0  0  0  0
    5.5840   -1.1323    9.3332 H   0  0  0  0  0  0  0  0  0  0  0  0
    3.5132   -1.6950    6.4887 H   0  0  0  0  0  0  0  0  0  0  0  0
    5.1626    0.5249    7.5127 H   0  0  0  0  0  0  0  0  0  0  0  0
    1.7528    0.1557    4.0977 H   0  0  0  0  0  0  0  0  0  0  0  0
    1.7293   -1.7796    5.9216 H   0  0  0  0  0  0  0  0  0  0  0  0
    4.2661   -2.6678    4.2550 H   0  0  0  0  0  0  0  0  0  0  0  0
    2.7355    0.5256    1.9424 H   0  0  0  0  0  0  0  0  0  0  0  0
    7.1665   -3.6593    6.7088 H   0  0  0  0  0  0  0  0  0  0  0  0
    5.7686   -3.2369    2.4642 H   0  0  0  0  0  0  0  0  0  0  0  0
    4.2423   -0.0635    0.1543 H   0  0  0  0  0  0  0  0  0  0  0  0
    6.2543   -4.0953   10.4611 H   0  0  0  0  0  0  0  0  0  0  0  0
    6.9243   -5.5395    9.6801 H   0  0  0  0  0  0  0  0  0  0  0  0
    5.2004   -5.4544   10.0711 H   0  0  0  0  0  0  0  0  0  0  0  0
    5.0542   -4.9481    6.3610 H   0  0  0  0  0  0  0  0  0  0  0  0
    6.1973   -6.0533    7.1397 H   0  0  0  0  0  0  0  0  0  0  0  0
    4.5234   -5.9609    7.7113 H   0  0  0  0  0  0  0  0  0  0  0  0
    0.1892   -3.1452    6.9129 H   0  0  0  0  0  0  0  0  0  0  0  0
    1.6932   -4.0651    6.6357 H   0  0  0  0  0  0  0  0  0  0  0  0
    5.7680   -1.9413    0.4093 H   0  0  0  0  0  0  0  0  0  0  0  0
   10.1582   -3.7676    8.4591 H   0  0  0  0  0  0  0  0  0  0  0  0
   -1.0219   -5.1294    7.1760 H   0  0  0  0  0  0  0  0  0  0  0  0
    0.5321   -6.0086    7.1128 H   0  0  0  0  0  0  0  0  0  0  0  0
   -3.1100   -6.2587    3.8782 H   0  0  0  0  0  0  0  0  0  0  0  0
   -3.4213   -6.5846    5.6005 H   0  0  0  0  0  0  0  0  0  0  0  0
   -3.4402   -7.9233    4.4243 H   0  0  0  0  0  0  0  0  0  0  0  0
  1  2  1  0  0  0  0 
  4  2  1  0  0  0  0 
  2  5  2  0  0  0  0 
  3  1  1  0  0  0  0 
  6  3  1  0  0  0  0 
  3  7  1  0  0  0  0 
  4  8  1  0  0  0  0 
  4  9  1  0  0  0  0 
  6 10  1  0  0  0  0 
  6 11  1  0  0  0  0 
  6 37  1  0  0  0  0 
  7 10  1  0  0  0  0 
  7 12  2  0  0  0  0 
  8 13  1  0  0  0  0 
  9 14  2  0  0  0  0 
  9 15  1  0  0  0  0 
 16 10  1  0  0  0  0 
 11 17  1  0  0  0  0 
 13 18  2  0  0  0  0 
 13 19  1  0  0  0  0 
 14 20  1  0  0  0  0 
 15 21  2  0  0  0  0 
 16 17  1  0  0  0  0 
 16 22  1  0  0  0  0 
 17 23  1  0  0  0  0 
 17 24  1  0  0  0  0 
 19 25  1  0  0  0  0 
 19 26  1  0  0  0  0 
 20 27  2  0  0  0  0 
 21 27  1  0  0  0  0 
 22 28  1  0  0  0  0 
 22 29  2  0  0  0  0 
 25 30  2  0  0  0  0 
 25 31  1  0  0  0  0 
 26 32  1  0  0  0  0 
 31 32  1  0  0  0  0 
 31 33  1  0  0  0  0 
 33 34  1  0  0  0  0 
 33 35  2  0  0  0  0 
 33 36  2  0  0  0  0 
  1 38  1  0  0  0  0 
  3 39  1  0  0  0  0 
  4 40  1  0  0  0  0 
  8 41  1  0  0  0  0 
 14 42  1  0  0  0  0 
 15 43  1  0  0  0  0 
 16 44  1  0  0  0  0 
 20 45  1  0  0  0  0 
 21 46  1  0  0  0  0 
 23 47  1  0  0  0  0 
 23 48  1  0  0  0  0 
 23 49  1  0  0  0  0 
 24 50  1  0  0  0  0 
 24 51  1  0  0  0  0 
 24 52  1  0  0  0  0 
 26 53  1  0  0  0  0 
 26 54  1  0  0  0  0 
 27 55  1  0  0  0  0 
 28 56  1  0  0  0  0 
 32 57  1  0  0  0  0 
 32 58  1  0  0  0  0 
 34 59  1  0  0  0  0 
 34 60  1  0  0  0  0 
 34 61  1  0  0  0  0 
M  END
> <cdk:Title>
mezlocillin

> <Conformer>
1

> <SuperDrugID>
SD001595

$$$$
