cefazolin
  CDK     0628171802

 43 46  0  0  0  0  0  0  0  0999 V2000
   -6.4455    0.2279    2.7411 C   0  0  0  0  0  0  0  0  0  0  0  0
   -5.5802    0.9963    2.0388 O   0  0  0  0  0  0  0  0  0  0  0  0
   -7.0577    0.7977    3.6742 O   0  0  0  0  0  0  0  0  0  0  0  0
   -6.6880   -1.1189    2.4495 C   0  0  0  0  0  0  0  0  0  0  0  0
   -7.9778   -1.5140    2.5093 N   0  0  0  0  0  0  0  0  0  0  0  0
   -5.7251   -2.0186    2.0894 C   0  0  0  0  0  0  0  0  0  0  0  0
   -8.5756   -2.7829    2.7269 C   0  0  1  0  0  0  0  0  0  0  0  0
   -9.1414   -0.9119    2.2266 C   0  0  0  0  0  0  0  0  0  0  0  0
   -4.3146   -1.6477    1.8951 C   0  0  1  0  0  0  0  0  0  0  0  0
   -6.0174   -3.4480    1.8366 C   0  0  2  0  0  0  0  0  0  0  0  0
   -9.9439   -2.1271    2.3587 C   0  0  1  0  0  0  0  0  0  0  0  0
   -7.7630   -3.9074    1.5520 S   0  0  0  0  0  0  0  0  0  0  0  0
   -9.4388    0.2576    1.8922 O   0  0  0  0  0  0  0  0  0  0  0  0
   -4.1140   -1.1026    0.1643 S   0  0  0  0  0  0  0  0  0  0  0  0
  -10.5368   -2.5823    1.1402 N   0  0  0  0  0  0  0  0  0  0  0  0
   -2.4847   -0.4821    0.0484 C   0  0  0  0  0  0  0  0  0  0  0  0
  -11.5093   -1.9314    0.4494 C   0  0  0  0  0  0  0  0  0  0  0  0
   -0.9931   -1.2389    0.5762 S   0  0  0  0  0  0  0  0  0  0  0  0
   -2.1130    0.6695   -0.5534 N   0  0  0  0  0  0  0  0  0  0  0  0
  -11.9777   -2.4680   -0.8437 C   0  0  2  0  0  0  0  0  0  0  0  0
  -12.0176   -0.8680    0.8775 O   0  0  0  0  0  0  0  0  0  0  0  0
    0.0249    0.0481   -0.0471 C   0  0  0  0  0  0  0  0  0  0  0  0
   -0.8273    0.9427   -0.5998 N   0  0  0  0  0  0  0  0  0  0  0  0
  -11.6519   -1.5878   -1.9202 N   0  0  0  0  0  0  0  0  0  0  0  0
    1.4861    0.1292    0.0127 C   0  0  0  0  0  0  0  0  0  0  0  0
  -10.4301   -1.2653   -2.3688 C   0  0  0  0  0  0  0  0  0  0  0  0
  -12.5056   -0.9548   -2.6559 N   0  0  0  0  0  0  0  0  0  0  0  0
  -10.5850   -0.4198   -3.3920 N   0  0  0  0  0  0  0  0  0  0  0  0
  -11.8604   -0.2555   -3.5353 N   0  0  0  0  0  0  0  0  0  0  0  0
   -8.4937   -3.1066    3.7690 H   0  0  0  0  0  0  0  0  0  0  0  0
   -5.4393    1.9347    2.2866 H   0  0  0  0  0  0  0  0  0  0  0  0
   -3.9911   -0.8587    2.5746 H   0  0  0  0  0  0  0  0  0  0  0  0
   -3.6445   -2.4936    2.0708 H   0  0  0  0  0  0  0  0  0  0  0  0
   -5.6662   -4.0216    2.6965 H   0  0  0  0  0  0  0  0  0  0  0  0
   -5.4794   -3.8018    0.9546 H   0  0  0  0  0  0  0  0  0  0  0  0
  -10.6440   -2.0740    3.1964 H   0  0  0  0  0  0  0  0  0  0  0  0
  -10.2138   -3.4186    0.7700 H   0  0  0  0  0  0  0  0  0  0  0  0
  -13.0598   -2.6117   -0.7835 H   0  0  0  0  0  0  0  0  0  0  0  0
  -11.5320   -3.4444   -1.0500 H   0  0  0  0  0  0  0  0  0  0  0  0
    1.8076    0.1781    1.0525 H   0  0  0  0  0  0  0  0  0  0  0  0
    1.8381    1.0205   -0.5087 H   0  0  0  0  0  0  0  0  0  0  0  0
    1.9205   -0.7550   -0.4545 H   0  0  0  0  0  0  0  0  0  0  0  0
   -9.5350   -1.5990   -2.0026 H   0  0  0  0  0  0  0  0  0  0  0  0
  1  2  1  0  0  0  0 
  1  3  2  0  0  0  0 
  1  4  1  0  0  0  0 
  4  5  1  0  0  0  0 
  4  6  2  0  0  0  0 
  7  5  1  0  0  0  0 
  5  8  1  0  0  0  0 
  6  9  1  0  0  0  0 
  6 10  1  0  0  0  0 
 11  7  1  0  0  0  0 
  7 12  1  0  0  0  0 
  7 30  1  0  0  0  0 
 11  8  1  0  0  0  0 
  8 13  2  0  0  0  0 
  9 14  1  0  0  0  0 
 10 12  1  0  0  0  0 
 11 15  1  0  0  0  0 
 14 16  1  0  0  0  0 
 15 17  1  0  0  0  0 
 16 18  1  0  0  0  0 
 16 19  2  0  0  0  0 
 17 20  1  0  0  0  0 
 17 21  2  0  0  0  0 
 18 22  1  0  0  0  0 
 19 23  1  0  0  0  0 
 20 24  1  0  0  0  0 
 22 23  2  0  0  0  0 
 22 25  1  0  0  0  0 
 24 26  1  0  0  0  0 
 24 27  1  0  0  0  0 
 26 28  2  0  0  0  0 
 27 29  2  0  0  0  0 
 28 29  1  0  0  0  0 
  2 31  1  0  0  0  0 
  9 32  1  0  0  0  0 
  9 33  1  0  0  0  0 
 10 34  1  0  0  0  0 
 10 35  1  0  0  0  0 
 11 36  1  0  0  0  0 
 15 37  1  0  0  0  0 
 20 38  1  0  0  0  0 
 20 39  1  0  0  0  0 
 25 40  1  0  0  0  0 
 25 41  1  0  0  0  0 
 25 42  1  0  0  0  0 
 26 43  1  0  0  0  0 
M  END
> <cdk:Title>
cefazolin

> <Conformer>
1

> <SuperDrugID>
SD000459

$$$$
