asenapine
  CDK     0628171801

 36 39  0  0  0  0  0  0  0  0999 V2000
   -1.4698    1.5983    0.0497 C   0  0  0  0  0  0  0  0  0  0  0  0
   -0.8608    0.6299    1.0061 N   0  0  2  0  0  0  0  0  0  0  0  0
   -1.1553   -0.7953    0.7095 C   0  0  1  0  0  0  0  0  0  0  0  0
   -1.3163    0.7964    2.4077 C   0  0  1  0  0  0  0  0  0  0  0  0
   -2.4957   -1.1269    1.4165 C   0  0  2  0  0  0  0  0  0  0  0  0
   -2.5796   -0.0870    2.5871 C   0  0  1  0  0  0  0  0  0  0  0  0
   -2.6357   -2.5895    1.7163 C   0  0  0  0  0  0  0  0  0  0  0  0
   -2.6934   -0.5522    4.0090 C   0  0  0  0  0  0  0  0  0  0  0  0
   -1.9743   -3.1769    2.8262 C   0  0  0  0  0  0  0  0  0  0  0  0
   -3.4230   -3.4251    0.8842 C   0  0  0  0  0  0  0  0  0  0  0  0
   -1.9657   -1.6755    4.4836 C   0  0  0  0  0  0  0  0  0  0  0  0
   -3.5022    0.1589    4.9304 C   0  0  0  0  0  0  0  0  0  0  0  0
   -1.1810   -2.4226    3.6486 O   0  0  0  0  0  0  0  0  0  0  0  0
   -2.1241   -4.5515    3.1032 C   0  0  0  0  0  0  0  0  0  0  0  0
   -3.5537   -4.8023    1.1487 C   0  0  0  0  0  0  0  0  0  0  0  0
   -2.0302   -2.0479    5.8415 C   0  0  0  0  0  0  0  0  0  0  0  0
   -3.5723   -0.2230    6.2823 C   0  0  0  0  0  0  0  0  0  0  0  0
   -2.9112   -5.3619    2.2677 C   0  0  0  0  0  0  0  0  0  0  0  0
   -4.4810   -5.7802    0.1235 Cl  0  0  0  0  0  0  0  0  0  0  0  0
   -2.8325   -1.3248    6.7395 C   0  0  0  0  0  0  0  0  0  0  0  0
   -3.2823   -0.8581    0.6999 H   0  0  0  0  0  0  0  0  0  0  0  0
   -3.4442    0.5526    2.3698 H   0  0  0  0  0  0  0  0  0  0  0  0
   -1.2321    2.6190    0.3498 H   0  0  0  0  0  0  0  0  0  0  0  0
   -1.0539    1.4413   -0.9469 H   0  0  0  0  0  0  0  0  0  0  0  0
   -2.5576    1.4953   -0.0030 H   0  0  0  0  0  0  0  0  0  0  0  0
   -1.2105   -0.9976   -0.3665 H   0  0  0  0  0  0  0  0  0  0  0  0
   -0.3337   -1.3987    1.1136 H   0  0  0  0  0  0  0  0  0  0  0  0
   -0.4991    0.4633    3.0578 H   0  0  0  0  0  0  0  0  0  0  0  0
   -1.5263    1.8412    2.6627 H   0  0  0  0  0  0  0  0  0  0  0  0
   -3.9105   -3.0295    0.0766 H   0  0  0  0  0  0  0  0  0  0  0  0
   -4.0436    0.9713    4.6255 H   0  0  0  0  0  0  0  0  0  0  0  0
   -1.6637   -4.9648    3.9178 H   0  0  0  0  0  0  0  0  0  0  0  0
   -1.4951   -2.8523    6.1749 H   0  0  0  0  0  0  0  0  0  0  0  0
   -4.1578    0.3030    6.9332 H   0  0  0  0  0  0  0  0  0  0  0  0
   -3.0108   -6.3577    2.4776 H   0  0  0  0  0  0  0  0  0  0  0  0
   -2.8775   -1.5986    7.7230 H   0  0  0  0  0  0  0  0  0  0  0  0
  1  2  1  0  0  0  0 
  2  3  1  0  0  0  0 
  2  4  1  0  0  0  0 
  5  3  1  0  0  0  0 
  6  4  1  0  0  0  0 
  6  5  1  0  0  0  0 
  5  7  1  0  0  0  0 
  5 21  1  0  0  0  0 
  6  8  1  0  0  0  0 
  6 22  1  0  0  0  0 
  7  9  2  0  0  0  0 
  7 10  1  0  0  0  0 
  8 11  2  0  0  0  0 
  8 12  1  0  0  0  0 
  9 13  1  0  0  0  0 
  9 14  1  0  0  0  0 
 10 15  2  0  0  0  0 
 11 13  1  0  0  0  0 
 11 16  1  0  0  0  0 
 12 17  2  0  0  0  0 
 14 18  2  0  0  0  0 
 15 18  1  0  0  0  0 
 15 19  1  0  0  0  0 
 16 20  2  0  0  0  0 
 17 20  1  0  0  0  0 
  1 23  1  0  0  0  0 
  1 24  1  0  0  0  0 
  1 25  1  0  0  0  0 
  3 26  1  0  0  0  0 
  3 27  1  0  0  0  0 
  4 28  1  0  0  0  0 
  4 29  1  0  0  0  0 
 10 30  1  0  0  0  0 
 12 31  1  0  0  0  0 
 14 32  1  0  0  0  0 
 16 33  1  0  0  0  0 
 17 34  1  0  0  0  0 
 18 35  1  0  0  0  0 
 20 36  1  0  0  0  0 
M  END
> <cdk:Title>
asenapine

> <Conformer>
1

> <SuperDrugID>
SD003360

$$$$
