aldesulfone
  CDK     0628171801

 41 42  0  0  0  0  0  0  0  0999 V2000
    5.6417   -1.0372   -0.4805 S   0  0  1  0  0  0  0  0  0  0  0  0
    5.2334    0.4825   -0.8073 O   0  0  0  0  0  0  0  0  0  0  0  0
    6.9683   -0.9850    0.4251 O   0  0  0  0  0  0  0  0  0  0  0  0
    4.3092   -1.7884    0.4295 C   0  0  0  0  0  0  0  0  0  0  0  0
    6.0119   -1.9092   -1.9886 C   0  0  0  0  0  0  0  0  0  0  0  0
    2.9891   -1.7034   -0.0584 C   0  0  0  0  0  0  0  0  0  0  0  0
    4.5406   -2.4361    1.6617 C   0  0  0  0  0  0  0  0  0  0  0  0
    6.5256   -3.2222   -1.9487 C   0  0  0  0  0  0  0  0  0  0  0  0
    5.8279   -1.2888   -3.2423 C   0  0  0  0  0  0  0  0  0  0  0  0
    1.9209   -2.2570    0.6739 C   0  0  0  0  0  0  0  0  0  0  0  0
    3.4721   -2.9926    2.3926 C   0  0  0  0  0  0  0  0  0  0  0  0
    6.8446   -3.9017   -3.1423 C   0  0  0  0  0  0  0  0  0  0  0  0
    6.1500   -1.9662   -4.4342 C   0  0  0  0  0  0  0  0  0  0  0  0
    2.1467   -2.9093    1.9056 C   0  0  0  0  0  0  0  0  0  0  0  0
    6.6561   -3.2857   -4.3982 C   0  0  0  0  0  0  0  0  0  0  0  0
    1.0575   -3.4194    2.5537 N   0  0  0  0  0  0  0  0  0  0  0  0
    6.9791   -4.0095   -5.5118 N   0  0  0  0  0  0  0  0  0  0  0  0
    1.0513   -4.1407    3.7854 C   0  0  2  0  0  0  0  0  0  0  0  0
    6.8322   -3.5994   -6.8695 C   0  0  2  0  0  0  0  0  0  0  0  0
   -0.6472   -4.6544    4.2144 S   0  0  1  0  0  0  0  0  0  0  0  0
    7.5057   -4.8803   -7.9791 S   0  0  1  0  0  0  0  0  0  0  0  0
   -1.5407   -3.3269    4.1551 O   0  0  0  0  0  0  0  0  0  0  0  0
   -1.1819   -5.5790    2.8798 O   0  0  0  0  0  0  0  0  0  0  0  0
    7.4635   -4.2556   -9.4535 O   0  0  0  0  0  0  0  0  0  0  0  0
    9.1728   -4.9471   -7.6084 O   0  0  0  0  0  0  0  0  0  0  0  0
    2.7945   -1.2305   -0.9446 H   0  0  0  0  0  0  0  0  0  0  0  0
    5.4860   -2.5030    2.0423 H   0  0  0  0  0  0  0  0  0  0  0  0
    6.6766   -3.6918   -1.0531 H   0  0  0  0  0  0  0  0  0  0  0  0
    5.4629   -0.3372   -3.3031 H   0  0  0  0  0  0  0  0  0  0  0  0
    0.9711   -2.1781    0.2999 H   0  0  0  0  0  0  0  0  0  0  0  0
    3.6700   -3.4554    3.2825 H   0  0  0  0  0  0  0  0  0  0  0  0
    7.2194   -4.8532   -3.0881 H   0  0  0  0  0  0  0  0  0  0  0  0
    6.0134   -1.4845   -5.3253 H   0  0  0  0  0  0  0  0  0  0  0  0
    0.1968   -3.2685    2.1332 H   0  0  0  0  0  0  0  0  0  0  0  0
    7.3336   -4.8991   -5.3643 H   0  0  0  0  0  0  0  0  0  0  0  0
    1.4297   -3.5085    4.5909 H   0  0  0  0  0  0  0  0  0  0  0  0
    1.6692   -5.0377    3.7068 H   0  0  0  0  0  0  0  0  0  0  0  0
    7.3781   -2.6727   -7.0485 H   0  0  0  0  0  0  0  0  0  0  0  0
    5.7772   -3.4544   -7.1093 H   0  0  0  0  0  0  0  0  0  0  0  0
   -0.7773   -5.1530    2.0953 H   0  0  0  0  0  0  0  0  0  0  0  0
    9.4946   -4.0263   -7.7139 H   0  0  0  0  0  0  0  0  0  0  0  0
  1  2  2  0  0  0  0 
  1  3  2  0  0  0  0 
  1  4  1  0  0  0  0 
  1  5  1  0  0  0  0 
  4  6  2  0  0  0  0 
  4  7  1  0  0  0  0 
  5  8  2  0  0  0  0 
  5  9  1  0  0  0  0 
  6 10  1  0  0  0  0 
  7 11  2  0  0  0  0 
  8 12  1  0  0  0  0 
  9 13  2  0  0  0  0 
 10 14  2  0  0  0  0 
 11 14  1  0  0  0  0 
 12 15  2  0  0  0  0 
 13 15  1  0  0  0  0 
 14 16  1  0  0  0  0 
 15 17  1  0  0  0  0 
 16 18  1  0  0  0  0 
 17 19  1  0  0  0  0 
 18 20  1  0  0  0  0 
 19 21  1  0  0  0  0 
 20 22  2  0  0  0  0 
 20 23  1  0  0  0  0 
 21 24  2  0  0  0  0 
 21 25  1  0  0  0  0 
  6 26  1  0  0  0  0 
  7 27  1  0  0  0  0 
  8 28  1  0  0  0  0 
  9 29  1  0  0  0  0 
 10 30  1  0  0  0  0 
 11 31  1  0  0  0  0 
 12 32  1  0  0  0  0 
 13 33  1  0  0  0  0 
 16 34  1  0  0  0  0 
 17 35  1  0  0  0  0 
 18 36  1  0  0  0  0 
 18 37  1  0  0  0  0 
 19 38  1  0  0  0  0 
 19 39  1  0  0  0  0 
 23 40  1  0  0  0  0 
 25 41  1  0  0  0  0 
M  END
> <cdk:Title>
aldesulfone

> <Conformer>
1

> <SuperDrugID>
SD002278

$$$$
