clotrimazole
  CDK     0628171802

 42 45  0  0  0  0  0  0  0  0999 V2000
   -0.6589   -1.2154   -0.0434 C   0  0  2  0  0  0  0  0  0  0  0  0
    0.1809   -2.3558    0.5550 C   0  0  0  0  0  0  0  0  0  0  0  0
   -1.8876   -0.8925    0.7157 N   0  0  0  0  0  0  0  0  0  0  0  0
   -0.9931   -1.7649   -1.4341 C   0  0  0  0  0  0  0  0  0  0  0  0
    0.0344    0.1512    0.0103 C   0  0  0  0  0  0  0  0  0  0  0  0
    1.4929   -2.6941    0.0784 C   0  0  0  0  0  0  0  0  0  0  0  0
   -0.3462   -3.1947    1.5787 C   0  0  0  0  0  0  0  0  0  0  0  0
   -1.9476   -0.5010    2.0111 C   0  0  0  0  0  0  0  0  0  0  0  0
   -3.1748   -0.8172    0.2857 C   0  0  0  0  0  0  0  0  0  0  0  0
   -0.5494   -1.1873   -2.6557 C   0  0  0  0  0  0  0  0  0  0  0  0
   -1.7607   -2.9607   -1.5456 C   0  0  0  0  0  0  0  0  0  0  0  0
    1.1797    0.4166    0.8155 C   0  0  0  0  0  0  0  0  0  0  0  0
   -0.5441    1.2748   -0.6464 C   0  0  0  0  0  0  0  0  0  0  0  0
    2.2823   -1.8977   -1.1992 Cl  0  0  0  0  0  0  0  0  0  0  0  0
    2.2349   -3.7472    0.6555 C   0  0  0  0  0  0  0  0  0  0  0  0
    0.3887   -4.2536    2.1390 C   0  0  0  0  0  0  0  0  0  0  0  0
   -3.2643   -0.2225    2.3378 C   0  0  0  0  0  0  0  0  0  0  0  0
   -4.0193   -0.4256    1.2535 N   0  0  0  0  0  0  0  0  0  0  0  0
   -0.8788   -1.7442   -3.9052 C   0  0  0  0  0  0  0  0  0  0  0  0
   -2.0701   -3.5397   -2.7878 C   0  0  0  0  0  0  0  0  0  0  0  0
    1.7446    1.7006    0.9095 C   0  0  0  0  0  0  0  0  0  0  0  0
    0.0120    2.5643   -0.5514 C   0  0  0  0  0  0  0  0  0  0  0  0
    1.6868   -4.5204    1.6874 C   0  0  0  0  0  0  0  0  0  0  0  0
   -1.6335   -2.9257   -3.9707 C   0  0  0  0  0  0  0  0  0  0  0  0
    1.1636    2.7764    0.2223 C   0  0  0  0  0  0  0  0  0  0  0  0
   -1.2959   -3.0689    1.9277 H   0  0  0  0  0  0  0  0  0  0  0  0
   -1.1513   -0.4054    2.6465 H   0  0  0  0  0  0  0  0  0  0  0  0
   -3.4977   -1.0091   -0.6624 H   0  0  0  0  0  0  0  0  0  0  0  0
    0.0417   -0.3584   -2.6612 H   0  0  0  0  0  0  0  0  0  0  0  0
   -2.1054   -3.4306   -0.7055 H   0  0  0  0  0  0  0  0  0  0  0  0
    1.6179   -0.3193    1.3716 H   0  0  0  0  0  0  0  0  0  0  0  0
   -1.3992    1.1611   -1.1948 H   0  0  0  0  0  0  0  0  0  0  0  0
    3.1796   -3.9671    0.3255 H   0  0  0  0  0  0  0  0  0  0  0  0
   -0.0252   -4.8366    2.8708 H   0  0  0  0  0  0  0  0  0  0  0  0
   -3.5961    0.1013    3.2465 H   0  0  0  0  0  0  0  0  0  0  0  0
   -0.5639   -1.2923   -4.7664 H   0  0  0  0  0  0  0  0  0  0  0  0
   -2.6112   -4.4057   -2.8287 H   0  0  0  0  0  0  0  0  0  0  0  0
    2.5745    1.8521    1.4879 H   0  0  0  0  0  0  0  0  0  0  0  0
   -0.4248    3.3488   -1.0389 H   0  0  0  0  0  0  0  0  0  0  0  0
    2.2271   -5.2838    2.1001 H   0  0  0  0  0  0  0  0  0  0  0  0
   -1.8630   -3.3393   -4.8762 H   0  0  0  0  0  0  0  0  0  0  0  0
    1.5746    3.7112    0.2911 H   0  0  0  0  0  0  0  0  0  0  0  0
  1  2  1  0  0  0  0 
  1  3  1  0  0  0  0 
  1  4  1  0  0  0  0 
  1  5  1  0  0  0  0 
  2  6  2  0  0  0  0 
  2  7  1  0  0  0  0 
  3  8  1  0  0  0  0 
  3  9  1  0  0  0  0 
  4 10  2  0  0  0  0 
  4 11  1  0  0  0  0 
  5 12  2  0  0  0  0 
  5 13  1  0  0  0  0 
  6 14  1  0  0  0  0 
  6 15  1  0  0  0  0 
  7 16  2  0  0  0  0 
  8 17  2  0  0  0  0 
  9 18  2  0  0  0  0 
 10 19  1  0  0  0  0 
 11 20  2  0  0  0  0 
 12 21  1  0  0  0  0 
 13 22  2  0  0  0  0 
 15 23  2  0  0  0  0 
 16 23  1  0  0  0  0 
 17 18  1  0  0  0  0 
 19 24  2  0  0  0  0 
 20 24  1  0  0  0  0 
 21 25  2  0  0  0  0 
 22 25  1  0  0  0  0 
  7 26  1  0  0  0  0 
  8 27  1  0  0  0  0 
  9 28  1  0  0  0  0 
 10 29  1  0  0  0  0 
 11 30  1  0  0  0  0 
 12 31  1  0  0  0  0 
 13 32  1  0  0  0  0 
 15 33  1  0  0  0  0 
 16 34  1  0  0  0  0 
 17 35  1  0  0  0  0 
 19 36  1  0  0  0  0 
 20 37  1  0  0  0  0 
 21 38  1  0  0  0  0 
 22 39  1  0  0  0  0 
 23 40  1  0  0  0  0 
 24 41  1  0  0  0  0 
 25 42  1  0  0  0  0 
M  END
> <cdk:Title>
clotrimazole

> <Conformer>
1

> <SuperDrugID>
SD000636

$$$$
