ergocalciferol
  CDK     0628171801

 73 75  0  0  0  0  0  0  0  0999 V2000
   13.8524   -5.4373    8.5327 C   0  0  0  0  0  0  0  0  0  0  0  0
   14.6384   -4.2983    7.8157 C   0  0  1  0  0  0  0  0  0  0  0  0
   14.5777   -4.4983    6.2714 C   0  0  0  0  0  0  0  0  0  0  0  0
   14.2268   -2.8541    8.3090 C   0  0  1  0  0  0  0  0  0  0  0  0
   15.1284   -1.7494    7.6761 C   0  0  0  0  0  0  0  0  0  0  0  0
   12.7988   -2.5474    8.1504 C   0  0  0  0  0  0  0  0  0  0  0  0
   12.1939   -1.4294    8.5962 C   0  0  0  0  0  0  0  0  0  0  0  0
   10.7484   -1.1748    8.4705 C   0  0  1  0  0  0  0  0  0  0  0  0
   10.2079   -0.7880    9.8778 C   0  0  0  0  0  0  0  0  0  0  0  0
   10.4004   -0.1126    7.3467 C   0  0  1  0  0  0  0  0  0  0  0  0
   11.1357   -0.3894    5.9895 C   0  0  2  0  0  0  0  0  0  0  0  0
   10.1188   -0.2403    4.8439 C   0  0  1  0  0  0  0  0  0  0  0  0
    9.0229    0.6552    5.4609 C   0  0  2  0  0  0  0  0  0  0  0  0
    8.8857    0.1210    6.9327 C   0  0  1  0  0  0  0  0  0  0  0  0
    8.0495   -1.2157    7.0102 C   0  0  0  0  0  0  0  0  0  0  0  0
    8.1328    1.2573    7.7249 C   0  0  1  0  0  0  0  0  0  0  0  0
    6.7878    1.6700    7.0447 C   0  0  1  0  0  0  0  0  0  0  0  0
    6.9032    1.8963    5.5063 C   0  0  2  0  0  0  0  0  0  0  0  0
    7.6966    0.8474    4.8296 C   0  0  0  0  0  0  0  0  0  0  0  0
    7.2885    0.0880    3.7835 C   0  0  0  0  0  0  0  0  0  0  0  0
    6.0600    0.0530    3.1824 C   0  0  0  0  0  0  0  0  0  0  0  0
    5.6417   -0.8279    2.2414 C   0  0  0  0  0  0  0  0  0  0  0  0
    4.2872   -0.7329    1.6702 C   0  0  2  0  0  0  0  0  0  0  0  0
    4.3391   -0.5697    0.1230 C   0  0  1  0  0  0  0  0  0  0  0  0
    4.7558    0.7524   -0.2208 O   0  0  0  0  0  0  0  0  0  0  0  0
    5.2846   -1.6271   -0.5199 C   0  0  1  0  0  0  0  0  0  0  0  0
    6.6383   -1.7362    0.2394 C   0  0  1  0  0  0  0  0  0  0  0  0
    6.4103   -1.8301    1.6855 C   0  0  0  0  0  0  0  0  0  0  0  0
    6.8666   -2.8715    2.4053 C   0  0  0  0  0  0  0  0  0  0  0  0
   12.8090   -5.4606    8.2116 H   0  0  0  0  0  0  0  0  0  0  0  0
   14.2988   -6.4075    8.3002 H   0  0  0  0  0  0  0  0  0  0  0  0
   13.8835   -5.2999    9.6154 H   0  0  0  0  0  0  0  0  0  0  0  0
   15.6871   -4.4467    8.0987 H   0  0  0  0  0  0  0  0  0  0  0  0
   15.2902   -3.8418    5.7693 H   0  0  0  0  0  0  0  0  0  0  0  0
   14.8444   -5.5248    6.0108 H   0  0  0  0  0  0  0  0  0  0  0  0
   13.5775   -4.2937    5.8851 H   0  0  0  0  0  0  0  0  0  0  0  0
   14.4322   -2.8339    9.3866 H   0  0  0  0  0  0  0  0  0  0  0  0
   15.0150   -0.8054    8.2122 H   0  0  0  0  0  0  0  0  0  0  0  0
   16.1826   -2.0339    7.7274 H   0  0  0  0  0  0  0  0  0  0  0  0
   14.8619   -1.5809    6.6300 H   0  0  0  0  0  0  0  0  0  0  0  0
   12.2328   -3.2154    7.6825 H   0  0  0  0  0  0  0  0  0  0  0  0
   12.7470   -0.7327    9.0421 H   0  0  0  0  0  0  0  0  0  0  0  0
   10.2594   -2.1166    8.2115 H   0  0  0  0  0  0  0  0  0  0  0  0
    9.1207   -0.7805    9.9048 H   0  0  0  0  0  0  0  0  0  0  0  0
   10.5351   -1.5162   10.6233 H   0  0  0  0  0  0  0  0  0  0  0  0
   10.5679    0.1980   10.1757 H   0  0  0  0  0  0  0  0  0  0  0  0
   10.7861    0.8457    7.7125 H   0  0  0  0  0  0  0  0  0  0  0  0
   11.5724   -1.3870    5.9317 H   0  0  0  0  0  0  0  0  0  0  0  0
   11.9444    0.3356    5.8566 H   0  0  0  0  0  0  0  0  0  0  0  0
   10.5698    0.2221    3.9607 H   0  0  0  0  0  0  0  0  0  0  0  0
    9.7427   -1.2304    4.5722 H   0  0  0  0  0  0  0  0  0  0  0  0
    9.4887    1.6533    5.4773 H   0  0  0  0  0  0  0  0  0  0  0  0
    7.9019   -1.5212    8.0477 H   0  0  0  0  0  0  0  0  0  0  0  0
    7.0606   -1.1171    6.5636 H   0  0  0  0  0  0  0  0  0  0  0  0
    8.5496   -2.0289    6.4843 H   0  0  0  0  0  0  0  0  0  0  0  0
    7.9279    0.9435    8.7498 H   0  0  0  0  0  0  0  0  0  0  0  0
    8.7632    2.1498    7.7875 H   0  0  0  0  0  0  0  0  0  0  0  0
    6.0399    0.8947    7.2269 H   0  0  0  0  0  0  0  0  0  0  0  0
    6.4179    2.5873    7.5118 H   0  0  0  0  0  0  0  0  0  0  0  0
    7.3977    2.8565    5.3290 H   0  0  0  0  0  0  0  0  0  0  0  0
    5.8925    2.0072    5.1203 H   0  0  0  0  0  0  0  0  0  0  0  0
    7.9537   -0.5375    3.4093 H   0  0  0  0  0  0  0  0  0  0  0  0
    5.4021    0.7378    3.4563 H   0  0  0  0  0  0  0  0  0  0  0  0
    3.7111    0.1006    2.0827 H   0  0  0  0  0  0  0  0  0  0  0  0
    3.7386   -1.6476    1.9167 H   0  0  0  0  0  0  0  0  0  0  0  0
    3.3329   -0.7009   -0.2826 H   0  0  0  0  0  0  0  0  0  0  0  0
    5.6498    0.8550    0.1666 H   0  0  0  0  0  0  0  0  0  0  0  0
    4.7892   -2.6034   -0.4986 H   0  0  0  0  0  0  0  0  0  0  0  0
    5.4693   -1.3691   -1.5660 H   0  0  0  0  0  0  0  0  0  0  0  0
    7.1852   -2.5978   -0.1539 H   0  0  0  0  0  0  0  0  0  0  0  0
    7.2464   -0.8519    0.0323 H   0  0  0  0  0  0  0  0  0  0  0  0
    6.6846   -2.9451    3.3788 H   0  0  0  0  0  0  0  0  0  0  0  0
    7.3943   -3.5971    1.9776 H   0  0  0  0  0  0  0  0  0  0  0  0
  1  2  1  0  0  0  0 
  2  3  1  0  0  0  0 
  2  4  1  0  0  0  0 
  4  5  1  0  0  0  0 
  4  6  1  0  0  0  0 
  6  7  2  0  0  0  0 
  7  8  1  0  0  0  0 
  8  9  1  0  0  0  0 
 10  8  1  0  0  0  0 
 10 11  1  0  0  0  0 
 11 12  1  0  0  0  0 
 13 12  1  0  0  0  0 
 13 14  1  0  0  0  0 
 10 14  1  0  0  0  0 
 14 15  1  0  0  0  0 
 14 16  1  0  0  0  0 
 16 17  1  0  0  0  0 
 17 18  1  0  0  0  0 
 18 19  1  0  0  0  0 
 13 19  1  0  0  0  0 
 19 20  2  0  0  0  0 
 20 21  1  0  0  0  0 
 21 22  2  0  0  0  0 
 22 23  1  0  0  0  0 
 23 24  1  0  0  0  0 
 24 25  1  0  0  0  0 
 24 26  1  0  0  0  0 
 26 27  1  0  0  0  0 
 27 28  1  0  0  0  0 
 22 28  1  0  0  0  0 
 28 29  2  0  0  0  0 
  1 30  1  0  0  0  0 
  1 31  1  0  0  0  0 
  1 32  1  0  0  0  0 
  2 33  1  0  0  0  0 
  3 34  1  0  0  0  0 
  3 35  1  0  0  0  0 
  3 36  1  0  0  0  0 
  4 37  1  0  0  0  0 
  5 38  1  0  0  0  0 
  5 39  1  0  0  0  0 
  5 40  1  0  0  0  0 
  6 41  1  0  0  0  0 
  7 42  1  0  0  0  0 
  8 43  1  0  0  0  0 
  9 44  1  0  0  0  0 
  9 45  1  0  0  0  0 
  9 46  1  0  0  0  0 
 10 47  1  0  0  0  0 
 11 48  1  0  0  0  0 
 11 49  1  0  0  0  0 
 12 50  1  0  0  0  0 
 12 51  1  0  0  0  0 
 13 52  1  0  0  0  0 
 15 53  1  0  0  0  0 
 15 54  1  0  0  0  0 
 15 55  1  0  0  0  0 
 16 56  1  0  0  0  0 
 16 57  1  0  0  0  0 
 17 58  1  0  0  0  0 
 17 59  1  0  0  0  0 
 18 60  1  0  0  0  0 
 18 61  1  0  0  0  0 
 20 62  1  0  0  0  0 
 21 63  1  0  0  0  0 
 23 64  1  0  0  0  0 
 23 65  1  0  0  0  0 
 24 66  1  0  0  0  0 
 25 67  1  0  0  0  0 
 26 68  1  0  0  0  0 
 26 69  1  0  0  0  0 
 27 70  1  0  0  0  0 
 27 71  1  0  0  0  0 
 29 72  1  0  0  0  0 
 29 73  1  0  0  0  0 
M  END
> <cdk:Title>
ergocalciferol

> <Conformer>
1

> <SuperDrugID>
SD002559

$$$$
