adrafinil
  CDK     0628171802

 35 36  0  0  0  0  0  0  0  0999 V2000
   -1.0419   -2.5900   -0.1063 C   0  0  1  0  0  0  0  0  0  0  0  0
   -1.9361   -1.8945    1.3463 S   0  0  1  0  0  0  0  0  0  0  0  0
   -1.6161   -3.8884   -0.5850 C   0  0  0  0  0  0  0  0  0  0  0  0
   -0.9366   -1.5612   -1.1919 C   0  0  0  0  0  0  0  0  0  0  0  0
   -1.5922   -2.9694    2.7894 C   0  0  2  0  0  0  0  0  0  0  0  0
   -1.1619   -0.5311    1.6837 O   0  0  0  0  0  0  0  0  0  0  0  0
   -3.0105   -4.0759   -0.7711 C   0  0  0  0  0  0  0  0  0  0  0  0
   -0.7602   -4.9885   -0.8477 C   0  0  0  0  0  0  0  0  0  0  0  0
   -2.0822   -0.9331   -1.7451 C   0  0  0  0  0  0  0  0  0  0  0  0
    0.3347   -1.1518   -1.6698 C   0  0  0  0  0  0  0  0  0  0  0  0
   -2.2819   -4.2689    2.7101 C   0  0  0  0  0  0  0  0  0  0  0  0
   -3.5301   -5.3229   -1.1661 C   0  0  0  0  0  0  0  0  0  0  0  0
   -1.2807   -6.2346   -1.2471 C   0  0  0  0  0  0  0  0  0  0  0  0
   -1.9615    0.0807   -2.7134 C   0  0  0  0  0  0  0  0  0  0  0  0
    0.4568   -0.1399   -2.6399 C   0  0  0  0  0  0  0  0  0  0  0  0
   -1.5644   -5.4151    2.6700 N   0  0  0  0  0  0  0  0  0  0  0  0
   -3.5361   -4.2992    2.6984 O   0  0  0  0  0  0  0  0  0  0  0  0
   -2.6669   -6.4066   -1.3976 C   0  0  0  0  0  0  0  0  0  0  0  0
   -0.6912    0.4815   -3.1592 C   0  0  0  0  0  0  0  0  0  0  0  0
   -2.1384   -6.5857    2.6386 O   0  0  0  0  0  0  0  0  0  0  0  0
   -0.0374   -2.7878    0.2819 H   0  0  0  0  0  0  0  0  0  0  0  0
   -1.9378   -2.4538    3.6843 H   0  0  0  0  0  0  0  0  0  0  0  0
   -0.5122   -3.0995    2.8814 H   0  0  0  0  0  0  0  0  0  0  0  0
   -3.6676   -3.3122   -0.6054 H   0  0  0  0  0  0  0  0  0  0  0  0
    0.2542   -4.8920   -0.7461 H   0  0  0  0  0  0  0  0  0  0  0  0
   -3.0196   -1.1913   -1.4341 H   0  0  0  0  0  0  0  0  0  0  0  0
    1.1902   -1.5809   -1.3072 H   0  0  0  0  0  0  0  0  0  0  0  0
   -4.5387   -5.4438   -1.2828 H   0  0  0  0  0  0  0  0  0  0  0  0
   -0.6516   -7.0195   -1.4248 H   0  0  0  0  0  0  0  0  0  0  0  0
   -2.7976    0.5318   -3.0897 H   0  0  0  0  0  0  0  0  0  0  0  0
    1.3814    0.1473   -2.9658 H   0  0  0  0  0  0  0  0  0  0  0  0
   -0.5935   -5.3673    2.6656 H   0  0  0  0  0  0  0  0  0  0  0  0
   -3.0480   -7.3163   -1.6759 H   0  0  0  0  0  0  0  0  0  0  0  0
   -0.6025    1.2252   -3.8568 H   0  0  0  0  0  0  0  0  0  0  0  0
   -2.2851   -6.7690    1.6885 H   0  0  0  0  0  0  0  0  0  0  0  0
  1  2  1  0  0  0  0 
  1  3  1  0  0  0  0 
  1  4  1  0  0  0  0 
  2  5  1  0  0  0  0 
  2  6  2  0  0  0  0 
  3  7  2  0  0  0  0 
  3  8  1  0  0  0  0 
  4  9  2  0  0  0  0 
  4 10  1  0  0  0  0 
  5 11  1  0  0  0  0 
  7 12  1  0  0  0  0 
  8 13  2  0  0  0  0 
  9 14  1  0  0  0  0 
 10 15  2  0  0  0  0 
 11 16  1  0  0  0  0 
 11 17  2  0  0  0  0 
 12 18  2  0  0  0  0 
 13 18  1  0  0  0  0 
 14 19  2  0  0  0  0 
 15 19  1  0  0  0  0 
 16 20  1  0  0  0  0 
  1 21  1  0  0  0  0 
  5 22  1  0  0  0  0 
  5 23  1  0  0  0  0 
  7 24  1  0  0  0  0 
  8 25  1  0  0  0  0 
  9 26  1  0  0  0  0 
 10 27  1  0  0  0  0 
 12 28  1  0  0  0  0 
 13 29  1  0  0  0  0 
 14 30  1  0  0  0  0 
 15 31  1  0  0  0  0 
 16 32  1  0  0  0  0 
 18 33  1  0  0  0  0 
 19 34  1  0  0  0  0 
 20 35  1  0  0  0  0 
M  END
> <cdk:Title>
adrafinil

> <Conformer>
1

> <SuperDrugID>
SD000070

$$$$
