sulfadimidine
  CDK     0628171801

 33 34  0  0  0  0  0  0  0  0999 V2000
    3.6212   -3.1587    1.9916 C   0  0  0  0  0  0  0  0  0  0  0  0
    2.2783   -2.5520    1.9567 C   0  0  0  0  0  0  0  0  0  0  0  0
    1.1501   -3.2242    2.4760 C   0  0  0  0  0  0  0  0  0  0  0  0
   -0.1051   -2.5822    2.4035 C   0  0  0  0  0  0  0  0  0  0  0  0
   -1.3552   -3.1742    2.9171 C   0  0  0  0  0  0  0  0  0  0  0  0
   -0.1765   -1.3585    1.8224 N   0  0  0  0  0  0  0  0  0  0  0  0
    0.9086   -0.7196    1.3131 C   0  0  0  0  0  0  0  0  0  0  0  0
    0.8230    0.4817    0.7023 N   0  0  0  0  0  0  0  0  0  0  0  0
   -0.6604    1.1531    0.1527 S   0  0  1  0  0  0  0  0  0  0  0  0
   -1.4224    1.8004    1.4080 O   0  0  0  0  0  0  0  0  0  0  0  0
   -0.3312    2.3127   -0.9060 O   0  0  0  0  0  0  0  0  0  0  0  0
   -1.6404   -0.1140   -0.6118 C   0  0  0  0  0  0  0  0  0  0  0  0
   -2.9533   -0.3803   -0.1715 C   0  0  0  0  0  0  0  0  0  0  0  0
   -3.6952   -1.4277   -0.7481 C   0  0  0  0  0  0  0  0  0  0  0  0
   -3.1392   -2.2111   -1.7786 C   0  0  0  0  0  0  0  0  0  0  0  0
   -3.8556   -3.2125   -2.3277 N   0  0  0  0  0  0  0  0  0  0  0  0
   -1.8296   -1.9426   -2.2251 C   0  0  0  0  0  0  0  0  0  0  0  0
   -1.0856   -0.8996   -1.6437 C   0  0  0  0  0  0  0  0  0  0  0  0
    2.1185   -1.3222    1.4002 N   0  0  0  0  0  0  0  0  0  0  0  0
    3.9079   -3.3768    3.0212 H   0  0  0  0  0  0  0  0  0  0  0  0
    4.3662   -2.4868    1.5609 H   0  0  0  0  0  0  0  0  0  0  0  0
    3.6210   -4.0855    1.4162 H   0  0  0  0  0  0  0  0  0  0  0  0
    1.2422   -4.1548    2.8895 H   0  0  0  0  0  0  0  0  0  0  0  0
   -2.0430   -3.3601    2.0912 H   0  0  0  0  0  0  0  0  0  0  0  0
   -1.1732   -4.1155    3.4355 H   0  0  0  0  0  0  0  0  0  0  0  0
   -1.8317   -2.4845    3.6148 H   0  0  0  0  0  0  0  0  0  0  0  0
    1.6431    0.9727    0.5324 H   0  0  0  0  0  0  0  0  0  0  0  0
   -3.3757    0.1751    0.5739 H   0  0  0  0  0  0  0  0  0  0  0  0
   -4.6413   -1.6147   -0.4080 H   0  0  0  0  0  0  0  0  0  0  0  0
   -3.4778   -3.7510   -3.0397 H   0  0  0  0  0  0  0  0  0  0  0  0
   -4.7542   -3.3958   -2.0109 H   0  0  0  0  0  0  0  0  0  0  0  0
   -1.4101   -2.5038   -2.9698 H   0  0  0  0  0  0  0  0  0  0  0  0
   -0.1326   -0.7256   -1.9710 H   0  0  0  0  0  0  0  0  0  0  0  0
  1  2  1  0  0  0  0 
  2  3  2  0  0  0  0 
  3  4  1  0  0  0  0 
  4  5  1  0  0  0  0 
  4  6  2  0  0  0  0 
  6  7  1  0  0  0  0 
  7  8  1  0  0  0  0 
  8  9  1  0  0  0  0 
  9 10  2  0  0  0  0 
  9 11  2  0  0  0  0 
  9 12  1  0  0  0  0 
 12 13  2  0  0  0  0 
 13 14  1  0  0  0  0 
 14 15  2  0  0  0  0 
 15 16  1  0  0  0  0 
 15 17  1  0  0  0  0 
 17 18  2  0  0  0  0 
 12 18  1  0  0  0  0 
  7 19  2  0  0  0  0 
  2 19  1  0  0  0  0 
  1 20  1  0  0  0  0 
  1 21  1  0  0  0  0 
  1 22  1  0  0  0  0 
  3 23  1  0  0  0  0 
  5 24  1  0  0  0  0 
  5 25  1  0  0  0  0 
  5 26  1  0  0  0  0 
  8 27  1  0  0  0  0 
 13 28  1  0  0  0  0 
 14 29  1  0  0  0  0 
 16 30  1  0  0  0  0 
 16 31  1  0  0  0  0 
 17 32  1  0  0  0  0 
 18 33  1  0  0  0  0 
M  END
> <cdk:Title>
sulfadimidine

> <Conformer>
1

> <SuperDrugID>
SD002249

$$$$
