fosinopril
  CDK     0628171801

 85 87  0  0  0  0  0  0  0  0999 V2000
    0.3039   -0.5622    0.0428 C   0  0  0  0  0  0  0  0  0  0  0  0
    0.5563   -1.9355    0.0818 C   0  0  0  0  0  0  0  0  0  0  0  0
   -0.8966   -0.2962    0.2994 O   0  0  0  0  0  0  0  0  0  0  0  0
    1.1591    0.5176   -0.1666 N   0  0  0  0  0  0  0  0  0  0  0  0
    1.5761   -2.8468   -0.7386 P   0  0  0  0  0  0  0  0  0  0  0  0
    2.5676    0.4520   -0.4103 C   0  0  1  0  0  0  0  0  0  0  0  0
    0.7108    1.8856   -0.0413 C   0  0  2  0  0  0  0  0  0  0  0  0
    1.1722   -4.3940   -0.4709 O   0  0  0  0  0  0  0  0  0  0  0  0
    1.4684   -2.6502   -2.4518 C   0  0  1  0  0  0  0  0  0  0  0  0
    3.0792   -2.6135   -0.2703 O   0  0  0  0  0  0  0  0  0  0  0  0
    3.0250    1.8846   -0.7865 C   0  0  1  0  0  0  0  0  0  0  0  0
   -0.2195    2.2838   -1.1275 C   0  0  0  0  0  0  0  0  0  0  0  0
    2.0017    2.7359   -0.0079 C   0  0  1  0  0  0  0  0  0  0  0  0
    1.9464   -5.1716    0.4607 C   0  0  2  0  0  0  0  0  0  0  0  0
    2.4710   -3.5674   -3.2149 C   0  0  1  0  0  0  0  0  0  0  0  0
   -1.4896    2.6530   -0.8385 O   0  0  0  0  0  0  0  0  0  0  0  0
    0.1363    2.2852   -2.3277 O   0  0  0  0  0  0  0  0  0  0  0  0
    3.0945   -5.5997   -0.2868 O   0  0  0  0  0  0  0  0  0  0  0  0
    1.1388   -6.4319    0.9100 C   0  0  2  0  0  0  0  0  0  0  0  0
    2.2039   -3.5731   -4.7471 C   0  0  1  0  0  0  0  0  0  0  0  0
    4.4053   -5.5691    0.0773 C   0  0  0  0  0  0  0  0  0  0  0  0
   -0.2405   -6.0678    1.5248 C   0  0  0  0  0  0  0  0  0  0  0  0
    1.9507   -7.3085    1.9052 C   0  0  0  0  0  0  0  0  0  0  0  0
    3.1095   -4.5592   -5.5386 C   0  0  1  0  0  0  0  0  0  0  0  0
    5.4140   -5.9792   -0.9166 C   0  0  2  0  0  0  0  0  0  0  0  0
    4.7501   -5.2106    1.2273 O   0  0  0  0  0  0  0  0  0  0  0  0
    2.6210   -4.7149   -6.9395 C   0  0  0  0  0  0  0  0  0  0  0  0
    5.1136   -7.3667   -1.5306 C   0  0  0  0  0  0  0  0  0  0  0  0
    3.2216   -4.0144   -8.0115 C   0  0  0  0  0  0  0  0  0  0  0  0
    1.5086   -5.5458   -7.2167 C   0  0  0  0  0  0  0  0  0  0  0  0
    2.7285   -4.1447   -9.3247 C   0  0  0  0  0  0  0  0  0  0  0  0
    1.0129   -5.6764   -8.5278 C   0  0  0  0  0  0  0  0  0  0  0  0
    1.6219   -4.9754   -9.5835 C   0  0  0  0  0  0  0  0  0  0  0  0
    4.5340    2.2018   -0.4987 C   0  0  2  0  0  0  0  0  0  0  0  0
    4.8967    3.6987   -0.7741 C   0  0  1  0  0  0  0  0  0  0  0  0
    6.3939    4.0007   -0.4922 C   0  0  2  0  0  0  0  0  0  0  0  0
    7.3333    3.0600   -1.2883 C   0  0  2  0  0  0  0  0  0  0  0  0
    6.9809    1.5691   -1.0567 C   0  0  1  0  0  0  0  0  0  0  0  0
    5.4821    1.2784   -1.3317 C   0  0  1  0  0  0  0  0  0  0  0  0
   -0.0303   -2.4669    0.6838 H   0  0  0  0  0  0  0  0  0  0  0  0
    3.0673    0.1085    0.5002 H   0  0  0  0  0  0  0  0  0  0  0  0
    2.8108   -0.2133   -1.2323 H   0  0  0  0  0  0  0  0  0  0  0  0
    0.1988    2.0214    0.9198 H   0  0  0  0  0  0  0  0  0  0  0  0
    0.4243   -3.0036   -2.7256 H   0  0  0  0  0  0  0  0  0  0  0  0
    1.7357   -1.5776   -2.7038 H   0  0  0  0  0  0  0  0  0  0  0  0
    3.6150   -3.2270   -0.8134 H   0  0  0  0  0  0  0  0  0  0  0  0
    2.8448    2.0403   -1.8563 H   0  0  0  0  0  0  0  0  0  0  0  0
    1.8628    3.7246   -0.4581 H   0  0  0  0  0  0  0  0  0  0  0  0
    2.3302    2.8694    1.0291 H   0  0  0  0  0  0  0  0  0  0  0  0
    2.2183   -4.5891    1.3507 H   0  0  0  0  0  0  0  0  0  0  0  0
    3.4964   -3.2308   -3.0288 H   0  0  0  0  0  0  0  0  0  0  0  0
    2.3814   -4.5962   -2.8516 H   0  0  0  0  0  0  0  0  0  0  0  0
   -2.0996    2.8930   -1.5670 H   0  0  0  0  0  0  0  0  0  0  0  0
    0.9462   -7.0420    0.0227 H   0  0  0  0  0  0  0  0  0  0  0  0
    1.1559   -3.8469   -4.9097 H   0  0  0  0  0  0  0  0  0  0  0  0
    2.3523   -2.5648   -5.1484 H   0  0  0  0  0  0  0  0  0  0  0  0
   -0.7844   -6.9718    1.8089 H   0  0  0  0  0  0  0  0  0  0  0  0
   -0.1133   -5.4431    2.4109 H   0  0  0  0  0  0  0  0  0  0  0  0
   -0.8497   -5.5274    0.7999 H   0  0  0  0  0  0  0  0  0  0  0  0
    1.3796   -8.1915    2.1987 H   0  0  0  0  0  0  0  0  0  0  0  0
    2.1975   -6.7410    2.8045 H   0  0  0  0  0  0  0  0  0  0  0  0
    2.8779   -7.6521    1.4453 H   0  0  0  0  0  0  0  0  0  0  0  0
    4.1410   -4.1913   -5.5235 H   0  0  0  0  0  0  0  0  0  0  0  0
    3.1176   -5.5384   -5.0481 H   0  0  0  0  0  0  0  0  0  0  0  0
    6.4089   -5.9946   -0.4618 H   0  0  0  0  0  0  0  0  0  0  0  0
    5.4194   -5.2352   -1.7156 H   0  0  0  0  0  0  0  0  0  0  0  0
    5.8841   -7.6177   -2.2609 H   0  0  0  0  0  0  0  0  0  0  0  0
    4.1460   -7.3655   -2.0412 H   0  0  0  0  0  0  0  0  0  0  0  0
    5.1092   -8.1335   -0.7535 H   0  0  0  0  0  0  0  0  0  0  0  0
    4.0168   -3.3955   -7.8416 H   0  0  0  0  0  0  0  0  0  0  0  0
    1.0471   -6.0581   -6.4614 H   0  0  0  0  0  0  0  0  0  0  0  0
    3.1710   -3.6324  -10.0916 H   0  0  0  0  0  0  0  0  0  0  0  0
    0.2075   -6.2791   -8.7137 H   0  0  0  0  0  0  0  0  0  0  0  0
    1.2618   -5.0685  -10.5378 H   0  0  0  0  0  0  0  0  0  0  0  0
    4.7214    2.0055    0.5631 H   0  0  0  0  0  0  0  0  0  0  0  0
    4.6660    3.9531   -1.8142 H   0  0  0  0  0  0  0  0  0  0  0  0
    4.2992    4.3518   -0.1341 H   0  0  0  0  0  0  0  0  0  0  0  0
    6.5887    3.8841    0.5779 H   0  0  0  0  0  0  0  0  0  0  0  0
    6.6124    5.0384   -0.7592 H   0  0  0  0  0  0  0  0  0  0  0  0
    8.3668    3.2398   -0.9799 H   0  0  0  0  0  0  0  0  0  0  0  0
    7.2557    3.2890   -2.3552 H   0  0  0  0  0  0  0  0  0  0  0  0
    7.5978    0.9479   -1.7128 H   0  0  0  0  0  0  0  0  0  0  0  0
    7.2131    1.2988   -0.0228 H   0  0  0  0  0  0  0  0  0  0  0  0
    5.2930    0.2298   -1.0886 H   0  0  0  0  0  0  0  0  0  0  0  0
    5.2855    1.4126   -2.4006 H   0  0  0  0  0  0  0  0  0  0  0  0
  1  2  1  0  0  0  0 
  1  3  2  0  0  0  0 
  1  4  1  0  0  0  0 
  5  2  2  0  0  0  0 
  4  6  1  0  0  0  0 
  7  4  1  0  0  0  0 
  5  8  1  0  0  0  0 
  5  9  1  0  0  0  0 
  5 10  1  0  0  0  0 
 11  6  1  0  0  0  0 
  7 12  1  0  0  0  0 
  7 13  1  0  0  0  0 
 14  8  1  0  0  0  0 
  9 15  1  0  0  0  0 
 11 13  1  0  0  0  0 
 12 16  1  0  0  0  0 
 12 17  2  0  0  0  0 
 14 18  1  0  0  0  0 
 14 19  1  0  0  0  0 
 15 20  1  0  0  0  0 
 18 21  1  0  0  0  0 
 19 22  1  0  0  0  0 
 19 23  1  0  0  0  0 
 20 24  1  0  0  0  0 
 21 25  1  0  0  0  0 
 21 26  2  0  0  0  0 
 24 27  1  0  0  0  0 
 25 28  1  0  0  0  0 
 27 29  2  0  0  0  0 
 27 30  1  0  0  0  0 
 29 31  1  0  0  0  0 
 30 32  2  0  0  0  0 
 31 33  2  0  0  0  0 
 32 33  1  0  0  0  0 
 11 34  1  0  0  0  0 
 35 36  1  0  0  0  0 
 36 37  1  0  0  0  0 
 37 38  1  0  0  0  0 
 38 39  1  0  0  0  0 
 34 35  1  0  0  0  0 
 34 39  1  0  0  0  0 
 40  2  1  0  0  0  0 
 41  6  1  0  0  0  0 
 42  6  1  0  0  0  0 
  7 43  1  0  0  0  0 
 44  9  1  0  0  0  0 
 45  9  1  0  0  0  0 
 46 10  1  0  0  0  0 
 11 47  1  0  0  0  0 
 48 13  1  0  0  0  0 
 49 13  1  0  0  0  0 
 14 50  1  0  0  0  0 
 51 15  1  0  0  0  0 
 52 15  1  0  0  0  0 
 53 16  1  0  0  0  0 
 54 19  1  0  0  0  0 
 55 20  1  0  0  0  0 
 56 20  1  0  0  0  0 
 57 22  1  0  0  0  0 
 58 22  1  0  0  0  0 
 59 22  1  0  0  0  0 
 60 23  1  0  0  0  0 
 61 23  1  0  0  0  0 
 62 23  1  0  0  0  0 
 63 24  1  0  0  0  0 
 64 24  1  0  0  0  0 
 65 25  1  0  0  0  0 
 66 25  1  0  0  0  0 
 67 28  1  0  0  0  0 
 68 28  1  0  0  0  0 
 69 28  1  0  0  0  0 
 70 29  1  0  0  0  0 
 71 30  1  0  0  0  0 
 72 31  1  0  0  0  0 
 73 32  1  0  0  0  0 
 74 33  1  0  0  0  0 
 75 34  1  0  0  0  0 
 76 35  1  0  0  0  0 
 77 35  1  0  0  0  0 
 78 36  1  0  0  0  0 
 79 36  1  0  0  0  0 
 80 37  1  0  0  0  0 
 81 37  1  0  0  0  0 
 82 38  1  0  0  0  0 
 83 38  1  0  0  0  0 
 84 39  1  0  0  0  0 
 85 39  1  0  0  0  0 
M  END
> <cdk:Title>
fosinopril

> <Conformer>
1

> <SuperDrugID>
SD001118

$$$$
