ferric hydroxide
  CDK     0628171801

  7  6  0  0  0  0  0  0  0  0999 V2000
    0.1127    0.0696   -0.0501 Fe  0  0  0  0  0  0  0  0  0  0  0  0
   -0.7068    1.6391    0.7317 O   0  0  0  0  0  0  0  0  0  0  0  0
    2.0370   -0.0790    0.0967 O   0  0  0  0  0  0  0  0  0  0  0  0
   -0.6997   -0.6328   -1.6604 O   0  0  0  0  0  0  0  0  0  0  0  0
   -0.4650    2.3699    0.1247 H   0  0  0  0  0  0  0  0  0  0  0  0
    2.3830    0.5866   -0.5344 H   0  0  0  0  0  0  0  0  0  0  0  0
   -0.4576    0.0117   -2.3582 H   0  0  0  0  0  0  0  0  0  0  0  0
  1  2  1  0  0  0  0 
  1  3  1  0  0  0  0 
  1  4  1  0  0  0  0 
  2  5  1  0  0  0  0 
  3  6  1  0  0  0  0 
  4  7  1  0  0  0  0 
M  END
> <cdk:Title>
ferric hydroxide

> <Conformer>
1

> <SuperDrugID>
SD003612

$$$$
