cloxacillin
  CDK     0628171802

 47 50  0  0  0  0  0  0  0  0999 V2000
    0.8939    2.5717   -0.5911 N   0  0  0  0  0  0  0  0  0  0  0  0
    1.8486    1.6047   -0.6624 C   0  0  0  0  0  0  0  0  0  0  0  0
   -0.2719    2.6609   -1.4066 C   0  0  1  0  0  0  0  0  0  0  0  0
    1.7054    0.6208   -1.4265 O   0  0  0  0  0  0  0  0  0  0  0  0
    3.0229    1.7132    0.1246 C   0  0  0  0  0  0  0  0  0  0  0  0
   -1.4858    3.4094   -0.7670 C   0  0  2  0  0  0  0  0  0  0  0  0
   -0.2162    3.8052   -2.3163 C   0  0  0  0  0  0  0  0  0  0  0  0
    3.6111    2.8749    0.6420 C   0  0  0  0  0  0  0  0  0  0  0  0
    3.8601    0.6817    0.5593 C   0  0  0  0  0  0  0  0  0  0  0  0
   -1.2404    4.4134   -1.7252 N   0  0  0  0  0  0  0  0  0  0  0  0
   -1.3709    4.5403    0.6572 S   0  0  0  0  0  0  0  0  0  0  0  0
    0.5728    4.1426   -3.2271 O   0  0  0  0  0  0  0  0  0  0  0  0
    4.6949    2.5169    1.3512 N   0  0  0  0  0  0  0  0  0  0  0  0
    3.2465    4.2300    0.4404 C   0  0  0  0  0  0  0  0  0  0  0  0
    3.7472   -0.7630    0.3010 C   0  0  0  0  0  0  0  0  0  0  0  0
    4.8472    1.2240    1.3064 O   0  0  0  0  0  0  0  0  0  0  0  0
   -1.7671    5.7372   -1.7128 C   0  0  2  0  0  0  0  0  0  0  0  0
   -2.0406    6.0357   -0.1832 C   0  0  1  0  0  0  0  0  0  0  0  0
    3.0727    5.1412    1.5162 C   0  0  0  0  0  0  0  0  0  0  0  0
    3.0804    4.7000   -0.8851 C   0  0  0  0  0  0  0  0  0  0  0  0
   -2.9074    5.8409   -2.6563 C   0  0  0  0  0  0  0  0  0  0  0  0
   -3.5427    6.1760    0.2131 C   0  0  0  0  0  0  0  0  0  0  0  0
   -1.2557    7.2779    0.3283 C   0  0  0  0  0  0  0  0  0  0  0  0
    3.1786    4.6651    3.1434 Cl  0  0  0  0  0  0  0  0  0  0  0  0
    2.7745    6.4940    1.2504 C   0  0  0  0  0  0  0  0  0  0  0  0
    2.7544    6.0430   -1.1394 C   0  0  0  0  0  0  0  0  0  0  0  0
   -2.9667    6.8552   -3.5497 O   0  0  0  0  0  0  0  0  0  0  0  0
   -3.8367    5.0009   -2.6619 O   0  0  0  0  0  0  0  0  0  0  0  0
    2.6175    6.9444   -0.0715 C   0  0  0  0  0  0  0  0  0  0  0  0
   -2.4663    2.9453   -0.9082 H   0  0  0  0  0  0  0  0  0  0  0  0
    1.0334    3.2841    0.0511 H   0  0  0  0  0  0  0  0  0  0  0  0
   -0.5582    1.7396   -1.9245 H   0  0  0  0  0  0  0  0  0  0  0  0
    3.7890   -0.9533   -0.7723 H   0  0  0  0  0  0  0  0  0  0  0  0
    4.5734   -1.2902    0.7813 H   0  0  0  0  0  0  0  0  0  0  0  0
    2.8051   -1.1419    0.7005 H   0  0  0  0  0  0  0  0  0  0  0  0
   -0.9820    6.4020   -2.0850 H   0  0  0  0  0  0  0  0  0  0  0  0
    3.2005    4.0687   -1.6825 H   0  0  0  0  0  0  0  0  0  0  0  0
   -3.6447    6.3618    1.2851 H   0  0  0  0  0  0  0  0  0  0  0  0
   -3.9932    7.0157   -0.3207 H   0  0  0  0  0  0  0  0  0  0  0  0
   -4.1036    5.2693   -0.0274 H   0  0  0  0  0  0  0  0  0  0  0  0
   -1.3564    7.3876    1.4108 H   0  0  0  0  0  0  0  0  0  0  0  0
   -1.6380    8.1826   -0.1482 H   0  0  0  0  0  0  0  0  0  0  0  0
   -0.1950    7.1884    0.0922 H   0  0  0  0  0  0  0  0  0  0  0  0
    2.6672    7.1610    2.0171 H   0  0  0  0  0  0  0  0  0  0  0  0
    2.6230    6.3652   -2.1008 H   0  0  0  0  0  0  0  0  0  0  0  0
   -3.7225    6.9189   -4.1700 H   0  0  0  0  0  0  0  0  0  0  0  0
    2.3998    7.9266   -0.2556 H   0  0  0  0  0  0  0  0  0  0  0  0
  1  2  1  0  0  0  0 
  2  4  2  0  0  0  0 
  2  5  1  0  0  0  0 
  3  1  1  0  0  0  0 
  6  3  1  0  0  0  0 
  3  7  1  0  0  0  0 
  5  8  1  0  0  0  0 
  5  9  2  0  0  0  0 
  6 10  1  0  0  0  0 
  6 11  1  0  0  0  0 
  6 30  1  0  0  0  0 
  7 10  1  0  0  0  0 
  7 12  2  0  0  0  0 
  8 13  2  0  0  0  0 
  8 14  1  0  0  0  0 
  9 15  1  0  0  0  0 
  9 16  1  0  0  0  0 
 17 10  1  0  0  0  0 
 11 18  1  0  0  0  0 
 13 16  1  0  0  0  0 
 14 19  2  0  0  0  0 
 14 20  1  0  0  0  0 
 17 18  1  0  0  0  0 
 17 21  1  0  0  0  0 
 18 22  1  0  0  0  0 
 18 23  1  0  0  0  0 
 19 24  1  0  0  0  0 
 19 25  1  0  0  0  0 
 20 26  2  0  0  0  0 
 21 27  1  0  0  0  0 
 21 28  2  0  0  0  0 
 25 29  2  0  0  0  0 
 26 29  1  0  0  0  0 
  1 31  1  0  0  0  0 
  3 32  1  0  0  0  0 
 15 33  1  0  0  0  0 
 15 34  1  0  0  0  0 
 15 35  1  0  0  0  0 
 17 36  1  0  0  0  0 
 20 37  1  0  0  0  0 
 22 38  1  0  0  0  0 
 22 39  1  0  0  0  0 
 22 40  1  0  0  0  0 
 23 41  1  0  0  0  0 
 23 42  1  0  0  0  0 
 23 43  1  0  0  0  0 
 25 44  1  0  0  0  0 
 26 45  1  0  0  0  0 
 27 46  1  0  0  0  0 
 29 47  1  0  0  0  0 
M  END
> <cdk:Title>
cloxacillin

> <Conformer>
1

> <SuperDrugID>
SD000637

$$$$
