digoxin
  CDK     0628171802

119126  0  0  0  0  0  0  0  0999 V2000
    3.3278    3.6212    0.1611 O   0  0  0  0  0  0  0  0  0  0  0  0
    2.8652    2.7542    1.2071 C   0  0  2  0  0  0  0  0  0  0  0  0
    1.4492    2.1942    0.8165 C   0  0  1  0  0  0  0  0  0  0  0  0
    2.9071    3.6372    2.5187 C   0  0  1  0  0  0  0  0  0  0  0  0
    3.7866    1.4905    1.2099 C   0  0  2  0  0  0  0  0  0  0  0  0
    0.5146    3.2879    0.1791 C   0  0  0  0  0  0  0  0  0  0  0  0
    1.7962    1.0272   -0.1970 C   0  0  2  0  0  0  0  0  0  0  0  0
    0.7408    1.5955    2.1031 C   0  0  2  0  0  0  0  0  0  0  0  0
    2.1831    2.9922    3.7575 C   0  0  2  0  0  0  0  0  0  0  0  0
    4.3722    4.1150    2.8290 C   0  0  1  0  0  0  0  0  0  0  0  0
    3.1057    0.4013    0.3559 C   0  0  1  0  0  0  0  0  0  0  0  0
    1.8968    1.3447   -1.6383 C   0  0  0  0  0  0  0  0  0  0  0  0
   -0.6088    1.2152    1.8227 O   0  0  0  0  0  0  0  0  0  0  0  0
    0.7495    2.5328    3.3411 C   0  0  2  0  0  0  0  0  0  0  0  0
    2.2550    3.8528    5.1191 C   0  0  2  0  0  0  0  0  0  0  0  0
    4.7257    4.1428    4.3304 C   0  0  1  0  0  0  0  0  0  0  0  0
    2.9086    1.9330   -2.2892 C   0  0  0  0  0  0  0  0  0  0  0  0
    0.8673    1.0168   -2.6050 C   0  0  2  0  0  0  0  0  0  0  0  0
    1.0154    4.8107    5.2733 C   0  0  0  0  0  0  0  0  0  0  0  0
    3.5559    4.7732    5.1383 C   0  0  2  0  0  0  0  0  0  0  0  0
    2.2493    2.8529    6.3533 C   0  0  2  0  0  0  0  0  0  0  0  0
    2.6256    2.0210   -3.6112 C   0  0  0  0  0  0  0  0  0  0  0  0
    1.4122    1.4861   -3.8373 O   0  0  0  0  0  0  0  0  0  0  0  0
    4.0315    5.2351    6.5517 C   0  0  2  0  0  0  0  0  0  0  0  0
    2.7637    3.4201    7.7089 C   0  0  2  0  0  0  0  0  0  0  0  0
    3.3697    2.5043   -4.4937 O   0  0  0  0  0  0  0  0  0  0  0  0
    4.1746    4.0423    7.5352 C   0  0  2  0  0  0  0  0  0  0  0  0
    4.7844    4.3303    8.8244 O   0  0  0  0  0  0  0  0  0  0  0  0
    6.0738    5.0017    8.8220 C   0  0  1  0  0  0  0  0  0  0  0  0
    6.7141    5.0773   10.2389 C   0  0  1  0  0  0  0  0  0  0  0  0
    7.0076    4.5318    7.8151 O   0  0  0  0  0  0  0  0  0  0  0  0
    7.6116    3.8586   10.5769 C   0  0  2  0  0  0  0  0  0  0  0  0
    7.8158    3.3661    8.1031 C   0  0  1  0  0  0  0  0  0  0  0  0
    8.3078    4.0970   11.7980 O   0  0  0  0  0  0  0  0  0  0  0  0
    8.6206    3.5493    9.4330 C   0  0  1  0  0  0  0  0  0  0  0  0
    7.0369    2.0242    8.0215 C   0  0  0  0  0  0  0  0  0  0  0  0
    9.6057    4.6209    9.3716 O   0  0  0  0  0  0  0  0  0  0  0  0
   10.8156    4.3858    8.6055 C   0  0  1  0  0  0  0  0  0  0  0  0
   11.6729    5.6786    8.4848 C   0  0  1  0  0  0  0  0  0  0  0  0
   11.5841    3.2493    9.0706 O   0  0  0  0  0  0  0  0  0  0  0  0
   12.6000    5.9114    9.7064 C   0  0  2  0  0  0  0  0  0  0  0  0
   12.4406    3.4292   10.2226 C   0  0  1  0  0  0  0  0  0  0  0  0
   13.4682    7.0140    9.4459 O   0  0  0  0  0  0  0  0  0  0  0  0
   13.4241    4.6287   10.0162 C   0  0  1  0  0  0  0  0  0  0  0  0
   11.6606    3.4771   11.5647 C   0  0  0  0  0  0  0  0  0  0  0  0
   14.3424    4.4877    8.9016 O   0  0  0  0  0  0  0  0  0  0  0  0
   15.2859    3.3985    8.8688 C   0  0  1  0  0  0  0  0  0  0  0  0
   16.0905    3.5140    7.5449 C   0  0  1  0  0  0  0  0  0  0  0  0
   16.1852    3.3846   10.0412 O   0  0  0  0  0  0  0  0  0  0  0  0
   17.0747    4.7130    7.5367 C   0  0  2  0  0  0  0  0  0  0  0  0
   17.2547    4.4693   10.0936 C   0  0  1  0  0  0  0  0  0  0  0  0
   17.8126    4.7318    6.3141 O   0  0  0  0  0  0  0  0  0  0  0  0
   18.0516    4.6510    8.7384 C   0  0  1  0  0  0  0  0  0  0  0  0
   16.7634    5.8660   10.6294 C   0  0  0  0  0  0  0  0  0  0  0  0
   18.9465    3.5522    8.5595 O   0  0  0  0  0  0  0  0  0  0  0  0
    2.3329    4.5444    2.3004 H   0  0  0  0  0  0  0  0  0  0  0  0
    2.7334    2.0656    3.9329 H   0  0  0  0  0  0  0  0  0  0  0  0
    3.3303    5.7082    4.6130 H   0  0  0  0  0  0  0  0  0  0  0  0
    5.8550    6.0391    8.5602 H   0  0  0  0  0  0  0  0  0  0  0  0
   10.5307    4.1469    7.5808 H   0  0  0  0  0  0  0  0  0  0  0  0
   14.6818    2.4652    8.7344 H   0  0  0  0  0  0  0  0  0  0  0  0
    4.2389    3.8789    0.4110 H   0  0  0  0  0  0  0  0  0  0  0  0
    3.9348    1.1051    2.2207 H   0  0  0  0  0  0  0  0  0  0  0  0
    4.7759    1.7162    0.8023 H   0  0  0  0  0  0  0  0  0  0  0  0
    0.3061    4.0965    0.8784 H   0  0  0  0  0  0  0  0  0  0  0  0
    0.9653    3.7392   -0.7045 H   0  0  0  0  0  0  0  0  0  0  0  0
   -0.4376    2.8553   -0.1301 H   0  0  0  0  0  0  0  0  0  0  0  0
    1.0180    0.2589   -0.1237 H   0  0  0  0  0  0  0  0  0  0  0  0
    1.2375    0.6753    2.4164 H   0  0  0  0  0  0  0  0  0  0  0  0
    5.1252    3.4924    2.3453 H   0  0  0  0  0  0  0  0  0  0  0  0
    4.5067    5.1209    2.4213 H   0  0  0  0  0  0  0  0  0  0  0  0
    3.7748    0.0442   -0.4313 H   0  0  0  0  0  0  0  0  0  0  0  0
    2.8699   -0.4608    0.9854 H   0  0  0  0  0  0  0  0  0  0  0  0
   -0.9522    0.8399    2.6613 H   0  0  0  0  0  0  0  0  0  0  0  0
    0.2848    2.0034    4.1772 H   0  0  0  0  0  0  0  0  0  0  0  0
    0.1278    3.4001    3.1218 H   0  0  0  0  0  0  0  0  0  0  0  0
    4.9227    3.1231    4.6719 H   0  0  0  0  0  0  0  0  0  0  0  0
    5.6501    4.7141    4.4521 H   0  0  0  0  0  0  0  0  0  0  0  0
    3.7578    2.2453   -1.8872 H   0  0  0  0  0  0  0  0  0  0  0  0
   -0.0671    1.5305   -2.3828 H   0  0  0  0  0  0  0  0  0  0  0  0
    0.6998   -0.0619   -2.6570 H   0  0  0  0  0  0  0  0  0  0  0  0
    1.1114    5.4505    6.1515 H   0  0  0  0  0  0  0  0  0  0  0  0
    0.0834    4.2517    5.3879 H   0  0  0  0  0  0  0  0  0  0  0  0
    0.9169    5.4549    4.3963 H   0  0  0  0  0  0  0  0  0  0  0  0
    2.8861    1.9905    6.1401 H   0  0  0  0  0  0  0  0  0  0  0  0
    1.2427    2.4543    6.5117 H   0  0  0  0  0  0  0  0  0  0  0  0
    3.3298    5.9623    6.9649 H   0  0  0  0  0  0  0  0  0  0  0  0
    4.9805    5.7588    6.4428 H   0  0  0  0  0  0  0  0  0  0  0  0
    2.8135    2.6083    8.4412 H   0  0  0  0  0  0  0  0  0  0  0  0
    2.0633    4.1657    8.0973 H   0  0  0  0  0  0  0  0  0  0  0  0
    4.7968    3.2859    7.0641 H   0  0  0  0  0  0  0  0  0  0  0  0
    7.3318    5.9795   10.2969 H   0  0  0  0  0  0  0  0  0  0  0  0
    5.9293    5.1714   10.9948 H   0  0  0  0  0  0  0  0  0  0  0  0
    6.9756    2.9876   10.7503 H   0  0  0  0  0  0  0  0  0  0  0  0
    8.5233    3.3099    7.2763 H   0  0  0  0  0  0  0  0  0  0  0  0
    7.6079    4.2542   12.4660 H   0  0  0  0  0  0  0  0  0  0  0  0
    9.1302    2.6129    9.6822 H   0  0  0  0  0  0  0  0  0  0  0  0
    7.6957    1.1870    8.2634 H   0  0  0  0  0  0  0  0  0  0  0  0
    6.1921    2.0100    8.7114 H   0  0  0  0  0  0  0  0  0  0  0  0
    6.6645    1.8748    7.0055 H   0  0  0  0  0  0  0  0  0  0  0  0
   12.2987    5.5950    7.5901 H   0  0  0  0  0  0  0  0  0  0  0  0
   11.0215    6.5458    8.3466 H   0  0  0  0  0  0  0  0  0  0  0  0
   11.9950    6.1919   10.5701 H   0  0  0  0  0  0  0  0  0  0  0  0
   13.0311    2.5146   10.2928 H   0  0  0  0  0  0  0  0  0  0  0  0
   12.8731    7.7748    9.2799 H   0  0  0  0  0  0  0  0  0  0  0  0
   13.9970    4.7864   10.9333 H   0  0  0  0  0  0  0  0  0  0  0  0
   12.3585    3.4806   12.4053 H   0  0  0  0  0  0  0  0  0  0  0  0
   11.0357    4.3653   11.6386 H   0  0  0  0  0  0  0  0  0  0  0  0
   11.0211    2.5969   11.6550 H   0  0  0  0  0  0  0  0  0  0  0  0
   16.6520    2.5886    7.3925 H   0  0  0  0  0  0  0  0  0  0  0  0
   15.3966    3.6203    6.7052 H   0  0  0  0  0  0  0  0  0  0  0  0
   16.5067    5.6465    7.5787 H   0  0  0  0  0  0  0  0  0  0  0  0
   18.0535    4.2090   10.8361 H   0  0  0  0  0  0  0  0  0  0  0  0
   17.1383    4.8233    5.6078 H   0  0  0  0  0  0  0  0  0  0  0  0
   18.6597    5.5593    8.7605 H   0  0  0  0  0  0  0  0  0  0  0  0
   16.2703    5.7271   11.5926 H   0  0  0  0  0  0  0  0  0  0  0  0
   16.0588    6.3212    9.9360 H   0  0  0  0  0  0  0  0  0  0  0  0
   17.6040    6.5492   10.7716 H   0  0  0  0  0  0  0  0  0  0  0  0
   19.5871    3.6253    9.2968 H   0  0  0  0  0  0  0  0  0  0  0  0
  2  1  1  0  0  0  0 
  2  3  1  0  0  0  0 
  4  2  1  0  0  0  0 
  2  5  1  0  0  0  0 
  3  6  1  0  0  0  0 
  3  7  1  0  0  0  0 
  3  8  1  0  0  0  0 
  9  4  1  0  0  0  0 
  4 10  1  0  0  0  0 
  4 56  1  0  0  0  0 
  5 11  1  0  0  0  0 
  7 11  1  0  0  0  0 
  7 12  1  0  0  0  0 
  8 13  1  0  0  0  0 
  8 14  1  0  0  0  0 
  9 14  1  0  0  0  0 
 15  9  1  0  0  0  0 
  9 57  1  0  0  0  0 
 10 16  1  0  0  0  0 
 12 17  2  0  0  0  0 
 12 18  1  0  0  0  0 
 15 19  1  0  0  0  0 
 20 15  1  0  0  0  0 
 15 21  1  0  0  0  0 
 20 16  1  0  0  0  0 
 17 22  1  0  0  0  0 
 18 23  1  0  0  0  0 
 20 24  1  0  0  0  0 
 20 58  1  0  0  0  0 
 21 25  1  0  0  0  0 
 22 23  1  0  0  0  0 
 22 26  2  0  0  0  0 
 27 24  1  0  0  0  0 
 27 25  1  0  0  0  0 
 27 28  1  0  0  0  0 
 29 28  1  0  0  0  0 
 29 30  1  0  0  0  0 
 29 31  1  0  0  0  0 
 29 59  1  0  0  0  0 
 32 30  1  0  0  0  0 
 33 31  1  0  0  0  0 
 32 34  1  0  0  0  0 
 35 32  1  0  0  0  0 
 33 35  1  0  0  0  0 
 33 36  1  0  0  0  0 
 35 37  1  0  0  0  0 
 38 37  1  0  0  0  0 
 38 39  1  0  0  0  0 
 38 40  1  0  0  0  0 
 38 60  1  0  0  0  0 
 41 39  1  0  0  0  0 
 42 40  1  0  0  0  0 
 41 43  1  0  0  0  0 
 44 41  1  0  0  0  0 
 44 42  1  0  0  0  0 
 42 45  1  0  0  0  0 
 44 46  1  0  0  0  0 
 47 46  1  0  0  0  0 
 47 48  1  0  0  0  0 
 47 49  1  0  0  0  0 
 47 61  1  0  0  0  0 
 50 48  1  0  0  0  0 
 51 49  1  0  0  0  0 
 50 52  1  0  0  0  0 
 53 50  1  0  0  0  0 
 53 51  1  0  0  0  0 
 51 54  1  0  0  0  0 
 53 55  1  0  0  0  0 
  1 62  1  0  0  0  0 
  5 63  1  0  0  0  0 
  5 64  1  0  0  0  0 
  6 65  1  0  0  0  0 
  6 66  1  0  0  0  0 
  6 67  1  0  0  0  0 
  7 68  1  0  0  0  0 
  8 69  1  0  0  0  0 
 10 70  1  0  0  0  0 
 10 71  1  0  0  0  0 
 11 72  1  0  0  0  0 
 11 73  1  0  0  0  0 
 13 74  1  0  0  0  0 
 14 75  1  0  0  0  0 
 14 76  1  0  0  0  0 
 16 77  1  0  0  0  0 
 16 78  1  0  0  0  0 
 17 79  1  0  0  0  0 
 18 80  1  0  0  0  0 
 18 81  1  0  0  0  0 
 19 82  1  0  0  0  0 
 19 83  1  0  0  0  0 
 19 84  1  0  0  0  0 
 21 85  1  0  0  0  0 
 21 86  1  0  0  0  0 
 24 87  1  0  0  0  0 
 24 88  1  0  0  0  0 
 25 89  1  0  0  0  0 
 25 90  1  0  0  0  0 
 27 91  1  0  0  0  0 
 30 92  1  0  0  0  0 
 30 93  1  0  0  0  0 
 32 94  1  0  0  0  0 
 33 95  1  0  0  0  0 
 34 96  1  0  0  0  0 
 35 97  1  0  0  0  0 
 36 98  1  0  0  0  0 
 36 99  1  0  0  0  0 
 36100  1  0  0  0  0 
 39101  1  0  0  0  0 
 39102  1  0  0  0  0 
 41103  1  0  0  0  0 
 42104  1  0  0  0  0 
 43105  1  0  0  0  0 
 44106  1  0  0  0  0 
 45107  1  0  0  0  0 
 45108  1  0  0  0  0 
 45109  1  0  0  0  0 
 48110  1  0  0  0  0 
 48111  1  0  0  0  0 
 50112  1  0  0  0  0 
 51113  1  0  0  0  0 
 52114  1  0  0  0  0 
 53115  1  0  0  0  0 
 54116  1  0  0  0  0 
 54117  1  0  0  0  0 
 54118  1  0  0  0  0 
 55119  1  0  0  0  0 
M  END
> <cdk:Title>
digoxin

> <Conformer>
1

> <SuperDrugID>
SD000784

$$$$
