strychnine
  CDK     0628171801

 47 53  0  0  0  0  0  0  0  0999 V2000
    1.0127   -0.7386   -0.4876 O   0  0  0  0  0  0  0  0  0  0  0  0
    0.0056   -0.7971    0.2552 C   0  0  0  0  0  0  0  0  0  0  0  0
   -1.1959   -1.3111   -0.1882 N   0  0  0  0  0  0  0  0  0  0  0  0
   -2.2422   -1.5773    0.7518 C   0  0  2  0  0  0  0  0  0  0  0  0
   -3.4357   -2.1997   -0.0648 C   0  0  2  0  0  0  0  0  0  0  0  0
   -2.9811   -1.9229   -1.4410 C   0  0  0  0  0  0  0  0  0  0  0  0
   -1.6464   -1.4916   -1.4608 C   0  0  0  0  0  0  0  0  0  0  0  0
   -1.0062   -1.2512   -2.6972 C   0  0  0  0  0  0  0  0  0  0  0  0
   -1.7167   -1.4480   -3.8986 C   0  0  0  0  0  0  0  0  0  0  0  0
   -3.0588   -1.8761   -3.8702 C   0  0  0  0  0  0  0  0  0  0  0  0
   -3.6982   -2.1173   -2.6403 C   0  0  0  0  0  0  0  0  0  0  0  0
   -4.8495   -1.7116    0.3962 C   0  0  1  0  0  0  0  0  0  0  0  0
   -5.2425   -2.6414    1.5074 N   0  0  1  0  0  0  0  0  0  0  0  0
   -4.4234   -3.8771    1.4004 C   0  0  1  0  0  0  0  0  0  0  0  0
   -3.5645   -3.7358    0.1352 C   0  0  2  0  0  0  0  0  0  0  0  0
   -5.3119   -2.0514    2.8866 C   0  0  2  0  0  0  0  0  0  0  0  0
   -4.1956   -1.1181    3.1268 C   0  0  0  0  0  0  0  0  0  0  0  0
   -3.9110   -0.1047    2.0830 C   0  0  1  0  0  0  0  0  0  0  0  0
   -2.4767   -0.2082    1.4735 C   0  0  1  0  0  0  0  0  0  0  0  0
   -1.2334    0.0735    2.3856 C   0  0  2  0  0  0  0  0  0  0  0  0
    0.1234   -0.2243    1.6316 C   0  0  1  0  0  0  0  0  0  0  0  0
   -1.2297   -0.6797    3.6212 O   0  0  0  0  0  0  0  0  0  0  0  0
   -2.2941   -0.4160    4.5570 C   0  0  1  0  0  0  0  0  0  0  0  0
   -3.4562   -1.2269    4.2502 C   0  0  0  0  0  0  0  0  0  0  0  0
   -1.2398    1.1383    2.6466 H   0  0  0  0  0  0  0  0  0  0  0  0
   -2.4270    0.5972    0.7264 H   0  0  0  0  0  0  0  0  0  0  0  0
   -4.8838   -0.2271    0.8592 C   0  0  1  0  0  0  0  0  0  0  0  0
   -4.0441    0.8904    2.5186 H   0  0  0  0  0  0  0  0  0  0  0  0
   -5.5771   -1.8439   -0.4096 H   0  0  0  0  0  0  0  0  0  0  0  0
   -1.8937   -2.3068    1.4938 H   0  0  0  0  0  0  0  0  0  0  0  0
   -0.0427   -0.9223   -2.7387 H   0  0  0  0  0  0  0  0  0  0  0  0
   -1.2575   -1.2753   -4.7957 H   0  0  0  0  0  0  0  0  0  0  0  0
   -3.5686   -2.0160   -4.7457 H   0  0  0  0  0  0  0  0  0  0  0  0
   -4.6681   -2.4376   -2.6255 H   0  0  0  0  0  0  0  0  0  0  0  0
   -3.7647   -4.0212    2.2631 H   0  0  0  0  0  0  0  0  0  0  0  0
   -5.0861   -4.7415    1.3243 H   0  0  0  0  0  0  0  0  0  0  0  0
   -2.5914   -4.2267    0.2495 H   0  0  0  0  0  0  0  0  0  0  0  0
   -4.0904   -4.2109   -0.7005 H   0  0  0  0  0  0  0  0  0  0  0  0
   -5.3871   -2.8493    3.6330 H   0  0  0  0  0  0  0  0  0  0  0  0
   -6.2488   -1.4941    2.9652 H   0  0  0  0  0  0  0  0  0  0  0  0
    0.7430   -0.9079    2.2171 H   0  0  0  0  0  0  0  0  0  0  0  0
    0.6787    0.7140    1.5526 H   0  0  0  0  0  0  0  0  0  0  0  0
   -1.9219   -0.6969    5.5463 H   0  0  0  0  0  0  0  0  0  0  0  0
   -2.5510    0.6462    4.6119 H   0  0  0  0  0  0  0  0  0  0  0  0
   -3.6975   -1.9256    4.9172 H   0  0  0  0  0  0  0  0  0  0  0  0
   -4.6057    0.4320    0.0324 H   0  0  0  0  0  0  0  0  0  0  0  0
   -5.8992    0.0509    1.1544 H   0  0  0  0  0  0  0  0  0  0  0  0
  1  2  2  0  0  0  0 
  2  3  1  0  0  0  0 
  2 21  1  0  0  0  0 
  4  3  1  0  0  0  0 
  3  7  1  0  0  0  0 
  4  5  1  0  0  0  0 
 19  4  1  0  0  0  0 
  4 30  1  0  0  0  0 
  5  6  1  0  0  0  0 
  5 12  1  0  0  0  0 
  5 15  1  0  0  0  0 
  6 11  2  0  0  0  0 
  7  6  1  0  0  0  0 
  7  8  2  0  0  0  0 
  8  9  1  0  0  0  0 
  9 10  2  0  0  0  0 
 11 10  1  0  0  0  0 
 12 13  1  0  0  0  0 
 12 27  1  0  0  0  0 
 12 29  1  0  0  0  0 
 13 14  1  0  0  0  0 
 13 16  1  0  0  0  0 
 15 14  1  0  0  0  0 
 17 16  1  0  0  0  0 
 17 24  2  0  0  0  0 
 18 17  1  0  0  0  0 
 18 27  1  0  0  0  0 
 18 28  1  0  0  0  0 
 19 18  1  0  0  0  0 
 19 26  1  0  0  0  0 
 20 19  1  0  0  0  0 
 20 22  1  0  0  0  0 
 20 25  1  0  0  0  0 
 20 21  1  0  0  0  0 
 22 23  1  0  0  0  0 
 23 24  1  0  0  0  0 
  8 31  1  0  0  0  0 
  9 32  1  0  0  0  0 
 10 33  1  0  0  0  0 
 11 34  1  0  0  0  0 
 14 35  1  0  0  0  0 
 14 36  1  0  0  0  0 
 15 37  1  0  0  0  0 
 15 38  1  0  0  0  0 
 16 39  1  0  0  0  0 
 16 40  1  0  0  0  0 
 21 41  1  0  0  0  0 
 21 42  1  0  0  0  0 
 23 43  1  0  0  0  0 
 23 44  1  0  0  0  0 
 24 45  1  0  0  0  0 
 27 46  1  0  0  0  0 
 27 47  1  0  0  0  0 
M  END
> <cdk:Title>
strychnine

> <Conformer>
1

> <SuperDrugID>
SD002232

$$$$
