actarit
  CDK     0628171802

 25 25  0  0  0  0  0  0  0  0999 V2000
    6.3218   -7.3164    5.5512 C   0  0  2  0  0  0  0  0  0  0  0  0
    6.1597   -7.9078    6.8940 C   0  0  0  0  0  0  0  0  0  0  0  0
    7.5678   -6.5098    5.4757 C   0  0  0  0  0  0  0  0  0  0  0  0
    6.0581   -7.1153    7.9890 O   0  0  0  0  0  0  0  0  0  0  0  0
    6.1179   -9.1492    7.0504 O   0  0  0  0  0  0  0  0  0  0  0  0
    8.7704   -7.0624    4.9779 C   0  0  0  0  0  0  0  0  0  0  0  0
    7.5812   -5.1732    5.9337 C   0  0  0  0  0  0  0  0  0  0  0  0
    9.9535   -6.3004    4.9446 C   0  0  0  0  0  0  0  0  0  0  0  0
    8.7666   -4.4137    5.8974 C   0  0  0  0  0  0  0  0  0  0  0  0
    9.9692   -4.9604    5.3986 C   0  0  0  0  0  0  0  0  0  0  0  0
   11.0735   -4.1475    5.4341 N   0  0  0  0  0  0  0  0  0  0  0  0
   12.2452   -4.2362    4.7394 C   0  0  0  0  0  0  0  0  0  0  0  0
   13.3018   -3.2471    5.0167 C   0  0  0  0  0  0  0  0  0  0  0  0
   12.4578   -5.1019    3.8585 O   0  0  0  0  0  0  0  0  0  0  0  0
    5.4530   -6.6900    5.3363 H   0  0  0  0  0  0  0  0  0  0  0  0
    6.3359   -8.1050    4.7931 H   0  0  0  0  0  0  0  0  0  0  0  0
    5.9696   -7.5136    8.8813 H   0  0  0  0  0  0  0  0  0  0  0  0
    8.7942   -8.0294    4.6452 H   0  0  0  0  0  0  0  0  0  0  0  0
    6.7268   -4.7435    6.3017 H   0  0  0  0  0  0  0  0  0  0  0  0
   10.8051   -6.7483    4.6040 H   0  0  0  0  0  0  0  0  0  0  0  0
    8.7410   -3.4516    6.2422 H   0  0  0  0  0  0  0  0  0  0  0  0
   11.0077   -3.3863    6.0336 H   0  0  0  0  0  0  0  0  0  0  0  0
   14.1721   -3.4081    4.3763 H   0  0  0  0  0  0  0  0  0  0  0  0
   12.9207   -2.2411    4.8334 H   0  0  0  0  0  0  0  0  0  0  0  0
   13.6184   -3.3235    6.0583 H   0  0  0  0  0  0  0  0  0  0  0  0
  1  2  1  0  0  0  0 
  1  3  1  0  0  0  0 
  2  4  1  0  0  0  0 
  2  5  2  0  0  0  0 
  3  6  2  0  0  0  0 
  3  7  1  0  0  0  0 
  6  8  1  0  0  0  0 
  7  9  2  0  0  0  0 
  8 10  2  0  0  0  0 
  9 10  1  0  0  0  0 
 10 11  1  0  0  0  0 
 11 12  1  0  0  0  0 
 12 13  1  0  0  0  0 
 12 14  2  0  0  0  0 
  1 15  1  0  0  0  0 
  1 16  1  0  0  0  0 
  4 17  1  0  0  0  0 
  6 18  1  0  0  0  0 
  7 19  1  0  0  0  0 
  8 20  1  0  0  0  0 
  9 21  1  0  0  0  0 
 11 22  1  0  0  0  0 
 13 23  1  0  0  0  0 
 13 24  1  0  0  0  0 
 13 25  1  0  0  0  0 
M  END
> <cdk:Title>
actarit

> <Conformer>
1

> <SuperDrugID>
SD000059

$$$$
