nicofetamide
  CDK     0628171802

 41 43  0  0  0  0  0  0  0  0999 V2000
    1.0795   -3.2232   -0.1801 C   0  0  1  0  0  0  0  0  0  0  0  0
   -0.4286   -3.6211   -0.2102 C   0  0  2  0  0  0  0  0  0  0  0  0
    1.2306   -1.8042    0.0075 N   0  0  0  0  0  0  0  0  0  0  0  0
    1.8648   -3.9752    0.8535 C   0  0  0  0  0  0  0  0  0  0  0  0
   -0.6309   -5.0778   -0.4602 C   0  0  0  0  0  0  0  0  0  0  0  0
    2.4007   -1.1121   -0.1732 C   0  0  0  0  0  0  0  0  0  0  0  0
    1.6475   -3.7618    2.2366 C   0  0  0  0  0  0  0  0  0  0  0  0
    2.8450   -4.9203    0.4664 C   0  0  0  0  0  0  0  0  0  0  0  0
   -0.7531   -5.5808   -1.7775 C   0  0  0  0  0  0  0  0  0  0  0  0
   -0.6744   -5.9921    0.6194 C   0  0  0  0  0  0  0  0  0  0  0  0
    3.4362   -1.7394   -0.5080 O   0  0  0  0  0  0  0  0  0  0  0  0
    2.4829    0.2978   -0.0009 C   0  0  0  0  0  0  0  0  0  0  0  0
    2.3918   -4.4662    3.2015 C   0  0  0  0  0  0  0  0  0  0  0  0
    3.5893   -5.6262    1.4288 C   0  0  0  0  0  0  0  0  0  0  0  0
   -0.9090   -6.9604   -2.0078 C   0  0  0  0  0  0  0  0  0  0  0  0
   -0.8188   -7.3718    0.3898 C   0  0  0  0  0  0  0  0  0  0  0  0
    1.3454    1.1367   -0.1065 C   0  0  0  0  0  0  0  0  0  0  0  0
    3.7273    0.9285    0.2584 C   0  0  0  0  0  0  0  0  0  0  0  0
    3.3607   -5.4010    2.7971 C   0  0  0  0  0  0  0  0  0  0  0  0
   -0.9439   -7.8548   -0.9240 C   0  0  0  0  0  0  0  0  0  0  0  0
    1.4656    2.5335    0.0282 C   0  0  0  0  0  0  0  0  0  0  0  0
    3.8108    2.2775    0.3871 N   0  0  0  0  0  0  0  0  0  0  0  0
    2.7318    3.0909    0.2783 C   0  0  0  0  0  0  0  0  0  0  0  0
    1.4650   -3.4451   -1.1825 H   0  0  0  0  0  0  0  0  0  0  0  0
   -0.9287   -3.0467   -0.9974 H   0  0  0  0  0  0  0  0  0  0  0  0
   -0.9160   -3.3322    0.7251 H   0  0  0  0  0  0  0  0  0  0  0  0
    0.4490   -1.3036    0.2955 H   0  0  0  0  0  0  0  0  0  0  0  0
    0.9439   -3.0902    2.5509 H   0  0  0  0  0  0  0  0  0  0  0  0
    3.0209   -5.1064   -0.5231 H   0  0  0  0  0  0  0  0  0  0  0  0
   -0.7277   -4.9457   -2.5774 H   0  0  0  0  0  0  0  0  0  0  0  0
   -0.5961   -5.6585    1.5816 H   0  0  0  0  0  0  0  0  0  0  0  0
    2.2297   -4.3009    4.1976 H   0  0  0  0  0  0  0  0  0  0  0  0
    4.2938   -6.3066    1.1349 H   0  0  0  0  0  0  0  0  0  0  0  0
   -0.9919   -7.3148   -2.9636 H   0  0  0  0  0  0  0  0  0  0  0  0
   -0.8306   -8.0236    1.1777 H   0  0  0  0  0  0  0  0  0  0  0  0
    0.4206    0.7407   -0.2966 H   0  0  0  0  0  0  0  0  0  0  0  0
    4.5876    0.3814    0.3546 H   0  0  0  0  0  0  0  0  0  0  0  0
    3.8974   -5.9178    3.4963 H   0  0  0  0  0  0  0  0  0  0  0  0
   -1.0593   -8.8571   -1.0909 H   0  0  0  0  0  0  0  0  0  0  0  0
    0.6425    3.1355   -0.0635 H   0  0  0  0  0  0  0  0  0  0  0  0
    2.8467    4.1024    0.3744 H   0  0  0  0  0  0  0  0  0  0  0  0
  1  2  1  0  0  0  0 
  1  3  1  0  0  0  0 
  1  4  1  0  0  0  0 
  2  5  1  0  0  0  0 
  3  6  1  0  0  0  0 
  4  7  2  0  0  0  0 
  4  8  1  0  0  0  0 
  5  9  2  0  0  0  0 
  5 10  1  0  0  0  0 
  6 11  2  0  0  0  0 
  6 12  1  0  0  0  0 
  7 13  1  0  0  0  0 
  8 14  2  0  0  0  0 
  9 15  1  0  0  0  0 
 10 16  2  0  0  0  0 
 12 17  2  0  0  0  0 
 12 18  1  0  0  0  0 
 13 19  2  0  0  0  0 
 14 19  1  0  0  0  0 
 15 20  2  0  0  0  0 
 16 20  1  0  0  0  0 
 17 21  1  0  0  0  0 
 18 22  2  0  0  0  0 
 21 23  2  0  0  0  0 
 22 23  1  0  0  0  0 
  1 24  1  0  0  0  0 
  2 25  1  0  0  0  0 
  2 26  1  0  0  0  0 
  3 27  1  0  0  0  0 
  7 28  1  0  0  0  0 
  8 29  1  0  0  0  0 
  9 30  1  0  0  0  0 
 10 31  1  0  0  0  0 
 13 32  1  0  0  0  0 
 14 33  1  0  0  0  0 
 15 34  1  0  0  0  0 
 16 35  1  0  0  0  0 
 17 36  1  0  0  0  0 
 18 37  1  0  0  0  0 
 19 38  1  0  0  0  0 
 20 39  1  0  0  0  0 
 21 40  1  0  0  0  0 
 23 41  1  0  0  0  0 
M  END
> <cdk:Title>
nicofetamide

> <Conformer>
1

> <SuperDrugID>
SD003706

$$$$
