dydrogesterone
  CDK     0628171802

 51 54  0  0  0  0  0  0  0  0999 V2000
   -3.4140    2.2004    0.5228 C   0  0  0  0  0  0  0  0  0  0  0  0
   -3.1780    0.6533    0.3795 C   0  0  2  0  0  0  0  0  0  0  0  0
   -4.1230   -0.2085    1.3627 C   0  0  1  0  0  0  0  0  0  0  0  0
   -1.7208    0.4275    0.6178 C   0  0  0  0  0  0  0  0  0  0  0  0
   -3.4742    0.2261   -1.1158 C   0  0  1  0  0  0  0  0  0  0  0  0
   -3.3461   -1.3652    2.1201 C   0  0  2  0  0  0  0  0  0  0  0  0
   -5.0823    0.5367    2.3589 C   0  0  2  0  0  0  0  0  0  0  0  0
   -1.3032   -0.0155    1.8344 C   0  0  0  0  0  0  0  0  0  0  0  0
   -0.7906    0.6233   -0.3491 C   0  0  0  0  0  0  0  0  0  0  0  0
   -2.5061    0.8412   -2.1650 C   0  0  1  0  0  0  0  0  0  0  0  0
   -4.1412   -1.9483    3.3473 C   0  0  1  0  0  0  0  0  0  0  0  0
   -2.0294   -0.8831    2.5508 C   0  0  0  0  0  0  0  0  0  0  0  0
   -6.1117   -0.3959    3.0990 C   0  0  1  0  0  0  0  0  0  0  0  0
   -1.1197    0.9418   -1.6571 C   0  0  0  0  0  0  0  0  0  0  0  0
   -5.6962   -1.9150    3.2206 C   0  0  1  0  0  0  0  0  0  0  0  0
   -3.8279   -3.3829    3.8284 C   0  0  1  0  0  0  0  0  0  0  0  0
   -0.2214    1.3146   -2.4478 O   0  0  0  0  0  0  0  0  0  0  0  0
   -6.2753   -2.7697    2.0232 C   0  0  0  0  0  0  0  0  0  0  0  0
   -6.0600   -2.5989    4.5939 C   0  0  2  0  0  0  0  0  0  0  0  0
   -5.0153   -3.7436    4.7602 C   0  0  2  0  0  0  0  0  0  0  0  0
   -7.4756   -3.0198    4.8171 C   0  0  0  0  0  0  0  0  0  0  0  0
   -8.3053   -2.3758    5.8555 C   0  0  0  0  0  0  0  0  0  0  0  0
   -7.9854   -3.9438    4.1386 O   0  0  0  0  0  0  0  0  0  0  0  0
   -3.2295    2.5259    1.5491 H   0  0  0  0  0  0  0  0  0  0  0  0
   -2.7499    2.7811   -0.1214 H   0  0  0  0  0  0  0  0  0  0  0  0
   -4.4367    2.4649    0.2490 H   0  0  0  0  0  0  0  0  0  0  0  0
   -4.8421   -0.6901    0.7078 H   0  0  0  0  0  0  0  0  0  0  0  0
   -3.3895   -0.8647   -1.1941 H   0  0  0  0  0  0  0  0  0  0  0  0
   -4.5006    0.4864   -1.3906 H   0  0  0  0  0  0  0  0  0  0  0  0
   -3.1733   -2.1731    1.4029 H   0  0  0  0  0  0  0  0  0  0  0  0
   -5.6562    1.3004    1.8287 H   0  0  0  0  0  0  0  0  0  0  0  0
   -4.4663    1.0485    3.1048 H   0  0  0  0  0  0  0  0  0  0  0  0
   -0.4292    0.2894    2.2022 H   0  0  0  0  0  0  0  0  0  0  0  0
    0.1798    0.5123   -0.1436 H   0  0  0  0  0  0  0  0  0  0  0  0
   -2.5156    0.2170   -3.0632 H   0  0  0  0  0  0  0  0  0  0  0  0
   -2.8502    1.8386   -2.4460 H   0  0  0  0  0  0  0  0  0  0  0  0
   -3.8842   -1.2958    4.1982 H   0  0  0  0  0  0  0  0  0  0  0  0
   -1.6414   -1.2065    3.4102 H   0  0  0  0  0  0  0  0  0  0  0  0
   -6.2589    0.0296    4.0956 H   0  0  0  0  0  0  0  0  0  0  0  0
   -7.0837   -0.3189    2.6054 H   0  0  0  0  0  0  0  0  0  0  0  0
   -3.7880   -4.0697    2.9787 H   0  0  0  0  0  0  0  0  0  0  0  0
   -2.8728   -3.4246    4.3574 H   0  0  0  0  0  0  0  0  0  0  0  0
   -5.8278   -2.5370    1.0660 H   0  0  0  0  0  0  0  0  0  0  0  0
   -7.3505   -2.6061    1.9235 H   0  0  0  0  0  0  0  0  0  0  0  0
   -6.1188   -3.8382    2.1737 H   0  0  0  0  0  0  0  0  0  0  0  0
   -5.8276   -1.8800    5.3897 H   0  0  0  0  0  0  0  0  0  0  0  0
   -4.6844   -3.8060    5.8014 H   0  0  0  0  0  0  0  0  0  0  0  0
   -5.4258   -4.7168    4.4782 H   0  0  0  0  0  0  0  0  0  0  0  0
   -8.3034   -1.2940    5.7125 H   0  0  0  0  0  0  0  0  0  0  0  0
   -7.8915   -2.6027    6.8391 H   0  0  0  0  0  0  0  0  0  0  0  0
   -9.3369   -2.7321    5.8196 H   0  0  0  0  0  0  0  0  0  0  0  0
  2  1  1  0  0  0  0 
  3  2  1  0  0  0  0 
  2  4  1  0  0  0  0 
  2  5  1  0  0  0  0 
  3  6  1  0  0  0  0 
  3  7  1  0  0  0  0 
  4  8  1  0  0  0  0 
  4  9  2  0  0  0  0 
  5 10  1  0  0  0  0 
  6 11  1  0  0  0  0 
  6 12  1  0  0  0  0 
  7 13  1  0  0  0  0 
  8 12  2  0  0  0  0 
  9 14  1  0  0  0  0 
 10 14  1  0  0  0  0 
 11 15  1  0  0  0  0 
 11 16  1  0  0  0  0 
 15 13  1  0  0  0  0 
 14 17  2  0  0  0  0 
 15 18  1  0  0  0  0 
 15 19  1  0  0  0  0 
 16 20  1  0  0  0  0 
 19 20  1  0  0  0  0 
 19 21  1  0  0  0  0 
 21 22  1  0  0  0  0 
 21 23  2  0  0  0  0 
 24  1  1  0  0  0  0 
 25  1  1  0  0  0  0 
 26  1  1  0  0  0  0 
  3 27  1  0  0  0  0 
 28  5  1  0  0  0  0 
 29  5  1  0  0  0  0 
  6 30  1  0  0  0  0 
 31  7  1  0  0  0  0 
 32  7  1  0  0  0  0 
 33  8  1  0  0  0  0 
 34  9  1  0  0  0  0 
 35 10  1  0  0  0  0 
 36 10  1  0  0  0  0 
 11 37  1  0  0  0  0 
 38 12  1  0  0  0  0 
 39 13  1  0  0  0  0 
 40 13  1  0  0  0  0 
 41 16  1  0  0  0  0 
 42 16  1  0  0  0  0 
 43 18  1  0  0  0  0 
 44 18  1  0  0  0  0 
 45 18  1  0  0  0  0 
 19 46  1  0  0  0  0 
 47 20  1  0  0  0  0 
 48 20  1  0  0  0  0 
 49 22  1  0  0  0  0 
 50 22  1  0  0  0  0 
 51 22  1  0  0  0  0 
M  END
> <cdk:Title>
dydrogesterone

> <Conformer>
1

> <SuperDrugID>
SD000865

$$$$
