icatibant
  CDK     0628171801

181187  0  0  0  0  0  0  0  0999 V2000
   -1.6338  -11.0767    3.2550 N   0  0  0  0  0  0  0  0  0  0  0  0
   -1.5761  -12.5230    0.7448 O   0  0  0  0  0  0  0  0  0  0  0  0
   -1.2661  -12.4552    5.6914 N   0  0  0  0  0  0  0  0  0  0  0  0
   -7.8644   -7.4597    2.9338 C   0  0  0  0  0  0  0  0  0  0  0  0
   -1.4107  -10.4768    6.9196 C   0  0  2  0  0  0  0  0  0  0  0  0
   -5.5253  -11.0951    4.0863 N   0  0  0  0  0  0  0  0  0  0  0  0
   -2.0221  -11.2270    5.7070 C   0  0  1  0  0  0  0  0  0  0  0  0
   -8.4801   -6.2309    4.0290 S   0  0  0  0  0  0  0  0  0  0  0  0
    0.0227  -12.3296    6.3538 C   0  0  1  0  0  0  0  0  0  0  0  0
    1.3123  -12.7877    5.5758 C   0  0  2  0  0  0  0  0  0  0  0  0
    0.0737  -10.8949    6.9571 C   0  0  1  0  0  0  0  0  0  0  0  0
    1.0018   -9.8703    6.2374 C   0  0  1  0  0  0  0  0  0  0  0  0
    2.2267  -11.6881    4.9831 C   0  0  1  0  0  0  0  0  0  0  0  0
    2.3862  -10.4732    5.9193 C   0  0  2  0  0  0  0  0  0  0  0  0
   -8.7595   -5.7416    1.5520 C   0  0  0  0  0  0  0  0  0  0  0  0
   -5.8990   -8.6513    4.0630 C   0  0  2  0  0  0  0  0  0  0  0  0
   -9.0457   -5.1405    2.7785 C   0  0  0  0  0  0  0  0  0  0  0  0
   -4.8612   -8.3807    3.1093 N   0  0  0  0  0  0  0  0  0  0  0  0
   -8.1205   -6.9935    1.6355 C   0  0  0  0  0  0  0  0  0  0  0  0
   -3.1491  -13.9556    4.7301 C   0  0  2  0  0  0  0  0  0  0  0  0
   -4.2706   -5.2209    8.4571 C   0  0  1  0  0  0  0  0  0  0  0  0
   -2.9789   -6.0902    5.4079 C   0  0  0  0  0  0  0  0  0  0  0  0
   -4.1418  -13.8231    5.7888 N   0  0  0  0  0  0  0  0  0  0  0  0
   -3.1170   -5.0404    7.6312 N   0  0  0  0  0  0  0  0  0  0  0  0
   -3.2330  -16.4371    5.2418 C   0  0  0  0  0  0  0  0  0  0  0  0
   -3.7057   -7.3361    7.4854 C   0  0  2  0  0  0  0  0  0  0  0  0
   -3.3225  -15.4115    4.1575 C   0  0  2  0  0  0  0  0  0  0  0  0
   -3.5037  -16.0801    6.5924 C   0  0  0  0  0  0  0  0  0  0  0  0
   -3.9329  -14.6940    6.9481 C   0  0  2  0  0  0  0  0  0  0  0  0
   -3.6014   -1.8321    8.2761 N   0  0  0  0  0  0  0  0  0  0  0  0
   -2.7047  -18.7199    5.9621 C   0  0  0  0  0  0  0  0  0  0  0  0
   -2.8499  -17.7649    4.9391 C   0  0  0  0  0  0  0  0  0  0  0  0
   -2.9473  -18.3607    7.2981 C   0  0  0  0  0  0  0  0  0  0  0  0
   -3.3460  -17.0496    7.6109 C   0  0  0  0  0  0  0  0  0  0  0  0
   -1.7494  -13.6771    5.2313 C   0  0  0  0  0  0  0  0  0  0  0  0
   -6.1249   -0.5392    6.2146 N   0  0  0  0  0  0  0  0  0  0  0  0
   -5.6603   -9.9314    4.7864 C   0  0  0  0  0  0  0  0  0  0  0  0
   -7.2755   -8.7555    3.3303 C   0  0  2  0  0  0  0  0  0  0  0  0
   -1.9761   -6.2300    4.6682 O   0  0  0  0  0  0  0  0  0  0  0  0
   -2.8017   -6.2334    6.8792 C   0  0  1  0  0  0  0  0  0  0  0  0
   -6.3723   -1.4699    5.2536 C   0  0  0  0  0  0  0  0  0  0  0  0
   -5.7525   -9.9474    6.0367 O   0  0  0  0  0  0  0  0  0  0  0  0
   -4.2108   -5.8649    4.8694 N   0  0  0  0  0  0  0  0  0  0  0  0
   -2.2650   -9.2486    4.4446 O   0  0  0  0  0  0  0  0  0  0  0  0
   -1.9769  -10.4686    4.4275 C   0  0  0  0  0  0  0  0  0  0  0  0
   -0.9700  -14.6593    5.3064 O   0  0  0  0  0  0  0  0  0  0  0  0
   -5.5090   -7.2323    9.1592 O   0  0  0  0  0  0  0  0  0  0  0  0
   -4.9035   -6.5628    8.0546 C   0  0  1  0  0  0  0  0  0  0  0  0
   -1.9032  -11.2166    0.8966 C   0  0  0  0  0  0  0  0  0  0  0  0
    0.1828  -10.2360    1.9368 C   0  0  2  0  0  0  0  0  0  0  0  0
    0.7281   -9.3288    0.8021 C   0  0  1  0  0  0  0  0  0  0  0  0
    2.2542   -9.0964    0.9752 C   0  0  2  0  0  0  0  0  0  0  0  0
    2.7653   -8.2521   -0.0078 N   0  0  0  0  0  0  0  0  0  0  0  0
    3.9661   -7.8017   -0.1045 C   0  0  0  0  0  0  0  0  0  0  0  0
    4.2467   -7.0164   -1.1159 N   0  0  0  0  0  0  0  0  0  0  0  0
    4.9324   -8.0767    0.7549 N   0  0  0  0  0  0  0  0  0  0  0  0
   -1.3596  -10.4121    2.0130 C   0  0  2  0  0  0  0  0  0  0  0  0
   -2.6828  -10.7059    0.0608 O   0  0  0  0  0  0  0  0  0  0  0  0
   -5.2680  -12.9906    5.7378 C   0  0  0  0  0  0  0  0  0  0  0  0
   -6.1805  -13.3078    3.3212 C   0  0  2  0  0  0  0  0  0  0  0  0
   -6.7594  -14.5510    3.7054 O   0  0  0  0  0  0  0  0  0  0  0  0
   -5.9626  -12.3830    4.5467 C   0  0  2  0  0  0  0  0  0  0  0  0
   -5.8379  -12.7325    6.8284 O   0  0  0  0  0  0  0  0  0  0  0  0
   -2.3177   -3.9017    7.6261 C   0  0  0  0  0  0  0  0  0  0  0  0
   -2.4462   -2.6783    8.4979 C   0  0  2  0  0  0  0  0  0  0  0  0
   -2.3877   -2.9625   10.0248 C   0  0  2  0  0  0  0  0  0  0  0  0
   -3.7690   -2.5676   10.5701 C   0  0  2  0  0  0  0  0  0  0  0  0
   -4.3674   -1.6648    9.4745 C   0  0  1  0  0  0  0  0  0  0  0  0
   -1.3400   -3.8873    6.8369 O   0  0  0  0  0  0  0  0  0  0  0  0
   -3.8326   -1.1606    7.0663 C   0  0  0  0  0  0  0  0  0  0  0  0
   -5.1704    1.0052    7.7748 C   0  0  1  0  0  0  0  0  0  0  0  0
   -3.9447    1.7807    8.3386 C   0  0  2  0  0  0  0  0  0  0  0  0
   -4.2829    2.4765    9.6804 C   0  0  1  0  0  0  0  0  0  0  0  0
   -3.1658    3.1159   10.2116 N   0  0  0  0  0  0  0  0  0  0  0  0
   -3.0800    3.7286   11.3363 C   0  0  0  0  0  0  0  0  0  0  0  0
   -4.0846    3.8413   12.1874 N   0  0  0  0  0  0  0  0  0  0  0  0
   -1.9274    4.2668   11.6530 N   0  0  0  0  0  0  0  0  0  0  0  0
   -4.8522   -0.0941    6.7151 C   0  0  2  0  0  0  0  0  0  0  0  0
   -3.0522   -1.4258    6.1179 O   0  0  0  0  0  0  0  0  0  0  0  0
  -10.2442   -1.1878    4.4773 C   0  0  1  0  0  0  0  0  0  0  0  0
  -11.5439   -0.8371    5.2468 C   0  0  2  0  0  0  0  0  0  0  0  0
  -12.5973   -0.6751    4.3422 N   0  0  0  0  0  0  0  0  0  0  0  0
  -13.8118   -0.3169    4.5616 C   0  0  0  0  0  0  0  0  0  0  0  0
  -14.6239   -0.2058    3.5332 N   0  0  0  0  0  0  0  0  0  0  0  0
  -14.2864   -0.0395    5.7601 N   0  0  0  0  0  0  0  0  0  0  0  0
   -7.4718   -0.4832    3.4165 N   0  0  1  0  0  0  0  0  0  0  0  0
   -7.6579   -1.4520    4.5092 C   0  0  2  0  0  0  0  0  0  0  0  0
   -8.9408   -1.0995    5.3277 C   0  0  1  0  0  0  0  0  0  0  0  0
   -5.4886   -2.2815    4.8903 O   0  0  0  0  0  0  0  0  0  0  0  0
   -4.2608   -7.1865    2.8218 C   0  0  0  0  0  0  0  0  0  0  0  0
   -4.5283   -5.8799    3.4766 C   0  0  1  0  0  0  0  0  0  0  0  0
   -3.4174   -7.2175    1.8970 O   0  0  0  0  0  0  0  0  0  0  0  0
   -1.5031  -12.0384    3.2715 H   0  0  0  0  0  0  0  0  0  0  0  0
   -0.9846  -12.9655    1.3891 H   0  0  0  0  0  0  0  0  0  0  0  0
   -1.9025  -10.8210    7.8359 H   0  0  0  0  0  0  0  0  0  0  0  0
   -1.5375   -9.3930    6.8694 H   0  0  0  0  0  0  0  0  0  0  0  0
   -5.2708  -11.0231    3.1522 H   0  0  0  0  0  0  0  0  0  0  0  0
   -3.0721  -11.3935    5.9391 H   0  0  0  0  0  0  0  0  0  0  0  0
   -0.0576  -13.0050    7.2161 H   0  0  0  0  0  0  0  0  0  0  0  0
    1.0517  -13.4473    4.7482 H   0  0  0  0  0  0  0  0  0  0  0  0
    1.9276  -13.3780    6.2617 H   0  0  0  0  0  0  0  0  0  0  0  0
    0.4069  -10.9496    8.0003 H   0  0  0  0  0  0  0  0  0  0  0  0
    0.5483   -9.5198    5.3086 H   0  0  0  0  0  0  0  0  0  0  0  0
    1.1359   -8.9966    6.8815 H   0  0  0  0  0  0  0  0  0  0  0  0
    3.2140  -12.1127    4.7798 H   0  0  0  0  0  0  0  0  0  0  0  0
    1.8204  -11.3576    4.0293 H   0  0  0  0  0  0  0  0  0  0  0  0
    2.8866  -10.7766    6.8432 H   0  0  0  0  0  0  0  0  0  0  0  0
    3.0065   -9.7181    5.4288 H   0  0  0  0  0  0  0  0  0  0  0  0
   -9.0023   -5.3038    0.6603 H   0  0  0  0  0  0  0  0  0  0  0  0
   -5.9618   -7.8557    4.8088 H   0  0  0  0  0  0  0  0  0  0  0  0
   -9.5025   -4.2388    2.9200 H   0  0  0  0  0  0  0  0  0  0  0  0
   -4.5674   -9.1392    2.5796 H   0  0  0  0  0  0  0  0  0  0  0  0
   -7.8707   -7.5269    0.8004 H   0  0  0  0  0  0  0  0  0  0  0  0
   -3.3217  -13.2490    3.9199 H   0  0  0  0  0  0  0  0  0  0  0  0
   -3.9512   -5.3067    9.4955 H   0  0  0  0  0  0  0  0  0  0  0  0
   -4.9926   -4.4093    8.3418 H   0  0  0  0  0  0  0  0  0  0  0  0
   -3.1746   -7.8409    8.2990 H   0  0  0  0  0  0  0  0  0  0  0  0
   -4.0165   -8.0886    6.7577 H   0  0  0  0  0  0  0  0  0  0  0  0
   -2.4664  -15.5830    3.4253 H   0  0  0  0  0  0  0  0  0  0  0  0
   -4.3726  -15.5147    3.7445 H   0  0  0  0  0  0  0  0  0  0  0  0
   -4.8464  -14.8050    7.5396 H   0  0  0  0  0  0  0  0  0  0  0  0
   -3.1787  -14.2388    7.5966 H   0  0  0  0  0  0  0  0  0  0  0  0
   -2.4189  -19.6752    5.7343 H   0  0  0  0  0  0  0  0  0  0  0  0
   -2.6627  -18.0436    3.9725 H   0  0  0  0  0  0  0  0  0  0  0  0
   -2.8339  -19.0543    8.0419 H   0  0  0  0  0  0  0  0  0  0  0  0
   -3.5219  -16.8066    8.5889 H   0  0  0  0  0  0  0  0  0  0  0  0
   -6.8932   -0.0273    6.5126 H   0  0  0  0  0  0  0  0  0  0  0  0
   -7.1657   -9.3925    2.4469 H   0  0  0  0  0  0  0  0  0  0  0  0
   -8.0122   -9.2382    3.9794 H   0  0  0  0  0  0  0  0  0  0  0  0
   -1.7608   -6.5161    7.0848 H   0  0  0  0  0  0  0  0  0  0  0  0
   -4.9412   -5.6999    5.4840 H   0  0  0  0  0  0  0  0  0  0  0  0
   -6.2208   -6.6265    9.4557 H   0  0  0  0  0  0  0  0  0  0  0  0
   -5.6627   -6.4122    7.2828 H   0  0  0  0  0  0  0  0  0  0  0  0
    0.5001   -9.7819    2.8787 H   0  0  0  0  0  0  0  0  0  0  0  0
    0.6545  -11.2212    1.8621 H   0  0  0  0  0  0  0  0  0  0  0  0
    0.5268   -9.7931   -0.1676 H   0  0  0  0  0  0  0  0  0  0  0  0
    0.2165   -8.3622    0.8376 H   0  0  0  0  0  0  0  0  0  0  0  0
    2.7804  -10.0562    0.9334 H   0  0  0  0  0  0  0  0  0  0  0  0
    2.4305   -8.6417    1.9562 H   0  0  0  0  0  0  0  0  0  0  0  0
    5.1393   -6.6502   -1.2145 H   0  0  0  0  0  0  0  0  0  0  0  0
    3.5626   -6.8010   -1.7681 H   0  0  0  0  0  0  0  0  0  0  0  0
    4.7608   -8.6459    1.5221 H   0  0  0  0  0  0  0  0  0  0  0  0
    5.8202   -7.7068    0.6231 H   0  0  0  0  0  0  0  0  0  0  0  0
   -1.8247   -9.4214    1.9918 H   0  0  0  0  0  0  0  0  0  0  0  0
   -6.8696  -12.8304    2.6184 H   0  0  0  0  0  0  0  0  0  0  0  0
   -5.2517  -13.4829    2.7834 H   0  0  0  0  0  0  0  0  0  0  0  0
   -6.8543  -15.0483    2.8664 H   0  0  0  0  0  0  0  0  0  0  0  0
   -6.9992  -12.2006    4.8643 H   0  0  0  0  0  0  0  0  0  0  0  0
   -1.5766   -2.0373    8.2931 H   0  0  0  0  0  0  0  0  0  0  0  0
   -1.6285   -2.3310   10.4977 H   0  0  0  0  0  0  0  0  0  0  0  0
   -2.1463   -4.0012   10.2659 H   0  0  0  0  0  0  0  0  0  0  0  0
   -3.6845   -2.0388   11.5267 H   0  0  0  0  0  0  0  0  0  0  0  0
   -4.3943   -3.4462   10.7344 H   0  0  0  0  0  0  0  0  0  0  0  0
   -4.2676   -0.6422    9.8292 H   0  0  0  0  0  0  0  0  0  0  0  0
   -5.4206   -1.9030    9.3062 H   0  0  0  0  0  0  0  0  0  0  0  0
   -5.7497    0.5524    8.5814 H   0  0  0  0  0  0  0  0  0  0  0  0
   -5.8319    1.7539    7.3207 H   0  0  0  0  0  0  0  0  0  0  0  0
   -3.6235    2.5305    7.6084 H   0  0  0  0  0  0  0  0  0  0  0  0
   -3.1077    1.0995    8.5039 H   0  0  0  0  0  0  0  0  0  0  0  0
   -5.0862    3.2048    9.5291 H   0  0  0  0  0  0  0  0  0  0  0  0
   -4.6251    1.7211   10.3939 H   0  0  0  0  0  0  0  0  0  0  0  0
   -3.9549    4.2944   13.0346 H   0  0  0  0  0  0  0  0  0  0  0  0
   -4.9559    3.4723   11.9683 H   0  0  0  0  0  0  0  0  0  0  0  0
   -1.1711    4.1884   11.0492 H   0  0  0  0  0  0  0  0  0  0  0  0
   -1.8312    4.7459   12.4904 H   0  0  0  0  0  0  0  0  0  0  0  0
   -4.4321    0.4794    5.8767 H   0  0  0  0  0  0  0  0  0  0  0  0
  -10.3420   -2.1993    4.0768 H   0  0  0  0  0  0  0  0  0  0  0  0
  -10.1594   -0.4992    3.6326 H   0  0  0  0  0  0  0  0  0  0  0  0
  -11.4033    0.0973    5.7968 H   0  0  0  0  0  0  0  0  0  0  0  0
  -11.7804   -1.6341    5.9573 H   0  0  0  0  0  0  0  0  0  0  0  0
  -15.5420    0.0833    3.6664 H   0  0  0  0  0  0  0  0  0  0  0  0
  -14.3081   -0.4079    2.6373 H   0  0  0  0  0  0  0  0  0  0  0  0
  -15.2090    0.2447    5.8633 H   0  0  0  0  0  0  0  0  0  0  0  0
  -13.7166   -0.1186    6.5410 H   0  0  0  0  0  0  0  0  0  0  0  0
   -6.6982   -0.8191    2.8390 H   0  0  0  0  0  0  0  0  0  0  0  0
   -8.3053   -0.5174    2.8281 H   0  0  0  0  0  0  0  0  0  0  0  0
   -7.8054   -2.4339    4.0536 H   0  0  0  0  0  0  0  0  0  0  0  0
   -8.8560   -0.0827    5.7232 H   0  0  0  0  0  0  0  0  0  0  0  0
   -9.0215   -1.7861    6.1742 H   0  0  0  0  0  0  0  0  0  0  0  0
   -5.5869   -5.6531    3.3606 H   0  0  0  0  0  0  0  0  0  0  0  0
   -3.9685   -5.0770    2.9879 H   0  0  0  0  0  0  0  0  0  0  0  0
 45  1  1  0  0  0  0 
  7  3  1  0  0  0  0 
 35  3  1  0  0  0  0 
  9  3  1  0  0  0  0 
  4  8  1  0  0  0  0 
 38  4  1  0  0  0  0 
  4 19  2  0  0  0  0 
 11  5  1  0  0  0  0 
  7  5  1  0  0  0  0 
 37  6  1  0  0  0  0 
 59 23  1  0  0  0  0 
  7 45  1  0  0  0  0 
  8 17  1  0  0  0  0 
  9 10  1  0  0  0  0 
  9 11  1  0  0  0  0 
 10 13  1  0  0  0  0 
 11 12  1  0  0  0  0 
 14 12  1  0  0  0  0 
 13 14  1  0  0  0  0 
 17 15  2  0  0  0  0 
 15 19  1  0  0  0  0 
 16 37  1  0  0  0  0 
 16 38  1  0  0  0  0 
 16 18  1  0  0  0  0 
 22 43  1  0  0  0  0 
 20 35  1  0  0  0  0 
 20 27  1  0  0  0  0 
 20 23  1  0  0  0  0 
 24 21  1  0  0  0  0 
 48 21  1  0  0  0  0 
 40 22  1  0  0  0  0 
 22 39  2  0  0  0  0 
 90 18  1  0  0  0  0 
 23 29  1  0  0  0  0 
 40 24  1  0  0  0  0 
 41 36  1  0  0  0  0 
 25 32  2  0  0  0  0 
 27 25  1  0  0  0  0 
 28 25  1  0  0  0  0 
 48 26  1  0  0  0  0 
 40 26  1  0  0  0  0 
 28 34  2  0  0  0  0 
 28 29  1  0  0  0  0 
 70 30  1  0  0  0  0 
 31 33  2  0  0  0  0 
 32 31  1  0  0  0  0 
 33 34  1  0  0  0  0 
 35 46  2  0  0  0  0 
 64 24  1  0  0  0  0 
 37 42  2  0  0  0  0 
 45 44  2  0  0  0  0 
 48 47  1  0  0  0  0 
 49  2  1  0  0  0  0 
 57  1  1  0  0  0  0 
 57 50  1  0  0  0  0 
 50 51  1  0  0  0  0 
 51 52  1  0  0  0  0 
 52 53  1  0  0  0  0 
 53 54  2  0  0  0  0 
 54 55  1  0  0  0  0 
 54 56  1  0  0  0  0 
 57 49  1  0  0  0  0 
 49 58  2  0  0  0  0 
 62  6  1  0  0  0  0 
 62 60  1  0  0  0  0 
 60 61  1  0  0  0  0 
 62 59  1  0  0  0  0 
 59 63  2  0  0  0  0 
 69 64  2  0  0  0  0 
 65 64  1  0  0  0  0 
 65 66  1  0  0  0  0 
 66 67  1  0  0  0  0 
 67 68  1  0  0  0  0 
 68 30  1  0  0  0  0 
 65 30  1  0  0  0  0 
 78 36  1  0  0  0  0 
 78 71  1  0  0  0  0 
 71 72  1  0  0  0  0 
 72 73  1  0  0  0  0 
 73 74  1  0  0  0  0 
 74 75  2  0  0  0  0 
 75 76  1  0  0  0  0 
 75 77  1  0  0  0  0 
 78 70  1  0  0  0  0 
 70 79  2  0  0  0  0 
 87 86  1  0  0  0  0 
 87 88  1  0  0  0  0 
 88 80  1  0  0  0  0 
 80 81  1  0  0  0  0 
 81 82  1  0  0  0  0 
 82 83  2  0  0  0  0 
 83 84  1  0  0  0  0 
 83 85  1  0  0  0  0 
 87 41  1  0  0  0  0 
 41 89  2  0  0  0  0 
 43 91  1  0  0  0  0 
 91 90  1  0  0  0  0 
 90 92  2  0  0  0  0 
 93  1  1  0  0  0  0 
 94  2  1  0  0  0  0 
 95  5  1  0  0  0  0 
 96  5  1  0  0  0  0 
 97  6  1  0  0  0  0 
  7 98  1  0  0  0  0 
  9 99  1  0  0  0  0 
100 10  1  0  0  0  0 
101 10  1  0  0  0  0 
 11102  1  0  0  0  0 
103 12  1  0  0  0  0 
104 12  1  0  0  0  0 
105 13  1  0  0  0  0 
106 13  1  0  0  0  0 
107 14  1  0  0  0  0 
108 14  1  0  0  0  0 
109 15  1  0  0  0  0 
 16110  1  0  0  0  0 
111 17  1  0  0  0  0 
112 18  1  0  0  0  0 
113 19  1  0  0  0  0 
 20114  1  0  0  0  0 
115 21  1  0  0  0  0 
116 21  1  0  0  0  0 
117 26  1  0  0  0  0 
118 26  1  0  0  0  0 
119 27  1  0  0  0  0 
120 27  1  0  0  0  0 
121 29  1  0  0  0  0 
122 29  1  0  0  0  0 
123 31  1  0  0  0  0 
124 32  1  0  0  0  0 
125 33  1  0  0  0  0 
126 34  1  0  0  0  0 
127 36  1  0  0  0  0 
128 38  1  0  0  0  0 
129 38  1  0  0  0  0 
 40130  1  0  0  0  0 
131 43  1  0  0  0  0 
132 47  1  0  0  0  0 
 48133  1  0  0  0  0 
134 50  1  0  0  0  0 
135 50  1  0  0  0  0 
136 51  1  0  0  0  0 
137 51  1  0  0  0  0 
138 52  1  0  0  0  0 
139 52  1  0  0  0  0 
140 55  1  0  0  0  0 
141 55  1  0  0  0  0 
142 56  1  0  0  0  0 
143 56  1  0  0  0  0 
 57144  1  0  0  0  0 
145 60  1  0  0  0  0 
146 60  1  0  0  0  0 
147 61  1  0  0  0  0 
 62148  1  0  0  0  0 
 65149  1  0  0  0  0 
150 66  1  0  0  0  0 
151 66  1  0  0  0  0 
152 67  1  0  0  0  0 
153 67  1  0  0  0  0 
154 68  1  0  0  0  0 
155 68  1  0  0  0  0 
156 71  1  0  0  0  0 
157 71  1  0  0  0  0 
158 72  1  0  0  0  0 
159 72  1  0  0  0  0 
160 73  1  0  0  0  0 
161 73  1  0  0  0  0 
162 76  1  0  0  0  0 
163 76  1  0  0  0  0 
164 77  1  0  0  0  0 
165 77  1  0  0  0  0 
 78166  1  0  0  0  0 
167 80  1  0  0  0  0 
168 80  1  0  0  0  0 
169 81  1  0  0  0  0 
170 81  1  0  0  0  0 
171 84  1  0  0  0  0 
172 84  1  0  0  0  0 
173 85  1  0  0  0  0 
174 85  1  0  0  0  0 
175 86  1  0  0  0  0 
176 86  1  0  0  0  0 
 87177  1  0  0  0  0 
178 88  1  0  0  0  0 
179 88  1  0  0  0  0 
180 91  1  0  0  0  0 
181 91  1  0  0  0  0 
M  END
> <cdk:Title>
icatibant

> <Conformer>
1

> <SuperDrugID>
SD003416

$$$$
