barnidipine
  CDK     0628171801

 65 68  0  0  0  0  0  0  0  0999 V2000
   -1.5803    2.4802   -0.8134 C   0  0  0  0  0  0  0  0  0  0  0  0
   -0.3489    2.0295   -1.2133 O   0  0  0  0  0  0  0  0  0  0  0  0
   -2.2437    1.7179   -0.0667 O   0  0  0  0  0  0  0  0  0  0  0  0
   -2.1122    3.7363   -1.1821 C   0  0  0  0  0  0  0  0  0  0  0  0
    0.2683    0.7684   -0.8994 C   0  0  2  0  0  0  0  0  0  0  0  0
   -3.2538    4.2841   -0.3957 C   0  0  2  0  0  0  0  0  0  0  0  0
   -1.6455    4.4915   -2.2100 C   0  0  0  0  0  0  0  0  0  0  0  0
    1.7047    0.6939   -1.4326 C   0  0  1  0  0  0  0  0  0  0  0  0
   -0.4009   -0.4615   -1.5542 C   0  0  2  0  0  0  0  0  0  0  0  0
   -3.9705    5.4585   -0.9624 C   0  0  0  0  0  0  0  0  0  0  0  0
   -2.7939    4.6112    1.0021 C   0  0  0  0  0  0  0  0  0  0  0  0
   -0.4704    4.1909   -3.0852 C   0  0  0  0  0  0  0  0  0  0  0  0
   -2.2670    5.6276   -2.5479 N   0  0  0  0  0  0  0  0  0  0  0  0
    1.9704   -0.7609   -1.3875 N   0  0  1  0  0  0  0  0  0  0  0  0
    0.7594   -1.4101   -1.9334 C   0  0  2  0  0  0  0  0  0  0  0  0
   -5.1948    5.8409   -0.3728 C   0  0  0  0  0  0  0  0  0  0  0  0
   -3.4143    6.0891   -2.0302 C   0  0  0  0  0  0  0  0  0  0  0  0
   -1.7294    5.5202    1.2340 C   0  0  0  0  0  0  0  0  0  0  0  0
   -3.4118    4.0163    2.1255 C   0  0  0  0  0  0  0  0  0  0  0  0
    3.2703   -1.2221   -1.9488 C   0  0  2  0  0  0  0  0  0  0  0  0
   -5.7141    7.1009   -0.4862 O   0  0  0  0  0  0  0  0  0  0  0  0
   -5.8613    5.0130    0.2961 O   0  0  0  0  0  0  0  0  0  0  0  0
   -3.9682    7.2576   -2.7107 C   0  0  0  0  0  0  0  0  0  0  0  0
   -1.2580    5.8288    2.5374 C   0  0  0  0  0  0  0  0  0  0  0  0
   -2.9794    4.3135    3.4272 C   0  0  0  0  0  0  0  0  0  0  0  0
    4.3815   -0.8050   -1.0568 C   0  0  0  0  0  0  0  0  0  0  0  0
   -6.9735    7.5635    0.0164 C   0  0  0  0  0  0  0  0  0  0  0  0
   -0.2124    6.6601    2.7225 N   0  0  0  0  0  0  0  0  0  0  0  0
   -1.9222    5.2151    3.6302 C   0  0  0  0  0  0  0  0  0  0  0  0
    4.4069   -1.2585    0.2828 C   0  0  0  0  0  0  0  0  0  0  0  0
    5.4140    0.0530   -1.5050 C   0  0  0  0  0  0  0  0  0  0  0  0
    0.1760    6.9706    3.7806 O   0  0  0  0  0  0  0  0  0  0  0  0
    0.4485    7.1608    1.7576 O   0  0  0  0  0  0  0  0  0  0  0  0
    5.4492   -0.8846    1.1493 C   0  0  0  0  0  0  0  0  0  0  0  0
    6.4583    0.4278   -0.6380 C   0  0  0  0  0  0  0  0  0  0  0  0
    6.4782   -0.0452    0.6862 C   0  0  0  0  0  0  0  0  0  0  0  0
    0.2947    0.6406    0.1889 H   0  0  0  0  0  0  0  0  0  0  0  0
   -3.9982    3.4802   -0.3799 H   0  0  0  0  0  0  0  0  0  0  0  0
    1.7643    1.0830   -2.4567 H   0  0  0  0  0  0  0  0  0  0  0  0
    2.3892    1.2527   -0.7912 H   0  0  0  0  0  0  0  0  0  0  0  0
   -0.9490   -0.1678   -2.4534 H   0  0  0  0  0  0  0  0  0  0  0  0
   -1.0923   -0.9445   -0.8590 H   0  0  0  0  0  0  0  0  0  0  0  0
   -0.6619    3.1654   -3.5249 H   0  0  0  0  0  0  0  0  0  0  0  0
   -0.1322    5.0084   -3.8573 H   0  0  0  0  0  0  0  0  0  0  0  0
    0.3946    4.0990   -2.4271 H   0  0  0  0  0  0  0  0  0  0  0  0
   -1.8682    6.1502   -3.2615 H   0  0  0  0  0  0  0  0  0  0  0  0
    0.8228   -1.5201   -3.0226 H   0  0  0  0  0  0  0  0  0  0  0  0
    0.6302   -2.3988   -1.4846 H   0  0  0  0  0  0  0  0  0  0  0  0
   -1.2802    5.9586    0.4261 H   0  0  0  0  0  0  0  0  0  0  0  0
   -4.1871    3.3619    2.0053 H   0  0  0  0  0  0  0  0  0  0  0  0
    3.4009   -0.8475   -2.9693 H   0  0  0  0  0  0  0  0  0  0  0  0
    3.2819   -2.3158   -2.0009 H   0  0  0  0  0  0  0  0  0  0  0  0
   -3.4099    7.5203   -3.6146 H   0  0  0  0  0  0  0  0  0  0  0  0
   -5.0000    7.0657   -3.0136 H   0  0  0  0  0  0  0  0  0  0  0  0
   -3.9354    8.1225   -2.0447 H   0  0  0  0  0  0  0  0  0  0  0  0
   -3.4315    3.8694    4.2298 H   0  0  0  0  0  0  0  0  0  0  0  0
   -7.0177    7.4394    1.0998 H   0  0  0  0  0  0  0  0  0  0  0  0
   -7.7876    7.0046   -0.4485 H   0  0  0  0  0  0  0  0  0  0  0  0
   -7.0870    8.6206   -0.2262 H   0  0  0  0  0  0  0  0  0  0  0  0
   -1.6380    5.4180    4.5917 H   0  0  0  0  0  0  0  0  0  0  0  0
    3.6615   -1.8627    0.6385 H   0  0  0  0  0  0  0  0  0  0  0  0
    5.4115    0.4141   -2.4617 H   0  0  0  0  0  0  0  0  0  0  0  0
    5.4574   -1.2220    2.1143 H   0  0  0  0  0  0  0  0  0  0  0  0
    7.2031    1.0454   -0.9708 H   0  0  0  0  0  0  0  0  0  0  0  0
    7.2402    0.2214    1.3139 H   0  0  0  0  0  0  0  0  0  0  0  0
  1  2  1  0  0  0  0 
  1  3  2  0  0  0  0 
  1  4  1  0  0  0  0 
  6  4  1  0  0  0  0 
  4  7  2  0  0  0  0 
  5  2  1  0  0  0  0 
  5  8  1  0  0  0  0 
  5  9  1  0  0  0  0 
  6 10  1  0  0  0  0 
  6 11  1  0  0  0  0 
  7 12  1  0  0  0  0 
  7 13  1  0  0  0  0 
  8 14  1  0  0  0  0 
  9 15  1  0  0  0  0 
 10 16  1  0  0  0  0 
 10 17  2  0  0  0  0 
 11 18  2  0  0  0  0 
 11 19  1  0  0  0  0 
 13 17  1  0  0  0  0 
 14 15  1  0  0  0  0 
 14 20  1  0  0  0  0 
 16 21  1  0  0  0  0 
 16 22  2  0  0  0  0 
 17 23  1  0  0  0  0 
 18 24  1  0  0  0  0 
 19 25  2  0  0  0  0 
 20 26  1  0  0  0  0 
 21 27  1  0  0  0  0 
 24 28  1  0  0  0  0 
 24 29  2  0  0  0  0 
 25 29  1  0  0  0  0 
 26 30  2  0  0  0  0 
 26 31  1  0  0  0  0 
 28 32  2  0  0  0  0 
 28 33  1  0  0  0  0 
 30 34  1  0  0  0  0 
 31 35  2  0  0  0  0 
 34 36  2  0  0  0  0 
 35 36  1  0  0  0  0 
  5 37  1  0  0  0  0 
  6 38  1  0  0  0  0 
 39  8  1  0  0  0  0 
 40  8  1  0  0  0  0 
 41  9  1  0  0  0  0 
 42  9  1  0  0  0  0 
 43 12  1  0  0  0  0 
 44 12  1  0  0  0  0 
 45 12  1  0  0  0  0 
 46 13  1  0  0  0  0 
 47 15  1  0  0  0  0 
 48 15  1  0  0  0  0 
 49 18  1  0  0  0  0 
 50 19  1  0  0  0  0 
 51 20  1  0  0  0  0 
 52 20  1  0  0  0  0 
 53 23  1  0  0  0  0 
 54 23  1  0  0  0  0 
 55 23  1  0  0  0  0 
 56 25  1  0  0  0  0 
 57 27  1  0  0  0  0 
 58 27  1  0  0  0  0 
 59 27  1  0  0  0  0 
 60 29  1  0  0  0  0 
 61 30  1  0  0  0  0 
 62 31  1  0  0  0  0 
 63 34  1  0  0  0  0 
 64 35  1  0  0  0  0 
 65 36  1  0  0  0  0 
M  CHG  1  28   1
M  CHG  1  33  -1
M  END
> <cdk:Title>
barnidipine

> <Conformer>
1

> <SuperDrugID>
SD000243

$$$$
