riociguat
  CDK     0628171802

 50 53  0  0  0  0  0  0  0  0999 V2000
   -1.6076    4.4895   10.6161 C   0  0  1  0  0  0  0  0  0  0  0  0
   -2.3971    5.1221   11.6265 N   0  0  0  0  0  0  0  0  0  0  0  0
   -2.4467    6.4136   11.7829 N   0  0  0  0  0  0  0  0  0  0  0  0
   -3.3453    6.7369   12.7318 C   0  0  0  0  0  0  0  0  0  0  0  0
   -3.8717    5.5478   13.2189 C   0  0  0  0  0  0  0  0  0  0  0  0
   -3.2371    4.5395   12.5049 C   0  0  0  0  0  0  0  0  0  0  0  0
   -3.5308    3.2338   12.7347 N   0  0  0  0  0  0  0  0  0  0  0  0
   -4.4497    2.8807   13.6767 C   0  0  0  0  0  0  0  0  0  0  0  0
   -5.1172    3.8717   14.4315 C   0  0  0  0  0  0  0  0  0  0  0  0
   -4.8289    5.2338   14.2001 C   0  0  0  0  0  0  0  0  0  0  0  0
   -3.6896    8.0494   13.0587 C   0  0  0  0  0  0  0  0  0  0  0  0
   -4.9926    8.4188   13.1090 N   0  0  0  0  0  0  0  0  0  0  0  0
   -5.3636    9.7090   13.2997 C   0  0  0  0  0  0  0  0  0  0  0  0
   -6.6825    9.9724   13.2930 N   0  0  0  0  0  0  0  0  0  0  0  0
   -4.3790   10.7160   13.4630 C   0  0  0  0  0  0  0  0  0  0  0  0
   -3.0289   10.2837   13.4900 C   0  0  0  0  0  0  0  0  0  0  0  0
   -2.7264    8.9816   13.2610 N   0  0  0  0  0  0  0  0  0  0  0  0
   -2.0017   11.1212   13.7330 N   0  0  0  0  0  0  0  0  0  0  0  0
   -4.7065   12.0522   13.5348 N   0  0  0  0  0  0  0  0  0  0  0  0
   -5.2573   12.5879   14.6826 C   0  0  0  0  0  0  0  0  0  0  0  0
   -5.5109   11.7940   15.7691 O   0  0  0  0  0  0  0  0  0  0  0  0
   -6.0364   12.2255   17.0286 C   0  0  0  0  0  0  0  0  0  0  0  0
   -5.5295   13.8112   14.7666 O   0  0  0  0  0  0  0  0  0  0  0  0
   -4.4593   12.8387   12.3456 C   0  0  0  0  0  0  0  0  0  0  0  0
   -2.1724    4.8067    9.2725 C   0  0  0  0  0  0  0  0  0  0  0  0
   -3.3760    4.2046    8.8206 C   0  0  0  0  0  0  0  0  0  0  0  0
   -4.0097    3.3228    9.5484 F   0  0  0  0  0  0  0  0  0  0  0  0
   -3.9212    4.5471    7.5672 C   0  0  0  0  0  0  0  0  0  0  0  0
   -3.2779    5.4934    6.7510 C   0  0  0  0  0  0  0  0  0  0  0  0
   -2.0812    6.0902    7.1816 C   0  0  0  0  0  0  0  0  0  0  0  0
   -1.5329    5.7493    8.4312 C   0  0  0  0  0  0  0  0  0  0  0  0
   -0.5735    4.8354   10.7072 H   0  0  0  0  0  0  0  0  0  0  0  0
   -1.5874    3.4067   10.7573 H   0  0  0  0  0  0  0  0  0  0  0  0
   -4.6542    1.8923   13.8330 H   0  0  0  0  0  0  0  0  0  0  0  0
   -5.8065    3.6041   15.1361 H   0  0  0  0  0  0  0  0  0  0  0  0
   -5.3034    5.9665   14.7308 H   0  0  0  0  0  0  0  0  0  0  0  0
   -7.3175    9.2592   13.1156 H   0  0  0  0  0  0  0  0  0  0  0  0
   -7.0020   10.8712   13.4660 H   0  0  0  0  0  0  0  0  0  0  0  0
   -1.0899   10.7874   13.7342 H   0  0  0  0  0  0  0  0  0  0  0  0
   -2.1683   12.0578   13.9185 H   0  0  0  0  0  0  0  0  0  0  0  0
   -6.1220   11.3598   17.6831 H   0  0  0  0  0  0  0  0  0  0  0  0
   -7.0227   12.6747   16.8955 H   0  0  0  0  0  0  0  0  0  0  0  0
   -5.3669   12.9524   17.4906 H   0  0  0  0  0  0  0  0  0  0  0  0
   -4.7683   13.8799   12.4438 H   0  0  0  0  0  0  0  0  0  0  0  0
   -3.3970   12.8410   12.0959 H   0  0  0  0  0  0  0  0  0  0  0  0
   -5.0081   12.4178   11.5003 H   0  0  0  0  0  0  0  0  0  0  0  0
   -4.7889    4.1109    7.2458 H   0  0  0  0  0  0  0  0  0  0  0  0
   -3.6814    5.7491    5.8468 H   0  0  0  0  0  0  0  0  0  0  0  0
   -1.6118    6.7766    6.5876 H   0  0  0  0  0  0  0  0  0  0  0  0
   -0.6671    6.2055    8.7267 H   0  0  0  0  0  0  0  0  0  0  0  0
  1  2  1  0  0  0  0 
  1 25  1  0  0  0  0 
  2  3  1  0  0  0  0 
  2  6  1  0  0  0  0 
  3  4  2  0  0  0  0 
  4  5  1  0  0  0  0 
  4 11  1  0  0  0  0 
  5 10  2  0  0  0  0 
  6  5  1  0  0  0  0 
  6  7  2  0  0  0  0 
  7  8  1  0  0  0  0 
  8  9  2  0  0  0  0 
 10  9  1  0  0  0  0 
 11 12  2  0  0  0  0 
 11 17  1  0  0  0  0 
 12 13  1  0  0  0  0 
 13 14  1  0  0  0  0 
 13 15  2  0  0  0  0 
 15 19  1  0  0  0  0 
 16 15  1  0  0  0  0 
 16 18  1  0  0  0  0 
 17 16  2  0  0  0  0 
 19 20  1  0  0  0  0 
 19 24  1  0  0  0  0 
 20 21  1  0  0  0  0 
 20 23  2  0  0  0  0 
 21 22  1  0  0  0  0 
 25 26  2  0  0  0  0 
 25 31  1  0  0  0  0 
 26 27  1  0  0  0  0 
 26 28  1  0  0  0  0 
 28 29  2  0  0  0  0 
 30 29  1  0  0  0  0 
 31 30  2  0  0  0  0 
  1 32  1  0  0  0  0 
  1 33  1  0  0  0  0 
  8 34  1  0  0  0  0 
  9 35  1  0  0  0  0 
 10 36  1  0  0  0  0 
 14 37  1  0  0  0  0 
 14 38  1  0  0  0  0 
 18 39  1  0  0  0  0 
 18 40  1  0  0  0  0 
 22 41  1  0  0  0  0 
 22 42  1  0  0  0  0 
 22 43  1  0  0  0  0 
 24 44  1  0  0  0  0 
 24 45  1  0  0  0  0 
 24 46  1  0  0  0  0 
 28 47  1  0  0  0  0 
 29 48  1  0  0  0  0 
 30 49  1  0  0  0  0 
 31 50  1  0  0  0  0 
M  END
> <cdk:Title>
riociguat

> <Conformer>
1

> <SuperDrugID>
SD003769

$$$$
