sulfacytine
  CDK     0628171801

 34 35  0  0  0  0  0  0  0  0999 V2000
    0.5274   -0.3912   -0.0258 S   0  0  1  0  0  0  0  0  0  0  0  0
   -0.8063   -0.8177    0.9713 N   0  0  0  0  0  0  0  0  0  0  0  0
    0.0166   -0.2495   -1.5413 O   0  0  0  0  0  0  0  0  0  0  0  0
    1.1066    1.0316    0.4410 O   0  0  0  0  0  0  0  0  0  0  0  0
    1.8083   -1.6179    0.0978 C   0  0  0  0  0  0  0  0  0  0  0  0
   -1.8633   -0.0095    1.2518 C   0  0  0  0  0  0  0  0  0  0  0  0
    2.1823   -2.1342    1.3572 C   0  0  0  0  0  0  0  0  0  0  0  0
    2.4820   -2.0773   -1.0538 C   0  0  0  0  0  0  0  0  0  0  0  0
   -1.9740    1.2588    0.7750 N   0  0  0  0  0  0  0  0  0  0  0  0
   -2.8978   -0.5085    2.0625 C   0  0  0  0  0  0  0  0  0  0  0  0
    3.2173   -3.0844    1.4648 C   0  0  0  0  0  0  0  0  0  0  0  0
    3.5147   -3.0279   -0.9489 C   0  0  0  0  0  0  0  0  0  0  0  0
   -3.0523    2.0454    1.0300 C   0  0  0  0  0  0  0  0  0  0  0  0
   -4.0087    0.3130    2.3146 C   0  0  0  0  0  0  0  0  0  0  0  0
    3.8906   -3.5328    0.3109 C   0  0  0  0  0  0  0  0  0  0  0  0
   -3.0316    3.1997    0.5435 O   0  0  0  0  0  0  0  0  0  0  0  0
   -4.0989    1.5731    1.7855 N   0  0  0  0  0  0  0  0  0  0  0  0
    4.8862   -4.4388    0.4006 N   0  0  0  0  0  0  0  0  0  0  0  0
   -5.2853    2.3689    2.0324 C   0  0  2  0  0  0  0  0  0  0  0  0
   -5.1022    3.3324    3.2239 C   0  0  0  0  0  0  0  0  0  0  0  0
   -0.8142   -1.7143    1.3452 H   0  0  0  0  0  0  0  0  0  0  0  0
    1.7042   -1.8185    2.2031 H   0  0  0  0  0  0  0  0  0  0  0  0
    2.2284   -1.7228   -1.9766 H   0  0  0  0  0  0  0  0  0  0  0  0
   -2.8514   -1.4507    2.4590 H   0  0  0  0  0  0  0  0  0  0  0  0
    3.4779   -3.4452    2.3853 H   0  0  0  0  0  0  0  0  0  0  0  0
    3.9928   -3.3490   -1.7947 H   0  0  0  0  0  0  0  0  0  0  0  0
   -4.7570   -0.0614    2.9022 H   0  0  0  0  0  0  0  0  0  0  0  0
    5.3372   -4.7454   -0.4040 H   0  0  0  0  0  0  0  0  0  0  0  0
    5.1558   -4.7912    1.2647 H   0  0  0  0  0  0  0  0  0  0  0  0
   -6.1532    1.7370    2.2494 H   0  0  0  0  0  0  0  0  0  0  0  0
   -5.5531    2.9451    1.1414 H   0  0  0  0  0  0  0  0  0  0  0  0
   -6.0090    3.9218    3.3729 H   0  0  0  0  0  0  0  0  0  0  0  0
   -4.9036    2.7642    4.1330 H   0  0  0  0  0  0  0  0  0  0  0  0
   -4.2697    4.0108    3.0399 H   0  0  0  0  0  0  0  0  0  0  0  0
  1  2  1  0  0  0  0 
  1  3  2  0  0  0  0 
  1  4  2  0  0  0  0 
  1  5  1  0  0  0  0 
  2  6  1  0  0  0  0 
  5  7  2  0  0  0  0 
  5  8  1  0  0  0  0 
  6  9  2  0  0  0  0 
  6 10  1  0  0  0  0 
  7 11  1  0  0  0  0 
  8 12  2  0  0  0  0 
  9 13  1  0  0  0  0 
 10 14  2  0  0  0  0 
 11 15  2  0  0  0  0 
 12 15  1  0  0  0  0 
 13 16  2  0  0  0  0 
 13 17  1  0  0  0  0 
 14 17  1  0  0  0  0 
 15 18  1  0  0  0  0 
 17 19  1  0  0  0  0 
 19 20  1  0  0  0  0 
  2 21  1  0  0  0  0 
  7 22  1  0  0  0  0 
  8 23  1  0  0  0  0 
 10 24  1  0  0  0  0 
 11 25  1  0  0  0  0 
 12 26  1  0  0  0  0 
 14 27  1  0  0  0  0 
 18 28  1  0  0  0  0 
 18 29  1  0  0  0  0 
 19 30  1  0  0  0  0 
 19 31  1  0  0  0  0 
 20 32  1  0  0  0  0 
 20 33  1  0  0  0  0 
 20 34  1  0  0  0  0 
M  END
> <cdk:Title>
sulfacytine

> <Conformer>
1

> <SuperDrugID>
SD002246

$$$$
