phenmetrazine
  CDK     0628171801

 28 29  0  0  0  0  0  0  0  0999 V2000
   -2.6920   -1.6588    1.6167 C   0  0  0  0  0  0  0  0  0  0  0  0
   -2.1309   -1.7959    0.1779 C   0  0  2  0  0  0  0  0  0  0  0  0
   -2.4697   -3.1561   -0.3144 N   0  0  2  0  0  0  0  0  0  0  0  0
   -2.0128   -3.4029   -1.6974 C   0  0  1  0  0  0  0  0  0  0  0  0
   -0.4865   -3.1865   -1.7829 C   0  0  2  0  0  0  0  0  0  0  0  0
   -0.1284   -1.8799   -1.2879 O   0  0  0  0  0  0  0  0  0  0  0  0
   -0.5850   -1.5619    0.0535 C   0  0  1  0  0  0  0  0  0  0  0  0
   -0.2112   -0.1497    0.3803 C   0  0  0  0  0  0  0  0  0  0  0  0
   -0.1913    0.8594   -0.6168 C   0  0  0  0  0  0  0  0  0  0  0  0
    0.1211    2.1918   -0.2897 C   0  0  0  0  0  0  0  0  0  0  0  0
    0.3929    2.5444    1.0431 C   0  0  0  0  0  0  0  0  0  0  0  0
    0.3690    1.5605    2.0465 C   0  0  0  0  0  0  0  0  0  0  0  0
    0.0919    0.2210    1.7146 C   0  0  0  0  0  0  0  0  0  0  0  0
   -2.1866   -2.3431    2.3009 H   0  0  0  0  0  0  0  0  0  0  0  0
   -2.5693   -0.6391    1.9795 H   0  0  0  0  0  0  0  0  0  0  0  0
   -3.7605   -1.8804    1.6239 H   0  0  0  0  0  0  0  0  0  0  0  0
   -2.6533   -1.0656   -0.4491 H   0  0  0  0  0  0  0  0  0  0  0  0
   -3.4894   -3.2311   -0.3205 H   0  0  0  0  0  0  0  0  0  0  0  0
   -2.2626   -4.4270   -1.9811 H   0  0  0  0  0  0  0  0  0  0  0  0
   -2.5202   -2.7207   -2.3825 H   0  0  0  0  0  0  0  0  0  0  0  0
   -0.1715   -3.2554   -2.8276 H   0  0  0  0  0  0  0  0  0  0  0  0
    0.0405   -3.9629   -1.2205 H   0  0  0  0  0  0  0  0  0  0  0  0
   -0.0657   -2.2402    0.7422 H   0  0  0  0  0  0  0  0  0  0  0  0
   -0.4043    0.6307   -1.5913 H   0  0  0  0  0  0  0  0  0  0  0  0
    0.1460    2.9052   -1.0200 H   0  0  0  0  0  0  0  0  0  0  0  0
    0.6063    3.5160    1.2833 H   0  0  0  0  0  0  0  0  0  0  0  0
    0.5518    1.8182    3.0186 H   0  0  0  0  0  0  0  0  0  0  0  0
    0.0917   -0.4830    2.4580 H   0  0  0  0  0  0  0  0  0  0  0  0
  1  2  1  0  0  0  0 
  2  3  1  0  0  0  0 
  3  4  1  0  0  0  0 
  4  5  1  0  0  0  0 
  5  6  1  0  0  0  0 
  6  7  1  0  0  0  0 
  2  7  1  0  0  0  0 
  7  8  1  0  0  0  0 
  8  9  2  0  0  0  0 
  9 10  1  0  0  0  0 
 10 11  2  0  0  0  0 
 11 12  1  0  0  0  0 
 12 13  2  0  0  0  0 
  8 13  1  0  0  0  0 
  1 14  1  0  0  0  0 
  1 15  1  0  0  0  0 
  1 16  1  0  0  0  0 
  2 17  1  0  0  0  0 
  3 18  1  0  0  0  0 
  4 19  1  0  0  0  0 
  4 20  1  0  0  0  0 
  5 21  1  0  0  0  0 
  5 22  1  0  0  0  0 
  7 23  1  0  0  0  0 
  9 24  1  0  0  0  0 
 10 25  1  0  0  0  0 
 11 26  1  0  0  0  0 
 12 27  1  0  0  0  0 
 13 28  1  0  0  0  0 
M  END
> <cdk:Title>
phenmetrazine

> <Conformer>
1

> <SuperDrugID>
SD001913

$$$$
