nalmefene
  CDK     0628171801

 50 55  0  0  0  0  0  0  0  0999 V2000
   -2.1074    2.1892    1.4727 O   0  0  0  0  0  0  0  0  0  0  0  0
   -1.2120    2.5263    2.5368 C   0  0  1  0  0  0  0  0  0  0  0  0
   -1.8314    2.1083    3.9121 C   0  0  1  0  0  0  0  0  0  0  0  0
    0.1243    1.6945    2.3945 C   0  0  1  0  0  0  0  0  0  0  0  0
   -1.0507    4.0769    2.4573 C   0  0  1  0  0  0  0  0  0  0  0  0
   -0.8678    2.3912    4.9778 C   0  0  0  0  0  0  0  0  0  0  0  0
   -3.0036    2.9913    4.4690 C   0  0  1  0  0  0  0  0  0  0  0  0
   -2.1690    0.5758    3.8936 C   0  0  1  0  0  0  0  0  0  0  0  0
    1.1517    2.0169    3.5464 C   0  0  1  0  0  0  0  0  0  0  0  0
   -0.1566    0.2038    2.3610 N   0  0  1  0  0  0  0  0  0  0  0  0
   -2.3949    4.7979    2.7416 C   0  0  2  0  0  0  0  0  0  0  0  0
   -1.5123    2.8377    6.1198 C   0  0  0  0  0  0  0  0  0  0  0  0
    0.5346    2.3264    4.8680 C   0  0  0  0  0  0  0  0  0  0  0  0
   -2.8530    2.9377    5.9191 O   0  0  0  0  0  0  0  0  0  0  0  0
   -3.0547    4.3922    3.9901 C   0  0  0  0  0  0  0  0  0  0  0  0
   -0.9369   -0.3034    3.5391 C   0  0  1  0  0  0  0  0  0  0  0  0
   -0.5466   -0.4228    1.0511 C   0  0  2  0  0  0  0  0  0  0  0  0
   -0.7651    3.1583    7.2682 C   0  0  0  0  0  0  0  0  0  0  0  0
    1.2898    2.6488    6.0186 C   0  0  0  0  0  0  0  0  0  0  0  0
   -3.7922    5.2941    4.6682 C   0  0  0  0  0  0  0  0  0  0  0  0
    0.5511   -0.2999   -0.0339 C   0  0  1  0  0  0  0  0  0  0  0  0
   -1.3677    3.5784    8.4073 O   0  0  0  0  0  0  0  0  0  0  0  0
    0.6434    3.0513    7.2108 C   0  0  0  0  0  0  0  0  0  0  0  0
    0.1367   -0.5677   -1.4926 C   0  0  2  0  0  0  0  0  0  0  0  0
    0.4921    0.8563   -1.0457 C   0  0  1  0  0  0  0  0  0  0  0  0
   -3.9649    2.5388    4.2066 H   0  0  0  0  0  0  0  0  0  0  0  0
    0.6150    1.9871    1.4649 H   0  0  0  0  0  0  0  0  0  0  0  0
   -1.6127    2.3862    0.6495 H   0  0  0  0  0  0  0  0  0  0  0  0
   -0.3098    4.4359    3.1752 H   0  0  0  0  0  0  0  0  0  0  0  0
   -0.6967    4.3562    1.4612 H   0  0  0  0  0  0  0  0  0  0  0  0
   -2.5633    0.2539    4.8615 H   0  0  0  0  0  0  0  0  0  0  0  0
   -2.9494    0.3889    3.1519 H   0  0  0  0  0  0  0  0  0  0  0  0
    1.8561    1.1879    3.6584 H   0  0  0  0  0  0  0  0  0  0  0  0
    1.7342    2.8949    3.2555 H   0  0  0  0  0  0  0  0  0  0  0  0
   -3.0864    4.5947    1.9206 H   0  0  0  0  0  0  0  0  0  0  0  0
   -2.1876    5.8726    2.7292 H   0  0  0  0  0  0  0  0  0  0  0  0
   -0.2599   -0.3369    4.3945 H   0  0  0  0  0  0  0  0  0  0  0  0
   -1.2718   -1.3344    3.3961 H   0  0  0  0  0  0  0  0  0  0  0  0
   -1.4974   -0.0279    0.6940 H   0  0  0  0  0  0  0  0  0  0  0  0
   -0.6924   -1.4981    1.1824 H   0  0  0  0  0  0  0  0  0  0  0  0
    2.3120    2.6097    5.9893 H   0  0  0  0  0  0  0  0  0  0  0  0
   -3.8703    6.2351    4.3615 H   0  0  0  0  0  0  0  0  0  0  0  0
   -4.2860    5.0421    5.4921 H   0  0  0  0  0  0  0  0  0  0  0  0
    1.5499   -0.6667    0.2100 H   0  0  0  0  0  0  0  0  0  0  0  0
   -2.3176    3.6819    8.1893 H   0  0  0  0  0  0  0  0  0  0  0  0
    1.2057    3.2855    8.0327 H   0  0  0  0  0  0  0  0  0  0  0  0
   -0.9246   -0.7341   -1.6895 H   0  0  0  0  0  0  0  0  0  0  0  0
    0.8773   -1.0454   -2.1397 H   0  0  0  0  0  0  0  0  0  0  0  0
   -0.3459    1.5499   -0.9496 H   0  0  0  0  0  0  0  0  0  0  0  0
    1.4624    1.2378   -1.3695 H   0  0  0  0  0  0  0  0  0  0  0  0
  2  1  1  0  0  0  0 
  3  2  1  0  0  0  0 
  2  4  1  0  0  0  0 
  2  5  1  0  0  0  0 
  3  6  1  0  0  0  0 
  7  3  1  0  0  0  0 
  3  8  1  0  0  0  0 
  4  9  1  0  0  0  0 
  4 10  1  0  0  0  0 
  4 27  1  0  0  0  0 
  5 11  1  0  0  0  0 
  6 12  2  0  0  0  0 
  6 13  1  0  0  0  0 
  7 14  1  0  0  0  0 
  7 15  1  0  0  0  0 
  7 26  1  0  0  0  0 
  8 16  1  0  0  0  0 
  9 13  1  0  0  0  0 
 10 16  1  0  0  0  0 
 10 17  1  0  0  0  0 
 11 15  1  0  0  0  0 
 12 14  1  0  0  0  0 
 12 18  1  0  0  0  0 
 13 19  2  0  0  0  0 
 15 20  2  0  0  0  0 
 17 21  1  0  0  0  0 
 18 22  1  0  0  0  0 
 18 23  2  0  0  0  0 
 19 23  1  0  0  0  0 
 21 24  1  0  0  0  0 
 21 25  1  0  0  0  0 
 24 25  1  0  0  0  0 
  1 28  1  0  0  0  0 
  5 29  1  0  0  0  0 
  5 30  1  0  0  0  0 
  8 31  1  0  0  0  0 
  8 32  1  0  0  0  0 
  9 33  1  0  0  0  0 
  9 34  1  0  0  0  0 
 11 35  1  0  0  0  0 
 11 36  1  0  0  0  0 
 16 37  1  0  0  0  0 
 16 38  1  0  0  0  0 
 17 39  1  0  0  0  0 
 17 40  1  0  0  0  0 
 19 41  1  0  0  0  0 
 20 42  1  0  0  0  0 
 20 43  1  0  0  0  0 
 21 44  1  0  0  0  0 
 22 45  1  0  0  0  0 
 23 46  1  0  0  0  0 
 24 47  1  0  0  0  0 
 24 48  1  0  0  0  0 
 25 49  1  0  0  0  0 
 25 50  1  0  0  0  0 
M  END
> <cdk:Title>
nalmefene

> <Conformer>
1

> <SuperDrugID>
SD001672

$$$$
