methitural
  CDK     0628171801

 38 38  0  0  0  0  0  0  0  0999 V2000
   -0.5192    1.8686    0.4723 C   0  0  1  0  0  0  0  0  0  0  0  0
   -1.7194    1.7434    1.4844 C   0  0  1  0  0  0  0  0  0  0  0  0
   -0.4722    0.6201   -0.4700 C   0  0  0  0  0  0  0  0  0  0  0  0
   -0.4495    3.2783   -0.2722 C   0  0  1  0  0  0  0  0  0  0  0  0
   -1.6530    0.5103    2.4331 C   0  0  2  0  0  0  0  0  0  0  0  0
    0.7497    3.4367   -1.2937 C   0  0  2  0  0  0  0  0  0  0  0  0
   -1.7098    3.5154   -1.0720 C   0  0  0  0  0  0  0  0  0  0  0  0
   -0.3167    4.3884    0.7469 C   0  0  0  0  0  0  0  0  0  0  0  0
   -2.6797    0.5681    3.5863 C   0  0  0  0  0  0  0  0  0  0  0  0
    2.1957    3.1383   -0.8031 C   0  0  1  0  0  0  0  0  0  0  0  0
   -2.0841    2.7166   -1.9611 O   0  0  0  0  0  0  0  0  0  0  0  0
   -2.4893    4.6178   -0.9130 N   0  0  0  0  0  0  0  0  0  0  0  0
    0.5900    4.3785    1.6115 O   0  0  0  0  0  0  0  0  0  0  0  0
   -1.1717    5.4463    0.7980 N   0  0  0  0  0  0  0  0  0  0  0  0
    3.3968    3.3234   -2.1663 S   0  0  0  0  0  0  0  0  0  0  0  0
   -2.2003    5.5616   -0.0300 C   0  0  0  0  0  0  0  0  0  0  0  0
    5.0133    3.0891   -1.3645 C   0  0  0  0  0  0  0  0  0  0  0  0
   -3.1679    6.9579    0.0346 S   0  0  0  0  0  0  0  0  0  0  0  0
    0.3888    1.7997    1.0784 H   0  0  0  0  0  0  0  0  0  0  0  0
   -1.7472    2.6334    2.1167 H   0  0  0  0  0  0  0  0  0  0  0  0
   -2.6658    1.7103    0.9364 H   0  0  0  0  0  0  0  0  0  0  0  0
    0.3007    0.7134   -1.2297 H   0  0  0  0  0  0  0  0  0  0  0  0
   -0.2323   -0.2779    0.1011 H   0  0  0  0  0  0  0  0  0  0  0  0
   -1.4284    0.4559   -0.9698 H   0  0  0  0  0  0  0  0  0  0  0  0
   -0.6535    0.4394    2.8691 H   0  0  0  0  0  0  0  0  0  0  0  0
   -1.8435   -0.4022    1.8636 H   0  0  0  0  0  0  0  0  0  0  0  0
    0.7476    4.4634   -1.6754 H   0  0  0  0  0  0  0  0  0  0  0  0
    0.5705    2.7998   -2.1628 H   0  0  0  0  0  0  0  0  0  0  0  0
   -2.5978   -0.3329    4.1984 H   0  0  0  0  0  0  0  0  0  0  0  0
   -2.4901    1.4363    4.2210 H   0  0  0  0  0  0  0  0  0  0  0  0
   -3.6962    0.6298    3.1914 H   0  0  0  0  0  0  0  0  0  0  0  0
    2.4780    3.8326   -0.0117 H   0  0  0  0  0  0  0  0  0  0  0  0
    2.2710    2.1180   -0.4252 H   0  0  0  0  0  0  0  0  0  0  0  0
   -3.2766    4.7211   -1.4725 H   0  0  0  0  0  0  0  0  0  0  0  0
   -1.0279    6.1368    1.4638 H   0  0  0  0  0  0  0  0  0  0  0  0
    5.8050    3.1782   -2.1088 H   0  0  0  0  0  0  0  0  0  0  0  0
    5.0615    2.1002   -0.9098 H   0  0  0  0  0  0  0  0  0  0  0  0
    5.1622    3.8491   -0.5975 H   0  0  0  0  0  0  0  0  0  0  0  0
  1  2  1  0  0  0  0 
  1  3  1  0  0  0  0 
  1  4  1  0  0  0  0 
  2  5  1  0  0  0  0 
  4  6  1  0  0  0  0 
  4  7  1  0  0  0  0 
  4  8  1  0  0  0  0 
  5  9  1  0  0  0  0 
  6 10  1  0  0  0  0 
  7 11  2  0  0  0  0 
  7 12  1  0  0  0  0 
  8 13  2  0  0  0  0 
  8 14  1  0  0  0  0 
 10 15  1  0  0  0  0 
 12 16  1  0  0  0  0 
 14 16  1  0  0  0  0 
 15 17  1  0  0  0  0 
 16 18  2  0  0  0  0 
 19  1  1  0  0  0  0 
 20  2  1  0  0  0  0 
 21  2  1  0  0  0  0 
 22  3  1  0  0  0  0 
 23  3  1  0  0  0  0 
 24  3  1  0  0  0  0 
 25  5  1  0  0  0  0 
 26  5  1  0  0  0  0 
 27  6  1  0  0  0  0 
 28  6  1  0  0  0  0 
 29  9  1  0  0  0  0 
 30  9  1  0  0  0  0 
 31  9  1  0  0  0  0 
 32 10  1  0  0  0  0 
 33 10  1  0  0  0  0 
 34 12  1  0  0  0  0 
 35 14  1  0  0  0  0 
 36 17  1  0  0  0  0 
 37 17  1  0  0  0  0 
 38 17  1  0  0  0  0 
M  END
> <cdk:Title>
methitural

> <Conformer>
1

> <SuperDrugID>
SD002890

$$$$
