olsalazine
  CDK     0628171801

 32 33  0  0  0  0  0  0  0  0999 V2000
    1.4341    0.0554   -0.1377 O   0  0  0  0  0  0  0  0  0  0  0  0
    0.3643   -0.7793   -0.0941 C   0  0  0  0  0  0  0  0  0  0  0  0
   -0.7345   -0.2280    0.1439 O   0  0  0  0  0  0  0  0  0  0  0  0
    0.4955   -2.1829   -0.3172 C   0  0  0  0  0  0  0  0  0  0  0  0
    1.7783   -2.7348   -0.5695 C   0  0  0  0  0  0  0  0  0  0  0  0
    1.9621   -4.1136   -0.8348 C   0  0  0  0  0  0  0  0  0  0  0  0
    0.8344   -4.9574   -0.8502 C   0  0  0  0  0  0  0  0  0  0  0  0
   -0.4450   -4.4361   -0.5956 C   0  0  0  0  0  0  0  0  0  0  0  0
   -0.6181   -3.0676   -0.3121 C   0  0  0  0  0  0  0  0  0  0  0  0
   -1.8863   -2.6616   -0.0443 O   0  0  0  0  0  0  0  0  0  0  0  0
    3.1427   -4.6652   -1.0791 N   0  0  0  0  0  0  0  0  0  0  0  0
    4.2287   -4.0932   -1.0896 N   0  0  0  0  0  0  0  0  0  0  0  0
    5.4134   -4.6355   -1.3340 C   0  0  0  0  0  0  0  0  0  0  0  0
    6.5452   -3.7948   -1.2772 C   0  0  0  0  0  0  0  0  0  0  0  0
    7.8552   -4.2795   -1.5349 C   0  0  0  0  0  0  0  0  0  0  0  0
    8.9696   -3.3918   -1.4633 C   0  0  0  0  0  0  0  0  0  0  0  0
   10.2443   -3.7954   -1.6744 O   0  0  0  0  0  0  0  0  0  0  0  0
    8.8340   -2.1751   -1.1968 O   0  0  0  0  0  0  0  0  0  0  0  0
    7.9994   -5.6565   -1.8559 C   0  0  0  0  0  0  0  0  0  0  0  0
    9.1980   -6.2235   -2.1454 O   0  0  0  0  0  0  0  0  0  0  0  0
    6.8785   -6.5062   -1.8961 C   0  0  0  0  0  0  0  0  0  0  0  0
    5.5948   -6.0016   -1.6441 C   0  0  0  0  0  0  0  0  0  0  0  0
    1.3232    1.0177    0.0106 H   0  0  0  0  0  0  0  0  0  0  0  0
    2.6026   -2.1291   -0.5649 H   0  0  0  0  0  0  0  0  0  0  0  0
    0.9358   -5.9590   -1.0409 H   0  0  0  0  0  0  0  0  0  0  0  0
   -1.2526   -5.0632   -0.6169 H   0  0  0  0  0  0  0  0  0  0  0  0
   -1.8248   -2.1199    0.7703 H   0  0  0  0  0  0  0  0  0  0  0  0
    6.4051   -2.8076   -1.0415 H   0  0  0  0  0  0  0  0  0  0  0  0
   10.9792   -3.1479   -1.6251 H   0  0  0  0  0  0  0  0  0  0  0  0
    9.5109   -5.7502   -2.9432 H   0  0  0  0  0  0  0  0  0  0  0  0
    6.9930   -7.4994   -2.1142 H   0  0  0  0  0  0  0  0  0  0  0  0
    4.7935   -6.6358   -1.6893 H   0  0  0  0  0  0  0  0  0  0  0  0
  1  2  1  0  0  0  0 
  2  3  2  0  0  0  0 
  2  4  1  0  0  0  0 
  4  5  2  0  0  0  0 
  5  6  1  0  0  0  0 
  6  7  2  0  0  0  0 
  7  8  1  0  0  0  0 
  8  9  2  0  0  0  0 
  4  9  1  0  0  0  0 
  9 10  1  0  0  0  0 
 11  6  1  0  0  0  0 
 11 12  2  0  0  0  0 
 12 13  1  0  0  0  0 
 13 14  2  0  0  0  0 
 14 15  1  0  0  0  0 
 15 16  1  0  0  0  0 
 16 17  1  0  0  0  0 
 16 18  2  0  0  0  0 
 15 19  2  0  0  0  0 
 19 20  1  0  0  0  0 
 19 21  1  0  0  0  0 
 21 22  2  0  0  0  0 
 13 22  1  0  0  0  0 
 23  1  1  0  0  0  0 
 24  5  1  0  0  0  0 
 25  7  1  0  0  0  0 
 26  8  1  0  0  0  0 
 27 10  1  0  0  0  0 
 28 14  1  0  0  0  0 
 29 17  1  0  0  0  0 
 30 20  1  0  0  0  0 
 31 21  1  0  0  0  0 
 32 22  1  0  0  0  0 
M  END
> <cdk:Title>
olsalazine

> <Conformer>
1

> <SuperDrugID>
SD001778

$$$$
