cefaloglycin
  CDK     0628171802

 47 49  0  0  0  0  0  0  0  0999 V2000
   -0.4255   -2.4130    2.1381 C   0  0  0  0  0  0  0  0  0  0  0  0
    0.5521   -1.8001    1.4253 O   0  0  0  0  0  0  0  0  0  0  0  0
   -1.1286   -1.6850    2.8776 O   0  0  0  0  0  0  0  0  0  0  0  0
   -0.6737   -3.7863    2.0503 C   0  0  0  0  0  0  0  0  0  0  0  0
   -1.9700   -4.1551    1.9317 N   0  0  0  0  0  0  0  0  0  0  0  0
    0.3096   -4.7349    2.0288 C   0  0  0  0  0  0  0  0  0  0  0  0
   -2.6245   -5.3924    2.1685 C   0  0  1  0  0  0  0  0  0  0  0  0
   -3.0605   -3.5845    1.3930 C   0  0  0  0  0  0  0  0  0  0  0  0
    1.7373   -4.3908    2.0395 C   0  0  2  0  0  0  0  0  0  0  0  0
    0.0311   -6.1859    1.9428 C   0  0  2  0  0  0  0  0  0  0  0  0
   -3.8811   -4.7903    1.4653 C   0  0  1  0  0  0  0  0  0  0  0  0
   -1.6235   -6.6584    1.3306 S   0  0  0  0  0  0  0  0  0  0  0  0
   -3.2896   -2.4528    0.9093 O   0  0  0  0  0  0  0  0  0  0  0  0
    2.0774   -4.1245    0.6735 O   0  0  0  0  0  0  0  0  0  0  0  0
   -4.1660   -5.3151    0.1634 N   0  0  0  0  0  0  0  0  0  0  0  0
    3.2899   -3.7930    0.1527 C   0  0  0  0  0  0  0  0  0  0  0  0
   -5.3744   -5.4436   -0.4493 C   0  0  0  0  0  0  0  0  0  0  0  0
    3.3678   -3.5950   -1.2993 C   0  0  0  0  0  0  0  0  0  0  0  0
    4.3075   -3.6583    0.8719 O   0  0  0  0  0  0  0  0  0  0  0  0
   -6.6863   -5.0001    0.0993 C   0  0  2  0  0  0  0  0  0  0  0  0
   -5.3246   -5.9830   -1.5788 O   0  0  0  0  0  0  0  0  0  0  0  0
   -7.8183   -5.4772   -0.7139 N   0  0  1  0  0  0  0  0  0  0  0  0
   -6.7711   -3.5154    0.2276 C   0  0  0  0  0  0  0  0  0  0  0  0
   -6.5897   -2.6791   -0.9023 C   0  0  0  0  0  0  0  0  0  0  0  0
   -7.0365   -2.9077    1.4786 C   0  0  0  0  0  0  0  0  0  0  0  0
   -6.6319   -1.2789   -0.7766 C   0  0  0  0  0  0  0  0  0  0  0  0
   -7.0776   -1.5076    1.6051 C   0  0  0  0  0  0  0  0  0  0  0  0
   -6.8677   -0.6929    0.4793 C   0  0  0  0  0  0  0  0  0  0  0  0
   -2.7596   -5.5931    3.2381 H   0  0  0  0  0  0  0  0  0  0  0  0
    0.7068   -0.8352    1.5209 H   0  0  0  0  0  0  0  0  0  0  0  0
    2.3566   -5.2129    2.4137 H   0  0  0  0  0  0  0  0  0  0  0  0
    1.9518   -3.5257    2.6733 H   0  0  0  0  0  0  0  0  0  0  0  0
    0.1522   -6.6215    2.9371 H   0  0  0  0  0  0  0  0  0  0  0  0
    0.7418   -6.6744    1.2722 H   0  0  0  0  0  0  0  0  0  0  0  0
   -4.7299   -4.6723    2.1393 H   0  0  0  0  0  0  0  0  0  0  0  0
   -3.4003   -5.6182   -0.3498 H   0  0  0  0  0  0  0  0  0  0  0  0
    4.3841   -3.3498   -1.6114 H   0  0  0  0  0  0  0  0  0  0  0  0
    3.0550   -4.5081   -1.8072 H   0  0  0  0  0  0  0  0  0  0  0  0
    2.7023   -2.7817   -1.5914 H   0  0  0  0  0  0  0  0  0  0  0  0
   -6.8120   -5.4846    1.0690 H   0  0  0  0  0  0  0  0  0  0  0  0
   -8.6693   -5.2791   -0.1851 H   0  0  0  0  0  0  0  0  0  0  0  0
   -7.8543   -4.9068   -1.5627 H   0  0  0  0  0  0  0  0  0  0  0  0
   -6.4235   -3.0839   -1.8283 H   0  0  0  0  0  0  0  0  0  0  0  0
   -7.2038   -3.4796    2.3097 H   0  0  0  0  0  0  0  0  0  0  0  0
   -6.4934   -0.6877   -1.5999 H   0  0  0  0  0  0  0  0  0  0  0  0
   -7.2632   -1.0829    2.5159 H   0  0  0  0  0  0  0  0  0  0  0  0
   -6.8922    0.3245    0.5712 H   0  0  0  0  0  0  0  0  0  0  0  0
  1  2  1  0  0  0  0 
  1  3  2  0  0  0  0 
  1  4  1  0  0  0  0 
  4  5  1  0  0  0  0 
  4  6  2  0  0  0  0 
  7  5  1  0  0  0  0 
  5  8  1  0  0  0  0 
  6  9  1  0  0  0  0 
  6 10  1  0  0  0  0 
 11  7  1  0  0  0  0 
  7 12  1  0  0  0  0 
  7 29  1  0  0  0  0 
 11  8  1  0  0  0  0 
  8 13  2  0  0  0  0 
  9 14  1  0  0  0  0 
 10 12  1  0  0  0  0 
 11 15  1  0  0  0  0 
 14 16  1  0  0  0  0 
 15 17  1  0  0  0  0 
 16 18  1  0  0  0  0 
 16 19  2  0  0  0  0 
 20 17  1  0  0  0  0 
 17 21  2  0  0  0  0 
 20 22  1  0  0  0  0 
 20 23  1  0  0  0  0 
 23 24  2  0  0  0  0 
 23 25  1  0  0  0  0 
 24 26  1  0  0  0  0 
 25 27  2  0  0  0  0 
 26 28  2  0  0  0  0 
 27 28  1  0  0  0  0 
  2 30  1  0  0  0  0 
  9 31  1  0  0  0  0 
  9 32  1  0  0  0  0 
 10 33  1  0  0  0  0 
 10 34  1  0  0  0  0 
 11 35  1  0  0  0  0 
 15 36  1  0  0  0  0 
 18 37  1  0  0  0  0 
 18 38  1  0  0  0  0 
 18 39  1  0  0  0  0 
 20 40  1  0  0  0  0 
 22 41  1  0  0  0  0 
 22 42  1  0  0  0  0 
 24 43  1  0  0  0  0 
 25 44  1  0  0  0  0 
 26 45  1  0  0  0  0 
 27 46  1  0  0  0  0 
 28 47  1  0  0  0  0 
M  END
> <cdk:Title>
cefaloglycin

> <Conformer>
1

> <SuperDrugID>
SD000499

$$$$
