carteolol
  CDK     0628171802

 45 46  0  0  0  0  0  0  0  0999 V2000
    1.1778    0.5284   -0.7062 O   0  0  0  0  0  0  0  0  0  0  0  0
    0.9742   -0.8552   -1.0622 C   0  0  1  0  0  0  0  0  0  0  0  0
    0.1825    1.0510    0.0802 C   0  0  0  0  0  0  0  0  0  0  0  0
    2.0824   -1.3228   -2.0401 C   0  0  1  0  0  0  0  0  0  0  0  0
    0.3006    1.0932    1.4934 C   0  0  0  0  0  0  0  0  0  0  0  0
   -0.9591    1.5980   -0.5438 C   0  0  0  0  0  0  0  0  0  0  0  0
    2.0706   -0.5313   -3.3749 C   0  0  2  0  0  0  0  0  0  0  0  0
    3.3513   -1.2080   -1.3955 O   0  0  0  0  0  0  0  0  0  0  0  0
   -0.7606    1.6387    2.2633 C   0  0  0  0  0  0  0  0  0  0  0  0
    1.4979    0.5393    2.1884 C   0  0  2  0  0  0  0  0  0  0  0  0
   -1.9859    2.1731    0.2227 C   0  0  0  0  0  0  0  0  0  0  0  0
    3.1413   -1.0036   -4.2862 N   0  0  1  0  0  0  0  0  0  0  0  0
   -1.8909    2.1888    1.6237 C   0  0  0  0  0  0  0  0  0  0  0  0
   -0.7220    1.6298    3.6248 N   0  0  0  0  0  0  0  0  0  0  0  0
    1.6699    1.0027    3.6656 C   0  0  2  0  0  0  0  0  0  0  0  0
    3.3077   -0.3539   -5.6228 C   0  0  2  0  0  0  0  0  0  0  0  0
    0.3886    1.3121    4.3369 C   0  0  0  0  0  0  0  0  0  0  0  0
    3.6831    1.1560   -5.4863 C   0  0  0  0  0  0  0  0  0  0  0  0
    2.0412   -0.5447   -6.5150 C   0  0  0  0  0  0  0  0  0  0  0  0
    4.5013   -1.1058   -6.2816 C   0  0  0  0  0  0  0  0  0  0  0  0
    0.3212    1.3245    5.5873 O   0  0  0  0  0  0  0  0  0  0  0  0
    1.0090   -1.4834   -0.1673 H   0  0  0  0  0  0  0  0  0  0  0  0
    0.0020   -1.0004   -1.5430 H   0  0  0  0  0  0  0  0  0  0  0  0
    1.9183   -2.3815   -2.2601 H   0  0  0  0  0  0  0  0  0  0  0  0
   -1.0461    1.5752   -1.5631 H   0  0  0  0  0  0  0  0  0  0  0  0
    2.2129    0.5273   -3.1560 H   0  0  0  0  0  0  0  0  0  0  0  0
    1.0957   -0.6623   -3.8481 H   0  0  0  0  0  0  0  0  0  0  0  0
    3.9900   -1.6236   -2.0086 H   0  0  0  0  0  0  0  0  0  0  0  0
    2.4030    0.8183    1.6413 H   0  0  0  0  0  0  0  0  0  0  0  0
    1.4221   -0.5506    2.1669 H   0  0  0  0  0  0  0  0  0  0  0  0
   -2.8066    2.5741   -0.2379 H   0  0  0  0  0  0  0  0  0  0  0  0
    4.0276   -0.8836   -3.7884 H   0  0  0  0  0  0  0  0  0  0  0  0
   -2.6474    2.6053    2.1753 H   0  0  0  0  0  0  0  0  0  0  0  0
   -1.5279    1.8707    4.1115 H   0  0  0  0  0  0  0  0  0  0  0  0
    2.2791    1.9082    3.6961 H   0  0  0  0  0  0  0  0  0  0  0  0
    2.2032    0.2300    4.2229 H   0  0  0  0  0  0  0  0  0  0  0  0
    3.9793    1.5753   -6.4507 H   0  0  0  0  0  0  0  0  0  0  0  0
    2.8403    1.7406   -5.1150 H   0  0  0  0  0  0  0  0  0  0  0  0
    4.5153    1.2800   -4.7900 H   0  0  0  0  0  0  0  0  0  0  0  0
    1.7453   -1.5961   -6.5345 H   0  0  0  0  0  0  0  0  0  0  0  0
    2.2320   -0.2237   -7.5417 H   0  0  0  0  0  0  0  0  0  0  0  0
    1.2003    0.0384   -6.1361 H   0  0  0  0  0  0  0  0  0  0  0  0
    4.2804   -2.1706   -6.3773 H   0  0  0  0  0  0  0  0  0  0  0  0
    5.4041   -1.0005   -5.6766 H   0  0  0  0  0  0  0  0  0  0  0  0
    4.7131   -0.7117   -7.2779 H   0  0  0  0  0  0  0  0  0  0  0  0
  1  2  1  0  0  0  0 
  1  3  1  0  0  0  0 
  4  2  1  0  0  0  0 
  3  5  2  0  0  0  0 
  3  6  1  0  0  0  0 
  4  7  1  0  0  0  0 
  4  8  1  0  0  0  0 
  5  9  1  0  0  0  0 
  5 10  1  0  0  0  0 
  6 11  2  0  0  0  0 
  7 12  1  0  0  0  0 
  9 13  2  0  0  0  0 
  9 14  1  0  0  0  0 
 10 15  1  0  0  0  0 
 11 13  1  0  0  0  0 
 12 16  1  0  0  0  0 
 14 17  1  0  0  0  0 
 15 17  1  0  0  0  0 
 16 18  1  0  0  0  0 
 16 19  1  0  0  0  0 
 16 20  1  0  0  0  0 
 17 21  2  0  0  0  0 
  2 22  1  0  0  0  0 
  2 23  1  0  0  0  0 
  4 24  1  0  0  0  0 
  6 25  1  0  0  0  0 
  7 26  1  0  0  0  0 
  7 27  1  0  0  0  0 
  8 28  1  0  0  0  0 
 10 29  1  0  0  0  0 
 10 30  1  0  0  0  0 
 11 31  1  0  0  0  0 
 12 32  1  0  0  0  0 
 13 33  1  0  0  0  0 
 14 34  1  0  0  0  0 
 15 35  1  0  0  0  0 
 15 36  1  0  0  0  0 
 18 37  1  0  0  0  0 
 18 38  1  0  0  0  0 
 18 39  1  0  0  0  0 
 19 40  1  0  0  0  0 
 19 41  1  0  0  0  0 
 19 42  1  0  0  0  0 
 20 43  1  0  0  0  0 
 20 44  1  0  0  0  0 
 20 45  1  0  0  0  0 
M  END
> <cdk:Title>
carteolol

> <Conformer>
1

> <SuperDrugID>
SD000450

$$$$
