sodium gualenate
  CDK     0628171801

 37 38  0  0  0  0  0  0  0  0999 V2000
    6.8292    2.8757    0.6329 S   0  0  1  0  0  0  0  0  0  0  0  0
    7.7087    2.4960   -0.6512 O   0  0  0  0  0  0  0  0  0  0  0  0
    7.3304    2.0877    1.9352 O   0  0  0  0  0  0  0  0  0  0  0  0
    7.1796    4.5256    0.9391 O   0  0  0  0  0  0  0  0  0  0  0  0
    5.0818    2.6647    0.3750 C   0  0  0  0  0  0  0  0  0  0  0  0
    4.2466    1.5577    0.0500 C   0  0  0  0  0  0  0  0  0  0  0  0
    4.2884    3.7907    0.5243 C   0  0  0  0  0  0  0  0  0  0  0  0
    2.9250    2.0716    0.0270 C   0  0  0  0  0  0  0  0  0  0  0  0
    4.6353    0.2076   -0.1999 C   0  0  0  0  0  0  0  0  0  0  0  0
    2.9694    3.4449    0.3230 C   0  0  0  0  0  0  0  0  0  0  0  0
    1.6882    1.4438   -0.2311 C   0  0  0  0  0  0  0  0  0  0  0  0
    6.0725   -0.1997   -0.1050 C   0  0  0  0  0  0  0  0  0  0  0  0
    3.7559   -0.8439   -0.5573 C   0  0  0  0  0  0  0  0  0  0  0  0
    1.8536    4.4171    0.4214 C   0  0  0  0  0  0  0  0  0  0  0  0
    1.3932    0.1144   -0.5872 C   0  0  0  0  0  0  0  0  0  0  0  0
    2.3666   -0.8903   -0.7322 C   0  0  0  0  0  0  0  0  0  0  0  0
   -0.0549   -0.2589   -0.8424 C   0  0  1  0  0  0  0  0  0  0  0  0
   -0.9454   -0.1193    0.4259 C   0  0  0  0  0  0  0  0  0  0  0  0
   -0.6546    0.5037   -2.0588 C   0  0  0  0  0  0  0  0  0  0  0  0
    8.1331    4.5290    1.1655 H   0  0  0  0  0  0  0  0  0  0  0  0
    4.6121    4.7348    0.7528 H   0  0  0  0  0  0  0  0  0  0  0  0
    0.8677    2.0464   -0.1583 H   0  0  0  0  0  0  0  0  0  0  0  0
    6.6521    0.3265   -0.8563 H   0  0  0  0  0  0  0  0  0  0  0  0
    6.2641   -1.2601   -0.2774 H   0  0  0  0  0  0  0  0  0  0  0  0
    6.4509    0.0067    0.8917 H   0  0  0  0  0  0  0  0  0  0  0  0
    4.1835   -1.7583   -0.7339 H   0  0  0  0  0  0  0  0  0  0  0  0
    2.2215    5.4196    0.6501 H   0  0  0  0  0  0  0  0  0  0  0  0
    1.3093    4.4628   -0.5243 H   0  0  0  0  0  0  0  0  0  0  0  0
    1.1657    4.1178    1.2153 H   0  0  0  0  0  0  0  0  0  0  0  0
    2.0221   -1.8163   -1.0084 H   0  0  0  0  0  0  0  0  0  0  0  0
   -0.1320   -1.3168   -1.1157 H   0  0  0  0  0  0  0  0  0  0  0  0
   -1.9401   -0.5317    0.2396 H   0  0  0  0  0  0  0  0  0  0  0  0
   -1.0627    0.9240    0.7221 H   0  0  0  0  0  0  0  0  0  0  0  0
   -0.5040   -0.6702    1.2590 H   0  0  0  0  0  0  0  0  0  0  0  0
   -1.6489    0.1196   -2.2982 H   0  0  0  0  0  0  0  0  0  0  0  0
   -0.7446    1.5724   -1.8580 H   0  0  0  0  0  0  0  0  0  0  0  0
   -0.0202    0.3675   -2.9373 H   0  0  0  0  0  0  0  0  0  0  0  0
  1  2  2  0  0  0  0 
  1  3  2  0  0  0  0 
  1  4  1  0  0  0  0 
  1  5  1  0  0  0  0 
  5  6  1  0  0  0  0 
  5  7  2  0  0  0  0 
  6  8  1  0  0  0  0 
  6  9  2  0  0  0  0 
  7 10  1  0  0  0  0 
  8 10  2  0  0  0  0 
  8 11  1  0  0  0  0 
  9 12  1  0  0  0  0 
  9 13  1  0  0  0  0 
 10 14  1  0  0  0  0 
 11 15  2  0  0  0  0 
 13 16  2  0  0  0  0 
 15 16  1  0  0  0  0 
 15 17  1  0  0  0  0 
 17 18  1  0  0  0  0 
 17 19  1  0  0  0  0 
  4 20  1  0  0  0  0 
  7 21  1  0  0  0  0 
 11 22  1  0  0  0  0 
 12 23  1  0  0  0  0 
 12 24  1  0  0  0  0 
 12 25  1  0  0  0  0 
 13 26  1  0  0  0  0 
 14 27  1  0  0  0  0 
 14 28  1  0  0  0  0 
 14 29  1  0  0  0  0 
 16 30  1  0  0  0  0 
 17 31  1  0  0  0  0 
 18 32  1  0  0  0  0 
 18 33  1  0  0  0  0 
 18 34  1  0  0  0  0 
 19 35  1  0  0  0  0 
 19 36  1  0  0  0  0 
 19 37  1  0  0  0  0 
M  END
> <cdk:Title>
sodium gualenate

> <Conformer>
1

> <SuperDrugID>
SD003288

$$$$
