prednisolone sulfobenzoate
  CDK     0628171801

 70 74  0  0  0  0  0  0  0  0999 V2000
    0.2371    3.1377    4.2755 C   0  0  0  0  0  0  0  0  0  0  0  0
   -0.7906    2.1012    3.6744 C   0  0  2  0  0  0  0  0  0  0  0  0
   -2.0789    1.8839    4.5363 C   0  0  2  0  0  0  0  0  0  0  0  0
   -0.1662    0.6468    3.7469 C   0  0  2  0  0  0  0  0  0  0  0  0
   -1.2927    2.6036    2.2712 C   0  0  2  0  0  0  0  0  0  0  0  0
   -2.9499    3.1689    4.7339 C   0  0  1  0  0  0  0  0  0  0  0  0
   -1.5879    1.1175    5.7780 C   0  0  1  0  0  0  0  0  0  0  0  0
    1.2739    0.5059    3.3412 C   0  0  0  0  0  0  0  0  0  0  0  0
   -0.8979   -0.2602    2.9100 O   0  0  0  0  0  0  0  0  0  0  0  0
   -0.4584    0.2125    5.2333 C   0  0  2  0  0  0  0  0  0  0  0  0
   -2.2543    3.8379    2.3191 C   0  0  1  0  0  0  0  0  0  0  0  0
   -3.4558    3.6827    3.3286 C   0  0  2  0  0  0  0  0  0  0  0  0
   -4.1503    2.8906    5.6896 C   0  0  1  0  0  0  0  0  0  0  0  0
    1.8056    0.5657    1.9612 C   0  0  2  0  0  0  0  0  0  0  0  0
    2.1556    0.3032    4.2122 O   0  0  0  0  0  0  0  0  0  0  0  0
   -1.4967    5.0151    2.5755 O   0  0  0  0  0  0  0  0  0  0  0  0
   -4.4779    4.9041    3.4439 C   0  0  2  0  0  0  0  0  0  0  0  0
   -5.1237    4.0876    5.7778 C   0  0  2  0  0  0  0  0  0  0  0  0
    0.8637    0.8163    0.9056 O   0  0  0  0  0  0  0  0  0  0  0  0
   -3.8363    6.2520    3.9363 C   0  0  0  0  0  0  0  0  0  0  0  0
   -5.5352    4.5118    4.4342 C   0  0  0  0  0  0  0  0  0  0  0  0
   -5.0496    5.2035    2.1056 C   0  0  0  0  0  0  0  0  0  0  0  0
    1.2225    0.9960   -0.4066 C   0  0  0  0  0  0  0  0  0  0  0  0
   -6.8473    4.5031    4.1005 C   0  0  0  0  0  0  0  0  0  0  0  0
   -6.3667    5.1743    1.8415 C   0  0  0  0  0  0  0  0  0  0  0  0
    2.4266    0.8429   -0.7318 O   0  0  0  0  0  0  0  0  0  0  0  0
    0.2772    1.3596   -1.4013 C   0  0  0  0  0  0  0  0  0  0  0  0
   -7.2749    4.8418    2.8279 C   0  0  0  0  0  0  0  0  0  0  0  0
    0.7057    1.9796   -2.6008 C   0  0  0  0  0  0  0  0  0  0  0  0
   -1.1079    1.1232   -1.2289 C   0  0  0  0  0  0  0  0  0  0  0  0
   -8.5008    4.8365    2.5625 O   0  0  0  0  0  0  0  0  0  0  0  0
   -0.2062    2.3315   -3.6136 C   0  0  0  0  0  0  0  0  0  0  0  0
   -2.0277    1.4840   -2.2318 C   0  0  0  0  0  0  0  0  0  0  0  0
    0.3875    3.0952   -5.0961 S   0  0  2  0  0  0  0  0  0  0  0  0
   -1.5791    2.0792   -3.4233 C   0  0  0  0  0  0  0  0  0  0  0  0
    0.5518    4.6753   -4.8796 O   0  0  0  0  0  0  0  0  0  0  0  0
   -0.5881    2.8275   -6.3382 O   0  0  0  0  0  0  0  0  0  0  0  0
    1.9325    2.4701   -5.4923 O   0  0  0  0  0  0  0  0  0  0  0  0
   -0.2057    4.1109    4.4658 H   0  0  0  0  0  0  0  0  0  0  0  0
    0.6608    2.7935    5.2194 H   0  0  0  0  0  0  0  0  0  0  0  0
    1.0677    3.2893    3.5841 H   0  0  0  0  0  0  0  0  0  0  0  0
   -2.7360    1.1731    4.0133 H   0  0  0  0  0  0  0  0  0  0  0  0
   -1.8325    1.7974    1.7705 H   0  0  0  0  0  0  0  0  0  0  0  0
   -0.4410    2.8568    1.6377 H   0  0  0  0  0  0  0  0  0  0  0  0
   -2.3409    3.9422    5.2050 H   0  0  0  0  0  0  0  0  0  0  0  0
   -1.2095    1.8134    6.5319 H   0  0  0  0  0  0  0  0  0  0  0  0
   -2.3889    0.5234    6.2257 H   0  0  0  0  0  0  0  0  0  0  0  0
   -0.5065   -1.1451    3.0716 H   0  0  0  0  0  0  0  0  0  0  0  0
    0.4053    0.3374    5.8907 H   0  0  0  0  0  0  0  0  0  0  0  0
   -0.7534   -0.8393    5.2896 H   0  0  0  0  0  0  0  0  0  0  0  0
   -2.6582    3.9510    1.3096 H   0  0  0  0  0  0  0  0  0  0  0  0
   -4.0502    2.8575    2.9103 H   0  0  0  0  0  0  0  0  0  0  0  0
   -4.7048    2.0113    5.3448 H   0  0  0  0  0  0  0  0  0  0  0  0
   -3.7783    2.6785    6.6963 H   0  0  0  0  0  0  0  0  0  0  0  0
    2.3157   -0.3773    1.7479 H   0  0  0  0  0  0  0  0  0  0  0  0
    2.5499    1.3665    1.9367 H   0  0  0  0  0  0  0  0  0  0  0  0
   -0.8087    5.0388    1.8788 H   0  0  0  0  0  0  0  0  0  0  0  0
   -4.6408    4.9164    6.2992 H   0  0  0  0  0  0  0  0  0  0  0  0
   -5.9687    3.7826    6.4025 H   0  0  0  0  0  0  0  0  0  0  0  0
   -3.2049    6.7132    3.1748 H   0  0  0  0  0  0  0  0  0  0  0  0
   -3.2180    6.1050    4.8214 H   0  0  0  0  0  0  0  0  0  0  0  0
   -4.6130    6.9806    4.1892 H   0  0  0  0  0  0  0  0  0  0  0  0
   -4.4423    5.4546    1.3589 H   0  0  0  0  0  0  0  0  0  0  0  0
   -7.5336    4.2399    4.7699 H   0  0  0  0  0  0  0  0  0  0  0  0
   -6.6897    5.3979    0.9272 H   0  0  0  0  0  0  0  0  0  0  0  0
    1.6979    2.1903   -2.7424 H   0  0  0  0  0  0  0  0  0  0  0  0
   -1.4598    0.6748   -0.3811 H   0  0  0  0  0  0  0  0  0  0  0  0
   -3.0265    1.3131   -2.0937 H   0  0  0  0  0  0  0  0  0  0  0  0
   -2.2570    2.3330   -4.1455 H   0  0  0  0  0  0  0  0  0  0  0  0
    1.7908    1.5080   -5.6121 H   0  0  0  0  0  0  0  0  0  0  0  0
  2  1  1  0  0  0  0 
  3  2  1  0  0  0  0 
  2  4  1  0  0  0  0 
  2  5  1  0  0  0  0 
  6  3  1  0  0  0  0 
  3  7  1  0  0  0  0 
  4  8  1  0  0  0  0 
  4  9  1  0  0  0  0 
  4 10  1  0  0  0  0 
 11  5  1  0  0  0  0 
 12  6  1  0  0  0  0 
  6 13  1  0  0  0  0 
  7 10  1  0  0  0  0 
  8 14  1  0  0  0  0 
  8 15  2  0  0  0  0 
 12 11  1  0  0  0  0 
 11 16  1  0  0  0  0 
 12 17  1  0  0  0  0 
 13 18  1  0  0  0  0 
 14 19  1  0  0  0  0 
 17 20  1  0  0  0  0 
 17 21  1  0  0  0  0 
 17 22  1  0  0  0  0 
 18 21  1  0  0  0  0 
 19 23  1  0  0  0  0 
 21 24  2  0  0  0  0 
 22 25  2  0  0  0  0 
 23 26  2  0  0  0  0 
 23 27  1  0  0  0  0 
 24 28  1  0  0  0  0 
 25 28  1  0  0  0  0 
 27 29  2  0  0  0  0 
 27 30  1  0  0  0  0 
 28 31  2  0  0  0  0 
 29 32  1  0  0  0  0 
 30 33  2  0  0  0  0 
 32 34  1  0  0  0  0 
 32 35  2  0  0  0  0 
 33 35  1  0  0  0  0 
 34 36  2  0  0  0  0 
 34 37  2  0  0  0  0 
 34 38  1  0  0  0  0 
 39  1  1  0  0  0  0 
 40  1  1  0  0  0  0 
 41  1  1  0  0  0  0 
  3 42  1  0  0  0  0 
 43  5  1  0  0  0  0 
 44  5  1  0  0  0  0 
  6 45  1  0  0  0  0 
 46  7  1  0  0  0  0 
 47  7  1  0  0  0  0 
 48  9  1  0  0  0  0 
 49 10  1  0  0  0  0 
 50 10  1  0  0  0  0 
 11 51  1  0  0  0  0 
 12 52  1  0  0  0  0 
 53 13  1  0  0  0  0 
 54 13  1  0  0  0  0 
 55 14  1  0  0  0  0 
 56 14  1  0  0  0  0 
 57 16  1  0  0  0  0 
 58 18  1  0  0  0  0 
 59 18  1  0  0  0  0 
 60 20  1  0  0  0  0 
 61 20  1  0  0  0  0 
 62 20  1  0  0  0  0 
 63 22  1  0  0  0  0 
 64 24  1  0  0  0  0 
 65 25  1  0  0  0  0 
 66 29  1  0  0  0  0 
 67 30  1  0  0  0  0 
 68 33  1  0  0  0  0 
 69 35  1  0  0  0  0 
 70 38  1  0  0  0  0 
M  END
> <cdk:Title>
prednisolone sulfobenzoate

> <Conformer>
1

> <SuperDrugID>
SD002018

$$$$
