macitentan
  CDK     0628171802

 52 54  0  0  0  0  0  0  0  0999 V2000
    2.1915    2.7953   -0.3404 N   0  0  0  0  0  0  0  0  0  0  0  0
    1.6130    1.6798   -0.8615 C   0  0  0  0  0  0  0  0  0  0  0  0
    2.3817    0.7885   -1.5427 N   0  0  0  0  0  0  0  0  0  0  0  0
    3.7131    0.9902   -1.7251 C   0  0  0  0  0  0  0  0  0  0  0  0
    4.3243    2.1423   -1.1973 C   0  0  0  0  0  0  0  0  0  0  0  0
    3.5149    3.0525   -0.4939 C   0  0  0  0  0  0  0  0  0  0  0  0
    6.1450    2.4493   -1.4180 Br  0  0  0  0  0  0  0  0  0  0  0  0
    0.2769    1.4472   -0.6905 O   0  0  0  0  0  0  0  0  0  0  0  0
   -0.5426    2.2824   -1.5325 C   0  0  1  0  0  0  0  0  0  0  0  0
   -2.0403    2.0249   -1.2652 C   0  0  2  0  0  0  0  0  0  0  0  0
   -2.3475    2.1861    0.1387 O   0  0  0  0  0  0  0  0  0  0  0  0
   -3.6743    1.9721    0.4238 C   0  0  0  0  0  0  0  0  0  0  0  0
   -5.5137    0.6475    1.2930 C   0  0  0  0  0  0  0  0  0  0  0  0
   -6.3511    1.6412    0.8929 N   0  0  0  0  0  0  0  0  0  0  0  0
   -5.9040    2.7730    0.3026 C   0  0  0  0  0  0  0  0  0  0  0  0
   -4.5793    2.9213    0.0625 N   0  0  0  0  0  0  0  0  0  0  0  0
   -4.1154    0.8129    1.1120 C   0  0  0  0  0  0  0  0  0  0  0  0
   -3.1827   -0.1192    1.6267 C   0  0  0  0  0  0  0  0  0  0  0  0
   -2.0097   -1.0754    3.5536 C   0  0  0  0  0  0  0  0  0  0  0  0
   -2.9530   -0.1764    3.0220 C   0  0  0  0  0  0  0  0  0  0  0  0
   -2.4565   -0.9821    0.7754 C   0  0  0  0  0  0  0  0  0  0  0  0
   -1.5035   -1.8700    1.3069 C   0  0  0  0  0  0  0  0  0  0  0  0
   -1.2751   -1.9147    2.6951 C   0  0  0  0  0  0  0  0  0  0  0  0
   -0.0053   -3.0816    3.3963 Br  0  0  0  0  0  0  0  0  0  0  0  0
   -6.0351   -0.4790    1.8497 N   0  0  0  0  0  0  0  0  0  0  0  0
   -7.6798   -0.9469    1.7038 S   0  0  2  0  0  0  0  0  0  0  0  0
   -7.8314   -2.6839    1.9631 N   0  0  2  0  0  0  0  0  0  0  0  0
   -7.4691   -3.0957    3.3339 C   0  0  2  0  0  0  0  0  0  0  0  0
   -7.5690   -4.6302    3.5144 C   0  0  1  0  0  0  0  0  0  0  0  0
   -6.5194   -5.4317    2.7103 C   0  0  0  0  0  0  0  0  0  0  0  0
   -8.2132   -0.6199    0.2266 O   0  0  0  0  0  0  0  0  0  0  0  0
   -8.5714   -0.1612    2.7798 O   0  0  0  0  0  0  0  0  0  0  0  0
    4.2633    0.3052   -2.2470 H   0  0  0  0  0  0  0  0  0  0  0  0
    3.9116    3.9073   -0.0994 H   0  0  0  0  0  0  0  0  0  0  0  0
   -0.3452    3.3443   -1.3505 H   0  0  0  0  0  0  0  0  0  0  0  0
   -0.3405    2.0660   -2.5883 H   0  0  0  0  0  0  0  0  0  0  0  0
   -2.2823    1.0130   -1.6020 H   0  0  0  0  0  0  0  0  0  0  0  0
   -2.6176    2.7360   -1.8638 H   0  0  0  0  0  0  0  0  0  0  0  0
   -6.5665    3.5004    0.0314 H   0  0  0  0  0  0  0  0  0  0  0  0
   -1.8584   -1.1117    4.5634 H   0  0  0  0  0  0  0  0  0  0  0  0
   -3.4626    0.4422    3.6594 H   0  0  0  0  0  0  0  0  0  0  0  0
   -2.6184   -0.9765   -0.2322 H   0  0  0  0  0  0  0  0  0  0  0  0
   -0.9765   -2.4853    0.6822 H   0  0  0  0  0  0  0  0  0  0  0  0
   -5.4392   -1.0667    2.3390 H   0  0  0  0  0  0  0  0  0  0  0  0
   -7.1796   -3.1356    1.3188 H   0  0  0  0  0  0  0  0  0  0  0  0
   -8.1651   -2.6290    4.0359 H   0  0  0  0  0  0  0  0  0  0  0  0
   -6.4555   -2.7662    3.5774 H   0  0  0  0  0  0  0  0  0  0  0  0
   -7.4368   -4.8618    4.5746 H   0  0  0  0  0  0  0  0  0  0  0  0
   -8.5684   -4.9631    3.2231 H   0  0  0  0  0  0  0  0  0  0  0  0
   -6.6044   -6.4940    2.9502 H   0  0  0  0  0  0  0  0  0  0  0  0
   -5.5105   -5.0990    2.9622 H   0  0  0  0  0  0  0  0  0  0  0  0
   -6.6783   -5.3067    1.6380 H   0  0  0  0  0  0  0  0  0  0  0  0
  1  2  2  0  0  0  0 
  1  6  1  0  0  0  0 
  2  3  1  0  0  0  0 
  3  4  2  0  0  0  0 
  4  5  1  0  0  0  0 
  5  6  2  0  0  0  0 
  5  7  1  0  0  0  0 
  2  8  1  0  0  0  0 
  8  9  1  0  0  0  0 
  9 10  1  0  0  0  0 
 10 11  1  0  0  0  0 
 11 12  1  0  0  0  0 
 16 12  2  0  0  0  0 
 12 17  1  0  0  0  0 
 13 14  1  0  0  0  0 
 13 17  2  0  0  0  0 
 14 15  2  0  0  0  0 
 15 16  1  0  0  0  0 
 17 18  1  0  0  0  0 
 20 18  2  0  0  0  0 
 18 21  1  0  0  0  0 
 19 20  1  0  0  0  0 
 19 23  2  0  0  0  0 
 21 22  2  0  0  0  0 
 22 23  1  0  0  0  0 
 23 24  1  0  0  0  0 
 13 25  1  0  0  0  0 
 25 26  1  0  0  0  0 
 26 27  1  0  0  0  0 
 27 28  1  0  0  0  0 
 28 29  1  0  0  0  0 
 29 30  1  0  0  0  0 
 26 31  2  0  0  0  0 
 26 32  2  0  0  0  0 
 33  4  1  0  0  0  0 
 34  6  1  0  0  0  0 
 35  9  1  0  0  0  0 
 36  9  1  0  0  0  0 
 37 10  1  0  0  0  0 
 38 10  1  0  0  0  0 
 39 15  1  0  0  0  0 
 40 19  1  0  0  0  0 
 41 20  1  0  0  0  0 
 42 21  1  0  0  0  0 
 43 22  1  0  0  0  0 
 44 25  1  0  0  0  0 
 45 27  1  0  0  0  0 
 46 28  1  0  0  0  0 
 47 28  1  0  0  0  0 
 48 29  1  0  0  0  0 
 49 29  1  0  0  0  0 
 50 30  1  0  0  0  0 
 51 30  1  0  0  0  0 
 52 30  1  0  0  0  0 
M  END
> <cdk:Title>
macitentan

> <Conformer>
1

> <SuperDrugID>
SD003771

$$$$
