forodesine
  Mrv0541 09131710093D              47.63760

 33 35  0  0  0  0            999 V2000
    1.6935   -0.4106   -0.8987 O   0  0  0  0  0  0  0  0  0  0  0  0
    0.3068   -0.3374   -0.5817 C   0  0  1  0  0  0  0  0  0  0  0  0
   -0.4423    0.6563   -1.5071 C   0  0  1  0  0  0  0  0  0  0  0  0
   -1.8954    0.6193   -1.2448 N   0  0  2  0  0  0  0  0  0  0  0  0
   -2.4171    2.0000   -1.1877 C   0  0  2  0  0  0  0  0  0  0  0  0
   -1.2891    2.9093   -1.7311 C   0  0  2  0  0  0  0  0  0  0  0  0
   -1.4086    3.0675   -3.1475 O   0  0  0  0  0  0  0  0  0  0  0  0
   -0.0122    2.1354   -1.3621 C   0  0  2  0  0  0  0  0  0  0  0  0
    1.0948    2.4696   -2.1988 O   0  0  0  0  0  0  0  0  0  0  0  0
   -2.8652    2.3727    0.1788 C   0  0  0  0  0  0  0  0  0  0  0  0
   -2.4813    1.8186    1.4073 C   0  0  0  0  0  0  0  0  0  0  0  0
   -3.1381    2.4292    2.4096 N   0  0  0  0  0  0  0  0  0  0  0  0
   -3.9375    3.3678    1.8838 C   0  0  0  0  0  0  0  0  0  0  0  0
   -3.7859    3.3660    0.4999 C   0  0  0  0  0  0  0  0  0  0  0  0
   -4.4791    4.2254   -0.2861 N   0  0  0  0  0  0  0  0  0  0  0  0
   -5.3366    5.1122    0.2885 C   0  0  0  0  0  0  0  0  0  0  0  0
   -5.5076    5.1280    1.6422 N   0  0  0  0  0  0  0  0  0  0  0  0
   -4.8348    4.2775    2.4674 C   0  0  0  0  0  0  0  0  0  0  0  0
   -5.0193    4.3117    3.7042 O   0  0  0  0  0  0  0  0  0  0  0  0
    2.0501    0.4723   -0.6710 H   0  0  0  0  0  0  0  0  0  0  0  0
   -0.1204   -1.3349   -0.7045 H   0  0  0  0  0  0  0  0  0  0  0  0
    0.2007   -0.0490    0.4663 H   0  0  0  0  0  0  0  0  0  0  0  0
   -0.2987    0.3372   -2.5441 H   0  0  0  0  0  0  0  0  0  0  0  0
   -2.0296    0.2034   -0.3226 H   0  0  0  0  0  0  0  0  0  0  0  0
   -3.2889    2.0413   -1.8442 H   0  0  0  0  0  0  0  0  0  0  0  0
   -1.2859    3.9041   -1.2769 H   0  0  0  0  0  0  0  0  0  0  0  0
   -2.2574    3.5402   -3.2812 H   0  0  0  0  0  0  0  0  0  0  0  0
    0.2536    2.3588   -0.3237 H   0  0  0  0  0  0  0  0  0  0  0  0
    1.2099    3.4372   -2.0907 H   0  0  0  0  0  0  0  0  0  0  0  0
   -1.8062    1.0638    1.5401 H   0  0  0  0  0  0  0  0  0  0  0  0
   -3.0471    2.2227    3.3542 H   0  0  0  0  0  0  0  0  0  0  0  0
   -4.3664    4.2056   -1.2487 H   0  0  0  0  0  0  0  0  0  0  0  0
   -5.8545    5.7666   -0.2965 H   0  0  0  0  0  0  0  0  0  0  0  0
  1  2  1  0  0  0  0
  3  2  1  0  0  0  0
  3  4  1  0  0  0  0
  4  5  1  0  0  0  0
  5  6  1  0  0  0  0
  6  7  1  0  0  0  0
  6  8  1  0  0  0  0
  8  9  1  0  0  0  0
  5 10  1  0  0  0  0
 10 11  2  0  0  0  0
 11 12  1  0  0  0  0
 12 13  1  0  0  0  0
 13 14  2  0  0  0  0
 14 15  1  0  0  0  0
 15 16  1  0  0  0  0
 16 17  2  0  0  0  0
 17 18  1  0  0  0  0
 18 19  2  0  0  0  0
  8  3  1  0  0  0  0
 14 10  1  0  0  0  0
 18 13  1  0  0  0  0
  1 20  1  0  0  0  0
  2 21  1  0  0  0  0
  2 22  1  0  0  0  0
  3 23  1  0  0  0  0
  4 24  1  0  0  0  0
  5 25  1  0  0  0  0
  6 26  1  0  0  0  0
  7 27  1  0  0  0  0
  8 28  1  0  0  0  0
  9 29  1  0  0  0  0
 11 30  1  0  0  0  0
 12 31  1  0  0  0  0
 15 32  1  0  0  0  0
 16 33  1  0  0  0  0
M  END
>  <SuperDrugID>
SD006000

>  <_MOLCOUNT>
1

$$$$
