agomelatine
  CDK     0628171802

 35 36  0  0  0  0  0  0  0  0999 V2000
   -1.3144   -0.6660   -1.5364 C   0  0  0  0  0  0  0  0  0  0  0  0
   -2.2989   -0.3457   -0.5376 O   0  0  0  0  0  0  0  0  0  0  0  0
   -1.7496    0.2503    0.5662 C   0  0  0  0  0  0  0  0  0  0  0  0
   -1.5689    1.6455    0.6015 C   0  0  0  0  0  0  0  0  0  0  0  0
   -1.0112    2.2981    1.7331 C   0  0  0  0  0  0  0  0  0  0  0  0
   -0.6399    1.4866    2.8499 C   0  0  0  0  0  0  0  0  0  0  0  0
   -0.1039    2.0868    4.0093 C   0  0  0  0  0  0  0  0  0  0  0  0
    0.0816    3.4744    4.0700 C   0  0  0  0  0  0  0  0  0  0  0  0
   -0.2717    4.2783    2.9770 C   0  0  0  0  0  0  0  0  0  0  0  0
   -0.8227    3.7144    1.8009 C   0  0  0  0  0  0  0  0  0  0  0  0
   -1.2018    4.6405    0.6911 C   0  0  2  0  0  0  0  0  0  0  0  0
   -0.2091    4.6221   -0.5016 C   0  0  2  0  0  0  0  0  0  0  0  0
    0.8162    5.6038   -0.3403 N   0  0  0  0  0  0  0  0  0  0  0  0
    2.0758    5.5235   -0.8410 C   0  0  0  0  0  0  0  0  0  0  0  0
    2.9763    6.6762   -0.6817 C   0  0  0  0  0  0  0  0  0  0  0  0
    2.4788    4.5072   -1.4540 O   0  0  0  0  0  0  0  0  0  0  0  0
   -0.8175    0.0849    2.8074 C   0  0  0  0  0  0  0  0  0  0  0  0
   -1.3813   -0.5269    1.6765 C   0  0  0  0  0  0  0  0  0  0  0  0
   -0.5699   -1.3658   -1.1481 H   0  0  0  0  0  0  0  0  0  0  0  0
   -1.8193   -1.1406   -2.3774 H   0  0  0  0  0  0  0  0  0  0  0  0
   -0.8135    0.2331   -1.9055 H   0  0  0  0  0  0  0  0  0  0  0  0
   -1.8555    2.1705   -0.2252 H   0  0  0  0  0  0  0  0  0  0  0  0
    0.1518    1.5162    4.8203 H   0  0  0  0  0  0  0  0  0  0  0  0
    0.4738    3.8999    4.9136 H   0  0  0  0  0  0  0  0  0  0  0  0
   -0.1230    5.2885    3.0521 H   0  0  0  0  0  0  0  0  0  0  0  0
   -1.3039    5.6695    1.0504 H   0  0  0  0  0  0  0  0  0  0  0  0
   -2.1972    4.3686    0.3385 H   0  0  0  0  0  0  0  0  0  0  0  0
   -0.7549    4.8769   -1.4121 H   0  0  0  0  0  0  0  0  0  0  0  0
    0.2111    3.6223   -0.6401 H   0  0  0  0  0  0  0  0  0  0  0  0
    0.5799    6.4170    0.1329 H   0  0  0  0  0  0  0  0  0  0  0  0
    2.5943    7.5093   -1.2727 H   0  0  0  0  0  0  0  0  0  0  0  0
    3.9870    6.4403   -1.0223 H   0  0  0  0  0  0  0  0  0  0  0  0
    3.0234    6.9780    0.3656 H   0  0  0  0  0  0  0  0  0  0  0  0
   -0.5422   -0.5041    3.5978 H   0  0  0  0  0  0  0  0  0  0  0  0
   -1.5231   -1.5396    1.6611 H   0  0  0  0  0  0  0  0  0  0  0  0
  1  2  1  0  0  0  0 
  2  3  1  0  0  0  0 
  3  4  1  0  0  0  0 
  4  5  2  0  0  0  0 
  5  6  1  0  0  0  0 
  6  7  1  0  0  0  0 
  7  8  2  0  0  0  0 
  8  9  1  0  0  0  0 
  9 10  2  0  0  0  0 
  5 10  1  0  0  0  0 
 10 11  1  0  0  0  0 
 11 12  1  0  0  0  0 
 12 13  1  0  0  0  0 
 13 14  1  0  0  0  0 
 14 15  1  0  0  0  0 
 14 16  2  0  0  0  0 
  6 17  2  0  0  0  0 
 17 18  1  0  0  0  0 
  3 18  2  0  0  0  0 
  1 19  1  0  0  0  0 
  1 20  1  0  0  0  0 
  1 21  1  0  0  0  0 
  4 22  1  0  0  0  0 
  7 23  1  0  0  0  0 
  8 24  1  0  0  0  0 
  9 25  1  0  0  0  0 
 11 26  1  0  0  0  0 
 11 27  1  0  0  0  0 
 12 28  1  0  0  0  0 
 12 29  1  0  0  0  0 
 13 30  1  0  0  0  0 
 15 31  1  0  0  0  0 
 15 32  1  0  0  0  0 
 15 33  1  0  0  0  0 
 17 34  1  0  0  0  0 
 18 35  1  0  0  0  0 
M  END
> <cdk:Title>
agomelatine

> <Conformer>
1

> <SuperDrugID>
SD000073

$$$$
