dexchlorpheniramine
  CDK     0628171801

 38 39  0  0  0  0  0  0  0  0999 V2000
   -0.3766    1.9133   -0.8803 C   0  0  1  0  0  0  0  0  0  0  0  0
    0.3586    0.6102   -1.3333 C   0  0  1  0  0  0  0  0  0  0  0  0
   -0.1661    3.0420   -1.8509 C   0  0  0  0  0  0  0  0  0  0  0  0
   -1.8248    1.6612   -0.6223 C   0  0  0  0  0  0  0  0  0  0  0  0
    0.3853   -0.5366   -0.2808 C   0  0  2  0  0  0  0  0  0  0  0  0
    0.4724    4.2426   -1.4466 C   0  0  0  0  0  0  0  0  0  0  0  0
   -0.5858    2.9483   -3.2021 C   0  0  0  0  0  0  0  0  0  0  0  0
   -2.4062    1.8137    0.6585 C   0  0  0  0  0  0  0  0  0  0  0  0
   -2.6230    1.2339   -1.6403 N   0  0  0  0  0  0  0  0  0  0  0  0
    0.9653   -0.1642    1.0531 N   0  0  1  0  0  0  0  0  0  0  0  0
    0.6661    5.3082   -2.3458 C   0  0  0  0  0  0  0  0  0  0  0  0
   -0.4020    4.0123   -4.1034 C   0  0  0  0  0  0  0  0  0  0  0  0
   -3.7697    1.5192    0.8421 C   0  0  0  0  0  0  0  0  0  0  0  0
   -3.9398    0.9480   -1.5034 C   0  0  0  0  0  0  0  0  0  0  0  0
    0.6905   -1.1897    2.1035 C   0  0  0  0  0  0  0  0  0  0  0  0
    2.4126    0.2079    0.9948 C   0  0  0  0  0  0  0  0  0  0  0  0
    0.2221    5.1984   -3.6762 C   0  0  0  0  0  0  0  0  0  0  0  0
   -4.5459    1.0792   -0.2440 C   0  0  0  0  0  0  0  0  0  0  0  0
    0.4401    6.4833   -4.7552 Cl  0  0  0  0  0  0  0  0  0  0  0  0
    0.0867    2.2033    0.0662 H   0  0  0  0  0  0  0  0  0  0  0  0
   -0.1129    0.2167   -2.2365 H   0  0  0  0  0  0  0  0  0  0  0  0
    1.3871    0.8554   -1.6079 H   0  0  0  0  0  0  0  0  0  0  0  0
    0.9415   -1.3814   -0.7027 H   0  0  0  0  0  0  0  0  0  0  0  0
   -0.6478   -0.8699   -0.1502 H   0  0  0  0  0  0  0  0  0  0  0  0
    0.8066    4.3575   -0.4859 H   0  0  0  0  0  0  0  0  0  0  0  0
   -1.0336    2.0982   -3.5494 H   0  0  0  0  0  0  0  0  0  0  0  0
   -1.8483    2.1301    1.4564 H   0  0  0  0  0  0  0  0  0  0  0  0
    1.1312    6.1610   -2.0250 H   0  0  0  0  0  0  0  0  0  0  0  0
   -0.7242    3.9133   -5.0695 H   0  0  0  0  0  0  0  0  0  0  0  0
   -4.1946    1.6223    1.7658 H   0  0  0  0  0  0  0  0  0  0  0  0
   -4.4762    0.6366   -2.3150 H   0  0  0  0  0  0  0  0  0  0  0  0
    1.0672   -0.8614    3.0741 H   0  0  0  0  0  0  0  0  0  0  0  0
   -0.3840   -1.3481    2.2142 H   0  0  0  0  0  0  0  0  0  0  0  0
    1.1610   -2.1419    1.8514 H   0  0  0  0  0  0  0  0  0  0  0  0
    2.5586    1.1092    0.3966 H   0  0  0  0  0  0  0  0  0  0  0  0
    2.8030    0.4316    1.9901 H   0  0  0  0  0  0  0  0  0  0  0  0
    3.0075   -0.6021    0.5630 H   0  0  0  0  0  0  0  0  0  0  0  0
   -5.5360    0.8606   -0.1221 H   0  0  0  0  0  0  0  0  0  0  0  0
  1  2  1  0  0  0  0 
  1  3  1  0  0  0  0 
  1  4  1  0  0  0  0 
  2  5  1  0  0  0  0 
  3  6  2  0  0  0  0 
  3  7  1  0  0  0  0 
  4  8  2  0  0  0  0 
  4  9  1  0  0  0  0 
  5 10  1  0  0  0  0 
  6 11  1  0  0  0  0 
  7 12  2  0  0  0  0 
  8 13  1  0  0  0  0 
  9 14  2  0  0  0  0 
 10 15  1  0  0  0  0 
 10 16  1  0  0  0  0 
 11 17  2  0  0  0  0 
 12 17  1  0  0  0  0 
 13 18  2  0  0  0  0 
 14 18  1  0  0  0  0 
 17 19  1  0  0  0  0 
  1 20  1  0  0  0  0 
  2 21  1  0  0  0  0 
  2 22  1  0  0  0  0 
  5 23  1  0  0  0  0 
  5 24  1  0  0  0  0 
  6 25  1  0  0  0  0 
  7 26  1  0  0  0  0 
  8 27  1  0  0  0  0 
 11 28  1  0  0  0  0 
 12 29  1  0  0  0  0 
 13 30  1  0  0  0  0 
 14 31  1  0  0  0  0 
 15 32  1  0  0  0  0 
 15 33  1  0  0  0  0 
 15 34  1  0  0  0  0 
 16 35  1  0  0  0  0 
 16 36  1  0  0  0  0 
 16 37  1  0  0  0  0 
 18 38  1  0  0  0  0 
M  END
> <cdk:Title>
dexchlorpheniramine

> <Conformer>
1

> <SuperDrugID>
SD003551

$$$$
