hydrocodone
  CDK     0628171801

 43 47  0  0  0  0  0  0  0  0999 V2000
    6.4944   -1.0811    0.4869 O   0  0  0  0  0  0  0  0  0  0  0  0
    5.8947   -0.8396    1.5614 C   0  0  0  0  0  0  0  0  0  0  0  0
    4.4008   -0.8156    1.5912 C   0  0  1  0  0  0  0  0  0  0  0  0
    6.6831   -0.5266    2.7755 C   0  0  2  0  0  0  0  0  0  0  0  0
    3.8228    0.3010    2.5262 C   0  0  2  0  0  0  0  0  0  0  0  0
    3.8620   -0.5349    0.2684 O   0  0  0  0  0  0  0  0  0  0  0  0
    6.2193    0.8118    3.4040 C   0  0  2  0  0  0  0  0  0  0  0  0
    3.7702    1.3597    1.5223 C   0  0  0  0  0  0  0  0  0  0  0  0
    4.7007    0.7545    3.7445 C   0  0  1  0  0  0  0  0  0  0  0  0
    2.3750   -0.0172    3.0359 C   0  0  1  0  0  0  0  0  0  0  0  0
    3.7236    0.8208    0.2433 C   0  0  0  0  0  0  0  0  0  0  0  0
    3.8219    2.7424    1.7716 C   0  0  0  0  0  0  0  0  0  0  0  0
    4.0805    2.0978    4.2701 C   0  0  1  0  0  0  0  0  0  0  0  0
    1.7542    1.1538    3.8494 C   0  0  1  0  0  0  0  0  0  0  0  0
    3.5810    1.6685   -0.8724 C   0  0  0  0  0  0  0  0  0  0  0  0
    4.0617    3.2249    3.1639 C   0  0  2  0  0  0  0  0  0  0  0  0
    3.7010    3.5992    0.6532 C   0  0  0  0  0  0  0  0  0  0  0  0
    2.7204    1.7550    4.8233 N   0  0  2  0  0  0  0  0  0  0  0  0
    3.4257    1.1708   -2.1391 O   0  0  0  0  0  0  0  0  0  0  0  0
    3.5543    3.0666   -0.6500 C   0  0  0  0  0  0  0  0  0  0  0  0
    2.1044    2.7707    5.7236 C   0  0  0  0  0  0  0  0  0  0  0  0
    4.6595    0.8177   -2.7879 C   0  0  0  0  0  0  0  0  0  0  0  0
    4.6069    0.0023    4.5378 H   0  0  0  0  0  0  0  0  0  0  0  0
    4.0644   -1.8068    1.9091 H   0  0  0  0  0  0  0  0  0  0  0  0
    4.7022    2.4410    5.1047 H   0  0  0  0  0  0  0  0  0  0  0  0
    7.7474   -0.4533    2.5366 H   0  0  0  0  0  0  0  0  0  0  0  0
    6.5536   -1.3367    3.4980 H   0  0  0  0  0  0  0  0  0  0  0  0
    6.4369    1.6302    2.7129 H   0  0  0  0  0  0  0  0  0  0  0  0
    6.7889    0.9936    4.3182 H   0  0  0  0  0  0  0  0  0  0  0  0
    1.7108   -0.2560    2.1991 H   0  0  0  0  0  0  0  0  0  0  0  0
    2.4162   -0.9012    3.6780 H   0  0  0  0  0  0  0  0  0  0  0  0
    1.3899    1.9222    3.1614 H   0  0  0  0  0  0  0  0  0  0  0  0
    0.8885    0.7633    4.3909 H   0  0  0  0  0  0  0  0  0  0  0  0
    3.3181    3.9834    3.4146 H   0  0  0  0  0  0  0  0  0  0  0  0
    5.0347    3.7226    3.1666 H   0  0  0  0  0  0  0  0  0  0  0  0
    3.7189    4.6136    0.7823 H   0  0  0  0  0  0  0  0  0  0  0  0
    3.4365    3.7010   -1.4428 H   0  0  0  0  0  0  0  0  0  0  0  0
    1.2627    2.3308    6.2612 H   0  0  0  0  0  0  0  0  0  0  0  0
    1.7421    3.6331    5.1620 H   0  0  0  0  0  0  0  0  0  0  0  0
    2.8231    3.1157    6.4680 H   0  0  0  0  0  0  0  0  0  0  0  0
    4.4343    0.5458   -3.8202 H   0  0  0  0  0  0  0  0  0  0  0  0
    5.3617    1.6545   -2.8046 H   0  0  0  0  0  0  0  0  0  0  0  0
    5.1259   -0.0440   -2.3057 H   0  0  0  0  0  0  0  0  0  0  0  0
  1  2  2  0  0  0  0 
  3  2  1  0  0  0  0 
  2  4  1  0  0  0  0 
  5  3  1  0  0  0  0 
  3  6  1  0  0  0  0 
  3 24  1  0  0  0  0 
  4  7  1  0  0  0  0 
  5  8  1  0  0  0  0 
  9  5  1  0  0  0  0 
  5 10  1  0  0  0  0 
  6 11  1  0  0  0  0 
  9  7  1  0  0  0  0 
  8 11  2  0  0  0  0 
  8 12  1  0  0  0  0 
 13  9  1  0  0  0  0 
  9 23  1  0  0  0  0 
 10 14  1  0  0  0  0 
 11 15  1  0  0  0  0 
 12 16  1  0  0  0  0 
 12 17  2  0  0  0  0 
 13 16  1  0  0  0  0 
 13 18  1  0  0  0  0 
 13 25  1  0  0  0  0 
 14 18  1  0  0  0  0 
 15 19  1  0  0  0  0 
 15 20  2  0  0  0  0 
 17 20  1  0  0  0  0 
 18 21  1  0  0  0  0 
 19 22  1  0  0  0  0 
  4 26  1  0  0  0  0 
  4 27  1  0  0  0  0 
  7 28  1  0  0  0  0 
  7 29  1  0  0  0  0 
 10 30  1  0  0  0  0 
 10 31  1  0  0  0  0 
 14 32  1  0  0  0  0 
 14 33  1  0  0  0  0 
 16 34  1  0  0  0  0 
 16 35  1  0  0  0  0 
 17 36  1  0  0  0  0 
 20 37  1  0  0  0  0 
 21 38  1  0  0  0  0 
 21 39  1  0  0  0  0 
 21 40  1  0  0  0  0 
 22 41  1  0  0  0  0 
 22 42  1  0  0  0  0 
 22 43  1  0  0  0  0 
M  END
> <cdk:Title>
hydrocodone

> <Conformer>
1

> <SuperDrugID>
SD001232

$$$$
