hydrochlorothiazide
  CDK     0628171801

 25 26  0  0  0  0  0  0  0  0999 V2000
    3.5412    5.5150   -3.6824 N   0  0  2  0  0  0  0  0  0  0  0  0
    4.6931    4.2084   -3.9027 S   0  0  2  0  0  0  0  0  0  0  0  0
    6.1413    4.8699   -4.1077 O   0  0  0  0  0  0  0  0  0  0  0  0
    4.3156    3.4098   -5.2417 O   0  0  0  0  0  0  0  0  0  0  0  0
    4.6680    3.1473   -2.4771 C   0  0  0  0  0  0  0  0  0  0  0  0
    3.7055    2.1232   -2.2851 C   0  0  0  0  0  0  0  0  0  0  0  0
    2.4109    1.8728   -3.3535 Cl  0  0  0  0  0  0  0  0  0  0  0  0
    3.8020    1.2666   -1.1661 C   0  0  0  0  0  0  0  0  0  0  0  0
    4.8283    1.4270   -0.2132 C   0  0  0  0  0  0  0  0  0  0  0  0
    4.9013    0.5423    0.8308 N   0  0  0  0  0  0  0  0  0  0  0  0
    5.7838    0.6409    1.9574 C   0  0  2  0  0  0  0  0  0  0  0  0
    7.1383    1.1495    1.6588 N   0  0  2  0  0  0  0  0  0  0  0  0
    7.0082    2.6998    0.8340 S   0  0  2  0  0  0  0  0  0  0  0  0
    8.4174    3.0549    0.1581 O   0  0  0  0  0  0  0  0  0  0  0  0
    6.5916    3.8321    1.8901 O   0  0  0  0  0  0  0  0  0  0  0  0
    5.7453    2.4877   -0.3799 C   0  0  0  0  0  0  0  0  0  0  0  0
    5.6643    3.3374   -1.4971 C   0  0  0  0  0  0  0  0  0  0  0  0
    3.6709    6.1514   -4.4720 H   0  0  0  0  0  0  0  0  0  0  0  0
    3.8363    6.0228   -2.8456 H   0  0  0  0  0  0  0  0  0  0  0  0
    3.1155    0.5170   -1.0387 H   0  0  0  0  0  0  0  0  0  0  0  0
    4.2768   -0.2023    0.8295 H   0  0  0  0  0  0  0  0  0  0  0  0
    5.9001   -0.3586    2.3766 H   0  0  0  0  0  0  0  0  0  0  0  0
    5.3151    1.2669    2.7197 H   0  0  0  0  0  0  0  0  0  0  0  0
    7.5478    0.5018    0.9814 H   0  0  0  0  0  0  0  0  0  0  0  0
    6.3447    4.0923   -1.5958 H   0  0  0  0  0  0  0  0  0  0  0  0
  1  2  1  0  0  0  0 
  2  3  2  0  0  0  0 
  2  4  2  0  0  0  0 
  2  5  1  0  0  0  0 
  5  6  2  0  0  0  0 
  6  7  1  0  0  0  0 
  6  8  1  0  0  0  0 
  8  9  2  0  0  0  0 
  9 10  1  0  0  0  0 
 10 11  1  0  0  0  0 
 11 12  1  0  0  0  0 
 12 13  1  0  0  0  0 
 13 14  2  0  0  0  0 
 13 15  2  0  0  0  0 
 13 16  1  0  0  0  0 
  9 16  1  0  0  0  0 
 16 17  2  0  0  0  0 
  5 17  1  0  0  0  0 
  1 18  1  0  0  0  0 
  1 19  1  0  0  0  0 
  8 20  1  0  0  0  0 
 10 21  1  0  0  0  0 
 11 22  1  0  0  0  0 
 11 23  1  0  0  0  0 
 12 24  1  0  0  0  0 
 17 25  1  0  0  0  0 
M  END
> <cdk:Title>
hydrochlorothiazide

> <Conformer>
1

> <SuperDrugID>
SD001231

$$$$
