aprindine
  CDK     0628171801

 54 56  0  0  0  0  0  0  0  0999 V2000
   -0.7244   -0.8991   -0.5611 N   0  0  0  0  0  0  0  0  0  0  0  0
   -0.6552   -2.1386   -1.3246 C   0  0  1  0  0  0  0  0  0  0  0  0
   -1.9630   -0.4064    0.0467 C   0  0  2  0  0  0  0  0  0  0  0  0
    0.4666   -0.2591   -0.2620 C   0  0  0  0  0  0  0  0  0  0  0  0
   -0.1212   -3.3396   -0.4860 C   0  0  2  0  0  0  0  0  0  0  0  0
   -3.3336   -0.8353   -0.5638 C   0  0  1  0  0  0  0  0  0  0  0  0
   -2.0904    1.1500    0.1432 C   0  0  2  0  0  0  0  0  0  0  0  0
    0.8855   -0.0816    1.0803 C   0  0  0  0  0  0  0  0  0  0  0  0
    1.2881    0.2594   -1.2924 C   0  0  0  0  0  0  0  0  0  0  0  0
   -0.2846   -4.7097   -1.2089 C   0  0  2  0  0  0  0  0  0  0  0  0
   -4.2381    0.2284   -0.1288 C   0  0  0  0  0  0  0  0  0  0  0  0
   -3.5314    1.3633    0.2646 C   0  0  0  0  0  0  0  0  0  0  0  0
    2.0671    0.6189    1.3849 C   0  0  0  0  0  0  0  0  0  0  0  0
    2.4936    0.9213   -0.9916 C   0  0  0  0  0  0  0  0  0  0  0  0
    0.5013   -5.8613   -0.6250 N   0  0  1  0  0  0  0  0  0  0  0  0
   -5.6446    0.2041   -0.0861 C   0  0  0  0  0  0  0  0  0  0  0  0
   -4.2054    2.5188    0.7016 C   0  0  0  0  0  0  0  0  0  0  0  0
    2.8766    1.1124    0.3471 C   0  0  0  0  0  0  0  0  0  0  0  0
   -0.0222   -6.2884    0.7233 C   0  0  1  0  0  0  0  0  0  0  0  0
    0.6446   -7.0080   -1.5934 C   0  0  1  0  0  0  0  0  0  0  0  0
   -6.3306    1.3473    0.3734 C   0  0  0  0  0  0  0  0  0  0  0  0
   -5.6145    2.5012    0.7617 C   0  0  0  0  0  0  0  0  0  0  0  0
    0.8107   -7.3498    1.4892 C   0  0  0  0  0  0  0  0  0  0  0  0
    1.5388   -6.7136   -2.8215 C   0  0  0  0  0  0  0  0  0  0  0  0
   -1.6297   -2.4171   -1.7226 H   0  0  0  0  0  0  0  0  0  0  0  0
   -0.0147   -2.0079   -2.2033 H   0  0  0  0  0  0  0  0  0  0  0  0
   -1.9672   -0.7935    1.0737 H   0  0  0  0  0  0  0  0  0  0  0  0
   -0.6711   -3.3653    0.4569 H   0  0  0  0  0  0  0  0  0  0  0  0
    0.9375   -3.1760   -0.2651 H   0  0  0  0  0  0  0  0  0  0  0  0
   -3.3157   -0.8481   -1.6581 H   0  0  0  0  0  0  0  0  0  0  0  0
   -3.6572   -1.8056   -0.1755 H   0  0  0  0  0  0  0  0  0  0  0  0
   -1.7318    1.6479   -0.7637 H   0  0  0  0  0  0  0  0  0  0  0  0
   -1.5637    1.5414    1.0179 H   0  0  0  0  0  0  0  0  0  0  0  0
    0.3313   -0.4599    1.8508 H   0  0  0  0  0  0  0  0  0  0  0  0
    1.0091    0.1698   -2.2727 H   0  0  0  0  0  0  0  0  0  0  0  0
    0.0259   -4.5340   -2.2387 H   0  0  0  0  0  0  0  0  0  0  0  0
   -1.3483   -4.9672   -1.2389 H   0  0  0  0  0  0  0  0  0  0  0  0
    2.3369    0.7683    2.3595 H   0  0  0  0  0  0  0  0  0  0  0  0
    3.0880    1.2711   -1.7478 H   0  0  0  0  0  0  0  0  0  0  0  0
   -6.1587   -0.6310   -0.3753 H   0  0  0  0  0  0  0  0  0  0  0  0
   -3.6829    3.3534    0.9754 H   0  0  0  0  0  0  0  0  0  0  0  0
    3.7392    1.6166    0.5631 H   0  0  0  0  0  0  0  0  0  0  0  0
   -0.0546   -5.4193    1.3840 H   0  0  0  0  0  0  0  0  0  0  0  0
   -1.0448   -6.6633    0.6202 H   0  0  0  0  0  0  0  0  0  0  0  0
    1.1290   -7.8577   -1.1112 H   0  0  0  0  0  0  0  0  0  0  0  0
   -0.3409   -7.3440   -1.9296 H   0  0  0  0  0  0  0  0  0  0  0  0
   -7.3514    1.3386    0.4260 H   0  0  0  0  0  0  0  0  0  0  0  0
   -6.1187    3.3276    1.0894 H   0  0  0  0  0  0  0  0  0  0  0  0
    0.7037   -8.3398    1.0431 H   0  0  0  0  0  0  0  0  0  0  0  0
    1.8661   -7.0722    1.4962 H   0  0  0  0  0  0  0  0  0  0  0  0
    0.4599   -7.4223    2.5208 H   0  0  0  0  0  0  0  0  0  0  0  0
    1.7798   -7.6468   -3.3353 H   0  0  0  0  0  0  0  0  0  0  0  0
    2.4675   -6.2402   -2.4980 H   0  0  0  0  0  0  0  0  0  0  0  0
    1.0359   -6.0649   -3.5382 H   0  0  0  0  0  0  0  0  0  0  0  0
  1  2  1  0  0  0  0 
  1  3  1  0  0  0  0 
  1  4  1  0  0  0  0 
  2  5  1  0  0  0  0 
  3  6  1  0  0  0  0 
  3  7  1  0  0  0  0 
  4  8  2  0  0  0  0 
  4  9  1  0  0  0  0 
  5 10  1  0  0  0  0 
  6 11  1  0  0  0  0 
  7 12  1  0  0  0  0 
  8 13  1  0  0  0  0 
  9 14  2  0  0  0  0 
 10 15  1  0  0  0  0 
 11 12  2  0  0  0  0 
 11 16  1  0  0  0  0 
 12 17  1  0  0  0  0 
 13 18  2  0  0  0  0 
 14 18  1  0  0  0  0 
 15 19  1  0  0  0  0 
 15 20  1  0  0  0  0 
 16 21  2  0  0  0  0 
 17 22  2  0  0  0  0 
 19 23  1  0  0  0  0 
 20 24  1  0  0  0  0 
 21 22  1  0  0  0  0 
  2 25  1  0  0  0  0 
  2 26  1  0  0  0  0 
  3 27  1  0  0  0  0 
  5 28  1  0  0  0  0 
  5 29  1  0  0  0  0 
  6 30  1  0  0  0  0 
  6 31  1  0  0  0  0 
  7 32  1  0  0  0  0 
  7 33  1  0  0  0  0 
  8 34  1  0  0  0  0 
  9 35  1  0  0  0  0 
 10 36  1  0  0  0  0 
 10 37  1  0  0  0  0 
 13 38  1  0  0  0  0 
 14 39  1  0  0  0  0 
 16 40  1  0  0  0  0 
 17 41  1  0  0  0  0 
 18 42  1  0  0  0  0 
 19 43  1  0  0  0  0 
 19 44  1  0  0  0  0 
 20 45  1  0  0  0  0 
 20 46  1  0  0  0  0 
 21 47  1  0  0  0  0 
 22 48  1  0  0  0  0 
 23 49  1  0  0  0  0 
 23 50  1  0  0  0  0 
 23 51  1  0  0  0  0 
 24 52  1  0  0  0  0 
 24 53  1  0  0  0  0 
 24 54  1  0  0  0  0 
M  END
> <cdk:Title>
aprindine

> <Conformer>
1

> <SuperDrugID>
SD000193

$$$$
