pramocaine
  CDK     0628171801

 48 49  0  0  0  0  0  0  0  0999 V2000
    2.5807    0.5583   -2.0254 O   0  0  0  0  0  0  0  0  0  0  0  0
    1.7995    1.2755   -1.0446 C   0  0  1  0  0  0  0  0  0  0  0  0
    3.8307    1.0870   -2.1908 C   0  0  0  0  0  0  0  0  0  0  0  0
    0.3810    0.6671   -1.0056 C   0  0  2  0  0  0  0  0  0  0  0  0
    4.0567    2.0890   -3.1577 C   0  0  0  0  0  0  0  0  0  0  0  0
    4.9006    0.6353   -1.3919 C   0  0  0  0  0  0  0  0  0  0  0  0
   -0.5852    1.4259   -0.0572 C   0  0  1  0  0  0  0  0  0  0  0  0
    5.3215    2.6964   -3.2627 C   0  0  0  0  0  0  0  0  0  0  0  0
    6.1651    1.2418   -1.4972 C   0  0  0  0  0  0  0  0  0  0  0  0
   -1.9484    0.8076    0.0558 N   0  0  1  0  0  0  0  0  0  0  0  0
    6.3671    2.3037   -2.4023 C   0  0  0  0  0  0  0  0  0  0  0  0
   -2.7592    1.4458    1.1447 C   0  0  1  0  0  0  0  0  0  0  0  0
   -2.7170    0.7437   -1.2310 C   0  0  2  0  0  0  0  0  0  0  0  0
    7.5666    2.9599   -2.4324 O   0  0  0  0  0  0  0  0  0  0  0  0
   -4.1402    0.7600    1.2846 C   0  0  1  0  0  0  0  0  0  0  0  0
   -4.1046    0.0906   -1.0231 C   0  0  2  0  0  0  0  0  0  0  0  0
    7.5945    4.0759   -1.5147 C   0  0  1  0  0  0  0  0  0  0  0  0
   -4.8350    0.7581    0.0233 O   0  0  0  0  0  0  0  0  0  0  0  0
    8.9796    4.7536   -1.5876 C   0  0  2  0  0  0  0  0  0  0  0  0
    9.1032    5.9728   -0.6344 C   0  0  1  0  0  0  0  0  0  0  0  0
   10.4933    6.6391   -0.7202 C   0  0  0  0  0  0  0  0  0  0  0  0
    2.2505    1.1948   -0.0511 H   0  0  0  0  0  0  0  0  0  0  0  0
    1.7188    2.3341   -1.3141 H   0  0  0  0  0  0  0  0  0  0  0  0
    0.4426   -0.3792   -0.6920 H   0  0  0  0  0  0  0  0  0  0  0  0
   -0.0061    0.7013   -2.0246 H   0  0  0  0  0  0  0  0  0  0  0  0
    3.2971    2.3880   -3.7733 H   0  0  0  0  0  0  0  0  0  0  0  0
    4.7545   -0.1231   -0.7228 H   0  0  0  0  0  0  0  0  0  0  0  0
   -0.1195    1.4410    0.9333 H   0  0  0  0  0  0  0  0  0  0  0  0
   -0.6749    2.4622   -0.3950 H   0  0  0  0  0  0  0  0  0  0  0  0
    5.4769    3.4353   -3.9524 H   0  0  0  0  0  0  0  0  0  0  0  0
    6.9330    0.9221   -0.9028 H   0  0  0  0  0  0  0  0  0  0  0  0
   -2.2406    1.3606    2.1055 H   0  0  0  0  0  0  0  0  0  0  0  0
   -2.9145    2.5098    0.9295 H   0  0  0  0  0  0  0  0  0  0  0  0
   -2.1906    0.1329   -1.9635 H   0  0  0  0  0  0  0  0  0  0  0  0
   -2.8471    1.7486   -1.6430 H   0  0  0  0  0  0  0  0  0  0  0  0
   -4.0144   -0.2616    1.6555 H   0  0  0  0  0  0  0  0  0  0  0  0
   -4.7504    1.3086    2.0058 H   0  0  0  0  0  0  0  0  0  0  0  0
   -3.9868   -0.9723   -0.7896 H   0  0  0  0  0  0  0  0  0  0  0  0
   -4.6855    0.1673   -1.9442 H   0  0  0  0  0  0  0  0  0  0  0  0
    6.8272    4.8125   -1.7787 H   0  0  0  0  0  0  0  0  0  0  0  0
    7.4240    3.7373   -0.4863 H   0  0  0  0  0  0  0  0  0  0  0  0
    9.1543    5.0807   -2.6167 H   0  0  0  0  0  0  0  0  0  0  0  0
    9.7428    4.0141   -1.3280 H   0  0  0  0  0  0  0  0  0  0  0  0
    8.3432    6.7171   -0.8897 H   0  0  0  0  0  0  0  0  0  0  0  0
    8.9335    5.6510    0.3973 H   0  0  0  0  0  0  0  0  0  0  0  0
   10.6784    6.9929   -1.7367 H   0  0  0  0  0  0  0  0  0  0  0  0
   11.2707    5.9239   -0.4432 H   0  0  0  0  0  0  0  0  0  0  0  0
   10.5436    7.4912   -0.0391 H   0  0  0  0  0  0  0  0  0  0  0  0
  1  2  1  0  0  0  0 
  1  3  1  0  0  0  0 
  2  4  1  0  0  0  0 
  3  5  2  0  0  0  0 
  3  6  1  0  0  0  0 
  4  7  1  0  0  0  0 
  5  8  1  0  0  0  0 
  6  9  2  0  0  0  0 
  7 10  1  0  0  0  0 
  8 11  2  0  0  0  0 
  9 11  1  0  0  0  0 
 10 12  1  0  0  0  0 
 10 13  1  0  0  0  0 
 11 14  1  0  0  0  0 
 12 15  1  0  0  0  0 
 13 16  1  0  0  0  0 
 14 17  1  0  0  0  0 
 15 18  1  0  0  0  0 
 16 18  1  0  0  0  0 
 17 19  1  0  0  0  0 
 19 20  1  0  0  0  0 
 20 21  1  0  0  0  0 
  2 22  1  0  0  0  0 
  2 23  1  0  0  0  0 
  4 24  1  0  0  0  0 
  4 25  1  0  0  0  0 
  5 26  1  0  0  0  0 
  6 27  1  0  0  0  0 
  7 28  1  0  0  0  0 
  7 29  1  0  0  0  0 
  8 30  1  0  0  0  0 
  9 31  1  0  0  0  0 
 12 32  1  0  0  0  0 
 12 33  1  0  0  0  0 
 13 34  1  0  0  0  0 
 13 35  1  0  0  0  0 
 15 36  1  0  0  0  0 
 15 37  1  0  0  0  0 
 16 38  1  0  0  0  0 
 16 39  1  0  0  0  0 
 17 40  1  0  0  0  0 
 17 41  1  0  0  0  0 
 19 42  1  0  0  0  0 
 19 43  1  0  0  0  0 
 20 44  1  0  0  0  0 
 20 45  1  0  0  0  0 
 21 46  1  0  0  0  0 
 21 47  1  0  0  0  0 
 21 48  1  0  0  0  0 
M  END
> <cdk:Title>
pramocaine

> <Conformer>
1

> <SuperDrugID>
SD003006

$$$$
