hydroxypethidine
  CDK     0628171801

 40 41  0  0  0  0  0  0  0  0999 V2000
    0.1576    1.6438    1.4346 C   0  0  0  0  0  0  0  0  0  0  0  0
   -1.0352    0.9812    1.5638 O   0  0  0  0  0  0  0  0  0  0  0  0
    1.1183    1.0708    0.8639 O   0  0  0  0  0  0  0  0  0  0  0  0
    0.3497    3.0290    1.9973 C   0  0  1  0  0  0  0  0  0  0  0  0
   -1.3921   -0.3278    1.0933 C   0  0  1  0  0  0  0  0  0  0  0  0
    0.7321    3.9832    0.8006 C   0  0  2  0  0  0  0  0  0  0  0  0
   -0.9652    3.6328    2.6301 C   0  0  1  0  0  0  0  0  0  0  0  0
    1.4090    2.9171    3.0902 C   0  0  0  0  0  0  0  0  0  0  0  0
   -1.4171   -0.4392   -0.4453 C   0  0  0  0  0  0  0  0  0  0  0  0
   -0.4234    4.2161   -0.2129 C   0  0  1  0  0  0  0  0  0  0  0  0
   -2.0981    3.9348    1.6017 C   0  0  1  0  0  0  0  0  0  0  0  0
    2.5919    3.7088    3.1427 C   0  0  0  0  0  0  0  0  0  0  0  0
    1.2405    1.9701    4.1389 C   0  0  0  0  0  0  0  0  0  0  0  0
   -1.6489    4.7636    0.4427 N   0  0  1  0  0  0  0  0  0  0  0  0
    3.5387    3.5702    4.1788 C   0  0  0  0  0  0  0  0  0  0  0  0
    2.1910    1.8078    5.1624 C   0  0  0  0  0  0  0  0  0  0  0  0
   -1.6290    6.2348    0.6878 C   0  0  0  0  0  0  0  0  0  0  0  0
    4.6440    4.3564    4.2311 O   0  0  0  0  0  0  0  0  0  0  0  0
    3.3415    2.6088    5.1823 C   0  0  0  0  0  0  0  0  0  0  0  0
   -0.7085   -1.0696    1.5105 H   0  0  0  0  0  0  0  0  0  0  0  0
   -2.3938   -0.5456    1.4681 H   0  0  0  0  0  0  0  0  0  0  0  0
    1.6026    3.5958    0.2636 H   0  0  0  0  0  0  0  0  0  0  0  0
    1.0047    4.9678    1.1844 H   0  0  0  0  0  0  0  0  0  0  0  0
   -1.3717    2.9614    3.3908 H   0  0  0  0  0  0  0  0  0  0  0  0
   -0.7245    4.5726    3.1357 H   0  0  0  0  0  0  0  0  0  0  0  0
   -1.8821   -1.3814   -0.7445 H   0  0  0  0  0  0  0  0  0  0  0  0
   -1.9915    0.3859   -0.8690 H   0  0  0  0  0  0  0  0  0  0  0  0
   -0.4035   -0.4134   -0.8473 H   0  0  0  0  0  0  0  0  0  0  0  0
   -0.0791    4.8869   -1.0057 H   0  0  0  0  0  0  0  0  0  0  0  0
   -0.6812    3.2731   -0.6990 H   0  0  0  0  0  0  0  0  0  0  0  0
   -2.4912    2.9979    1.2053 H   0  0  0  0  0  0  0  0  0  0  0  0
   -2.9369    4.4158    2.1149 H   0  0  0  0  0  0  0  0  0  0  0  0
    2.7956    4.4031    2.4261 H   0  0  0  0  0  0  0  0  0  0  0  0
    0.4127    1.3723    4.1617 H   0  0  0  0  0  0  0  0  0  0  0  0
    2.0463    1.1078    5.8942 H   0  0  0  0  0  0  0  0  0  0  0  0
   -1.4201    6.7691   -0.2417 H   0  0  0  0  0  0  0  0  0  0  0  0
   -2.6034    6.5749    1.0437 H   0  0  0  0  0  0  0  0  0  0  0  0
   -0.8739    6.5099    1.4262 H   0  0  0  0  0  0  0  0  0  0  0  0
    4.3620    5.2290    3.8882 H   0  0  0  0  0  0  0  0  0  0  0  0
    4.0302    2.4935    5.9297 H   0  0  0  0  0  0  0  0  0  0  0  0
  1  2  1  0  0  0  0 
  1  3  2  0  0  0  0 
  1  4  1  0  0  0  0 
  2  5  1  0  0  0  0 
  4  6  1  0  0  0  0 
  4  7  1  0  0  0  0 
  4  8  1  0  0  0  0 
  5  9  1  0  0  0  0 
  6 10  1  0  0  0  0 
  7 11  1  0  0  0  0 
  8 12  2  0  0  0  0 
  8 13  1  0  0  0  0 
 10 14  1  0  0  0  0 
 11 14  1  0  0  0  0 
 12 15  1  0  0  0  0 
 13 16  2  0  0  0  0 
 14 17  1  0  0  0  0 
 15 18  1  0  0  0  0 
 15 19  2  0  0  0  0 
 16 19  1  0  0  0  0 
  5 20  1  0  0  0  0 
  5 21  1  0  0  0  0 
  6 22  1  0  0  0  0 
  6 23  1  0  0  0  0 
  7 24  1  0  0  0  0 
  7 25  1  0  0  0  0 
  9 26  1  0  0  0  0 
  9 27  1  0  0  0  0 
  9 28  1  0  0  0  0 
 10 29  1  0  0  0  0 
 10 30  1  0  0  0  0 
 11 31  1  0  0  0  0 
 11 32  1  0  0  0  0 
 12 33  1  0  0  0  0 
 13 34  1  0  0  0  0 
 16 35  1  0  0  0  0 
 17 36  1  0  0  0  0 
 17 37  1  0  0  0  0 
 17 38  1  0  0  0  0 
 18 39  1  0  0  0  0 
 19 40  1  0  0  0  0 
M  END
> <cdk:Title>
hydroxypethidine

> <Conformer>
1

> <SuperDrugID>
SD002840

$$$$
