pentamidine
  CDK     0628171801

 49 50  0  0  0  0  0  0  0  0999 V2000
  -10.5462   -1.6510    2.9149 N   0  0  0  0  0  0  0  0  0  0  0  0
   -9.7249   -0.8770    2.2299 C   0  0  0  0  0  0  0  0  0  0  0  0
   -9.6376    0.3164    2.6872 N   0  0  0  0  0  0  0  0  0  0  0  0
   -9.0133   -1.3222    1.1021 C   0  0  0  0  0  0  0  0  0  0  0  0
   -8.2743   -0.4210    0.2896 C   0  0  0  0  0  0  0  0  0  0  0  0
   -7.5513   -0.8658   -0.8325 C   0  0  0  0  0  0  0  0  0  0  0  0
   -7.5370   -2.2302   -1.1711 C   0  0  0  0  0  0  0  0  0  0  0  0
   -6.8092   -2.6685   -2.2445 O   0  0  0  0  0  0  0  0  0  0  0  0
   -5.4694   -3.0540   -1.8729 C   0  0  2  0  0  0  0  0  0  0  0  0
   -4.7072   -3.5600   -3.1196 C   0  0  2  0  0  0  0  0  0  0  0  0
   -3.2584   -3.9841   -2.7653 C   0  0  1  0  0  0  0  0  0  0  0  0
   -2.4412   -4.4809   -3.9877 C   0  0  1  0  0  0  0  0  0  0  0  0
   -0.9954   -4.8809   -3.6053 C   0  0  2  0  0  0  0  0  0  0  0  0
   -0.3194   -3.7391   -3.0332 O   0  0  0  0  0  0  0  0  0  0  0  0
    0.9474   -4.0107   -2.5973 C   0  0  0  0  0  0  0  0  0  0  0  0
    2.0392   -3.8236   -3.4606 C   0  0  0  0  0  0  0  0  0  0  0  0
    3.3446   -4.1165   -3.0271 C   0  0  0  0  0  0  0  0  0  0  0  0
    3.6016   -4.6026   -1.7162 C   0  0  0  0  0  0  0  0  0  0  0  0
    2.4857   -4.7380   -0.8459 C   0  0  0  0  0  0  0  0  0  0  0  0
    1.1780   -4.4440   -1.2791 C   0  0  0  0  0  0  0  0  0  0  0  0
    4.9035   -4.9450   -1.3090 C   0  0  0  0  0  0  0  0  0  0  0  0
    5.2158   -5.2607   -0.0657 N   0  0  0  0  0  0  0  0  0  0  0  0
    5.8980   -4.9907   -2.1147 N   0  0  0  0  0  0  0  0  0  0  0  0
   -8.2779   -3.1395   -0.3957 C   0  0  0  0  0  0  0  0  0  0  0  0
   -8.9985   -2.6936    0.7274 C   0  0  0  0  0  0  0  0  0  0  0  0
  -10.6776   -2.5757    2.6620 H   0  0  0  0  0  0  0  0  0  0  0  0
  -11.0261   -1.2963    3.6814 H   0  0  0  0  0  0  0  0  0  0  0  0
   -9.0872    0.9543    2.2824 H   0  0  0  0  0  0  0  0  0  0  0  0
   -8.2506    0.5783    0.4985 H   0  0  0  0  0  0  0  0  0  0  0  0
   -7.0266   -0.1957   -1.3978 H   0  0  0  0  0  0  0  0  0  0  0  0
   -5.4926   -3.8574   -1.1282 H   0  0  0  0  0  0  0  0  0  0  0  0
   -4.9285   -2.1984   -1.4531 H   0  0  0  0  0  0  0  0  0  0  0  0
   -4.6819   -2.7616   -3.8672 H   0  0  0  0  0  0  0  0  0  0  0  0
   -5.2447   -4.4128   -3.5445 H   0  0  0  0  0  0  0  0  0  0  0  0
   -2.7469   -3.1253   -2.3203 H   0  0  0  0  0  0  0  0  0  0  0  0
   -3.2938   -4.7830   -2.0179 H   0  0  0  0  0  0  0  0  0  0  0  0
   -2.9396   -5.3498   -4.4271 H   0  0  0  0  0  0  0  0  0  0  0  0
   -2.4007   -3.6936   -4.7460 H   0  0  0  0  0  0  0  0  0  0  0  0
   -0.4789   -5.2215   -4.5079 H   0  0  0  0  0  0  0  0  0  0  0  0
   -1.0381   -5.7135   -2.8948 H   0  0  0  0  0  0  0  0  0  0  0  0
    1.8838   -3.4784   -4.4096 H   0  0  0  0  0  0  0  0  0  0  0  0
    4.1045   -3.9651   -3.6914 H   0  0  0  0  0  0  0  0  0  0  0  0
    2.6043   -5.0586    0.1172 H   0  0  0  0  0  0  0  0  0  0  0  0
    0.3904   -4.5524   -0.6350 H   0  0  0  0  0  0  0  0  0  0  0  0
    6.1325   -5.4892    0.1621 H   0  0  0  0  0  0  0  0  0  0  0  0
    4.5398   -5.2725    0.6263 H   0  0  0  0  0  0  0  0  0  0  0  0
    5.7982   -4.7917   -3.0228 H   0  0  0  0  0  0  0  0  0  0  0  0
   -8.2823   -4.1318   -0.6437 H   0  0  0  0  0  0  0  0  0  0  0  0
   -9.5081   -3.3944    1.2682 H   0  0  0  0  0  0  0  0  0  0  0  0
  1  2  1  0  0  0  0 
  2  3  2  0  0  0  0 
  2  4  1  0  0  0  0 
  4  5  2  0  0  0  0 
  5  6  1  0  0  0  0 
  6  7  2  0  0  0  0 
  7  8  1  0  0  0  0 
  8  9  1  0  0  0  0 
  9 10  1  0  0  0  0 
 10 11  1  0  0  0  0 
 11 12  1  0  0  0  0 
 12 13  1  0  0  0  0 
 13 14  1  0  0  0  0 
 14 15  1  0  0  0  0 
 15 16  2  0  0  0  0 
 16 17  1  0  0  0  0 
 17 18  2  0  0  0  0 
 18 19  1  0  0  0  0 
 19 20  2  0  0  0  0 
 15 20  1  0  0  0  0 
 18 21  1  0  0  0  0 
 21 22  1  0  0  0  0 
 21 23  2  0  0  0  0 
  7 24  1  0  0  0  0 
 24 25  2  0  0  0  0 
  4 25  1  0  0  0  0 
  1 26  1  0  0  0  0 
  1 27  1  0  0  0  0 
  3 28  1  0  0  0  0 
  5 29  1  0  0  0  0 
  6 30  1  0  0  0  0 
  9 31  1  0  0  0  0 
  9 32  1  0  0  0  0 
 10 33  1  0  0  0  0 
 10 34  1  0  0  0  0 
 11 35  1  0  0  0  0 
 11 36  1  0  0  0  0 
 12 37  1  0  0  0  0 
 12 38  1  0  0  0  0 
 13 39  1  0  0  0  0 
 13 40  1  0  0  0  0 
 16 41  1  0  0  0  0 
 17 42  1  0  0  0  0 
 19 43  1  0  0  0  0 
 20 44  1  0  0  0  0 
 22 45  1  0  0  0  0 
 22 46  1  0  0  0  0 
 23 47  1  0  0  0  0 
 24 48  1  0  0  0  0 
 25 49  1  0  0  0  0 
M  END
> <cdk:Title>
pentamidine

> <Conformer>
1

> <SuperDrugID>
SD001874

$$$$
