furazidin
  CDK     0628171802

 27 28  0  0  0  0  0  0  0  0999 V2000
   -0.5032   -0.4651    0.0619 N   0  0  0  0  0  0  0  0  0  0  0  0
   -0.7255   -0.7596    1.2922 C   0  0  0  0  0  0  0  0  0  0  0  0
   -1.6222   -1.7153    1.6161 C   0  0  0  0  0  0  0  0  0  0  0  0
   -1.5180   -2.4761    2.7201 C   0  0  0  0  0  0  0  0  0  0  0  0
   -2.4766   -3.4001    3.0857 C   0  0  0  0  0  0  0  0  0  0  0  0
   -3.6998   -3.5314    2.5117 O   0  0  0  0  0  0  0  0  0  0  0  0
   -4.3860   -4.5164    3.1442 C   0  0  0  0  0  0  0  0  0  0  0  0
   -3.5683   -5.0352    4.1484 C   0  0  0  0  0  0  0  0  0  0  0  0
   -2.3735   -4.3349    4.1143 C   0  0  0  0  0  0  0  0  0  0  0  0
   -5.6198   -4.8907    2.8421 N   0  0  0  0  0  0  0  0  0  0  0  0
   -6.2186   -5.7955    3.4991 O   0  0  0  0  0  0  0  0  0  0  0  0
   -6.2013   -4.3893    1.9626 O   0  0  0  0  0  0  0  0  0  0  0  0
    0.2936    0.4416   -0.3402 N   0  0  0  0  0  0  0  0  0  0  0  0
    1.6097    0.2965   -0.5786 C   0  0  0  0  0  0  0  0  0  0  0  0
    2.0943    1.5276   -1.0074 C   0  0  0  0  0  0  0  0  0  0  0  0
    1.0590    2.3764   -1.0256 N   0  0  0  0  0  0  0  0  0  0  0  0
   -0.0371    1.7175   -0.6226 C   0  0  0  0  0  0  0  0  0  0  0  0
   -1.1761    2.2274   -0.5276 O   0  0  0  0  0  0  0  0  0  0  0  0
    3.3649    1.8339   -1.3503 O   0  0  0  0  0  0  0  0  0  0  0  0
   -0.2467   -0.2712    2.0146 H   0  0  0  0  0  0  0  0  0  0  0  0
   -2.3998   -1.8448    1.0078 H   0  0  0  0  0  0  0  0  0  0  0  0
   -0.7255   -2.3745    3.3128 H   0  0  0  0  0  0  0  0  0  0  0  0
   -3.8006   -5.7927    4.7931 H   0  0  0  0  0  0  0  0  0  0  0  0
   -1.5725   -4.4837    4.7333 H   0  0  0  0  0  0  0  0  0  0  0  0
    2.1581   -0.5592   -0.4626 H   0  0  0  0  0  0  0  0  0  0  0  0
    1.0904    3.3113   -1.2858 H   0  0  0  0  0  0  0  0  0  0  0  0
    3.8798    1.0151   -1.1866 H   0  0  0  0  0  0  0  0  0  0  0  0
  1  2  2  0  0  0  0 
  1 13  1  0  0  0  0 
  2  3  1  0  0  0  0 
  3  4  2  0  0  0  0 
  4  5  1  0  0  0  0 
  5  6  1  0  0  0  0 
  5  9  2  0  0  0  0 
  6  7  1  0  0  0  0 
  7  8  2  0  0  0  0 
  7 10  1  0  0  0  0 
  9  8  1  0  0  0  0 
 10 11  1  0  0  0  0 
 10 12  2  0  0  0  0 
 13 14  1  0  0  0  0 
 13 17  1  0  0  0  0 
 14 15  2  0  0  0  0 
 15 16  1  0  0  0  0 
 15 19  1  0  0  0  0 
 17 16  1  0  0  0  0 
 17 18  2  0  0  0  0 
 20  2  1  0  0  0  0 
  3 21  1  0  0  0  0 
 22  4  1  0  0  0  0 
 23  8  1  0  0  0  0 
 24  9  1  0  0  0  0 
 25 14  1  0  0  0  0 
 26 16  1  0  0  0  0 
 27 19  1  0  0  0  0 
M  CHG  1  10   1
M  CHG  1  11  -1
M  END
> <cdk:Title>
furazidin

> <Conformer>
1

> <SuperDrugID>
SD003812

$$$$
