perflunafene
  CDK     0628171801

 28 29  0  0  0  0  0  0  0  0999 V2000
    4.3814   -1.1507   -0.5722 F   0  0  0  0  0  0  0  0  0  0  0  0
    3.9622   -1.5077    0.6985 C   0  0  1  0  0  0  0  0  0  0  0  0
    3.4375   -3.0038    0.6514 C   0  0  1  0  0  0  0  0  0  0  0  0
    5.2371   -1.3733    1.6240 C   0  0  2  0  0  0  0  0  0  0  0  0
    2.7997   -0.5008    1.0650 C   0  0  1  0  0  0  0  0  0  0  0  0
    3.0183   -3.3608    1.9221 F   0  0  0  0  0  0  0  0  0  0  0  0
    2.1626   -3.1383   -0.2741 C   0  0  1  0  0  0  0  0  0  0  0  0
    4.6000   -4.0108    0.2849 C   0  0  2  0  0  0  0  0  0  0  0  0
    4.9064   -1.5511    2.9504 F   0  0  0  0  0  0  0  0  0  0  0  0
    5.7606   -0.0976    1.5608 F   0  0  0  0  0  0  0  0  0  0  0  0
    6.3742   -2.3847    1.2568 C   0  0  1  0  0  0  0  0  0  0  0  0
    2.4061   -0.6560    2.3770 F   0  0  0  0  0  0  0  0  0  0  0  0
    3.2345    0.8067    0.9815 F   0  0  0  0  0  0  0  0  0  0  0  0
    1.5401   -0.6543    0.1481 C   0  0  2  0  0  0  0  0  0  0  0  0
    2.4933   -2.9605   -1.6005 F   0  0  0  0  0  0  0  0  0  0  0  0
    1.6391   -4.4140   -0.2109 F   0  0  0  0  0  0  0  0  0  0  0  0
    1.0255   -2.1268    0.0931 C   0  0  2  0  0  0  0  0  0  0  0  0
    4.9937   -3.8555   -1.0271 F   0  0  0  0  0  0  0  0  0  0  0  0
    4.1653   -5.3182    0.3684 F   0  0  0  0  0  0  0  0  0  0  0  0
    5.8597   -3.8573    1.2017 C   0  0  1  0  0  0  0  0  0  0  0  0
    6.9449   -2.0440    0.0469 F   0  0  0  0  0  0  0  0  0  0  0  0
    7.4074   -2.2876    2.1669 F   0  0  0  0  0  0  0  0  0  0  0  0
    1.8206   -0.2096   -1.1282 F   0  0  0  0  0  0  0  0  0  0  0  0
    0.5284    0.1749    0.5894 F   0  0  0  0  0  0  0  0  0  0  0  0
    0.4548   -2.4676    1.3030 F   0  0  0  0  0  0  0  0  0  0  0  0
   -0.0077   -2.2240   -0.8170 F   0  0  0  0  0  0  0  0  0  0  0  0
    5.5791   -4.3019    2.4781 F   0  0  0  0  0  0  0  0  0  0  0  0
    6.8713   -4.6864    0.7605 F   0  0  0  0  0  0  0  0  0  0  0  0
  1  2  1  0  0  0  0 
  2  3  1  0  0  0  0 
  2  4  1  0  0  0  0 
  2  5  1  0  0  0  0 
  3  6  1  0  0  0  0 
  3  7  1  0  0  0  0 
  3  8  1  0  0  0  0 
  4  9  1  0  0  0  0 
  4 10  1  0  0  0  0 
  4 11  1  0  0  0  0 
  5 12  1  0  0  0  0 
  5 13  1  0  0  0  0 
  5 14  1  0  0  0  0 
  7 15  1  0  0  0  0 
  7 16  1  0  0  0  0 
  7 17  1  0  0  0  0 
  8 18  1  0  0  0  0 
  8 19  1  0  0  0  0 
  8 20  1  0  0  0  0 
 11 20  1  0  0  0  0 
 11 21  1  0  0  0  0 
 11 22  1  0  0  0  0 
 14 17  1  0  0  0  0 
 14 23  1  0  0  0  0 
 14 24  1  0  0  0  0 
 17 25  1  0  0  0  0 
 17 26  1  0  0  0  0 
 20 27  1  0  0  0  0 
 20 28  1  0  0  0  0 
M  END
> <cdk:Title>
perflunafene

> <Conformer>
1

> <SuperDrugID>
SD001885

$$$$
