cabozantinib
  CDK     0628171802

 61 65  0  0  0  0  0  0  0  0999 V2000
   -1.1228    4.9814    5.5824 C   0  0  0  0  0  0  0  0  0  0  0  0
   -0.1257    5.8651    5.8635 N   0  0  0  0  0  0  0  0  0  0  0  0
   -2.1980    5.2910    5.0193 O   0  0  0  0  0  0  0  0  0  0  0  0
   -0.0241    7.1911    5.5458 C   0  0  0  0  0  0  0  0  0  0  0  0
    0.8745    7.9665    6.3117 C   0  0  0  0  0  0  0  0  0  0  0  0
   -0.7067    7.8182    4.4775 C   0  0  0  0  0  0  0  0  0  0  0  0
    1.1016    9.3221    6.0037 C   0  0  0  0  0  0  0  0  0  0  0  0
   -0.4851    9.1735    4.1826 C   0  0  0  0  0  0  0  0  0  0  0  0
    0.4242    9.9436    4.9341 C   0  0  0  0  0  0  0  0  0  0  0  0
    0.7107   11.2381    4.5649 O   0  0  0  0  0  0  0  0  0  0  0  0
   -0.0323   12.1913    5.2193 C   0  0  0  0  0  0  0  0  0  0  0  0
   -1.2409   12.7045    4.6792 C   0  0  0  0  0  0  0  0  0  0  0  0
    0.4346   12.6906    6.4536 C   0  0  0  0  0  0  0  0  0  0  0  0
   -1.9993   13.6263    5.4533 C   0  0  0  0  0  0  0  0  0  0  0  0
   -1.7313   12.3282    3.4096 C   0  0  0  0  0  0  0  0  0  0  0  0
   -0.3380   13.6278    7.1607 C   0  0  0  0  0  0  0  0  0  0  0  0
   -3.2533   14.0774    4.9958 C   0  0  0  0  0  0  0  0  0  0  0  0
   -1.5201   14.0543    6.6503 N   0  0  0  0  0  0  0  0  0  0  0  0
   -3.0180   12.7147    2.9844 C   0  0  0  0  0  0  0  0  0  0  0  0
   -3.7888   13.5875    3.7858 C   0  0  0  0  0  0  0  0  0  0  0  0
   -3.4947   12.2470    1.7872 O   0  0  0  0  0  0  0  0  0  0  0  0
   -5.0752   13.9081    3.4417 O   0  0  0  0  0  0  0  0  0  0  0  0
   -4.0818   10.9348    1.8787 C   0  0  0  0  0  0  0  0  0  0  0  0
   -5.1876   14.9551    2.4658 C   0  0  0  0  0  0  0  0  0  0  0  0
   -0.9570    3.5974    6.0560 C   0  0  2  0  0  0  0  0  0  0  0  0
   -1.3520    3.3529    7.4566 C   0  0  0  0  0  0  0  0  0  0  0  0
   -2.6853    3.4086    7.7450 N   0  0  0  0  0  0  0  0  0  0  0  0
   -0.4488    3.1752    8.3057 O   0  0  0  0  0  0  0  0  0  0  0  0
    0.2016    2.7905    5.4283 C   0  0  1  0  0  0  0  0  0  0  0  0
   -1.2449    2.4544    5.0548 C   0  0  1  0  0  0  0  0  0  0  0  0
   -3.3508    3.2800    8.9350 C   0  0  0  0  0  0  0  0  0  0  0  0
   -4.7597    3.3890    8.8671 C   0  0  0  0  0  0  0  0  0  0  0  0
   -5.5615    3.2326   10.0136 C   0  0  0  0  0  0  0  0  0  0  0  0
   -4.9614    2.9752   11.2591 C   0  0  0  0  0  0  0  0  0  0  0  0
   -3.5607    2.8942   11.3543 C   0  0  0  0  0  0  0  0  0  0  0  0
   -2.7635    3.0465   10.2037 C   0  0  0  0  0  0  0  0  0  0  0  0
   -5.6987    2.8104   12.3231 F   0  0  0  0  0  0  0  0  0  0  0  0
    0.6109    5.4984    6.3779 H   0  0  0  0  0  0  0  0  0  0  0  0
    1.3817    7.5467    7.0943 H   0  0  0  0  0  0  0  0  0  0  0  0
   -1.3456    7.2938    3.8797 H   0  0  0  0  0  0  0  0  0  0  0  0
    1.7798    9.8510    6.5535 H   0  0  0  0  0  0  0  0  0  0  0  0
   -0.9761    9.5823    3.3923 H   0  0  0  0  0  0  0  0  0  0  0  0
    1.3271   12.3725    6.8382 H   0  0  0  0  0  0  0  0  0  0  0  0
   -1.1636   11.7547    2.7837 H   0  0  0  0  0  0  0  0  0  0  0  0
   -0.0162   13.9828    8.0628 H   0  0  0  0  0  0  0  0  0  0  0  0
   -3.7867   14.7449    5.5595 H   0  0  0  0  0  0  0  0  0  0  0  0
   -4.3779   10.6247    0.8761 H   0  0  0  0  0  0  0  0  0  0  0  0
   -3.3728   10.1944    2.2595 H   0  0  0  0  0  0  0  0  0  0  0  0
   -4.9732   10.9466    2.5109 H   0  0  0  0  0  0  0  0  0  0  0  0
   -6.2477   15.1067    2.2629 H   0  0  0  0  0  0  0  0  0  0  0  0
   -4.7718   15.8918    2.8426 H   0  0  0  0  0  0  0  0  0  0  0  0
   -4.6999   14.6871    1.5258 H   0  0  0  0  0  0  0  0  0  0  0  0
   -3.2592    3.5723    6.9784 H   0  0  0  0  0  0  0  0  0  0  0  0
    0.7743    3.2714    4.6308 H   0  0  0  0  0  0  0  0  0  0  0  0
    0.6998    2.0510    6.0550 H   0  0  0  0  0  0  0  0  0  0  0  0
   -1.6112    1.5080    5.4600 H   0  0  0  0  0  0  0  0  0  0  0  0
   -1.5251    2.7291    4.0345 H   0  0  0  0  0  0  0  0  0  0  0  0
   -5.2200    3.5799    7.9721 H   0  0  0  0  0  0  0  0  0  0  0  0
   -6.5793    3.3025    9.9371 H   0  0  0  0  0  0  0  0  0  0  0  0
   -3.1167    2.7203   12.2601 H   0  0  0  0  0  0  0  0  0  0  0  0
   -1.7538    2.9792   10.3176 H   0  0  0  0  0  0  0  0  0  0  0  0
  1  2  1  0  0  0  0 
  1  3  2  0  0  0  0 
  2  4  1  0  0  0  0 
  4  5  2  0  0  0  0 
  4  6  1  0  0  0  0 
  5  7  1  0  0  0  0 
  6  8  2  0  0  0  0 
  7  9  2  0  0  0  0 
  8  9  1  0  0  0  0 
  9 10  1  0  0  0  0 
 10 11  1  0  0  0  0 
 11 12  2  0  0  0  0 
 11 13  1  0  0  0  0 
 12 14  1  0  0  0  0 
 12 15  1  0  0  0  0 
 13 16  2  0  0  0  0 
 14 17  1  0  0  0  0 
 14 18  2  0  0  0  0 
 15 19  2  0  0  0  0 
 16 18  1  0  0  0  0 
 17 20  2  0  0  0  0 
 19 20  1  0  0  0  0 
 19 21  1  0  0  0  0 
 20 22  1  0  0  0  0 
 21 23  1  0  0  0  0 
 22 24  1  0  0  0  0 
  1 25  1  0  0  0  0 
 25 26  1  0  0  0  0 
 26 27  1  0  0  0  0 
 26 28  2  0  0  0  0 
 29 30  1  0  0  0  0 
 25 29  1  0  0  0  0 
 30 25  1  0  0  0  0 
 27 31  1  0  0  0  0 
 32 33  1  0  0  0  0 
 33 34  2  0  0  0  0 
 34 35  1  0  0  0  0 
 35 36  2  0  0  0  0 
 31 32  2  0  0  0  0 
 31 36  1  0  0  0  0 
 34 37  1  0  0  0  0 
  2 38  1  0  0  0  0 
  5 39  1  0  0  0  0 
  6 40  1  0  0  0  0 
  7 41  1  0  0  0  0 
  8 42  1  0  0  0  0 
 13 43  1  0  0  0  0 
 15 44  1  0  0  0  0 
 16 45  1  0  0  0  0 
 17 46  1  0  0  0  0 
 23 47  1  0  0  0  0 
 23 48  1  0  0  0  0 
 23 49  1  0  0  0  0 
 24 50  1  0  0  0  0 
 24 51  1  0  0  0  0 
 24 52  1  0  0  0  0 
 27 53  1  0  0  0  0 
 29 54  1  0  0  0  0 
 29 55  1  0  0  0  0 
 30 56  1  0  0  0  0 
 30 57  1  0  0  0  0 
 32 58  1  0  0  0  0 
 33 59  1  0  0  0  0 
 35 60  1  0  0  0  0 
 36 61  1  0  0  0  0 
M  END
> <cdk:Title>
cabozantinib

> <Conformer>
1

> <SuperDrugID>
SD003725

$$$$
