sultamicillin
  CDK     0628171801

 70 74  0  0  0  0  0  0  0  0999 V2000
    3.7314    3.2779   -1.3747 C   0  0  0  0  0  0  0  0  0  0  0  0
    4.8625    2.4770   -1.6165 C   0  0  0  0  0  0  0  0  0  0  0  0
    4.7784    1.0799   -1.4855 C   0  0  0  0  0  0  0  0  0  0  0  0
    3.5531    0.4802   -1.1458 C   0  0  0  0  0  0  0  0  0  0  0  0
    2.4189    1.2817   -0.9151 C   0  0  0  0  0  0  0  0  0  0  0  0
    2.4968    2.6964   -0.9995 C   0  0  0  0  0  0  0  0  0  0  0  0
    1.3176    3.5536   -0.6698 C   0  0  1  0  0  0  0  0  0  0  0  0
    0.2475    3.3214   -1.6559 N   0  0  2  0  0  0  0  0  0  0  0  0
    0.8869    3.3004    0.7280 C   0  0  0  0  0  0  0  0  0  0  0  0
   -0.2827    2.6561    0.9819 N   0  0  0  0  0  0  0  0  0  0  0  0
    1.6629    3.6152    1.6623 O   0  0  0  0  0  0  0  0  0  0  0  0
   -0.6596    2.0960    2.2384 C   0  0  2  0  0  0  0  0  0  0  0  0
   -0.9597    0.0911    2.3261 N   0  0  0  0  0  0  0  0  0  0  0  0
    0.0951    0.8744    2.5303 C   0  0  0  0  0  0  0  0  0  0  0  0
   -1.8903    1.1358    2.1622 C   0  0  2  0  0  0  0  0  0  0  0  0
   -2.6184    0.5665    0.5963 S   0  0  0  0  0  0  0  0  0  0  0  0
   -2.1401   -1.2054    0.7200 C   0  0  1  0  0  0  0  0  0  0  0  0
   -1.1329   -1.2699    1.9411 C   0  0  2  0  0  0  0  0  0  0  0  0
   -1.5050   -2.1309    3.0901 C   0  0  0  0  0  0  0  0  0  0  0  0
   -2.3847   -1.7696    3.9063 O   0  0  0  0  0  0  0  0  0  0  0  0
   -0.8792   -3.3388    3.2233 O   0  0  0  0  0  0  0  0  0  0  0  0
    1.3100    0.6474    2.7240 O   0  0  0  0  0  0  0  0  0  0  0  0
   -3.4482   -2.0373    0.8836 C   0  0  0  0  0  0  0  0  0  0  0  0
   -1.4437   -1.5852   -0.6225 C   0  0  0  0  0  0  0  0  0  0  0  0
   -1.1212   -4.3415    4.2154 C   0  0  2  0  0  0  0  0  0  0  0  0
   -0.2347   -5.4302    3.9400 O   0  0  0  0  0  0  0  0  0  0  0  0
   -0.1511   -6.6158    4.6120 C   0  0  0  0  0  0  0  0  0  0  0  0
    0.8911   -7.5924    4.2008 C   0  0  2  0  0  0  0  0  0  0  0  0
   -0.9426   -6.8705    5.5517 O   0  0  0  0  0  0  0  0  0  0  0  0
    0.2741   -8.8094    3.7837 N   0  0  0  0  0  0  0  0  0  0  0  0
   -0.2302   -9.8364    4.6179 C   0  0  2  0  0  0  0  0  0  0  0  0
    1.0508   -9.6230    5.9080 S   0  0  1  0  0  0  0  0  0  0  0  0
    1.9024   -8.0960    5.3018 C   0  0  2  0  0  0  0  0  0  0  0  0
    0.3395   -9.5330    2.6722 C   0  0  0  0  0  0  0  0  0  0  0  0
   -0.0801  -10.7478    3.3622 C   0  0  2  0  0  0  0  0  0  0  0  0
    0.7756   -9.3056    1.5217 O   0  0  0  0  0  0  0  0  0  0  0  0
    2.1781   -7.0779    6.4476 C   0  0  0  0  0  0  0  0  0  0  0  0
    3.2607   -8.5121    4.6477 C   0  0  0  0  0  0  0  0  0  0  0  0
   -1.2542   -9.6414    4.9469 H   0  0  0  0  0  0  0  0  0  0  0  0
   -2.5930    1.1869    2.9986 H   0  0  0  0  0  0  0  0  0  0  0  0
   -0.6956    2.8028    3.0709 H   0  0  0  0  0  0  0  0  0  0  0  0
    0.3392   -9.3676    7.3212 O   0  0  0  0  0  0  0  0  0  0  0  0
    2.0158  -10.9007    5.9658 O   0  0  0  0  0  0  0  0  0  0  0  0
    3.8184    4.2926   -1.4669 H   0  0  0  0  0  0  0  0  0  0  0  0
    5.7480    2.9112   -1.8843 H   0  0  0  0  0  0  0  0  0  0  0  0
    5.6062    0.4998   -1.6389 H   0  0  0  0  0  0  0  0  0  0  0  0
    3.4872   -0.5386   -1.0613 H   0  0  0  0  0  0  0  0  0  0  0  0
    1.5367    0.8258   -0.6665 H   0  0  0  0  0  0  0  0  0  0  0  0
    1.5689    4.6148   -0.7494 H   0  0  0  0  0  0  0  0  0  0  0  0
   -0.0033    2.3321   -1.6122 H   0  0  0  0  0  0  0  0  0  0  0  0
    0.6480    3.4841   -2.5815 H   0  0  0  0  0  0  0  0  0  0  0  0
   -0.8760    2.4988    0.2320 H   0  0  0  0  0  0  0  0  0  0  0  0
   -0.1590   -1.6322    1.5960 H   0  0  0  0  0  0  0  0  0  0  0  0
   -4.1067   -1.9051    0.0229 H   0  0  0  0  0  0  0  0  0  0  0  0
   -3.2119   -3.0986    0.9711 H   0  0  0  0  0  0  0  0  0  0  0  0
   -3.9995   -1.7292    1.7733 H   0  0  0  0  0  0  0  0  0  0  0  0
   -1.1606   -2.6391   -0.6141 H   0  0  0  0  0  0  0  0  0  0  0  0
   -0.5412   -0.9888   -0.7752 H   0  0  0  0  0  0  0  0  0  0  0  0
   -2.1073   -1.4166   -1.4739 H   0  0  0  0  0  0  0  0  0  0  0  0
   -2.1595   -4.6799    4.1613 H   0  0  0  0  0  0  0  0  0  0  0  0
   -0.9143   -3.9437    5.2112 H   0  0  0  0  0  0  0  0  0  0  0  0
    1.4466   -7.1544    3.3637 H   0  0  0  0  0  0  0  0  0  0  0  0
   -1.0226  -11.1497    2.9849 H   0  0  0  0  0  0  0  0  0  0  0  0
    0.7183  -11.4881    3.4482 H   0  0  0  0  0  0  0  0  0  0  0  0
    1.2634   -6.8138    6.9763 H   0  0  0  0  0  0  0  0  0  0  0  0
    2.8686   -7.5016    7.1777 H   0  0  0  0  0  0  0  0  0  0  0  0
    2.6119   -6.1617    6.0432 H   0  0  0  0  0  0  0  0  0  0  0  0
    3.7666   -7.6438    4.2209 H   0  0  0  0  0  0  0  0  0  0  0  0
    3.1127   -9.2394    3.8460 H   0  0  0  0  0  0  0  0  0  0  0  0
    3.9231   -8.9609    5.3901 H   0  0  0  0  0  0  0  0  0  0  0  0
  1  2  2  0  0  0  0 
  1  6  1  0  0  0  0 
  2  3  1  0  0  0  0 
  3  4  2  0  0  0  0 
  4  5  1  0  0  0  0 
  5  6  2  0  0  0  0 
  6  7  1  0  0  0  0 
  7  8  1  0  0  0  0 
  7  9  1  0  0  0  0 
  9 10  1  0  0  0  0 
  9 11  2  0  0  0  0 
 10 12  1  0  0  0  0 
 13 14  1  0  0  0  0 
 15 13  1  0  0  0  0 
 14 12  1  0  0  0  0 
 12 15  1  0  0  0  0 
 16 17  1  0  0  0  0 
 17 18  1  0  0  0  0 
 15 16  1  0  0  0  0 
 13 18  1  0  0  0  0 
 18 19  1  0  0  0  0 
 19 20  2  0  0  0  0 
 19 21  1  0  0  0  0 
 14 22  2  0  0  0  0 
 17 23  1  0  0  0  0 
 17 24  1  0  0  0  0 
 21 25  1  0  0  0  0 
 25 26  1  0  0  0  0 
 26 27  1  0  0  0  0 
 28 27  1  0  0  0  0 
 27 29  2  0  0  0  0 
 30 31  1  0  0  0  0 
 31 32  1  0  0  0  0 
 32 33  1  0  0  0  0 
 28 30  1  0  0  0  0 
 28 33  1  0  0  0  0 
 34 35  1  0  0  0  0 
 30 34  1  0  0  0  0 
 35 31  1  0  0  0  0 
 34 36  2  0  0  0  0 
 33 37  1  0  0  0  0 
 33 38  1  0  0  0  0 
 31 39  1  0  0  0  0 
 15 40  1  0  0  0  0 
 12 41  1  0  0  0  0 
 32 42  2  0  0  0  0 
 32 43  2  0  0  0  0 
  1 44  1  0  0  0  0 
  2 45  1  0  0  0  0 
  3 46  1  0  0  0  0 
  4 47  1  0  0  0  0 
  5 48  1  0  0  0  0 
  7 49  1  0  0  0  0 
  8 50  1  0  0  0  0 
  8 51  1  0  0  0  0 
 10 52  1  0  0  0  0 
 18 53  1  0  0  0  0 
 23 54  1  0  0  0  0 
 23 55  1  0  0  0  0 
 23 56  1  0  0  0  0 
 24 57  1  0  0  0  0 
 24 58  1  0  0  0  0 
 24 59  1  0  0  0  0 
 25 60  1  0  0  0  0 
 25 61  1  0  0  0  0 
 28 62  1  0  0  0  0 
 35 63  1  0  0  0  0 
 35 64  1  0  0  0  0 
 37 65  1  0  0  0  0 
 37 66  1  0  0  0  0 
 37 67  1  0  0  0  0 
 38 68  1  0  0  0  0 
 38 69  1  0  0  0  0 
 38 70  1  0  0  0  0 
M  END
> <cdk:Title>
sultamicillin

> <Conformer>
1

> <SuperDrugID>
SD002284

$$$$
