norgestrienone
  CDK     0628171801

 44 47  0  0  0  0  0  0  0  0999 V2000
   -7.4386    0.6478   -0.1754 C   0  0  0  0  0  0  0  0  0  0  0  0
   -7.0144   -0.0799    1.1567 C   0  0  2  0  0  0  0  0  0  0  0  0
   -6.3088   -1.4592    0.9569 C   0  0  2  0  0  0  0  0  0  0  0  0
   -8.2851   -0.5367    1.9708 C   0  0  1  0  0  0  0  0  0  0  0  0
   -6.0448    0.8080    1.8087 C   0  0  0  0  0  0  0  0  0  0  0  0
   -4.9864   -1.2921    0.1427 C   0  0  1  0  0  0  0  0  0  0  0  0
   -7.4388   -2.4068    0.5048 C   0  0  1  0  0  0  0  0  0  0  0  0
   -8.0233   -0.7062    3.3219 C   0  0  0  0  0  0  0  0  0  0  0  0
   -9.3655    0.4011    1.9012 O   0  0  0  0  0  0  0  0  0  0  0  0
   -8.6819   -1.8901    1.2850 C   0  0  1  0  0  0  0  0  0  0  0  0
   -4.7173    0.7167    1.5809 C   0  0  0  0  0  0  0  0  0  0  0  0
   -4.1153   -0.2296    0.7405 C   0  0  0  0  0  0  0  0  0  0  0  0
   -4.2145   -2.6342    0.0515 C   0  0  1  0  0  0  0  0  0  0  0  0
   -7.7519   -0.8525    4.4761 C   0  0  0  0  0  0  0  0  0  0  0  0
   -2.7765   -0.2137    0.4420 C   0  0  0  0  0  0  0  0  0  0  0  0
   -2.9206   -2.4125   -0.7639 C   0  0  1  0  0  0  0  0  0  0  0  0
   -2.2198   -1.1633   -0.4294 C   0  0  0  0  0  0  0  0  0  0  0  0
   -1.8744    0.8251    1.0051 C   0  0  2  0  0  0  0  0  0  0  0  0
   -1.0246   -0.9629   -1.0312 C   0  0  0  0  0  0  0  0  0  0  0  0
   -0.3824    0.7846    0.5646 C   0  0  1  0  0  0  0  0  0  0  0  0
   -0.2277    0.1243   -0.7437 C   0  0  0  0  0  0  0  0  0  0  0  0
    0.6505    0.5038   -1.5528 O   0  0  0  0  0  0  0  0  0  0  0  0
   -8.1047    0.0329   -0.7798 H   0  0  0  0  0  0  0  0  0  0  0  0
   -7.9625    1.5781    0.0511 H   0  0  0  0  0  0  0  0  0  0  0  0
   -6.5802    0.9093   -0.7954 H   0  0  0  0  0  0  0  0  0  0  0  0
   -5.9857   -1.8440    1.9369 H   0  0  0  0  0  0  0  0  0  0  0  0
   -6.3907    1.5167    2.4171 H   0  0  0  0  0  0  0  0  0  0  0  0
   -5.2418   -0.9975   -0.8809 H   0  0  0  0  0  0  0  0  0  0  0  0
   -7.5916   -2.3389   -0.5765 H   0  0  0  0  0  0  0  0  0  0  0  0
   -7.2105   -3.4454    0.7645 H   0  0  0  0  0  0  0  0  0  0  0  0
  -10.1229   -0.0407    2.3421 H   0  0  0  0  0  0  0  0  0  0  0  0
   -9.0184   -2.6414    2.0086 H   0  0  0  0  0  0  0  0  0  0  0  0
   -9.5018   -1.7313    0.5781 H   0  0  0  0  0  0  0  0  0  0  0  0
   -4.1631    1.3807    2.0682 H   0  0  0  0  0  0  0  0  0  0  0  0
   -3.9546   -2.9820    1.0564 H   0  0  0  0  0  0  0  0  0  0  0  0
   -4.8272   -3.4017   -0.4326 H   0  0  0  0  0  0  0  0  0  0  0  0
   -7.5281   -0.9694    5.3620 H   0  0  0  0  0  0  0  0  0  0  0  0
   -2.2655   -3.2738   -0.5957 H   0  0  0  0  0  0  0  0  0  0  0  0
   -3.1788   -2.3926   -1.8275 H   0  0  0  0  0  0  0  0  0  0  0  0
   -1.8862    0.7559    2.0975 H   0  0  0  0  0  0  0  0  0  0  0  0
   -2.2654    1.8079    0.7236 H   0  0  0  0  0  0  0  0  0  0  0  0
   -0.6837   -1.6169   -1.7008 H   0  0  0  0  0  0  0  0  0  0  0  0
    0.0252    1.7997    0.5296 H   0  0  0  0  0  0  0  0  0  0  0  0
    0.2031    0.2135    1.2919 H   0  0  0  0  0  0  0  0  0  0  0  0
  2  1  1  0  0  0  0 
  2  3  1  0  0  0  0 
  2  4  1  0  0  0  0 
  2  5  1  0  0  0  0 
  3  6  1  0  0  0  0 
  3  7  1  0  0  0  0 
  4  8  1  0  0  0  0 
  4  9  1  0  0  0  0 
  4 10  1  0  0  0  0 
  5 11  2  0  0  0  0 
  6 12  1  0  0  0  0 
  6 13  1  0  0  0  0 
  7 10  1  0  0  0  0 
  8 14  3  0  0  0  0 
 11 12  1  0  0  0  0 
 12 15  2  0  0  0  0 
 13 16  1  0  0  0  0 
 15 17  1  0  0  0  0 
 15 18  1  0  0  0  0 
 16 17  1  0  0  0  0 
 17 19  2  0  0  0  0 
 18 20  1  0  0  0  0 
 19 21  1  0  0  0  0 
 20 21  1  0  0  0  0 
 21 22  2  0  0  0  0 
 23  1  1  0  0  0  0 
 24  1  1  0  0  0  0 
 25  1  1  0  0  0  0 
  3 26  1  0  0  0  0 
 27  5  1  0  0  0  0 
  6 28  1  0  0  0  0 
 29  7  1  0  0  0  0 
 30  7  1  0  0  0  0 
 31  9  1  0  0  0  0 
 32 10  1  0  0  0  0 
 33 10  1  0  0  0  0 
 34 11  1  0  0  0  0 
 35 13  1  0  0  0  0 
 36 13  1  0  0  0  0 
 37 14  1  0  0  0  0 
 38 16  1  0  0  0  0 
 39 16  1  0  0  0  0 
 40 18  1  0  0  0  0 
 41 18  1  0  0  0  0 
 42 19  1  0  0  0  0 
 43 20  1  0  0  0  0 
 44 20  1  0  0  0  0 
M  END
> <cdk:Title>
norgestrienone

> <Conformer>
1

> <SuperDrugID>
SD002773

$$$$
