methylrosaniline
  CDK     0628171802

 60 62  0  0  0  0  0  0  0  0999 V2000
    2.2606    3.7960    0.3469 C   0  0  1  0  0  0  0  0  0  0  0  0
    0.9717    4.1075   -0.2181 O   0  0  0  0  0  0  0  0  0  0  0  0
    3.2823    4.3758   -0.6140 C   0  0  0  0  0  0  0  0  0  0  0  0
    2.2283    4.4840    1.7006 C   0  0  0  0  0  0  0  0  0  0  0  0
    2.3884    2.2860    0.4353 C   0  0  0  0  0  0  0  0  0  0  0  0
    4.3945    5.1416   -0.1722 C   0  0  0  0  0  0  0  0  0  0  0  0
    3.1721    4.1495   -2.0128 C   0  0  0  0  0  0  0  0  0  0  0  0
    1.8220    5.8440    1.7820 C   0  0  0  0  0  0  0  0  0  0  0  0
    2.6063    3.8550    2.9178 C   0  0  0  0  0  0  0  0  0  0  0  0
    3.6524    1.6410    0.4643 C   0  0  0  0  0  0  0  0  0  0  0  0
    1.2440    1.4539    0.5434 C   0  0  0  0  0  0  0  0  0  0  0  0
    5.3135    5.7003   -1.0757 C   0  0  0  0  0  0  0  0  0  0  0  0
    4.1005    4.6925   -2.9213 C   0  0  0  0  0  0  0  0  0  0  0  0
    1.7637    6.5290    3.0094 C   0  0  0  0  0  0  0  0  0  0  0  0
    2.5403    4.5328    4.1507 C   0  0  0  0  0  0  0  0  0  0  0  0
    3.7638    0.2387    0.5412 C   0  0  0  0  0  0  0  0  0  0  0  0
    1.3524    0.0519    0.6066 C   0  0  0  0  0  0  0  0  0  0  0  0
    5.1715    5.4863   -2.4616 C   0  0  0  0  0  0  0  0  0  0  0  0
    2.1129    5.8763    4.2083 C   0  0  0  0  0  0  0  0  0  0  0  0
    2.6154   -0.5830    0.6118 C   0  0  0  0  0  0  0  0  0  0  0  0
    6.0622    6.0570   -3.3364 N   0  0  0  0  0  0  0  0  0  0  0  0
    2.0232    6.5339    5.4088 N   0  0  0  0  0  0  0  0  0  0  0  0
    2.7250   -1.9603    0.7002 N   0  0  0  0  0  0  0  0  0  0  0  0
    5.6281    7.0573   -4.2778 C   0  0  0  0  0  0  0  0  0  0  0  0
    7.4566    5.6985   -3.2875 C   0  0  0  0  0  0  0  0  0  0  0  0
    3.2119    6.8016    6.1742 C   0  0  0  0  0  0  0  0  0  0  0  0
    0.7379    6.9167    5.9340 C   0  0  0  0  0  0  0  0  0  0  0  0
    2.0143   -2.7077    1.7092 C   0  0  0  0  0  0  0  0  0  0  0  0
    3.5508   -2.7102   -0.2153 C   0  0  0  0  0  0  0  0  0  0  0  0
    0.9118    3.6117   -1.0598 H   0  0  0  0  0  0  0  0  0  0  0  0
    4.5527    5.3104    0.8224 H   0  0  0  0  0  0  0  0  0  0  0  0
    2.4044    3.5885   -2.3876 H   0  0  0  0  0  0  0  0  0  0  0  0
    1.5587    6.3550    0.9350 H   0  0  0  0  0  0  0  0  0  0  0  0
    2.9361    2.8889    2.9309 H   0  0  0  0  0  0  0  0  0  0  0  0
    4.5142    2.1903    0.4351 H   0  0  0  0  0  0  0  0  0  0  0  0
    0.3063    1.8614    0.5837 H   0  0  0  0  0  0  0  0  0  0  0  0
    6.0838    6.2734   -0.7200 H   0  0  0  0  0  0  0  0  0  0  0  0
    3.9960    4.5079   -3.9219 H   0  0  0  0  0  0  0  0  0  0  0  0
    1.4687    7.5093    3.0262 H   0  0  0  0  0  0  0  0  0  0  0  0
    2.7981    4.0374    5.0115 H   0  0  0  0  0  0  0  0  0  0  0  0
    4.6968   -0.1827    0.5554 H   0  0  0  0  0  0  0  0  0  0  0  0
    0.4939   -0.5025    0.6503 H   0  0  0  0  0  0  0  0  0  0  0  0
    6.1470    7.9957   -4.0722 H   0  0  0  0  0  0  0  0  0  0  0  0
    4.5537    7.2537   -4.2249 H   0  0  0  0  0  0  0  0  0  0  0  0
    5.8613    6.7423   -5.2968 H   0  0  0  0  0  0  0  0  0  0  0  0
    7.8717    5.6094   -4.2934 H   0  0  0  0  0  0  0  0  0  0  0  0
    8.0126    6.4665   -2.7463 H   0  0  0  0  0  0  0  0  0  0  0  0
    7.6161    4.7408   -2.7860 H   0  0  0  0  0  0  0  0  0  0  0  0
    3.1391    7.7593    6.6939 H   0  0  0  0  0  0  0  0  0  0  0  0
    3.3519    6.0120    6.9141 H   0  0  0  0  0  0  0  0  0  0  0  0
    4.1022    6.8454    5.5420 H   0  0  0  0  0  0  0  0  0  0  0  0
    0.5605    6.3810    6.8677 H   0  0  0  0  0  0  0  0  0  0  0  0
   -0.0873    6.6842    5.2545 H   0  0  0  0  0  0  0  0  0  0  0  0
    0.7108    7.9900    6.1336 H   0  0  0  0  0  0  0  0  0  0  0  0
    2.7099   -3.3146    2.2941 H   0  0  0  0  0  0  0  0  0  0  0  0
    1.4810   -2.0625    2.4099 H   0  0  0  0  0  0  0  0  0  0  0  0
    1.2869   -3.3724    1.2379 H   0  0  0  0  0  0  0  0  0  0  0  0
    2.9564   -3.4777   -0.7168 H   0  0  0  0  0  0  0  0  0  0  0  0
    4.3628   -3.2017    0.3264 H   0  0  0  0  0  0  0  0  0  0  0  0
    3.9901   -2.0819   -0.9931 H   0  0  0  0  0  0  0  0  0  0  0  0
  1  2  1  0  0  0  0 
  1  3  1  0  0  0  0 
  1  4  1  0  0  0  0 
  1  5  1  0  0  0  0 
  3  6  2  0  0  0  0 
  3  7  1  0  0  0  0 
  4  8  2  0  0  0  0 
  4  9  1  0  0  0  0 
  5 10  2  0  0  0  0 
  5 11  1  0  0  0  0 
  6 12  1  0  0  0  0 
  7 13  2  0  0  0  0 
  8 14  1  0  0  0  0 
  9 15  2  0  0  0  0 
 10 16  1  0  0  0  0 
 11 17  2  0  0  0  0 
 12 18  2  0  0  0  0 
 13 18  1  0  0  0  0 
 14 19  2  0  0  0  0 
 15 19  1  0  0  0  0 
 16 20  2  0  0  0  0 
 17 20  1  0  0  0  0 
 18 21  1  0  0  0  0 
 19 22  1  0  0  0  0 
 20 23  1  0  0  0  0 
 21 24  1  0  0  0  0 
 21 25  1  0  0  0  0 
 22 26  1  0  0  0  0 
 22 27  1  0  0  0  0 
 23 28  1  0  0  0  0 
 23 29  1  0  0  0  0 
  2 30  1  0  0  0  0 
  6 31  1  0  0  0  0 
  7 32  1  0  0  0  0 
  8 33  1  0  0  0  0 
  9 34  1  0  0  0  0 
 10 35  1  0  0  0  0 
 11 36  1  0  0  0  0 
 12 37  1  0  0  0  0 
 13 38  1  0  0  0  0 
 14 39  1  0  0  0  0 
 15 40  1  0  0  0  0 
 16 41  1  0  0  0  0 
 17 42  1  0  0  0  0 
 24 43  1  0  0  0  0 
 24 44  1  0  0  0  0 
 24 45  1  0  0  0  0 
 25 46  1  0  0  0  0 
 25 47  1  0  0  0  0 
 25 48  1  0  0  0  0 
 26 49  1  0  0  0  0 
 26 50  1  0  0  0  0 
 26 51  1  0  0  0  0 
 27 52  1  0  0  0  0 
 27 53  1  0  0  0  0 
 27 54  1  0  0  0  0 
 28 55  1  0  0  0  0 
 28 56  1  0  0  0  0 
 28 57  1  0  0  0  0 
 29 58  1  0  0  0  0 
 29 59  1  0  0  0  0 
 29 60  1  0  0  0  0 
M  END
> <cdk:Title>
methylrosaniline

> <Conformer>
1

> <SuperDrugID>
SD003701

$$$$
