tolpropamine
  CDK     0628171801

 42 43  0  0  0  0  0  0  0  0999 V2000
    0.3869    2.2675    0.9304 C   0  0  1  0  0  0  0  0  0  0  0  0
    0.0000    1.2827   -0.2229 C   0  0  2  0  0  0  0  0  0  0  0  0
    0.5445    3.7054    0.5212 C   0  0  0  0  0  0  0  0  0  0  0  0
   -0.5036    2.1466    2.1321 C   0  0  0  0  0  0  0  0  0  0  0  0
    0.1391   -0.2280    0.1349 C   0  0  2  0  0  0  0  0  0  0  0  0
   -0.2745    4.3310   -0.4528 C   0  0  0  0  0  0  0  0  0  0  0  0
    1.5485    4.4905    1.1388 C   0  0  0  0  0  0  0  0  0  0  0  0
   -0.0007    1.6162    3.3477 C   0  0  0  0  0  0  0  0  0  0  0  0
   -1.8635    2.5488    2.0941 C   0  0  0  0  0  0  0  0  0  0  0  0
    1.4433   -0.6154    0.7673 N   0  0  2  0  0  0  0  0  0  0  0  0
   -0.0791    5.6792   -0.8084 C   0  0  0  0  0  0  0  0  0  0  0  0
    1.7467    5.8340    0.7846 C   0  0  0  0  0  0  0  0  0  0  0  0
   -0.8269    1.4810    4.4774 C   0  0  0  0  0  0  0  0  0  0  0  0
   -2.6879    2.4232    3.2275 C   0  0  0  0  0  0  0  0  0  0  0  0
    2.6205   -0.5345   -0.1451 C   0  0  0  0  0  0  0  0  0  0  0  0
    1.3893   -1.9414    1.4497 C   0  0  0  0  0  0  0  0  0  0  0  0
    0.9366    6.4449   -0.1945 C   0  0  0  0  0  0  0  0  0  0  0  0
   -2.1698    1.8903    4.4205 C   0  0  0  0  0  0  0  0  0  0  0  0
    1.1309    7.8733   -0.5332 C   0  0  0  0  0  0  0  0  0  0  0  0
    1.3934    1.9426    1.2102 H   0  0  0  0  0  0  0  0  0  0  0  0
    0.6308    1.4887   -1.0924 H   0  0  0  0  0  0  0  0  0  0  0  0
   -1.0355    1.4572   -0.5330 H   0  0  0  0  0  0  0  0  0  0  0  0
   -0.0217   -0.8232   -0.7698 H   0  0  0  0  0  0  0  0  0  0  0  0
   -0.6785   -0.4603    0.8220 H   0  0  0  0  0  0  0  0  0  0  0  0
   -1.0256    3.8149   -0.9125 H   0  0  0  0  0  0  0  0  0  0  0  0
    2.1501    4.0878    1.8617 H   0  0  0  0  0  0  0  0  0  0  0  0
    0.9767    1.3190    3.4223 H   0  0  0  0  0  0  0  0  0  0  0  0
   -2.2678    2.9400    1.2403 H   0  0  0  0  0  0  0  0  0  0  0  0
   -0.6891    6.1000   -1.5144 H   0  0  0  0  0  0  0  0  0  0  0  0
    2.4837    6.3644    1.2572 H   0  0  0  0  0  0  0  0  0  0  0  0
   -0.4485    1.0872    5.3414 H   0  0  0  0  0  0  0  0  0  0  0  0
   -3.6647    2.7217    3.1849 H   0  0  0  0  0  0  0  0  0  0  0  0
    2.5667   -1.2853   -0.9365 H   0  0  0  0  0  0  0  0  0  0  0  0
    2.6964    0.4461   -0.6091 H   0  0  0  0  0  0  0  0  0  0  0  0
    3.5422   -0.6844    0.4176 H   0  0  0  0  0  0  0  0  0  0  0  0
    2.3101   -2.1211    2.0075 H   0  0  0  0  0  0  0  0  0  0  0  0
    0.5700   -1.9739    2.1681 H   0  0  0  0  0  0  0  0  0  0  0  0
    1.2532   -2.7531    0.7309 H   0  0  0  0  0  0  0  0  0  0  0  0
   -2.7683    1.8010    5.2457 H   0  0  0  0  0  0  0  0  0  0  0  0
    2.1622    8.1861   -0.3544 H   0  0  0  0  0  0  0  0  0  0  0  0
    0.9020    8.0663   -1.5825 H   0  0  0  0  0  0  0  0  0  0  0  0
    0.4710    8.4769    0.0914 H   0  0  0  0  0  0  0  0  0  0  0  0
  1  2  1  0  0  0  0 
  1  3  1  0  0  0  0 
  1  4  1  0  0  0  0 
  2  5  1  0  0  0  0 
  3  6  2  0  0  0  0 
  3  7  1  0  0  0  0 
  4  8  2  0  0  0  0 
  4  9  1  0  0  0  0 
  5 10  1  0  0  0  0 
  6 11  1  0  0  0  0 
  7 12  2  0  0  0  0 
  8 13  1  0  0  0  0 
  9 14  2  0  0  0  0 
 10 15  1  0  0  0  0 
 10 16  1  0  0  0  0 
 11 17  2  0  0  0  0 
 12 17  1  0  0  0  0 
 13 18  2  0  0  0  0 
 14 18  1  0  0  0  0 
 17 19  1  0  0  0  0 
  1 20  1  0  0  0  0 
  2 21  1  0  0  0  0 
  2 22  1  0  0  0  0 
  5 23  1  0  0  0  0 
  5 24  1  0  0  0  0 
  6 25  1  0  0  0  0 
  7 26  1  0  0  0  0 
  8 27  1  0  0  0  0 
  9 28  1  0  0  0  0 
 11 29  1  0  0  0  0 
 12 30  1  0  0  0  0 
 13 31  1  0  0  0  0 
 14 32  1  0  0  0  0 
 15 33  1  0  0  0  0 
 15 34  1  0  0  0  0 
 15 35  1  0  0  0  0 
 16 36  1  0  0  0  0 
 16 37  1  0  0  0  0 
 16 38  1  0  0  0  0 
 18 39  1  0  0  0  0 
 19 40  1  0  0  0  0 
 19 41  1  0  0  0  0 
 19 42  1  0  0  0  0 
M  END
> <cdk:Title>
tolpropamine

> <Conformer>
1

> <SuperDrugID>
SD003099

$$$$
