trengestone
  CDK     0628171801

 49 52  0  0  0  0  0  0  0  0999 V2000
   -1.7915   -1.7922    1.2697 C   0  0  0  0  0  0  0  0  0  0  0  0
   -2.6189   -0.6194    0.6219 C   0  0  2  0  0  0  0  0  0  0  0  0
   -4.1674   -0.9560    0.3977 C   0  0  1  0  0  0  0  0  0  0  0  0
   -2.0188   -0.3292   -0.7173 C   0  0  0  0  0  0  0  0  0  0  0  0
   -2.4975    0.5272    1.5555 C   0  0  0  0  0  0  0  0  0  0  0  0
   -4.5330   -1.4683   -1.0702 C   0  0  2  0  0  0  0  0  0  0  0  0
   -4.8055   -1.8537    1.5183 C   0  0  1  0  0  0  0  0  0  0  0  0
   -2.1586   -1.2970   -1.6749 C   0  0  0  0  0  0  0  0  0  0  0  0
   -1.4270    0.8538   -0.9928 C   0  0  0  0  0  0  0  0  0  0  0  0
   -1.8964    1.6804    1.2233 C   0  0  0  0  0  0  0  0  0  0  0  0
   -5.6923   -2.5245   -1.0592 C   0  0  1  0  0  0  0  0  0  0  0  0
   -3.3532   -1.8971   -1.8276 C   0  0  0  0  0  0  0  0  0  0  0  0
   -6.3459   -2.0846    1.3648 C   0  0  2  0  0  0  0  0  0  0  0  0
   -0.8549   -1.7893   -2.5950 Cl  0  0  0  0  0  0  0  0  0  0  0  0
   -1.3487    1.8550   -0.0363 C   0  0  0  0  0  0  0  0  0  0  0  0
   -6.8783   -2.1081   -0.1225 C   0  0  1  0  0  0  0  0  0  0  0  0
   -6.3557   -2.9462   -2.3931 C   0  0  1  0  0  0  0  0  0  0  0  0
   -0.7881    2.9392   -0.3192 O   0  0  0  0  0  0  0  0  0  0  0  0
   -7.5028   -0.7045   -0.4899 C   0  0  0  0  0  0  0  0  0  0  0  0
   -7.8859   -3.2703   -0.4535 C   0  0  2  0  0  0  0  0  0  0  0  0
   -7.7620   -3.4629   -1.9939 C   0  0  2  0  0  0  0  0  0  0  0  0
   -9.2958   -3.1279    0.0262 C   0  0  0  0  0  0  0  0  0  0  0  0
   -9.8297   -3.9499    1.1332 C   0  0  0  0  0  0  0  0  0  0  0  0
  -10.0666   -2.2940   -0.5083 O   0  0  0  0  0  0  0  0  0  0  0  0
   -4.9013   -0.6050   -1.6359 H   0  0  0  0  0  0  0  0  0  0  0  0
   -4.6949    0.0002    0.4947 H   0  0  0  0  0  0  0  0  0  0  0  0
   -5.2446   -3.4471   -0.6618 H   0  0  0  0  0  0  0  0  0  0  0  0
   -2.1263   -2.0083    2.2870 H   0  0  0  0  0  0  0  0  0  0  0  0
   -0.7278   -1.5438    1.3250 H   0  0  0  0  0  0  0  0  0  0  0  0
   -1.8888   -2.7138    0.6915 H   0  0  0  0  0  0  0  0  0  0  0  0
   -2.8879    0.4511    2.4678 H   0  0  0  0  0  0  0  0  0  0  0  0
   -4.3171   -2.8320    1.4935 H   0  0  0  0  0  0  0  0  0  0  0  0
   -4.6106   -1.4235    2.5051 H   0  0  0  0  0  0  0  0  0  0  0  0
   -1.0463    1.0332   -1.8961 H   0  0  0  0  0  0  0  0  0  0  0  0
   -1.8537    2.4209    1.8870 H   0  0  0  0  0  0  0  0  0  0  0  0
   -3.4448   -2.6270   -2.4960 H   0  0  0  0  0  0  0  0  0  0  0  0
   -6.8651   -1.3153    1.9420 H   0  0  0  0  0  0  0  0  0  0  0  0
   -6.5793   -3.0303    1.8588 H   0  0  0  0  0  0  0  0  0  0  0  0
   -6.4341   -2.0947   -3.0750 H   0  0  0  0  0  0  0  0  0  0  0  0
   -5.7787   -3.7363   -2.8825 H   0  0  0  0  0  0  0  0  0  0  0  0
   -7.8281   -0.6616   -1.5306 H   0  0  0  0  0  0  0  0  0  0  0  0
   -8.3681   -0.4906    0.1397 H   0  0  0  0  0  0  0  0  0  0  0  0
   -6.8040    0.1131   -0.3347 H   0  0  0  0  0  0  0  0  0  0  0  0
   -7.4925   -4.1907   -0.0022 H   0  0  0  0  0  0  0  0  0  0  0  0
   -7.8861   -4.5171   -2.2565 H   0  0  0  0  0  0  0  0  0  0  0  0
   -8.5198   -2.8894   -2.5358 H   0  0  0  0  0  0  0  0  0  0  0  0
   -9.1813   -3.8703    2.0073 H   0  0  0  0  0  0  0  0  0  0  0  0
   -9.8780   -4.9936    0.8191 H   0  0  0  0  0  0  0  0  0  0  0  0
  -10.8351   -3.6323    1.4218 H   0  0  0  0  0  0  0  0  0  0  0  0
  2  1  1  0  0  0  0 
  3  2  1  0  0  0  0 
  2  4  1  0  0  0  0 
  2  5  1  0  0  0  0 
  6  3  1  0  0  0  0 
  3  7  1  0  0  0  0 
  3 26  1  0  0  0  0 
  4  8  1  0  0  0  0 
  4  9  2  0  0  0  0 
  5 10  2  0  0  0  0 
 11  6  1  0  0  0  0 
  6 12  1  0  0  0  0 
  6 25  1  0  0  0  0 
  7 13  1  0  0  0  0 
  8 12  2  0  0  0  0 
  8 14  1  0  0  0  0 
  9 15  1  0  0  0  0 
 10 15  1  0  0  0  0 
 11 16  1  0  0  0  0 
 11 17  1  0  0  0  0 
 11 27  1  0  0  0  0 
 16 13  1  0  0  0  0 
 15 18  2  0  0  0  0 
 16 19  1  0  0  0  0 
 16 20  1  0  0  0  0 
 17 21  1  0  0  0  0 
 20 21  1  0  0  0  0 
 20 22  1  0  0  0  0 
 22 23  1  0  0  0  0 
 22 24  2  0  0  0  0 
  1 28  1  0  0  0  0 
  1 29  1  0  0  0  0 
  1 30  1  0  0  0  0 
  5 31  1  0  0  0  0 
  7 32  1  0  0  0  0 
  7 33  1  0  0  0  0 
  9 34  1  0  0  0  0 
 10 35  1  0  0  0  0 
 12 36  1  0  0  0  0 
 13 37  1  0  0  0  0 
 13 38  1  0  0  0  0 
 17 39  1  0  0  0  0 
 17 40  1  0  0  0  0 
 19 41  1  0  0  0  0 
 19 42  1  0  0  0  0 
 19 43  1  0  0  0  0 
 20 44  1  0  0  0  0 
 21 45  1  0  0  0  0 
 21 46  1  0  0  0  0 
 23 47  1  0  0  0  0 
 23 48  1  0  0  0  0 
 23 49  1  0  0  0  0 
M  END
> <cdk:Title>
trengestone

> <Conformer>
1

> <SuperDrugID>
SD003104

$$$$
