zotarolimus
  CDK     0628171801

148152  0  0  0  0  0  0  0  0999 V2000
   -4.6928   -6.5927    1.5366 O   0  0  0  0  0  0  0  0  0  0  0  0
   -5.8813   -6.6003    0.7225 C   0  0  0  0  0  0  0  0  0  0  0  0
   -4.7130   -5.7508    2.7148 C   0  0  1  0  0  0  0  0  0  0  0  0
   -3.6134   -6.2212    3.7224 C   0  0  2  0  0  0  0  0  0  0  0  0
   -4.5540   -4.2286    2.3887 C   0  0  2  0  0  0  0  0  0  0  0  0
   -2.1841   -5.8188    3.2569 C   0  0  2  0  0  0  0  0  0  0  0  0
   -3.6833   -7.6353    3.9907 N   0  0  0  0  0  0  0  0  0  0  0  0
   -3.1180   -3.7873    1.9439 C   0  0  1  0  0  0  0  0  0  0  0  0
   -2.0813   -4.2937    2.9972 C   0  0  2  0  0  0  0  0  0  0  0  0
   -3.9935   -8.2300    5.1512 C   0  0  0  0  0  0  0  0  0  0  0  0
   -3.4441   -8.5875    3.1447 N   0  0  0  0  0  0  0  0  0  0  0  0
   -2.8037   -4.1715    0.4568 C   0  0  1  0  0  0  0  0  0  0  0  0
   -3.9327   -9.5521    4.9663 N   0  0  0  0  0  0  0  0  0  0  0  0
   -3.5951   -9.7320    3.7314 N   0  0  0  0  0  0  0  0  0  0  0  0
   -1.4465   -3.7026   -0.1913 C   0  0  1  0  0  0  0  0  0  0  0  0
   -1.1393   -4.6132   -1.4254 C   0  0  0  0  0  0  0  0  0  0  0  0
   -1.3391   -2.1853   -0.6104 C   0  0  1  0  0  0  0  0  0  0  0  0
   -2.5085   -1.7587   -1.3384 O   0  0  0  0  0  0  0  0  0  0  0  0
   -1.0758   -1.1565    0.5354 C   0  0  1  0  0  0  0  0  0  0  0  0
   -2.6644   -1.6617   -2.6937 C   0  0  0  0  0  0  0  0  0  0  0  0
   -0.6191    0.1960    0.0944 C   0  0  0  0  0  0  0  0  0  0  0  0
   -1.7583   -2.0593   -3.4640 O   0  0  0  0  0  0  0  0  0  0  0  0
   -3.9595   -1.1863   -3.2575 C   0  0  1  0  0  0  0  0  0  0  0  0
   -0.3838    0.4051   -1.1198 O   0  0  0  0  0  0  0  0  0  0  0  0
   -0.4313    1.3450    1.0308 C   0  0  2  0  0  0  0  0  0  0  0  0
   -3.9263   -0.2531   -4.4010 N   0  0  0  0  0  0  0  0  0  0  0  0
   -4.7598   -2.4983   -3.5473 C   0  0  1  0  0  0  0  0  0  0  0  0
    0.7408    1.0988    2.0218 C   0  0  0  0  0  0  0  0  0  0  0  0
   -1.6745    1.7101    1.7196 C   0  0  0  0  0  0  0  0  0  0  0  0
   -2.8137    0.5383   -4.7136 C   0  0  0  0  0  0  0  0  0  0  0  0
   -5.1731   -0.0723   -5.1405 C   0  0  1  0  0  0  0  0  0  0  0  0
   -6.1333   -2.2201   -4.1906 C   0  0  2  0  0  0  0  0  0  0  0  0
   -2.7415    2.3583    1.1913 C   0  0  0  0  0  0  0  0  0  0  0  0
   -1.8318    0.6247   -3.9417 O   0  0  0  0  0  0  0  0  0  0  0  0
   -2.6498    1.3111   -5.8895 C   0  0  0  0  0  0  0  0  0  0  0  0
   -5.9455   -1.3715   -5.4621 C   0  0  2  0  0  0  0  0  0  0  0  0
   -2.7699    2.7519   -0.2239 C   0  0  0  0  0  0  0  0  0  0  0  0
   -3.9316    2.6700    2.0142 C   0  0  1  0  0  0  0  0  0  0  0  0
   -2.0268    0.7519   -6.8225 O   0  0  0  0  0  0  0  0  0  0  0  0
   -3.1639    2.7009   -6.1120 C   0  0  2  0  0  0  0  0  0  0  0  0
   -4.0693    1.8553    3.1845 O   0  0  0  0  0  0  0  0  0  0  0  0
   -4.0885    4.1825    2.4032 C   0  0  1  0  0  0  0  0  0  0  0  0
   -4.1312    2.5618   -7.1575 O   0  0  0  0  0  0  0  0  0  0  0  0
   -2.1437    3.5581   -6.7003 O   0  0  0  0  0  0  0  0  0  0  0  0
   -3.8575    3.3992   -4.8800 C   0  0  2  0  0  0  0  0  0  0  0  0
   -5.5016    4.3599    2.6935 O   0  0  0  0  0  0  0  0  0  0  0  0
   -3.2431    4.6021    3.5722 C   0  0  0  0  0  0  0  0  0  0  0  0
   -1.1137    4.1520   -5.8630 C   0  0  2  0  0  0  0  0  0  0  0  0
   -4.8859    4.5035   -5.2776 C   0  0  0  0  0  0  0  0  0  0  0  0
   -2.7769    3.9617   -3.9106 C   0  0  2  0  0  0  0  0  0  0  0  0
   -6.0169    5.7019    2.6127 C   0  0  0  0  0  0  0  0  0  0  0  0
   -3.8270    4.6672    4.6813 O   0  0  0  0  0  0  0  0  0  0  0  0
   -1.7585    4.8306    3.5629 C   0  0  2  0  0  0  0  0  0  0  0  0
    0.0540    3.1529   -5.5669 C   0  0  2  0  0  0  0  0  0  0  0  0
   -1.7704    4.8714   -4.6500 C   0  0  1  0  0  0  0  0  0  0  0  0
   -1.2454    5.6714    4.7710 C   0  0  0  0  0  0  0  0  0  0  0  0
   -1.1229    5.3809    2.2202 C   0  0  2  0  0  0  0  0  0  0  0  0
    1.4036    3.7362   -5.0054 C   0  0  2  0  0  0  0  0  0  0  0  0
   -1.1181    6.9012    1.7820 C   0  0  2  0  0  0  0  0  0  0  0  0
    2.5251    2.8291   -5.1563 O   0  0  0  0  0  0  0  0  0  0  0  0
    1.3576    4.0407   -3.5574 C   0  0  0  0  0  0  0  0  0  0  0  0
   -2.5598    7.6711    1.9303 C   0  0  0  0  0  0  0  0  0  0  0  0
   -0.6643    6.9246    0.2912 C   0  0  0  0  0  0  0  0  0  0  0  0
    3.0188    2.5685   -6.4827 C   0  0  0  0  0  0  0  0  0  0  0  0
    1.1235    2.9316   -2.6185 C   0  0  0  0  0  0  0  0  0  0  0  0
    1.5116    5.3170   -3.1177 C   0  0  0  0  0  0  0  0  0  0  0  0
    0.5739    7.2362   -0.2079 C   0  0  0  0  0  0  0  0  0  0  0  0
    1.3287    5.7364   -1.8325 C   0  0  0  0  0  0  0  0  0  0  0  0
    0.9105    6.9720   -1.4939 C   0  0  0  0  0  0  0  0  0  0  0  0
   -4.4854   -0.6551   -2.4563 H   0  0  0  0  0  0  0  0  0  0  0  0
   -0.4608   -2.1116   -1.2619 H   0  0  0  0  0  0  0  0  0  0  0  0
   -0.6760    4.9351   -6.4873 H   0  0  0  0  0  0  0  0  0  0  0  0
   -5.7958   -7.4167    0.0055 H   0  0  0  0  0  0  0  0  0  0  0  0
   -5.9798   -5.6684    0.1654 H   0  0  0  0  0  0  0  0  0  0  0  0
   -6.7818   -6.7672    1.3183 H   0  0  0  0  0  0  0  0  0  0  0  0
   -5.6725   -5.8841    3.2274 H   0  0  0  0  0  0  0  0  0  0  0  0
   -3.7983   -5.6871    4.6628 H   0  0  0  0  0  0  0  0  0  0  0  0
   -4.8117   -3.6702    3.2951 H   0  0  0  0  0  0  0  0  0  0  0  0
   -5.2836   -3.9284    1.6337 H   0  0  0  0  0  0  0  0  0  0  0  0
   -1.9137   -6.3632    2.3496 H   0  0  0  0  0  0  0  0  0  0  0  0
   -1.4624   -6.0936    4.0298 H   0  0  0  0  0  0  0  0  0  0  0  0
   -3.1165   -2.6998    1.9921 H   0  0  0  0  0  0  0  0  0  0  0  0
   -1.0617   -4.0438    2.7033 H   0  0  0  0  0  0  0  0  0  0  0  0
   -2.2612   -3.7726    3.9429 H   0  0  0  0  0  0  0  0  0  0  0  0
   -4.2352   -7.7681    6.0305 H   0  0  0  0  0  0  0  0  0  0  0  0
   -2.8460   -5.2597    0.4015 H   0  0  0  0  0  0  0  0  0  0  0  0
   -3.6165   -3.8060   -0.1755 H   0  0  0  0  0  0  0  0  0  0  0  0
   -0.6306   -3.9071    0.5048 H   0  0  0  0  0  0  0  0  0  0  0  0
   -1.9385   -4.5429   -2.1661 H   0  0  0  0  0  0  0  0  0  0  0  0
   -1.0414   -5.6577   -1.1189 H   0  0  0  0  0  0  0  0  0  0  0  0
   -0.1986   -4.3295   -1.9032 H   0  0  0  0  0  0  0  0  0  0  0  0
   -1.9950   -1.0171    1.0960 H   0  0  0  0  0  0  0  0  0  0  0  0
   -0.3233   -1.5664    1.2101 H   0  0  0  0  0  0  0  0  0  0  0  0
   -0.1052    2.2141    0.4530 H   0  0  0  0  0  0  0  0  0  0  0  0
   -4.1897   -3.1431   -4.2252 H   0  0  0  0  0  0  0  0  0  0  0  0
   -4.9245   -3.0522   -2.6166 H   0  0  0  0  0  0  0  0  0  0  0  0
    0.5051    0.3008    2.7290 H   0  0  0  0  0  0  0  0  0  0  0  0
    1.6501    0.8281    1.4813 H   0  0  0  0  0  0  0  0  0  0  0  0
    0.9426    2.0108    2.5884 H   0  0  0  0  0  0  0  0  0  0  0  0
   -1.7278    1.4420    2.6752 H   0  0  0  0  0  0  0  0  0  0  0  0
   -5.8205    0.5720   -4.5395 H   0  0  0  0  0  0  0  0  0  0  0  0
   -5.0365    0.4217   -6.1008 H   0  0  0  0  0  0  0  0  0  0  0  0
   -6.7780   -1.6934   -3.4811 H   0  0  0  0  0  0  0  0  0  0  0  0
   -6.6156   -3.1650   -4.4511 H   0  0  0  0  0  0  0  0  0  0  0  0
   -5.3968   -1.9461   -6.2138 H   0  0  0  0  0  0  0  0  0  0  0  0
   -6.9259   -1.1194   -5.8763 H   0  0  0  0  0  0  0  0  0  0  0  0
   -3.6374    3.3665   -0.4711 H   0  0  0  0  0  0  0  0  0  0  0  0
   -1.8898    3.3375   -0.4875 H   0  0  0  0  0  0  0  0  0  0  0  0
   -2.8078    1.8635   -0.8555 H   0  0  0  0  0  0  0  0  0  0  0  0
   -4.7984    2.3861    1.4067 H   0  0  0  0  0  0  0  0  0  0  0  0
   -4.9379    2.1010    3.5689 H   0  0  0  0  0  0  0  0  0  0  0  0
   -3.8448    4.7981    1.5330 H   0  0  0  0  0  0  0  0  0  0  0  0
   -3.6414    2.2159   -7.9338 H   0  0  0  0  0  0  0  0  0  0  0  0
   -4.4377    2.6619   -4.3208 H   0  0  0  0  0  0  0  0  0  0  0  0
   -4.4447    5.2254   -5.9671 H   0  0  0  0  0  0  0  0  0  0  0  0
   -5.7567    4.0553   -5.7607 H   0  0  0  0  0  0  0  0  0  0  0  0
   -5.2407    5.0371   -4.3924 H   0  0  0  0  0  0  0  0  0  0  0  0
   -2.2345    3.1411   -3.4418 H   0  0  0  0  0  0  0  0  0  0  0  0
   -3.2464    4.5263   -3.1010 H   0  0  0  0  0  0  0  0  0  0  0  0
   -7.0587    5.6865    2.9339 H   0  0  0  0  0  0  0  0  0  0  0  0
   -5.9812    6.0657    1.5843 H   0  0  0  0  0  0  0  0  0  0  0  0
   -5.4696    6.3873    3.2623 H   0  0  0  0  0  0  0  0  0  0  0  0
   -1.3374    3.8295    3.7053 H   0  0  0  0  0  0  0  0  0  0  0  0
    0.2731    2.6754   -6.5217 H   0  0  0  0  0  0  0  0  0  0  0  0
   -0.3038    2.3664   -4.9121 H   0  0  0  0  0  0  0  0  0  0  0  0
   -1.0260    5.2300   -3.9482 H   0  0  0  0  0  0  0  0  0  0  0  0
   -2.2972    5.7571   -5.0159 H   0  0  0  0  0  0  0  0  0  0  0  0
   -1.6995    6.6635    4.7723 H   0  0  0  0  0  0  0  0  0  0  0  0
   -1.4912    5.1772    5.7138 H   0  0  0  0  0  0  0  0  0  0  0  0
   -0.1595    5.7843    4.7311 H   0  0  0  0  0  0  0  0  0  0  0  0
   -1.5372    4.7999    1.4040 H   0  0  0  0  0  0  0  0  0  0  0  0
   -0.0679    5.0915    2.2519 H   0  0  0  0  0  0  0  0  0  0  0  0
    1.6279    4.6418   -5.5801 H   0  0  0  0  0  0  0  0  0  0  0  0
   -0.3915    7.4398    2.3956 H   0  0  0  0  0  0  0  0  0  0  0  0
   -3.3846    7.2530    1.3006 H   0  0  0  0  0  0  0  0  0  0  0  0
   -2.9853    7.6848    2.9655 H   0  0  0  0  0  0  0  0  0  0  0  0
   -2.5284    8.7537    1.6411 H   0  0  0  0  0  0  0  0  0  0  0  0
   -1.3172    6.6162   -0.4637 H   0  0  0  0  0  0  0  0  0  0  0  0
    4.0310    2.1761   -6.3911 H   0  0  0  0  0  0  0  0  0  0  0  0
    3.0564    3.4723   -7.0935 H   0  0  0  0  0  0  0  0  0  0  0  0
    2.4117    1.8124   -6.9820 H   0  0  0  0  0  0  0  0  0  0  0  0
    1.1079    1.9583   -3.1109 H   0  0  0  0  0  0  0  0  0  0  0  0
    0.1679    3.0680   -2.1101 H   0  0  0  0  0  0  0  0  0  0  0  0
    1.9244    2.8876   -1.8773 H   0  0  0  0  0  0  0  0  0  0  0  0
    1.7235    6.0230   -3.7878 H   0  0  0  0  0  0  0  0  0  0  0  0
    1.2690    7.5892    0.4053 H   0  0  0  0  0  0  0  0  0  0  0  0
    1.4605    5.0752   -1.0987 H   0  0  0  0  0  0  0  0  0  0  0  0
    0.7813    7.6836   -2.1788 H   0  0  0  0  0  0  0  0  0  0  0  0
  1  2  1  0  0  0  0 
  3  1  1  0  0  0  0 
  4  3  1  0  0  0  0 
  3  5  1  0  0  0  0 
  4  6  1  0  0  0  0 
  4  7  1  0  0  0  0 
  8  5  1  0  0  0  0 
  6  9  1  0  0  0  0 
  7 10  1  0  0  0  0 
  7 11  1  0  0  0  0 
  8  9  1  0  0  0  0 
  8 12  1  0  0  0  0 
 10 13  2  0  0  0  0 
 11 14  2  0  0  0  0 
 15 12  1  0  0  0  0 
 13 14  1  0  0  0  0 
 15 16  1  0  0  0  0 
 17 15  1  0  0  0  0 
 17 18  1  0  0  0  0 
 17 19  1  0  0  0  0 
 17 71  1  0  0  0  0 
 18 20  1  0  0  0  0 
 19 21  1  0  0  0  0 
 20 22  2  0  0  0  0 
 23 20  1  0  0  0  0 
 21 24  2  0  0  0  0 
 25 21  1  0  0  0  0 
 23 26  1  0  0  0  0 
 23 27  1  0  0  0  0 
 23 70  1  0  0  0  0 
 25 28  1  0  0  0  0 
 25 29  1  0  0  0  0 
 26 30  1  0  0  0  0 
 26 31  1  0  0  0  0 
 27 32  1  0  0  0  0 
 29 33  2  0  0  0  0 
 30 34  2  0  0  0  0 
 30 35  1  0  0  0  0 
 31 36  1  0  0  0  0 
 32 36  1  0  0  0  0 
 33 37  1  0  0  0  0 
 38 33  1  0  0  0  0 
 35 39  2  0  0  0  0 
 40 35  1  0  0  0  0 
 38 41  1  0  0  0  0 
 42 38  1  0  0  0  0 
 40 43  1  0  0  0  0 
 40 44  1  0  0  0  0 
 45 40  1  0  0  0  0 
 42 46  1  0  0  0  0 
 42 47  1  0  0  0  0 
 48 44  1  0  0  0  0 
 45 49  1  0  0  0  0 
 45 50  1  0  0  0  0 
 46 51  1  0  0  0  0 
 47 52  2  0  0  0  0 
 53 47  1  0  0  0  0 
 48 54  1  0  0  0  0 
 48 55  1  0  0  0  0 
 48 72  1  0  0  0  0 
 50 55  1  0  0  0  0 
 53 56  1  0  0  0  0 
 53 57  1  0  0  0  0 
 58 54  1  0  0  0  0 
 59 57  1  0  0  0  0 
 58 60  1  0  0  0  0 
 58 61  1  0  0  0  0 
 59 62  1  0  0  0  0 
 59 63  1  0  0  0  0 
 60 64  1  0  0  0  0 
 61 65  1  0  0  0  0 
 61 66  2  0  0  0  0 
 63 67  2  0  0  0  0 
 66 68  1  0  0  0  0 
 67 69  1  0  0  0  0 
 68 69  2  0  0  0  0 
  2 73  1  0  0  0  0 
  2 74  1  0  0  0  0 
  2 75  1  0  0  0  0 
  3 76  1  0  0  0  0 
  4 77  1  0  0  0  0 
  5 78  1  0  0  0  0 
  5 79  1  0  0  0  0 
  6 80  1  0  0  0  0 
  6 81  1  0  0  0  0 
  8 82  1  0  0  0  0 
  9 83  1  0  0  0  0 
  9 84  1  0  0  0  0 
 10 85  1  0  0  0  0 
 12 86  1  0  0  0  0 
 12 87  1  0  0  0  0 
 15 88  1  0  0  0  0 
 16 89  1  0  0  0  0 
 16 90  1  0  0  0  0 
 16 91  1  0  0  0  0 
 19 92  1  0  0  0  0 
 19 93  1  0  0  0  0 
 25 94  1  0  0  0  0 
 27 95  1  0  0  0  0 
 27 96  1  0  0  0  0 
 28 97  1  0  0  0  0 
 28 98  1  0  0  0  0 
 28 99  1  0  0  0  0 
 29100  1  0  0  0  0 
 31101  1  0  0  0  0 
 31102  1  0  0  0  0 
 32103  1  0  0  0  0 
 32104  1  0  0  0  0 
 36105  1  0  0  0  0 
 36106  1  0  0  0  0 
 37107  1  0  0  0  0 
 37108  1  0  0  0  0 
 37109  1  0  0  0  0 
 38110  1  0  0  0  0 
 41111  1  0  0  0  0 
 42112  1  0  0  0  0 
 43113  1  0  0  0  0 
 45114  1  0  0  0  0 
 49115  1  0  0  0  0 
 49116  1  0  0  0  0 
 49117  1  0  0  0  0 
 50118  1  0  0  0  0 
 50119  1  0  0  0  0 
 51120  1  0  0  0  0 
 51121  1  0  0  0  0 
 51122  1  0  0  0  0 
 53123  1  0  0  0  0 
 54124  1  0  0  0  0 
 54125  1  0  0  0  0 
 55126  1  0  0  0  0 
 55127  1  0  0  0  0 
 56128  1  0  0  0  0 
 56129  1  0  0  0  0 
 56130  1  0  0  0  0 
 57131  1  0  0  0  0 
 57132  1  0  0  0  0 
 58133  1  0  0  0  0 
 59134  1  0  0  0  0 
 62135  1  0  0  0  0 
 62136  1  0  0  0  0 
 62137  1  0  0  0  0 
 63138  1  0  0  0  0 
 64139  1  0  0  0  0 
 64140  1  0  0  0  0 
 64141  1  0  0  0  0 
 65142  1  0  0  0  0 
 65143  1  0  0  0  0 
 65144  1  0  0  0  0 
 66145  1  0  0  0  0 
 67146  1  0  0  0  0 
 68147  1  0  0  0  0 
 69148  1  0  0  0  0 
M  END
> <cdk:Title>
zotarolimus

> <Conformer>
1

> <SuperDrugID>
SD002595

$$$$
