inaperisone
  CDK     0628171801

 41 42  0  0  0  0  0  0  0  0999 V2000
    4.4335    1.5135   -0.3454 C   0  0  0  0  0  0  0  0  0  0  0  0
    3.8039    0.2185    0.0706 C   0  0  1  0  0  0  0  0  0  0  0  0
    5.2333    2.0385    0.4682 O   0  0  0  0  0  0  0  0  0  0  0  0
    4.1438    2.2170   -1.5629 C   0  0  0  0  0  0  0  0  0  0  0  0
    4.7795   -0.7363    0.8340 C   0  0  1  0  0  0  0  0  0  0  0  0
    2.5467    0.5024    0.9408 C   0  0  0  0  0  0  0  0  0  0  0  0
    2.9666    1.9838   -2.3185 C   0  0  0  0  0  0  0  0  0  0  0  0
    5.0277    3.2168   -2.0467 C   0  0  0  0  0  0  0  0  0  0  0  0
    6.0505   -0.9999    0.0959 N   0  0  1  0  0  0  0  0  0  0  0  0
    2.6736    2.7279   -3.4790 C   0  0  0  0  0  0  0  0  0  0  0  0
    4.7355    3.9678   -3.2011 C   0  0  0  0  0  0  0  0  0  0  0  0
    7.1595   -1.5280    0.9212 C   0  0  1  0  0  0  0  0  0  0  0  0
    5.9616   -1.9210   -1.0615 C   0  0  1  0  0  0  0  0  0  0  0  0
    3.5442    3.7469   -3.9278 C   0  0  0  0  0  0  0  0  0  0  0  0
    8.2262   -1.9077   -0.1169 C   0  0  1  0  0  0  0  0  0  0  0  0
    7.4196   -2.3340   -1.3603 C   0  0  1  0  0  0  0  0  0  0  0  0
    3.1976    4.5796   -5.1169 C   0  0  2  0  0  0  0  0  0  0  0  0
    3.2769    3.8117   -6.4572 C   0  0  0  0  0  0  0  0  0  0  0  0
    3.4742   -0.3242   -0.8195 H   0  0  0  0  0  0  0  0  0  0  0  0
    5.0198   -0.2750    1.7975 H   0  0  0  0  0  0  0  0  0  0  0  0
    4.2750   -1.6842    1.0510 H   0  0  0  0  0  0  0  0  0  0  0  0
    2.0473   -0.4344    1.1955 H   0  0  0  0  0  0  0  0  0  0  0  0
    2.8244    1.0121    1.8674 H   0  0  0  0  0  0  0  0  0  0  0  0
    1.8276    1.1276    0.4065 H   0  0  0  0  0  0  0  0  0  0  0  0
    2.2878    1.2782   -2.0320 H   0  0  0  0  0  0  0  0  0  0  0  0
    5.9023    3.4231   -1.5566 H   0  0  0  0  0  0  0  0  0  0  0  0
    1.8092    2.5260   -3.9922 H   0  0  0  0  0  0  0  0  0  0  0  0
    5.3998    4.6854   -3.5028 H   0  0  0  0  0  0  0  0  0  0  0  0
    7.5398   -0.7634    1.6034 H   0  0  0  0  0  0  0  0  0  0  0  0
    6.8542   -2.4109    1.4966 H   0  0  0  0  0  0  0  0  0  0  0  0
    5.3688   -2.8108   -0.8220 H   0  0  0  0  0  0  0  0  0  0  0  0
    5.5113   -1.4145   -1.9186 H   0  0  0  0  0  0  0  0  0  0  0  0
    8.8408   -1.0329   -0.3517 H   0  0  0  0  0  0  0  0  0  0  0  0
    8.8721   -2.7104    0.2505 H   0  0  0  0  0  0  0  0  0  0  0  0
    7.4933   -3.4135   -1.5254 H   0  0  0  0  0  0  0  0  0  0  0  0
    7.7933   -1.8225   -2.2513 H   0  0  0  0  0  0  0  0  0  0  0  0
    3.8648    5.4449   -5.1866 H   0  0  0  0  0  0  0  0  0  0  0  0
    2.1843    4.9729   -4.9873 H   0  0  0  0  0  0  0  0  0  0  0  0
    3.0105    4.4808   -7.2787 H   0  0  0  0  0  0  0  0  0  0  0  0
    2.5853    2.9672   -6.4613 H   0  0  0  0  0  0  0  0  0  0  0  0
    4.2920    3.4447   -6.6221 H   0  0  0  0  0  0  0  0  0  0  0  0
  2  1  1  0  0  0  0 
  1  3  2  0  0  0  0 
  1  4  1  0  0  0  0 
  2  5  1  0  0  0  0 
  2  6  1  0  0  0  0 
  4  7  2  0  0  0  0 
  4  8  1  0  0  0  0 
  5  9  1  0  0  0  0 
  7 10  1  0  0  0  0 
  8 11  2  0  0  0  0 
  9 12  1  0  0  0  0 
  9 13  1  0  0  0  0 
 10 14  2  0  0  0  0 
 11 14  1  0  0  0  0 
 12 15  1  0  0  0  0 
 13 16  1  0  0  0  0 
 14 17  1  0  0  0  0 
 15 16  1  0  0  0  0 
 17 18  1  0  0  0  0 
 19  2  1  0  0  0  0 
 20  5  1  0  0  0  0 
 21  5  1  0  0  0  0 
 22  6  1  0  0  0  0 
 23  6  1  0  0  0  0 
 24  6  1  0  0  0  0 
 25  7  1  0  0  0  0 
 26  8  1  0  0  0  0 
 27 10  1  0  0  0  0 
 28 11  1  0  0  0  0 
 29 12  1  0  0  0  0 
 30 12  1  0  0  0  0 
 31 13  1  0  0  0  0 
 32 13  1  0  0  0  0 
 33 15  1  0  0  0  0 
 34 15  1  0  0  0  0 
 35 16  1  0  0  0  0 
 36 16  1  0  0  0  0 
 37 17  1  0  0  0  0 
 38 17  1  0  0  0  0 
 39 18  1  0  0  0  0 
 40 18  1  0  0  0  0 
 41 18  1  0  0  0  0 
M  END
> <cdk:Title>
inaperisone

> <Conformer>
1

> <SuperDrugID>
SD002848

$$$$
