methoxamine
  CDK     0628171801

 32 32  0  0  0  0  0  0  0  0999 V2000
    1.8400   -1.0612   -0.7936 C   0  0  1  0  0  0  0  0  0  0  0  0
    1.7555   -1.9500   -2.0741 C   0  0  1  0  0  0  0  0  0  0  0  0
    2.3369    0.2371   -1.1321 O   0  0  0  0  0  0  0  0  0  0  0  0
    0.5491   -0.9609   -0.0394 C   0  0  0  0  0  0  0  0  0  0  0  0
    1.4273   -3.4354   -1.7778 C   0  0  0  0  0  0  0  0  0  0  0  0
    0.7836   -1.4252   -3.0472 N   0  0  2  0  0  0  0  0  0  0  0  0
    0.2380   -1.8531    1.0242 C   0  0  0  0  0  0  0  0  0  0  0  0
   -0.4146    0.0154   -0.3969 C   0  0  0  0  0  0  0  0  0  0  0  0
    1.1305   -2.8063    1.4397 O   0  0  0  0  0  0  0  0  0  0  0  0
   -1.0283   -1.8089    1.6465 C   0  0  0  0  0  0  0  0  0  0  0  0
   -1.6575    0.0926    0.2628 C   0  0  0  0  0  0  0  0  0  0  0  0
    1.9166   -2.3779    2.5659 C   0  0  0  0  0  0  0  0  0  0  0  0
   -1.9732   -0.8443    1.2641 C   0  0  0  0  0  0  0  0  0  0  0  0
   -2.5678    1.0529   -0.0935 O   0  0  0  0  0  0  0  0  0  0  0  0
   -2.4139    2.2757    0.6508 C   0  0  0  0  0  0  0  0  0  0  0  0
    2.6087   -1.4885   -0.1481 H   0  0  0  0  0  0  0  0  0  0  0  0
    2.7326   -1.9285   -2.5651 H   0  0  0  0  0  0  0  0  0  0  0  0
    3.1946    0.0894   -1.5849 H   0  0  0  0  0  0  0  0  0  0  0  0
    0.4137   -3.5401   -1.3871 H   0  0  0  0  0  0  0  0  0  0  0  0
    1.5077   -4.0264   -2.6913 H   0  0  0  0  0  0  0  0  0  0  0  0
    2.1276   -3.8443   -1.0471 H   0  0  0  0  0  0  0  0  0  0  0  0
    0.8523   -2.0148   -3.8802 H   0  0  0  0  0  0  0  0  0  0  0  0
    1.1014   -0.4937   -3.3225 H   0  0  0  0  0  0  0  0  0  0  0  0
   -0.2162    0.6870   -1.1441 H   0  0  0  0  0  0  0  0  0  0  0  0
   -1.2605   -2.4814    2.3814 H   0  0  0  0  0  0  0  0  0  0  0  0
    2.6222   -3.1733    2.8046 H   0  0  0  0  0  0  0  0  0  0  0  0
    2.4902   -1.4755    2.3386 H   0  0  0  0  0  0  0  0  0  0  0  0
    1.2878   -2.2009    3.4422 H   0  0  0  0  0  0  0  0  0  0  0  0
   -2.8892   -0.8241    1.7176 H   0  0  0  0  0  0  0  0  0  0  0  0
   -3.1635    2.9866    0.3011 H   0  0  0  0  0  0  0  0  0  0  0  0
   -2.5734    2.1131    1.7201 H   0  0  0  0  0  0  0  0  0  0  0  0
   -1.4270    2.7187    0.4915 H   0  0  0  0  0  0  0  0  0  0  0  0
  2  1  1  0  0  0  0 
  1  3  1  0  0  0  0 
  1  4  1  0  0  0  0 
  2  5  1  0  0  0  0 
  2  6  1  0  0  0  0 
  4  7  2  0  0  0  0 
  4  8  1  0  0  0  0 
  7  9  1  0  0  0  0 
  7 10  1  0  0  0  0 
  8 11  2  0  0  0  0 
  9 12  1  0  0  0  0 
 10 13  2  0  0  0  0 
 11 13  1  0  0  0  0 
 11 14  1  0  0  0  0 
 14 15  1  0  0  0  0 
  1 16  1  0  0  0  0 
  2 17  1  0  0  0  0 
  3 18  1  0  0  0  0 
  5 19  1  0  0  0  0 
  5 20  1  0  0  0  0 
  5 21  1  0  0  0  0 
  6 22  1  0  0  0  0 
  6 23  1  0  0  0  0 
  8 24  1  0  0  0  0 
 10 25  1  0  0  0  0 
 12 26  1  0  0  0  0 
 12 27  1  0  0  0  0 
 12 28  1  0  0  0  0 
 13 29  1  0  0  0  0 
 15 30  1  0  0  0  0 
 15 31  1  0  0  0  0 
 15 32  1  0  0  0  0 
M  END
> <cdk:Title>
methoxamine

> <Conformer>
1

> <SuperDrugID>
SD001553

$$$$
