moprolol
  CDK     0628171801

 38 38  0  0  0  0  0  0  0  0999 V2000
   -0.8828   -0.4967   -1.5760 O   0  0  0  0  0  0  0  0  0  0  0  0
   -0.9934    0.7836   -0.9206 C   0  0  2  0  0  0  0  0  0  0  0  0
   -1.8253   -1.4031   -1.1770 C   0  0  0  0  0  0  0  0  0  0  0  0
   -0.0032    1.7880   -1.5629 C   0  0  2  0  0  0  0  0  0  0  0  0
   -3.0664   -1.4919   -1.8494 C   0  0  0  0  0  0  0  0  0  0  0  0
   -1.5388   -2.2849   -0.1149 C   0  0  0  0  0  0  0  0  0  0  0  0
   -0.2774    2.0096   -3.0740 C   0  0  2  0  0  0  0  0  0  0  0  0
    1.3319    1.3229   -1.3694 O   0  0  0  0  0  0  0  0  0  0  0  0
   -3.3545   -0.6532   -2.8940 O   0  0  0  0  0  0  0  0  0  0  0  0
   -4.0275   -2.4347   -1.4228 C   0  0  0  0  0  0  0  0  0  0  0  0
   -2.4954   -3.2297    0.2980 C   0  0  0  0  0  0  0  0  0  0  0  0
    0.7587    2.8758   -3.6872 N   0  0  1  0  0  0  0  0  0  0  0  0
   -3.0063   -1.2151   -4.1729 C   0  0  0  0  0  0  0  0  0  0  0  0
   -3.7411   -3.3008   -0.3529 C   0  0  0  0  0  0  0  0  0  0  0  0
    0.5889    3.1914   -5.1339 C   0  0  2  0  0  0  0  0  0  0  0  0
    0.7693    1.9435   -6.0436 C   0  0  0  0  0  0  0  0  0  0  0  0
    1.6043    4.2970   -5.5143 C   0  0  0  0  0  0  0  0  0  0  0  0
   -0.7567    0.6806    0.1429 H   0  0  0  0  0  0  0  0  0  0  0  0
   -2.0054    1.1906   -1.0071 H   0  0  0  0  0  0  0  0  0  0  0  0
   -0.0957    2.7473   -1.0450 H   0  0  0  0  0  0  0  0  0  0  0  0
   -0.6355   -2.2395    0.3574 H   0  0  0  0  0  0  0  0  0  0  0  0
   -1.2635    2.4644   -3.1994 H   0  0  0  0  0  0  0  0  0  0  0  0
   -0.2758    1.0410   -3.5745 H   0  0  0  0  0  0  0  0  0  0  0  0
    1.4314    1.2394   -0.3973 H   0  0  0  0  0  0  0  0  0  0  0  0
   -4.9335   -2.4917   -1.8930 H   0  0  0  0  0  0  0  0  0  0  0  0
   -2.2876   -3.8647    1.0725 H   0  0  0  0  0  0  0  0  0  0  0  0
    0.7372    3.7642   -3.1778 H   0  0  0  0  0  0  0  0  0  0  0  0
   -3.2784   -0.4985   -4.9479 H   0  0  0  0  0  0  0  0  0  0  0  0
   -1.9322   -1.4035   -4.2473 H   0  0  0  0  0  0  0  0  0  0  0  0
   -3.5523   -2.1428   -4.3636 H   0  0  0  0  0  0  0  0  0  0  0  0
   -4.4371   -3.9865   -0.0493 H   0  0  0  0  0  0  0  0  0  0  0  0
   -0.4151    3.5964   -5.2963 H   0  0  0  0  0  0  0  0  0  0  0  0
   -0.0670    1.2558   -5.9208 H   0  0  0  0  0  0  0  0  0  0  0  0
    0.8058    2.2314   -7.0946 H   0  0  0  0  0  0  0  0  0  0  0  0
    1.6925    1.4199   -5.7941 H   0  0  0  0  0  0  0  0  0  0  0  0
    2.6269    3.9472   -5.3585 H   0  0  0  0  0  0  0  0  0  0  0  0
    1.4850    4.5800   -6.5611 H   0  0  0  0  0  0  0  0  0  0  0  0
    1.4398    5.1854   -4.9016 H   0  0  0  0  0  0  0  0  0  0  0  0
  1  2  1  0  0  0  0 
  1  3  1  0  0  0  0 
  4  2  1  0  0  0  0 
  3  5  2  0  0  0  0 
  3  6  1  0  0  0  0 
  4  7  1  0  0  0  0 
  4  8  1  0  0  0  0 
  5  9  1  0  0  0  0 
  5 10  1  0  0  0  0 
  6 11  2  0  0  0  0 
  7 12  1  0  0  0  0 
  9 13  1  0  0  0  0 
 10 14  2  0  0  0  0 
 11 14  1  0  0  0  0 
 12 15  1  0  0  0  0 
 15 16  1  0  0  0  0 
 15 17  1  0  0  0  0 
  2 18  1  0  0  0  0 
  2 19  1  0  0  0  0 
  4 20  1  0  0  0  0 
  6 21  1  0  0  0  0 
  7 22  1  0  0  0  0 
  7 23  1  0  0  0  0 
  8 24  1  0  0  0  0 
 10 25  1  0  0  0  0 
 11 26  1  0  0  0  0 
 12 27  1  0  0  0  0 
 13 28  1  0  0  0  0 
 13 29  1  0  0  0  0 
 13 30  1  0  0  0  0 
 14 31  1  0  0  0  0 
 15 32  1  0  0  0  0 
 16 33  1  0  0  0  0 
 16 34  1  0  0  0  0 
 16 35  1  0  0  0  0 
 17 36  1  0  0  0  0 
 17 37  1  0  0  0  0 
 17 38  1  0  0  0  0 
M  END
> <cdk:Title>
moprolol

> <Conformer>
1

> <SuperDrugID>
SD001637

$$$$
