indisetron
  CDK     0628171801

 46 49  0  0  0  0  0  0  0  0999 V2000
    0.4428    0.3577    0.5780 C   0  0  0  0  0  0  0  0  0  0  0  0
    1.1154   -0.5867   -0.1376 N   0  0  0  0  0  0  0  0  0  0  0  0
   -0.5905    0.0691    1.2237 O   0  0  0  0  0  0  0  0  0  0  0  0
    0.9334    1.6788    0.5825 C   0  0  0  0  0  0  0  0  0  0  0  0
    0.8143   -1.9862   -0.2369 C   0  0  1  0  0  0  0  0  0  0  0  0
    0.5887    2.7622    1.3889 C   0  0  0  0  0  0  0  0  0  0  0  0
    1.8901    2.1429   -0.2470 N   0  0  0  0  0  0  0  0  0  0  0  0
    1.7263   -2.6591   -1.3147 C   0  0  2  0  0  0  0  0  0  0  0  0
    0.9118   -2.7481    1.1239 C   0  0  1  0  0  0  0  0  0  0  0  0
    1.3885    3.8170    0.9579 C   0  0  0  0  0  0  0  0  0  0  0  0
   -0.3205    2.9345    2.4503 C   0  0  0  0  0  0  0  0  0  0  0  0
    2.1685    3.3945   -0.0466 N   0  0  0  0  0  0  0  0  0  0  0  0
    3.1292   -3.1282   -0.8018 C   0  0  2  0  0  0  0  0  0  0  0  0
    2.3638   -3.1360    1.5442 C   0  0  1  0  0  0  0  0  0  0  0  0
    1.3127    5.0858    1.5543 C   0  0  0  0  0  0  0  0  0  0  0  0
   -0.4110    4.2036    3.0603 C   0  0  0  0  0  0  0  0  0  0  0  0
    3.0126   -3.9222    0.4559 N   0  0  1  0  0  0  0  0  0  0  0  0
    4.1358   -1.9845   -0.4939 C   0  0  2  0  0  0  0  0  0  0  0  0
    3.2953   -1.9309    1.8781 C   0  0  1  0  0  0  0  0  0  0  0  0
    0.4023    5.2707    2.6157 C   0  0  0  0  0  0  0  0  0  0  0  0
    2.6944   -5.3755    0.3470 C   0  0  0  0  0  0  0  0  0  0  0  0
    3.7141   -1.1502    0.6713 N   0  0  1  0  0  0  0  0  0  0  0  0
    4.6669   -0.0480    0.9762 C   0  0  0  0  0  0  0  0  0  0  0  0
    1.8959   -0.2797   -0.6234 H   0  0  0  0  0  0  0  0  0  0  0  0
   -0.2192   -2.0532   -0.5937 H   0  0  0  0  0  0  0  0  0  0  0  0
    2.3224    1.6012   -0.9258 H   0  0  0  0  0  0  0  0  0  0  0  0
    1.8537   -1.9871   -2.1694 H   0  0  0  0  0  0  0  0  0  0  0  0
    1.2023   -3.5438   -1.6887 H   0  0  0  0  0  0  0  0  0  0  0  0
    0.4425   -2.1771    1.9247 H   0  0  0  0  0  0  0  0  0  0  0  0
    0.3320   -3.6703    1.0296 H   0  0  0  0  0  0  0  0  0  0  0  0
   -0.9049    2.1659    2.7786 H   0  0  0  0  0  0  0  0  0  0  0  0
    3.5852   -3.7398   -1.5878 H   0  0  0  0  0  0  0  0  0  0  0  0
    2.2992   -3.7454    2.4508 H   0  0  0  0  0  0  0  0  0  0  0  0
    1.9019    5.8542    1.2265 H   0  0  0  0  0  0  0  0  0  0  0  0
   -1.0702    4.3496    3.8283 H   0  0  0  0  0  0  0  0  0  0  0  0
    4.2427   -1.3588   -1.3837 H   0  0  0  0  0  0  0  0  0  0  0  0
    5.1111   -2.4327   -0.2811 H   0  0  0  0  0  0  0  0  0  0  0  0
    2.7797   -1.2683    2.5789 H   0  0  0  0  0  0  0  0  0  0  0  0
    4.1860   -2.3167    2.3818 H   0  0  0  0  0  0  0  0  0  0  0  0
    0.3316    6.1841    3.0661 H   0  0  0  0  0  0  0  0  0  0  0  0
    3.5615   -5.9370    0.6985 H   0  0  0  0  0  0  0  0  0  0  0  0
    2.4897   -5.6807   -0.6808 H   0  0  0  0  0  0  0  0  0  0  0  0
    1.8378   -5.6603    0.9594 H   0  0  0  0  0  0  0  0  0  0  0  0
    4.8584    0.5528    0.0849 H   0  0  0  0  0  0  0  0  0  0  0  0
    4.2529    0.6164    1.7366 H   0  0  0  0  0  0  0  0  0  0  0  0
    5.6160   -0.4500    1.3374 H   0  0  0  0  0  0  0  0  0  0  0  0
  1  2  1  0  0  0  0 
  1  3  2  0  0  0  0 
  1  4  1  0  0  0  0 
  4  6  2  0  0  0  0 
  4  7  1  0  0  0  0 
  5  2  1  0  0  0  0 
  5  8  1  0  0  0  0 
  5  9  1  0  0  0  0 
  6 10  1  0  0  0  0 
  6 11  1  0  0  0  0 
  7 12  1  0  0  0  0 
 13  8  1  0  0  0  0 
 14  9  1  0  0  0  0 
 10 12  2  0  0  0  0 
 10 15  1  0  0  0  0 
 11 16  2  0  0  0  0 
 13 17  1  0  0  0  0 
 13 18  1  0  0  0  0 
 14 17  1  0  0  0  0 
 14 19  1  0  0  0  0 
 15 20  2  0  0  0  0 
 16 20  1  0  0  0  0 
 17 21  1  0  0  0  0 
 18 22  1  0  0  0  0 
 19 22  1  0  0  0  0 
 22 23  1  0  0  0  0 
 24  2  1  0  0  0  0 
  5 25  1  0  0  0  0 
 26  7  1  0  0  0  0 
 27  8  1  0  0  0  0 
 28  8  1  0  0  0  0 
 29  9  1  0  0  0  0 
 30  9  1  0  0  0  0 
 31 11  1  0  0  0  0 
 13 32  1  0  0  0  0 
 14 33  1  0  0  0  0 
 34 15  1  0  0  0  0 
 35 16  1  0  0  0  0 
 36 18  1  0  0  0  0 
 37 18  1  0  0  0  0 
 38 19  1  0  0  0  0 
 39 19  1  0  0  0  0 
 40 20  1  0  0  0  0 
 41 21  1  0  0  0  0 
 42 21  1  0  0  0  0 
 43 21  1  0  0  0  0 
 44 23  1  0  0  0  0 
 45 23  1  0  0  0  0 
 46 23  1  0  0  0  0 
M  END
> <cdk:Title>
indisetron

> <Conformer>
1

> <SuperDrugID>
SD001275

$$$$
