oxetorone
  CDK     0628171801

 45 48  0  0  0  0  0  0  0  0999 V2000
   -1.5628   -0.0695   -1.4175 C   0  0  0  0  0  0  0  0  0  0  0  0
   -2.4735    0.3024   -2.3491 C   0  0  0  0  0  0  0  0  0  0  0  0
   -2.7614    1.6400   -2.6263 C   0  0  0  0  0  0  0  0  0  0  0  0
   -3.1719   -0.6781   -3.0689 C   0  0  0  0  0  0  0  0  0  0  0  0
   -4.0255    2.2065   -2.8709 C   0  0  0  0  0  0  0  0  0  0  0  0
   -1.8123    2.6107   -2.7084 O   0  0  0  0  0  0  0  0  0  0  0  0
   -4.5918   -0.7189   -3.0399 C   0  0  0  0  0  0  0  0  0  0  0  0
   -2.4843   -1.6497   -3.8398 C   0  0  0  0  0  0  0  0  0  0  0  0
   -3.8063    3.5671   -3.0778 C   0  0  0  0  0  0  0  0  0  0  0  0
   -5.3388    1.5200   -2.8785 C   0  0  2  0  0  0  0  0  0  0  0  0
   -2.4334    3.7751   -2.9826 C   0  0  0  0  0  0  0  0  0  0  0  0
   -5.3215    0.1911   -2.3180 O   0  0  0  0  0  0  0  0  0  0  0  0
   -5.2903   -1.7341   -3.7245 C   0  0  0  0  0  0  0  0  0  0  0  0
   -3.1880   -2.6515   -4.5344 C   0  0  0  0  0  0  0  0  0  0  0  0
   -4.6819    4.6446   -3.3191 C   0  0  0  0  0  0  0  0  0  0  0  0
   -1.8737    5.0516   -3.1495 C   0  0  0  0  0  0  0  0  0  0  0  0
   -4.5909   -2.7001   -4.4681 C   0  0  0  0  0  0  0  0  0  0  0  0
   -4.1350    5.9388   -3.4679 C   0  0  0  0  0  0  0  0  0  0  0  0
   -2.7383    6.1402   -3.3886 C   0  0  0  0  0  0  0  0  0  0  0  0
   -0.8111    0.8278   -0.5412 C   0  0  2  0  0  0  0  0  0  0  0  0
    0.1775    0.1115    0.4227 C   0  0  2  0  0  0  0  0  0  0  0  0
    1.1537   -0.8137   -0.2452 N   0  0  1  0  0  0  0  0  0  0  0  0
    2.0775   -0.1516   -1.2139 C   0  0  0  0  0  0  0  0  0  0  0  0
    1.8780   -1.7045    0.7103 C   0  0  0  0  0  0  0  0  0  0  0  0
   -1.4086   -1.0447   -1.2851 H   0  0  0  0  0  0  0  0  0  0  0  0
   -1.4633   -1.6324   -3.9060 H   0  0  0  0  0  0  0  0  0  0  0  0
   -5.7410    1.5137   -3.8974 H   0  0  0  0  0  0  0  0  0  0  0  0
   -6.0186    2.0979   -2.2487 H   0  0  0  0  0  0  0  0  0  0  0  0
   -6.3119   -1.7742   -3.6800 H   0  0  0  0  0  0  0  0  0  0  0  0
   -2.6802   -3.3450   -5.0887 H   0  0  0  0  0  0  0  0  0  0  0  0
   -5.6923    4.5024   -3.3757 H   0  0  0  0  0  0  0  0  0  0  0  0
   -0.8622    5.1835   -3.0944 H   0  0  0  0  0  0  0  0  0  0  0  0
   -5.1024   -3.4354   -4.9623 H   0  0  0  0  0  0  0  0  0  0  0  0
   -4.7522    6.7368   -3.6332 H   0  0  0  0  0  0  0  0  0  0  0  0
   -2.3490    7.0794   -3.4974 H   0  0  0  0  0  0  0  0  0  0  0  0
   -1.5253    1.3948    0.0633 H   0  0  0  0  0  0  0  0  0  0  0  0
   -0.2448    1.5468   -1.1323 H   0  0  0  0  0  0  0  0  0  0  0  0
   -0.4338   -0.4563    1.1316 H   0  0  0  0  0  0  0  0  0  0  0  0
    0.7157    0.8693    0.9985 H   0  0  0  0  0  0  0  0  0  0  0  0
    2.7777   -0.8725   -1.6402 H   0  0  0  0  0  0  0  0  0  0  0  0
    1.5163    0.2705   -2.0463 H   0  0  0  0  0  0  0  0  0  0  0  0
    2.6468    0.6500   -0.7380 H   0  0  0  0  0  0  0  0  0  0  0  0
    1.1815   -2.1904    1.3969 H   0  0  0  0  0  0  0  0  0  0  0  0
    2.3917   -2.4984    0.1614 H   0  0  0  0  0  0  0  0  0  0  0  0
    2.6141   -1.1480    1.2970 H   0  0  0  0  0  0  0  0  0  0  0  0
  1  2  2  0  0  0  0 
  2  3  1  0  0  0  0 
  2  4  1  0  0  0  0 
  3  5  2  0  0  0  0 
  3  6  1  0  0  0  0 
  4  7  2  0  0  0  0 
  4  8  1  0  0  0  0 
  5  9  1  0  0  0  0 
  5 10  1  0  0  0  0 
  6 11  1  0  0  0  0 
  7 12  1  0  0  0  0 
  7 13  1  0  0  0  0 
  8 14  2  0  0  0  0 
  9 11  1  0  0  0  0 
  9 15  2  0  0  0  0 
 10 12  1  0  0  0  0 
 11 16  2  0  0  0  0 
 13 17  2  0  0  0  0 
 14 17  1  0  0  0  0 
 15 18  1  0  0  0  0 
 16 19  1  0  0  0  0 
 18 19  2  0  0  0  0 
  1 20  1  0  0  0  0 
 20 21  1  0  0  0  0 
 21 22  1  0  0  0  0 
 22 23  1  0  0  0  0 
 22 24  1  0  0  0  0 
  1 25  1  0  0  0  0 
  8 26  1  0  0  0  0 
 10 27  1  0  0  0  0 
 10 28  1  0  0  0  0 
 13 29  1  0  0  0  0 
 14 30  1  0  0  0  0 
 15 31  1  0  0  0  0 
 16 32  1  0  0  0  0 
 17 33  1  0  0  0  0 
 18 34  1  0  0  0  0 
 19 35  1  0  0  0  0 
 20 36  1  0  0  0  0 
 20 37  1  0  0  0  0 
 21 38  1  0  0  0  0 
 21 39  1  0  0  0  0 
 23 40  1  0  0  0  0 
 23 41  1  0  0  0  0 
 23 42  1  0  0  0  0 
 24 43  1  0  0  0  0 
 24 44  1  0  0  0  0 
 24 45  1  0  0  0  0 
M  END
> <cdk:Title>
oxetorone

> <Conformer>
1

> <SuperDrugID>
SD001807

$$$$
