khellin
  CDK     0628171801

 31 33  0  0  0  0  0  0  0  0999 V2000
    3.5795    2.8912    2.4516 O   0  0  0  0  0  0  0  0  0  0  0  0
    4.4772    3.3536    1.4218 C   0  0  0  0  0  0  0  0  0  0  0  0
    2.5993    2.0642    1.9678 C   0  0  0  0  0  0  0  0  0  0  0  0
    1.3361    2.5495    1.5191 C   0  0  0  0  0  0  0  0  0  0  0  0
    2.8341    0.6748    1.9108 C   0  0  0  0  0  0  0  0  0  0  0  0
    0.3945    1.6301    0.9638 C   0  0  0  0  0  0  0  0  0  0  0  0
    0.9457    3.9120    1.5865 C   0  0  0  0  0  0  0  0  0  0  0  0
    1.8991   -0.2104    1.3801 C   0  0  0  0  0  0  0  0  0  0  0  0
    3.9170   -0.0976    2.3065 C   0  0  0  0  0  0  0  0  0  0  0  0
    0.6717    0.2482    0.8791 C   0  0  0  0  0  0  0  0  0  0  0  0
   -0.8045    2.0849    0.4973 O   0  0  0  0  0  0  0  0  0  0  0  0
    1.6833    4.7864    2.0990 O   0  0  0  0  0  0  0  0  0  0  0  0
   -0.2982    4.3402    1.0829 C   0  0  0  0  0  0  0  0  0  0  0  0
    2.3667   -1.4802    1.4341 O   0  0  0  0  0  0  0  0  0  0  0  0
    3.5974   -1.4170    1.9993 C   0  0  0  0  0  0  0  0  0  0  0  0
   -0.2272   -0.6354    0.3483 O   0  0  0  0  0  0  0  0  0  0  0  0
   -1.1806    3.3963    0.5244 C   0  0  0  0  0  0  0  0  0  0  0  0
   -0.0189   -0.8415   -1.0612 C   0  0  0  0  0  0  0  0  0  0  0  0
   -2.4953    3.7693   -0.0287 C   0  0  0  0  0  0  0  0  0  0  0  0
    5.1974    4.0335    1.8777 H   0  0  0  0  0  0  0  0  0  0  0  0
    5.0327    2.5249    0.9745 H   0  0  0  0  0  0  0  0  0  0  0  0
    3.9462    3.8993    0.6357 H   0  0  0  0  0  0  0  0  0  0  0  0
    4.7791    0.2364    2.7399 H   0  0  0  0  0  0  0  0  0  0  0  0
   -0.5591    5.3302    1.1202 H   0  0  0  0  0  0  0  0  0  0  0  0
    4.1990   -2.2217    2.1752 H   0  0  0  0  0  0  0  0  0  0  0  0
   -0.7601   -1.5590   -1.4114 H   0  0  0  0  0  0  0  0  0  0  0  0
   -0.1499    0.0872   -1.6239 H   0  0  0  0  0  0  0  0  0  0  0  0
    0.9738   -1.2531   -1.2652 H   0  0  0  0  0  0  0  0  0  0  0  0
   -3.2408    3.7684    0.7677 H   0  0  0  0  0  0  0  0  0  0  0  0
   -2.7944    3.0488   -0.7931 H   0  0  0  0  0  0  0  0  0  0  0  0
   -2.4582    4.7609   -0.4841 H   0  0  0  0  0  0  0  0  0  0  0  0
  1  2  1  0  0  0  0 
  1  3  1  0  0  0  0 
  3  4  2  0  0  0  0 
  3  5  1  0  0  0  0 
  4  6  1  0  0  0  0 
  4  7  1  0  0  0  0 
  5  8  2  0  0  0  0 
  5  9  1  0  0  0  0 
  6 10  2  0  0  0  0 
  6 11  1  0  0  0  0 
  7 12  2  0  0  0  0 
  7 13  1  0  0  0  0 
  8 10  1  0  0  0  0 
  8 14  1  0  0  0  0 
  9 15  2  0  0  0  0 
 10 16  1  0  0  0  0 
 11 17  1  0  0  0  0 
 13 17  2  0  0  0  0 
 14 15  1  0  0  0  0 
 16 18  1  0  0  0  0 
 17 19  1  0  0  0  0 
  2 20  1  0  0  0  0 
  2 21  1  0  0  0  0 
  2 22  1  0  0  0  0 
  9 23  1  0  0  0  0 
 13 24  1  0  0  0  0 
 15 25  1  0  0  0  0 
 18 26  1  0  0  0  0 
 18 27  1  0  0  0  0 
 18 28  1  0  0  0  0 
 19 29  1  0  0  0  0 
 19 30  1  0  0  0  0 
 19 31  1  0  0  0  0 
M  END
> <cdk:Title>
khellin

> <Conformer>
1

> <SuperDrugID>
SD002861

$$$$
