benzarone
  CDK     0628171801

 34 36  0  0  0  0  0  0  0  0999 V2000
    0.0117    0.1981    0.1785 C   0  0  0  0  0  0  0  0  0  0  0  0
   -0.1220   -0.8986   -0.4181 O   0  0  0  0  0  0  0  0  0  0  0  0
   -1.1384    0.6788    0.8522 C   0  0  0  0  0  0  0  0  0  0  0  0
    1.2808    0.8539    0.1663 C   0  0  0  0  0  0  0  0  0  0  0  0
   -1.2091    1.1476    2.1667 C   0  0  0  0  0  0  0  0  0  0  0  0
   -2.4515    0.7520    0.3513 C   0  0  0  0  0  0  0  0  0  0  0  0
    2.4721    0.1220   -0.0752 C   0  0  0  0  0  0  0  0  0  0  0  0
    1.4011    2.2502    0.3888 C   0  0  0  0  0  0  0  0  0  0  0  0
   -2.5387    1.4888    2.4051 C   0  0  0  0  0  0  0  0  0  0  0  0
   -0.2409    1.2945    3.1816 C   0  0  0  0  0  0  0  0  0  0  0  0
   -2.9367    0.4212   -1.0082 C   0  0  2  0  0  0  0  0  0  0  0  0
   -3.2829    1.2391    1.3073 O   0  0  0  0  0  0  0  0  0  0  0  0
    3.7310    0.7508   -0.0675 C   0  0  0  0  0  0  0  0  0  0  0  0
    2.6610    2.8757    0.4220 C   0  0  0  0  0  0  0  0  0  0  0  0
   -2.9519    2.0115    3.6403 C   0  0  0  0  0  0  0  0  0  0  0  0
   -0.6406    1.8217    4.4291 C   0  0  0  0  0  0  0  0  0  0  0  0
   -3.7480   -0.8925   -1.0483 C   0  0  0  0  0  0  0  0  0  0  0  0
    3.8305    2.1285    0.1910 C   0  0  0  0  0  0  0  0  0  0  0  0
   -1.9878    2.1811    4.6557 C   0  0  0  0  0  0  0  0  0  0  0  0
    5.0504    2.7241    0.2151 O   0  0  0  0  0  0  0  0  0  0  0  0
    2.4368   -0.8855   -0.2509 H   0  0  0  0  0  0  0  0  0  0  0  0
    0.5726    2.8315    0.5319 H   0  0  0  0  0  0  0  0  0  0  0  0
    0.7332    1.0268    3.0286 H   0  0  0  0  0  0  0  0  0  0  0  0
   -2.1008    0.3433   -1.7066 H   0  0  0  0  0  0  0  0  0  0  0  0
   -3.5720    1.2410   -1.3524 H   0  0  0  0  0  0  0  0  0  0  0  0
    4.5750    0.2014   -0.2443 H   0  0  0  0  0  0  0  0  0  0  0  0
    2.7269    3.8778    0.6138 H   0  0  0  0  0  0  0  0  0  0  0  0
   -3.9287    2.2665    3.7948 H   0  0  0  0  0  0  0  0  0  0  0  0
    0.0485    1.9447    5.1746 H   0  0  0  0  0  0  0  0  0  0  0  0
   -4.1205   -1.0635   -2.0615 H   0  0  0  0  0  0  0  0  0  0  0  0
   -4.6022   -0.8411   -0.3694 H   0  0  0  0  0  0  0  0  0  0  0  0
   -3.1181   -1.7386   -0.7647 H   0  0  0  0  0  0  0  0  0  0  0  0
   -2.2693    2.5647    5.5601 H   0  0  0  0  0  0  0  0  0  0  0  0
    4.8959    3.6392    0.5326 H   0  0  0  0  0  0  0  0  0  0  0  0
  1  2  2  0  0  0  0 
  1  3  1  0  0  0  0 
  1  4  1  0  0  0  0 
  3  5  1  0  0  0  0 
  3  6  2  0  0  0  0 
  4  7  2  0  0  0  0 
  4  8  1  0  0  0  0 
  5  9  1  0  0  0  0 
  5 10  2  0  0  0  0 
  6 11  1  0  0  0  0 
  6 12  1  0  0  0  0 
  7 13  1  0  0  0  0 
  8 14  2  0  0  0  0 
  9 12  1  0  0  0  0 
  9 15  2  0  0  0  0 
 10 16  1  0  0  0  0 
 11 17  1  0  0  0  0 
 13 18  2  0  0  0  0 
 14 18  1  0  0  0  0 
 15 19  1  0  0  0  0 
 16 19  2  0  0  0  0 
 18 20  1  0  0  0  0 
 21  7  1  0  0  0  0 
 22  8  1  0  0  0  0 
 23 10  1  0  0  0  0 
 24 11  1  0  0  0  0 
 25 11  1  0  0  0  0 
 26 13  1  0  0  0  0 
 27 14  1  0  0  0  0 
 28 15  1  0  0  0  0 
 29 16  1  0  0  0  0 
 30 17  1  0  0  0  0 
 31 17  1  0  0  0  0 
 32 17  1  0  0  0  0 
 33 19  1  0  0  0  0 
 34 20  1  0  0  0  0 
M  END
> <cdk:Title>
benzarone

> <Conformer>
1

> <SuperDrugID>
SD000266

$$$$
