aspartic acid
  CDK     0628171801

 16 15  0  0  0  0  0  0  0  0999 V2000
   -2.0124    0.9722   -1.5317 N   0  0  1  0  0  0  0  0  0  0  0  0
   -0.9756    0.7478   -0.5167 C   0  0  1  0  0  0  0  0  0  0  0  0
    0.4122    1.1839   -1.0652 C   0  0  2  0  0  0  0  0  0  0  0  0
    1.5084    0.8945   -0.1227 C   0  0  0  0  0  0  0  0  0  0  0  0
    2.2140    1.8965    0.4474 O   0  0  0  0  0  0  0  0  0  0  0  0
    1.7865   -0.2853    0.1868 O   0  0  0  0  0  0  0  0  0  0  0  0
   -1.3481    1.4704    0.7187 C   0  0  0  0  0  0  0  0  0  0  0  0
   -1.5259    0.8044    1.8832 O   0  0  0  0  0  0  0  0  0  0  0  0
   -1.4994    2.7139    0.7160 O   0  0  0  0  0  0  0  0  0  0  0  0
   -1.7929    0.3670   -2.3259 H   0  0  0  0  0  0  0  0  0  0  0  0
   -2.8943    0.6333   -1.1409 H   0  0  0  0  0  0  0  0  0  0  0  0
   -0.9613   -0.3272   -0.3154 H   0  0  0  0  0  0  0  0  0  0  0  0
    0.4003    2.2540   -1.2876 H   0  0  0  0  0  0  0  0  0  0  0  0
    0.6141    0.6558   -1.9990 H   0  0  0  0  0  0  0  0  0  0  0  0
    2.9188    1.6902    1.0964 H   0  0  0  0  0  0  0  0  0  0  0  0
   -1.7779    1.2985    2.6931 H   0  0  0  0  0  0  0  0  0  0  0  0
  2  1  1  0  0  0  0 
  2  3  1  0  0  0  0 
  3  4  1  0  0  0  0 
  4  5  1  0  0  0  0 
  4  6  2  0  0  0  0 
  2  7  1  0  0  0  0 
  7  8  1  0  0  0  0 
  7  9  2  0  0  0  0 
  1 10  1  0  0  0  0 
  1 11  1  0  0  0  0 
  2 12  1  0  0  0  0 
  3 13  1  0  0  0  0 
  3 14  1  0  0  0  0 
  5 15  1  0  0  0  0 
  8 16  1  0  0  0  0 
M  END
> <cdk:Title>
aspartic acid

> <Conformer>
1

> <SuperDrugID>
SD001369

$$$$
