eluxadoline
  CDK     0628171802

 77 80  0  0  0  0  0  0  0  0999 V2000
    8.7525    3.0989   -2.1934 C   0  0  0  0  0  0  0  0  0  0  0  0
    7.3814    3.3624   -1.9590 C   0  0  0  0  0  0  0  0  0  0  0  0
    6.3839    3.1046   -2.9212 C   0  0  0  0  0  0  0  0  0  0  0  0
    6.7979    2.5301   -4.1386 C   0  0  0  0  0  0  0  0  0  0  0  0
    8.1539    2.2451   -4.4268 C   0  0  0  0  0  0  0  0  0  0  0  0
    9.1630    2.5683   -3.4621 C   0  0  0  0  0  0  0  0  0  0  0  0
    5.0146    3.4233   -2.6710 C   0  0  0  0  0  0  0  0  0  0  0  0
    4.6147    3.7652   -1.5339 O   0  0  0  0  0  0  0  0  0  0  0  0
    4.0649    3.4064   -3.6288 N   0  0  0  0  0  0  0  0  0  0  0  0
   10.6364    2.4856   -3.7963 C   0  0  1  0  0  0  0  0  0  0  0  0
    9.7051    3.4068   -1.0815 C   0  0  0  0  0  0  0  0  0  0  0  0
    8.3883    1.6477   -5.7763 C   0  0  0  0  0  0  0  0  0  0  0  0
   11.1244    3.8436   -4.3995 C   0  0  1  0  0  0  0  0  0  0  0  0
   12.5896    4.0972   -4.5331 C   0  0  0  0  0  0  0  0  0  0  0  0
   13.2042    5.3466   -4.7709 N   0  0  0  0  0  0  0  0  0  0  0  0
   13.2875    3.0571   -4.4824 O   0  0  0  0  0  0  0  0  0  0  0  0
   14.6319    5.4116   -5.1548 C   0  0  1  0  0  0  0  0  0  0  0  0
   12.4747    6.6269   -4.8941 C   0  0  2  0  0  0  0  0  0  0  0  0
   10.5235    4.0950   -5.7192 N   0  0  1  0  0  0  0  0  0  0  0  0
   15.6665    4.5977   -4.3212 C   0  0  0  0  0  0  0  0  0  0  0  0
   14.7315    5.1594   -6.6166 C   0  0  0  0  0  0  0  0  0  0  0  0
   11.2285    6.9073   -4.0446 C   0  0  0  0  0  0  0  0  0  0  0  0
   11.2579    7.0157   -2.6369 C   0  0  0  0  0  0  0  0  0  0  0  0
   10.0639    7.2188   -1.9195 C   0  0  0  0  0  0  0  0  0  0  0  0
    8.8246    7.3081   -2.5919 C   0  0  0  0  0  0  0  0  0  0  0  0
    8.7671    7.1785   -4.0068 C   0  0  0  0  0  0  0  0  0  0  0  0
    9.9868    7.0217   -4.7072 C   0  0  0  0  0  0  0  0  0  0  0  0
    7.5413    7.1863   -4.7363 C   0  0  0  0  0  0  0  0  0  0  0  0
    6.4180    7.2139   -4.1828 O   0  0  0  0  0  0  0  0  0  0  0  0
    7.5250    7.1375   -6.0925 O   0  0  0  0  0  0  0  0  0  0  0  0
    7.6968    7.5095   -1.8351 O   0  0  0  0  0  0  0  0  0  0  0  0
    7.4273    8.9039   -1.5991 C   0  0  0  0  0  0  0  0  0  0  0  0
   14.5762    3.9857   -7.2507 N   0  0  0  0  0  0  0  0  0  0  0  0
   14.6738    4.2001   -8.5675 C   0  0  0  0  0  0  0  0  0  0  0  0
   14.8856    5.5657   -8.7654 C   0  0  0  0  0  0  0  0  0  0  0  0
   14.9254    6.1203   -7.5382 N   0  0  0  0  0  0  0  0  0  0  0  0
   15.0219    6.2830   -9.9893 C   0  0  0  0  0  0  0  0  0  0  0  0
   15.2186    5.6292  -11.2327 C   0  0  0  0  0  0  0  0  0  0  0  0
   15.3716    6.3642  -12.4250 C   0  0  0  0  0  0  0  0  0  0  0  0
   15.3238    7.7682  -12.3976 C   0  0  0  0  0  0  0  0  0  0  0  0
   15.1079    8.4358  -11.1806 C   0  0  0  0  0  0  0  0  0  0  0  0
   14.9605    7.6998   -9.9902 C   0  0  0  0  0  0  0  0  0  0  0  0
    7.0983    3.7655   -1.0618 H   0  0  0  0  0  0  0  0  0  0  0  0
    6.0918    2.3139   -4.8476 H   0  0  0  0  0  0  0  0  0  0  0  0
    3.1465    3.6258   -3.4027 H   0  0  0  0  0  0  0  0  0  0  0  0
    4.2908    3.1817   -4.5454 H   0  0  0  0  0  0  0  0  0  0  0  0
   11.2229    2.2770   -2.8992 H   0  0  0  0  0  0  0  0  0  0  0  0
   10.8821    1.6595   -4.4590 H   0  0  0  0  0  0  0  0  0  0  0  0
   10.1697    2.4820   -0.7369 H   0  0  0  0  0  0  0  0  0  0  0  0
    9.2255    3.8739   -0.2180 H   0  0  0  0  0  0  0  0  0  0  0  0
   10.4854    4.0917   -1.4091 H   0  0  0  0  0  0  0  0  0  0  0  0
    8.1311    2.3795   -6.5440 H   0  0  0  0  0  0  0  0  0  0  0  0
    9.4022    1.3192   -5.9668 H   0  0  0  0  0  0  0  0  0  0  0  0
    7.7477    0.7731   -5.9071 H   0  0  0  0  0  0  0  0  0  0  0  0
   10.7392    4.5578   -3.6966 H   0  0  0  0  0  0  0  0  0  0  0  0
   14.9994    6.4344   -5.0131 H   0  0  0  0  0  0  0  0  0  0  0  0
   12.3764    6.7595   -6.0176 H   0  0  0  0  0  0  0  0  0  0  0  0
   13.1286    7.4482   -4.5866 H   0  0  0  0  0  0  0  0  0  0  0  0
   10.8534    3.3693   -6.3601 H   0  0  0  0  0  0  0  0  0  0  0  0
    9.5162    3.9687   -5.6239 H   0  0  0  0  0  0  0  0  0  0  0  0
   16.6734    4.9948   -4.4731 H   0  0  0  0  0  0  0  0  0  0  0  0
   15.6983    3.5449   -4.6040 H   0  0  0  0  0  0  0  0  0  0  0  0
   15.4285    4.6768   -3.2581 H   0  0  0  0  0  0  0  0  0  0  0  0
   12.1406    6.9325   -2.1294 H   0  0  0  0  0  0  0  0  0  0  0  0
   10.0945    7.2946   -0.8982 H   0  0  0  0  0  0  0  0  0  0  0  0
    9.9771    6.9536   -5.7278 H   0  0  0  0  0  0  0  0  0  0  0  0
    6.6755    7.1373   -6.5799 H   0  0  0  0  0  0  0  0  0  0  0  0
    6.4747    8.9834   -1.0744 H   0  0  0  0  0  0  0  0  0  0  0  0
    8.2044    9.3528   -0.9775 H   0  0  0  0  0  0  0  0  0  0  0  0
    7.3507    9.4662   -2.5327 H   0  0  0  0  0  0  0  0  0  0  0  0
   14.4107    3.1277   -6.8302 H   0  0  0  0  0  0  0  0  0  0  0  0
   14.5904    3.4802   -9.2880 H   0  0  0  0  0  0  0  0  0  0  0  0
   15.2619    4.6104  -11.2905 H   0  0  0  0  0  0  0  0  0  0  0  0
   15.5223    5.8786  -13.3128 H   0  0  0  0  0  0  0  0  0  0  0  0
   15.4441    8.3030  -13.2614 H   0  0  0  0  0  0  0  0  0  0  0  0
   15.0607    9.4581  -11.1597 H   0  0  0  0  0  0  0  0  0  0  0  0
   14.8035    8.2181   -9.1223 H   0  0  0  0  0  0  0  0  0  0  0  0
  1  2  2  0  0  0  0 
  1  6  1  0  0  0  0 
  2  3  1  0  0  0  0 
  3  4  2  0  0  0  0 
  4  5  1  0  0  0  0 
  5  6  2  0  0  0  0 
  3  7  1  0  0  0  0 
  7  8  2  0  0  0  0 
  7  9  1  0  0  0  0 
  6 10  1  0  0  0  0 
  1 11  1  0  0  0  0 
  5 12  1  0  0  0  0 
 13 10  1  0  0  0  0 
 13 14  1  0  0  0  0 
 14 15  1  0  0  0  0 
 14 16  2  0  0  0  0 
 17 15  1  0  0  0  0 
 15 18  1  0  0  0  0 
 13 19  1  0  0  0  0 
 17 20  1  0  0  0  0 
 17 21  1  0  0  0  0 
 18 22  1  0  0  0  0 
 23 24  1  0  0  0  0 
 24 25  2  0  0  0  0 
 25 26  1  0  0  0  0 
 26 27  2  0  0  0  0 
 22 23  2  0  0  0  0 
 22 27  1  0  0  0  0 
 26 28  1  0  0  0  0 
 28 29  2  0  0  0  0 
 28 30  1  0  0  0  0 
 25 31  1  0  0  0  0 
 31 32  1  0  0  0  0 
 33 34  1  0  0  0  0 
 34 35  2  0  0  0  0 
 35 36  1  0  0  0  0 
 21 33  1  0  0  0  0 
 21 36  2  0  0  0  0 
 35 37  1  0  0  0  0 
 38 39  1  0  0  0  0 
 39 40  2  0  0  0  0 
 40 41  1  0  0  0  0 
 41 42  2  0  0  0  0 
 37 38  2  0  0  0  0 
 37 42  1  0  0  0  0 
 43  2  1  0  0  0  0 
 44  4  1  0  0  0  0 
 45  9  1  0  0  0  0 
 46  9  1  0  0  0  0 
 47 10  1  0  0  0  0 
 48 10  1  0  0  0  0 
 49 11  1  0  0  0  0 
 50 11  1  0  0  0  0 
 51 11  1  0  0  0  0 
 52 12  1  0  0  0  0 
 53 12  1  0  0  0  0 
 54 12  1  0  0  0  0 
 13 55  1  0  0  0  0 
 17 56  1  0  0  0  0 
 57 18  1  0  0  0  0 
 58 18  1  0  0  0  0 
 59 19  1  0  0  0  0 
 60 19  1  0  0  0  0 
 61 20  1  0  0  0  0 
 62 20  1  0  0  0  0 
 63 20  1  0  0  0  0 
 64 23  1  0  0  0  0 
 65 24  1  0  0  0  0 
 66 27  1  0  0  0  0 
 67 30  1  0  0  0  0 
 68 32  1  0  0  0  0 
 69 32  1  0  0  0  0 
 70 32  1  0  0  0  0 
 71 33  1  0  0  0  0 
 72 34  1  0  0  0  0 
 73 38  1  0  0  0  0 
 74 39  1  0  0  0  0 
 75 40  1  0  0  0  0 
 76 41  1  0  0  0  0 
 77 42  1  0  0  0  0 
M  END
> <cdk:Title>
eluxadoline

> <Conformer>
1

> <SuperDrugID>
SD003869

$$$$
