epinephrine
  CDK     0628171801

 26 26  0  0  0  0  0  0  0  0999 V2000
    1.5439    0.0383   -0.0862 C   0  0  0  0  0  0  0  0  0  0  0  0
    0.1785   -0.1809    0.4340 N   0  0  2  0  0  0  0  0  0  0  0  0
   -0.4983   -1.4182   -0.0281 C   0  0  1  0  0  0  0  0  0  0  0  0
   -0.0132   -2.7150    0.6812 C   0  0  2  0  0  0  0  0  0  0  0  0
   -0.7573   -3.8053    0.1343 O   0  0  0  0  0  0  0  0  0  0  0  0
   -0.1087   -2.7869    2.1755 C   0  0  0  0  0  0  0  0  0  0  0  0
    0.5494   -3.8544    2.8359 C   0  0  0  0  0  0  0  0  0  0  0  0
    0.4931   -3.9969    4.2332 C   0  0  0  0  0  0  0  0  0  0  0  0
   -0.2164   -3.0647    5.0106 C   0  0  0  0  0  0  0  0  0  0  0  0
   -0.2322   -3.2078    6.3610 O   0  0  0  0  0  0  0  0  0  0  0  0
   -0.8927   -2.0010    4.3784 C   0  0  0  0  0  0  0  0  0  0  0  0
   -1.6006   -1.1125    5.1246 O   0  0  0  0  0  0  0  0  0  0  0  0
   -0.8363   -1.8674    2.9746 C   0  0  0  0  0  0  0  0  0  0  0  0
    1.9015    1.0037    0.2740 H   0  0  0  0  0  0  0  0  0  0  0  0
    2.2271   -0.7343    0.2689 H   0  0  0  0  0  0  0  0  0  0  0  0
    1.5457    0.0542   -1.1783 H   0  0  0  0  0  0  0  0  0  0  0  0
   -0.3849    0.6030    0.0960 H   0  0  0  0  0  0  0  0  0  0  0  0
   -1.5685   -1.2976    0.1550 H   0  0  0  0  0  0  0  0  0  0  0  0
   -0.3756   -1.5245   -1.1110 H   0  0  0  0  0  0  0  0  0  0  0  0
    1.0294   -2.8662    0.3904 H   0  0  0  0  0  0  0  0  0  0  0  0
   -0.3516   -4.6177    0.5067 H   0  0  0  0  0  0  0  0  0  0  0  0
    1.0817   -4.5439    2.2970 H   0  0  0  0  0  0  0  0  0  0  0  0
    0.9718   -4.7837    4.6810 H   0  0  0  0  0  0  0  0  0  0  0  0
   -0.7751   -2.4683    6.7059 H   0  0  0  0  0  0  0  0  0  0  0  0
   -1.8576   -0.3838    4.5199 H   0  0  0  0  0  0  0  0  0  0  0  0
   -1.3424   -1.0905    2.5481 H   0  0  0  0  0  0  0  0  0  0  0  0
  1  2  1  0  0  0  0 
  2  3  1  0  0  0  0 
  3  4  1  0  0  0  0 
  4  5  1  0  0  0  0 
  4  6  1  0  0  0  0 
  6  7  2  0  0  0  0 
  7  8  1  0  0  0  0 
  8  9  2  0  0  0  0 
  9 10  1  0  0  0  0 
  9 11  1  0  0  0  0 
 11 12  1  0  0  0  0 
 11 13  2  0  0  0  0 
  6 13  1  0  0  0  0 
  1 14  1  0  0  0  0 
  1 15  1  0  0  0  0 
  1 16  1  0  0  0  0 
  2 17  1  0  0  0  0 
  3 18  1  0  0  0  0 
  3 19  1  0  0  0  0 
  4 20  1  0  0  0  0 
  5 21  1  0  0  0  0 
  7 22  1  0  0  0  0 
  8 23  1  0  0  0  0 
 10 24  1  0  0  0  0 
 12 25  1  0  0  0  0 
 13 26  1  0  0  0  0 
M  END
> <cdk:Title>
epinephrine

> <Conformer>
1

> <SuperDrugID>
SD000915

$$$$
