ambenonium
  CDK     0628171801

 78 79  0  0  0  0  0  0  0  0999 V2000
    0.0027  -11.8041   -1.5167 N   0  0  1  0  0  0  0  0  0  0  0  0
    0.7263  -12.7386   -0.5345 C   0  0  1  0  0  0  0  0  0  0  0  0
    0.3877  -10.3437   -1.1930 C   0  0  1  0  0  0  0  0  0  0  0  0
    0.4142  -12.0905   -2.9662 C   0  0  1  0  0  0  0  0  0  0  0  0
   -1.5195  -11.9181   -1.4002 C   0  0  2  0  0  0  0  0  0  0  0  0
    0.5928  -14.2306   -0.6792 C   0  0  0  0  0  0  0  0  0  0  0  0
    1.8061   -9.8113   -1.5788 C   0  0  1  0  0  0  0  0  0  0  0  0
   -0.2228  -13.2643   -3.7631 C   0  0  0  0  0  0  0  0  0  0  0  0
   -2.2086  -11.5060   -0.0686 C   0  0  0  0  0  0  0  0  0  0  0  0
    1.5893  -15.0490   -1.2926 C   0  0  0  0  0  0  0  0  0  0  0  0
   -0.5551  -14.8789   -0.1535 C   0  0  0  0  0  0  0  0  0  0  0  0
    2.0504   -8.4606   -1.1532 N   0  0  0  0  0  0  0  0  0  0  0  0
    3.0593  -14.4562   -1.9020 Cl  0  0  0  0  0  0  0  0  0  0  0  0
    1.3871  -16.4391   -1.4276 C   0  0  0  0  0  0  0  0  0  0  0  0
   -0.7447  -16.2652   -0.2813 C   0  0  0  0  0  0  0  0  0  0  0  0
    3.2028   -7.7798   -1.4366 C   0  0  0  0  0  0  0  0  0  0  0  0
    0.2235  -17.0446   -0.9300 C   0  0  0  0  0  0  0  0  0  0  0  0
    3.4594   -6.4757   -0.9504 C   0  0  0  0  0  0  0  0  0  0  0  0
    4.0873   -8.3347   -2.1330 O   0  0  0  0  0  0  0  0  0  0  0  0
    2.5349   -5.7488   -0.1742 N   0  0  0  0  0  0  0  0  0  0  0  0
    4.5734   -5.9424   -1.1687 O   0  0  0  0  0  0  0  0  0  0  0  0
    2.6625   -4.4610    0.5473 C   0  0  1  0  0  0  0  0  0  0  0  0
    1.4757   -3.4085    0.1597 C   0  0  2  0  0  0  0  0  0  0  0  0
    1.2264   -2.2962    1.1978 N   0  0  2  0  0  0  0  0  0  0  0  0
    0.0783   -1.3894    0.7057 C   0  0  1  0  0  0  0  0  0  0  0  0
    2.5118   -1.4846    1.4042 C   0  0  1  0  0  0  0  0  0  0  0  0
    0.8303   -2.9018    2.5530 C   0  0  1  0  0  0  0  0  0  0  0  0
   -0.3835   -0.2045    1.5295 C   0  0  0  0  0  0  0  0  0  0  0  0
    3.2226   -0.8365    0.1787 C   0  0  0  0  0  0  0  0  0  0  0  0
   -0.1785   -4.0883    2.5930 C   0  0  0  0  0  0  0  0  0  0  0  0
   -1.5478   -0.2131    2.3595 C   0  0  0  0  0  0  0  0  0  0  0  0
    0.3317    1.0193    1.4433 C   0  0  0  0  0  0  0  0  0  0  0  0
   -2.5853   -1.5457    2.5266 Cl  0  0  0  0  0  0  0  0  0  0  0  0
   -1.9209    0.9353    3.0952 C   0  0  0  0  0  0  0  0  0  0  0  0
   -0.0392    2.1574    2.1793 C   0  0  0  0  0  0  0  0  0  0  0  0
   -1.1596    2.1109    3.0193 C   0  0  0  0  0  0  0  0  0  0  0  0
    1.7893  -12.5031   -0.5440 H   0  0  0  0  0  0  0  0  0  0  0  0
    0.4375  -12.4987    0.4924 H   0  0  0  0  0  0  0  0  0  0  0  0
   -0.3150   -9.6657   -1.6910 H   0  0  0  0  0  0  0  0  0  0  0  0
    0.2723  -10.1608   -0.1206 H   0  0  0  0  0  0  0  0  0  0  0  0
    0.1891  -11.2149   -3.5848 H   0  0  0  0  0  0  0  0  0  0  0  0
    1.4988  -12.2254   -3.0165 H   0  0  0  0  0  0  0  0  0  0  0  0
   -1.8419  -12.9388   -1.6111 H   0  0  0  0  0  0  0  0  0  0  0  0
   -1.9873  -11.3010   -2.1751 H   0  0  0  0  0  0  0  0  0  0  0  0
    2.5761  -10.4494   -1.1427 H   0  0  0  0  0  0  0  0  0  0  0  0
    1.9178   -9.8341   -2.6645 H   0  0  0  0  0  0  0  0  0  0  0  0
   -0.1721  -14.2060   -3.2286 H   0  0  0  0  0  0  0  0  0  0  0  0
   -1.2701  -13.0514   -3.9834 H   0  0  0  0  0  0  0  0  0  0  0  0
    0.3042  -13.3906   -4.7116 H   0  0  0  0  0  0  0  0  0  0  0  0
   -2.0524  -10.4492    0.1483 H   0  0  0  0  0  0  0  0  0  0  0  0
   -1.8427  -12.0899    0.7732 H   0  0  0  0  0  0  0  0  0  0  0  0
   -3.2840  -11.6730   -0.1523 H   0  0  0  0  0  0  0  0  0  0  0  0
   -1.2746  -14.3471    0.3378 H   0  0  0  0  0  0  0  0  0  0  0  0
    1.3720   -8.0152   -0.6249 H   0  0  0  0  0  0  0  0  0  0  0  0
    2.0869  -17.0256   -1.8924 H   0  0  0  0  0  0  0  0  0  0  0  0
   -1.5852  -16.7061    0.0961 H   0  0  0  0  0  0  0  0  0  0  0  0
    0.0846  -18.0512   -1.0390 H   0  0  0  0  0  0  0  0  0  0  0  0
    1.6737   -6.1824   -0.0643 H   0  0  0  0  0  0  0  0  0  0  0  0
    2.6517   -4.7151    1.6041 H   0  0  0  0  0  0  0  0  0  0  0  0
    3.6278   -4.0045    0.3272 H   0  0  0  0  0  0  0  0  0  0  0  0
    0.4858   -3.9083   -0.0324 H   0  0  0  0  0  0  0  0  0  0  0  0
    1.6450   -2.9019   -0.8320 H   0  0  0  0  0  0  0  0  0  0  0  0
    0.3220   -0.9980   -0.2854 H   0  0  0  0  0  0  0  0  0  0  0  0
   -0.7971   -2.0094    0.5126 H   0  0  0  0  0  0  0  0  0  0  0  0
    2.3298   -0.6887    2.1297 H   0  0  0  0  0  0  0  0  0  0  0  0
    3.2792   -2.1073    1.8740 H   0  0  0  0  0  0  0  0  0  0  0  0
    1.7119   -3.2643    3.0880 H   0  0  0  0  0  0  0  0  0  0  0  0
    0.4310   -2.1226    3.2052 H   0  0  0  0  0  0  0  0  0  0  0  0
    4.0148   -0.1714    0.5304 H   0  0  0  0  0  0  0  0  0  0  0  0
    2.5395   -0.2511   -0.4332 H   0  0  0  0  0  0  0  0  0  0  0  0
    3.6864   -1.5926   -0.4552 H   0  0  0  0  0  0  0  0  0  0  0  0
   -0.5122   -4.2577    3.6188 H   0  0  0  0  0  0  0  0  0  0  0  0
    0.2873   -5.0103    2.2428 H   0  0  0  0  0  0  0  0  0  0  0  0
   -1.0528   -3.8956    1.9761 H   0  0  0  0  0  0  0  0  0  0  0  0
    1.1412    1.1056    0.8308 H   0  0  0  0  0  0  0  0  0  0  0  0
   -2.7565    0.9285    3.6908 H   0  0  0  0  0  0  0  0  0  0  0  0
    0.5047    3.0178    2.0988 H   0  0  0  0  0  0  0  0  0  0  0  0
   -1.4270    2.9319    3.5674 H   0  0  0  0  0  0  0  0  0  0  0  0
  1  2  1  0  0  0  0 
  1  3  1  0  0  0  0 
  1  4  1  0  0  0  0 
  1  5  1  0  0  0  0 
  2  6  1  0  0  0  0 
  3  7  1  0  0  0  0 
  4  8  1  0  0  0  0 
  5  9  1  0  0  0  0 
  6 10  2  0  0  0  0 
  6 11  1  0  0  0  0 
  7 12  1  0  0  0  0 
 10 13  1  0  0  0  0 
 10 14  1  0  0  0  0 
 11 15  2  0  0  0  0 
 12 16  1  0  0  0  0 
 14 17  2  0  0  0  0 
 15 17  1  0  0  0  0 
 16 18  1  0  0  0  0 
 16 19  2  0  0  0  0 
 18 20  1  0  0  0  0 
 18 21  2  0  0  0  0 
 20 22  1  0  0  0  0 
 22 23  1  0  0  0  0 
 23 24  1  0  0  0  0 
 24 25  1  0  0  0  0 
 24 26  1  0  0  0  0 
 24 27  1  0  0  0  0 
 25 28  1  0  0  0  0 
 26 29  1  0  0  0  0 
 27 30  1  0  0  0  0 
 28 31  2  0  0  0  0 
 28 32  1  0  0  0  0 
 31 33  1  0  0  0  0 
 31 34  1  0  0  0  0 
 32 35  2  0  0  0  0 
 34 36  2  0  0  0  0 
 35 36  1  0  0  0  0 
  2 37  1  0  0  0  0 
  2 38  1  0  0  0  0 
  3 39  1  0  0  0  0 
  3 40  1  0  0  0  0 
  4 41  1  0  0  0  0 
  4 42  1  0  0  0  0 
  5 43  1  0  0  0  0 
  5 44  1  0  0  0  0 
  7 45  1  0  0  0  0 
  7 46  1  0  0  0  0 
  8 47  1  0  0  0  0 
  8 48  1  0  0  0  0 
  8 49  1  0  0  0  0 
  9 50  1  0  0  0  0 
  9 51  1  0  0  0  0 
  9 52  1  0  0  0  0 
 11 53  1  0  0  0  0 
 12 54  1  0  0  0  0 
 14 55  1  0  0  0  0 
 15 56  1  0  0  0  0 
 17 57  1  0  0  0  0 
 20 58  1  0  0  0  0 
 22 59  1  0  0  0  0 
 22 60  1  0  0  0  0 
 23 61  1  0  0  0  0 
 23 62  1  0  0  0  0 
 25 63  1  0  0  0  0 
 25 64  1  0  0  0  0 
 26 65  1  0  0  0  0 
 26 66  1  0  0  0  0 
 27 67  1  0  0  0  0 
 27 68  1  0  0  0  0 
 29 69  1  0  0  0  0 
 29 70  1  0  0  0  0 
 29 71  1  0  0  0  0 
 30 72  1  0  0  0  0 
 30 73  1  0  0  0  0 
 30 74  1  0  0  0  0 
 32 75  1  0  0  0  0 
 34 76  1  0  0  0  0 
 35 77  1  0  0  0  0 
 36 78  1  0  0  0  0 
M  CHG  1   1   1
M  CHG  1  24   1
M  END
> <cdk:Title>
ambenonium

> <Conformer>
1

> <SuperDrugID>
SD000115

$$$$
