polmacoxib
  Mrv0541 09131710103D              95.37671

 41 43  0  0  0  0            999 V2000
   -0.0440    0.8878    4.9524 C   0  0  0  0  0  0  0  0  0  0  0  0
    1.4437    0.9477    4.5002 C   0  0  1  0  0  0  0  0  0  0  0  0
    1.7253    2.1820    3.5996 C   0  0  0  0  0  0  0  0  0  0  0  0
    2.3157    1.0092    5.6447 O   0  0  0  0  0  0  0  0  0  0  0  0
    3.0688   -0.1031    5.6450 C   0  0  0  0  0  0  0  0  0  0  0  0
    2.8182   -0.9152    4.6035 C   0  0  0  0  0  0  0  0  0  0  0  0
    1.8534   -0.3043    3.8604 C   0  0  0  0  0  0  0  0  0  0  0  0
    1.3876   -0.7180    2.7717 O   0  0  0  0  0  0  0  0  0  0  0  0
    3.4051   -2.1445    4.2805 C   0  0  0  0  0  0  0  0  0  0  0  0
    2.5922   -3.2521    3.9276 C   0  0  0  0  0  0  0  0  0  0  0  0
    3.1618   -4.4916    3.5869 C   0  0  0  0  0  0  0  0  0  0  0  0
    4.5580   -4.6499    3.6068 C   0  0  0  0  0  0  0  0  0  0  0  0
    5.3830   -3.5661    3.9585 C   0  0  0  0  0  0  0  0  0  0  0  0
    6.6790   -3.7158    3.9756 F   0  0  0  0  0  0  0  0  0  0  0  0
    4.8120   -2.3213    4.2870 C   0  0  0  0  0  0  0  0  0  0  0  0
    3.9916   -0.2918    6.6727 C   0  0  0  0  0  0  0  0  0  0  0  0
    4.8739    0.7582    7.0271 C   0  0  0  0  0  0  0  0  0  0  0  0
    5.8484    0.5789    8.0264 C   0  0  0  0  0  0  0  0  0  0  0  0
    5.9545   -0.6537    8.6983 C   0  0  0  0  0  0  0  0  0  0  0  0
    5.0579   -1.6928    8.3836 C   0  0  0  0  0  0  0  0  0  0  0  0
    4.0833   -1.5124    7.3851 C   0  0  0  0  0  0  0  0  0  0  0  0
    7.2185   -0.9090    9.9081 S   0  0  1  0  0  0  0  0  0  0  0  0
    8.5468   -1.7800    9.1554 N   0  0  2  0  0  0  0  0  0  0  0  0
    7.7869    0.4824   10.4668 O   0  0  0  0  0  0  0  0  0  0  0  0
    6.6653   -1.7866   11.1321 O   0  0  0  0  0  0  0  0  0  0  0  0
   -0.2199    0.0211    5.5932 H   0  0  0  0  0  0  0  0  0  0  0  0
   -0.3073    1.7849    5.5149 H   0  0  0  0  0  0  0  0  0  0  0  0
   -0.7075    0.8148    4.0871 H   0  0  0  0  0  0  0  0  0  0  0  0
    1.1128    2.1526    2.6960 H   0  0  0  0  0  0  0  0  0  0  0  0
    2.7765    2.2115    3.3057 H   0  0  0  0  0  0  0  0  0  0  0  0
    1.4996    3.1014    4.1423 H   0  0  0  0  0  0  0  0  0  0  0  0
    1.5719   -3.1686    3.9189 H   0  0  0  0  0  0  0  0  0  0  0  0
    2.5582   -5.2758    3.3272 H   0  0  0  0  0  0  0  0  0  0  0  0
    4.9705   -5.5536    3.3670 H   0  0  0  0  0  0  0  0  0  0  0  0
    5.4361   -1.5448    4.5258 H   0  0  0  0  0  0  0  0  0  0  0  0
    4.8261    1.6622    6.5494 H   0  0  0  0  0  0  0  0  0  0  0  0
    6.4843    1.3474    8.2515 H   0  0  0  0  0  0  0  0  0  0  0  0
    5.1098   -2.5845    8.8799 H   0  0  0  0  0  0  0  0  0  0  0  0
    3.4436   -2.2853    7.1843 H   0  0  0  0  0  0  0  0  0  0  0  0
    9.3261   -1.7498    9.8157 H   0  0  0  0  0  0  0  0  0  0  0  0
    8.8318   -1.2373    8.3374 H   0  0  0  0  0  0  0  0  0  0  0  0
  1  2  1  0  0  0  0
  2  3  1  0  0  0  0
  2  4  1  0  0  0  0
  4  5  1  0  0  0  0
  5  6  2  0  0  0  0
  6  7  1  0  0  0  0
  7  8  2  0  0  0  0
  6  9  1  0  0  0  0
  9 10  2  0  0  0  0
 10 11  1  0  0  0  0
 11 12  2  0  0  0  0
 12 13  1  0  0  0  0
 13 14  1  0  0  0  0
 13 15  2  0  0  0  0
  5 16  1  0  0  0  0
 16 17  2  0  0  0  0
 17 18  1  0  0  0  0
 18 19  2  0  0  0  0
 19 20  1  0  0  0  0
 20 21  2  0  0  0  0
 19 22  1  0  0  0  0
 22 23  1  0  0  0  0
 22 24  2  0  0  0  0
 22 25  2  0  0  0  0
  7  2  1  0  0  0  0
 15  9  1  0  0  0  0
 21 16  1  0  0  0  0
  1 26  1  0  0  0  0
  1 27  1  0  0  0  0
  1 28  1  0  0  0  0
  3 29  1  0  0  0  0
  3 30  1  0  0  0  0
  3 31  1  0  0  0  0
 10 32  1  0  0  0  0
 11 33  1  0  0  0  0
 12 34  1  0  0  0  0
 15 35  1  0  0  0  0
 17 36  1  0  0  0  0
 18 37  1  0  0  0  0
 20 38  1  0  0  0  0
 21 39  1  0  0  0  0
 23 40  1  0  0  0  0
 23 41  1  0  0  0  0
M  END
>  <SuperDrugID>
SD006006

>  <_MOLCOUNT>
1

$$$$
