trepibutone
  CDK     0628171801

 44 44  0  0  0  0  0  0  0  0999 V2000
   -1.3235   -1.2089    1.5125 C   0  0  0  0  0  0  0  0  0  0  0  0
   -0.4256   -0.6025    0.4899 C   0  0  2  0  0  0  0  0  0  0  0  0
   -0.7820   -1.5984    2.5770 O   0  0  0  0  0  0  0  0  0  0  0  0
   -2.7466   -1.3438    1.3449 C   0  0  0  0  0  0  0  0  0  0  0  0
    1.1001   -0.6757    0.7795 C   0  0  2  0  0  0  0  0  0  0  0  0
   -3.5382   -2.1071    2.2523 C   0  0  0  0  0  0  0  0  0  0  0  0
   -3.4268   -0.7196    0.2633 C   0  0  0  0  0  0  0  0  0  0  0  0
    1.8876   -0.0536   -0.2998 C   0  0  0  0  0  0  0  0  0  0  0  0
   -2.9865   -2.8170    3.2863 O   0  0  0  0  0  0  0  0  0  0  0  0
   -4.9415   -2.1512    2.1301 C   0  0  0  0  0  0  0  0  0  0  0  0
   -4.8263   -0.8050    0.1123 C   0  0  0  0  0  0  0  0  0  0  0  0
    2.6119   -0.8188   -1.1491 O   0  0  0  0  0  0  0  0  0  0  0  0
    1.8840    1.1884   -0.4551 O   0  0  0  0  0  0  0  0  0  0  0  0
   -2.6593   -4.1743    2.9224 C   0  0  1  0  0  0  0  0  0  0  0  0
   -5.5945   -1.4818    1.0801 C   0  0  0  0  0  0  0  0  0  0  0  0
   -5.4371   -0.1992   -0.9555 O   0  0  0  0  0  0  0  0  0  0  0  0
   -1.9109   -4.8243    4.0984 C   0  0  0  0  0  0  0  0  0  0  0  0
   -6.9630   -1.5102    0.9975 O   0  0  0  0  0  0  0  0  0  0  0  0
   -5.5815   -1.0768   -2.0940 C   0  0  1  0  0  0  0  0  0  0  0  0
   -7.5862   -0.4070    1.6891 C   0  0  1  0  0  0  0  0  0  0  0  0
   -6.2914   -0.3209   -3.2338 C   0  0  0  0  0  0  0  0  0  0  0  0
   -9.1153   -0.5045    1.5324 C   0  0  0  0  0  0  0  0  0  0  0  0
   -0.7059    0.4481    0.3764 H   0  0  0  0  0  0  0  0  0  0  0  0
   -0.6073   -1.1170   -0.4574 H   0  0  0  0  0  0  0  0  0  0  0  0
    1.3907   -1.7252    0.8833 H   0  0  0  0  0  0  0  0  0  0  0  0
    1.3296   -0.1654    1.7172 H   0  0  0  0  0  0  0  0  0  0  0  0
   -2.9136   -0.1823   -0.4368 H   0  0  0  0  0  0  0  0  0  0  0  0
   -5.4954   -2.6755    2.8121 H   0  0  0  0  0  0  0  0  0  0  0  0
    3.1166   -0.4087   -1.8818 H   0  0  0  0  0  0  0  0  0  0  0  0
   -3.5699   -4.7472    2.7198 H   0  0  0  0  0  0  0  0  0  0  0  0
   -2.0122   -4.2130    2.0386 H   0  0  0  0  0  0  0  0  0  0  0  0
   -1.6470   -5.8533    3.8499 H   0  0  0  0  0  0  0  0  0  0  0  0
   -2.5430   -4.8268    4.9878 H   0  0  0  0  0  0  0  0  0  0  0  0
   -0.9962   -4.2684    4.3147 H   0  0  0  0  0  0  0  0  0  0  0  0
   -4.6019   -1.4062   -2.4565 H   0  0  0  0  0  0  0  0  0  0  0  0
   -6.1804   -1.9594   -1.8417 H   0  0  0  0  0  0  0  0  0  0  0  0
   -7.3435   -0.4286    2.7572 H   0  0  0  0  0  0  0  0  0  0  0  0
   -7.2572    0.5503    1.2712 H   0  0  0  0  0  0  0  0  0  0  0  0
   -7.2866   -0.0052   -2.9149 H   0  0  0  0  0  0  0  0  0  0  0  0
   -5.7159    0.5622   -3.5172 H   0  0  0  0  0  0  0  0  0  0  0  0
   -6.3923   -0.9675   -4.1081 H   0  0  0  0  0  0  0  0  0  0  0  0
   -9.5980    0.3300    2.0463 H   0  0  0  0  0  0  0  0  0  0  0  0
   -9.4795   -1.4395    1.9629 H   0  0  0  0  0  0  0  0  0  0  0  0
   -9.3865   -0.4697    0.4753 H   0  0  0  0  0  0  0  0  0  0  0  0
  1  2  1  0  0  0  0 
  1  3  2  0  0  0  0 
  1  4  1  0  0  0  0 
  2  5  1  0  0  0  0 
  4  6  2  0  0  0  0 
  4  7  1  0  0  0  0 
  5  8  1  0  0  0  0 
  6  9  1  0  0  0  0 
  6 10  1  0  0  0  0 
  7 11  2  0  0  0  0 
  8 12  1  0  0  0  0 
  8 13  2  0  0  0  0 
  9 14  1  0  0  0  0 
 10 15  2  0  0  0  0 
 11 15  1  0  0  0  0 
 11 16  1  0  0  0  0 
 14 17  1  0  0  0  0 
 15 18  1  0  0  0  0 
 16 19  1  0  0  0  0 
 18 20  1  0  0  0  0 
 19 21  1  0  0  0  0 
 20 22  1  0  0  0  0 
 23  2  1  0  0  0  0 
 24  2  1  0  0  0  0 
 25  5  1  0  0  0  0 
 26  5  1  0  0  0  0 
 27  7  1  0  0  0  0 
 28 10  1  0  0  0  0 
 29 12  1  0  0  0  0 
 30 14  1  0  0  0  0 
 31 14  1  0  0  0  0 
 32 17  1  0  0  0  0 
 33 17  1  0  0  0  0 
 34 17  1  0  0  0  0 
 35 19  1  0  0  0  0 
 36 19  1  0  0  0  0 
 37 20  1  0  0  0  0 
 38 20  1  0  0  0  0 
 39 21  1  0  0  0  0 
 40 21  1  0  0  0  0 
 41 21  1  0  0  0  0 
 42 22  1  0  0  0  0 
 43 22  1  0  0  0  0 
 44 22  1  0  0  0  0 
M  END
> <cdk:Title>
trepibutone

> <Conformer>
1

> <SuperDrugID>
SD002450

$$$$
