oxymesterone
  CDK     0628171801

 53 56  0  0  0  0  0  0  0  0999 V2000
   -3.4665    0.1425   -0.4263 C   0  0  0  0  0  0  0  0  0  0  0  0
   -2.7429    0.0369    0.9697 C   0  0  1  0  0  0  0  0  0  0  0  0
   -3.7834    0.0175    2.1777 C   0  0  2  0  0  0  0  0  0  0  0  0
   -1.8537   -1.2718    1.0714 C   0  0  1  0  0  0  0  0  0  0  0  0
   -1.7455    1.2492    1.1089 C   0  0  1  0  0  0  0  0  0  0  0  0
   -4.6745   -1.2873    2.1606 C   0  0  2  0  0  0  0  0  0  0  0  0
   -4.6169    1.3370    2.3847 C   0  0  1  0  0  0  0  0  0  0  0  0
   -2.7053   -2.5801    1.0899 C   0  0  1  0  0  0  0  0  0  0  0  0
   -0.7320   -1.2993    0.0851 C   0  0  0  0  0  0  0  0  0  0  0  0
   -0.5516    1.2361    0.1083 C   0  0  2  0  0  0  0  0  0  0  0  0
   -5.6941   -1.2656    3.3446 C   0  0  1  0  0  0  0  0  0  0  0  0
   -3.7797   -2.5630    2.2033 C   0  0  1  0  0  0  0  0  0  0  0  0
   -5.6924    1.2412    3.5124 C   0  0  1  0  0  0  0  0  0  0  0  0
   -0.3545   -2.3821   -0.4243 O   0  0  0  0  0  0  0  0  0  0  0  0
   -0.0571   -0.1074   -0.2707 C   0  0  0  0  0  0  0  0  0  0  0  0
   -6.6270   -0.0111    3.3504 C   0  0  1  0  0  0  0  0  0  0  0  0
   -6.6592   -2.4592    3.5050 C   0  0  2  0  0  0  0  0  0  0  0  0
    0.9722   -0.1667   -0.9862 O   0  0  0  0  0  0  0  0  0  0  0  0
   -7.4862    0.1689    2.0346 C   0  0  0  0  0  0  0  0  0  0  0  0
   -7.5955   -0.3723    4.5483 C   0  0  1  0  0  0  0  0  0  0  0  0
   -7.7999   -1.9197    4.4031 C   0  0  1  0  0  0  0  0  0  0  0  0
   -7.0878   -0.0097    5.9789 C   0  0  0  0  0  0  0  0  0  0  0  0
   -8.8647    0.2871    4.4460 O   0  0  0  0  0  0  0  0  0  0  0  0
   -4.1651   -0.6725   -0.5958 H   0  0  0  0  0  0  0  0  0  0  0  0
   -4.0207    1.0767   -0.5140 H   0  0  0  0  0  0  0  0  0  0  0  0
   -2.7550    0.1135   -1.2513 H   0  0  0  0  0  0  0  0  0  0  0  0
   -3.1860   -0.0509    3.0953 H   0  0  0  0  0  0  0  0  0  0  0  0
   -1.3459   -1.2496    2.0423 H   0  0  0  0  0  0  0  0  0  0  0  0
   -2.2731    2.1990    0.9882 H   0  0  0  0  0  0  0  0  0  0  0  0
   -1.3253    1.2484    2.1193 H   0  0  0  0  0  0  0  0  0  0  0  0
   -5.2517   -1.3368    1.2385 H   0  0  0  0  0  0  0  0  0  0  0  0
   -3.9435    2.1528    2.6611 H   0  0  0  0  0  0  0  0  0  0  0  0
   -5.0984    1.6362    1.4543 H   0  0  0  0  0  0  0  0  0  0  0  0
   -3.1848   -2.7327    0.1200 H   0  0  0  0  0  0  0  0  0  0  0  0
   -2.0548   -3.4407    1.2725 H   0  0  0  0  0  0  0  0  0  0  0  0
    0.2745    1.8103    0.5382 H   0  0  0  0  0  0  0  0  0  0  0  0
   -0.8562    1.7442   -0.8110 H   0  0  0  0  0  0  0  0  0  0  0  0
   -5.0813   -1.2561    4.2549 H   0  0  0  0  0  0  0  0  0  0  0  0
   -3.2799   -2.6308    3.1746 H   0  0  0  0  0  0  0  0  0  0  0  0
   -4.4019   -3.4543    2.0874 H   0  0  0  0  0  0  0  0  0  0  0  0
   -5.1609    1.2017    4.4679 H   0  0  0  0  0  0  0  0  0  0  0  0
   -6.2925    2.1546    3.5198 H   0  0  0  0  0  0  0  0  0  0  0  0
   -6.1587   -3.3114    3.9744 H   0  0  0  0  0  0  0  0  0  0  0  0
   -7.0474   -2.7740    2.5306 H   0  0  0  0  0  0  0  0  0  0  0  0
   -6.8814    0.2367    1.1338 H   0  0  0  0  0  0  0  0  0  0  0  0
   -8.0726    1.0886    2.0929 H   0  0  0  0  0  0  0  0  0  0  0  0
   -8.1835   -0.6561    1.8852 H   0  0  0  0  0  0  0  0  0  0  0  0
   -8.7618   -2.1411    3.9307 H   0  0  0  0  0  0  0  0  0  0  0  0
   -7.7861   -2.4314    5.3711 H   0  0  0  0  0  0  0  0  0  0  0  0
   -6.1300   -0.4826    6.2005 H   0  0  0  0  0  0  0  0  0  0  0  0
   -7.8084   -0.3438    6.7289 H   0  0  0  0  0  0  0  0  0  0  0  0
   -6.9777    1.0701    6.0850 H   0  0  0  0  0  0  0  0  0  0  0  0
   -8.6615    1.2432    4.5271 H   0  0  0  0  0  0  0  0  0  0  0  0
  2  1  1  0  0  0  0 
  2  3  1  0  0  0  0 
  2  4  1  0  0  0  0 
  2  5  1  0  0  0  0 
  3  6  1  0  0  0  0 
  3  7  1  0  0  0  0 
  4  8  1  0  0  0  0 
  4  9  1  0  0  0  0 
  5 10  1  0  0  0  0 
  6 11  1  0  0  0  0 
  6 12  1  0  0  0  0 
  7 13  1  0  0  0  0 
  8 12  1  0  0  0  0 
  9 14  2  0  0  0  0 
  9 15  1  0  0  0  0 
 10 15  1  0  0  0  0 
 11 16  1  0  0  0  0 
 11 17  1  0  0  0  0 
 16 13  1  0  0  0  0 
 15 18  2  0  0  0  0 
 16 19  1  0  0  0  0 
 16 20  1  0  0  0  0 
 17 21  1  0  0  0  0 
 20 21  1  0  0  0  0 
 20 22  1  0  0  0  0 
 20 23  1  0  0  0  0 
 24  1  1  0  0  0  0 
 25  1  1  0  0  0  0 
 26  1  1  0  0  0  0 
  3 27  1  0  0  0  0 
 28  4  1  0  0  0  0 
 29  5  1  0  0  0  0 
 30  5  1  0  0  0  0 
  6 31  1  0  0  0  0 
 32  7  1  0  0  0  0 
 33  7  1  0  0  0  0 
 34  8  1  0  0  0  0 
 35  8  1  0  0  0  0 
 36 10  1  0  0  0  0 
 37 10  1  0  0  0  0 
 11 38  1  0  0  0  0 
 39 12  1  0  0  0  0 
 40 12  1  0  0  0  0 
 41 13  1  0  0  0  0 
 42 13  1  0  0  0  0 
 43 17  1  0  0  0  0 
 44 17  1  0  0  0  0 
 45 19  1  0  0  0  0 
 46 19  1  0  0  0  0 
 47 19  1  0  0  0  0 
 48 21  1  0  0  0  0 
 49 21  1  0  0  0  0 
 50 22  1  0  0  0  0 
 51 22  1  0  0  0  0 
 52 22  1  0  0  0  0 
 53 23  1  0  0  0  0 
M  END
> <cdk:Title>
oxymesterone

> <Conformer>
1

> <SuperDrugID>
SD001818

$$$$
