mannite hexanitrate
  CDK     0628171801

 38 37  0  0  0  0  0  0  0  0999 V2000
   -6.7183    4.1532   -1.4114 O   0  0  0  0  0  0  0  0  0  0  0  0
   -6.3820    4.3988   -0.2143 N   0  0  0  0  0  0  0  0  0  0  0  0
   -7.1595    4.2353    0.6407 O   0  0  0  0  0  0  0  0  0  0  0  0
   -5.2192    4.8646    0.0495 O   0  0  0  0  0  0  0  0  0  0  0  0
   -4.2327    3.8301    0.2297 C   0  0  2  0  0  0  0  0  0  0  0  0
   -2.8502    4.4368    0.6116 C   0  0  1  0  0  0  0  0  0  0  0  0
   -2.8254    5.0771    1.9080 O   0  0  0  0  0  0  0  0  0  0  0  0
   -3.5814    6.0999    2.0463 N   0  0  0  0  0  0  0  0  0  0  0  0
   -4.6848    5.9906    2.6589 O   0  0  0  0  0  0  0  0  0  0  0  0
   -3.2474    7.1524    1.6634 O   0  0  0  0  0  0  0  0  0  0  0  0
   -1.6750    3.4055    0.5326 C   0  0  1  0  0  0  0  0  0  0  0  0
   -0.4452    4.1607    0.6800 O   0  0  0  0  0  0  0  0  0  0  0  0
    0.5315    3.7675   -0.0539 N   0  0  0  0  0  0  0  0  0  0  0  0
    0.6325    4.1699   -1.2518 O   0  0  0  0  0  0  0  0  0  0  0  0
    1.3669    3.0780    0.3774 O   0  0  0  0  0  0  0  0  0  0  0  0
   -1.6831    2.1632    1.5049 C   0  0  2  0  0  0  0  0  0  0  0  0
   -2.7824    1.2655    1.2136 O   0  0  0  0  0  0  0  0  0  0  0  0
   -2.6174    0.4961    0.2011 N   0  0  0  0  0  0  0  0  0  0  0  0
   -1.8668   -0.5249    0.2768 O   0  0  0  0  0  0  0  0  0  0  0  0
   -3.2144    0.6834   -0.7828 O   0  0  0  0  0  0  0  0  0  0  0  0
   -1.6910    2.3877    3.0598 C   0  0  1  0  0  0  0  0  0  0  0  0
   -0.5500    3.2788    3.6187 C   0  0  1  0  0  0  0  0  0  0  0  0
    0.7409    2.7403    3.2705 O   0  0  0  0  0  0  0  0  0  0  0  0
    1.7069    3.4444    3.7297 N   0  0  0  0  0  0  0  0  0  0  0  0
    2.0642    3.3477    4.9434 O   0  0  0  0  0  0  0  0  0  0  0  0
    2.3019    4.1521    3.0191 O   0  0  0  0  0  0  0  0  0  0  0  0
   -2.9338    2.9341    3.5658 O   0  0  0  0  0  0  0  0  0  0  0  0
   -3.8804    2.1009    3.8136 N   0  0  0  0  0  0  0  0  0  0  0  0
   -3.7641    1.1739    4.6742 O   0  0  0  0  0  0  0  0  0  0  0  0
   -4.9254    2.2556    3.3240 O   0  0  0  0  0  0  0  0  0  0  0  0
   -4.1349    3.2668   -0.7018 H   0  0  0  0  0  0  0  0  0  0  0  0
   -4.5547    3.1509    1.0156 H   0  0  0  0  0  0  0  0  0  0  0  0
   -2.6312    5.2000   -0.1458 H   0  0  0  0  0  0  0  0  0  0  0  0
   -1.7203    3.0025   -0.4871 H   0  0  0  0  0  0  0  0  0  0  0  0
   -0.7466    1.6254    1.3120 H   0  0  0  0  0  0  0  0  0  0  0  0
   -1.5149    1.4051    3.5169 H   0  0  0  0  0  0  0  0  0  0  0  0
   -0.6545    4.3006    3.2492 H   0  0  0  0  0  0  0  0  0  0  0  0
   -0.6466    3.3087    4.7100 H   0  0  0  0  0  0  0  0  0  0  0  0
  1  2  1  0  0  0  0 
  2  3  2  0  0  0  0 
  2  4  1  0  0  0  0 
  4  5  1  0  0  0  0 
  5  6  1  0  0  0  0 
  6  7  1  0  0  0  0 
  7  8  1  0  0  0  0 
  8  9  1  0  0  0  0 
  8 10  2  0  0  0  0 
  6 11  1  0  0  0  0 
 11 12  1  0  0  0  0 
 12 13  1  0  0  0  0 
 13 14  1  0  0  0  0 
 13 15  2  0  0  0  0 
 11 16  1  0  0  0  0 
 16 17  1  0  0  0  0 
 17 18  1  0  0  0  0 
 18 19  1  0  0  0  0 
 18 20  2  0  0  0  0 
 16 21  1  0  0  0  0 
 21 22  1  0  0  0  0 
 22 23  1  0  0  0  0 
 23 24  1  0  0  0  0 
 24 25  1  0  0  0  0 
 24 26  2  0  0  0  0 
 21 27  1  0  0  0  0 
 27 28  1  0  0  0  0 
 28 29  1  0  0  0  0 
 28 30  2  0  0  0  0 
  5 31  1  0  0  0  0 
  5 32  1  0  0  0  0 
  6 33  1  0  0  0  0 
 11 34  1  0  0  0  0 
 16 35  1  0  0  0  0 
 21 36  1  0  0  0  0 
 22 37  1  0  0  0  0 
 22 38  1  0  0  0  0 
M  CHG  1   1  -1
M  CHG  1   2   1
M  CHG  1   8   1
M  CHG  1   9  -1
M  CHG  1  13   1
M  CHG  1  14  -1
M  CHG  1  18   1
M  CHG  1  19  -1
M  CHG  1  24   1
M  CHG  1  25  -1
M  CHG  1  28   1
M  CHG  1  29  -1
M  END
> <cdk:Title>
mannite hexanitrate

> <Conformer>
1

> <SuperDrugID>
SD002874

$$$$
