etifoxine
  CDK     0628171801

 38 40  0  0  0  0  0  0  0  0999 V2000
    3.3359    0.3700    0.2274 C   0  0  0  0  0  0  0  0  0  0  0  0
    2.0185   -0.2067   -0.3271 C   0  0  2  0  0  0  0  0  0  0  0  0
    2.2840   -1.2145   -1.2501 N   0  0  0  0  0  0  0  0  0  0  0  0
    1.4345   -1.9290   -1.8922 C   0  0  0  0  0  0  0  0  0  0  0  0
    1.9163   -2.8631   -2.7013 N   0  0  0  0  0  0  0  0  0  0  0  0
    1.1122   -3.6079   -3.5045 C   0  0  0  0  0  0  0  0  0  0  0  0
    1.6606   -4.6877   -4.2257 C   0  0  0  0  0  0  0  0  0  0  0  0
    0.8480   -5.4388   -5.0924 C   0  0  0  0  0  0  0  0  0  0  0  0
   -0.5104   -5.1034   -5.2594 C   0  0  0  0  0  0  0  0  0  0  0  0
   -1.4823   -6.0015   -6.3152 Cl  0  0  0  0  0  0  0  0  0  0  0  0
   -1.0579   -4.0186   -4.5461 C   0  0  0  0  0  0  0  0  0  0  0  0
   -0.2623   -3.2825   -3.6350 C   0  0  0  0  0  0  0  0  0  0  0  0
   -0.7947   -2.1392   -2.8019 C   0  0  1  0  0  0  0  0  0  0  0  0
   -2.0620   -2.6550   -2.0359 C   0  0  0  0  0  0  0  0  0  0  0  0
    0.1039   -1.7750   -1.7150 O   0  0  0  0  0  0  0  0  0  0  0  0
   -1.0005   -0.8596   -3.5868 C   0  0  0  0  0  0  0  0  0  0  0  0
   -1.8604    0.1638   -3.1068 C   0  0  0  0  0  0  0  0  0  0  0  0
   -2.0201    1.3804   -3.7935 C   0  0  0  0  0  0  0  0  0  0  0  0
   -1.3027    1.6181   -4.9760 C   0  0  0  0  0  0  0  0  0  0  0  0
   -0.4246    0.6388   -5.4651 C   0  0  0  0  0  0  0  0  0  0  0  0
   -0.2788   -0.5806   -4.7808 C   0  0  0  0  0  0  0  0  0  0  0  0
    3.1205    1.2035    0.8986 H   0  0  0  0  0  0  0  0  0  0  0  0
    3.9672    0.7320   -0.5871 H   0  0  0  0  0  0  0  0  0  0  0  0
    3.8794   -0.3963    0.7853 H   0  0  0  0  0  0  0  0  0  0  0  0
    1.4491    0.5924   -0.8077 H   0  0  0  0  0  0  0  0  0  0  0  0
    1.4287   -0.6094    0.5016 H   0  0  0  0  0  0  0  0  0  0  0  0
    2.8746   -3.0228   -2.7154 H   0  0  0  0  0  0  0  0  0  0  0  0
    2.6488   -4.9375   -4.1199 H   0  0  0  0  0  0  0  0  0  0  0  0
    1.2536   -6.2283   -5.6017 H   0  0  0  0  0  0  0  0  0  0  0  0
   -2.0400   -3.7704   -4.6858 H   0  0  0  0  0  0  0  0  0  0  0  0
   -1.8701   -3.6378   -1.5961 H   0  0  0  0  0  0  0  0  0  0  0  0
   -2.9221   -2.7395   -2.7029 H   0  0  0  0  0  0  0  0  0  0  0  0
   -2.3388   -1.9917   -1.2137 H   0  0  0  0  0  0  0  0  0  0  0  0
   -2.3802    0.0464   -2.2392 H   0  0  0  0  0  0  0  0  0  0  0  0
   -2.6519    2.0958   -3.4270 H   0  0  0  0  0  0  0  0  0  0  0  0
   -1.4138    2.5035   -5.4742 H   0  0  0  0  0  0  0  0  0  0  0  0
    0.1137    0.8187   -6.3148 H   0  0  0  0  0  0  0  0  0  0  0  0
    0.3809   -1.2560   -5.1670 H   0  0  0  0  0  0  0  0  0  0  0  0
  1  2  1  0  0  0  0 
  3  2  1  0  0  0  0 
  3  4  2  0  0  0  0 
  4  5  1  0  0  0  0 
  5  6  1  0  0  0  0 
  6  7  2  0  0  0  0 
  7  8  1  0  0  0  0 
  8  9  2  0  0  0  0 
  9 10  1  0  0  0  0 
  9 11  1  0  0  0  0 
 11 12  2  0  0  0  0 
  6 12  1  0  0  0  0 
 13 12  1  0  0  0  0 
 13 14  1  0  0  0  0 
 13 15  1  0  0  0  0 
  4 15  1  0  0  0  0 
 13 16  1  0  0  0  0 
 16 17  2  0  0  0  0 
 17 18  1  0  0  0  0 
 18 19  2  0  0  0  0 
 19 20  1  0  0  0  0 
 20 21  2  0  0  0  0 
 16 21  1  0  0  0  0 
 22  1  1  0  0  0  0 
 23  1  1  0  0  0  0 
 24  1  1  0  0  0  0 
 25  2  1  0  0  0  0 
 26  2  1  0  0  0  0 
 27  5  1  0  0  0  0 
 28  7  1  0  0  0  0 
 29  8  1  0  0  0  0 
 30 11  1  0  0  0  0 
 31 14  1  0  0  0  0 
 32 14  1  0  0  0  0 
 33 14  1  0  0  0  0 
 34 17  1  0  0  0  0 
 35 18  1  0  0  0  0 
 36 19  1  0  0  0  0 
 37 20  1  0  0  0  0 
 38 21  1  0  0  0  0 
M  END
> <cdk:Title>
etifoxine

> <Conformer>
1

> <SuperDrugID>
SD000980

$$$$
