benoxaprofen
  CDK     0628171801

 33 35  0  0  0  0  0  0  0  0999 V2000
    5.0165    4.5630   -2.1746 C   0  0  1  0  0  0  0  0  0  0  0  0
    4.7926    4.7046   -3.6350 C   0  0  0  0  0  0  0  0  0  0  0  0
    4.4880    5.7986   -1.3959 C   0  0  0  0  0  0  0  0  0  0  0  0
    4.4719    3.2759   -1.6285 C   0  0  0  0  0  0  0  0  0  0  0  0
    5.8502    4.7546   -4.4795 O   0  0  0  0  0  0  0  0  0  0  0  0
    3.6444    4.8039   -4.1270 O   0  0  0  0  0  0  0  0  0  0  0  0
    3.0746    3.0075   -1.5940 C   0  0  0  0  0  0  0  0  0  0  0  0
    5.3602    2.3012   -1.0900 C   0  0  0  0  0  0  0  0  0  0  0  0
    2.6160    1.8234   -0.9920 C   0  0  0  0  0  0  0  0  0  0  0  0
    4.8844    1.1143   -0.4957 C   0  0  0  0  0  0  0  0  0  0  0  0
    3.4990    0.9050   -0.4452 C   0  0  0  0  0  0  0  0  0  0  0  0
    1.3707    1.3650   -0.8057 N   0  0  0  0  0  0  0  0  0  0  0  0
    2.7861   -0.1056    0.0912 O   0  0  0  0  0  0  0  0  0  0  0  0
    1.4788    0.1933   -0.1376 C   0  0  0  0  0  0  0  0  0  0  0  0
    0.3865   -0.6076    0.2875 C   0  0  0  0  0  0  0  0  0  0  0  0
    0.5706   -1.6470    1.2322 C   0  0  0  0  0  0  0  0  0  0  0  0
   -0.9204   -0.3792   -0.2068 C   0  0  0  0  0  0  0  0  0  0  0  0
   -0.5190   -2.4098    1.6938 C   0  0  0  0  0  0  0  0  0  0  0  0
   -2.0119   -1.1436    0.2454 C   0  0  0  0  0  0  0  0  0  0  0  0
   -1.8138   -2.1572    1.2015 C   0  0  0  0  0  0  0  0  0  0  0  0
   -3.1244   -3.0743    1.7508 Cl  0  0  0  0  0  0  0  0  0  0  0  0
    6.1025    4.5789   -2.0279 H   0  0  0  0  0  0  0  0  0  0  0  0
    4.6611    5.6716   -0.3246 H   0  0  0  0  0  0  0  0  0  0  0  0
    3.4186    5.9486   -1.5636 H   0  0  0  0  0  0  0  0  0  0  0  0
    5.0158    6.6997   -1.7151 H   0  0  0  0  0  0  0  0  0  0  0  0
    5.7140    4.8847   -5.4401 H   0  0  0  0  0  0  0  0  0  0  0  0
    2.3972    3.6665   -1.9817 H   0  0  0  0  0  0  0  0  0  0  0  0
    6.3691    2.4542   -1.1173 H   0  0  0  0  0  0  0  0  0  0  0  0
    5.5297    0.4266   -0.1033 H   0  0  0  0  0  0  0  0  0  0  0  0
    1.5005   -1.8545    1.6066 H   0  0  0  0  0  0  0  0  0  0  0  0
   -1.0934    0.3481   -0.9050 H   0  0  0  0  0  0  0  0  0  0  0  0
   -0.3644   -3.1458    2.3876 H   0  0  0  0  0  0  0  0  0  0  0  0
   -2.9469   -0.9558   -0.1265 H   0  0  0  0  0  0  0  0  0  0  0  0
  1  2  1  0  0  0  0 
  1  3  1  0  0  0  0 
  1  4  1  0  0  0  0 
  2  5  1  0  0  0  0 
  2  6  2  0  0  0  0 
  4  7  1  0  0  0  0 
  4  8  2  0  0  0  0 
  7  9  2  0  0  0  0 
  8 10  1  0  0  0  0 
  9 11  1  0  0  0  0 
  9 12  1  0  0  0  0 
 10 11  2  0  0  0  0 
 11 13  1  0  0  0  0 
 12 14  2  0  0  0  0 
 13 14  1  0  0  0  0 
 14 15  1  0  0  0  0 
 15 16  2  0  0  0  0 
 15 17  1  0  0  0  0 
 16 18  1  0  0  0  0 
 17 19  2  0  0  0  0 
 18 20  2  0  0  0  0 
 19 20  1  0  0  0  0 
 20 21  1  0  0  0  0 
  1 22  1  0  0  0  0 
  3 23  1  0  0  0  0 
  3 24  1  0  0  0  0 
  3 25  1  0  0  0  0 
  5 26  1  0  0  0  0 
  7 27  1  0  0  0  0 
  8 28  1  0  0  0  0 
 10 29  1  0  0  0  0 
 16 30  1  0  0  0  0 
 17 31  1  0  0  0  0 
 18 32  1  0  0  0  0 
 19 33  1  0  0  0  0 
M  END
> <cdk:Title>
benoxaprofen

> <Conformer>
1

> <SuperDrugID>
SD000260

$$$$
