benzylhydrochlorothiazide
  CDK     0628171801

 38 40  0  0  0  0  0  0  0  0999 V2000
   -3.7376   -0.7263   -4.8783 O   0  0  0  0  0  0  0  0  0  0  0  0
   -2.6306   -1.5382   -4.0512 S   0  0  2  0  0  0  0  0  0  0  0  0
   -1.3401   -1.8230   -4.9582 O   0  0  0  0  0  0  0  0  0  0  0  0
   -3.2865   -3.0346   -3.3925 C   0  0  0  0  0  0  0  0  0  0  0  0
   -2.1581   -0.5980   -2.6406 N   0  0  2  0  0  0  0  0  0  0  0  0
   -2.8658   -3.4206   -2.1045 C   0  0  0  0  0  0  0  0  0  0  0  0
   -4.2202   -3.8074   -4.1064 C   0  0  0  0  0  0  0  0  0  0  0  0
   -1.3814   -1.4274   -1.6851 C   0  0  2  0  0  0  0  0  0  0  0  0
   -1.9537   -2.7130   -1.3744 N   0  0  0  0  0  0  0  0  0  0  0  0
   -3.4093   -4.5902   -1.5349 C   0  0  0  0  0  0  0  0  0  0  0  0
   -4.7785   -4.9688   -3.5297 C   0  0  0  0  0  0  0  0  0  0  0  0
   -1.2365   -0.6003   -0.3775 C   0  0  1  0  0  0  0  0  0  0  0  0
   -4.3726   -5.3532   -2.2267 C   0  0  0  0  0  0  0  0  0  0  0  0
   -5.9827   -5.9043   -4.4399 S   0  0  1  0  0  0  0  0  0  0  0  0
   -0.4230   -1.2711    0.6755 C   0  0  0  0  0  0  0  0  0  0  0  0
   -5.0205   -6.7075   -1.4347 Cl  0  0  0  0  0  0  0  0  0  0  0  0
   -6.2414   -5.2392   -6.0459 N   0  0  2  0  0  0  0  0  0  0  0  0
   -5.4945   -7.4232   -4.6077 O   0  0  0  0  0  0  0  0  0  0  0  0
   -7.3888   -5.8962   -3.6677 O   0  0  0  0  0  0  0  0  0  0  0  0
    0.9824   -1.1117    0.7099 C   0  0  0  0  0  0  0  0  0  0  0  0
   -1.0377   -2.0868    1.6576 C   0  0  0  0  0  0  0  0  0  0  0  0
    1.7507   -1.7326    1.7117 C   0  0  0  0  0  0  0  0  0  0  0  0
   -0.2676   -2.7184    2.6513 C   0  0  0  0  0  0  0  0  0  0  0  0
    1.1268   -2.5363    2.6823 C   0  0  0  0  0  0  0  0  0  0  0  0
   -3.0323   -0.3588   -2.1671 H   0  0  0  0  0  0  0  0  0  0  0  0
   -4.4956   -3.5076   -5.0419 H   0  0  0  0  0  0  0  0  0  0  0  0
   -0.3833   -1.5900   -2.1043 H   0  0  0  0  0  0  0  0  0  0  0  0
   -1.6494   -3.1260   -0.5508 H   0  0  0  0  0  0  0  0  0  0  0  0
   -3.1099   -4.8812   -0.5994 H   0  0  0  0  0  0  0  0  0  0  0  0
   -0.7807    0.3653   -0.6172 H   0  0  0  0  0  0  0  0  0  0  0  0
   -2.2347   -0.3807    0.0157 H   0  0  0  0  0  0  0  0  0  0  0  0
   -5.3381   -5.2840   -6.5217 H   0  0  0  0  0  0  0  0  0  0  0  0
   -6.4637   -4.2492   -5.9207 H   0  0  0  0  0  0  0  0  0  0  0  0
    1.4568   -0.5413    0.0061 H   0  0  0  0  0  0  0  0  0  0  0  0
   -2.0510   -2.2331    1.6528 H   0  0  0  0  0  0  0  0  0  0  0  0
    2.7640   -1.6014    1.7328 H   0  0  0  0  0  0  0  0  0  0  0  0
   -0.7217   -3.3117    3.3497 H   0  0  0  0  0  0  0  0  0  0  0  0
    1.6864   -2.9899    3.4086 H   0  0  0  0  0  0  0  0  0  0  0  0
  1  2  2  0  0  0  0 
  2  3  2  0  0  0  0 
  2  4  1  0  0  0  0 
  2  5  1  0  0  0  0 
  4  6  2  0  0  0  0 
  4  7  1  0  0  0  0 
  5  8  1  0  0  0  0 
  6  9  1  0  0  0  0 
  6 10  1  0  0  0  0 
  7 11  2  0  0  0  0 
  8  9  1  0  0  0  0 
  8 12  1  0  0  0  0 
 10 13  2  0  0  0  0 
 11 13  1  0  0  0  0 
 11 14  1  0  0  0  0 
 12 15  1  0  0  0  0 
 13 16  1  0  0  0  0 
 14 17  1  0  0  0  0 
 14 18  2  0  0  0  0 
 14 19  2  0  0  0  0 
 15 20  2  0  0  0  0 
 15 21  1  0  0  0  0 
 20 22  1  0  0  0  0 
 21 23  2  0  0  0  0 
 22 24  2  0  0  0  0 
 23 24  1  0  0  0  0 
  5 25  1  0  0  0  0 
  7 26  1  0  0  0  0 
  8 27  1  0  0  0  0 
  9 28  1  0  0  0  0 
 10 29  1  0  0  0  0 
 12 30  1  0  0  0  0 
 12 31  1  0  0  0  0 
 17 32  1  0  0  0  0 
 17 33  1  0  0  0  0 
 20 34  1  0  0  0  0 
 21 35  1  0  0  0  0 
 22 36  1  0  0  0  0 
 23 37  1  0  0  0  0 
 24 38  1  0  0  0  0 
M  END
> <cdk:Title>
benzylhydrochlorothiazide

> <Conformer>
1

> <SuperDrugID>
SD000284

$$$$
