chlorotrianisene
  CDK     0628171802

 48 50  0  0  0  0  0  0  0  0999 V2000
    1.8950    3.9363   -0.9578 C   0  0  0  0  0  0  0  0  0  0  0  0
    2.6369    4.6668   -0.0105 C   0  0  0  0  0  0  0  0  0  0  0  0
    1.3840    4.5058   -2.0842 C   0  0  0  0  0  0  0  0  0  0  0  0
    0.7721    3.7952   -3.1215 C   0  0  0  0  0  0  0  0  0  0  0  0
    1.4658    6.1549   -2.3633 Cl  0  0  0  0  0  0  0  0  0  0  0  0
    1.7282    2.5659   -0.6848 C   0  0  0  0  0  0  0  0  0  0  0  0
    0.4412    1.9710   -0.6284 C   0  0  0  0  0  0  0  0  0  0  0  0
    0.2950    0.5916   -0.3970 C   0  0  0  0  0  0  0  0  0  0  0  0
    1.4310   -0.2184   -0.2075 C   0  0  0  0  0  0  0  0  0  0  0  0
    2.7132    0.3640   -0.2256 C   0  0  0  0  0  0  0  0  0  0  0  0
    2.8594    1.7406   -0.4685 C   0  0  0  0  0  0  0  0  0  0  0  0
    2.2074    4.7475    1.3370 C   0  0  0  0  0  0  0  0  0  0  0  0
    2.9716    5.4373    2.2958 C   0  0  0  0  0  0  0  0  0  0  0  0
    4.1843    6.0546    1.9331 C   0  0  0  0  0  0  0  0  0  0  0  0
    4.6094    6.0057    0.5908 C   0  0  0  0  0  0  0  0  0  0  0  0
    3.8509    5.3090   -0.3671 C   0  0  0  0  0  0  0  0  0  0  0  0
    1.5043    2.8293   -3.8542 C   0  0  0  0  0  0  0  0  0  0  0  0
    0.9036    2.1165   -4.9073 C   0  0  0  0  0  0  0  0  0  0  0  0
   -0.4346    2.3728   -5.2677 C   0  0  0  0  0  0  0  0  0  0  0  0
   -1.1737    3.3290   -4.5435 C   0  0  0  0  0  0  0  0  0  0  0  0
   -0.5805    4.0274   -3.4742 C   0  0  0  0  0  0  0  0  0  0  0  0
   -1.0404    1.6877   -6.2863 O   0  0  0  0  0  0  0  0  0  0  0  0
   -0.6945    2.1716   -7.5962 C   0  0  0  0  0  0  0  0  0  0  0  0
    1.2879   -1.5599    0.0171 O   0  0  0  0  0  0  0  0  0  0  0  0
    1.2844   -2.3302   -1.1977 C   0  0  0  0  0  0  0  0  0  0  0  0
    4.9142    6.7195    2.8804 O   0  0  0  0  0  0  0  0  0  0  0  0
    6.0873    6.0041    3.3095 C   0  0  0  0  0  0  0  0  0  0  0  0
   -0.4028    2.5346   -0.7627 H   0  0  0  0  0  0  0  0  0  0  0  0
   -0.6388    0.1758   -0.3728 H   0  0  0  0  0  0  0  0  0  0  0  0
    3.5417   -0.2153   -0.0713 H   0  0  0  0  0  0  0  0  0  0  0  0
    3.8032    2.1345   -0.4974 H   0  0  0  0  0  0  0  0  0  0  0  0
    1.3319    4.3046    1.6294 H   0  0  0  0  0  0  0  0  0  0  0  0
    2.6416    5.4902    3.2606 H   0  0  0  0  0  0  0  0  0  0  0  0
    5.4777    6.4718    0.3160 H   0  0  0  0  0  0  0  0  0  0  0  0
    4.1995    5.2691   -1.3281 H   0  0  0  0  0  0  0  0  0  0  0  0
    2.4854    2.6405   -3.6313 H   0  0  0  0  0  0  0  0  0  0  0  0
    1.4470    1.4163   -5.4170 H   0  0  0  0  0  0  0  0  0  0  0  0
   -2.1452    3.5236   -4.7983 H   0  0  0  0  0  0  0  0  0  0  0  0
   -1.1445    4.7100   -2.9582 H   0  0  0  0  0  0  0  0  0  0  0  0
   -1.3398    1.6730   -8.3198 H   0  0  0  0  0  0  0  0  0  0  0  0
   -0.8475    3.2506   -7.6919 H   0  0  0  0  0  0  0  0  0  0  0  0
    0.3413    1.9269   -7.8415 H   0  0  0  0  0  0  0  0  0  0  0  0
    1.2049   -3.3820   -0.9252 H   0  0  0  0  0  0  0  0  0  0  0  0
    0.4293   -2.0745   -1.8306 H   0  0  0  0  0  0  0  0  0  0  0  0
    2.2103   -2.1987   -1.7660 H   0  0  0  0  0  0  0  0  0  0  0  0
    6.5642    6.5875    4.0976 H   0  0  0  0  0  0  0  0  0  0  0  0
    5.8344    5.0196    3.7140 H   0  0  0  0  0  0  0  0  0  0  0  0
    6.8043    5.8879    2.4922 H   0  0  0  0  0  0  0  0  0  0  0  0
  1  2  1  0  0  0  0 
  1  3  2  0  0  0  0 
  3  4  1  0  0  0  0 
  3  5  1  0  0  0  0 
  1  6  1  0  0  0  0 
  7  8  1  0  0  0  0 
  8  9  2  0  0  0  0 
  9 10  1  0  0  0  0 
 10 11  2  0  0  0  0 
  6  7  2  0  0  0  0 
  6 11  1  0  0  0  0 
 12 13  1  0  0  0  0 
 13 14  2  0  0  0  0 
 14 15  1  0  0  0  0 
 15 16  2  0  0  0  0 
  2 12  2  0  0  0  0 
  2 16  1  0  0  0  0 
 17 18  1  0  0  0  0 
 18 19  2  0  0  0  0 
 19 20  1  0  0  0  0 
 20 21  2  0  0  0  0 
  4 17  2  0  0  0  0 
  4 21  1  0  0  0  0 
 19 22  1  0  0  0  0 
 22 23  1  0  0  0  0 
  9 24  1  0  0  0  0 
 24 25  1  0  0  0  0 
 14 26  1  0  0  0  0 
 26 27  1  0  0  0  0 
  7 28  1  0  0  0  0 
  8 29  1  0  0  0  0 
 10 30  1  0  0  0  0 
 11 31  1  0  0  0  0 
 12 32  1  0  0  0  0 
 13 33  1  0  0  0  0 
 15 34  1  0  0  0  0 
 16 35  1  0  0  0  0 
 17 36  1  0  0  0  0 
 18 37  1  0  0  0  0 
 20 38  1  0  0  0  0 
 21 39  1  0  0  0  0 
 23 40  1  0  0  0  0 
 23 41  1  0  0  0  0 
 23 42  1  0  0  0  0 
 25 43  1  0  0  0  0 
 25 44  1  0  0  0  0 
 25 45  1  0  0  0  0 
 27 46  1  0  0  0  0 
 27 47  1  0  0  0  0 
 27 48  1  0  0  0  0 
M  END
> <cdk:Title>
chlorotrianisene

> <Conformer>
1

> <SuperDrugID>
SD000532

$$$$
