vinflunine
  CDK     0628171801

113121  0  0  0  0  0  0  0  0999 V2000
   -8.9234   -0.4983    2.9043 C   0  0  2  0  0  0  0  0  0  0  0  0
  -10.3304    0.1222    3.1303 C   0  0  0  0  0  0  0  0  0  0  0  0
   -8.7494   -2.0569    3.1100 C   0  0  1  0  0  0  0  0  0  0  0  0
   -7.2873   -2.4294    2.6492 C   0  0  1  0  0  0  0  0  0  0  0  0
   -8.9856   -2.5877    4.5877 C   0  0  1  0  0  0  0  0  0  0  0  0
   -9.7387   -2.7345    2.2299 C   0  0  0  0  0  0  0  0  0  0  0  0
   -6.1102   -2.2455    3.6519 C   0  0  2  0  0  0  0  0  0  0  0  0
   -7.2294   -3.8779    2.3392 N   0  0  2  0  0  0  0  0  0  0  0  0
   -9.0465   -4.0359    4.5541 O   0  0  0  0  0  0  0  0  0  0  0  0
   -7.8893   -2.2382    5.6670 C   0  0  1  0  0  0  0  0  0  0  0  0
   -9.4602   -3.7385    1.3780 C   0  0  0  0  0  0  0  0  0  0  0  0
   -6.4408   -2.6202    5.1432 C   0  0  2  0  0  0  0  0  0  0  0  0
   -5.4877   -0.9161    3.8560 C   0  0  0  0  0  0  0  0  0  0  0  0
   -5.0400   -3.1952    3.0123 C   0  0  1  0  0  0  0  0  0  0  0  0
   -5.8171   -4.2936    2.2587 C   0  0  1  0  0  0  0  0  0  0  0  0
   -8.1272   -4.2899    1.2234 C   0  0  2  0  0  0  0  0  0  0  0  0
  -10.0767   -4.8695    4.8961 C   0  0  0  0  0  0  0  0  0  0  0  0
   -8.0384   -0.8819    6.2971 C   0  0  0  0  0  0  0  0  0  0  0  0
   -8.1471   -3.0747    6.8080 O   0  0  0  0  0  0  0  0  0  0  0  0
   -5.3910   -1.9324    5.8513 N   0  0  0  0  0  0  0  0  0  0  0  0
   -5.0485   -0.8112    5.1671 C   0  0  0  0  0  0  0  0  0  0  0  0
   -5.2207    0.1107    2.9338 C   0  0  0  0  0  0  0  0  0  0  0  0
   -9.8662   -6.3217    4.8300 C   0  0  0  0  0  0  0  0  0  0  0  0
  -11.1900   -4.4310    5.2650 O   0  0  0  0  0  0  0  0  0  0  0  0
   -8.9734    0.0247    5.8918 O   0  0  0  0  0  0  0  0  0  0  0  0
   -7.3274   -0.5711    7.2838 O   0  0  0  0  0  0  0  0  0  0  0  0
   -4.7816   -2.4240    7.0561 C   0  0  0  0  0  0  0  0  0  0  0  0
   -4.4104    0.3610    5.5914 C   0  0  0  0  0  0  0  0  0  0  0  0
   -4.4439    1.2680    3.2647 C   0  0  0  0  0  0  0  0  0  0  0  0
   -9.1946    1.3379    6.4217 C   0  0  0  0  0  0  0  0  0  0  0  0
   -4.1553    1.4431    4.6688 C   0  0  0  0  0  0  0  0  0  0  0  0
   -4.0266    2.2592    2.1361 C   0  0  2  0  0  0  0  0  0  0  0  0
   -3.6431    2.6815    5.1190 O   0  0  0  0  0  0  0  0  0  0  0  0
   -2.8448    3.0528    2.6107 C   0  0  0  0  0  0  0  0  0  0  0  0
   -5.2108    3.1557    1.8178 C   0  0  0  0  0  0  0  0  0  0  0  0
   -3.5536    1.4305    0.8624 C   0  0  1  0  0  0  0  0  0  0  0  0
   -4.7461    3.5266    5.7224 C   0  0  0  0  0  0  0  0  0  0  0  0
   -1.6575    2.4109    2.8540 O   0  0  0  0  0  0  0  0  0  0  0  0
   -2.9348    4.2650    2.9254 O   0  0  0  0  0  0  0  0  0  0  0  0
   -5.3206    4.3187    1.0060 C   0  0  0  0  0  0  0  0  0  0  0  0
   -6.4216    2.9709    2.3945 N   0  0  0  0  0  0  0  0  0  0  0  0
   -2.9529    2.0124   -0.4673 C   0  0  1  0  0  0  0  0  0  0  0  0
   -0.4786    2.9992    3.4170 C   0  0  0  0  0  0  0  0  0  0  0  0
   -6.6290    4.7902    1.1684 C   0  0  0  0  0  0  0  0  0  0  0  0
   -4.2844    5.0381    0.2049 C   0  0  2  0  0  0  0  0  0  0  0  0
   -7.2743    3.9359    2.0527 C   0  0  0  0  0  0  0  0  0  0  0  0
   -3.9045    2.9498   -1.2620 C   0  0  1  0  0  0  0  0  0  0  0  0
   -1.4663    2.5093   -0.4707 C   0  0  1  0  0  0  0  0  0  0  0  0
   -7.3058    5.9177    0.6548 C   0  0  0  0  0  0  0  0  0  0  0  0
   -3.6580    4.3843   -0.9836 N   0  0  2  0  0  0  0  0  0  0  0  0
   -8.5907    4.1661    2.4838 C   0  0  0  0  0  0  0  0  0  0  0  0
   -1.2462    4.0508   -0.3348 C   0  0  2  0  0  0  0  0  0  0  0  0
   -8.6240    6.1743    1.0805 C   0  0  0  0  0  0  0  0  0  0  0  0
   -2.2514    4.8032   -1.2629 C   0  0  1  0  0  0  0  0  0  0  0  0
   -9.2627    5.3047    1.9927 C   0  0  0  0  0  0  0  0  0  0  0  0
    0.2502    4.4721   -0.5543 C   0  0  2  0  0  0  0  0  0  0  0  0
    0.5496    5.9396   -0.1466 C   0  0  0  0  0  0  0  0  0  0  0  0
    0.6277    4.2913   -1.8669 F   0  0  0  0  0  0  0  0  0  0  0  0
    1.0800    3.6751    0.2057 F   0  0  0  0  0  0  0  0  0  0  0  0
   -7.0456   -1.8961    1.7209 H   0  0  0  0  0  0  0  0  0  0  0  0
   -6.3217   -3.7054    5.2560 H   0  0  0  0  0  0  0  0  0  0  0  0
   -2.9039    1.1103   -1.0936 H   0  0  0  0  0  0  0  0  0  0  0  0
   -8.2079    0.0325    3.5330 H   0  0  0  0  0  0  0  0  0  0  0  0
   -8.6597   -0.2420    1.8718 H   0  0  0  0  0  0  0  0  0  0  0  0
  -10.2526    1.2101    3.1552 H   0  0  0  0  0  0  0  0  0  0  0  0
  -10.7748   -0.2107    4.0662 H   0  0  0  0  0  0  0  0  0  0  0  0
  -11.0073   -0.1383    2.3155 H   0  0  0  0  0  0  0  0  0  0  0  0
   -9.9519   -2.2176    4.9429 H   0  0  0  0  0  0  0  0  0  0  0  0
  -10.6926   -2.4588    2.2820 H   0  0  0  0  0  0  0  0  0  0  0  0
  -10.1971   -4.1276    0.8313 H   0  0  0  0  0  0  0  0  0  0  0  0
   -4.4205   -2.6557    2.2872 H   0  0  0  0  0  0  0  0  0  0  0  0
   -4.3702   -3.6303    3.7578 H   0  0  0  0  0  0  0  0  0  0  0  0
   -5.6979   -5.2654    2.7437 H   0  0  0  0  0  0  0  0  0  0  0  0
   -5.4648   -4.3655    1.2240 H   0  0  0  0  0  0  0  0  0  0  0  0
   -8.1961   -5.3797    1.2135 H   0  0  0  0  0  0  0  0  0  0  0  0
   -7.7267   -3.9632    0.2597 H   0  0  0  0  0  0  0  0  0  0  0  0
   -8.0268   -3.9981    6.5024 H   0  0  0  0  0  0  0  0  0  0  0  0
   -5.6088   -0.0161    2.0041 H   0  0  0  0  0  0  0  0  0  0  0  0
  -10.5579   -6.7638    4.1106 H   0  0  0  0  0  0  0  0  0  0  0  0
   -8.8432   -6.5467    4.5213 H   0  0  0  0  0  0  0  0  0  0  0  0
  -10.0402   -6.7638    5.8130 H   0  0  0  0  0  0  0  0  0  0  0  0
   -4.2454   -3.3490    6.8368 H   0  0  0  0  0  0  0  0  0  0  0  0
   -5.5407   -2.6354    7.8097 H   0  0  0  0  0  0  0  0  0  0  0  0
   -4.0676   -1.7157    7.4776 H   0  0  0  0  0  0  0  0  0  0  0  0
   -4.1485    0.4842    6.5695 H   0  0  0  0  0  0  0  0  0  0  0  0
   -8.2808    1.9353    6.3564 H   0  0  0  0  0  0  0  0  0  0  0  0
   -9.9774    1.8247    5.8383 H   0  0  0  0  0  0  0  0  0  0  0  0
   -9.5178    1.2764    7.4638 H   0  0  0  0  0  0  0  0  0  0  0  0
   -2.8493    0.6657    1.2059 H   0  0  0  0  0  0  0  0  0  0  0  0
   -4.4186    0.8813    0.4955 H   0  0  0  0  0  0  0  0  0  0  0  0
   -4.3896    4.5147    6.0978 H   0  0  0  0  0  0  0  0  0  0  0  0
   -5.5659    3.7884    5.0142 H   0  0  0  0  0  0  0  0  0  0  0  0
   -5.2548    3.0603    6.5997 H   0  0  0  0  0  0  0  0  0  0  0  0
   -6.6361    2.2495    3.0063 H   0  0  0  0  0  0  0  0  0  0  0  0
   -0.1466    3.8471    2.8157 H   0  0  0  0  0  0  0  0  0  0  0  0
    0.3182    2.2560    3.4472 H   0  0  0  0  0  0  0  0  0  0  0  0
   -0.6837    3.3385    4.4344 H   0  0  0  0  0  0  0  0  0  0  0  0
   -3.5329    5.4149    0.8927 H   0  0  0  0  0  0  0  0  0  0  0  0
   -4.7141    5.9437   -0.2161 H   0  0  0  0  0  0  0  0  0  0  0  0
   -3.7310    2.8051   -2.3333 H   0  0  0  0  0  0  0  0  0  0  0  0
   -4.9525    2.6877   -1.0976 H   0  0  0  0  0  0  0  0  0  0  0  0
   -0.9103    1.9845    0.3086 H   0  0  0  0  0  0  0  0  0  0  0  0
   -1.0196    2.2099   -1.4252 H   0  0  0  0  0  0  0  0  0  0  0  0
   -6.8631    6.5546   -0.0087 H   0  0  0  0  0  0  0  0  0  0  0  0
   -9.0407    3.5345    3.1484 H   0  0  0  0  0  0  0  0  0  0  0  0
   -1.4815    4.3206    0.6918 H   0  0  0  0  0  0  0  0  0  0  0  0
   -9.1173    6.9958    0.7251 H   0  0  0  0  0  0  0  0  0  0  0  0
   -2.0183    4.5966   -2.3112 H   0  0  0  0  0  0  0  0  0  0  0  0
   -2.1640    5.8838   -1.1321 H   0  0  0  0  0  0  0  0  0  0  0  0
  -10.2165    5.5031    2.2984 H   0  0  0  0  0  0  0  0  0  0  0  0
    1.6202    6.1440   -0.2167 H   0  0  0  0  0  0  0  0  0  0  0  0
    0.0322    6.6408   -0.8022 H   0  0  0  0  0  0  0  0  0  0  0  0
    0.2339    6.1223    0.8829 H   0  0  0  0  0  0  0  0  0  0  0  0
  1  2  1  0  0  0  0 
  3  1  1  0  0  0  0 
  4  3  1  0  0  0  0 
  5  3  1  0  0  0  0 
  3  6  1  0  0  0  0 
  7  4  1  0  0  0  0 
  4  8  1  0  0  0  0 
  4 60  1  0  0  0  0 
  5  9  1  0  0  0  0 
 10  5  1  0  0  0  0 
  6 11  2  0  0  0  0 
 12  7  1  0  0  0  0 
  7 13  1  0  0  0  0 
  7 14  1  0  0  0  0 
  8 15  1  0  0  0  0 
  8 16  1  0  0  0  0 
  9 17  1  0  0  0  0 
 12 10  1  0  0  0  0 
 10 18  1  0  0  0  0 
 10 19  1  0  0  0  0 
 11 16  1  0  0  0  0 
 12 20  1  0  0  0  0 
 12 61  1  0  0  0  0 
 13 21  2  0  0  0  0 
 13 22  1  0  0  0  0 
 14 15  1  0  0  0  0 
 17 23  1  0  0  0  0 
 17 24  2  0  0  0  0 
 18 25  1  0  0  0  0 
 18 26  2  0  0  0  0 
 20 21  1  0  0  0  0 
 20 27  1  0  0  0  0 
 21 28  1  0  0  0  0 
 22 29  2  0  0  0  0 
 25 30  1  0  0  0  0 
 28 31  2  0  0  0  0 
 29 31  1  0  0  0  0 
 31 33  1  0  0  0  0 
 32 29  1  0  0  0  0 
 32 34  1  0  0  0  0 
 32 35  1  0  0  0  0 
 32 36  1  0  0  0  0 
 33 37  1  0  0  0  0 
 34 38  1  0  0  0  0 
 34 39  2  0  0  0  0 
 35 40  2  0  0  0  0 
 35 41  1  0  0  0  0 
 42 36  1  0  0  0  0 
 38 43  1  0  0  0  0 
 40 44  1  0  0  0  0 
 40 45  1  0  0  0  0 
 41 46  1  0  0  0  0 
 42 47  1  0  0  0  0 
 42 48  1  0  0  0  0 
 42 62  1  0  0  0  0 
 44 46  1  0  0  0  0 
 44 49  2  0  0  0  0 
 50 45  1  0  0  0  0 
 46 51  2  0  0  0  0 
 50 47  1  0  0  0  0 
 52 48  1  0  0  0  0 
 49 53  1  0  0  0  0 
 50 54  1  0  0  0  0 
 51 55  1  0  0  0  0 
 52 54  1  0  0  0  0 
 52 56  1  0  0  0  0 
 53 55  2  0  0  0  0 
 56 57  1  0  0  0  0 
 56 58  1  0  0  0  0 
 56 59  1  0  0  0  0 
  1 63  1  0  0  0  0 
  1 64  1  0  0  0  0 
  2 65  1  0  0  0  0 
  2 66  1  0  0  0  0 
  2 67  1  0  0  0  0 
  5 68  1  0  0  0  0 
  6 69  1  0  0  0  0 
 11 70  1  0  0  0  0 
 14 71  1  0  0  0  0 
 14 72  1  0  0  0  0 
 15 73  1  0  0  0  0 
 15 74  1  0  0  0  0 
 16 75  1  0  0  0  0 
 16 76  1  0  0  0  0 
 19 77  1  0  0  0  0 
 22 78  1  0  0  0  0 
 23 79  1  0  0  0  0 
 23 80  1  0  0  0  0 
 23 81  1  0  0  0  0 
 27 82  1  0  0  0  0 
 27 83  1  0  0  0  0 
 27 84  1  0  0  0  0 
 28 85  1  0  0  0  0 
 30 86  1  0  0  0  0 
 30 87  1  0  0  0  0 
 30 88  1  0  0  0  0 
 36 89  1  0  0  0  0 
 36 90  1  0  0  0  0 
 37 91  1  0  0  0  0 
 37 92  1  0  0  0  0 
 37 93  1  0  0  0  0 
 41 94  1  0  0  0  0 
 43 95  1  0  0  0  0 
 43 96  1  0  0  0  0 
 43 97  1  0  0  0  0 
 45 98  1  0  0  0  0 
 45 99  1  0  0  0  0 
 47100  1  0  0  0  0 
 47101  1  0  0  0  0 
 48102  1  0  0  0  0 
 48103  1  0  0  0  0 
 49104  1  0  0  0  0 
 51105  1  0  0  0  0 
 52106  1  0  0  0  0 
 53107  1  0  0  0  0 
 54108  1  0  0  0  0 
 54109  1  0  0  0  0 
 55110  1  0  0  0  0 
 57111  1  0  0  0  0 
 57112  1  0  0  0  0 
 57113  1  0  0  0  0 
M  END
> <cdk:Title>
vinflunine

> <Conformer>
1

> <SuperDrugID>
SD003123

$$$$
