xibenolol
  CDK     0628171801

 43 43  0  0  0  0  0  0  0  0999 V2000
   -0.4390   -0.3021    0.8475 O   0  0  0  0  0  0  0  0  0  0  0  0
   -1.2491   -1.3373    0.2472 C   0  0  2  0  0  0  0  0  0  0  0  0
   -1.1669    0.6569    1.5088 C   0  0  0  0  0  0  0  0  0  0  0  0
   -0.3352   -2.4314   -0.3575 C   0  0  2  0  0  0  0  0  0  0  0  0
   -1.5784    1.8740    0.8930 C   0  0  0  0  0  0  0  0  0  0  0  0
   -1.4771    0.3997    2.8590 C   0  0  0  0  0  0  0  0  0  0  0  0
    0.5477   -3.1353    0.7068 C   0  0  2  0  0  0  0  0  0  0  0  0
    0.4835   -1.8564   -1.3734 O   0  0  0  0  0  0  0  0  0  0  0  0
   -1.2000    2.1609   -0.5215 C   0  0  0  0  0  0  0  0  0  0  0  0
   -2.3576    2.8027    1.6491 C   0  0  0  0  0  0  0  0  0  0  0  0
   -2.2147    1.3266    3.6069 C   0  0  0  0  0  0  0  0  0  0  0  0
    1.4032   -4.1575    0.0576 N   0  0  1  0  0  0  0  0  0  0  0  0
   -2.8858    4.0641    1.0588 C   0  0  0  0  0  0  0  0  0  0  0  0
   -2.6488    2.5183    3.0063 C   0  0  0  0  0  0  0  0  0  0  0  0
    2.4127   -4.9131    0.8589 C   0  0  2  0  0  0  0  0  0  0  0  0
    1.7334   -5.7571    1.9815 C   0  0  0  0  0  0  0  0  0  0  0  0
    3.4936   -3.9607    1.4599 C   0  0  0  0  0  0  0  0  0  0  0  0
    3.1016   -5.8764   -0.1562 C   0  0  0  0  0  0  0  0  0  0  0  0
   -1.8673   -0.9126   -0.5504 H   0  0  0  0  0  0  0  0  0  0  0  0
   -1.9116   -1.8078    0.9821 H   0  0  0  0  0  0  0  0  0  0  0  0
   -0.9685   -3.1840   -0.8326 H   0  0  0  0  0  0  0  0  0  0  0  0
   -1.1651   -0.4698    3.2981 H   0  0  0  0  0  0  0  0  0  0  0  0
   -0.1010   -3.6122    1.4452 H   0  0  0  0  0  0  0  0  0  0  0  0
    1.1677   -2.3922    1.2093 H   0  0  0  0  0  0  0  0  0  0  0  0
   -0.1430   -1.5489   -2.0614 H   0  0  0  0  0  0  0  0  0  0  0  0
   -0.7280    3.1431   -0.6002 H   0  0  0  0  0  0  0  0  0  0  0  0
   -0.4931    1.4355   -0.9254 H   0  0  0  0  0  0  0  0  0  0  0  0
   -2.0916    2.1468   -1.1505 H   0  0  0  0  0  0  0  0  0  0  0  0
   -2.4384    1.1330    4.5858 H   0  0  0  0  0  0  0  0  0  0  0  0
    0.7679   -4.8437   -0.3565 H   0  0  0  0  0  0  0  0  0  0  0  0
   -2.0629    4.7011    0.7296 H   0  0  0  0  0  0  0  0  0  0  0  0
   -3.4849    4.6411    1.7674 H   0  0  0  0  0  0  0  0  0  0  0  0
   -3.5220    3.8278    0.2025 H   0  0  0  0  0  0  0  0  0  0  0  0
   -3.1853    3.1779    3.5775 H   0  0  0  0  0  0  0  0  0  0  0  0
    2.4546   -6.4184    2.4655 H   0  0  0  0  0  0  0  0  0  0  0  0
    1.3105   -5.1136    2.7543 H   0  0  0  0  0  0  0  0  0  0  0  0
    0.9293   -6.3697    1.5671 H   0  0  0  0  0  0  0  0  0  0  0  0
    3.9103   -3.3127    0.6852 H   0  0  0  0  0  0  0  0  0  0  0  0
    4.3113   -4.5282    1.9076 H   0  0  0  0  0  0  0  0  0  0  0  0
    3.0741   -3.3285    2.2430 H   0  0  0  0  0  0  0  0  0  0  0  0
    3.5781   -5.3093   -0.9606 H   0  0  0  0  0  0  0  0  0  0  0  0
    2.3686   -6.5524   -0.6042 H   0  0  0  0  0  0  0  0  0  0  0  0
    3.8675   -6.4809    0.3375 H   0  0  0  0  0  0  0  0  0  0  0  0
  1  2  1  0  0  0  0 
  1  3  1  0  0  0  0 
  4  2  1  0  0  0  0 
  3  5  2  0  0  0  0 
  3  6  1  0  0  0  0 
  4  7  1  0  0  0  0 
  4  8  1  0  0  0  0 
  5  9  1  0  0  0  0 
  5 10  1  0  0  0  0 
  6 11  2  0  0  0  0 
  7 12  1  0  0  0  0 
 10 13  1  0  0  0  0 
 10 14  2  0  0  0  0 
 11 14  1  0  0  0  0 
 12 15  1  0  0  0  0 
 15 16  1  0  0  0  0 
 15 17  1  0  0  0  0 
 15 18  1  0  0  0  0 
  2 19  1  0  0  0  0 
  2 20  1  0  0  0  0 
  4 21  1  0  0  0  0 
  6 22  1  0  0  0  0 
  7 23  1  0  0  0  0 
  7 24  1  0  0  0  0 
  8 25  1  0  0  0  0 
  9 26  1  0  0  0  0 
  9 27  1  0  0  0  0 
  9 28  1  0  0  0  0 
 11 29  1  0  0  0  0 
 12 30  1  0  0  0  0 
 13 31  1  0  0  0  0 
 13 32  1  0  0  0  0 
 13 33  1  0  0  0  0 
 14 34  1  0  0  0  0 
 16 35  1  0  0  0  0 
 16 36  1  0  0  0  0 
 16 37  1  0  0  0  0 
 17 38  1  0  0  0  0 
 17 39  1  0  0  0  0 
 17 40  1  0  0  0  0 
 18 41  1  0  0  0  0 
 18 42  1  0  0  0  0 
 18 43  1  0  0  0  0 
M  END
> <cdk:Title>
xibenolol

> <Conformer>
1

> <SuperDrugID>
SD003130

$$$$
