sulfathiourea
  CDK     0628171801

 23 23  0  0  0  0  0  0  0  0999 V2000
   -1.4264    1.7397    1.1413 S   0  0  1  0  0  0  0  0  0  0  0  0
    0.0658    0.8910    1.0241 N   0  0  0  0  0  0  0  0  0  0  0  0
   -2.3641    0.9905    2.2065 O   0  0  0  0  0  0  0  0  0  0  0  0
   -1.1235    3.2207    1.6813 O   0  0  0  0  0  0  0  0  0  0  0  0
   -2.2088    1.8575   -0.4440 C   0  0  0  0  0  0  0  0  0  0  0  0
    0.2613   -0.2339    0.3467 C   0  0  0  0  0  0  0  0  0  0  0  0
   -3.5990    1.6652   -0.5857 C   0  0  0  0  0  0  0  0  0  0  0  0
   -1.4255    2.1398   -1.5814 C   0  0  0  0  0  0  0  0  0  0  0  0
   -0.6951   -0.9253   -0.2377 N   0  0  0  0  0  0  0  0  0  0  0  0
    1.8534   -0.8175    0.2235 S   0  0  0  0  0  0  0  0  0  0  0  0
   -4.1972    1.7480   -1.8562 C   0  0  0  0  0  0  0  0  0  0  0  0
   -2.0214    2.2169   -2.8524 C   0  0  0  0  0  0  0  0  0  0  0  0
   -3.4106    2.0257   -2.9929 C   0  0  0  0  0  0  0  0  0  0  0  0
   -3.9844    2.1060   -4.2080 N   0  0  0  0  0  0  0  0  0  0  0  0
    0.8311    1.2716    1.4824 H   0  0  0  0  0  0  0  0  0  0  0  0
   -4.1808    1.4651    0.2305 H   0  0  0  0  0  0  0  0  0  0  0  0
   -0.4172    2.2875   -1.4912 H   0  0  0  0  0  0  0  0  0  0  0  0
   -0.4739   -1.7137   -0.7579 H   0  0  0  0  0  0  0  0  0  0  0  0
   -1.6197   -0.6502   -0.1516 H   0  0  0  0  0  0  0  0  0  0  0  0
   -5.2056    1.6034   -1.9487 H   0  0  0  0  0  0  0  0  0  0  0  0
   -1.4386    2.4107   -3.6690 H   0  0  0  0  0  0  0  0  0  0  0  0
   -3.4424    2.2902   -4.9912 H   0  0  0  0  0  0  0  0  0  0  0  0
   -4.9410    1.9777   -4.3036 H   0  0  0  0  0  0  0  0  0  0  0  0
  1  2  1  0  0  0  0 
  1  3  2  0  0  0  0 
  1  4  2  0  0  0  0 
  1  5  1  0  0  0  0 
  2  6  1  0  0  0  0 
  5  7  2  0  0  0  0 
  5  8  1  0  0  0  0 
  6  9  1  0  0  0  0 
  6 10  2  0  0  0  0 
  7 11  1  0  0  0  0 
  8 12  2  0  0  0  0 
 11 13  2  0  0  0  0 
 12 13  1  0  0  0  0 
 13 14  1  0  0  0  0 
  2 15  1  0  0  0  0 
  7 16  1  0  0  0  0 
  8 17  1  0  0  0  0 
  9 18  1  0  0  0  0 
  9 19  1  0  0  0  0 
 11 20  1  0  0  0  0 
 12 21  1  0  0  0  0 
 14 22  1  0  0  0  0 
 14 23  1  0  0  0  0 
M  END
> <cdk:Title>
sulfathiourea

> <Conformer>
1

> <SuperDrugID>
SD003066

$$$$
