propylene glycol
  CDK     0628171801

 13 12  0  0  0  0  0  0  0  0999 V2000
    3.1771   -2.5198   -0.1804 C   0  0  0  0  0  0  0  0  0  0  0  0
    1.8574   -2.1198   -0.8798 C   0  0  1  0  0  0  0  0  0  0  0  0
    1.1505   -3.3028   -1.2494 O   0  0  0  0  0  0  0  0  0  0  0  0
    0.9715   -1.2323    0.0272 C   0  0  2  0  0  0  0  0  0  0  0  0
   -0.2247   -0.8592   -0.6454 O   0  0  0  0  0  0  0  0  0  0  0  0
    3.7478   -1.6272    0.0885 H   0  0  0  0  0  0  0  0  0  0  0  0
    3.7851   -3.1354   -0.8475 H   0  0  0  0  0  0  0  0  0  0  0  0
    2.9649   -3.0917    0.7285 H   0  0  0  0  0  0  0  0  0  0  0  0
    2.0923   -1.5707   -1.7959 H   0  0  0  0  0  0  0  0  0  0  0  0
    0.3391   -2.9886   -1.7002 H   0  0  0  0  0  0  0  0  0  0  0  0
    1.5065   -0.3198    0.2993 H   0  0  0  0  0  0  0  0  0  0  0  0
    0.7012   -1.7714    0.9401 H   0  0  0  0  0  0  0  0  0  0  0  0
   -0.7123   -0.3157    0.0083 H   0  0  0  0  0  0  0  0  0  0  0  0
  2  1  1  0  0  0  0 
  2  3  1  0  0  0  0 
  2  4  1  0  0  0  0 
  4  5  1  0  0  0  0 
  1  6  1  0  0  0  0 
  1  7  1  0  0  0  0 
  1  8  1  0  0  0  0 
  2  9  1  0  0  0  0 
  3 10  1  0  0  0  0 
  4 11  1  0  0  0  0 
  4 12  1  0  0  0  0 
  5 13  1  0  0  0  0 
M  END
> <cdk:Title>
propylene glycol

> <Conformer>
1

> <SuperDrugID>
SD003330

$$$$
