bunazosin
  CDK     0628171801

 54 56  0  0  0  0  0  0  0  0999 V2000
    0.0057    7.1329    1.1931 N   0  0  0  0  0  0  0  0  0  0  0  0
    0.2801    5.9794    0.5492 C   0  0  0  0  0  0  0  0  0  0  0  0
   -0.6154    5.3581   -0.3551 C   0  0  0  0  0  0  0  0  0  0  0  0
    1.4886    5.4080    0.7860 N   0  0  0  0  0  0  0  0  0  0  0  0
   -0.1737    4.1611   -0.9779 C   0  0  0  0  0  0  0  0  0  0  0  0
   -1.9024    5.8541   -0.6687 C   0  0  0  0  0  0  0  0  0  0  0  0
    1.9175    4.2618    0.1844 C   0  0  0  0  0  0  0  0  0  0  0  0
    1.0590    3.6724   -0.6935 N   0  0  0  0  0  0  0  0  0  0  0  0
   -1.0101    3.4776   -1.8811 C   0  0  0  0  0  0  0  0  0  0  0  0
   -2.7465    5.1570   -1.5601 C   0  0  0  0  0  0  0  0  0  0  0  0
    3.1653    3.7126    0.4557 N   0  0  0  0  0  0  0  0  0  0  0  0
   -2.3035    3.9588   -2.1643 C   0  0  0  0  0  0  0  0  0  0  0  0
   -3.9858    5.6603   -1.8549 O   0  0  0  0  0  0  0  0  0  0  0  0
    3.7940    2.7711   -0.4634 C   0  0  2  0  0  0  0  0  0  0  0  0
    3.8645    4.0251    1.6924 C   0  0  2  0  0  0  0  0  0  0  0  0
   -3.1546    3.2351   -2.9591 O   0  0  0  0  0  0  0  0  0  0  0  0
   -5.0021    5.2485   -0.9247 C   0  0  0  0  0  0  0  0  0  0  0  0
    3.9818    1.3287    0.1045 C   0  0  2  0  0  0  0  0  0  0  0  0
    3.4841    3.0538    2.8442 C   0  0  1  0  0  0  0  0  0  0  0  0
   -2.9718    3.4588   -4.3654 C   0  0  0  0  0  0  0  0  0  0  0  0
    3.2317    1.1070    1.3289 N   0  0  0  0  0  0  0  0  0  0  0  0
    3.8490    1.5726    2.5616 C   0  0  2  0  0  0  0  0  0  0  0  0
    1.9379    0.5899    1.3368 C   0  0  0  0  0  0  0  0  0  0  0  0
    1.1819    0.1863    0.1160 C   0  0  1  0  0  0  0  0  0  0  0  0
    1.3468    0.4464    2.4361 O   0  0  0  0  0  0  0  0  0  0  0  0
   -0.3655    0.1509    0.2786 C   0  0  2  0  0  0  0  0  0  0  0  0
   -1.0948   -0.3212   -0.9983 C   0  0  0  0  0  0  0  0  0  0  0  0
   -0.8244    7.6053    1.0318 H   0  0  0  0  0  0  0  0  0  0  0  0
    0.6491    7.5025    1.8175 H   0  0  0  0  0  0  0  0  0  0  0  0
   -2.2443    6.7200   -0.2465 H   0  0  0  0  0  0  0  0  0  0  0  0
   -0.6821    2.6193   -2.3288 H   0  0  0  0  0  0  0  0  0  0  0  0
    4.7713    3.1706   -0.7504 H   0  0  0  0  0  0  0  0  0  0  0  0
    3.2419    2.6935   -1.4036 H   0  0  0  0  0  0  0  0  0  0  0  0
    3.6553    5.0458    2.0246 H   0  0  0  0  0  0  0  0  0  0  0  0
    4.9477    3.9873    1.5425 H   0  0  0  0  0  0  0  0  0  0  0  0
   -5.9497    5.6853   -1.2430 H   0  0  0  0  0  0  0  0  0  0  0  0
   -5.1127    4.1610   -0.9142 H   0  0  0  0  0  0  0  0  0  0  0  0
   -4.7848    5.6047    0.0859 H   0  0  0  0  0  0  0  0  0  0  0  0
    5.0468    1.1553    0.2839 H   0  0  0  0  0  0  0  0  0  0  0  0
    3.7243    0.5961   -0.6640 H   0  0  0  0  0  0  0  0  0  0  0  0
    4.0093    3.3672    3.7496 H   0  0  0  0  0  0  0  0  0  0  0  0
    2.4123    3.1316    3.0449 H   0  0  0  0  0  0  0  0  0  0  0  0
   -3.7054    2.8553   -4.8992 H   0  0  0  0  0  0  0  0  0  0  0  0
   -3.1359    4.5063   -4.6284 H   0  0  0  0  0  0  0  0  0  0  0  0
   -1.9765    3.1468   -4.6888 H   0  0  0  0  0  0  0  0  0  0  0  0
    3.5450    0.9625    3.4177 H   0  0  0  0  0  0  0  0  0  0  0  0
    4.9384    1.4840    2.5242 H   0  0  0  0  0  0  0  0  0  0  0  0
    1.3950    0.8943   -0.6873 H   0  0  0  0  0  0  0  0  0  0  0  0
    1.5430   -0.7989   -0.1911 H   0  0  0  0  0  0  0  0  0  0  0  0
   -0.7193    1.1545    0.5327 H   0  0  0  0  0  0  0  0  0  0  0  0
   -0.6414   -0.5246    1.0945 H   0  0  0  0  0  0  0  0  0  0  0  0
   -2.1728   -0.2041   -0.8705 H   0  0  0  0  0  0  0  0  0  0  0  0
   -0.8777   -1.3736   -1.1913 H   0  0  0  0  0  0  0  0  0  0  0  0
   -0.7825    0.2625   -1.8634 H   0  0  0  0  0  0  0  0  0  0  0  0
  1  2  1  0  0  0  0 
  2  3  2  0  0  0  0 
  2  4  1  0  0  0  0 
  3  5  1  0  0  0  0 
  3  6  1  0  0  0  0 
  4  7  2  0  0  0  0 
  5  8  2  0  0  0  0 
  5  9  1  0  0  0  0 
  6 10  2  0  0  0  0 
  7  8  1  0  0  0  0 
  7 11  1  0  0  0  0 
  9 12  2  0  0  0  0 
 10 12  1  0  0  0  0 
 10 13  1  0  0  0  0 
 11 14  1  0  0  0  0 
 11 15  1  0  0  0  0 
 12 16  1  0  0  0  0 
 13 17  1  0  0  0  0 
 14 18  1  0  0  0  0 
 15 19  1  0  0  0  0 
 16 20  1  0  0  0  0 
 18 21  1  0  0  0  0 
 19 22  1  0  0  0  0 
 21 22  1  0  0  0  0 
 21 23  1  0  0  0  0 
 23 24  1  0  0  0  0 
 23 25  2  0  0  0  0 
 24 26  1  0  0  0  0 
 26 27  1  0  0  0  0 
  1 28  1  0  0  0  0 
  1 29  1  0  0  0  0 
  6 30  1  0  0  0  0 
  9 31  1  0  0  0  0 
 14 32  1  0  0  0  0 
 14 33  1  0  0  0  0 
 15 34  1  0  0  0  0 
 15 35  1  0  0  0  0 
 17 36  1  0  0  0  0 
 17 37  1  0  0  0  0 
 17 38  1  0  0  0  0 
 18 39  1  0  0  0  0 
 18 40  1  0  0  0  0 
 19 41  1  0  0  0  0 
 19 42  1  0  0  0  0 
 20 43  1  0  0  0  0 
 20 44  1  0  0  0  0 
 20 45  1  0  0  0  0 
 22 46  1  0  0  0  0 
 22 47  1  0  0  0  0 
 24 48  1  0  0  0  0 
 24 49  1  0  0  0  0 
 26 50  1  0  0  0  0 
 26 51  1  0  0  0  0 
 27 52  1  0  0  0  0 
 27 53  1  0  0  0  0 
 27 54  1  0  0  0  0 
M  END
> <cdk:Title>
bunazosin

> <Conformer>
1

> <SuperDrugID>
SD000371

$$$$
