pentapiperium metilsulfate
  CDK     0628171802

 52 53  0  0  0  0  0  0  0  0999 V2000
    1.4367    1.0369   -1.5829 C   0  0  0  0  0  0  0  0  0  0  0  0
    2.7234    1.3587   -1.1209 C   0  0  0  0  0  0  0  0  0  0  0  0
    2.8949    2.4208   -0.2157 C   0  0  0  0  0  0  0  0  0  0  0  0
    1.7799    3.1599    0.2217 C   0  0  0  0  0  0  0  0  0  0  0  0
    0.4704    2.8498   -0.2284 C   0  0  0  0  0  0  0  0  0  0  0  0
    0.3206    1.7646   -1.1300 C   0  0  0  0  0  0  0  0  0  0  0  0
   -0.7107    3.6486    0.2463 C   0  0  2  0  0  0  0  0  0  0  0  0
   -1.4290    2.8200    1.2481 C   0  0  0  0  0  0  0  0  0  0  0  0
   -1.6611    4.1922   -0.8918 C   0  0  1  0  0  0  0  0  0  0  0  0
   -2.8557    4.9989   -0.2882 C   0  0  0  0  0  0  0  0  0  0  0  0
   -0.8914    5.0402   -1.9643 C   0  0  1  0  0  0  0  0  0  0  0  0
   -1.6265    5.1971   -3.3181 C   0  0  0  0  0  0  0  0  0  0  0  0
   -2.1215    1.7218    0.8248 O   0  0  0  0  0  0  0  0  0  0  0  0
   -1.4104    3.1475    2.4590 O   0  0  0  0  0  0  0  0  0  0  0  0
   -2.8588    0.7754    1.6094 C   0  0  2  0  0  0  0  0  0  0  0  0
   -2.3517   -0.6531    1.2904 C   0  0  2  0  0  0  0  0  0  0  0  0
   -3.2511   -1.7284    1.9607 C   0  0  2  0  0  0  0  0  0  0  0  0
   -4.7298   -1.6066    1.6348 N   0  0  1  0  0  0  0  0  0  0  0  0
   -5.2089   -0.1930    1.9164 C   0  0  1  0  0  0  0  0  0  0  0  0
   -4.3602    0.9333    1.2656 C   0  0  2  0  0  0  0  0  0  0  0  0
   -5.0115   -1.9897    0.1971 C   0  0  0  0  0  0  0  0  0  0  0  0
   -5.4998   -2.5687    2.5134 C   0  0  0  0  0  0  0  0  0  0  0  0
    1.3145    0.2724   -2.2514 H   0  0  0  0  0  0  0  0  0  0  0  0
    3.5344    0.8239   -1.4442 H   0  0  0  0  0  0  0  0  0  0  0  0
    3.8305    2.6570    0.1246 H   0  0  0  0  0  0  0  0  0  0  0  0
    1.9351    3.9279    0.8793 H   0  0  0  0  0  0  0  0  0  0  0  0
   -0.6055    1.4967   -1.4684 H   0  0  0  0  0  0  0  0  0  0  0  0
   -0.3371    4.5369    0.7685 H   0  0  0  0  0  0  0  0  0  0  0  0
   -2.0992    3.3318   -1.4066 H   0  0  0  0  0  0  0  0  0  0  0  0
   -2.4938    5.8153    0.3401 H   0  0  0  0  0  0  0  0  0  0  0  0
   -3.4892    5.4212   -1.0672 H   0  0  0  0  0  0  0  0  0  0  0  0
   -3.4871    4.3504    0.3222 H   0  0  0  0  0  0  0  0  0  0  0  0
   -0.6681    6.0313   -1.5629 H   0  0  0  0  0  0  0  0  0  0  0  0
    0.0643    4.5688   -2.1995 H   0  0  0  0  0  0  0  0  0  0  0  0
   -1.8111    4.2176   -3.7639 H   0  0  0  0  0  0  0  0  0  0  0  0
   -2.5780    5.7143   -3.1989 H   0  0  0  0  0  0  0  0  0  0  0  0
   -1.0094    5.7773   -4.0076 H   0  0  0  0  0  0  0  0  0  0  0  0
   -2.7194    0.9652    2.6792 H   0  0  0  0  0  0  0  0  0  0  0  0
   -1.3253   -0.7573    1.6536 H   0  0  0  0  0  0  0  0  0  0  0  0
   -2.3345   -0.8063    0.2092 H   0  0  0  0  0  0  0  0  0  0  0  0
   -3.0938   -1.6346    3.0421 H   0  0  0  0  0  0  0  0  0  0  0  0
   -2.8703   -2.7160    1.6786 H   0  0  0  0  0  0  0  0  0  0  0  0
   -6.2424   -0.0648    1.5805 H   0  0  0  0  0  0  0  0  0  0  0  0
   -5.2096   -0.0052    2.9962 H   0  0  0  0  0  0  0  0  0  0  0  0
   -4.4986    0.9309    0.1811 H   0  0  0  0  0  0  0  0  0  0  0  0
   -4.7121    1.9020    1.6327 H   0  0  0  0  0  0  0  0  0  0  0  0
   -4.5227   -1.3274   -0.5164 H   0  0  0  0  0  0  0  0  0  0  0  0
   -6.0817   -1.9481   -0.0206 H   0  0  0  0  0  0  0  0  0  0  0  0
   -4.6699   -3.0052   -0.0242 H   0  0  0  0  0  0  0  0  0  0  0  0
   -5.2271   -3.6089    2.3073 H   0  0  0  0  0  0  0  0  0  0  0  0
   -5.3079   -2.3881    3.5756 H   0  0  0  0  0  0  0  0  0  0  0  0
   -6.5792   -2.4720    2.3605 H   0  0  0  0  0  0  0  0  0  0  0  0
  1  2  2  0  0  0  0 
  1  6  1  0  0  0  0 
  2  3  1  0  0  0  0 
  3  4  2  0  0  0  0 
  4  5  1  0  0  0  0 
  5  6  2  0  0  0  0 
  5  7  1  0  0  0  0 
  7  8  1  0  0  0  0 
  7  9  1  0  0  0  0 
  9 10  1  0  0  0  0 
  9 11  1  0  0  0  0 
 11 12  1  0  0  0  0 
  8 13  1  0  0  0  0 
  8 14  2  0  0  0  0 
 13 15  1  0  0  0  0 
 16 17  1  0  0  0  0 
 17 18  1  0  0  0  0 
 18 19  1  0  0  0  0 
 19 20  1  0  0  0  0 
 15 16  1  0  0  0  0 
 15 20  1  0  0  0  0 
 18 21  1  0  0  0  0 
 18 22  1  0  0  0  0 
  1 23  1  0  0  0  0 
  2 24  1  0  0  0  0 
  3 25  1  0  0  0  0 
  4 26  1  0  0  0  0 
  6 27  1  0  0  0  0 
  7 28  1  0  0  0  0 
  9 29  1  0  0  0  0 
 10 30  1  0  0  0  0 
 10 31  1  0  0  0  0 
 10 32  1  0  0  0  0 
 11 33  1  0  0  0  0 
 11 34  1  0  0  0  0 
 12 35  1  0  0  0  0 
 12 36  1  0  0  0  0 
 12 37  1  0  0  0  0 
 15 38  1  0  0  0  0 
 16 39  1  0  0  0  0 
 16 40  1  0  0  0  0 
 17 41  1  0  0  0  0 
 17 42  1  0  0  0  0 
 19 43  1  0  0  0  0 
 19 44  1  0  0  0  0 
 20 45  1  0  0  0  0 
 20 46  1  0  0  0  0 
 21 47  1  0  0  0  0 
 21 48  1  0  0  0  0 
 21 49  1  0  0  0  0 
 22 50  1  0  0  0  0 
 22 51  1  0  0  0  0 
 22 52  1  0  0  0  0 
M  CHG  1  18   1
M  END
> <cdk:Title>
pentapiperium metilsulfate

> <Conformer>
1

> <SuperDrugID>
SD003898

$$$$
