landiolol
  CDK     0628171801

 75 77  0  0  0  0  0  0  0  0999 V2000
    2.4171   -0.9173    0.4763 C   0  0  2  0  0  0  0  0  0  0  0  0
    0.9804   -0.4971    0.0721 C   0  0  2  0  0  0  0  0  0  0  0  0
    3.2691   -1.2097   -0.7080 C   0  0  0  0  0  0  0  0  0  0  0  0
    0.1791   -0.0385    1.2832 C   0  0  0  0  0  0  0  0  0  0  0  0
    3.9835   -0.1703   -1.3488 C   0  0  0  0  0  0  0  0  0  0  0  0
    3.3752   -2.5227   -1.2205 C   0  0  0  0  0  0  0  0  0  0  0  0
   -0.8803   -0.8252    1.6378 O   0  0  0  0  0  0  0  0  0  0  0  0
    0.3957    1.0031    1.9915 O   0  0  0  0  0  0  0  0  0  0  0  0
    4.7596   -0.4328   -2.4931 C   0  0  0  0  0  0  0  0  0  0  0  0
    4.1499   -2.7847   -2.3664 C   0  0  0  0  0  0  0  0  0  0  0  0
   -1.7531   -0.6467    2.7640 C   0  0  2  0  0  0  0  0  0  0  0  0
    4.8157   -1.7338   -3.0296 C   0  0  0  0  0  0  0  0  0  0  0  0
   -2.8943   -1.6923    2.7442 C   0  0  1  0  0  0  0  0  0  0  0  0
    5.4949   -1.9716   -4.1972 O   0  0  0  0  0  0  0  0  0  0  0  0
   -3.6594   -1.5391    1.5473 O   0  0  0  0  0  0  0  0  0  0  0  0
   -2.4168   -3.1555    2.7407 C   0  0  2  0  0  0  0  0  0  0  0  0
    4.6439   -1.8047   -5.3551 C   0  0  1  0  0  0  0  0  0  0  0  0
   -3.4854   -2.7358    0.7718 C   0  0  2  0  0  0  0  0  0  0  0  0
   -2.4460   -3.5287    1.3675 O   0  0  0  0  0  0  0  0  0  0  0  0
    5.4214   -2.0931   -6.6638 C   0  0  2  0  0  0  0  0  0  0  0  0
   -3.0438   -2.3463   -0.6617 C   0  0  0  0  0  0  0  0  0  0  0  0
   -4.8239   -3.5211    0.7418 C   0  0  0  0  0  0  0  0  0  0  0  0
    4.5279   -1.9061   -7.9181 C   0  0  1  0  0  0  0  0  0  0  0  0
    5.9252   -3.4297   -6.6414 O   0  0  0  0  0  0  0  0  0  0  0  0
    5.3155   -2.1450   -9.1456 N   0  0  2  0  0  0  0  0  0  0  0  0
    4.5463   -2.0455  -10.4034 C   0  0  1  0  0  0  0  0  0  0  0  0
    5.5034   -2.2710  -11.5930 C   0  0  1  0  0  0  0  0  0  0  0  0
    4.7708   -2.3264  -12.8168 N   0  0  0  0  0  0  0  0  0  0  0  0
    5.3085   -2.2813  -14.0748 C   0  0  0  0  0  0  0  0  0  0  0  0
    6.5533   -2.1373  -14.1638 O   0  0  0  0  0  0  0  0  0  0  0  0
    4.5332   -2.4151  -15.2211 N   0  0  0  0  0  0  0  0  0  0  0  0
    5.1490   -2.4517  -16.5383 C   0  0  1  0  0  0  0  0  0  0  0  0
    3.1002   -2.6522  -15.1471 C   0  0  2  0  0  0  0  0  0  0  0  0
    4.2806   -1.7844  -17.6331 C   0  0  1  0  0  0  0  0  0  0  0  0
    2.3049   -2.0164  -16.3155 C   0  0  2  0  0  0  0  0  0  0  0  0
    2.9301   -2.2741  -17.5839 O   0  0  0  0  0  0  0  0  0  0  0  0
    2.3564   -1.7952    1.1243 H   0  0  0  0  0  0  0  0  0  0  0  0
    2.8796   -0.1223    1.0698 H   0  0  0  0  0  0  0  0  0  0  0  0
    0.4828   -1.3400   -0.4132 H   0  0  0  0  0  0  0  0  0  0  0  0
    1.0133    0.3317   -0.6410 H   0  0  0  0  0  0  0  0  0  0  0  0
    3.9404    0.7872   -0.9913 H   0  0  0  0  0  0  0  0  0  0  0  0
    2.8835   -3.2990   -0.7693 H   0  0  0  0  0  0  0  0  0  0  0  0
    5.2732    0.3288   -2.9428 H   0  0  0  0  0  0  0  0  0  0  0  0
    4.2175   -3.7395   -2.7255 H   0  0  0  0  0  0  0  0  0  0  0  0
   -2.1935    0.3531    2.7303 H   0  0  0  0  0  0  0  0  0  0  0  0
   -1.1818   -0.7389    3.6929 H   0  0  0  0  0  0  0  0  0  0  0  0
   -3.5486   -1.5158    3.6040 H   0  0  0  0  0  0  0  0  0  0  0  0
   -3.1039   -3.7872    3.3131 H   0  0  0  0  0  0  0  0  0  0  0  0
   -1.4075   -3.2727    3.1461 H   0  0  0  0  0  0  0  0  0  0  0  0
    3.7915   -2.4919   -5.3002 H   0  0  0  0  0  0  0  0  0  0  0  0
    4.2658   -0.7766   -5.3949 H   0  0  0  0  0  0  0  0  0  0  0  0
    6.2707   -1.4055   -6.7259 H   0  0  0  0  0  0  0  0  0  0  0  0
   -3.7901   -1.7010   -1.1302 H   0  0  0  0  0  0  0  0  0  0  0  0
   -2.0966   -1.8077   -0.6297 H   0  0  0  0  0  0  0  0  0  0  0  0
   -2.9109   -3.2373   -1.2796 H   0  0  0  0  0  0  0  0  0  0  0  0
   -4.7093   -4.4459    0.1726 H   0  0  0  0  0  0  0  0  0  0  0  0
   -5.6099   -2.9176    0.2824 H   0  0  0  0  0  0  0  0  0  0  0  0
   -5.1357   -3.7746    1.7559 H   0  0  0  0  0  0  0  0  0  0  0  0
    3.6865   -2.6028   -7.8734 H   0  0  0  0  0  0  0  0  0  0  0  0
    4.1367   -0.8853   -7.9379 H   0  0  0  0  0  0  0  0  0  0  0  0
    6.5471   -3.4618   -5.8844 H   0  0  0  0  0  0  0  0  0  0  0  0
    5.6671   -3.1030   -9.0923 H   0  0  0  0  0  0  0  0  0  0  0  0
    3.7576   -2.8027  -10.4193 H   0  0  0  0  0  0  0  0  0  0  0  0
    4.0898   -1.0553  -10.4915 H   0  0  0  0  0  0  0  0  0  0  0  0
    6.2405   -1.4614  -11.6141 H   0  0  0  0  0  0  0  0  0  0  0  0
    6.0311   -3.2205  -11.4613 H   0  0  0  0  0  0  0  0  0  0  0  0
    3.8140   -2.4465  -12.7355 H   0  0  0  0  0  0  0  0  0  0  0  0
    6.1234   -1.9586  -16.5635 H   0  0  0  0  0  0  0  0  0  0  0  0
    5.3113   -3.4980  -16.8059 H   0  0  0  0  0  0  0  0  0  0  0  0
    2.6522   -2.2615  -14.2323 H   0  0  0  0  0  0  0  0  0  0  0  0
    2.9382   -3.7320  -15.1526 H   0  0  0  0  0  0  0  0  0  0  0  0
    4.3005   -0.6951  -17.5223 H   0  0  0  0  0  0  0  0  0  0  0  0
    4.6936   -2.0254  -18.6139 H   0  0  0  0  0  0  0  0  0  0  0  0
    2.2000   -0.9375  -16.1580 H   0  0  0  0  0  0  0  0  0  0  0  0
    1.3015   -2.4467  -16.3385 H   0  0  0  0  0  0  0  0  0  0  0  0
  1  2  1  0  0  0  0 
  1  3  1  0  0  0  0 
  2  4  1  0  0  0  0 
  3  5  2  0  0  0  0 
  3  6  1  0  0  0  0 
  4  7  1  0  0  0  0 
  4  8  2  0  0  0  0 
  5  9  1  0  0  0  0 
  6 10  2  0  0  0  0 
  7 11  1  0  0  0  0 
  9 12  2  0  0  0  0 
 10 12  1  0  0  0  0 
 12 14  1  0  0  0  0 
 13 11  1  0  0  0  0 
 13 15  1  0  0  0  0 
 13 16  1  0  0  0  0 
 14 17  1  0  0  0  0 
 15 18  1  0  0  0  0 
 16 19  1  0  0  0  0 
 20 17  1  0  0  0  0 
 18 19  1  0  0  0  0 
 18 21  1  0  0  0  0 
 18 22  1  0  0  0  0 
 20 23  1  0  0  0  0 
 20 24  1  0  0  0  0 
 23 25  1  0  0  0  0 
 25 26  1  0  0  0  0 
 26 27  1  0  0  0  0 
 27 28  1  0  0  0  0 
 28 29  1  0  0  0  0 
 29 30  2  0  0  0  0 
 29 31  1  0  0  0  0 
 31 32  1  0  0  0  0 
 31 33  1  0  0  0  0 
 32 34  1  0  0  0  0 
 33 35  1  0  0  0  0 
 34 36  1  0  0  0  0 
 35 36  1  0  0  0  0 
 37  1  1  0  0  0  0 
 38  1  1  0  0  0  0 
 39  2  1  0  0  0  0 
 40  2  1  0  0  0  0 
 41  5  1  0  0  0  0 
 42  6  1  0  0  0  0 
 43  9  1  0  0  0  0 
 44 10  1  0  0  0  0 
 45 11  1  0  0  0  0 
 46 11  1  0  0  0  0 
 13 47  1  0  0  0  0 
 48 16  1  0  0  0  0 
 49 16  1  0  0  0  0 
 50 17  1  0  0  0  0 
 51 17  1  0  0  0  0 
 20 52  1  0  0  0  0 
 53 21  1  0  0  0  0 
 54 21  1  0  0  0  0 
 55 21  1  0  0  0  0 
 56 22  1  0  0  0  0 
 57 22  1  0  0  0  0 
 58 22  1  0  0  0  0 
 59 23  1  0  0  0  0 
 60 23  1  0  0  0  0 
 61 24  1  0  0  0  0 
 62 25  1  0  0  0  0 
 63 26  1  0  0  0  0 
 64 26  1  0  0  0  0 
 65 27  1  0  0  0  0 
 66 27  1  0  0  0  0 
 67 28  1  0  0  0  0 
 68 32  1  0  0  0  0 
 69 32  1  0  0  0  0 
 70 33  1  0  0  0  0 
 71 33  1  0  0  0  0 
 72 34  1  0  0  0  0 
 73 34  1  0  0  0  0 
 74 35  1  0  0  0  0 
 75 35  1  0  0  0  0 
M  END
> <cdk:Title>
landiolol

> <Conformer>
1

> <SuperDrugID>
SD001364

$$$$
