trospium
  CDK     0628171801

 59 63  0  0  0  0  0  0  0  0999 V2000
    4.4867    4.9133    3.5375 O   0  0  0  0  0  0  0  0  0  0  0  0
    5.2418    6.0531    3.5535 C   0  0  0  0  0  0  0  0  0  0  0  0
    4.4177    3.8795    4.5407 C   0  0  2  0  0  0  0  0  0  0  0  0
    5.7164    6.6277    2.2598 C   0  0  1  0  0  0  0  0  0  0  0  0
    5.5542    6.5699    4.6528 O   0  0  0  0  0  0  0  0  0  0  0  0
    4.8243    2.5480    3.8253 C   0  0  2  0  0  0  0  0  0  0  0  0
    3.0020    3.8281    5.2060 C   0  0  1  0  0  0  0  0  0  0  0  0
    6.5842    7.7340    2.5573 O   0  0  0  0  0  0  0  0  0  0  0  0
    6.5076    5.5098    1.6164 C   0  0  0  0  0  0  0  0  0  0  0  0
    4.6623    7.2158    1.3530 C   0  0  0  0  0  0  0  0  0  0  0  0
    3.5900    1.7602    3.2640 C   0  0  1  0  0  0  0  0  0  0  0  0
    1.9914    2.8546    4.4978 C   0  0  2  0  0  0  0  0  0  0  0  0
    5.9354    4.6417    0.6464 C   0  0  0  0  0  0  0  0  0  0  0  0
    7.8469    5.2474    2.0089 C   0  0  0  0  0  0  0  0  0  0  0  0
    3.2856    7.2989    1.6904 C   0  0  0  0  0  0  0  0  0  0  0  0
    5.0501    7.6918    0.0720 C   0  0  0  0  0  0  0  0  0  0  0  0
    2.5519    1.4638    4.3307 N   0  0  2  0  0  0  0  0  0  0  0  0
    2.8143    2.6274    2.2189 C   0  0  2  0  0  0  0  0  0  0  0  0
    1.7047    3.3207    3.0441 C   0  0  1  0  0  0  0  0  0  0  0  0
    6.6789    3.5988    0.0656 C   0  0  0  0  0  0  0  0  0  0  0  0
    8.5998    4.2130    1.4219 C   0  0  0  0  0  0  0  0  0  0  0  0
    2.3402    7.7870    0.7664 C   0  0  0  0  0  0  0  0  0  0  0  0
    4.1079    8.1618   -0.8574 C   0  0  0  0  0  0  0  0  0  0  0  0
    3.0142    0.7982    5.6065 C   0  0  1  0  0  0  0  0  0  0  0  0
    1.5327    0.4332    3.8871 C   0  0  1  0  0  0  0  0  0  0  0  0
    8.0155    3.3923    0.4433 C   0  0  0  0  0  0  0  0  0  0  0  0
    2.7483    8.2055   -0.5118 C   0  0  0  0  0  0  0  0  0  0  0  0
    3.1376   -0.7087    5.3056 C   0  0  1  0  0  0  0  0  0  0  0  0
    2.1720   -0.9458    4.1327 C   0  0  1  0  0  0  0  0  0  0  0  0
    3.9658    0.8503    2.7816 H   0  0  0  0  0  0  0  0  0  0  0  0
    1.0618    2.8464    5.0785 H   0  0  0  0  0  0  0  0  0  0  0  0
    5.1545    4.0834    5.3250 H   0  0  0  0  0  0  0  0  0  0  0  0
    5.3839    1.9097    4.5115 H   0  0  0  0  0  0  0  0  0  0  0  0
    5.5182    2.7548    3.0056 H   0  0  0  0  0  0  0  0  0  0  0  0
    3.1114    3.5100    6.2467 H   0  0  0  0  0  0  0  0  0  0  0  0
    2.5767    4.8349    5.2356 H   0  0  0  0  0  0  0  0  0  0  0  0
    7.0205    7.9741    1.7130 H   0  0  0  0  0  0  0  0  0  0  0  0
    4.9622    4.7506    0.3534 H   0  0  0  0  0  0  0  0  0  0  0  0
    8.2903    5.8082    2.7374 H   0  0  0  0  0  0  0  0  0  0  0  0
    2.9476    7.0008    2.6072 H   0  0  0  0  0  0  0  0  0  0  0  0
    6.0331    7.6751   -0.2066 H   0  0  0  0  0  0  0  0  0  0  0  0
    2.3728    1.9962    1.4430 H   0  0  0  0  0  0  0  0  0  0  0  0
    3.4473    3.3593    1.7179 H   0  0  0  0  0  0  0  0  0  0  0  0
    0.7179    2.9681    2.7284 H   0  0  0  0  0  0  0  0  0  0  0  0
    1.7254    4.4090    2.9391 H   0  0  0  0  0  0  0  0  0  0  0  0
    6.2462    2.9882   -0.6313 H   0  0  0  0  0  0  0  0  0  0  0  0
    9.5695    4.0567    1.7115 H   0  0  0  0  0  0  0  0  0  0  0  0
    1.3512    7.8358    1.0203 H   0  0  0  0  0  0  0  0  0  0  0  0
    4.4114    8.4661   -1.7847 H   0  0  0  0  0  0  0  0  0  0  0  0
    3.9503    1.1777    6.0156 H   0  0  0  0  0  0  0  0  0  0  0  0
    2.2618    0.9337    6.3950 H   0  0  0  0  0  0  0  0  0  0  0  0
    0.6146    0.5081    4.4854 H   0  0  0  0  0  0  0  0  0  0  0  0
    1.2344    0.5096    2.8389 H   0  0  0  0  0  0  0  0  0  0  0  0
    8.5599    2.6460    0.0077 H   0  0  0  0  0  0  0  0  0  0  0  0
    2.0587    8.5526   -1.1845 H   0  0  0  0  0  0  0  0  0  0  0  0
    4.1631   -0.9544    5.0133 H   0  0  0  0  0  0  0  0  0  0  0  0
    2.8604   -1.3101    6.1760 H   0  0  0  0  0  0  0  0  0  0  0  0
    1.4123   -1.6956    4.3682 H   0  0  0  0  0  0  0  0  0  0  0  0
    2.7271   -1.2693    3.2464 H   0  0  0  0  0  0  0  0  0  0  0  0
  1  2  1  0  0  0  0 
  2  4  1  0  0  0  0 
  2  5  2  0  0  0  0 
  3  1  1  0  0  0  0 
  3  6  1  0  0  0  0 
  3  7  1  0  0  0  0 
  4  8  1  0  0  0  0 
  4  9  1  0  0  0  0 
  4 10  1  0  0  0  0 
 11  6  1  0  0  0  0 
 12  7  1  0  0  0  0 
  9 13  2  0  0  0  0 
  9 14  1  0  0  0  0 
 10 15  2  0  0  0  0 
 10 16  1  0  0  0  0 
 11 17  1  0  0  0  0 
 11 18  1  0  0  0  0 
 11 30  1  0  0  0  0 
 12 17  1  0  0  0  0 
 12 19  1  0  0  0  0 
 12 31  1  0  0  0  0 
 13 20  1  0  0  0  0 
 14 21  2  0  0  0  0 
 15 22  1  0  0  0  0 
 16 23  2  0  0  0  0 
 17 24  1  0  0  0  0 
 17 25  1  0  0  0  0 
 18 19  1  0  0  0  0 
 20 26  2  0  0  0  0 
 21 26  1  0  0  0  0 
 22 27  2  0  0  0  0 
 23 27  1  0  0  0  0 
 24 28  1  0  0  0  0 
 25 29  1  0  0  0  0 
 28 29  1  0  0  0  0 
  3 32  1  0  0  0  0 
  6 33  1  0  0  0  0 
  6 34  1  0  0  0  0 
  7 35  1  0  0  0  0 
  7 36  1  0  0  0  0 
  8 37  1  0  0  0  0 
 13 38  1  0  0  0  0 
 14 39  1  0  0  0  0 
 15 40  1  0  0  0  0 
 16 41  1  0  0  0  0 
 18 42  1  0  0  0  0 
 18 43  1  0  0  0  0 
 19 44  1  0  0  0  0 
 19 45  1  0  0  0  0 
 20 46  1  0  0  0  0 
 21 47  1  0  0  0  0 
 22 48  1  0  0  0  0 
 23 49  1  0  0  0  0 
 24 50  1  0  0  0  0 
 24 51  1  0  0  0  0 
 25 52  1  0  0  0  0 
 25 53  1  0  0  0  0 
 26 54  1  0  0  0  0 
 27 55  1  0  0  0  0 
 28 56  1  0  0  0  0 
 28 57  1  0  0  0  0 
 29 58  1  0  0  0  0 
 29 59  1  0  0  0  0 
M  CHG  1  17   1
M  END
> <cdk:Title>
trospium

> <Conformer>
1

> <SuperDrugID>
SD002505

$$$$
