dalfopristin
  CDK     0628171802

 98100  0  0  0  0  0  0  0  0999 V2000
    2.0445    9.7662    1.9706 C   0  0  1  0  0  0  0  0  0  0  0  0
    3.2002   10.1854    2.7942 C   0  0  0  0  0  0  0  0  0  0  0  0
    2.4322    8.8255    0.9060 C   0  0  0  0  0  0  0  0  0  0  0  0
    2.7655    7.5306    1.0768 N   0  0  0  0  0  0  0  0  0  0  0  0
    2.4747    9.1580   -0.4030 O   0  0  0  0  0  0  0  0  0  0  0  0
    2.8526    8.0410   -1.0526 C   0  0  0  0  0  0  0  0  0  0  0  0
    3.0345    7.0086   -0.1318 C   0  0  0  0  0  0  0  0  0  0  0  0
    3.3904    5.6716   -0.4500 C   0  0  0  0  0  0  0  0  0  0  0  0
    3.7957    5.4840   -1.6237 O   0  0  0  0  0  0  0  0  0  0  0  0
    3.2879    4.5727    0.3861 N   0  0  0  0  0  0  0  0  0  0  0  0
    2.9926    4.5905    1.7946 C   0  0  1  0  0  0  0  0  0  0  0  0
    3.4312    3.2287   -0.1034 C   0  0  2  0  0  0  0  0  0  0  0  0
    2.5849    2.3827    0.8708 C   0  0  1  0  0  0  0  0  0  0  0  0
    2.9522    3.0916    2.1991 C   0  0  2  0  0  0  0  0  0  0  0  0
    2.1388    2.6822    3.3674 C   0  0  0  0  0  0  0  0  0  0  0  0
    1.0645    3.2642    3.6416 O   0  0  0  0  0  0  0  0  0  0  0  0
    2.5839    1.5940    4.0753 O   0  0  0  0  0  0  0  0  0  0  0  0
    2.0632    0.8826    5.2199 C   0  0  1  0  0  0  0  0  0  0  0  0
    0.7861    2.4151    0.4330 S   0  0  1  0  0  0  0  0  0  0  0  0
    0.4353    1.7477   -1.2427 C   0  0  2  0  0  0  0  0  0  0  0  0
   -0.0588    1.5642    1.4971 O   0  0  0  0  0  0  0  0  0  0  0  0
    0.2352    3.9211    0.4744 O   0  0  0  0  0  0  0  0  0  0  0  0
    0.6735    0.2216   -1.3680 C   0  0  1  0  0  0  0  0  0  0  0  0
    0.5887   -0.3243   -2.7735 N   0  0  1  0  0  0  0  0  0  0  0  0
    1.1784   -1.7063   -2.8885 C   0  0  2  0  0  0  0  0  0  0  0  0
   -0.7932   -0.1976   -3.3676 C   0  0  2  0  0  0  0  0  0  0  0  0
    2.7153   -1.7642   -2.7034 C   0  0  0  0  0  0  0  0  0  0  0  0
   -0.9558   -0.6095   -4.8530 C   0  0  0  0  0  0  0  0  0  0  0  0
    2.3093    1.6616    6.5639 C   0  0  2  0  0  0  0  0  0  0  0  0
    0.6206    0.3096    4.9466 C   0  0  1  0  0  0  0  0  0  0  0  0
    0.6363   -0.7104    3.7682 C   0  0  0  0  0  0  0  0  0  0  0  0
   -0.0345   -0.3778    6.1804 C   0  0  0  0  0  0  0  0  0  0  0  0
    1.4614    2.9530    6.7539 C   0  0  0  0  0  0  0  0  0  0  0  0
    3.7405    1.8628    6.8306 C   0  0  0  0  0  0  0  0  0  0  0  0
    4.4840    2.8617    6.3222 C   0  0  0  0  0  0  0  0  0  0  0  0
    5.8250    3.0867    6.6001 C   0  0  0  0  0  0  0  0  0  0  0  0
    6.5282    2.2675    7.2400 O   0  0  0  0  0  0  0  0  0  0  0  0
    6.3481    4.2624    6.1686 N   0  0  0  0  0  0  0  0  0  0  0  0
    7.6785    4.7473    6.3611 C   0  0  1  0  0  0  0  0  0  0  0  0
    7.7550    6.0001    5.6390 C   0  0  0  0  0  0  0  0  0  0  0  0
    7.0734    7.0868    6.0424 C   0  0  0  0  0  0  0  0  0  0  0  0
    6.8800    8.1742    5.2518 C   0  0  0  0  0  0  0  0  0  0  0  0
    5.9416    8.0413    4.2831 C   0  0  0  0  0  0  0  0  0  0  0  0
    7.6486    9.3730    5.5776 C   0  0  0  0  0  0  0  0  0  0  0  0
    5.3945    9.0408    3.3804 C   0  0  1  0  0  0  0  0  0  0  0  0
    5.5570    8.5408    2.0516 O   0  0  0  0  0  0  0  0  0  0  0  0
    3.8898    9.2609    3.7225 C   0  0  2  0  0  0  0  0  0  0  0  0
    3.5885   11.3762    2.7395 O   0  0  0  0  0  0  0  0  0  0  0  0
    3.9843    2.8154    2.4518 H   0  0  0  0  0  0  0  0  0  0  0  0
    2.7124    0.0031    5.2931 H   0  0  0  0  0  0  0  0  0  0  0  0
    1.9823    1.0008    7.3712 H   0  0  0  0  0  0  0  0  0  0  0  0
    2.9262    1.3446    0.8780 H   0  0  0  0  0  0  0  0  0  0  0  0
    5.9120    9.9974    3.4353 H   0  0  0  0  0  0  0  0  0  0  0  0
    1.2925    9.2998    2.6083 H   0  0  0  0  0  0  0  0  0  0  0  0
    1.5834   10.6427    1.5092 H   0  0  0  0  0  0  0  0  0  0  0  0
    2.9681    7.9717   -2.0658 H   0  0  0  0  0  0  0  0  0  0  0  0
    3.7729    5.1215    2.3481 H   0  0  0  0  0  0  0  0  0  0  0  0
    2.0307    5.0722    1.9785 H   0  0  0  0  0  0  0  0  0  0  0  0
    4.4855    2.9352   -0.0544 H   0  0  0  0  0  0  0  0  0  0  0  0
    3.0984    3.1010   -1.1344 H   0  0  0  0  0  0  0  0  0  0  0  0
    1.0436    2.2747   -1.9765 H   0  0  0  0  0  0  0  0  0  0  0  0
   -0.6116    1.9749   -1.4433 H   0  0  0  0  0  0  0  0  0  0  0  0
    1.6691    0.0484   -0.9632 H   0  0  0  0  0  0  0  0  0  0  0  0
   -0.0312   -0.3102   -0.7228 H   0  0  0  0  0  0  0  0  0  0  0  0
    1.0032   -2.1110   -3.8854 H   0  0  0  0  0  0  0  0  0  0  0  0
    0.7002   -2.3848   -2.1758 H   0  0  0  0  0  0  0  0  0  0  0  0
   -1.0934    0.8500   -3.3382 H   0  0  0  0  0  0  0  0  0  0  0  0
   -1.5142   -0.7633   -2.7709 H   0  0  0  0  0  0  0  0  0  0  0  0
    3.1021   -2.7156   -3.0749 H   0  0  0  0  0  0  0  0  0  0  0  0
    2.9884   -1.6850   -1.6509 H   0  0  0  0  0  0  0  0  0  0  0  0
    3.1923   -0.9545   -3.2589 H   0  0  0  0  0  0  0  0  0  0  0  0
   -1.8914   -0.2113   -5.2525 H   0  0  0  0  0  0  0  0  0  0  0  0
   -0.9916   -1.6954   -4.9532 H   0  0  0  0  0  0  0  0  0  0  0  0
   -0.1289   -0.2190   -5.4487 H   0  0  0  0  0  0  0  0  0  0  0  0
   -0.0318    1.1363    4.6558 H   0  0  0  0  0  0  0  0  0  0  0  0
   -0.3835   -0.9471    3.4600 H   0  0  0  0  0  0  0  0  0  0  0  0
    1.1334   -1.6345    4.0685 H   0  0  0  0  0  0  0  0  0  0  0  0
    1.1633   -0.3181    2.9023 H   0  0  0  0  0  0  0  0  0  0  0  0
   -0.9770   -0.8524    5.9015 H   0  0  0  0  0  0  0  0  0  0  0  0
   -0.2577    0.3499    6.9605 H   0  0  0  0  0  0  0  0  0  0  0  0
    0.6283   -1.1416    6.5920 H   0  0  0  0  0  0  0  0  0  0  0  0
    1.7472    3.7355    6.0531 H   0  0  0  0  0  0  0  0  0  0  0  0
    0.4029    2.7418    6.6139 H   0  0  0  0  0  0  0  0  0  0  0  0
    1.5934    3.3453    7.7648 H   0  0  0  0  0  0  0  0  0  0  0  0
    4.1873    1.2014    7.4291 H   0  0  0  0  0  0  0  0  0  0  0  0
    4.0398    3.5058    5.7117 H   0  0  0  0  0  0  0  0  0  0  0  0
    5.7406    4.8507    5.6904 H   0  0  0  0  0  0  0  0  0  0  0  0
    7.8887    4.9047    7.4227 H   0  0  0  0  0  0  0  0  0  0  0  0
    8.4008    4.0347    5.9539 H   0  0  0  0  0  0  0  0  0  0  0  0
    8.2473    6.0148    4.7732 H   0  0  0  0  0  0  0  0  0  0  0  0
    6.5993    7.0751    6.9181 H   0  0  0  0  0  0  0  0  0  0  0  0
    5.5184    7.1427    4.1636 H   0  0  0  0  0  0  0  0  0  0  0  0
    7.3030    9.7859    6.5285 H   0  0  0  0  0  0  0  0  0  0  0  0
    7.5780   10.1560    4.8261 H   0  0  0  0  0  0  0  0  0  0  0  0
    8.7106    9.1265    5.6708 H   0  0  0  0  0  0  0  0  0  0  0  0
    5.1552    9.2156    1.4661 H   0  0  0  0  0  0  0  0  0  0  0  0
    3.3661    8.3000    3.7327 H   0  0  0  0  0  0  0  0  0  0  0  0
    3.8084    9.6767    4.7310 H   0  0  0  0  0  0  0  0  0  0  0  0
  1  2  1  0  0  0  0 
  1  3  1  0  0  0  0 
  6  7  2  0  0  0  0 
  4  7  1  0  0  0  0 
  5  6  1  0  0  0  0 
  4  3  2  0  0  0  0 
  3  5  1  0  0  0  0 
  7  8  1  0  0  0  0 
  8  9  2  0  0  0  0 
  8 10  1  0  0  0  0 
 13 14  1  0  0  0  0 
 11 14  1  0  0  0  0 
 12 13  1  0  0  0  0 
 11 10  1  0  0  0  0 
 10 12  1  0  0  0  0 
 14 15  1  0  0  0  0 
 15 16  2  0  0  0  0 
 15 17  1  0  0  0  0 
 17 18  1  0  0  0  0 
 13 19  1  0  0  0  0 
 19 20  1  0  0  0  0 
 19 21  2  0  0  0  0 
 19 22  2  0  0  0  0 
 20 23  1  0  0  0  0 
 23 24  1  0  0  0  0 
 24 25  1  0  0  0  0 
 24 26  1  0  0  0  0 
 25 27  1  0  0  0  0 
 26 28  1  0  0  0  0 
 18 29  1  0  0  0  0 
 18 30  1  0  0  0  0 
 30 31  1  0  0  0  0 
 30 32  1  0  0  0  0 
 29 33  1  0  0  0  0 
 29 34  1  0  0  0  0 
 34 35  2  0  0  0  0 
 35 36  1  0  0  0  0 
 36 37  2  0  0  0  0 
 36 38  1  0  0  0  0 
 38 39  1  0  0  0  0 
 39 40  1  0  0  0  0 
 40 41  2  0  0  0  0 
 41 42  1  0  0  0  0 
 42 43  2  0  0  0  0 
 42 44  1  0  0  0  0 
 43 45  1  0  0  0  0 
 45 46  1  0  0  0  0 
 45 47  1  0  0  0  0 
  2 47  1  0  0  0  0 
  2 48  2  0  0  0  0 
 14 49  1  0  0  0  0 
 18 50  1  0  0  0  0 
 29 51  1  0  0  0  0 
 13 52  1  0  0  0  0 
 45 53  1  0  0  0  0 
  1 54  1  0  0  0  0 
  1 55  1  0  0  0  0 
  6 56  1  0  0  0  0 
 11 57  1  0  0  0  0 
 11 58  1  0  0  0  0 
 12 59  1  0  0  0  0 
 12 60  1  0  0  0  0 
 20 61  1  0  0  0  0 
 20 62  1  0  0  0  0 
 23 63  1  0  0  0  0 
 23 64  1  0  0  0  0 
 25 65  1  0  0  0  0 
 25 66  1  0  0  0  0 
 26 67  1  0  0  0  0 
 26 68  1  0  0  0  0 
 27 69  1  0  0  0  0 
 27 70  1  0  0  0  0 
 27 71  1  0  0  0  0 
 28 72  1  0  0  0  0 
 28 73  1  0  0  0  0 
 28 74  1  0  0  0  0 
 30 75  1  0  0  0  0 
 31 76  1  0  0  0  0 
 31 77  1  0  0  0  0 
 31 78  1  0  0  0  0 
 32 79  1  0  0  0  0 
 32 80  1  0  0  0  0 
 32 81  1  0  0  0  0 
 33 82  1  0  0  0  0 
 33 83  1  0  0  0  0 
 33 84  1  0  0  0  0 
 34 85  1  0  0  0  0 
 35 86  1  0  0  0  0 
 38 87  1  0  0  0  0 
 39 88  1  0  0  0  0 
 39 89  1  0  0  0  0 
 40 90  1  0  0  0  0 
 41 91  1  0  0  0  0 
 43 92  1  0  0  0  0 
 44 93  1  0  0  0  0 
 44 94  1  0  0  0  0 
 44 95  1  0  0  0  0 
 46 96  1  0  0  0  0 
 47 97  1  0  0  0  0 
 47 98  1  0  0  0  0 
M  END
> <cdk:Title>
dalfopristin

> <Conformer>
1

> <SuperDrugID>
SD000685

$$$$
