etonogestrel
  CDK     0628171801

 52 55  0  0  0  0  0  0  0  0999 V2000
    2.5772    1.6256    2.4893 C   0  0  1  0  0  0  0  0  0  0  0  0
    1.5023    2.6843    2.8631 C   0  0  0  0  0  0  0  0  0  0  0  0
    3.1197    1.5657    0.9877 C   0  0  2  0  0  0  0  0  0  0  0  0
    4.0760    0.3415    0.7257 C   0  0  2  0  0  0  0  0  0  0  0  0
    4.1601    2.7312    0.7132 C   0  0  1  0  0  0  0  0  0  0  0  0
    1.9086    1.3831   -0.0101 C   0  0  2  0  0  0  0  0  0  0  0  0
    3.3811   -1.0547    0.8939 C   0  0  1  0  0  0  0  0  0  0  0  0
    5.3649    0.6717    1.5040 C   0  0  1  0  0  0  0  0  0  0  0  0
    4.3523    3.0303   -0.6268 C   0  0  0  0  0  0  0  0  0  0  0  0
    3.8124    3.9924    1.2800 O   0  0  0  0  0  0  0  0  0  0  0  0
    5.4864    2.2133    1.3706 C   0  0  1  0  0  0  0  0  0  0  0  0
    1.2753    0.0571    0.1772 C   0  0  0  0  0  0  0  0  0  0  0  0
    2.1459   -1.1259   -0.0868 C   0  0  2  0  0  0  0  0  0  0  0  0
    4.3654   -2.2285    0.6340 C   0  0  1  0  0  0  0  0  0  0  0  0
    4.5125    3.2914   -1.7818 C   0  0  0  0  0  0  0  0  0  0  0  0
    0.0075   -0.0117    0.6257 C   0  0  0  0  0  0  0  0  0  0  0  0
    1.4914   -2.5689   -0.1753 C   0  0  2  0  0  0  0  0  0  0  0  0
    3.6316   -3.5841    0.7274 C   0  0  2  0  0  0  0  0  0  0  0  0
    2.5086   -3.6570   -0.2101 C   0  0  0  0  0  0  0  0  0  0  0  0
    0.4961   -2.6541   -1.3943 C   0  0  1  0  0  0  0  0  0  0  0  0
    2.4074   -4.7207   -1.0414 C   0  0  0  0  0  0  0  0  0  0  0  0
    0.1028   -4.1146   -1.7243 C   0  0  1  0  0  0  0  0  0  0  0  0
    1.3324   -4.9161   -1.8880 C   0  0  0  0  0  0  0  0  0  0  0  0
    1.3944   -5.7844   -2.7907 O   0  0  0  0  0  0  0  0  0  0  0  0
    3.4071    1.7732    3.1828 H   0  0  0  0  0  0  0  0  0  0  0  0
    2.1305    0.6705    2.7642 H   0  0  0  0  0  0  0  0  0  0  0  0
    1.3274    2.6534    3.9411 H   0  0  0  0  0  0  0  0  0  0  0  0
    0.5547    2.4738    2.3693 H   0  0  0  0  0  0  0  0  0  0  0  0
    1.8112    3.6944    2.6089 H   0  0  0  0  0  0  0  0  0  0  0  0
    4.3867    0.3561   -0.3301 H   0  0  0  0  0  0  0  0  0  0  0  0
    2.2459    1.4353   -1.0481 H   0  0  0  0  0  0  0  0  0  0  0  0
    1.2103    2.2160    0.1036 H   0  0  0  0  0  0  0  0  0  0  0  0
    3.0321   -1.1721    1.9220 H   0  0  0  0  0  0  0  0  0  0  0  0
    5.2726    0.3691    2.5506 H   0  0  0  0  0  0  0  0  0  0  0  0
    6.2327    0.1669    1.0702 H   0  0  0  0  0  0  0  0  0  0  0  0
    2.9844    4.2608    0.8264 H   0  0  0  0  0  0  0  0  0  0  0  0
    6.3799    2.4781    0.7939 H   0  0  0  0  0  0  0  0  0  0  0  0
    5.6110    2.6466    2.3674 H   0  0  0  0  0  0  0  0  0  0  0  0
    2.5534   -0.9665   -1.0935 H   0  0  0  0  0  0  0  0  0  0  0  0
    4.8294   -2.1283   -0.3523 H   0  0  0  0  0  0  0  0  0  0  0  0
    5.1600   -2.2136    1.3843 H   0  0  0  0  0  0  0  0  0  0  0  0
    4.6347    3.4931   -2.6736 H   0  0  0  0  0  0  0  0  0  0  0  0
   -0.5247    0.8087    0.7882 H   0  0  0  0  0  0  0  0  0  0  0  0
   -0.4344   -0.8713    0.8257 H   0  0  0  0  0  0  0  0  0  0  0  0
    0.9219   -2.7458    0.7407 H   0  0  0  0  0  0  0  0  0  0  0  0
    3.2442   -3.7174    1.7420 H   0  0  0  0  0  0  0  0  0  0  0  0
    4.3742   -4.3726    0.5650 H   0  0  0  0  0  0  0  0  0  0  0  0
   -0.4176   -2.0906   -1.1973 H   0  0  0  0  0  0  0  0  0  0  0  0
    0.9587   -2.2226   -2.2889 H   0  0  0  0  0  0  0  0  0  0  0  0
    3.1225   -5.4140   -1.0518 H   0  0  0  0  0  0  0  0  0  0  0  0
   -0.4810   -4.5327   -0.9006 H   0  0  0  0  0  0  0  0  0  0  0  0
   -0.5079   -4.1468   -2.6310 H   0  0  0  0  0  0  0  0  0  0  0  0
  1  2  1  0  0  0  0 
  3  1  1  0  0  0  0 
  3  4  1  0  0  0  0 
  3  5  1  0  0  0  0 
  3  6  1  0  0  0  0 
  4  7  1  0  0  0  0 
  4  8  1  0  0  0  0 
  5  9  1  0  0  0  0 
  5 10  1  0  0  0  0 
  5 11  1  0  0  0  0 
  6 12  1  0  0  0  0 
  7 13  1  0  0  0  0 
  7 14  1  0  0  0  0 
  8 11  1  0  0  0  0 
  9 15  3  0  0  0  0 
 13 12  1  0  0  0  0 
 12 16  2  0  0  0  0 
 13 17  1  0  0  0  0 
 14 18  1  0  0  0  0 
 17 19  1  0  0  0  0 
 17 20  1  0  0  0  0 
 18 19  1  0  0  0  0 
 19 21  2  0  0  0  0 
 20 22  1  0  0  0  0 
 21 23  1  0  0  0  0 
 22 23  1  0  0  0  0 
 23 24  2  0  0  0  0 
 25  1  1  0  0  0  0 
 26  1  1  0  0  0  0 
 27  2  1  0  0  0  0 
 28  2  1  0  0  0  0 
 29  2  1  0  0  0  0 
  4 30  1  0  0  0  0 
 31  6  1  0  0  0  0 
 32  6  1  0  0  0  0 
  7 33  1  0  0  0  0 
 34  8  1  0  0  0  0 
 35  8  1  0  0  0  0 
 36 10  1  0  0  0  0 
 37 11  1  0  0  0  0 
 38 11  1  0  0  0  0 
 13 39  1  0  0  0  0 
 40 14  1  0  0  0  0 
 41 14  1  0  0  0  0 
 42 15  1  0  0  0  0 
 43 16  1  0  0  0  0 
 44 16  1  0  0  0  0 
 17 45  1  0  0  0  0 
 46 18  1  0  0  0  0 
 47 18  1  0  0  0  0 
 48 20  1  0  0  0  0 
 49 20  1  0  0  0  0 
 50 21  1  0  0  0  0 
 51 22  1  0  0  0  0 
 52 22  1  0  0  0  0 
M  END
> <cdk:Title>
etonogestrel

> <Conformer>
1

> <SuperDrugID>
SD000991

$$$$
