epoprostenol
  CDK     0628171801

 57 58  0  0  0  0  0  0  0  0999 V2000
   -1.4523    2.1931   -5.6931 C   0  0  0  0  0  0  0  0  0  0  0  0
   -0.6610    1.4845   -4.8676 C   0  0  0  0  0  0  0  0  0  0  0  0
   -2.0058    1.6758   -6.9418 C   0  0  2  0  0  0  0  0  0  0  0  0
   -0.1559    2.0224   -3.6100 C   0  0  2  0  0  0  0  0  0  0  0  0
   -2.5755    2.7837   -7.8801 C   0  0  2  0  0  0  0  0  0  0  0  0
   -3.2279    0.7487   -6.7278 C   0  0  2  0  0  0  0  0  0  0  0  0
   -1.2846    2.2017   -2.5524 C   0  0  1  0  0  0  0  0  0  0  0  0
    0.5212    3.2520   -3.8838 O   0  0  0  0  0  0  0  0  0  0  0  0
   -3.6386    2.0870   -8.7464 C   0  0  2  0  0  0  0  0  0  0  0  0
   -1.6015    3.3703   -8.9146 C   0  0  2  0  0  0  0  0  0  0  0  0
   -2.8702   -0.5600   -6.2800 O   0  0  0  0  0  0  0  0  0  0  0  0
   -3.9081    0.7031   -8.1093 C   0  0  1  0  0  0  0  0  0  0  0  0
   -0.7928    2.7806   -1.1988 C   0  0  2  0  0  0  0  0  0  0  0  0
   -3.1086    1.9827  -10.0748 O   0  0  0  0  0  0  0  0  0  0  0  0
   -1.9629    2.6689  -10.1194 C   0  0  0  0  0  0  0  0  0  0  0  0
   -1.9329    2.8760   -0.1486 C   0  0  1  0  0  0  0  0  0  0  0  0
   -1.2148    2.7074  -11.2352 C   0  0  0  0  0  0  0  0  0  0  0  0
   -1.4520    3.4853    1.1945 C   0  0  1  0  0  0  0  0  0  0  0  0
   -1.5885    2.0166  -12.4606 C   0  0  2  0  0  0  0  0  0  0  0  0
   -2.5721    3.6015    2.2528 C   0  0  0  0  0  0  0  0  0  0  0  0
   -0.5476    2.1750  -13.6021 C   0  0  1  0  0  0  0  0  0  0  0  0
   -0.9871    1.4509  -14.9028 C   0  0  2  0  0  0  0  0  0  0  0  0
   -0.0197    1.6206  -16.0030 C   0  0  0  0  0  0  0  0  0  0  0  0
   -0.3589    2.3067  -17.1186 O   0  0  0  0  0  0  0  0  0  0  0  0
    1.1290    1.1264  -15.9265 O   0  0  0  0  0  0  0  0  0  0  0  0
   -3.0444    3.5886   -7.3014 H   0  0  0  0  0  0  0  0  0  0  0  0
   -4.5606    2.6807   -8.7756 H   0  0  0  0  0  0  0  0  0  0  0  0
   -1.6944    3.1201   -5.4233 H   0  0  0  0  0  0  0  0  0  0  0  0
   -0.4142    0.5523   -5.1142 H   0  0  0  0  0  0  0  0  0  0  0  0
   -1.2306    1.1117   -7.4762 H   0  0  0  0  0  0  0  0  0  0  0  0
    0.5832    1.3253   -3.2046 H   0  0  0  0  0  0  0  0  0  0  0  0
   -3.9203    1.1898   -5.9999 H   0  0  0  0  0  0  0  0  0  0  0  0
   -2.0564    2.8653   -2.9514 H   0  0  0  0  0  0  0  0  0  0  0  0
   -1.7420    1.2250   -2.3690 H   0  0  0  0  0  0  0  0  0  0  0  0
    0.9241    3.5280   -3.0357 H   0  0  0  0  0  0  0  0  0  0  0  0
   -0.5574    3.2001   -8.6342 H   0  0  0  0  0  0  0  0  0  0  0  0
   -1.7777    4.4428   -9.0556 H   0  0  0  0  0  0  0  0  0  0  0  0
   -2.5162   -0.4346   -5.3729 H   0  0  0  0  0  0  0  0  0  0  0  0
   -3.4694   -0.0922   -8.7180 H   0  0  0  0  0  0  0  0  0  0  0  0
   -4.9780    0.5079   -8.0079 H   0  0  0  0  0  0  0  0  0  0  0  0
   -0.3845    3.7808   -1.3659 H   0  0  0  0  0  0  0  0  0  0  0  0
    0.0067    2.1459   -0.8067 H   0  0  0  0  0  0  0  0  0  0  0  0
   -2.7377    3.4967   -0.5509 H   0  0  0  0  0  0  0  0  0  0  0  0
   -2.3350    1.8759    0.0364 H   0  0  0  0  0  0  0  0  0  0  0  0
   -0.3683    3.2325  -11.2238 H   0  0  0  0  0  0  0  0  0  0  0  0
   -0.6524    2.8655    1.6070 H   0  0  0  0  0  0  0  0  0  0  0  0
   -1.0479    4.4839    1.0113 H   0  0  0  0  0  0  0  0  0  0  0  0
   -2.5508    2.4117  -12.8036 H   0  0  0  0  0  0  0  0  0  0  0  0
   -1.7112    0.9508  -12.2408 H   0  0  0  0  0  0  0  0  0  0  0  0
   -2.1662    4.0330    3.1700 H   0  0  0  0  0  0  0  0  0  0  0  0
   -3.3749    4.2470    1.8919 H   0  0  0  0  0  0  0  0  0  0  0  0
   -2.9838    2.6180    2.4853 H   0  0  0  0  0  0  0  0  0  0  0  0
   -0.4134    3.2395  -13.8186 H   0  0  0  0  0  0  0  0  0  0  0  0
    0.4116    1.7661  -13.2695 H   0  0  0  0  0  0  0  0  0  0  0  0
   -1.9576    1.8452  -15.2168 H   0  0  0  0  0  0  0  0  0  0  0  0
   -1.1078    0.3817  -14.7076 H   0  0  0  0  0  0  0  0  0  0  0  0
    0.2870    2.4161  -17.8462 H   0  0  0  0  0  0  0  0  0  0  0  0
  1  2  2  0  0  0  0 
  4  2  1  0  0  0  0 
  3  1  1  0  0  0  0 
  5  3  1  0  0  0  0 
  3  6  1  0  0  0  0 
  4  7  1  0  0  0  0 
  4  8  1  0  0  0  0 
  9  5  1  0  0  0  0 
  5 10  1  0  0  0  0 
  5 26  1  0  0  0  0 
  6 11  1  0  0  0  0 
  6 12  1  0  0  0  0 
  7 13  1  0  0  0  0 
  9 12  1  0  0  0  0 
  9 14  1  0  0  0  0 
  9 27  1  0  0  0  0 
 10 15  1  0  0  0  0 
 13 16  1  0  0  0  0 
 14 15  1  0  0  0  0 
 15 17  2  0  0  0  0 
 16 18  1  0  0  0  0 
 17 19  1  0  0  0  0 
 18 20  1  0  0  0  0 
 19 21  1  0  0  0  0 
 21 22  1  0  0  0  0 
 22 23  1  0  0  0  0 
 23 24  1  0  0  0  0 
 23 25  2  0  0  0  0 
  1 28  1  0  0  0  0 
  2 29  1  0  0  0  0 
  3 30  1  0  0  0  0 
  4 31  1  0  0  0  0 
  6 32  1  0  0  0  0 
  7 33  1  0  0  0  0 
  7 34  1  0  0  0  0 
  8 35  1  0  0  0  0 
 10 36  1  0  0  0  0 
 10 37  1  0  0  0  0 
 11 38  1  0  0  0  0 
 12 39  1  0  0  0  0 
 12 40  1  0  0  0  0 
 13 41  1  0  0  0  0 
 13 42  1  0  0  0  0 
 16 43  1  0  0  0  0 
 16 44  1  0  0  0  0 
 17 45  1  0  0  0  0 
 18 46  1  0  0  0  0 
 18 47  1  0  0  0  0 
 19 48  1  0  0  0  0 
 19 49  1  0  0  0  0 
 20 50  1  0  0  0  0 
 20 51  1  0  0  0  0 
 20 52  1  0  0  0  0 
 21 53  1  0  0  0  0 
 21 54  1  0  0  0  0 
 22 55  1  0  0  0  0 
 22 56  1  0  0  0  0 
 24 57  1  0  0  0  0 
M  END
> <cdk:Title>
epoprostenol

> <Conformer>
1

> <SuperDrugID>
SD000921

$$$$
