moxaverine
  CDK     0628171801

 44 46  0  0  0  0  0  0  0  0999 V2000
   -1.1978    1.0924   -0.5345 C   0  0  2  0  0  0  0  0  0  0  0  0
   -2.1846    1.1992   -1.6482 C   0  0  0  0  0  0  0  0  0  0  0  0
   -1.8278    1.2434    0.8104 C   0  0  0  0  0  0  0  0  0  0  0  0
   -2.8751    2.3927   -2.0038 C   0  0  0  0  0  0  0  0  0  0  0  0
   -2.4530    0.0614   -2.3459 N   0  0  0  0  0  0  0  0  0  0  0  0
   -2.8259    0.3349    1.2386 C   0  0  0  0  0  0  0  0  0  0  0  0
   -1.4492    2.2872    1.6899 C   0  0  0  0  0  0  0  0  0  0  0  0
   -3.8457    2.3368   -3.0481 C   0  0  0  0  0  0  0  0  0  0  0  0
   -2.6514    3.6346   -1.3615 C   0  0  0  0  0  0  0  0  0  0  0  0
   -3.3586   -0.0388   -3.3530 C   0  0  0  0  0  0  0  0  0  0  0  0
   -3.4342    0.4708    2.4997 C   0  0  0  0  0  0  0  0  0  0  0  0
   -2.0559    2.4247    2.9518 C   0  0  0  0  0  0  0  0  0  0  0  0
   -4.5711    3.5024   -3.3954 C   0  0  0  0  0  0  0  0  0  0  0  0
   -4.0804    1.1148   -3.7191 C   0  0  0  0  0  0  0  0  0  0  0  0
   -3.4057    4.7776   -1.6804 C   0  0  0  0  0  0  0  0  0  0  0  0
   -3.5597   -1.3486   -4.0258 C   0  0  2  0  0  0  0  0  0  0  0  0
   -3.0507    1.5182    3.3554 C   0  0  0  0  0  0  0  0  0  0  0  0
   -4.3624    4.7182   -2.7141 C   0  0  0  0  0  0  0  0  0  0  0  0
   -3.1809    5.9460   -1.0016 O   0  0  0  0  0  0  0  0  0  0  0  0
   -4.7991   -2.1101   -3.5027 C   0  0  0  0  0  0  0  0  0  0  0  0
   -5.1065    5.8230   -3.0385 O   0  0  0  0  0  0  0  0  0  0  0  0
   -3.9345    6.0408    0.2209 C   0  0  0  0  0  0  0  0  0  0  0  0
   -4.4354    6.7133   -3.9494 C   0  0  0  0  0  0  0  0  0  0  0  0
   -0.4092    1.8330   -0.6960 H   0  0  0  0  0  0  0  0  0  0  0  0
   -0.7030    0.1171   -0.5619 H   0  0  0  0  0  0  0  0  0  0  0  0
   -3.1194   -0.4320    0.6300 H   0  0  0  0  0  0  0  0  0  0  0  0
   -0.7270    2.9582    1.4190 H   0  0  0  0  0  0  0  0  0  0  0  0
   -1.9404    3.7314   -0.6417 H   0  0  0  0  0  0  0  0  0  0  0  0
   -4.1586   -0.1884    2.7916 H   0  0  0  0  0  0  0  0  0  0  0  0
   -1.7726    3.1821    3.5769 H   0  0  0  0  0  0  0  0  0  0  0  0
   -5.2655    3.4764   -4.1483 H   0  0  0  0  0  0  0  0  0  0  0  0
   -4.7736    1.0605   -4.4704 H   0  0  0  0  0  0  0  0  0  0  0  0
   -2.6820   -1.9842   -3.8743 H   0  0  0  0  0  0  0  0  0  0  0  0
   -3.6657   -1.1962   -5.1034 H   0  0  0  0  0  0  0  0  0  0  0  0
   -3.4923    1.6200    4.2721 H   0  0  0  0  0  0  0  0  0  0  0  0
   -4.9136   -3.0492   -4.0502 H   0  0  0  0  0  0  0  0  0  0  0  0
   -5.7051   -1.5176   -3.6433 H   0  0  0  0  0  0  0  0  0  0  0  0
   -4.6861   -2.3434   -2.4413 H   0  0  0  0  0  0  0  0  0  0  0  0
   -3.6737    6.9824    0.7038 H   0  0  0  0  0  0  0  0  0  0  0  0
   -5.0101    6.0430    0.0284 H   0  0  0  0  0  0  0  0  0  0  0  0
   -3.6897    5.2284    0.9110 H   0  0  0  0  0  0  0  0  0  0  0  0
   -5.0995    7.5502   -4.1720 H   0  0  0  0  0  0  0  0  0  0  0  0
   -3.5209    7.1202   -3.5107 H   0  0  0  0  0  0  0  0  0  0  0  0
   -4.1971    6.2104   -4.8892 H   0  0  0  0  0  0  0  0  0  0  0  0
  1  2  1  0  0  0  0 
  1  3  1  0  0  0  0 
  2  4  2  0  0  0  0 
  2  5  1  0  0  0  0 
  3  6  2  0  0  0  0 
  3  7  1  0  0  0  0 
  4  8  1  0  0  0  0 
  4  9  1  0  0  0  0 
  5 10  2  0  0  0  0 
  6 11  1  0  0  0  0 
  7 12  2  0  0  0  0 
  8 13  1  0  0  0  0 
  8 14  2  0  0  0  0 
  9 15  2  0  0  0  0 
 10 14  1  0  0  0  0 
 10 16  1  0  0  0  0 
 11 17  2  0  0  0  0 
 12 17  1  0  0  0  0 
 13 18  2  0  0  0  0 
 15 18  1  0  0  0  0 
 15 19  1  0  0  0  0 
 16 20  1  0  0  0  0 
 18 21  1  0  0  0  0 
 19 22  1  0  0  0  0 
 21 23  1  0  0  0  0 
  1 24  1  0  0  0  0 
  1 25  1  0  0  0  0 
  6 26  1  0  0  0  0 
  7 27  1  0  0  0  0 
  9 28  1  0  0  0  0 
 11 29  1  0  0  0  0 
 12 30  1  0  0  0  0 
 13 31  1  0  0  0  0 
 14 32  1  0  0  0  0 
 16 33  1  0  0  0  0 
 16 34  1  0  0  0  0 
 17 35  1  0  0  0  0 
 20 36  1  0  0  0  0 
 20 37  1  0  0  0  0 
 20 38  1  0  0  0  0 
 22 39  1  0  0  0  0 
 22 40  1  0  0  0  0 
 22 41  1  0  0  0  0 
 23 42  1  0  0  0  0 
 23 43  1  0  0  0  0 
 23 44  1  0  0  0  0 
M  END
> <cdk:Title>
moxaverine

> <Conformer>
1

> <SuperDrugID>
SD001649

$$$$
