fluprednisolone
  CDK     0628171801

 54 57  0  0  0  0  0  0  0  0999 V2000
    2.7471   -0.9590    1.8283 C   0  0  0  0  0  0  0  0  0  0  0  0
    3.9165   -1.1995    0.7927 C   0  0  2  0  0  0  0  0  0  0  0  0
    5.0518   -2.1493    1.3064 C   0  0  2  0  0  0  0  0  0  0  0  0
    4.7332    0.1389    0.5941 C   0  0  2  0  0  0  0  0  0  0  0  0
    3.3506   -1.8721   -0.5103 C   0  0  2  0  0  0  0  0  0  0  0  0
    4.5455   -3.5735    1.7062 C   0  0  1  0  0  0  0  0  0  0  0  0
    5.8072   -1.3082    2.3565 C   0  0  1  0  0  0  0  0  0  0  0  0
    3.9255    1.3937    0.4002 C   0  0  0  0  0  0  0  0  0  0  0  0
    5.5845    0.0414   -0.5573 O   0  0  0  0  0  0  0  0  0  0  0  0
    5.6827    0.1492    1.8449 C   0  0  2  0  0  0  0  0  0  0  0  0
    2.8535   -3.3434   -0.3062 C   0  0  1  0  0  0  0  0  0  0  0  0
    3.8588   -4.2846    0.4722 C   0  0  2  0  0  0  0  0  0  0  0  0
    5.6897   -4.4717    2.2678 C   0  0  1  0  0  0  0  0  0  0  0  0
    3.1540    1.6925   -0.8303 C   0  0  1  0  0  0  0  0  0  0  0  0
    3.8862    2.2667    1.2998 O   0  0  0  0  0  0  0  0  0  0  0  0
    1.5500   -3.3260    0.2664 O   0  0  0  0  0  0  0  0  0  0  0  0
    3.3486   -5.7547    0.8399 C   0  0  2  0  0  0  0  0  0  0  0  0
    5.1716   -5.8871    2.6316 C   0  0  1  0  0  0  0  0  0  0  0  0
    1.8041    1.2681   -0.6867 O   0  0  0  0  0  0  0  0  0  0  0  0
    2.1410   -5.8098    1.8494 C   0  0  0  0  0  0  0  0  0  0  0  0
    4.4925   -6.4999    1.4715 C   0  0  0  0  0  0  0  0  0  0  0  0
    2.8453   -6.4228   -0.3862 C   0  0  0  0  0  0  0  0  0  0  0  0
    6.2309   -6.6035    3.1529 F   0  0  0  0  0  0  0  0  0  0  0  0
    4.8977   -7.6929    0.9754 C   0  0  0  0  0  0  0  0  0  0  0  0
    3.3123   -7.5991   -0.8315 C   0  0  0  0  0  0  0  0  0  0  0  0
    4.3139   -8.2595   -0.1475 C   0  0  0  0  0  0  0  0  0  0  0  0
    4.7050   -9.3793   -0.5542 O   0  0  0  0  0  0  0  0  0  0  0  0
    3.8276   -3.4588    2.5169 H   0  0  0  0  0  0  0  0  0  0  0  0
    4.6687   -4.4351   -0.2591 H   0  0  0  0  0  0  0  0  0  0  0  0
    5.7737   -2.3193    0.4937 H   0  0  0  0  0  0  0  0  0  0  0  0
    2.2954   -1.8807    2.1819 H   0  0  0  0  0  0  0  0  0  0  0  0
    3.0881   -0.4168    2.7097 H   0  0  0  0  0  0  0  0  0  0  0  0
    1.9489   -0.3747    1.3735 H   0  0  0  0  0  0  0  0  0  0  0  0
    4.1285   -1.8955   -1.2804 H   0  0  0  0  0  0  0  0  0  0  0  0
    2.5315   -1.2719   -0.9163 H   0  0  0  0  0  0  0  0  0  0  0  0
    5.3408   -1.4202    3.3404 H   0  0  0  0  0  0  0  0  0  0  0  0
    6.8563   -1.6069    2.4334 H   0  0  0  0  0  0  0  0  0  0  0  0
    6.0437    0.9045   -0.6264 H   0  0  0  0  0  0  0  0  0  0  0  0
    5.2773    0.7514    2.6616 H   0  0  0  0  0  0  0  0  0  0  0  0
    6.6666    0.5589    1.5945 H   0  0  0  0  0  0  0  0  0  0  0  0
    2.7159   -3.7596   -1.3094 H   0  0  0  0  0  0  0  0  0  0  0  0
    6.4955   -4.5543    1.5301 H   0  0  0  0  0  0  0  0  0  0  0  0
    6.1078   -4.0142    3.1699 H   0  0  0  0  0  0  0  0  0  0  0  0
    3.1479    2.7698   -1.0200 H   0  0  0  0  0  0  0  0  0  0  0  0
    3.5940    1.2035   -1.7009 H   0  0  0  0  0  0  0  0  0  0  0  0
    0.9667   -2.9667   -0.4355 H   0  0  0  0  0  0  0  0  0  0  0  0
    4.4568   -5.7957    3.4524 H   0  0  0  0  0  0  0  0  0  0  0  0
    1.3678    1.5161   -1.5279 H   0  0  0  0  0  0  0  0  0  0  0  0
    1.2035   -5.4812    1.4014 H   0  0  0  0  0  0  0  0  0  0  0  0
    2.3061   -5.1886    2.7267 H   0  0  0  0  0  0  0  0  0  0  0  0
    1.9758   -6.8321    2.2008 H   0  0  0  0  0  0  0  0  0  0  0  0
    2.1086   -5.9995   -0.9037 H   0  0  0  0  0  0  0  0  0  0  0  0
    5.6392   -8.1936    1.4073 H   0  0  0  0  0  0  0  0  0  0  0  0
    2.9258   -7.9983   -1.6577 H   0  0  0  0  0  0  0  0  0  0  0  0
  2  1  1  0  0  0  0 
  3  2  1  0  0  0  0 
  2  4  1  0  0  0  0 
  2  5  1  0  0  0  0 
  6  3  1  0  0  0  0 
  3  7  1  0  0  0  0 
  3 30  1  0  0  0  0 
  4  8  1  0  0  0  0 
  4  9  1  0  0  0  0 
  4 10  1  0  0  0  0 
 11  5  1  0  0  0  0 
 12  6  1  0  0  0  0 
  6 13  1  0  0  0  0 
  6 28  1  0  0  0  0 
  7 10  1  0  0  0  0 
  8 14  1  0  0  0  0 
  8 15  2  0  0  0  0 
 12 11  1  0  0  0  0 
 11 16  1  0  0  0  0 
 12 17  1  0  0  0  0 
 12 29  1  0  0  0  0 
 18 13  1  0  0  0  0 
 14 19  1  0  0  0  0 
 17 20  1  0  0  0  0 
 17 21  1  0  0  0  0 
 17 22  1  0  0  0  0 
 18 21  1  0  0  0  0 
 18 23  1  0  0  0  0 
 21 24  2  0  0  0  0 
 22 25  2  0  0  0  0 
 24 26  1  0  0  0  0 
 25 26  1  0  0  0  0 
 26 27  2  0  0  0  0 
  1 31  1  0  0  0  0 
  1 32  1  0  0  0  0 
  1 33  1  0  0  0  0 
  5 34  1  0  0  0  0 
  5 35  1  0  0  0  0 
  7 36  1  0  0  0  0 
  7 37  1  0  0  0  0 
  9 38  1  0  0  0  0 
 10 39  1  0  0  0  0 
 10 40  1  0  0  0  0 
 11 41  1  0  0  0  0 
 13 42  1  0  0  0  0 
 13 43  1  0  0  0  0 
 14 44  1  0  0  0  0 
 14 45  1  0  0  0  0 
 16 46  1  0  0  0  0 
 18 47  1  0  0  0  0 
 19 48  1  0  0  0  0 
 20 49  1  0  0  0  0 
 20 50  1  0  0  0  0 
 20 51  1  0  0  0  0 
 22 52  1  0  0  0  0 
 24 53  1  0  0  0  0 
 25 54  1  0  0  0  0 
M  END
> <cdk:Title>
fluprednisolone

> <Conformer>
1

> <SuperDrugID>
SD001089

$$$$
