cicaprost
  CDK     0628171802

 57 58  0  0  0  0  0  0  0  0999 V2000
    3.0488   -3.0454   -2.4739 C   0  0  0  0  0  0  0  0  0  0  0  0
    4.1094   -3.2816   -2.9697 C   0  0  0  0  0  0  0  0  0  0  0  0
    1.8575   -2.7433   -1.8638 C   0  0  2  0  0  0  0  0  0  0  0  0
    5.3541   -3.5187   -3.4894 C   0  0  2  0  0  0  0  0  0  0  0  0
    1.6150   -3.5429   -0.5479 C   0  0  2  0  0  0  0  0  0  0  0  0
    0.6180   -3.0311   -2.7364 C   0  0  2  0  0  0  0  0  0  0  0  0
    6.5019   -3.1333   -2.4943 C   0  0  2  0  0  0  0  0  0  0  0  0
    5.4548   -2.8090   -4.7206 O   0  0  0  0  0  0  0  0  0  0  0  0
    0.0816   -3.7583   -0.4560 C   0  0  2  0  0  0  0  0  0  0  0  0
    1.9984   -2.7881    0.7524 C   0  0  1  0  0  0  0  0  0  0  0  0
    0.3747   -2.0229   -3.7135 O   0  0  0  0  0  0  0  0  0  0  0  0
   -0.5239   -3.0705   -1.7092 C   0  0  1  0  0  0  0  0  0  0  0  0
    6.4752   -1.6174   -2.0898 C   0  0  2  0  0  0  0  0  0  0  0  0
    7.8834   -3.5671   -3.0731 C   0  0  0  0  0  0  0  0  0  0  0  0
   -0.3437   -3.1332    0.8948 C   0  0  2  0  0  0  0  0  0  0  0  0
    0.7406   -2.2148    1.1825 C   0  0  0  0  0  0  0  0  0  0  0  0
    7.4384   -1.2755   -1.1771 C   0  0  0  0  0  0  0  0  0  0  0  0
    0.6278   -0.9751    1.7013 C   0  0  0  0  0  0  0  0  0  0  0  0
    8.2886   -1.0057   -0.3826 C   0  0  0  0  0  0  0  0  0  0  0  0
   -0.6203   -0.3501    2.0886 C   0  0  1  0  0  0  0  0  0  0  0  0
    9.2690   -0.7231    0.5280 C   0  0  1  0  0  0  0  0  0  0  0  0
   -1.2359   -1.1411    3.1192 O   0  0  0  0  0  0  0  0  0  0  0  0
    8.9014   -1.2140    1.9451 C   0  0  0  0  0  0  0  0  0  0  0  0
   -2.5430   -0.6992    3.5192 C   0  0  2  0  0  0  0  0  0  0  0  0
   -3.0330   -1.6352    4.5381 C   0  0  0  0  0  0  0  0  0  0  0  0
   -4.1682   -2.3402    4.3388 O   0  0  0  0  0  0  0  0  0  0  0  0
   -2.3954   -1.8011    5.6027 O   0  0  0  0  0  0  0  0  0  0  0  0
    2.1200   -4.5167   -0.5750 H   0  0  0  0  0  0  0  0  0  0  0  0
   -0.1626   -4.8276   -0.4722 H   0  0  0  0  0  0  0  0  0  0  0  0
    1.8820   -1.6711   -1.6443 H   0  0  0  0  0  0  0  0  0  0  0  0
    5.4053   -4.5862   -3.7143 H   0  0  0  0  0  0  0  0  0  0  0  0
    0.6960   -4.0002   -3.2398 H   0  0  0  0  0  0  0  0  0  0  0  0
    6.3499   -3.7230   -1.5812 H   0  0  0  0  0  0  0  0  0  0  0  0
    6.3000   -3.1014   -5.1207 H   0  0  0  0  0  0  0  0  0  0  0  0
    2.3456   -3.4949    1.5134 H   0  0  0  0  0  0  0  0  0  0  0  0
    2.7873   -2.0464    0.5849 H   0  0  0  0  0  0  0  0  0  0  0  0
    1.1716   -2.0121   -4.2821 H   0  0  0  0  0  0  0  0  0  0  0  0
   -0.8363   -2.0456   -1.4769 H   0  0  0  0  0  0  0  0  0  0  0  0
   -1.3877   -3.6161   -2.0998 H   0  0  0  0  0  0  0  0  0  0  0  0
    5.5175   -1.3692   -1.6284 H   0  0  0  0  0  0  0  0  0  0  0  0
    6.5929   -0.9864   -2.9734 H   0  0  0  0  0  0  0  0  0  0  0  0
    8.6739   -3.4343   -2.3323 H   0  0  0  0  0  0  0  0  0  0  0  0
    7.8708   -4.6242   -3.3483 H   0  0  0  0  0  0  0  0  0  0  0  0
    8.1371   -2.9730   -3.9538 H   0  0  0  0  0  0  0  0  0  0  0  0
   -0.3844   -3.8976    1.6758 H   0  0  0  0  0  0  0  0  0  0  0  0
   -1.3283   -2.6667    0.8282 H   0  0  0  0  0  0  0  0  0  0  0  0
    1.4580   -0.4419    1.8286 H   0  0  0  0  0  0  0  0  0  0  0  0
   -0.4224    0.6557    2.4670 H   0  0  0  0  0  0  0  0  0  0  0  0
   -1.2641   -0.2618    1.2094 H   0  0  0  0  0  0  0  0  0  0  0  0
   10.1901   -1.2085    0.2007 H   0  0  0  0  0  0  0  0  0  0  0  0
    9.4351    0.3552    0.5480 H   0  0  0  0  0  0  0  0  0  0  0  0
    9.7157   -0.9835    2.6340 H   0  0  0  0  0  0  0  0  0  0  0  0
    8.7426   -2.2949    1.9518 H   0  0  0  0  0  0  0  0  0  0  0  0
    7.9959   -0.7189    2.3053 H   0  0  0  0  0  0  0  0  0  0  0  0
   -3.2275   -0.6953    2.6657 H   0  0  0  0  0  0  0  0  0  0  0  0
   -2.5018    0.3069    3.9454 H   0  0  0  0  0  0  0  0  0  0  0  0
   -4.4827   -2.9714    5.0170 H   0  0  0  0  0  0  0  0  0  0  0  0
  1  2  3  0  0  0  0 
  4  2  1  0  0  0  0 
  3  1  1  0  0  0  0 
  5  3  1  0  0  0  0 
  3  6  1  0  0  0  0 
  7  4  1  0  0  0  0 
  4  8  1  0  0  0  0 
  9  5  1  0  0  0  0 
  5 10  1  0  0  0  0 
  5 28  1  0  0  0  0 
  6 11  1  0  0  0  0 
  6 12  1  0  0  0  0 
  7 13  1  0  0  0  0 
  7 14  1  0  0  0  0 
  9 12  1  0  0  0  0 
  9 15  1  0  0  0  0 
  9 29  1  0  0  0  0 
 10 16  1  0  0  0  0 
 13 17  1  0  0  0  0 
 15 16  1  0  0  0  0 
 16 18  2  0  0  0  0 
 17 19  3  0  0  0  0 
 18 20  1  0  0  0  0 
 19 21  1  0  0  0  0 
 20 22  1  0  0  0  0 
 21 23  1  0  0  0  0 
 22 24  1  0  0  0  0 
 24 25  1  0  0  0  0 
 25 26  1  0  0  0  0 
 25 27  2  0  0  0  0 
  3 30  1  0  0  0  0 
  4 31  1  0  0  0  0 
  6 32  1  0  0  0  0 
  7 33  1  0  0  0  0 
  8 34  1  0  0  0  0 
 10 35  1  0  0  0  0 
 10 36  1  0  0  0  0 
 11 37  1  0  0  0  0 
 12 38  1  0  0  0  0 
 12 39  1  0  0  0  0 
 13 40  1  0  0  0  0 
 13 41  1  0  0  0  0 
 14 42  1  0  0  0  0 
 14 43  1  0  0  0  0 
 14 44  1  0  0  0  0 
 15 45  1  0  0  0  0 
 15 46  1  0  0  0  0 
 18 47  1  0  0  0  0 
 20 48  1  0  0  0  0 
 20 49  1  0  0  0  0 
 21 50  1  0  0  0  0 
 21 51  1  0  0  0  0 
 23 52  1  0  0  0  0 
 23 53  1  0  0  0  0 
 23 54  1  0  0  0  0 
 24 55  1  0  0  0  0 
 24 56  1  0  0  0  0 
 26 57  1  0  0  0  0 
M  END
> <cdk:Title>
cicaprost

> <Conformer>
1

> <SuperDrugID>
SD000552

$$$$
