flurotyl
  CDK     0628171801

 15 14  0  0  0  0  0  0  0  0999 V2000
   -3.0595   -0.6245    0.2123 F   0  0  0  0  0  0  0  0  0  0  0  0
   -2.7976   -0.8382   -1.1194 C   0  0  2  0  0  0  0  0  0  0  0  0
   -3.6257   -0.0270   -1.8570 F   0  0  0  0  0  0  0  0  0  0  0  0
   -3.0971   -2.1454   -1.4182 F   0  0  0  0  0  0  0  0  0  0  0  0
   -1.3204   -0.5256   -1.4450 C   0  0  1  0  0  0  0  0  0  0  0  0
   -0.4455   -1.3753   -0.6725 O   0  0  0  0  0  0  0  0  0  0  0  0
    0.9585   -1.1464   -0.9184 C   0  0  2  0  0  0  0  0  0  0  0  0
    1.8169   -2.0952   -0.0531 C   0  0  2  0  0  0  0  0  0  0  0  0
    3.1519   -1.8733   -0.2908 F   0  0  0  0  0  0  0  0  0  0  0  0
    1.5394   -3.4084   -0.3468 F   0  0  0  0  0  0  0  0  0  0  0  0
    1.5770   -1.8875    1.2838 F   0  0  0  0  0  0  0  0  0  0  0  0
   -1.1550   -0.6866   -2.5151 H   0  0  0  0  0  0  0  0  0  0  0  0
   -1.1251    0.5266   -1.2144 H   0  0  0  0  0  0  0  0  0  0  0  0
    1.2213   -0.1126   -0.6722 H   0  0  0  0  0  0  0  0  0  0  0  0
    1.1913   -1.3258   -1.9729 H   0  0  0  0  0  0  0  0  0  0  0  0
  1  2  1  0  0  0  0 
  2  3  1  0  0  0  0 
  2  4  1  0  0  0  0 
  2  5  1  0  0  0  0 
  5  6  1  0  0  0  0 
  6  7  1  0  0  0  0 
  7  8  1  0  0  0  0 
  8  9  1  0  0  0  0 
  8 10  1  0  0  0  0 
  8 11  1  0  0  0  0 
  5 12  1  0  0  0  0 
  5 13  1  0  0  0  0 
  7 14  1  0  0  0  0 
  7 15  1  0  0  0  0 
M  END
> <cdk:Title>
flurotyl

> <Conformer>
1

> <SuperDrugID>
SD002803

$$$$
