betamethasone benzoate
  CDK     0628171801

 69 73  0  0  0  0  0  0  0  0999 V2000
   -0.3542   -1.9142   -7.6947 O   0  0  0  0  0  0  0  0  0  0  0  0
    0.3351   -2.6825   -8.5867 C   0  0  0  0  0  0  0  0  0  0  0  0
   -0.2998   -0.5499   -7.2115 C   0  0  1  0  0  0  0  0  0  0  0  0
    1.5814   -2.6367   -8.6939 O   0  0  0  0  0  0  0  0  0  0  0  0
   -0.4250   -3.5586   -9.3859 C   0  0  0  0  0  0  0  0  0  0  0  0
   -1.8019   -0.3392   -7.1488 C   0  0  0  0  0  0  0  0  0  0  0  0
    0.4555   -0.4209   -5.8164 C   0  0  2  0  0  0  0  0  0  0  0  0
    0.5603    0.3747   -8.1955 C   0  0  1  0  0  0  0  0  0  0  0  0
   -1.5903   -3.0743  -10.0278 C   0  0  0  0  0  0  0  0  0  0  0  0
   -0.0547   -4.9100   -9.5695 C   0  0  0  0  0  0  0  0  0  0  0  0
   -2.7447   -1.1577   -6.3291 C   0  0  2  0  0  0  0  0  0  0  0  0
   -2.3688    0.5243   -7.8545 O   0  0  0  0  0  0  0  0  0  0  0  0
   -0.0566    0.8767   -5.0675 C   0  0  0  0  0  0  0  0  0  0  0  0
    1.9435   -0.3254   -6.2912 C   0  0  1  0  0  0  0  0  0  0  0  0
    0.4114   -1.6661   -4.8486 C   0  0  2  0  0  0  0  0  0  0  0  0
   -0.0252    1.6934   -8.7824 C   0  0  0  0  0  0  0  0  0  0  0  0
    1.9007    0.6757   -7.4591 C   0  0  2  0  0  0  0  0  0  0  0  0
   -2.3557   -3.9155  -10.8553 C   0  0  0  0  0  0  0  0  0  0  0  0
   -0.8291   -5.7557  -10.3869 C   0  0  0  0  0  0  0  0  0  0  0  0
   -2.7227   -2.5360   -6.6906 O   0  0  0  0  0  0  0  0  0  0  0  0
    2.9781   -0.1106   -5.1315 C   0  0  1  0  0  0  0  0  0  0  0  0
    1.4252   -1.6074   -3.6554 C   0  0  1  0  0  0  0  0  0  0  0  0
   -1.9727   -5.2555  -11.0366 C   0  0  0  0  0  0  0  0  0  0  0  0
    2.9151   -1.3065   -4.0904 C   0  0  1  0  0  0  0  0  0  0  0  0
    4.4354    0.0812   -5.6575 C   0  0  1  0  0  0  0  0  0  0  0  0
    0.9412   -0.6977   -2.6704 O   0  0  0  0  0  0  0  0  0  0  0  0
    3.2997   -2.4551   -4.7759 F   0  0  0  0  0  0  0  0  0  0  0  0
    3.9865   -1.1294   -2.9110 C   0  0  2  0  0  0  0  0  0  0  0  0
    5.4406    0.2616   -4.4936 C   0  0  2  0  0  0  0  0  0  0  0  0
    3.6845    0.0468   -1.9097 C   0  0  0  0  0  0  0  0  0  0  0  0
    5.3229   -0.8514   -3.5419 C   0  0  0  0  0  0  0  0  0  0  0  0
    4.0132   -2.3477   -2.0608 C   0  0  0  0  0  0  0  0  0  0  0  0
    6.3984   -1.6324   -3.2898 C   0  0  0  0  0  0  0  0  0  0  0  0
    5.1176   -3.0836   -1.8588 C   0  0  0  0  0  0  0  0  0  0  0  0
    6.3143   -2.7352   -2.4559 C   0  0  0  0  0  0  0  0  0  0  0  0
    7.3332   -3.4345   -2.2470 O   0  0  0  0  0  0  0  0  0  0  0  0
    0.8114   -0.1970   -9.0909 H   0  0  0  0  0  0  0  0  0  0  0  0
   -1.8872   -2.1011   -9.9060 H   0  0  0  0  0  0  0  0  0  0  0  0
    0.7693   -5.2908   -9.0986 H   0  0  0  0  0  0  0  0  0  0  0  0
   -3.7764   -0.8142   -6.4470 H   0  0  0  0  0  0  0  0  0  0  0  0
   -2.5120   -1.0635   -5.2750 H   0  0  0  0  0  0  0  0  0  0  0  0
   -1.0705    0.7375   -4.6939 H   0  0  0  0  0  0  0  0  0  0  0  0
   -0.0718    1.7454   -5.7225 H   0  0  0  0  0  0  0  0  0  0  0  0
    0.5537    1.1506   -4.2130 H   0  0  0  0  0  0  0  0  0  0  0  0
    2.2316   -1.2757   -6.7484 H   0  0  0  0  0  0  0  0  0  0  0  0
    0.6261   -2.5762   -5.4163 H   0  0  0  0  0  0  0  0  0  0  0  0
   -0.5832   -1.8012   -4.4279 H   0  0  0  0  0  0  0  0  0  0  0  0
   -0.8153    1.4732   -9.5031 H   0  0  0  0  0  0  0  0  0  0  0  0
   -0.4209    2.3355   -7.9950 H   0  0  0  0  0  0  0  0  0  0  0  0
    0.7500    2.2469   -9.3194 H   0  0  0  0  0  0  0  0  0  0  0  0
    1.9336    1.6939   -7.0617 H   0  0  0  0  0  0  0  0  0  0  0  0
    2.7558    0.5434   -8.1300 H   0  0  0  0  0  0  0  0  0  0  0  0
   -3.1840   -3.5519  -11.3332 H   0  0  0  0  0  0  0  0  0  0  0  0
   -0.5568   -6.7334  -10.5096 H   0  0  0  0  0  0  0  0  0  0  0  0
   -3.2984   -2.9821   -6.0352 H   0  0  0  0  0  0  0  0  0  0  0  0
    2.7200    0.8202   -4.6280 H   0  0  0  0  0  0  0  0  0  0  0  0
    1.3949   -2.5903   -3.1748 H   0  0  0  0  0  0  0  0  0  0  0  0
   -2.5249   -5.8633  -11.6432 H   0  0  0  0  0  0  0  0  0  0  0  0
    4.7356   -0.7833   -6.2588 H   0  0  0  0  0  0  0  0  0  0  0  0
    4.4884    0.9657   -6.2978 H   0  0  0  0  0  0  0  0  0  0  0  0
    0.0525   -1.0313   -2.4278 H   0  0  0  0  0  0  0  0  0  0  0  0
    5.2454    1.2072   -3.9815 H   0  0  0  0  0  0  0  0  0  0  0  0
    6.4432    0.3465   -4.9263 H   0  0  0  0  0  0  0  0  0  0  0  0
    3.4192    0.9667   -2.4272 H   0  0  0  0  0  0  0  0  0  0  0  0
    2.8653   -0.1860   -1.2283 H   0  0  0  0  0  0  0  0  0  0  0  0
    4.5551    0.2589   -1.2836 H   0  0  0  0  0  0  0  0  0  0  0  0
    3.1792   -2.6386   -1.6038 H   0  0  0  0  0  0  0  0  0  0  0  0
    7.2760   -1.4342   -3.7163 H   0  0  0  0  0  0  0  0  0  0  0  0
    5.0703   -3.8865   -1.2730 H   0  0  0  0  0  0  0  0  0  0  0  0
  1  2  1  0  0  0  0 
  3  1  1  0  0  0  0 
  2  4  2  0  0  0  0 
  2  5  1  0  0  0  0 
  3  6  1  0  0  0  0 
  7  3  1  0  0  0  0 
  3  8  1  0  0  0  0 
  5  9  2  0  0  0  0 
  5 10  1  0  0  0  0 
  6 11  1  0  0  0  0 
  6 12  2  0  0  0  0 
  7 13  1  0  0  0  0 
 14  7  1  0  0  0  0 
  7 15  1  0  0  0  0 
  8 16  1  0  0  0  0 
  8 17  1  0  0  0  0 
  9 18  1  0  0  0  0 
 10 19  2  0  0  0  0 
 11 20  1  0  0  0  0 
 14 17  1  0  0  0  0 
 21 14  1  0  0  0  0 
 22 15  1  0  0  0  0 
 18 23  2  0  0  0  0 
 19 23  1  0  0  0  0 
 24 21  1  0  0  0  0 
 21 25  1  0  0  0  0 
 24 22  1  0  0  0  0 
 22 26  1  0  0  0  0 
 24 27  1  0  0  0  0 
 24 28  1  0  0  0  0 
 25 29  1  0  0  0  0 
 28 30  1  0  0  0  0 
 28 31  1  0  0  0  0 
 28 32  1  0  0  0  0 
 29 31  1  0  0  0  0 
 31 33  2  0  0  0  0 
 32 34  2  0  0  0  0 
 33 35  1  0  0  0  0 
 34 35  1  0  0  0  0 
 35 36  2  0  0  0  0 
  8 37  1  0  0  0  0 
 38  9  1  0  0  0  0 
 39 10  1  0  0  0  0 
 40 11  1  0  0  0  0 
 41 11  1  0  0  0  0 
 42 13  1  0  0  0  0 
 43 13  1  0  0  0  0 
 44 13  1  0  0  0  0 
 14 45  1  0  0  0  0 
 46 15  1  0  0  0  0 
 47 15  1  0  0  0  0 
 48 16  1  0  0  0  0 
 49 16  1  0  0  0  0 
 50 16  1  0  0  0  0 
 51 17  1  0  0  0  0 
 52 17  1  0  0  0  0 
 53 18  1  0  0  0  0 
 54 19  1  0  0  0  0 
 55 20  1  0  0  0  0 
 21 56  1  0  0  0  0 
 22 57  1  0  0  0  0 
 58 23  1  0  0  0  0 
 59 25  1  0  0  0  0 
 60 25  1  0  0  0  0 
 61 26  1  0  0  0  0 
 62 29  1  0  0  0  0 
 63 29  1  0  0  0  0 
 64 30  1  0  0  0  0 
 65 30  1  0  0  0  0 
 66 30  1  0  0  0  0 
 67 32  1  0  0  0  0 
 68 33  1  0  0  0  0 
 69 34  1  0  0  0  0 
M  END
> <cdk:Title>
betamethasone benzoate

> <Conformer>
1

> <SuperDrugID>
SD000296

$$$$
