trazodone
  CDK     0628171801

 48 51  0  0  0  0  0  0  0  0999 V2000
    2.6042   -1.8461   -0.9499 O   0  0  0  0  0  0  0  0  0  0  0  0
    2.6210   -0.7967   -0.2654 C   0  0  0  0  0  0  0  0  0  0  0  0
    3.6814   -0.2913    0.3798 N   0  0  0  0  0  0  0  0  0  0  0  0
    1.5686    0.0099   -0.0010 N   0  0  0  0  0  0  0  0  0  0  0  0
    3.2519    0.8257    0.9972 C   0  0  0  0  0  0  0  0  0  0  0  0
    4.9601   -0.7479    0.4750 C   0  0  0  0  0  0  0  0  0  0  0  0
    0.2048   -0.2214   -0.3652 C   0  0  2  0  0  0  0  0  0  0  0  0
    1.9551    1.0200    0.7210 N   0  0  0  0  0  0  0  0  0  0  0  0
    4.1126    1.5943    1.7960 C   0  0  0  0  0  0  0  0  0  0  0  0
    5.8773   -0.0175    1.2598 C   0  0  0  0  0  0  0  0  0  0  0  0
   -0.4546   -1.3549    0.4699 C   0  0  1  0  0  0  0  0  0  0  0  0
    5.4450    1.1516    1.9249 C   0  0  0  0  0  0  0  0  0  0  0  0
   -0.5370   -1.0688    1.9987 C   0  0  1  0  0  0  0  0  0  0  0  0
    0.7681   -1.0249    2.7409 N   0  0  1  0  0  0  0  0  0  0  0  0
    0.6241   -0.4328    4.1097 C   0  0  2  0  0  0  0  0  0  0  0  0
    1.5073   -2.3234    2.8023 C   0  0  1  0  0  0  0  0  0  0  0  0
    1.9809   -0.3475    4.8609 C   0  0  2  0  0  0  0  0  0  0  0  0
    2.8644   -2.1376    3.5319 C   0  0  2  0  0  0  0  0  0  0  0  0
    2.6540   -1.6463    4.8919 N   0  0  0  0  0  0  0  0  0  0  0  0
    3.0505   -2.3348    6.0685 C   0  0  0  0  0  0  0  0  0  0  0  0
    3.6644   -3.6261    6.0454 C   0  0  0  0  0  0  0  0  0  0  0  0
    2.8731   -1.7940    7.3782 C   0  0  0  0  0  0  0  0  0  0  0  0
    4.0701   -4.3123    7.2093 C   0  0  0  0  0  0  0  0  0  0  0  0
    3.2537   -2.4728    8.5509 C   0  0  0  0  0  0  0  0  0  0  0  0
    4.8096   -5.8344    7.1008 Cl  0  0  0  0  0  0  0  0  0  0  0  0
    3.8581   -3.7329    8.4692 C   0  0  0  0  0  0  0  0  0  0  0  0
    5.2531   -1.6044   -0.0009 H   0  0  0  0  0  0  0  0  0  0  0  0
    0.1557   -0.4746   -1.4292 H   0  0  0  0  0  0  0  0  0  0  0  0
   -0.3775    0.6956   -0.2304 H   0  0  0  0  0  0  0  0  0  0  0  0
    3.7821    2.4368    2.2717 H   0  0  0  0  0  0  0  0  0  0  0  0
    6.8457   -0.3343    1.3491 H   0  0  0  0  0  0  0  0  0  0  0  0
   -1.4749   -1.4843    0.0983 H   0  0  0  0  0  0  0  0  0  0  0  0
    0.0596   -2.2985    0.2848 H   0  0  0  0  0  0  0  0  0  0  0  0
    6.1013    1.6783    2.5060 H   0  0  0  0  0  0  0  0  0  0  0  0
   -1.0423   -0.1041    2.1029 H   0  0  0  0  0  0  0  0  0  0  0  0
   -1.1913   -1.8151    2.4581 H   0  0  0  0  0  0  0  0  0  0  0  0
   -0.0769   -1.0235    4.7101 H   0  0  0  0  0  0  0  0  0  0  0  0
    0.2242    0.5809    4.0272 H   0  0  0  0  0  0  0  0  0  0  0  0
    0.9129   -3.0769    3.3264 H   0  0  0  0  0  0  0  0  0  0  0  0
    1.7168   -2.6980    1.8009 H   0  0  0  0  0  0  0  0  0  0  0  0
    1.7646    0.0959    5.8264 H   0  0  0  0  0  0  0  0  0  0  0  0
    2.6256    0.3701    4.3427 H   0  0  0  0  0  0  0  0  0  0  0  0
    3.4664   -1.4074    2.9851 H   0  0  0  0  0  0  0  0  0  0  0  0
    3.4146   -3.0650    3.4406 H   0  0  0  0  0  0  0  0  0  0  0  0
    3.8391   -4.1192    5.1779 H   0  0  0  0  0  0  0  0  0  0  0  0
    2.4636   -0.8811    7.5346 H   0  0  0  0  0  0  0  0  0  0  0  0
    3.0969   -2.0437    9.4676 H   0  0  0  0  0  0  0  0  0  0  0  0
    4.1408   -4.2179    9.3271 H   0  0  0  0  0  0  0  0  0  0  0  0
  1  2  2  0  0  0  0 
  2  3  1  0  0  0  0 
  2  4  1  0  0  0  0 
  3  5  1  0  0  0  0 
  3  6  1  0  0  0  0 
  4  7  1  0  0  0  0 
  4  8  1  0  0  0  0 
  5  8  2  0  0  0  0 
  5  9  1  0  0  0  0 
  6 10  2  0  0  0  0 
  7 11  1  0  0  0  0 
  9 12  2  0  0  0  0 
 10 12  1  0  0  0  0 
 11 13  1  0  0  0  0 
 13 14  1  0  0  0  0 
 14 15  1  0  0  0  0 
 14 16  1  0  0  0  0 
 15 17  1  0  0  0  0 
 16 18  1  0  0  0  0 
 17 19  1  0  0  0  0 
 18 19  1  0  0  0  0 
 19 20  1  0  0  0  0 
 20 21  2  0  0  0  0 
 20 22  1  0  0  0  0 
 21 23  1  0  0  0  0 
 22 24  2  0  0  0  0 
 23 25  1  0  0  0  0 
 23 26  2  0  0  0  0 
 24 26  1  0  0  0  0 
  6 27  1  0  0  0  0 
  7 28  1  0  0  0  0 
  7 29  1  0  0  0  0 
  9 30  1  0  0  0  0 
 10 31  1  0  0  0  0 
 11 32  1  0  0  0  0 
 11 33  1  0  0  0  0 
 12 34  1  0  0  0  0 
 13 35  1  0  0  0  0 
 13 36  1  0  0  0  0 
 15 37  1  0  0  0  0 
 15 38  1  0  0  0  0 
 16 39  1  0  0  0  0 
 16 40  1  0  0  0  0 
 17 41  1  0  0  0  0 
 17 42  1  0  0  0  0 
 18 43  1  0  0  0  0 
 18 44  1  0  0  0  0 
 21 45  1  0  0  0  0 
 22 46  1  0  0  0  0 
 24 47  1  0  0  0  0 
 26 48  1  0  0  0  0 
M  END
> <cdk:Title>
trazodone

> <Conformer>
1

> <SuperDrugID>
SD002448

$$$$
