arbutin
  CDK     0628171801

 35 36  0  0  0  0  0  0  0  0999 V2000
    1.9938   -2.4586   -3.5631 O   0  0  0  0  0  0  0  0  0  0  0  0
    1.3220   -2.5624   -2.2894 C   0  0  2  0  0  0  0  0  0  0  0  0
    2.7322   -1.3112   -3.7039 C   0  0  0  0  0  0  0  0  0  0  0  0
    2.2992   -2.5824   -1.2214 O   0  0  0  0  0  0  0  0  0  0  0  0
    0.4983   -3.8789   -2.2693 C   0  0  2  0  0  0  0  0  0  0  0  0
    4.0914   -1.2898   -3.3246 C   0  0  0  0  0  0  0  0  0  0  0  0
    2.1450   -0.1484   -4.2474 C   0  0  0  0  0  0  0  0  0  0  0  0
    1.7571   -2.6874    0.1130 C   0  0  2  0  0  0  0  0  0  0  0  0
   -0.5216   -3.8526   -3.2674 O   0  0  0  0  0  0  0  0  0  0  0  0
   -0.1419   -4.0904   -0.8701 C   0  0  2  0  0  0  0  0  0  0  0  0
    4.8539   -0.1180   -3.4824 C   0  0  0  0  0  0  0  0  0  0  0  0
    2.9113    1.0212   -4.4121 C   0  0  0  0  0  0  0  0  0  0  0  0
    2.9479   -2.6008    1.1014 C   0  0  2  0  0  0  0  0  0  0  0  0
    0.9203   -3.9958    0.2601 C   0  0  2  0  0  0  0  0  0  0  0  0
   -0.8040   -5.3530   -0.8172 O   0  0  0  0  0  0  0  0  0  0  0  0
    4.2693    1.0369   -4.0365 C   0  0  0  0  0  0  0  0  0  0  0  0
    3.8833   -3.6580    0.8972 O   0  0  0  0  0  0  0  0  0  0  0  0
    0.2605   -4.0462    1.5244 O   0  0  0  0  0  0  0  0  0  0  0  0
    5.0202    2.1532   -4.2099 O   0  0  0  0  0  0  0  0  0  0  0  0
    0.6399   -1.7117   -2.1628 H   0  0  0  0  0  0  0  0  0  0  0  0
    1.1631   -4.7193   -2.4910 H   0  0  0  0  0  0  0  0  0  0  0  0
    4.5257   -2.1277   -2.9319 H   0  0  0  0  0  0  0  0  0  0  0  0
    1.1592   -0.1527   -4.5263 H   0  0  0  0  0  0  0  0  0  0  0  0
    1.1123   -1.8234    0.3048 H   0  0  0  0  0  0  0  0  0  0  0  0
   -0.0451   -3.7782   -4.1210 H   0  0  0  0  0  0  0  0  0  0  0  0
   -0.9036   -3.3218   -0.7095 H   0  0  0  0  0  0  0  0  0  0  0  0
    5.8341   -0.1062   -3.1975 H   0  0  0  0  0  0  0  0  0  0  0  0
    2.4776    1.8605   -4.8067 H   0  0  0  0  0  0  0  0  0  0  0  0
    2.5950   -2.6347    2.1348 H   0  0  0  0  0  0  0  0  0  0  0  0
    3.4698   -1.6523    0.9541 H   0  0  0  0  0  0  0  0  0  0  0  0
    1.5817   -4.8640    0.1917 H   0  0  0  0  0  0  0  0  0  0  0  0
   -0.0989   -6.0180   -0.9622 H   0  0  0  0  0  0  0  0  0  0  0  0
    4.6138   -3.4748    1.5264 H   0  0  0  0  0  0  0  0  0  0  0  0
    0.9781   -4.0636    2.1912 H   0  0  0  0  0  0  0  0  0  0  0  0
    4.4503    2.7869   -4.6974 H   0  0  0  0  0  0  0  0  0  0  0  0
  1  3  1  0  0  0  0 
  2  1  1  0  0  0  0 
  2  4  1  0  0  0  0 
  5  2  1  0  0  0  0 
  3  6  2  0  0  0  0 
  3  7  1  0  0  0  0 
  8  4  1  0  0  0  0 
  5  9  1  0  0  0  0 
 10  5  1  0  0  0  0 
  6 11  1  0  0  0  0 
  7 12  2  0  0  0  0 
  8 13  1  0  0  0  0 
 14  8  1  0  0  0  0 
 14 10  1  0  0  0  0 
 10 15  1  0  0  0  0 
 11 16  2  0  0  0  0 
 12 16  1  0  0  0  0 
 13 17  1  0  0  0  0 
 14 18  1  0  0  0  0 
 16 19  1  0  0  0  0 
  2 20  1  0  0  0  0 
  5 21  1  0  0  0  0 
  6 22  1  0  0  0  0 
  7 23  1  0  0  0  0 
  8 24  1  0  0  0  0 
  9 25  1  0  0  0  0 
 10 26  1  0  0  0  0 
 11 27  1  0  0  0  0 
 12 28  1  0  0  0  0 
 13 29  1  0  0  0  0 
 13 30  1  0  0  0  0 
 14 31  1  0  0  0  0 
 15 32  1  0  0  0  0 
 17 33  1  0  0  0  0 
 18 34  1  0  0  0  0 
 19 35  1  0  0  0  0 
M  END
> <cdk:Title>
arbutin

> <Conformer>
1

> <SuperDrugID>
SD003464

$$$$
