etebenecid
  CDK     0628171801

 32 32  0  0  0  0  0  0  0  0999 V2000
    0.3699   -0.7185   -0.0240 S   0  0  1  0  0  0  0  0  0  0  0  0
   -1.2628   -0.7400    0.6858 N   0  0  2  0  0  0  0  0  0  0  0  0
    1.4476   -0.8789    1.1541 O   0  0  0  0  0  0  0  0  0  0  0  0
    0.5407   -1.9544   -1.0335 O   0  0  0  0  0  0  0  0  0  0  0  0
    0.6245    0.7976   -0.9046 C   0  0  0  0  0  0  0  0  0  0  0  0
   -1.5147    0.4164    1.6068 C   0  0  1  0  0  0  0  0  0  0  0  0
   -1.6559   -2.0940    1.1826 C   0  0  1  0  0  0  0  0  0  0  0  0
    0.2764    0.8908   -2.2656 C   0  0  0  0  0  0  0  0  0  0  0  0
    1.1493    1.9281   -0.2514 C   0  0  0  0  0  0  0  0  0  0  0  0
   -2.3837    1.4747    0.8939 C   0  0  0  0  0  0  0  0  0  0  0  0
   -3.1755   -2.2676    1.4338 C   0  0  0  0  0  0  0  0  0  0  0  0
    0.4586    2.0972   -2.9653 C   0  0  0  0  0  0  0  0  0  0  0  0
    1.3071    3.1410   -0.9449 C   0  0  0  0  0  0  0  0  0  0  0  0
    0.9813    3.2443   -2.3197 C   0  0  0  0  0  0  0  0  0  0  0  0
    1.1829    4.4570   -3.0326 C   0  0  0  0  0  0  0  0  0  0  0  0
    0.8822    4.5708   -4.3490 O   0  0  0  0  0  0  0  0  0  0  0  0
    1.6576    5.4788   -2.4850 O   0  0  0  0  0  0  0  0  0  0  0  0
   -2.0287    0.1085    2.5197 H   0  0  0  0  0  0  0  0  0  0  0  0
   -0.5880    0.8896    1.9409 H   0  0  0  0  0  0  0  0  0  0  0  0
   -1.3910   -2.8383    0.4289 H   0  0  0  0  0  0  0  0  0  0  0  0
   -1.1080   -2.3376    2.0971 H   0  0  0  0  0  0  0  0  0  0  0  0
   -0.1109    0.0835   -2.7577 H   0  0  0  0  0  0  0  0  0  0  0  0
    1.4174    1.8773    0.7333 H   0  0  0  0  0  0  0  0  0  0  0  0
   -2.4582    2.3735    1.5117 H   0  0  0  0  0  0  0  0  0  0  0  0
   -1.9500    1.7498   -0.0691 H   0  0  0  0  0  0  0  0  0  0  0  0
   -3.3852    1.0772    0.7197 H   0  0  0  0  0  0  0  0  0  0  0  0
   -3.4093   -3.3315    1.5390 H   0  0  0  0  0  0  0  0  0  0  0  0
   -3.4832   -1.7613    2.3521 H   0  0  0  0  0  0  0  0  0  0  0  0
   -3.7513   -1.8653    0.5957 H   0  0  0  0  0  0  0  0  0  0  0  0
    0.2021    2.1258   -3.9554 H   0  0  0  0  0  0  0  0  0  0  0  0
    1.6673    3.9472   -0.4308 H   0  0  0  0  0  0  0  0  0  0  0  0
    1.0564    5.4083   -4.8275 H   0  0  0  0  0  0  0  0  0  0  0  0
  1  2  1  0  0  0  0 
  1  3  2  0  0  0  0 
  1  4  2  0  0  0  0 
  1  5  1  0  0  0  0 
  2  6  1  0  0  0  0 
  2  7  1  0  0  0  0 
  5  8  2  0  0  0  0 
  5  9  1  0  0  0  0 
  6 10  1  0  0  0  0 
  7 11  1  0  0  0  0 
  8 12  1  0  0  0  0 
  9 13  2  0  0  0  0 
 12 14  2  0  0  0  0 
 13 14  1  0  0  0  0 
 14 15  1  0  0  0  0 
 15 16  1  0  0  0  0 
 15 17  2  0  0  0  0 
  6 18  1  0  0  0  0 
  6 19  1  0  0  0  0 
  7 20  1  0  0  0  0 
  7 21  1  0  0  0  0 
  8 22  1  0  0  0  0 
  9 23  1  0  0  0  0 
 10 24  1  0  0  0  0 
 10 25  1  0  0  0  0 
 10 26  1  0  0  0  0 
 11 27  1  0  0  0  0 
 11 28  1  0  0  0  0 
 11 29  1  0  0  0  0 
 12 30  1  0  0  0  0 
 13 31  1  0  0  0  0 
 16 32  1  0  0  0  0 
M  END
> <cdk:Title>
etebenecid

> <Conformer>
1

> <SuperDrugID>
SD000963

$$$$
