brovincamine
  CDK     0628171801

 52 56  0  0  0  0  0  0  0  0999 V2000
   -1.7967    2.8914   -0.9597 C   0  0  1  0  0  0  0  0  0  0  0  0
   -0.5877    3.8526   -0.8161 C   0  0  0  0  0  0  0  0  0  0  0  0
   -2.8354    2.8271    0.2344 C   0  0  1  0  0  0  0  0  0  0  0  0
   -3.9766    1.7951   -0.1549 C   0  0  1  0  0  0  0  0  0  0  0  0
   -2.1324    2.3604    1.5712 C   0  0  1  0  0  0  0  0  0  0  0  0
   -3.4677    4.2586    0.4105 C   0  0  1  0  0  0  0  0  0  0  0  0
   -3.5973    0.4114    0.2098 C   0  0  0  0  0  0  0  0  0  0  0  0
   -5.3438    1.9591    0.4502 N   0  0  2  0  0  0  0  0  0  0  0  0
   -1.5772    0.8837    1.5604 C   0  0  1  0  0  0  0  0  0  0  0  0
   -4.8249    4.2928    1.1557 C   0  0  2  0  0  0  0  0  0  0  0  0
   -2.5182   -0.0062    0.9082 N   0  0  0  0  0  0  0  0  0  0  0  0
   -4.4574   -0.6459   -0.0449 C   0  0  0  0  0  0  0  0  0  0  0  0
   -6.3786    0.9502   -0.0181 C   0  0  1  0  0  0  0  0  0  0  0  0
   -5.8496    3.3582    0.4787 C   0  0  1  0  0  0  0  0  0  0  0  0
   -0.1858    0.7801    1.0372 C   0  0  0  0  0  0  0  0  0  0  0  0
   -1.5104    0.4682    2.9294 O   0  0  0  0  0  0  0  0  0  0  0  0
   -2.5840   -1.3636    0.9441 C   0  0  0  0  0  0  0  0  0  0  0  0
   -3.7909   -1.7882    0.3716 C   0  0  0  0  0  0  0  0  0  0  0  0
   -5.8143   -0.4083   -0.5682 C   0  0  2  0  0  0  0  0  0  0  0  0
    0.1097    0.0015   -0.0483 O   0  0  0  0  0  0  0  0  0  0  0  0
    0.7315    1.4067    1.6205 O   0  0  0  0  0  0  0  0  0  0  0  0
   -1.6823   -2.3165    1.4622 C   0  0  0  0  0  0  0  0  0  0  0  0
   -4.1473   -3.1460    0.3017 C   0  0  0  0  0  0  0  0  0  0  0  0
    1.4030   -0.1680   -0.6415 C   0  0  0  0  0  0  0  0  0  0  0  0
   -2.0153   -3.6874    1.3872 C   0  0  0  0  0  0  0  0  0  0  0  0
   -3.2413   -4.0971    0.8140 C   0  0  0  0  0  0  0  0  0  0  0  0
   -0.8354   -4.9706    2.0391 Br  0  0  0  0  0  0  0  0  0  0  0  0
   -4.1258    1.8365   -1.2397 H   0  0  0  0  0  0  0  0  0  0  0  0
   -2.3179    3.1901   -1.8747 H   0  0  0  0  0  0  0  0  0  0  0  0
   -1.4055    1.8943   -1.1622 H   0  0  0  0  0  0  0  0  0  0  0  0
    0.0138    3.8115   -1.7251 H   0  0  0  0  0  0  0  0  0  0  0  0
    0.0531    3.5702    0.0171 H   0  0  0  0  0  0  0  0  0  0  0  0
   -0.9172    4.8822   -0.6763 H   0  0  0  0  0  0  0  0  0  0  0  0
   -1.3461    3.0626    1.8595 H   0  0  0  0  0  0  0  0  0  0  0  0
   -2.8792    2.4195    2.3687 H   0  0  0  0  0  0  0  0  0  0  0  0
   -2.7717    4.9136    0.9411 H   0  0  0  0  0  0  0  0  0  0  0  0
   -3.6393    4.7119   -0.5705 H   0  0  0  0  0  0  0  0  0  0  0  0
   -5.2129    5.3156    1.1533 H   0  0  0  0  0  0  0  0  0  0  0  0
   -4.6905    3.9919    2.1958 H   0  0  0  0  0  0  0  0  0  0  0  0
   -7.0164    0.7340    0.8413 H   0  0  0  0  0  0  0  0  0  0  0  0
   -7.0213    1.3784   -0.7927 H   0  0  0  0  0  0  0  0  0  0  0  0
   -6.0541    3.7089   -0.5373 H   0  0  0  0  0  0  0  0  0  0  0  0
   -6.7854    3.4050    1.0438 H   0  0  0  0  0  0  0  0  0  0  0  0
   -0.9470    1.1358    3.3752 H   0  0  0  0  0  0  0  0  0  0  0  0
   -6.4818   -1.2305   -0.3043 H   0  0  0  0  0  0  0  0  0  0  0  0
   -5.7412   -0.3648   -1.6576 H   0  0  0  0  0  0  0  0  0  0  0  0
   -0.7958   -2.0249    1.8793 H   0  0  0  0  0  0  0  0  0  0  0  0
   -5.0337   -3.4374   -0.1183 H   0  0  0  0  0  0  0  0  0  0  0  0
    1.7880    0.7902   -0.9970 H   0  0  0  0  0  0  0  0  0  0  0  0
    1.3139   -0.8476   -1.4888 H   0  0  0  0  0  0  0  0  0  0  0  0
    2.1009   -0.5945    0.0819 H   0  0  0  0  0  0  0  0  0  0  0  0
   -3.4776   -5.0916    0.7676 H   0  0  0  0  0  0  0  0  0  0  0  0
  1  2  1  0  0  0  0 
  3  1  1  0  0  0  0 
  4  3  1  0  0  0  0 
  3  5  1  0  0  0  0 
  3  6  1  0  0  0  0 
  4  7  1  0  0  0  0 
  4  8  1  0  0  0  0 
  4 28  1  0  0  0  0 
  9  5  1  0  0  0  0 
  6 10  1  0  0  0  0 
  7 11  1  0  0  0  0 
  7 12  2  0  0  0  0 
  8 13  1  0  0  0  0 
  8 14  1  0  0  0  0 
  9 11  1  0  0  0  0 
  9 15  1  0  0  0  0 
  9 16  1  0  0  0  0 
 10 14  1  0  0  0  0 
 11 17  1  0  0  0  0 
 12 18  1  0  0  0  0 
 12 19  1  0  0  0  0 
 13 19  1  0  0  0  0 
 15 20  1  0  0  0  0 
 15 21  2  0  0  0  0 
 17 18  1  0  0  0  0 
 17 22  2  0  0  0  0 
 18 23  2  0  0  0  0 
 20 24  1  0  0  0  0 
 22 25  1  0  0  0  0 
 23 26  1  0  0  0  0 
 25 26  2  0  0  0  0 
 25 27  1  0  0  0  0 
  1 29  1  0  0  0  0 
  1 30  1  0  0  0  0 
  2 31  1  0  0  0  0 
  2 32  1  0  0  0  0 
  2 33  1  0  0  0  0 
  5 34  1  0  0  0  0 
  5 35  1  0  0  0  0 
  6 36  1  0  0  0  0 
  6 37  1  0  0  0  0 
 10 38  1  0  0  0  0 
 10 39  1  0  0  0  0 
 13 40  1  0  0  0  0 
 13 41  1  0  0  0  0 
 14 42  1  0  0  0  0 
 14 43  1  0  0  0  0 
 16 44  1  0  0  0  0 
 19 45  1  0  0  0  0 
 19 46  1  0  0  0  0 
 22 47  1  0  0  0  0 
 23 48  1  0  0  0  0 
 24 49  1  0  0  0  0 
 24 50  1  0  0  0  0 
 24 51  1  0  0  0  0 
 26 52  1  0  0  0  0 
M  END
> <cdk:Title>
brovincamine

> <Conformer>
1

> <SuperDrugID>
SD000353

$$$$
