deptropine
  CDK     0628171802

 52 56  0  0  0  0  0  0  0  0999 V2000
   -2.8117    3.2338    0.7013 C   0  0  0  0  0  0  0  0  0  0  0  0
   -1.4699    2.6954    1.0528 C   0  0  1  0  0  0  0  0  0  0  0  0
   -1.3098    2.4241    2.5702 C   0  0  2  0  0  0  0  0  0  0  0  0
   -2.3015    1.5888    3.3271 C   0  0  0  0  0  0  0  0  0  0  0  0
   -3.4831    0.9691    2.8042 C   0  0  0  0  0  0  0  0  0  0  0  0
   -3.9161    1.0322    1.3655 C   0  0  1  0  0  0  0  0  0  0  0  0
   -3.9868    2.4484    0.8822 C   0  0  0  0  0  0  0  0  0  0  0  0
   -4.1801    5.1079   -0.1016 C   0  0  0  0  0  0  0  0  0  0  0  0
   -2.9246    4.5525    0.1926 C   0  0  0  0  0  0  0  0  0  0  0  0
   -5.2458    3.0374    0.5950 C   0  0  0  0  0  0  0  0  0  0  0  0
   -5.3420    4.3542    0.1139 C   0  0  0  0  0  0  0  0  0  0  0  0
   -2.0156    1.4402    4.7109 C   0  0  0  0  0  0  0  0  0  0  0  0
   -2.8471    0.6985    5.5632 C   0  0  0  0  0  0  0  0  0  0  0  0
   -3.9908    0.0799    5.0489 C   0  0  0  0  0  0  0  0  0  0  0  0
   -4.3013    0.2151    3.6885 C   0  0  0  0  0  0  0  0  0  0  0  0
   -3.1080    0.2510    0.4520 O   0  0  0  0  0  0  0  0  0  0  0  0
   -2.7851   -1.1319    0.7508 C   0  0  2  0  0  0  0  0  0  0  0  0
   -2.1865   -2.1321   -1.5901 C   0  0  1  0  0  0  0  0  0  0  0  0
   -1.6500   -1.5611   -0.2387 C   0  0  2  0  0  0  0  0  0  0  0  0
   -4.0068   -2.1109    0.6711 C   0  0  1  0  0  0  0  0  0  0  0  0
   -4.2898   -2.6397   -0.7722 C   0  0  2  0  0  0  0  0  0  0  0  0
   -3.0336   -3.2937   -1.2203 N   0  0  1  0  0  0  0  0  0  0  0  0
   -2.3613   -1.1792    1.7591 H   0  0  0  0  0  0  0  0  0  0  0  0
   -3.1372   -1.1706   -2.3500 C   0  0  2  0  0  0  0  0  0  0  0  0
   -4.5423   -1.5188   -1.8120 C   0  0  1  0  0  0  0  0  0  0  0  0
   -3.1628   -4.3781   -2.2303 C   0  0  0  0  0  0  0  0  0  0  0  0
   -1.3372   -2.4147   -2.2197 H   0  0  0  0  0  0  0  0  0  0  0  0
   -5.1344   -3.3342   -0.7384 H   0  0  0  0  0  0  0  0  0  0  0  0
   -1.2562    1.7932    0.4807 H   0  0  0  0  0  0  0  0  0  0  0  0
   -0.6862    3.4030    0.7678 H   0  0  0  0  0  0  0  0  0  0  0  0
   -1.2720    3.4028    3.0593 H   0  0  0  0  0  0  0  0  0  0  0  0
   -0.3243    1.9654    2.6938 H   0  0  0  0  0  0  0  0  0  0  0  0
   -4.9189    0.6108    1.2611 H   0  0  0  0  0  0  0  0  0  0  0  0
   -4.2499    6.0607   -0.4683 H   0  0  0  0  0  0  0  0  0  0  0  0
   -2.0919    5.1257    0.0349 H   0  0  0  0  0  0  0  0  0  0  0  0
   -6.1121    2.5126    0.7352 H   0  0  0  0  0  0  0  0  0  0  0  0
   -6.2576    4.7639   -0.0826 H   0  0  0  0  0  0  0  0  0  0  0  0
   -1.1881    1.8816    5.1213 H   0  0  0  0  0  0  0  0  0  0  0  0
   -2.6237    0.6107    6.5567 H   0  0  0  0  0  0  0  0  0  0  0  0
   -4.5968   -0.4674    5.6651 H   0  0  0  0  0  0  0  0  0  0  0  0
   -5.1423   -0.2583    3.3508 H   0  0  0  0  0  0  0  0  0  0  0  0
   -1.0446   -2.3398    0.2348 H   0  0  0  0  0  0  0  0  0  0  0  0
   -0.9828   -0.7199   -0.4393 H   0  0  0  0  0  0  0  0  0  0  0  0
   -3.7943   -2.9742    1.3084 H   0  0  0  0  0  0  0  0  0  0  0  0
   -4.9105   -1.6507    1.0679 H   0  0  0  0  0  0  0  0  0  0  0  0
   -3.0925   -1.3592   -3.4270 H   0  0  0  0  0  0  0  0  0  0  0  0
   -2.8847   -0.1213   -2.1741 H   0  0  0  0  0  0  0  0  0  0  0  0
   -5.1704   -1.8947   -2.6256 H   0  0  0  0  0  0  0  0  0  0  0  0
   -5.0330   -0.6494   -1.3673 H   0  0  0  0  0  0  0  0  0  0  0  0
   -3.7780   -5.1810   -1.8259 H   0  0  0  0  0  0  0  0  0  0  0  0
   -2.1803   -4.7976   -2.4495 H   0  0  0  0  0  0  0  0  0  0  0  0
   -3.6095   -4.0267   -3.1597 H   0  0  0  0  0  0  0  0  0  0  0  0
  1  2  1  0  0  0  0 
  2  3  1  0  0  0  0 
  3  4  1  0  0  0  0 
  5  6  1  0  0  0  0 
  6  7  1  0  0  0  0 
  7 10  1  0  0  0  0 
  1  7  2  0  0  0  0 
  9  1  1  0  0  0  0 
  8  9  2  0  0  0  0 
 10 11  2  0  0  0  0 
  8 11  1  0  0  0  0 
  4 12  2  0  0  0  0 
  5  4  1  0  0  0  0 
  5 15  2  0  0  0  0 
 12 13  1  0  0  0  0 
 13 14  2  0  0  0  0 
 14 15  1  0  0  0  0 
  6 16  1  0  0  0  0 
 17 16  1  0  0  0  0 
 19 17  1  0  0  0  0 
 17 20  1  0  0  0  0 
 18 19  1  0  0  0  0 
 20 21  1  0  0  0  0 
 21 22  1  0  0  0  0 
 18 22  1  0  0  0  0 
 17 23  1  0  0  0  0 
 18 24  1  0  0  0  0 
 21 25  1  0  0  0  0 
 24 25  1  0  0  0  0 
 22 26  1  0  0  0  0 
 18 27  1  0  0  0  0 
 21 28  1  0  0  0  0 
  2 29  1  0  0  0  0 
  2 30  1  0  0  0  0 
  3 31  1  0  0  0  0 
  3 32  1  0  0  0  0 
  6 33  1  0  0  0  0 
  8 34  1  0  0  0  0 
  9 35  1  0  0  0  0 
 10 36  1  0  0  0  0 
 11 37  1  0  0  0  0 
 12 38  1  0  0  0  0 
 13 39  1  0  0  0  0 
 14 40  1  0  0  0  0 
 15 41  1  0  0  0  0 
 19 42  1  0  0  0  0 
 19 43  1  0  0  0  0 
 20 44  1  0  0  0  0 
 20 45  1  0  0  0  0 
 24 46  1  0  0  0  0 
 24 47  1  0  0  0  0 
 25 48  1  0  0  0  0 
 25 49  1  0  0  0  0 
 26 50  1  0  0  0  0 
 26 51  1  0  0  0  0 
 26 52  1  0  0  0  0 
M  END
> <cdk:Title>
deptropine

> <Conformer>
1

> <SuperDrugID>
SD000713

$$$$
