nepinalone
  CDK     0628171801

 45 47  0  0  0  0  0  0  0  0999 V2000
    8.5322    1.5679    1.2872 C   0  0  0  0  0  0  0  0  0  0  0  0
    8.2318    1.0790    2.5661 C   0  0  0  0  0  0  0  0  0  0  0  0
    7.0721    1.5169    3.2241 C   0  0  0  0  0  0  0  0  0  0  0  0
    6.2031    2.4489    2.6112 C   0  0  0  0  0  0  0  0  0  0  0  0
    6.4959    2.9647    1.3105 C   0  0  0  0  0  0  0  0  0  0  0  0
    7.6771    2.4981    0.6704 C   0  0  0  0  0  0  0  0  0  0  0  0
    4.9940    2.8956    3.3565 C   0  0  1  0  0  0  0  0  0  0  0  0
    3.8447    3.2910    2.4088 C   0  0  1  0  0  0  0  0  0  0  0  0
    4.3420    4.2650    1.4171 C   0  0  0  0  0  0  0  0  0  0  0  0
    5.5906    3.9785    0.6248 C   0  0  1  0  0  0  0  0  0  0  0  0
    3.6565    5.2957    1.2116 O   0  0  0  0  0  0  0  0  0  0  0  0
    6.3703    5.3209    0.3233 C   0  0  2  0  0  0  0  0  0  0  0  0
    6.9400    6.1078    1.5417 C   0  0  1  0  0  0  0  0  0  0  0  0
    7.9973    5.3692    2.3109 N   0  0  2  0  0  0  0  0  0  0  0  0
    8.6472    6.9087    4.2112 C   0  0  2  0  0  0  0  0  0  0  0  0
    7.9877    5.5717    3.7934 C   0  0  2  0  0  0  0  0  0  0  0  0
    9.3889    5.4290    1.7589 C   0  0  1  0  0  0  0  0  0  0  0  0
   10.1175    6.7561    2.1076 C   0  0  1  0  0  0  0  0  0  0  0  0
   10.0818    7.0299    3.6344 C   0  0  1  0  0  0  0  0  0  0  0  0
    5.0705    3.3665   -0.7226 C   0  0  0  0  0  0  0  0  0  0  0  0
    9.3739    1.2476    0.8036 H   0  0  0  0  0  0  0  0  0  0  0  0
    8.8560    0.4060    3.0178 H   0  0  0  0  0  0  0  0  0  0  0  0
    6.8668    1.1474    4.1567 H   0  0  0  0  0  0  0  0  0  0  0  0
    7.9329    2.8316   -0.2604 H   0  0  0  0  0  0  0  0  0  0  0  0
    4.6243    2.1085    4.0222 H   0  0  0  0  0  0  0  0  0  0  0  0
    5.2703    3.7525    3.9762 H   0  0  0  0  0  0  0  0  0  0  0  0
    3.4837    2.4026    1.8836 H   0  0  0  0  0  0  0  0  0  0  0  0
    3.0141    3.6989    2.9923 H   0  0  0  0  0  0  0  0  0  0  0  0
    5.6964    6.0031   -0.2067 H   0  0  0  0  0  0  0  0  0  0  0  0
    7.1879    5.1276   -0.3737 H   0  0  0  0  0  0  0  0  0  0  0  0
    7.3386    7.0579    1.1787 H   0  0  0  0  0  0  0  0  0  0  0  0
    6.0976    6.3640    2.1876 H   0  0  0  0  0  0  0  0  0  0  0  0
    8.6823    6.9704    5.3013 H   0  0  0  0  0  0  0  0  0  0  0  0
    8.0367    7.7385    3.8481 H   0  0  0  0  0  0  0  0  0  0  0  0
    8.5250    4.7425    4.2639 H   0  0  0  0  0  0  0  0  0  0  0  0
    6.9696    5.5421    4.1850 H   0  0  0  0  0  0  0  0  0  0  0  0
    9.9612    4.6009    2.1838 H   0  0  0  0  0  0  0  0  0  0  0  0
    9.3889    5.2850    0.6776 H   0  0  0  0  0  0  0  0  0  0  0  0
   11.1568    6.7048    1.7710 H   0  0  0  0  0  0  0  0  0  0  0  0
    9.6449    7.5880    1.5792 H   0  0  0  0  0  0  0  0  0  0  0  0
   10.4656    8.0335    3.8344 H   0  0  0  0  0  0  0  0  0  0  0  0
   10.7374    6.3162    4.1421 H   0  0  0  0  0  0  0  0  0  0  0  0
    4.3341    4.0196   -1.2007 H   0  0  0  0  0  0  0  0  0  0  0  0
    5.8834    3.2240   -1.4378 H   0  0  0  0  0  0  0  0  0  0  0  0
    4.5990    2.3933   -0.5523 H   0  0  0  0  0  0  0  0  0  0  0  0
  1  2  2  0  0  0  0 
  2  3  1  0  0  0  0 
  3  4  2  0  0  0  0 
  4  5  1  0  0  0  0 
  5  6  2  0  0  0  0 
  1  6  1  0  0  0  0 
  7  8  1  0  0  0  0 
  8  9  1  0  0  0  0 
 10  9  1  0  0  0  0 
  4  7  1  0  0  0  0 
 10  5  1  0  0  0  0 
  9 11  2  0  0  0  0 
 10 12  1  0  0  0  0 
 12 13  1  0  0  0  0 
 13 14  1  0  0  0  0 
 15 16  1  0  0  0  0 
 17 18  1  0  0  0  0 
 18 19  1  0  0  0  0 
 15 19  1  0  0  0  0 
 16 14  1  0  0  0  0 
 14 17  1  0  0  0  0 
 10 20  1  0  0  0  0 
  1 21  1  0  0  0  0 
  2 22  1  0  0  0  0 
  3 23  1  0  0  0  0 
  6 24  1  0  0  0  0 
  7 25  1  0  0  0  0 
  7 26  1  0  0  0  0 
  8 27  1  0  0  0  0 
  8 28  1  0  0  0  0 
 12 29  1  0  0  0  0 
 12 30  1  0  0  0  0 
 13 31  1  0  0  0  0 
 13 32  1  0  0  0  0 
 15 33  1  0  0  0  0 
 15 34  1  0  0  0  0 
 16 35  1  0  0  0  0 
 16 36  1  0  0  0  0 
 17 37  1  0  0  0  0 
 17 38  1  0  0  0  0 
 18 39  1  0  0  0  0 
 18 40  1  0  0  0  0 
 19 41  1  0  0  0  0 
 19 42  1  0  0  0  0 
 20 43  1  0  0  0  0 
 20 44  1  0  0  0  0 
 20 45  1  0  0  0  0 
M  END
> <cdk:Title>
nepinalone

> <Conformer>
1

> <SuperDrugID>
SD001695

$$$$
