rescinnamine
  CDK     0628171801

 88 93  0  0  0  0  0  0  0  0999 V2000
   -1.8710    0.8087    2.7897 C   0  0  0  0  0  0  0  0  0  0  0  0
   -0.5955    1.1225    2.4011 O   0  0  0  0  0  0  0  0  0  0  0  0
   -2.3385    1.3034    3.8431 O   0  0  0  0  0  0  0  0  0  0  0  0
   -2.7423   -0.0735    1.9628 C   0  0  1  0  0  0  0  0  0  0  0  0
    0.2997    2.0088    3.0824 C   0  0  0  0  0  0  0  0  0  0  0  0
   -3.9793    0.7184    1.4002 C   0  0  1  0  0  0  0  0  0  0  0  0
   -1.9722   -0.8516    0.8374 C   0  0  1  0  0  0  0  0  0  0  0  0
   -3.6364    1.9695    0.5269 C   0  0  1  0  0  0  0  0  0  0  0  0
   -4.9187   -0.2594    0.6278 C   0  0  1  0  0  0  0  0  0  0  0  0
   -0.8002   -1.5670    1.3145 O   0  0  0  0  0  0  0  0  0  0  0  0
   -2.8940   -1.7181   -0.0932 C   0  0  1  0  0  0  0  0  0  0  0  0
   -4.8886    2.6628   -0.1056 C   0  0  2  0  0  0  0  0  0  0  0  0
   -6.1978    0.4924    0.1696 C   0  0  1  0  0  0  0  0  0  0  0  0
   -4.1807   -0.9708   -0.5500 C   0  0  2  0  0  0  0  0  0  0  0  0
   -0.9475   -2.6437    2.2591 C   0  0  0  0  0  0  0  0  0  0  0  0
   -2.1852   -2.0743   -1.2969 O   0  0  0  0  0  0  0  0  0  0  0  0
   -5.5881    3.7198    0.7704 C   0  0  0  0  0  0  0  0  0  0  0  0
   -5.8860    1.6747   -0.6876 N   0  0  1  0  0  0  0  0  0  0  0  0
   -1.0893   -2.8819   -1.3774 C   0  0  0  0  0  0  0  0  0  0  0  0
   -7.0320    3.9747    0.6819 C   0  0  0  0  0  0  0  0  0  0  0  0
   -4.8501    4.5729    1.6220 N   0  0  0  0  0  0  0  0  0  0  0  0
   -7.1194    2.2673   -1.3265 C   0  0  1  0  0  0  0  0  0  0  0  0
    0.1672   -2.3469   -1.6128 C   0  0  0  0  0  0  0  0  0  0  0  0
   -1.2339   -4.1093   -1.1747 O   0  0  0  0  0  0  0  0  0  0  0  0
   -7.0280    5.1283    1.6112 C   0  0  0  0  0  0  0  0  0  0  0  0
   -7.9653    3.1645   -0.3041 C   0  0  2  0  0  0  0  0  0  0  0  0
   -5.7105    5.4757    2.1630 C   0  0  0  0  0  0  0  0  0  0  0  0
    0.3747   -1.0575   -1.9466 C   0  0  0  0  0  0  0  0  0  0  0  0
   -8.1023    5.9915    2.0340 C   0  0  0  0  0  0  0  0  0  0  0  0
   -5.4826    6.5524    3.0300 C   0  0  0  0  0  0  0  0  0  0  0  0
    1.6032   -0.3824   -1.9969 C   0  0  0  0  0  0  0  0  0  0  0  0
   -7.8717    7.0847    2.8958 C   0  0  0  0  0  0  0  0  0  0  0  0
   -6.5738    7.3763    3.3768 C   0  0  0  0  0  0  0  0  0  0  0  0
    1.5904    1.0306   -2.1362 C   0  0  0  0  0  0  0  0  0  0  0  0
    2.8661   -1.0120   -1.8529 C   0  0  0  0  0  0  0  0  0  0  0  0
   -6.3663    8.4475    4.2075 O   0  0  0  0  0  0  0  0  0  0  0  0
    2.7738    1.7907   -2.0620 C   0  0  0  0  0  0  0  0  0  0  0  0
    4.0579   -0.2657   -1.7918 C   0  0  0  0  0  0  0  0  0  0  0  0
   -6.2134    9.6993    3.5110 C   0  0  0  0  0  0  0  0  0  0  0  0
    2.7118    3.1562   -2.1382 O   0  0  0  0  0  0  0  0  0  0  0  0
    4.0060    1.1425   -1.8389 C   0  0  0  0  0  0  0  0  0  0  0  0
    5.2535   -0.9130   -1.6224 O   0  0  0  0  0  0  0  0  0  0  0  0
    2.8787    3.6572   -3.4760 C   0  0  0  0  0  0  0  0  0  0  0  0
    5.1475    1.8766   -1.6621 O   0  0  0  0  0  0  0  0  0  0  0  0
    5.9242   -1.1992   -2.8628 C   0  0  0  0  0  0  0  0  0  0  0  0
    5.3603    2.2211   -0.2788 C   0  0  0  0  0  0  0  0  0  0  0  0
   -4.5062    3.2397   -0.9548 H   0  0  0  0  0  0  0  0  0  0  0  0
   -4.5441    1.0889    2.2623 H   0  0  0  0  0  0  0  0  0  0  0  0
   -5.2514   -1.0412    1.3223 H   0  0  0  0  0  0  0  0  0  0  0  0
   -3.1408   -0.8295    2.6470 H   0  0  0  0  0  0  0  0  0  0  0  0
    0.5193    1.6384    4.0851 H   0  0  0  0  0  0  0  0  0  0  0  0
    1.2317    2.0802    2.5210 H   0  0  0  0  0  0  0  0  0  0  0  0
   -0.1470    3.0019    3.1533 H   0  0  0  0  0  0  0  0  0  0  0  0
   -1.5376   -0.0913    0.1874 H   0  0  0  0  0  0  0  0  0  0  0  0
   -3.0703    2.6885    1.1195 H   0  0  0  0  0  0  0  0  0  0  0  0
   -2.9729    1.6776   -0.2880 H   0  0  0  0  0  0  0  0  0  0  0  0
   -3.2084   -2.6231    0.4311 H   0  0  0  0  0  0  0  0  0  0  0  0
   -6.8205   -0.2148   -0.3858 H   0  0  0  0  0  0  0  0  0  0  0  0
   -6.7668    0.8097    1.0490 H   0  0  0  0  0  0  0  0  0  0  0  0
   -3.9265   -0.2446   -1.3255 H   0  0  0  0  0  0  0  0  0  0  0  0
   -4.8564   -1.6978   -1.0113 H   0  0  0  0  0  0  0  0  0  0  0  0
    0.0471   -3.0346    2.4728 H   0  0  0  0  0  0  0  0  0  0  0  0
   -1.5461   -3.4620    1.8599 H   0  0  0  0  0  0  0  0  0  0  0  0
   -1.3759   -2.2999    3.1996 H   0  0  0  0  0  0  0  0  0  0  0  0
   -3.8952    4.5383    1.7793 H   0  0  0  0  0  0  0  0  0  0  0  0
   -6.7849    2.9032   -2.1499 H   0  0  0  0  0  0  0  0  0  0  0  0
   -7.7542    1.4947   -1.7688 H   0  0  0  0  0  0  0  0  0  0  0  0
    0.9385   -2.9503   -1.4647 H   0  0  0  0  0  0  0  0  0  0  0  0
   -8.6393    3.7844   -0.9624 H   0  0  0  0  0  0  0  0  0  0  0  0
   -8.6890    2.4559    0.1939 H   0  0  0  0  0  0  0  0  0  0  0  0
   -0.4363   -0.5108   -2.1323 H   0  0  0  0  0  0  0  0  0  0  0  0
   -9.0509    5.8100    1.6972 H   0  0  0  0  0  0  0  0  0  0  0  0
   -4.5439    6.7418    3.3874 H   0  0  0  0  0  0  0  0  0  0  0  0
   -8.6575    7.6787    3.1722 H   0  0  0  0  0  0  0  0  0  0  0  0
    0.7068    1.5323   -2.2659 H   0  0  0  0  0  0  0  0  0  0  0  0
    2.9450   -2.0265   -1.7699 H   0  0  0  0  0  0  0  0  0  0  0  0
   -6.0032   10.4801    4.2445 H   0  0  0  0  0  0  0  0  0  0  0  0
   -5.3806    9.6651    2.8037 H   0  0  0  0  0  0  0  0  0  0  0  0
   -7.1308    9.9702    2.9828 H   0  0  0  0  0  0  0  0  0  0  0  0
    2.8106    4.7447   -3.4379 H   0  0  0  0  0  0  0  0  0  0  0  0
    3.8566    3.3929   -3.8871 H   0  0  0  0  0  0  0  0  0  0  0  0
    2.0915    3.2902   -4.1396 H   0  0  0  0  0  0  0  0  0  0  0  0
    6.8431   -1.7377   -2.6297 H   0  0  0  0  0  0  0  0  0  0  0  0
    5.3154   -1.8315   -3.5148 H   0  0  0  0  0  0  0  0  0  0  0  0
    6.1949   -0.2820   -3.3926 H   0  0  0  0  0  0  0  0  0  0  0  0
    6.2898    2.7846   -0.2077 H   0  0  0  0  0  0  0  0  0  0  0  0
    4.5539    2.8504    0.1073 H   0  0  0  0  0  0  0  0  0  0  0  0
    5.4545    1.3312    0.3502 H   0  0  0  0  0  0  0  0  0  0  0  0
  1  2  1  0  0  0  0 
  1  3  2  0  0  0  0 
  2  5  1  0  0  0  0 
  4  1  1  0  0  0  0 
  4  6  1  0  0  0  0 
  7  4  1  0  0  0  0 
  6  8  1  0  0  0  0 
  6  9  1  0  0  0  0 
  6 48  1  0  0  0  0 
  7 10  1  0  0  0  0 
 11  7  1  0  0  0  0 
 12  8  1  0  0  0  0 
  9 13  1  0  0  0  0 
  9 14  1  0  0  0  0 
  9 49  1  0  0  0  0 
 10 15  1  0  0  0  0 
 11 14  1  0  0  0  0 
 11 16  1  0  0  0  0 
 12 17  1  0  0  0  0 
 12 18  1  0  0  0  0 
 12 47  1  0  0  0  0 
 13 18  1  0  0  0  0 
 16 19  1  0  0  0  0 
 17 20  2  0  0  0  0 
 17 21  1  0  0  0  0 
 18 22  1  0  0  0  0 
 19 23  1  0  0  0  0 
 19 24  2  0  0  0  0 
 20 25  1  0  0  0  0 
 20 26  1  0  0  0  0 
 21 27  1  0  0  0  0 
 22 26  1  0  0  0  0 
 23 28  2  0  0  0  0 
 25 27  1  0  0  0  0 
 25 29  2  0  0  0  0 
 27 30  2  0  0  0  0 
 28 31  1  0  0  0  0 
 29 32  1  0  0  0  0 
 30 33  1  0  0  0  0 
 31 34  2  0  0  0  0 
 31 35  1  0  0  0  0 
 32 33  2  0  0  0  0 
 33 36  1  0  0  0  0 
 34 37  1  0  0  0  0 
 35 38  2  0  0  0  0 
 36 39  1  0  0  0  0 
 37 40  1  0  0  0  0 
 37 41  2  0  0  0  0 
 38 41  1  0  0  0  0 
 38 42  1  0  0  0  0 
 40 43  1  0  0  0  0 
 41 44  1  0  0  0  0 
 42 45  1  0  0  0  0 
 44 46  1  0  0  0  0 
  4 50  1  0  0  0  0 
  5 51  1  0  0  0  0 
  5 52  1  0  0  0  0 
  5 53  1  0  0  0  0 
  7 54  1  0  0  0  0 
  8 55  1  0  0  0  0 
  8 56  1  0  0  0  0 
 11 57  1  0  0  0  0 
 13 58  1  0  0  0  0 
 13 59  1  0  0  0  0 
 14 60  1  0  0  0  0 
 14 61  1  0  0  0  0 
 15 62  1  0  0  0  0 
 15 63  1  0  0  0  0 
 15 64  1  0  0  0  0 
 21 65  1  0  0  0  0 
 22 66  1  0  0  0  0 
 22 67  1  0  0  0  0 
 23 68  1  0  0  0  0 
 26 69  1  0  0  0  0 
 26 70  1  0  0  0  0 
 28 71  1  0  0  0  0 
 29 72  1  0  0  0  0 
 30 73  1  0  0  0  0 
 32 74  1  0  0  0  0 
 34 75  1  0  0  0  0 
 35 76  1  0  0  0  0 
 39 77  1  0  0  0  0 
 39 78  1  0  0  0  0 
 39 79  1  0  0  0  0 
 43 80  1  0  0  0  0 
 43 81  1  0  0  0  0 
 43 82  1  0  0  0  0 
 45 83  1  0  0  0  0 
 45 84  1  0  0  0  0 
 45 85  1  0  0  0  0 
 46 86  1  0  0  0  0 
 46 87  1  0  0  0  0 
 46 88  1  0  0  0  0 
M  END
> <cdk:Title>
rescinnamine

> <Conformer>
1

> <SuperDrugID>
SD002131

$$$$
