molsidomine
  CDK     0628171801

 31 32  0  0  0  0  0  0  0  0999 V2000
    1.9685    2.6842   -1.5963 C   0  0  2  0  0  0  0  0  0  0  0  0
    3.0811    2.1679   -0.6478 C   0  0  2  0  0  0  0  0  0  0  0  0
    2.5488    1.0783    0.2223 N   0  0  2  0  0  0  0  0  0  0  0  0
    1.3150    1.4755    0.9580 C   0  0  1  0  0  0  0  0  0  0  0  0
    0.2560    1.9827   -0.0520 C   0  0  2  0  0  0  0  0  0  0  0  0
    0.7898    3.0585   -0.8523 O   0  0  0  0  0  0  0  0  0  0  0  0
    3.5089    0.5346    1.0276 N   0  0  0  0  0  0  0  0  0  0  0  0
    3.9981   -0.7048    0.8916 C   0  0  0  0  0  0  0  0  0  0  0  0
    4.9892   -0.8419    1.8488 C   0  0  0  0  0  0  0  0  0  0  0  0
    5.0161    0.3200    2.5364 O   0  0  0  0  0  0  0  0  0  0  0  0
    4.1189    1.1162    2.0166 N   0  0  0  0  0  0  0  0  0  0  0  0
    5.7876   -1.9225    2.0105 N   0  0  0  0  0  0  0  0  0  0  0  0
    6.8250   -2.0570    2.8714 C   0  0  0  0  0  0  0  0  0  0  0  0
    7.1462   -1.1539    3.6810 O   0  0  0  0  0  0  0  0  0  0  0  0
    7.5295   -3.2213    2.8100 O   0  0  0  0  0  0  0  0  0  0  0  0
    8.7010   -3.5473    3.5689 C   0  0  2  0  0  0  0  0  0  0  0  0
    9.2311   -4.9145    3.1069 C   0  0  0  0  0  0  0  0  0  0  0  0
    1.7159    1.9186   -2.3356 H   0  0  0  0  0  0  0  0  0  0  0  0
    2.3290    3.5624   -2.1369 H   0  0  0  0  0  0  0  0  0  0  0  0
    3.4421    2.9997   -0.0343 H   0  0  0  0  0  0  0  0  0  0  0  0
    3.9149    1.7937   -1.2494 H   0  0  0  0  0  0  0  0  0  0  0  0
    0.9108    0.6185    1.5042 H   0  0  0  0  0  0  0  0  0  0  0  0
    1.5386    2.2716    1.6762 H   0  0  0  0  0  0  0  0  0  0  0  0
   -0.6150    2.3549    0.4904 H   0  0  0  0  0  0  0  0  0  0  0  0
   -0.0735    1.1616   -0.6957 H   0  0  0  0  0  0  0  0  0  0  0  0
    3.7134   -1.4030    0.2011 H   0  0  0  0  0  0  0  0  0  0  0  0
    8.4587   -3.5817    4.6334 H   0  0  0  0  0  0  0  0  0  0  0  0
    9.4747   -2.7924    3.4074 H   0  0  0  0  0  0  0  0  0  0  0  0
    8.4895   -5.6879    3.3151 H   0  0  0  0  0  0  0  0  0  0  0  0
   10.1622   -5.1537    3.6244 H   0  0  0  0  0  0  0  0  0  0  0  0
    9.4274   -4.8933    2.0339 H   0  0  0  0  0  0  0  0  0  0  0  0
  1  2  1  0  0  0  0 
  2  3  1  0  0  0  0 
  3  4  1  0  0  0  0 
  4  5  1  0  0  0  0 
  5  6  1  0  0  0  0 
  1  6  1  0  0  0  0 
  3  7  1  0  0  0  0 
  8  9  2  0  0  0  0 
  9 10  1  0  0  0  0 
 10 11  1  0  0  0  0 
  7  8  1  0  0  0  0 
  7 11  2  0  0  0  0 
  9 12  1  0  0  0  0 
 12 13  1  0  0  0  0 
 13 14  2  0  0  0  0 
 13 15  1  0  0  0  0 
 15 16  1  0  0  0  0 
 16 17  1  0  0  0  0 
 18  1  1  0  0  0  0 
 19  1  1  0  0  0  0 
 20  2  1  0  0  0  0 
 21  2  1  0  0  0  0 
 22  4  1  0  0  0  0 
 23  4  1  0  0  0  0 
 24  5  1  0  0  0  0 
 25  5  1  0  0  0  0 
 26  8  1  0  0  0  0 
 27 16  1  0  0  0  0 
 28 16  1  0  0  0  0 
 29 17  1  0  0  0  0 
 30 17  1  0  0  0  0 
 31 17  1  0  0  0  0 
M  CHG  1   7   1
M  CHG  1  12  -1
M  END
> <cdk:Title>
molsidomine

> <Conformer>
1

> <SuperDrugID>
SD001630

$$$$
