arsenic trioxide
  CDK     0628171801

  5  4  0  0  0  0  0  0  0  0999 V2000
   -0.3413    3.1395    2.7339 O   0  0  0  0  0  0  0  0  0  0  0  0
   -1.0069    3.0499    1.1043 As  0  0  0  0  0  0  0  0  0  0  0  0
   -0.0646    1.5219    0.5959 O   0  0  0  0  0  0  0  0  0  0  0  0
   -0.6224    1.2051   -1.1562 As  0  0  0  0  0  0  0  0  0  0  0  0
    0.3623   -0.2360   -1.4021 O   0  0  0  0  0  0  0  0  0  0  0  0
  1  2  2  0  0  0  0 
  2  3  1  0  0  0  0 
  3  4  1  0  0  0  0 
  4  5  2  0  0  0  0 
M  END
> <cdk:Title>
arsenic trioxide

> <Conformer>
1

> <SuperDrugID>
SD000201

$$$$
