oxaflumazine
  CDK     0628171801

 67 71  0  0  0  0  0  0  0  0999 V2000
    0.8043    5.4952   -2.3729 F   0  0  0  0  0  0  0  0  0  0  0  0
   -0.5533    5.6991   -2.3112 C   0  0  2  0  0  0  0  0  0  0  0  0
   -0.8773    6.5615   -3.3313 F   0  0  0  0  0  0  0  0  0  0  0  0
   -0.8439    6.3580   -1.1410 F   0  0  0  0  0  0  0  0  0  0  0  0
   -1.2641    4.3881   -2.3555 C   0  0  0  0  0  0  0  0  0  0  0  0
   -2.1365    4.0310   -3.4109 C   0  0  0  0  0  0  0  0  0  0  0  0
   -2.8064    2.7963   -3.4072 C   0  0  0  0  0  0  0  0  0  0  0  0
   -2.6043    1.8944   -2.3491 C   0  0  0  0  0  0  0  0  0  0  0  0
   -3.5183    0.3922   -2.2911 S   0  0  0  0  0  0  0  0  0  0  0  0
   -3.5725    0.0541   -0.5645 C   0  0  0  0  0  0  0  0  0  0  0  0
   -4.6434   -0.6914   -0.0358 C   0  0  0  0  0  0  0  0  0  0  0  0
   -4.7249   -0.9092    1.3495 C   0  0  0  0  0  0  0  0  0  0  0  0
   -3.7319   -0.3979    2.2011 C   0  0  0  0  0  0  0  0  0  0  0  0
   -2.6495    0.3218    1.6638 C   0  0  0  0  0  0  0  0  0  0  0  0
   -2.5427    0.5624    0.2699 C   0  0  0  0  0  0  0  0  0  0  0  0
   -1.4721    1.2661   -0.2799 N   0  0  0  0  0  0  0  0  0  0  0  0
   -0.1094    1.0251    0.1801 C   0  0  2  0  0  0  0  0  0  0  0  0
    0.3427   -0.4621    0.1646 C   0  0  2  0  0  0  0  0  0  0  0  0
    0.3008   -1.1411   -1.2328 C   0  0  2  0  0  0  0  0  0  0  0  0
    0.9680   -0.3892   -2.3500 N   0  0  1  0  0  0  0  0  0  0  0  0
    2.4443   -0.2185   -2.1724 C   0  0  2  0  0  0  0  0  0  0  0  0
    3.0760    0.5951   -3.3284 C   0  0  2  0  0  0  0  0  0  0  0  0
    2.7427    0.0066   -4.6638 N   0  0  2  0  0  0  0  0  0  0  0  0
    3.4164    0.6744   -5.8270 C   0  0  2  0  0  0  0  0  0  0  0  0
    4.9573    0.4749   -5.8446 C   0  0  1  0  0  0  0  0  0  0  0  0
    5.6527    0.9729   -7.1347 C   0  0  2  0  0  0  0  0  0  0  0  0
    7.0769    0.7820   -6.9588 O   0  0  0  0  0  0  0  0  0  0  0  0
    7.8741    1.3273   -8.0284 C   0  0  2  0  0  0  0  0  0  0  0  0
    7.5491    2.8213   -8.2549 C   0  0  2  0  0  0  0  0  0  0  0  0
    6.0225    2.9762   -8.4298 C   0  0  2  0  0  0  0  0  0  0  0  0
    5.3271    2.3693   -7.3259 O   0  0  0  0  0  0  0  0  0  0  0  0
    1.2636   -0.1316   -4.8423 C   0  0  1  0  0  0  0  0  0  0  0  0
    0.6469   -0.9694   -3.6938 C   0  0  2  0  0  0  0  0  0  0  0  0
   -1.7047    2.1878   -1.2970 C   0  0  0  0  0  0  0  0  0  0  0  0
   -1.0633    3.4512   -1.3131 C   0  0  0  0  0  0  0  0  0  0  0  0
   -2.3036    4.6683   -4.1922 H   0  0  0  0  0  0  0  0  0  0  0  0
   -3.4459    2.5634   -4.1704 H   0  0  0  0  0  0  0  0  0  0  0  0
   -5.3671   -1.0695   -0.6527 H   0  0  0  0  0  0  0  0  0  0  0  0
   -5.5092   -1.4350    1.7376 H   0  0  0  0  0  0  0  0  0  0  0  0
   -3.7961   -0.5461    3.2110 H   0  0  0  0  0  0  0  0  0  0  0  0
   -1.9417    0.6746    2.3098 H   0  0  0  0  0  0  0  0  0  0  0  0
   -0.0053    1.4120    1.1948 H   0  0  0  0  0  0  0  0  0  0  0  0
    0.6238    1.5709   -0.4196 H   0  0  0  0  0  0  0  0  0  0  0  0
   -0.2840   -1.0388    0.8499 H   0  0  0  0  0  0  0  0  0  0  0  0
    1.3589   -0.5213    0.5619 H   0  0  0  0  0  0  0  0  0  0  0  0
   -0.7549   -1.2854   -1.4762 H   0  0  0  0  0  0  0  0  0  0  0  0
    0.7475   -2.1362   -1.1407 H   0  0  0  0  0  0  0  0  0  0  0  0
    2.9343   -1.1952   -2.1108 H   0  0  0  0  0  0  0  0  0  0  0  0
    2.6572    0.3193   -1.2465 H   0  0  0  0  0  0  0  0  0  0  0  0
    4.1535    0.5817   -3.1637 H   0  0  0  0  0  0  0  0  0  0  0  0
    2.7375    1.6342   -3.2711 H   0  0  0  0  0  0  0  0  0  0  0  0
    3.1831    1.7432   -5.8315 H   0  0  0  0  0  0  0  0  0  0  0  0
    3.0332    0.2489   -6.7590 H   0  0  0  0  0  0  0  0  0  0  0  0
    5.4043    1.0113   -5.0058 H   0  0  0  0  0  0  0  0  0  0  0  0
    5.1722   -0.5887   -5.7182 H   0  0  0  0  0  0  0  0  0  0  0  0
    5.2993    0.3787   -7.9853 H   0  0  0  0  0  0  0  0  0  0  0  0
    7.7067    0.7587   -8.9472 H   0  0  0  0  0  0  0  0  0  0  0  0
    8.9283    1.2270   -7.7614 H   0  0  0  0  0  0  0  0  0  0  0  0
    8.0743    3.2001   -9.1345 H   0  0  0  0  0  0  0  0  0  0  0  0
    7.8695    3.3937   -7.3812 H   0  0  0  0  0  0  0  0  0  0  0  0
    5.6995    2.5267   -9.3736 H   0  0  0  0  0  0  0  0  0  0  0  0
    5.7663    4.0374   -8.4567 H   0  0  0  0  0  0  0  0  0  0  0  0
    0.7811    0.8512   -4.8743 H   0  0  0  0  0  0  0  0  0  0  0  0
    1.0499   -0.6429   -5.7860 H   0  0  0  0  0  0  0  0  0  0  0  0
   -0.4363   -0.9965   -3.8413 H   0  0  0  0  0  0  0  0  0  0  0  0
    1.0222   -1.9961   -3.7641 H   0  0  0  0  0  0  0  0  0  0  0  0
   -0.4414    3.7003   -0.5408 H   0  0  0  0  0  0  0  0  0  0  0  0
  1  2  1  0  0  0  0 
  2  3  1  0  0  0  0 
  2  4  1  0  0  0  0 
  2  5  1  0  0  0  0 
  5  6  2  0  0  0  0 
  6  7  1  0  0  0  0 
  7  8  2  0  0  0  0 
  8  9  1  0  0  0  0 
  9 10  1  0  0  0  0 
 10 11  2  0  0  0  0 
 11 12  1  0  0  0  0 
 12 13  2  0  0  0  0 
 13 14  1  0  0  0  0 
 14 15  2  0  0  0  0 
 10 15  1  0  0  0  0 
 15 16  1  0  0  0  0 
 16 17  1  0  0  0  0 
 17 18  1  0  0  0  0 
 18 19  1  0  0  0  0 
 19 20  1  0  0  0  0 
 20 21  1  0  0  0  0 
 21 22  1  0  0  0  0 
 22 23  1  0  0  0  0 
 23 24  1  0  0  0  0 
 24 25  1  0  0  0  0 
 25 26  1  0  0  0  0 
 26 27  1  0  0  0  0 
 27 28  1  0  0  0  0 
 28 29  1  0  0  0  0 
 29 30  1  0  0  0  0 
 30 31  1  0  0  0  0 
 26 31  1  0  0  0  0 
 23 32  1  0  0  0  0 
 32 33  1  0  0  0  0 
 20 33  1  0  0  0  0 
 16 34  1  0  0  0  0 
  8 34  1  0  0  0  0 
 34 35  2  0  0  0  0 
  5 35  1  0  0  0  0 
  6 36  1  0  0  0  0 
  7 37  1  0  0  0  0 
 11 38  1  0  0  0  0 
 12 39  1  0  0  0  0 
 13 40  1  0  0  0  0 
 14 41  1  0  0  0  0 
 17 42  1  0  0  0  0 
 17 43  1  0  0  0  0 
 18 44  1  0  0  0  0 
 18 45  1  0  0  0  0 
 19 46  1  0  0  0  0 
 19 47  1  0  0  0  0 
 21 48  1  0  0  0  0 
 21 49  1  0  0  0  0 
 22 50  1  0  0  0  0 
 22 51  1  0  0  0  0 
 24 52  1  0  0  0  0 
 24 53  1  0  0  0  0 
 25 54  1  0  0  0  0 
 25 55  1  0  0  0  0 
 26 56  1  0  0  0  0 
 28 57  1  0  0  0  0 
 28 58  1  0  0  0  0 
 29 59  1  0  0  0  0 
 29 60  1  0  0  0  0 
 30 61  1  0  0  0  0 
 30 62  1  0  0  0  0 
 32 63  1  0  0  0  0 
 32 64  1  0  0  0  0 
 33 65  1  0  0  0  0 
 33 66  1  0  0  0  0 
 35 67  1  0  0  0  0 
M  END
> <cdk:Title>
oxaflumazine

> <Conformer>
1

> <SuperDrugID>
SD003243

$$$$
