zanamivir
  CDK     0628171801

 43 43  0  0  0  0  0  0  0  0999 V2000
   -2.0190    0.8505    3.6061 C   0  0  0  0  0  0  0  0  0  0  0  0
   -1.5243    0.1637    2.4041 C   0  0  0  0  0  0  0  0  0  0  0  0
   -0.3036    0.2684    2.1419 O   0  0  0  0  0  0  0  0  0  0  0  0
   -2.3806   -0.5591    1.6284 N   0  0  0  0  0  0  0  0  0  0  0  0
   -2.0651   -1.3145    0.4470 C   0  0  2  0  0  0  0  0  0  0  0  0
   -1.1458   -2.5465    0.7587 C   0  0  1  0  0  0  0  0  0  0  0  0
   -1.9005   -3.5937    1.3113 N   0  0  0  0  0  0  0  0  0  0  0  0
   -1.9948   -4.0073    2.5254 C   0  0  0  0  0  0  0  0  0  0  0  0
   -2.7658   -5.0426    2.7669 N   0  0  0  0  0  0  0  0  0  0  0  0
   -1.3763   -3.4528    3.5500 N   0  0  0  0  0  0  0  0  0  0  0  0
   -0.4173   -3.0488   -0.4010 C   0  0  0  0  0  0  0  0  0  0  0  0
   -0.4513   -2.4444   -1.6084 C   0  0  0  0  0  0  0  0  0  0  0  0
   -1.2490   -1.3728   -1.8382 O   0  0  0  0  0  0  0  0  0  0  0  0
   -1.4664   -0.4713   -0.7275 C   0  0  1  0  0  0  0  0  0  0  0  0
   -2.3523    0.7294   -1.1912 C   0  0  2  0  0  0  0  0  0  0  0  0
   -3.6380    0.2679   -1.6061 O   0  0  0  0  0  0  0  0  0  0  0  0
   -1.7571    1.6018   -2.3440 C   0  0  2  0  0  0  0  0  0  0  0  0
   -1.5847    0.8393   -3.5384 O   0  0  0  0  0  0  0  0  0  0  0  0
   -0.4117    2.2976   -2.0159 C   0  0  2  0  0  0  0  0  0  0  0  0
   -0.5121    3.1107   -0.8513 O   0  0  0  0  0  0  0  0  0  0  0  0
    0.3179   -2.8853   -2.6757 C   0  0  0  0  0  0  0  0  0  0  0  0
    1.1914   -3.9174   -2.5657 O   0  0  0  0  0  0  0  0  0  0  0  0
    0.2489   -2.3198   -3.7910 O   0  0  0  0  0  0  0  0  0  0  0  0
   -1.4898    0.4709    4.4813 H   0  0  0  0  0  0  0  0  0  0  0  0
   -3.0886    0.6857    3.7465 H   0  0  0  0  0  0  0  0  0  0  0  0
   -1.8393    1.9238    3.5185 H   0  0  0  0  0  0  0  0  0  0  0  0
   -3.3072   -0.5777    1.9136 H   0  0  0  0  0  0  0  0  0  0  0  0
   -3.0209   -1.7089    0.0851 H   0  0  0  0  0  0  0  0  0  0  0  0
   -0.3629   -2.2340    1.4547 H   0  0  0  0  0  0  0  0  0  0  0  0
   -2.8606   -5.3725    3.6746 H   0  0  0  0  0  0  0  0  0  0  0  0
   -3.2426   -5.4806    2.0445 H   0  0  0  0  0  0  0  0  0  0  0  0
   -1.4807   -3.8264    4.4399 H   0  0  0  0  0  0  0  0  0  0  0  0
   -0.8226   -2.6682    3.4230 H   0  0  0  0  0  0  0  0  0  0  0  0
    0.1577   -3.8494   -0.2621 H   0  0  0  0  0  0  0  0  0  0  0  0
   -0.5009   -0.0729   -0.4083 H   0  0  0  0  0  0  0  0  0  0  0  0
   -2.5194    1.3866   -0.3340 H   0  0  0  0  0  0  0  0  0  0  0  0
   -4.0593   -0.0794   -0.7927 H   0  0  0  0  0  0  0  0  0  0  0  0
   -2.4803    2.3900   -2.5750 H   0  0  0  0  0  0  0  0  0  0  0  0
   -2.4762    0.4956   -3.7560 H   0  0  0  0  0  0  0  0  0  0  0  0
   -0.1216    2.9371   -2.8524 H   0  0  0  0  0  0  0  0  0  0  0  0
    0.3779    1.5593   -1.8689 H   0  0  0  0  0  0  0  0  0  0  0  0
    0.3696    3.5261   -0.7588 H   0  0  0  0  0  0  0  0  0  0  0  0
    1.7432   -4.1840   -3.3290 H   0  0  0  0  0  0  0  0  0  0  0  0
  1  2  1  0  0  0  0 
  2  3  2  0  0  0  0 
  2  4  1  0  0  0  0 
  5  4  1  0  0  0  0 
  5  6  1  0  0  0  0 
  6  7  1  0  0  0  0 
  7  8  2  0  0  0  0 
  8  9  1  0  0  0  0 
  8 10  1  0  0  0  0 
  6 11  1  0  0  0  0 
 11 12  2  0  0  0  0 
 12 13  1  0  0  0  0 
 14 13  1  0  0  0  0 
  5 14  1  0  0  0  0 
 14 15  1  0  0  0  0 
 15 16  1  0  0  0  0 
 15 17  1  0  0  0  0 
 17 18  1  0  0  0  0 
 17 19  1  0  0  0  0 
 19 20  1  0  0  0  0 
 12 21  1  0  0  0  0 
 21 22  1  0  0  0  0 
 21 23  2  0  0  0  0 
 24  1  1  0  0  0  0 
 25  1  1  0  0  0  0 
 26  1  1  0  0  0  0 
 27  4  1  0  0  0  0 
  5 28  1  0  0  0  0 
  6 29  1  0  0  0  0 
 30  9  1  0  0  0  0 
 31  9  1  0  0  0  0 
 32 10  1  0  0  0  0 
 33 10  1  0  0  0  0 
 34 11  1  0  0  0  0 
 14 35  1  0  0  0  0 
 15 36  1  0  0  0  0 
 37 16  1  0  0  0  0 
 17 38  1  0  0  0  0 
 39 18  1  0  0  0  0 
 40 19  1  0  0  0  0 
 41 19  1  0  0  0  0 
 42 20  1  0  0  0  0 
 43 22  1  0  0  0  0 
M  END
> <cdk:Title>
zanamivir

> <Conformer>
1

> <SuperDrugID>
SD002576

$$$$
