miocamycin
  CDK     0628171801

134136  0  0  0  0  0  0  0  0999 V2000
   -0.0943    2.0365    2.7137 O   0  0  0  0  0  0  0  0  0  0  0  0
    0.9439    1.2624    2.0324 C   0  0  1  0  0  0  0  0  0  0  0  0
    0.3002    2.7616    3.9144 C   0  0  1  0  0  0  0  0  0  0  0  0
    0.3082    0.1137    1.1670 C   0  0  1  0  0  0  0  0  0  0  0  0
    1.9278    2.1588    1.1553 C   0  0  1  0  0  0  0  0  0  0  0  0
   -0.4616    4.1243    4.0815 C   0  0  2  0  0  0  0  0  0  0  0  0
    0.3542    1.8933    5.0682 O   0  0  0  0  0  0  0  0  0  0  0  0
    1.3989   -0.7539    0.7559 O   0  0  0  0  0  0  0  0  0  0  0  0
   -0.7714   -0.7920    1.8477 C   0  0  2  0  0  0  0  0  0  0  0  0
    1.1445    3.2862    0.4011 C   0  0  2  0  0  0  0  0  0  0  0  0
    3.1716    2.7184    1.9506 C   0  0  1  0  0  0  0  0  0  0  0  0
    0.4772    5.1615    4.3982 O   0  0  0  0  0  0  0  0  0  0  0  0
   -1.6339    4.1505    5.1399 C   0  0  1  0  0  0  0  0  0  0  0  0
   -0.7525    1.8889    5.9865 C   0  0  1  0  0  0  0  0  0  0  0  0
    1.3611   -1.2391   -0.5992 C   0  0  0  0  0  0  0  0  0  0  0  0
   -2.0642   -0.1678    1.9521 O   0  0  0  0  0  0  0  0  0  0  0  0
   -0.4059   -1.3626    3.2457 C   0  0  2  0  0  0  0  0  0  0  0  0
    1.9396    3.9582   -0.6426 C   0  0  0  0  0  0  0  0  0  0  0  0
    4.5669    2.8089    1.2273 C   0  0  1  0  0  0  0  0  0  0  0  0
   -3.0132    3.7603    4.6261 N   0  0  2  0  0  0  0  0  0  0  0  0
   -1.1386    3.3455    6.3948 C   0  0  1  0  0  0  0  0  0  0  0  0
   -1.9352    1.0008    5.5183 C   0  0  0  0  0  0  0  0  0  0  0  0
   -2.9887   -0.0657    0.9469 C   0  0  0  0  0  0  0  0  0  0  0  0
    0.7153   -2.3235    3.2877 C   0  0  0  0  0  0  0  0  0  0  0  0
    2.1813    5.1848   -0.5886 O   0  0  0  0  0  0  0  0  0  0  0  0
    5.5637    3.5840    2.1453 C   0  0  0  0  0  0  0  0  0  0  0  0
    5.1536    1.4482    0.6886 C   0  0  1  0  0  0  0  0  0  0  0  0
   -3.4206    4.4276    3.3460 C   0  0  0  0  0  0  0  0  0  0  0  0
   -4.1342    3.8948    5.6196 C   0  0  0  0  0  0  0  0  0  0  0  0
   -0.0642    4.1216    6.9841 O   0  0  0  0  0  0  0  0  0  0  0  0
   -4.4159    0.1025    1.2825 C   0  0  1  0  0  0  0  0  0  0  0  0
   -2.6472   -0.2008   -0.2510 O   0  0  0  0  0  0  0  0  0  0  0  0
    0.6981   -3.3376    2.5495 O   0  0  0  0  0  0  0  0  0  0  0  0
    1.7355   -2.1003    4.1729 O   0  0  0  0  0  0  0  0  0  0  0  0
    6.5745    1.5438    0.4560 O   0  0  0  0  0  0  0  0  0  0  0  0
    4.8885    0.2767    1.5131 C   0  0  0  0  0  0  0  0  0  0  0  0
    0.7668    3.5775    8.0280 C   0  0  1  0  0  0  0  0  0  0  0  0
   -4.7523    1.4730    1.8982 C   0  0  0  0  0  0  0  0  0  0  0  0
    2.8551   -2.9518    4.4723 C   0  0  2  0  0  0  0  0  0  0  0  0
    7.3549    0.9988   -0.5274 C   0  0  0  0  0  0  0  0  0  0  0  0
    5.4632    0.0389    2.7039 C   0  0  0  0  0  0  0  0  0  0  0  0
    1.4611    4.7821    8.7141 C   0  0  2  0  0  0  0  0  0  0  0  0
    0.0057    2.8186    8.9913 O   0  0  0  0  0  0  0  0  0  0  0  0
    2.3840   -4.1892    5.2788 C   0  0  0  0  0  0  0  0  0  0  0  0
    3.9163   -2.1361    5.2680 C   0  0  2  0  0  0  0  0  0  0  0  0
    6.8327    0.1640   -1.6243 C   0  0  0  0  0  0  0  0  0  0  0  0
    8.5815    1.2410   -0.4641 O   0  0  0  0  0  0  0  0  0  0  0  0
    5.1313   -1.0502    3.4260 C   0  0  0  0  0  0  0  0  0  0  0  0
    2.3237    4.3839    9.9559 C   0  0  2  0  0  0  0  0  0  0  0  0
    0.7638    2.2596   10.0861 C   0  0  2  0  0  0  0  0  0  0  0  0
    4.3906   -0.9665    4.5444 C   0  0  0  0  0  0  0  0  0  0  0  0
    2.5289    5.6283   10.6687 O   0  0  0  0  0  0  0  0  0  0  0  0
    3.7249    3.8496    9.5137 C   0  0  0  0  0  0  0  0  0  0  0  0
    1.5176    3.3884   10.8683 C   0  0  2  0  0  0  0  0  0  0  0  0
    1.6059    1.0161    9.6928 C   0  0  0  0  0  0  0  0  0  0  0  0
    3.1919    5.8954   11.8339 C   0  0  0  0  0  0  0  0  0  0  0  0
    0.5287    4.1660   11.5696 O   0  0  0  0  0  0  0  0  0  0  0  0
    3.1412    7.2674   12.3533 C   0  0  0  0  0  0  0  0  0  0  0  0
    3.8316    5.0122   12.4504 O   0  0  0  0  0  0  0  0  0  0  0  0
   -0.1790    3.8125   12.6795 C   0  0  0  0  0  0  0  0  0  0  0  0
   -1.2458    4.7073   13.1529 C   0  0  2  0  0  0  0  0  0  0  0  0
    0.0457    2.7371   13.2832 O   0  0  0  0  0  0  0  0  0  0  0  0
   -2.6373    4.0986   12.8742 C   0  0  0  0  0  0  0  0  0  0  0  0
   -0.9306   -1.6644    1.2064 H   0  0  0  0  0  0  0  0  0  0  0  0
    1.3412    3.0467    3.8117 H   0  0  0  0  0  0  0  0  0  0  0  0
    1.5145    2.9457    7.5466 H   0  0  0  0  0  0  0  0  0  0  0  0
    1.5327    0.7419    2.7948 H   0  0  0  0  0  0  0  0  0  0  0  0
   -0.1632    0.5861    0.2998 H   0  0  0  0  0  0  0  0  0  0  0  0
    2.3464    1.5128    0.3828 H   0  0  0  0  0  0  0  0  0  0  0  0
   -0.8087    4.4324    3.0998 H   0  0  0  0  0  0  0  0  0  0  0  0
    0.7885    4.0259    1.1211 H   0  0  0  0  0  0  0  0  0  0  0  0
    0.2654    2.8686   -0.0905 H   0  0  0  0  0  0  0  0  0  0  0  0
    2.9178    3.7229    2.2938 H   0  0  0  0  0  0  0  0  0  0  0  0
    3.3310    2.1268    2.8534 H   0  0  0  0  0  0  0  0  0  0  0  0
    0.9153    4.8772    5.2260 H   0  0  0  0  0  0  0  0  0  0  0  0
   -1.7406    5.1950    5.4571 H   0  0  0  0  0  0  0  0  0  0  0  0
   -0.3753    1.3840    6.8764 H   0  0  0  0  0  0  0  0  0  0  0  0
    0.4357   -1.7785   -0.8102 H   0  0  0  0  0  0  0  0  0  0  0  0
    2.1982   -1.9218   -0.7376 H   0  0  0  0  0  0  0  0  0  0  0  0
    1.4703   -0.4142   -1.3058 H   0  0  0  0  0  0  0  0  0  0  0  0
   -1.2822   -1.8797    3.6504 H   0  0  0  0  0  0  0  0  0  0  0  0
   -0.1772   -0.5360    3.9114 H   0  0  0  0  0  0  0  0  0  0  0  0
    2.3108    3.4155   -1.4259 H   0  0  0  0  0  0  0  0  0  0  0  0
    4.4400    3.4529    0.3519 H   0  0  0  0  0  0  0  0  0  0  0  0
   -1.9047    3.3019    7.1652 H   0  0  0  0  0  0  0  0  0  0  0  0
   -2.7979    1.1303    6.1728 H   0  0  0  0  0  0  0  0  0  0  0  0
   -1.6566   -0.0514    5.5666 H   0  0  0  0  0  0  0  0  0  0  0  0
   -2.2220    1.2390    4.4943 H   0  0  0  0  0  0  0  0  0  0  0  0
    6.5173    3.7552    1.6431 H   0  0  0  0  0  0  0  0  0  0  0  0
    5.7467    3.0365    3.0684 H   0  0  0  0  0  0  0  0  0  0  0  0
    5.1559    4.5634    2.4029 H   0  0  0  0  0  0  0  0  0  0  0  0
    4.6693    1.2741   -0.2772 H   0  0  0  0  0  0  0  0  0  0  0  0
   -2.8764    3.9923    2.5099 H   0  0  0  0  0  0  0  0  0  0  0  0
   -4.4768    4.2822    3.1115 H   0  0  0  0  0  0  0  0  0  0  0  0
   -3.2304    5.5023    3.3813 H   0  0  0  0  0  0  0  0  0  0  0  0
   -3.9660    3.2677    6.4903 H   0  0  0  0  0  0  0  0  0  0  0  0
   -5.0793    3.4557    5.1697 H   0  0  0  0  0  0  0  0  0  0  0  0
   -4.1772    4.9657    5.9938 H   0  0  0  0  0  0  0  0  0  0  0  0
   -5.0302   -0.0428    0.3886 H   0  0  0  0  0  0  0  0  0  0  0  0
   -4.6798   -0.6797    1.9967 H   0  0  0  0  0  0  0  0  0  0  0  0
    4.2216   -0.3761    1.1649 H   0  0  0  0  0  0  0  0  0  0  0  0
   -5.8190    1.5187    2.1281 H   0  0  0  0  0  0  0  0  0  0  0  0
   -4.1935    1.6170    2.8235 H   0  0  0  0  0  0  0  0  0  0  0  0
   -4.5130    2.2779    1.1970 H   0  0  0  0  0  0  0  0  0  0  0  0
    3.3003   -3.3026    3.5356 H   0  0  0  0  0  0  0  0  0  0  0  0
    6.1338    0.6691    3.0770 H   0  0  0  0  0  0  0  0  0  0  0  0
    0.6753    5.4723    9.0359 H   0  0  0  0  0  0  0  0  0  0  0  0
    2.0771    5.3146    7.9828 H   0  0  0  0  0  0  0  0  0  0  0  0
    3.2284   -4.8320    5.5330 H   0  0  0  0  0  0  0  0  0  0  0  0
    1.8938   -3.8789    6.2025 H   0  0  0  0  0  0  0  0  0  0  0  0
    1.6781   -4.7785    4.6935 H   0  0  0  0  0  0  0  0  0  0  0  0
    4.7643   -2.7808    5.5183 H   0  0  0  0  0  0  0  0  0  0  0  0
    3.4712   -1.8067    6.2106 H   0  0  0  0  0  0  0  0  0  0  0  0
    6.3376   -0.7137   -1.2104 H   0  0  0  0  0  0  0  0  0  0  0  0
    6.1190    0.7386   -2.2135 H   0  0  0  0  0  0  0  0  0  0  0  0
    7.6388   -0.1663   -2.2817 H   0  0  0  0  0  0  0  0  0  0  0  0
    5.4145   -1.9401    3.0840 H   0  0  0  0  0  0  0  0  0  0  0  0
    0.0072    1.8491   10.7575 H   0  0  0  0  0  0  0  0  0  0  0  0
    4.1151   -0.0710    4.8831 H   0  0  0  0  0  0  0  0  0  0  0  0
    3.6465    3.1035    8.7254 H   0  0  0  0  0  0  0  0  0  0  0  0
    4.3344    4.6687    9.1256 H   0  0  0  0  0  0  0  0  0  0  0  0
    4.2592    3.4015   10.3534 H   0  0  0  0  0  0  0  0  0  0  0  0
    2.1903    2.9473   11.6100 H   0  0  0  0  0  0  0  0  0  0  0  0
    2.3603    1.2438    8.9438 H   0  0  0  0  0  0  0  0  0  0  0  0
    0.9451    0.2497    9.2812 H   0  0  0  0  0  0  0  0  0  0  0  0
    2.1032    0.6035   10.5742 H   0  0  0  0  0  0  0  0  0  0  0  0
    3.7909    7.3861   13.2239 H   0  0  0  0  0  0  0  0  0  0  0  0
    2.1187    7.5100   12.6435 H   0  0  0  0  0  0  0  0  0  0  0  0
    3.4651    7.9552   11.5737 H   0  0  0  0  0  0  0  0  0  0  0  0
   -1.1778    5.6655   12.6332 H   0  0  0  0  0  0  0  0  0  0  0  0
   -1.1214    4.8932   14.2211 H   0  0  0  0  0  0  0  0  0  0  0  0
   -3.4173    4.7850   13.2069 H   0  0  0  0  0  0  0  0  0  0  0  0
   -2.7625    3.9242   11.8017 H   0  0  0  0  0  0  0  0  0  0  0  0
   -2.7578    3.1504   13.4035 H   0  0  0  0  0  0  0  0  0  0  0  0
  1  2  1  0  0  0  0 
  3  1  1  0  0  0  0 
  4  2  1  0  0  0  0 
  5  2  1  0  0  0  0 
  6  3  1  0  0  0  0 
  3  7  1  0  0  0  0 
  3 65  1  0  0  0  0 
  4  8  1  0  0  0  0 
  9  4  1  0  0  0  0 
  5 10  1  0  0  0  0 
  5 11  1  0  0  0  0 
  6 12  1  0  0  0  0 
 13  6  1  0  0  0  0 
 14  7  1  0  0  0  0 
  8 15  1  0  0  0  0 
  9 16  1  0  0  0  0 
  9 17  1  0  0  0  0 
  9 64  1  0  0  0  0 
 10 18  1  0  0  0  0 
 19 11  1  0  0  0  0 
 13 20  1  0  0  0  0 
 21 13  1  0  0  0  0 
 21 14  1  0  0  0  0 
 14 22  1  0  0  0  0 
 16 23  1  0  0  0  0 
 17 24  1  0  0  0  0 
 18 25  2  0  0  0  0 
 19 26  1  0  0  0  0 
 27 19  1  0  0  0  0 
 20 28  1  0  0  0  0 
 20 29  1  0  0  0  0 
 21 30  1  0  0  0  0 
 23 31  1  0  0  0  0 
 23 32  2  0  0  0  0 
 24 33  2  0  0  0  0 
 24 34  1  0  0  0  0 
 27 35  1  0  0  0  0 
 27 36  1  0  0  0  0 
 37 30  1  0  0  0  0 
 31 38  1  0  0  0  0 
 39 34  1  0  0  0  0 
 35 40  1  0  0  0  0 
 36 41  2  0  0  0  0 
 37 42  1  0  0  0  0 
 37 43  1  0  0  0  0 
 37 66  1  0  0  0  0 
 39 44  1  0  0  0  0 
 39 45  1  0  0  0  0 
 40 46  1  0  0  0  0 
 40 47  2  0  0  0  0 
 41 48  1  0  0  0  0 
 49 42  1  0  0  0  0 
 50 43  1  0  0  0  0 
 45 51  1  0  0  0  0 
 48 51  2  0  0  0  0 
 49 52  1  0  0  0  0 
 49 53  1  0  0  0  0 
 54 49  1  0  0  0  0 
 54 50  1  0  0  0  0 
 50 55  1  0  0  0  0 
 52 56  1  0  0  0  0 
 54 57  1  0  0  0  0 
 56 58  1  0  0  0  0 
 56 59  2  0  0  0  0 
 57 60  1  0  0  0  0 
 60 61  1  0  0  0  0 
 60 62  2  0  0  0  0 
 61 63  1  0  0  0  0 
  2 67  1  0  0  0  0 
  4 68  1  0  0  0  0 
  5 69  1  0  0  0  0 
  6 70  1  0  0  0  0 
 10 71  1  0  0  0  0 
 10 72  1  0  0  0  0 
 11 73  1  0  0  0  0 
 11 74  1  0  0  0  0 
 12 75  1  0  0  0  0 
 13 76  1  0  0  0  0 
 14 77  1  0  0  0  0 
 15 78  1  0  0  0  0 
 15 79  1  0  0  0  0 
 15 80  1  0  0  0  0 
 17 81  1  0  0  0  0 
 17 82  1  0  0  0  0 
 18 83  1  0  0  0  0 
 19 84  1  0  0  0  0 
 21 85  1  0  0  0  0 
 22 86  1  0  0  0  0 
 22 87  1  0  0  0  0 
 22 88  1  0  0  0  0 
 26 89  1  0  0  0  0 
 26 90  1  0  0  0  0 
 26 91  1  0  0  0  0 
 27 92  1  0  0  0  0 
 28 93  1  0  0  0  0 
 28 94  1  0  0  0  0 
 28 95  1  0  0  0  0 
 29 96  1  0  0  0  0 
 29 97  1  0  0  0  0 
 29 98  1  0  0  0  0 
 31 99  1  0  0  0  0 
 31100  1  0  0  0  0 
 36101  1  0  0  0  0 
 38102  1  0  0  0  0 
 38103  1  0  0  0  0 
 38104  1  0  0  0  0 
 39105  1  0  0  0  0 
 41106  1  0  0  0  0 
 42107  1  0  0  0  0 
 42108  1  0  0  0  0 
 44109  1  0  0  0  0 
 44110  1  0  0  0  0 
 44111  1  0  0  0  0 
 45112  1  0  0  0  0 
 45113  1  0  0  0  0 
 46114  1  0  0  0  0 
 46115  1  0  0  0  0 
 46116  1  0  0  0  0 
 48117  1  0  0  0  0 
 50118  1  0  0  0  0 
 51119  1  0  0  0  0 
 53120  1  0  0  0  0 
 53121  1  0  0  0  0 
 53122  1  0  0  0  0 
 54123  1  0  0  0  0 
 55124  1  0  0  0  0 
 55125  1  0  0  0  0 
 55126  1  0  0  0  0 
 58127  1  0  0  0  0 
 58128  1  0  0  0  0 
 58129  1  0  0  0  0 
 61130  1  0  0  0  0 
 61131  1  0  0  0  0 
 63132  1  0  0  0  0 
 63133  1  0  0  0  0 
 63134  1  0  0  0  0 
M  END
> <cdk:Title>
miocamycin

> <Conformer>
1

> <SuperDrugID>
SD001614

$$$$
