naloxegol
  CDK     0628171802

 99103  0  0  0  0  0  0  0  0999 V2000
    3.3345   -1.8798    3.1901 O   0  0  0  0  0  0  0  0  0  0  0  0
    2.6520   -3.1208    2.9456 C   0  0  2  0  0  0  0  0  0  0  0  0
    1.3810   -3.2060    3.8639 C   0  0  1  0  0  0  0  0  0  0  0  0
    0.5060   -4.3096    3.4857 C   0  0  0  0  0  0  0  0  0  0  0  0
   -0.1599   -4.7996    4.5989 C   0  0  0  0  0  0  0  0  0  0  0  0
    0.3132   -4.2451    5.7525 O   0  0  0  0  0  0  0  0  0  0  0  0
    1.5885   -3.6739    5.3486 C   0  0  1  0  0  0  0  0  0  0  0  0
    2.7527   -4.7185    5.5698 C   0  0  2  0  0  0  0  0  0  0  0  0
    4.0203   -4.2930    4.7737 C   0  0  2  0  0  0  0  0  0  0  0  0
    3.7103   -4.2249    3.2543 C   0  0  2  0  0  0  0  0  0  0  0  0
    2.3066   -6.0369    5.1596 O   0  0  0  0  0  0  0  0  0  0  0  0
    3.0568   -7.1954    5.5682 C   0  0  2  0  0  0  0  0  0  0  0  0
    2.3780   -8.4480    4.9739 C   0  0  2  0  0  0  0  0  0  0  0  0
    1.0237   -8.5445    5.4584 O   0  0  0  0  0  0  0  0  0  0  0  0
    0.2481   -9.6184    4.8874 C   0  0  2  0  0  0  0  0  0  0  0  0
   -1.0789   -9.7430    5.6655 C   0  0  1  0  0  0  0  0  0  0  0  0
   -1.8662  -10.8390    5.1594 O   0  0  0  0  0  0  0  0  0  0  0  0
   -3.1321  -11.0155    5.8322 C   0  0  2  0  0  0  0  0  0  0  0  0
   -3.8407  -12.2622    5.2650 C   0  0  2  0  0  0  0  0  0  0  0  0
   -5.1046  -12.4668    5.9314 O   0  0  0  0  0  0  0  0  0  0  0  0
   -5.8311  -13.6255    5.4680 C   0  0  1  0  0  0  0  0  0  0  0  0
   -7.1618  -13.7615    6.2366 C   0  0  1  0  0  0  0  0  0  0  0  0
   -7.8803  -14.9232    5.7670 O   0  0  0  0  0  0  0  0  0  0  0  0
   -9.1468  -15.1435    6.4234 C   0  0  2  0  0  0  0  0  0  0  0  0
   -9.8368  -16.4006    5.8507 C   0  0  1  0  0  0  0  0  0  0  0  0
  -11.1053  -16.5978    6.5120 O   0  0  0  0  0  0  0  0  0  0  0  0
  -11.8484  -17.7497    6.0597 C   0  0  2  0  0  0  0  0  0  0  0  0
  -13.1819  -17.8558    6.8325 C   0  0  1  0  0  0  0  0  0  0  0  0
  -13.9075  -19.0181    6.3817 O   0  0  0  0  0  0  0  0  0  0  0  0
  -15.1795  -19.2234    7.0275 C   0  0  2  0  0  0  0  0  0  0  0  0
  -15.8231  -20.5425    6.4731 C   0  0  2  0  0  0  0  0  0  0  0  0
  -14.9605  -21.7804    6.6492 O   0  0  0  0  0  0  0  0  0  0  0  0
  -15.5533  -22.9512    6.0730 C   0  0  0  0  0  0  0  0  0  0  0  0
    1.7907   -2.8036    5.9779 H   0  0  0  0  0  0  0  0  0  0  0  0
   -1.1351   -5.7977    4.4446 C   0  0  0  0  0  0  0  0  0  0  0  0
   -1.8159   -6.2561    5.5201 O   0  0  0  0  0  0  0  0  0  0  0  0
   -1.3746   -6.3184    3.1507 C   0  0  0  0  0  0  0  0  0  0  0  0
   -0.6216   -5.8645    2.0409 C   0  0  0  0  0  0  0  0  0  0  0  0
    0.3566   -4.8540    2.2005 C   0  0  0  0  0  0  0  0  0  0  0  0
    1.2601   -4.3858    1.1119 C   0  0  1  0  0  0  0  0  0  0  0  0
    2.1158   -3.1096    1.4657 C   0  0  1  0  0  0  0  0  0  0  0  0
    1.3520   -1.8224    1.2803 N   0  0  0  0  0  0  0  0  0  0  0  0
    0.2126   -1.5540    2.2188 C   0  0  2  0  0  0  0  0  0  0  0  0
    0.5489   -1.8794    3.7073 C   0  0  1  0  0  0  0  0  0  0  0  0
    1.2711   -1.2136   -0.0846 C   0  0  2  0  0  0  0  0  0  0  0  0
    0.1790   -1.6917   -0.9175 C   0  0  0  0  0  0  0  0  0  0  0  0
   -0.9738   -1.0310   -1.0853 C   0  0  0  0  0  0  0  0  0  0  0  0
    2.9919   -3.0982    0.8077 H   0  0  0  0  0  0  0  0  0  0  0  0
    4.0603   -1.8407    2.5317 H   0  0  0  0  0  0  0  0  0  0  0  0
    2.9886   -4.7405    6.6394 H   0  0  0  0  0  0  0  0  0  0  0  0
    4.8371   -4.9930    4.9501 H   0  0  0  0  0  0  0  0  0  0  0  0
    4.3695   -3.3207    5.1344 H   0  0  0  0  0  0  0  0  0  0  0  0
    4.6335   -4.0157    2.7080 H   0  0  0  0  0  0  0  0  0  0  0  0
    3.3537   -5.2006    2.9196 H   0  0  0  0  0  0  0  0  0  0  0  0
    3.0793   -7.2727    6.6576 H   0  0  0  0  0  0  0  0  0  0  0  0
    4.0820   -7.1540    5.1971 H   0  0  0  0  0  0  0  0  0  0  0  0
    2.9445   -9.3333    5.2756 H   0  0  0  0  0  0  0  0  0  0  0  0
    2.3951   -8.3743    3.8826 H   0  0  0  0  0  0  0  0  0  0  0  0
    0.7847  -10.5693    4.9567 H   0  0  0  0  0  0  0  0  0  0  0  0
    0.0338   -9.4070    3.8354 H   0  0  0  0  0  0  0  0  0  0  0  0
   -0.8463   -9.9041    6.7222 H   0  0  0  0  0  0  0  0  0  0  0  0
   -1.6338   -8.8095    5.5644 H   0  0  0  0  0  0  0  0  0  0  0  0
   -3.7690  -10.1393    5.6773 H   0  0  0  0  0  0  0  0  0  0  0  0
   -2.9803  -11.1565    6.9067 H   0  0  0  0  0  0  0  0  0  0  0  0
   -3.1898  -13.1290    5.4153 H   0  0  0  0  0  0  0  0  0  0  0  0
   -3.9976  -12.1181    4.1919 H   0  0  0  0  0  0  0  0  0  0  0  0
   -6.0504  -13.5314    4.4004 H   0  0  0  0  0  0  0  0  0  0  0  0
   -5.2391  -14.5313    5.6290 H   0  0  0  0  0  0  0  0  0  0  0  0
   -6.9431  -13.8559    7.3045 H   0  0  0  0  0  0  0  0  0  0  0  0
   -7.7552  -12.8566    6.0755 H   0  0  0  0  0  0  0  0  0  0  0  0
   -9.8049  -14.2832    6.2702 H   0  0  0  0  0  0  0  0  0  0  0  0
   -8.9944  -15.2861    7.4973 H   0  0  0  0  0  0  0  0  0  0  0  0
   -9.9864  -16.2638    4.7756 H   0  0  0  0  0  0  0  0  0  0  0  0
   -9.1863  -17.2657    6.0100 H   0  0  0  0  0  0  0  0  0  0  0  0
  -11.2699  -18.6629    6.2290 H   0  0  0  0  0  0  0  0  0  0  0  0
  -12.0676  -17.6629    4.9911 H   0  0  0  0  0  0  0  0  0  0  0  0
  -12.9668  -17.9358    7.9023 H   0  0  0  0  0  0  0  0  0  0  0  0
  -13.7679  -16.9490    6.6551 H   0  0  0  0  0  0  0  0  0  0  0  0
  -15.8492  -18.3801    6.8333 H   0  0  0  0  0  0  0  0  0  0  0  0
  -15.0492  -19.3318    8.1074 H   0  0  0  0  0  0  0  0  0  0  0  0
  -16.0724  -20.3201    5.4068 H   0  0  0  0  0  0  0  0  0  0  0  0
  -16.8158  -20.6185    6.9817 H   0  0  0  0  0  0  0  0  0  0  0  0
  -14.8866  -23.7952    6.2515 H   0  0  0  0  0  0  0  0  0  0  0  0
  -16.5187  -23.1708    6.5338 H   0  0  0  0  0  0  0  0  0  0  0  0
  -15.6793  -22.8343    4.9946 H   0  0  0  0  0  0  0  0  0  0  0  0
   -1.3285   -5.9201    6.3006 H   0  0  0  0  0  0  0  0  0  0  0  0
   -2.0859   -7.0415    3.0161 H   0  0  0  0  0  0  0  0  0  0  0  0
   -0.7858   -6.2734    1.1180 H   0  0  0  0  0  0  0  0  0  0  0  0
    1.9448   -5.2070    0.8829 H   0  0  0  0  0  0  0  0  0  0  0  0
    0.6711   -4.2033    0.2137 H   0  0  0  0  0  0  0  0  0  0  0  0
   -0.6529   -2.1423    1.9056 H   0  0  0  0  0  0  0  0  0  0  0  0
   -0.0747   -0.5011    2.1624 H   0  0  0  0  0  0  0  0  0  0  0  0
   -0.3845   -1.9300    4.2774 H   0  0  0  0  0  0  0  0  0  0  0  0
    1.1220   -1.0490    4.1283 H   0  0  0  0  0  0  0  0  0  0  0  0
    2.2043   -1.3952   -0.6253 H   0  0  0  0  0  0  0  0  0  0  0  0
    1.2057   -0.1280    0.0397 H   0  0  0  0  0  0  0  0  0  0  0  0
    0.2947   -2.5544   -1.3991 H   0  0  0  0  0  0  0  0  0  0  0  0
   -1.6810   -1.3991   -1.6754 H   0  0  0  0  0  0  0  0  0  0  0  0
   -1.1466   -0.1654   -0.6348 H   0  0  0  0  0  0  0  0  0  0  0  0
  2  1  1  0  0  0  0 
  2  3  1  0  0  0  0 
  2 10  1  0  0  0  0 
 41  2  1  0  0  0  0 
  3  4  1  0  0  0  0 
  3  7  1  0  0  0  0 
  3 44  1  0  0  0  0 
  4  5  2  0  0  0  0 
  4 39  1  0  0  0  0 
  5  6  1  0  0  0  0 
  5 35  1  0  0  0  0 
  7  6  1  0  0  0  0 
  7  8  1  0  0  0  0 
  7 34  1  0  0  0  0 
  8 11  1  0  0  0  0 
  8  9  1  0  0  0  0 
 10  9  1  0  0  0  0 
 11 12  1  0  0  0  0 
 12 13  1  0  0  0  0 
 13 14  1  0  0  0  0 
 14 15  1  0  0  0  0 
 15 16  1  0  0  0  0 
 16 17  1  0  0  0  0 
 17 18  1  0  0  0  0 
 18 19  1  0  0  0  0 
 19 20  1  0  0  0  0 
 20 21  1  0  0  0  0 
 21 22  1  0  0  0  0 
 22 23  1  0  0  0  0 
 23 24  1  0  0  0  0 
 24 25  1  0  0  0  0 
 25 26  1  0  0  0  0 
 26 27  1  0  0  0  0 
 27 28  1  0  0  0  0 
 28 29  1  0  0  0  0 
 29 30  1  0  0  0  0 
 30 31  1  0  0  0  0 
 31 32  1  0  0  0  0 
 32 33  1  0  0  0  0 
 35 36  1  0  0  0  0 
 35 37  2  0  0  0  0 
 38 37  1  0  0  0  0 
 39 38  2  0  0  0  0 
 40 39  1  0  0  0  0 
 41 40  1  0  0  0  0 
 41 42  1  0  0  0  0 
 41 48  1  0  0  0  0 
 42 43  1  0  0  0  0 
 42 45  1  0  0  0  0 
 44 43  1  0  0  0  0 
 45 46  1  0  0  0  0 
 46 47  2  0  0  0  0 
  1 49  1  0  0  0  0 
  8 50  1  0  0  0  0 
  9 51  1  0  0  0  0 
  9 52  1  0  0  0  0 
 10 53  1  0  0  0  0 
 10 54  1  0  0  0  0 
 12 55  1  0  0  0  0 
 12 56  1  0  0  0  0 
 13 57  1  0  0  0  0 
 13 58  1  0  0  0  0 
 15 59  1  0  0  0  0 
 15 60  1  0  0  0  0 
 16 61  1  0  0  0  0 
 16 62  1  0  0  0  0 
 18 63  1  0  0  0  0 
 18 64  1  0  0  0  0 
 19 65  1  0  0  0  0 
 19 66  1  0  0  0  0 
 21 67  1  0  0  0  0 
 21 68  1  0  0  0  0 
 22 69  1  0  0  0  0 
 22 70  1  0  0  0  0 
 24 71  1  0  0  0  0 
 24 72  1  0  0  0  0 
 25 73  1  0  0  0  0 
 25 74  1  0  0  0  0 
 27 75  1  0  0  0  0 
 27 76  1  0  0  0  0 
 28 77  1  0  0  0  0 
 28 78  1  0  0  0  0 
 30 79  1  0  0  0  0 
 30 80  1  0  0  0  0 
 31 81  1  0  0  0  0 
 31 82  1  0  0  0  0 
 33 83  1  0  0  0  0 
 33 84  1  0  0  0  0 
 33 85  1  0  0  0  0 
 36 86  1  0  0  0  0 
 37 87  1  0  0  0  0 
 38 88  1  0  0  0  0 
 40 89  1  0  0  0  0 
 40 90  1  0  0  0  0 
 43 91  1  0  0  0  0 
 43 92  1  0  0  0  0 
 44 93  1  0  0  0  0 
 44 94  1  0  0  0  0 
 45 95  1  0  0  0  0 
 45 96  1  0  0  0  0 
 46 97  1  0  0  0  0 
 47 98  1  0  0  0  0 
 47 99  1  0  0  0  0 
M  END
> <cdk:Title>
naloxegol

> <Conformer>
1

> <SuperDrugID>
SD003793

$$$$
