dicoumarol
  CDK     0628171802

 37 40  0  0  0  0  0  0  0  0999 V2000
    4.3777    2.4104    5.0112 C   0  0  0  0  0  0  0  0  0  0  0  0
    5.6128    1.7564    4.8659 C   0  0  0  0  0  0  0  0  0  0  0  0
    5.8748    1.0103    3.7031 C   0  0  0  0  0  0  0  0  0  0  0  0
    4.9077    0.9233    2.6813 C   0  0  0  0  0  0  0  0  0  0  0  0
    3.6557    1.5730    2.8129 C   0  0  0  0  0  0  0  0  0  0  0  0
    3.4054    2.3107    3.9986 C   0  0  0  0  0  0  0  0  0  0  0  0
    2.2036    2.9245    4.1698 O   0  0  0  0  0  0  0  0  0  0  0  0
    2.6330    1.5260    1.8306 C   0  0  0  0  0  0  0  0  0  0  0  0
    1.4017    2.2110    2.0126 C   0  0  0  0  0  0  0  0  0  0  0  0
    1.2115    2.8900    3.2395 C   0  0  0  0  0  0  0  0  0  0  0  0
    0.3393    2.2580    0.9596 C   0  0  1  0  0  0  0  0  0  0  0  0
    2.8283    0.8123    0.6903 O   0  0  0  0  0  0  0  0  0  0  0  0
    0.2437    3.6228    0.3496 C   0  0  0  0  0  0  0  0  0  0  0  0
   -0.9176    5.7115    0.0163 O   0  0  0  0  0  0  0  0  0  0  0  0
   -0.8763    4.4625    0.5624 C   0  0  0  0  0  0  0  0  0  0  0  0
    1.2904    4.1380   -0.4605 C   0  0  0  0  0  0  0  0  0  0  0  0
    1.2356    5.4430   -1.0064 C   0  0  0  0  0  0  0  0  0  0  0  0
    0.0817    6.2268   -0.7527 C   0  0  0  0  0  0  0  0  0  0  0  0
   -0.0380    7.5207   -1.2939 C   0  0  0  0  0  0  0  0  0  0  0  0
    2.2705    5.9912   -1.8026 C   0  0  0  0  0  0  0  0  0  0  0  0
    2.1473    7.2842   -2.3446 C   0  0  0  0  0  0  0  0  0  0  0  0
    0.9929    8.0466   -2.0927 C   0  0  0  0  0  0  0  0  0  0  0  0
    2.3752    3.3695   -0.7436 O   0  0  0  0  0  0  0  0  0  0  0  0
    0.1460    3.4807    3.5260 O   0  0  0  0  0  0  0  0  0  0  0  0
   -1.8595    4.1153    1.2542 O   0  0  0  0  0  0  0  0  0  0  0  0
    4.1870    2.9545    5.8551 H   0  0  0  0  0  0  0  0  0  0  0  0
    6.3163    1.8194    5.6071 H   0  0  0  0  0  0  0  0  0  0  0  0
    6.7707    0.5276    3.6032 H   0  0  0  0  0  0  0  0  0  0  0  0
    5.1314    0.3790    1.8453 H   0  0  0  0  0  0  0  0  0  0  0  0
    0.5195    1.5380    0.1592 H   0  0  0  0  0  0  0  0  0  0  0  0
   -0.6049    1.9468    1.4108 H   0  0  0  0  0  0  0  0  0  0  0  0
    3.7442    1.0116    0.4102 H   0  0  0  0  0  0  0  0  0  0  0  0
   -0.8748    8.0772   -1.1068 H   0  0  0  0  0  0  0  0  0  0  0  0
    3.1211    5.4595   -2.0008 H   0  0  0  0  0  0  0  0  0  0  0  0
    2.8949    7.6705   -2.9255 H   0  0  0  0  0  0  0  0  0  0  0  0
    0.9009    8.9831   -2.4902 H   0  0  0  0  0  0  0  0  0  0  0  0
    2.0278    2.4649   -0.8795 H   0  0  0  0  0  0  0  0  0  0  0  0
  1  2  1  0  0  0  0 
  2  3  2  0  0  0  0 
  3  4  1  0  0  0  0 
  4  5  2  0  0  0  0 
  5  6  1  0  0  0  0 
  1  6  2  0  0  0  0 
  8  9  2  0  0  0  0 
  9 10  1  0  0  0  0 
  7 10  1  0  0  0  0 
  5  8  1  0  0  0  0 
  7  6  1  0  0  0  0 
  9 11  1  0  0  0  0 
  8 12  1  0  0  0  0 
 11 13  1  0  0  0  0 
 14 15  1  0  0  0  0 
 16 17  1  0  0  0  0 
 14 18  1  0  0  0  0 
 15 13  1  0  0  0  0 
 13 16  2  0  0  0  0 
 20 21  1  0  0  0  0 
 21 22  2  0  0  0  0 
 19 22  1  0  0  0  0 
 17 20  2  0  0  0  0 
 19 18  2  0  0  0  0 
 18 17  1  0  0  0  0 
 16 23  1  0  0  0  0 
 10 24  2  0  0  0  0 
 15 25  2  0  0  0  0 
  1 26  1  0  0  0  0 
  2 27  1  0  0  0  0 
  3 28  1  0  0  0  0 
  4 29  1  0  0  0  0 
 11 30  1  0  0  0  0 
 11 31  1  0  0  0  0 
 12 32  1  0  0  0  0 
 19 33  1  0  0  0  0 
 20 34  1  0  0  0  0 
 21 35  1  0  0  0  0 
 22 36  1  0  0  0  0 
 23 37  1  0  0  0  0 
M  END
> <cdk:Title>
dicoumarol

> <Conformer>
1

> <SuperDrugID>
SD000770

$$$$
