sulfisomidine
  CDK     0628171801

 33 34  0  0  0  0  0  0  0  0999 V2000
   -1.7083    1.4057   -3.3998 S   0  0  1  0  0  0  0  0  0  0  0  0
   -2.5760    2.0205   -2.0489 N   0  0  0  0  0  0  0  0  0  0  0  0
   -2.7467    1.1789   -4.6021 O   0  0  0  0  0  0  0  0  0  0  0  0
   -0.6731    2.5473   -3.8523 O   0  0  0  0  0  0  0  0  0  0  0  0
   -0.8140   -0.0807   -3.0296 C   0  0  0  0  0  0  0  0  0  0  0  0
   -3.0501    1.3002   -1.0000 C   0  0  0  0  0  0  0  0  0  0  0  0
   -1.0984   -1.2875   -3.7042 C   0  0  0  0  0  0  0  0  0  0  0  0
    0.1935   -0.0684   -2.0425 C   0  0  0  0  0  0  0  0  0  0  0  0
   -3.6986    1.9838    0.0469 C   0  0  0  0  0  0  0  0  0  0  0  0
   -2.9198   -0.0504   -0.9175 N   0  0  0  0  0  0  0  0  0  0  0  0
   -0.3871   -2.4629   -3.3959 C   0  0  0  0  0  0  0  0  0  0  0  0
    0.9030   -1.2434   -1.7311 C   0  0  0  0  0  0  0  0  0  0  0  0
   -4.1729    1.2417    1.1489 C   0  0  0  0  0  0  0  0  0  0  0  0
   -3.3775   -0.7642    0.1440 C   0  0  0  0  0  0  0  0  0  0  0  0
    0.6164   -2.4470   -2.4066 C   0  0  0  0  0  0  0  0  0  0  0  0
   -4.8567    1.8703    2.2958 C   0  0  0  0  0  0  0  0  0  0  0  0
   -3.9925   -0.1060    1.1604 N   0  0  0  0  0  0  0  0  0  0  0  0
   -3.2152   -2.2219    0.2071 C   0  0  0  0  0  0  0  0  0  0  0  0
    1.2956   -3.5732   -2.1065 N   0  0  0  0  0  0  0  0  0  0  0  0
   -2.7491    2.9765   -2.0441 H   0  0  0  0  0  0  0  0  0  0  0  0
   -1.8246   -1.3246   -4.4225 H   0  0  0  0  0  0  0  0  0  0  0  0
    0.4150    0.7946   -1.5395 H   0  0  0  0  0  0  0  0  0  0  0  0
   -3.8168    2.9997    0.0094 H   0  0  0  0  0  0  0  0  0  0  0  0
   -0.6058   -3.3284   -3.8967 H   0  0  0  0  0  0  0  0  0  0  0  0
    1.6287   -1.2163   -1.0105 H   0  0  0  0  0  0  0  0  0  0  0  0
   -5.0787    2.9233    2.1126 H   0  0  0  0  0  0  0  0  0  0  0  0
   -5.7975    1.3512    2.4885 H   0  0  0  0  0  0  0  0  0  0  0  0
   -4.2233    1.7980    3.1821 H   0  0  0  0  0  0  0  0  0  0  0  0
   -2.6796   -2.4887    1.1196 H   0  0  0  0  0  0  0  0  0  0  0  0
   -2.6519   -2.5906   -0.6516 H   0  0  0  0  0  0  0  0  0  0  0  0
   -4.1959   -2.7008    0.2172 H   0  0  0  0  0  0  0  0  0  0  0  0
    1.9853   -3.5586   -1.4232 H   0  0  0  0  0  0  0  0  0  0  0  0
    1.0955   -4.4020   -2.5715 H   0  0  0  0  0  0  0  0  0  0  0  0
  1  2  1  0  0  0  0 
  1  3  2  0  0  0  0 
  1  4  2  0  0  0  0 
  1  5  1  0  0  0  0 
  2  6  1  0  0  0  0 
  5  7  2  0  0  0  0 
  5  8  1  0  0  0  0 
  6  9  2  0  0  0  0 
  6 10  1  0  0  0  0 
  7 11  1  0  0  0  0 
  8 12  2  0  0  0  0 
  9 13  1  0  0  0  0 
 10 14  2  0  0  0  0 
 11 15  2  0  0  0  0 
 12 15  1  0  0  0  0 
 13 16  1  0  0  0  0 
 13 17  2  0  0  0  0 
 14 17  1  0  0  0  0 
 14 18  1  0  0  0  0 
 15 19  1  0  0  0  0 
  2 20  1  0  0  0  0 
  7 21  1  0  0  0  0 
  8 22  1  0  0  0  0 
  9 23  1  0  0  0  0 
 11 24  1  0  0  0  0 
 12 25  1  0  0  0  0 
 16 26  1  0  0  0  0 
 16 27  1  0  0  0  0 
 16 28  1  0  0  0  0 
 18 29  1  0  0  0  0 
 18 30  1  0  0  0  0 
 18 31  1  0  0  0  0 
 19 32  1  0  0  0  0 
 19 33  1  0  0  0  0 
M  END
> <cdk:Title>
sulfisomidine

> <Conformer>
1

> <SuperDrugID>
SD002272

$$$$
