nordefrin
  CDK     0628171801

 26 26  0  0  0  0  0  0  0  0999 V2000
   -0.9454   -1.9576    1.8522 C   0  0  0  0  0  0  0  0  0  0  0  0
   -0.9196   -2.3187    3.2150 C   0  0  0  0  0  0  0  0  0  0  0  0
    0.3153   -2.5015    3.8692 C   0  0  0  0  0  0  0  0  0  0  0  0
    1.5139   -2.3381    3.1519 C   0  0  0  0  0  0  0  0  0  0  0  0
    1.4851   -1.9756    1.7930 C   0  0  0  0  0  0  0  0  0  0  0  0
    0.2550   -1.7747    1.1207 C   0  0  0  0  0  0  0  0  0  0  0  0
    0.3797   -2.8332    5.1854 O   0  0  0  0  0  0  0  0  0  0  0  0
   -2.0772   -2.4893    3.9012 O   0  0  0  0  0  0  0  0  0  0  0  0
    0.2248   -1.4155   -0.3291 C   0  0  1  0  0  0  0  0  0  0  0  0
   -0.3823   -2.5121   -1.0124 O   0  0  0  0  0  0  0  0  0  0  0  0
   -0.5217   -0.0827   -0.6627 C   0  0  1  0  0  0  0  0  0  0  0  0
    0.1467    1.1742   -0.0510 C   0  0  0  0  0  0  0  0  0  0  0  0
   -0.5998    0.0963   -2.1214 N   0  0  2  0  0  0  0  0  0  0  0  0
   -1.8496   -1.8327    1.3928 H   0  0  0  0  0  0  0  0  0  0  0  0
    2.4122   -2.4819    3.6186 H   0  0  0  0  0  0  0  0  0  0  0  0
    2.3753   -1.8702    1.3008 H   0  0  0  0  0  0  0  0  0  0  0  0
   -0.5390   -2.7654    5.5241 H   0  0  0  0  0  0  0  0  0  0  0  0
   -2.7973   -2.2668    3.2770 H   0  0  0  0  0  0  0  0  0  0  0  0
    1.2439   -1.3380   -0.7246 H   0  0  0  0  0  0  0  0  0  0  0  0
   -0.2992   -2.2994   -1.9654 H   0  0  0  0  0  0  0  0  0  0  0  0
   -1.5510   -0.1342   -0.2997 H   0  0  0  0  0  0  0  0  0  0  0  0
    1.1736    1.2797   -0.4098 H   0  0  0  0  0  0  0  0  0  0  0  0
   -0.4160    2.0683   -0.3273 H   0  0  0  0  0  0  0  0  0  0  0  0
    0.1585    1.1125    1.0376 H   0  0  0  0  0  0  0  0  0  0  0  0
   -1.1499    0.9401   -2.2936 H   0  0  0  0  0  0  0  0  0  0  0  0
   -1.1439   -0.6855   -2.4923 H   0  0  0  0  0  0  0  0  0  0  0  0
  1  2  2  0  0  0  0 
  1  6  1  0  0  0  0 
  2  3  1  0  0  0  0 
  3  4  2  0  0  0  0 
  4  5  1  0  0  0  0 
  5  6  2  0  0  0  0 
  3  7  1  0  0  0  0 
  2  8  1  0  0  0  0 
  9  6  1  0  0  0  0 
  9 10  1  0  0  0  0 
 11  9  1  0  0  0  0 
 11 12  1  0  0  0  0 
 11 13  1  0  0  0  0 
  1 14  1  0  0  0  0 
  4 15  1  0  0  0  0 
  5 16  1  0  0  0  0 
  7 17  1  0  0  0  0 
  8 18  1  0  0  0  0 
  9 19  1  0  0  0  0 
 10 20  1  0  0  0  0 
 11 21  1  0  0  0  0 
 12 22  1  0  0  0  0 
 12 23  1  0  0  0  0 
 12 24  1  0  0  0  0 
 13 25  1  0  0  0  0 
 13 26  1  0  0  0  0 
M  END
> <cdk:Title>
nordefrin

> <Conformer>
1

> <SuperDrugID>
SD002771

$$$$
