estramustine phosphate
  CDK     0628171801

 65 68  0  0  0  0  0  0  0  0999 V2000
   -8.1588   -4.2095    2.5091 C   0  0  0  0  0  0  0  0  0  0  0  0
   -8.3714   -4.0665    4.0710 C   0  0  2  0  0  0  0  0  0  0  0  0
   -9.8492   -3.8450    4.5380 C   0  0  2  0  0  0  0  0  0  0  0  0
   -7.7256   -2.7308    4.5663 C   0  0  1  0  0  0  0  0  0  0  0  0
   -7.8497   -5.3596    4.7823 C   0  0  2  0  0  0  0  0  0  0  0  0
  -10.7713   -5.0335    4.1218 C   0  0  1  0  0  0  0  0  0  0  0  0
  -10.1597   -2.4106    4.0618 C   0  0  1  0  0  0  0  0  0  0  0  0
   -6.4482   -2.4960    3.9252 O   0  0  0  0  0  0  0  0  0  0  0  0
   -8.8105   -1.6601    4.2353 C   0  0  2  0  0  0  0  0  0  0  0  0
   -8.7572   -6.5978    4.5007 C   0  0  2  0  0  0  0  0  0  0  0  0
  -10.2777   -6.3575    4.8248 C   0  0  2  0  0  0  0  0  0  0  0  0
  -12.2839   -4.8389    4.4054 C   0  0  1  0  0  0  0  0  0  0  0  0
   -5.4667   -1.4448    4.6157 P   0  0  2  0  0  0  0  0  0  0  0  0
  -11.1656   -7.5289    4.4908 C   0  0  0  0  0  0  0  0  0  0  0  0
  -13.0727   -5.9995    3.7361 C   0  0  2  0  0  0  0  0  0  0  0  0
   -6.1071   -0.1397    4.8047 O   0  0  0  0  0  0  0  0  0  0  0  0
   -4.1964   -1.2927    3.6807 O   0  0  0  0  0  0  0  0  0  0  0  0
   -4.9775   -2.0352    6.0007 O   0  0  0  0  0  0  0  0  0  0  0  0
  -12.4335   -7.3453    3.8629 C   0  0  0  0  0  0  0  0  0  0  0  0
  -10.7663   -8.8519    4.8004 C   0  0  0  0  0  0  0  0  0  0  0  0
  -13.1075   -8.4664    3.3212 C   0  0  0  0  0  0  0  0  0  0  0  0
  -11.4617   -9.9588    4.2888 C   0  0  0  0  0  0  0  0  0  0  0  0
  -12.5863   -9.7690    3.4708 C   0  0  0  0  0  0  0  0  0  0  0  0
  -13.0831  -10.8842    2.8534 O   0  0  0  0  0  0  0  0  0  0  0  0
  -13.6721  -11.0341    1.6221 C   0  0  0  0  0  0  0  0  0  0  0  0
  -14.0951  -12.2833    1.2022 N   0  0  0  0  0  0  0  0  0  0  0  0
  -13.7649  -10.0368    0.8643 O   0  0  0  0  0  0  0  0  0  0  0  0
  -14.6184  -12.4743   -0.1381 C   0  0  1  0  0  0  0  0  0  0  0  0
  -14.0068  -13.4150    2.1055 C   0  0  2  0  0  0  0  0  0  0  0  0
  -13.3996  -12.5687   -1.2249 C   0  0  1  0  0  0  0  0  0  0  0  0
  -15.1089  -13.3567    3.1929 C   0  0  2  0  0  0  0  0  0  0  0  0
  -13.8954  -12.7911   -2.9250 Cl  0  0  0  0  0  0  0  0  0  0  0  0
  -15.0789  -14.7986    4.2048 Cl  0  0  0  0  0  0  0  0  0  0  0  0
  -10.6939   -5.1493    3.0384 H   0  0  0  0  0  0  0  0  0  0  0  0
  -10.3527   -6.2256    5.9098 H   0  0  0  0  0  0  0  0  0  0  0  0
   -9.8884   -3.8068    5.6373 H   0  0  0  0  0  0  0  0  0  0  0  0
   -8.6938   -5.0552    2.0819 H   0  0  0  0  0  0  0  0  0  0  0  0
   -7.1015   -4.3591    2.2825 H   0  0  0  0  0  0  0  0  0  0  0  0
   -8.4840   -3.3194    1.9706 H   0  0  0  0  0  0  0  0  0  0  0  0
   -7.6112   -2.7878    5.6581 H   0  0  0  0  0  0  0  0  0  0  0  0
   -7.8142   -5.2050    5.8647 H   0  0  0  0  0  0  0  0  0  0  0  0
   -6.8274   -5.5772    4.4622 H   0  0  0  0  0  0  0  0  0  0  0  0
  -10.4686   -2.4167    3.0124 H   0  0  0  0  0  0  0  0  0  0  0  0
  -10.9515   -1.9531    4.6621 H   0  0  0  0  0  0  0  0  0  0  0  0
   -8.5592   -1.1279    3.3140 H   0  0  0  0  0  0  0  0  0  0  0  0
   -8.8780   -0.9264    5.0427 H   0  0  0  0  0  0  0  0  0  0  0  0
   -8.3662   -7.4153    5.1090 H   0  0  0  0  0  0  0  0  0  0  0  0
   -8.6534   -6.9034    3.4568 H   0  0  0  0  0  0  0  0  0  0  0  0
  -12.4688   -4.8316    5.4839 H   0  0  0  0  0  0  0  0  0  0  0  0
  -12.6347   -3.8876    3.9960 H   0  0  0  0  0  0  0  0  0  0  0  0
  -13.1858   -5.7729    2.6715 H   0  0  0  0  0  0  0  0  0  0  0  0
  -14.0733   -6.0295    4.1780 H   0  0  0  0  0  0  0  0  0  0  0  0
   -3.8216   -2.1969    3.6200 H   0  0  0  0  0  0  0  0  0  0  0  0
   -4.5527   -2.8875    5.7673 H   0  0  0  0  0  0  0  0  0  0  0  0
   -9.9455   -9.0324    5.3788 H   0  0  0  0  0  0  0  0  0  0  0  0
  -13.9833   -8.3327    2.8108 H   0  0  0  0  0  0  0  0  0  0  0  0
  -11.1172  -10.9031    4.4787 H   0  0  0  0  0  0  0  0  0  0  0  0
  -15.2183  -13.3846   -0.2133 H   0  0  0  0  0  0  0  0  0  0  0  0
  -15.2763  -11.6480   -0.4194 H   0  0  0  0  0  0  0  0  0  0  0  0
  -13.0220  -13.4379    2.5832 H   0  0  0  0  0  0  0  0  0  0  0  0
  -14.1004  -14.3608    1.5632 H   0  0  0  0  0  0  0  0  0  0  0  0
  -12.7432  -11.6622   -1.2677 H   0  0  0  0  0  0  0  0  0  0  0  0
  -12.6816  -13.4102   -1.0489 H   0  0  0  0  0  0  0  0  0  0  0  0
  -16.0903  -13.2815    2.7190 H   0  0  0  0  0  0  0  0  0  0  0  0
  -14.9649  -12.4863    3.8381 H   0  0  0  0  0  0  0  0  0  0  0  0
  2  1  1  0  0  0  0 
  3  2  1  0  0  0  0 
  2  4  1  0  0  0  0 
  2  5  1  0  0  0  0 
  6  3  1  0  0  0  0 
  3  7  1  0  0  0  0 
  3 36  1  0  0  0  0 
  4  8  1  0  0  0  0 
  4  9  1  0  0  0  0 
  5 10  1  0  0  0  0 
 11  6  1  0  0  0  0 
  6 12  1  0  0  0  0 
  6 34  1  0  0  0  0 
  7  9  1  0  0  0  0 
  8 13  1  0  0  0  0 
 11 10  1  0  0  0  0 
 11 14  1  0  0  0  0 
 11 35  1  0  0  0  0 
 12 15  1  0  0  0  0 
 13 16  2  0  0  0  0 
 13 17  1  0  0  0  0 
 13 18  1  0  0  0  0 
 14 19  2  0  0  0  0 
 14 20  1  0  0  0  0 
 15 19  1  0  0  0  0 
 19 21  1  0  0  0  0 
 20 22  2  0  0  0  0 
 21 23  2  0  0  0  0 
 22 23  1  0  0  0  0 
 23 24  1  0  0  0  0 
 24 25  1  0  0  0  0 
 25 26  1  0  0  0  0 
 25 27  2  0  0  0  0 
 26 28  1  0  0  0  0 
 26 29  1  0  0  0  0 
 28 30  1  0  0  0  0 
 29 31  1  0  0  0  0 
 30 32  1  0  0  0  0 
 31 33  1  0  0  0  0 
  1 37  1  0  0  0  0 
  1 38  1  0  0  0  0 
  1 39  1  0  0  0  0 
  4 40  1  0  0  0  0 
  5 41  1  0  0  0  0 
  5 42  1  0  0  0  0 
  7 43  1  0  0  0  0 
  7 44  1  0  0  0  0 
  9 45  1  0  0  0  0 
  9 46  1  0  0  0  0 
 10 47  1  0  0  0  0 
 10 48  1  0  0  0  0 
 12 49  1  0  0  0  0 
 12 50  1  0  0  0  0 
 15 51  1  0  0  0  0 
 15 52  1  0  0  0  0 
 17 53  1  0  0  0  0 
 18 54  1  0  0  0  0 
 20 55  1  0  0  0  0 
 21 56  1  0  0  0  0 
 22 57  1  0  0  0  0 
 28 58  1  0  0  0  0 
 28 59  1  0  0  0  0 
 29 60  1  0  0  0  0 
 29 61  1  0  0  0  0 
 30 62  1  0  0  0  0 
 30 63  1  0  0  0  0 
 31 64  1  0  0  0  0 
 31 65  1  0  0  0  0 
M  END
> <cdk:Title>
estramustine phosphate

> <Conformer>
1

> <SuperDrugID>
SD000951

$$$$
