butenafine
  CDK     0628171801

 51 53  0  0  0  0  0  0  0  0999 V2000
    6.4527    0.6960   -3.6147 C   0  0  1  0  0  0  0  0  0  0  0  0
    6.0544    1.3458   -2.3193 N   0  0  2  0  0  0  0  0  0  0  0  0
    7.3516    1.5256   -4.4768 C   0  0  0  0  0  0  0  0  0  0  0  0
    5.3766    0.3954   -1.3714 C   0  0  1  0  0  0  0  0  0  0  0  0
    5.2714    2.6042   -2.5043 C   0  0  0  0  0  0  0  0  0  0  0  0
    8.6942    1.8577   -4.1135 C   0  0  0  0  0  0  0  0  0  0  0  0
    6.8429    1.9889   -5.7159 C   0  0  0  0  0  0  0  0  0  0  0  0
    6.3423   -0.5117   -0.6964 C   0  0  0  0  0  0  0  0  0  0  0  0
    9.5030    2.6089   -5.0233 C   0  0  0  0  0  0  0  0  0  0  0  0
    9.2783    1.4720   -2.8777 C   0  0  0  0  0  0  0  0  0  0  0  0
    7.6319    2.7541   -6.5864 C   0  0  0  0  0  0  0  0  0  0  0  0
    6.2929   -1.9098   -0.8701 C   0  0  0  0  0  0  0  0  0  0  0  0
    7.3308    0.0197    0.1559 C   0  0  0  0  0  0  0  0  0  0  0  0
    8.9578    3.0563   -6.2467 C   0  0  0  0  0  0  0  0  0  0  0  0
   10.8452    2.9170   -4.7007 C   0  0  0  0  0  0  0  0  0  0  0  0
   10.6040    1.8072   -2.5547 C   0  0  0  0  0  0  0  0  0  0  0  0
    7.2170   -2.7490   -0.2205 C   0  0  0  0  0  0  0  0  0  0  0  0
    8.2588   -0.8233    0.7923 C   0  0  0  0  0  0  0  0  0  0  0  0
   11.3905    2.5212   -3.4700 C   0  0  0  0  0  0  0  0  0  0  0  0
    8.2366   -2.2354    0.6273 C   0  0  0  0  0  0  0  0  0  0  0  0
    9.2762   -3.1073    1.3192 C   0  0  2  0  0  0  0  0  0  0  0  0
   10.6968   -2.7433    0.7630 C   0  0  0  0  0  0  0  0  0  0  0  0
    9.0803   -4.6514    1.1044 C   0  0  0  0  0  0  0  0  0  0  0  0
    9.2456   -2.8690    2.8689 C   0  0  0  0  0  0  0  0  0  0  0  0
    6.9941   -0.2312   -3.4184 H   0  0  0  0  0  0  0  0  0  0  0  0
    5.5440    0.4032   -4.1529 H   0  0  0  0  0  0  0  0  0  0  0  0
    4.8649    0.9366   -0.5713 H   0  0  0  0  0  0  0  0  0  0  0  0
    4.6033   -0.1695   -1.9022 H   0  0  0  0  0  0  0  0  0  0  0  0
    4.3039    2.3951   -2.9672 H   0  0  0  0  0  0  0  0  0  0  0  0
    5.8170    3.3154   -3.1259 H   0  0  0  0  0  0  0  0  0  0  0  0
    5.1060    3.0883   -1.5396 H   0  0  0  0  0  0  0  0  0  0  0  0
    5.8815    1.7817   -6.0027 H   0  0  0  0  0  0  0  0  0  0  0  0
    8.7521    0.9370   -2.1890 H   0  0  0  0  0  0  0  0  0  0  0  0
    7.2422    3.0888   -7.4732 H   0  0  0  0  0  0  0  0  0  0  0  0
    5.5823   -2.3291   -1.4760 H   0  0  0  0  0  0  0  0  0  0  0  0
    7.3808    1.0294    0.3204 H   0  0  0  0  0  0  0  0  0  0  0  0
    9.5184    3.6114   -6.9008 H   0  0  0  0  0  0  0  0  0  0  0  0
   11.4360    3.4333   -5.3564 H   0  0  0  0  0  0  0  0  0  0  0  0
   10.9963    1.5333   -1.6504 H   0  0  0  0  0  0  0  0  0  0  0  0
    7.1221   -3.7497   -0.3868 H   0  0  0  0  0  0  0  0  0  0  0  0
    8.9612   -0.3808    1.3855 H   0  0  0  0  0  0  0  0  0  0  0  0
   12.3601    2.7536   -3.2399 H   0  0  0  0  0  0  0  0  0  0  0  0
   11.4695   -3.3670    1.2214 H   0  0  0  0  0  0  0  0  0  0  0  0
   10.9569   -1.7028    0.9685 H   0  0  0  0  0  0  0  0  0  0  0  0
   10.7389   -2.8956   -0.3187 H   0  0  0  0  0  0  0  0  0  0  0  0
    9.8629   -5.2220    1.6113 H   0  0  0  0  0  0  0  0  0  0  0  0
    9.1244   -4.9101    0.0440 H   0  0  0  0  0  0  0  0  0  0  0  0
    8.1179   -4.9814    1.5039 H   0  0  0  0  0  0  0  0  0  0  0  0
    9.9800   -3.5014    3.3749 H   0  0  0  0  0  0  0  0  0  0  0  0
    9.4836   -1.8358    3.1264 H   0  0  0  0  0  0  0  0  0  0  0  0
    8.2588   -3.1019    3.2757 H   0  0  0  0  0  0  0  0  0  0  0  0
  1  2  1  0  0  0  0 
  1  3  1  0  0  0  0 
  2  4  1  0  0  0  0 
  2  5  1  0  0  0  0 
  3  6  2  0  0  0  0 
  3  7  1  0  0  0  0 
  4  8  1  0  0  0  0 
  6  9  1  0  0  0  0 
  6 10  1  0  0  0  0 
  7 11  2  0  0  0  0 
  8 12  2  0  0  0  0 
  8 13  1  0  0  0  0 
  9 14  2  0  0  0  0 
  9 15  1  0  0  0  0 
 10 16  2  0  0  0  0 
 11 14  1  0  0  0  0 
 12 17  1  0  0  0  0 
 13 18  2  0  0  0  0 
 15 19  2  0  0  0  0 
 16 19  1  0  0  0  0 
 17 20  2  0  0  0  0 
 18 20  1  0  0  0  0 
 20 21  1  0  0  0  0 
 21 22  1  0  0  0  0 
 21 23  1  0  0  0  0 
 21 24  1  0  0  0  0 
  1 25  1  0  0  0  0 
  1 26  1  0  0  0  0 
  4 27  1  0  0  0  0 
  4 28  1  0  0  0  0 
  5 29  1  0  0  0  0 
  5 30  1  0  0  0  0 
  5 31  1  0  0  0  0 
  7 32  1  0  0  0  0 
 10 33  1  0  0  0  0 
 11 34  1  0  0  0  0 
 12 35  1  0  0  0  0 
 13 36  1  0  0  0  0 
 14 37  1  0  0  0  0 
 15 38  1  0  0  0  0 
 16 39  1  0  0  0  0 
 17 40  1  0  0  0  0 
 18 41  1  0  0  0  0 
 19 42  1  0  0  0  0 
 22 43  1  0  0  0  0 
 22 44  1  0  0  0  0 
 22 45  1  0  0  0  0 
 23 46  1  0  0  0  0 
 23 47  1  0  0  0  0 
 23 48  1  0  0  0  0 
 24 49  1  0  0  0  0 
 24 50  1  0  0  0  0 
 24 51  1  0  0  0  0 
M  END
> <cdk:Title>
butenafine

> <Conformer>
1

> <SuperDrugID>
SD000386

$$$$
