chlorphenesin carbamate
  CDK     0628171802

 28 28  0  0  0  0  0  0  0  0999 V2000
    0.4184    0.0444   -0.6030 O   0  0  0  0  0  0  0  0  0  0  0  0
    0.8935    1.3540   -0.9811 C   0  0  2  0  0  0  0  0  0  0  0  0
    0.6438   -0.2559    0.7114 C   0  0  0  0  0  0  0  0  0  0  0  0
    0.7717    1.5028   -2.5165 C   0  0  2  0  0  0  0  0  0  0  0  0
   -0.2159    0.2153    1.7257 C   0  0  0  0  0  0  0  0  0  0  0  0
    1.7453   -1.0664    1.0525 C   0  0  0  0  0  0  0  0  0  0  0  0
    1.1823    2.9054   -3.0265 C   0  0  1  0  0  0  0  0  0  0  0  0
   -0.5631    1.2178   -2.9335 O   0  0  0  0  0  0  0  0  0  0  0  0
    0.0533   -0.0820    3.0750 C   0  0  0  0  0  0  0  0  0  0  0  0
    2.0123   -1.3672    2.4008 C   0  0  0  0  0  0  0  0  0  0  0  0
    1.3487    2.8489   -4.4491 O   0  0  0  0  0  0  0  0  0  0  0  0
    1.1752   -0.8639    3.4158 C   0  0  0  0  0  0  0  0  0  0  0  0
    1.7877    3.8479   -5.2618 C   0  0  0  0  0  0  0  0  0  0  0  0
    1.5218   -1.1933    5.0400 Cl  0  0  0  0  0  0  0  0  0  0  0  0
    1.9190    3.5932   -6.5725 N   0  0  0  0  0  0  0  0  0  0  0  0
    2.0722    4.9878   -4.8283 O   0  0  0  0  0  0  0  0  0  0  0  0
    1.9462    1.4826   -0.7026 H   0  0  0  0  0  0  0  0  0  0  0  0
    0.2992    2.1294   -0.4870 H   0  0  0  0  0  0  0  0  0  0  0  0
    1.4284    0.7615   -2.9803 H   0  0  0  0  0  0  0  0  0  0  0  0
   -1.0335    0.7789    1.4824 H   0  0  0  0  0  0  0  0  0  0  0  0
    2.3556   -1.4343    0.3192 H   0  0  0  0  0  0  0  0  0  0  0  0
    0.4151    3.6393   -2.7699 H   0  0  0  0  0  0  0  0  0  0  0  0
    2.1256    3.2105   -2.5673 H   0  0  0  0  0  0  0  0  0  0  0  0
   -0.6978    0.2702   -2.7160 H   0  0  0  0  0  0  0  0  0  0  0  0
   -0.5691    0.2757    3.8032 H   0  0  0  0  0  0  0  0  0  0  0  0
    2.8189   -1.9504    2.6356 H   0  0  0  0  0  0  0  0  0  0  0  0
    2.2349    4.2849   -7.1734 H   0  0  0  0  0  0  0  0  0  0  0  0
    1.6990    2.7157   -6.9226 H   0  0  0  0  0  0  0  0  0  0  0  0
  1  2  1  0  0  0  0 
  1  3  1  0  0  0  0 
  4  2  1  0  0  0  0 
  3  5  2  0  0  0  0 
  3  6  1  0  0  0  0 
  4  7  1  0  0  0  0 
  4  8  1  0  0  0  0 
  5  9  1  0  0  0  0 
  6 10  2  0  0  0  0 
  7 11  1  0  0  0  0 
  9 12  2  0  0  0  0 
 10 12  1  0  0  0  0 
 11 13  1  0  0  0  0 
 12 14  1  0  0  0  0 
 13 15  1  0  0  0  0 
 13 16  2  0  0  0  0 
 17  2  1  0  0  0  0 
 18  2  1  0  0  0  0 
 19  4  1  0  0  0  0 
 20  5  1  0  0  0  0 
 21  6  1  0  0  0  0 
 22  7  1  0  0  0  0 
 23  7  1  0  0  0  0 
 24  8  1  0  0  0  0 
 25  9  1  0  0  0  0 
 26 10  1  0  0  0  0 
 27 15  1  0  0  0  0 
 28 15  1  0  0  0  0 
M  END
> <cdk:Title>
chlorphenesin carbamate

> <Conformer>
1

> <SuperDrugID>
SD000535

$$$$
