lovastatin
  CDK     0628171801

 65 67  0  0  0  0  0  0  0  0999 V2000
    3.1203   -1.7606   -1.0446 O   0  0  0  0  0  0  0  0  0  0  0  0
    3.8335   -1.6121    0.1146 C   0  0  0  0  0  0  0  0  0  0  0  0
    1.8904   -1.0845   -1.3836 C   0  0  2  0  0  0  0  0  0  0  0  0
    5.2932   -1.8716    0.1168 C   0  0  2  0  0  0  0  0  0  0  0  0
    3.2748   -1.2043    1.1611 O   0  0  0  0  0  0  0  0  0  0  0  0
    0.6003   -1.9973   -1.4663 C   0  0  1  0  0  0  0  0  0  0  0  0
    2.1860   -0.2946   -2.6993 C   0  0  2  0  0  0  0  0  0  0  0  0
    5.6861   -2.9485    1.1742 C   0  0  1  0  0  0  0  0  0  0  0  0
    6.0346   -0.5141    0.3015 C   0  0  0  0  0  0  0  0  0  0  0  0
    0.1580   -2.2831   -2.8567 C   0  0  0  0  0  0  0  0  0  0  0  0
    0.6111   -3.2632   -0.4988 C   0  0  1  0  0  0  0  0  0  0  0  0
    0.8911   -0.0355   -3.5236 C   0  0  2  0  0  0  0  0  0  0  0  0
    7.2911   -3.2953    1.1956 C   0  0  0  0  0  0  0  0  0  0  0  0
   -0.3682   -3.5050   -3.1762 C   0  0  0  0  0  0  0  0  0  0  0  0
    0.2746   -1.3301   -3.8085 C   0  0  0  0  0  0  0  0  0  0  0  0
   -0.6499   -3.3267    0.4397 C   0  0  2  0  0  0  0  0  0  0  0  0
    0.8522   -4.5668   -1.3520 C   0  0  2  0  0  0  0  0  0  0  0  0
    1.1997    0.7829   -4.8066 C   0  0  0  0  0  0  0  0  0  0  0  0
   -0.0800   -4.6109   -2.4733 C   0  0  0  0  0  0  0  0  0  0  0  0
   -0.6309   -2.2719    1.5894 C   0  0  1  0  0  0  0  0  0  0  0  0
    0.9095   -5.9051   -0.5600 C   0  0  0  0  0  0  0  0  0  0  0  0
   -1.8722   -2.3264    2.5281 C   0  0  2  0  0  0  0  0  0  0  0  0
   -1.8141   -1.2780    3.6855 C   0  0  2  0  0  0  0  0  0  0  0  0
   -2.0420   -3.6703    3.0200 O   0  0  0  0  0  0  0  0  0  0  0  0
   -1.0269   -1.8075    4.9098 C   0  0  1  0  0  0  0  0  0  0  0  0
   -1.9608   -4.0853    4.3154 C   0  0  0  0  0  0  0  0  0  0  0  0
   -1.0772   -0.8464    5.9626 O   0  0  0  0  0  0  0  0  0  0  0  0
   -1.5828   -3.1686    5.4123 C   0  0  1  0  0  0  0  0  0  0  0  0
   -2.2423   -5.2792    4.5629 O   0  0  0  0  0  0  0  0  0  0  0  0
   -0.2033   -1.3364   -1.1200 H   0  0  0  0  0  0  0  0  0  0  0  0
    1.6858   -0.3292   -0.6130 H   0  0  0  0  0  0  0  0  0  0  0  0
    5.5700   -2.2601   -0.8687 H   0  0  0  0  0  0  0  0  0  0  0  0
    2.8767   -0.8754   -3.3213 H   0  0  0  0  0  0  0  0  0  0  0  0
    2.6845    0.6494   -2.4572 H   0  0  0  0  0  0  0  0  0  0  0  0
    5.3982   -2.6215    2.1775 H   0  0  0  0  0  0  0  0  0  0  0  0
    5.1530   -3.8790    0.9570 H   0  0  0  0  0  0  0  0  0  0  0  0
    7.0985   -0.6229    0.0875 H   0  0  0  0  0  0  0  0  0  0  0  0
    5.9198   -0.1423    1.3225 H   0  0  0  0  0  0  0  0  0  0  0  0
    5.6383    0.2395   -0.3851 H   0  0  0  0  0  0  0  0  0  0  0  0
    1.4655   -3.1987    0.1807 H   0  0  0  0  0  0  0  0  0  0  0  0
    0.1962    0.5557   -2.9171 H   0  0  0  0  0  0  0  0  0  0  0  0
    7.5713   -4.1391    1.8762 H   0  0  0  0  0  0  0  0  0  0  0  0
    7.9482   -2.4556    1.5363 H   0  0  0  0  0  0  0  0  0  0  0  0
    7.7174   -3.5946    0.2049 H   0  0  0  0  0  0  0  0  0  0  0  0
   -0.9865   -3.5935   -3.9518 H   0  0  0  0  0  0  0  0  0  0  0  0
   -0.0476   -1.5098   -4.7349 H   0  0  0  0  0  0  0  0  0  0  0  0
   -0.6868   -4.3045    0.9201 H   0  0  0  0  0  0  0  0  0  0  0  0
   -1.5617   -3.2150   -0.1548 H   0  0  0  0  0  0  0  0  0  0  0  0
    1.8486   -4.4638   -1.7970 H   0  0  0  0  0  0  0  0  0  0  0  0
    0.2813    0.9666   -5.3701 H   0  0  0  0  0  0  0  0  0  0  0  0
    1.9047    0.2463   -5.4481 H   0  0  0  0  0  0  0  0  0  0  0  0
    1.6357    1.7483   -4.5382 H   0  0  0  0  0  0  0  0  0  0  0  0
   -0.4923   -5.4747   -2.7472 H   0  0  0  0  0  0  0  0  0  0  0  0
    0.2704   -2.4277    2.1883 H   0  0  0  0  0  0  0  0  0  0  0  0
   -0.5801   -1.2710    1.1609 H   0  0  0  0  0  0  0  0  0  0  0  0
    1.6040   -5.8170    0.2775 H   0  0  0  0  0  0  0  0  0  0  0  0
   -0.0720   -6.1944   -0.1804 H   0  0  0  0  0  0  0  0  0  0  0  0
    1.2621   -6.7067   -1.2130 H   0  0  0  0  0  0  0  0  0  0  0  0
   -2.7595   -2.0994    1.9279 H   0  0  0  0  0  0  0  0  0  0  0  0
   -2.8351   -1.0494    4.0053 H   0  0  0  0  0  0  0  0  0  0  0  0
   -1.3638   -0.3448    3.3383 H   0  0  0  0  0  0  0  0  0  0  0  0
    0.0232   -1.9264    4.6325 H   0  0  0  0  0  0  0  0  0  0  0  0
   -2.0309   -0.7385    6.1675 H   0  0  0  0  0  0  0  0  0  0  0  0
   -0.8234   -3.6504    6.0328 H   0  0  0  0  0  0  0  0  0  0  0  0
   -2.4699   -2.9981    6.0263 H   0  0  0  0  0  0  0  0  0  0  0  0
  1  2  1  0  0  0  0 
  4  2  1  0  0  0  0 
  2  5  2  0  0  0  0 
  3  1  1  0  0  0  0 
  6  3  1  0  0  0  0 
  3  7  1  0  0  0  0 
  4  8  1  0  0  0  0 
  4  9  1  0  0  0  0 
  6 10  1  0  0  0  0 
 11  6  1  0  0  0  0 
  6 30  1  0  0  0  0 
 12  7  1  0  0  0  0 
  8 13  1  0  0  0  0 
 10 14  1  0  0  0  0 
 10 15  2  0  0  0  0 
 11 16  1  0  0  0  0 
 11 17  1  0  0  0  0 
 12 15  1  0  0  0  0 
 12 18  1  0  0  0  0 
 14 19  2  0  0  0  0 
 16 20  1  0  0  0  0 
 17 19  1  0  0  0  0 
 17 21  1  0  0  0  0 
 22 20  1  0  0  0  0 
 22 23  1  0  0  0  0 
 22 24  1  0  0  0  0 
 25 23  1  0  0  0  0 
 24 26  1  0  0  0  0 
 25 27  1  0  0  0  0 
 25 28  1  0  0  0  0 
 26 28  1  0  0  0  0 
 26 29  2  0  0  0  0 
  3 31  1  0  0  0  0 
  4 32  1  0  0  0  0 
  7 33  1  0  0  0  0 
  7 34  1  0  0  0  0 
  8 35  1  0  0  0  0 
  8 36  1  0  0  0  0 
  9 37  1  0  0  0  0 
  9 38  1  0  0  0  0 
  9 39  1  0  0  0  0 
 11 40  1  0  0  0  0 
 12 41  1  0  0  0  0 
 13 42  1  0  0  0  0 
 13 43  1  0  0  0  0 
 13 44  1  0  0  0  0 
 14 45  1  0  0  0  0 
 15 46  1  0  0  0  0 
 16 47  1  0  0  0  0 
 16 48  1  0  0  0  0 
 17 49  1  0  0  0  0 
 18 50  1  0  0  0  0 
 18 51  1  0  0  0  0 
 18 52  1  0  0  0  0 
 19 53  1  0  0  0  0 
 20 54  1  0  0  0  0 
 20 55  1  0  0  0  0 
 21 56  1  0  0  0  0 
 21 57  1  0  0  0  0 
 21 58  1  0  0  0  0 
 22 59  1  0  0  0  0 
 23 60  1  0  0  0  0 
 23 61  1  0  0  0  0 
 25 62  1  0  0  0  0 
 27 63  1  0  0  0  0 
 28 64  1  0  0  0  0 
 28 65  1  0  0  0  0 
M  END
> <cdk:Title>
lovastatin

> <Conformer>
1

> <SuperDrugID>
SD001426

$$$$
