mecysteine
  CDK     0628171801

 17 16  0  0  0  0  0  0  0  0999 V2000
   -0.9665   -2.8139    0.6961 C   0  0  0  0  0  0  0  0  0  0  0  0
   -1.2273   -1.6374    1.4668 O   0  0  0  0  0  0  0  0  0  0  0  0
   -1.2422   -0.3543    0.9978 C   0  0  0  0  0  0  0  0  0  0  0  0
   -1.0398   -0.1050   -0.2150 O   0  0  0  0  0  0  0  0  0  0  0  0
   -1.4940    0.7530    1.9463 C   0  0  1  0  0  0  0  0  0  0  0  0
   -0.3193    1.6361    1.9537 N   0  0  1  0  0  0  0  0  0  0  0  0
   -2.7653    1.5765    1.6094 C   0  0  2  0  0  0  0  0  0  0  0  0
   -4.2835    0.6009    1.7446 S   0  0  0  0  0  0  0  0  0  0  0  0
    0.0333   -2.7656    0.2654 H   0  0  0  0  0  0  0  0  0  0  0  0
   -1.0266   -3.6851    1.3478 H   0  0  0  0  0  0  0  0  0  0  0  0
   -1.7031   -2.9157   -0.1031 H   0  0  0  0  0  0  0  0  0  0  0  0
   -1.5988    0.3491    2.9574 H   0  0  0  0  0  0  0  0  0  0  0  0
   -0.4610    2.3147    2.7067 H   0  0  0  0  0  0  0  0  0  0  0  0
    0.4861    1.0639    2.2180 H   0  0  0  0  0  0  0  0  0  0  0  0
   -2.7054    1.9835    0.5973 H   0  0  0  0  0  0  0  0  0  0  0  0
   -2.8524    2.4123    2.3080 H   0  0  0  0  0  0  0  0  0  0  0  0
   -5.0962    1.6740    1.5300 H   0  0  0  0  0  0  0  0  0  0  0  0
  1  2  1  0  0  0  0 
  2  3  1  0  0  0  0 
  3  4  2  0  0  0  0 
  3  5  1  0  0  0  0 
  5  6  1  0  0  0  0 
  5  7  1  0  0  0  0 
  7  8  1  0  0  0  0 
  1  9  1  0  0  0  0 
  1 10  1  0  0  0  0 
  1 11  1  0  0  0  0 
  5 12  1  0  0  0  0 
  6 13  1  0  0  0  0 
  6 14  1  0  0  0  0 
  7 15  1  0  0  0  0 
  7 16  1  0  0  0  0 
  8 17  1  0  0  0  0 
M  END
> <cdk:Title>
mecysteine

> <Conformer>
1

> <SuperDrugID>
SD001463

$$$$
