chloral hydrate
  CDK     0628171802

 10  9  0  0  0  0  0  0  0  0999 V2000
    0.1523   -0.3015   -1.9761 O   0  0  0  0  0  0  0  0  0  0  0  0
    0.8959    0.7848   -2.5246 C   0  0  1  0  0  0  0  0  0  0  0  0
    1.7737    1.2785   -1.5148 O   0  0  0  0  0  0  0  0  0  0  0  0
    1.6834    0.3449   -3.7859 C   0  0  1  0  0  0  0  0  0  0  0  0
    2.8317   -0.9399   -3.4212 Cl  0  0  0  0  0  0  0  0  0  0  0  0
    0.5999   -0.2476   -5.0423 Cl  0  0  0  0  0  0  0  0  0  0  0  0
    2.5878    1.6896   -4.4767 Cl  0  0  0  0  0  0  0  0  0  0  0  0
   -0.3335    0.0809   -1.2154 H   0  0  0  0  0  0  0  0  0  0  0  0
    0.1961    1.5804   -2.7899 H   0  0  0  0  0  0  0  0  0  0  0  0
    1.1862    1.5618   -0.7831 H   0  0  0  0  0  0  0  0  0  0  0  0
  1  2  1  0  0  0  0 
  2  3  1  0  0  0  0 
  2  4  1  0  0  0  0 
  4  5  1  0  0  0  0 
  4  6  1  0  0  0  0 
  4  7  1  0  0  0  0 
  1  8  1  0  0  0  0 
  2  9  1  0  0  0  0 
  3 10  1  0  0  0  0 
M  END
> <cdk:Title>
chloral hydrate

> <Conformer>
1

> <SuperDrugID>
SD000513

$$$$
