medazepam
  CDK     0628171801

 34 36  0  0  0  0  0  0  0  0999 V2000
    3.3987    4.4007    2.8439 C   0  0  0  0  0  0  0  0  0  0  0  0
    3.0196    3.4248    1.9038 C   0  0  0  0  0  0  0  0  0  0  0  0
    3.9869    2.7481    1.1125 C   0  0  0  0  0  0  0  0  0  0  0  0
    5.3644    3.1070    1.2461 C   0  0  0  0  0  0  0  0  0  0  0  0
    5.7221    4.0761    2.2183 C   0  0  0  0  0  0  0  0  0  0  0  0
    4.7561    4.7125    3.0115 C   0  0  0  0  0  0  0  0  0  0  0  0
    3.5594    1.7241    0.2470 C   0  0  0  0  0  0  0  0  0  0  0  0
    4.2048    0.6138    0.1268 N   0  0  0  0  0  0  0  0  0  0  0  0
    5.3926    0.2219    0.7350 C   0  0  1  0  0  0  0  0  0  0  0  0
    6.5419    1.1340    0.2435 C   0  0  2  0  0  0  0  0  0  0  0  0
    6.3730    2.5611    0.4590 N   0  0  0  0  0  0  0  0  0  0  0  0
    2.2364    5.1930    3.7890 Cl  0  0  0  0  0  0  0  0  0  0  0  0
    2.4117    1.8441   -0.5401 C   0  0  0  0  0  0  0  0  0  0  0  0
    2.2085    2.9956   -1.3413 C   0  0  0  0  0  0  0  0  0  0  0  0
    1.0551    3.1235   -2.1372 C   0  0  0  0  0  0  0  0  0  0  0  0
    0.0899    2.1005   -2.1470 C   0  0  0  0  0  0  0  0  0  0  0  0
    0.2757    0.9509   -1.3583 C   0  0  0  0  0  0  0  0  0  0  0  0
    1.4286    0.8228   -0.5622 C   0  0  0  0  0  0  0  0  0  0  0  0
    7.3285    3.4344   -0.1922 C   0  0  0  0  0  0  0  0  0  0  0  0
    2.0235    3.2016    1.8119 H   0  0  0  0  0  0  0  0  0  0  0  0
    6.7019    4.3328    2.3573 H   0  0  0  0  0  0  0  0  0  0  0  0
    5.0471    5.4002    3.7117 H   0  0  0  0  0  0  0  0  0  0  0  0
    5.3100    0.2553    1.8263 H   0  0  0  0  0  0  0  0  0  0  0  0
    5.6016   -0.8100    0.4436 H   0  0  0  0  0  0  0  0  0  0  0  0
    6.6562    0.9467   -0.8297 H   0  0  0  0  0  0  0  0  0  0  0  0
    7.4679    0.8099    0.7271 H   0  0  0  0  0  0  0  0  0  0  0  0
    2.9036    3.7474   -1.3613 H   0  0  0  0  0  0  0  0  0  0  0  0
    0.9221    3.9562   -2.7159 H   0  0  0  0  0  0  0  0  0  0  0  0
   -0.7437    2.1898   -2.7313 H   0  0  0  0  0  0  0  0  0  0  0  0
   -0.4258    0.2059   -1.3675 H   0  0  0  0  0  0  0  0  0  0  0  0
    1.5415   -0.0209    0.0054 H   0  0  0  0  0  0  0  0  0  0  0  0
    7.0442    4.4892   -0.1505 H   0  0  0  0  0  0  0  0  0  0  0  0
    7.4302    3.1862   -1.2502 H   0  0  0  0  0  0  0  0  0  0  0  0
    8.3034    3.3285    0.2869 H   0  0  0  0  0  0  0  0  0  0  0  0
  1  2  2  0  0  0  0 
  2  3  1  0  0  0  0 
  3  4  2  0  0  0  0 
  4  5  1  0  0  0  0 
  5  6  2  0  0  0  0 
  1  6  1  0  0  0  0 
  3  7  1  0  0  0  0 
  7  8  2  0  0  0  0 
  8  9  1  0  0  0  0 
  9 10  1  0  0  0  0 
 10 11  1  0  0  0  0 
  4 11  1  0  0  0  0 
  1 12  1  0  0  0  0 
  7 13  1  0  0  0  0 
 13 14  2  0  0  0  0 
 14 15  1  0  0  0  0 
 15 16  2  0  0  0  0 
 16 17  1  0  0  0  0 
 17 18  2  0  0  0  0 
 13 18  1  0  0  0  0 
 11 19  1  0  0  0  0 
  2 20  1  0  0  0  0 
  5 21  1  0  0  0  0 
  6 22  1  0  0  0  0 
  9 23  1  0  0  0  0 
  9 24  1  0  0  0  0 
 10 25  1  0  0  0  0 
 10 26  1  0  0  0  0 
 14 27  1  0  0  0  0 
 15 28  1  0  0  0  0 
 16 29  1  0  0  0  0 
 17 30  1  0  0  0  0 
 18 31  1  0  0  0  0 
 19 32  1  0  0  0  0 
 19 33  1  0  0  0  0 
 19 34  1  0  0  0  0 
M  END
> <cdk:Title>
medazepam

> <Conformer>
1

> <SuperDrugID>
SD001464

$$$$
