mepacrine
  CDK     0628171801

 58 60  0  0  0  0  0  0  0  0999 V2000
   -0.4087    0.3299    4.7078 N   0  0  0  0  0  0  0  0  0  0  0  0
   -0.8823   -0.8600    5.3634 C   0  0  2  0  0  0  0  0  0  0  0  0
   -1.0485    0.9519    3.6719 C   0  0  0  0  0  0  0  0  0  0  0  0
   -0.0426   -1.1633    6.6386 C   0  0  1  0  0  0  0  0  0  0  0  0
   -0.8658   -2.0576    4.3789 C   0  0  0  0  0  0  0  0  0  0  0  0
   -0.3784    1.0012    2.4192 C   0  0  0  0  0  0  0  0  0  0  0  0
   -2.3587    1.4941    3.7920 C   0  0  0  0  0  0  0  0  0  0  0  0
    0.0218    0.0368    7.6226 C   0  0  2  0  0  0  0  0  0  0  0  0
   -1.0981    1.4594    1.2822 C   0  0  0  0  0  0  0  0  0  0  0  0
    0.9672    0.5915    2.2408 C   0  0  0  0  0  0  0  0  0  0  0  0
   -3.0323    1.8974    2.6058 C   0  0  0  0  0  0  0  0  0  0  0  0
   -3.0273    1.6799    5.0268 C   0  0  0  0  0  0  0  0  0  0  0  0
    0.6356   -0.3159    9.0047 C   0  0  1  0  0  0  0  0  0  0  0  0
   -2.3859    1.8612    1.4147 N   0  0  0  0  0  0  0  0  0  0  0  0
   -0.4882    1.4955    0.0132 C   0  0  0  0  0  0  0  0  0  0  0  0
    1.5811    0.6347    0.9725 C   0  0  0  0  0  0  0  0  0  0  0  0
   -4.3674    2.3481    2.6524 C   0  0  0  0  0  0  0  0  0  0  0  0
   -4.3534    2.1431    5.0751 C   0  0  0  0  0  0  0  0  0  0  0  0
    0.0132   -1.4909    9.7172 N   0  0  1  0  0  0  0  0  0  0  0  0
    0.8473    1.0865   -0.1394 C   0  0  0  0  0  0  0  0  0  0  0  0
    2.8715    0.2046    0.8128 O   0  0  0  0  0  0  0  0  0  0  0  0
   -5.0343    2.4625    3.8868 C   0  0  0  0  0  0  0  0  0  0  0  0
    0.8669   -2.0129   10.8416 C   0  0  2  0  0  0  0  0  0  0  0  0
   -1.4099   -1.2283   10.1417 C   0  0  2  0  0  0  0  0  0  0  0  0
    3.8424    1.2364    1.0582 C   0  0  0  0  0  0  0  0  0  0  0  0
   -6.6393    2.9981    3.9474 Cl  0  0  0  0  0  0  0  0  0  0  0  0
    2.2505   -2.5683   10.4294 C   0  0  0  0  0  0  0  0  0  0  0  0
   -2.2047   -2.4694   10.6143 C   0  0  0  0  0  0  0  0  0  0  0  0
    0.4932    0.6241    4.9143 H   0  0  0  0  0  0  0  0  0  0  0  0
   -1.9196   -0.7390    5.6799 H   0  0  0  0  0  0  0  0  0  0  0  0
   -0.4960   -2.0188    7.1468 H   0  0  0  0  0  0  0  0  0  0  0  0
    0.9756   -1.4442    6.3576 H   0  0  0  0  0  0  0  0  0  0  0  0
   -1.5051   -1.8522    3.5168 H   0  0  0  0  0  0  0  0  0  0  0  0
    0.1457   -2.2484    4.0218 H   0  0  0  0  0  0  0  0  0  0  0  0
   -1.2392   -2.9589    4.8655 H   0  0  0  0  0  0  0  0  0  0  0  0
   -0.9725    0.4639    7.7594 H   0  0  0  0  0  0  0  0  0  0  0  0
    0.6362    0.8214    7.1754 H   0  0  0  0  0  0  0  0  0  0  0  0
    1.5215    0.2616    3.0346 H   0  0  0  0  0  0  0  0  0  0  0  0
   -2.5527    1.4983    5.9106 H   0  0  0  0  0  0  0  0  0  0  0  0
    1.6905   -0.5104    8.8013 H   0  0  0  0  0  0  0  0  0  0  0  0
    0.5963    0.5710    9.6464 H   0  0  0  0  0  0  0  0  0  0  0  0
   -1.0106    1.8230   -0.8018 H   0  0  0  0  0  0  0  0  0  0  0  0
   -4.8545    2.5987    1.7874 H   0  0  0  0  0  0  0  0  0  0  0  0
   -4.8159    2.2484    5.9823 H   0  0  0  0  0  0  0  0  0  0  0  0
    1.2878    1.1207   -1.0616 H   0  0  0  0  0  0  0  0  0  0  0  0
    0.3653   -2.8534   11.3232 H   0  0  0  0  0  0  0  0  0  0  0  0
    1.0081   -1.2356   11.5980 H   0  0  0  0  0  0  0  0  0  0  0  0
   -1.9821   -0.8305    9.3024 H   0  0  0  0  0  0  0  0  0  0  0  0
   -1.4339   -0.4752   10.9349 H   0  0  0  0  0  0  0  0  0  0  0  0
    4.8372    0.8090    0.9292 H   0  0  0  0  0  0  0  0  0  0  0  0
    3.7300    2.0601    0.3490 H   0  0  0  0  0  0  0  0  0  0  0  0
    3.7680    1.6200    2.0792 H   0  0  0  0  0  0  0  0  0  0  0  0
    2.6587   -3.1776   11.2374 H   0  0  0  0  0  0  0  0  0  0  0  0
    2.9559   -1.7603   10.2372 H   0  0  0  0  0  0  0  0  0  0  0  0
    2.1605   -3.1880    9.5369 H   0  0  0  0  0  0  0  0  0  0  0  0
   -3.2695   -2.2358   10.6575 H   0  0  0  0  0  0  0  0  0  0  0  0
   -1.8960   -2.7769   11.6136 H   0  0  0  0  0  0  0  0  0  0  0  0
   -2.0568   -3.2989    9.9223 H   0  0  0  0  0  0  0  0  0  0  0  0
  2  1  1  0  0  0  0 
  1  3  1  0  0  0  0 
  2  4  1  0  0  0  0 
  2  5  1  0  0  0  0 
  3  6  1  0  0  0  0 
  3  7  2  0  0  0  0 
  4  8  1  0  0  0  0 
  6  9  1  0  0  0  0 
  6 10  2  0  0  0  0 
  7 11  1  0  0  0  0 
  7 12  1  0  0  0  0 
  8 13  1  0  0  0  0 
  9 14  1  0  0  0  0 
  9 15  2  0  0  0  0 
 10 16  1  0  0  0  0 
 11 14  2  0  0  0  0 
 11 17  1  0  0  0  0 
 12 18  2  0  0  0  0 
 13 19  1  0  0  0  0 
 15 20  1  0  0  0  0 
 16 20  2  0  0  0  0 
 16 21  1  0  0  0  0 
 17 22  2  0  0  0  0 
 18 22  1  0  0  0  0 
 19 23  1  0  0  0  0 
 19 24  1  0  0  0  0 
 21 25  1  0  0  0  0 
 22 26  1  0  0  0  0 
 23 27  1  0  0  0  0 
 24 28  1  0  0  0  0 
  1 29  1  0  0  0  0 
  2 30  1  0  0  0  0 
  4 31  1  0  0  0  0 
  4 32  1  0  0  0  0 
  5 33  1  0  0  0  0 
  5 34  1  0  0  0  0 
  5 35  1  0  0  0  0 
  8 36  1  0  0  0  0 
  8 37  1  0  0  0  0 
 10 38  1  0  0  0  0 
 12 39  1  0  0  0  0 
 13 40  1  0  0  0  0 
 13 41  1  0  0  0  0 
 15 42  1  0  0  0  0 
 17 43  1  0  0  0  0 
 18 44  1  0  0  0  0 
 20 45  1  0  0  0  0 
 23 46  1  0  0  0  0 
 23 47  1  0  0  0  0 
 24 48  1  0  0  0  0 
 24 49  1  0  0  0  0 
 25 50  1  0  0  0  0 
 25 51  1  0  0  0  0 
 25 52  1  0  0  0  0 
 27 53  1  0  0  0  0 
 27 54  1  0  0  0  0 
 27 55  1  0  0  0  0 
 28 56  1  0  0  0  0 
 28 57  1  0  0  0  0 
 28 58  1  0  0  0  0 
M  END
> <cdk:Title>
mepacrine

> <Conformer>
1

> <SuperDrugID>
SD002102

$$$$
