fenozolone
  CDK     0628171801

 27 28  0  0  0  0  0  0  0  0999 V2000
    0.7942    4.0731   -3.4195 O   0  0  0  0  0  0  0  0  0  0  0  0
    0.9968    2.9388   -2.7109 C   0  0  0  0  0  0  0  0  0  0  0  0
    0.3318    1.7151   -2.8418 C   0  0  0  0  0  0  0  0  0  0  0  0
    1.9214    2.8378   -1.7459 N   0  0  0  0  0  0  0  0  0  0  0  0
    0.8884    0.8922   -1.9218 O   0  0  0  0  0  0  0  0  0  0  0  0
   -0.7118    1.3170   -3.7266 C   0  0  0  0  0  0  0  0  0  0  0  0
    1.8444    1.5905   -1.2642 C   0  0  0  0  0  0  0  0  0  0  0  0
   -1.0060   -0.0626   -3.8674 C   0  0  0  0  0  0  0  0  0  0  0  0
   -1.4888    2.2386   -4.4745 C   0  0  0  0  0  0  0  0  0  0  0  0
    2.6315    1.1275   -0.2635 N   0  0  0  0  0  0  0  0  0  0  0  0
   -2.0303   -0.5061   -4.7262 C   0  0  0  0  0  0  0  0  0  0  0  0
   -2.5167    1.7958   -5.3304 C   0  0  0  0  0  0  0  0  0  0  0  0
    2.4321   -0.1119    0.4156 C   0  0  1  0  0  0  0  0  0  0  0  0
   -2.7842    0.4232   -5.4623 C   0  0  0  0  0  0  0  0  0  0  0  0
    3.4058   -1.1905   -0.0974 C   0  0  0  0  0  0  0  0  0  0  0  0
    1.2986    4.7647   -2.9401 H   0  0  0  0  0  0  0  0  0  0  0  0
   -0.4755   -0.7682   -3.3480 H   0  0  0  0  0  0  0  0  0  0  0  0
   -1.3321    3.2444   -4.4018 H   0  0  0  0  0  0  0  0  0  0  0  0
    3.3743    1.6848    0.0233 H   0  0  0  0  0  0  0  0  0  0  0  0
   -2.2254   -1.5063   -4.8149 H   0  0  0  0  0  0  0  0  0  0  0  0
   -3.0735    2.4748   -5.8566 H   0  0  0  0  0  0  0  0  0  0  0  0
    2.6113    0.0563    1.4807 H   0  0  0  0  0  0  0  0  0  0  0  0
    1.4028   -0.4701    0.3074 H   0  0  0  0  0  0  0  0  0  0  0  0
   -3.5224    0.1013   -6.0927 H   0  0  0  0  0  0  0  0  0  0  0  0
    3.1763   -1.4396   -1.1360 H   0  0  0  0  0  0  0  0  0  0  0  0
    3.3061   -2.0925    0.5109 H   0  0  0  0  0  0  0  0  0  0  0  0
    4.4393   -0.8421   -0.0373 H   0  0  0  0  0  0  0  0  0  0  0  0
  1  2  1  0  0  0  0 
  3  2  2  0  0  0  0 
  2  4  1  0  0  0  0 
  3  5  1  0  0  0  0 
  3  6  1  0  0  0  0 
  4  7  2  0  0  0  0 
  5  7  1  0  0  0  0 
  6  8  2  0  0  0  0 
  6  9  1  0  0  0  0 
  7 10  1  0  0  0  0 
  8 11  1  0  0  0  0 
  9 12  2  0  0  0  0 
 10 13  1  0  0  0  0 
 11 14  2  0  0  0  0 
 12 14  1  0  0  0  0 
 13 15  1  0  0  0  0 
 16  1  1  0  0  0  0 
 17  8  1  0  0  0  0 
 18  9  1  0  0  0  0 
 19 10  1  0  0  0  0 
 20 11  1  0  0  0  0 
 21 12  1  0  0  0  0 
 22 13  1  0  0  0  0 
 23 13  1  0  0  0  0 
 24 14  1  0  0  0  0 
 25 15  1  0  0  0  0 
 26 15  1  0  0  0  0 
 27 15  1  0  0  0  0 
M  END
> <cdk:Title>
fenozolone

> <Conformer>
1

> <SuperDrugID>
SD001034

$$$$
