nicotine
  CDK     0628171801

 26 27  0  0  0  0  0  0  0  0999 V2000
    0.6918   -2.5588    1.6585 C   0  0  0  0  0  0  0  0  0  0  0  0
    1.1447   -2.3885    0.2504 N   0  0  2  0  0  0  0  0  0  0  0  0
    1.7618   -3.5910   -0.3661 C   0  0  1  0  0  0  0  0  0  0  0  0
    2.8050   -3.0892   -1.3880 C   0  0  1  0  0  0  0  0  0  0  0  0
    2.6466   -1.5617   -1.3992 C   0  0  2  0  0  0  0  0  0  0  0  0
    2.0467   -1.2393   -0.0144 C   0  0  1  0  0  0  0  0  0  0  0  0
    1.3520    0.0823    0.0067 C   0  0  0  0  0  0  0  0  0  0  0  0
    0.1144    0.2780   -0.6544 C   0  0  0  0  0  0  0  0  0  0  0  0
   -0.5270    1.5282   -0.6170 C   0  0  0  0  0  0  0  0  0  0  0  0
    0.0809    2.5872    0.0778 C   0  0  0  0  0  0  0  0  0  0  0  0
    1.2702    2.3879    0.6986 N   0  0  0  0  0  0  0  0  0  0  0  0
    1.9098    1.1901    0.6867 C   0  0  0  0  0  0  0  0  0  0  0  0
    1.5243   -2.8338    2.3104 H   0  0  0  0  0  0  0  0  0  0  0  0
   -0.0737   -3.3366    1.7071 H   0  0  0  0  0  0  0  0  0  0  0  0
    0.2527   -1.6334    2.0341 H   0  0  0  0  0  0  0  0  0  0  0  0
    2.2534   -4.2293    0.3749 H   0  0  0  0  0  0  0  0  0  0  0  0
    0.9811   -4.1728   -0.8631 H   0  0  0  0  0  0  0  0  0  0  0  0
    3.8156   -3.3539   -1.0621 H   0  0  0  0  0  0  0  0  0  0  0  0
    2.6307   -3.5131   -2.3809 H   0  0  0  0  0  0  0  0  0  0  0  0
    1.9687   -1.2766   -2.2093 H   0  0  0  0  0  0  0  0  0  0  0  0
    3.6052   -1.0571   -1.5430 H   0  0  0  0  0  0  0  0  0  0  0  0
    2.8634   -1.2524    0.7193 H   0  0  0  0  0  0  0  0  0  0  0  0
   -0.3290   -0.4914   -1.1646 H   0  0  0  0  0  0  0  0  0  0  0  0
   -1.4235    1.6652   -1.0890 H   0  0  0  0  0  0  0  0  0  0  0  0
   -0.3644    3.5057    0.1190 H   0  0  0  0  0  0  0  0  0  0  0  0
    2.8038    1.1120    1.1773 H   0  0  0  0  0  0  0  0  0  0  0  0
  1  2  1  0  0  0  0 
  2  3  1  0  0  0  0 
  3  4  1  0  0  0  0 
  4  5  1  0  0  0  0 
  5  6  1  0  0  0  0 
  2  6  1  0  0  0  0 
  6  7  1  0  0  0  0 
  7  8  2  0  0  0  0 
  8  9  1  0  0  0  0 
  9 10  2  0  0  0  0 
 10 11  1  0  0  0  0 
 11 12  2  0  0  0  0 
  7 12  1  0  0  0  0 
  1 13  1  0  0  0  0 
  1 14  1  0  0  0  0 
  1 15  1  0  0  0  0 
  3 16  1  0  0  0  0 
  3 17  1  0  0  0  0 
  4 18  1  0  0  0  0 
  4 19  1  0  0  0  0 
  5 20  1  0  0  0  0 
  5 21  1  0  0  0  0 
  6 22  1  0  0  0  0 
  8 23  1  0  0  0  0 
  9 24  1  0  0  0  0 
 10 25  1  0  0  0  0 
 12 26  1  0  0  0  0 
M  END
> <cdk:Title>
nicotine

> <Conformer>
1

> <SuperDrugID>
SD001715

$$$$
