leucovorin
  CDK     0628171801

 57 59  0  0  0  0  0  0  0  0999 V2000
   -2.2399    4.4491   -2.0909 N   0  0  0  0  0  0  0  0  0  0  0  0
   -1.4769    3.3885   -1.7850 C   0  0  0  0  0  0  0  0  0  0  0  0
   -0.9122    3.2712   -0.5577 N   0  0  0  0  0  0  0  0  0  0  0  0
   -0.1053    2.2222   -0.2454 C   0  0  0  0  0  0  0  0  0  0  0  0
    0.3303    2.1772    0.9266 O   0  0  0  0  0  0  0  0  0  0  0  0
    0.1933    1.2221   -1.2107 C   0  0  0  0  0  0  0  0  0  0  0  0
   -0.4815    1.3563   -2.4511 C   0  0  0  0  0  0  0  0  0  0  0  0
   -0.3589    0.4213   -3.4195 N   0  0  0  0  0  0  0  0  0  0  0  0
    0.4276   -0.7563   -3.2684 C   0  0  2  0  0  0  0  0  0  0  0  0
    0.7674   -1.0919   -1.7786 C   0  0  2  0  0  0  0  0  0  0  0  0
   -0.3397   -1.9210   -1.0523 C   0  0  1  0  0  0  0  0  0  0  0  0
    0.1972   -2.5092    0.1390 N   0  0  0  0  0  0  0  0  0  0  0  0
   -0.2923   -3.5914    0.8155 C   0  0  0  0  0  0  0  0  0  0  0  0
   -1.6261   -4.0484    0.7317 C   0  0  0  0  0  0  0  0  0  0  0  0
   -2.0466   -5.1786    1.4628 C   0  0  0  0  0  0  0  0  0  0  0  0
   -1.1493   -5.9036    2.2902 C   0  0  0  0  0  0  0  0  0  0  0  0
    0.1841   -5.4291    2.3635 C   0  0  0  0  0  0  0  0  0  0  0  0
    0.6029   -4.2953    1.6447 C   0  0  0  0  0  0  0  0  0  0  0  0
   -1.5719   -7.0596    3.0207 C   0  0  0  0  0  0  0  0  0  0  0  0
   -2.7965   -7.3056    3.1444 O   0  0  0  0  0  0  0  0  0  0  0  0
   -0.6665   -7.9177    3.5857 N   0  0  0  0  0  0  0  0  0  0  0  0
   -0.9480   -9.1073    4.3377 C   0  0  1  0  0  0  0  0  0  0  0  0
    0.1639  -10.1813    4.1228 C   0  0  2  0  0  0  0  0  0  0  0  0
    0.2215  -10.7546    2.6803 C   0  0  1  0  0  0  0  0  0  0  0  0
    1.1786  -11.8695    2.5430 C   0  0  0  0  0  0  0  0  0  0  0  0
    2.2049  -11.7925    1.6661 O   0  0  0  0  0  0  0  0  0  0  0  0
    1.0431  -12.9161    3.2168 O   0  0  0  0  0  0  0  0  0  0  0  0
   -1.0306   -8.7417    5.7704 C   0  0  0  0  0  0  0  0  0  0  0  0
    0.0362   -8.1974    6.4061 O   0  0  0  0  0  0  0  0  0  0  0  0
   -2.0796   -8.9394    6.4255 O   0  0  0  0  0  0  0  0  0  0  0  0
    1.0647    0.1432   -1.0503 N   0  0  0  0  0  0  0  0  0  0  0  0
    2.2123    0.2554   -0.2882 C   0  0  0  0  0  0  0  0  0  0  0  0
    3.0079   -0.6934   -0.0972 O   0  0  0  0  0  0  0  0  0  0  0  0
   -1.2718    2.4244   -2.7111 N   0  0  0  0  0  0  0  0  0  0  0  0
   -2.6387    4.5238   -2.9716 H   0  0  0  0  0  0  0  0  0  0  0  0
   -2.3923    5.1468   -1.4357 H   0  0  0  0  0  0  0  0  0  0  0  0
   -1.0910    3.9520    0.1113 H   0  0  0  0  0  0  0  0  0  0  0  0
   -0.8223    0.5638   -4.2600 H   0  0  0  0  0  0  0  0  0  0  0  0
    1.3539   -0.5940   -3.8267 H   0  0  0  0  0  0  0  0  0  0  0  0
   -0.0980   -1.5862   -3.7441 H   0  0  0  0  0  0  0  0  0  0  0  0
    1.6462   -1.7452   -1.8447 H   0  0  0  0  0  0  0  0  0  0  0  0
   -1.1972   -1.2875   -0.8032 H   0  0  0  0  0  0  0  0  0  0  0  0
   -0.6791   -2.7215   -1.7167 H   0  0  0  0  0  0  0  0  0  0  0  0
    1.0083   -2.1081    0.4912 H   0  0  0  0  0  0  0  0  0  0  0  0
   -2.3012   -3.5609    0.1385 H   0  0  0  0  0  0  0  0  0  0  0  0
   -3.0245   -5.4658    1.3773 H   0  0  0  0  0  0  0  0  0  0  0  0
    0.8755   -5.8979    2.9498 H   0  0  0  0  0  0  0  0  0  0  0  0
    1.5779   -3.9956    1.7194 H   0  0  0  0  0  0  0  0  0  0  0  0
    0.2699   -7.6979    3.4856 H   0  0  0  0  0  0  0  0  0  0  0  0
   -1.9063   -9.5438    4.0320 H   0  0  0  0  0  0  0  0  0  0  0  0
   -0.0178  -11.0075    4.8186 H   0  0  0  0  0  0  0  0  0  0  0  0
    1.1420   -9.7533    4.3684 H   0  0  0  0  0  0  0  0  0  0  0  0
   -0.7653  -11.1206    2.3895 H   0  0  0  0  0  0  0  0  0  0  0  0
    0.4994   -9.9544    1.9906 H   0  0  0  0  0  0  0  0  0  0  0  0
    2.8186  -12.5479    1.5549 H   0  0  0  0  0  0  0  0  0  0  0  0
   -0.0196   -7.9655    7.3571 H   0  0  0  0  0  0  0  0  0  0  0  0
    2.4735    1.1438    0.1436 H   0  0  0  0  0  0  0  0  0  0  0  0
  1  2  1  0  0  0  0 
  2  3  1  0  0  0  0 
  3  4  1  0  0  0  0 
  4  5  2  0  0  0  0 
  4  6  1  0  0  0  0 
  6  7  2  0  0  0  0 
  7  8  1  0  0  0  0 
  8  9  1  0  0  0  0 
  9 10  1  0  0  0  0 
 10 11  1  0  0  0  0 
 11 12  1  0  0  0  0 
 12 13  1  0  0  0  0 
 13 14  2  0  0  0  0 
 14 15  1  0  0  0  0 
 15 16  2  0  0  0  0 
 16 17  1  0  0  0  0 
 17 18  2  0  0  0  0 
 13 18  1  0  0  0  0 
 16 19  1  0  0  0  0 
 19 20  2  0  0  0  0 
 19 21  1  0  0  0  0 
 22 21  1  0  0  0  0 
 22 23  1  0  0  0  0 
 23 24  1  0  0  0  0 
 24 25  1  0  0  0  0 
 25 26  1  0  0  0  0 
 25 27  2  0  0  0  0 
 22 28  1  0  0  0  0 
 28 29  1  0  0  0  0 
 28 30  2  0  0  0  0 
 10 31  1  0  0  0  0 
  6 31  1  0  0  0  0 
 31 32  1  0  0  0  0 
 32 33  2  0  0  0  0 
  7 34  1  0  0  0  0 
  2 34  2  0  0  0  0 
 35  1  1  0  0  0  0 
 36  1  1  0  0  0  0 
 37  3  1  0  0  0  0 
 38  8  1  0  0  0  0 
 39  9  1  0  0  0  0 
 40  9  1  0  0  0  0 
 41 10  1  0  0  0  0 
 42 11  1  0  0  0  0 
 43 11  1  0  0  0  0 
 44 12  1  0  0  0  0 
 45 14  1  0  0  0  0 
 46 15  1  0  0  0  0 
 47 17  1  0  0  0  0 
 48 18  1  0  0  0  0 
 49 21  1  0  0  0  0 
 22 50  1  0  0  0  0 
 51 23  1  0  0  0  0 
 52 23  1  0  0  0  0 
 53 24  1  0  0  0  0 
 54 24  1  0  0  0  0 
 55 26  1  0  0  0  0 
 56 29  1  0  0  0  0 
 57 32  1  0  0  0  0 
M  END
> <cdk:Title>
leucovorin

> <Conformer>
1

> <SuperDrugID>
SD001105

$$$$
