sparteine
  CDK     0628171801

 43 46  0  0  0  0  0  0  0  0999 V2000
   -1.5987   -0.9900   -2.7069 C   0  0  1  0  0  0  0  0  0  0  0  0
   -2.2216    0.3960   -3.1113 C   0  0  1  0  0  0  0  0  0  0  0  0
   -0.1522   -1.1493   -3.2581 C   0  0  1  0  0  0  0  0  0  0  0  0
   -1.5377   -1.1746   -1.1597 C   0  0  1  0  0  0  0  0  0  0  0  0
   -1.2924    1.5423   -2.8036 N   0  0  1  0  0  0  0  0  0  0  0  0
   -2.7108    0.4346   -4.5944 C   0  0  2  0  0  0  0  0  0  0  0  0
    0.7117    0.0050   -2.6750 C   0  0  1  0  0  0  0  0  0  0  0  0
   -0.6377   -0.1675   -0.5079 N   0  0  2  0  0  0  0  0  0  0  0  0
    0.1311    1.3441   -3.2291 C   0  0  2  0  0  0  0  0  0  0  0  0
   -1.8726    2.8812   -3.1383 C   0  0  2  0  0  0  0  0  0  0  0  0
   -3.3003    1.8189   -4.9727 C   0  0  2  0  0  0  0  0  0  0  0  0
    0.7471   -0.1219   -1.1037 C   0  0  2  0  0  0  0  0  0  0  0  0
   -0.6535   -0.2934    0.9856 C   0  0  2  0  0  0  0  0  0  0  0  0
   -2.3300    2.9738   -4.6172 C   0  0  2  0  0  0  0  0  0  0  0  0
    1.6071    0.9919   -0.4276 C   0  0  2  0  0  0  0  0  0  0  0  0
    0.1847    0.8121    1.6724 C   0  0  2  0  0  0  0  0  0  0  0  0
    1.6263    0.8408    1.1127 C   0  0  1  0  0  0  0  0  0  0  0  0
    1.7329   -0.1060   -3.0536 H   0  0  0  0  0  0  0  0  0  0  0  0
    1.2416   -1.0761   -0.8784 H   0  0  0  0  0  0  0  0  0  0  0  0
   -2.2198   -1.7954   -3.1131 H   0  0  0  0  0  0  0  0  0  0  0  0
   -3.1175    0.5349   -2.4932 H   0  0  0  0  0  0  0  0  0  0  0  0
    0.2665   -2.1187   -2.9675 H   0  0  0  0  0  0  0  0  0  0  0  0
   -0.1464   -1.1235   -4.3520 H   0  0  0  0  0  0  0  0  0  0  0  0
   -2.5524   -1.0892   -0.7586 H   0  0  0  0  0  0  0  0  0  0  0  0
   -1.1872   -2.1887   -0.9344 H   0  0  0  0  0  0  0  0  0  0  0  0
   -3.4800   -0.3285   -4.7484 H   0  0  0  0  0  0  0  0  0  0  0  0
   -1.8831    0.2125   -5.2694 H   0  0  0  0  0  0  0  0  0  0  0  0
    0.7497    2.1768   -2.8881 H   0  0  0  0  0  0  0  0  0  0  0  0
    0.2036    1.3414   -4.3213 H   0  0  0  0  0  0  0  0  0  0  0  0
   -1.1514    3.6778   -2.9323 H   0  0  0  0  0  0  0  0  0  0  0  0
   -2.7348    3.0608   -2.4884 H   0  0  0  0  0  0  0  0  0  0  0  0
   -4.2479    1.9650   -4.4436 H   0  0  0  0  0  0  0  0  0  0  0  0
   -3.5081    1.8435   -6.0470 H   0  0  0  0  0  0  0  0  0  0  0  0
   -0.2714   -1.2752    1.2863 H   0  0  0  0  0  0  0  0  0  0  0  0
   -1.6810   -0.2045    1.3514 H   0  0  0  0  0  0  0  0  0  0  0  0
   -1.4576    2.9335   -5.2741 H   0  0  0  0  0  0  0  0  0  0  0  0
   -2.8300    3.9317   -4.7833 H   0  0  0  0  0  0  0  0  0  0  0  0
    1.1980    1.9774   -0.6584 H   0  0  0  0  0  0  0  0  0  0  0  0
    2.6332    0.9479   -0.8039 H   0  0  0  0  0  0  0  0  0  0  0  0
    0.2143    0.6301    2.7500 H   0  0  0  0  0  0  0  0  0  0  0  0
   -0.2921    1.7832    1.5070 H   0  0  0  0  0  0  0  0  0  0  0  0
    2.1476   -0.0818    1.3865 H   0  0  0  0  0  0  0  0  0  0  0  0
    2.1705    1.6797    1.5544 H   0  0  0  0  0  0  0  0  0  0  0  0
  2  1  1  0  0  0  0 
  1  3  1  0  0  0  0 
  1  4  1  0  0  0  0 
  1 20  1  0  0  0  0 
  2  5  1  0  0  0  0 
  2  6  1  0  0  0  0 
  2 21  1  0  0  0  0 
  7  3  1  0  0  0  0 
  4  8  1  0  0  0  0 
  5  9  1  0  0  0  0 
  5 10  1  0  0  0  0 
  6 11  1  0  0  0  0 
  7  9  1  0  0  0  0 
 12  7  1  0  0  0  0 
  7 18  1  0  0  0  0 
 12  8  1  0  0  0  0 
  8 13  1  0  0  0  0 
 10 14  1  0  0  0  0 
 11 14  1  0  0  0  0 
 12 15  1  0  0  0  0 
 12 19  1  0  0  0  0 
 13 16  1  0  0  0  0 
 15 17  1  0  0  0  0 
 16 17  1  0  0  0  0 
  3 22  1  0  0  0  0 
  3 23  1  0  0  0  0 
  4 24  1  0  0  0  0 
  4 25  1  0  0  0  0 
  6 26  1  0  0  0  0 
  6 27  1  0  0  0  0 
  9 28  1  0  0  0  0 
  9 29  1  0  0  0  0 
 10 30  1  0  0  0  0 
 10 31  1  0  0  0  0 
 11 32  1  0  0  0  0 
 11 33  1  0  0  0  0 
 13 34  1  0  0  0  0 
 13 35  1  0  0  0  0 
 14 36  1  0  0  0  0 
 14 37  1  0  0  0  0 
 15 38  1  0  0  0  0 
 15 39  1  0  0  0  0 
 16 40  1  0  0  0  0 
 16 41  1  0  0  0  0 
 17 42  1  0  0  0  0 
 17 43  1  0  0  0  0 
M  END
> <cdk:Title>
sparteine

> <Conformer>
1

> <SuperDrugID>
SD002215

$$$$
