levocarnitine
  CDK     0628171802

 26 25  0  0  0  0  0  0  0  0999 V2000
   -0.3197    3.2797    0.2099 C   0  0  0  0  0  0  0  0  0  0  0  0
   -0.0034    1.9212   -0.3727 N   0  0  1  0  0  0  0  0  0  0  0  0
    0.3881    0.9971    0.7647 C   0  0  0  0  0  0  0  0  0  0  0  0
   -1.2441    1.3503   -1.0203 C   0  0  0  0  0  0  0  0  0  0  0  0
    1.1697    1.9924   -1.3472 C   0  0  1  0  0  0  0  0  0  0  0  0
    1.0954    2.9142   -2.6108 C   0  0  2  0  0  0  0  0  0  0  0  0
    0.0628    2.4816   -3.4947 O   0  0  0  0  0  0  0  0  0  0  0  0
    2.4168    2.9198   -3.4379 C   0  0  1  0  0  0  0  0  0  0  0  0
    3.5535    3.5439   -2.7298 C   0  0  0  0  0  0  0  0  0  0  0  0
    3.5379    4.8689   -2.4535 O   0  0  0  0  0  0  0  0  0  0  0  0
    4.5484    2.8711   -2.3750 O   0  0  0  0  0  0  0  0  0  0  0  0
   -1.0857    3.2120    0.9897 H   0  0  0  0  0  0  0  0  0  0  0  0
    0.5673    3.7366    0.6589 H   0  0  0  0  0  0  0  0  0  0  0  0
   -0.6999    3.9697   -0.5474 H   0  0  0  0  0  0  0  0  0  0  0  0
    1.2776    1.3601    1.2896 H   0  0  0  0  0  0  0  0  0  0  0  0
    0.6116   -0.0124    0.4034 H   0  0  0  0  0  0  0  0  0  0  0  0
   -0.4081    0.9037    1.5111 H   0  0  0  0  0  0  0  0  0  0  0  0
   -2.0303    1.1538   -0.2849 H   0  0  0  0  0  0  0  0  0  0  0  0
   -1.0320    0.4052   -1.5276 H   0  0  0  0  0  0  0  0  0  0  0  0
   -1.6724    2.0324   -1.7543 H   0  0  0  0  0  0  0  0  0  0  0  0
    2.0535    2.3120   -0.7846 H   0  0  0  0  0  0  0  0  0  0  0  0
    1.3903    0.9828   -1.7129 H   0  0  0  0  0  0  0  0  0  0  0  0
    0.8675    3.9413   -2.3153 H   0  0  0  0  0  0  0  0  0  0  0  0
    0.0766    3.1209   -4.2377 H   0  0  0  0  0  0  0  0  0  0  0  0
    2.6661    1.8921   -3.7224 H   0  0  0  0  0  0  0  0  0  0  0  0
    2.2635    3.4824   -4.3626 H   0  0  0  0  0  0  0  0  0  0  0  0
  1  2  1  0  0  0  0 
  2  3  1  0  0  0  0 
  2  4  1  0  0  0  0 
  2  5  1  0  0  0  0 
  5  6  1  0  0  0  0 
  6  7  1  0  0  0  0 
  6  8  1  0  0  0  0 
  8  9  1  0  0  0  0 
  9 10  1  0  0  0  0 
  9 11  2  0  0  0  0 
  1 12  1  0  0  0  0 
  1 13  1  0  0  0  0 
  1 14  1  0  0  0  0 
  3 15  1  0  0  0  0 
  3 16  1  0  0  0  0 
  3 17  1  0  0  0  0 
  4 18  1  0  0  0  0 
  4 19  1  0  0  0  0 
  4 20  1  0  0  0  0 
  5 21  1  0  0  0  0 
  5 22  1  0  0  0  0 
  6 23  1  0  0  0  0 
  7 24  1  0  0  0  0 
  8 25  1  0  0  0  0 
  8 26  1  0  0  0  0 
M  CHG  1   2   1
M  CHG  1  10  -1
M  END
> <cdk:Title>
levocarnitine

> <Conformer>
1

> <SuperDrugID>
SD000443

$$$$
