bedaquiline
  CDK     0628171802

 68 72  0  0  0  0  0  0  0  0999 V2000
   -3.8569    4.0756    0.8227 C   0  0  0  0  0  0  0  0  0  0  0  0
   -2.6465    4.7794    0.9761 C   0  0  0  0  0  0  0  0  0  0  0  0
   -1.5014    4.3766    0.2596 C   0  0  0  0  0  0  0  0  0  0  0  0
   -1.5659    3.2806   -0.6332 C   0  0  0  0  0  0  0  0  0  0  0  0
   -2.7882    2.5795   -0.7802 C   0  0  0  0  0  0  0  0  0  0  0  0
   -3.9259    2.9734   -0.0489 C   0  0  0  0  0  0  0  0  0  0  0  0
   -0.4609    2.8541   -1.4026 C   0  0  0  0  0  0  0  0  0  0  0  0
   -0.5395    1.7456   -2.2896 C   0  0  0  0  0  0  0  0  0  0  0  0
   -1.8042    1.0989   -2.3812 C   0  0  0  0  0  0  0  0  0  0  0  0
   -2.8562    1.5352   -1.6394 N   0  0  0  0  0  0  0  0  0  0  0  0
    0.6418    1.3283   -3.1469 C   0  0  2  0  0  0  0  0  0  0  0  0
    1.9131    0.6732   -2.4236 C   0  0  2  0  0  0  0  0  0  0  0  0
    0.8887    2.4484   -4.1262 C   0  0  0  0  0  0  0  0  0  0  0  0
    0.2756    0.5016   -3.7465 H   0  0  0  0  0  0  0  0  0  0  0  0
    0.1331    2.5122   -5.3279 C   0  0  0  0  0  0  0  0  0  0  0  0
    0.3525    3.5258   -6.2784 C   0  0  0  0  0  0  0  0  0  0  0  0
    1.3317    4.5059   -6.0461 C   0  0  0  0  0  0  0  0  0  0  0  0
    2.0833    4.4733   -4.8590 C   0  0  0  0  0  0  0  0  0  0  0  0
    1.8486    3.4683   -3.9016 C   0  0  0  0  0  0  0  0  0  0  0  0
    1.6898   -0.8116   -1.9308 C   0  0  1  0  0  0  0  0  0  0  0  0
    1.7673   -1.9666   -2.9700 C   0  0  2  0  0  0  0  0  0  0  0  0
    1.8338   -3.3374   -2.3617 N   0  0  1  0  0  0  0  0  0  0  0  0
    1.9609    1.3428   -1.1500 O   0  0  0  0  0  0  0  0  0  0  0  0
    3.2818    0.8041   -3.1210 C   0  0  0  0  0  0  0  0  0  0  0  0
    3.5618    0.6062   -4.5257 C   0  0  0  0  0  0  0  0  0  0  0  0
    4.8740    0.8808   -5.0428 C   0  0  0  0  0  0  0  0  0  0  0  0
    5.9077    1.2948   -4.1815 C   0  0  0  0  0  0  0  0  0  0  0  0
    5.6738    1.4042   -2.8113 C   0  0  0  0  0  0  0  0  0  0  0  0
    4.3962    1.1499   -2.2998 C   0  0  0  0  0  0  0  0  0  0  0  0
    2.6209    0.1188   -5.4755 C   0  0  0  0  0  0  0  0  0  0  0  0
    2.9257   -0.0443   -6.8381 C   0  0  0  0  0  0  0  0  0  0  0  0
    4.2041    0.2684   -7.3121 C   0  0  0  0  0  0  0  0  0  0  0  0
    5.1770    0.7291   -6.4170 C   0  0  0  0  0  0  0  0  0  0  0  0
    0.5706   -3.8066   -1.7211 C   0  0  0  0  0  0  0  0  0  0  0  0
    2.4018   -4.3507   -3.3012 C   0  0  0  0  0  0  0  0  0  0  0  0
   -2.0208    0.0742   -3.2673 O   0  0  0  0  0  0  0  0  0  0  0  0
   -2.5663    6.2445    2.1225 Br  0  0  0  0  0  0  0  0  0  0  0  0
   -2.4052   -1.1739   -2.6684 C   0  0  0  0  0  0  0  0  0  0  0  0
   -4.6894    4.3632    1.3444 H   0  0  0  0  0  0  0  0  0  0  0  0
   -0.6267    4.8918    0.3926 H   0  0  0  0  0  0  0  0  0  0  0  0
   -4.8074    2.4644   -0.1505 H   0  0  0  0  0  0  0  0  0  0  0  0
    0.4134    3.3757   -1.3223 H   0  0  0  0  0  0  0  0  0  0  0  0
   -0.5894    1.8137   -5.5231 H   0  0  0  0  0  0  0  0  0  0  0  0
   -0.1988    3.5485   -7.1394 H   0  0  0  0  0  0  0  0  0  0  0  0
    1.4954    5.2407   -6.7393 H   0  0  0  0  0  0  0  0  0  0  0  0
    2.8016    5.1814   -4.6921 H   0  0  0  0  0  0  0  0  0  0  0  0
    2.3957    3.4876   -3.0402 H   0  0  0  0  0  0  0  0  0  0  0  0
    2.4457   -1.0425   -1.1711 H   0  0  0  0  0  0  0  0  0  0  0  0
    0.7176   -0.8664   -1.4356 H   0  0  0  0  0  0  0  0  0  0  0  0
    2.6848   -1.8189   -3.5354 H   0  0  0  0  0  0  0  0  0  0  0  0
    0.9309   -1.9031   -3.6685 H   0  0  0  0  0  0  0  0  0  0  0  0
    2.2069    2.2705   -1.3411 H   0  0  0  0  0  0  0  0  0  0  0  0
    6.8467    1.4991   -4.5368 H   0  0  0  0  0  0  0  0  0  0  0  0
    6.4358    1.6706   -2.1826 H   0  0  0  0  0  0  0  0  0  0  0  0
    4.3054    1.2265   -1.2848 H   0  0  0  0  0  0  0  0  0  0  0  0
    1.6882   -0.1561   -5.2051 H   0  0  0  0  0  0  0  0  0  0  0  0
    2.2188   -0.3992   -7.4858 H   0  0  0  0  0  0  0  0  0  0  0  0
    4.4301    0.1550   -8.3034 H   0  0  0  0  0  0  0  0  0  0  0  0
    6.1118    0.9434   -6.7787 H   0  0  0  0  0  0  0  0  0  0  0  0
    0.2663   -3.1288   -0.9242 H   0  0  0  0  0  0  0  0  0  0  0  0
    0.7175   -4.7862   -1.2620 H   0  0  0  0  0  0  0  0  0  0  0  0
   -0.2393   -3.8841   -2.4494 H   0  0  0  0  0  0  0  0  0  0  0  0
    3.4020   -4.0490   -3.6193 H   0  0  0  0  0  0  0  0  0  0  0  0
    2.5039   -5.3217   -2.8147 H   0  0  0  0  0  0  0  0  0  0  0  0
    1.7710   -4.4640   -4.1861 H   0  0  0  0  0  0  0  0  0  0  0  0
   -2.3954   -1.9437   -3.4412 H   0  0  0  0  0  0  0  0  0  0  0  0
   -1.7136   -1.4769   -1.8804 H   0  0  0  0  0  0  0  0  0  0  0  0
   -3.4162   -1.1120   -2.2619 H   0  0  0  0  0  0  0  0  0  0  0  0
  1  2  2  0  0  0  0 
  2  3  1  0  0  0  0 
  3  4  2  0  0  0  0 
  4  5  1  0  0  0  0 
  5  6  2  0  0  0  0 
  6  1  1  0  0  0  0 
  4  7  1  0  0  0  0 
  7  8  2  0  0  0  0 
  8  9  1  0  0  0  0 
  9 10  2  0  0  0  0 
 10  5  1  0  0  0  0 
  8 11  1  0  0  0  0 
 11 12  1  0  0  0  0 
 11 13  1  0  0  0  0 
 11 14  1  0  0  0  0 
 13 15  2  0  0  0  0 
 15 16  1  0  0  0  0 
 16 17  2  0  0  0  0 
 17 18  1  0  0  0  0 
 18 19  2  0  0  0  0 
 19 13  1  0  0  0  0 
 12 20  1  0  0  0  0 
 20 21  1  0  0  0  0 
 21 22  1  0  0  0  0 
 12 23  1  0  0  0  0 
 12 24  1  0  0  0  0 
 24 25  2  0  0  0  0 
 25 26  1  0  0  0  0 
 26 27  2  0  0  0  0 
 27 28  1  0  0  0  0 
 28 29  2  0  0  0  0 
 29 24  1  0  0  0  0 
 25 30  1  0  0  0  0 
 30 31  2  0  0  0  0 
 31 32  1  0  0  0  0 
 32 33  2  0  0  0  0 
 33 26  1  0  0  0  0 
 22 34  1  0  0  0  0 
 22 35  1  0  0  0  0 
  9 36  1  0  0  0  0 
  2 37  1  0  0  0  0 
 36 38  1  0  0  0  0 
  1 39  1  0  0  0  0 
  3 40  1  0  0  0  0 
  6 41  1  0  0  0  0 
  7 42  1  0  0  0  0 
 15 43  1  0  0  0  0 
 16 44  1  0  0  0  0 
 17 45  1  0  0  0  0 
 18 46  1  0  0  0  0 
 19 47  1  0  0  0  0 
 20 48  1  0  0  0  0 
 20 49  1  0  0  0  0 
 21 50  1  0  0  0  0 
 21 51  1  0  0  0  0 
 23 52  1  0  0  0  0 
 27 53  1  0  0  0  0 
 28 54  1  0  0  0  0 
 29 55  1  0  0  0  0 
 30 56  1  0  0  0  0 
 31 57  1  0  0  0  0 
 32 58  1  0  0  0  0 
 33 59  1  0  0  0  0 
 34 60  1  0  0  0  0 
 34 61  1  0  0  0  0 
 34 62  1  0  0  0  0 
 35 63  1  0  0  0  0 
 35 64  1  0  0  0  0 
 35 65  1  0  0  0  0 
 38 66  1  0  0  0  0 
 38 67  1  0  0  0  0 
 38 68  1  0  0  0  0 
M  END
> <cdk:Title>
bedaquiline

> <Conformer>
1

> <SuperDrugID>
SD003740

$$$$
