teflurane
  CDK     0628171801

  8  7  0  0  0  0  0  0  0  0999 V2000
    1.5672   -0.0298    0.1655 C   0  0  2  0  0  0  0  0  0  0  0  0
    0.1179   -0.0499    0.7042 C   0  0  1  0  0  0  0  0  0  0  0  0
    2.3541   -0.9073    0.8713 F   0  0  0  0  0  0  0  0  0  0  0  0
    2.1148    1.2259    0.2702 F   0  0  0  0  0  0  0  0  0  0  0  0
    1.5956   -0.4045   -1.1567 F   0  0  0  0  0  0  0  0  0  0  0  0
    0.0496    0.4590    2.5660 Br  0  0  0  0  0  0  0  0  0  0  0  0
   -0.6845    0.8145   -0.0017 F   0  0  0  0  0  0  0  0  0  0  0  0
   -0.2973   -1.0556    0.6121 H   0  0  0  0  0  0  0  0  0  0  0  0
  1  2  1  0  0  0  0 
  1  3  1  0  0  0  0 
  1  4  1  0  0  0  0 
  1  5  1  0  0  0  0 
  2  6  1  0  0  0  0 
  2  7  1  0  0  0  0 
  2  8  1  0  0  0  0 
M  END
> <cdk:Title>
teflurane

> <Conformer>
1

> <SuperDrugID>
SD003078

$$$$
