phenallymal
  CDK     0628171801

 30 31  0  0  0  0  0  0  0  0999 V2000
    2.2199   -1.1778   -0.0808 C   0  0  1  0  0  0  0  0  0  0  0  0
    3.5028   -0.7029    0.4419 C   0  0  0  0  0  0  0  0  0  0  0  0
    2.2485   -1.7070   -1.5715 C   0  0  1  0  0  0  0  0  0  0  0  0
    4.2160   -1.3376    1.3794 C   0  0  0  0  0  0  0  0  0  0  0  0
    2.9034   -0.6344   -2.4078 C   0  0  0  0  0  0  0  0  0  0  0  0
    3.0622   -2.9713   -1.6055 C   0  0  0  0  0  0  0  0  0  0  0  0
    0.8966   -2.0790   -2.1624 C   0  0  0  0  0  0  0  0  0  0  0  0
    2.3574    0.4836   -2.5559 O   0  0  0  0  0  0  0  0  0  0  0  0
    4.1019   -0.8251   -3.0193 N   0  0  0  0  0  0  0  0  0  0  0  0
    2.6795   -4.0008   -1.0003 O   0  0  0  0  0  0  0  0  0  0  0  0
    4.2366   -3.0644   -2.2784 N   0  0  0  0  0  0  0  0  0  0  0  0
   -0.2287   -2.4065   -1.3560 C   0  0  0  0  0  0  0  0  0  0  0  0
    0.7257   -2.1912   -3.5717 C   0  0  0  0  0  0  0  0  0  0  0  0
    4.7537   -2.0128   -2.9596 C   0  0  0  0  0  0  0  0  0  0  0  0
   -1.4574   -2.7949   -1.9216 C   0  0  0  0  0  0  0  0  0  0  0  0
   -0.5050   -2.5675   -4.1420 C   0  0  0  0  0  0  0  0  0  0  0  0
    5.8493   -2.1428   -3.5483 O   0  0  0  0  0  0  0  0  0  0  0  0
   -1.6004   -2.8656   -3.3157 C   0  0  0  0  0  0  0  0  0  0  0  0
    1.8384   -1.9585    0.5835 H   0  0  0  0  0  0  0  0  0  0  0  0
    1.5138   -0.3453   -0.0112 H   0  0  0  0  0  0  0  0  0  0  0  0
    3.8724    0.1462    0.0789 H   0  0  0  0  0  0  0  0  0  0  0  0
    3.8993   -2.1854    1.7805 H   0  0  0  0  0  0  0  0  0  0  0  0
    5.0816   -0.9663    1.6865 H   0  0  0  0  0  0  0  0  0  0  0  0
    4.4994   -0.0953   -3.5155 H   0  0  0  0  0  0  0  0  0  0  0  0
    4.7169   -3.9095   -2.2720 H   0  0  0  0  0  0  0  0  0  0  0  0
   -0.1744   -2.3858   -0.3378 H   0  0  0  0  0  0  0  0  0  0  0  0
    1.5050   -2.0017   -4.2050 H   0  0  0  0  0  0  0  0  0  0  0  0
   -2.2480   -3.0318   -1.3166 H   0  0  0  0  0  0  0  0  0  0  0  0
   -0.6034   -2.6296   -5.1587 H   0  0  0  0  0  0  0  0  0  0  0  0
   -2.4970   -3.1349   -3.7258 H   0  0  0  0  0  0  0  0  0  0  0  0
  1  2  1  0  0  0  0 
  1  3  1  0  0  0  0 
  2  4  2  0  0  0  0 
  3  5  1  0  0  0  0 
  3  6  1  0  0  0  0 
  3  7  1  0  0  0  0 
  5  8  2  0  0  0  0 
  5  9  1  0  0  0  0 
  6 10  2  0  0  0  0 
  6 11  1  0  0  0  0 
  7 12  2  0  0  0  0 
  7 13  1  0  0  0  0 
  9 14  1  0  0  0  0 
 11 14  1  0  0  0  0 
 12 15  1  0  0  0  0 
 13 16  2  0  0  0  0 
 14 17  2  0  0  0  0 
 15 18  2  0  0  0  0 
 16 18  1  0  0  0  0 
 19  1  1  0  0  0  0 
 20  1  1  0  0  0  0 
 21  2  1  0  0  0  0 
 22  4  1  0  0  0  0 
 23  4  1  0  0  0  0 
 24  9  1  0  0  0  0 
 25 11  1  0  0  0  0 
 26 12  1  0  0  0  0 
 27 13  1  0  0  0  0 
 28 15  1  0  0  0  0 
 29 16  1  0  0  0  0 
 30 18  1  0  0  0  0 
M  END
> <cdk:Title>
phenallymal

> <Conformer>
1

> <SuperDrugID>
SD003249

$$$$
