cyverine
  CDK     0628171802

 51 52  0  0  0  0  0  0  0  0999 V2000
    0.6006    4.6206    1.3794 C   0  0  2  0  0  0  0  0  0  0  0  0
   -0.6913    3.9899    0.7783 C   0  0  2  0  0  0  0  0  0  0  0  0
    0.5132    6.1498    1.7052 C   0  0  2  0  0  0  0  0  0  0  0  0
   -0.6998    2.4870    0.6790 N   0  0  1  0  0  0  0  0  0  0  0  0
    0.1927    7.0203    0.4463 C   0  0  1  0  0  0  0  0  0  0  0  0
    1.8300    6.6423    2.3919 C   0  0  2  0  0  0  0  0  0  0  0  0
   -2.0233    1.9209    0.2319 C   0  0  2  0  0  0  0  0  0  0  0  0
    0.4379    1.9487   -0.1318 C   0  0  0  0  0  0  0  0  0  0  0  0
    0.2153    8.5434    0.7331 C   0  0  2  0  0  0  0  0  0  0  0  0
    1.8375    8.1692    2.6721 C   0  0  2  0  0  0  0  0  0  0  0  0
   -3.1723    2.0100    1.2770 C   0  0  1  0  0  0  0  0  0  0  0  0
    1.5464    8.9873    1.3883 C   0  0  2  0  0  0  0  0  0  0  0  0
   -2.8614    1.4154    2.6909 C   0  0  2  0  0  0  0  0  0  0  0  0
   -2.6637   -0.1355    2.6785 C   0  0  1  0  0  0  0  0  0  0  0  0
   -3.9870    1.7987    3.7053 C   0  0  2  0  0  0  0  0  0  0  0  0
   -2.4127   -0.7130    4.0990 C   0  0  2  0  0  0  0  0  0  0  0  0
   -3.7212    1.2361    5.1271 C   0  0  2  0  0  0  0  0  0  0  0  0
   -3.5197   -0.3005    5.1042 C   0  0  2  0  0  0  0  0  0  0  0  0
    1.4255    4.4699    0.6794 H   0  0  0  0  0  0  0  0  0  0  0  0
    0.8378    4.0754    2.2993 H   0  0  0  0  0  0  0  0  0  0  0  0
   -0.8596    4.4071   -0.2173 H   0  0  0  0  0  0  0  0  0  0  0  0
   -1.5162    4.3118    1.4170 H   0  0  0  0  0  0  0  0  0  0  0  0
   -0.2991    6.2862    2.4259 H   0  0  0  0  0  0  0  0  0  0  0  0
    0.9150    6.7980   -0.3428 H   0  0  0  0  0  0  0  0  0  0  0  0
   -0.8026    6.7756    0.0677 H   0  0  0  0  0  0  0  0  0  0  0  0
    2.6869    6.4043    1.7553 H   0  0  0  0  0  0  0  0  0  0  0  0
    1.9686    6.1202    3.3435 H   0  0  0  0  0  0  0  0  0  0  0  0
   -1.9218    0.8629   -0.0228 H   0  0  0  0  0  0  0  0  0  0  0  0
   -2.3471    2.4246   -0.6848 H   0  0  0  0  0  0  0  0  0  0  0  0
    1.3842    2.1330    0.3763 H   0  0  0  0  0  0  0  0  0  0  0  0
    0.3707    0.8664   -0.2483 H   0  0  0  0  0  0  0  0  0  0  0  0
    0.4700    2.4048   -1.1259 H   0  0  0  0  0  0  0  0  0  0  0  0
   -0.6159    8.8002    1.3951 H   0  0  0  0  0  0  0  0  0  0  0  0
    0.0745    9.0878   -0.2045 H   0  0  0  0  0  0  0  0  0  0  0  0
    2.8148    8.4595    3.0702 H   0  0  0  0  0  0  0  0  0  0  0  0
    1.0865    8.4068    3.4306 H   0  0  0  0  0  0  0  0  0  0  0  0
   -3.4535    3.0609    1.3810 H   0  0  0  0  0  0  0  0  0  0  0  0
   -4.0477    1.5002    0.8663 H   0  0  0  0  0  0  0  0  0  0  0  0
    1.4905   10.0506    1.6346 H   0  0  0  0  0  0  0  0  0  0  0  0
    2.3660    8.8537    0.6755 H   0  0  0  0  0  0  0  0  0  0  0  0
   -1.9329    1.8735    3.0498 H   0  0  0  0  0  0  0  0  0  0  0  0
   -3.5468   -0.6200    2.2517 H   0  0  0  0  0  0  0  0  0  0  0  0
   -1.8085   -0.3954    2.0503 H   0  0  0  0  0  0  0  0  0  0  0  0
   -4.9502    1.4206    3.3505 H   0  0  0  0  0  0  0  0  0  0  0  0
   -4.0645    2.8873    3.7768 H   0  0  0  0  0  0  0  0  0  0  0  0
   -1.4450   -0.3582    4.4650 H   0  0  0  0  0  0  0  0  0  0  0  0
   -2.3652   -1.8045    4.0438 H   0  0  0  0  0  0  0  0  0  0  0  0
   -4.5647    1.4828    5.7785 H   0  0  0  0  0  0  0  0  0  0  0  0
   -2.8291    1.7117    5.5451 H   0  0  0  0  0  0  0  0  0  0  0  0
   -3.2449   -0.6449    6.1037 H   0  0  0  0  0  0  0  0  0  0  0  0
   -4.4613   -0.7867    4.8328 H   0  0  0  0  0  0  0  0  0  0  0  0
  1  2  1  0  0  0  0 
  1  3  1  0  0  0  0 
  2  4  1  0  0  0  0 
  3  5  1  0  0  0  0 
  3  6  1  0  0  0  0 
  4  7  1  0  0  0  0 
  4  8  1  0  0  0  0 
  5  9  1  0  0  0  0 
  6 10  1  0  0  0  0 
  7 11  1  0  0  0  0 
  9 12  1  0  0  0  0 
 10 12  1  0  0  0  0 
 11 13  1  0  0  0  0 
 13 14  1  0  0  0  0 
 13 15  1  0  0  0  0 
 14 16  1  0  0  0  0 
 15 17  1  0  0  0  0 
 16 18  1  0  0  0  0 
 17 18  1  0  0  0  0 
  1 19  1  0  0  0  0 
  1 20  1  0  0  0  0 
  2 21  1  0  0  0  0 
  2 22  1  0  0  0  0 
  3 23  1  0  0  0  0 
  5 24  1  0  0  0  0 
  5 25  1  0  0  0  0 
  6 26  1  0  0  0  0 
  6 27  1  0  0  0  0 
  7 28  1  0  0  0  0 
  7 29  1  0  0  0  0 
  8 30  1  0  0  0  0 
  8 31  1  0  0  0  0 
  8 32  1  0  0  0  0 
  9 33  1  0  0  0  0 
  9 34  1  0  0  0  0 
 10 35  1  0  0  0  0 
 10 36  1  0  0  0  0 
 11 37  1  0  0  0  0 
 11 38  1  0  0  0  0 
 12 39  1  0  0  0  0 
 12 40  1  0  0  0  0 
 13 41  1  0  0  0  0 
 14 42  1  0  0  0  0 
 14 43  1  0  0  0  0 
 15 44  1  0  0  0  0 
 15 45  1  0  0  0  0 
 16 46  1  0  0  0  0 
 16 47  1  0  0  0  0 
 17 48  1  0  0  0  0 
 17 49  1  0  0  0  0 
 18 50  1  0  0  0  0 
 18 51  1  0  0  0  0 
M  END
> <cdk:Title>
cyverine

> <Conformer>
1

> <SuperDrugID>
SD000680

$$$$
