taltirelin
  CDK     0628171801

 52 54  0  0  0  0  0  0  0  0999 V2000
   -1.9052   -0.6321   -0.2891 N   0  0  0  0  0  0  0  0  0  0  0  0
   -0.5694   -0.9042   -0.2407 C   0  0  0  0  0  0  0  0  0  0  0  0
    0.3450    0.0334    0.2162 N   0  0  0  0  0  0  0  0  0  0  0  0
   -0.1349    1.2055    0.7816 C   0  0  0  0  0  0  0  0  0  0  0  0
   -1.5773    1.3494    1.1012 C   0  0  1  0  0  0  0  0  0  0  0  0
   -2.4558    0.6606    0.0119 C   0  0  1  0  0  0  0  0  0  0  0  0
    0.6236    2.1591    1.0848 O   0  0  0  0  0  0  0  0  0  0  0  0
    1.7746   -0.1736    0.1157 C   0  0  0  0  0  0  0  0  0  0  0  0
   -0.2297   -2.0380   -0.6515 O   0  0  0  0  0  0  0  0  0  0  0  0
   -2.6760    1.4805   -1.2167 C   0  0  0  0  0  0  0  0  0  0  0  0
   -2.8149    2.7229   -1.1074 O   0  0  0  0  0  0  0  0  0  0  0  0
   -2.7850    0.8973   -2.4489 N   0  0  0  0  0  0  0  0  0  0  0  0
   -2.9925    1.5832   -3.6949 C   0  0  2  0  0  0  0  0  0  0  0  0
   -4.3603    2.1781   -3.8247 C   0  0  0  0  0  0  0  0  0  0  0  0
   -2.7113    0.6989   -4.9508 C   0  0  2  0  0  0  0  0  0  0  0  0
   -1.4293   -0.0338   -4.9410 C   0  0  0  0  0  0  0  0  0  0  0  0
    0.1499   -1.5564   -4.5447 N   0  0  0  0  0  0  0  0  0  0  0  0
   -1.0969   -1.1791   -4.2232 C   0  0  0  0  0  0  0  0  0  0  0  0
   -0.3574    0.2568   -5.6866 N   0  0  0  0  0  0  0  0  0  0  0  0
    0.5876   -0.6638   -5.4485 C   0  0  0  0  0  0  0  0  0  0  0  0
   -4.3918    3.3690   -4.2223 O   0  0  0  0  0  0  0  0  0  0  0  0
   -5.5637    1.5134   -3.6111 N   0  0  0  0  0  0  0  0  0  0  0  0
   -5.6982    0.1932   -3.0686 C   0  0  2  0  0  0  0  0  0  0  0  0
   -6.8504    2.0790   -3.9522 C   0  0  1  0  0  0  0  0  0  0  0  0
   -7.8875    0.9574   -3.6794 C   0  0  2  0  0  0  0  0  0  0  0  0
   -7.0434   -0.3213   -3.6022 C   0  0  1  0  0  0  0  0  0  0  0  0
   -7.2260    3.3285   -3.2437 C   0  0  0  0  0  0  0  0  0  0  0  0
   -6.5792    3.7394   -2.2541 O   0  0  0  0  0  0  0  0  0  0  0  0
   -8.2916    4.0442   -3.6501 N   0  0  0  0  0  0  0  0  0  0  0  0
   -2.5077   -1.3392   -0.5701 H   0  0  0  0  0  0  0  0  0  0  0  0
   -1.7489    0.8424    2.0540 H   0  0  0  0  0  0  0  0  0  0  0  0
   -1.8573    2.3960    1.2445 H   0  0  0  0  0  0  0  0  0  0  0  0
   -3.4449    0.4924    0.4455 H   0  0  0  0  0  0  0  0  0  0  0  0
    2.2354   -0.1022    1.1046 H   0  0  0  0  0  0  0  0  0  0  0  0
    2.2116    0.5885   -0.5334 H   0  0  0  0  0  0  0  0  0  0  0  0
    2.0479   -1.1454   -0.2971 H   0  0  0  0  0  0  0  0  0  0  0  0
   -2.7142   -0.0689   -2.4866 H   0  0  0  0  0  0  0  0  0  0  0  0
   -2.2482    2.3881   -3.7356 H   0  0  0  0  0  0  0  0  0  0  0  0
   -2.7102    1.3562   -5.8283 H   0  0  0  0  0  0  0  0  0  0  0  0
   -3.5063   -0.0318   -5.1171 H   0  0  0  0  0  0  0  0  0  0  0  0
   -1.7039   -1.6716   -3.5681 H   0  0  0  0  0  0  0  0  0  0  0  0
   -0.2834    1.0038   -6.3035 H   0  0  0  0  0  0  0  0  0  0  0  0
    1.5057   -0.6831   -5.8939 H   0  0  0  0  0  0  0  0  0  0  0  0
   -5.7254    0.2585   -1.9777 H   0  0  0  0  0  0  0  0  0  0  0  0
   -4.9072   -0.4954   -3.3607 H   0  0  0  0  0  0  0  0  0  0  0  0
   -6.8393    2.2872   -5.0272 H   0  0  0  0  0  0  0  0  0  0  0  0
   -8.6393    0.8908   -4.4726 H   0  0  0  0  0  0  0  0  0  0  0  0
   -8.4006    1.1022   -2.7219 H   0  0  0  0  0  0  0  0  0  0  0  0
   -6.9194   -0.7575   -4.5997 H   0  0  0  0  0  0  0  0  0  0  0  0
   -7.4865   -1.0653   -2.9331 H   0  0  0  0  0  0  0  0  0  0  0  0
   -8.5373    4.8572   -3.1819 H   0  0  0  0  0  0  0  0  0  0  0  0
   -8.8140    3.7503   -4.4147 H   0  0  0  0  0  0  0  0  0  0  0  0
  1  2  1  0  0  0  0 
  6  1  1  0  0  0  0 
  2  3  1  0  0  0  0 
  3  4  1  0  0  0  0 
  4  5  1  0  0  0  0 
  6  5  1  0  0  0  0 
  4  7  2  0  0  0  0 
  3  8  1  0  0  0  0 
  2  9  2  0  0  0  0 
  6 10  1  0  0  0  0 
 10 11  2  0  0  0  0 
 10 12  1  0  0  0  0 
 13 12  1  0  0  0  0 
 13 14  1  0  0  0  0 
 13 15  1  0  0  0  0 
 15 16  1  0  0  0  0 
 18 16  2  0  0  0  0 
 16 19  1  0  0  0  0 
 17 18  1  0  0  0  0 
 17 20  2  0  0  0  0 
 19 20  1  0  0  0  0 
 14 21  2  0  0  0  0 
 14 22  1  0  0  0  0 
 23 22  1  0  0  0  0 
 22 24  1  0  0  0  0 
 23 26  1  0  0  0  0 
 24 25  1  0  0  0  0 
 25 26  1  0  0  0  0 
 24 27  1  0  0  0  0 
 27 28  2  0  0  0  0 
 27 29  1  0  0  0  0 
 30  1  1  0  0  0  0 
 31  5  1  0  0  0  0 
 32  5  1  0  0  0  0 
  6 33  1  0  0  0  0 
 34  8  1  0  0  0  0 
 35  8  1  0  0  0  0 
 36  8  1  0  0  0  0 
 37 12  1  0  0  0  0 
 13 38  1  0  0  0  0 
 39 15  1  0  0  0  0 
 40 15  1  0  0  0  0 
 41 18  1  0  0  0  0 
 42 19  1  0  0  0  0 
 43 20  1  0  0  0  0 
 44 23  1  0  0  0  0 
 45 23  1  0  0  0  0 
 46 24  1  0  0  0  0 
 47 25  1  0  0  0  0 
 48 25  1  0  0  0  0 
 49 26  1  0  0  0  0 
 50 26  1  0  0  0  0 
 51 29  1  0  0  0  0 
 52 29  1  0  0  0  0 
M  END
> <cdk:Title>
taltirelin

> <Conformer>
1

> <SuperDrugID>
SD002304

$$$$
