betamethasone butyrate propionate
  CDK     0628171801

 76 79  0  0  0  0  0  0  0  0999 V2000
   -3.9967  -10.2352   -4.5070 C   0  0  0  0  0  0  0  0  0  0  0  0
   -4.9751  -11.0847   -3.7808 C   0  0  2  0  0  0  0  0  0  0  0  0
   -4.3076  -10.0623   -5.7079 O   0  0  0  0  0  0  0  0  0  0  0  0
   -2.7528   -9.5969   -3.9215 C   0  0  2  0  0  0  0  0  0  0  0  0
   -4.7693  -11.1758   -2.3678 O   0  0  0  0  0  0  0  0  0  0  0  0
   -2.1279  -10.5602   -3.0288 O   0  0  0  0  0  0  0  0  0  0  0  0
   -3.0487   -8.2730   -3.0850 C   0  0  2  0  0  0  0  0  0  0  0  0
   -1.5810   -9.1192   -4.9043 C   0  0  1  0  0  0  0  0  0  0  0  0
   -5.6273  -11.7395   -1.4647 C   0  0  0  0  0  0  0  0  0  0  0  0
   -1.5549  -11.7753   -3.2977 C   0  0  0  0  0  0  0  0  0  0  0  0
   -4.0169   -7.3212   -3.8987 C   0  0  0  0  0  0  0  0  0  0  0  0
   -1.5928   -7.7190   -2.9099 C   0  0  1  0  0  0  0  0  0  0  0  0
   -3.6254   -8.4489   -1.6296 C   0  0  2  0  0  0  0  0  0  0  0  0
   -1.8079   -9.0275   -6.4394 C   0  0  0  0  0  0  0  0  0  0  0  0
   -1.0159   -7.7824   -4.3335 C   0  0  2  0  0  0  0  0  0  0  0  0
   -5.3087  -11.6547   -0.0271 C   0  0  1  0  0  0  0  0  0  0  0  0
   -6.6933  -12.2904   -1.8323 O   0  0  0  0  0  0  0  0  0  0  0  0
   -0.6324  -12.3528   -2.3015 C   0  0  1  0  0  0  0  0  0  0  0  0
   -1.7250  -12.3442   -4.4014 O   0  0  0  0  0  0  0  0  0  0  0  0
   -1.4640   -6.3890   -2.0862 C   0  0  1  0  0  0  0  0  0  0  0  0
   -3.4940   -7.1920   -0.7016 C   0  0  1  0  0  0  0  0  0  0  0  0
   -6.3095  -10.7597    0.7390 C   0  0  0  0  0  0  0  0  0  0  0  0
   -1.0201  -13.7664   -1.8100 C   0  0  1  0  0  0  0  0  0  0  0  0
   -2.0359   -6.5940   -0.6238 C   0  0  1  0  0  0  0  0  0  0  0  0
    0.0130   -5.8803   -2.0344 C   0  0  1  0  0  0  0  0  0  0  0  0
   -4.4520   -6.2172   -1.1009 O   0  0  0  0  0  0  0  0  0  0  0  0
    0.0515  -14.3708   -0.8703 C   0  0  0  0  0  0  0  0  0  0  0  0
   -1.2867   -7.5995   -0.0234 F   0  0  0  0  0  0  0  0  0  0  0  0
   -1.8249   -5.3054    0.3046 C   0  0  2  0  0  0  0  0  0  0  0  0
    0.1929   -4.6478   -1.1138 C   0  0  2  0  0  0  0  0  0  0  0  0
   -2.6729   -4.0451   -0.1024 C   0  0  0  0  0  0  0  0  0  0  0  0
   -0.3782   -4.9145    0.2132 C   0  0  0  0  0  0  0  0  0  0  0  0
   -2.2397   -5.6037    1.7008 C   0  0  0  0  0  0  0  0  0  0  0  0
    0.4064   -4.8493    1.3137 C   0  0  0  0  0  0  0  0  0  0  0  0
   -1.4037   -5.5258    2.7496 C   0  0  0  0  0  0  0  0  0  0  0  0
   -0.0845   -5.1548    2.5736 C   0  0  0  0  0  0  0  0  0  0  0  0
    0.6783   -5.1066    3.5667 O   0  0  0  0  0  0  0  0  0  0  0  0
   -4.9492  -12.0895   -4.2094 H   0  0  0  0  0  0  0  0  0  0  0  0
   -5.9752  -10.6716   -3.9466 H   0  0  0  0  0  0  0  0  0  0  0  0
   -0.7503   -9.8274   -4.8358 H   0  0  0  0  0  0  0  0  0  0  0  0
   -3.9888   -6.2894   -3.5568 H   0  0  0  0  0  0  0  0  0  0  0  0
   -3.7822   -7.2987   -4.9600 H   0  0  0  0  0  0  0  0  0  0  0  0
   -5.0480   -7.6697   -3.8153 H   0  0  0  0  0  0  0  0  0  0  0  0
   -1.0033   -8.4494   -2.3395 H   0  0  0  0  0  0  0  0  0  0  0  0
   -3.1124   -9.2732   -1.1291 H   0  0  0  0  0  0  0  0  0  0  0  0
   -4.6824   -8.7209   -1.6814 H   0  0  0  0  0  0  0  0  0  0  0  0
   -0.9043   -8.6573   -6.9288 H   0  0  0  0  0  0  0  0  0  0  0  0
   -2.6251   -8.3536   -6.6905 H   0  0  0  0  0  0  0  0  0  0  0  0
   -2.0187  -10.0173   -6.8478 H   0  0  0  0  0  0  0  0  0  0  0  0
   -1.3443   -6.9122   -4.9085 H   0  0  0  0  0  0  0  0  0  0  0  0
    0.0801   -7.7914   -4.3150 H   0  0  0  0  0  0  0  0  0  0  0  0
   -5.3179  -12.6591    0.4003 H   0  0  0  0  0  0  0  0  0  0  0  0
   -4.3038  -11.2433    0.1022 H   0  0  0  0  0  0  0  0  0  0  0  0
    0.3603  -12.3941   -2.7573 H   0  0  0  0  0  0  0  0  0  0  0  0
   -0.5751  -11.6840   -1.4387 H   0  0  0  0  0  0  0  0  0  0  0  0
   -2.0438   -5.6164   -2.5929 H   0  0  0  0  0  0  0  0  0  0  0  0
   -3.7980   -7.5089    0.2997 H   0  0  0  0  0  0  0  0  0  0  0  0
   -6.0318  -10.7118    1.7943 H   0  0  0  0  0  0  0  0  0  0  0  0
   -6.2983   -9.7478    0.3314 H   0  0  0  0  0  0  0  0  0  0  0  0
   -7.3242  -11.1582    0.6634 H   0  0  0  0  0  0  0  0  0  0  0  0
   -1.9743  -13.7020   -1.2774 H   0  0  0  0  0  0  0  0  0  0  0  0
   -1.1410  -14.4340   -2.6687 H   0  0  0  0  0  0  0  0  0  0  0  0
    0.6671   -6.6802   -1.6718 H   0  0  0  0  0  0  0  0  0  0  0  0
    0.3472   -5.6096   -3.0402 H   0  0  0  0  0  0  0  0  0  0  0  0
   -5.3211   -6.6656   -1.0226 H   0  0  0  0  0  0  0  0  0  0  0  0
   -0.2263  -15.3897   -0.5947 H   0  0  0  0  0  0  0  0  0  0  0  0
    0.1372  -13.7749    0.0408 H   0  0  0  0  0  0  0  0  0  0  0  0
    1.0249  -14.4028   -1.3660 H   0  0  0  0  0  0  0  0  0  0  0  0
   -0.2933   -3.7787   -1.5626 H   0  0  0  0  0  0  0  0  0  0  0  0
    1.2607   -4.4102   -1.0712 H   0  0  0  0  0  0  0  0  0  0  0  0
   -2.5976   -3.8299   -1.1681 H   0  0  0  0  0  0  0  0  0  0  0  0
   -2.3317   -3.1580    0.4414 H   0  0  0  0  0  0  0  0  0  0  0  0
   -3.7322   -4.1650    0.1290 H   0  0  0  0  0  0  0  0  0  0  0  0
   -3.1818   -5.8640    1.8843 H   0  0  0  0  0  0  0  0  0  0  0  0
    1.3628   -4.5857    1.2354 H   0  0  0  0  0  0  0  0  0  0  0  0
   -1.7409   -5.7327    3.6625 H   0  0  0  0  0  0  0  0  0  0  0  0
  1  2  1  0  0  0  0 
  1  3  2  0  0  0  0 
  4  1  1  0  0  0  0 
  2  5  1  0  0  0  0 
  4  6  1  0  0  0  0 
  7  4  1  0  0  0  0 
  4  8  1  0  0  0  0 
  5  9  1  0  0  0  0 
  6 10  1  0  0  0  0 
  7 11  1  0  0  0  0 
 12  7  1  0  0  0  0 
  7 13  1  0  0  0  0 
  8 14  1  0  0  0  0 
  8 15  1  0  0  0  0 
  9 16  1  0  0  0  0 
  9 17  2  0  0  0  0 
 10 18  1  0  0  0  0 
 10 19  2  0  0  0  0 
 12 15  1  0  0  0  0 
 20 12  1  0  0  0  0 
 21 13  1  0  0  0  0 
 16 22  1  0  0  0  0 
 18 23  1  0  0  0  0 
 24 20  1  0  0  0  0 
 20 25  1  0  0  0  0 
 24 21  1  0  0  0  0 
 21 26  1  0  0  0  0 
 23 27  1  0  0  0  0 
 24 28  1  0  0  0  0 
 24 29  1  0  0  0  0 
 25 30  1  0  0  0  0 
 29 31  1  0  0  0  0 
 29 32  1  0  0  0  0 
 29 33  1  0  0  0  0 
 30 32  1  0  0  0  0 
 32 34  2  0  0  0  0 
 33 35  2  0  0  0  0 
 34 36  1  0  0  0  0 
 35 36  1  0  0  0  0 
 36 37  2  0  0  0  0 
 38  2  1  0  0  0  0 
 39  2  1  0  0  0  0 
  8 40  1  0  0  0  0 
 41 11  1  0  0  0  0 
 42 11  1  0  0  0  0 
 43 11  1  0  0  0  0 
 12 44  1  0  0  0  0 
 45 13  1  0  0  0  0 
 46 13  1  0  0  0  0 
 47 14  1  0  0  0  0 
 48 14  1  0  0  0  0 
 49 14  1  0  0  0  0 
 50 15  1  0  0  0  0 
 51 15  1  0  0  0  0 
 52 16  1  0  0  0  0 
 53 16  1  0  0  0  0 
 54 18  1  0  0  0  0 
 55 18  1  0  0  0  0 
 20 56  1  0  0  0  0 
 21 57  1  0  0  0  0 
 58 22  1  0  0  0  0 
 59 22  1  0  0  0  0 
 60 22  1  0  0  0  0 
 61 23  1  0  0  0  0 
 62 23  1  0  0  0  0 
 63 25  1  0  0  0  0 
 64 25  1  0  0  0  0 
 65 26  1  0  0  0  0 
 66 27  1  0  0  0  0 
 67 27  1  0  0  0  0 
 68 27  1  0  0  0  0 
 69 30  1  0  0  0  0 
 70 30  1  0  0  0  0 
 71 31  1  0  0  0  0 
 72 31  1  0  0  0  0 
 73 31  1  0  0  0  0 
 74 33  1  0  0  0  0 
 75 34  1  0  0  0  0 
 76 35  1  0  0  0  0 
M  END
> <cdk:Title>
betamethasone butyrate propionate

> <Conformer>
1

> <SuperDrugID>
SD000297

$$$$
