perfluamine
  CDK     0628171801

 31 30  0  0  0  0  0  0  0  0999 V2000
    0.6950   -1.2492   -1.9279 N   0  0  0  0  0  0  0  0  0  0  0  0
    0.1934   -2.6938   -1.9289 C   0  0  2  0  0  0  0  0  0  0  0  0
   -0.3353   -0.1432   -1.6816 C   0  0  2  0  0  0  0  0  0  0  0  0
    2.1772   -0.9983   -1.6595 C   0  0  2  0  0  0  0  0  0  0  0  0
   -0.1945   -3.2353   -3.3533 C   0  0  1  0  0  0  0  0  0  0  0  0
   -0.8842   -2.8485   -1.0796 F   0  0  0  0  0  0  0  0  0  0  0  0
    1.0642   -3.5966   -1.3626 F   0  0  0  0  0  0  0  0  0  0  0  0
   -0.1667    1.2606   -2.3772 C   0  0  2  0  0  0  0  0  0  0  0  0
   -0.4540    0.0424   -0.3240 F   0  0  0  0  0  0  0  0  0  0  0  0
   -1.6087   -0.5423   -2.0333 F   0  0  0  0  0  0  0  0  0  0  0  0
    2.6543   -0.6865   -0.1911 C   0  0  1  0  0  0  0  0  0  0  0  0
    2.6270    0.0147   -2.4693 F   0  0  0  0  0  0  0  0  0  0  0  0
    2.9603   -2.0209   -2.1508 F   0  0  0  0  0  0  0  0  0  0  0  0
    0.9730   -3.4063   -4.3737 C   0  0  1  0  0  0  0  0  0  0  0  0
   -0.8088   -4.4651   -3.2160 F   0  0  0  0  0  0  0  0  0  0  0  0
   -1.1430   -2.4226   -3.9295 F   0  0  0  0  0  0  0  0  0  0  0  0
   -0.1626    1.2612   -3.9399 C   0  0  2  0  0  0  0  0  0  0  0  0
    0.9386    1.9295   -1.9076 F   0  0  0  0  0  0  0  0  0  0  0  0
   -1.2065    2.0814   -1.9797 F   0  0  0  0  0  0  0  0  0  0  0  0
    2.3849   -1.7736    0.8930 C   0  0  2  0  0  0  0  0  0  0  0  0
    4.0190   -0.4673   -0.2072 F   0  0  0  0  0  0  0  0  0  0  0  0
    2.1368    0.5100    0.2477 F   0  0  0  0  0  0  0  0  0  0  0  0
    0.5162   -3.9399   -5.5577 F   0  0  0  0  0  0  0  0  0  0  0  0
    1.5552   -2.2052   -4.6860 F   0  0  0  0  0  0  0  0  0  0  0  0
    1.9502   -4.2529   -3.9094 F   0  0  0  0  0  0  0  0  0  0  0  0
   -1.3274    0.7511   -4.4620 F   0  0  0  0  0  0  0  0  0  0  0  0
    0.8726    0.5387   -4.4705 F   0  0  0  0  0  0  0  0  0  0  0  0
   -0.0354    2.5425   -4.4259 F   0  0  0  0  0  0  0  0  0  0  0  0
    2.8874   -1.3843    2.1134 F   0  0  0  0  0  0  0  0  0  0  0  0
    2.9945   -2.9660    0.5852 F   0  0  0  0  0  0  0  0  0  0  0  0
    1.0453   -1.9987    1.0833 F   0  0  0  0  0  0  0  0  0  0  0  0
  1  2  1  0  0  0  0 
  1  3  1  0  0  0  0 
  1  4  1  0  0  0  0 
  2  5  1  0  0  0  0 
  2  6  1  0  0  0  0 
  2  7  1  0  0  0  0 
  3  8  1  0  0  0  0 
  3  9  1  0  0  0  0 
  3 10  1  0  0  0  0 
  4 11  1  0  0  0  0 
  4 12  1  0  0  0  0 
  4 13  1  0  0  0  0 
  5 14  1  0  0  0  0 
  5 15  1  0  0  0  0 
  5 16  1  0  0  0  0 
  8 17  1  0  0  0  0 
  8 18  1  0  0  0  0 
  8 19  1  0  0  0  0 
 11 20  1  0  0  0  0 
 11 21  1  0  0  0  0 
 11 22  1  0  0  0  0 
 14 23  1  0  0  0  0 
 14 24  1  0  0  0  0 
 14 25  1  0  0  0  0 
 17 26  1  0  0  0  0 
 17 27  1  0  0  0  0 
 17 28  1  0  0  0  0 
 20 29  1  0  0  0  0 
 20 30  1  0  0  0  0 
 20 31  1  0  0  0  0 
M  END
> <cdk:Title>
perfluamine

> <Conformer>
1

> <SuperDrugID>
SD001883

$$$$
