flumequine
  CDK     0628171801

 31 33  0  0  0  0  0  0  0  0999 V2000
   -1.9372   -1.3141   -0.2017 O   0  0  0  0  0  0  0  0  0  0  0  0
   -0.9326   -2.0534   -0.3449 C   0  0  0  0  0  0  0  0  0  0  0  0
   -1.1207   -3.4410   -0.5591 C   0  0  0  0  0  0  0  0  0  0  0  0
    0.3688   -1.4966   -0.2957 C   0  0  0  0  0  0  0  0  0  0  0  0
    0.0228   -4.2781   -0.7338 C   0  0  0  0  0  0  0  0  0  0  0  0
   -2.4178   -4.0082   -0.6093 C   0  0  0  0  0  0  0  0  0  0  0  0
    1.4519   -2.3885   -0.4535 C   0  0  0  0  0  0  0  0  0  0  0  0
    1.2901   -3.7315   -0.6764 N   0  0  0  0  0  0  0  0  0  0  0  0
   -0.1702   -5.6728   -0.9651 C   0  0  0  0  0  0  0  0  0  0  0  0
   -2.5961   -5.3815   -0.8318 C   0  0  0  0  0  0  0  0  0  0  0  0
    2.4962   -4.5356   -0.8666 C   0  0  2  0  0  0  0  0  0  0  0  0
    0.9905   -6.5827   -1.1609 C   0  0  1  0  0  0  0  0  0  0  0  0
   -1.4776   -6.2071   -1.0169 C   0  0  0  0  0  0  0  0  0  0  0  0
   -3.8007   -5.8869   -0.8657 F   0  0  0  0  0  0  0  0  0  0  0  0
    3.0546   -4.3523   -2.3079 C   0  0  0  0  0  0  0  0  0  0  0  0
    2.2685   -6.0284   -0.4939 C   0  0  2  0  0  0  0  0  0  0  0  0
    0.6241   -0.1031   -0.1068 C   0  0  0  0  0  0  0  0  0  0  0  0
    1.8853    0.3958   -0.0828 O   0  0  0  0  0  0  0  0  0  0  0  0
   -0.2890    0.7413    0.0397 O   0  0  0  0  0  0  0  0  0  0  0  0
   -3.2502   -3.4258   -0.4836 H   0  0  0  0  0  0  0  0  0  0  0  0
    2.4029   -2.0120   -0.4054 H   0  0  0  0  0  0  0  0  0  0  0  0
    3.2805   -4.1945   -0.1786 H   0  0  0  0  0  0  0  0  0  0  0  0
    0.7873   -7.5692   -0.7344 H   0  0  0  0  0  0  0  0  0  0  0  0
    1.1591   -6.7176   -2.2322 H   0  0  0  0  0  0  0  0  0  0  0  0
   -1.6238   -7.2062   -1.1848 H   0  0  0  0  0  0  0  0  0  0  0  0
    3.2892   -3.3012   -2.4913 H   0  0  0  0  0  0  0  0  0  0  0  0
    3.9716   -4.9309   -2.4439 H   0  0  0  0  0  0  0  0  0  0  0  0
    2.3235   -4.6746   -3.0503 H   0  0  0  0  0  0  0  0  0  0  0  0
    2.1488   -6.1045    0.5925 H   0  0  0  0  0  0  0  0  0  0  0  0
    3.1337   -6.6378   -0.7723 H   0  0  0  0  0  0  0  0  0  0  0  0
    2.0399    1.3557    0.0404 H   0  0  0  0  0  0  0  0  0  0  0  0
  1  2  2  0  0  0  0 
  2  3  1  0  0  0  0 
  2  4  1  0  0  0  0 
  3  5  1  0  0  0  0 
  3  6  2  0  0  0  0 
  4  7  2  0  0  0  0 
  5  8  1  0  0  0  0 
  5  9  2  0  0  0  0 
  6 10  1  0  0  0  0 
  7  8  1  0  0  0  0 
 11  8  1  0  0  0  0 
  9 12  1  0  0  0  0 
  9 13  1  0  0  0  0 
 10 13  2  0  0  0  0 
 10 14  1  0  0  0  0 
 11 15  1  0  0  0  0 
 11 16  1  0  0  0  0 
 12 16  1  0  0  0  0 
  4 17  1  0  0  0  0 
 17 18  1  0  0  0  0 
 17 19  2  0  0  0  0 
  6 20  1  0  0  0  0 
  7 21  1  0  0  0  0 
 11 22  1  0  0  0  0 
 12 23  1  0  0  0  0 
 12 24  1  0  0  0  0 
 13 25  1  0  0  0  0 
 15 26  1  0  0  0  0 
 15 27  1  0  0  0  0 
 15 28  1  0  0  0  0 
 16 29  1  0  0  0  0 
 16 30  1  0  0  0  0 
 18 31  1  0  0  0  0 
M  END
> <cdk:Title>
flumequine

> <Conformer>
1

> <SuperDrugID>
SD001071

$$$$
