sitosterol
  CDK     0628171801

 80 83  0  0  0  0  0  0  0  0999 V2000
    3.5038    0.9934    2.7818 C   0  0  0  0  0  0  0  0  0  0  0  0
    2.1869    1.3326    1.9732 C   0  0  2  0  0  0  0  0  0  0  0  0
    0.8729    1.0809    2.7934 C   0  0  2  0  0  0  0  0  0  0  0  0
    1.9850    0.3216    0.7745 C   0  0  1  0  0  0  0  0  0  0  0  0
    2.1440    2.8544    1.5801 C   0  0  2  0  0  0  0  0  0  0  0  0
    0.8102    1.8974    4.1301 C   0  0  1  0  0  0  0  0  0  0  0  0
    0.7565   -0.4558    2.8435 C   0  0  1  0  0  0  0  0  0  0  0  0
    3.2021   -0.0659   -0.1670 C   0  0  1  0  0  0  0  0  0  0  0  0
    1.3256   -0.9131    1.4747 C   0  0  2  0  0  0  0  0  0  0  0  0
    2.0450    3.8000    2.8127 C   0  0  2  0  0  0  0  0  0  0  0  0
    0.9073    3.4403    3.8411 C   0  0  2  0  0  0  0  0  0  0  0  0
   -0.4854    1.6324    4.9465 C   0  0  2  0  0  0  0  0  0  0  0  0
    2.8488   -1.0964   -1.3083 C   0  0  2  0  0  0  0  0  0  0  0  0
    3.9429    1.1636   -0.7840 C   0  0  0  0  0  0  0  0  0  0  0  0
    0.9138    4.2778    5.2055 C   0  0  2  0  0  0  0  0  0  0  0  0
   -0.6630    2.5385    6.0691 C   0  0  0  0  0  0  0  0  0  0  0  0
    1.9628   -0.5655   -2.4761 C   0  0  2  0  0  0  0  0  0  0  0  0
    2.3526    4.2711    5.8502 C   0  0  0  0  0  0  0  0  0  0  0  0
   -0.0516    3.7369    6.2165 C   0  0  0  0  0  0  0  0  0  0  0  0
    0.4922    5.7625    4.8718 C   0  0  2  0  0  0  0  0  0  0  0  0
    1.4909   -1.5910   -3.5733 C   0  0  2  0  0  0  0  0  0  0  0  0
   -0.3544    4.5391    7.4257 C   0  0  1  0  0  0  0  0  0  0  0  0
    0.2758    6.6640    6.1151 C   0  0  1  0  0  0  0  0  0  0  0  0
    2.6227   -2.2560   -4.4612 C   0  0  1  0  0  0  0  0  0  0  0  0
    0.3775   -0.8970   -4.4461 C   0  0  1  0  0  0  0  0  0  0  0  0
   -0.7336    6.0050    7.0865 C   0  0  2  0  0  0  0  0  0  0  0  0
    3.5407   -1.2434   -5.2073 C   0  0  0  0  0  0  0  0  0  0  0  0
    3.4612   -3.3579   -3.7441 C   0  0  0  0  0  0  0  0  0  0  0  0
   -0.3958   -1.8108   -5.4267 C   0  0  0  0  0  0  0  0  0  0  0  0
   -0.8179    6.7737    8.2853 O   0  0  0  0  0  0  0  0  0  0  0  0
    1.6397    1.5849    4.7660 H   0  0  0  0  0  0  0  0  0  0  0  0
   -0.0238    3.6872    3.3133 H   0  0  0  0  0  0  0  0  0  0  0  0
    0.0068    1.4153    2.2028 H   0  0  0  0  0  0  0  0  0  0  0  0
    1.2249    0.7587    0.1201 H   0  0  0  0  0  0  0  0  0  0  0  0
    3.6055    1.5776    3.6935 H   0  0  0  0  0  0  0  0  0  0  0  0
    3.5464   -0.0575    3.0719 H   0  0  0  0  0  0  0  0  0  0  0  0
    4.3903    1.2086    2.1924 H   0  0  0  0  0  0  0  0  0  0  0  0
    1.2893    3.0562    0.9266 H   0  0  0  0  0  0  0  0  0  0  0  0
    3.0405    3.1257    1.0234 H   0  0  0  0  0  0  0  0  0  0  0  0
    1.3532   -0.8574    3.6676 H   0  0  0  0  0  0  0  0  0  0  0  0
   -0.2782   -0.7840    2.9761 H   0  0  0  0  0  0  0  0  0  0  0  0
    3.9364   -0.5802    0.4628 H   0  0  0  0  0  0  0  0  0  0  0  0
    2.0601   -1.7039    1.6465 H   0  0  0  0  0  0  0  0  0  0  0  0
    0.5289   -1.3232    0.8460 H   0  0  0  0  0  0  0  0  0  0  0  0
    1.8931    4.8163    2.4395 H   0  0  0  0  0  0  0  0  0  0  0  0
    3.0182    3.7823    3.2968 H   0  0  0  0  0  0  0  0  0  0  0  0
   -0.4565    0.6078    5.3300 H   0  0  0  0  0  0  0  0  0  0  0  0
   -1.3657    1.7183    4.3028 H   0  0  0  0  0  0  0  0  0  0  0  0
    2.3657   -1.9751   -0.8770 H   0  0  0  0  0  0  0  0  0  0  0  0
    3.7923   -1.4390   -1.7311 H   0  0  0  0  0  0  0  0  0  0  0  0
    4.5327    1.6910   -0.0380 H   0  0  0  0  0  0  0  0  0  0  0  0
    3.2306    1.8670   -1.2212 H   0  0  0  0  0  0  0  0  0  0  0  0
    4.6449    0.8535   -1.5607 H   0  0  0  0  0  0  0  0  0  0  0  0
   -1.2932    2.2245    6.7717 H   0  0  0  0  0  0  0  0  0  0  0  0
    2.4750    0.2583   -2.9753 H   0  0  0  0  0  0  0  0  0  0  0  0
    1.0712   -0.1473   -2.0048 H   0  0  0  0  0  0  0  0  0  0  0  0
    3.0564    4.8578    5.2596 H   0  0  0  0  0  0  0  0  0  0  0  0
    2.7419    3.2567    5.9389 H   0  0  0  0  0  0  0  0  0  0  0  0
    2.3740    4.7090    6.8462 H   0  0  0  0  0  0  0  0  0  0  0  0
   -0.4459    5.7597    4.3058 H   0  0  0  0  0  0  0  0  0  0  0  0
    1.2436    6.2399    4.2389 H   0  0  0  0  0  0  0  0  0  0  0  0
    0.9834   -2.4008   -3.0376 H   0  0  0  0  0  0  0  0  0  0  0  0
   -1.1820    4.1246    8.0098 H   0  0  0  0  0  0  0  0  0  0  0  0
    0.5073    4.5294    8.0964 H   0  0  0  0  0  0  0  0  0  0  0  0
    1.2286    6.8420    6.6211 H   0  0  0  0  0  0  0  0  0  0  0  0
   -0.1120    7.6343    5.7918 H   0  0  0  0  0  0  0  0  0  0  0  0
    2.1120   -2.8152   -5.2475 H   0  0  0  0  0  0  0  0  0  0  0  0
   -0.3792   -0.4675   -3.7834 H   0  0  0  0  0  0  0  0  0  0  0  0
    0.8048   -0.0659   -5.0126 H   0  0  0  0  0  0  0  0  0  0  0  0
   -1.7227    6.0096    6.6199 H   0  0  0  0  0  0  0  0  0  0  0  0
    2.9516   -0.5620   -5.8218 H   0  0  0  0  0  0  0  0  0  0  0  0
    4.2302   -1.7692   -5.8712 H   0  0  0  0  0  0  0  0  0  0  0  0
    4.1285   -0.6568   -4.5003 H   0  0  0  0  0  0  0  0  0  0  0  0
    2.8856   -3.8406   -2.9520 H   0  0  0  0  0  0  0  0  0  0  0  0
    3.7555   -4.1314   -4.4584 H   0  0  0  0  0  0  0  0  0  0  0  0
    4.3773   -2.9529   -3.3162 H   0  0  0  0  0  0  0  0  0  0  0  0
   -1.2772   -1.2855   -5.7997 H   0  0  0  0  0  0  0  0  0  0  0  0
    0.2196   -2.0773   -6.2873 H   0  0  0  0  0  0  0  0  0  0  0  0
   -0.7210   -2.7194   -4.9171 H   0  0  0  0  0  0  0  0  0  0  0  0
   -1.0686    7.6757    7.9931 H   0  0  0  0  0  0  0  0  0  0  0  0
  2  1  1  0  0  0  0 
  3  2  1  0  0  0  0 
  2  4  1  0  0  0  0 
  2  5  1  0  0  0  0 
  6  3  1  0  0  0  0 
  3  7  1  0  0  0  0 
  3 33  1  0  0  0  0 
  4  8  1  0  0  0  0 
  4  9  1  0  0  0  0 
  4 34  1  0  0  0  0 
  5 10  1  0  0  0  0 
 11  6  1  0  0  0  0 
  6 12  1  0  0  0  0 
  6 31  1  0  0  0  0 
  7  9  1  0  0  0  0 
  8 13  1  0  0  0  0 
  8 14  1  0  0  0  0 
 11 10  1  0  0  0  0 
 15 11  1  0  0  0  0 
 11 32  1  0  0  0  0 
 12 16  1  0  0  0  0 
 13 17  1  0  0  0  0 
 15 18  1  0  0  0  0 
 15 19  1  0  0  0  0 
 15 20  1  0  0  0  0 
 16 19  2  0  0  0  0 
 21 17  1  0  0  0  0 
 19 22  1  0  0  0  0 
 20 23  1  0  0  0  0 
 21 24  1  0  0  0  0 
 21 25  1  0  0  0  0 
 26 22  1  0  0  0  0 
 26 23  1  0  0  0  0 
 24 27  1  0  0  0  0 
 24 28  1  0  0  0  0 
 25 29  1  0  0  0  0 
 26 30  1  0  0  0  0 
  1 35  1  0  0  0  0 
  1 36  1  0  0  0  0 
  1 37  1  0  0  0  0 
  5 38  1  0  0  0  0 
  5 39  1  0  0  0  0 
  7 40  1  0  0  0  0 
  7 41  1  0  0  0  0 
  8 42  1  0  0  0  0 
  9 43  1  0  0  0  0 
  9 44  1  0  0  0  0 
 10 45  1  0  0  0  0 
 10 46  1  0  0  0  0 
 12 47  1  0  0  0  0 
 12 48  1  0  0  0  0 
 13 49  1  0  0  0  0 
 13 50  1  0  0  0  0 
 14 51  1  0  0  0  0 
 14 52  1  0  0  0  0 
 14 53  1  0  0  0  0 
 16 54  1  0  0  0  0 
 17 55  1  0  0  0  0 
 17 56  1  0  0  0  0 
 18 57  1  0  0  0  0 
 18 58  1  0  0  0  0 
 18 59  1  0  0  0  0 
 20 60  1  0  0  0  0 
 20 61  1  0  0  0  0 
 21 62  1  0  0  0  0 
 22 63  1  0  0  0  0 
 22 64  1  0  0  0  0 
 23 65  1  0  0  0  0 
 23 66  1  0  0  0  0 
 24 67  1  0  0  0  0 
 25 68  1  0  0  0  0 
 25 69  1  0  0  0  0 
 26 70  1  0  0  0  0 
 27 71  1  0  0  0  0 
 27 72  1  0  0  0  0 
 27 73  1  0  0  0  0 
 28 74  1  0  0  0  0 
 28 75  1  0  0  0  0 
 28 76  1  0  0  0  0 
 29 77  1  0  0  0  0 
 29 78  1  0  0  0  0 
 29 79  1  0  0  0  0 
 30 80  1  0  0  0  0 
M  END
> <cdk:Title>
sitosterol

> <Conformer>
1

> <SuperDrugID>
SD002202

$$$$
