gabapentin enacarbil
  CDK     0628171801

 50 50  0  0  0  0  0  0  0  0999 V2000
   -3.5663    0.5321    0.2972 C   0  0  2  0  0  0  0  0  0  0  0  0
   -4.1075   -0.1780   -1.0022 C   0  0  1  0  0  0  0  0  0  0  0  0
   -5.6576   -0.2201   -1.1051 C   0  0  2  0  0  0  0  0  0  0  0  0
   -6.2793    1.1950   -0.9858 C   0  0  2  0  0  0  0  0  0  0  0  0
   -5.7900    1.9456    0.2797 C   0  0  1  0  0  0  0  0  0  0  0  0
   -4.2421    1.9553    0.3774 C   0  0  1  0  0  0  0  0  0  0  0  0
   -2.0157    0.7653    0.1496 C   0  0  1  0  0  0  0  0  0  0  0  0
   -3.8798   -0.3664    1.5622 C   0  0  2  0  0  0  0  0  0  0  0  0
   -3.3352    0.1121    2.8506 C   0  0  0  0  0  0  0  0  0  0  0  0
   -2.2303   -0.4605    3.3796 O   0  0  0  0  0  0  0  0  0  0  0  0
   -3.8849    1.0452    3.4792 O   0  0  0  0  0  0  0  0  0  0  0  0
   -1.2377   -0.4268    0.0161 N   0  0  0  0  0  0  0  0  0  0  0  0
    0.1026   -0.4394   -0.2054 C   0  0  0  0  0  0  0  0  0  0  0  0
    0.7239   -1.6510   -0.3191 O   0  0  0  0  0  0  0  0  0  0  0  0
    0.7572    0.6264   -0.3018 O   0  0  0  0  0  0  0  0  0  0  0  0
    2.1114   -1.8743   -0.6330 C   0  0  1  0  0  0  0  0  0  0  0  0
    2.4941   -3.2101   -0.2761 O   0  0  0  0  0  0  0  0  0  0  0  0
    2.4544   -3.7621    0.9740 C   0  0  0  0  0  0  0  0  0  0  0  0
    2.9815   -5.1333    1.1807 C   0  0  2  0  0  0  0  0  0  0  0  0
    1.8580   -6.1052    1.6297 C   0  0  0  0  0  0  0  0  0  0  0  0
    4.1751   -5.1278    2.1748 C   0  0  0  0  0  0  0  0  0  0  0  0
    1.9802   -3.1169    1.9411 O   0  0  0  0  0  0  0  0  0  0  0  0
    2.3723   -1.6862   -2.1423 C   0  0  0  0  0  0  0  0  0  0  0  0
   -3.7371    0.3481   -1.8870 H   0  0  0  0  0  0  0  0  0  0  0  0
   -3.7256   -1.2006   -1.0632 H   0  0  0  0  0  0  0  0  0  0  0  0
   -6.0672   -0.8671   -0.3268 H   0  0  0  0  0  0  0  0  0  0  0  0
   -5.9395   -0.6559   -2.0662 H   0  0  0  0  0  0  0  0  0  0  0  0
   -7.3685    1.1097   -0.9546 H   0  0  0  0  0  0  0  0  0  0  0  0
   -6.0185    1.7771   -1.8746 H   0  0  0  0  0  0  0  0  0  0  0  0
   -6.1471    2.9785    0.2410 H   0  0  0  0  0  0  0  0  0  0  0  0
   -6.2186    1.4868    1.1736 H   0  0  0  0  0  0  0  0  0  0  0  0
   -3.9477    2.4684    1.2957 H   0  0  0  0  0  0  0  0  0  0  0  0
   -3.8812    2.5750   -0.4495 H   0  0  0  0  0  0  0  0  0  0  0  0
   -1.8301    1.3768   -0.7375 H   0  0  0  0  0  0  0  0  0  0  0  0
   -1.6428    1.3278    1.0097 H   0  0  0  0  0  0  0  0  0  0  0  0
   -3.4809   -1.3721    1.3940 H   0  0  0  0  0  0  0  0  0  0  0  0
   -4.9554   -0.4879    1.7010 H   0  0  0  0  0  0  0  0  0  0  0  0
   -1.8747   -0.1408    4.2369 H   0  0  0  0  0  0  0  0  0  0  0  0
   -1.6963   -1.2799    0.0802 H   0  0  0  0  0  0  0  0  0  0  0  0
    2.7439   -1.1797   -0.0707 H   0  0  0  0  0  0  0  0  0  0  0  0
    3.3634   -5.5025    0.2232 H   0  0  0  0  0  0  0  0  0  0  0  0
    2.2550   -7.1172    1.7368 H   0  0  0  0  0  0  0  0  0  0  0  0
    1.4343   -5.7952    2.5883 H   0  0  0  0  0  0  0  0  0  0  0  0
    1.0586   -6.1312    0.8847 H   0  0  0  0  0  0  0  0  0  0  0  0
    4.5896   -6.1333    2.2736 H   0  0  0  0  0  0  0  0  0  0  0  0
    3.8589   -4.7854    3.1635 H   0  0  0  0  0  0  0  0  0  0  0  0
    4.9690   -4.4682    1.8147 H   0  0  0  0  0  0  0  0  0  0  0  0
    3.4253   -1.8672   -2.3690 H   0  0  0  0  0  0  0  0  0  0  0  0
    1.7647   -2.3879   -2.7172 H   0  0  0  0  0  0  0  0  0  0  0  0
    2.1209   -0.6698   -2.4500 H   0  0  0  0  0  0  0  0  0  0  0  0
  1  2  1  0  0  0  0 
  1  6  1  0  0  0  0 
  2  3  1  0  0  0  0 
  3  4  1  0  0  0  0 
  4  5  1  0  0  0  0 
  5  6  1  0  0  0  0 
  1  7  1  0  0  0  0 
  1  8  1  0  0  0  0 
  8  9  1  0  0  0  0 
  9 10  1  0  0  0  0 
  9 11  2  0  0  0  0 
  7 12  1  0  0  0  0 
 12 13  1  0  0  0  0 
 13 14  1  0  0  0  0 
 13 15  2  0  0  0  0 
 16 14  1  0  0  0  0 
 16 17  1  0  0  0  0 
 17 18  1  0  0  0  0 
 18 19  1  0  0  0  0 
 19 20  1  0  0  0  0 
 19 21  1  0  0  0  0 
 18 22  2  0  0  0  0 
 16 23  1  0  0  0  0 
 24  2  1  0  0  0  0 
 25  2  1  0  0  0  0 
 26  3  1  0  0  0  0 
 27  3  1  0  0  0  0 
 28  4  1  0  0  0  0 
 29  4  1  0  0  0  0 
 30  5  1  0  0  0  0 
 31  5  1  0  0  0  0 
 32  6  1  0  0  0  0 
 33  6  1  0  0  0  0 
 34  7  1  0  0  0  0 
 35  7  1  0  0  0  0 
 36  8  1  0  0  0  0 
 37  8  1  0  0  0  0 
 38 10  1  0  0  0  0 
 39 12  1  0  0  0  0 
 40 16  1  0  0  0  0 
 41 19  1  0  0  0  0 
 42 20  1  0  0  0  0 
 43 20  1  0  0  0  0 
 44 20  1  0  0  0  0 
 45 21  1  0  0  0  0 
 46 21  1  0  0  0  0 
 47 21  1  0  0  0  0 
 48 23  1  0  0  0  0 
 49 23  1  0  0  0  0 
 50 23  1  0  0  0  0 
M  END
> <cdk:Title>
gabapentin enacarbil

> <Conformer>
1

> <SuperDrugID>
SD003408

$$$$
