ubenimex
  CDK     0628171801

 46 46  0  0  0  0  0  0  0  0999 V2000
    3.0376    2.6037   -2.1932 C   0  0  2  0  0  0  0  0  0  0  0  0
    2.5364    3.9468   -1.5688 C   0  0  2  0  0  0  0  0  0  0  0  0
    3.9427    2.7411   -3.3693 C   0  0  0  0  0  0  0  0  0  0  0  0
    1.3914    4.6886   -2.3299 C   0  0  1  0  0  0  0  0  0  0  0  0
    3.6627    4.8761   -1.3718 N   0  0  1  0  0  0  0  0  0  0  0  0
    5.3492    2.7707   -3.1975 C   0  0  0  0  0  0  0  0  0  0  0  0
    3.4190    2.8238   -4.6807 C   0  0  0  0  0  0  0  0  0  0  0  0
    0.2169    3.8380   -2.6333 C   0  0  0  0  0  0  0  0  0  0  0  0
    0.9247    5.7748   -1.5305 O   0  0  0  0  0  0  0  0  0  0  0  0
    6.2054    2.8757   -4.3090 C   0  0  0  0  0  0  0  0  0  0  0  0
    4.2740    2.9229   -5.7931 C   0  0  0  0  0  0  0  0  0  0  0  0
   -0.2527    3.7633   -3.9106 N   0  0  0  0  0  0  0  0  0  0  0  0
   -0.3068    3.1717   -1.7081 O   0  0  0  0  0  0  0  0  0  0  0  0
    5.6676    2.9524   -5.6061 C   0  0  0  0  0  0  0  0  0  0  0  0
   -1.2655    2.8643   -4.3827 C   0  0  1  0  0  0  0  0  0  0  0  0
   -2.7064    3.1814   -3.8557 C   0  0  2  0  0  0  0  0  0  0  0  0
   -1.1984    2.8792   -5.8614 C   0  0  0  0  0  0  0  0  0  0  0  0
   -3.7492    2.0268   -4.0509 C   0  0  2  0  0  0  0  0  0  0  0  0
   -0.7999    1.7820   -6.5435 O   0  0  0  0  0  0  0  0  0  0  0  0
   -1.4898    3.9068   -6.5153 O   0  0  0  0  0  0  0  0  0  0  0  0
   -5.2029    2.5431   -3.8588 C   0  0  0  0  0  0  0  0  0  0  0  0
   -3.4933    0.8204   -3.1002 C   0  0  0  0  0  0  0  0  0  0  0  0
    2.1849    1.9734   -2.4600 H   0  0  0  0  0  0  0  0  0  0  0  0
    3.5640    2.0499   -1.4098 H   0  0  0  0  0  0  0  0  0  0  0  0
    2.1609    3.7097   -0.5670 H   0  0  0  0  0  0  0  0  0  0  0  0
    1.7934    5.1096   -3.2580 H   0  0  0  0  0  0  0  0  0  0  0  0
    4.4376    4.3336   -0.9871 H   0  0  0  0  0  0  0  0  0  0  0  0
    3.9604    5.1912   -2.2981 H   0  0  0  0  0  0  0  0  0  0  0  0
    5.7587    2.7153   -2.2591 H   0  0  0  0  0  0  0  0  0  0  0  0
    2.4094    2.8063   -4.8351 H   0  0  0  0  0  0  0  0  0  0  0  0
    1.7260    6.2980   -1.3173 H   0  0  0  0  0  0  0  0  0  0  0  0
    7.2182    2.8937   -4.1741 H   0  0  0  0  0  0  0  0  0  0  0  0
    3.8801    2.9705   -6.7349 H   0  0  0  0  0  0  0  0  0  0  0  0
    0.1663    4.3479   -4.5626 H   0  0  0  0  0  0  0  0  0  0  0  0
    6.2909    3.0275   -6.4118 H   0  0  0  0  0  0  0  0  0  0  0  0
   -0.9678    1.8689   -4.0491 H   0  0  0  0  0  0  0  0  0  0  0  0
   -3.0665    4.0853   -4.3588 H   0  0  0  0  0  0  0  0  0  0  0  0
   -2.6641    3.4208   -2.7899 H   0  0  0  0  0  0  0  0  0  0  0  0
   -3.6771    1.6591   -5.0792 H   0  0  0  0  0  0  0  0  0  0  0  0
   -0.7321    1.8088   -7.5201 H   0  0  0  0  0  0  0  0  0  0  0  0
   -5.9218    1.7402   -4.0350 H   0  0  0  0  0  0  0  0  0  0  0  0
   -5.3470    2.9224   -2.8454 H   0  0  0  0  0  0  0  0  0  0  0  0
   -5.4191    3.3454   -4.5657 H   0  0  0  0  0  0  0  0  0  0  0  0
   -4.2561    0.0524   -3.2359 H   0  0  0  0  0  0  0  0  0  0  0  0
   -3.5063    1.1414   -2.0568 H   0  0  0  0  0  0  0  0  0  0  0  0
   -2.5317    0.3531   -3.3050 H   0  0  0  0  0  0  0  0  0  0  0  0
  2  1  1  0  0  0  0 
  1  3  1  0  0  0  0 
  4  2  1  0  0  0  0 
  2  5  1  0  0  0  0 
  3  6  2  0  0  0  0 
  3  7  1  0  0  0  0 
  4  8  1  0  0  0  0 
  4  9  1  0  0  0  0 
  6 10  1  0  0  0  0 
  7 11  2  0  0  0  0 
  8 12  1  0  0  0  0 
  8 13  2  0  0  0  0 
 10 14  2  0  0  0  0 
 11 14  1  0  0  0  0 
 15 12  1  0  0  0  0 
 15 16  1  0  0  0  0 
 15 17  1  0  0  0  0 
 16 18  1  0  0  0  0 
 17 19  1  0  0  0  0 
 17 20  2  0  0  0  0 
 18 21  1  0  0  0  0 
 18 22  1  0  0  0  0 
  1 23  1  0  0  0  0 
  1 24  1  0  0  0  0 
  2 25  1  0  0  0  0 
  4 26  1  0  0  0  0 
  5 27  1  0  0  0  0 
  5 28  1  0  0  0  0 
  6 29  1  0  0  0  0 
  7 30  1  0  0  0  0 
  9 31  1  0  0  0  0 
 10 32  1  0  0  0  0 
 11 33  1  0  0  0  0 
 12 34  1  0  0  0  0 
 14 35  1  0  0  0  0 
 15 36  1  0  0  0  0 
 16 37  1  0  0  0  0 
 16 38  1  0  0  0  0 
 18 39  1  0  0  0  0 
 19 40  1  0  0  0  0 
 21 41  1  0  0  0  0 
 21 42  1  0  0  0  0 
 21 43  1  0  0  0  0 
 22 44  1  0  0  0  0 
 22 45  1  0  0  0  0 
 22 46  1  0  0  0  0 
M  END
> <cdk:Title>
ubenimex

> <Conformer>
1

> <SuperDrugID>
SD002516

$$$$
