lindane
  CDK     0628171801

 18 18  0  0  0  0  0  0  0  0999 V2000
   -0.7024    4.4750   -0.4612 Cl  0  0  0  0  0  0  0  0  0  0  0  0
   -0.1761    3.1556    0.5958 C   0  0  1  0  0  0  0  0  0  0  0  0
   -0.9448    1.8368    0.2617 C   0  0  1  0  0  0  0  0  0  0  0  0
    1.3749    2.9647    0.5918 C   0  0  1  0  0  0  0  0  0  0  0  0
   -0.8323    1.3973   -1.4501 Cl  0  0  0  0  0  0  0  0  0  0  0  0
   -0.4993    0.6482    1.1760 C   0  0  2  0  0  0  0  0  0  0  0  0
    2.1770    4.4717    1.0606 Cl  0  0  0  0  0  0  0  0  0  0  0  0
    1.7929    1.8080    1.5566 C   0  0  1  0  0  0  0  0  0  0  0  0
   -1.1742    0.8398    2.8020 Cl  0  0  0  0  0  0  0  0  0  0  0  0
    1.0520    0.4652    1.2523 C   0  0  2  0  0  0  0  0  0  0  0  0
    3.5454    1.5660    1.6095 Cl  0  0  0  0  0  0  0  0  0  0  0  0
    1.6668   -0.3416   -0.1994 Cl  0  0  0  0  0  0  0  0  0  0  0  0
   -0.4702    3.4652    1.6030 H   0  0  0  0  0  0  0  0  0  0  0  0
   -2.0107    2.0143    0.4285 H   0  0  0  0  0  0  0  0  0  0  0  0
    1.7068    2.7267   -0.4208 H   0  0  0  0  0  0  0  0  0  0  0  0
   -0.9485   -0.2761    0.8009 H   0  0  0  0  0  0  0  0  0  0  0  0
    1.5184    2.1090    2.5717 H   0  0  0  0  0  0  0  0  0  0  0  0
    1.2730   -0.2313    2.0655 H   0  0  0  0  0  0  0  0  0  0  0  0
  2  1  1  0  0  0  0 
  3  2  1  0  0  0  0 
  4  2  1  0  0  0  0 
  3  5  1  0  0  0  0 
  6  3  1  0  0  0  0 
  4  7  1  0  0  0  0 
  8  4  1  0  0  0  0 
  6  9  1  0  0  0  0 
 10  6  1  0  0  0  0 
 10  8  1  0  0  0  0 
  8 11  1  0  0  0  0 
 10 12  1  0  0  0  0 
  2 13  1  0  0  0  0 
  3 14  1  0  0  0  0 
  4 15  1  0  0  0  0 
  6 16  1  0  0  0  0 
  8 17  1  0  0  0  0 
 10 18  1  0  0  0  0 
M  END
> <cdk:Title>
lindane

> <Conformer>
1

> <SuperDrugID>
SD001398

$$$$
