rivastigmine
  CDK     0628171801

 40 40  0  0  0  0  0  0  0  0999 V2000
    5.2703    1.7621   -5.1632 C   0  0  0  0  0  0  0  0  0  0  0  0
    4.2214    0.8675   -4.4639 C   0  0  2  0  0  0  0  0  0  0  0  0
    4.8427   -0.2520   -3.7804 N   0  0  0  0  0  0  0  0  0  0  0  0
    5.1894   -1.4372   -4.5367 C   0  0  0  0  0  0  0  0  0  0  0  0
    5.1344   -0.1953   -2.4281 C   0  0  0  0  0  0  0  0  0  0  0  0
    5.6484   -1.1842   -1.8498 O   0  0  0  0  0  0  0  0  0  0  0  0
    4.8246    0.9147   -1.6801 O   0  0  0  0  0  0  0  0  0  0  0  0
    5.1478    1.2370   -0.3851 C   0  0  0  0  0  0  0  0  0  0  0  0
    4.2492    2.0465    0.3380 C   0  0  0  0  0  0  0  0  0  0  0  0
    4.5382    2.4273    1.6598 C   0  0  0  0  0  0  0  0  0  0  0  0
    5.7383    2.0114    2.2683 C   0  0  0  0  0  0  0  0  0  0  0  0
    6.6747    1.2238    1.5582 C   0  0  0  0  0  0  0  0  0  0  0  0
    6.3552    0.8378    0.2334 C   0  0  0  0  0  0  0  0  0  0  0  0
    7.9773    0.8066    2.1807 C   0  0  2  0  0  0  0  0  0  0  0  0
    9.1349    1.5177    1.4096 C   0  0  0  0  0  0  0  0  0  0  0  0
    8.1036   -0.7013    2.2525 N   0  0  1  0  0  0  0  0  0  0  0  0
    9.4416   -1.1973    2.7019 C   0  0  0  0  0  0  0  0  0  0  0  0
    7.0063   -1.3599    3.0334 C   0  0  0  0  0  0  0  0  0  0  0  0
    5.9794    2.1528   -4.4316 H   0  0  0  0  0  0  0  0  0  0  0  0
    4.7766    2.6050   -5.6505 H   0  0  0  0  0  0  0  0  0  0  0  0
    5.8187    1.1974   -5.9192 H   0  0  0  0  0  0  0  0  0  0  0  0
    3.5090    0.5060   -5.2125 H   0  0  0  0  0  0  0  0  0  0  0  0
    3.6450    1.4932   -3.7762 H   0  0  0  0  0  0  0  0  0  0  0  0
    4.5998   -2.2856   -4.1838 H   0  0  0  0  0  0  0  0  0  0  0  0
    6.2498   -1.6711   -4.4114 H   0  0  0  0  0  0  0  0  0  0  0  0
    5.0046   -1.3258   -5.6071 H   0  0  0  0  0  0  0  0  0  0  0  0
    3.3740    2.3525   -0.0941 H   0  0  0  0  0  0  0  0  0  0  0  0
    3.8731    3.0032    2.1828 H   0  0  0  0  0  0  0  0  0  0  0  0
    5.9182    2.2889    3.2363 H   0  0  0  0  0  0  0  0  0  0  0  0
    7.0259    0.2781   -0.2956 H   0  0  0  0  0  0  0  0  0  0  0  0
    8.0257    1.1870    3.2078 H   0  0  0  0  0  0  0  0  0  0  0  0
   10.0563    1.5065    1.9963 H   0  0  0  0  0  0  0  0  0  0  0  0
    9.3275    1.0192    0.4565 H   0  0  0  0  0  0  0  0  0  0  0  0
    8.8945    2.5659    1.2110 H   0  0  0  0  0  0  0  0  0  0  0  0
    9.6982   -0.7944    3.6852 H   0  0  0  0  0  0  0  0  0  0  0  0
   10.2100   -0.9110    1.9837 H   0  0  0  0  0  0  0  0  0  0  0  0
    9.4656   -2.2885    2.7546 H   0  0  0  0  0  0  0  0  0  0  0  0
    6.9922   -1.0078    4.0693 H   0  0  0  0  0  0  0  0  0  0  0  0
    7.1243   -2.4452    3.0374 H   0  0  0  0  0  0  0  0  0  0  0  0
    6.0348   -1.1607    2.5794 H   0  0  0  0  0  0  0  0  0  0  0  0
  1  2  1  0  0  0  0 
  2  3  1  0  0  0  0 
  3  4  1  0  0  0  0 
  3  5  1  0  0  0  0 
  5  6  2  0  0  0  0 
  5  7  1  0  0  0  0 
  7  8  1  0  0  0  0 
  8  9  2  0  0  0  0 
  9 10  1  0  0  0  0 
 10 11  2  0  0  0  0 
 11 12  1  0  0  0  0 
 12 13  2  0  0  0  0 
  8 13  1  0  0  0  0 
 12 14  1  0  0  0  0 
 14 15  1  0  0  0  0 
 14 16  1  0  0  0  0 
 16 17  1  0  0  0  0 
 16 18  1  0  0  0  0 
  1 19  1  0  0  0  0 
  1 20  1  0  0  0  0 
  1 21  1  0  0  0  0 
  2 22  1  0  0  0  0 
  2 23  1  0  0  0  0 
  4 24  1  0  0  0  0 
  4 25  1  0  0  0  0 
  4 26  1  0  0  0  0 
  9 27  1  0  0  0  0 
 10 28  1  0  0  0  0 
 11 29  1  0  0  0  0 
 13 30  1  0  0  0  0 
 14 31  1  0  0  0  0 
 15 32  1  0  0  0  0 
 15 33  1  0  0  0  0 
 15 34  1  0  0  0  0 
 17 35  1  0  0  0  0 
 17 36  1  0  0  0  0 
 17 37  1  0  0  0  0 
 18 38  1  0  0  0  0 
 18 39  1  0  0  0  0 
 18 40  1  0  0  0  0 
M  END
> <cdk:Title>
rivastigmine

> <Conformer>
1

> <SuperDrugID>
SD002153

$$$$
