ethyl biscoumacetate
  CDK     0628171801

 46 49  0  0  0  0  0  0  0  0999 V2000
    1.9831    1.6116    2.5990 C   0  0  2  0  0  0  0  0  0  0  0  0
    2.1970    2.1363    3.9779 C   0  0  0  0  0  0  0  0  0  0  0  0
    0.7731    0.7328    2.3789 C   0  0  0  0  0  0  0  0  0  0  0  0
    3.2651    1.0176    2.0726 C   0  0  0  0  0  0  0  0  0  0  0  0
    2.7594    1.3433    4.9346 O   0  0  0  0  0  0  0  0  0  0  0  0
    1.8790    3.3169    4.2616 O   0  0  0  0  0  0  0  0  0  0  0  0
    0.2237    0.6112    1.0694 C   0  0  0  0  0  0  0  0  0  0  0  0
    0.1079    0.0154    3.4098 C   0  0  0  0  0  0  0  0  0  0  0  0
    4.1143    1.7282    1.1769 C   0  0  0  0  0  0  0  0  0  0  0  0
    3.7026   -0.2696    2.4795 C   0  0  0  0  0  0  0  0  0  0  0  0
    3.0304    1.6946    6.2950 C   0  0  2  0  0  0  0  0  0  0  0  0
    0.8755    1.1965    0.0246 O   0  0  0  0  0  0  0  0  0  0  0  0
   -0.9867   -0.0873    0.8268 C   0  0  0  0  0  0  0  0  0  0  0  0
    0.4884   -0.0411    4.5988 O   0  0  0  0  0  0  0  0  0  0  0  0
   -1.0292   -0.6835    3.1482 O   0  0  0  0  0  0  0  0  0  0  0  0
    3.7555    2.9775    0.7713 O   0  0  0  0  0  0  0  0  0  0  0  0
    5.3326    1.1751    0.7082 C   0  0  0  0  0  0  0  0  0  0  0  0
    3.0589   -0.9934    3.2736 O   0  0  0  0  0  0  0  0  0  0  0  0
    4.8799   -0.7792    2.0249 O   0  0  0  0  0  0  0  0  0  0  0  0
    3.6156    0.4720    7.0223 C   0  0  0  0  0  0  0  0  0  0  0  0
   -1.6011   -0.7479    1.9187 C   0  0  0  0  0  0  0  0  0  0  0  0
   -1.6227   -0.1418   -0.4372 C   0  0  0  0  0  0  0  0  0  0  0  0
    5.6999   -0.1141    1.1687 C   0  0  0  0  0  0  0  0  0  0  0  0
    6.2015    1.8387   -0.1938 C   0  0  0  0  0  0  0  0  0  0  0  0
   -2.8008   -1.4630    1.7531 C   0  0  0  0  0  0  0  0  0  0  0  0
   -2.8372   -0.8355   -0.5995 C   0  0  0  0  0  0  0  0  0  0  0  0
    6.9043   -0.7152    0.7579 C   0  0  0  0  0  0  0  0  0  0  0  0
    7.4109    1.2419   -0.5977 C   0  0  0  0  0  0  0  0  0  0  0  0
   -3.4247   -1.4961    0.4946 C   0  0  0  0  0  0  0  0  0  0  0  0
    7.7651   -0.0323   -0.1195 C   0  0  0  0  0  0  0  0  0  0  0  0
    1.7507    2.5120    2.0240 H   0  0  0  0  0  0  0  0  0  0  0  0
    2.1076    2.0086    6.7913 H   0  0  0  0  0  0  0  0  0  0  0  0
    3.7488    2.5175    6.3192 H   0  0  0  0  0  0  0  0  0  0  0  0
    0.7091    0.6195   -0.7510 H   0  0  0  0  0  0  0  0  0  0  0  0
    4.5842    3.4991    0.7260 H   0  0  0  0  0  0  0  0  0  0  0  0
    2.8931   -0.3468    7.0184 H   0  0  0  0  0  0  0  0  0  0  0  0
    3.8499    0.7327    8.0555 H   0  0  0  0  0  0  0  0  0  0  0  0
    4.5300    0.1433    6.5260 H   0  0  0  0  0  0  0  0  0  0  0  0
   -1.2209    0.3280   -1.2495 H   0  0  0  0  0  0  0  0  0  0  0  0
    5.9675    2.7588   -0.5684 H   0  0  0  0  0  0  0  0  0  0  0  0
   -3.2236   -1.9493    2.5473 H   0  0  0  0  0  0  0  0  0  0  0  0
   -3.2937   -0.8596   -1.5140 H   0  0  0  0  0  0  0  0  0  0  0  0
    7.1563   -1.6469    1.0941 H   0  0  0  0  0  0  0  0  0  0  0  0
    8.0321    1.7329   -1.2450 H   0  0  0  0  0  0  0  0  0  0  0  0
   -4.3076   -1.9977    0.3757 H   0  0  0  0  0  0  0  0  0  0  0  0
    8.6454   -0.4615   -0.4104 H   0  0  0  0  0  0  0  0  0  0  0  0
  1  2  1  0  0  0  0 
  1  3  1  0  0  0  0 
  1  4  1  0  0  0  0 
  2  5  1  0  0  0  0 
  2  6  2  0  0  0  0 
  3  7  2  0  0  0  0 
  3  8  1  0  0  0  0 
  4  9  2  0  0  0  0 
  4 10  1  0  0  0  0 
  5 11  1  0  0  0  0 
  7 12  1  0  0  0  0 
  7 13  1  0  0  0  0 
  8 14  2  0  0  0  0 
  8 15  1  0  0  0  0 
  9 16  1  0  0  0  0 
  9 17  1  0  0  0  0 
 10 18  2  0  0  0  0 
 10 19  1  0  0  0  0 
 11 20  1  0  0  0  0 
 13 21  1  0  0  0  0 
 13 22  2  0  0  0  0 
 15 21  1  0  0  0  0 
 17 23  1  0  0  0  0 
 17 24  2  0  0  0  0 
 19 23  1  0  0  0  0 
 21 25  2  0  0  0  0 
 22 26  1  0  0  0  0 
 23 27  2  0  0  0  0 
 24 28  1  0  0  0  0 
 25 29  1  0  0  0  0 
 26 29  2  0  0  0  0 
 27 30  1  0  0  0  0 
 28 30  2  0  0  0  0 
  1 31  1  0  0  0  0 
 11 32  1  0  0  0  0 
 11 33  1  0  0  0  0 
 12 34  1  0  0  0  0 
 16 35  1  0  0  0  0 
 20 36  1  0  0  0  0 
 20 37  1  0  0  0  0 
 20 38  1  0  0  0  0 
 22 39  1  0  0  0  0 
 24 40  1  0  0  0  0 
 25 41  1  0  0  0  0 
 26 42  1  0  0  0  0 
 27 43  1  0  0  0  0 
 28 44  1  0  0  0  0 
 29 45  1  0  0  0  0 
 30 46  1  0  0  0  0 
M  END
> <cdk:Title>
ethyl biscoumacetate

> <Conformer>
1

> <SuperDrugID>
SD000974

$$$$
