sermorelin
  CDK     0628171801

482484  0  0  0  0  0  0  0  0999 V2000
   -1.4425   -0.3235   12.2261 N   0  0  2  0  0  0  0  0  0  0  0  0
   -2.8502    2.6423   11.4300 N   0  0  0  0  0  0  0  0  0  0  0  0
   -2.9875    5.8122   10.9139 N   0  0  0  0  0  0  0  0  0  0  0  0
   -4.0278    8.5451   12.5882 N   0  0  0  0  0  0  0  0  0  0  0  0
   -5.8090   10.8684   11.4362 N   0  0  0  0  0  0  0  0  0  0  0  0
   -7.8496   11.1521    9.5761 N   0  0  0  0  0  0  0  0  0  0  0  0
   -9.6307   13.4155   10.5436 N   0  0  0  0  0  0  0  0  0  0  0  0
   -9.6237   14.9877   12.9005 N   0  0  0  0  0  0  0  0  0  0  0  0
  -11.6753   14.3661   15.2369 N   0  0  0  0  0  0  0  0  0  0  0  0
  -12.7710   11.1511   15.6651 N   0  0  0  0  0  0  0  0  0  0  0  0
  -15.8329   11.0039   15.2363 N   0  0  0  0  0  0  0  0  0  0  0  0
  -17.5140   13.4566   15.9670 N   0  0  0  0  0  0  0  0  0  0  0  0
  -19.5161   12.0048   18.1268 N   0  0  0  0  0  0  0  0  0  0  0  0
  -20.4721    9.2887   18.9126 N   0  0  0  0  0  0  0  0  0  0  0  0
  -21.4070    6.4466   17.8180 N   0  0  0  0  0  0  0  0  0  0  0  0
  -18.9717    3.6828   17.8766 N   0  0  0  0  0  0  0  0  0  0  0  0
  -18.3611    0.6801   17.4706 N   0  0  0  0  0  0  0  0  0  0  0  0
  -17.0668   -0.6536   19.8057 N   0  0  0  0  0  0  0  0  0  0  0  0
  -14.0246   -1.1260   18.4614 N   0  0  0  0  0  0  0  0  0  0  0  0
  -12.8400   -2.5638   15.9610 N   0  0  0  0  0  0  0  0  0  0  0  0
  -12.4665   -4.3617   13.8150 N   0  0  0  0  0  0  0  0  0  0  0  0
   -9.8761   -5.0101   12.2384 N   0  0  0  0  0  0  0  0  0  0  0  0
   -7.4652   -3.1498   12.3267 N   0  0  0  0  0  0  0  0  0  0  0  0
   -6.3589   -3.5418    9.5581 N   0  0  0  0  0  0  0  0  0  0  0  0
   -3.7810   -5.0940   10.0709 N   0  0  0  0  0  0  0  0  0  0  0  0
   -1.6299   -3.1717    9.1142 N   0  0  0  0  0  0  0  0  0  0  0  0
   -1.1674   -4.8420    6.2447 N   0  0  0  0  0  0  0  0  0  0  0  0
   -1.8837   -7.1244    4.1513 N   0  0  0  0  0  0  0  0  0  0  0  0
   -2.1673   -9.7848    2.7319 N   0  0  0  0  0  0  0  0  0  0  0  0
   -4.6767   -9.3251    0.4883 N   0  0  0  0  0  0  0  0  0  0  0  0
   -1.8455    1.7611   11.1636 C   0  0  0  0  0  0  0  0  0  0  0  0
    0.4380    1.3157   12.2181 C   0  0  1  0  0  0  0  0  0  0  0  0
    0.9284    2.5833   12.8425 C   0  0  0  0  0  0  0  0  0  0  0  0
    1.9095    2.5479   13.8641 C   0  0  0  0  0  0  0  0  0  0  0  0
    2.3554    3.7282   14.4844 C   0  0  0  0  0  0  0  0  0  0  0  0
    1.8228    4.9726   14.1019 C   0  0  0  0  0  0  0  0  0  0  0  0
    2.2109    6.1184   14.7167 O   0  0  0  0  0  0  0  0  0  0  0  0
    0.8750    5.0299   13.0645 C   0  0  0  0  0  0  0  0  0  0  0  0
    0.4432    3.8491   12.4311 C   0  0  0  0  0  0  0  0  0  0  0  0
   -1.1124    1.1082   12.2751 C   0  0  2  0  0  0  0  0  0  0  0  0
   -1.5295    1.4782    9.9833 O   0  0  0  0  0  0  0  0  0  0  0  0
   -3.0632    4.6752   10.1586 C   0  0  0  0  0  0  0  0  0  0  0  0
   -5.1428    3.3392   10.8605 C   0  0  0  0  0  0  0  0  0  0  0  0
   -3.6487    3.3364   10.4609 C   0  0  2  0  0  0  0  0  0  0  0  0
   -2.5231    4.8109    9.0357 O   0  0  0  0  0  0  0  0  0  0  0  0
   -3.0884    7.5736   12.4311 C   0  0  0  0  0  0  0  0  0  0  0  0
   -3.1044    5.2604   13.3970 C   0  0  2  0  0  0  0  0  0  0  0  0
   -3.4335    5.8027   14.7307 C   0  0  0  0  0  0  0  0  0  0  0  0
   -2.4539    6.1217   15.6077 O   0  0  0  0  0  0  0  0  0  0  0  0
   -4.6254    5.9776   15.0716 O   0  0  0  0  0  0  0  0  0  0  0  0
   -3.5237    6.1682   12.1998 C   0  0  2  0  0  0  0  0  0  0  0  0
   -1.8624    7.8318   12.4866 O   0  0  0  0  0  0  0  0  0  0  0  0
   -5.1531   10.5978   12.6022 C   0  0  0  0  0  0  0  0  0  0  0  0
   -2.6804   10.6584   12.0601 C   0  0  0  0  0  0  0  0  0  0  0  0
   -3.8342    9.9461   12.8199 C   0  0  2  0  0  0  0  0  0  0  0  0
   -5.7989   10.9417   13.6190 O   0  0  0  0  0  0  0  0  0  0  0  0
   -6.5360   11.3284    9.2269 C   0  0  0  0  0  0  0  0  0  0  0  0
   -5.0993    9.2693    9.5580 C   0  0  2  0  0  0  0  0  0  0  0  0
   -6.2462    8.2498    9.7995 C   0  0  0  0  0  0  0  0  0  0  0  0
   -5.4405   10.7280   10.0488 C   0  0  2  0  0  0  0  0  0  0  0  0
   -3.2726    9.8933    7.7731 C   0  0  0  0  0  0  0  0  0  0  0  0
   -4.6002    9.1591    8.0779 C   0  0  2  0  0  0  0  0  0  0  0  0
   -6.2293   11.9771    8.1983 O   0  0  0  0  0  0  0  0  0  0  0  0
   -9.9251   12.4525    9.6096 C   0  0  0  0  0  0  0  0  0  0  0  0
   -9.6732   10.1678    8.4459 C   0  0  2  0  0  0  0  0  0  0  0  0
  -10.8207   10.1818    7.4931 C   0  0  0  0  0  0  0  0  0  0  0  0
  -10.6404   10.6075    6.1545 C   0  0  0  0  0  0  0  0  0  0  0  0
  -11.6881   10.5039    5.2214 C   0  0  0  0  0  0  0  0  0  0  0  0
  -12.9367    9.9908    5.6132 C   0  0  0  0  0  0  0  0  0  0  0  0
  -13.1445    9.6072    6.9491 C   0  0  0  0  0  0  0  0  0  0  0  0
  -12.0957    9.7000    7.8823 C   0  0  0  0  0  0  0  0  0  0  0  0
   -9.0180   11.5392    8.8359 C   0  0  2  0  0  0  0  0  0  0  0  0
  -11.1498   12.4177    9.3542 O   0  0  0  0  0  0  0  0  0  0  0  0
   -8.4459   14.5709   12.3421 C   0  0  0  0  0  0  0  0  0  0  0  0
   -6.3504   15.1223   10.2906 O   0  0  0  0  0  0  0  0  0  0  0  0
   -8.3611   13.9001   11.0100 C   0  0  2  0  0  0  0  0  0  0  0  0
   -8.4614   16.1476    9.6746 C   0  0  0  0  0  0  0  0  0  0  0  0
   -7.7003   14.8209    9.9321 C   0  0  1  0  0  0  0  0  0  0  0  0
   -7.3681   14.7665   12.9547 O   0  0  0  0  0  0  0  0  0  0  0  0
  -11.1315   15.4925   14.6912 C   0  0  0  0  0  0  0  0  0  0  0  0
   -9.3568   17.1943   13.9453 C   0  0  1  0  0  0  0  0  0  0  0  0
   -9.4338   18.0240   15.1730 C   0  0  0  0  0  0  0  0  0  0  0  0
   -8.6809   17.7504   16.2556 N   0  0  0  0  0  0  0  0  0  0  0  0
  -10.1988   19.0144   15.2235 O   0  0  0  0  0  0  0  0  0  0  0  0
   -9.7551   15.6932   14.1474 C   0  0  2  0  0  0  0  0  0  0  0  0
  -11.9393   16.4504   14.6870 O   0  0  0  0  0  0  0  0  0  0  0  0
  -12.2016   12.2887   16.1717 C   0  0  0  0  0  0  0  0  0  0  0  0
   -9.7904   12.8936   16.0833 C   0  0  2  0  0  0  0  0  0  0  0  0
   -9.5158   11.5591   16.4977 O   0  0  0  0  0  0  0  0  0  0  0  0
  -11.1751   13.0280   15.3832 C   0  0  2  0  0  0  0  0  0  0  0  0
  -12.4893   12.7222   17.3132 O   0  0  0  0  0  0  0  0  0  0  0  0
  -15.0336   10.0915   15.8650 C   0  0  0  0  0  0  0  0  0  0  0  0
  -13.4572   10.0798   17.8668 C   0  0  2  0  0  0  0  0  0  0  0  0
  -13.9004    8.8025   18.4957 C   0  0  0  0  0  0  0  0  0  0  0  0
  -13.2010    7.5940   18.2571 C   0  0  0  0  0  0  0  0  0  0  0  0
  -13.6053    6.3951   18.8751 C   0  0  0  0  0  0  0  0  0  0  0  0
  -14.7134    6.3846   19.7426 C   0  0  0  0  0  0  0  0  0  0  0  0
  -15.0889    5.2276   20.3379 O   0  0  0  0  0  0  0  0  0  0  0  0
  -15.4214    7.5759   19.9808 C   0  0  0  0  0  0  0  0  0  0  0  0
  -15.0198    8.7701   19.3601 C   0  0  0  0  0  0  0  0  0  0  0  0
  -13.6012   10.1618   16.3091 C   0  0  2  0  0  0  0  0  0  0  0  0
  -15.6362    9.0132   16.0754 O   0  0  0  0  0  0  0  0  0  0  0  0
  -16.7901   13.1502   14.8491 C   0  0  0  0  0  0  0  0  0  0  0  0
  -14.9308   12.1741   13.3383 C   0  0  2  0  0  0  0  0  0  0  0  0
  -14.4671   13.4912   12.6545 C   0  0  1  0  0  0  0  0  0  0  0  0
  -13.5735   13.2306   11.4098 C   0  0  2  0  0  0  0  0  0  0  0  0
  -13.5626   14.2792   10.4870 N   0  0  0  0  0  0  0  0  0  0  0  0
  -13.0837   15.4669   10.5836 C   0  0  0  0  0  0  0  0  0  0  0  0
  -12.4663   15.9213   11.6521 N   0  0  0  0  0  0  0  0  0  0  0  0
  -13.2204   16.2800    9.5626 N   0  0  0  0  0  0  0  0  0  0  0  0
  -15.5425   12.3238   14.7720 C   0  0  2  0  0  0  0  0  0  0  0  0
  -17.2931   13.6370   13.8109 O   0  0  0  0  0  0  0  0  0  0  0  0
  -18.7424   13.1025   17.9280 C   0  0  0  0  0  0  0  0  0  0  0  0
  -14.9675   13.2640   20.4342 C   0  0  1  0  0  0  0  0  0  0  0  0
  -16.2460   12.9312   19.6195 C   0  0  1  0  0  0  0  0  0  0  0  0
  -16.2590   13.4970   18.1664 C   0  0  2  0  0  0  0  0  0  0  0  0
  -17.4129   12.9142   17.2888 C   0  0  2  0  0  0  0  0  0  0  0  0
  -13.7659   12.8637   22.5769 N   0  0  1  0  0  0  0  0  0  0  0  0
  -15.0038   12.6106   21.8382 C   0  0  1  0  0  0  0  0  0  0  0  0
  -19.1079   14.2400   18.3101 O   0  0  0  0  0  0  0  0  0  0  0  0
  -20.4926   10.5077   19.5401 C   0  0  0  0  0  0  0  0  0  0  0  0
  -23.1902   12.2542   19.4050 C   0  0  0  0  0  0  0  0  0  0  0  0
  -20.6752   11.8704   18.9576 C   0  0  2  0  0  0  0  0  0  0  0  0
  -22.1178   13.3907   17.3964 C   0  0  0  0  0  0  0  0  0  0  0  0
  -22.0862   12.1364   18.3147 C   0  0  2  0  0  0  0  0  0  0  0  0
  -20.2473   10.4355   20.7672 O   0  0  0  0  0  0  0  0  0  0  0  0
  -20.4883    7.4196   17.5532 C   0  0  0  0  0  0  0  0  0  0  0  0
  -22.3509    8.9960   14.7918 C   0  0  0  0  0  0  0  0  0  0  0  0
  -20.3539    9.6151   16.3342 C   0  0  1  0  0  0  0  0  0  0  0  0
  -20.8819    8.8528   17.6023 C   0  0  2  0  0  0  0  0  0  0  0  0
  -20.1994    9.9371   13.7874 C   0  0  0  0  0  0  0  0  0  0  0  0
  -20.8036    9.0739   14.9347 C   0  0  2  0  0  0  0  0  0  0  0  0
  -19.2946    7.1284   17.2997 O   0  0  0  0  0  0  0  0  0  0  0  0
  -19.9319    4.5450   18.4804 C   0  0  0  0  0  0  0  0  0  0  0  0
  -21.2212    5.0268   17.7340 C   0  0  2  0  0  0  0  0  0  0  0  0
  -19.7337    4.8993   19.6644 O   0  0  0  0  0  0  0  0  0  0  0  0
  -18.2157    1.7158   16.5924 C   0  0  0  0  0  0  0  0  0  0  0  0
  -18.4269    4.0555   15.5095 C   0  0  2  0  0  0  0  0  0  0  0  0
  -18.6915    3.7090   14.0162 C   0  0  1  0  0  0  0  0  0  0  0  0
  -18.1257    4.7316   13.1105 C   0  0  0  0  0  0  0  0  0  0  0  0
  -18.8958    5.4314   12.2579 N   0  0  0  0  0  0  0  0  0  0  0  0
  -16.8951    4.9634   13.1160 O   0  0  0  0  0  0  0  0  0  0  0  0
  -18.9557    3.0176   16.5530 C   0  0  2  0  0  0  0  0  0  0  0  0
  -17.3499    1.4656   15.7233 O   0  0  0  0  0  0  0  0  0  0  0  0
  -18.4001   -0.4980   19.5118 C   0  0  0  0  0  0  0  0  0  0  0  0
  -21.2584    1.7390   20.7288 C   0  0  0  0  0  0  0  0  0  0  0  0
  -20.5862    0.4946   18.5189 C   0  0  2  0  0  0  0  0  0  0  0  0
  -19.0383    0.6139   18.7306 C   0  0  2  0  0  0  0  0  0  0  0  0
  -23.0062    0.5078   19.3432 C   0  0  0  0  0  0  0  0  0  0  0  0
  -21.5140    0.5332   19.7826 C   0  0  2  0  0  0  0  0  0  0  0  0
  -19.1014   -1.4303   19.9658 O   0  0  0  0  0  0  0  0  0  0  0  0
  -14.6953   -0.6797   19.5584 C   0  0  0  0  0  0  0  0  0  0  0  0
  -15.8206    1.5001   20.0504 C   0  0  1  0  0  0  0  0  0  0  0  0
  -14.6789    2.2023   19.5682 O   0  0  0  0  0  0  0  0  0  0  0  0
  -15.9394    0.1154   19.3593 C   0  0  2  0  0  0  0  0  0  0  0  0
  -14.2578   -0.8731   20.7171 O   0  0  0  0  0  0  0  0  0  0  0  0
  -12.3947   -1.6925   16.9162 C   0  0  0  0  0  0  0  0  0  0  0  0
  -12.2982   -2.8895   19.1821 C   0  0  0  0  0  0  0  0  0  0  0  0
  -12.6841   -1.6226   18.3741 C   0  0  2  0  0  0  0  0  0  0  0  0
  -11.6773   -0.7822   16.4402 O   0  0  0  0  0  0  0  0  0  0  0  0
  -13.5835   -4.3056   14.6070 C   0  0  0  0  0  0  0  0  0  0  0  0
  -14.8313   -3.9644   16.8055 C   0  0  2  0  0  0  0  0  0  0  0  0
  -15.3017   -5.4420   17.0173 C   0  0  1  0  0  0  0  0  0  0  0  0
  -16.1919   -5.6585   18.2668 C   0  0  2  0  0  0  0  0  0  0  0  0
  -16.5350   -7.0066   18.3805 N   0  0  0  0  0  0  0  0  0  0  0  0
  -17.1771   -7.6091   19.3147 C   0  0  0  0  0  0  0  0  0  0  0  0
  -17.6336   -7.0089   20.3992 N   0  0  0  0  0  0  0  0  0  0  0  0
  -17.3861   -8.8987   19.1730 N   0  0  0  0  0  0  0  0  0  0  0  0
  -13.4708   -3.8590   16.0284 C   0  0  2  0  0  0  0  0  0  0  0  0
  -14.7003   -4.5869   14.1084 O   0  0  0  0  0  0  0  0  0  0  0  0
  -11.1641   -5.0399   11.7803 C   0  0  0  0  0  0  0  0  0  0  0  0
  -15.1114   -2.5567   10.2151 C   0  0  2  0  0  0  0  0  0  0  0  0
  -14.3862   -3.7922   10.8144 C   0  0  1  0  0  0  0  0  0  0  0  0
  -13.1126   -3.4201   11.6277 C   0  0  1  0  0  0  0  0  0  0  0  0
  -12.4653   -4.6293   12.4012 C   0  0  2  0  0  0  0  0  0  0  0  0
  -17.0649   -1.7435    8.9259 N   0  0  2  0  0  0  0  0  0  0  0  0
  -16.3954   -2.9408    9.4413 C   0  0  1  0  0  0  0  0  0  0  0  0
  -11.2451   -5.4937   10.6156 O   0  0  0  0  0  0  0  0  0  0  0  0
   -7.9262   -4.0573   13.2378 C   0  0  0  0  0  0  0  0  0  0  0  0
   -9.3308   -4.0172   16.5627 C   0  0  0  0  0  0  0  0  0  0  0  0
   -9.4845   -5.6609   14.5363 C   0  0  1  0  0  0  0  0  0  0  0  0
   -9.3319   -4.5200   13.4640 C   0  0  2  0  0  0  0  0  0  0  0  0
   -9.4774   -6.5354   16.9575 C   0  0  0  0  0  0  0  0  0  0  0  0
   -8.9726   -5.4173   15.9998 C   0  0  2  0  0  0  0  0  0  0  0  0
   -6.9947   -4.4855   13.9544 O   0  0  0  0  0  0  0  0  0  0  0  0
   -7.0377   -2.4937   10.1196 C   0  0  0  0  0  0  0  0  0  0  0  0
  -10.1781   -1.0322    9.3700 C   0  0  0  0  0  0  0  0  0  0  0  0
   -8.7907   -1.2298   11.5954 C   0  0  2  0  0  0  0  0  0  0  0  0
   -8.0950   -2.5699   11.1775 C   0  0  2  0  0  0  0  0  0  0  0  0
  -10.2273    0.8442   11.1014 C   0  0  0  0  0  0  0  0  0  0  0  0
   -9.3728   -0.2949   10.4751 C   0  0  2  0  0  0  0  0  0  0  0  0
   -6.6833   -1.3875    9.6552 O   0  0  0  0  0  0  0  0  0  0  0  0
   -5.0028   -5.5087    9.6108 C   0  0  0  0  0  0  0  0  0  0  0  0
   -7.5570   -5.6572    9.2486 C   0  0  1  0  0  0  0  0  0  0  0  0
   -7.8421   -7.0727    9.8290 C   0  0  1  0  0  0  0  0  0  0  0  0
   -8.9924   -7.7454    9.1906 C   0  0  0  0  0  0  0  0  0  0  0  0
  -10.0351   -8.1942    9.9141 N   0  0  0  0  0  0  0  0  0  0  0  0
   -9.0079   -7.9346    7.9532 O   0  0  0  0  0  0  0  0  0  0  0  0
   -6.3499   -4.9267    9.9243 C   0  0  2  0  0  0  0  0  0  0  0  0
   -4.9074   -6.5016    8.8537 O   0  0  0  0  0  0  0  0  0  0  0  0
   -2.0678   -3.4538   10.3821 C   0  0  0  0  0  0  0  0  0  0  0  0
   -3.5996   -4.1879   12.3255 C   0  0  2  0  0  0  0  0  0  0  0  0
   -3.5434   -2.9733   13.1652 C   0  0  0  0  0  0  0  0  0  0  0  0
   -2.6117   -2.8366   14.1368 O   0  0  0  0  0  0  0  0  0  0  0  0
   -4.3715   -2.0483   13.0066 O   0  0  0  0  0  0  0  0  0  0  0  0
   -3.4358   -3.9086   10.7966 C   0  0  2  0  0  0  0  0  0  0  0  0
   -1.1797   -3.2831   11.2488 O   0  0  0  0  0  0  0  0  0  0  0  0
   -1.2459   -3.6131    6.8261 C   0  0  0  0  0  0  0  0  0  0  0  0
   -3.3047   -2.2258    7.4691 C   0  0  2  0  0  0  0  0  0  0  0  0
   -2.6718   -0.8013    7.4641 C   0  0  0  0  0  0  0  0  0  0  0  0
   -2.2920   -3.3658    7.8546 C   0  0  2  0  0  0  0  0  0  0  0  0
   -4.8897   -3.7748    6.0190 C   0  0  0  0  0  0  0  0  0  0  0  0
   -4.0599   -2.4720    6.1169 C   0  0  2  0  0  0  0  0  0  0  0  0
   -0.4540   -2.6972    6.5007 O   0  0  0  0  0  0  0  0  0  0  0  0
   -1.3603   -5.8584    4.1685 C   0  0  0  0  0  0  0  0  0  0  0  0
    2.0497   -5.1166    6.0165 C   0  0  2  0  0  0  0  0  0  0  0  0
    0.8879   -6.0121    5.5097 C   0  0  2  0  0  0  0  0  0  0  0  0
   -0.3865   -5.2122    5.1024 C   0  0  2  0  0  0  0  0  0  0  0  0
    4.7986   -4.8764    6.7864 C   0  0  0  0  0  0  0  0  0  0  0  0
    3.5112   -6.1180    6.4533 S   0  0  0  0  0  0  0  0  0  0  0  0
   -1.8896   -5.1158    3.3083 O   0  0  0  0  0  0  0  0  0  0  0  0
   -1.6900   -9.5794    4.0028 C   0  0  0  0  0  0  0  0  0  0  0  0
   -2.2164   -8.4103    6.1833 C   0  0  2  0  0  0  0  0  0  0  0  0
   -1.6721   -9.4241    7.0247 O   0  0  0  0  0  0  0  0  0  0  0  0
   -1.4802   -8.3289    4.8120 C   0  0  2  0  0  0  0  0  0  0  0  0
   -1.3583  -10.6588    4.5475 O   0  0  0  0  0  0  0  0  0  0  0  0
   -3.3835   -9.6310    0.7167 C   0  0  0  0  0  0  0  0  0  0  0  0
   -1.3294   -8.1994    1.0261 C   0  0  1  0  0  0  0  0  0  0  0  0
   -1.6764   -7.0411    0.0485 C   0  0  1  0  0  0  0  0  0  0  0  0
   -0.4178   -6.4290   -0.6153 C   0  0  1  0  0  0  0  0  0  0  0  0
   -0.7781   -5.3604   -1.4344 N   0  0  0  0  0  0  0  0  0  0  0  0
   -0.0194   -4.6249   -2.1648 C   0  0  0  0  0  0  0  0  0  0  0  0
   -0.5821   -3.6833   -2.8895 N   0  0  0  0  0  0  0  0  0  0  0  0
    1.2874   -4.7780   -2.2412 N   0  0  0  0  0  0  0  0  0  0  0  0
   -2.5686   -8.8694    1.7013 C   0  0  2  0  0  0  0  0  0  0  0  0
   -2.8932  -10.5829    0.0656 O   0  0  0  0  0  0  0  0  0  0  0  0
   -2.4573   -0.4029   12.3205 H   0  0  0  0  0  0  0  0  0  0  0  0
   -1.0379   -0.7469   13.0629 H   0  0  0  0  0  0  0  0  0  0  0  0
   -3.0373    2.8027   12.3638 H   0  0  0  0  0  0  0  0  0  0  0  0
   -2.5028    6.5301   10.4749 H   0  0  0  0  0  0  0  0  0  0  0  0
   -4.9496    8.2437   12.5704 H   0  0  0  0  0  0  0  0  0  0  0  0
   -6.6793   11.2621   11.5790 H   0  0  0  0  0  0  0  0  0  0  0  0
   -8.0112   10.6750   10.4055 H   0  0  0  0  0  0  0  0  0  0  0  0
  -10.4025   13.8665   10.9202 H   0  0  0  0  0  0  0  0  0  0  0  0
  -10.4342   14.8339   12.3944 H   0  0  0  0  0  0  0  0  0  0  0  0
  -12.5806   14.4903   15.5637 H   0  0  0  0  0  0  0  0  0  0  0  0
  -12.5352   10.9524   14.7459 H   0  0  0  0  0  0  0  0  0  0  0  0
  -16.7375   10.6988   15.0599 H   0  0  0  0  0  0  0  0  0  0  0  0
  -18.2325   14.0956   15.8307 H   0  0  0  0  0  0  0  0  0  0  0  0
  -19.1885   11.1916   17.7162 H   0  0  0  0  0  0  0  0  0  0  0  0
  -20.1900    8.5662   19.4960 H   0  0  0  0  0  0  0  0  0  0  0  0
  -22.3007    6.7486   18.0492 H   0  0  0  0  0  0  0  0  0  0  0  0
  -18.1756    3.4746   18.4141 H   0  0  0  0  0  0  0  0  0  0  0  0
  -17.8873   -0.1285   17.2193 H   0  0  0  0  0  0  0  0  0  0  0  0
  -16.8521   -1.4032   20.3854 H   0  0  0  0  0  0  0  0  0  0  0  0
  -14.4884   -1.0121   17.6175 H   0  0  0  0  0  0  0  0  0  0  0  0
  -12.6167   -2.2770   15.0596 H   0  0  0  0  0  0  0  0  0  0  0  0
  -11.6275   -4.1586   14.2437 H   0  0  0  0  0  0  0  0  0  0  0  0
   -9.2224   -5.3800   11.6280 H   0  0  0  0  0  0  0  0  0  0  0  0
   -6.5412   -2.8809   12.4545 H   0  0  0  0  0  0  0  0  0  0  0  0
   -5.7770   -3.3066    8.8217 H   0  0  0  0  0  0  0  0  0  0  0  0
   -3.0338   -5.6709    9.8416 H   0  0  0  0  0  0  0  0  0  0  0  0
   -0.7323   -2.8052    9.0584 H   0  0  0  0  0  0  0  0  0  0  0  0
   -1.7396   -5.5268    6.6197 H   0  0  0  0  0  0  0  0  0  0  0  0
   -2.6738   -7.2115    3.6061 H   0  0  0  0  0  0  0  0  0  0  0  0
   -2.2112  -10.7205    2.4747 H   0  0  0  0  0  0  0  0  0  0  0  0
   -5.1008   -8.6057    0.9809 H   0  0  0  0  0  0  0  0  0  0  0  0
   -5.1914   -9.8256   -0.1662 H   0  0  0  0  0  0  0  0  0  0  0  0
    0.7903    1.2753   11.1839 H   0  0  0  0  0  0  0  0  0  0  0  0
    0.9045    0.4645   12.7235 H   0  0  0  0  0  0  0  0  0  0  0  0
    2.3120    1.6588   14.1648 H   0  0  0  0  0  0  0  0  0  0  0  0
    3.0643    3.6778   15.2171 H   0  0  0  0  0  0  0  0  0  0  0  0
    2.7859    5.8448   15.4619 H   0  0  0  0  0  0  0  0  0  0  0  0
    0.4910    5.9322   12.7725 H   0  0  0  0  0  0  0  0  0  0  0  0
   -0.2360    3.9281   11.6719 H   0  0  0  0  0  0  0  0  0  0  0  0
   -1.4849    1.4741   13.2366 H   0  0  0  0  0  0  0  0  0  0  0  0
   -5.7493    3.7391   10.0461 H   0  0  0  0  0  0  0  0  0  0  0  0
   -5.4732    2.3169   11.0601 H   0  0  0  0  0  0  0  0  0  0  0  0
   -5.3269    3.9296   11.7527 H   0  0  0  0  0  0  0  0  0  0  0  0
   -3.6362    2.7520    9.5328 H   0  0  0  0  0  0  0  0  0  0  0  0
   -3.6216    4.3080   13.3365 H   0  0  0  0  0  0  0  0  0  0  0  0
   -2.0341    5.0658   13.3432 H   0  0  0  0  0  0  0  0  0  0  0  0
   -1.5127    6.0099   15.3573 H   0  0  0  0  0  0  0  0  0  0  0  0
   -4.6131    6.1473   12.1176 H   0  0  0  0  0  0  0  0  0  0  0  0
   -2.8244   11.7406   12.0661 H   0  0  0  0  0  0  0  0  0  0  0  0
   -1.7227   10.4574   12.5435 H   0  0  0  0  0  0  0  0  0  0  0  0
   -2.6100   10.3228   11.0276 H   0  0  0  0  0  0  0  0  0  0  0  0
   -3.5847   10.0330   13.8829 H   0  0  0  0  0  0  0  0  0  0  0  0
   -4.2635    8.9118   10.1468 H   0  0  0  0  0  0  0  0  0  0  0  0
   -6.6294    8.3206   10.8153 H   0  0  0  0  0  0  0  0  0  0  0  0
   -7.0640    8.4205    9.1024 H   0  0  0  0  0  0  0  0  0  0  0  0
   -5.8828    7.2316    9.6536 H   0  0  0  0  0  0  0  0  0  0  0  0
   -4.5532   11.3525    9.9194 H   0  0  0  0  0  0  0  0  0  0  0  0
   -2.9548    9.6580    6.7559 H   0  0  0  0  0  0  0  0  0  0  0  0
   -2.4860    9.5771    8.4601 H   0  0  0  0  0  0  0  0  0  0  0  0
   -3.3974   10.9737    7.8462 H   0  0  0  0  0  0  0  0  0  0  0  0
   -5.3656    9.5238    7.3907 H   0  0  0  0  0  0  0  0  0  0  0  0
   -4.4356    8.1034    7.8384 H   0  0  0  0  0  0  0  0  0  0  0  0
   -8.9167    9.5392    7.9681 H   0  0  0  0  0  0  0  0  0  0  0  0
   -9.9566    9.6511    9.3692 H   0  0  0  0  0  0  0  0  0  0  0  0
   -9.7403   10.9791    5.8386 H   0  0  0  0  0  0  0  0  0  0  0  0
  -11.5362   10.7952    4.2541 H   0  0  0  0  0  0  0  0  0  0  0  0
  -13.6917    9.8978    4.9290 H   0  0  0  0  0  0  0  0  0  0  0  0
  -14.0564    9.2521    7.2411 H   0  0  0  0  0  0  0  0  0  0  0  0
  -12.2691    9.3990    8.8454 H   0  0  0  0  0  0  0  0  0  0  0  0
   -8.7383   12.0591    7.9170 H   0  0  0  0  0  0  0  0  0  0  0  0
   -5.9286   14.2516   10.4489 H   0  0  0  0  0  0  0  0  0  0  0  0
   -7.7102   13.0443   11.1756 H   0  0  0  0  0  0  0  0  0  0  0  0
   -9.5034   15.9442    9.4208 H   0  0  0  0  0  0  0  0  0  0  0  0
   -8.0069   16.6883    8.8419 H   0  0  0  0  0  0  0  0  0  0  0  0
   -8.4296   16.7887   10.5574 H   0  0  0  0  0  0  0  0  0  0  0  0
   -7.6541   14.2764    8.9845 H   0  0  0  0  0  0  0  0  0  0  0  0
   -9.9876   17.6307   13.1647 H   0  0  0  0  0  0  0  0  0  0  0  0
   -8.3265   17.2524   13.5876 H   0  0  0  0  0  0  0  0  0  0  0  0
   -8.7368   18.3150   17.0436 H   0  0  0  0  0  0  0  0  0  0  0  0
   -8.0809   16.9890   16.2521 H   0  0  0  0  0  0  0  0  0  0  0  0
   -9.0531   15.2974   14.8791 H   0  0  0  0  0  0  0  0  0  0  0  0
   -8.9941   13.1493   15.3885 H   0  0  0  0  0  0  0  0  0  0  0  0
   -9.7294   13.5485   16.9562 H   0  0  0  0  0  0  0  0  0  0  0  0
   -8.6020   11.5979   16.8498 H   0  0  0  0  0  0  0  0  0  0  0  0
  -11.0969   12.5878   14.3846 H   0  0  0  0  0  0  0  0  0  0  0  0
  -12.4063   10.2106   18.1395 H   0  0  0  0  0  0  0  0  0  0  0  0
  -14.0053   10.9171   18.3019 H   0  0  0  0  0  0  0  0  0  0  0  0
  -12.3878    7.5756   17.6344 H   0  0  0  0  0  0  0  0  0  0  0  0
  -13.0870    5.5319   18.6896 H   0  0  0  0  0  0  0  0  0  0  0  0
  -15.8691    5.4521   20.8854 H   0  0  0  0  0  0  0  0  0  0  0  0
  -16.2293    7.5779   20.6052 H   0  0  0  0  0  0  0  0  0  0  0  0
  -15.5558    9.6152   19.5467 H   0  0  0  0  0  0  0  0  0  0  0  0
  -13.1421    9.2473   15.9239 H   0  0  0  0  0  0  0  0  0  0  0  0
  -14.0695   11.5052   13.3940 H   0  0  0  0  0  0  0  0  0  0  0  0
  -15.6587   11.6842   12.6854 H   0  0  0  0  0  0  0  0  0  0  0  0
  -15.3412   14.0580   12.3331 H   0  0  0  0  0  0  0  0  0  0  0  0
  -13.9196   14.1010   13.3747 H   0  0  0  0  0  0  0  0  0  0  0  0
  -13.9624   12.3670   10.8644 H   0  0  0  0  0  0  0  0  0  0  0  0
  -12.5557   12.9898   11.7335 H   0  0  0  0  0  0  0  0  0  0  0  0
  -12.1133   16.8251   11.6663 H   0  0  0  0  0  0  0  0  0  0  0  0
  -12.3651   15.3549   12.4315 H   0  0  0  0  0  0  0  0  0  0  0  0
  -12.8689   17.1820    9.6160 H   0  0  0  0  0  0  0  0  0  0  0  0
  -13.6747   15.9873    8.7567 H   0  0  0  0  0  0  0  0  0  0  0  0
  -14.8100   12.8041   15.4174 H   0  0  0  0  0  0  0  0  0  0  0  0
  -14.0886   12.9004   19.8967 H   0  0  0  0  0  0  0  0  0  0  0  0
  -14.8704   14.3476   20.5442 H   0  0  0  0  0  0  0  0  0  0  0  0
  -16.3528   11.8465   19.5682 H   0  0  0  0  0  0  0  0  0  0  0  0
  -17.1085   13.3203   20.1678 H   0  0  0  0  0  0  0  0  0  0  0  0
  -15.3068   13.2502   17.6967 H   0  0  0  0  0  0  0  0  0  0  0  0
  -16.3368   14.5858   18.2054 H   0  0  0  0  0  0  0  0  0  0  0  0
  -17.2328   11.8402   17.1984 H   0  0  0  0  0  0  0  0  0  0  0  0
  -13.8578   12.3797   23.4728 H   0  0  0  0  0  0  0  0  0  0  0  0
  -13.0201   12.3897   22.0637 H   0  0  0  0  0  0  0  0  0  0  0  0
  -15.8411   13.0057   22.4182 H   0  0  0  0  0  0  0  0  0  0  0  0
  -15.1234   11.5294   21.7452 H   0  0  0  0  0  0  0  0  0  0  0  0
  -23.0287   13.1373   20.0273 H   0  0  0  0  0  0  0  0  0  0  0  0
  -24.1771   12.3304   18.9424 H   0  0  0  0  0  0  0  0  0  0  0  0
  -23.1893   11.3735   20.0492 H   0  0  0  0  0  0  0  0  0  0  0  0
  -20.5665   12.6032   19.7666 H   0  0  0  0  0  0  0  0  0  0  0  0
  -21.8493   14.2890   17.9553 H   0  0  0  0  0  0  0  0  0  0  0  0
  -23.1147   13.5293   16.9722 H   0  0  0  0  0  0  0  0  0  0  0  0
  -21.4211   13.2744   16.5661 H   0  0  0  0  0  0  0  0  0  0  0  0
  -22.3751   11.2906   17.6931 H   0  0  0  0  0  0  0  0  0  0  0  0
  -22.7676    8.2777   15.4992 H   0  0  0  0  0  0  0  0  0  0  0  0
  -22.6311    8.6681   13.7888 H   0  0  0  0  0  0  0  0  0  0  0  0
  -22.8043    9.9719   14.9773 H   0  0  0  0  0  0  0  0  0  0  0  0
  -20.6866   10.6464   16.3643 H   0  0  0  0  0  0  0  0  0  0  0  0
  -19.2611    9.6290   16.3695 H   0  0  0  0  0  0  0  0  0  0  0  0
  -21.9713    8.9195   17.6166 H   0  0  0  0  0  0  0  0  0  0  0  0
  -19.1116    9.9795   13.8693 H   0  0  0  0  0  0  0  0  0  0  0  0
  -20.4431    9.5048   12.8140 H   0  0  0  0  0  0  0  0  0  0  0  0
  -20.5884   10.9580   13.8219 H   0  0  0  0  0  0  0  0  0  0  0  0
  -20.4087    8.0620   14.8085 H   0  0  0  0  0  0  0  0  0  0  0  0
  -21.2883    4.8074   16.6310 H   0  0  0  0  0  0  0  0  0  0  0  0
  -22.1968    4.6162   18.1281 H   0  0  0  0  0  0  0  0  0  0  0  0
  -18.9134    5.0180   15.6921 H   0  0  0  0  0  0  0  0  0  0  0  0
  -17.3537    4.1992   15.6721 H   0  0  0  0  0  0  0  0  0  0  0  0
  -18.2411    2.7511   13.7555 H   0  0  0  0  0  0  0  0  0  0  0  0
  -19.7695    3.6246   13.8547 H   0  0  0  0  0  0  0  0  0  0  0  0
  -18.4923    6.1022   11.6854 H   0  0  0  0  0  0  0  0  0  0  0  0
  -19.8510    5.2691   12.2102 H   0  0  0  0  0  0  0  0  0  0  0  0
  -19.9851    2.7784   16.2839 H   0  0  0  0  0  0  0  0  0  0  0  0
  -21.3921    2.6803   20.1965 H   0  0  0  0  0  0  0  0  0  0  0  0
  -21.9517    1.7145   21.5709 H   0  0  0  0  0  0  0  0  0  0  0  0
  -20.2511    1.7020   21.1421 H   0  0  0  0  0  0  0  0  0  0  0  0
  -20.7818   -0.4356   17.9776 H   0  0  0  0  0  0  0  0  0  0  0  0
  -20.9026    1.3071   17.8651 H   0  0  0  0  0  0  0  0  0  0  0  0
  -18.8409    1.5272   19.2841 H   0  0  0  0  0  0  0  0  0  0  0  0
  -23.2519    1.4072   18.7733 H   0  0  0  0  0  0  0  0  0  0  0  0
  -23.6662    0.4565   20.2134 H   0  0  0  0  0  0  0  0  0  0  0  0
  -23.2067   -0.3642   18.7152 H   0  0  0  0  0  0  0  0  0  0  0  0
  -21.3526   -0.3747   20.3671 H   0  0  0  0  0  0  0  0  0  0  0  0
  -15.7368    1.3841   21.1329 H   0  0  0  0  0  0  0  0  0  0  0  0
  -16.6915    2.1167   19.8369 H   0  0  0  0  0  0  0  0  0  0  0  0
  -14.6661    3.0321   20.0852 H   0  0  0  0  0  0  0  0  0  0  0  0
  -16.0359    0.2987   18.2891 H   0  0  0  0  0  0  0  0  0  0  0  0
  -11.2438   -3.1198   19.0201 H   0  0  0  0  0  0  0  0  0  0  0  0
  -12.4391   -2.7106   20.2480 H   0  0  0  0  0  0  0  0  0  0  0  0
  -12.8777   -3.7661   18.9116 H   0  0  0  0  0  0  0  0  0  0  0  0
  -12.0584   -0.8285   18.7981 H   0  0  0  0  0  0  0  0  0  0  0  0
  -14.7384   -3.4999   17.7769 H   0  0  0  0  0  0  0  0  0  0  0  0
  -15.6045   -3.3982   16.2810 H   0  0  0  0  0  0  0  0  0  0  0  0
  -15.8546   -5.7671   16.1323 H   0  0  0  0  0  0  0  0  0  0  0  0
  -14.4302   -6.0977   17.1159 H   0  0  0  0  0  0  0  0  0  0  0  0
  -17.0982   -5.0569   18.1760 H   0  0  0  0  0  0  0  0  0  0  0  0
  -15.6383   -5.3427   19.1547 H   0  0  0  0  0  0  0  0  0  0  0  0
  -18.1100   -7.5201   21.0740 H   0  0  0  0  0  0  0  0  0  0  0  0
  -17.4932   -6.0568   20.5272 H   0  0  0  0  0  0  0  0  0  0  0  0
  -17.8602   -9.3890   19.8621 H   0  0  0  0  0  0  0  0  0  0  0  0
  -17.0780   -9.3643   18.3766 H   0  0  0  0  0  0  0  0  0  0  0  0
  -12.7570   -4.5279   16.5130 H   0  0  0  0  0  0  0  0  0  0  0  0
  -14.4338   -2.0245    9.5413 H   0  0  0  0  0  0  0  0  0  0  0  0
  -15.3859   -1.8750   11.0259 H   0  0  0  0  0  0  0  0  0  0  0  0
  -15.0892   -4.3179   11.4630 H   0  0  0  0  0  0  0  0  0  0  0  0
  -14.1050   -4.4736   10.0078 H   0  0  0  0  0  0  0  0  0  0  0  0
  -12.3938   -2.9816   10.9366 H   0  0  0  0  0  0  0  0  0  0  0  0
  -13.3723   -2.6180   12.3260 H   0  0  0  0  0  0  0  0  0  0  0  0
  -13.1008   -5.5148   12.2821 H   0  0  0  0  0  0  0  0  0  0  0  0
  -17.3761   -1.2077    9.7391 H   0  0  0  0  0  0  0  0  0  0  0  0
  -17.9061   -2.0615    8.4399 H   0  0  0  0  0  0  0  0  0  0  0  0
  -16.1498   -3.5874    8.5969 H   0  0  0  0  0  0  0  0  0  0  0  0
  -17.0883   -3.4681   10.1007 H   0  0  0  0  0  0  0  0  0  0  0  0
   -8.8478   -3.2335   15.9787 H   0  0  0  0  0  0  0  0  0  0  0  0
   -8.9896   -3.9156   17.5954 H   0  0  0  0  0  0  0  0  0  0  0  0
  -10.4070   -3.8649   16.5319 H   0  0  0  0  0  0  0  0  0  0  0  0
  -10.5403   -5.9292   14.5998 H   0  0  0  0  0  0  0  0  0  0  0  0
   -8.9689   -6.5487   14.1572 H   0  0  0  0  0  0  0  0  0  0  0  0
   -9.8811   -3.6310   13.7701 H   0  0  0  0  0  0  0  0  0  0  0  0
   -9.1900   -7.5193   16.5781 H   0  0  0  0  0  0  0  0  0  0  0  0
   -9.0388   -6.4152   17.9518 H   0  0  0  0  0  0  0  0  0  0  0  0
  -10.5651   -6.5035   17.0530 H   0  0  0  0  0  0  0  0  0  0  0  0
   -7.8828   -5.4980   16.0128 H   0  0  0  0  0  0  0  0  0  0  0  0
  -11.0123   -1.5731    9.8034 H   0  0  0  0  0  0  0  0  0  0  0  0
  -10.5721   -0.3214    8.6434 H   0  0  0  0  0  0  0  0  0  0  0  0
   -9.5462   -1.7354    8.8301 H   0  0  0  0  0  0  0  0  0  0  0  0
   -8.0777   -0.6439   12.1867 H   0  0  0  0  0  0  0  0  0  0  0  0
   -9.6122   -1.5011   12.2666 H   0  0  0  0  0  0  0  0  0  0  0  0
   -8.8741   -3.2171   10.7839 H   0  0  0  0  0  0  0  0  0  0  0  0
  -11.1114    0.4384   11.5978 H   0  0  0  0  0  0  0  0  0  0  0  0
  -10.5553    1.5440   10.3287 H   0  0  0  0  0  0  0  0  0  0  0  0
   -9.6409    1.4014   11.8366 H   0  0  0  0  0  0  0  0  0  0  0  0
   -8.5376    0.2049    9.9810 H   0  0  0  0  0  0  0  0  0  0  0  0
   -7.3751   -5.7279    8.1726 H   0  0  0  0  0  0  0  0  0  0  0  0
   -8.4616   -5.0608    9.3822 H   0  0  0  0  0  0  0  0  0  0  0  0
   -6.9749   -7.7162    9.6868 H   0  0  0  0  0  0  0  0  0  0  0  0
   -8.0146   -6.9885   10.9045 H   0  0  0  0  0  0  0  0  0  0  0  0
  -10.7756   -8.6464    9.4777 H   0  0  0  0  0  0  0  0  0  0  0  0
  -10.0503   -8.0660   10.8753 H   0  0  0  0  0  0  0  0  0  0  0  0
   -6.4665   -5.0272   10.9986 H   0  0  0  0  0  0  0  0  0  0  0  0
   -4.5662   -4.6569   12.5127 H   0  0  0  0  0  0  0  0  0  0  0  0
   -2.8317   -4.8969   12.6485 H   0  0  0  0  0  0  0  0  0  0  0  0
   -1.9545   -3.5453   14.2977 H   0  0  0  0  0  0  0  0  0  0  0  0
   -4.1070   -3.0980   10.5256 H   0  0  0  0  0  0  0  0  0  0  0  0
   -4.0657   -2.1995    8.2527 H   0  0  0  0  0  0  0  0  0  0  0  0
   -2.0926   -0.6300    8.3715 H   0  0  0  0  0  0  0  0  0  0  0  0
   -2.0179   -0.6593    6.6020 H   0  0  0  0  0  0  0  0  0  0  0  0
   -3.4544   -0.0403    7.4195 H   0  0  0  0  0  0  0  0  0  0  0  0
   -2.8683   -4.2838    7.9330 H   0  0  0  0  0  0  0  0  0  0  0  0
   -4.2447   -4.6538    6.0345 H   0  0  0  0  0  0  0  0  0  0  0  0
   -5.6021   -3.8409    6.8392 H   0  0  0  0  0  0  0  0  0  0  0  0
   -5.4491   -3.7792    5.0816 H   0  0  0  0  0  0  0  0  0  0  0  0
   -3.3430   -2.4664    5.2919 H   0  0  0  0  0  0  0  0  0  0  0  0
   -4.7524   -1.6413    5.9517 H   0  0  0  0  0  0  0  0  0  0  0  0
    1.7360   -4.5533    6.8980 H   0  0  0  0  0  0  0  0  0  0  0  0
    2.3395   -4.4112    5.2349 H   0  0  0  0  0  0  0  0  0  0  0  0
    0.6385   -6.7203    6.3040 H   0  0  0  0  0  0  0  0  0  0  0  0
    1.2509   -6.5714    4.6432 H   0  0  0  0  0  0  0  0  0  0  0  0
   -0.0324   -4.3088    4.5925 H   0  0  0  0  0  0  0  0  0  0  0  0
    5.7076   -5.3759    7.1257 H   0  0  0  0  0  0  0  0  0  0  0  0
    4.4565   -4.1881    7.5598 H   0  0  0  0  0  0  0  0  0  0  0  0
    5.0171   -4.3195    5.8744 H   0  0  0  0  0  0  0  0  0  0  0  0
   -2.1225   -7.4699    6.7251 H   0  0  0  0  0  0  0  0  0  0  0  0
   -3.2796   -8.6107    6.0344 H   0  0  0  0  0  0  0  0  0  0  0  0
   -2.2039   -9.3847    7.8477 H   0  0  0  0  0  0  0  0  0  0  0  0
   -0.4093   -8.2918    4.9966 H   0  0  0  0  0  0  0  0  0  0  0  0
   -0.7581   -8.9609    0.4874 H   0  0  0  0  0  0  0  0  0  0  0  0
   -0.6756   -7.7973    1.8029 H   0  0  0  0  0  0  0  0  0  0  0  0
   -2.3362   -7.4148   -0.7401 H   0  0  0  0  0  0  0  0  0  0  0  0
   -2.2083   -6.2597    0.5998 H   0  0  0  0  0  0  0  0  0  0  0  0
    0.2776   -6.0874    0.1566 H   0  0  0  0  0  0  0  0  0  0  0  0
    0.0763   -7.1932   -1.2223 H   0  0  0  0  0  0  0  0  0  0  0  0
   -1.5464   -3.5756   -2.8855 H   0  0  0  0  0  0  0  0  0  0  0  0
   -0.0400   -3.0956   -3.4388 H   0  0  0  0  0  0  0  0  0  0  0  0
    1.7368   -5.4415   -1.6941 H   0  0  0  0  0  0  0  0  0  0  0  0
    1.8013   -4.2300   -2.8554 H   0  0  0  0  0  0  0  0  0  0  0  0
   -3.2179   -8.1046    2.1238 H   0  0  0  0  0  0  0  0  0  0  0  0
  2 31  1  0  0  0  0 
  3 42  1  0  0  0  0 
  4 46  1  0  0  0  0 
  5 53  1  0  0  0  0 
  6 57  1  0  0  0  0 
  7 64  1  0  0  0  0 
  8 74  1  0  0  0  0 
  9 80  1  0  0  0  0 
 10 87  1  0  0  0  0 
 11 92  1  0  0  0  0 
 12103  1  0  0  0  0 
 13113  1  0  0  0  0 
 14121  1  0  0  0  0 
 15127  1  0  0  0  0 
 16134  1  0  0  0  0 
 17137  1  0  0  0  0 
 18145  1  0  0  0  0 
 19152  1  0  0  0  0 
 20157  1  0  0  0  0 
 21161  1  0  0  0  0 
 22171  1  0  0  0  0 
 23179  1  0  0  0  0 
 24186  1  0  0  0  0 
 25193  1  0  0  0  0 
 26201  1  0  0  0  0 
 27208  1  0  0  0  0 
 28215  1  0  0  0  0 
 29222  1  0  0  0  0 
 30227  1  0  0  0  0 
 40  1  1  0  0  0  0 
 40 31  1  0  0  0  0 
 31 41  2  0  0  0  0 
 40 32  1  0  0  0  0 
 32 33  1  0  0  0  0 
 33 34  2  0  0  0  0 
 33 39  1  0  0  0  0 
 34 35  1  0  0  0  0 
 35 36  2  0  0  0  0 
 36 37  1  0  0  0  0 
 36 38  1  0  0  0  0 
 38 39  2  0  0  0  0 
 44  2  1  0  0  0  0 
 44 42  1  0  0  0  0 
 42 45  2  0  0  0  0 
 44 43  1  0  0  0  0 
 51  3  1  0  0  0  0 
 51 46  1  0  0  0  0 
 46 52  2  0  0  0  0 
 51 47  1  0  0  0  0 
 47 48  1  0  0  0  0 
 48 49  1  0  0  0  0 
 48 50  2  0  0  0  0 
 55  4  1  0  0  0  0 
 55 53  1  0  0  0  0 
 53 56  2  0  0  0  0 
 55 54  1  0  0  0  0 
 60  5  1  0  0  0  0 
 60 57  1  0  0  0  0 
 57 63  2  0  0  0  0 
 58 62  1  0  0  0  0 
 58 59  1  0  0  0  0 
 58 60  1  0  0  0  0 
 61 62  1  0  0  0  0 
 72  6  1  0  0  0  0 
 72 64  1  0  0  0  0 
 64 73  2  0  0  0  0 
 72 65  1  0  0  0  0 
 65 66  1  0  0  0  0 
 66 67  2  0  0  0  0 
 66 71  1  0  0  0  0 
 67 68  1  0  0  0  0 
 68 69  2  0  0  0  0 
 69 70  1  0  0  0  0 
 70 71  2  0  0  0  0 
 76  7  1  0  0  0  0 
 76 74  1  0  0  0  0 
 74 79  2  0  0  0  0 
 78 75  1  0  0  0  0 
 76 78  1  0  0  0  0 
 78 77  1  0  0  0  0 
 85  8  1  0  0  0  0 
 85 80  1  0  0  0  0 
 80 86  2  0  0  0  0 
 85 81  1  0  0  0  0 
 81 82  1  0  0  0  0 
 82 83  1  0  0  0  0 
 82 84  2  0  0  0  0 
 90  9  1  0  0  0  0 
 90 87  1  0  0  0  0 
 87 91  2  0  0  0  0 
 90 88  1  0  0  0  0 
 88 89  1  0  0  0  0 
101 10  1  0  0  0  0 
101 92  1  0  0  0  0 
 92102  2  0  0  0  0 
101 93  1  0  0  0  0 
 93 94  1  0  0  0  0 
 94 95  2  0  0  0  0 
 94100  1  0  0  0  0 
 95 96  1  0  0  0  0 
 96 97  2  0  0  0  0 
 97 98  1  0  0  0  0 
 97 99  1  0  0  0  0 
 99100  2  0  0  0  0 
111 11  1  0  0  0  0 
111103  1  0  0  0  0 
103112  2  0  0  0  0 
111104  1  0  0  0  0 
104105  1  0  0  0  0 
105106  1  0  0  0  0 
106107  1  0  0  0  0 
107108  2  0  0  0  0 
108109  1  0  0  0  0 
108110  1  0  0  0  0 
117 12  1  0  0  0  0 
117113  1  0  0  0  0 
113120  2  0  0  0  0 
119114  1  0  0  0  0 
114115  1  0  0  0  0 
115116  1  0  0  0  0 
117116  1  0  0  0  0 
118119  1  0  0  0  0 
123 13  1  0  0  0  0 
123121  1  0  0  0  0 
121126  2  0  0  0  0 
125122  1  0  0  0  0 
123125  1  0  0  0  0 
124125  1  0  0  0  0 
130 14  1  0  0  0  0 
130127  1  0  0  0  0 
127133  2  0  0  0  0 
132128  1  0  0  0  0 
132129  1  0  0  0  0 
130129  1  0  0  0  0 
131132  1  0  0  0  0 
 15135  1  0  0  0  0 
135134  1  0  0  0  0 
134136  2  0  0  0  0 
143 16  1  0  0  0  0 
143137  1  0  0  0  0 
137144  2  0  0  0  0 
143138  1  0  0  0  0 
138139  1  0  0  0  0 
139140  1  0  0  0  0 
140141  1  0  0  0  0 
140142  2  0  0  0  0 
148 17  1  0  0  0  0 
148145  1  0  0  0  0 
145151  2  0  0  0  0 
150146  1  0  0  0  0 
150147  1  0  0  0  0 
148147  1  0  0  0  0 
149150  1  0  0  0  0 
155 18  1  0  0  0  0 
155152  1  0  0  0  0 
152156  2  0  0  0  0 
155153  1  0  0  0  0 
153154  1  0  0  0  0 
159 19  1  0  0  0  0 
159157  1  0  0  0  0 
157160  2  0  0  0  0 
159158  1  0  0  0  0 
169 20  1  0  0  0  0 
169161  1  0  0  0  0 
161170  2  0  0  0  0 
169162  1  0  0  0  0 
162163  1  0  0  0  0 
163164  1  0  0  0  0 
164165  1  0  0  0  0 
165166  2  0  0  0  0 
166167  1  0  0  0  0 
166168  1  0  0  0  0 
175 21  1  0  0  0  0 
175171  1  0  0  0  0 
171178  2  0  0  0  0 
177172  1  0  0  0  0 
172173  1  0  0  0  0 
173174  1  0  0  0  0 
175174  1  0  0  0  0 
176177  1  0  0  0  0 
182 22  1  0  0  0  0 
182179  1  0  0  0  0 
179185  2  0  0  0  0 
184180  1  0  0  0  0 
184181  1  0  0  0  0 
182181  1  0  0  0  0 
183184  1  0  0  0  0 
189 23  1  0  0  0  0 
189186  1  0  0  0  0 
186192  2  0  0  0  0 
191187  1  0  0  0  0 
191188  1  0  0  0  0 
189188  1  0  0  0  0 
190191  1  0  0  0  0 
199 24  1  0  0  0  0 
199193  1  0  0  0  0 
193200  2  0  0  0  0 
199194  1  0  0  0  0 
194195  1  0  0  0  0 
195196  1  0  0  0  0 
196197  1  0  0  0  0 
196198  2  0  0  0  0 
206 25  1  0  0  0  0 
206201  1  0  0  0  0 
201207  2  0  0  0  0 
206202  1  0  0  0  0 
202203  1  0  0  0  0 
203204  1  0  0  0  0 
203205  2  0  0  0  0 
211 26  1  0  0  0  0 
211208  1  0  0  0  0 
208214  2  0  0  0  0 
209213  1  0  0  0  0 
209210  1  0  0  0  0 
209211  1  0  0  0  0 
212213  1  0  0  0  0 
218 27  1  0  0  0  0 
218215  1  0  0  0  0 
215221  2  0  0  0  0 
220216  1  0  0  0  0 
216217  1  0  0  0  0 
218217  1  0  0  0  0 
219220  1  0  0  0  0 
225 28  1  0  0  0  0 
225222  1  0  0  0  0 
222226  2  0  0  0  0 
225223  1  0  0  0  0 
223224  1  0  0  0  0 
235 29  1  0  0  0  0 
235227  1  0  0  0  0 
227236  2  0  0  0  0 
235228  1  0  0  0  0 
228229  1  0  0  0  0 
229230  1  0  0  0  0 
230231  1  0  0  0  0 
231232  2  0  0  0  0 
232233  1  0  0  0  0 
232234  1  0  0  0  0 
237  1  1  0  0  0  0 
238  1  1  0  0  0  0 
239  2  1  0  0  0  0 
240  3  1  0  0  0  0 
241  4  1  0  0  0  0 
242  5  1  0  0  0  0 
243  6  1  0  0  0  0 
244  7  1  0  0  0  0 
245  8  1  0  0  0  0 
246  9  1  0  0  0  0 
247 10  1  0  0  0  0 
248 11  1  0  0  0  0 
249 12  1  0  0  0  0 
250 13  1  0  0  0  0 
251 14  1  0  0  0  0 
252 15  1  0  0  0  0 
253 16  1  0  0  0  0 
254 17  1  0  0  0  0 
255 18  1  0  0  0  0 
256 19  1  0  0  0  0 
257 20  1  0  0  0  0 
258 21  1  0  0  0  0 
259 22  1  0  0  0  0 
260 23  1  0  0  0  0 
261 24  1  0  0  0  0 
262 25  1  0  0  0  0 
263 26  1  0  0  0  0 
264 27  1  0  0  0  0 
265 28  1  0  0  0  0 
266 29  1  0  0  0  0 
267 30  1  0  0  0  0 
268 30  1  0  0  0  0 
269 32  1  0  0  0  0 
270 32  1  0  0  0  0 
271 34  1  0  0  0  0 
272 35  1  0  0  0  0 
273 37  1  0  0  0  0 
274 38  1  0  0  0  0 
275 39  1  0  0  0  0 
 40276  1  0  0  0  0 
277 43  1  0  0  0  0 
278 43  1  0  0  0  0 
279 43  1  0  0  0  0 
 44280  1  0  0  0  0 
281 47  1  0  0  0  0 
282 47  1  0  0  0  0 
283 49  1  0  0  0  0 
 51284  1  0  0  0  0 
285 54  1  0  0  0  0 
286 54  1  0  0  0  0 
287 54  1  0  0  0  0 
 55288  1  0  0  0  0 
 58289  1  0  0  0  0 
290 59  1  0  0  0  0 
291 59  1  0  0  0  0 
292 59  1  0  0  0  0 
 60293  1  0  0  0  0 
294 61  1  0  0  0  0 
295 61  1  0  0  0  0 
296 61  1  0  0  0  0 
297 62  1  0  0  0  0 
298 62  1  0  0  0  0 
299 65  1  0  0  0  0 
300 65  1  0  0  0  0 
301 67  1  0  0  0  0 
302 68  1  0  0  0  0 
303 69  1  0  0  0  0 
304 70  1  0  0  0  0 
305 71  1  0  0  0  0 
 72306  1  0  0  0  0 
307 75  1  0  0  0  0 
 76308  1  0  0  0  0 
309 77  1  0  0  0  0 
310 77  1  0  0  0  0 
311 77  1  0  0  0  0 
 78312  1  0  0  0  0 
313 81  1  0  0  0  0 
314 81  1  0  0  0  0 
315 83  1  0  0  0  0 
316 83  1  0  0  0  0 
 85317  1  0  0  0  0 
318 88  1  0  0  0  0 
319 88  1  0  0  0  0 
320 89  1  0  0  0  0 
 90321  1  0  0  0  0 
322 93  1  0  0  0  0 
323 93  1  0  0  0  0 
324 95  1  0  0  0  0 
325 96  1  0  0  0  0 
326 98  1  0  0  0  0 
327 99  1  0  0  0  0 
328100  1  0  0  0  0 
101329  1  0  0  0  0 
330104  1  0  0  0  0 
331104  1  0  0  0  0 
332105  1  0  0  0  0 
333105  1  0  0  0  0 
334106  1  0  0  0  0 
335106  1  0  0  0  0 
336109  1  0  0  0  0 
337109  1  0  0  0  0 
338110  1  0  0  0  0 
339110  1  0  0  0  0 
111340  1  0  0  0  0 
341114  1  0  0  0  0 
342114  1  0  0  0  0 
343115  1  0  0  0  0 
344115  1  0  0  0  0 
345116  1  0  0  0  0 
346116  1  0  0  0  0 
117347  1  0  0  0  0 
348118  1  0  0  0  0 
349118  1  0  0  0  0 
350119  1  0  0  0  0 
351119  1  0  0  0  0 
352122  1  0  0  0  0 
353122  1  0  0  0  0 
354122  1  0  0  0  0 
123355  1  0  0  0  0 
356124  1  0  0  0  0 
357124  1  0  0  0  0 
358124  1  0  0  0  0 
359125  1  0  0  0  0 
360128  1  0  0  0  0 
361128  1  0  0  0  0 
362128  1  0  0  0  0 
363129  1  0  0  0  0 
364129  1  0  0  0  0 
130365  1  0  0  0  0 
366131  1  0  0  0  0 
367131  1  0  0  0  0 
368131  1  0  0  0  0 
369132  1  0  0  0  0 
370135  1  0  0  0  0 
371135  1  0  0  0  0 
372138  1  0  0  0  0 
373138  1  0  0  0  0 
374139  1  0  0  0  0 
375139  1  0  0  0  0 
376141  1  0  0  0  0 
377141  1  0  0  0  0 
143378  1  0  0  0  0 
379146  1  0  0  0  0 
380146  1  0  0  0  0 
381146  1  0  0  0  0 
382147  1  0  0  0  0 
383147  1  0  0  0  0 
148384  1  0  0  0  0 
385149  1  0  0  0  0 
386149  1  0  0  0  0 
387149  1  0  0  0  0 
388150  1  0  0  0  0 
389153  1  0  0  0  0 
390153  1  0  0  0  0 
391154  1  0  0  0  0 
155392  1  0  0  0  0 
393158  1  0  0  0  0 
394158  1  0  0  0  0 
395158  1  0  0  0  0 
159396  1  0  0  0  0 
397162  1  0  0  0  0 
398162  1  0  0  0  0 
399163  1  0  0  0  0 
400163  1  0  0  0  0 
401164  1  0  0  0  0 
402164  1  0  0  0  0 
403167  1  0  0  0  0 
404167  1  0  0  0  0 
405168  1  0  0  0  0 
406168  1  0  0  0  0 
169407  1  0  0  0  0 
408172  1  0  0  0  0 
409172  1  0  0  0  0 
410173  1  0  0  0  0 
411173  1  0  0  0  0 
412174  1  0  0  0  0 
413174  1  0  0  0  0 
175414  1  0  0  0  0 
415176  1  0  0  0  0 
416176  1  0  0  0  0 
417177  1  0  0  0  0 
418177  1  0  0  0  0 
419180  1  0  0  0  0 
420180  1  0  0  0  0 
421180  1  0  0  0  0 
422181  1  0  0  0  0 
423181  1  0  0  0  0 
182424  1  0  0  0  0 
425183  1  0  0  0  0 
426183  1  0  0  0  0 
427183  1  0  0  0  0 
428184  1  0  0  0  0 
429187  1  0  0  0  0 
430187  1  0  0  0  0 
431187  1  0  0  0  0 
432188  1  0  0  0  0 
433188  1  0  0  0  0 
189434  1  0  0  0  0 
435190  1  0  0  0  0 
436190  1  0  0  0  0 
437190  1  0  0  0  0 
438191  1  0  0  0  0 
439194  1  0  0  0  0 
440194  1  0  0  0  0 
441195  1  0  0  0  0 
442195  1  0  0  0  0 
443197  1  0  0  0  0 
444197  1  0  0  0  0 
199445  1  0  0  0  0 
446202  1  0  0  0  0 
447202  1  0  0  0  0 
448204  1  0  0  0  0 
206449  1  0  0  0  0 
209450  1  0  0  0  0 
451210  1  0  0  0  0 
452210  1  0  0  0  0 
453210  1  0  0  0  0 
211454  1  0  0  0  0 
455212  1  0  0  0  0 
456212  1  0  0  0  0 
457212  1  0  0  0  0 
458213  1  0  0  0  0 
459213  1  0  0  0  0 
460216  1  0  0  0  0 
461216  1  0  0  0  0 
462217  1  0  0  0  0 
463217  1  0  0  0  0 
218464  1  0  0  0  0 
465219  1  0  0  0  0 
466219  1  0  0  0  0 
467219  1  0  0  0  0 
468223  1  0  0  0  0 
469223  1  0  0  0  0 
470224  1  0  0  0  0 
225471  1  0  0  0  0 
472228  1  0  0  0  0 
473228  1  0  0  0  0 
474229  1  0  0  0  0 
475229  1  0  0  0  0 
476230  1  0  0  0  0 
477230  1  0  0  0  0 
478233  1  0  0  0  0 
479233  1  0  0  0  0 
480234  1  0  0  0  0 
481234  1  0  0  0  0 
235482  1  0  0  0  0 
M  END
> <cdk:Title>
sermorelin

> <Conformer>
1

> <SuperDrugID>
SD002187

$$$$
