carbutamide
  CDK     0628171802

 35 35  0  0  0  0  0  0  0  0999 V2000
   17.8085    2.6896   -2.3742 C   0  0  0  0  0  0  0  0  0  0  0  0
   16.8094    1.8551   -1.5394 C   0  0  2  0  0  0  0  0  0  0  0  0
   15.8934    2.7271   -0.6418 C   0  0  1  0  0  0  0  0  0  0  0  0
   14.7625    1.9184    0.0421 C   0  0  2  0  0  0  0  0  0  0  0  0
   14.0021    2.7689    0.9011 N   0  0  0  0  0  0  0  0  0  0  0  0
   12.8165    2.4451    1.4777 C   0  0  0  0  0  0  0  0  0  0  0  0
   12.2725    1.3337    1.2699 O   0  0  0  0  0  0  0  0  0  0  0  0
   12.2364    3.3808    2.2671 N   0  0  0  0  0  0  0  0  0  0  0  0
   10.6682    3.2282    2.9545 S   0  0  2  0  0  0  0  0  0  0  0  0
   10.4854    4.3457    4.0918 O   0  0  0  0  0  0  0  0  0  0  0  0
   10.5044    1.7767    3.6185 O   0  0  0  0  0  0  0  0  0  0  0  0
    9.5041    3.4717    1.6426 C   0  0  0  0  0  0  0  0  0  0  0  0
    9.1305    4.7772    1.2666 C   0  0  0  0  0  0  0  0  0  0  0  0
    8.3047    4.9793    0.1478 C   0  0  0  0  0  0  0  0  0  0  0  0
    7.8439    3.8795   -0.6026 C   0  0  0  0  0  0  0  0  0  0  0  0
    7.0928    4.0835   -1.7015 N   0  0  0  0  0  0  0  0  0  0  0  0
    8.1850    2.5710   -0.2036 C   0  0  0  0  0  0  0  0  0  0  0  0
    9.0057    2.3676    0.9209 C   0  0  0  0  0  0  0  0  0  0  0  0
   18.4787    2.0219   -2.9193 H   0  0  0  0  0  0  0  0  0  0  0  0
   18.4061    3.3332   -1.7274 H   0  0  0  0  0  0  0  0  0  0  0  0
   17.2768    3.3102   -3.0989 H   0  0  0  0  0  0  0  0  0  0  0  0
   17.3698    1.1609   -0.9084 H   0  0  0  0  0  0  0  0  0  0  0  0
   16.1971    1.2661   -2.2261 H   0  0  0  0  0  0  0  0  0  0  0  0
   16.5035    3.2067    0.1289 H   0  0  0  0  0  0  0  0  0  0  0  0
   15.4349    3.5128   -1.2481 H   0  0  0  0  0  0  0  0  0  0  0  0
   15.1873    1.1013    0.6319 H   0  0  0  0  0  0  0  0  0  0  0  0
   14.1127    1.4972   -0.7305 H   0  0  0  0  0  0  0  0  0  0  0  0
   14.3668    3.6485    1.0919 H   0  0  0  0  0  0  0  0  0  0  0  0
   12.7094    4.2134    2.4159 H   0  0  0  0  0  0  0  0  0  0  0  0
    9.4716    5.5878    1.7890 H   0  0  0  0  0  0  0  0  0  0  0  0
    8.0462    5.9308   -0.1227 H   0  0  0  0  0  0  0  0  0  0  0  0
    6.7620    3.3317   -2.2144 H   0  0  0  0  0  0  0  0  0  0  0  0
    6.8849    4.9865   -1.9882 H   0  0  0  0  0  0  0  0  0  0  0  0
    7.8455    1.7653   -0.7325 H   0  0  0  0  0  0  0  0  0  0  0  0
    9.2537    1.4143    1.1942 H   0  0  0  0  0  0  0  0  0  0  0  0
  1  2  1  0  0  0  0 
  2  3  1  0  0  0  0 
  3  4  1  0  0  0  0 
  4  5  1  0  0  0  0 
  5  6  1  0  0  0  0 
  6  7  2  0  0  0  0 
  6  8  1  0  0  0  0 
  8  9  1  0  0  0  0 
  9 10  2  0  0  0  0 
  9 11  2  0  0  0  0 
  9 12  1  0  0  0  0 
 12 13  2  0  0  0  0 
 13 14  1  0  0  0  0 
 14 15  2  0  0  0  0 
 15 16  1  0  0  0  0 
 15 17  1  0  0  0  0 
 17 18  2  0  0  0  0 
 12 18  1  0  0  0  0 
  1 19  1  0  0  0  0 
  1 20  1  0  0  0  0 
  1 21  1  0  0  0  0 
  2 22  1  0  0  0  0 
  2 23  1  0  0  0  0 
  3 24  1  0  0  0  0 
  3 25  1  0  0  0  0 
  4 26  1  0  0  0  0 
  4 27  1  0  0  0  0 
  5 28  1  0  0  0  0 
  8 29  1  0  0  0  0 
 13 30  1  0  0  0  0 
 14 31  1  0  0  0  0 
 16 32  1  0  0  0  0 
 16 33  1  0  0  0  0 
 17 34  1  0  0  0  0 
 18 35  1  0  0  0  0 
M  END
> <cdk:Title>
carbutamide

> <Conformer>
1

> <SuperDrugID>
SD000435

$$$$
