sucrose
  CDK     0628171802

 45 46  0  0  0  0  0  0  0  0999 V2000
    4.1692   -3.2863   -1.6646 O   0  0  0  0  0  0  0  0  0  0  0  0
    4.0352   -4.6965   -1.3435 C   0  0  2  0  0  0  0  0  0  0  0  0
    3.0418   -2.5097   -2.1242 C   0  0  1  0  0  0  0  0  0  0  0  0
    3.2974   -5.5458   -2.4221 C   0  0  1  0  0  0  0  0  0  0  0  0
    3.3584   -4.8128   -0.0742 O   0  0  0  0  0  0  0  0  0  0  0  0
    5.4861   -5.2124   -1.1160 C   0  0  1  0  0  0  0  0  0  0  0  0
    1.9516   -2.4388   -1.1764 O   0  0  0  0  0  0  0  0  0  0  0  0
    3.5337   -1.0912   -2.5184 C   0  0  2  0  0  0  0  0  0  0  0  0
    1.8921   -5.3193   -2.3996 O   0  0  0  0  0  0  0  0  0  0  0  0
    4.2840   -5.2791    0.9199 C   0  0  1  0  0  0  0  0  0  0  0  0
    6.4703   -4.5542   -1.9139 O   0  0  0  0  0  0  0  0  0  0  0  0
    5.6904   -4.9551    0.3790 C   0  0  1  0  0  0  0  0  0  0  0  0
    2.2046   -1.6929    0.0365 C   0  0  2  0  0  0  0  0  0  0  0  0
    4.6590   -1.1742   -3.3933 O   0  0  0  0  0  0  0  0  0  0  0  0
    3.9034   -0.2749   -1.2557 C   0  0  2  0  0  0  0  0  0  0  0  0
    3.9980   -4.6525    2.3023 C   0  0  1  0  0  0  0  0  0  0  0  0
    6.6947   -5.7889    0.9523 O   0  0  0  0  0  0  0  0  0  0  0  0
    0.8935   -1.6961    0.8642 C   0  0  1  0  0  0  0  0  0  0  0  0
    2.7169   -0.2488   -0.2556 C   0  0  2  0  0  0  0  0  0  0  0  0
    4.2556    1.0547   -1.6365 O   0  0  0  0  0  0  0  0  0  0  0  0
    2.6462   -4.8728    2.6844 O   0  0  0  0  0  0  0  0  0  0  0  0
   -0.1686   -1.0464    0.1688 O   0  0  0  0  0  0  0  0  0  0  0  0
    3.1211    0.3917    0.9530 O   0  0  0  0  0  0  0  0  0  0  0  0
    2.6513   -2.9584   -3.0385 H   0  0  0  0  0  0  0  0  0  0  0  0
    3.6897   -5.3076   -3.4122 H   0  0  0  0  0  0  0  0  0  0  0  0
    3.4436   -6.6110   -2.2393 H   0  0  0  0  0  0  0  0  0  0  0  0
    5.5690   -6.2878   -1.3064 H   0  0  0  0  0  0  0  0  0  0  0  0
    2.7297   -0.5801   -3.0573 H   0  0  0  0  0  0  0  0  0  0  0  0
    1.5331   -5.8928   -3.1076 H   0  0  0  0  0  0  0  0  0  0  0  0
    4.1653   -6.3668    1.0010 H   0  0  0  0  0  0  0  0  0  0  0  0
    6.2340   -4.7771   -2.8390 H   0  0  0  0  0  0  0  0  0  0  0  0
    5.9443   -3.9025    0.5458 H   0  0  0  0  0  0  0  0  0  0  0  0
    2.9625   -2.2181    0.6211 H   0  0  0  0  0  0  0  0  0  0  0  0
    4.3355   -1.6614   -4.1799 H   0  0  0  0  0  0  0  0  0  0  0  0
    4.7767   -0.7286   -0.7753 H   0  0  0  0  0  0  0  0  0  0  0  0
    4.6461   -5.1048    3.0544 H   0  0  0  0  0  0  0  0  0  0  0  0
    4.1809   -3.5779    2.2827 H   0  0  0  0  0  0  0  0  0  0  0  0
    7.5244   -5.5373    0.4960 H   0  0  0  0  0  0  0  0  0  0  0  0
    0.5857   -2.7245    1.0652 H   0  0  0  0  0  0  0  0  0  0  0  0
    1.0417   -1.1994    1.8262 H   0  0  0  0  0  0  0  0  0  0  0  0
    1.9093    0.3460   -0.6907 H   0  0  0  0  0  0  0  0  0  0  0  0
    4.5324    1.4925   -0.8054 H   0  0  0  0  0  0  0  0  0  0  0  0
    2.5611   -4.4315    3.5556 H   0  0  0  0  0  0  0  0  0  0  0  0
   -0.2501   -1.5245   -0.6846 H   0  0  0  0  0  0  0  0  0  0  0  0
    3.8219   -0.1835    1.3263 H   0  0  0  0  0  0  0  0  0  0  0  0
  2  1  1  0  0  0  0 
  2  4  1  0  0  0  0 
  2  5  1  0  0  0  0 
  6  2  1  0  0  0  0 
  3  1  1  0  0  0  0 
  3  7  1  0  0  0  0 
  8  3  1  0  0  0  0 
  4  9  1  0  0  0  0 
 10  5  1  0  0  0  0 
  6 11  1  0  0  0  0 
 12  6  1  0  0  0  0 
 13  7  1  0  0  0  0 
  8 14  1  0  0  0  0 
 15  8  1  0  0  0  0 
 12 10  1  0  0  0  0 
 10 16  1  0  0  0  0 
 12 17  1  0  0  0  0 
 13 18  1  0  0  0  0 
 19 13  1  0  0  0  0 
 15 19  1  0  0  0  0 
 15 20  1  0  0  0  0 
 16 21  1  0  0  0  0 
 18 22  1  0  0  0  0 
 19 23  1  0  0  0  0 
  3 24  1  0  0  0  0 
  4 25  1  0  0  0  0 
  4 26  1  0  0  0  0 
  6 27  1  0  0  0  0 
  8 28  1  0  0  0  0 
  9 29  1  0  0  0  0 
 10 30  1  0  0  0  0 
 11 31  1  0  0  0  0 
 12 32  1  0  0  0  0 
 13 33  1  0  0  0  0 
 14 34  1  0  0  0  0 
 15 35  1  0  0  0  0 
 16 36  1  0  0  0  0 
 16 37  1  0  0  0  0 
 17 38  1  0  0  0  0 
 18 39  1  0  0  0  0 
 18 40  1  0  0  0  0 
 19 41  1  0  0  0  0 
 20 42  1  0  0  0  0 
 21 43  1  0  0  0  0 
 22 44  1  0  0  0  0 
 23 45  1  0  0  0  0 
M  END
> <cdk:Title>
sucrose

> <Conformer>
1

> <SuperDrugID>
SD003655

$$$$
