feclemine
  CDK     0628171801

 68 69  0  0  0  0  0  0  0  0999 V2000
    2.6018   -0.2533    1.6891 C   0  0  1  0  0  0  0  0  0  0  0  0
    2.7027    1.3213    1.8794 C   0  0  1  0  0  0  0  0  0  0  0  0
    2.0234   -1.1064    2.8958 C   0  0  2  0  0  0  0  0  0  0  0  0
    2.0417   -0.6459    0.3405 C   0  0  0  0  0  0  0  0  0  0  0  0
    3.7026    1.9940    0.8642 C   0  0  1  0  0  0  0  0  0  0  0  0
    1.3551    2.1364    1.9454 C   0  0  1  0  0  0  0  0  0  0  0  0
    2.7421   -0.8161    4.2617 C   0  0  1  0  0  0  0  0  0  0  0  0
    2.1136   -2.6462    2.5894 C   0  0  2  0  0  0  0  0  0  0  0  0
    0.6466   -0.7137    0.0991 C   0  0  0  0  0  0  0  0  0  0  0  0
    2.9031   -1.0040   -0.7300 C   0  0  0  0  0  0  0  0  0  0  0  0
    5.0526    1.3518    0.6511 N   0  0  1  0  0  0  0  0  0  0  0  0
    0.8482    2.3226    3.3580 N   0  0  1  0  0  0  0  0  0  0  0  0
    2.3020   -1.7472    5.4244 C   0  0  2  0  0  0  0  0  0  0  0  0
    1.6731   -3.5592    3.7632 C   0  0  2  0  0  0  0  0  0  0  0  0
    0.1370   -1.0706   -1.1636 C   0  0  0  0  0  0  0  0  0  0  0  0
    2.4004   -1.3667   -1.9933 C   0  0  0  0  0  0  0  0  0  0  0  0
    5.8069    1.9446   -0.5136 C   0  0  2  0  0  0  0  0  0  0  0  0
    5.9133    1.2131    1.8822 C   0  0  2  0  0  0  0  0  0  0  0  0
    1.0366    3.7125    3.9158 C   0  0  1  0  0  0  0  0  0  0  0  0
   -0.5128    1.7444    3.6242 C   0  0  1  0  0  0  0  0  0  0  0  0
    2.4614   -3.2397    5.0542 C   0  0  2  0  0  0  0  0  0  0  0  0
    1.0137   -1.3957   -2.2114 C   0  0  0  0  0  0  0  0  0  0  0  0
    5.2727    1.5329   -1.9062 C   0  0  0  0  0  0  0  0  0  0  0  0
    6.7697   -0.0754    1.8523 C   0  0  0  0  0  0  0  0  0  0  0  0
    2.5114    4.0684    4.2060 C   0  0  0  0  0  0  0  0  0  0  0  0
   -0.6770    1.2520    5.0809 C   0  0  0  0  0  0  0  0  0  0  0  0
    3.6440   -0.5774    1.6811 H   0  0  0  0  0  0  0  0  0  0  0  0
    3.1639    1.4910    2.8464 H   0  0  0  0  0  0  0  0  0  0  0  0
    0.9679   -0.8565    3.0229 H   0  0  0  0  0  0  0  0  0  0  0  0
    3.1728    2.0361   -0.0888 H   0  0  0  0  0  0  0  0  0  0  0  0
    3.8752    3.0299    1.1732 H   0  0  0  0  0  0  0  0  0  0  0  0
    1.4960    3.1210    1.4902 H   0  0  0  0  0  0  0  0  0  0  0  0
    0.6104    1.6799    1.2994 H   0  0  0  0  0  0  0  0  0  0  0  0
    3.8239   -0.9160    4.1333 H   0  0  0  0  0  0  0  0  0  0  0  0
    2.5379    0.2058    4.5838 H   0  0  0  0  0  0  0  0  0  0  0  0
    3.1444   -2.9014    2.3216 H   0  0  0  0  0  0  0  0  0  0  0  0
    1.4818   -2.8964    1.7331 H   0  0  0  0  0  0  0  0  0  0  0  0
   -0.0184   -0.5189    0.8474 H   0  0  0  0  0  0  0  0  0  0  0  0
    3.9146   -1.0094   -0.5976 H   0  0  0  0  0  0  0  0  0  0  0  0
    1.2558   -1.5569    5.6778 H   0  0  0  0  0  0  0  0  0  0  0  0
    2.9060   -1.5295    6.3106 H   0  0  0  0  0  0  0  0  0  0  0  0
    1.8434   -4.6034    3.4871 H   0  0  0  0  0  0  0  0  0  0  0  0
    0.6031   -3.4283    3.9491 H   0  0  0  0  0  0  0  0  0  0  0  0
   -0.8730   -1.0967   -1.3191 H   0  0  0  0  0  0  0  0  0  0  0  0
    3.0409   -1.6098   -2.7536 H   0  0  0  0  0  0  0  0  0  0  0  0
    6.8518    1.6245   -0.4956 H   0  0  0  0  0  0  0  0  0  0  0  0
    5.8142    3.0372   -0.4437 H   0  0  0  0  0  0  0  0  0  0  0  0
    5.3204    1.1470    2.7914 H   0  0  0  0  0  0  0  0  0  0  0  0
    6.5670    2.0810    2.0087 H   0  0  0  0  0  0  0  0  0  0  0  0
    0.6182    4.4575    3.2326 H   0  0  0  0  0  0  0  0  0  0  0  0
    0.5082    3.8356    4.8629 H   0  0  0  0  0  0  0  0  0  0  0  0
   -1.2917    2.4773    3.3925 H   0  0  0  0  0  0  0  0  0  0  0  0
   -0.6971    0.8729    2.9905 H   0  0  0  0  0  0  0  0  0  0  0  0
    2.0931   -3.8624    5.8740 H   0  0  0  0  0  0  0  0  0  0  0  0
    3.5204   -3.4709    4.9068 H   0  0  0  0  0  0  0  0  0  0  0  0
    0.6416   -1.6561   -3.1282 H   0  0  0  0  0  0  0  0  0  0  0  0
    5.9164    1.9459   -2.6850 H   0  0  0  0  0  0  0  0  0  0  0  0
    4.2639    1.9055   -2.0780 H   0  0  0  0  0  0  0  0  0  0  0  0
    5.2737    0.4478   -2.0026 H   0  0  0  0  0  0  0  0  0  0  0  0
    7.2565   -0.2244    2.8193 H   0  0  0  0  0  0  0  0  0  0  0  0
    7.5442   -0.0150    1.0880 H   0  0  0  0  0  0  0  0  0  0  0  0
    6.1417   -0.9441    1.6471 H   0  0  0  0  0  0  0  0  0  0  0  0
    2.5804    5.0981    4.5632 H   0  0  0  0  0  0  0  0  0  0  0  0
    3.1183    3.9832    3.3070 H   0  0  0  0  0  0  0  0  0  0  0  0
    2.9163    3.4039    4.9721 H   0  0  0  0  0  0  0  0  0  0  0  0
   -1.6605    0.8003    5.2122 H   0  0  0  0  0  0  0  0  0  0  0  0
   -0.5812    2.0675    5.7947 H   0  0  0  0  0  0  0  0  0  0  0  0
    0.0792    0.5046    5.3082 H   0  0  0  0  0  0  0  0  0  0  0  0
  1  2  1  0  0  0  0 
  1  3  1  0  0  0  0 
  1  4  1  0  0  0  0 
  2  5  1  0  0  0  0 
  2  6  1  0  0  0  0 
  3  7  1  0  0  0  0 
  3  8  1  0  0  0  0 
  4  9  2  0  0  0  0 
  4 10  1  0  0  0  0 
  5 11  1  0  0  0  0 
  6 12  1  0  0  0  0 
  7 13  1  0  0  0  0 
  8 14  1  0  0  0  0 
  9 15  1  0  0  0  0 
 10 16  2  0  0  0  0 
 11 17  1  0  0  0  0 
 11 18  1  0  0  0  0 
 12 19  1  0  0  0  0 
 12 20  1  0  0  0  0 
 13 21  1  0  0  0  0 
 14 21  1  0  0  0  0 
 15 22  2  0  0  0  0 
 16 22  1  0  0  0  0 
 17 23  1  0  0  0  0 
 18 24  1  0  0  0  0 
 19 25  1  0  0  0  0 
 20 26  1  0  0  0  0 
  1 27  1  0  0  0  0 
  2 28  1  0  0  0  0 
  3 29  1  0  0  0  0 
  5 30  1  0  0  0  0 
  5 31  1  0  0  0  0 
  6 32  1  0  0  0  0 
  6 33  1  0  0  0  0 
  7 34  1  0  0  0  0 
  7 35  1  0  0  0  0 
  8 36  1  0  0  0  0 
  8 37  1  0  0  0  0 
  9 38  1  0  0  0  0 
 10 39  1  0  0  0  0 
 13 40  1  0  0  0  0 
 13 41  1  0  0  0  0 
 14 42  1  0  0  0  0 
 14 43  1  0  0  0  0 
 15 44  1  0  0  0  0 
 16 45  1  0  0  0  0 
 17 46  1  0  0  0  0 
 17 47  1  0  0  0  0 
 18 48  1  0  0  0  0 
 18 49  1  0  0  0  0 
 19 50  1  0  0  0  0 
 19 51  1  0  0  0  0 
 20 52  1  0  0  0  0 
 20 53  1  0  0  0  0 
 21 54  1  0  0  0  0 
 21 55  1  0  0  0  0 
 22 56  1  0  0  0  0 
 23 57  1  0  0  0  0 
 23 58  1  0  0  0  0 
 23 59  1  0  0  0  0 
 24 60  1  0  0  0  0 
 24 61  1  0  0  0  0 
 24 62  1  0  0  0  0 
 25 63  1  0  0  0  0 
 25 64  1  0  0  0  0 
 25 65  1  0  0  0  0 
 26 66  1  0  0  0  0 
 26 67  1  0  0  0  0 
 26 68  1  0  0  0  0 
M  END
> <cdk:Title>
feclemine

> <Conformer>
1

> <SuperDrugID>
SD003200

$$$$
