ticlatone
  CDK     0628171802

 15 16  0  0  0  0  0  0  0  0999 V2000
   -5.0134    0.7422    0.0000 O   0  0  0  0  0  0  0  0  0  0  0  0
   -4.1817   -0.1935    0.0000 C   0  0  0  0  0  0  0  0  0  0  0  0
   -2.7855   -0.0004    0.0000 C   0  0  0  0  0  0  0  0  0  0  0  0
   -4.5748   -1.4858    0.0000 N   0  0  0  0  0  0  0  0  0  0  0  0
   -2.0572   -1.1974    0.0000 C   0  0  0  0  0  0  0  0  0  0  0  0
   -2.0889    1.2261    0.0000 C   0  0  0  0  0  0  0  0  0  0  0  0
   -3.2128   -2.5098    0.0000 S   0  0  0  0  0  0  0  0  0  0  0  0
   -0.6543   -1.2287    0.0000 C   0  0  0  0  0  0  0  0  0  0  0  0
   -0.6776    1.2228    0.0000 C   0  0  0  0  0  0  0  0  0  0  0  0
    0.0376    0.0017    0.0000 C   0  0  0  0  0  0  0  0  0  0  0  0
    1.7294    0.0090    0.0000 Cl  0  0  0  0  0  0  0  0  0  0  0  0
   -5.4968   -1.7894    0.0000 H   0  0  0  0  0  0  0  0  0  0  0  0
   -2.5982    2.1137    0.0000 H   0  0  0  0  0  0  0  0  0  0  0  0
   -0.1585   -2.1230    0.0000 H   0  0  0  0  0  0  0  0  0  0  0  0
   -0.1780    2.1150    0.0000 H   0  0  0  0  0  0  0  0  0  0  0  0
  1  2  2  0  0  0  0 
  2  3  1  0  0  0  0 
  2  4  1  0  0  0  0 
  3  5  1  0  0  0  0 
  3  6  2  0  0  0  0 
  4  7  1  0  0  0  0 
  5  7  1  0  0  0  0 
  5  8  2  0  0  0  0 
  6  9  1  0  0  0  0 
  8 10  1  0  0  0  0 
  9 10  2  0  0  0  0 
 10 11  1  0  0  0  0 
 12  4  1  0  0  0  0 
 13  6  1  0  0  0  0 
 14  8  1  0  0  0  0 
 15  9  1  0  0  0  0 
M  END
> <cdk:Title>
ticlatone

> <Conformer>
1

> <SuperDrugID>
SD003737

$$$$
