iprazochrome
  CDK     0628171801

 35 36  0  0  0  0  0  0  0  0999 V2000
    4.9662   -0.3858    3.9719 C   0  0  2  0  0  0  0  0  0  0  0  0
    4.9962    0.7727    5.0032 C   0  0  0  0  0  0  0  0  0  0  0  0
    6.3436   -1.0996    3.8838 C   0  0  0  0  0  0  0  0  0  0  0  0
    4.4740    0.0784    2.6838 N   0  0  0  0  0  0  0  0  0  0  0  0
    3.2444   -0.1668    2.1469 C   0  0  0  0  0  0  0  0  0  0  0  0
    5.2414    0.9020    1.7865 C   0  0  1  0  0  0  0  0  0  0  0  0
    3.1397    0.4293    0.8902 C   0  0  0  0  0  0  0  0  0  0  0  0
    2.1425   -0.8843    2.6635 C   0  0  0  0  0  0  0  0  0  0  0  0
    4.3657    1.1296    0.5296 C   0  0  2  0  0  0  0  0  0  0  0  0
    1.9687    0.3267    0.1182 C   0  0  0  0  0  0  0  0  0  0  0  0
    0.9581   -0.9980    1.9067 C   0  0  0  0  0  0  0  0  0  0  0  0
    4.9260    0.5550   -0.6505 O   0  0  0  0  0  0  0  0  0  0  0  0
    0.8621   -0.3964    0.6268 C   0  0  0  0  0  0  0  0  0  0  0  0
   -0.0632   -1.7130    2.4487 O   0  0  0  0  0  0  0  0  0  0  0  0
   -0.2711   -0.5478   -0.0503 N   0  0  0  0  0  0  0  0  0  0  0  0
   -0.4849   -0.2748   -1.2278 N   0  0  0  0  0  0  0  0  0  0  0  0
   -0.3552   -1.1295   -2.2239 C   0  0  0  0  0  0  0  0  0  0  0  0
   -0.6838   -0.7374   -3.4613 N   0  0  0  0  0  0  0  0  0  0  0  0
    0.0631   -2.2999   -2.0607 O   0  0  0  0  0  0  0  0  0  0  0  0
    4.2870   -1.1373    4.3796 H   0  0  0  0  0  0  0  0  0  0  0  0
    4.0272    1.2751    5.0302 H   0  0  0  0  0  0  0  0  0  0  0  0
    5.2061    0.3838    6.0015 H   0  0  0  0  0  0  0  0  0  0  0  0
    5.7655    1.5047    4.7499 H   0  0  0  0  0  0  0  0  0  0  0  0
    6.3018   -1.9148    3.1581 H   0  0  0  0  0  0  0  0  0  0  0  0
    6.6118   -1.5216    4.8552 H   0  0  0  0  0  0  0  0  0  0  0  0
    7.1291   -0.4029    3.5854 H   0  0  0  0  0  0  0  0  0  0  0  0
    5.4713    1.8591    2.2624 H   0  0  0  0  0  0  0  0  0  0  0  0
    6.1792    0.4140    1.5056 H   0  0  0  0  0  0  0  0  0  0  0  0
    2.1891   -1.3240    3.5816 H   0  0  0  0  0  0  0  0  0  0  0  0
    4.1748    2.1941    0.3679 H   0  0  0  0  0  0  0  0  0  0  0  0
    1.9289    0.7751   -0.8017 H   0  0  0  0  0  0  0  0  0  0  0  0
    5.7652    1.0366   -0.7987 H   0  0  0  0  0  0  0  0  0  0  0  0
   -0.8143   -1.6349    1.8277 H   0  0  0  0  0  0  0  0  0  0  0  0
   -0.6008   -1.3564   -4.2039 H   0  0  0  0  0  0  0  0  0  0  0  0
   -1.0090    0.1636   -3.6148 H   0  0  0  0  0  0  0  0  0  0  0  0
  1  2  1  0  0  0  0 
  1  3  1  0  0  0  0 
  1  4  1  0  0  0  0 
  4  5  1  0  0  0  0 
  4  6  1  0  0  0  0 
  5  7  2  0  0  0  0 
  5  8  1  0  0  0  0 
  9  6  1  0  0  0  0 
  9  7  1  0  0  0  0 
  7 10  1  0  0  0  0 
  8 11  2  0  0  0  0 
  9 12  1  0  0  0  0 
 10 13  2  0  0  0  0 
 11 13  1  0  0  0  0 
 11 14  1  0  0  0  0 
 15 13  1  0  0  0  0 
 15 16  2  0  0  0  0 
 16 17  1  0  0  0  0 
 17 18  1  0  0  0  0 
 17 19  2  0  0  0  0 
 20  1  1  0  0  0  0 
 21  2  1  0  0  0  0 
 22  2  1  0  0  0  0 
 23  2  1  0  0  0  0 
 24  3  1  0  0  0  0 
 25  3  1  0  0  0  0 
 26  3  1  0  0  0  0 
 27  6  1  0  0  0  0 
 28  6  1  0  0  0  0 
 29  8  1  0  0  0  0 
 30  9  1  0  0  0  0 
 31 10  1  0  0  0  0 
 32 12  1  0  0  0  0 
 33 14  1  0  0  0  0 
 34 18  1  0  0  0  0 
 35 18  1  0  0  0  0 
M  END
> <cdk:Title>
iprazochrome

> <Conformer>
1

> <SuperDrugID>
SD001307

$$$$
