cocaine
  CDK     0628171802

 43 45  0  0  0  0  0  0  0  0999 V2000
   -0.9186   -3.4532    0.3722 C   0  0  2  0  0  0  0  0  0  0  0  0
   -1.7965   -3.6795    1.6612 C   0  0  2  0  0  0  0  0  0  0  0  0
   -1.2181   -2.9756    2.8350 C   0  0  0  0  0  0  0  0  0  0  0  0
   -0.3382   -5.9833    0.6061 C   0  0  2  0  0  0  0  0  0  0  0  0
    0.4679   -6.7068    0.4479 H   0  0  0  0  0  0  0  0  0  0  0  0
   -2.0541   -5.2032    1.9474 C   0  0  1  0  0  0  0  0  0  0  0  0
    0.1647   -4.5649    0.1869 C   0  0  2  0  0  0  0  0  0  0  0  0
   -2.7746   -5.9355    0.7817 C   0  0  1  0  0  0  0  0  0  0  0  0
   -1.6291   -6.4327   -0.1285 C   0  0  2  0  0  0  0  0  0  0  0  0
   -0.7308   -5.8794    2.0355 N   0  0  1  0  0  0  0  0  0  0  0  0
   -0.1202   -3.3402    3.3213 O   0  0  0  0  0  0  0  0  0  0  0  0
   -1.8793   -1.8900    3.3356 O   0  0  0  0  0  0  0  0  0  0  0  0
   -0.8433   -0.9134    0.3452 C   0  0  0  0  0  0  0  0  0  0  0  0
   -0.0465    0.2686    0.3850 C   0  0  0  0  0  0  0  0  0  0  0  0
   -2.0948   -0.8310    0.3366 O   0  0  0  0  0  0  0  0  0  0  0  0
   -0.6423    1.5569    0.4167 C   0  0  0  0  0  0  0  0  0  0  0  0
    0.1434    2.7241    0.4569 C   0  0  0  0  0  0  0  0  0  0  0  0
    1.5451    2.6290    0.4736 C   0  0  0  0  0  0  0  0  0  0  0  0
    2.1572    1.3644    0.4408 C   0  0  0  0  0  0  0  0  0  0  0  0
    1.3700    0.1967    0.3986 C   0  0  0  0  0  0  0  0  0  0  0  0
   -0.6801   -7.1458    2.8202 C   0  0  0  0  0  0  0  0  0  0  0  0
   -1.4187   -1.0122    4.3642 C   0  0  0  0  0  0  0  0  0  0  0  0
   -2.6346   -5.3023    2.8711 H   0  0  0  0  0  0  0  0  0  0  0  0
   -1.5804   -3.5020   -0.4981 H   0  0  0  0  0  0  0  0  0  0  0  0
   -0.2693   -2.1612    0.3276 O   0  0  0  0  0  0  0  0  0  0  0  0
   -2.7736   -3.2232    1.4704 H   0  0  0  0  0  0  0  0  0  0  0  0
    1.0387   -4.3192    0.7981 H   0  0  0  0  0  0  0  0  0  0  0  0
    0.4910   -4.5889   -0.8566 H   0  0  0  0  0  0  0  0  0  0  0  0
   -3.3404   -6.7872    1.1713 H   0  0  0  0  0  0  0  0  0  0  0  0
   -3.4672   -5.2820    0.2436 H   0  0  0  0  0  0  0  0  0  0  0  0
   -1.6614   -7.5229   -0.2090 H   0  0  0  0  0  0  0  0  0  0  0  0
   -1.6987   -6.0108   -1.1347 H   0  0  0  0  0  0  0  0  0  0  0  0
   -1.6612    1.6598    0.4103 H   0  0  0  0  0  0  0  0  0  0  0  0
   -0.3046    3.6425    0.4747 H   0  0  0  0  0  0  0  0  0  0  0  0
    2.1153    3.4766    0.5109 H   0  0  0  0  0  0  0  0  0  0  0  0
    3.1773    1.2949    0.4484 H   0  0  0  0  0  0  0  0  0  0  0  0
    1.8474   -0.7081    0.3774 H   0  0  0  0  0  0  0  0  0  0  0  0
   -1.0125   -6.9604    3.8438 H   0  0  0  0  0  0  0  0  0  0  0  0
   -1.3043   -7.9267    2.3807 H   0  0  0  0  0  0  0  0  0  0  0  0
    0.3491   -7.5075    2.8630 H   0  0  0  0  0  0  0  0  0  0  0  0
   -0.5256   -0.4816    4.0272 H   0  0  0  0  0  0  0  0  0  0  0  0
   -2.2011   -0.2851    4.5790 H   0  0  0  0  0  0  0  0  0  0  0  0
   -1.1924   -1.5688    5.2739 H   0  0  0  0  0  0  0  0  0  0  0  0
  4  5  1  0  0  0  0 
  1  7  1  0  0  0  0 
  1  2  1  0  0  0  0 
  4  7  1  0  0  0  0 
  2  6  1  0  0  0  0 
  8  9  1  0  0  0  0 
  4  9  1  0  0  0  0 
  4 10  1  0  0  0  0 
  6  8  1  0  0  0  0 
  6 10  1  0  0  0  0 
  3 11  2  0  0  0  0 
  3 12  1  0  0  0  0 
 13 14  1  0  0  0  0 
 13 15  2  0  0  0  0 
 14 16  2  0  0  0  0 
 16 17  1  0  0  0  0 
 17 18  2  0  0  0  0 
 18 19  1  0  0  0  0 
 19 20  2  0  0  0  0 
 14 20  1  0  0  0  0 
 10 21  1  0  0  0  0 
 12 22  1  0  0  0  0 
  6 23  1  0  0  0  0 
  1 24  1  0  0  0  0 
  1 25  1  0  0  0  0 
 13 25  1  0  0  0  0 
  2 26  1  0  0  0  0 
  2  3  1  0  0  0  0 
  7 27  1  0  0  0  0 
  7 28  1  0  0  0  0 
  8 29  1  0  0  0  0 
  8 30  1  0  0  0  0 
  9 31  1  0  0  0  0 
  9 32  1  0  0  0  0 
 16 33  1  0  0  0  0 
 17 34  1  0  0  0  0 
 18 35  1  0  0  0  0 
 19 36  1  0  0  0  0 
 20 37  1  0  0  0  0 
 21 38  1  0  0  0  0 
 21 39  1  0  0  0  0 
 21 40  1  0  0  0  0 
 22 41  1  0  0  0  0 
 22 42  1  0  0  0  0 
 22 43  1  0  0  0  0 
M  END
> <cdk:Title>
cocaine

> <Conformer>
1

> <SuperDrugID>
SD000640

$$$$
