tiotropium bromide
  CDK     0628171801

 48 52  0  0  0  0  0  0  0  0999 V2000
   -1.9967   -4.8538    0.8307 N   0  0  1  0  0  0  0  0  0  0  0  0
   -2.3968   -6.3001    1.1119 C   0  0  0  0  0  0  0  0  0  0  0  0
   -2.6439   -4.5649   -0.5202 C   0  0  0  0  0  0  0  0  0  0  0  0
   -2.3796   -3.8496    1.8993 C   0  0  2  0  0  0  0  0  0  0  0  0
   -0.5070   -4.5841    0.8519 C   0  0  1  0  0  0  0  0  0  0  0  0
   -1.5515   -2.5525    1.6431 C   0  0  1  0  0  0  0  0  0  0  0  0
   -0.3084   -3.0398    0.9255 C   0  0  2  0  0  0  0  0  0  0  0  0
    0.1931   -5.1942    2.1196 C   0  0  1  0  0  0  0  0  0  0  0  0
   -2.0032   -4.3410    3.3425 C   0  0  2  0  0  0  0  0  0  0  0  0
   -0.4915   -4.7509    3.4636 C   0  0  1  0  0  0  0  0  0  0  0  0
   -1.2058   -2.0948    0.3323 O   0  0  0  0  0  0  0  0  0  0  0  0
    0.0507   -3.8709    3.8243 H   0  0  0  0  0  0  0  0  0  0  0  0
   -0.3634   -5.8249    4.4089 O   0  0  0  0  0  0  0  0  0  0  0  0
    0.3134   -5.8621    5.5982 C   0  0  0  0  0  0  0  0  0  0  0  0
    0.8701   -4.8297    6.0420 O   0  0  0  0  0  0  0  0  0  0  0  0
    0.3853   -7.1461    6.3463 C   0  0  1  0  0  0  0  0  0  0  0  0
    1.4439   -7.0505    7.3097 O   0  0  0  0  0  0  0  0  0  0  0  0
   -0.8893   -7.4342    7.0664 C   0  0  0  0  0  0  0  0  0  0  0  0
   -1.0463   -8.2125    8.2260 C   0  0  0  0  0  0  0  0  0  0  0  0
   -2.3631   -8.3896    8.6855 C   0  0  0  0  0  0  0  0  0  0  0  0
   -3.3413   -7.7585    7.9188 C   0  0  0  0  0  0  0  0  0  0  0  0
   -2.5160   -6.9450    6.6064 S   0  0  0  0  0  0  0  0  0  0  0  0
    0.7393   -8.2158    5.3718 C   0  0  0  0  0  0  0  0  0  0  0  0
    1.9832   -8.3867    4.7420 C   0  0  0  0  0  0  0  0  0  0  0  0
    2.0272   -9.3397    3.7097 C   0  0  0  0  0  0  0  0  0  0  0  0
    0.8234   -9.9997    3.4638 C   0  0  0  0  0  0  0  0  0  0  0  0
   -0.3441   -9.3732    4.6087 S   0  0  0  0  0  0  0  0  0  0  0  0
   -3.4846   -6.4095    1.1452 H   0  0  0  0  0  0  0  0  0  0  0  0
   -2.0111   -6.9744    0.3413 H   0  0  0  0  0  0  0  0  0  0  0  0
   -2.0347   -6.6986    2.0562 H   0  0  0  0  0  0  0  0  0  0  0  0
   -2.2555   -5.2322   -1.2956 H   0  0  0  0  0  0  0  0  0  0  0  0
   -2.5009   -3.5592   -0.8968 H   0  0  0  0  0  0  0  0  0  0  0  0
   -3.7277   -4.7059   -0.4752 H   0  0  0  0  0  0  0  0  0  0  0  0
   -3.4474   -3.6109    1.8681 H   0  0  0  0  0  0  0  0  0  0  0  0
   -0.0144   -4.9655   -0.0459 H   0  0  0  0  0  0  0  0  0  0  0  0
   -1.3235   -1.8747    2.4711 H   0  0  0  0  0  0  0  0  0  0  0  0
    0.6205   -2.6240    1.3267 H   0  0  0  0  0  0  0  0  0  0  0  0
    0.2043   -6.2844    2.0329 H   0  0  0  0  0  0  0  0  0  0  0  0
    1.2463   -4.8946    2.1392 H   0  0  0  0  0  0  0  0  0  0  0  0
   -2.6528   -5.1741    3.6163 H   0  0  0  0  0  0  0  0  0  0  0  0
   -2.2230   -3.5547    4.0715 H   0  0  0  0  0  0  0  0  0  0  0  0
    1.5016   -7.9317    7.7354 H   0  0  0  0  0  0  0  0  0  0  0  0
   -0.2557   -8.6352    8.7138 H   0  0  0  0  0  0  0  0  0  0  0  0
   -2.5889   -8.9417    9.5152 H   0  0  0  0  0  0  0  0  0  0  0  0
   -4.3482   -7.7711    8.0852 H   0  0  0  0  0  0  0  0  0  0  0  0
    2.8032   -7.8322    4.9955 H   0  0  0  0  0  0  0  0  0  0  0  0
    2.8741   -9.5236    3.1684 H   0  0  0  0  0  0  0  0  0  0  0  0
    0.6514  -10.7059    2.7476 H   0  0  0  0  0  0  0  0  0  0  0  0
  1  2  1  0  0  0  0 
  1  3  1  0  0  0  0 
  1  4  1  0  0  0  0 
  1  5  1  0  0  0  0 
  4  6  1  0  0  0  0 
  6  7  1  0  0  0  0 
  7  5  1  0  0  0  0 
  5  8  1  0  0  0  0 
  4  9  1  0  0  0  0 
  8 10  1  0  0  0  0 
  9 10  1  0  0  0  0 
  7 11  1  0  0  0  0 
  6 11  1  0  0  0  0 
 10 12  1  0  0  0  0 
 10 13  1  0  0  0  0 
 13 14  1  0  0  0  0 
 14 15  2  0  0  0  0 
 14 16  1  0  0  0  0 
 16 17  1  0  0  0  0 
 16 18  1  0  0  0  0 
 18 19  2  0  0  0  0 
 19 20  1  0  0  0  0 
 20 21  2  0  0  0  0 
 21 22  1  0  0  0  0 
 22 18  1  0  0  0  0 
 16 23  1  0  0  0  0 
 23 24  2  0  0  0  0 
 24 25  1  0  0  0  0 
 25 26  2  0  0  0  0 
 26 27  1  0  0  0  0 
 27 23  1  0  0  0  0 
  2 28  1  0  0  0  0 
  2 29  1  0  0  0  0 
  2 30  1  0  0  0  0 
  3 31  1  0  0  0  0 
  3 32  1  0  0  0  0 
  3 33  1  0  0  0  0 
  4 34  1  0  0  0  0 
  5 35  1  0  0  0  0 
  6 36  1  0  0  0  0 
  7 37  1  0  0  0  0 
  8 38  1  0  0  0  0 
  8 39  1  0  0  0  0 
  9 40  1  0  0  0  0 
  9 41  1  0  0  0  0 
 17 42  1  0  0  0  0 
 19 43  1  0  0  0  0 
 20 44  1  0  0  0  0 
 21 45  1  0  0  0  0 
 24 46  1  0  0  0  0 
 25 47  1  0  0  0  0 
 26 48  1  0  0  0  0 
M  CHG  1   1   1
M  END
> <cdk:Title>
tiotropium bromide

> <Conformer>
1

> <SuperDrugID>
SD002409

$$$$
