methaniazide
  CDK     0628171801

 24 24  0  0  0  0  0  0  0  0999 V2000
   -2.8084    1.7715   -1.2800 C   0  0  0  0  0  0  0  0  0  0  0  0
   -3.1295    0.5733   -0.7168 N   0  0  0  0  0  0  0  0  0  0  0  0
   -3.7248    2.4326   -1.8245 O   0  0  0  0  0  0  0  0  0  0  0  0
   -1.4720    2.2743   -1.2700 C   0  0  0  0  0  0  0  0  0  0  0  0
   -4.3687    0.0278   -0.7752 N   0  0  2  0  0  0  0  0  0  0  0  0
   -1.1908    3.6250   -1.6051 C   0  0  0  0  0  0  0  0  0  0  0  0
   -0.3738    1.4398   -0.9391 C   0  0  0  0  0  0  0  0  0  0  0  0
   -5.0051   -0.1064    0.5446 C   0  0  2  0  0  0  0  0  0  0  0  0
    0.1372    4.0933   -1.5978 C   0  0  0  0  0  0  0  0  0  0  0  0
    0.9342    1.9541   -0.9468 C   0  0  0  0  0  0  0  0  0  0  0  0
   -6.6662   -0.8334    0.3243 S   0  0  1  0  0  0  0  0  0  0  0  0
    1.1484    3.2524   -1.2719 N   0  0  0  0  0  0  0  0  0  0  0  0
   -7.4305   -0.1361   -0.8985 O   0  0  0  0  0  0  0  0  0  0  0  0
   -6.5554   -2.4119    0.0733 O   0  0  0  0  0  0  0  0  0  0  0  0
   -7.5771   -0.5776    1.7475 O   0  0  0  0  0  0  0  0  0  0  0  0
   -2.4367    0.0725   -0.2616 H   0  0  0  0  0  0  0  0  0  0  0  0
   -4.3030   -0.8908   -1.2209 H   0  0  0  0  0  0  0  0  0  0  0  0
   -1.9376    4.2787   -1.8538 H   0  0  0  0  0  0  0  0  0  0  0  0
   -0.5060    0.4547   -0.7014 H   0  0  0  0  0  0  0  0  0  0  0  0
   -5.1122    0.8767    1.0078 H   0  0  0  0  0  0  0  0  0  0  0  0
   -4.4166   -0.7553    1.1982 H   0  0  0  0  0  0  0  0  0  0  0  0
    0.3488    5.0629   -1.8393 H   0  0  0  0  0  0  0  0  0  0  0  0
    1.7277    1.3547   -0.7154 H   0  0  0  0  0  0  0  0  0  0  0  0
   -7.1632    0.2046    2.1681 H   0  0  0  0  0  0  0  0  0  0  0  0
  1  2  1  0  0  0  0 
  1  3  2  0  0  0  0 
  1  4  1  0  0  0  0 
  2  5  1  0  0  0  0 
  4  6  2  0  0  0  0 
  4  7  1  0  0  0  0 
  5  8  1  0  0  0  0 
  6  9  1  0  0  0  0 
  7 10  2  0  0  0  0 
  8 11  1  0  0  0  0 
  9 12  2  0  0  0  0 
 10 12  1  0  0  0  0 
 11 13  2  0  0  0  0 
 11 14  2  0  0  0  0 
 11 15  1  0  0  0  0 
  2 16  1  0  0  0  0 
  5 17  1  0  0  0  0 
  6 18  1  0  0  0  0 
  7 19  1  0  0  0  0 
  8 20  1  0  0  0  0 
  8 21  1  0  0  0  0 
  9 22  1  0  0  0  0 
 10 23  1  0  0  0  0 
 15 24  1  0  0  0  0 
M  END
> <cdk:Title>
methaniazide

> <Conformer>
1

> <SuperDrugID>
SD001535

$$$$
