tiamenidine
  CDK     0628171801

 23 24  0  0  0  0  0  0  0  0999 V2000
   -1.4215    0.1902   -2.1239 N   0  0  0  0  0  0  0  0  0  0  0  0
   -0.9447    0.0783   -0.9363 C   0  0  0  0  0  0  0  0  0  0  0  0
   -1.2776   -0.5879   -3.1898 C   0  0  0  0  0  0  0  0  0  0  0  0
   -1.1731    0.9657   -0.0032 N   0  0  0  0  0  0  0  0  0  0  0  0
   -0.5954    0.6251    1.2410 C   0  0  2  0  0  0  0  0  0  0  0  0
    0.1454   -0.6873    0.9082 C   0  0  2  0  0  0  0  0  0  0  0  0
   -0.2128   -0.8951   -0.4430 N   0  0  0  0  0  0  0  0  0  0  0  0
   -2.4262   -0.9217   -3.9249 C   0  0  0  0  0  0  0  0  0  0  0  0
   -1.9322   -1.9777   -5.2321 S   0  0  0  0  0  0  0  0  0  0  0  0
   -0.2280   -1.9453   -4.8384 C   0  0  0  0  0  0  0  0  0  0  0  0
   -0.0632   -1.1183   -3.7147 C   0  0  0  0  0  0  0  0  0  0  0  0
   -4.0259   -0.4520   -3.6371 Cl  0  0  0  0  0  0  0  0  0  0  0  0
    1.3031   -0.8325   -3.2220 C   0  0  0  0  0  0  0  0  0  0  0  0
   -1.6798    1.7796   -0.1522 H   0  0  0  0  0  0  0  0  0  0  0  0
   -1.3766    0.4705    1.9900 H   0  0  0  0  0  0  0  0  0  0  0  0
    0.0908    1.4085    1.5691 H   0  0  0  0  0  0  0  0  0  0  0  0
   -0.1999   -1.5184    1.5282 H   0  0  0  0  0  0  0  0  0  0  0  0
    1.2294   -0.5731    1.0018 H   0  0  0  0  0  0  0  0  0  0  0  0
    0.0543   -1.6767   -0.9505 H   0  0  0  0  0  0  0  0  0  0  0  0
    0.5080   -2.4243   -5.3601 H   0  0  0  0  0  0  0  0  0  0  0  0
    1.7316   -1.7289   -2.7694 H   0  0  0  0  0  0  0  0  0  0  0  0
    1.3188   -0.0257   -2.4910 H   0  0  0  0  0  0  0  0  0  0  0  0
    1.9400   -0.5233   -4.0524 H   0  0  0  0  0  0  0  0  0  0  0  0
  1  2  2  0  0  0  0 
  1  3  1  0  0  0  0 
  4  5  1  0  0  0  0 
  5  6  1  0  0  0  0 
  6  7  1  0  0  0  0 
  2  4  1  0  0  0  0 
  2  7  1  0  0  0  0 
  8  9  1  0  0  0  0 
  9 10  1  0  0  0  0 
 10 11  2  0  0  0  0 
  3  8  2  0  0  0  0 
  3 11  1  0  0  0  0 
  8 12  1  0  0  0  0 
 11 13  1  0  0  0  0 
 14  4  1  0  0  0  0 
 15  5  1  0  0  0  0 
 16  5  1  0  0  0  0 
 17  6  1  0  0  0  0 
 18  6  1  0  0  0  0 
 19  7  1  0  0  0  0 
 20 10  1  0  0  0  0 
 21 13  1  0  0  0  0 
 22 13  1  0  0  0  0 
 23 13  1  0  0  0  0 
M  END
> <cdk:Title>
tiamenidine

> <Conformer>
1

> <SuperDrugID>
SD002382

$$$$
