mannitol
  CDK     0628171802

 26 25  0  0  0  0  0  0  0  0999 V2000
   -3.9087  -17.3442    8.5504 O   0  0  0  0  0  0  0  0  0  0  0  0
   -2.5931  -16.7982    8.5253 C   0  0  2  0  0  0  0  0  0  0  0  0
   -1.5587  -17.8705    8.9509 C   0  0  1  0  0  0  0  0  0  0  0  0
   -1.5895  -18.9689    8.0397 O   0  0  0  0  0  0  0  0  0  0  0  0
   -0.1027  -17.3356    9.1221 C   0  0  1  0  0  0  0  0  0  0  0  0
    0.7165  -18.4094    9.5867 O   0  0  0  0  0  0  0  0  0  0  0  0
    0.5617  -16.7008    7.8576 C   0  0  2  0  0  0  0  0  0  0  0  0
    0.6194  -17.6663    6.8070 O   0  0  0  0  0  0  0  0  0  0  0  0
    1.9952  -16.1365    8.1164 C   0  0  2  0  0  0  0  0  0  0  0  0
    1.9782  -15.1784    9.1770 O   0  0  0  0  0  0  0  0  0  0  0  0
    2.6122  -15.4380    6.8769 C   0  0  1  0  0  0  0  0  0  0  0  0
    2.8474  -16.3573    5.8150 O   0  0  0  0  0  0  0  0  0  0  0  0
   -4.4923  -16.6252    8.2272 H   0  0  0  0  0  0  0  0  0  0  0  0
   -2.5586  -15.9482    9.2112 H   0  0  0  0  0  0  0  0  0  0  0  0
   -2.3892  -16.4476    7.5120 H   0  0  0  0  0  0  0  0  0  0  0  0
   -1.8773  -18.2598    9.9224 H   0  0  0  0  0  0  0  0  0  0  0  0
   -2.5066  -19.3137    8.0786 H   0  0  0  0  0  0  0  0  0  0  0  0
   -0.1257  -16.5833    9.9150 H   0  0  0  0  0  0  0  0  0  0  0  0
    0.2851  -18.7286   10.4075 H   0  0  0  0  0  0  0  0  0  0  0  0
   -0.0576  -15.8699    7.5132 H   0  0  0  0  0  0  0  0  0  0  0  0
   -0.3135  -17.8437    6.5681 H   0  0  0  0  0  0  0  0  0  0  0  0
    2.6603  -16.9513    8.4154 H   0  0  0  0  0  0  0  0  0  0  0  0
    1.7578  -15.6895    9.9838 H   0  0  0  0  0  0  0  0  0  0  0  0
    1.9493  -14.6474    6.5201 H   0  0  0  0  0  0  0  0  0  0  0  0
    3.5699  -14.9884    7.1473 H   0  0  0  0  0  0  0  0  0  0  0  0
    3.2168  -15.8137    5.0874 H   0  0  0  0  0  0  0  0  0  0  0  0
  1  2  1  0  0  0  0 
  2  3  1  0  0  0  0 
  3  4  1  0  0  0  0 
  3  5  1  0  0  0  0 
  5  6  1  0  0  0  0 
  5  7  1  0  0  0  0 
  7  8  1  0  0  0  0 
  7  9  1  0  0  0  0 
  9 10  1  0  0  0  0 
  9 11  1  0  0  0  0 
 11 12  1  0  0  0  0 
  1 13  1  0  0  0  0 
  2 14  1  0  0  0  0 
  2 15  1  0  0  0  0 
  3 16  1  0  0  0  0 
  4 17  1  0  0  0  0 
  5 18  1  0  0  0  0 
  6 19  1  0  0  0  0 
  7 20  1  0  0  0  0 
  8 21  1  0  0  0  0 
  9 22  1  0  0  0  0 
 10 23  1  0  0  0  0 
 11 24  1  0  0  0  0 
 11 25  1  0  0  0  0 
 12 26  1  0  0  0  0 
M  END
> <cdk:Title>
mannitol

> <Conformer>
1

> <SuperDrugID>
SD000831

$$$$
