oteracil
  CDK     0628171801

 14 14  0  0  0  0  0  0  0  0999 V2000
    2.4491    0.1625   -0.2023 O   0  0  0  0  0  0  0  0  0  0  0  0
    1.0997    0.0519   -0.2348 C   0  0  0  0  0  0  0  0  0  0  0  0
    0.6076   -1.0558   -0.5507 O   0  0  0  0  0  0  0  0  0  0  0  0
    0.2816    1.1526    0.0780 C   0  0  0  0  0  0  0  0  0  0  0  0
    0.8442    2.3456    0.4081 N   0  0  0  0  0  0  0  0  0  0  0  0
    0.0709    3.4225    0.6927 C   0  0  0  0  0  0  0  0  0  0  0  0
    0.6091    4.5106    0.9923 O   0  0  0  0  0  0  0  0  0  0  0  0
   -1.2800    3.3141    0.6492 N   0  0  0  0  0  0  0  0  0  0  0  0
   -1.8542    2.1256    0.3342 C   0  0  0  0  0  0  0  0  0  0  0  0
   -3.0997    2.0197    0.3054 O   0  0  0  0  0  0  0  0  0  0  0  0
   -1.0759    1.0509    0.0493 N   0  0  0  0  0  0  0  0  0  0  0  0
    3.0143   -0.6064   -0.4274 H   0  0  0  0  0  0  0  0  0  0  0  0
   -1.8356    4.0858    0.8432 H   0  0  0  0  0  0  0  0  0  0  0  0
   -1.4943    0.2048   -0.1784 H   0  0  0  0  0  0  0  0  0  0  0  0
  1  2  1  0  0  0  0 
  2  3  2  0  0  0  0 
  2  4  1  0  0  0  0 
  4  5  2  0  0  0  0 
  5  6  1  0  0  0  0 
  6  7  2  0  0  0  0 
  6  8  1  0  0  0  0 
  8  9  1  0  0  0  0 
  9 10  2  0  0  0  0 
  9 11  1  0  0  0  0 
  4 11  1  0  0  0  0 
 12  1  1  0  0  0  0 
 13  8  1  0  0  0  0 
 14 11  1  0  0  0  0 
M  END
> <cdk:Title>
oteracil

> <Conformer>
1

> <SuperDrugID>
SD001791

$$$$
